# Generated by pormake.
# Topology fst, (5)-cn, num edge types: 1
# Building blocks:
#     Node 0, Type 0, BuildingBlock: XOMCOT_clean_sbu_1, # of connection points: 5
#     Node 1, Type 0, BuildingBlock: XOMCOT_clean_sbu_1, # of connection points: 5
#     Node 2, Type 0, BuildingBlock: XOMCOT_clean_sbu_1, # of connection points: 5
#     Node 3, Type 0, BuildingBlock: XOMCOT_clean_sbu_1, # of connection points: 5
#     Node 4, Type 0, BuildingBlock: XOMCOT_clean_sbu_1, # of connection points: 5
#     Node 5, Type 0, BuildingBlock: XOMCOT_clean_sbu_1, # of connection points: 5
#     Node 6, Type 0, BuildingBlock: XOMCOT_clean_sbu_1, # of connection points: 5
#     Node 7, Type 0, BuildingBlock: XOMCOT_clean_sbu_1, # of connection points: 5
#     Node 8, Type 0, BuildingBlock: XOMCOT_clean_sbu_1, # of connection points: 5
#     Node 9, Type 0, BuildingBlock: XOMCOT_clean_sbu_1, # of connection points: 5
#     Node 10, Type 0, BuildingBlock: XOMCOT_clean_sbu_1, # of connection points: 5
#     Node 11, Type 0, BuildingBlock: XOMCOT_clean_sbu_1, # of connection points: 5
#     Edge 12, Type (0, 0), BuildingBlock: EZIPEK_clean_linker_0, # of connection points: 2
#     Edge 13, Type (0, 0), BuildingBlock: EZIPEK_clean_linker_0, # of connection points: 2
#     Edge 14, Type (0, 0), BuildingBlock: EZIPEK_clean_linker_0, # of connection points: 2
#     Edge 15, Type (0, 0), BuildingBlock: EZIPEK_clean_linker_0, # of connection points: 2
#     Edge 16, Type (0, 0), BuildingBlock: EZIPEK_clean_linker_0, # of connection points: 2
#     Edge 17, Type (0, 0), BuildingBlock: EZIPEK_clean_linker_0, # of connection points: 2
#     Edge 18, Type (0, 0), BuildingBlock: EZIPEK_clean_linker_0, # of connection points: 2
#     Edge 19, Type (0, 0), BuildingBlock: EZIPEK_clean_linker_0, # of connection points: 2
#     Edge 20, Type (0, 0), BuildingBlock: EZIPEK_clean_linker_0, # of connection points: 2
#     Edge 21, Type (0, 0), BuildingBlock: EZIPEK_clean_linker_0, # of connection points: 2
#     Edge 22, Type (0, 0), BuildingBlock: EZIPEK_clean_linker_0, # of connection points: 2
#     Edge 23, Type (0, 0), BuildingBlock: EZIPEK_clean_linker_0, # of connection points: 2
#     Edge 24, Type (0, 0), BuildingBlock: EZIPEK_clean_linker_0, # of connection points: 2
#     Edge 25, Type (0, 0), BuildingBlock: EZIPEK_clean_linker_0, # of connection points: 2
#     Edge 26, Type (0, 0), BuildingBlock: EZIPEK_clean_linker_0, # of connection points: 2
#     Edge 27, Type (0, 0), BuildingBlock: EZIPEK_clean_linker_0, # of connection points: 2
#     Edge 28, Type (0, 0), BuildingBlock: EZIPEK_clean_linker_0, # of connection points: 2
#     Edge 29, Type (0, 0), BuildingBlock: EZIPEK_clean_linker_0, # of connection points: 2
#     Edge 30, Type (0, 0), BuildingBlock: EZIPEK_clean_linker_0, # of connection points: 2
#     Edge 31, Type (0, 0), BuildingBlock: EZIPEK_clean_linker_0, # of connection points: 2
#     Edge 32, Type (0, 0), BuildingBlock: EZIPEK_clean_linker_0, # of connection points: 2
#     Edge 33, Type (0, 0), BuildingBlock: EZIPEK_clean_linker_0, # of connection points: 2
#     Edge 34, Type (0, 0), BuildingBlock: EZIPEK_clean_linker_0, # of connection points: 2
#     Edge 35, Type (0, 0), BuildingBlock: EZIPEK_clean_linker_0, # of connection points: 2
#     Edge 36, Type (0, 0), BuildingBlock: EZIPEK_clean_linker_0, # of connection points: 2
#     Edge 37, Type (0, 0), BuildingBlock: EZIPEK_clean_linker_0, # of connection points: 2
#     Edge 38, Type (0, 0), BuildingBlock: EZIPEK_clean_linker_0, # of connection points: 2
#     Edge 39, Type (0, 0), BuildingBlock: EZIPEK_clean_linker_0, # of connection points: 2
#     Edge 40, Type (0, 0), BuildingBlock: EZIPEK_clean_linker_0, # of connection points: 2
#     Edge 41, Type (0, 0), BuildingBlock: EZIPEK_clean_linker_0, # of connection points: 2
# Relax obj value: 0.134
# Max RMSD: 0.119
# Mean RMSD: 0.119
data_MOF--net-fst--node1-XOMCOT_clean_sbu_1--edge1-EZIPEK_clean_linker_0
_symmetry_space_group_name_H-M    P1
_symmetry_Int_Tables_number       1
_symmetry_cell_setting            triclinic
loop_
_symmetry_equiv_pos_as_xyz
'x, y, z'
_cell_length_a     55.214987
_cell_length_b     55.282646
_cell_length_c     13.595928
_cell_angle_alpha  90.355262
_cell_angle_beta   89.881808
_cell_angle_gamma 120.03589
loop_
_atom_site_label
_atom_site_type_symbol
_atom_site_fract_x
_atom_site_fract_y
_atom_site_fract_z
_atom_type_partial_charge
C0 C 0.17123 0.46377 0.98724 0.0
C1 C 0.17402 0.46391 0.88676 0.0
N2 N 0.14975 0.44367 0.84888 0.0
N3 N 0.14536 0.44348 1.01301 0.0
C4 C 0.13278 0.43132 0.92672 0.0
H5 H 0.18663 0.47856 0.03805 0.0
Co6 Co 0.13273 0.43911 0.14349 0.0
C7 C 0.07009 0.40444 0.09495 0.0
O8 O 0.06598 0.42578 0.09968 0.0
N9 N 0.12088 0.435 0.27699 0.0
C10 C 0.09648 0.43125 0.41285 0.0
C11 C 0.09672 0.43238 0.3121 0.0
C12 C 0.13534 0.43623 0.35929 0.0
N13 N 0.12077 0.43371 0.44237 0.0
O14 O 0.145 0.41218 0.16172 0.0
H15 H 0.08061 0.43256 0.26862 0.0
H16 H 0.15654 0.44013 0.35913 0.0
O17 O 0.09465 0.4078 0.1074 0.0
C18 C 0.17111 0.42398 0.18105 0.0
O19 O 0.18506 0.4511 0.19603 0.0
N20 N 0.12419 0.46822 0.1244 0.0
C21 C 0.1294 0.52066 0.08109 0.0
C22 C 0.11459 0.49723 1.01867 0.0
C23 C 0.11346 0.47192 0.03908 0.0
C24 C 0.13547 0.48944 0.19172 0.0
C25 C 0.13695 0.515 0.17373 0.0
H26 H 0.10432 0.45548 0.98459 0.0
H27 H 0.14467 0.48727 0.25872 0.0
H28 H 0.11113 0.41508 0.92026 0.0
H29 H 0.19178 0.47885 0.84417 0.0
H30 H 0.08031 0.43006 0.46117 0.0
H31 H 0.10395 0.49784 0.95321 0.0
H32 H 0.14452 0.53007 0.23301 0.0
C33 C 0.69366 0.14318 0.90245 0.0
C34 C 0.69404 0.14455 0.80154 0.0
N35 N 0.70794 0.13207 0.76782 0.0
N36 N 0.70666 0.12925 0.93223 0.0
C37 C 0.71579 0.12338 0.84791 0.0
H38 H 0.68467 0.15213 0.9509 0.0
Co39 Co 0.71246 0.12362 0.06424 0.0
C40 C 0.69326 0.06322 0.98623 0.0
O41 O 0.68834 0.06577 0.89361 0.0
N42 N 0.71925 0.11863 0.197 0.0
C43 C 0.73518 0.10471 0.32291 0.0
C44 C 0.7331 0.10513 0.22233 0.0
C45 C 0.71365 0.12673 0.28444 0.0
N46 N 0.72294 0.1183 0.36128 0.0
O47 O 0.75145 0.13719 0.03554 0.0
H48 H 0.74126 0.09606 0.17059 0.0
H49 H 0.70311 0.13853 0.29342 0.0
O50 O 0.70234 0.08431 0.04379 0.0
C51 C 0.76546 0.16351 0.05071 0.0
O52 O 0.75229 0.17607 0.08484 0.0
N53 N 0.67452 0.11275 0.09128 0.0
C54 C 0.62174 0.10848 0.09187 0.0
C55 C 0.62596 0.08843 0.04372 0.0
C56 C 0.65234 0.09076 0.04512 0.0
C57 C 0.67063 0.13235 0.13885 0.0
C58 C 0.64423 0.12999 0.14368 0.0
H59 H 0.65509 0.07618 1.001 0.0
H60 H 0.6885 0.15132 0.16552 0.0
H61 H 0.72808 0.11311 0.84496 0.0
H62 H 0.68504 0.15409 0.75629 0.0
H63 H 0.74478 0.09512 0.36479 0.0
H64 H 0.60932 0.07184 1.00108 0.0
H65 H 0.64197 0.14622 0.18019 0.0
C66 C 0.54705 0.68161 0.82575 0.0
C67 C 0.54634 0.68186 0.72466 0.0
N68 N 0.57272 0.69367 0.69175 0.0
N69 N 0.57381 0.69273 0.85734 0.0
C70 C 0.58902 0.70062 0.7729 0.0
H71 H 0.52886 0.67419 0.87185 0.0
Co72 Co 0.58744 0.69863 0.98957 0.0
C73 C 0.61623 0.6713 0.89078 0.0
O74 O 0.59257 0.65402 0.84655 0.0
N75 N 0.60086 0.70541 0.11997 0.0
C76 C 0.62939 0.72079 0.24975 0.0
C77 C 0.6279 0.71991 0.14852 0.0
C78 C 0.58624 0.6984 0.2054 0.0
N79 N 0.60315 0.70729 0.28514 0.0
O80 O 0.61219 0.73742 0.95918 0.0
H81 H 0.64544 0.73013 0.09895 0.0
H82 H 0.56366 0.68717 0.20961 0.0
O83 O 0.61668 0.68935 0.95161 0.0
C84 C 0.60055 0.75172 0.98021 0.0
O85 O 0.5753 0.7388 1.01826 0.0
N86 N 0.56136 0.66127 0.02432 0.0
C87 C 0.51728 0.60921 0.08018 0.0
C88 C 0.54439 0.61341 0.06974 0.0
C89 C 0.56641 0.63995 0.0442 0.0
C90 C 0.53558 0.65791 0.04285 0.0
C91 C 0.51314 0.63199 0.06895 0.0
H92 H 0.58735 0.64319 0.04212 0.0
H93 H 0.53247 0.67567 0.0375 0.0
H94 H 0.61163 0.71107 0.77074 0.0
H95 H 0.52793 0.67418 0.67868 0.0
H96 H 0.64819 0.73111 0.29408 0.0
H97 H 0.54845 0.5964 0.08142 0.0
H98 H 0.49263 0.62968 0.07963 0.0
C99 C 0.87294 0.54417 0.85662 0.0
C100 C 0.87185 0.5435 0.75567 0.0
N101 N 0.8864 0.56988 0.72348 0.0
N102 N 0.88873 0.57087 0.88866 0.0
C103 C 0.89601 0.58614 0.80488 0.0
H104 H 0.86184 0.52608 0.90263 0.0
Co105 Co 0.89485 0.58325 1.02151 0.0
C106 C 0.95315 0.61765 0.93677 0.0
O107 O 0.94942 0.59779 0.87467 0.0
N108 N 0.90014 0.59563 0.15255 0.0
C109 C 0.91158 0.62443 0.2814 0.0
C110 C 0.91146 0.62267 0.18045 0.0
C111 C 0.89334 0.58128 0.23803 0.0
N112 N 0.90023 0.59841 0.31706 0.0
O113 O 0.87951 0.60703 0.99225 0.0
H114 H 0.91904 0.64008 0.13031 0.0
H115 H 0.88338 0.55878 0.24279 0.0
O116 O 0.93319 0.61411 0.99373 0.0
C117 C 0.85314 0.59394 1.0066 0.0
O118 O 0.84117 0.56808 0.03811 0.0
N119 N 0.90706 0.55747 0.05302 0.0
C120 C 0.91474 0.51149 0.06934 0.0
C121 C 0.9378 0.53847 0.06198 0.0
C122 C 0.93354 0.56134 0.0559 0.0
C123 C 0.8848 0.53165 0.07204 0.0
C124 C 0.88806 0.50824 0.07879 0.0
H125 H 0.95166 0.58168 0.05162 0.0
H126 H 0.86402 0.52897 0.07595 0.0
H127 H 0.90786 0.60873 0.80344 0.0
H128 H 0.86076 0.52517 0.70932 0.0
H129 H 0.91934 0.64326 0.3254 0.0
H130 H 0.95882 0.54172 0.05792 0.0
H131 H 0.86983 0.48768 0.08694 0.0
C132 C 0.33103 0.87032 0.89367 0.0
C133 C 0.33131 0.86973 0.79267 0.0
N134 N 0.32271 0.88708 0.75981 0.0
N135 N 0.32278 0.88834 0.92436 0.0
C136 C 0.31772 0.89821 0.8408 0.0
H137 H 0.33566 0.85765 0.9418 0.0
Co138 Co 0.31602 0.89297 0.05561 0.0
C139 C 0.34315 0.95317 0.09809 0.0
O140 O 0.35002 0.94692 0.18268 0.0
N141 N 0.30752 0.89629 0.18963 0.0
C142 C 0.28736 0.90584 0.31543 0.0
C143 C 0.28957 0.90532 0.21483 0.0
C144 C 0.31578 0.89131 0.27755 0.0
N145 N 0.30395 0.89712 0.35418 0.0
O146 O 0.27798 0.88194 1.0204 0.0
H147 H 0.27908 0.91177 0.16312 0.0
H148 H 0.33041 0.88404 0.2873 0.0
O149 O 0.32891 0.93349 0.03555 0.0
C150 C 0.26195 0.85562 0.02853 0.0
O151 O 0.27252 0.84071 0.06293 0.0
N152 N 0.35305 0.90132 0.085 0.0
C153 C 0.40473 0.90327 0.08451 0.0
C154 C 0.40128 0.92338 0.0345 0.0
C155 C 0.37534 0.92199 0.03522 0.0
C156 C 0.35597 0.88118 0.13204 0.0
C157 C 0.38188 0.8824 0.13625 0.0
H158 H 0.37274 0.93618 0.98822 0.0
H159 H 0.3377 0.86294 0.16045 0.0
H160 H 0.30949 0.91233 0.83922 0.0
H161 H 0.33621 0.85669 0.7467 0.0
H162 H 0.27487 0.91238 0.35704 0.0
H163 H 0.41817 0.93927 0.99105 0.0
H164 H 0.38354 0.86599 0.17325 0.0
C165 C 0.39396 0.29459 0.82608 0.0
C166 C 0.3927 0.29315 0.72491 0.0
N167 N 0.41902 0.30588 0.69036 0.0
N168 N 0.42098 0.3083 0.8552 0.0
C169 C 0.43581 0.31483 0.77041 0.0
H170 H 0.37623 0.28553 0.87544 0.0
Co171 Co 0.4337 0.31295 0.9856 0.0
C172 C 0.40219 0.33717 0.08825 0.0
O173 O 0.4245 0.35373 0.14028 0.0
N174 N 0.44672 0.31668 0.118 0.0
C175 C 0.47414 0.32552 0.24978 0.0
C176 C 0.47333 0.3263 0.14884 0.0
C177 C 0.43161 0.30872 0.20251 0.0
N178 N 0.4479 0.31465 0.28329 0.0
O179 O 0.40996 0.27346 1.00666 0.0
H180 H 0.49132 0.33303 0.10211 0.0
H181 H 0.40908 0.29866 0.20485 0.0
O182 O 0.40311 0.3201 0.02615 0.0
C183 C 0.42197 0.26026 0.97586 0.0
O184 O 0.4466 0.27446 0.93387 0.0
N185 N 0.45918 0.35128 0.96074 0.0
C186 C 0.50383 0.40577 0.95288 0.0
C187 C 0.47631 0.40067 0.95434 0.0
C188 C 0.4541 0.37304 0.95496 0.0
C189 C 0.4856 0.35606 0.94478 0.0
C190 C 0.50839 0.38319 0.94294 0.0
H191 H 0.43314 0.36953 0.95301 0.0
H192 H 0.48913 0.33856 0.93841 0.0
H193 H 0.45841 0.32526 0.76721 0.0
H194 H 0.37398 0.28318 0.68006 0.0
H195 H 0.49254 0.33239 0.29528 0.0
H196 H 0.47211 0.41781 0.95728 0.0
H197 H 0.52941 0.38649 0.93774 0.0
C198 C 0.55873 0.84968 0.13793 0.0
C199 C 0.55822 0.84642 0.23829 0.0
N200 N 0.57931 0.86993 0.27751 0.0
N201 N 0.58003 0.87514 0.1136 0.0
C202 C 0.59254 0.88688 0.20057 0.0
H203 H 0.54366 0.83492 0.08618 0.0
Co204 Co 0.58592 0.88858 0.98359 0.0
C205 C 0.61918 0.95017 0.03653 0.0
O206 O 0.5975 0.95346 1.02307 0.0
N207 N 0.59192 0.90099 0.85006 0.0
C208 C 0.60127 0.92594 0.71221 0.0
C209 C 0.60054 0.92674 0.81299 0.0
C210 C 0.5872 0.88484 0.76864 0.0
N211 N 0.59292 0.89962 0.68453 0.0
O212 O 0.61255 0.87594 0.9674 0.0
H213 H 0.60534 0.94517 0.85434 0.0
H214 H 0.5788 0.86251 0.7703 0.0
O215 O 0.61683 0.926 0.02615 0.0
C216 C 0.60082 0.84997 0.94607 0.0
O217 O 0.57375 0.83616 0.92963 0.0
N218 N 0.55707 0.89811 1.00012 0.0
C219 C 0.50862 0.90177 0.02843 0.0
C220 C 0.52804 0.90861 0.10444 0.0
C221 C 0.55211 0.90685 0.08868 0.0
C222 C 0.53786 0.89078 0.9261 0.0
C223 C 0.51402 0.89328 0.93767 0.0
H224 H 0.56686 0.91285 0.14826 0.0
H225 H 0.54019 0.8819 0.85833 0.0
H226 H 0.60973 0.90808 0.20828 0.0
H227 H 0.54261 0.82887 0.27992 0.0
H228 H 0.60666 0.94317 0.66268 0.0
H229 H 0.52453 0.9151 0.17587 0.0
H230 H 0.49924 0.88738 0.87755 0.0
C231 C 0.71819 0.61958 0.1358 0.0
C232 C 0.71895 0.62069 0.23691 0.0
N233 N 0.70573 0.59435 0.27045 0.0
N234 N 0.70436 0.59263 0.10575 0.0
C235 C 0.69716 0.57767 0.18991 0.0
H236 H 0.7278 0.63734 0.08706 0.0
Co237 Co 0.70065 0.58044 0.97504 0.0
C238 C 0.67236 0.60924 0.88264 0.0
O239 O 0.65548 0.58626 0.83399 0.0
N240 N 0.69807 0.56824 0.84226 0.0
C241 C 0.6951 0.54229 0.71118 0.0
C242 C 0.69472 0.54336 0.81214 0.0
C243 C 0.70219 0.58255 0.75722 0.0
N244 N 0.69968 0.56692 0.67693 0.0
O245 O 0.74021 0.6055 0.95546 0.0
H246 H 0.69329 0.52717 0.85961 0.0
H247 H 0.70757 0.60419 0.75373 0.0
O248 O 0.69167 0.60989 0.93684 0.0
C249 C 0.7537 0.59385 0.98638 0.0
O250 O 0.73961 0.56886 0.02527 0.0
N251 N 0.6624 0.55355 0.99858 0.0
C252 C 0.60791 0.50869 1.00639 0.0
C253 C 0.61306 0.53604 1.01742 0.0
C254 C 0.6407 0.55824 1.01687 0.0
C255 C 0.65771 0.52691 1.00287 0.0
C256 C 0.63058 0.50408 1.00401 0.0
H257 H 0.64427 0.57901 0.02861 0.0
H258 H 0.67519 0.52332 1.00423 0.0
H259 H 0.68671 0.55509 0.19224 0.0
H260 H 0.72905 0.63931 0.28242 0.0
H261 H 0.6929 0.52507 0.66623 0.0
H262 H 0.59592 0.54017 0.02471 0.0
H263 H 0.6273 0.48306 1.00084 0.0
C264 C 0.16286 0.71874 0.12934 0.0
C265 C 0.16256 0.72177 0.22921 0.0
N266 N 0.13891 0.72168 0.25376 0.0
N267 N 0.13924 0.71615 0.0905 0.0
C268 C 0.1253 0.71883 0.1679 0.0
H269 H 0.17895 0.71762 0.08755 0.0
Co270 Co 0.13185 0.70812 0.95767 0.0
C271 C 0.07013 0.67662 0.93246 0.0
O272 O 0.07302 0.65945 0.87315 0.0
N273 N 0.12588 0.70031 0.81919 0.0
C274 C 0.12133 0.68028 0.672 0.0
C275 C 0.12313 0.67749 0.77085 0.0
C276 C 0.12523 0.71655 0.74572 0.0
N277 N 0.12282 0.70485 0.65588 0.0
O278 O 0.14105 0.74627 0.93807 0.0
H279 H 0.12159 0.65908 0.80348 0.0
H280 H 0.12706 0.73679 0.75702 0.0
O281 O 0.09169 0.69669 0.97462 0.0
C282 C 0.16708 0.76226 0.92152 0.0
O283 O 0.18241 0.75071 0.90297 0.0
N284 N 0.12614 0.67212 0.9834 0.0
C285 C 0.12731 0.62326 1.02102 0.0
C286 C 0.10442 0.62584 0.05113 0.0
C287 C 0.10452 0.65086 0.03345 0.0
C288 C 0.14936 0.67048 0.96069 0.0
C289 C 0.15016 0.64605 0.97699 0.0
H290 H 0.08751 0.65315 0.0616 0.0
H291 H 0.1671 0.68814 0.9269 0.0
H292 H 0.1054 0.71804 0.16219 0.0
H293 H 0.17824 0.72329 0.28058 0.0
H294 H 0.11922 0.66542 0.6156 0.0
H295 H 0.08689 0.60886 0.08867 0.0
H296 H 0.16845 0.64491 0.95519 0.0
C297 C 0.47413 0.16146 0.16683 0.0
C298 C 0.47515 0.16414 0.26774 0.0
N299 N 0.45158 0.14276 0.30482 0.0
N300 N 0.45011 0.1384 0.14015 0.0
C301 C 0.43653 0.12769 0.22612 0.0
H302 H 0.49044 0.17478 0.11606 0.0
Co303 Co 0.44218 0.12558 1.00898 0.0
C304 C 0.38846 0.07327 0.06327 0.0
O305 O 0.37312 0.0853 0.06291 0.0
N306 N 0.43437 0.1133 0.87654 0.0
C307 C 0.42305 0.08659 0.74185 0.0
C308 C 0.42394 0.08683 0.84291 0.0
C309 C 0.43985 0.12881 0.79389 0.0
N310 N 0.4331 0.11297 0.71125 0.0
O311 O 0.41497 0.13769 1.00342 0.0
H312 H 0.41836 0.0688 0.88827 0.0
H313 H 0.44964 0.15134 0.79393 0.0
O314 O 0.41482 0.08782 0.04962 0.0
C315 C 0.42685 0.16376 0.98477 0.0
O316 O 0.45389 0.17749 0.96803 0.0
N317 N 0.47052 0.11582 1.01443 0.0
C318 C 0.5176 0.10967 0.03459 0.0
C319 C 0.49669 0.09959 0.10674 0.0
C320 C 0.47306 0.10229 0.09413 0.0
C321 C 0.49059 0.12561 0.9431 0.0
C322 C 0.51382 0.12193 0.9502 0.0
H323 H 0.45761 0.09493 0.15163 0.0
H324 H 0.4892 0.13715 0.88168 0.0
H325 H 0.41643 0.10888 0.23165 0.0
H326 H 0.49246 0.17971 0.31096 0.0
H327 H 0.41659 0.06863 0.69416 0.0
H328 H 0.4989 0.09023 0.17339 0.0
H329 H 0.52952 0.13002 0.89281 0.0
C330 C 0.30196 0.39486 0.32533 0.0
C331 C 0.3009 0.39308 0.4261 0.0
N332 N 0.31696 0.41892 0.4625 0.0
N333 N 0.31886 0.4217 0.2977 0.0
C334 C 0.32749 0.43594 0.38406 0.0
H335 H 0.29028 0.37765 0.27496 0.0
Co336 Co 0.32247 0.43311 0.16452 0.0
C337 C 0.34421 0.39399 0.16931 0.0
O338 O 0.35793 0.40752 0.24881 0.0
N339 N 0.32491 0.44432 0.03431 0.0
C340 C 0.33365 0.47225 0.90595 0.0
C341 C 0.33337 0.47081 1.00693 0.0
C342 C 0.31946 0.42982 0.94897 0.0
N343 N 0.32493 0.44648 0.87003 0.0
O344 O 0.28235 0.40981 0.14951 0.0
H345 H 0.33923 0.48806 0.05738 0.0
H346 H 0.31157 0.40756 0.94444 0.0
O347 O 0.32855 0.4016 0.12527 0.0
C348 C 0.26935 0.42177 0.18304 0.0
O349 O 0.28387 0.44642 0.22511 0.0
N350 N 0.36156 0.45858 0.17713 0.0
C351 C 0.4154 0.50501 0.16111 0.0
C352 C 0.40855 0.47988 0.11354 0.0
C353 C 0.38135 0.45718 0.12033 0.0
C354 C 0.36811 0.48301 0.22412 0.0
C355 C 0.39501 0.50635 0.21836 0.0
H356 H 0.37592 0.43952 0.07314 0.0
H357 H 0.35177 0.48532 0.25886 0.0
H358 H 0.34012 0.45833 0.39082 0.0
H359 H 0.28854 0.3745 0.46943 0.0
H360 H 0.3398 0.4907 0.86209 0.0
H361 H 0.42352 0.47851 0.06561 0.0
H362 H 0.39932 0.52582 0.25293 0.0
C363 C 0.86589 0.31475 0.17205 0.0
C364 C 0.86213 0.3123 0.27212 0.0
N365 N 0.88225 0.30839 0.31062 0.0
N366 N 0.88878 0.3132 0.14684 0.0
C367 C 0.89754 0.30804 0.2334 0.0
H368 H 0.85271 0.31781 0.12118 0.0
Co369 Co 0.90141 0.31737 1.01453 0.0
C370 C 0.95735 0.33651 0.12092 0.0
O371 O 0.9526 0.3506 0.18909 0.0
N372 N 0.91256 0.32116 0.88227 0.0
C373 C 0.9383 0.3366 0.74632 0.0
C374 C 0.93866 0.33776 0.8472 0.0
C375 C 0.89648 0.31077 0.80062 0.0
N376 N 0.91176 0.3197 0.7171 0.0
O377 O 0.88788 0.27775 1.00943 0.0
H378 H 0.95667 0.35122 0.89152 0.0
H379 H 0.87394 0.29795 0.80196 0.0
O380 O 0.93908 0.32405 0.05319 0.0
C381 C 0.86164 0.26328 0.99297 0.0
O382 O 0.84784 0.27638 0.97428 0.0
N383 N 0.91219 0.35577 1.01718 0.0
C384 C 0.91772 0.40871 0.02805 0.0
C385 C 0.94112 0.40547 0.03954 0.0
C386 C 0.93802 0.37877 0.03184 0.0
C387 C 0.88985 0.35914 0.99751 0.0
C388 C 0.89201 0.38534 1.00405 0.0
H389 H 0.95654 0.3771 0.03609 0.0
H390 H 0.87001 0.34116 0.97771 0.0
H391 H 0.91487 0.30433 0.2409 0.0
H392 H 0.84658 0.3144 0.314 0.0
H393 H 0.95587 0.34846 0.69779 0.0
H394 H 0.96155 0.4234 0.05406 0.0
H395 H 0.87371 0.38732 0.99139 0.0
C396 C 0.11917 0.577 0.9588 0.0
C397 C 0.12821 0.59713 0.03562 0.0
C398 C 0.1495 0.57313 0.11819 0.0
C399 C 0.13488 0.54982 0.05401 0.0
N400 N 0.12869 0.54375 0.87849 0.0
N401 N 0.152 0.61433 0.19093 0.0
C402 C 0.12573 0.55525 0.96346 0.0
C403 C 0.14335 0.59516 0.11622 0.0
N404 N 0.10459 0.57869 0.88072 0.0
N405 N 0.17272 0.57683 0.16673 0.0
H406 H 0.14817 0.631 0.19163 0.0
H407 H 0.16088 0.61216 0.2555 0.0
H408 H 0.1812 0.56397 0.15302 0.0
H409 H 0.18572 0.59474 0.20755 0.0
H410 H 0.09538 0.56295 0.82766 0.0
H411 H 0.09987 0.59467 0.87346 0.0
H412 H 0.12466 0.54885 0.80909 0.0
H413 H 0.13952 0.53276 0.87701 0.0
C414 C 0.56878 0.08454 0.10086 0.0
C415 C 0.59488 0.10862 0.07888 0.0
C416 C 0.57034 0.13419 0.04362 0.0
C417 C 0.54414 0.1091 0.05036 0.0
N418 N 0.51929 0.05872 0.06363 0.0
N419 N 0.61884 0.15379 0.99948 0.0
C420 C 0.54355 0.08372 0.07282 0.0
C421 C 0.59523 0.13275 0.04154 0.0
N422 N 0.56792 0.06283 0.15122 0.0
N423 N 0.57175 0.15958 0.0432 0.0
H424 H 0.63702 0.15278 0.98905 0.0
H425 H 0.61911 0.17062 0.9642 0.0
H426 H 0.55421 0.16185 0.05157 0.0
H427 H 0.59068 0.17839 0.04648 0.0
H428 H 0.54932 0.04592 0.17635 0.0
H429 H 0.58586 0.06315 0.17697 0.0
H430 H 0.51846 0.03956 0.07081 0.0
H431 H 0.5007 0.05706 0.03832 0.0
C432 C 0.46363 0.54286 0.21284 0.0
C433 C 0.44244 0.53085 0.13977 0.0
C434 C 0.47303 0.56717 1.0234 0.0
C435 C 0.49278 0.58105 0.09973 0.0
N436 N 0.50587 0.58401 0.27033 0.0
N437 N 0.42501 0.53404 0.98035 0.0
C438 C 0.48791 0.56934 0.19538 0.0
C439 C 0.44664 0.54361 0.04612 0.0
N440 N 0.46078 0.52868 0.29801 0.0
N441 N 0.47974 0.57624 0.92859 0.0
H442 H 0.40517 0.51709 0.99424 0.0
H443 H 0.42593 0.54443 0.9156 0.0
H444 H 0.49895 0.59336 0.90903 0.0
H445 H 0.46742 0.56527 0.86834 0.0
H446 H 0.47669 0.53487 0.34984 0.0
H447 H 0.44321 0.50937 0.31322 0.0
H448 H 0.50187 0.57811 0.3438 0.0
H449 H 0.52397 0.60328 0.2601 0.0
C450 C 0.92229 0.4524 0.95512 0.0
C451 C 0.91988 0.4365 0.0398 0.0
C452 C 0.91877 0.47223 0.14511 0.0
C453 C 0.9181 0.48651 0.05977 0.0
N454 N 0.91645 0.48919 0.88302 0.0
N455 N 0.91356 0.42955 0.21495 0.0
C456 C 0.91928 0.47642 0.96453 0.0
C457 C 0.91768 0.44604 0.13489 0.0
N458 N 0.9279 0.44472 0.86593 0.0
N459 N 0.92088 0.484 0.23573 0.0
H460 H 0.91337 0.4106 0.21069 0.0
H461 H 0.90858 0.43366 0.2846 0.0
H462 H 0.92131 0.50295 0.24555 0.0
H463 H 0.92436 0.47622 0.3004 0.0
H464 H 0.93287 0.45697 0.80312 0.0
H465 H 0.92989 0.42705 0.85631 0.0
H466 H 0.91378 0.48098 0.81219 0.0
H467 H 0.9148 0.50717 0.8865 0.0
C468 C 0.45727 0.92616 0.10181 0.0
C469 C 0.43135 0.90261 0.07387 0.0
C470 C 0.4559 0.87734 0.03139 0.0
C471 C 0.48204 0.90214 0.04536 0.0
N472 N 0.50729 0.952 0.07477 0.0
N473 N 0.40741 0.85836 0.98692 0.0
C474 C 0.48268 0.92713 0.07538 0.0
C475 C 0.43101 0.87887 0.03158 0.0
N476 N 0.45768 0.94728 0.15589 0.0
N477 N 0.45458 0.85211 1.02132 0.0
H478 H 0.38912 0.85932 0.97967 0.0
H479 H 0.4071 0.84201 0.94723 0.0
H480 H 0.47217 0.84978 0.02549 0.0
H481 H 0.43573 0.83321 1.01995 0.0
H482 H 0.47594 0.96365 0.18586 0.0
H483 H 0.4395 0.94692 0.17931 0.0
H484 H 0.50838 0.97115 0.08693 0.0
H485 H 0.52619 0.95383 0.05212 0.0
C486 C 0.56376 0.46954 0.07752 0.0
C487 C 0.57905 0.48475 0.99396 0.0
C488 C 0.54153 0.45137 0.88512 0.0
C489 C 0.52805 0.43435 0.96768 0.0
N490 N 0.52589 0.42617 0.14237 0.0
N491 N 0.58354 0.49065 0.81805 0.0
C492 C 0.53889 0.4433 0.06412 0.0
C493 C 0.56806 0.47597 0.89762 0.0
N494 N 0.573 0.48037 0.1695 0.0
N495 N 0.52878 0.44402 0.79509 0.0
H496 H 0.60249 0.50936 0.82441 0.0
H497 H 0.57847 0.48372 0.74567 0.0
H498 H 0.5096 0.42586 0.78354 0.0
H499 H 0.53598 0.45675 0.73341 0.0
H500 H 0.56154 0.47186 0.23346 0.0
H501 H 0.59141 0.49929 0.18154 0.0
H502 H 0.53438 0.42972 0.21279 0.0
H503 H 0.50701 0.40738 0.1361 0.0
C504 C 0.22286 0.40333 0.26397 0.0
C505 C 0.23846 0.40934 0.17557 0.0
C506 C 0.19953 0.40849 0.08563 0.0
C507 C 0.18735 0.40919 0.17662 0.0
N508 N 0.18379 0.40242 0.35099 0.0
N509 N 0.24084 0.41447 0.99964 0.0
C510 C 0.19764 0.40449 0.26536 0.0
C511 C 0.22618 0.41017 0.08498 0.0
N512 N 0.23256 0.39686 0.34619 0.0
N513 N 0.18574 0.40692 1.00049 0.0
H514 H 0.25986 0.41479 0.99689 0.0
H515 H 0.23467 0.41846 0.93229 0.0
H516 H 0.16603 0.40517 1.00093 0.0
H517 H 0.19234 0.40474 0.93096 0.0
H518 H 0.22185 0.39089 0.41268 0.0
H519 H 0.25064 0.39535 0.34481 0.0
H520 H 0.1914 0.40207 0.4206 0.0
H521 H 0.16431 0.40121 0.35133 0.0
C522 C 0.83993 0.21993 0.09563 0.0
C523 C 0.84539 0.23228 1.00123 0.0
C524 C 0.80547 0.18947 0.93493 0.0
C525 C 0.79603 0.18087 0.03214 0.0
N526 N 0.80542 0.1852 0.20563 0.0
N527 N 0.8363 0.22759 0.82742 0.0
C528 C 0.814 0.19497 0.11261 0.0
C529 C 0.82933 0.21634 0.91933 0.0
N530 N 0.85924 0.23227 0.16882 0.0
N531 N 0.79138 0.17207 0.85829 0.0
H532 H 0.85467 0.24642 0.81418 0.0
H533 H 0.82378 0.21879 0.76551 0.0
H534 H 0.77439 0.15214 0.86957 0.0
H535 H 0.79812 0.17608 0.7856 0.0
H536 H 0.85765 0.22293 0.2366 0.0
H537 H 0.87834 0.25045 0.15785 0.0
H538 H 0.81565 0.19618 0.26908 0.0
H539 H 0.78727 0.16613 0.21869 0.0
C540 C 0.61845 0.79911 0.05405 0.0
C541 C 0.6147 0.78259 0.96907 0.0
C542 C 0.61614 0.81924 0.86491 0.0
C543 C 0.6155 0.83363 0.95066 0.0
N544 N 0.62611 0.84316 0.12262 0.0
N545 N 0.62041 0.78093 0.79455 0.0
C546 C 0.62038 0.82566 0.04397 0.0
C547 C 0.61733 0.79418 0.87448 0.0
N548 N 0.61873 0.78857 0.14438 0.0
N549 N 0.61409 0.82891 0.77495 0.0
H550 H 0.62145 0.76269 0.80092 0.0
H551 H 0.62448 0.7892 0.72396 0.0
H552 H 0.61491 0.84808 0.76707 0.0
H553 H 0.61113 0.81799 0.7093 0.0
H554 H 0.61803 0.79767 0.21074 0.0
H555 H 0.61911 0.77 0.15213 0.0
H556 H 0.63178 0.8396 0.19158 0.0
H557 H 0.62779 0.86272 0.1161 0.0
C558 C 0.79925 0.61392 0.07363 0.0
C559 C 0.78471 0.60733 0.98299 0.0
C560 C 0.82461 0.60754 0.90213 0.0
C561 C 0.8355 0.6071 0.99588 0.0
N562 N 0.83587 0.61347 0.17096 0.0
N563 N 0.78438 0.60119 0.80791 0.0
C564 C 0.82394 0.61204 0.08163 0.0
C565 C 0.79803 0.60592 0.89566 0.0
N566 N 0.789 0.6216 0.15178 0.0
N567 N 0.8395 0.60894 0.82005 0.0
H568 H 0.76549 0.60108 0.80152 0.0
H569 H 0.79128 0.59672 0.74268 0.0
H570 H 0.85896 0.6102 0.82438 0.0
H571 H 0.83394 0.61141 0.7493 0.0
H572 H 0.79926 0.62845 0.21901 0.0
H573 H 0.77118 0.62346 0.14541 0.0
H574 H 0.82684 0.6137 0.23796 0.0
H575 H 0.85478 0.61364 0.17755 0.0
C576 C 0.20021 0.81124 0.86957 0.0
C577 C 0.18198 0.79287 0.94218 0.0
C578 C 0.21156 0.82482 0.07178 0.0
C579 C 0.2319 0.8408 0.99991 0.0
N580 N 0.24092 0.85628 0.83222 0.0
N581 N 0.16363 0.78884 0.10535 0.0
C582 C 0.22454 0.83649 0.89902 0.0
C583 C 0.18534 0.80201 0.04122 0.0
N584 N 0.19467 0.80369 0.77298 0.0
N585 N 0.21795 0.83073 0.16914 0.0
H586 H 0.14403 0.7729 0.08276 0.0
H587 H 0.16397 0.79599 0.1766 0.0
H588 H 0.23646 0.84823 0.19265 0.0
H589 H 0.20545 0.81798 0.22578 0.0
H590 H 0.20851 0.8142 0.71585 0.0
H591 H 0.17584 0.78631 0.75126 0.0
H592 H 0.23569 0.85541 0.75828 0.0
H593 H 0.25841 0.87503 0.85335 0.0
C594 C 0.41204 0.19317 0.07858 0.0
C595 C 0.41201 0.17995 0.98879 0.0
C596 C 0.40432 0.21357 0.8972 0.0
C597 C 0.40949 0.22949 0.98467 0.0
N598 N 0.40897 0.23081 0.16109 0.0
N599 N 0.40261 0.17327 0.81582 0.0
C600 C 0.40998 0.21787 0.07658 0.0
C601 C 0.40576 0.18853 0.89911 0.0
N602 N 0.41603 0.18306 0.16465 0.0
N603 N 0.39843 0.22293 0.81287 0.0
H604 H 0.40253 0.15436 0.81813 0.0
H605 H 0.3997 0.17874 0.74566 0.0
H606 H 0.39623 0.24063 0.8127 0.0
H607 H 0.39428 0.2128 0.74516 0.0
H608 H 0.41969 0.19322 0.23223 0.0
H609 H 0.41602 0.16422 0.16737 0.0
H610 H 0.40749 0.22276 0.23117 0.0
H611 H 0.40728 0.24875 0.1604 0.0
C612 C 0.13178 0.41488 0.58998 0.0
C613 C 0.13014 0.43683 0.543 0.0
C614 C 0.13838 0.46152 0.70047 0.0
C615 C 0.142 0.44061 0.74641 0.0
N616 N 0.14576 0.39929 0.73508 0.0
N617 N 0.13712 0.48332 0.54779 0.0
C618 C 0.13971 0.41777 0.69106 0.0
C619 C 0.13499 0.46085 0.59681 0.0
N620 N 0.12476 0.39097 0.53859 0.0
N621 N 0.13726 0.48148 0.75678 0.0
H622 H 0.1354 0.48356 0.47142 0.0
H623 H 0.14318 0.50252 0.58122 0.0
H624 H 0.1392 0.4822 0.83314 0.0
H625 H 0.13191 0.49571 0.72913 0.0
H626 H 0.12291 0.37304 0.57039 0.0
H627 H 0.11898 0.38848 0.4646 0.0
H628 H 0.1472 0.38364 0.69719 0.0
H629 H 0.15119 0.40089 0.80928 0.0
C630 C 0.73971 0.14585 0.51462 0.0
C631 C 0.71928 0.12178 0.46412 0.0
C632 C 0.69262 0.10349 0.61659 0.0
C633 C 0.71241 0.12814 0.66615 0.0
N634 N 0.75314 0.17383 0.66465 0.0
N635 N 0.6756 0.07859 0.46101 0.0
C636 C 0.73559 0.14963 0.6157 0.0
C637 C 0.69553 0.10076 0.51369 0.0
N638 N 0.76319 0.16471 0.46546 0.0
N639 N 0.67118 0.0828 0.66891 0.0
H640 H 0.67761 0.07607 0.38587 0.0
H641 H 0.65655 0.06339 0.48959 0.0
H642 H 0.66813 0.08489 0.7435 0.0
H643 H 0.65712 0.06318 0.64053 0.0
H644 H 0.78027 0.18162 0.49874 0.0
H645 H 0.76616 0.16256 0.39083 0.0
H646 H 0.76922 0.1915 0.63142 0.0
H647 H 0.75069 0.17671 0.73915 0.0
C648 C 0.58605 0.67762 0.43352 0.0
C649 C 0.59508 0.70373 0.38757 0.0
C650 C 0.58871 0.72296 0.54275 0.0
C651 C 0.58121 0.69741 0.5899 0.0
N652 N 0.57392 0.65086 0.58532 0.0
N653 N 0.607 0.75185 0.3971 0.0
C654 C 0.58015 0.6748 0.53642 0.0
C655 C 0.59706 0.72662 0.44213 0.0
N656 N 0.58304 0.6556 0.37796 0.0
N657 N 0.58664 0.7432 0.59381 0.0
H658 H 0.6116 0.75458 0.32226 0.0
H659 H 0.6119 0.77029 0.43398 0.0
H660 H 0.58036 0.74075 0.66723 0.0
H661 H 0.58932 0.76153 0.56274 0.0
H662 H 0.57409 0.63519 0.40328 0.0
H663 H 0.5885 0.65753 0.30375 0.0
H664 H 0.57491 0.63415 0.55417 0.0
H665 H 0.56913 0.6483 0.66013 0.0
C666 C 0.91907 0.59172 0.47238 0.0
C667 C 0.89659 0.59085 0.4194 0.0
C668 C 0.86836 0.57866 0.56987 0.0
C669 C 0.8904 0.57835 0.62195 0.0
N670 N 0.93505 0.58084 0.62339 0.0
N671 N 0.84953 0.58222 0.41213 0.0
C672 C 0.91541 0.58403 0.57338 0.0
C673 C 0.87109 0.58395 0.46679 0.0
N674 N 0.94395 0.60022 0.42559 0.0
N675 N 0.84503 0.57418 0.62015 0.0
H676 H 0.85141 0.58653 0.33702 0.0
H677 H 0.82951 0.57538 0.43901 0.0
H678 H 0.84252 0.56975 0.69517 0.0
H679 H 0.8288 0.57608 0.58986 0.0
H680 H 0.96223 0.60414 0.46122 0.0
H681 H 0.94668 0.60481 0.35065 0.0
H682 H 0.95276 0.58215 0.5911 0.0
H683 H 0.93263 0.57496 0.69707 0.0
C684 C 0.29425 0.86774 0.60941 0.0
C685 C 0.31709 0.89027 0.65877 0.0
C686 C 0.33005 0.918 0.50779 0.0
C687 C 0.30838 0.89484 0.45711 0.0
N688 N 0.27101 0.84722 0.45394 0.0
N689 N 0.35854 0.93547 0.65557 0.0
C690 C 0.29075 0.86954 0.50653 0.0
C691 C 0.33541 0.91516 0.6082 0.0
N692 N 0.27565 0.84496 0.66205 0.0
N693 N 0.34516 0.94276 0.45955 0.0
H694 H 0.36286 0.93377 0.72913 0.0
H695 H 0.37433 0.95309 0.62119 0.0
H696 H 0.34197 0.94504 0.38531 0.0
H697 H 0.35954 0.96136 0.49365 0.0
H698 H 0.25722 0.82864 0.63334 0.0
H699 H 0.2777 0.84327 0.73761 0.0
H700 H 0.25895 0.82724 0.48233 0.0
H701 H 0.26772 0.84841 0.37893 0.0
C702 C 0.43682 0.28899 0.44037 0.0
C703 C 0.43975 0.31197 0.38536 0.0
C704 C 0.42873 0.33076 0.53215 0.0
C705 C 0.42709 0.3085 0.58823 0.0
N706 N 0.43199 0.2679 0.60118 0.0
N707 N 0.443 0.3569 0.37955 0.0
C708 C 0.43184 0.28799 0.54368 0.0
C709 C 0.43681 0.33343 0.43146 0.0
N710 N 0.43849 0.26806 0.3927 0.0
N711 N 0.42225 0.34914 0.57565 0.0
H712 H 0.44952 0.35952 0.30648 0.0
H713 H 0.44378 0.37456 0.41024 0.0
H714 H 0.41746 0.34827 0.65031 0.0
H715 H 0.42006 0.36417 0.53731 0.0
H716 H 0.43425 0.24938 0.42536 0.0
H717 H 0.44272 0.26884 0.31761 0.0
H718 H 0.4374 0.25342 0.57622 0.0
H719 H 0.42823 0.26683 0.67663 0.0
C720 C 0.60485 0.87731 0.43459 0.0
C721 C 0.58288 0.87725 0.38072 0.0
C722 C 0.56508 0.88716 0.53218 0.0
C723 C 0.58833 0.88956 0.58437 0.0
N724 N 0.63176 0.88955 0.58659 0.0
N725 N 0.54424 0.88572 0.37372 0.0
C726 C 0.60857 0.88519 0.53596 0.0
C727 C 0.5635 0.88308 0.42848 0.0
N728 N 0.62168 0.86924 0.38869 0.0
N729 N 0.54429 0.88831 0.58286 0.0
H730 H 0.54278 0.88311 0.29757 0.0
H731 H 0.53126 0.89267 0.40212 0.0
H732 H 0.54501 0.89114 0.65898 0.0
H733 H 0.5254 0.88414 0.55139 0.0
H734 H 0.63651 0.86618 0.42494 0.0
H735 H 0.61947 0.86388 0.31427 0.0
H736 H 0.64877 0.88939 0.55418 0.0
H737 H 0.63463 0.89495 0.66107 0.0
C738 C 0.72497 0.57904 0.51847 0.0
C739 C 0.70145 0.57453 0.57476 0.0
C740 C 0.6808 0.58333 0.42926 0.0
C741 C 0.70354 0.58625 0.37201 0.0
N742 N 0.74562 0.58395 0.35645 0.0
N743 N 0.65512 0.56808 0.58303 0.0
C744 C 0.72517 0.58322 0.41517 0.0
C745 C 0.67886 0.57562 0.52997 0.0
N746 N 0.74734 0.58003 0.56495 0.0
N747 N 0.66135 0.58837 0.38698 0.0
H748 H 0.65305 0.56189 0.65631 0.0
H749 H 0.63681 0.56594 0.55309 0.0
H750 H 0.66189 0.59305 0.31245 0.0
H751 H 0.64576 0.58953 0.42626 0.0
H752 H 0.76634 0.58577 0.53088 0.0
H753 H 0.74749 0.5769 0.64041 0.0
H754 H 0.76085 0.57955 0.38073 0.0
H755 H 0.74614 0.58711 0.28078 0.0
C756 C 0.10542 0.69961 0.39245 0.0
C757 C 0.13029 0.7223 0.35369 0.0
C758 C 0.1479 0.73801 0.52074 0.0
C759 C 0.12304 0.71544 0.55915 0.0
N760 N 0.075 0.68067 0.5343 0.0
N761 N 0.1705 0.76768 0.38038 0.0
C762 C 0.10055 0.69863 0.49529 0.0
C763 C 0.14973 0.74326 0.41819 0.0
N764 N 0.08794 0.67757 0.33391 0.0
N765 N 0.17068 0.75268 0.57987 0.0
H766 H 0.17214 0.77168 0.30509 0.0
H767 H 0.18412 0.78466 0.42399 0.0
H768 H 0.17068 0.74839 0.65426 0.0
H769 H 0.19027 0.76747 0.55325 0.0
H770 H 0.07102 0.65935 0.36118 0.0
H771 H 0.09176 0.67607 0.25989 0.0
H772 H 0.05708 0.66927 0.4916 0.0
H773 H 0.07147 0.67949 0.61005 0.0
C774 C 0.42597 0.13795 0.46051 0.0
C775 C 0.44643 0.13495 0.40729 0.0
C776 C 0.46047 0.1213 0.5588 0.0
C777 C 0.43857 0.12212 0.61029 0.0
N778 N 0.39806 0.12748 0.60943 0.0
N779 N 0.47969 0.119 0.40066 0.0
C780 C 0.42067 0.12953 0.56092 0.0
C781 C 0.46277 0.12532 0.4552 0.0
N782 N 0.41215 0.14947 0.41526 0.0
N783 N 0.47943 0.1173 0.60992 0.0
H784 H 0.48123 0.12105 0.32437 0.0
H785 H 0.49016 0.10935 0.42946 0.0
H786 H 0.47836 0.11466 0.68605 0.0
H787 H 0.49748 0.11907 0.57866 0.0
H788 H 0.39895 0.1549 0.45179 0.0
H789 H 0.41549 0.15534 0.34164 0.0
H790 H 0.38259 0.13004 0.57575 0.0
H791 H 0.39376 0.12116 0.68259 0.0
C792 C 0.34332 0.43431 0.72362 0.0
C793 C 0.32262 0.43884 0.76762 0.0
C794 C 0.2999 0.43296 0.60749 0.0
C795 C 0.31958 0.42676 0.56472 0.0
N796 N 0.35814 0.41856 0.58015 0.0
N797 N 0.27967 0.43965 0.75698 0.0
C798 C 0.34079 0.42658 0.62245 0.0
C799 C 0.30047 0.43743 0.71085 0.0
N800 N 0.36585 0.43847 0.77817 0.0
N801 N 0.28101 0.43496 0.54837 0.0
H802 H 0.27982 0.44304 0.8326 0.0
H803 H 0.26145 0.43631 0.72242 0.0
H804 H 0.28013 0.4315 0.47263 0.0
H805 H 0.26753 0.44177 0.57248 0.0
H806 H 0.38306 0.43801 0.74919 0.0
H807 H 0.36818 0.44429 0.85224 0.0
H808 H 0.37235 0.41521 0.61938 0.0
H809 H 0.35715 0.41369 0.5054 0.0
C810 C 0.90525 0.33931 0.56364 0.0
C811 C 0.90197 0.31589 0.61675 0.0
C812 C 0.88323 0.28672 0.46852 0.0
C813 C 0.8895 0.31082 0.41349 0.0
N814 N 0.91047 0.36076 0.40422 0.0
N815 N 0.89081 0.26794 0.61912 0.0
C816 C 0.90163 0.33735 0.45996 0.0
C817 C 0.8916 0.28965 0.5691 0.0
N818 N 0.91099 0.36314 0.61332 0.0
N819 N 0.86868 0.26108 0.42476 0.0
H820 H 0.89698 0.26968 0.69249 0.0
H821 H 0.88595 0.24896 0.58635 0.0
H822 H 0.86235 0.25872 0.35143 0.0
H823 H 0.86111 0.24233 0.4625 0.0
H824 H 0.91118 0.38017 0.58021 0.0
H825 H 0.91277 0.36474 0.68979 0.0
H826 H 0.92195 0.38097 0.43248 0.0
H827 H 0.90853 0.36002 0.32781 0.0
C828 C 0.03315 0.36395 0.1879 0.0
C829 C 0.04466 0.37626 0.09588 0.0
C830 C 0.99944 0.3449 1.01948 0.0
C831 C 0.98646 0.34094 0.11258 0.0
N832 N 0.99119 0.33936 0.28787 0.0
N833 N 0.0393 0.37627 0.92029 0.0
C834 C 1.00349 0.34787 0.19792 0.0
C835 C 0.02806 0.36574 1.01008 0.0
N836 N 0.0506 0.36768 0.26454 0.0
N837 N 0.98512 0.32798 0.94228 0.0
H838 H 0.06048 0.39082 0.91141 0.0
H839 H 0.02725 0.37135 0.85647 0.0
H840 H 0.96524 0.31058 0.95092 0.0
H841 H 0.99433 0.3291 0.8742 0.0
H842 H 0.04379 0.35834 0.33294 0.0
H843 H 0.07223 0.37774 0.25528 0.0
H844 H 1.00194 0.34632 0.35422 0.0
H845 H 0.96979 0.32529 0.29519 0.0
C846 C 0.6485 0.99468 0.1247 0.0
C847 C 0.64669 0.97616 0.04945 0.0
C848 C 0.68632 0.01515 0.96613 0.0
C849 C 0.68264 0.03429 0.02555 0.0
N850 N 0.66133 0.04171 0.17152 0.0
N851 N 0.66634 0.96777 0.90356 0.0
C852 C 0.66471 0.02405 0.10964 0.0
C853 C 0.66683 0.98596 0.97293 0.0
N854 N 0.63419 0.98385 0.21023 0.0
N855 N 0.70859 0.02508 0.90344 0.0
H856 H 0.65399 0.94619 0.91026 0.0
H857 H 0.67766 0.97409 0.83825 0.0
H858 H 0.72346 0.04631 0.89951 0.0
H859 H 0.7139 0.01227 0.86351 0.0
H860 H 0.63644 0.99583 0.27261 0.0
H861 H 0.62226 0.96231 0.22148 0.0
H862 H 0.64515 0.03487 0.22252 0.0
H863 H 0.67396 0.06324 0.17208 0.0
C864 C 0.66455 0.64611 0.96901 0.0
C865 C 0.6662 0.63277 0.88107 0.0
C866 C 0.64365 0.65464 0.79036 0.0
C867 C 0.64026 0.66595 0.87993 0.0
N868 N 0.66226 0.6855 0.03567 0.0
N869 N 0.66627 0.63272 0.70362 0.0
C870 C 0.6555 0.66599 0.96336 0.0
C871 C 0.65862 0.63978 0.79004 0.0
N872 N 0.66954 0.63877 0.0591 0.0
N873 N 0.63251 0.65818 0.70579 0.0
H874 H 0.67833 0.62304 0.70136 0.0
H875 H 0.66317 0.63882 0.63472 0.0
H876 H 0.6247 0.67188 0.70208 0.0
H877 H 0.63069 0.64744 0.64054 0.0
H878 H 0.6654 0.64589 0.12469 0.0
H879 H 0.67512 0.62369 0.06973 0.0
H880 H 0.67483 0.68735 0.09562 0.0
H881 H 0.65955 0.70262 0.0262 0.0
C882 C 0.02719 0.66184 0.03699 0.0
C883 C 0.04125 0.67185 0.94614 0.0
C884 C 0.99631 0.65701 0.86382 0.0
C885 C 0.98215 0.64189 0.94911 0.0
N886 N 0.9834 0.63341 0.12294 0.0
N887 N 0.04051 0.68416 0.77754 0.0
C888 C 0.99732 0.64599 0.03838 0.0
C889 C 0.02611 0.67142 0.86126 0.0
N890 N 0.04245 0.66713 0.12136 0.0
N891 N 0.98094 0.65735 0.78567 0.0
H892 H 0.06229 0.69651 0.77657 0.0
H893 H 0.0313 0.68254 0.70939 0.0
H894 H 0.95914 0.6475 0.78791 0.0
H895 H 0.98942 0.66884 0.72195 0.0
H896 H 0.03399 0.66274 0.19176 0.0
H897 H 0.06417 0.67808 0.12163 0.0
H898 H 0.99297 0.63192 0.18657 0.0
H899 H 0.96183 0.62384 0.13008 0.0
C900 C 0.33863 0.99401 0.03147 0.0
C901 C 0.35476 0.9835 0.07614 0.0
C902 C 0.38923 0.03107 0.12678 0.0
C903 C 0.37537 0.04218 0.07157 0.0
N904 N 0.34029 0.03331 0.94768 0.0
N905 N 0.40069 0.99454 0.13404 0.0
C906 C 0.35098 0.02344 1.01694 0.0
C907 C 0.38173 1.00282 0.11346 0.0
N908 N 0.31134 0.97642 1.00641 0.0
N909 N 0.40868 0.04694 0.19598 0.0
H910 H 0.39699 0.97449 0.1188 0.0
H911 H 0.4213 1.00862 0.15424 0.0
H912 H 0.41276 0.06686 0.21513 0.0
H913 H 0.4178 0.03888 0.24292 0.0
H914 H 0.29816 0.98364 0.98269 0.0
H915 H 0.30111 0.95495 1.01806 0.0
H916 H 0.32412 0.02017 0.90033 0.0
H917 H 0.34952 0.05436 0.92956 0.0
C918 C 0.34866 0.35225 0.20391 0.0
C919 C 0.34874 0.37095 0.13282 0.0
C920 C 0.37127 0.35413 1.01622 0.0
C921 C 0.37773 0.34166 0.09539 0.0
N922 N 0.37063 0.32675 0.26424 0.0
N923 N 0.35914 0.3887 0.96669 0.0
C924 C 0.36541 0.3397 0.18877 0.0
C925 C 0.35909 0.3711 0.03671 0.0
N926 N 0.33246 0.34657 0.28606 0.0
N927 N 0.37696 0.35007 0.92178 0.0
H928 H 0.34916 0.40022 0.97571 0.0
H929 H 0.3702 0.39282 0.90092 0.0
H930 H 0.38547 0.33756 0.90399 0.0
H931 H 0.37043 0.35652 0.86052 0.0
H932 H 0.32964 0.33145 0.33729 0.0
H933 H 0.31945 0.35497 0.29705 0.0
H934 H 0.36559 0.32796 0.33728 0.0
H935 H 0.38105 0.31562 0.25386 0.0
loop_
_geom_bond_atom_site_label_1
_geom_bond_atom_site_label_2
_geom_bond_distance
_geom_bond_site_symmetry_2
_ccdc_geom_bond_type
C0 C1 1.351 . S
C0 N3 1.368 . S
C0 H5 0.931 . S
C1 C0 1.351 . S
C1 N2 1.373 . S
C1 H29 0.930 . S
N2 C1 1.373 . S
N2 C4 1.340 . S
N3 C0 1.368 . S
N3 C4 1.321 . S
N3 Co6 2.135 1_556 S
C4 N2 1.340 . S
C4 N3 1.321 . S
C4 H28 0.930 . S
H5 C0 0.931 . S
Co6 N3 2.135 1_554 S
Co6 N9 2.121 . S
Co6 O14 2.055 . S
Co6 O17 2.039 1_554 S
Co6 N20 2.140 . S
C7 O8 1.227 . S
C7 O17 1.265 . S
O8 C7 1.227 . S
N9 Co6 2.121 . S
N9 C11 1.375 . S
N9 C12 1.313 . S
C10 C11 1.338 . S
C10 N13 1.377 . S
C10 H30 0.930 . S
C11 N9 1.375 . S
C11 C10 1.338 . S
C11 H15 0.931 . S
C12 N9 1.313 . S
C12 N13 1.344 . S
C12 H16 0.930 . S
N13 C10 1.377 . S
N13 C12 1.344 . S
O14 Co6 2.055 . S
O14 C18 1.253 . S
H15 C11 0.931 . S
H16 C12 0.930 . S
O17 Co6 2.039 1_556 S
O17 C7 1.265 . S
C18 O14 1.253 . S
C18 O19 1.227 . S
O19 C18 1.227 . S
N20 Co6 2.140 . S
N20 C23 1.346 1_554 S
N20 C24 1.345 . S
C21 C22 1.387 1_554 S
C21 C25 1.391 . S
C22 C21 1.387 1_556 S
C22 C23 1.369 . S
C22 H31 0.929 . S
C23 N20 1.346 1_556 S
C23 C22 1.369 . S
C23 H26 0.928 . S
C24 N20 1.345 . S
C24 C25 1.371 . S
C24 H27 0.931 . S
C25 C21 1.391 . S
C25 C24 1.371 . S
C25 H32 0.930 . S
H26 C23 0.928 . S
H27 C24 0.931 . S
H28 C4 0.930 . S
H29 C1 0.930 . S
H30 C10 0.930 . S
H31 C22 0.929 . S
H32 C25 0.930 . S
C33 C34 1.351 . S
C33 N36 1.368 . S
C33 H38 0.931 . S
C34 C33 1.351 . S
C34 N35 1.373 . S
C34 H62 0.930 . S
N35 C34 1.373 . S
N35 C37 1.340 . S
N36 C33 1.368 . S
N36 C37 1.321 . S
N36 Co39 2.135 1_556 S
C37 N35 1.340 . S
C37 N36 1.321 . S
C37 H61 0.930 . S
H38 C33 0.931 . S
Co39 N36 2.135 1_554 S
Co39 N42 2.121 . S
Co39 O47 2.055 . S
Co39 O50 2.039 1_554 S
Co39 N53 2.140 . S
C40 O41 1.227 . S
C40 O50 1.265 . S
O41 C40 1.227 . S
N42 Co39 2.121 . S
N42 C44 1.375 . S
N42 C45 1.313 . S
C43 C44 1.338 . S
C43 N46 1.377 . S
C43 H63 0.930 . S
C44 N42 1.375 . S
C44 C43 1.338 . S
C44 H48 0.931 . S
C45 N42 1.313 . S
C45 N46 1.344 . S
C45 H49 0.930 . S
N46 C43 1.377 . S
N46 C45 1.344 . S
O47 Co39 2.055 . S
O47 C51 1.253 . S
H48 C44 0.931 . S
H49 C45 0.930 . S
O50 Co39 2.039 1_556 S
O50 C40 1.265 . S
C51 O47 1.253 . S
C51 O52 1.227 . S
O52 C51 1.227 . S
N53 Co39 2.140 . S
N53 C56 1.346 1_554 S
N53 C57 1.345 . S
C54 C55 1.387 1_554 S
C54 C58 1.391 . S
C55 C54 1.387 1_556 S
C55 C56 1.369 . S
C55 H64 0.929 . S
C56 N53 1.346 1_556 S
C56 C55 1.369 . S
C56 H59 0.928 . S
C57 N53 1.345 . S
C57 C58 1.371 . S
C57 H60 0.931 . S
C58 C54 1.391 . S
C58 C57 1.371 . S
C58 H65 0.930 . S
H59 C56 0.928 . S
H60 C57 0.931 . S
H61 C37 0.930 . S
H62 C34 0.930 . S
H63 C43 0.930 . S
H64 C55 0.929 . S
H65 C58 0.930 . S
C66 C67 1.351 . S
C66 N69 1.368 . S
C66 H71 0.931 . S
C67 C66 1.351 . S
C67 N68 1.373 . S
C67 H95 0.930 . S
N68 C67 1.373 . S
N68 C70 1.340 . S
N69 C66 1.368 . S
N69 C70 1.321 . S
N69 Co72 2.135 1_556 S
C70 N68 1.340 . S
C70 N69 1.321 . S
C70 H94 0.930 . S
H71 C66 0.931 . S
Co72 N69 2.135 1_554 S
Co72 N75 2.121 . S
Co72 O80 2.055 . S
Co72 O83 2.039 1_554 S
Co72 N86 2.140 . S
C73 O74 1.227 . S
C73 O83 1.265 . S
O74 C73 1.227 . S
N75 Co72 2.121 . S
N75 C77 1.375 . S
N75 C78 1.313 . S
C76 C77 1.338 . S
C76 N79 1.377 . S
C76 H96 0.930 . S
C77 N75 1.375 . S
C77 C76 1.338 . S
C77 H81 0.931 . S
C78 N75 1.313 . S
C78 N79 1.344 . S
C78 H82 0.930 . S
N79 C76 1.377 . S
N79 C78 1.344 . S
O80 Co72 2.055 . S
O80 C84 1.253 . S
H81 C77 0.931 . S
H82 C78 0.930 . S
O83 Co72 2.039 1_556 S
O83 C73 1.265 . S
C84 O80 1.253 . S
C84 O85 1.227 . S
O85 C84 1.227 . S
N86 Co72 2.140 . S
N86 C89 1.346 1_554 S
N86 C90 1.345 . S
C87 C88 1.387 1_554 S
C87 C91 1.391 . S
C88 C87 1.387 1_556 S
C88 C89 1.369 . S
C88 H97 0.929 . S
C89 N86 1.346 1_556 S
C89 C88 1.369 . S
C89 H92 0.928 . S
C90 N86 1.345 . S
C90 C91 1.371 . S
C90 H93 0.931 . S
C91 C87 1.391 . S
C91 C90 1.371 . S
C91 H98 0.930 . S
H92 C89 0.928 . S
H93 C90 0.931 . S
H94 C70 0.930 . S
H95 C67 0.930 . S
H96 C76 0.930 . S
H97 C88 0.929 . S
H98 C91 0.930 . S
C99 C100 1.351 . S
C99 N102 1.368 . S
C99 H104 0.931 . S
C100 C99 1.351 . S
C100 N101 1.373 . S
C100 H128 0.930 . S
N101 C100 1.373 . S
N101 C103 1.340 . S
N102 C99 1.368 . S
N102 C103 1.321 . S
N102 Co105 2.135 1_556 S
C103 N101 1.340 . S
C103 N102 1.321 . S
C103 H127 0.930 . S
H104 C99 0.931 . S
Co105 N102 2.135 1_554 S
Co105 N108 2.121 . S
Co105 O113 2.055 . S
Co105 O116 2.039 1_554 S
Co105 N119 2.140 . S
C106 O107 1.227 . S
C106 O116 1.265 . S
O107 C106 1.227 . S
N108 Co105 2.121 . S
N108 C110 1.375 . S
N108 C111 1.313 . S
C109 C110 1.338 . S
C109 N112 1.377 . S
C109 H129 0.930 . S
C110 N108 1.375 . S
C110 C109 1.338 . S
C110 H114 0.931 . S
C111 N108 1.313 . S
C111 N112 1.344 . S
C111 H115 0.930 . S
N112 C109 1.377 . S
N112 C111 1.344 . S
O113 Co105 2.055 . S
O113 C117 1.253 . S
H114 C110 0.931 . S
H115 C111 0.930 . S
O116 Co105 2.039 1_556 S
O116 C106 1.265 . S
C117 O113 1.253 . S
C117 O118 1.227 . S
O118 C117 1.227 . S
N119 Co105 2.140 . S
N119 C122 1.346 1_554 S
N119 C123 1.345 . S
C120 C121 1.387 1_554 S
C120 C124 1.391 . S
C121 C120 1.387 1_556 S
C121 C122 1.369 . S
C121 H130 0.929 . S
C122 N119 1.346 1_556 S
C122 C121 1.369 . S
C122 H125 0.928 . S
C123 N119 1.345 . S
C123 C124 1.371 . S
C123 H126 0.931 . S
C124 C120 1.391 . S
C124 C123 1.371 . S
C124 H131 0.930 . S
H125 C122 0.928 . S
H126 C123 0.931 . S
H127 C103 0.930 . S
H128 C100 0.930 . S
H129 C109 0.930 . S
H130 C121 0.929 . S
H131 C124 0.930 . S
C132 C133 1.351 . S
C132 N135 1.368 . S
C132 H137 0.931 . S
C133 C132 1.351 . S
C133 N134 1.373 . S
C133 H161 0.930 . S
N134 C133 1.373 . S
N134 C136 1.340 . S
N135 C132 1.368 . S
N135 C136 1.321 . S
N135 Co138 2.135 1_556 S
C136 N134 1.340 . S
C136 N135 1.321 . S
C136 H160 0.930 . S
H137 C132 0.931 . S
Co138 N135 2.135 1_554 S
Co138 N141 2.121 . S
Co138 O146 2.055 . S
Co138 O149 2.039 1_554 S
Co138 N152 2.140 . S
C139 O140 1.227 . S
C139 O149 1.265 . S
O140 C139 1.227 . S
N141 Co138 2.121 . S
N141 C143 1.375 . S
N141 C144 1.313 . S
C142 C143 1.338 . S
C142 N145 1.377 . S
C142 H162 0.930 . S
C143 N141 1.375 . S
C143 C142 1.338 . S
C143 H147 0.931 . S
C144 N141 1.313 . S
C144 N145 1.344 . S
C144 H148 0.930 . S
N145 C142 1.377 . S
N145 C144 1.344 . S
O146 Co138 2.055 . S
O146 C150 1.253 . S
H147 C143 0.931 . S
H148 C144 0.930 . S
O149 Co138 2.039 1_556 S
O149 C139 1.265 . S
C150 O146 1.253 . S
C150 O151 1.227 . S
O151 C150 1.227 . S
N152 Co138 2.140 . S
N152 C155 1.346 1_554 S
N152 C156 1.345 . S
C153 C154 1.387 1_554 S
C153 C157 1.391 . S
C154 C153 1.387 1_556 S
C154 C155 1.369 . S
C154 H163 0.929 . S
C155 N152 1.346 1_556 S
C155 C154 1.369 . S
C155 H158 0.928 . S
C156 N152 1.345 . S
C156 C157 1.371 . S
C156 H159 0.931 . S
C157 C153 1.391 . S
C157 C156 1.371 . S
C157 H164 0.930 . S
H158 C155 0.928 . S
H159 C156 0.931 . S
H160 C136 0.930 . S
H161 C133 0.930 . S
H162 C142 0.930 . S
H163 C154 0.929 . S
H164 C157 0.930 . S
C165 C166 1.351 . S
C165 N168 1.368 . S
C165 H170 0.931 . S
C166 C165 1.351 . S
C166 N167 1.373 . S
C166 H194 0.930 . S
N167 C166 1.373 . S
N167 C169 1.340 . S
N168 C165 1.368 . S
N168 C169 1.321 . S
N168 Co171 2.135 1_556 S
C169 N167 1.340 . S
C169 N168 1.321 . S
C169 H193 0.930 . S
H170 C165 0.931 . S
Co171 N168 2.135 1_554 S
Co171 N174 2.121 . S
Co171 O179 2.055 . S
Co171 O182 2.039 1_554 S
Co171 N185 2.140 . S
C172 O173 1.227 . S
C172 O182 1.265 . S
O173 C172 1.227 . S
N174 Co171 2.121 . S
N174 C176 1.375 . S
N174 C177 1.313 . S
C175 C176 1.338 . S
C175 N178 1.377 . S
C175 H195 0.930 . S
C176 N174 1.375 . S
C176 C175 1.338 . S
C176 H180 0.931 . S
C177 N174 1.313 . S
C177 N178 1.344 . S
C177 H181 0.930 . S
N178 C175 1.377 . S
N178 C177 1.344 . S
O179 Co171 2.055 . S
O179 C183 1.253 . S
H180 C176 0.931 . S
H181 C177 0.930 . S
O182 Co171 2.039 1_556 S
O182 C172 1.265 . S
C183 O179 1.253 . S
C183 O184 1.227 . S
O184 C183 1.227 . S
N185 Co171 2.140 . S
N185 C188 1.346 1_554 S
N185 C189 1.345 . S
C186 C187 1.387 1_554 S
C186 C190 1.391 . S
C187 C186 1.387 1_556 S
C187 C188 1.369 . S
C187 H196 0.929 . S
C188 N185 1.346 1_556 S
C188 C187 1.369 . S
C188 H191 0.928 . S
C189 N185 1.345 . S
C189 C190 1.371 . S
C189 H192 0.931 . S
C190 C186 1.391 . S
C190 C189 1.371 . S
C190 H197 0.930 . S
H191 C188 0.928 . S
H192 C189 0.931 . S
H193 C169 0.930 . S
H194 C166 0.930 . S
H195 C175 0.930 . S
H196 C187 0.929 . S
H197 C190 0.930 . S
C198 C199 1.351 . S
C198 N201 1.368 . S
C198 H203 0.931 . S
C199 C198 1.351 . S
C199 N200 1.373 . S
C199 H227 0.930 . S
N200 C199 1.373 . S
N200 C202 1.340 . S
N201 C198 1.368 . S
N201 C202 1.321 . S
N201 Co204 2.135 . S
C202 N200 1.340 . S
C202 N201 1.321 . S
C202 H226 0.930 . S
H203 C198 0.931 . S
Co204 N201 2.135 . S
Co204 N207 2.121 1_554 S
Co204 O212 2.055 1_554 S
Co204 O215 2.039 . S
Co204 N218 2.140 . S
C205 O206 1.227 . S
C205 O215 1.265 . S
O206 C205 1.227 . S
N207 Co204 2.121 1_556 S
N207 C209 1.375 . S
N207 C210 1.313 . S
C208 C209 1.338 . S
C208 N211 1.377 . S
C208 H228 0.930 . S
C209 N207 1.375 . S
C209 C208 1.338 . S
C209 H213 0.931 . S
C210 N207 1.313 . S
C210 N211 1.344 . S
C210 H214 0.930 . S
N211 C208 1.377 . S
N211 C210 1.344 . S
O212 Co204 2.055 1_556 S
O212 C216 1.253 . S
H213 C209 0.931 . S
H214 C210 0.930 . S
O215 Co204 2.039 . S
O215 C205 1.265 . S
C216 O212 1.253 . S
C216 O217 1.227 . S
O217 C216 1.227 . S
N218 Co204 2.140 . S
N218 C221 1.346 . S
N218 C222 1.345 1_554 S
C219 C220 1.387 . S
C219 C223 1.391 1_554 S
C220 C219 1.387 . S
C220 C221 1.369 . S
C220 H229 0.929 . S
C221 N218 1.346 . S
C221 C220 1.369 . S
C221 H224 0.928 . S
C222 N218 1.345 1_556 S
C222 C223 1.371 . S
C222 H225 0.931 . S
C223 C219 1.391 1_556 S
C223 C222 1.371 . S
C223 H230 0.930 . S
H224 C221 0.928 . S
H225 C222 0.931 . S
H226 C202 0.930 . S
H227 C199 0.930 . S
H228 C208 0.930 . S
H229 C220 0.929 . S
H230 C223 0.930 . S
C231 C232 1.351 . S
C231 N234 1.368 . S
C231 H236 0.931 . S
C232 C231 1.351 . S
C232 N233 1.373 . S
C232 H260 0.930 . S
N233 C232 1.373 . S
N233 C235 1.340 . S
N234 C231 1.368 . S
N234 C235 1.321 . S
N234 Co237 2.135 . S
C235 N233 1.340 . S
C235 N234 1.321 . S
C235 H259 0.930 . S
H236 C231 0.931 . S
Co237 N234 2.135 . S
Co237 N240 2.121 1_554 S
Co237 O245 2.055 1_554 S
Co237 O248 2.039 . S
Co237 N251 2.140 . S
C238 O239 1.227 . S
C238 O248 1.265 . S
O239 C238 1.227 . S
N240 Co237 2.121 1_556 S
N240 C242 1.375 . S
N240 C243 1.313 . S
C241 C242 1.338 . S
C241 N244 1.377 . S
C241 H261 0.930 . S
C242 N240 1.375 . S
C242 C241 1.338 . S
C242 H246 0.931 . S
C243 N240 1.313 . S
C243 N244 1.344 . S
C243 H247 0.930 . S
N244 C241 1.377 . S
N244 C243 1.344 . S
O245 Co237 2.055 1_556 S
O245 C249 1.253 . S
H246 C242 0.931 . S
H247 C243 0.930 . S
O248 Co237 2.039 . S
O248 C238 1.265 . S
C249 O245 1.253 . S
C249 O250 1.227 . S
O250 C249 1.227 . S
N251 Co237 2.140 . S
N251 C254 1.346 . S
N251 C255 1.345 1_554 S
C252 C253 1.387 . S
C252 C256 1.391 1_554 S
C253 C252 1.387 . S
C253 C254 1.369 . S
C253 H262 0.929 . S
C254 N251 1.346 . S
C254 C253 1.369 . S
C254 H257 0.928 . S
C255 N251 1.345 1_556 S
C255 C256 1.371 . S
C255 H258 0.931 . S
C256 C252 1.391 1_556 S
C256 C255 1.371 . S
C256 H263 0.930 . S
H257 C254 0.928 . S
H258 C255 0.931 . S
H259 C235 0.930 . S
H260 C232 0.930 . S
H261 C241 0.930 . S
H262 C253 0.929 . S
H263 C256 0.930 . S
C264 C265 1.351 . S
C264 N267 1.368 . S
C264 H269 0.931 . S
C265 C264 1.351 . S
C265 N266 1.373 . S
C265 H293 0.930 . S
N266 C265 1.373 . S
N266 C268 1.340 . S
N267 C264 1.368 . S
N267 C268 1.321 . S
N267 Co270 2.135 . S
C268 N266 1.340 . S
C268 N267 1.321 . S
C268 H292 0.930 . S
H269 C264 0.931 . S
Co270 N267 2.135 . S
Co270 N273 2.121 1_554 S
Co270 O278 2.055 1_554 S
Co270 O281 2.039 . S
Co270 N284 2.140 . S
C271 O272 1.227 . S
C271 O281 1.265 . S
O272 C271 1.227 . S
N273 Co270 2.121 1_556 S
N273 C275 1.375 . S
N273 C276 1.313 . S
C274 C275 1.338 . S
C274 N277 1.377 . S
C274 H294 0.930 . S
C275 N273 1.375 . S
C275 C274 1.338 . S
C275 H279 0.931 . S
C276 N273 1.313 . S
C276 N277 1.344 . S
C276 H280 0.930 . S
N277 C274 1.377 . S
N277 C276 1.344 . S
O278 Co270 2.055 1_556 S
O278 C282 1.253 . S
H279 C275 0.931 . S
H280 C276 0.930 . S
O281 Co270 2.039 . S
O281 C271 1.265 . S
C282 O278 1.253 . S
C282 O283 1.227 . S
O283 C282 1.227 . S
N284 Co270 2.140 . S
N284 C287 1.346 . S
N284 C288 1.345 1_554 S
C285 C286 1.387 . S
C285 C289 1.391 1_554 S
C286 C285 1.387 . S
C286 C287 1.369 . S
C286 H295 0.929 . S
C287 N284 1.346 . S
C287 C286 1.369 . S
C287 H290 0.928 . S
C288 N284 1.345 1_556 S
C288 C289 1.371 . S
C288 H291 0.931 . S
C289 C285 1.391 1_556 S
C289 C288 1.371 . S
C289 H296 0.930 . S
H290 C287 0.928 . S
H291 C288 0.931 . S
H292 C268 0.930 . S
H293 C265 0.930 . S
H294 C274 0.930 . S
H295 C286 0.929 . S
H296 C289 0.930 . S
C297 C298 1.351 . S
C297 N300 1.368 . S
C297 H302 0.931 . S
C298 C297 1.351 . S
C298 N299 1.373 . S
C298 H326 0.930 . S
N299 C298 1.373 . S
N299 C301 1.340 . S
N300 C297 1.368 . S
N300 C301 1.321 . S
N300 Co303 2.135 . S
C301 N299 1.340 . S
C301 N300 1.321 . S
C301 H325 0.930 . S
H302 C297 0.931 . S
Co303 N300 2.135 . S
Co303 N306 2.121 1_554 S
Co303 O311 2.055 1_554 S
Co303 O314 2.039 . S
Co303 N317 2.140 . S
C304 O305 1.227 . S
C304 O314 1.265 . S
O305 C304 1.227 . S
N306 Co303 2.121 1_556 S
N306 C308 1.375 . S
N306 C309 1.313 . S
C307 C308 1.338 . S
C307 N310 1.377 . S
C307 H327 0.930 . S
C308 N306 1.375 . S
C308 C307 1.338 . S
C308 H312 0.931 . S
C309 N306 1.313 . S
C309 N310 1.344 . S
C309 H313 0.930 . S
N310 C307 1.377 . S
N310 C309 1.344 . S
O311 Co303 2.055 1_556 S
O311 C315 1.253 . S
H312 C308 0.931 . S
H313 C309 0.930 . S
O314 Co303 2.039 . S
O314 C304 1.265 . S
C315 O311 1.253 . S
C315 O316 1.227 . S
O316 C315 1.227 . S
N317 Co303 2.140 . S
N317 C320 1.346 . S
N317 C321 1.345 1_554 S
C318 C319 1.387 . S
C318 C322 1.391 1_554 S
C319 C318 1.387 . S
C319 C320 1.369 . S
C319 H328 0.929 . S
C320 N317 1.346 . S
C320 C319 1.369 . S
C320 H323 0.928 . S
C321 N317 1.345 1_556 S
C321 C322 1.371 . S
C321 H324 0.931 . S
C322 C318 1.391 1_556 S
C322 C321 1.371 . S
C322 H329 0.930 . S
H323 C320 0.928 . S
H324 C321 0.931 . S
H325 C301 0.930 . S
H326 C298 0.930 . S
H327 C307 0.930 . S
H328 C319 0.929 . S
H329 C322 0.930 . S
C330 C331 1.351 . S
C330 N333 1.368 . S
C330 H335 0.931 . S
C331 C330 1.351 . S
C331 N332 1.373 . S
C331 H359 0.930 . S
N332 C331 1.373 . S
N332 C334 1.340 . S
N333 C330 1.368 . S
N333 C334 1.321 . S
N333 Co336 2.135 . S
C334 N332 1.340 . S
C334 N333 1.321 . S
C334 H358 0.930 . S
H335 C330 0.931 . S
Co336 N333 2.135 . S
Co336 N339 2.121 1_554 S
Co336 O344 2.055 1_554 S
Co336 O347 2.039 . S
Co336 N350 2.140 . S
C337 O338 1.227 . S
C337 O347 1.265 . S
O338 C337 1.227 . S
N339 Co336 2.121 1_556 S
N339 C341 1.375 . S
N339 C342 1.313 . S
C340 C341 1.338 . S
C340 N343 1.377 . S
C340 H360 0.930 . S
C341 N339 1.375 . S
C341 C340 1.338 . S
C341 H345 0.931 . S
C342 N339 1.313 . S
C342 N343 1.344 . S
C342 H346 0.930 . S
N343 C340 1.377 . S
N343 C342 1.344 . S
O344 Co336 2.055 1_556 S
O344 C348 1.253 . S
H345 C341 0.931 . S
H346 C342 0.930 . S
O347 Co336 2.039 . S
O347 C337 1.265 . S
C348 O344 1.253 . S
C348 O349 1.227 . S
O349 C348 1.227 . S
N350 Co336 2.140 . S
N350 C353 1.346 . S
N350 C354 1.345 1_554 S
C351 C352 1.387 . S
C351 C355 1.391 1_554 S
C352 C351 1.387 . S
C352 C353 1.369 . S
C352 H361 0.929 . S
C353 N350 1.346 . S
C353 C352 1.369 . S
C353 H356 0.928 . S
C354 N350 1.345 1_556 S
C354 C355 1.371 . S
C354 H357 0.931 . S
C355 C351 1.391 1_556 S
C355 C354 1.371 . S
C355 H362 0.930 . S
H356 C353 0.928 . S
H357 C354 0.931 . S
H358 C334 0.930 . S
H359 C331 0.930 . S
H360 C340 0.930 . S
H361 C352 0.929 . S
H362 C355 0.930 . S
C363 C364 1.351 . S
C363 N366 1.368 . S
C363 H368 0.931 . S
C364 C363 1.351 . S
C364 N365 1.373 . S
C364 H392 0.930 . S
N365 C364 1.373 . S
N365 C367 1.340 . S
N366 C363 1.368 . S
N366 C367 1.321 . S
N366 Co369 2.135 . S
C367 N365 1.340 . S
C367 N366 1.321 . S
C367 H391 0.930 . S
H368 C363 0.931 . S
Co369 N366 2.135 . S
Co369 N372 2.121 1_554 S
Co369 O377 2.055 1_554 S
Co369 O380 2.039 . S
Co369 N383 2.140 . S
C370 O371 1.227 . S
C370 O380 1.265 . S
O371 C370 1.227 . S
N372 Co369 2.121 1_556 S
N372 C374 1.375 . S
N372 C375 1.313 . S
C373 C374 1.338 . S
C373 N376 1.377 . S
C373 H393 0.930 . S
C374 N372 1.375 . S
C374 C373 1.338 . S
C374 H378 0.931 . S
C375 N372 1.313 . S
C375 N376 1.344 . S
C375 H379 0.930 . S
N376 C373 1.377 . S
N376 C375 1.344 . S
O377 Co369 2.055 1_556 S
O377 C381 1.253 . S
H378 C374 0.931 . S
H379 C375 0.930 . S
O380 Co369 2.039 . S
O380 C370 1.265 . S
C381 O377 1.253 . S
C381 O382 1.227 . S
O382 C381 1.227 . S
N383 Co369 2.140 . S
N383 C386 1.346 . S
N383 C387 1.345 1_554 S
C384 C385 1.387 . S
C384 C388 1.391 1_554 S
C385 C384 1.387 . S
C385 C386 1.369 . S
C385 H394 0.929 . S
C386 N383 1.346 . S
C386 C385 1.369 . S
C386 H389 0.928 . S
C387 N383 1.345 1_556 S
C387 C388 1.371 . S
C387 H390 0.931 . S
C388 C384 1.391 1_556 S
C388 C387 1.371 . S
C388 H395 0.930 . S
H389 C386 0.928 . S
H390 C387 0.931 . S
H391 C367 0.930 . S
H392 C364 0.930 . S
H393 C373 0.930 . S
H394 C385 0.929 . S
H395 C388 0.930 . S
C396 C397 1.363 1_556 S
C396 C402 1.379 . S
C396 N404 1.356 . S
C397 C396 1.363 1_554 S
C397 C403 1.363 . S
C398 C399 1.363 . S
C398 C403 1.379 . S
C398 N405 1.356 . S
C399 C398 1.363 . S
C399 C402 1.363 1_554 S
N400 C402 1.356 . S
N400 H412 0.984 . S
N400 H413 0.985 . S
N401 C403 1.356 . S
N401 H406 0.984 . S
N401 H407 0.985 . S
C402 C396 1.379 . S
C402 C399 1.363 1_556 S
C402 N400 1.356 . S
C403 C397 1.363 . S
C403 C398 1.379 . S
C403 N401 1.356 . S
N404 C396 1.356 . S
N404 H410 0.984 . S
N404 H411 0.984 . S
N405 C398 1.356 . S
N405 H408 0.984 . S
N405 H409 0.985 . S
H406 N401 0.984 . S
H407 N401 0.985 . S
H408 N405 0.984 . S
H409 N405 0.985 . S
H410 N404 0.984 . S
H411 N404 0.984 . S
H412 N400 0.984 . S
H413 N400 0.985 . S
C414 C415 1.363 1_556 S
C414 C420 1.379 . S
C414 N422 1.356 . S
C415 C414 1.363 1_554 S
C415 C421 1.363 . S
C416 C417 1.363 . S
C416 C421 1.379 . S
C416 N423 1.356 . S
C417 C416 1.363 . S
C417 C420 1.363 1_554 S
N418 C420 1.356 . S
N418 H430 0.984 . S
N418 H431 0.985 . S
N419 C421 1.356 . S
N419 H424 0.984 . S
N419 H425 0.985 . S
C420 C414 1.379 . S
C420 C417 1.363 1_556 S
C420 N418 1.356 . S
C421 C415 1.363 . S
C421 C416 1.379 . S
C421 N419 1.356 . S
N422 C414 1.356 . S
N422 H428 0.984 . S
N422 H429 0.984 . S
N423 C416 1.356 . S
N423 H426 0.984 . S
N423 H427 0.985 . S
H424 N419 0.984 . S
H425 N419 0.985 . S
H426 N423 0.984 . S
H427 N423 0.985 . S
H428 N422 0.984 . S
H429 N422 0.984 . S
H430 N418 0.984 . S
H431 N418 0.985 . S
C432 C433 1.363 . S
C432 C438 1.379 . S
C432 N440 1.356 . S
C433 C432 1.363 . S
C433 C439 1.363 1_554 S
C434 C435 1.363 1_556 S
C434 C439 1.379 . S
C434 N441 1.356 . S
C435 C434 1.363 1_554 S
C435 C438 1.363 . S
N436 C438 1.356 . S
N436 H448 0.984 . S
N436 H449 0.985 . S
N437 C439 1.356 . S
N437 H442 0.984 . S
N437 H443 0.985 . S
C438 C432 1.379 . S
C438 C435 1.363 . S
C438 N436 1.356 . S
C439 C433 1.363 1_556 S
C439 C434 1.379 . S
C439 N437 1.356 . S
N440 C432 1.356 . S
N440 H446 0.984 . S
N440 H447 0.984 . S
N441 C434 1.356 . S
N441 H444 0.984 . S
N441 H445 0.985 . S
H442 N437 0.984 . S
H443 N437 0.985 . S
H444 N441 0.984 . S
H445 N441 0.985 . S
H446 N440 0.984 . S
H447 N440 0.984 . S
H448 N436 0.984 . S
H449 N436 0.985 . S
C450 C451 1.363 1_556 S
C450 C456 1.379 . S
C450 N458 1.356 . S
C451 C450 1.363 1_554 S
C451 C457 1.363 . S
C452 C453 1.363 . S
C452 C457 1.379 . S
C452 N459 1.356 . S
C453 C452 1.363 . S
C453 C456 1.363 1_554 S
N454 C456 1.356 . S
N454 H466 0.984 . S
N454 H467 0.985 . S
N455 C457 1.356 . S
N455 H460 0.984 . S
N455 H461 0.985 . S
C456 C450 1.379 . S
C456 C453 1.363 1_556 S
C456 N454 1.356 . S
C457 C451 1.363 . S
C457 C452 1.379 . S
C457 N455 1.356 . S
N458 C450 1.356 . S
N458 H464 0.984 . S
N458 H465 0.984 . S
N459 C452 1.356 . S
N459 H462 0.984 . S
N459 H463 0.985 . S
H460 N455 0.984 . S
H461 N455 0.985 . S
H462 N459 0.984 . S
H463 N459 0.985 . S
H464 N458 0.984 . S
H465 N458 0.984 . S
H466 N454 0.984 . S
H467 N454 0.985 . S
C468 C469 1.363 1_556 S
C468 C474 1.379 . S
C468 N476 1.356 . S
C469 C468 1.363 1_554 S
C469 C475 1.363 . S
C470 C471 1.363 . S
C470 C475 1.379 . S
C470 N477 1.356 . S
C471 C470 1.363 . S
C471 C474 1.363 1_554 S
N472 C474 1.356 . S
N472 H484 0.984 . S
N472 H485 0.985 . S
N473 C475 1.356 . S
N473 H478 0.984 . S
N473 H479 0.985 . S
C474 C468 1.379 . S
C474 C471 1.363 1_556 S
C474 N472 1.356 . S
C475 C469 1.363 . S
C475 C470 1.379 . S
C475 N473 1.356 . S
N476 C468 1.356 . S
N476 H482 0.984 . S
N476 H483 0.984 . S
N477 C470 1.356 . S
N477 H480 0.984 . S
N477 H481 0.985 . S
H478 N473 0.984 . S
H479 N473 0.985 . S
H480 N477 0.984 . S
H481 N477 0.985 . S
H482 N476 0.984 . S
H483 N476 0.984 . S
H484 N472 0.984 . S
H485 N472 0.985 . S
C486 C487 1.363 . S
C486 C492 1.379 . S
C486 N494 1.356 . S
C487 C486 1.363 . S
C487 C493 1.363 1_554 S
C488 C489 1.363 1_556 S
C488 C493 1.379 . S
C488 N495 1.356 . S
C489 C488 1.363 1_554 S
C489 C492 1.363 . S
N490 C492 1.356 . S
N490 H502 0.984 . S
N490 H503 0.985 . S
N491 C493 1.356 . S
N491 H496 0.984 . S
N491 H497 0.985 . S
C492 C486 1.379 . S
C492 C489 1.363 . S
C492 N490 1.356 . S
C493 C487 1.363 1_556 S
C493 C488 1.379 . S
C493 N491 1.356 . S
N494 C486 1.356 . S
N494 H500 0.984 . S
N494 H501 0.984 . S
N495 C488 1.356 . S
N495 H498 0.984 . S
N495 H499 0.985 . S
H496 N491 0.984 . S
H497 N491 0.985 . S
H498 N495 0.984 . S
H499 N495 0.985 . S
H500 N494 0.984 . S
H501 N494 0.984 . S
H502 N490 0.984 . S
H503 N490 0.985 . S
C504 C505 1.363 1_554 S
C504 C510 1.379 . S
C504 N512 1.356 . S
C505 C504 1.363 1_556 S
C505 C511 1.363 . S
C506 C507 1.363 1_556 S
C506 C511 1.379 . S
C506 N513 1.356 . S
C507 C506 1.363 1_554 S
C507 C510 1.363 . S
N508 C510 1.356 . S
N508 H520 0.984 . S
N508 H521 0.985 . S
N509 C511 1.356 . S
N509 H514 0.984 . S
N509 H515 0.985 . S
C510 C504 1.379 . S
C510 C507 1.363 . S
C510 N508 1.356 . S
C511 C505 1.363 . S
C511 C506 1.379 . S
C511 N509 1.356 . S
N512 C504 1.356 . S
N512 H518 0.984 . S
N512 H519 0.984 . S
N513 C506 1.356 . S
N513 H516 0.984 . S
N513 H517 0.985 . S
H514 N509 0.984 . S
H515 N509 0.985 . S
H516 N513 0.984 . S
H517 N513 0.985 . S
H518 N512 0.984 . S
H519 N512 0.984 . S
H520 N508 0.984 . S
H521 N508 0.985 . S
C522 C523 1.363 1_554 S
C522 C528 1.379 . S
C522 N530 1.356 . S
C523 C522 1.363 1_556 S
C523 C529 1.363 . S
C524 C525 1.363 1_556 S
C524 C529 1.379 . S
C524 N531 1.356 . S
C525 C524 1.363 1_554 S
C525 C528 1.363 . S
N526 C528 1.356 . S
N526 H538 0.984 . S
N526 H539 0.985 . S
N527 C529 1.356 . S
N527 H532 0.984 . S
N527 H533 0.985 . S
C528 C522 1.379 . S
C528 C525 1.363 . S
C528 N526 1.356 . S
C529 C523 1.363 . S
C529 C524 1.379 . S
C529 N527 1.356 . S
N530 C522 1.356 . S
N530 H536 0.984 . S
N530 H537 0.984 . S
N531 C524 1.356 . S
N531 H534 0.984 . S
N531 H535 0.985 . S
H532 N527 0.984 . S
H533 N527 0.985 . S
H534 N531 0.984 . S
H535 N531 0.985 . S
H536 N530 0.984 . S
H537 N530 0.984 . S
H538 N526 0.984 . S
H539 N526 0.985 . S
C540 C541 1.363 . S
C540 C546 1.379 . S
C540 N548 1.356 . S
C541 C540 1.363 . S
C541 C547 1.363 1_554 S
C542 C543 1.363 . S
C542 C547 1.379 . S
C542 N549 1.356 . S
C543 C542 1.363 . S
C543 C546 1.363 1_556 S
N544 C546 1.356 . S
N544 H556 0.984 . S
N544 H557 0.985 . S
N545 C547 1.356 . S
N545 H550 0.984 . S
N545 H551 0.985 . S
C546 C540 1.379 . S
C546 C543 1.363 1_554 S
C546 N544 1.356 . S
C547 C541 1.363 1_556 S
C547 C542 1.379 . S
C547 N545 1.356 . S
N548 C540 1.356 . S
N548 H554 0.984 . S
N548 H555 0.984 . S
N549 C542 1.356 . S
N549 H552 0.984 . S
N549 H553 0.985 . S
H550 N545 0.984 . S
H551 N545 0.985 . S
H552 N549 0.984 . S
H553 N549 0.985 . S
H554 N548 0.984 . S
H555 N548 0.984 . S
H556 N544 0.984 . S
H557 N544 0.985 . S
C558 C559 1.363 1_554 S
C558 C564 1.379 . S
C558 N566 1.356 . S
C559 C558 1.363 1_556 S
C559 C565 1.363 . S
C560 C561 1.363 1_556 S
C560 C565 1.379 . S
C560 N567 1.356 . S
C561 C560 1.363 1_554 S
C561 C564 1.363 . S
N562 C564 1.356 . S
N562 H574 0.984 . S
N562 H575 0.985 . S
N563 C565 1.356 . S
N563 H568 0.984 . S
N563 H569 0.985 . S
C564 C558 1.379 . S
C564 C561 1.363 . S
C564 N562 1.356 . S
C565 C559 1.363 . S
C565 C560 1.379 . S
C565 N563 1.356 . S
N566 C558 1.356 . S
N566 H572 0.984 . S
N566 H573 0.984 . S
N567 C560 1.356 . S
N567 H570 0.984 . S
N567 H571 0.985 . S
H568 N563 0.984 . S
H569 N563 0.985 . S
H570 N567 0.984 . S
H571 N567 0.985 . S
H572 N566 0.984 . S
H573 N566 0.984 . S
H574 N562 0.984 . S
H575 N562 0.985 . S
C576 C577 1.363 . S
C576 C582 1.379 . S
C576 N584 1.356 . S
C577 C576 1.363 . S
C577 C583 1.363 1_556 S
C578 C579 1.363 . S
C578 C583 1.379 . S
C578 N585 1.356 . S
C579 C578 1.363 . S
C579 C582 1.363 1_554 S
N580 C582 1.356 . S
N580 H592 0.984 . S
N580 H593 0.985 . S
N581 C583 1.356 . S
N581 H586 0.984 . S
N581 H587 0.985 . S
C582 C576 1.379 . S
C582 C579 1.363 1_556 S
C582 N580 1.356 . S
C583 C577 1.363 1_554 S
C583 C578 1.379 . S
C583 N581 1.356 . S
N584 C576 1.356 . S
N584 H590 0.984 . S
N584 H591 0.984 . S
N585 C578 1.356 . S
N585 H588 0.984 . S
N585 H589 0.985 . S
H586 N581 0.984 . S
H587 N581 0.985 . S
H588 N585 0.984 . S
H589 N585 0.985 . S
H590 N584 0.984 . S
H591 N584 0.984 . S
H592 N580 0.984 . S
H593 N580 0.985 . S
C594 C595 1.363 1_554 S
C594 C600 1.379 . S
C594 N602 1.356 . S
C595 C594 1.363 1_556 S
C595 C601 1.363 . S
C596 C597 1.363 1_556 S
C596 C601 1.379 . S
C596 N603 1.356 . S
C597 C596 1.363 1_554 S
C597 C600 1.363 . S
N598 C600 1.356 . S
N598 H610 0.984 . S
N598 H611 0.985 . S
N599 C601 1.356 . S
N599 H604 0.984 . S
N599 H605 0.985 . S
C600 C594 1.379 . S
C600 C597 1.363 . S
C600 N598 1.356 . S
C601 C595 1.363 . S
C601 C596 1.379 . S
C601 N599 1.356 . S
N602 C594 1.356 . S
N602 H608 0.984 . S
N602 H609 0.984 . S
N603 C596 1.356 . S
N603 H606 0.984 . S
N603 H607 0.985 . S
H604 N599 0.984 . S
H605 N599 0.985 . S
H606 N603 0.984 . S
H607 N603 0.985 . S
H608 N602 0.984 . S
H609 N602 0.984 . S
H610 N598 0.984 . S
H611 N598 0.985 . S
C612 C613 1.363 . S
C612 C618 1.379 . S
C612 N620 1.356 . S
C613 C612 1.363 . S
C613 C619 1.363 . S
C614 C615 1.363 . S
C614 C619 1.379 . S
C614 N621 1.356 . S
C615 C614 1.363 . S
C615 C618 1.363 . S
N616 C618 1.356 . S
N616 H628 0.984 . S
N616 H629 0.985 . S
N617 C619 1.356 . S
N617 H622 0.984 . S
N617 H623 0.985 . S
C618 C612 1.379 . S
C618 C615 1.363 . S
C618 N616 1.356 . S
C619 C613 1.363 . S
C619 C614 1.379 . S
C619 N617 1.356 . S
N620 C612 1.356 . S
N620 H626 0.984 . S
N620 H627 0.984 . S
N621 C614 1.356 . S
N621 H624 0.984 . S
N621 H625 0.985 . S
H622 N617 0.984 . S
H623 N617 0.985 . S
H624 N621 0.984 . S
H625 N621 0.985 . S
H626 N620 0.984 . S
H627 N620 0.984 . S
H628 N616 0.984 . S
H629 N616 0.985 . S
C630 C631 1.363 . S
C630 C636 1.379 . S
C630 N638 1.356 . S
C631 C630 1.363 . S
C631 C637 1.363 . S
C632 C633 1.363 . S
C632 C637 1.379 . S
C632 N639 1.356 . S
C633 C632 1.363 . S
C633 C636 1.363 . S
N634 C636 1.356 . S
N634 H646 0.984 . S
N634 H647 0.985 . S
N635 C637 1.356 . S
N635 H640 0.984 . S
N635 H641 0.985 . S
C636 C630 1.379 . S
C636 C633 1.363 . S
C636 N634 1.356 . S
C637 C631 1.363 . S
C637 C632 1.379 . S
C637 N635 1.356 . S
N638 C630 1.356 . S
N638 H644 0.984 . S
N638 H645 0.984 . S
N639 C632 1.356 . S
N639 H642 0.984 . S
N639 H643 0.985 . S
H640 N635 0.984 . S
H641 N635 0.985 . S
H642 N639 0.984 . S
H643 N639 0.985 . S
H644 N638 0.984 . S
H645 N638 0.984 . S
H646 N634 0.984 . S
H647 N634 0.985 . S
C648 C649 1.363 . S
C648 C654 1.379 . S
C648 N656 1.356 . S
C649 C648 1.363 . S
C649 C655 1.363 . S
C650 C651 1.363 . S
C650 C655 1.379 . S
C650 N657 1.356 . S
C651 C650 1.363 . S
C651 C654 1.363 . S
N652 C654 1.356 . S
N652 H664 0.984 . S
N652 H665 0.985 . S
N653 C655 1.356 . S
N653 H658 0.984 . S
N653 H659 0.985 . S
C654 C648 1.379 . S
C654 C651 1.363 . S
C654 N652 1.356 . S
C655 C649 1.363 . S
C655 C650 1.379 . S
C655 N653 1.356 . S
N656 C648 1.356 . S
N656 H662 0.984 . S
N656 H663 0.984 . S
N657 C650 1.356 . S
N657 H660 0.984 . S
N657 H661 0.985 . S
H658 N653 0.984 . S
H659 N653 0.985 . S
H660 N657 0.984 . S
H661 N657 0.985 . S
H662 N656 0.984 . S
H663 N656 0.984 . S
H664 N652 0.984 . S
H665 N652 0.985 . S
C666 C667 1.363 . S
C666 C672 1.379 . S
C666 N674 1.356 . S
C667 C666 1.363 . S
C667 C673 1.363 . S
C668 C669 1.363 . S
C668 C673 1.379 . S
C668 N675 1.356 . S
C669 C668 1.363 . S
C669 C672 1.363 . S
N670 C672 1.356 . S
N670 H682 0.984 . S
N670 H683 0.985 . S
N671 C673 1.356 . S
N671 H676 0.984 . S
N671 H677 0.985 . S
C672 C666 1.379 . S
C672 C669 1.363 . S
C672 N670 1.356 . S
C673 C667 1.363 . S
C673 C668 1.379 . S
C673 N671 1.356 . S
N674 C666 1.356 . S
N674 H680 0.984 . S
N674 H681 0.984 . S
N675 C668 1.356 . S
N675 H678 0.984 . S
N675 H679 0.985 . S
H676 N671 0.984 . S
H677 N671 0.985 . S
H678 N675 0.984 . S
H679 N675 0.985 . S
H680 N674 0.984 . S
H681 N674 0.984 . S
H682 N670 0.984 . S
H683 N670 0.985 . S
C684 C685 1.363 . S
C684 C690 1.379 . S
C684 N692 1.356 . S
C685 C684 1.363 . S
C685 C691 1.363 . S
C686 C687 1.363 . S
C686 C691 1.379 . S
C686 N693 1.356 . S
C687 C686 1.363 . S
C687 C690 1.363 . S
N688 C690 1.356 . S
N688 H700 0.984 . S
N688 H701 0.985 . S
N689 C691 1.356 . S
N689 H694 0.984 . S
N689 H695 0.985 . S
C690 C684 1.379 . S
C690 C687 1.363 . S
C690 N688 1.356 . S
C691 C685 1.363 . S
C691 C686 1.379 . S
C691 N689 1.356 . S
N692 C684 1.356 . S
N692 H698 0.984 . S
N692 H699 0.984 . S
N693 C686 1.356 . S
N693 H696 0.984 . S
N693 H697 0.985 . S
H694 N689 0.984 . S
H695 N689 0.985 . S
H696 N693 0.984 . S
H697 N693 0.985 . S
H698 N692 0.984 . S
H699 N692 0.984 . S
H700 N688 0.984 . S
H701 N688 0.985 . S
C702 C703 1.363 . S
C702 C708 1.379 . S
C702 N710 1.356 . S
C703 C702 1.363 . S
C703 C709 1.363 . S
C704 C705 1.363 . S
C704 C709 1.379 . S
C704 N711 1.356 . S
C705 C704 1.363 . S
C705 C708 1.363 . S
N706 C708 1.356 . S
N706 H718 0.984 . S
N706 H719 0.985 . S
N707 C709 1.356 . S
N707 H712 0.984 . S
N707 H713 0.985 . S
C708 C702 1.379 . S
C708 C705 1.363 . S
C708 N706 1.356 . S
C709 C703 1.363 . S
C709 C704 1.379 . S
C709 N707 1.356 . S
N710 C702 1.356 . S
N710 H716 0.984 . S
N710 H717 0.984 . S
N711 C704 1.356 . S
N711 H714 0.984 . S
N711 H715 0.985 . S
H712 N707 0.984 . S
H713 N707 0.985 . S
H714 N711 0.984 . S
H715 N711 0.985 . S
H716 N710 0.984 . S
H717 N710 0.984 . S
H718 N706 0.984 . S
H719 N706 0.985 . S
C720 C721 1.363 . S
C720 C726 1.379 . S
C720 N728 1.356 . S
C721 C720 1.363 . S
C721 C727 1.363 . S
C722 C723 1.363 . S
C722 C727 1.379 . S
C722 N729 1.356 . S
C723 C722 1.363 . S
C723 C726 1.363 . S
N724 C726 1.356 . S
N724 H736 0.984 . S
N724 H737 0.985 . S
N725 C727 1.356 . S
N725 H730 0.984 . S
N725 H731 0.985 . S
C726 C720 1.379 . S
C726 C723 1.363 . S
C726 N724 1.356 . S
C727 C721 1.363 . S
C727 C722 1.379 . S
C727 N725 1.356 . S
N728 C720 1.356 . S
N728 H734 0.984 . S
N728 H735 0.984 . S
N729 C722 1.356 . S
N729 H732 0.984 . S
N729 H733 0.985 . S
H730 N725 0.984 . S
H731 N725 0.985 . S
H732 N729 0.984 . S
H733 N729 0.985 . S
H734 N728 0.984 . S
H735 N728 0.984 . S
H736 N724 0.984 . S
H737 N724 0.985 . S
C738 C739 1.363 . S
C738 C744 1.379 . S
C738 N746 1.356 . S
C739 C738 1.363 . S
C739 C745 1.363 . S
C740 C741 1.363 . S
C740 C745 1.379 . S
C740 N747 1.356 . S
C741 C740 1.363 . S
C741 C744 1.363 . S
N742 C744 1.356 . S
N742 H754 0.984 . S
N742 H755 0.985 . S
N743 C745 1.356 . S
N743 H748 0.984 . S
N743 H749 0.985 . S
C744 C738 1.379 . S
C744 C741 1.363 . S
C744 N742 1.356 . S
C745 C739 1.363 . S
C745 C740 1.379 . S
C745 N743 1.356 . S
N746 C738 1.356 . S
N746 H752 0.984 . S
N746 H753 0.984 . S
N747 C740 1.356 . S
N747 H750 0.984 . S
N747 H751 0.985 . S
H748 N743 0.984 . S
H749 N743 0.985 . S
H750 N747 0.984 . S
H751 N747 0.985 . S
H752 N746 0.984 . S
H753 N746 0.984 . S
H754 N742 0.984 . S
H755 N742 0.985 . S
C756 C757 1.363 . S
C756 C762 1.379 . S
C756 N764 1.356 . S
C757 C756 1.363 . S
C757 C763 1.363 . S
C758 C759 1.363 . S
C758 C763 1.379 . S
C758 N765 1.356 . S
C759 C758 1.363 . S
C759 C762 1.363 . S
N760 C762 1.356 . S
N760 H772 0.984 . S
N760 H773 0.985 . S
N761 C763 1.356 . S
N761 H766 0.984 . S
N761 H767 0.985 . S
C762 C756 1.379 . S
C762 C759 1.363 . S
C762 N760 1.356 . S
C763 C757 1.363 . S
C763 C758 1.379 . S
C763 N761 1.356 . S
N764 C756 1.356 . S
N764 H770 0.984 . S
N764 H771 0.984 . S
N765 C758 1.356 . S
N765 H768 0.984 . S
N765 H769 0.985 . S
H766 N761 0.984 . S
H767 N761 0.985 . S
H768 N765 0.984 . S
H769 N765 0.985 . S
H770 N764 0.984 . S
H771 N764 0.984 . S
H772 N760 0.984 . S
H773 N760 0.985 . S
C774 C775 1.363 . S
C774 C780 1.379 . S
C774 N782 1.356 . S
C775 C774 1.363 . S
C775 C781 1.363 . S
C776 C777 1.363 . S
C776 C781 1.379 . S
C776 N783 1.356 . S
C777 C776 1.363 . S
C777 C780 1.363 . S
N778 C780 1.356 . S
N778 H790 0.984 . S
N778 H791 0.985 . S
N779 C781 1.356 . S
N779 H784 0.984 . S
N779 H785 0.985 . S
C780 C774 1.379 . S
C780 C777 1.363 . S
C780 N778 1.356 . S
C781 C775 1.363 . S
C781 C776 1.379 . S
C781 N779 1.356 . S
N782 C774 1.356 . S
N782 H788 0.984 . S
N782 H789 0.984 . S
N783 C776 1.356 . S
N783 H786 0.984 . S
N783 H787 0.985 . S
H784 N779 0.984 . S
H785 N779 0.985 . S
H786 N783 0.984 . S
H787 N783 0.985 . S
H788 N782 0.984 . S
H789 N782 0.984 . S
H790 N778 0.984 . S
H791 N778 0.985 . S
C792 C793 1.363 . S
C792 C798 1.379 . S
C792 N800 1.356 . S
C793 C792 1.363 . S
C793 C799 1.363 . S
C794 C795 1.363 . S
C794 C799 1.379 . S
C794 N801 1.356 . S
C795 C794 1.363 . S
C795 C798 1.363 . S
N796 C798 1.356 . S
N796 H808 0.984 . S
N796 H809 0.985 . S
N797 C799 1.356 . S
N797 H802 0.984 . S
N797 H803 0.985 . S
C798 C792 1.379 . S
C798 C795 1.363 . S
C798 N796 1.356 . S
C799 C793 1.363 . S
C799 C794 1.379 . S
C799 N797 1.356 . S
N800 C792 1.356 . S
N800 H806 0.984 . S
N800 H807 0.984 . S
N801 C794 1.356 . S
N801 H804 0.984 . S
N801 H805 0.985 . S
H802 N797 0.984 . S
H803 N797 0.985 . S
H804 N801 0.984 . S
H805 N801 0.985 . S
H806 N800 0.984 . S
H807 N800 0.984 . S
H808 N796 0.984 . S
H809 N796 0.985 . S
C810 C811 1.363 . S
C810 C816 1.379 . S
C810 N818 1.356 . S
C811 C810 1.363 . S
C811 C817 1.363 . S
C812 C813 1.363 . S
C812 C817 1.379 . S
C812 N819 1.356 . S
C813 C812 1.363 . S
C813 C816 1.363 . S
N814 C816 1.356 . S
N814 H826 0.984 . S
N814 H827 0.985 . S
N815 C817 1.356 . S
N815 H820 0.984 . S
N815 H821 0.985 . S
C816 C810 1.379 . S
C816 C813 1.363 . S
C816 N814 1.356 . S
C817 C811 1.363 . S
C817 C812 1.379 . S
C817 N815 1.356 . S
N818 C810 1.356 . S
N818 H824 0.984 . S
N818 H825 0.984 . S
N819 C812 1.356 . S
N819 H822 0.984 . S
N819 H823 0.985 . S
H820 N815 0.984 . S
H821 N815 0.985 . S
H822 N819 0.984 . S
H823 N819 0.985 . S
H824 N818 0.984 . S
H825 N818 0.984 . S
H826 N814 0.984 . S
H827 N814 0.985 . S
C828 C829 1.363 1_554 S
C828 C834 1.379 1_455 S
C828 N836 1.356 . S
C829 C828 1.363 1_556 S
C829 C835 1.363 . S
C830 C831 1.363 1_556 S
C830 C835 1.379 1_655 S
C830 N837 1.356 . S
C831 C830 1.363 1_554 S
C831 C834 1.363 . S
N832 C834 1.356 . S
N832 H844 0.984 . S
N832 H845 0.985 . S
N833 C835 1.356 . S
N833 H838 0.984 . S
N833 H839 0.985 . S
C834 C828 1.379 1_655 S
C834 C831 1.363 . S
C834 N832 1.356 . S
C835 C829 1.363 . S
C835 C830 1.379 1_455 S
C835 N833 1.356 . S
N836 C828 1.356 . S
N836 H842 0.984 . S
N836 H843 0.984 . S
N837 C830 1.356 . S
N837 H840 0.984 . S
N837 H841 0.985 . S
H838 N833 0.984 . S
H839 N833 0.985 . S
H840 N837 0.984 . S
H841 N837 0.985 . S
H842 N836 0.984 . S
H843 N836 0.984 . S
H844 N832 0.984 . S
H845 N832 0.985 . S
C846 C847 1.363 . S
C846 C852 1.379 1_565 S
C846 N854 1.356 . S
C847 C846 1.363 . S
C847 C853 1.363 1_554 S
C848 C849 1.363 . S
C848 C853 1.379 1_545 S
C848 N855 1.356 . S
C849 C848 1.363 . S
C849 C852 1.363 1_556 S
N850 C852 1.356 . S
N850 H862 0.984 . S
N850 H863 0.985 . S
N851 C853 1.356 . S
N851 H856 0.984 . S
N851 H857 0.985 . S
C852 C846 1.379 1_545 S
C852 C849 1.363 1_554 S
C852 N850 1.356 . S
C853 C847 1.363 1_556 S
C853 C848 1.379 1_565 S
C853 N851 1.356 . S
N854 C846 1.356 . S
N854 H860 0.984 . S
N854 H861 0.984 . S
N855 C848 1.356 . S
N855 H858 0.984 . S
N855 H859 0.985 . S
H856 N851 0.984 . S
H857 N851 0.985 . S
H858 N855 0.984 . S
H859 N855 0.985 . S
H860 N854 0.984 . S
H861 N854 0.984 . S
H862 N850 0.984 . S
H863 N850 0.985 . S
C864 C865 1.363 . S
C864 C870 1.379 . S
C864 N872 1.356 . S
C865 C864 1.363 . S
C865 C871 1.363 1_554 S
C866 C867 1.363 . S
C866 C871 1.379 . S
C866 N873 1.356 . S
C867 C866 1.363 . S
C867 C870 1.363 1_556 S
N868 C870 1.356 . S
N868 H880 0.984 . S
N868 H881 0.985 . S
N869 C871 1.356 . S
N869 H874 0.984 . S
N869 H875 0.985 . S
C870 C864 1.379 . S
C870 C867 1.363 1_554 S
C870 N868 1.356 . S
C871 C865 1.363 1_556 S
C871 C866 1.379 . S
C871 N869 1.356 . S
N872 C864 1.356 . S
N872 H878 0.984 . S
N872 H879 0.984 . S
N873 C866 1.356 . S
N873 H876 0.984 . S
N873 H877 0.985 . S
H874 N869 0.984 . S
H875 N869 0.985 . S
H876 N873 0.984 . S
H877 N873 0.985 . S
H878 N872 0.984 . S
H879 N872 0.984 . S
H880 N868 0.984 . S
H881 N868 0.985 . S
C882 C883 1.363 . S
C882 C888 1.379 1_455 S
C882 N890 1.356 . S
C883 C882 1.363 . S
C883 C889 1.363 1_554 S
C884 C885 1.363 . S
C884 C889 1.379 1_655 S
C884 N891 1.356 . S
C885 C884 1.363 . S
C885 C888 1.363 1_556 S
N886 C888 1.356 . S
N886 H898 0.984 . S
N886 H899 0.985 . S
N887 C889 1.356 . S
N887 H892 0.984 . S
N887 H893 0.985 . S
C888 C882 1.379 1_655 S
C888 C885 1.363 1_554 S
C888 N886 1.356 . S
C889 C883 1.363 1_556 S
C889 C884 1.379 1_455 S
C889 N887 1.356 . S
N890 C882 1.356 . S
N890 H896 0.984 . S
N890 H897 0.984 . S
N891 C884 1.356 . S
N891 H894 0.984 . S
N891 H895 0.985 . S
H892 N887 0.984 . S
H893 N887 0.985 . S
H894 N891 0.984 . S
H895 N891 0.985 . S
H896 N890 0.984 . S
H897 N890 0.984 . S
H898 N886 0.984 . S
H899 N886 0.985 . S
C900 C901 1.363 1_554 S
C900 C906 1.379 1_565 S
C900 N908 1.356 . S
C901 C900 1.363 1_556 S
C901 C907 1.363 . S
C902 C903 1.363 1_556 S
C902 C907 1.379 1_545 S
C902 N909 1.356 . S
C903 C902 1.363 1_554 S
C903 C906 1.363 . S
N904 C906 1.356 . S
N904 H916 0.984 . S
N904 H917 0.985 . S
N905 C907 1.356 . S
N905 H910 0.984 . S
N905 H911 0.985 . S
C906 C900 1.379 1_545 S
C906 C903 1.363 . S
C906 N904 1.356 . S
C907 C901 1.363 . S
C907 C902 1.379 1_565 S
C907 N905 1.356 . S
N908 C900 1.356 . S
N908 H914 0.984 . S
N908 H915 0.984 . S
N909 C902 1.356 . S
N909 H912 0.984 . S
N909 H913 0.985 . S
H910 N905 0.984 . S
H911 N905 0.985 . S
H912 N909 0.984 . S
H913 N909 0.985 . S
H914 N908 0.984 . S
H915 N908 0.984 . S
H916 N904 0.984 . S
H917 N904 0.985 . S
C918 C919 1.363 . S
C918 C924 1.379 . S
C918 N926 1.356 . S
C919 C918 1.363 . S
C919 C925 1.363 1_554 S
C920 C921 1.363 . S
C920 C925 1.379 . S
C920 N927 1.356 . S
C921 C920 1.363 . S
C921 C924 1.363 1_556 S
N922 C924 1.356 . S
N922 H934 0.984 . S
N922 H935 0.985 . S
N923 C925 1.356 . S
N923 H928 0.984 . S
N923 H929 0.985 . S
C924 C918 1.379 . S
C924 C921 1.363 1_554 S
C924 N922 1.356 . S
C925 C919 1.363 1_556 S
C925 C920 1.379 . S
C925 N923 1.356 . S
N926 C918 1.356 . S
N926 H932 0.984 . S
N926 H933 0.984 . S
N927 C920 1.356 . S
N927 H930 0.984 . S
N927 H931 0.985 . S
H928 N923 0.984 . S
H929 N923 0.985 . S
H930 N927 0.984 . S
H931 N927 0.985 . S
H932 N926 0.984 . S
H933 N926 0.984 . S
H934 N922 0.984 . S
H935 N922 0.985 . S
C397 C285 1.566 . S
C399 C21 1.566 . S
C415 C54 1.566 . S
C417 C318 1.566 . S
C433 C351 1.566 . S
C435 C87 1.566 . S
C451 C384 1.566 . S
C453 C120 1.566 . S
C469 C153 1.566 . S
C471 C219 1.566 . S
C487 C252 1.566 . S
C489 C186 1.566 . S
C505 C348 1.332 . S
C507 C18 1.332 . S
C523 C381 1.332 . S
C525 C51 1.332 . S
C541 C84 1.332 . S
C543 C216 1.332 . S
C559 C249 1.332 . S
C561 C117 1.332 . S
C577 C282 1.332 . S
C579 C150 1.332 . S
C595 C315 1.332 . S
C597 C183 1.332 . S
C613 N13 1.466 . S
C615 N2 1.462 . S
C631 N46 1.466 . S
C633 N35 1.462 . S
C649 N79 1.466 . S
C651 N68 1.462 . S
C667 N112 1.466 . S
C669 N101 1.462 . S
C685 N134 1.462 . S
C687 N145 1.466 . S
C703 N178 1.466 . S
C705 N167 1.462 . S
C721 N200 1.462 . S
C723 N211 1.466 . S
C739 N244 1.466 . S
C741 N233 1.462 . S
C757 N266 1.462 . S
C759 N277 1.466 . S
C775 N299 1.462 . S
C777 N310 1.466 . S
C793 N343 1.466 . S
C795 N332 1.462 . S
C811 N376 1.466 . S
C813 N365 1.462 . S
C829 C7 1.357 . S
C831 C370 1.357 . S
C847 C205 1.357 . S
C849 C40 1.357 . S
C865 C238 1.357 . S
C867 C73 1.357 . S
C883 C271 1.357 . S
C885 C106 1.357 . S
C901 C139 1.357 . S
C903 C304 1.357 . S
C919 C337 1.357 . S
C921 C172 1.357 . S
