# Generated by pormake.
# Topology qtz-x, (6)-cn, num edge types: 1
# Building blocks:
#     Node 0, Type 0, BuildingBlock: BETDAH_clean_sbu_0, # of connection points: 6
#     Node 1, Type 0, BuildingBlock: BETDAH_clean_sbu_0, # of connection points: 6
#     Node 2, Type 0, BuildingBlock: BETDAH_clean_sbu_0, # of connection points: 6
#     Edge 3, Type (0, 0), BuildingBlock: TEMPAE_clean_linker_10, # of connection points: 2
#     Edge 4, Type (0, 0), BuildingBlock: TEMPAE_clean_linker_10, # of connection points: 2
#     Edge 5, Type (0, 0), BuildingBlock: TEMPAE_clean_linker_10, # of connection points: 2
#     Edge 6, Type (0, 0), BuildingBlock: TEMPAE_clean_linker_10, # of connection points: 2
#     Edge 7, Type (0, 0), BuildingBlock: TEMPAE_clean_linker_10, # of connection points: 2
#     Edge 8, Type (0, 0), BuildingBlock: TEMPAE_clean_linker_10, # of connection points: 2
#     Edge 9, Type (0, 0), BuildingBlock: TEMPAE_clean_linker_10, # of connection points: 2
#     Edge 10, Type (0, 0), BuildingBlock: TEMPAE_clean_linker_10, # of connection points: 2
#     Edge 11, Type (0, 0), BuildingBlock: TEMPAE_clean_linker_10, # of connection points: 2
# Relax obj value: 0.227
# Max RMSD: 0.263
# Mean RMSD: 0.237
data_MOF--net-qtz-x--node1-BETDAH_clean_sbu_0--edge1-TEMPAE_clean_linker_10
_symmetry_space_group_name_H-M    P1
_symmetry_Int_Tables_number       1
_symmetry_cell_setting            triclinic
loop_
_symmetry_equiv_pos_as_xyz
'x, y, z'
_cell_length_a     14.767777
_cell_length_b     14.799262
_cell_length_c     53.350363
_cell_angle_alpha  69.120165
_cell_angle_beta   113.68303
_cell_angle_gamma 121.34863
loop_
_atom_site_label
_atom_site_type_symbol
_atom_site_fract_x
_atom_site_fract_y
_atom_site_fract_z
_atom_type_partial_charge
Ho0 Ho 1.01735 0.63633 0.19458 0.0
Ho1 Ho 0.23625 0.78524 0.18403 0.0
C2 C 0.2365 0.7136 0.24662 0.0
C3 C 0.85465 0.48544 0.21491 0.0
C4 C 0.83516 0.44509 0.24291 0.0
C5 C 0.89955 0.39981 0.26559 0.0
C6 C 0.88145 0.36398 0.29196 0.0
C7 C 0.7991 0.37315 0.29646 0.0
C8 C 0.73415 0.41767 0.27366 0.0
C9 C 0.75178 0.45282 0.2472 0.0
C10 C 0.0688 0.84804 0.18441 0.0
C11 C 1.0192 0.71039 0.13177 0.0
C12 C 0.39309 0.93606 0.16213 0.0
C13 C 0.41647 0.94744 0.13635 0.0
C14 C 0.40253 0.02715 0.11312 0.0
C15 C 0.4117 0.0306 0.08764 0.0
C16 C 0.43532 0.9545 0.08491 0.0
C17 C 0.45273 0.87701 0.10841 0.0
C18 C 0.44323 0.87331 0.13379 0.0
C19 C 0.18698 0.57393 0.19306 0.0
O20 O 0.1375 0.63648 0.23778 0.0
O21 O 0.28754 0.79479 0.22875 0.0
O22 O 0.86194 0.58177 0.20257 0.0
O23 O 0.92775 0.46889 0.21172 0.0
O24 O 0.97249 0.77516 0.17433 0.0
O25 O 0.13251 0.80526 0.19967 0.0
O26 O 0.11793 0.78621 0.14101 0.0
O27 O 0.96553 0.62924 0.14926 0.0
O28 O 0.4051 0.85836 0.18265 0.0
O29 O 0.30357 0.94273 0.15846 0.0
O30 O 0.28478 0.64954 0.20053 0.0
O31 O 0.12126 0.61546 0.17908 0.0
H32 H 0.96438 0.39221 0.26308 0.0
H33 H 0.9318 0.32834 0.30882 0.0
H34 H 0.6709 0.42729 0.27632 0.0
H35 H 0.70085 0.48725 0.23009 0.0
H36 H 0.38135 0.08493 0.11446 0.0
H37 H 0.39718 0.09092 0.06989 0.0
H38 H 0.47321 0.81856 0.10716 0.0
H39 H 0.45449 0.81064 0.1512 0.0
Ho40 Ho 0.85849 0.17653 0.55593 0.0
Ho41 Ho 0.75908 0.93354 0.55122 0.0
C42 C 0.83728 -0.01718 0.61196 0.0
C43 C 0.91848 0.355 0.56936 0.0
C44 C 0.95345 0.3885 0.59591 0.0
C45 C 0.92858 0.46627 0.59693 0.0
C46 C 0.96181 0.49853 0.62211 0.0
C47 C 1.02062 0.45346 0.64669 0.0
C48 C 1.04566 0.3758 0.64548 0.0
C49 C 1.01219 0.34348 0.62036 0.0
C50 C 0.99361 0.11755 0.55015 0.0
C51 C 0.75629 0.12258 0.49542 0.0
C52 C 0.73672 0.77305 0.53702 0.0
C53 C 0.67435 0.73716 0.50997 0.0
C54 C 0.72738 0.72548 0.49542 0.0
C55 C 0.67782 0.71388 0.46749 0.0
C56 C 0.57401 0.7136 0.45356 0.0
C57 C 0.51896 0.7201 0.46863 0.0
C58 C 0.56877 0.73245 0.49644 0.0
C59 C 0.5956 -0.01748 0.54551 0.0
O60 O 0.85591 0.08444 0.60005 0.0
O61 O 0.80798 0.90981 0.59778 0.0
O62 O 0.98575 0.33138 0.56575 0.0
O63 O 0.81518 0.28631 0.56146 0.0
O64 O 0.99068 0.20969 0.53853 0.0
O65 O 0.9263 0.06161 0.56499 0.0
O66 O 0.75703 0.02762 0.50739 0.0
O67 O 0.7779 0.19088 0.51 0.0
O68 O 0.67944 0.76156 0.55241 0.0
O69 O 0.82225 0.86734 0.53573 0.0
O70 O 0.57856 0.88855 0.54438 0.0
O71 O 0.69729 0.04209 0.54898 0.0
H72 H 0.88361 0.50213 0.57824 0.0
H73 H 0.94233 0.55941 0.6223 0.0
H74 H 0.08972 0.33868 0.66404 0.0
H75 H 1.0322 0.28312 0.62008 0.0
H76 H 0.80963 0.73084 0.50525 0.0
H77 H 0.72315 0.7102 0.45648 0.0
H78 H 0.43815 0.71819 0.45875 0.0
H79 H 0.52631 0.74282 0.50693 0.0
Ho80 Ho 0.78046 0.83252 0.86041 0.0
Ho81 Ho 0.95626 0.75362 0.88135 0.0
C82 C 0.89478 0.77963 0.92734 0.0
C83 C 0.60933 0.85501 0.85355 0.0
C84 C 0.56719 0.86288 0.87314 0.0
C85 C 0.55317 0.78608 0.89782 0.0
C86 C 0.52883 0.80261 0.91806 0.0
C87 C 0.51848 0.89615 0.91408 0.0
C88 C 0.52745 0.97051 0.88893 0.0
C89 C 0.55136 0.95384 0.86856 0.0
C90 C 0.98575 -0.00998 0.86182 0.0
C91 C 0.84711 0.80986 0.81413 0.0
C92 C 0.11879 0.71665 0.88871 0.0
C93 C 0.13855 0.67586 0.87085 0.0
C94 C 0.23674 0.73486 0.86276 0.0
C95 C 0.24876 0.70688 0.84223 0.0
C96 C 0.16252 0.61929 0.82948 0.0
C97 C 0.06661 0.55719 0.83868 0.0
C98 C 1.05455 0.58534 0.85905 0.0
C99 C 0.74758 0.59928 0.87819 0.0
O100 O 0.80608 0.78333 0.90745 0.0
O101 O 0.97727 0.78721 0.92134 0.0
O102 O 0.70248 0.936 0.8497 0.0
O103 O 0.60601 0.76195 0.85623 0.0
O104 O 0.89819 -0.0039 0.84351 0.0
O105 O 0.96023 0.90538 0.88011 0.0
O106 O 0.93023 0.79638 0.83453 0.0
O107 O 0.76831 0.81316 0.81921 0.0
O108 O 1.03688 0.6489 0.89981 0.0
O109 O 0.12071 0.81181 0.87853 0.0
O110 O 0.83186 0.59249 0.89801 0.0
O111 O 0.77869 0.68408 0.86059 0.0
H112 H 0.56478 0.71507 0.902 0.0
H113 H 0.52054 0.74344 0.93715 0.0
H114 H 0.52084 0.04359 0.88559 0.0
H115 H 0.56201 0.01419 0.84972 0.0
H116 H 0.30196 0.80542 0.87141 0.0
H117 H 0.32397 0.75571 0.8357 0.0
H118 H 0.99801 0.49027 0.82902 0.0
H119 H 0.97718 0.53896 0.86457 0.0
C120 C 1.03486 0.01121 0.16187 0.0
C121 C 0.08994 0.95711 0.18452 0.0
C122 C 1.0514 0.11356 0.16208 0.0
C123 C 0.12139 0.16088 0.186 0.0
C124 C 0.17666 0.10586 0.20901 0.0
C125 C 0.16187 0.00556 0.20776 0.0
C126 C 0.99423 0.17112 0.13671 0.0
C127 C 0.24933 0.15165 0.23523 0.0
C128 C 0.24263 0.46271 0.18204 0.0
C129 C 0.168 0.46872 0.19057 0.0
C130 C 0.22675 0.36351 0.17967 0.0
C131 C 0.13631 0.26748 0.18707 0.0
C132 C 0.06123 0.27333 0.19595 0.0
C133 C 0.07692 0.37425 0.19707 0.0
C134 C 0.30652 0.36158 0.16916 0.0
C135 C 0.9658 0.17282 0.20489 0.0
H136 H 0.97969 0.97385 0.14383 0.0
H137 H 0.20378 0.96327 0.22541 0.0
H138 H 0.93565 0.18198 0.14203 0.0
H139 H 1.05552 0.25261 0.12958 0.0
H140 H 0.94819 0.12646 0.11919 0.0
H141 H 0.28343 0.09713 0.2516 0.0
H142 H 0.31888 0.23032 0.23047 0.0
H143 H 0.20162 0.16633 0.24369 0.0
H144 H 0.31269 0.53608 0.17675 0.0
H145 H 1.01982 0.37883 0.20385 0.0
H146 H 0.26101 0.31904 0.15127 0.0
H147 H 0.35114 0.31655 0.18575 0.0
H148 H 0.36801 0.44384 0.16248 0.0
H149 H 0.91053 0.12897 0.18737 0.0
H150 H 0.91677 0.19092 0.21199 0.0
H151 H 0.99683 0.11792 0.22212 0.0
C152 C 0.5354 0.08807 0.55835 0.0
C153 C 0.50942 0.00728 0.54527 0.0
C154 C 0.45178 0.1047 0.55982 0.0
C155 C 0.33933 0.04019 0.54753 0.0
C156 C 0.31327 0.95966 0.53394 0.0
C157 C 0.39821 0.94349 0.53328 0.0
C158 C 0.48369 0.19019 0.57495 0.0
C159 C 0.19541 0.89057 0.51995 0.0
C160 C 0.10821 0.01475 0.56968 0.0
C161 C 0.07729 0.09209 0.54913 0.0
C162 C 0.19412 -0.00208 0.56968 0.0
C163 C 0.24895 0.0581 0.54827 0.0
C164 C 0.21564 0.13423 0.52711 0.0
C165 C 0.13146 0.15098 0.52799 0.0
C166 C 0.22744 0.91691 0.59286 0.0
C167 C 0.26892 0.1982 0.50345 0.0
H168 H 0.62078 0.13593 0.5682 0.0
H169 H 0.37743 0.88062 0.52321 0.0
H170 H 0.45416 0.25072 0.56053 0.0
H171 H 0.44356 0.15319 0.59213 0.0
H172 H 0.57423 0.23231 0.5838 0.0
H173 H 0.18891 0.83317 0.5097 0.0
H174 H 0.14695 0.84404 0.53548 0.0
H175 H 0.15704 0.94238 0.50403 0.0
H176 H 0.06728 0.96943 0.58618 0.0
H177 H 0.10774 0.21058 0.51194 0.0
H178 H 0.31611 0.95693 0.6038 0.0
H179 H 0.21628 0.85298 0.58412 0.0
H180 H 0.17883 0.87849 0.6083 0.0
H181 H 0.35814 0.2482 0.51175 0.0
H182 H 0.23152 0.25192 0.48818 0.0
H183 H 0.26117 0.14274 0.49235 0.0
C184 C 0.11184 0.17847 0.86912 0.0
C185 C 0.0952 0.08227 0.86486 0.0
C186 C 0.21571 0.26806 0.87141 0.0
C187 C 0.30371 0.26106 0.8689 0.0
C188 C 0.286 0.16434 0.86404 0.0
C189 C 0.18175 0.076 0.86211 0.0
C190 C 0.23184 0.3695 0.87688 0.0
C191 C 0.37683 0.15456 0.86056 0.0
C192 C 0.55212 0.51443 0.85048 0.0
C193 C 0.6325 0.51755 0.87607 0.0
C194 C 0.44361 0.43301 0.84792 0.0
C195 C 0.41492 0.35407 0.87166 0.0
C196 C 0.49489 0.36033 0.89781 0.0
C197 C 0.60326 0.44112 0.89961 0.0
C198 C 0.36185 0.42918 0.81952 0.0
C199 C 0.46736 0.27984 0.92378 0.0
H200 H 1.04385 0.18313 0.87091 0.0
H201 H 0.16713 0.00318 0.85761 0.0
H202 H 0.2901 0.3837 0.89774 0.0
H203 H 0.26892 0.44025 0.86136 0.0
H204 H 0.15333 0.36485 0.87618 0.0
H205 H 0.34906 0.0741 0.85655 0.0
H206 H 0.40773 0.21712 0.84296 0.0
H207 H 0.44691 0.16858 0.87963 0.0
H208 H 0.57479 0.57369 0.83224 0.0
H209 H 0.66528 0.44429 0.91949 0.0
H210 H 0.27775 0.39968 0.82092 0.0
H211 H 0.35906 0.37266 0.80974 0.0
H212 H 0.38558 0.50963 0.80564 0.0
H213 H 0.3851 0.26035 0.92462 0.0
H214 H 0.52947 0.31045 0.9429 0.0
H215 H 0.46551 0.20399 0.92372 0.0
C216 C 0.41729 0.93737 0.9333 0.0
C217 C 0.50614 0.91882 0.93704 0.0
C218 C 0.4024 0.95172 0.95581 0.0
C219 C 0.47901 0.94866 0.9824 0.0
C220 C 0.57214 0.93614 0.98571 0.0
C221 C 0.58386 0.92027 0.96304 0.0
C222 C 0.30397 0.96817 0.95133 0.0
C223 C 0.65779 0.93578 1.01339 0.0
C224 C 0.4942 0.05117 0.0407 0.0
C225 C 0.44054 0.95444 0.05764 0.0
C226 C 0.50421 0.05127 1.0156 0.0
C227 C 0.45935 0.95217 1.00722 0.0
C228 C 0.40292 0.85451 1.02393 0.0
C229 C 0.39408 0.85685 0.04887 0.0
C230 C 0.56901 0.15739 0.99924 0.0
C231 C 0.35435 0.74717 1.01579 0.0
H232 H 0.358 0.9375 0.91303 0.0
H233 H 0.6541 0.90881 0.96562 0.0
H234 H 0.24988 0.90031 0.96418 0.0
H235 H 0.3315 0.04308 0.95824 0.0
H236 H 0.255 0.97363 0.92914 0.0
H237 H 0.67683 -0.00147 1.02392 0.0
H238 H 0.62556 0.85641 1.02719 0.0
H239 H 0.73572 0.94992 1.01099 0.0
H240 H 0.53188 0.12688 0.0475 0.0
H241 H 0.35084 0.78185 0.06161 0.0
H242 H 0.5453 0.15496 0.97691 0.0
H243 H 0.65786 0.17696 1.00791 0.0
H244 H 0.55819 0.22348 1.00106 0.0
H245 H 0.29511 0.74618 0.99479 0.0
H246 H 0.31123 0.67862 1.0308 0.0
H247 H 0.42049 0.73483 1.01466 0.0
C248 C 0.72588 0.08589 0.44965 0.0
C249 C 0.74042 0.15552 0.46474 0.0
C250 C 0.72519 0.11954 0.42147 0.0
C251 C 0.73761 0.22506 0.40775 0.0
C252 C 0.74552 0.29356 0.42231 0.0
C253 C 0.74756 0.25826 0.45069 0.0
C254 C 0.71632 0.04366 0.40677 0.0
C255 C 0.75619 0.40572 0.40821 0.0
C256 C 0.87317 0.35411 0.34854 0.0
C257 C 0.78235 0.33752 0.32488 0.0
C258 C 0.85953 0.31858 0.37549 0.0
C259 C 0.75229 0.26656 0.37905 0.0
C260 C 0.66014 0.2514 0.35532 0.0
C261 C 0.67617 0.28637 0.32855 0.0
C262 C 0.96012 0.33524 0.4002 0.0
C263 C 0.54455 0.19713 0.35821 0.0
H264 H 0.7189 0.00575 0.46009 0.0
H265 H 0.75782 0.31239 0.46201 0.0
H266 H 0.64456 0.03031 0.38809 0.0
H267 H 0.79095 0.07986 0.39952 0.0
H268 H 0.70722 0.96424 0.42044 0.0
H269 H 0.74917 0.44432 0.42136 0.0
H270 H 0.83732 0.45678 0.40357 0.0
H271 H 0.69183 0.40354 0.38807 0.0
H272 H 0.95557 0.39539 0.34604 0.0
H273 H 0.60517 0.27185 0.31051 0.0
H274 H 0.95378 0.25621 0.41362 0.0
H275 H 0.96501 0.38314 0.41305 0.0
H276 H 1.03776 0.37734 0.39387 0.0
H277 H 0.52255 0.1116 0.36853 0.0
H278 H 0.48274 0.19986 0.33773 0.0
H279 H 0.53938 0.23619 0.37157 0.0
C280 C 0.93184 0.8299 0.77879 0.0
C281 C 0.84344 0.82209 0.78483 0.0
C282 C 0.93288 0.84822 0.75113 0.0
C283 C 0.84297 0.85821 0.72888 0.0
C284 C 0.75164 0.84621 0.73488 0.0
C285 C 0.75321 0.82888 0.76272 0.0
C286 C 1.03158 0.85969 0.74572 0.0
C287 C 0.65336 0.8547 0.71183 0.0
C288 C 0.8886 0.02827 0.65835 0.0
C289 C 0.84602 0.95004 0.64241 0.0
C290 C 0.89028 -0.00066 0.68657 0.0
C291 C 0.8477 0.88916 0.69936 0.0
C292 C 0.80678 0.80962 0.68365 0.0
C293 C 0.80672 0.84096 0.65541 0.0
C294 C 0.93618 0.08694 0.70262 0.0
C295 C 0.75949 0.69124 0.69639 0.0
H296 H 1.00178 0.82404 0.79566 0.0
H297 H 0.68402 0.82198 0.76709 0.0
H298 H 1.00536 0.7994 0.73342 0.0
H299 H 0.07054 0.94059 0.73322 0.0
H300 H 0.09436 0.84893 0.76531 0.0
H301 H 0.58518 0.83442 0.71994 0.0
H302 H 0.67836 0.938 0.69953 0.0
H303 H 0.62203 0.80006 0.69738 0.0
H304 H 0.91964 0.11271 0.64871 0.0
H305 H 0.77312 0.77965 0.64335 0.0
H306 H 1.00494 0.08102 0.72099 0.0
H307 H 0.87174 0.07664 0.7105 0.0
H308 H 0.96679 0.16884 0.68972 0.0
H309 H 0.8175 0.6747 0.71638 0.0
H310 H 0.74066 0.64004 0.68231 0.0
H311 H 0.68238 0.66737 0.70107 0.0
C312 C 0.99297 0.75668 0.97826 0.0
C313 C 0.90108 0.76436 0.95703 0.0
C314 C 1.00028 0.74086 1.00644 0.0
C315 C 0.91407 0.73317 1.01377 0.0
C316 C 0.82015 0.73889 0.99255 0.0
C317 C 0.81477 0.75461 0.96444 0.0
C318 C 0.10155 0.73432 1.02836 0.0
C319 C 0.72639 0.73038 0.99958 0.0
C320 C 0.91393 0.61998 0.09021 0.0
C321 C 0.97588 0.71446 0.10128 0.0
C322 C 0.88955 0.6245 0.06152 0.0
C323 C 0.92622 0.72596 0.04352 0.0
C324 C 0.98302 0.82148 0.05446 0.0
C325 C 1.0081 0.81451 0.08319 0.0
C326 C 0.83066 0.52074 0.0508 0.0
C327 C 1.02176 0.93129 1.03603 0.0
H328 H 0.05984 0.76312 0.97291 0.0
H329 H 0.74301 0.75966 0.9483 0.0
H330 H 0.15185 0.80821 0.03753 0.0
H331 H 0.07832 0.66456 0.0455 0.0
H332 H 0.15311 0.72648 1.01958 0.0
H333 H 0.65554 0.72791 0.98103 0.0
H334 H 0.69747 0.6569 1.0154 0.0
H335 H 0.75565 0.80035 1.0088 0.0
H336 H 0.89 0.54249 0.10416 0.0
H337 H 1.05558 0.88784 0.09165 0.0
H338 H 0.88897 0.51167 0.04484 0.0
H339 H 0.76219 0.52214 1.03186 0.0
H340 H 0.79709 0.44925 0.06666 0.0
H341 H 1.05516 -0.0027 0.04725 0.0
H342 H 0.95294 0.93704 1.01765 0.0
H343 H 0.08728 0.9437 1.02818 0.0
C344 C 0.22822 0.63539 0.29622 0.0
C345 C 0.2882 0.71118 0.27701 0.0
C346 C 0.2751 0.63379 0.32499 0.0
C347 C 0.38481 0.70968 0.33486 0.0
C348 C 0.44632 0.78552 0.31562 0.0
C349 C 0.39719 0.78561 0.28694 0.0
C350 C 0.20594 0.55246 0.3447 0.0
C351 C 0.564 0.86684 0.32534 0.0
C352 C 0.47185 0.77684 0.40593 0.0
C353 C 0.52555 0.71195 0.42314 0.0
C354 C 0.42573 0.77679 0.37723 0.0
C355 C 0.43439 0.71115 0.36527 0.0
C356 C 0.48975 0.64656 0.3824 0.0
C357 C 0.5342 0.64736 0.41113 0.0
C358 C 0.36778 0.84718 0.35973 0.0
C359 C 0.50147 0.57612 0.37039 0.0
H360 H 0.14378 0.57793 0.28879 0.0
H361 H 0.44442 0.84423 0.2723 0.0
H362 H 0.25243 0.51197 0.36249 0.0
H363 H 0.18421 0.59438 0.35336 0.0
H364 H 0.12867 0.48997 0.33413 0.0
H365 H 0.60169 0.91819 0.3078 0.0
H366 H 0.56746 0.91972 0.33644 0.0
H367 H 0.6145 0.82482 0.34032 0.0
H368 H 0.46715 0.82917 0.41483 0.0
H369 H 0.57472 0.59637 0.42424 0.0
H370 H 0.28204 0.79732 0.34874 0.0
H371 H 0.41017 0.90706 0.34359 0.0
H372 H 0.36544 0.89113 0.37237 0.0
H373 H 0.41881 0.5153 0.3612 0.0
H374 H 0.55007 0.53346 0.38632 0.0
H375 H 0.54228 0.62559 0.35336 0.0
C376 C 0.12377 0.49292 0.80134 0.0
C377 C 0.16628 0.59873 0.80472 0.0
C378 C 0.11118 0.47169 0.77623 0.0
C379 C 0.14068 0.55837 0.75387 0.0
C380 C 0.18862 0.66563 0.75761 0.0
C381 C 0.20123 0.68455 0.78305 0.0
C382 C 0.06181 0.35623 0.77327 0.0
C383 C 0.2215 0.76019 0.73429 0.0
C384 C 0.15791 0.50108 0.69232 0.0
C385 C 1.05381 0.4853 0.67367 0.0
C386 C 0.18845 0.52688 0.71834 0.0
C387 C 0.11272 0.53634 0.72594 0.0
C388 C 1.00832 0.52242 0.70701 0.0
C389 C 0.98015 0.49704 0.68113 0.0
C390 C 0.30062 0.54123 0.73787 0.0
C391 C 0.92554 0.53263 0.71428 0.0
H392 H 0.09774 0.42633 0.81813 0.0
H393 H 0.23308 0.76647 0.7854 0.0
H394 H 0.98004 0.33484 0.75772 0.0
H395 H 0.11476 0.34608 0.76553 0.0
H396 H 1.05144 0.29886 0.79329 0.0
H397 H 0.26638 0.83855 0.7413 0.0
H398 H 0.27443 0.75435 0.72551 0.0
H399 H 0.14679 0.7591 0.71722 0.0
H400 H 0.21581 0.49344 0.68656 0.0
H401 H 0.89915 0.48373 0.66698 0.0
H402 H 0.29138 0.46887 0.75466 0.0
H403 H 0.33974 0.61179 0.74788 0.0
H404 H 0.35668 0.55171 0.727 0.0
H405 H 0.90376 0.47176 0.73305 0.0
H406 H 0.8488 0.52139 0.69704 0.0
H407 H 0.96194 0.61319 0.71937 0.0
loop_
_geom_bond_atom_site_label_1
_geom_bond_atom_site_label_2
_geom_bond_distance
_geom_bond_site_symmetry_2
_ccdc_geom_bond_type
Ho0 C3 2.811 . S
Ho0 O20 2.322 1_655 S
Ho0 O22 2.378 . S
Ho0 O23 2.524 . S
Ho0 O24 2.381 . S
Ho0 O25 2.669 1_655 S
Ho0 O27 2.346 . S
Ho0 O31 2.305 . S
Ho1 C12 2.811 . S
Ho1 O21 2.346 . S
Ho1 O25 2.305 . S
Ho1 O26 2.322 1_455 S
Ho1 O28 2.378 . S
Ho1 O29 2.524 . S
Ho1 O30 2.381 . S
Ho1 O31 2.669 1_455 S
C2 O20 1.259 . S
C2 O21 1.268 . S
C3 Ho0 2.811 . S
C3 C4 1.488 . S
C3 O22 1.215 . S
C3 O23 1.289 . S
C4 C3 1.488 . S
C4 C5 1.348 . S
C4 C9 1.413 . S
C5 C4 1.348 . S
C5 C6 1.442 . S
C5 H32 0.930 . S
C6 C5 1.442 . S
C6 C7 1.381 . S
C6 H33 0.931 . S
C7 C6 1.381 . S
C7 C8 1.321 . S
C8 C7 1.321 . S
C8 C9 1.403 . S
C8 H34 0.934 . S
C9 C4 1.413 . S
C9 C8 1.403 . S
C9 H35 0.930 . S
C10 O24 1.275 . S
C10 O25 1.256 1_655 S
C11 O26 1.259 . S
C11 O27 1.268 . S
C12 Ho1 2.811 . S
C12 C13 1.488 . S
C12 O28 1.215 . S
C12 O29 1.289 . S
C13 C12 1.488 . S
C13 C14 1.348 . S
C13 C18 1.413 . S
C14 C13 1.348 . S
C14 C15 1.442 1_565 S
C14 H36 0.930 . S
C15 C14 1.442 1_545 S
C15 C16 1.381 1_545 S
C15 H37 0.931 . S
C16 C15 1.381 1_565 S
C16 C17 1.321 . S
C17 C16 1.321 . S
C17 C18 1.403 . S
C17 H38 0.934 . S
C18 C13 1.413 . S
C18 C17 1.403 . S
C18 H39 0.930 . S
C19 O30 1.275 . S
C19 O31 1.256 1_455 S
O20 Ho0 2.322 1_455 S
O20 C2 1.259 . S
O21 Ho1 2.346 . S
O21 C2 1.268 . S
O22 Ho0 2.378 . S
O22 C3 1.215 . S
O23 Ho0 2.524 . S
O23 C3 1.289 . S
O24 Ho0 2.381 . S
O24 C10 1.275 . S
O25 Ho0 2.669 1_455 S
O25 Ho1 2.305 . S
O25 C10 1.256 1_455 S
O26 Ho1 2.322 1_655 S
O26 C11 1.259 . S
O27 Ho0 2.346 . S
O27 C11 1.268 . S
O28 Ho1 2.378 . S
O28 C12 1.215 . S
O29 Ho1 2.524 . S
O29 C12 1.289 . S
O30 Ho1 2.381 . S
O30 C19 1.275 . S
O31 Ho0 2.305 . S
O31 Ho1 2.669 1_655 S
O31 C19 1.256 1_655 S
H32 C5 0.930 . S
H33 C6 0.931 . S
H34 C8 0.934 . S
H35 C9 0.930 . S
H36 C14 0.930 . S
H37 C15 0.931 . S
H38 C17 0.934 . S
H39 C18 0.930 . S
Ho40 C43 2.811 . S
Ho40 O60 2.322 . S
Ho40 O62 2.378 . S
Ho40 O63 2.524 . S
Ho40 O64 2.381 . S
Ho40 O65 2.669 1_545 S
Ho40 O67 2.346 . S
Ho40 O71 2.305 . S
Ho41 C52 2.811 . S
Ho41 O61 2.346 . S
Ho41 O65 2.305 . S
Ho41 O66 2.322 1_565 S
Ho41 O68 2.378 . S
Ho41 O69 2.524 . S
Ho41 O70 2.381 . S
Ho41 O71 2.669 1_565 S
C42 O60 1.259 1_565 S
C42 O61 1.268 . S
C43 Ho40 2.811 . S
C43 C44 1.488 . S
C43 O62 1.215 . S
C43 O63 1.289 . S
C44 C43 1.488 . S
C44 C45 1.348 . S
C44 C49 1.413 1_655 S
C45 C44 1.348 . S
C45 C46 1.442 . S
C45 H72 0.930 . S
C46 C45 1.442 . S
C46 C47 1.381 . S
C46 H73 0.931 . S
C47 C46 1.381 . S
C47 C48 1.321 1_655 S
C48 C47 1.321 1_455 S
C48 C49 1.403 . S
C48 H74 0.934 . S
C49 C44 1.413 1_455 S
C49 C48 1.403 . S
C49 H75 0.930 . S
C50 O64 1.275 . S
C50 O65 1.256 1_545 S
C51 O66 1.259 . S
C51 O67 1.268 . S
C52 Ho41 2.811 . S
C52 C53 1.488 . S
C52 O68 1.215 . S
C52 O69 1.289 . S
C53 C52 1.488 . S
C53 C54 1.348 . S
C53 C58 1.413 . S
C54 C53 1.348 . S
C54 C55 1.442 . S
C54 H76 0.930 . S
C55 C54 1.442 . S
C55 C56 1.381 . S
C55 H77 0.931 . S
C56 C55 1.381 . S
C56 C57 1.321 . S
C57 C56 1.321 . S
C57 C58 1.403 . S
C57 H78 0.934 . S
C58 C53 1.413 . S
C58 C57 1.403 . S
C58 H79 0.930 . S
C59 O70 1.275 . S
C59 O71 1.256 1_565 S
O60 Ho40 2.322 . S
O60 C42 1.259 1_545 S
O61 Ho41 2.346 . S
O61 C42 1.268 . S
O62 Ho40 2.378 . S
O62 C43 1.215 . S
O63 Ho40 2.524 . S
O63 C43 1.289 . S
O64 Ho40 2.381 . S
O64 C50 1.275 . S
O65 Ho40 2.669 1_565 S
O65 Ho41 2.305 . S
O65 C50 1.256 1_565 S
O66 Ho41 2.322 1_545 S
O66 C51 1.259 . S
O67 Ho40 2.346 . S
O67 C51 1.268 . S
O68 Ho41 2.378 . S
O68 C52 1.215 . S
O69 Ho41 2.524 . S
O69 C52 1.289 . S
O70 Ho41 2.381 . S
O70 C59 1.275 . S
O71 Ho40 2.305 . S
O71 Ho41 2.669 1_545 S
O71 C59 1.256 1_545 S
H72 C45 0.930 . S
H73 C46 0.931 . S
H74 C48 0.934 . S
H75 C49 0.930 . S
H76 C54 0.930 . S
H77 C55 0.931 . S
H78 C57 0.934 . S
H79 C58 0.930 . S
Ho80 C83 2.811 . S
Ho80 O100 2.322 1_545 S
Ho80 O102 2.378 . S
Ho80 O103 2.524 1_545 S
Ho80 O104 2.381 1_655 S
Ho80 O105 2.669 . S
Ho80 O107 2.346 . S
Ho80 O111 2.305 1_545 S
Ho81 C92 2.811 1_655 S
Ho81 O101 2.346 . S
Ho81 O105 2.305 1_565 S
Ho81 O106 2.322 . S
Ho81 O108 2.378 . S
Ho81 O109 2.524 1_655 S
Ho81 O110 2.381 . S
Ho81 O111 2.669 . S
C82 O100 1.259 . S
C82 O101 1.268 . S
C83 Ho80 2.811 . S
C83 C84 1.488 . S
C83 O102 1.215 . S
C83 O103 1.289 1_545 S
C84 C83 1.488 . S
C84 C85 1.348 1_545 S
C84 C89 1.413 . S
C85 C84 1.348 1_565 S
C85 C86 1.442 . S
C85 H112 0.930 . S
C86 C85 1.442 . S
C86 C87 1.381 1_565 S
C86 H113 0.931 . S
C87 C86 1.381 1_545 S
C87 C88 1.321 . S
C88 C87 1.321 . S
C88 C89 1.403 . S
C88 H114 0.934 . S
C89 C84 1.413 . S
C89 C88 1.403 . S
C89 H115 0.930 . S
C90 O104 1.275 . S
C90 O105 1.256 1_455 S
C91 O106 1.259 . S
C91 O107 1.268 1_565 S
C92 Ho81 2.811 1_455 S
C92 C93 1.488 . S
C92 O108 1.215 1_455 S
C92 O109 1.289 . S
C93 C92 1.488 . S
C93 C94 1.348 . S
C93 C98 1.413 1_455 S
C94 C93 1.348 . S
C94 C95 1.442 . S
C94 H116 0.930 . S
C95 C94 1.442 . S
C95 C96 1.381 . S
C95 H117 0.931 . S
C96 C95 1.381 . S
C96 C97 1.321 . S
C97 C96 1.321 . S
C97 C98 1.403 1_455 S
C97 H118 0.934 . S
C98 C93 1.413 1_655 S
C98 C97 1.403 1_655 S
C98 H119 0.930 . S
C99 O110 1.275 . S
C99 O111 1.256 . S
O100 Ho80 2.322 1_565 S
O100 C82 1.259 . S
O101 Ho81 2.346 . S
O101 C82 1.268 . S
O102 Ho80 2.378 . S
O102 C83 1.215 . S
O103 Ho80 2.524 1_565 S
O103 C83 1.289 1_565 S
O104 Ho80 2.381 1_455 S
O104 C90 1.275 . S
O105 Ho80 2.669 . S
O105 Ho81 2.305 1_545 S
O105 C90 1.256 1_655 S
O106 Ho81 2.322 . S
O106 C91 1.259 . S
O107 Ho80 2.346 . S
O107 C91 1.268 1_545 S
O108 Ho81 2.378 . S
O108 C92 1.215 1_655 S
O109 Ho81 2.524 1_455 S
O109 C92 1.289 . S
O110 Ho81 2.381 . S
O110 C99 1.275 . S
O111 Ho80 2.305 1_565 S
O111 Ho81 2.669 . S
O111 C99 1.256 . S
H112 C85 0.930 . S
H113 C86 0.931 . S
H114 C88 0.934 . S
H115 C89 0.930 . S
H116 C94 0.930 . S
H117 C95 0.931 . S
H118 C97 0.934 . S
H119 C98 0.930 . S
C120 C121 1.391 1_545 S
C120 C122 1.394 . S
C120 H136 0.931 1_545 S
C121 C120 1.391 1_565 S
C121 C125 1.376 1_655 S
C122 C120 1.394 . S
C122 C123 1.369 . S
C122 C126 1.531 . S
C123 C122 1.369 . S
C123 C124 1.410 1_655 S
C123 C131 1.503 . S
C124 C123 1.410 1_455 S
C124 C125 1.392 1_545 S
C124 C127 1.511 . S
C125 C121 1.376 1_455 S
C125 C124 1.392 1_565 S
C125 H137 0.929 . S
C126 C122 1.531 . S
C126 H138 0.960 . S
C126 H139 0.962 . S
C126 H140 0.960 . S
C127 C124 1.511 . S
C127 H141 0.961 . S
C127 H142 0.961 . S
C127 H143 0.961 . S
C128 C129 1.370 1_455 S
C128 C130 1.363 . S
C128 H144 0.931 . S
C129 C128 1.370 1_655 S
C129 C133 1.408 . S
C130 C128 1.363 . S
C130 C131 1.370 1_455 S
C130 C134 1.524 . S
C131 C123 1.503 . S
C131 C130 1.370 1_655 S
C131 C132 1.403 . S
C132 C131 1.403 . S
C132 C133 1.404 . S
C132 C135 1.539 . S
C133 C129 1.408 . S
C133 C132 1.404 . S
C133 H145 0.930 . S
C134 C130 1.524 . S
C134 H146 0.956 . S
C134 H147 0.961 . S
C134 H148 0.961 . S
C135 C132 1.539 . S
C135 H149 0.958 . S
C135 H150 0.961 . S
C135 H151 0.960 . S
H136 C120 0.931 1_565 S
H137 C125 0.929 . S
H138 C126 0.960 . S
H139 C126 0.962 . S
H140 C126 0.960 . S
H141 C127 0.961 . S
H142 C127 0.961 . S
H143 C127 0.961 . S
H144 C128 0.931 . S
H145 C133 0.930 . S
H146 C134 0.956 . S
H147 C134 0.961 . S
H148 C134 0.961 . S
H149 C135 0.958 . S
H150 C135 0.961 . S
H151 C135 0.960 . S
C152 C153 1.391 . S
C152 C154 1.394 . S
C152 H168 0.931 . S
C153 C152 1.391 . S
C153 C157 1.376 1_545 S
C154 C152 1.394 . S
C154 C155 1.369 . S
C154 C158 1.531 . S
C155 C154 1.369 . S
C155 C156 1.410 1_545 S
C155 C163 1.503 . S
C156 C155 1.410 1_565 S
C156 C157 1.392 . S
C156 C159 1.511 . S
C157 C153 1.376 1_565 S
C157 C156 1.392 . S
C157 H169 0.929 . S
C158 C154 1.531 . S
C158 H170 0.960 . S
C158 H171 0.962 . S
C158 H172 0.960 . S
C159 C156 1.511 . S
C159 H173 0.961 . S
C159 H174 0.961 . S
C159 H175 0.961 . S
C160 C161 1.370 . S
C160 C162 1.363 . S
C160 H176 0.931 . S
C161 C160 1.370 . S
C161 C165 1.408 . S
C162 C160 1.363 . S
C162 C163 1.370 . S
C162 C166 1.524 . S
C163 C155 1.503 . S
C163 C162 1.370 . S
C163 C164 1.403 . S
C164 C163 1.403 . S
C164 C165 1.404 . S
C164 C167 1.539 1_545 S
C165 C161 1.408 . S
C165 C164 1.404 . S
C165 H177 0.930 1_455 S
C166 C162 1.524 . S
C166 H178 0.956 . S
C166 H179 0.961 1_545 S
C166 H180 0.962 1_545 S
C167 C164 1.539 1_565 S
C167 H181 0.958 1_565 S
C167 H182 0.961 . S
C167 H183 0.960 . S
H168 C152 0.931 . S
H169 C157 0.929 . S
H170 C158 0.960 . S
H171 C158 0.962 . S
H172 C158 0.960 . S
H173 C159 0.961 . S
H174 C159 0.961 . S
H175 C159 0.961 . S
H176 C160 0.931 . S
H177 C165 0.930 1_655 S
H178 C166 0.956 . S
H179 C166 0.961 1_565 S
H180 C166 0.962 1_565 S
H181 C167 0.958 1_545 S
H182 C167 0.961 . S
H183 C167 0.960 . S
C184 C185 1.391 . S
C184 C186 1.394 . S
C184 H200 0.931 . S
C185 C184 1.391 . S
C185 C189 1.376 . S
C186 C184 1.394 . S
C186 C187 1.369 . S
C186 C190 1.531 . S
C187 C186 1.369 . S
C187 C188 1.410 . S
C187 C195 1.503 . S
C188 C187 1.410 . S
C188 C189 1.392 . S
C188 C191 1.511 . S
C189 C185 1.376 . S
C189 C188 1.392 . S
C189 H201 0.929 . S
C190 C186 1.531 . S
C190 H202 0.960 . S
C190 H203 0.962 . S
C190 H204 0.960 . S
C191 C188 1.511 . S
C191 H205 0.961 . S
C191 H206 0.961 . S
C191 H207 0.961 . S
C192 C193 1.370 . S
C192 C194 1.363 . S
C192 H208 0.931 . S
C193 C192 1.370 . S
C193 C197 1.408 . S
C194 C192 1.363 . S
C194 C195 1.370 . S
C194 C198 1.524 . S
C195 C187 1.503 . S
C195 C194 1.370 . S
C195 C196 1.403 . S
C196 C195 1.403 . S
C196 C197 1.404 . S
C196 C199 1.539 . S
C197 C193 1.408 . S
C197 C196 1.404 . S
C197 H209 0.930 . S
C198 C194 1.524 . S
C198 H210 0.956 . S
C198 H211 0.961 . S
C198 H212 0.961 . S
C199 C196 1.539 . S
C199 H213 0.958 . S
C199 H214 0.961 . S
C199 H215 0.960 . S
H200 C184 0.931 . S
H201 C189 0.929 . S
H202 C190 0.960 . S
H203 C190 0.962 . S
H204 C190 0.960 . S
H205 C191 0.961 . S
H206 C191 0.961 . S
H207 C191 0.961 . S
H208 C192 0.931 . S
H209 C197 0.930 . S
H210 C198 0.956 . S
H211 C198 0.961 . S
H212 C198 0.961 . S
H213 C199 0.958 . S
H214 C199 0.961 . S
H215 C199 0.960 . S
C216 C217 1.391 . S
C216 C218 1.394 . S
C216 H232 0.931 . S
C217 C216 1.391 . S
C217 C221 1.376 . S
C218 C216 1.394 . S
C218 C219 1.369 . S
C218 C222 1.531 . S
C219 C218 1.369 . S
C219 C220 1.413 . S
C219 C227 1.503 . S
C220 C219 1.413 . S
C220 C221 1.391 . S
C220 C223 1.509 1_545 S
C221 C217 1.376 . S
C221 C220 1.391 . S
C221 H233 0.929 1_545 S
C222 C218 1.531 . S
C222 H234 0.960 . S
C222 H235 0.962 . S
C222 H236 0.960 . S
C223 C220 1.509 1_565 S
C223 H237 0.961 1_556 S
C223 H238 0.961 1_556 S
C223 H239 0.961 . S
C224 C225 1.373 . S
C224 C226 1.347 1_554 S
C224 H240 0.931 . S
C225 C224 1.373 . S
C225 C229 1.403 1_544 S
C226 C224 1.347 1_556 S
C226 C227 1.384 . S
C226 C230 1.526 1_556 S
C227 C219 1.503 . S
C227 C226 1.384 . S
C227 C228 1.403 1_545 S
C228 C227 1.403 1_565 S
C228 C229 1.404 . S
C228 C231 1.539 . S
C229 C225 1.403 1_566 S
C229 C228 1.404 . S
C229 H241 0.930 . S
C230 C226 1.526 1_554 S
C230 H242 0.956 1_554 S
C230 H243 0.961 . S
C230 H244 0.961 . S
C231 C228 1.539 . S
C231 H245 0.958 . S
C231 H246 0.961 . S
C231 H247 0.960 . S
H232 C216 0.931 . S
H233 C221 0.929 1_565 S
H234 C222 0.960 . S
H235 C222 0.962 . S
H236 C222 0.960 . S
H237 C223 0.961 1_554 S
H238 C223 0.961 1_554 S
H239 C223 0.961 . S
H240 C224 0.931 . S
H241 C229 0.930 . S
H242 C230 0.956 1_556 S
H243 C230 0.961 . S
H244 C230 0.961 . S
H245 C231 0.958 . S
H246 C231 0.961 . S
H247 C231 0.960 . S
C248 C249 1.391 . S
C248 C250 1.394 . S
C248 H264 0.931 . S
C249 C248 1.391 . S
C249 C253 1.376 . S
C250 C248 1.394 . S
C250 C251 1.369 . S
C250 C254 1.531 . S
C251 C250 1.369 . S
C251 C252 1.410 . S
C251 C259 1.503 . S
C252 C251 1.410 . S
C252 C253 1.392 . S
C252 C255 1.511 . S
C253 C249 1.376 . S
C253 C252 1.392 . S
C253 H265 0.929 . S
C254 C250 1.531 . S
C254 H266 0.960 . S
C254 H267 0.962 . S
C254 H268 0.960 . S
C255 C252 1.511 . S
C255 H269 0.961 . S
C255 H270 0.961 . S
C255 H271 0.961 . S
C256 C257 1.370 . S
C256 C258 1.363 . S
C256 H272 0.931 . S
C257 C256 1.370 . S
C257 C261 1.408 . S
C258 C256 1.363 . S
C258 C259 1.370 . S
C258 C262 1.524 . S
C259 C251 1.503 . S
C259 C258 1.370 . S
C259 C260 1.403 . S
C260 C259 1.403 . S
C260 C261 1.404 . S
C260 C263 1.539 . S
C261 C257 1.408 . S
C261 C260 1.404 . S
C261 H273 0.930 . S
C262 C258 1.524 . S
C262 H274 0.956 . S
C262 H275 0.961 . S
C262 H276 0.961 . S
C263 C260 1.539 . S
C263 H277 0.958 . S
C263 H278 0.961 . S
C263 H279 0.960 . S
H264 C248 0.931 . S
H265 C253 0.929 . S
H266 C254 0.960 . S
H267 C254 0.962 . S
H268 C254 0.960 . S
H269 C255 0.961 . S
H270 C255 0.961 . S
H271 C255 0.961 . S
H272 C256 0.931 . S
H273 C261 0.930 . S
H274 C262 0.956 . S
H275 C262 0.961 . S
H276 C262 0.961 . S
H277 C263 0.958 . S
H278 C263 0.961 . S
H279 C263 0.960 . S
C280 C281 1.391 . S
C280 C282 1.394 . S
C280 H296 0.931 . S
C281 C280 1.391 . S
C281 C285 1.376 1_565 S
C282 C280 1.394 . S
C282 C283 1.369 . S
C282 C286 1.531 . S
C283 C282 1.369 . S
C283 C284 1.410 . S
C283 C291 1.503 . S
C284 C283 1.410 . S
C284 C285 1.392 1_565 S
C284 C287 1.511 1_565 S
C285 C281 1.376 1_545 S
C285 C284 1.392 1_545 S
C285 H297 0.929 . S
C286 C282 1.531 . S
C286 H298 0.960 . S
C286 H299 0.962 . S
C286 H300 0.960 . S
C287 C284 1.511 1_545 S
C287 H301 0.961 . S
C287 H302 0.961 . S
C287 H303 0.961 . S
C288 C289 1.370 . S
C288 C290 1.363 . S
C288 H304 0.931 1_565 S
C289 C288 1.370 . S
C289 C293 1.408 . S
C290 C288 1.363 . S
C290 C291 1.370 . S
C290 C294 1.524 1_565 S
C291 C283 1.503 . S
C291 C290 1.370 . S
C291 C292 1.403 . S
C292 C291 1.403 . S
C292 C293 1.404 . S
C292 C295 1.539 . S
C293 C289 1.408 . S
C293 C292 1.404 . S
C293 H305 0.930 . S
C294 C290 1.524 1_545 S
C294 H306 0.956 . S
C294 H307 0.961 . S
C294 H308 0.961 . S
C295 C292 1.539 . S
C295 H309 0.958 . S
C295 H310 0.961 . S
C295 H311 0.960 . S
H296 C280 0.931 . S
H297 C285 0.929 . S
H298 C286 0.960 . S
H299 C286 0.962 . S
H300 C286 0.960 . S
H301 C287 0.961 . S
H302 C287 0.961 . S
H303 C287 0.961 . S
H304 C288 0.931 1_545 S
H305 C293 0.930 . S
H306 C294 0.956 . S
H307 C294 0.961 . S
H308 C294 0.961 . S
H309 C295 0.958 . S
H310 C295 0.961 . S
H311 C295 0.960 . S
C312 C313 1.391 1_455 S
C312 C314 1.394 1_455 S
C312 H328 0.931 . S
C313 C312 1.391 1_655 S
C313 C317 1.376 . S
C314 C312 1.394 1_655 S
C314 C315 1.369 . S
C314 C318 1.531 1_655 S
C315 C314 1.369 . S
C315 C316 1.410 . S
C315 C323 1.503 1_556 S
C316 C315 1.410 . S
C316 C317 1.392 . S
C316 C319 1.511 . S
C317 C313 1.376 . S
C317 C316 1.392 . S
C317 H329 0.929 . S
C318 C314 1.531 1_455 S
C318 H330 0.943 1_556 S
C318 H331 0.966 . S
C318 H332 0.960 1_565 S
C319 C316 1.511 . S
C319 H333 0.961 . S
C319 H334 0.961 . S
C319 H335 0.961 . S
C320 C321 1.370 . S
C320 C322 1.363 . S
C320 H336 0.931 . S
C321 C320 1.370 . S
C321 C325 1.408 . S
C322 C320 1.363 . S
C322 C323 1.370 . S
C322 C326 1.524 . S
C323 C315 1.503 1_554 S
C323 C322 1.370 . S
C323 C324 1.403 . S
C324 C323 1.403 . S
C324 C325 1.404 . S
C324 C327 1.539 1_554 S
C325 C321 1.408 . S
C325 C324 1.404 . S
C325 H337 0.930 . S
C326 C322 1.524 . S
C326 H338 0.956 1_655 S
C326 H339 0.961 1_554 S
C326 H340 0.961 1_655 S
C327 C324 1.539 1_556 S
C327 H341 0.958 . S
C327 H342 0.961 . S
C327 H343 0.960 . S
H328 C312 0.931 . S
H329 C317 0.929 . S
H330 C318 0.943 1_554 S
H331 C318 0.966 . S
H332 C318 0.960 1_545 S
H333 C319 0.961 . S
H334 C319 0.961 . S
H335 C319 0.961 . S
H336 C320 0.931 . S
H337 C325 0.930 . S
H338 C326 0.956 1_455 S
H339 C326 0.961 1_556 S
H340 C326 0.961 1_455 S
H341 C327 0.958 . S
H342 C327 0.961 . S
H343 C327 0.960 . S
C344 C345 1.391 . S
C344 C346 1.394 . S
C344 H360 0.931 . S
C345 C344 1.391 . S
C345 C349 1.376 . S
C346 C344 1.394 . S
C346 C347 1.369 . S
C346 C350 1.531 . S
C347 C346 1.369 . S
C347 C348 1.410 . S
C347 C355 1.503 . S
C348 C347 1.410 . S
C348 C349 1.392 . S
C348 C351 1.511 . S
C349 C345 1.376 . S
C349 C348 1.392 . S
C349 H361 0.929 . S
C350 C346 1.531 . S
C350 H362 0.960 . S
C350 H363 0.962 . S
C350 H364 0.960 . S
C351 C348 1.511 . S
C351 H365 0.961 . S
C351 H366 0.961 . S
C351 H367 0.961 . S
C352 C353 1.370 . S
C352 C354 1.363 . S
C352 H368 0.931 . S
C353 C352 1.370 . S
C353 C357 1.408 . S
C354 C352 1.363 . S
C354 C355 1.370 . S
C354 C358 1.524 . S
C355 C347 1.503 . S
C355 C354 1.370 . S
C355 C356 1.403 . S
C356 C355 1.403 . S
C356 C357 1.404 . S
C356 C359 1.539 . S
C357 C353 1.408 . S
C357 C356 1.404 . S
C357 H369 0.930 . S
C358 C354 1.524 . S
C358 H370 0.956 . S
C358 H371 0.961 . S
C358 H372 0.961 . S
C359 C356 1.539 . S
C359 H373 0.958 . S
C359 H374 0.961 . S
C359 H375 0.960 . S
H360 C344 0.931 . S
H361 C349 0.929 . S
H362 C350 0.960 . S
H363 C350 0.962 . S
H364 C350 0.960 . S
H365 C351 0.961 . S
H366 C351 0.961 . S
H367 C351 0.961 . S
H368 C352 0.931 . S
H369 C357 0.930 . S
H370 C358 0.956 . S
H371 C358 0.961 . S
H372 C358 0.961 . S
H373 C359 0.958 . S
H374 C359 0.961 . S
H375 C359 0.960 . S
C376 C377 1.391 . S
C376 C378 1.394 . S
C376 H392 0.931 . S
C377 C376 1.391 . S
C377 C381 1.376 . S
C378 C376 1.394 . S
C378 C379 1.369 . S
C378 C382 1.531 . S
C379 C378 1.369 . S
C379 C380 1.410 . S
C379 C387 1.503 . S
C380 C379 1.410 . S
C380 C381 1.392 . S
C380 C383 1.511 1_455 S
C381 C377 1.376 . S
C381 C380 1.392 . S
C381 H393 0.929 . S
C382 C378 1.531 . S
C382 H394 0.960 . S
C382 H395 0.962 . S
C382 H396 0.960 . S
C383 C380 1.511 1_655 S
C383 H397 0.961 1_655 S
C383 H398 0.961 1_655 S
C383 H399 0.961 . S
C384 C385 1.370 . S
C384 C386 1.363 . S
C384 H400 0.931 . S
C385 C384 1.370 . S
C385 C389 1.408 1_455 S
C386 C384 1.363 . S
C386 C387 1.370 . S
C386 C390 1.524 . S
C387 C379 1.503 . S
C387 C386 1.370 . S
C387 C388 1.403 1_455 S
C388 C387 1.403 1_655 S
C388 C389 1.404 . S
C388 C391 1.539 . S
C389 C385 1.408 1_655 S
C389 C388 1.404 . S
C389 H401 0.930 . S
C390 C386 1.524 . S
C390 H402 0.956 . S
C390 H403 0.961 . S
C390 H404 0.961 . S
C391 C388 1.539 . S
C391 H405 0.958 . S
C391 H406 0.961 . S
C391 H407 0.960 . S
H392 C376 0.931 . S
H393 C381 0.929 . S
H394 C382 0.960 . S
H395 C382 0.962 . S
H396 C382 0.960 . S
H397 C383 0.961 1_455 S
H398 C383 0.961 1_455 S
H399 C383 0.961 . S
H400 C384 0.931 . S
H401 C389 0.930 . S
H402 C390 0.956 . S
H403 C390 0.961 . S
H404 C390 0.961 . S
H405 C391 0.958 . S
H406 C391 0.961 . S
H407 C391 0.960 . S
C121 C10 1.511 . S
C129 C19 1.565 1_655 S
C153 C59 1.632 1_545 S
C161 C50 1.637 1_455 S
C185 C90 1.308 . S
C193 C99 1.345 . S
C217 C87 0.951 . S
C225 C16 0.983 1_545 S
C249 C51 1.953 . S
C257 C7 1.921 . S
C281 C91 2.439 . S
C289 C42 2.459 . S
C313 C82 2.362 . S
C321 C11 2.325 . S
C345 C2 1.728 . S
C353 C56 1.644 . S
C377 C96 0.920 . S
C385 C47 0.977 1_455 S
