# Generated by pormake.
# Topology ukl, (4)-cn, num edge types: 1
# Building blocks:
#     Node 0, Type 0, BuildingBlock: MUDLON_clean_sbu_0, # of connection points: 4
#     Node 1, Type 0, BuildingBlock: MUDLON_clean_sbu_0, # of connection points: 4
#     Node 2, Type 0, BuildingBlock: MUDLON_clean_sbu_0, # of connection points: 4
#     Node 3, Type 0, BuildingBlock: MUDLON_clean_sbu_0, # of connection points: 4
#     Node 4, Type 0, BuildingBlock: MUDLON_clean_sbu_0, # of connection points: 4
#     Node 5, Type 0, BuildingBlock: MUDLON_clean_sbu_0, # of connection points: 4
#     Node 6, Type 0, BuildingBlock: MUDLON_clean_sbu_0, # of connection points: 4
#     Node 7, Type 0, BuildingBlock: MUDLON_clean_sbu_0, # of connection points: 4
#     Node 8, Type 0, BuildingBlock: MUDLON_clean_sbu_0, # of connection points: 4
#     Node 9, Type 0, BuildingBlock: MUDLON_clean_sbu_0, # of connection points: 4
#     Node 10, Type 0, BuildingBlock: MUDLON_clean_sbu_0, # of connection points: 4
#     Node 11, Type 0, BuildingBlock: MUDLON_clean_sbu_0, # of connection points: 4
#     Node 12, Type 0, BuildingBlock: MUDLON_clean_sbu_0, # of connection points: 4
#     Node 13, Type 0, BuildingBlock: MUDLON_clean_sbu_0, # of connection points: 4
#     Node 14, Type 0, BuildingBlock: MUDLON_clean_sbu_0, # of connection points: 4
#     Node 15, Type 0, BuildingBlock: MUDLON_clean_sbu_0, # of connection points: 4
#     Edge 16, Type (0, 0), BuildingBlock: UVAHIK_clean_linker_0, # of connection points: 2
#     Edge 17, Type (0, 0), BuildingBlock: UVAHIK_clean_linker_0, # of connection points: 2
#     Edge 18, Type (0, 0), BuildingBlock: UVAHIK_clean_linker_0, # of connection points: 2
#     Edge 19, Type (0, 0), BuildingBlock: UVAHIK_clean_linker_0, # of connection points: 2
#     Edge 20, Type (0, 0), BuildingBlock: UVAHIK_clean_linker_0, # of connection points: 2
#     Edge 21, Type (0, 0), BuildingBlock: UVAHIK_clean_linker_0, # of connection points: 2
#     Edge 22, Type (0, 0), BuildingBlock: UVAHIK_clean_linker_0, # of connection points: 2
#     Edge 23, Type (0, 0), BuildingBlock: UVAHIK_clean_linker_0, # of connection points: 2
#     Edge 24, Type (0, 0), BuildingBlock: UVAHIK_clean_linker_0, # of connection points: 2
#     Edge 25, Type (0, 0), BuildingBlock: UVAHIK_clean_linker_0, # of connection points: 2
#     Edge 26, Type (0, 0), BuildingBlock: UVAHIK_clean_linker_0, # of connection points: 2
#     Edge 27, Type (0, 0), BuildingBlock: UVAHIK_clean_linker_0, # of connection points: 2
#     Edge 28, Type (0, 0), BuildingBlock: UVAHIK_clean_linker_0, # of connection points: 2
#     Edge 29, Type (0, 0), BuildingBlock: UVAHIK_clean_linker_0, # of connection points: 2
#     Edge 30, Type (0, 0), BuildingBlock: UVAHIK_clean_linker_0, # of connection points: 2
#     Edge 31, Type (0, 0), BuildingBlock: UVAHIK_clean_linker_0, # of connection points: 2
#     Edge 32, Type (0, 0), BuildingBlock: UVAHIK_clean_linker_0, # of connection points: 2
#     Edge 33, Type (0, 0), BuildingBlock: UVAHIK_clean_linker_0, # of connection points: 2
#     Edge 34, Type (0, 0), BuildingBlock: UVAHIK_clean_linker_0, # of connection points: 2
#     Edge 35, Type (0, 0), BuildingBlock: UVAHIK_clean_linker_0, # of connection points: 2
#     Edge 36, Type (0, 0), BuildingBlock: UVAHIK_clean_linker_0, # of connection points: 2
#     Edge 37, Type (0, 0), BuildingBlock: UVAHIK_clean_linker_0, # of connection points: 2
#     Edge 38, Type (0, 0), BuildingBlock: UVAHIK_clean_linker_0, # of connection points: 2
#     Edge 39, Type (0, 0), BuildingBlock: UVAHIK_clean_linker_0, # of connection points: 2
#     Edge 40, Type (0, 0), BuildingBlock: UVAHIK_clean_linker_0, # of connection points: 2
#     Edge 41, Type (0, 0), BuildingBlock: UVAHIK_clean_linker_0, # of connection points: 2
#     Edge 42, Type (0, 0), BuildingBlock: UVAHIK_clean_linker_0, # of connection points: 2
#     Edge 43, Type (0, 0), BuildingBlock: UVAHIK_clean_linker_0, # of connection points: 2
#     Edge 44, Type (0, 0), BuildingBlock: UVAHIK_clean_linker_0, # of connection points: 2
#     Edge 45, Type (0, 0), BuildingBlock: UVAHIK_clean_linker_0, # of connection points: 2
#     Edge 46, Type (0, 0), BuildingBlock: UVAHIK_clean_linker_0, # of connection points: 2
#     Edge 47, Type (0, 0), BuildingBlock: UVAHIK_clean_linker_0, # of connection points: 2
# Relax obj value: 0.113
# Max RMSD: 0.134
# Mean RMSD: 0.134
data_MOF--net-ukl--node1-MUDLON_clean_sbu_0--edge1-UVAHIK_clean_linker_0
_symmetry_space_group_name_H-M    P1
_symmetry_Int_Tables_number       1
_symmetry_cell_setting            triclinic
loop_
_symmetry_equiv_pos_as_xyz
'x, y, z'
_cell_length_a     42.198083
_cell_length_b     42.482614
_cell_length_c     10.861822
_cell_angle_alpha  89.829149
_cell_angle_beta   89.981052
_cell_angle_gamma 90.583114
loop_
_atom_site_label
_atom_site_type_symbol
_atom_site_fract_x
_atom_site_fract_y
_atom_site_fract_z
_atom_type_partial_charge
Mg0 Mg 0.31911 0.17312 0.11679 0.0
C1 C 0.34352 0.1864 0.38019 0.0
O2 O 0.34027 0.1882 0.5001 0.0
C3 C 0.2713 0.12597 -0.00635 0.0
O4 O 0.29579 0.11666 0.9291 0.0
C5 C 0.36992 0.12497 0.13754 0.0
O6 O 0.35606 0.12236 0.24519 0.0
O7 O 0.35963 0.14494 0.05991 0.0
O8 O 0.32002 0.17763 0.31524 0.0
O9 O 0.31696 0.22258 0.06064 0.0
C10 C 0.2958 0.23719 0.12095 0.0
O11 O 0.27796 0.22106 0.19825 0.0
O12 O 0.27482 0.14828 0.07102 0.0
Mg13 Mg 0.5967 0.57322 0.43764 0.0
C14 C 0.52427 0.56682 0.38213 0.0
O15 O 0.53684 0.5665 0.272 0.0
C16 C 0.64307 0.62728 0.38928 0.0
O17 O 0.64682 0.60823 0.2958 0.0
C18 C 0.64623 0.48966 0.63575 0.0
O19 O 0.63603 0.49805 0.7451 0.0
O20 O 0.63864 0.5057 0.54009 0.0
O21 O 0.54273 0.56877 0.47581 0.0
O22 O 0.59454 0.58199 0.23403 0.0
C23 C 0.58655 0.607 0.17477 0.0
O24 O 0.58875 0.60671 0.05414 0.0
O25 O 0.62313 0.6195 0.47372 0.0
Mg26 Mg 0.1997 0.84905 0.64667 0.0
C27 C 0.14979 0.86044 0.8591 0.0
O28 O 0.14462 0.87073 0.97117 0.0
C29 C 0.2521 0.90146 0.69465 0.0
O30 O 0.24934 0.87292 0.65147 0.0
C31 C 0.16408 0.9031 0.55678 0.0
O32 O 0.18441 0.91542 0.6349 0.0
O33 O 0.16628 0.87402 0.53036 0.0
O34 O 0.17853 0.85728 0.82496 0.0
O35 O 0.20974 0.79945 0.60284 0.0
C36 C 0.19909 0.77514 0.65875 0.0
O37 O 0.17879 0.77836 0.74935 0.0
O38 O 0.248 0.8735 0.65321 0.0
Mg39 Mg 0.92185 0.44207 0.97598 0.0
C40 C 0.99329 0.44598 0.92038 0.0
O41 O 0.98116 0.44874 0.81012 0.0
C42 C 0.87827 0.3866 0.92581 0.0
O43 O 0.87177 0.40657 0.83728 0.0
C44 C 0.85836 0.51434 0.17674 0.0
O45 O 0.8435 0.49203 0.23858 0.0
O46 O 0.88112 0.50746 0.1028 0.0
O47 O 0.97473 0.44311 0.01297 0.0
O48 O 0.92118 0.44083 0.77025 0.0
C49 C 0.92671 0.41909 0.69169 0.0
O50 O 0.92258 0.42574 0.57461 0.0
O51 O 0.89876 0.39462 0.00706 0.0
Mg52 Mg 0.67971 0.87202 0.86261 0.0
C53 C 0.72563 0.82096 0.93284 0.0
O54 O 0.74404 0.8409 0.87313 0.0
C55 C 0.61605 0.90414 0.85126 0.0
O56 O 0.61902 0.89644 0.7349 0.0
C57 C 0.73658 0.91385 0.94708 0.0
O58 O 0.73867 0.89439 0.04087 0.0
O59 O 0.71541 0.90938 0.86598 0.0
O60 O 0.6966 0.82809 0.9488 0.0
O61 O 0.67546 0.86337 0.66731 0.0
C62 C 0.66378 0.8417 0.60044 0.0
O63 O 0.66599 0.84482 0.48031 0.0
O64 O 0.63688 0.89526 0.92858 0.0
Mg65 Mg 0.4058 0.42956 0.60013 0.0
C66 C 0.46813 0.45237 0.51882 0.0
O67 O 0.45053 0.45146 0.41954 0.0
C68 C 0.35816 0.38419 0.657 0.0
O69 O 0.34908 0.40081 0.56206 0.0
C70 C 0.34851 0.47478 0.65359 0.0
O71 O 0.33517 0.45042 0.70793 0.0
O72 O 0.37644 0.47248 0.60922 0.0
O73 O 0.45592 0.44305 0.62013 0.0
O74 O 0.40073 0.41212 0.41351 0.0
C75 C 0.40793 0.38504 0.37347 0.0
O76 O 0.40023 0.3775 0.26013 0.0
O77 O 0.38471 0.39082 0.70673 0.0
Mg78 Mg 0.83841 0.14388 0.35946 0.0
C79 C 0.81981 0.21169 0.35636 0.0
O80 O 0.81448 0.20367 0.24152 0.0
C81 C 0.88696 0.09373 0.35789 0.0
O82 O 0.86626 0.08356 0.2768 0.0
C83 C 0.792 0.08825 0.43867 0.0
O84 O 0.81745 0.07079 0.44388 0.0
O85 O 0.79511 0.11778 0.41926 0.0
O86 O 0.8321 0.19162 0.42887 0.0
O87 O 0.83562 0.1443 0.1575 0.0
C88 C 0.84603 0.15454 0.05498 0.0
O89 O 0.83152 0.14521 0.95423 0.0
O90 O 0.88206 0.11982 0.4117 0.0
Mg91 Mg 0.11726 0.58875 0.10749 0.0
C92 C 0.05153 0.56524 0.02534 0.0
O93 O 0.06456 0.57192 0.91855 0.0
C94 C 0.16429 0.63623 0.1704 0.0
O95 O 0.17786 0.61548 0.09889 0.0
C96 C 0.14684 0.52495 0.19448 0.0
O97 O 0.1188 0.51902 0.24231 0.0
O98 O 0.15182 0.55123 0.14117 0.0
O99 O 0.06735 0.57106 0.12344 0.0
O100 O 0.12642 0.59838 0.91523 0.0
C101 C 0.1233 0.62255 0.84728 0.0
O102 O 0.13389 0.62111 0.73364 0.0
O103 O 0.13535 0.63147 0.20017 0.0
Mg104 Mg 0.82683 0.66018 0.6339 0.0
C105 C 0.86852 0.66581 0.86618 0.0
O106 O 0.87333 0.66418 0.98515 0.0
C107 C 0.77268 0.61941 0.52282 0.0
O108 O 0.79204 0.6177 0.42847 0.0
C109 C 0.86433 0.60579 0.54624 0.0
O110 O 0.83923 0.59161 0.59259 0.0
O111 O 0.86529 0.63573 0.54304 0.0
O112 O 0.84087 0.65994 0.82471 0.0
O113 O 0.82062 0.70971 0.59212 0.0
C114 C 0.80006 0.72313 0.65906 0.0
O115 O 0.78375 0.70611 0.73847 0.0
O116 O 0.78103 0.63533 0.61685 0.0
Mg117 Mg 0.0975 0.07478 0.92318 0.0
C118 C 0.02714 0.06547 0.88106 0.0
O119 O 0.04029 0.05073 0.7888 0.0
C120 C 0.13782 0.13209 0.86035 0.0
O121 O 0.14002 0.11459 0.76155 0.0
C122 C 0.14291 0.98721 0.10965 0.0
O123 O 0.12502 0.98944 0.20826 0.0
O124 O 0.13996 0.00719 0.02151 0.0
O125 O 0.04498 0.0763 0.96674 0.0
O126 O 0.09212 0.07784 0.7187 0.0
C127 C 0.07716 0.09626 0.64588 0.0
O128 O 0.07871 0.09032 0.52737 0.0
O129 O 0.12302 0.12113 0.95409 0.0
Mg130 Mg 0.69913 0.33871 0.16205 0.0
C131 C 0.66407 0.33633 0.41929 0.0
O132 O 0.66291 0.34385 0.53628 0.0
C133 C 0.75054 0.38581 0.07307 0.0
O134 O 0.72579 0.39767 0.01732 0.0
C135 C 0.65867 0.39263 0.12105 0.0
O136 O 0.67562 0.39955 0.21876 0.0
O137 O 0.66382 0.3668 0.06582 0.0
O138 O 0.68757 0.34596 0.35532 0.0
O139 O 0.69596 0.28738 0.12836 0.0
C140 C 0.70114 0.26928 0.21995 0.0
O141 O 0.70873 0.28218 0.32581 0.0
O142 O 0.74694 0.36045 0.13535 0.0
Mg143 Mg 0.40846 0.95857 0.36531 0.0
C144 C 0.47608 0.95994 0.28102 0.0
O145 O 0.47094 0.92953 0.29225 0.0
C146 C 0.34912 0.92263 0.31348 0.0
O147 O 0.34032 0.94408 0.39299 0.0
C148 C 0.38485 0.02574 0.42692 0.0
O149 O 0.41374 0.03471 0.39714 0.0
O150 O 0.37767 0.99657 0.42646 0.0
O151 O 0.45246 0.97834 0.28761 0.0
O152 O 0.43058 0.9296 0.50589 0.0
C153 C 0.42029 0.90201 0.52914 0.0
O154 O 0.39211 0.89368 0.4895 0.0
O155 O 0.37733 0.92425 0.27063 0.0
Mg156 Mg 0.17586 0.35901 0.29344 0.0
C157 C 0.18252 0.28783 0.34221 0.0
O158 O 0.15968 0.28582 0.2604 0.0
C159 C 0.13554 0.40537 0.42799 0.0
O160 O 0.16396 0.41649 0.45284 0.0
C161 C 0.24012 0.38873 0.37276 0.0
O162 O 0.24577 0.3601 0.41259 0.0
O163 O 0.21376 0.39436 0.32074 0.0
O164 O 0.19237 0.3149 0.37541 0.0
O165 O 0.17052 0.35504 0.09324 0.0
C166 C 0.15542 0.34254 0.00369 0.0
O167 O 0.16409 0.35018 0.89119 0.0
O168 O 0.13295 0.37964 0.36876 0.0
Mg169 Mg 0.90205 0.93195 0.07155 0.0
C170 C 0.96901 0.95154 -0.00812 0.0
O171 O 0.95833 0.94079 0.88646 0.0
C172 C 0.86219 0.87689 0.13081 0.0
O173 O 0.8522 0.88635 0.02305 0.0
C174 C 0.84101 0.96963 0.14525 0.0
O175 O 0.82954 0.94223 0.18043 0.0
O176 O 0.86927 0.97141 0.10301 0.0
O177 O 0.95125 0.9499 0.08722 0.0
O178 O 0.8961 0.91933 0.87965 0.0
C179 C 0.89987 0.89389 0.82033 0.0
O180 O 0.89137 0.89331 0.70396 0.0
O181 O 0.88528 0.89146 0.18129 0.0
Mg182 Mg 0.34398 0.64 0.86737 0.0
C183 C 0.30489 0.69607 0.89239 0.0
O184 O 0.28703 0.67535 0.83458 0.0
C185 C 0.39429 0.59346 0.87804 0.0
O186 O 0.37628 0.58513 0.78537 0.0
C187 C 0.30199 0.58068 0.92843 0.0
O188 O 0.32889 0.56576 0.94 0.0
O189 O 0.30221 0.61017 0.9065 0.0
O190 O 0.33273 0.68801 0.92423 0.0
O191 O 0.34524 0.64114 0.66734 0.0
C192 C 0.36327 0.65563 0.59178 0.0
O193 O 0.35678 0.65408 0.47372 0.0
O194 O 0.38748 0.61838 0.93665 0.0
Mg195 Mg 0.62408 0.07686 0.65589 0.0
C196 C 0.56448 0.04122 0.64684 0.0
O197 O 0.58449 0.02539 0.57879 0.0
C198 C 0.67068 0.12992 0.68505 0.0
O199 O 0.67063 0.12619 0.56534 0.0
C200 C 0.67978 0.03236 0.67776 0.0
O201 O 0.69567 0.0591 0.68027 0.0
O202 O 0.6497 0.03291 0.67204 0.0
O203 O 0.57443 0.06617 0.70015 0.0
O204 O 0.62428 0.08756 0.46148 0.0
C205 C 0.60563 0.10487 0.39998 0.0
O206 O 0.60961 0.10713 0.28036 0.0
O207 O 0.65196 0.11331 0.75148 0.0
C208 C 0.56017 0.92259 0.83839 0.0
C209 C 0.59075 0.92595 0.88749 0.0
C210 C 0.53662 0.94436 0.86667 0.0
C211 C 0.52539 0.02593 0.99132 0.0
H212 H 0.43822 0.99717 0.02184 0.0
C213 C 0.42135 0.09983 0.1908 0.0
C214 C 0.39626 0.10388 0.10733 0.0
C215 C 0.4457 0.0787 0.16505 0.0
C216 C 0.46248 0.00549 0.01344 0.0
H217 H 0.62134 0.95551 -0.00125 0.0
H218 H 0.58101 0.99448 0.04194 0.0
H219 H 0.47972 0.95935 0.97755 0.0
H220 H 0.37588 0.08807 0.93533 0.0
H221 H 0.41712 0.04931 0.89532 0.0
H222 H 0.50792 0.07191 0.03463 0.0
C223 C 0.57448 0.97441 0.98647 0.0
C224 C 0.4863 0.98392 0.98619 0.0
C225 C 0.59767 0.95196 0.96228 0.0
C226 C 0.39537 0.08584 -0.00042 0.0
C227 C 0.41894 0.06369 0.97674 0.0
C228 C 0.50164 0.04735 0.02186 0.0
C229 C 0.54336 0.97066 0.94144 0.0
C230 C 0.51809 0.99382 0.97283 0.0
C231 C 0.44457 0.06025 0.05811 0.0
C232 C 0.46993 0.03736 0.03159 0.0
H233 H 0.55444 0.903 0.77845 0.0
H234 H 0.51332 0.9408 0.8274 0.0
H235 H 0.54935 0.0348 0.98022 0.0
H236 H 0.42219 0.11309 0.2757 0.0
H237 H 0.46499 0.07619 0.23002 0.0
C238 C 0.81267 0.86103 0.23618 0.0
C239 C 0.84307 0.85305 0.19603 0.0
C240 C 0.7912 0.83777 0.27425 0.0
C241 C 0.78606 0.75102 0.35157 0.0
H242 H 0.69592 0.76609 0.32516 0.0
C243 C 0.6948 0.65152 0.33563 0.0
C244 C 0.66583 0.65396 0.39902 0.0
C245 C 0.71618 0.67652 0.33118 0.0
C246 C 0.72102 0.76178 0.33565 0.0
H247 H 0.87469 0.81462 0.1588 0.0
H248 H 0.83753 0.77373 0.22424 0.0
H249 H 0.73326 0.80743 0.26849 0.0
H250 H 0.6369 0.6847 0.50981 0.0
H251 H 0.6749 0.72936 0.50088 0.0
H252 H 0.77342 0.70444 0.40985 0.0
C253 C 0.83021 0.79794 0.23233 0.0
C254 C 0.74273 0.78561 0.30323 0.0
C255 C 0.85179 0.82137 0.19471 0.0
C256 C 0.65907 0.68211 0.46076 0.0
C257 C 0.68059 0.70767 0.45453 0.0
C258 C 0.76443 0.72709 0.38098 0.0
C259 C 0.79936 0.80569 0.2726 0.0
C260 C 0.77577 0.7806 0.3099 0.0
C261 C 0.70922 0.70512 0.38838 0.0
C262 C 0.73168 0.73205 0.37261 0.0
H263 H 0.80502 0.88528 0.23395 0.0
H264 H 0.76803 0.84528 0.30261 0.0
H265 H 0.81096 0.74607 0.36309 0.0
H266 H 0.70103 0.63016 0.28749 0.0
H267 H 0.73785 0.67368 0.2792 0.0
C268 C 0.13837 0.95471 0.51782 0.0
C269 C 0.13627 0.92172 0.51978 0.0
C270 C 0.11147 0.97287 0.49734 0.0
C271 C 0.02592 0.9673 0.40185 0.0
H272 H 0.02367 0.0496 0.55296 0.0
C273 C 0.91194 0.0415 0.39004 0.0
C274 C 0.91494 0.07441 0.38607 0.0
C275 C 0.93837 0.02269 0.41137 0.0
C276 C 0.02371 0.02677 0.50971 0.0
H277 H 0.1043 0.88178 0.50345 0.0
H278 H 0.05701 0.91324 0.47422 0.0
H279 H 0.06978 0.01726 0.57974 0.0
H280 H 0.94786 0.11359 0.39874 0.0
H281 H 0.9945 0.08094 0.42763 0.0
H282 H 0.9791 0.97608 0.33816 0.0
C283 C 0.07957 0.92537 0.4828 0.0
C284 C 0.05056 0.00811 0.52409 0.0
C285 C 0.10672 0.90718 0.49987 0.0
C286 C 0.94491 0.08825 0.40301 0.0
C287 C 0.97161 0.06939 0.42028 0.0
C288 C 0.99869 0.9856 0.39083 0.0
C289 C 0.08145 0.95857 0.48229 0.0
C290 C 0.05234 0.97821 0.46894 0.0
C291 C 0.96878 0.03624 0.42508 0.0
C292 C 0.99732 0.01594 0.44249 0.0
H293 H 0.16091 0.96655 0.53254 0.0
H294 H 0.11439 0.99819 0.49386 0.0
H295 H 0.02626 0.94478 0.35562 0.0
H296 H 0.88898 0.03027 0.37785 0.0
H297 H 0.93473 0.99749 0.41755 0.0
C298 C 0.7187 0.14537 0.80569 0.0
C299 C 0.69175 0.15398 0.73842 0.0
C300 C 0.74016 0.16847 0.84705 0.0
C301 C 0.74417 0.25444 0.91042 0.0
H302 H 0.83508 0.24411 0.89293 0.0
C303 C 0.82894 0.35762 0.87371 0.0
C304 C 0.85805 0.35806 0.93658 0.0
C305 C 0.80918 0.33136 0.87789 0.0
C306 C 0.80977 0.24679 0.90246 0.0
H307 H 0.6668 0.19268 0.65452 0.0
H308 H 0.70365 0.23309 0.72769 0.0
H309 H 0.7999 0.2 0.83846 0.0
H310 H 0.88926 0.3311 0.0538 0.0
H311 H 0.85454 0.28391 0.058 0.0
H312 H 0.75392 0.30138 0.97097 0.0
C313 C 0.70805 0.20879 0.75204 0.0
C314 C 0.78957 0.22173 0.87023 0.0
C315 C 0.68692 0.18572 0.70992 0.0
C316 C 0.86691 0.3314 0.00486 0.0
C317 C 0.84713 0.30452 0.00705 0.0
C318 C 0.76426 0.27918 0.94414 0.0
C319 C 0.73475 0.20056 0.82252 0.0
C320 C 0.75648 0.22561 0.87014 0.0
C321 C 0.81802 0.30438 0.94339 0.0
C322 C 0.79729 0.27602 0.93623 0.0
H323 H 0.72335 0.12081 0.82479 0.0
H324 H 0.76048 0.16125 0.9006 0.0
H325 H 0.71889 0.25831 0.91282 0.0
H326 H 0.82112 0.37777 0.82089 0.0
H327 H 0.78722 0.33194 0.8265 0.0
C328 C 0.1575 0.17855 0.74449 0.0
C329 C 0.15357 0.16329 0.85855 0.0
C330 C 0.17682 0.20516 0.73392 0.0
C331 C 0.24928 0.23583 0.84883 0.0
H332 H 0.22614 0.31311 0.68381 0.0
C333 C 0.30426 0.36732 0.71534 0.0
C334 C 0.33633 0.35979 0.70349 0.0
C335 C 0.28158 0.34389 0.73582 0.0
C336 C 0.2333 0.29214 0.73259 0.0
H337 H 0.16436 0.16573 0.0533 0.0
H338 H 0.20043 0.21138 0.03295 0.0
H339 H 0.18572 0.27406 0.73028 0.0
H340 H 0.37011 0.32194 0.70092 0.0
H341 H 0.3306 0.28047 0.73352 0.0
H342 H 0.29692 0.25256 0.84595 0.0
C343 C 0.18818 0.20257 0.95224 0.0
C344 C 0.20988 0.26965 0.7586 0.0
C345 C 0.16769 0.17648 0.96378 0.0
C346 C 0.34554 0.32833 0.71368 0.0
C347 C 0.32265 0.30457 0.73189 0.0
C348 C 0.27287 0.25806 0.8207 0.0
C349 C 0.19336 0.21659 0.83637 0.0
C350 C 0.2176 0.24151 0.81842 0.0
C351 C 0.29014 0.31196 0.74299 0.0
C352 C 0.26527 0.28701 0.76481 0.0
H353 H 0.14638 0.16931 0.66207 0.0
H354 H 0.18013 0.21585 0.64423 0.0
H355 H 0.25593 0.2138 0.89179 0.0
H356 H 0.29657 0.39148 0.70607 0.0
H357 H 0.25732 0.35124 0.74592 0.0
C358 C 0.29898 0.89234 0.35552 0.0
C359 C 0.32888 0.89394 0.29825 0.0
C360 C 0.28132 0.86429 0.35756 0.0
C361 C 0.28903 0.77698 0.29623 0.0
H362 H 0.19744 0.77977 0.31185 0.0
C363 C 0.21343 0.66941 0.15974 0.0
C364 C 0.18272 0.66478 0.20742 0.0
C365 C 0.23115 0.69634 0.18799 0.0
C366 C 0.223 0.7782 0.30979 0.0
H367 H 0.36308 0.8672 0.19454 0.0
H368 H 0.33222 0.81862 0.19486 0.0
H369 H 0.22772 0.82787 0.32754 0.0
H370 H 0.14686 0.68495 0.32497 0.0
H371 H 0.17795 0.73202 0.37634 0.0
H372 H 0.28409 0.72711 0.27989 0.0
C373 C 0.32239 0.83876 0.24108 0.0
C374 C 0.24071 0.8062 0.31875 0.0
C375 C 0.34014 0.86691 0.23925 0.0
C376 C 0.17036 0.6878 0.28618 0.0
C377 C 0.18826 0.71492 0.31502 0.0
C378 C 0.27134 0.74898 0.28821 0.0
C379 C 0.29281 0.83674 0.30204 0.0
C380 C 0.27402 0.80633 0.30665 0.0
C381 C 0.21897 0.7197 0.26583 0.0
C382 C 0.23793 0.7492 0.29012 0.0
H383 H 0.28946 0.91261 0.40257 0.0
H384 H 0.25901 0.86431 0.40619 0.0
H385 H 0.31458 0.77537 0.29361 0.0
H386 H 0.22384 0.65239 0.09809 0.0
H387 H 0.25418 0.69903 0.14534 0.0
C388 C 0.88965 0.55557 0.48305 0.0
C389 C 0.89279 0.58711 0.51952 0.0
C390 C 0.91624 0.53635 0.47493 0.0
C391 C 1.00475 0.53822 0.47314 0.0
H392 H 0.99383 0.4502 0.55996 0.0
C393 C 0.11113 0.45475 0.5076 0.0
C394 C 0.10737 0.4247 0.45518 0.0
C395 C 0.08508 0.47432 0.52381 0.0
C396 C 0.99722 0.47466 0.53448 0.0
H397 H 0.92616 0.62354 0.57375 0.0
H398 H 0.97241 0.58982 0.56552 0.0
H399 H 0.94872 0.48539 0.56998 0.0
H400 H 0.07312 0.39148 0.38059 0.0
H401 H 0.02763 0.42575 0.40808 0.0
H402 H 0.05331 0.52751 0.43797 0.0
C403 C 0.94966 0.57995 0.53928 0.0
C404 C 0.97129 0.49485 0.53944 0.0
C405 C 0.92312 0.59937 0.54427 0.0
C406 C 0.07681 0.41441 0.42189 0.0
C407 C 0.05071 0.43402 0.43813 0.0
C408 C 0.03068 0.51806 0.46839 0.0
C409 C 0.94653 0.548 0.50645 0.0
C410 C 0.97455 0.52681 0.50665 0.0
C411 C 0.0546 0.46437 0.48786 0.0
C412 C 0.0272 0.48598 0.49801 0.0
H413 H 0.86651 0.54561 0.46254 0.0
H414 H 0.91292 0.51223 0.44519 0.0
H415 H 1.00829 0.56256 0.44642 0.0
H416 H 0.13431 0.46343 0.53475 0.0
H417 H 0.08885 0.49729 0.56461 0.0
C418 C 0.41969 0.54123 0.89183 0.0
C419 C 0.42186 0.57393 0.90877 0.0
C420 C 0.44583 0.52217 0.91302 0.0
C421 C 0.5325 0.52207 0.92291 0.0
H422 H 0.52042 0.44554 0.11396 0.0
C423 C 0.62164 0.41683 0.96644 0.0
C424 C 0.63172 0.41285 0.0887 0.0
C425 C 0.59669 0.43735 0.93933 0.0
C426 C 0.524 0.46675 0.0598 0.0
H427 H 0.45312 0.6126 0.95803 0.0
H428 H 0.49951 0.57907 -0.00728 0.0
H429 H 0.47577 0.48084 0.08111 0.0
H430 H 0.62299 0.42588 0.27858 0.0
H431 H 0.57836 0.45958 0.23171 0.0
H432 H 0.58098 0.50783 0.90338 0.0
C433 C 0.47732 0.56827 0.96457 0.0
C434 C 0.49853 0.48689 0.04083 0.0
C435 C 0.45081 0.58737 0.94608 0.0
C436 C 0.61595 0.42879 0.18329 0.0
C437 C 0.59045 0.44817 0.15674 0.0
C438 C 0.55798 0.50171 0.94131 0.0
C439 C 0.47494 0.53543 0.94941 0.0
C440 C 0.50246 0.51474 0.97203 0.0
C441 C 0.58085 0.453 0.03481 0.0
C442 C 0.55383 0.47387 0.00953 0.0
H443 H 0.39766 0.53032 0.86221 0.0
H444 H 0.44339 0.49703 0.89883 0.0
H445 H 0.53614 0.54325 0.86877 0.0
H446 H 0.6334 0.40464 0.89215 0.0
H447 H 0.58944 0.44061 0.84449 0.0
C448 C 0.20264 0.50626 0.15796 0.0
C449 C 0.1705 0.49945 0.18234 0.0
C450 C 0.22354 0.48229 0.12314 0.0
C451 C 0.21845 0.40106 0.99015 0.0
H452 H 0.30479 0.39159 0.10314 0.0
C453 C 0.25874 0.28212 0.12557 0.0
C454 C 0.28928 0.27106 0.10108 0.0
C455 C 0.25107 0.31337 0.10295 0.0
C456 C 0.28074 0.39401 0.07014 0.0
H457 H 0.13604 0.46167 0.20274 0.0
H458 H 0.17196 0.42025 0.14389 0.0
H459 H 0.27849 0.44278 0.11962 0.0
H460 H 0.3363 0.28453 0.03863 0.0
H461 H 0.32285 0.34017 0.00121 0.0
H462 H 0.2216 0.35303 0.93207 0.0
C463 C 0.18111 0.44413 0.14642 0.0
C464 C 0.26545 0.42318 0.08166 0.0
C465 C 0.16044 0.46791 0.18228 0.0
C466 C 0.31246 0.29242 0.05735 0.0
C467 C 0.30483 0.3242 0.03639 0.0
C468 C 0.23385 0.37242 0.97584 0.0
C469 C 0.21254 0.45111 0.10982 0.0
C470 C 0.23276 0.42556 0.05707 0.0
C471 C 0.27371 0.33473 0.05567 0.0
C472 C 0.26366 0.36758 0.02864 0.0
H473 H 0.21133 0.53031 0.16086 0.0
H474 H 0.24777 0.48852 0.10061 0.0
H475 H 0.19446 0.40327 0.95643 0.0
H476 H 0.24033 0.26638 0.15941 0.0
H477 H 0.22713 0.32081 0.12267 0.0
C478 C 0.29736 0.40307 0.36028 0.0
C479 C 0.26593 0.41276 0.37116 0.0
C480 C 0.32163 0.4249 0.33773 0.0
C481 C 0.34082 0.51267 0.34336 0.0
H482 H 0.42247 0.4803 0.24704 0.0
C483 C 0.47082 0.57038 0.28801 0.0
C484 C 0.48947 0.56149 0.38971 0.0
C485 C 0.44022 0.55821 0.27191 0.0
C486 C 0.39986 0.48932 0.27722 0.0
H487 H 0.23548 0.4534 0.37644 0.0
H488 H 0.27775 0.49179 0.3416 0.0
H489 H 0.37562 0.44727 0.22682 0.0
H490 H 0.48915 0.53577 0.56194 0.0
H491 H 0.43499 0.51454 0.53435 0.0
H492 H 0.36599 0.55587 0.38383 0.0
C493 C 0.28416 0.46729 0.3476 0.0
C494 C 0.37275 0.4703 0.26688 0.0
C495 C 0.25958 0.44518 0.36758 0.0
C496 C 0.47551 0.54285 0.48229 0.0
C497 C 0.44471 0.53052 0.46588 0.0
C498 C 0.36809 0.53182 0.35244 0.0
C499 C 0.31583 0.45753 0.33015 0.0
C500 C 0.34304 0.48058 0.31066 0.0
C501 C 0.42746 0.53711 0.3579 0.0
C502 C 0.39801 0.51936 0.32873 0.0
H503 H 0.30314 0.37828 0.36244 0.0
H504 H 0.34503 0.41552 0.32713 0.0
H505 H 0.31854 0.52288 0.36943 0.0
H506 H 0.48068 0.58545 0.21687 0.0
H507 H 0.42718 0.56393 0.18911 0.0
C508 C 0.19116 0.71694 0.63842 0.0
C509 C 0.21107 0.74344 0.62818 0.0
C510 C 0.20271 0.68672 0.61553 0.0
C511 C 0.27475 0.64375 0.49739 0.0
H512 H 0.23812 0.57507 0.68548 0.0
C513 C 0.34549 0.53326 0.62666 0.0
C514 C 0.33009 0.50397 0.63526 0.0
C515 C 0.32833 0.56056 0.60102 0.0
C516 C 0.24878 0.59401 0.63326 0.0
H517 H 0.25886 0.7592 0.58768 0.0
H518 H 0.27969 0.70668 0.5552 0.0
H519 H 0.21438 0.6266 0.69619 0.0
H520 H 0.28448 0.48025 0.62413 0.0
H521 H 0.25444 0.52803 0.58075 0.0
H522 H 0.31023 0.61089 0.44124 0.0
C523 C 0.25469 0.70889 0.57499 0.0
C524 C 0.23482 0.62374 0.6373 0.0
C525 C 0.24285 0.73917 0.59462 0.0
C526 C 0.29703 0.50259 0.61911 0.0
C527 C 0.27983 0.52997 0.59362 0.0
C528 C 0.28922 0.61416 0.49676 0.0
C529 C 0.23486 0.68203 0.58556 0.0
C530 C 0.24801 0.64943 0.57177 0.0
C531 C 0.29526 0.55943 0.58532 0.0
C532 C 0.27712 0.58923 0.5687 0.0
H533 H 0.16647 0.7197 0.66276 0.0
H534 H 0.18623 0.6671 0.62148 0.0
H535 H 0.28498 0.66224 0.44084 0.0
H536 H 0.37099 0.53494 0.63691 0.0
H537 H 0.34106 0.58267 0.59365 0.0
C538 C 0.04161 0.46954 0.01762 0.0
C539 C 0.02796 0.449 0.93157 0.0
C540 C 0.07301 0.47984 0.00237 0.0
C541 C 0.15041 0.46505 0.87401 0.0
H542 H 0.15518 0.55473 0.81708 0.0
C543 C 0.24274 0.57766 0.93909 0.0
C544 C 0.27179 0.56265 0.92172 0.0
C545 C 0.21422 0.56156 0.91748 0.0
C546 C 0.15454 0.52996 0.8386 0.0
H547 H 0.03707 0.42025 0.77103 0.0
H548 H 0.09281 0.43599 0.75216 0.0
H549 H 0.10381 0.52934 0.84612 0.0
H550 H 0.29374 0.5185 0.87456 0.0
H551 H 0.2446 0.49114 0.82768 0.0
H552 H 0.20079 0.46523 0.86738 0.0
C553 C 0.07884 0.44541 0.8268 0.0
C554 C 0.125 0.51535 0.85302 0.0
C555 C 0.04712 0.43621 0.83859 0.0
C556 C 0.27166 0.53086 0.88697 0.0
C557 C 0.24317 0.51509 0.8602 0.0
C558 C 0.18013 0.47988 0.86278 0.0
C559 C 0.09152 0.46856 0.90446 0.0
C560 C 0.12279 0.48303 0.87719 0.0
C561 C 0.21377 0.53017 0.87424 0.0
C562 C 0.18273 0.51302 0.85475 0.0
H563 H 0.02737 0.47957 0.09017 0.0
H564 H 0.08244 0.49755 0.06397 0.0
H565 H 0.14914 0.43978 0.88697 0.0
H566 H 0.24202 0.60205 0.96769 0.0
H567 H 0.19259 0.57404 0.93536 0.0
C568 C 0.86432 0.57308 0.16138 0.0
C569 C 0.84481 0.54637 0.1741 0.0
C570 C 0.85104 0.60308 0.15041 0.0
C571 C 0.77556 0.64131 0.05107 0.0
H572 H 0.81777 0.71691 0.1669 0.0
C573 C 0.71851 0.76498 0.00855 0.0
C574 C 0.73856 0.79002 0.97271 0.0
C575 C 0.73106 0.73542 0.03856 0.0
C576 C 0.8055 0.69608 0.13441 0.0
H577 H 0.79611 0.53009 0.18743 0.0
H578 H 0.77295 0.58202 0.16243 0.0
H579 H 0.8391 0.6657 0.22056 0.0
H580 H 0.78767 0.80349 0.94168 0.0
H581 H 0.80936 0.75228 -0.00606 0.0
H582 H 0.74136 0.67183 0.96858 0.0
C583 C 0.7985 0.58012 0.16218 0.0
C584 C 0.81795 0.66655 0.16432 0.0
C585 C 0.8118 0.55029 0.17757 0.0
C586 C 0.77145 0.78483 0.96921 0.0
C587 C 0.78397 0.75542 -0.00023 0.0
C588 C 0.76262 0.67082 0.02418 0.0
C589 C 0.81787 0.60702 0.14635 0.0
C590 C 0.80349 0.63865 0.12155 0.0
C591 C 0.76398 0.73022 0.0344 0.0
C592 C 0.77746 0.69867 0.06508 0.0
H593 H 0.88987 0.57075 0.15989 0.0
H594 H 0.867 0.62293 0.14203 0.0
H595 H 0.76392 0.6206 0.01388 0.0
H596 H 0.69309 0.76809 0.01207 0.0
H597 H 0.71496 0.71671 0.06647 0.0
C598 C 0.51968 0.47001 0.61461 0.0
C599 C 0.50046 0.46616 0.5104 0.0
C600 C 0.54855 0.48642 0.60556 0.0
C601 C 0.60734 0.52353 0.37514 0.0
H602 H 0.63284 0.56893 0.68795 0.0
C603 C 0.73534 0.57913 0.43285 0.0
C604 C 0.74142 0.60296 0.51937 0.0
C605 C 0.70548 0.56448 0.42589 0.0
C606 C 0.62637 0.55788 0.60206 0.0
H607 H 0.49741 0.47491 0.31379 0.0
H608 H 0.54679 0.50403 0.29926 0.0
H609 H 0.58188 0.53907 0.6814 0.0
H610 H 0.72099 0.62953 0.66887 0.0
H611 H 0.66914 0.60516 0.65546 0.0
H612 H 0.65195 0.54279 0.29548 0.0
C613 C 0.54013 0.49424 0.38768 0.0
C614 C 0.59644 0.53939 0.59947 0.0
C615 C 0.51155 0.47755 0.39624 0.0
C616 C 0.71718 0.61119 0.60121 0.0
C617 C 0.68726 0.59675 0.5939 0.0
C618 C 0.6375 0.5423 0.37761 0.0
C619 C 0.5585 0.49998 0.49301 0.0
C620 C 0.58688 0.52129 0.4876 0.0
C621 C 0.68057 0.57348 0.50446 0.0
C622 C 0.64786 0.55907 0.49273 0.0
H623 H 0.51213 0.46107 0.70353 0.0
H624 H 0.56285 0.48874 0.68751 0.0
H625 H 0.60131 0.51077 0.29239 0.0
H626 H 0.75377 0.5716 0.37064 0.0
H627 H 0.70226 0.54598 0.35886 0.0
C628 C 0.79841 0.2654 0.3171 0.0
C629 C 0.80856 0.24251 0.40165 0.0
C630 C 0.78542 0.29359 0.35794 0.0
C631 C 0.7729 0.35765 0.46535 0.0
H632 H 0.70842 0.35421 0.71902 0.0
C633 C 0.67756 0.44509 0.72627 0.0
C634 C 0.66783 0.46248 0.6228 0.0
C635 C 0.69816 0.41964 0.71333 0.0
C636 C 0.72665 0.35577 0.64905 0.0
H637 H 0.81315 0.23143 0.59587 0.0
H638 H 0.79022 0.28088 0.66722 0.0
H639 H 0.73824 0.30699 0.66971 0.0
H640 H 0.67252 0.46682 0.42448 0.0
H641 H 0.70851 0.42296 0.40247 0.0
H642 H 0.76071 0.40594 0.44082 0.0
C643 C 0.79242 0.27687 0.56933 0.0
C644 C 0.74376 0.32862 0.62083 0.0
C645 C 0.80576 0.24867 0.52838 0.0
C646 C 0.67945 0.454 0.50637 0.0
C647 C 0.70029 0.42885 0.49378 0.0
C648 C 0.75551 0.38457 0.49191 0.0
C649 C 0.78197 0.29959 0.48451 0.0
C650 C 0.76648 0.32907 0.52609 0.0
C651 C 0.70992 0.41124 0.59691 0.0
C652 C 0.73136 0.38376 0.58118 0.0
H653 H 0.80003 0.26138 0.21887 0.0
H654 H 0.77716 0.3103 0.28987 0.0
H655 H 0.7911 0.35902 0.39556 0.0
H656 H 0.66939 0.45121 0.81751 0.0
H657 H 0.70516 0.40679 0.79472 0.0
C658 C 1.00393 0.54297 0.13919 0.0
C659 C 0.01983 0.54915 0.02811 0.0
C660 C 0.97524 0.52581 0.14076 0.0
C661 C 0.90981 0.49268 0.92664 0.0
H662 H 0.89008 0.44174 0.23382 0.0
C663 C 0.80736 0.3943 0.14096 0.0
C664 C 0.78152 0.40316 0.06773 0.0
C665 C 0.83599 0.41147 0.13756 0.0
C666 C 0.89497 0.45458 0.14982 0.0
H667 H 0.01707 0.5429 0.83004 0.0
H668 H 0.96788 0.51305 0.83237 0.0
H669 H 0.94031 0.47342 0.22247 0.0
H670 H 0.76569 0.4376 0.93403 0.0
H671 H 0.81515 0.46688 0.92589 0.0
H672 H 0.86438 0.47373 0.85357 0.0
C673 C 0.97706 0.52151 0.91927 0.0
C674 C 0.92451 0.47395 0.14415 0.0
C675 C 1.00564 0.53866 0.91794 0.0
C676 C 0.78514 0.42972 0.991 0.0
C677 C 0.8139 0.44652 0.98566 0.0
C678 C 0.87998 0.47339 0.93241 0.0
C679 C 0.96166 0.51408 0.03093 0.0
C680 C 0.93233 0.49348 0.03311 0.0
C681 C 0.84019 0.43742 0.05701 0.0
C682 C 0.87185 0.45431 0.04499 0.0
H683 H 0.01391 0.55116 0.22498 0.0
H684 H 0.96385 0.52178 0.22866 0.0
H685 H 0.91423 0.50676 0.84524 0.0
H686 H 0.80567 0.3738 0.19978 0.0
H687 H 0.85528 0.4031 0.19385 0.0
C688 C 0.76151 0.76694 0.65888 0.0
C689 C 0.79275 0.75677 0.64297 0.0
C690 C 0.75367 0.79824 0.63682 0.0
C691 C 0.78582 0.87869 0.62861 0.0
H692 H 0.70566 0.89516 0.46766 0.0
C693 C 0.7291 1.00218 0.63438 0.0
C694 C 0.69664 1.00224 0.66252 0.0
C695 C 0.74419 0.97436 0.59991 0.0
C696 C 0.72801 0.89092 0.51342 0.0
H697 H 0.84057 0.77138 0.59574 0.0
H698 H 0.82699 0.82684 0.56145 0.0
H699 H 0.72658 0.84168 0.47208 0.0
H700 H 0.65496 0.97259 0.68659 0.0
H701 H 0.68158 0.9239 0.63572 0.0
H702 H 0.78763 0.92804 0.66696 0.0
C703 C 0.80854 0.81038 0.5891 0.0
C704 C 0.73984 0.86036 0.51651 0.0
C705 C 0.81628 0.77872 0.60836 0.0
C706 C 0.67997 0.97348 0.66414 0.0
C707 C 0.69518 0.94558 0.6325 0.0
C708 C 0.774 0.90938 0.62471 0.0
C709 C 0.77702 0.82034 0.6015 0.0
C710 C 0.76797 0.85361 0.57969 0.0
C711 C 0.72748 0.94564 0.59933 0.0
C712 C 0.74386 0.91537 0.57504 0.0
H713 H 0.74291 0.75051 0.68536 0.0
H714 H 0.72924 0.80521 0.64893 0.0
H715 H 0.80796 0.87442 0.67593 0.0
H716 H 0.74277 0.02385 0.63604 0.0
H717 H 0.76906 0.97537 0.57539 0.0
C718 C 0.79357 0.92572 0.92099 0.0
C719 C 0.76247 0.93635 0.92065 0.0
C720 C 0.81831 0.94546 0.88288 0.0
C721 C 0.83986 0.03077 0.83857 0.0
H722 H 0.92025 0.99182 0.76582 0.0
C723 C 0.97692 0.07056 0.76644 0.0
C724 C 0.99213 0.06723 0.88093 0.0
C725 C 0.94509 0.0622 0.7521 0.0
C726 C 0.89793 1.0029 0.78773 0.0
H727 H 0.73247 0.97621 0.88495 0.0
H728 H 0.77593 0.01145 0.82218 0.0
H729 H 0.87128 0.96138 0.74643 0.0
H730 H 0.9848 0.0569 0.07413 0.0
H731 H 0.92863 0.0417 0.04877 0.0
H732 H 0.86704 0.07292 0.87585 0.0
C733 C 0.78149 0.98757 0.84817 0.0
C734 C 0.86987 0.98535 0.77861 0.0
C735 C 0.75648 0.96746 0.88468 0.0
C736 C 0.97384 0.05914 0.98452 0.0
C737 C 0.94177 0.05054 0.96999 0.0
C738 C 0.86807 0.04843 0.84882 0.0
C739 C 0.81296 0.97675 0.84496 0.0
C740 C 0.8407 0.99811 0.81555 0.0
C741 C 0.92769 0.05075 0.85239 0.0
C742 C 0.89737 0.03402 0.82987 0.0
H743 H 0.7985 0.90164 0.94651 0.0
H744 H 0.84179 0.93615 0.88707 0.0
H745 H 0.81782 0.04241 0.85807 0.0
H746 H 0.99028 0.07767 0.68581 0.0
H747 H 0.93462 0.0627 0.66118 0.0
C748 C 0.83336 0.0274 0.11998 0.0
C749 C 0.82003 0.99758 0.13938 0.0
C750 C 0.81418 0.05345 0.1004 0.0
C751 C 0.72907 0.08337 0.07559 0.0
H752 H 0.77308 0.15527 0.21494 0.0
C753 C 0.69004 0.21848 0.1032 0.0
C754 C 0.70169 0.23432 0.20796 0.0
C755 C 0.69507 0.18595 0.08818 0.0
C756 C 0.76005 0.13571 0.17537 0.0
H757 H 0.77556 0.97186 0.15571 0.0
H758 H 0.74183 0.01781 0.12279 0.0
H759 H 0.79908 0.10597 0.19759 0.0
H760 H 0.72377 0.22736 0.38632 0.0
H761 H 0.73282 0.17174 0.35937 0.0
H762 H 0.68765 0.11321 0.0694 0.0
C763 C 0.76728 0.02102 0.12144 0.0
C764 C 0.77579 0.10761 0.15995 0.0
C765 C 0.7867 0.99466 0.1417 0.0
C766 C 0.71533 0.21635 0.30248 0.0
C767 C 0.72043 0.18423 0.28716 0.0
C768 C 0.71247 0.11197 0.09385 0.0
C769 C 0.78073 0.0512 0.10522 0.0
C770 C 0.76134 0.08091 0.10974 0.0
C771 C 0.71242 0.16898 0.17628 0.0
C772 C 0.72794 0.13834 0.14675 0.0
H773 H 0.85885 0.03057 0.11576 0.0
H774 H 0.82603 0.0755 0.07922 0.0
H775 H 0.7166 0.06336 0.03677 0.0
H776 H 0.67809 0.23135 0.03102 0.0
H777 H 0.68719 0.17466 0.00448 0.0
C778 C 0.53477 0.95121 0.27295 0.0
C779 C 0.50929 0.97226 0.2793 0.0
C780 C 0.56615 0.96203 0.28008 0.0
C781 C 0.61626 0.034 0.23958 0.0
H782 H 0.67793 0.98641 0.42334 0.0
C783 C 0.75769 0.04046 0.40076 0.0
C784 C 0.76021 0.07297 0.42326 0.0
C785 C 0.72856 0.02659 0.36801 0.0
C786 C 0.661 1.00028 0.37334 0.0
H787 H 0.49712 0.0214 0.29998 0.0
H788 H 0.55196 0.04046 0.30975 0.0
H789 H 0.62395 0.96658 0.40687 0.0
H790 H 0.73354 0.1162 0.43094 0.0
H791 H 0.6831 0.09218 0.37202 0.0
H792 H 0.65365 0.06775 0.20766 0.0
C793 C 0.54762 0.01547 0.29837 0.0
C794 C 0.62996 0.98864 0.362 0.0
C795 C 0.51611 1.00455 0.29269 0.0
C796 C 0.73259 0.09109 0.41469 0.0
C797 C 0.70359 0.07727 0.38016 0.0
C798 C 0.6473 0.0458 0.25262 0.0
C799 C 0.57312 0.99433 0.29233 0.0
C800 C 0.60682 0.0058 0.298 0.0
C801 C 0.70108 0.04478 0.35621 0.0
C802 C 0.66967 0.0299 0.32511 0.0
H803 H 0.53053 0.92616 0.26312 0.0
H804 H 0.58501 0.94504 0.27299 0.0
H805 H 0.59955 0.04714 0.18454 0.0
H806 H 0.77842 0.02569 0.40503 0.0
H807 H 0.72785 1.00158 0.34928 0.0
C808 C 0.3281 0.04186 0.44599 0.0
C809 C 0.36048 0.04933 0.45839 0.0
C810 C 0.30507 0.06485 0.46417 0.0
C811 C 0.26937 0.12431 0.39663 0.0
H812 H 0.26958 0.18801 0.65173 0.0
C813 C 0.18508 0.22908 0.36351 0.0
C814 C 0.1984 0.2589 0.38712 0.0
C815 C 0.2011 0.20168 0.397 0.0
C816 C 0.26921 0.1704 0.57988 0.0
H817 H 0.39393 0.08614 0.50858 0.0
H818 H 0.35355 0.12603 0.5444 0.0
H819 H 0.30451 0.14233 0.67006 0.0
H820 H 0.23903 0.28322 0.46541 0.0
H821 H 0.26703 0.23543 0.52372 0.0
H822 H 0.2355 0.15273 0.30417 0.0
C823 C 0.34605 0.10256 0.51832 0.0
C824 C 0.28911 0.14419 0.59068 0.0
C825 C 0.3692 0.07977 0.49692 0.0
C826 C 0.22784 0.26063 0.44765 0.0
C827 C 0.24389 0.23318 0.4814 0.0
C828 C 0.24967 0.15037 0.38604 0.0
C829 C 0.3138 0.09566 0.49792 0.0
C830 C 0.28992 0.12125 0.4975 0.0
C831 C 0.23098 0.20331 0.45454 0.0
C832 C 0.24971 0.17411 0.47571 0.0
H833 H 0.32059 0.01855 0.41736 0.0
H834 H 0.2804 0.05873 0.44894 0.0
H835 H 0.26968 0.10737 0.32226 0.0
H836 H 0.16242 0.22684 0.3174 0.0
H837 H 0.19014 0.17914 0.37645 0.0
C838 C 0.02374 0.9608 0.90717 0.0
C839 C 1.00038 0.9676 -0.00476 0.0
C840 C 0.05229 0.97799 0.90335 0.0
C841 C 0.09873 0.0414 0.08653 0.0
H842 H 0.15088 0.04395 0.77322 0.0
C843 C 0.23515 0.08455 0.89945 0.0
C844 C 0.24013 0.10942 0.9829 0.0
C845 C 0.20572 0.06869 0.8942 0.0
C846 C 0.1374 0.0434 0.85787 0.0
H847 H 0.98819 0.99841 0.14463 0.0
H848 H 0.03713 0.02795 0.14114 0.0
H849 H 0.09973 0.01258 0.77907 0.0
H850 H 0.21753 0.13749 0.12252 0.0
H851 H 0.16787 0.10986 0.11844 0.0
H852 H 0.13655 0.07045 0.1678 0.0
C853 C 0.03475 0.00877 0.07671 0.0
C854 C 0.10707 0.02477 0.86155 0.0
C855 C 1.00634 0.99158 0.08011 0.0
C856 C 0.21507 0.11795 0.05998 0.0
C857 C 0.18619 0.1018 0.05701 0.0
C858 C 0.12886 0.0595 0.08318 0.0
C859 C 0.05809 1.00284 0.98646 0.0
C860 C 0.08747 0.02319 0.97708 0.0
C861 C 0.18064 0.07712 0.97309 0.0
C862 C 0.1489 0.06064 0.96976 0.0
H863 H 0.01984 0.94231 0.84019 0.0
H864 H 0.06955 0.97165 0.83445 0.0
H865 H 0.08622 0.0405 0.17321 0.0
H866 H 0.25399 0.07721 0.83853 0.0
H867 H 0.20304 0.04945 0.82994 0.0
C868 C 0.25947 0.73297 0.90641 0.0
C869 C 0.29214 0.72782 0.91842 0.0
C870 C 0.24671 0.76254 0.92899 0.0
C871 C 0.26734 0.84811 0.96778 0.0
H872 H 0.18499 0.84822 0.12525 0.0
C873 C 0.18504 0.95745 -0.00594 0.0
C874 C 0.16556 0.96067 0.09844 0.0
C875 C 0.20488 0.93131 0.98154 0.0
C876 C 0.20796 0.84887 0.08098 0.0
H877 H 0.33718 0.75008 0.9613 0.0
H878 H 0.31487 0.80217 -0.0012 0.0
H879 H 0.20873 0.79897 0.07123 0.0
H880 H 0.15262 0.93928 0.27264 0.0
H881 H 0.18733 0.89426 0.25224 0.0
H882 H 0.26531 0.89867 0.97347 0.0
C883 C 0.29904 0.78316 0.973 0.0
C884 C 0.22164 0.82034 0.04882 0.0
C885 C 0.31186 0.75323 0.95213 0.0
C886 C 0.16725 0.93767 0.19141 0.0
C887 C 0.18711 0.9117 0.17926 0.0
C888 C 0.25294 0.87694 -0.00422 0.0
C889 C 0.26615 0.78816 0.96329 0.0
C890 C 0.25168 0.81931 -0.00695 0.0
C891 C 0.20569 0.90775 0.07293 0.0
C892 C 0.22287 0.87764 0.05188 0.0
H893 H 0.2435 0.714 0.8804 0.0
H894 H 0.22141 0.76518 0.91877 0.0
H895 H 0.29035 0.84848 0.92364 0.0
H896 H 0.18444 0.97473 0.92058 0.0
H897 H 0.21853 0.92892 0.89786 0.0
C898 C 0.28603 0.94779 0.74579 0.0
C899 C 0.28389 0.91619 0.70942 0.0
C900 C 0.31561 0.9627 0.75981 0.0
C901 C 0.40339 0.94599 0.77282 0.0
H902 H 0.41067 0.03297 0.66807 0.0
C903 C 0.52378 0.99829 0.62674 0.0
C904 C 0.53141 0.02939 0.6605 0.0
C905 C 0.49306 0.9863 0.64252 0.0
C906 C 0.40915 0.00868 0.69794 0.0
H907 H 0.31128 0.87486 0.66429 0.0
H908 H 0.36241 0.90035 0.68974 0.0
H909 H 0.35861 0.00859 0.68718 0.0
H910 H 0.51213 0.07293 0.72962 0.0
H911 H 0.4584 0.05226 0.75528 0.0
H912 H 0.454 0.94585 0.77881 0.0
C913 C 0.34153 0.91419 0.70592 0.0
C914 C 0.37908 0.99462 0.71015 0.0
C915 C 0.312 0.89942 0.6908 0.0
C916 C 0.50717 0.04869 0.705 0.0
C917 C 0.47625 0.03676 0.71937 0.0
C918 C 0.4334 0.95992 0.75881 0.0
C919 C 0.34395 0.94627 0.73832 0.0
C920 C 0.37571 0.96264 0.74312 0.0
C921 C 0.46897 0.00505 0.69229 0.0
C922 C 0.43678 0.99119 0.71717 0.0
H923 H 0.2647 0.9611 0.76271 0.0
H924 H 0.31612 0.9871 0.78813 0.0
H925 H 0.4021 0.92181 0.80414 0.0
H926 H 0.54171 0.98286 0.58992 0.0
H927 H 0.48828 0.96216 0.61602 0.0
C928 C 0.38057 0.21995 0.25514 0.0
C929 C 0.37484 0.19279 0.32618 0.0
C930 C 0.4118 0.23009 0.23225 0.0
C931 C 0.47845 0.23218 0.45387 0.0
H932 H 0.53998 0.26733 0.11557 0.0
C933 C 0.6327 0.28706 0.42921 0.0
C934 C 0.63877 0.31582 0.36977 0.0
C935 C 0.60426 0.27086 0.40931 0.0
C936 C 0.52845 0.26086 0.20103 0.0
H937 H 0.39654 0.15384 0.42164 0.0
H938 H 0.45073 0.17111 0.38024 0.0
H939 H 0.4834 0.23909 0.09428 0.0
H940 H 0.62026 0.34981 0.24053 0.0
H941 H 0.57045 0.32091 0.20312 0.0
H942 H 0.54778 0.26643 0.55611 0.0
C943 C 0.43138 0.18441 0.34103 0.0
C944 C 0.49199 0.24243 0.18718 0.0
C945 C 0.40043 0.17462 0.36539 0.0
C946 C 0.61669 0.32715 0.2839 0.0
C947 C 0.58807 0.31078 0.26349 0.0
C948 C 0.53356 0.26013 0.47539 0.0
C949 C 0.4373 0.21302 0.28018 0.0
C950 C 0.46793 0.22861 0.30257 0.0
C951 C 0.58116 0.28322 0.33032 0.0
C952 C 0.54889 0.26947 0.33331 0.0
H953 H 0.36116 0.23482 0.22753 0.0
H954 H 0.41586 0.2527 0.18829 0.0
H955 H 0.46176 0.22292 0.52259 0.0
H956 H 0.64922 0.27801 0.49669 0.0
H957 H 0.59967 0.2494 0.46077 0.0
C958 C 0.47489 0.87982 0.53062 0.0
C959 C 0.4427 0.87702 0.56345 0.0
C960 C 0.4939 0.85309 0.52529 0.0
C961 C 0.5082 0.77056 0.6547 0.0
H962 H 0.52451 0.74853 0.23395 0.0
C963 C 0.56364 0.63539 0.35759 0.0
C964 C 0.57477 0.63616 0.23662 0.0
C965 C 0.55042 0.66152 0.41349 0.0
C966 C 0.52296 0.75013 0.33294 0.0
H967 H 0.40641 0.84504 0.63203 0.0
H968 H 0.44055 0.79877 0.63183 0.0
H969 H 0.49927 0.80088 0.31579 0.0
H970 H 0.58203 0.66713 0.07976 0.0
H971 H 0.56179 0.71406 0.18054 0.0
H972 H 0.5426 0.69805 0.6256 0.0
C973 C 0.45043 0.82137 0.60466 0.0
C974 C 0.50649 0.78428 0.38583 0.0
C975 C 0.43104 0.84782 0.60549 0.0
C976 C 0.57342 0.66515 0.17342 0.0
C977 C 0.56135 0.69214 0.23123 0.0
C978 C 0.53338 0.7183 0.5754 0.0
C979 C 0.48138 0.82364 0.5586 0.0
C980 C 0.49909 0.79483 0.53442 0.0
C981 C 0.54936 0.69057 0.35248 0.0
C982 C 0.53598 0.71852 0.41666 0.0
H983 H 0.48475 0.90209 0.49972 0.0
H984 H 0.51795 0.85521 0.49099 0.0
H985 H 0.50252 0.7789 0.74732 0.0
H986 H 0.56526 0.61476 0.41135 0.0
H987 H 0.54075 0.65823 0.5046 0.0
C988 C 0.12399 0.82712 0.69357 0.0
C989 C 0.12197 0.85066 0.78391 0.0
C990 C 0.0968 0.80986 0.65909 0.0
C991 C 0.03214 0.78134 0.86897 0.0
H992 H 0.98763 0.73903 0.5047 0.0
C993 C 0.89364 0.70365 0.71766 0.0
C994 C 0.89525 0.67578 0.78709 0.0
C995 C 0.92149 0.71865 0.67651 0.0
C996 C 0.99606 0.74606 0.59463 0.0
H997 H 0.08912 0.87914 0.88818 0.0
H998 H 0.04217 0.84956 0.82738 0.0
H999 H 0.03286 0.78362 0.50756 0.0
H1000 H 0.92675 0.64045 0.85995 0.0
H1001 H 0.97526 0.66705 0.79136 0.0
H1002 H 0.97623 0.72464 0.94 0.0
C1003 C 0.06474 0.84355 0.78637 0.0
C1004 C 0.02494 0.77517 0.59653 0.0
C1005 C 0.09175 0.86037 0.82173 0.0
C1006 C 0.92485 0.66173 0.80524 0.0
C1007 C 0.95258 0.67677 0.76502 0.0
C1008 C 0.98879 0.73707 0.86588 0.0
C1009 C 0.06737 0.81677 0.71231 0.0
C1010 C 0.04237 0.79243 0.72221 0.0
C1011 C 0.9512 0.70612 0.70605 0.0
C1012 C 0.97856 0.7276 0.71801 0.0
H1013 H 0.14667 0.82022 0.65775 0.0
H1014 H 0.09938 0.78934 0.60115 0.0
H1015 H 0.04435 0.79327 0.94489 0.0
H1016 H 0.87141 0.71575 0.70765 0.0
H1017 H 0.91988 0.74181 0.63504 0.0
C1018 C 0.04013 0.14074 0.60266 0.0
C1019 C 0.05882 0.12427 0.68769 0.0
C1020 C 0.02525 0.16876 0.63547 0.0
C1021 C 0.0112 0.22552 0.93406 0.0
H1022 H 0.98292 0.28379 0.58122 0.0
C1023 C 0.95186 0.37983 0.83873 0.0
C1024 C 0.93702 0.38664 0.72619 0.0
C1025 C 0.96424 0.34997 0.86321 0.0
C1026 C 0.98702 0.27326 0.67034 0.0
H1027 H 0.07209 0.12298 0.87852 0.0
H1028 H 0.05056 0.17334 0.93243 0.0
H1029 H 0.00963 0.22985 0.57185 0.0
H1030 H 0.92091 0.3658 0.55508 0.0
H1031 H 0.94011 0.31356 0.60023 0.0
H1032 H 0.97653 0.29536 0.01993 0.0
C1033 C 0.04685 0.16476 0.84004 0.0
C1034 C 1.00467 0.23748 0.66438 0.0
C1035 C 0.06035 0.13589 0.80824 0.0
C1036 C 0.93299 0.36194 0.64172 0.0
C1037 C 0.94449 0.33184 0.66726 0.0
C1038 C 0.98399 0.2808 0.94248 0.0
C1039 C 0.02964 0.18217 0.75308 0.0
C1040 C 0.01629 0.21381 0.78325 0.0
C1041 C 0.96132 0.32569 0.7765 0.0
C1042 C 0.97668 0.29461 0.79635 0.0
H1043 H 0.03695 0.13206 0.50976 0.0
H1044 H 0.01034 0.17951 0.56694 0.0
H1045 H 0.01856 0.2095 0.00729 0.0
H1046 H 0.9542 0.39745 0.90817 0.0
H1047 H 0.97682 0.34641 0.94877 0.0
C1048 C 0.41633 0.66049 0.69239 0.0
C1049 C 0.39078 0.67455 0.63138 0.0
C1050 C 0.44519 0.67673 0.70568 0.0
C1051 C 0.49039 0.74009 0.51047 0.0
H1052 H 0.55523 0.73638 0.86498 0.0
C1053 C 0.6256 0.81794 0.7532 0.0
C1054 C 0.64542 0.81482 0.65002 0.0
C1055 C 0.60005 0.79698 0.77021 0.0
C1056 C 0.54305 0.73912 0.77805 0.0
H1057 H 0.37483 0.71658 0.53835 0.0
H1058 H 0.42508 0.74495 0.56063 0.0
H1059 H 0.49779 0.71017 0.85128 0.0
H1060 H 0.65797 0.78454 0.49801 0.0
H1061 H 0.61405 0.74792 0.52891 0.0
H1062 H 0.5608 0.77934 0.4576 0.0
C1063 C 0.42289 0.72152 0.5994 0.0
C1064 C 0.50601 0.72205 0.76887 0.0
C1065 C 0.39409 0.70543 0.58733 0.0
C1066 C 0.64262 0.78781 0.57679 0.0
C1067 C 0.61757 0.76679 0.59468 0.0
C1068 C 0.54665 0.76587 0.52431 0.0
C1069 C 0.44895 0.70696 0.65523 0.0
C1070 C 0.48049 0.72198 0.64656 0.0
C1071 C 0.59487 0.7726 0.68551 0.0
C1072 C 0.56297 0.75962 0.6665 0.0
H1073 H 0.41495 0.63617 0.72037 0.0
H1074 H 0.46511 0.66479 0.74704 0.0
H1075 H 0.47304 0.73898 0.43563 0.0
H1076 H 0.62772 0.83814 0.81277 0.0
H1077 H 0.58264 0.80183 0.84081 0.0
C1078 C 0.58775 0.14439 0.55504 0.0
C1079 C 0.5807 0.12375 0.4577 0.0
C1080 C 0.5677 0.16969 0.58036 0.0
C1081 C 0.5216 0.221 0.35637 0.0
H1082 H 0.48646 0.26846 0.72477 0.0
C1083 C 0.41203 0.33194 0.46787 0.0
C1084 C 0.42514 0.36205 0.44918 0.0
C1085 C 0.4311 0.30722 0.50797 0.0
C1086 C 0.49395 0.26084 0.63453 0.0
H1087 H 0.54557 0.11058 0.32173 0.0
H1088 H 0.51044 0.15422 0.36698 0.0
H1089 H 0.51585 0.21311 0.71605 0.0
H1090 H 0.46801 0.39014 0.46064 0.0
H1091 H 0.50151 0.34675 0.52787 0.0
H1092 H 0.48655 0.29207 0.29385 0.0
C1093 C 0.53158 0.15133 0.42236 0.0
C1094 C 0.51251 0.22488 0.62866 0.0
C1095 C 0.55161 0.12637 0.39655 0.0
C1096 C 0.45705 0.36755 0.47927 0.0
C1097 C 0.47625 0.34271 0.51775 0.0
C1098 C 0.49378 0.27553 0.36584 0.0
C1099 C 0.54048 0.17423 0.50876 0.0
C1100 C 0.52563 0.20529 0.50112 0.0
C1101 C 0.46362 0.31218 0.52804 0.0
C1102 C 0.48469 0.2852 0.51432 0.0
H1103 H 0.61009 0.143 0.60278 0.0
H1104 H 0.57509 0.18726 0.64679 0.0
H1105 H 0.53057 0.20724 0.27894 0.0
H1106 H 0.38761 0.32705 0.44292 0.0
H1107 H 0.42114 0.2836 0.51091 0.0
C1108 C 0.12332 0.29796 0.92598 0.0
C1109 C 0.12822 0.32077 0.01769 0.0
C1110 C 0.09461 0.28169 0.91733 0.0
C1111 C 0.01708 0.26109 0.10523 0.0
H1112 H 0.95353 0.23244 0.76248 0.0
C1113 C 0.87698 0.19447 0.93744 0.0
C1114 C 0.87319 0.17642 0.04496 0.0
C1115 C 0.90342 0.21395 0.92157 0.0
C1116 C 0.96907 0.24017 0.83722 0.0
H1117 H 0.10757 0.34329 0.17658 0.0
H1118 H 0.05694 0.31437 0.16258 0.0
H1119 H 0.03986 0.27595 0.75864 0.0
H1120 H 0.89429 0.16404 0.21964 0.0
H1121 H 0.94192 0.19559 0.18801 0.0
H1122 H 0.97183 0.23841 0.19919 0.0
C1123 C 0.07555 0.30913 0.09737 0.0
C1124 C 0.02477 0.26765 0.83429 0.0
C1125 C 0.10452 0.32555 0.10608 0.0
C1126 C 0.89643 0.1781 0.13668 0.0
C1127 C 0.92365 0.19662 0.11856 0.0
C1128 C 0.98079 0.24319 0.10785 0.0
C1129 C 0.07006 0.28785 0.00019 0.0
C1130 C 0.03865 0.27294 0.98126 0.0
C1131 C 0.92758 0.21468 0.01022 0.0
C1132 C 0.95732 0.23266 0.98652 0.0
H1133 H 0.14132 0.29364 0.85715 0.0
H1134 H 0.09147 0.26475 0.84389 0.0
H1135 H 0.02765 0.26519 0.19452 0.0
H1136 H 0.8595 0.19345 0.86458 0.0
H1137 H 0.9048 0.22811 0.83888 0.0
C1138 C 0.93793 0.86741 0.96588 0.0
C1139 C 0.9141 0.86545 0.8755 0.0
C1140 C 0.95731 0.84143 0.98999 0.0
C1141 C 0.99579 0.77251 0.03596 0.0
H1142 H 0.04471 0.72675 0.68593 0.0
C1143 C 0.08315 0.65082 0.97832 0.0
C1144 C 0.10727 0.65149 0.88877 0.0
C1145 C 0.06338 0.67693 -0.00598 0.0
C1146 C 0.03253 0.73845 0.76188 0.0
H1147 H 0.88833 0.83357 0.75546 0.0
H1148 H 0.92148 0.78842 0.79926 0.0
H1149 H 0.9762 0.79344 0.69035 0.0
H1150 H 0.13199 0.68108 0.75682 0.0
H1151 H 0.09816 0.72643 0.78532 0.0
H1152 H 0.03286 0.73616 0.12343 0.0
C1153 C 0.92598 0.81018 0.84841 0.0
C1154 C 0.98846 0.78107 0.76469 0.0
C1155 C 0.9071 0.83607 0.82295 0.0
C1156 C 0.11329 0.67967 0.82487 0.0
C1157 C 0.09387 0.70562 0.84109 0.0
C1158 C 0.02491 0.74428 0.03431 0.0
C1159 C 0.95246 0.81325 0.92556 0.0
C1160 C 0.97799 0.79019 0.91253 0.0
C1161 C 0.06778 0.70391 0.92085 0.0
C1162 C 0.04286 0.72777 0.90886 0.0
H1163 H 0.94335 0.88949 0.01026 0.0
H1164 H 0.97764 0.84428 0.04993 0.0
H1165 H 0.98762 0.77968 0.1259 0.0
H1166 H 0.07804 0.62955 0.02955 0.0
H1167 H 0.04332 0.67508 0.05597 0.0
loop_
_geom_bond_atom_site_label_1
_geom_bond_atom_site_label_2
_geom_bond_distance
_geom_bond_site_symmetry_2
_ccdc_geom_bond_type
Mg0 O7 2.141 . S
Mg0 O8 2.048 . S
Mg0 O9 2.048 . S
Mg0 O12 2.141 . S
C1 O2 1.313 . S
C1 O8 1.195 . S
O2 C1 1.313 . S
C3 O4 1.245 . S
C3 O12 1.289 . S
O4 C3 1.245 . S
C5 O6 1.245 . S
C5 O7 1.289 . S
O6 C5 1.245 . S
O7 Mg0 2.141 . S
O7 C5 1.289 . S
O8 Mg0 2.048 . S
O8 C1 1.195 . S
O9 Mg0 2.048 . S
O9 C10 1.195 . S
C10 O9 1.195 . S
C10 O11 1.313 . S
O11 C10 1.313 . S
O12 Mg0 2.141 . S
O12 C3 1.289 . S
Mg13 O20 2.141 . S
Mg13 O21 2.048 . S
Mg13 O22 2.048 . S
Mg13 O25 2.141 . S
C14 O15 1.313 . S
C14 O21 1.195 . S
O15 C14 1.313 . S
C16 O17 1.245 . S
C16 O25 1.289 . S
O17 C16 1.245 . S
C18 O19 1.245 . S
C18 O20 1.289 . S
O19 C18 1.245 . S
O20 Mg13 2.141 . S
O20 C18 1.289 . S
O21 Mg13 2.048 . S
O21 C14 1.195 . S
O22 Mg13 2.048 . S
O22 C23 1.195 . S
C23 O22 1.195 . S
C23 O24 1.313 . S
O24 C23 1.313 . S
O25 Mg13 2.141 . S
O25 C16 1.289 . S
Mg26 O33 2.141 . S
Mg26 O34 2.048 . S
Mg26 O35 2.048 . S
Mg26 O38 2.141 . S
C27 O28 1.313 . S
C27 O34 1.195 . S
O28 C27 1.313 . S
C29 O30 1.245 . S
C29 O38 1.289 . S
O30 C29 1.245 . S
C31 O32 1.245 . S
C31 O33 1.289 . S
O32 C31 1.245 . S
O33 Mg26 2.141 . S
O33 C31 1.289 . S
O34 Mg26 2.048 . S
O34 C27 1.195 . S
O35 Mg26 2.048 . S
O35 C36 1.195 . S
C36 O35 1.195 . S
C36 O37 1.313 . S
O37 C36 1.313 . S
O38 Mg26 2.141 . S
O38 C29 1.289 . S
Mg39 O46 2.141 . S
Mg39 O47 2.048 . S
Mg39 O48 2.048 . S
Mg39 O51 2.141 . S
C40 O41 1.313 1_554 S
C40 O47 1.195 . S
O41 C40 1.313 1_556 S
C42 O43 1.245 . S
C42 O51 1.289 1_556 S
O43 C42 1.245 . S
C44 O45 1.245 . S
C44 O46 1.289 1_556 S
O45 C44 1.245 . S
O46 Mg39 2.141 . S
O46 C44 1.289 1_554 S
O47 Mg39 2.048 . S
O47 C40 1.195 . S
O48 Mg39 2.048 . S
O48 C49 1.195 . S
C49 O48 1.195 . S
C49 O50 1.313 1_554 S
O50 C49 1.313 1_556 S
O51 Mg39 2.141 . S
O51 C42 1.289 1_554 S
Mg52 O59 2.141 . S
Mg52 O60 2.048 . S
Mg52 O61 2.048 . S
Mg52 O64 2.141 . S
C53 O54 1.313 . S
C53 O60 1.195 . S
O54 C53 1.313 . S
C55 O56 1.245 . S
C55 O64 1.289 . S
O56 C55 1.245 . S
C57 O58 1.245 . S
C57 O59 1.289 . S
O58 C57 1.245 . S
O59 Mg52 2.141 . S
O59 C57 1.289 . S
O60 Mg52 2.048 . S
O60 C53 1.195 . S
O61 Mg52 2.048 . S
O61 C62 1.195 . S
C62 O61 1.195 . S
C62 O63 1.313 . S
O63 C62 1.313 . S
O64 Mg52 2.141 . S
O64 C55 1.289 . S
Mg65 O72 2.141 . S
Mg65 O73 2.048 . S
Mg65 O74 2.048 . S
Mg65 O77 2.141 . S
C66 O67 1.313 . S
C66 O73 1.195 . S
O67 C66 1.313 . S
C68 O69 1.245 . S
C68 O77 1.289 . S
O69 C68 1.245 . S
C70 O71 1.245 . S
C70 O72 1.289 . S
O71 C70 1.245 . S
O72 Mg65 2.141 . S
O72 C70 1.289 . S
O73 Mg65 2.048 . S
O73 C66 1.195 . S
O74 Mg65 2.048 . S
O74 C75 1.195 . S
C75 O74 1.195 . S
C75 O76 1.313 . S
O76 C75 1.313 . S
O77 Mg65 2.141 . S
O77 C68 1.289 . S
Mg78 O85 2.141 . S
Mg78 O86 2.048 . S
Mg78 O87 2.048 . S
Mg78 O90 2.141 . S
C79 O80 1.313 . S
C79 O86 1.195 . S
O80 C79 1.313 . S
C81 O82 1.245 . S
C81 O90 1.289 . S
O82 C81 1.245 . S
C83 O84 1.245 . S
C83 O85 1.289 . S
O84 C83 1.245 . S
O85 Mg78 2.141 . S
O85 C83 1.289 . S
O86 Mg78 2.048 . S
O86 C79 1.195 . S
O87 Mg78 2.048 . S
O87 C88 1.195 . S
C88 O87 1.195 . S
C88 O89 1.313 . S
O89 C88 1.313 . S
O90 Mg78 2.141 . S
O90 C81 1.289 . S
Mg91 O98 2.141 . S
Mg91 O99 2.048 . S
Mg91 O100 2.048 . S
Mg91 O103 2.141 . S
C92 O93 1.313 . S
C92 O99 1.195 1_556 S
O93 C92 1.313 . S
C94 O95 1.245 1_554 S
C94 O103 1.289 . S
O95 C94 1.245 1_556 S
C96 O97 1.245 1_554 S
C96 O98 1.289 . S
O97 C96 1.245 1_556 S
O98 Mg91 2.141 . S
O98 C96 1.289 . S
O99 Mg91 2.048 . S
O99 C92 1.195 1_554 S
O100 Mg91 2.048 . S
O100 C101 1.195 1_554 S
C101 O100 1.195 1_556 S
C101 O102 1.313 . S
O102 C101 1.313 . S
O103 Mg91 2.141 . S
O103 C94 1.289 . S
Mg104 O111 2.141 . S
Mg104 O112 2.048 . S
Mg104 O113 2.048 . S
Mg104 O116 2.141 . S
C105 O106 1.313 . S
C105 O112 1.195 . S
O106 C105 1.313 . S
C107 O108 1.245 . S
C107 O116 1.289 . S
O108 C107 1.245 . S
C109 O110 1.245 . S
C109 O111 1.289 . S
O110 C109 1.245 . S
O111 Mg104 2.141 . S
O111 C109 1.289 . S
O112 Mg104 2.048 . S
O112 C105 1.195 . S
O113 Mg104 2.048 . S
O113 C114 1.195 . S
C114 O113 1.195 . S
C114 O115 1.313 . S
O115 C114 1.313 . S
O116 Mg104 2.141 . S
O116 C107 1.289 . S
Mg117 O124 2.141 . S
Mg117 O125 2.048 . S
Mg117 O126 2.048 . S
Mg117 O129 2.141 . S
C118 O119 1.313 1_554 S
C118 O125 1.195 . S
O119 C118 1.313 1_556 S
C120 O121 1.245 . S
C120 O129 1.289 1_556 S
O121 C120 1.245 . S
C122 O123 1.245 . S
C122 O124 1.289 1_556 S
O123 C122 1.245 . S
O124 Mg117 2.141 . S
O124 C122 1.289 1_554 S
O125 Mg117 2.048 . S
O125 C118 1.195 . S
O126 Mg117 2.048 . S
O126 C127 1.195 . S
C127 O126 1.195 . S
C127 O128 1.313 1_554 S
O128 C127 1.313 1_556 S
O129 Mg117 2.141 . S
O129 C120 1.289 1_554 S
Mg130 O137 2.141 . S
Mg130 O138 2.048 . S
Mg130 O139 2.048 . S
Mg130 O142 2.141 . S
C131 O132 1.313 . S
C131 O138 1.195 . S
O132 C131 1.313 . S
C133 O134 1.245 . S
C133 O142 1.289 . S
O134 C133 1.245 . S
C135 O136 1.245 . S
C135 O137 1.289 . S
O136 C135 1.245 . S
O137 Mg130 2.141 . S
O137 C135 1.289 . S
O138 Mg130 2.048 . S
O138 C131 1.195 . S
O139 Mg130 2.048 . S
O139 C140 1.195 . S
C140 O139 1.195 . S
C140 O141 1.313 . S
O141 C140 1.313 . S
O142 Mg130 2.141 . S
O142 C133 1.289 . S
Mg143 O150 2.141 . S
Mg143 O151 2.048 . S
Mg143 O152 2.048 . S
Mg143 O155 2.141 . S
C144 O145 1.313 . S
C144 O151 1.195 . S
O145 C144 1.313 . S
C146 O147 1.245 . S
C146 O155 1.289 . S
O147 C146 1.245 . S
C148 O149 1.245 . S
C148 O150 1.289 . S
O149 C148 1.245 . S
O150 Mg143 2.141 . S
O150 C148 1.289 . S
O151 Mg143 2.048 . S
O151 C144 1.195 . S
O152 Mg143 2.048 . S
O152 C153 1.195 . S
C153 O152 1.195 . S
C153 O154 1.313 . S
O154 C153 1.313 . S
O155 Mg143 2.141 . S
O155 C146 1.289 . S
Mg156 O163 2.141 . S
Mg156 O164 2.048 . S
Mg156 O165 2.048 . S
Mg156 O168 2.141 . S
C157 O158 1.313 . S
C157 O164 1.195 . S
O158 C157 1.313 . S
C159 O160 1.245 . S
C159 O168 1.289 . S
O160 C159 1.245 . S
C161 O162 1.245 . S
C161 O163 1.289 . S
O162 C161 1.245 . S
O163 Mg156 2.141 . S
O163 C161 1.289 . S
O164 Mg156 2.048 . S
O164 C157 1.195 . S
O165 Mg156 2.048 . S
O165 C166 1.195 . S
C166 O165 1.195 . S
C166 O167 1.313 . S
O167 C166 1.313 . S
O168 Mg156 2.141 . S
O168 C159 1.289 . S
Mg169 O176 2.141 . S
Mg169 O177 2.048 . S
Mg169 O178 2.048 . S
Mg169 O181 2.141 . S
C170 O171 1.313 . S
C170 O177 1.195 1_556 S
O171 C170 1.313 . S
C172 O173 1.245 1_554 S
C172 O181 1.289 . S
O173 C172 1.245 1_556 S
C174 O175 1.245 1_554 S
C174 O176 1.289 . S
O175 C174 1.245 1_556 S
O176 Mg169 2.141 . S
O176 C174 1.289 . S
O177 Mg169 2.048 . S
O177 C170 1.195 1_554 S
O178 Mg169 2.048 . S
O178 C179 1.195 1_554 S
C179 O178 1.195 1_556 S
C179 O180 1.313 . S
O180 C179 1.313 . S
O181 Mg169 2.141 . S
O181 C172 1.289 . S
Mg182 O189 2.141 . S
Mg182 O190 2.048 . S
Mg182 O191 2.048 . S
Mg182 O194 2.141 . S
C183 O184 1.313 . S
C183 O190 1.195 . S
O184 C183 1.313 . S
C185 O186 1.245 . S
C185 O194 1.289 . S
O186 C185 1.245 . S
C187 O188 1.245 . S
C187 O189 1.289 . S
O188 C187 1.245 . S
O189 Mg182 2.141 . S
O189 C187 1.289 . S
O190 Mg182 2.048 . S
O190 C183 1.195 . S
O191 Mg182 2.048 . S
O191 C192 1.195 . S
C192 O191 1.195 . S
C192 O193 1.313 . S
O193 C192 1.313 . S
O194 Mg182 2.141 . S
O194 C185 1.289 . S
Mg195 O202 2.141 . S
Mg195 O203 2.048 . S
Mg195 O204 2.048 . S
Mg195 O207 2.141 . S
C196 O197 1.313 . S
C196 O203 1.195 . S
O197 C196 1.313 . S
C198 O199 1.245 . S
C198 O207 1.289 . S
O199 C198 1.245 . S
C200 O201 1.245 . S
C200 O202 1.289 . S
O201 C200 1.245 . S
O202 Mg195 2.141 . S
O202 C200 1.289 . S
O203 Mg195 2.048 . S
O203 C196 1.195 . S
O204 Mg195 2.048 . S
O204 C205 1.195 . S
C205 O204 1.195 . S
C205 O206 1.313 . S
O206 C205 1.313 . S
O207 Mg195 2.141 . S
O207 C198 1.289 . S
C208 C209 1.349 . S
C208 C210 1.327 . S
C208 H233 0.950 . S
C209 C208 1.349 . S
C209 C225 1.349 . S
C210 C208 1.327 . S
C210 C229 1.429 . S
C210 H234 0.950 . S
C211 C228 1.574 1_565 S
C211 C230 1.368 1_554 S
C211 H235 0.949 . S
H212 C216 0.949 . S
C213 C214 1.349 . S
C213 C215 1.327 . S
C213 H236 0.950 . S
C214 C213 1.349 . S
C214 C226 1.349 . S
C215 C213 1.327 . S
C215 C231 1.429 . S
C215 H237 0.950 . S
C216 H212 0.949 . S
C216 C224 1.574 1_545 S
C216 C232 1.368 1_556 S
H217 C225 0.950 . S
H218 C223 0.950 1_554 S
H219 C224 0.949 . S
H220 C226 0.950 . S
H221 C227 0.950 1_556 S
H222 C228 0.949 . S
C223 H218 0.950 1_556 S
C223 C225 1.327 . S
C223 C229 1.429 . S
C224 C216 1.574 1_565 S
C224 H219 0.949 . S
C224 C230 1.368 . S
C225 C209 1.349 . S
C225 H217 0.950 . S
C225 C223 1.327 . S
C226 C214 1.349 . S
C226 H220 0.950 . S
C226 C227 1.327 . S
C227 H221 0.950 1_554 S
C227 C226 1.327 . S
C227 C231 1.429 . S
C228 C211 1.574 1_545 S
C228 H222 0.949 . S
C228 C232 1.368 . S
C229 C210 1.429 . S
C229 C223 1.429 . S
C229 C230 1.523 . S
C230 C211 1.368 1_556 S
C230 C224 1.368 . S
C230 C229 1.523 . S
C231 C215 1.429 . S
C231 C227 1.429 . S
C231 C232 1.523 . S
C232 C216 1.368 1_554 S
C232 C228 1.368 . S
C232 C231 1.523 . S
H233 C208 0.950 . S
H234 C210 0.950 . S
H235 C211 0.949 . S
H236 C213 0.950 . S
H237 C215 0.950 . S
C238 C239 1.349 . S
C238 C240 1.327 . S
C238 H263 0.950 . S
C239 C238 1.349 . S
C239 C255 1.349 . S
C240 C238 1.327 . S
C240 C259 1.429 . S
C240 H264 0.950 . S
C241 C258 1.574 . S
C241 C260 1.368 . S
C241 H265 0.949 . S
H242 C246 0.949 . S
C243 C244 1.349 . S
C243 C245 1.327 . S
C243 H266 0.950 . S
C244 C243 1.349 . S
C244 C256 1.349 . S
C245 C243 1.327 . S
C245 C261 1.429 . S
C245 H267 0.950 . S
C246 H242 0.949 . S
C246 C254 1.574 . S
C246 C262 1.368 . S
H247 C255 0.950 1_556 S
H248 C253 0.950 . S
H249 C254 0.949 . S
H250 C256 0.950 . S
H251 C257 0.950 . S
H252 C258 0.949 . S
C253 H248 0.950 . S
C253 C255 1.327 . S
C253 C259 1.429 . S
C254 C246 1.574 . S
C254 H249 0.949 . S
C254 C260 1.368 . S
C255 C239 1.349 . S
C255 H247 0.950 1_554 S
C255 C253 1.327 . S
C256 C244 1.349 . S
C256 H250 0.950 . S
C256 C257 1.327 . S
C257 H251 0.950 . S
C257 C256 1.327 . S
C257 C261 1.429 . S
C258 C241 1.574 . S
C258 H252 0.949 . S
C258 C262 1.368 . S
C259 C240 1.429 . S
C259 C253 1.429 . S
C259 C260 1.523 . S
C260 C241 1.368 . S
C260 C254 1.368 . S
C260 C259 1.523 . S
C261 C245 1.429 . S
C261 C257 1.429 . S
C261 C262 1.523 . S
C262 C246 1.368 . S
C262 C258 1.368 . S
C262 C261 1.523 . S
H263 C238 0.950 . S
H264 C240 0.950 . S
H265 C241 0.949 . S
H266 C243 0.950 . S
H267 C245 0.950 . S
C268 C269 1.349 . S
C268 C270 1.327 . S
C268 H293 0.950 . S
C269 C268 1.349 . S
C269 C285 1.349 . S
C270 C268 1.327 . S
C270 C289 1.429 . S
C270 H294 0.956 . S
C271 C288 1.574 1_455 S
C271 C290 1.368 . S
C271 H295 0.949 . S
H272 C276 0.949 . S
C273 C274 1.349 . S
C273 C275 1.327 . S
C273 H296 0.950 . S
C274 C273 1.349 . S
C274 C286 1.349 . S
C275 C273 1.327 . S
C275 C291 1.429 . S
C275 H297 0.956 . S
C276 H272 0.949 . S
C276 C284 1.574 1_655 S
C276 C292 1.368 . S
H277 C285 0.950 . S
H278 C283 0.950 . S
H279 C284 0.949 . S
H280 C286 0.950 . S
H281 C287 0.950 . S
H282 C288 0.949 . S
C283 H278 0.950 . S
C283 C285 1.327 . S
C283 C289 1.429 . S
C284 C276 1.574 1_455 S
C284 H279 0.949 . S
C284 C290 1.368 1_545 S
C285 C269 1.349 . S
C285 H277 0.950 . S
C285 C283 1.327 . S
C286 C274 1.349 . S
C286 H280 0.950 . S
C286 C287 1.327 . S
C287 H281 0.950 . S
C287 C286 1.327 . S
C287 C291 1.429 . S
C288 C271 1.574 1_655 S
C288 H282 0.949 . S
C288 C292 1.368 1_565 S
C289 C270 1.429 . S
C289 C283 1.429 . S
C289 C290 1.523 . S
C290 C271 1.368 . S
C290 C284 1.368 1_565 S
C290 C289 1.523 . S
C291 C275 1.429 . S
C291 C287 1.429 . S
C291 C292 1.523 . S
C292 C276 1.368 . S
C292 C288 1.368 1_545 S
C292 C291 1.523 . S
H293 C268 0.950 . S
H294 C270 0.956 . S
H295 C271 0.949 . S
H296 C273 0.950 . S
H297 C275 0.956 . S
C298 C299 1.349 . S
C298 C300 1.327 . S
C298 H323 0.950 . S
C299 C298 1.349 . S
C299 C315 1.349 . S
C300 C298 1.327 . S
C300 C319 1.429 . S
C300 H324 0.950 . S
C301 C318 1.574 . S
C301 C320 1.368 . S
C301 H325 0.949 . S
H302 C306 0.949 . S
C303 C304 1.349 . S
C303 C305 1.327 . S
C303 H326 0.950 . S
C304 C303 1.349 . S
C304 C316 1.349 . S
C305 C303 1.327 . S
C305 C321 1.429 . S
C305 H327 0.950 . S
C306 H302 0.949 . S
C306 C314 1.574 . S
C306 C322 1.368 . S
H307 C315 0.950 . S
H308 C313 0.950 . S
H309 C314 0.949 . S
H310 C316 0.950 1_554 S
H311 C317 0.950 . S
H312 C318 0.949 . S
C313 H308 0.950 . S
C313 C315 1.327 . S
C313 C319 1.429 . S
C314 C306 1.574 . S
C314 H309 0.949 . S
C314 C320 1.368 . S
C315 C299 1.349 . S
C315 H307 0.950 . S
C315 C313 1.327 . S
C316 C304 1.349 . S
C316 H310 0.950 1_556 S
C316 C317 1.327 . S
C317 H311 0.950 . S
C317 C316 1.327 . S
C317 C321 1.429 . S
C318 C301 1.574 . S
C318 H312 0.949 . S
C318 C322 1.368 . S
C319 C300 1.429 . S
C319 C313 1.429 . S
C319 C320 1.523 . S
C320 C301 1.368 . S
C320 C314 1.368 . S
C320 C319 1.523 . S
C321 C305 1.429 . S
C321 C317 1.429 . S
C321 C322 1.523 . S
C322 C306 1.368 . S
C322 C318 1.368 . S
C322 C321 1.523 . S
H323 C298 0.950 . S
H324 C300 0.950 . S
H325 C301 0.949 . S
H326 C303 0.950 . S
H327 C305 0.950 . S
C328 C329 1.349 . S
C328 C330 1.327 . S
C328 H353 0.950 . S
C329 C328 1.349 . S
C329 C345 1.349 1_556 S
C330 C328 1.327 . S
C330 C349 1.429 . S
C330 H354 0.950 . S
C331 C348 1.574 . S
C331 C350 1.368 . S
C331 H355 0.949 . S
H332 C336 0.949 . S
C333 C334 1.349 . S
C333 C335 1.327 . S
C333 H356 0.950 . S
C334 C333 1.349 . S
C334 C346 1.349 . S
C335 C333 1.327 . S
C335 C351 1.429 . S
C335 H357 0.950 . S
C336 H332 0.949 . S
C336 C344 1.574 . S
C336 C352 1.368 . S
H337 C345 0.950 . S
H338 C343 0.950 1_554 S
H339 C344 0.949 . S
H340 C346 0.950 . S
H341 C347 0.950 . S
H342 C348 0.949 . S
C343 H338 0.950 1_556 S
C343 C345 1.327 1_556 S
C343 C349 1.429 . S
C344 C336 1.574 . S
C344 H339 0.949 . S
C344 C350 1.368 . S
C345 C329 1.349 1_554 S
C345 H337 0.950 . S
C345 C343 1.327 1_554 S
C346 C334 1.349 . S
C346 H340 0.950 . S
C346 C347 1.327 . S
C347 H341 0.950 . S
C347 C346 1.327 . S
C347 C351 1.429 . S
C348 C331 1.574 . S
C348 H342 0.949 . S
C348 C352 1.368 . S
C349 C330 1.429 . S
C349 C343 1.429 . S
C349 C350 1.523 . S
C350 C331 1.368 . S
C350 C344 1.368 . S
C350 C349 1.523 . S
C351 C335 1.429 . S
C351 C347 1.429 . S
C351 C352 1.523 . S
C352 C336 1.368 . S
C352 C348 1.368 . S
C352 C351 1.523 . S
H353 C328 0.950 . S
H354 C330 0.950 . S
H355 C331 0.949 . S
H356 C333 0.950 . S
H357 C335 0.950 . S
C358 C359 1.349 . S
C358 C360 1.327 . S
C358 H383 0.950 . S
C359 C358 1.349 . S
C359 C375 1.349 . S
C360 C358 1.327 . S
C360 C379 1.429 . S
C360 H384 0.950 . S
C361 C378 1.574 . S
C361 C380 1.368 . S
C361 H385 0.949 . S
H362 C366 0.949 . S
C363 C364 1.349 1_556 S
C363 C365 1.327 1_556 S
C363 H386 0.950 . S
C364 C363 1.349 1_554 S
C364 C376 1.349 . S
C365 C363 1.327 1_554 S
C365 C381 1.429 . S
C365 H387 0.950 1_554 S
C366 H362 0.949 . S
C366 C374 1.574 . S
C366 C382 1.368 . S
H367 C375 0.950 . S
H368 C373 0.950 . S
H369 C374 0.949 . S
H370 C376 0.950 . S
H371 C377 0.950 . S
H372 C378 0.949 . S
C373 H368 0.950 . S
C373 C375 1.327 . S
C373 C379 1.429 . S
C374 C366 1.574 . S
C374 H369 0.949 . S
C374 C380 1.368 . S
C375 C359 1.349 . S
C375 H367 0.950 . S
C375 C373 1.327 . S
C376 C364 1.349 . S
C376 H370 0.950 . S
C376 C377 1.327 . S
C377 H371 0.950 . S
C377 C376 1.327 . S
C377 C381 1.429 . S
C378 C361 1.574 . S
C378 H372 0.949 . S
C378 C382 1.368 . S
C379 C360 1.429 . S
C379 C373 1.429 . S
C379 C380 1.523 . S
C380 C361 1.368 . S
C380 C374 1.368 . S
C380 C379 1.523 . S
C381 C365 1.429 . S
C381 C377 1.429 . S
C381 C382 1.523 . S
C382 C366 1.368 . S
C382 C378 1.368 . S
C382 C381 1.523 . S
H383 C358 0.950 . S
H384 C360 0.950 . S
H385 C361 0.949 . S
H386 C363 0.950 . S
H387 C365 0.950 1_556 S
C388 C389 1.349 . S
C388 C390 1.327 . S
C388 H413 0.950 . S
C389 C388 1.349 . S
C389 C405 1.349 . S
C390 C388 1.327 . S
C390 C409 1.429 . S
C390 H414 0.950 . S
C391 C408 1.571 . S
C391 C410 1.370 1_455 S
C391 H415 0.949 1_455 S
H392 C396 0.949 1_455 S
C393 C394 1.349 . S
C393 C395 1.327 . S
C393 H416 0.950 . S
C394 C393 1.349 . S
C394 C406 1.349 . S
C395 C393 1.327 . S
C395 C411 1.429 . S
C395 H417 0.950 . S
C396 H392 0.949 1_655 S
C396 C404 1.571 . S
C396 C412 1.370 1_655 S
H397 C405 0.950 . S
H398 C403 0.950 . S
H399 C404 0.949 . S
H400 C406 0.950 . S
H401 C407 0.950 . S
H402 C408 0.949 . S
C403 H398 0.950 . S
C403 C405 1.327 . S
C403 C409 1.429 . S
C404 C396 1.571 . S
C404 H399 0.949 . S
C404 C410 1.368 . S
C405 C389 1.349 . S
C405 H397 0.950 . S
C405 C403 1.327 . S
C406 C394 1.349 . S
C406 H400 0.950 . S
C406 C407 1.327 . S
C407 H401 0.950 . S
C407 C406 1.327 . S
C407 C411 1.429 . S
C408 C391 1.571 . S
C408 H402 0.949 . S
C408 C412 1.368 . S
C409 C390 1.429 . S
C409 C403 1.429 . S
C409 C410 1.523 . S
C410 C391 1.370 1_655 S
C410 C404 1.368 . S
C410 C409 1.523 . S
C411 C395 1.429 . S
C411 C407 1.429 . S
C411 C412 1.523 . S
C412 C396 1.370 1_455 S
C412 C408 1.368 . S
C412 C411 1.523 . S
H413 C388 0.950 . S
H414 C390 0.950 . S
H415 C391 0.949 1_655 S
H416 C393 0.950 . S
H417 C395 0.950 . S
C418 C419 1.349 . S
C418 C420 1.327 . S
C418 H443 0.950 . S
C419 C418 1.349 . S
C419 C435 1.349 . S
C420 C418 1.327 . S
C420 C439 1.429 . S
C420 H444 0.950 1_556 S
C421 C438 1.574 . S
C421 C440 1.368 . S
C421 H445 0.949 . S
H422 C426 0.949 . S
C423 C424 1.349 . S
C423 C425 1.327 . S
C423 H446 0.950 . S
C424 C423 1.349 . S
C424 C436 1.349 . S
C425 C423 1.327 . S
C425 C441 1.429 . S
C425 H447 0.950 1_554 S
C426 H422 0.949 . S
C426 C434 1.574 . S
C426 C442 1.368 . S
H427 C435 0.950 . S
H428 C433 0.950 . S
H429 C434 0.949 . S
H430 C436 0.950 . S
H431 C437 0.950 . S
H432 C438 0.949 . S
C433 H428 0.950 . S
C433 C435 1.327 . S
C433 C439 1.429 . S
C434 C426 1.574 . S
C434 H429 0.949 . S
C434 C440 1.368 1_554 S
C435 C419 1.349 . S
C435 H427 0.950 . S
C435 C433 1.327 . S
C436 C424 1.349 . S
C436 H430 0.950 . S
C436 C437 1.327 . S
C437 H431 0.950 . S
C437 C436 1.327 . S
C437 C441 1.429 . S
C438 C421 1.574 . S
C438 H432 0.949 . S
C438 C442 1.368 1_556 S
C439 C420 1.429 . S
C439 C433 1.429 . S
C439 C440 1.523 . S
C440 C421 1.368 . S
C440 C434 1.368 1_556 S
C440 C439 1.523 . S
C441 C425 1.429 . S
C441 C437 1.429 . S
C441 C442 1.523 . S
C442 C426 1.368 . S
C442 C438 1.368 1_554 S
C442 C441 1.523 . S
H443 C418 0.950 . S
H444 C420 0.950 1_554 S
H445 C421 0.949 . S
H446 C423 0.950 . S
H447 C425 0.950 1_556 S
C448 C449 1.349 . S
C448 C450 1.327 . S
C448 H473 0.950 . S
C449 C448 1.349 . S
C449 C465 1.349 . S
C450 C448 1.327 . S
C450 C469 1.429 . S
C450 H474 0.950 . S
C451 C468 1.574 . S
C451 C470 1.368 . S
C451 H475 0.949 . S
H452 C456 0.949 . S
C453 C454 1.349 . S
C453 C455 1.327 . S
C453 H476 0.950 . S
C454 C453 1.349 . S
C454 C466 1.349 . S
C455 C453 1.327 . S
C455 C471 1.429 . S
C455 H477 0.950 . S
C456 H452 0.949 . S
C456 C464 1.574 . S
C456 C472 1.368 . S
H457 C465 0.950 . S
H458 C463 0.950 . S
H459 C464 0.949 . S
H460 C466 0.950 . S
H461 C467 0.950 . S
H462 C468 0.949 . S
C463 H458 0.950 . S
C463 C465 1.327 . S
C463 C469 1.429 . S
C464 C456 1.574 . S
C464 H459 0.949 . S
C464 C470 1.368 . S
C465 C449 1.349 . S
C465 H457 0.950 . S
C465 C463 1.327 . S
C466 C454 1.349 . S
C466 H460 0.950 . S
C466 C467 1.327 . S
C467 H461 0.950 . S
C467 C466 1.327 . S
C467 C471 1.429 . S
C468 C451 1.574 . S
C468 H462 0.949 . S
C468 C472 1.368 . S
C469 C450 1.429 . S
C469 C463 1.429 . S
C469 C470 1.523 . S
C470 C451 1.368 . S
C470 C464 1.368 . S
C470 C469 1.523 . S
C471 C455 1.429 . S
C471 C467 1.429 . S
C471 C472 1.523 . S
C472 C456 1.368 . S
C472 C468 1.368 . S
C472 C471 1.523 . S
H473 C448 0.950 . S
H474 C450 0.950 . S
H475 C451 0.949 . S
H476 C453 0.950 . S
H477 C455 0.950 . S
C478 C479 1.349 . S
C478 C480 1.327 . S
C478 H503 0.950 . S
C479 C478 1.349 . S
C479 C495 1.349 . S
C480 C478 1.327 . S
C480 C499 1.429 . S
C480 H504 0.950 . S
C481 C498 1.574 . S
C481 C500 1.368 . S
C481 H505 0.949 . S
H482 C486 0.949 . S
C483 C484 1.349 . S
C483 C485 1.327 . S
C483 H506 0.950 . S
C484 C483 1.349 . S
C484 C496 1.349 . S
C485 C483 1.327 . S
C485 C501 1.429 . S
C485 H507 0.950 . S
C486 H482 0.949 . S
C486 C494 1.574 . S
C486 C502 1.368 . S
H487 C495 0.950 . S
H488 C493 0.950 . S
H489 C494 0.949 . S
H490 C496 0.950 . S
H491 C497 0.950 . S
H492 C498 0.949 . S
C493 H488 0.950 . S
C493 C495 1.327 . S
C493 C499 1.429 . S
C494 C486 1.574 . S
C494 H489 0.949 . S
C494 C500 1.368 . S
C495 C479 1.349 . S
C495 H487 0.950 . S
C495 C493 1.327 . S
C496 C484 1.349 . S
C496 H490 0.950 . S
C496 C497 1.327 . S
C497 H491 0.950 . S
C497 C496 1.327 . S
C497 C501 1.429 . S
C498 C481 1.574 . S
C498 H492 0.949 . S
C498 C502 1.368 . S
C499 C480 1.429 . S
C499 C493 1.429 . S
C499 C500 1.523 . S
C500 C481 1.368 . S
C500 C494 1.368 . S
C500 C499 1.523 . S
C501 C485 1.429 . S
C501 C497 1.429 . S
C501 C502 1.523 . S
C502 C486 1.368 . S
C502 C498 1.368 . S
C502 C501 1.523 . S
H503 C478 0.950 . S
H504 C480 0.950 . S
H505 C481 0.949 . S
H506 C483 0.950 . S
H507 C485 0.950 . S
C508 C509 1.349 . S
C508 C510 1.327 . S
C508 H533 0.950 . S
C509 C508 1.349 . S
C509 C525 1.349 . S
C510 C508 1.327 . S
C510 C529 1.429 . S
C510 H534 0.950 . S
C511 C528 1.574 . S
C511 C530 1.368 . S
C511 H535 0.949 . S
H512 C516 0.949 . S
C513 C514 1.349 . S
C513 C515 1.327 . S
C513 H536 0.950 . S
C514 C513 1.349 . S
C514 C526 1.349 . S
C515 C513 1.327 . S
C515 C531 1.429 . S
C515 H537 0.950 . S
C516 H512 0.949 . S
C516 C524 1.574 . S
C516 C532 1.368 . S
H517 C525 0.950 . S
H518 C523 0.950 . S
H519 C524 0.949 . S
H520 C526 0.950 . S
H521 C527 0.950 . S
H522 C528 0.949 . S
C523 H518 0.950 . S
C523 C525 1.327 . S
C523 C529 1.429 . S
C524 C516 1.574 . S
C524 H519 0.949 . S
C524 C530 1.368 . S
C525 C509 1.349 . S
C525 H517 0.950 . S
C525 C523 1.327 . S
C526 C514 1.349 . S
C526 H520 0.950 . S
C526 C527 1.327 . S
C527 H521 0.950 . S
C527 C526 1.327 . S
C527 C531 1.429 . S
C528 C511 1.574 . S
C528 H522 0.949 . S
C528 C532 1.368 . S
C529 C510 1.429 . S
C529 C523 1.429 . S
C529 C530 1.523 . S
C530 C511 1.368 . S
C530 C524 1.368 . S
C530 C529 1.523 . S
C531 C515 1.429 . S
C531 C527 1.429 . S
C531 C532 1.523 . S
C532 C516 1.368 . S
C532 C528 1.368 . S
C532 C531 1.523 . S
H533 C508 0.950 . S
H534 C510 0.950 . S
H535 C511 0.949 . S
H536 C513 0.950 . S
H537 C515 0.950 . S
C538 C539 1.335 1_455 S
C538 C540 1.327 . S
C538 H563 0.950 . S
C539 C538 1.335 1_655 S
C539 C555 1.344 1_654 S
C540 C538 1.327 . S
C540 C559 1.429 1_554 S
C540 H564 0.950 . S
C541 C558 1.574 . S
C541 C560 1.368 . S
C541 H565 0.949 . S
H542 C546 0.949 1_554 S
C543 C544 1.349 . S
C543 C545 1.327 . S
C543 H566 0.950 . S
C544 C543 1.349 . S
C544 C556 1.349 . S
C545 C543 1.327 . S
C545 C561 1.429 . S
C545 H567 0.950 . S
C546 H542 0.949 1_556 S
C546 C554 1.574 1_556 S
C546 C562 1.368 . S
H547 C555 0.950 1_655 S
H548 C553 0.950 . S
H549 C554 0.949 . S
H550 C556 0.950 . S
H551 C557 0.950 1_554 S
H552 C558 0.949 . S
C553 H548 0.950 . S
C553 C555 1.327 . S
C553 C559 1.429 . S
C554 C546 1.574 1_554 S
C554 H549 0.949 . S
C554 C560 1.368 1_554 S
C555 C539 1.344 1_456 S
C555 H547 0.950 1_455 S
C555 C553 1.327 . S
C556 C544 1.349 . S
C556 H550 0.950 . S
C556 C557 1.327 . S
C557 H551 0.950 1_556 S
C557 C556 1.327 . S
C557 C561 1.429 . S
C558 C541 1.574 . S
C558 H552 0.949 . S
C558 C562 1.368 . S
C559 C540 1.429 1_556 S
C559 C553 1.429 . S
C559 C560 1.523 . S
C560 C541 1.368 . S
C560 C554 1.368 1_556 S
C560 C559 1.523 . S
C561 C545 1.429 . S
C561 C557 1.429 . S
C561 C562 1.523 . S
C562 C546 1.368 . S
C562 C558 1.368 . S
C562 C561 1.523 . S
H563 C538 0.950 . S
H564 C540 0.950 . S
H565 C541 0.949 . S
H566 C543 0.950 . S
H567 C545 0.950 . S
C568 C569 1.349 1_554 S
C568 C570 1.327 1_554 S
C568 H593 0.950 . S
C569 C568 1.349 1_556 S
C569 C585 1.349 . S
C570 C568 1.327 1_556 S
C570 C589 1.429 . S
C570 H594 0.950 1_556 S
C571 C588 1.574 . S
C571 C590 1.368 . S
C571 H595 0.949 . S
H572 C576 0.949 . S
C573 C574 1.349 . S
C573 C575 1.327 . S
C573 H596 0.950 . S
C574 C573 1.349 . S
C574 C586 1.349 . S
C575 C573 1.327 . S
C575 C591 1.429 . S
C575 H597 0.950 . S
C576 H572 0.949 . S
C576 C584 1.574 . S
C576 C592 1.368 . S
H577 C585 0.950 . S
H578 C583 0.950 . S
H579 C584 0.949 1_554 S
H580 C586 0.950 . S
H581 C587 0.950 . S
H582 C588 0.949 . S
C583 H578 0.950 . S
C583 C585 1.327 . S
C583 C589 1.429 . S
C584 C576 1.574 . S
C584 H579 0.949 1_556 S
C584 C590 1.368 . S
C585 C569 1.349 . S
C585 H577 0.950 . S
C585 C583 1.327 . S
C586 C574 1.349 . S
C586 H580 0.950 . S
C586 C587 1.327 . S
C587 H581 0.950 . S
C587 C586 1.327 . S
C587 C591 1.429 . S
C588 C571 1.574 . S
C588 H582 0.949 . S
C588 C592 1.368 . S
C589 C570 1.429 . S
C589 C583 1.429 . S
C589 C590 1.523 . S
C590 C571 1.368 . S
C590 C584 1.368 . S
C590 C589 1.523 . S
C591 C575 1.429 . S
C591 C587 1.429 . S
C591 C592 1.523 . S
C592 C576 1.368 . S
C592 C588 1.368 . S
C592 C591 1.523 . S
H593 C568 0.950 . S
H594 C570 0.950 1_554 S
H595 C571 0.949 . S
H596 C573 0.950 . S
H597 C575 0.950 . S
C598 C599 1.349 . S
C598 C600 1.327 . S
C598 H623 0.950 . S
C599 C598 1.349 . S
C599 C615 1.349 . S
C600 C598 1.327 . S
C600 C619 1.429 . S
C600 H624 0.950 . S
C601 C618 1.574 . S
C601 C620 1.368 . S
C601 H625 0.949 . S
H602 C606 0.949 . S
C603 C604 1.349 . S
C603 C605 1.327 . S
C603 H626 0.950 . S
C604 C603 1.349 . S
C604 C616 1.349 . S
C605 C603 1.327 . S
C605 C621 1.429 . S
C605 H627 0.950 . S
C606 H602 0.949 . S
C606 C614 1.574 . S
C606 C622 1.368 . S
H607 C615 0.950 . S
H608 C613 0.950 . S
H609 C614 0.949 . S
H610 C616 0.950 . S
H611 C617 0.950 . S
H612 C618 0.949 . S
C613 H608 0.950 . S
C613 C615 1.327 . S
C613 C619 1.429 . S
C614 C606 1.574 . S
C614 H609 0.949 . S
C614 C620 1.368 . S
C615 C599 1.349 . S
C615 H607 0.950 . S
C615 C613 1.327 . S
C616 C604 1.349 . S
C616 H610 0.950 . S
C616 C617 1.327 . S
C617 H611 0.950 . S
C617 C616 1.327 . S
C617 C621 1.429 . S
C618 C601 1.574 . S
C618 H612 0.949 . S
C618 C622 1.368 . S
C619 C600 1.429 . S
C619 C613 1.429 . S
C619 C620 1.523 . S
C620 C601 1.368 . S
C620 C614 1.368 . S
C620 C619 1.523 . S
C621 C605 1.429 . S
C621 C617 1.429 . S
C621 C622 1.523 . S
C622 C606 1.368 . S
C622 C618 1.368 . S
C622 C621 1.523 . S
H623 C598 0.950 . S
H624 C600 0.950 . S
H625 C601 0.949 . S
H626 C603 0.950 . S
H627 C605 0.950 . S
C628 C629 1.349 . S
C628 C630 1.327 . S
C628 H653 0.950 . S
C629 C628 1.349 . S
C629 C645 1.349 . S
C630 C628 1.327 . S
C630 C649 1.429 . S
C630 H654 0.950 . S
C631 C648 1.574 . S
C631 C650 1.368 . S
C631 H655 0.949 . S
H632 C636 0.949 . S
C633 C634 1.349 . S
C633 C635 1.327 . S
C633 H656 0.950 . S
C634 C633 1.349 . S
C634 C646 1.349 . S
C635 C633 1.327 . S
C635 C651 1.429 . S
C635 H657 0.950 . S
C636 H632 0.949 . S
C636 C644 1.574 . S
C636 C652 1.368 . S
H637 C645 0.950 . S
H638 C643 0.950 . S
H639 C644 0.949 . S
H640 C646 0.950 . S
H641 C647 0.950 . S
H642 C648 0.949 . S
C643 H638 0.950 . S
C643 C645 1.327 . S
C643 C649 1.429 . S
C644 C636 1.574 . S
C644 H639 0.949 . S
C644 C650 1.368 . S
C645 C629 1.349 . S
C645 H637 0.950 . S
C645 C643 1.327 . S
C646 C634 1.349 . S
C646 H640 0.950 . S
C646 C647 1.327 . S
C647 H641 0.950 . S
C647 C646 1.327 . S
C647 C651 1.429 . S
C648 C631 1.574 . S
C648 H642 0.949 . S
C648 C652 1.368 . S
C649 C630 1.429 . S
C649 C643 1.429 . S
C649 C650 1.523 . S
C650 C631 1.368 . S
C650 C644 1.368 . S
C650 C649 1.523 . S
C651 C635 1.429 . S
C651 C647 1.429 . S
C651 C652 1.523 . S
C652 C636 1.368 . S
C652 C648 1.368 . S
C652 C651 1.523 . S
H653 C628 0.950 . S
H654 C630 0.950 . S
H655 C631 0.949 . S
H656 C633 0.950 . S
H657 C635 0.950 . S
C658 C659 1.334 1_654 S
C658 C660 1.327 . S
C658 H683 0.950 . S
C659 C658 1.334 1_456 S
C659 C675 1.345 1_455 S
C660 C658 1.327 . S
C660 C679 1.429 . S
C660 H684 0.950 . S
C661 C678 1.574 . S
C661 C680 1.368 . S
C661 H685 0.949 1_554 S
H662 C666 0.949 . S
C663 C664 1.349 . S
C663 C665 1.327 . S
C663 H686 0.950 . S
C664 C663 1.349 . S
C664 C676 1.349 . S
C665 C663 1.327 . S
C665 C681 1.429 . S
C665 H687 0.950 . S
C666 H662 0.949 . S
C666 C674 1.574 . S
C666 C682 1.368 . S
H667 C675 0.950 1_455 S
H668 C673 0.950 . S
H669 C674 0.949 . S
H670 C676 0.950 . S
H671 C677 0.950 . S
H672 C678 0.949 . S
C673 H668 0.950 . S
C673 C675 1.327 . S
C673 C679 1.429 1_556 S
C674 C666 1.574 . S
C674 H669 0.949 . S
C674 C680 1.368 . S
C675 C659 1.345 1_655 S
C675 H667 0.950 1_655 S
C675 C673 1.327 . S
C676 C664 1.349 . S
C676 H670 0.950 . S
C676 C677 1.327 . S
C677 H671 0.950 . S
C677 C676 1.327 . S
C677 C681 1.429 . S
C678 C661 1.574 . S
C678 H672 0.949 . S
C678 C682 1.368 . S
C679 C660 1.429 . S
C679 C673 1.429 1_554 S
C679 C680 1.523 . S
C680 C661 1.368 . S
C680 C674 1.368 . S
C680 C679 1.523 . S
C681 C665 1.429 . S
C681 C677 1.429 . S
C681 C682 1.523 . S
C682 C666 1.368 . S
C682 C678 1.368 . S
C682 C681 1.523 . S
H683 C658 0.950 . S
H684 C660 0.950 . S
H685 C661 0.949 1_556 S
H686 C663 0.950 . S
H687 C665 0.950 . S
C688 C689 1.349 . S
C688 C690 1.327 . S
C688 H713 0.950 . S
C689 C688 1.349 . S
C689 C705 1.349 . S
C690 C688 1.327 . S
C690 C709 1.429 . S
C690 H714 0.950 . S
C691 C708 1.574 . S
C691 C710 1.368 . S
C691 H715 0.949 . S
H692 C696 0.949 . S
C693 C694 1.349 . S
C693 C695 1.327 . S
C693 H716 0.950 . S
C694 C693 1.349 . S
C694 C706 1.349 . S
C695 C693 1.327 . S
C695 C711 1.429 . S
C695 H717 0.950 . S
C696 H692 0.949 . S
C696 C704 1.574 . S
C696 C712 1.368 . S
H697 C705 0.950 . S
H698 C703 0.950 . S
H699 C704 0.949 . S
H700 C706 0.950 . S
H701 C707 0.950 . S
H702 C708 0.949 . S
C703 H698 0.950 . S
C703 C705 1.327 . S
C703 C709 1.429 . S
C704 C696 1.574 . S
C704 H699 0.949 . S
C704 C710 1.368 . S
C705 C689 1.349 . S
C705 H697 0.950 . S
C705 C703 1.327 . S
C706 C694 1.349 . S
C706 H700 0.950 . S
C706 C707 1.327 . S
C707 H701 0.950 . S
C707 C706 1.327 . S
C707 C711 1.429 . S
C708 C691 1.574 . S
C708 H702 0.949 . S
C708 C712 1.368 . S
C709 C690 1.429 . S
C709 C703 1.429 . S
C709 C710 1.523 . S
C710 C691 1.368 . S
C710 C704 1.368 . S
C710 C709 1.523 . S
C711 C695 1.429 . S
C711 C707 1.429 . S
C711 C712 1.523 . S
C712 C696 1.368 . S
C712 C708 1.368 . S
C712 C711 1.523 . S
H713 C688 0.950 . S
H714 C690 0.950 . S
H715 C691 0.949 . S
H716 C693 0.950 . S
H717 C695 0.950 . S
C718 C719 1.349 . S
C718 C720 1.327 . S
C718 H743 0.950 . S
C719 C718 1.349 . S
C719 C735 1.349 . S
C720 C718 1.327 . S
C720 C739 1.429 . S
C720 H744 0.950 . S
C721 C738 1.574 . S
C721 C740 1.368 . S
C721 H745 0.949 . S
H722 C726 0.949 1_554 S
C723 C724 1.333 1_656 S
C723 C725 1.327 . S
C723 H746 0.950 . S
C724 C723 1.333 1_454 S
C724 C736 1.346 1_445 S
C725 C723 1.327 . S
C725 C741 1.429 1_545 S
C725 H747 0.950 . S
C726 H722 0.949 1_556 S
C726 C734 1.574 . S
C726 C742 1.368 . S
H727 C735 0.950 . S
H728 C733 0.950 . S
H729 C734 0.949 . S
H730 C736 0.950 1_455 S
H731 C737 0.950 . S
H732 C738 0.949 1_545 S
C733 H728 0.950 . S
C733 C735 1.327 . S
C733 C739 1.429 . S
C734 C726 1.574 . S
C734 H729 0.949 . S
C734 C740 1.368 . S
C735 C719 1.349 . S
C735 H727 0.950 . S
C735 C733 1.327 . S
C736 C724 1.346 1_665 S
C736 H730 0.950 1_655 S
C736 C737 1.327 . S
C737 H731 0.950 . S
C737 C736 1.327 . S
C737 C741 1.429 1_554 S
C738 C721 1.574 . S
C738 H732 0.949 1_565 S
C738 C742 1.368 . S
C739 C720 1.429 . S
C739 C733 1.429 . S
C739 C740 1.523 . S
C740 C721 1.368 . S
C740 C734 1.368 . S
C740 C739 1.523 . S
C741 C725 1.429 1_565 S
C741 C737 1.429 1_556 S
C741 C742 1.523 . S
C742 C726 1.368 . S
C742 C738 1.368 . S
C742 C741 1.523 . S
H743 C718 0.950 . S
H744 C720 0.950 . S
H745 C721 0.949 . S
H746 C723 0.950 . S
H747 C725 0.950 . S
C748 C749 1.349 . S
C748 C750 1.327 . S
C748 H773 0.950 . S
C749 C748 1.349 . S
C749 C765 1.349 1_554 S
C750 C748 1.327 . S
C750 C769 1.429 . S
C750 H774 0.950 . S
C751 C768 1.574 . S
C751 C770 1.368 . S
C751 H775 0.949 . S
H752 C756 0.949 . S
C753 C754 1.349 . S
C753 C755 1.327 . S
C753 H776 0.950 . S
C754 C753 1.349 . S
C754 C766 1.349 . S
C755 C753 1.327 . S
C755 C771 1.429 . S
C755 H777 0.950 . S
C756 H752 0.949 . S
C756 C764 1.574 . S
C756 C772 1.368 . S
H757 C765 0.950 . S
H758 C763 0.950 1_556 S
H759 C764 0.949 . S
H760 C766 0.950 . S
H761 C767 0.950 . S
H762 C768 0.949 . S
C763 H758 0.950 1_554 S
C763 C765 1.327 1_554 S
C763 C769 1.429 . S
C764 C756 1.574 . S
C764 H759 0.949 . S
C764 C770 1.368 . S
C765 C749 1.349 1_556 S
C765 H757 0.950 . S
C765 C763 1.327 1_556 S
C766 C754 1.349 . S
C766 H760 0.950 . S
C766 C767 1.327 . S
C767 H761 0.950 . S
C767 C766 1.327 . S
C767 C771 1.429 . S
C768 C751 1.574 . S
C768 H762 0.949 . S
C768 C772 1.368 . S
C769 C750 1.429 . S
C769 C763 1.429 . S
C769 C770 1.523 . S
C770 C751 1.368 . S
C770 C764 1.368 . S
C770 C769 1.523 . S
C771 C755 1.429 . S
C771 C767 1.429 . S
C771 C772 1.523 . S
C772 C756 1.368 . S
C772 C768 1.368 . S
C772 C771 1.523 . S
H773 C748 0.950 . S
H774 C750 0.950 . S
H775 C751 0.949 . S
H776 C753 0.950 . S
H777 C755 0.950 . S
C778 C779 1.349 . S
C778 C780 1.327 . S
C778 H803 0.950 . S
C779 C778 1.349 . S
C779 C795 1.349 . S
C780 C778 1.327 . S
C780 C799 1.429 1_565 S
C780 H804 0.950 1_565 S
C781 C798 1.574 . S
C781 C800 1.368 . S
C781 H805 0.949 . S
H782 C786 0.949 . S
C783 C784 1.349 . S
C783 C785 1.327 . S
C783 H806 0.950 . S
C784 C783 1.349 . S
C784 C796 1.349 . S
C785 C783 1.327 . S
C785 C801 1.429 . S
C785 H807 0.950 . S
C786 H782 0.949 . S
C786 C794 1.574 . S
C786 C802 1.368 . S
H787 C795 0.950 . S
H788 C793 0.950 . S
H789 C794 0.949 . S
H790 C796 0.950 . S
H791 C797 0.950 . S
H792 C798 0.949 . S
C793 H788 0.950 . S
C793 C795 1.327 1_545 S
C793 C799 1.429 . S
C794 C786 1.574 . S
C794 H789 0.949 . S
C794 C800 1.368 . S
C795 C779 1.349 . S
C795 H787 0.950 . S
C795 C793 1.327 1_565 S
C796 C784 1.349 . S
C796 H790 0.950 . S
C796 C797 1.327 . S
C797 H791 0.950 . S
C797 C796 1.327 . S
C797 C801 1.429 . S
C798 C781 1.574 . S
C798 H792 0.949 . S
C798 C802 1.368 . S
C799 C780 1.429 1_545 S
C799 C793 1.429 . S
C799 C800 1.523 . S
C800 C781 1.368 . S
C800 C794 1.368 . S
C800 C799 1.523 . S
C801 C785 1.429 . S
C801 C797 1.429 . S
C801 C802 1.523 . S
C802 C786 1.368 . S
C802 C798 1.368 . S
C802 C801 1.523 . S
H803 C778 0.950 . S
H804 C780 0.950 1_545 S
H805 C781 0.949 . S
H806 C783 0.950 . S
H807 C785 0.950 . S
C808 C809 1.349 . S
C808 C810 1.327 . S
C808 H833 0.950 . S
C809 C808 1.349 . S
C809 C825 1.349 . S
C810 C808 1.327 . S
C810 C829 1.429 . S
C810 H834 0.950 . S
C811 C828 1.574 . S
C811 C830 1.368 . S
C811 H835 0.949 . S
H812 C816 0.949 . S
C813 C814 1.349 . S
C813 C815 1.327 . S
C813 H836 0.950 . S
C814 C813 1.349 . S
C814 C826 1.349 . S
C815 C813 1.327 . S
C815 C831 1.429 . S
C815 H837 0.950 . S
C816 H812 0.949 . S
C816 C824 1.574 . S
C816 C832 1.368 . S
H817 C825 0.950 . S
H818 C823 0.950 . S
H819 C824 0.949 . S
H820 C826 0.950 . S
H821 C827 0.950 . S
H822 C828 0.949 . S
C823 H818 0.950 . S
C823 C825 1.327 . S
C823 C829 1.429 . S
C824 C816 1.574 . S
C824 H819 0.949 . S
C824 C830 1.368 . S
C825 C809 1.349 . S
C825 H817 0.950 . S
C825 C823 1.327 . S
C826 C814 1.349 . S
C826 H820 0.950 . S
C826 C827 1.327 . S
C827 H821 0.950 . S
C827 C826 1.327 . S
C827 C831 1.429 . S
C828 C811 1.574 . S
C828 H822 0.949 . S
C828 C832 1.368 . S
C829 C810 1.429 . S
C829 C823 1.429 . S
C829 C830 1.523 . S
C830 C811 1.368 . S
C830 C824 1.368 . S
C830 C829 1.523 . S
C831 C815 1.429 . S
C831 C827 1.429 . S
C831 C832 1.523 . S
C832 C816 1.368 . S
C832 C828 1.368 . S
C832 C831 1.523 . S
H833 C808 0.950 . S
H834 C810 0.950 . S
H835 C811 0.949 . S
H836 C813 0.950 . S
H837 C815 0.950 . S
C838 C839 1.346 1_445 S
C838 C840 1.327 . S
C838 H863 0.950 1_455 S
C839 C838 1.346 1_665 S
C839 C855 1.333 1_656 S
C840 C838 1.327 . S
C840 C859 1.429 1_556 S
C840 H864 0.950 . S
C841 C858 1.574 . S
C841 C860 1.368 . S
C841 H865 0.949 1_545 S
H842 C846 0.949 . S
C843 C844 1.349 . S
C843 C845 1.327 . S
C843 H866 0.950 . S
C844 C843 1.349 . S
C844 C856 1.349 . S
C845 C843 1.327 . S
C845 C861 1.429 . S
C845 H867 0.950 . S
C846 H842 0.949 . S
C846 C854 1.574 . S
C846 C862 1.368 . S
H847 C855 0.950 . S
H848 C853 0.950 . S
H849 C854 0.949 1_556 S
H850 C856 0.950 . S
H851 C857 0.950 . S
H852 C858 0.949 . S
C853 H848 0.950 . S
C853 C855 1.327 . S
C853 C859 1.429 1_565 S
C854 C846 1.574 . S
C854 H849 0.949 1_554 S
C854 C860 1.368 . S
C855 C839 1.333 1_454 S
C855 H847 0.950 . S
C855 C853 1.327 . S
C856 C844 1.349 . S
C856 H850 0.950 . S
C856 C857 1.327 . S
C857 H851 0.950 . S
C857 C856 1.327 . S
C857 C861 1.429 . S
C858 C841 1.574 . S
C858 H852 0.949 . S
C858 C862 1.368 . S
C859 C840 1.429 1_554 S
C859 C853 1.429 1_545 S
C859 C860 1.523 . S
C860 C841 1.368 . S
C860 C854 1.368 . S
C860 C859 1.523 . S
C861 C845 1.429 . S
C861 C857 1.429 . S
C861 C862 1.523 . S
C862 C846 1.368 . S
C862 C858 1.368 . S
C862 C861 1.523 . S
H863 C838 0.950 1_655 S
H864 C840 0.950 . S
H865 C841 0.949 1_565 S
H866 C843 0.950 . S
H867 C845 0.950 . S
C868 C869 1.349 . S
C868 C870 1.327 . S
C868 H893 0.950 . S
C869 C868 1.349 . S
C869 C885 1.349 . S
C870 C868 1.327 . S
C870 C889 1.429 . S
C870 H894 0.950 . S
C871 C888 1.574 . S
C871 C890 1.368 . S
C871 H895 0.949 . S
H872 C876 0.949 . S
C873 C874 1.349 . S
C873 C875 1.327 . S
C873 H896 0.950 . S
C874 C873 1.349 . S
C874 C886 1.349 . S
C875 C873 1.327 . S
C875 C891 1.429 . S
C875 H897 0.950 . S
C876 H872 0.949 . S
C876 C884 1.574 . S
C876 C892 1.368 . S
H877 C885 0.950 . S
H878 C883 0.950 . S
H879 C884 0.949 . S
H880 C886 0.950 . S
H881 C887 0.950 . S
H882 C888 0.949 . S
C883 H878 0.950 . S
C883 C885 1.327 . S
C883 C889 1.429 . S
C884 C876 1.574 . S
C884 H879 0.949 . S
C884 C890 1.368 . S
C885 C869 1.349 . S
C885 H877 0.950 . S
C885 C883 1.327 . S
C886 C874 1.349 . S
C886 H880 0.950 . S
C886 C887 1.327 . S
C887 H881 0.950 . S
C887 C886 1.327 . S
C887 C891 1.429 . S
C888 C871 1.574 . S
C888 H882 0.949 . S
C888 C892 1.368 . S
C889 C870 1.429 . S
C889 C883 1.429 . S
C889 C890 1.523 . S
C890 C871 1.368 . S
C890 C884 1.368 . S
C890 C889 1.523 . S
C891 C875 1.429 . S
C891 C887 1.429 . S
C891 C892 1.523 . S
C892 C876 1.368 . S
C892 C888 1.368 . S
C892 C891 1.523 . S
H893 C868 0.950 . S
H894 C870 0.950 . S
H895 C871 0.949 . S
H896 C873 0.950 . S
H897 C875 0.950 . S
C898 C899 1.349 . S
C898 C900 1.327 . S
C898 H923 0.950 . S
C899 C898 1.349 . S
C899 C915 1.349 . S
C900 C898 1.327 . S
C900 C919 1.429 . S
C900 H924 0.950 . S
C901 C918 1.574 . S
C901 C920 1.368 . S
C901 H925 0.949 . S
H902 C906 0.949 1_545 S
C903 C904 1.349 1_565 S
C903 C905 1.327 . S
C903 H926 0.950 . S
C904 C903 1.349 1_545 S
C904 C916 1.349 . S
C905 C903 1.327 . S
C905 C921 1.429 . S
C905 H927 0.950 . S
C906 H902 0.949 1_565 S
C906 C914 1.574 . S
C906 C922 1.368 . S
H907 C915 0.950 . S
H908 C913 0.950 . S
H909 C914 0.949 . S
H910 C916 0.950 . S
H911 C917 0.950 . S
H912 C918 0.949 . S
C913 H908 0.950 . S
C913 C915 1.327 . S
C913 C919 1.429 . S
C914 C906 1.574 . S
C914 H909 0.949 . S
C914 C920 1.368 . S
C915 C899 1.349 . S
C915 H907 0.950 . S
C915 C913 1.327 . S
C916 C904 1.349 . S
C916 H910 0.950 . S
C916 C917 1.327 . S
C917 H911 0.950 . S
C917 C916 1.327 . S
C917 C921 1.429 1_545 S
C918 C901 1.574 . S
C918 H912 0.949 . S
C918 C922 1.368 . S
C919 C900 1.429 . S
C919 C913 1.429 . S
C919 C920 1.523 . S
C920 C901 1.368 . S
C920 C914 1.368 . S
C920 C919 1.523 . S
C921 C905 1.429 . S
C921 C917 1.429 1_565 S
C921 C922 1.523 . S
C922 C906 1.368 . S
C922 C918 1.368 . S
C922 C921 1.523 . S
H923 C898 0.950 . S
H924 C900 0.950 . S
H925 C901 0.949 . S
H926 C903 0.950 . S
H927 C905 0.950 . S
C928 C929 1.349 . S
C928 C930 1.327 . S
C928 H953 0.950 . S
C929 C928 1.349 . S
C929 C945 1.349 . S
C930 C928 1.327 . S
C930 C949 1.429 . S
C930 H954 0.950 . S
C931 C948 1.574 . S
C931 C950 1.368 . S
C931 H955 0.949 . S
H932 C936 0.949 . S
C933 C934 1.349 . S
C933 C935 1.327 . S
C933 H956 0.950 . S
C934 C933 1.349 . S
C934 C946 1.349 . S
C935 C933 1.327 . S
C935 C951 1.429 . S
C935 H957 0.950 . S
C936 H932 0.949 . S
C936 C944 1.574 . S
C936 C952 1.368 . S
H937 C945 0.950 . S
H938 C943 0.950 . S
H939 C944 0.949 . S
H940 C946 0.950 . S
H941 C947 0.950 . S
H942 C948 0.949 . S
C943 H938 0.950 . S
C943 C945 1.327 . S
C943 C949 1.429 . S
C944 C936 1.574 . S
C944 H939 0.949 . S
C944 C950 1.368 . S
C945 C929 1.349 . S
C945 H937 0.950 . S
C945 C943 1.327 . S
C946 C934 1.349 . S
C946 H940 0.950 . S
C946 C947 1.327 . S
C947 H941 0.950 . S
C947 C946 1.327 . S
C947 C951 1.429 . S
C948 C931 1.574 . S
C948 H942 0.949 . S
C948 C952 1.368 . S
C949 C930 1.429 . S
C949 C943 1.429 . S
C949 C950 1.523 . S
C950 C931 1.368 . S
C950 C944 1.368 . S
C950 C949 1.523 . S
C951 C935 1.429 . S
C951 C947 1.429 . S
C951 C952 1.523 . S
C952 C936 1.368 . S
C952 C948 1.368 . S
C952 C951 1.523 . S
H953 C928 0.950 . S
H954 C930 0.950 . S
H955 C931 0.949 . S
H956 C933 0.950 . S
H957 C935 0.950 . S
C958 C959 1.349 . S
C958 C960 1.327 . S
C958 H983 0.950 . S
C959 C958 1.349 . S
C959 C975 1.349 . S
C960 C958 1.327 . S
C960 C979 1.429 . S
C960 H984 0.950 . S
C961 C978 1.574 . S
C961 C980 1.368 . S
C961 H985 0.949 . S
H962 C966 0.949 . S
C963 C964 1.349 . S
C963 C965 1.327 . S
C963 H986 0.950 . S
C964 C963 1.349 . S
C964 C976 1.349 . S
C965 C963 1.327 . S
C965 C981 1.429 . S
C965 H987 0.950 . S
C966 H962 0.949 . S
C966 C974 1.574 . S
C966 C982 1.368 . S
H967 C975 0.950 . S
H968 C973 0.950 . S
H969 C974 0.949 . S
H970 C976 0.950 . S
H971 C977 0.950 . S
H972 C978 0.949 . S
C973 H968 0.950 . S
C973 C975 1.327 . S
C973 C979 1.429 . S
C974 C966 1.574 . S
C974 H969 0.949 . S
C974 C980 1.368 . S
C975 C959 1.349 . S
C975 H967 0.950 . S
C975 C973 1.327 . S
C976 C964 1.349 . S
C976 H970 0.950 . S
C976 C977 1.327 . S
C977 H971 0.950 . S
C977 C976 1.327 . S
C977 C981 1.429 . S
C978 C961 1.574 . S
C978 H972 0.949 . S
C978 C982 1.368 . S
C979 C960 1.429 . S
C979 C973 1.429 . S
C979 C980 1.523 . S
C980 C961 1.368 . S
C980 C974 1.368 . S
C980 C979 1.523 . S
C981 C965 1.429 . S
C981 C977 1.429 . S
C981 C982 1.523 . S
C982 C966 1.368 . S
C982 C978 1.368 . S
C982 C981 1.523 . S
H983 C958 0.950 . S
H984 C960 0.950 . S
H985 C961 0.949 . S
H986 C963 0.950 . S
H987 C965 0.950 . S
C988 C989 1.349 . S
C988 C990 1.327 . S
C988 H1013 0.950 . S
C989 C988 1.349 . S
C989 C1005 1.349 . S
C990 C988 1.327 . S
C990 C1009 1.429 . S
C990 H1014 0.950 . S
C991 C1008 1.574 1_455 S
C991 C1010 1.368 . S
C991 H1015 0.949 . S
H992 C996 0.949 . S
C993 C994 1.349 . S
C993 C995 1.327 . S
C993 H1016 0.950 . S
C994 C993 1.349 . S
C994 C1006 1.349 . S
C995 C993 1.327 . S
C995 C1011 1.429 . S
C995 H1017 0.950 . S
C996 H992 0.949 . S
C996 C1004 1.574 1_655 S
C996 C1012 1.368 . S
H997 C1005 0.950 . S
H998 C1003 0.950 . S
H999 C1004 0.949 . S
H1000 C1006 0.950 . S
H1001 C1007 0.950 . S
H1002 C1008 0.949 . S
C1003 H998 0.950 . S
C1003 C1005 1.327 . S
C1003 C1009 1.429 . S
C1004 C996 1.574 1_455 S
C1004 H999 0.949 . S
C1004 C1010 1.368 . S
C1005 C989 1.349 . S
C1005 H997 0.950 . S
C1005 C1003 1.327 . S
C1006 C994 1.349 . S
C1006 H1000 0.950 . S
C1006 C1007 1.327 . S
C1007 H1001 0.950 . S
C1007 C1006 1.327 . S
C1007 C1011 1.429 . S
C1008 C991 1.574 1_655 S
C1008 H1002 0.949 . S
C1008 C1012 1.368 . S
C1009 C990 1.429 . S
C1009 C1003 1.429 . S
C1009 C1010 1.523 . S
C1010 C991 1.368 . S
C1010 C1004 1.368 . S
C1010 C1009 1.523 . S
C1011 C995 1.429 . S
C1011 C1007 1.429 . S
C1011 C1012 1.523 . S
C1012 C996 1.368 . S
C1012 C1008 1.368 . S
C1012 C1011 1.523 . S
H1013 C988 0.950 . S
H1014 C990 0.950 . S
H1015 C991 0.949 . S
H1016 C993 0.950 . S
H1017 C995 0.950 . S
C1018 C1019 1.349 1_556 S
C1018 C1020 1.327 . S
C1018 H1043 0.950 . S
C1019 C1018 1.349 1_554 S
C1019 C1035 1.349 . S
C1020 C1018 1.327 . S
C1020 C1039 1.429 1_556 S
C1020 H1044 0.950 . S
C1021 C1038 1.574 . S
C1021 C1040 1.368 . S
C1021 H1045 0.949 . S
H1022 C1026 0.949 . S
C1023 C1024 1.349 . S
C1023 C1025 1.327 . S
C1023 H1046 0.950 . S
C1024 C1023 1.349 . S
C1024 C1036 1.349 1_554 S
C1025 C1023 1.327 . S
C1025 C1041 1.429 . S
C1025 H1047 0.950 . S
C1026 H1022 0.949 . S
C1026 C1034 1.574 . S
C1026 C1042 1.368 1_556 S
H1027 C1035 0.950 . S
H1028 C1033 0.950 . S
H1029 C1034 0.949 . S
H1030 C1036 0.950 . S
H1031 C1037 0.950 . S
H1032 C1038 0.949 . S
C1033 H1028 0.950 . S
C1033 C1035 1.327 . S
C1033 C1039 1.429 . S
C1034 C1026 1.574 . S
C1034 H1029 0.949 . S
C1034 C1040 1.368 1_656 S
C1035 C1019 1.349 . S
C1035 H1027 0.950 . S
C1035 C1033 1.327 . S
C1036 C1024 1.349 1_556 S
C1036 H1030 0.950 . S
C1036 C1037 1.327 . S
C1037 H1031 0.950 . S
C1037 C1036 1.327 . S
C1037 C1041 1.429 1_556 S
C1038 C1021 1.574 . S
C1038 H1032 0.949 . S
C1038 C1042 1.368 1_455 S
C1039 C1020 1.429 1_554 S
C1039 C1033 1.429 . S
C1039 C1040 1.523 . S
C1040 C1021 1.368 . S
C1040 C1034 1.368 1_454 S
C1040 C1039 1.523 . S
C1041 C1025 1.429 . S
C1041 C1037 1.429 1_554 S
C1041 C1042 1.523 . S
C1042 C1026 1.368 1_554 S
C1042 C1038 1.368 1_655 S
C1042 C1041 1.523 . S
H1043 C1018 0.950 . S
H1044 C1020 0.950 . S
H1045 C1021 0.949 . S
H1046 C1023 0.950 . S
H1047 C1025 0.950 . S
C1048 C1049 1.349 . S
C1048 C1050 1.327 . S
C1048 H1073 0.950 . S
C1049 C1048 1.349 . S
C1049 C1065 1.349 . S
C1050 C1048 1.327 . S
C1050 C1069 1.429 . S
C1050 H1074 0.950 . S
C1051 C1068 1.574 . S
C1051 C1070 1.368 . S
C1051 H1075 0.949 . S
H1052 C1056 0.949 . S
C1053 C1054 1.349 . S
C1053 C1055 1.327 . S
C1053 H1076 0.950 . S
C1054 C1053 1.349 . S
C1054 C1066 1.349 . S
C1055 C1053 1.327 . S
C1055 C1071 1.429 . S
C1055 H1077 0.950 . S
C1056 H1052 0.949 . S
C1056 C1064 1.574 . S
C1056 C1072 1.368 . S
H1057 C1065 0.950 . S
H1058 C1063 0.950 . S
H1059 C1064 0.949 . S
H1060 C1066 0.950 . S
H1061 C1067 0.950 . S
H1062 C1068 0.949 . S
C1063 H1058 0.950 . S
C1063 C1065 1.327 . S
C1063 C1069 1.429 . S
C1064 C1056 1.574 . S
C1064 H1059 0.949 . S
C1064 C1070 1.368 . S
C1065 C1049 1.349 . S
C1065 H1057 0.950 . S
C1065 C1063 1.327 . S
C1066 C1054 1.349 . S
C1066 H1060 0.950 . S
C1066 C1067 1.327 . S
C1067 H1061 0.950 . S
C1067 C1066 1.327 . S
C1067 C1071 1.429 . S
C1068 C1051 1.574 . S
C1068 H1062 0.949 . S
C1068 C1072 1.368 . S
C1069 C1050 1.429 . S
C1069 C1063 1.429 . S
C1069 C1070 1.523 . S
C1070 C1051 1.368 . S
C1070 C1064 1.368 . S
C1070 C1069 1.523 . S
C1071 C1055 1.429 . S
C1071 C1067 1.429 . S
C1071 C1072 1.523 . S
C1072 C1056 1.368 . S
C1072 C1068 1.368 . S
C1072 C1071 1.523 . S
H1073 C1048 0.950 . S
H1074 C1050 0.950 . S
H1075 C1051 0.949 . S
H1076 C1053 0.950 . S
H1077 C1055 0.950 . S
C1078 C1079 1.349 . S
C1078 C1080 1.327 . S
C1078 H1103 0.950 . S
C1079 C1078 1.349 . S
C1079 C1095 1.349 . S
C1080 C1078 1.327 . S
C1080 C1099 1.429 . S
C1080 H1104 0.950 . S
C1081 C1098 1.574 . S
C1081 C1100 1.368 . S
C1081 H1105 0.949 . S
H1082 C1086 0.949 . S
C1083 C1084 1.349 . S
C1083 C1085 1.327 . S
C1083 H1106 0.950 . S
C1084 C1083 1.349 . S
C1084 C1096 1.349 . S
C1085 C1083 1.327 . S
C1085 C1101 1.429 . S
C1085 H1107 0.950 . S
C1086 H1082 0.949 . S
C1086 C1094 1.574 . S
C1086 C1102 1.368 . S
H1087 C1095 0.950 . S
H1088 C1093 0.950 . S
H1089 C1094 0.949 . S
H1090 C1096 0.950 . S
H1091 C1097 0.950 . S
H1092 C1098 0.949 . S
C1093 H1088 0.950 . S
C1093 C1095 1.327 . S
C1093 C1099 1.429 . S
C1094 C1086 1.574 . S
C1094 H1089 0.949 . S
C1094 C1100 1.368 . S
C1095 C1079 1.349 . S
C1095 H1087 0.950 . S
C1095 C1093 1.327 . S
C1096 C1084 1.349 . S
C1096 H1090 0.950 . S
C1096 C1097 1.327 . S
C1097 H1091 0.950 . S
C1097 C1096 1.327 . S
C1097 C1101 1.429 . S
C1098 C1081 1.574 . S
C1098 H1092 0.949 . S
C1098 C1102 1.368 . S
C1099 C1080 1.429 . S
C1099 C1093 1.429 . S
C1099 C1100 1.523 . S
C1100 C1081 1.368 . S
C1100 C1094 1.368 . S
C1100 C1099 1.523 . S
C1101 C1085 1.429 . S
C1101 C1097 1.429 . S
C1101 C1102 1.523 . S
C1102 C1086 1.368 . S
C1102 C1098 1.368 . S
C1102 C1101 1.523 . S
H1103 C1078 0.950 . S
H1104 C1080 0.950 . S
H1105 C1081 0.949 . S
H1106 C1083 0.950 . S
H1107 C1085 0.950 . S
C1108 C1109 1.349 . S
C1108 C1110 1.327 . S
C1108 H1133 0.950 . S
C1109 C1108 1.349 . S
C1109 C1125 1.349 . S
C1110 C1108 1.327 . S
C1110 C1129 1.429 . S
C1110 H1134 0.950 . S
C1111 C1128 1.574 1_455 S
C1111 C1130 1.368 . S
C1111 H1135 0.949 . S
H1112 C1116 0.949 . S
C1113 C1114 1.349 . S
C1113 C1115 1.327 . S
C1113 H1136 0.950 . S
C1114 C1113 1.349 . S
C1114 C1126 1.349 . S
C1115 C1113 1.327 . S
C1115 C1131 1.429 . S
C1115 H1137 0.950 . S
C1116 H1112 0.949 . S
C1116 C1124 1.574 1_655 S
C1116 C1132 1.368 . S
H1117 C1125 0.950 . S
H1118 C1123 0.950 . S
H1119 C1124 0.949 . S
H1120 C1126 0.950 . S
H1121 C1127 0.950 . S
H1122 C1128 0.949 . S
C1123 H1118 0.950 . S
C1123 C1125 1.327 . S
C1123 C1129 1.429 . S
C1124 C1116 1.574 1_455 S
C1124 H1119 0.949 . S
C1124 C1130 1.368 . S
C1125 C1109 1.349 . S
C1125 H1117 0.950 . S
C1125 C1123 1.327 . S
C1126 C1114 1.349 . S
C1126 H1120 0.950 . S
C1126 C1127 1.327 . S
C1127 H1121 0.950 . S
C1127 C1126 1.327 . S
C1127 C1131 1.429 . S
C1128 C1111 1.574 1_655 S
C1128 H1122 0.949 . S
C1128 C1132 1.368 . S
C1129 C1110 1.429 . S
C1129 C1123 1.429 . S
C1129 C1130 1.523 . S
C1130 C1111 1.368 . S
C1130 C1124 1.368 . S
C1130 C1129 1.523 . S
C1131 C1115 1.429 . S
C1131 C1127 1.429 . S
C1131 C1132 1.523 . S
C1132 C1116 1.368 . S
C1132 C1128 1.368 . S
C1132 C1131 1.523 . S
H1133 C1108 0.950 . S
H1134 C1110 0.950 . S
H1135 C1111 0.949 . S
H1136 C1113 0.950 . S
H1137 C1115 0.950 . S
C1138 C1139 1.349 . S
C1138 C1140 1.327 . S
C1138 H1163 0.950 . S
C1139 C1138 1.349 . S
C1139 C1155 1.349 1_556 S
C1140 C1138 1.327 . S
C1140 C1159 1.429 . S
C1140 H1164 0.950 . S
C1141 C1158 1.574 . S
C1141 C1160 1.368 1_554 S
C1141 H1165 0.949 . S
H1142 C1146 0.949 . S
C1143 C1144 1.349 1_554 S
C1143 C1145 1.327 . S
C1143 H1166 0.950 . S
C1144 C1143 1.349 1_556 S
C1144 C1156 1.349 . S
C1145 C1143 1.327 . S
C1145 C1161 1.429 1_554 S
C1145 H1167 0.950 . S
C1146 H1142 0.949 . S
C1146 C1154 1.574 . S
C1146 C1162 1.368 . S
H1147 C1155 0.950 . S
H1148 C1153 0.950 . S
H1149 C1154 0.949 . S
H1150 C1156 0.950 . S
H1151 C1157 0.950 . S
H1152 C1158 0.949 . S
C1153 H1148 0.950 . S
C1153 C1155 1.327 . S
C1153 C1159 1.429 1_554 S
C1154 C1146 1.574 . S
C1154 H1149 0.949 . S
C1154 C1160 1.368 1_455 S
C1155 C1139 1.349 1_554 S
C1155 H1147 0.950 . S
C1155 C1153 1.327 . S
C1156 C1144 1.349 . S
C1156 H1150 0.950 . S
C1156 C1157 1.327 . S
C1157 H1151 0.950 . S
C1157 C1156 1.327 . S
C1157 C1161 1.429 . S
C1158 C1141 1.574 . S
C1158 H1152 0.949 . S
C1158 C1162 1.368 1_654 S
C1159 C1140 1.429 . S
C1159 C1153 1.429 1_556 S
C1159 C1160 1.523 . S
C1160 C1141 1.368 1_556 S
C1160 C1154 1.368 1_655 S
C1160 C1159 1.523 . S
C1161 C1145 1.429 1_556 S
C1161 C1157 1.429 . S
C1161 C1162 1.523 . S
C1162 C1146 1.368 . S
C1162 C1158 1.368 1_456 S
C1162 C1161 1.523 . S
H1163 C1138 0.950 . S
H1164 C1140 0.950 . S
H1165 C1141 0.949 . S
H1166 C1143 0.950 . S
H1167 C1145 0.950 . S
C209 C55 1.948 . S
C214 C5 1.948 . S
C239 C172 1.942 . S
C244 C16 1.870 . S
C269 C31 1.943 . S
C274 C81 1.943 . S
C299 C198 1.942 . S
C304 C42 1.870 . S
C329 C120 1.870 . S
C334 C68 1.942 . S
C359 C146 1.870 . S
C364 C94 1.942 . S
C389 C109 1.943 . S
C394 C159 1.943 . S
C419 C185 1.948 . S
C424 C135 1.948 . S
C449 C96 1.975 . S
C454 C10 1.970 . S
C479 C161 1.975 . S
C484 C14 1.923 . S
C509 C36 1.970 . S
C514 C70 1.975 . S
C539 C40 1.940 . S
C544 C187 1.973 . S
C569 C44 1.949 . S
C574 C53 1.970 . S
C599 C66 1.970 . S
C604 C107 1.975 . S
C629 C79 1.970 . S
C634 C18 1.949 . S
C659 C92 1.987 . S
C664 C133 1.973 . S
C689 C114 1.970 . S
C694 C200 1.975 1_565 S
C719 C57 1.973 . S
C724 C118 1.940 . S
C749 C174 1.975 1_545 S
C754 C140 1.970 . S
C779 C144 1.923 . S
C784 C83 1.975 . S
C809 C148 1.949 1_545 S
C814 C157 1.970 . S
C839 C170 1.987 . S
C844 C3 1.973 . S
C869 C183 1.970 . S
C874 C122 1.949 1_565 S
C899 C29 1.975 . S
C904 C196 1.970 . S
C929 C1 0.101 . S
C934 C131 0.101 . S
C959 C153 0.199 . S
C964 C23 0.199 . S
C989 C27 0.102 . S
C994 C105 0.102 . S
C1019 C127 0.198 . S
C1024 C49 0.198 . S
C1049 C192 0.101 . S
C1054 C62 0.101 . S
C1079 C205 0.101 . S
C1084 C75 0.101 . S
C1109 C166 0.102 . S
C1114 C88 0.102 . S
C1139 C179 0.101 . S
C1144 C101 0.101 . S
