# Generated by pormake.
# Topology wjd, (6)-cn, num edge types: 1
# Building blocks:
#     Node 0, Type 0, BuildingBlock: MIFKUJ_clean_sbu_0, # of connection points: 6
#     Node 1, Type 0, BuildingBlock: MIFKUJ_clean_sbu_0, # of connection points: 6
#     Node 2, Type 0, BuildingBlock: MIFKUJ_clean_sbu_0, # of connection points: 6
#     Node 3, Type 0, BuildingBlock: MIFKUJ_clean_sbu_0, # of connection points: 6
#     Node 4, Type 0, BuildingBlock: MIFKUJ_clean_sbu_0, # of connection points: 6
#     Node 5, Type 0, BuildingBlock: MIFKUJ_clean_sbu_0, # of connection points: 6
#     Node 6, Type 0, BuildingBlock: MIFKUJ_clean_sbu_0, # of connection points: 6
#     Node 7, Type 0, BuildingBlock: MIFKUJ_clean_sbu_0, # of connection points: 6
#     Node 8, Type 0, BuildingBlock: MIFKUJ_clean_sbu_0, # of connection points: 6
#     Node 9, Type 0, BuildingBlock: MIFKUJ_clean_sbu_0, # of connection points: 6
#     Node 10, Type 0, BuildingBlock: MIFKUJ_clean_sbu_0, # of connection points: 6
#     Node 11, Type 0, BuildingBlock: MIFKUJ_clean_sbu_0, # of connection points: 6
#     Edge 12, Type (0, 0), BuildingBlock: TEMPAE_clean_linker_10, # of connection points: 2
#     Edge 13, Type (0, 0), BuildingBlock: TEMPAE_clean_linker_10, # of connection points: 2
#     Edge 14, Type (0, 0), BuildingBlock: TEMPAE_clean_linker_10, # of connection points: 2
#     Edge 15, Type (0, 0), BuildingBlock: TEMPAE_clean_linker_10, # of connection points: 2
#     Edge 16, Type (0, 0), BuildingBlock: TEMPAE_clean_linker_10, # of connection points: 2
#     Edge 17, Type (0, 0), BuildingBlock: TEMPAE_clean_linker_10, # of connection points: 2
#     Edge 18, Type (0, 0), BuildingBlock: TEMPAE_clean_linker_10, # of connection points: 2
#     Edge 19, Type (0, 0), BuildingBlock: TEMPAE_clean_linker_10, # of connection points: 2
#     Edge 20, Type (0, 0), BuildingBlock: TEMPAE_clean_linker_10, # of connection points: 2
#     Edge 21, Type (0, 0), BuildingBlock: TEMPAE_clean_linker_10, # of connection points: 2
#     Edge 22, Type (0, 0), BuildingBlock: TEMPAE_clean_linker_10, # of connection points: 2
#     Edge 23, Type (0, 0), BuildingBlock: TEMPAE_clean_linker_10, # of connection points: 2
#     Edge 24, Type (0, 0), BuildingBlock: TEMPAE_clean_linker_10, # of connection points: 2
#     Edge 25, Type (0, 0), BuildingBlock: TEMPAE_clean_linker_10, # of connection points: 2
#     Edge 26, Type (0, 0), BuildingBlock: TEMPAE_clean_linker_10, # of connection points: 2
#     Edge 27, Type (0, 0), BuildingBlock: TEMPAE_clean_linker_10, # of connection points: 2
#     Edge 28, Type (0, 0), BuildingBlock: TEMPAE_clean_linker_10, # of connection points: 2
#     Edge 29, Type (0, 0), BuildingBlock: TEMPAE_clean_linker_10, # of connection points: 2
#     Edge 30, Type (0, 0), BuildingBlock: TEMPAE_clean_linker_10, # of connection points: 2
#     Edge 31, Type (0, 0), BuildingBlock: TEMPAE_clean_linker_10, # of connection points: 2
#     Edge 32, Type (0, 0), BuildingBlock: TEMPAE_clean_linker_10, # of connection points: 2
#     Edge 33, Type (0, 0), BuildingBlock: TEMPAE_clean_linker_10, # of connection points: 2
#     Edge 34, Type (0, 0), BuildingBlock: TEMPAE_clean_linker_10, # of connection points: 2
#     Edge 35, Type (0, 0), BuildingBlock: TEMPAE_clean_linker_10, # of connection points: 2
#     Edge 36, Type (0, 0), BuildingBlock: TEMPAE_clean_linker_10, # of connection points: 2
#     Edge 37, Type (0, 0), BuildingBlock: TEMPAE_clean_linker_10, # of connection points: 2
#     Edge 38, Type (0, 0), BuildingBlock: TEMPAE_clean_linker_10, # of connection points: 2
#     Edge 39, Type (0, 0), BuildingBlock: TEMPAE_clean_linker_10, # of connection points: 2
#     Edge 40, Type (0, 0), BuildingBlock: TEMPAE_clean_linker_10, # of connection points: 2
#     Edge 41, Type (0, 0), BuildingBlock: TEMPAE_clean_linker_10, # of connection points: 2
#     Edge 42, Type (0, 0), BuildingBlock: TEMPAE_clean_linker_10, # of connection points: 2
#     Edge 43, Type (0, 0), BuildingBlock: TEMPAE_clean_linker_10, # of connection points: 2
#     Edge 44, Type (0, 0), BuildingBlock: TEMPAE_clean_linker_10, # of connection points: 2
#     Edge 45, Type (0, 0), BuildingBlock: TEMPAE_clean_linker_10, # of connection points: 2
#     Edge 46, Type (0, 0), BuildingBlock: TEMPAE_clean_linker_10, # of connection points: 2
#     Edge 47, Type (0, 0), BuildingBlock: TEMPAE_clean_linker_10, # of connection points: 2
# Relax obj value: 0.083
# Max RMSD: 0.184
# Mean RMSD: 0.184
data_MOF--net-wjd--node1-MIFKUJ_clean_sbu_0--edge1-TEMPAE_clean_linker_10
_symmetry_space_group_name_H-M    P1
_symmetry_Int_Tables_number       1
_symmetry_cell_setting            triclinic
loop_
_symmetry_equiv_pos_as_xyz
'x, y, z'
_cell_length_a     34.999189
_cell_length_b     35.082802
_cell_length_c     53.051463
_cell_angle_alpha  90.090789
_cell_angle_beta   89.883024
_cell_angle_gamma 119.92787
loop_
_atom_site_label
_atom_site_type_symbol
_atom_site_fract_x
_atom_site_fract_y
_atom_site_fract_z
_atom_type_partial_charge
Zn0 Zn 0.2632 0.07526 0.11532 0.0
Zn1 Zn 0.36864 0.16662 0.10095 0.0
C2 C 0.20413 0.10378 0.10923 0.0
O3 O 0.18929 0.07601 0.1282 0.0
C4 C 0.44838 0.17194 0.08428 0.0
O5 O 0.44155 0.19228 0.06555 0.0
O6 O 0.21291 0.0125 0.11554 0.0
O7 O 0.31448 0.07585 0.0992 0.0
O8 O 0.33105 0.12754 0.07191 0.0
C9 C 0.19142 0.99823 0.09508 0.0
O10 O 0.2041 0.02415 0.07528 0.0
O11 O 0.2401 0.11174 0.0987 0.0
C12 C 0.40107 0.26106 0.10723 0.0
O13 O 0.38014 0.24986 0.12891 0.0
O14 O 0.39725 0.23113 0.09215 0.0
O15 O 0.34516 0.15622 0.1375 0.0
O16 O 0.28102 0.09917 0.14923 0.0
O17 O 0.42041 0.15649 0.10212 0.0
C18 C 0.31671 0.0872 0.07651 0.0
C19 C 0.3165 0.13436 0.15445 0.0
Zn20 Zn 0.81765 0.62481 0.39559 0.0
Zn21 Zn 0.82329 0.72727 0.38539 0.0
C22 C 0.73953 0.54893 0.41332 0.0
O23 O 0.76707 0.55188 0.43103 0.0
C24 C 0.90972 0.79459 0.38722 0.0
O25 O 0.89108 0.8068 0.36999 0.0
O26 O 0.84893 0.58994 0.39959 0.0
O27 O 0.82894 0.64896 0.35956 0.0
O28 O 0.82728 0.7101 0.35074 0.0
C29 C 0.83603 0.55916 0.38339 0.0
O30 O 0.80847 0.55651 0.36577 0.0
O31 O 0.7532 0.5781 0.39617 0.0
C32 C 0.80952 0.79376 0.40629 0.0
O33 O 0.82635 0.78431 0.42577 0.0
O34 O 0.80314 0.77197 0.38602 0.0
O35 O 0.77988 0.6751 0.4048 0.0
O36 O 0.82617 0.66388 0.42613 0.0
O37 O 0.88626 0.75803 0.39844 0.0
C38 C 0.83157 0.67774 0.34392 0.0
C39 C 0.79637 0.67438 0.42577 0.0
Zn40 Zn 0.92074 0.21485 0.0974 0.0
Zn41 Zn 0.82897 0.20893 0.09052 0.0
C42 C 0.89432 0.12591 0.10725 0.0
O43 O 0.92638 0.14749 0.12346 0.0
C44 C 0.8506 0.29831 0.07681 0.0
O45 O 0.83857 0.28083 0.05427 0.0
O46 O 0.98318 0.22581 0.09813 0.0
O47 O 0.91845 0.25005 0.06869 0.0
O48 O 0.85308 0.1972 0.05783 0.0
C49 C 0.99572 0.21402 0.07856 0.0
O50 O 0.9691 0.19922 0.0591 0.0
O51 O 0.88276 0.14777 0.09308 0.0
C52 C 0.7465 0.19792 0.10277 0.0
O53 O 0.77128 0.22264 0.12136 0.0
O54 O 0.7637 0.18486 0.08618 0.0
O55 O 0.83571 0.18559 0.12458 0.0
O56 O 0.90659 0.23189 0.13014 0.0
O57 O 0.85202 0.27488 0.09471 0.0
C58 C 0.89118 0.22788 0.05165 0.0
C59 C 0.86833 0.20769 0.13919 0.0
Zn60 Zn 0.39703 0.17265 0.39021 0.0
Zn61 Zn 0.31157 0.08196 0.37965 0.0
C62 C 0.46919 0.16263 0.40619 0.0
O63 O 0.46539 0.18415 0.42544 0.0
C64 C 0.26432 0.12519 0.36727 0.0
O65 O 0.26197 0.10456 0.34614 0.0
O66 O 0.43603 0.23764 0.39695 0.0
O67 O 0.37191 0.16834 0.35497 0.0
O68 O 0.34321 0.09744 0.34694 0.0
C69 C 0.46831 0.25692 0.38176 0.0
O70 O 0.47125 0.23439 0.36278 0.0
O71 O 0.44103 0.15075 0.38847 0.0
C72 C 0.23323 0.01166 0.3985 0.0
O73 O 0.2476 0.03922 0.41757 0.0
O74 O 0.25677 0.02161 0.37862 0.0
O75 O 0.34854 0.08153 0.40786 0.0
O76 O 0.35733 0.14455 0.42083 0.0
O77 O 0.2862 0.12233 0.38559 0.0
C78 C 0.35996 0.13686 0.3393 0.0
C79 C 0.35086 0.10637 0.42577 0.0
Zn80 Zn 0.78707 0.72293 0.11946 0.0
Zn81 Zn 0.7696 0.61084 0.10788 0.0
C82 C 0.87563 0.77879 0.11803 0.0
O83 O 0.861 0.7916 0.13723 0.0
C84 C 0.67637 0.55471 0.09347 0.0
O85 O 0.68866 0.57418 0.07144 0.0
O86 O 0.77874 0.77708 0.1195 0.0
O87 O 0.74031 0.67341 0.1005 0.0
O88 O 0.7767 0.65042 0.07791 0.0
C89 C 0.79272 0.80161 0.09999 0.0
O90 O 0.80756 0.78873 0.08095 0.0
O91 O 0.84843 0.74505 0.10559 0.0
C92 C 0.82984 0.57203 0.10722 0.0
O93 O 0.8579 0.6053 0.12111 0.0
O94 O 0.79457 0.57057 0.09978 0.0
O95 O 0.78903 0.63834 0.14338 0.0
O96 O 0.78827 0.70028 0.15318 0.0
O97 O 0.70443 0.56637 0.11122 0.0
C98 C 0.75533 0.67083 0.07936 0.0
C99 C 0.79314 0.66779 0.15919 0.0
Zn100 Zn 0.85315 0.21015 0.37938 0.0
Zn101 Zn 0.94 0.19052 0.36678 0.0
C102 C 0.86278 0.28906 0.39986 0.0
O103 O 0.84257 0.26179 0.41858 0.0
C104 C 0.8993 0.1015 0.36889 0.0
O105 O 0.92355 0.11279 0.34835 0.0
O106 O 0.78729 0.18116 0.38688 0.0
O107 O 0.85973 0.1968 0.3426 0.0
O108 O 0.91891 0.19213 0.3327 0.0
C109 C 0.76742 0.19548 0.37306 0.0
O110 O 0.78986 0.22361 0.35508 0.0
O111 O 0.87297 0.27487 0.38038 0.0
C112 C 0.03458 0.21728 0.37417 0.0
O113 O 0.03894 0.25243 0.38564 0.0
O114 O 0.99762 0.1899 0.36453 0.0
O115 O 0.94958 0.24122 0.38804 0.0
O116 O 0.8873 0.20232 0.40831 0.0
O117 O 0.89775 0.13134 0.38173 0.0
C118 C 0.88384 0.19187 0.32638 0.0
C119 C 0.92848 0.22974 0.40859 0.0
Zn120 Zn 0.16543 0.38373 0.60549 0.0
Zn121 Zn 0.07232 0.29055 0.61499 0.0
C122 C 0.16061 0.45801 0.58777 0.0
O123 O 0.18272 0.45304 0.56924 0.0
C124 C 0.10471 0.23315 0.62151 0.0
O125 O 0.07438 0.22165 0.63907 0.0
O126 O 0.23126 0.42015 0.5994 0.0
O127 O 0.1583 0.36082 0.64168 0.0
O128 O 0.08679 0.31752 0.64882 0.0
C129 C 0.25115 0.45243 0.61449 0.0
O130 O 0.22858 0.45671 0.63302 0.0
O131 O 0.14651 0.42997 0.60559 0.0
C132 C 0.99267 0.21867 0.5945 0.0
O133 O 0.01218 0.23771 0.57328 0.0
O134 O 0.01113 0.23648 0.61528 0.0
O135 O 0.07233 0.3313 0.58891 0.0
O136 O 0.13638 0.34407 0.57491 0.0
O137 O 0.11304 0.26589 0.6075 0.0
C138 C 0.1259 0.34122 0.65685 0.0
C139 C 0.09746 0.33634 0.57055 0.0
Zn140 Zn 0.22151 0.8999 0.88916 0.0
Zn141 Zn 0.19747 0.80826 0.89757 0.0
C142 C 0.13445 0.88257 0.87844 0.0
O143 O 0.15828 0.91262 0.86161 0.0
C144 C 0.27661 0.8054 0.91079 0.0
O145 O 0.25074 0.78051 0.929 0.0
O146 O 0.23869 0.96352 0.88834 0.0
O147 O 0.25356 0.89321 0.91813 0.0
O148 O 0.19048 0.83796 0.92926 0.0
C149 C 0.22542 0.97542 0.9075 0.0
O150 O 0.20683 0.94736 0.92605 0.0
O151 O 0.15376 0.86859 0.89302 0.0
C152 C 0.12723 0.71758 0.89193 0.0
O153 O 0.10997 0.73391 0.87634 0.0
O154 O 0.16273 0.74337 0.90343 0.0
O155 O 0.18006 0.81779 0.86219 0.0
O156 O 0.23709 0.88385 0.85684 0.0
O157 O 0.26159 0.82222 0.89518 0.0
C158 C 0.22669 0.8715 0.93544 0.0
C159 C 0.20744 0.84789 0.84763 0.0
Zn160 Zn 0.62806 0.79339 0.59863 0.0
Zn161 Zn 0.73956 0.81389 0.60694 0.0
C162 C 0.54906 0.717 0.58287 0.0
O163 O 0.55265 0.74456 0.56504 0.0
C164 C 0.75272 0.90182 0.59545 0.0
O165 O 0.7173 0.88974 0.60922 0.0
O166 O 0.59576 0.8272 0.595 0.0
O167 O 0.6562 0.80677 0.63399 0.0
O168 O 0.72414 0.8197 0.64163 0.0
C169 C 0.56654 0.81725 0.61196 0.0
O170 O 0.56375 0.79058 0.63015 0.0
O171 O 0.57911 0.72984 0.59951 0.0
C172 C 0.81003 0.8072 0.58587 0.0
O173 O 0.79774 0.82122 0.56625 0.0
O174 O 0.78865 0.80001 0.60639 0.0
O175 O 0.6869 0.76442 0.59115 0.0
O176 O 0.66442 0.79902 0.56713 0.0
O177 O 0.76462 0.8738 0.5904 0.0
C178 C 0.68789 0.81577 0.64917 0.0
C179 C 0.68224 0.77542 0.56931 0.0
Zn180 Zn 0.10352 0.25882 0.88576 0.0
Zn181 Zn 0.17478 0.39747 0.88917 0.0
C182 C 0.12026 0.18923 0.88322 0.0
O183 O 0.08602 0.17517 0.8682 0.0
C184 C 0.1157 0.43165 0.88366 0.0
O185 O 0.08675 0.39341 0.8932 0.0
O186 O 0.03818 0.21808 0.89036 0.0
O187 O 0.12862 0.31399 0.90393 0.0
O188 O 0.14479 0.37342 0.92354 0.0
C189 C 0.02494 0.19308 0.90957 0.0
O190 O 0.05372 0.19809 0.927 0.0
O191 O 0.13518 0.2264 0.89385 0.0
C192 C 0.26199 0.46426 0.87666 0.0
O193 O 0.23947 0.46974 0.85865 0.0
O194 O 0.24153 0.43298 0.89231 0.0
O195 O 0.15474 0.35121 0.86023 0.0
O196 O 0.11841 0.28003 0.85045 0.0
O197 O 0.15488 0.43986 0.87962 0.0
C198 C 0.12205 0.33201 0.9226 0.0
C199 C 0.14095 0.32032 0.84384 0.0
Zn200 Zn 0.22261 0.84684 0.60933 0.0
Zn201 Zn 0.21186 0.94092 0.6218 0.0
C202 C 0.30075 0.85131 0.5913 0.0
O203 O 0.27376 0.83074 0.57252 0.0
C204 C 0.12354 0.90926 0.61714 0.0
O205 O 0.13569 0.93613 0.63654 0.0
O206 O 0.19105 0.7809 0.60239 0.0
O207 O 0.20721 0.85593 0.64523 0.0
O208 O 0.20702 0.91716 0.65595 0.0
C209 C 0.20296 0.76012 0.61715 0.0
O210 O 0.23031 0.78196 0.63556 0.0
O211 O 0.28677 0.86377 0.60992 0.0
C212 C 0.21085 0.01631 0.6025 0.0
O213 O 0.19878 0.99092 0.58245 0.0
O214 O 0.22117 0.00316 0.62238 0.0
O215 O 0.25998 0.93966 0.60286 0.0
O216 O 0.21815 0.88196 0.58007 0.0
O217 O 0.15227 0.9032 0.60603 0.0
C218 C 0.20265 0.88001 0.66164 0.0
C219 C 0.24547 0.92295 0.58145 0.0
Zn220 Zn 0.73353 0.80054 0.87801 0.0
Zn221 Zn 0.6374 0.79805 0.88723 0.0
C222 C 0.78647 0.89083 0.87163 0.0
O223 O 0.79677 0.87451 0.85216 0.0
C224 C 0.56852 0.71667 0.90452 0.0
O225 O 0.57412 0.74258 0.92376 0.0
O226 O 0.78964 0.79566 0.87631 0.0
O227 O 0.69511 0.76125 0.90506 0.0
O228 O 0.67715 0.80997 0.91788 0.0
C229 C 0.81719 0.81253 0.89435 0.0
O230 O 0.80682 0.82929 0.91358 0.0
O231 O 0.7559 0.8645 0.88629 0.0
C232 C 0.56134 0.80466 0.87874 0.0
O233 O 0.56021 0.77926 0.86018 0.0
O234 O 0.59455 0.82094 0.89347 0.0
O235 O 0.6626 0.81783 0.85185 0.0
O236 O 0.70379 0.78702 0.84483 0.0
O237 O 0.59529 0.73214 0.88607 0.0
C238 C 0.68713 0.78052 0.92275 0.0
C239 C 0.68097 0.80347 0.83679 0.0
C240 C 0.06183 0.22069 0.10085 0.0
C241 C 0.03554 0.20941 0.07917 0.0
C242 C 0.09484 0.20931 0.10325 0.0
C243 C 0.10144 0.18583 0.08358 0.0
C244 C 0.0773 0.17735 0.0609 0.0
C245 C 0.04475 0.1894 0.05893 0.0
C246 C 0.12037 0.21957 0.1276 0.0
C247 C 0.08322 0.15237 0.03948 0.0
C248 C 0.19826 0.16501 0.08844 0.0
C249 C 0.17829 0.12413 0.10063 0.0
C250 C 0.17367 0.18556 0.08239 0.0
C251 C 0.12812 0.16425 0.08835 0.0
C252 C 0.10764 0.12219 0.09976 0.0
C253 C 0.13303 0.10288 0.10592 0.0
C254 C 0.19661 0.23052 0.07038 0.0
C255 C 0.05896 0.09782 0.10599 0.0
H256 H 0.05529 0.23659 0.11647 0.0
H257 H 0.02492 0.18092 0.04197 0.0
H258 H 0.10869 0.18883 0.1386 0.0
H259 H 0.156 0.23306 0.12377 0.0
H260 H 0.11622 0.24349 0.13937 0.0
H261 H 0.0675 0.15475 0.02183 0.0
H262 H 0.11868 0.16471 0.03578 0.0
H263 H 0.06802 0.11714 0.0447 0.0
H264 H 0.23329 0.18154 0.08441 0.0
H265 H 0.11732 0.07098 0.11505 0.0
H266 H 0.19628 0.2549 0.0836 0.0
H267 H 0.17884 0.2307 0.05313 0.0
H268 H 0.23136 0.24129 0.06534 0.0
H269 H 0.05164 0.11672 0.12008 0.0
H270 H 0.04777 0.06445 0.11371 0.0
H271 H 0.03935 0.09448 0.08888 0.0
C272 C 0.16217 0.96459 0.42113 0.0
C273 C 0.18811 0.97288 0.39938 0.0
C274 C 0.1175 0.93193 0.4214 0.0
C275 C 0.09824 0.90667 0.39943 0.0
C276 C 0.1249 0.91296 0.37794 0.0
C277 C 0.16951 0.94609 0.37814 0.0
C278 C 0.09036 0.92648 0.44469 0.0
C279 C 0.10574 0.88631 0.35425 0.0
C280 C 0.9828 0.80601 0.40234 0.0
C281 C 0.95732 0.8231 0.39244 0.0
C282 C 0.02881 0.8328 0.40494 0.0
C283 C 0.04946 0.87771 0.39785 0.0
C284 C 0.0235 0.89531 0.38872 0.0
C285 C 0.97792 0.86776 0.38598 0.0
C286 C 0.05544 0.81284 0.41461 0.0
C287 C 0.04393 0.94318 0.38142 0.0
H288 H 0.17629 0.9848 0.43776 0.0
H289 H 0.18933 0.95202 0.36132 0.0
H290 H 0.06769 0.93935 0.44092 0.0
H291 H 0.06977 0.89122 0.44966 0.0
H292 H 0.11124 0.94437 0.46116 0.0
H293 H 0.13167 0.89134 0.34037 0.0
H294 H 0.08609 0.85076 0.3588 0.0
H295 H 0.08317 0.89592 0.34529 0.0
H296 H 0.96702 0.77146 0.40725 0.0
H297 H 0.95832 0.88128 0.37857 0.0
H298 H 0.07577 0.83192 0.43095 0.0
H299 H 0.07845 0.81437 0.3997 0.0
H300 H 0.03429 0.778 0.42042 0.0
H301 H 0.06298 0.96449 0.39746 0.0
H302 H 0.01887 0.95206 0.37563 0.0
H303 H 0.06731 0.95056 0.36556 0.0
C304 C 0.83233 0.05063 0.09497 0.0
C305 C 0.87457 0.07741 0.10503 0.0
C306 C 0.81377 0.00452 0.09372 0.0
C307 C 0.83843 0.9849 0.10219 0.0
C308 C 0.88135 0.01203 0.11195 0.0
C309 C 0.89859 0.05767 0.11348 0.0
C310 C 0.76774 0.97676 0.08346 0.0
C311 C 0.90939 0.9929 0.12062 0.0
C312 C 0.78849 0.8642 0.1208 0.0
C313 C 0.79836 0.84662 0.09963 0.0
C314 C 0.79904 0.9086 0.12137 0.0
C315 C 0.82035 0.93625 0.10039 0.0
C316 C 0.82845 0.91807 0.07856 0.0
C317 C 0.81718 0.87361 0.07841 0.0
C318 C 0.78917 0.92643 0.14487 0.0
C319 C 0.85139 0.94615 0.05582 0.0
H320 H 0.81353 0.06563 0.0885 0.0
H321 H 0.93146 0.0781 0.12103 0.0
H322 H 0.7684 0.95835 0.06661 0.0
H323 H 0.74656 0.95209 0.09774 0.0
H324 H 0.75248 0.9968 0.07819 0.0
H325 H 0.94242 0.01857 0.1273 0.0
H326 H 0.89257 0.96921 0.13618 0.0
H327 H 0.91393 0.97454 0.10495 0.0
H328 H 0.77378 0.84369 0.13724 0.0
H329 H 0.82475 0.86046 0.06184 0.0
H330 H 0.77266 0.94541 0.13994 0.0
H331 H 0.82047 0.94927 0.15455 0.0
H332 H 0.76787 0.89988 0.15826 0.0
H333 H 0.83561 0.96546 0.05015 0.0
H334 H 0.85108 0.92621 0.03944 0.0
H335 H 0.88619 0.96993 0.06064 0.0
C336 C 0.21986 0.14854 0.39343 0.0
C337 C 0.23786 0.14719 0.37004 0.0
C338 C 0.18915 0.16319 0.39532 0.0
C339 C 0.17697 0.17764 0.3734 0.0
C340 C 0.19716 0.17874 0.35004 0.0
C341 C 0.22695 0.16305 0.34861 0.0
C342 C 0.16791 0.16085 0.4205 0.0
C343 C 0.18586 0.19472 0.32631 0.0
C344 C 0.06283 0.16487 0.36879 0.0
C345 C 0.07131 0.20764 0.37394 0.0
C346 C 0.09677 0.15458 0.36914 0.0
C347 C 0.14054 0.18803 0.37432 0.0
C348 C 0.1494 0.23132 0.37949 0.0
C349 C 0.1146 0.24053 0.37947 0.0
C350 C 0.08571 0.10782 0.36392 0.0
C351 C 0.1957 0.268 0.3847 0.0
H352 H 0.22796 0.13595 0.41 0.0
H353 H 0.2411 0.16236 0.33052 0.0
H354 H 0.16971 0.19262 0.42488 0.0
H355 H 0.13248 0.13539 0.41973 0.0
H356 H 0.18364 0.15253 0.43607 0.0
H357 H 0.20779 0.19788 0.31031 0.0
H358 H 0.15132 0.17131 0.32082 0.0
H359 H 0.18833 0.22711 0.32963 0.0
H360 H 0.02941 0.13911 0.36479 0.0
H361 H 0.12139 0.27364 0.38348 0.0
H362 H 0.09742 0.09545 0.37963 0.0
H363 H 0.10288 0.10671 0.34657 0.0
H364 H 0.04974 0.08525 0.36145 0.0
H365 H 0.20968 0.25937 0.40101 0.0
H366 H 0.19703 0.29972 0.38873 0.0
H367 H 0.21711 0.27249 0.36821 0.0
C368 C 0.13322 0.93001 0.11613 0.0
C369 C 0.14891 0.95642 0.09455 0.0
C370 C 0.08973 0.89485 0.1173 0.0
C371 C 0.06127 0.88628 0.09648 0.0
C372 C 0.07814 0.91036 0.07388 0.0
C373 C 0.12187 0.94505 0.07315 0.0
C374 C 0.07327 0.86927 0.14156 0.0
C375 C 0.04905 0.90231 0.05122 0.0
C376 C 0.94533 0.78685 0.09949 0.0
C377 C 0.9222 0.80567 0.1105 0.0
C378 C 0.99076 0.81267 0.0944 0.0
C379 C 0.01287 0.85825 0.10001 0.0
C380 C 0.98896 0.87751 0.11009 0.0
C381 C 0.9441 0.8509 0.11545 0.0
C382 C 0.01532 0.79102 0.08387 0.0
C383 C 0.01092 0.92619 0.11577 0.0
H384 H 0.15415 0.9381 0.1326 0.0
H385 H 0.13394 0.96484 0.05622 0.0
H386 H 0.05215 0.8797 0.1516 0.0
H387 H 0.05286 0.83354 0.13767 0.0
H388 H 0.10079 0.87477 0.15424 0.0
H389 H 0.0687 0.91719 0.03385 0.0
H390 H 0.02693 0.86662 0.04798 0.0
H391 H 0.02796 0.91716 0.05463 0.0
H392 H 0.92833 0.7518 0.09572 0.0
H393 H 0.92604 0.86561 0.1236 0.0
H394 H 0.03873 0.79182 0.09822 0.0
H395 H 0.03504 0.80928 0.06716 0.0
H396 H 0.99275 0.75625 0.07841 0.0
H397 H 0.03604 0.93485 0.13074 0.0
H398 H 0.98701 0.93629 0.12215 0.0
H399 H 0.02818 0.94556 0.09877 0.0
C400 C 0.7888 0.84491 0.3857 0.0
C401 C 0.80714 0.83465 0.40625 0.0
C402 C 0.79514 0.88741 0.38276 0.0
C403 C 0.82104 0.9204 0.40055 0.0
C404 C 0.83563 0.90896 0.42263 0.0
C405 C 0.82821 0.86604 0.4253 0.0
C406 C 0.77786 0.89797 0.35932 0.0
C407 C 0.86337 0.94301 0.4421 0.0
C408 C 0.89827 0.03063 0.37118 0.0
C409 C 0.87881 0.05571 0.37786 0.0
C410 C 0.88014 0.98698 0.37898 0.0
C411 C 0.84079 0.96741 0.39338 0.0
C412 C 0.82091 0.99255 0.40033 0.0
C413 C 0.84055 0.03681 0.3927 0.0
C414 C 0.90315 0.96178 0.37168 0.0
C415 C 0.77858 0.97247 0.41528 0.0
H416 H 0.77166 0.8205 0.37116 0.0
H417 H 0.84198 0.85822 0.44144 0.0
H418 H 0.76492 0.92035 0.36375 0.0
H419 H 0.80518 0.91498 0.34556 0.0
H420 H 0.75135 0.86779 0.35023 0.0
H421 H 0.86398 0.92761 0.46026 0.0
H422 H 0.89771 0.96242 0.43502 0.0
H423 H 0.8511 0.96621 0.44558 0.0
H424 H 0.92826 0.04538 0.36002 0.0
H425 H 0.82547 0.05626 0.39781 0.0
H426 H 0.88136 0.9336 0.3594 0.0
H427 H 0.9104 0.94824 0.38874 0.0
H428 H 0.93459 0.98258 0.36146 0.0
H429 H 0.75158 0.94641 0.40391 0.0
H430 H 0.76904 0.9972 0.42069 0.0
H431 H 0.78171 0.95659 0.43261 0.0
C432 C 0.18291 0.06276 0.58324 0.0
C433 C 0.20532 0.05564 0.60297 0.0
C434 C 0.1714 0.09573 0.58483 0.0
C435 C 0.18322 0.12289 0.60649 0.0
C436 C 0.2085 0.11787 0.62568 0.0
C437 C 0.21891 0.08405 0.62381 0.0
C438 C 0.14392 0.09938 0.56408 0.0
C439 C 0.22257 0.14673 0.64884 0.0
C440 C 0.16611 0.22233 0.60465 0.0
C441 C 0.12587 0.20602 0.61749 0.0
C442 C 0.18584 0.19608 0.6013 0.0
C443 C 0.16426 0.15228 0.6105 0.0
C444 C 0.12342 0.13568 0.62322 0.0
C445 C 0.10505 0.16282 0.62676 0.0
C446 C 0.22974 0.21516 0.58803 0.0
C447 C 0.09869 0.08892 0.63285 0.0
H448 H 0.17236 0.04114 0.56699 0.0
H449 H 0.23658 0.07909 0.63903 0.0
H450 H 0.11008 0.08799 0.57122 0.0
H451 H 0.15785 0.1341 0.55811 0.0
H452 H 0.14162 0.07931 0.54733 0.0
H453 H 0.2472 0.14303 0.66015 0.0
H454 H 0.23683 0.18179 0.64347 0.0
H455 H 0.19338 0.1379 0.66089 0.0
H456 H 0.18243 0.25574 0.59754 0.0
H457 H 0.07374 0.14976 0.63649 0.0
H458 H 0.22646 0.19595 0.57073 0.0
H459 H 0.25404 0.21281 0.60038 0.0
H460 H 0.24293 0.25014 0.5827 0.0
H461 H 0.0917 0.06559 0.61705 0.0
H462 H 0.06698 0.08089 0.64202 0.0
H463 H 0.1192 0.08349 0.6467 0.0
C464 C 0.05786 0.83066 0.89495 0.0
C465 C 0.08675 0.8682 0.88109 0.0
C466 C 0.01282 0.81777 0.89742 0.0
C467 C 0.99643 0.84339 0.88611 0.0
C468 C 0.02561 0.8814 0.87221 0.0
C469 C 0.0701 0.89308 0.86974 0.0
C470 C 0.98282 0.77689 0.91226 0.0
C471 C 0.01002 0.91028 0.86023 0.0
C472 C 0.87391 0.79883 0.8731 0.0
C473 C 0.86187 0.81705 0.89305 0.0
C474 C 0.91708 0.80565 0.87112 0.0
C475 C 0.94923 0.83169 0.88936 0.0
C476 C 0.93695 0.84928 0.90983 0.0
C477 C 0.89355 0.84159 0.91148 0.0
C478 C 0.92863 0.78598 0.84911 0.0
C479 C 0.9701 0.87764 0.92956 0.0
H480 H 0.07037 0.81121 0.90375 0.0
H481 H 0.09213 0.92241 0.85919 0.0
H482 H 0.96928 0.78566 0.92878 0.0
H483 H 0.95444 0.75392 0.90044 0.0
H484 H 1.00013 0.75957 0.91904 0.0
H485 H 0.03679 0.93858 0.84992 0.0
H486 H 0.98278 0.89074 0.84687 0.0
H487 H 0.99687 0.9232 0.87493 0.0
H488 H 0.84976 0.77972 0.8588 0.0
H489 H 0.88481 0.85591 0.927 0.0
H490 H 0.94452 0.76733 0.85589 0.0
H491 H 0.95271 0.81265 0.83671 0.0
H492 H 0.89924 0.76365 0.83771 0.0
H493 H 0.98626 0.86023 0.93778 0.0
H494 H 0.95481 0.88683 0.94504 0.0
H495 H 0.99632 0.90823 0.9207 0.0
C496 C 0.82639 0.96338 0.58181 0.0
C497 C 0.78347 0.94923 0.59055 0.0
C498 C 0.85827 0.00825 0.58112 0.0
C499 C 0.84691 0.03988 0.58907 0.0
C500 C 0.80299 0.02602 0.59647 0.0
C501 C 0.77185 0.98086 0.59723 0.0
C502 C 0.9047 0.02165 0.57303 0.0
C503 C 0.78934 0.0588 0.60449 0.0
C504 C 0.94062 0.14689 0.61505 0.0
C505 C 0.9526 0.17455 0.59396 0.0
C506 C 0.9057 0.10326 0.61383 0.0
C507 C 0.88168 0.08709 0.59109 0.0
C508 C 0.89241 0.11549 0.57008 0.0
C509 C 0.92803 0.15871 0.57169 0.0
C510 C 0.89557 0.07397 0.63661 0.0
C511 C 0.86736 0.09992 0.5456 0.0
H512 H 0.83576 0.93929 0.57655 0.0
H513 H 0.73872 0.97031 0.60385 0.0
H514 H 0.91554 0.04642 0.55773 0.0
H515 H 0.92757 0.03718 0.58911 0.0
H516 H 0.90772 0.99326 0.5663 0.0
H517 H 0.75321 0.04311 0.6076 0.0
H518 H 0.80642 0.07509 0.62224 0.0
H519 H 0.79928 0.08487 0.59 0.0
H520 H 0.95963 0.15878 0.63227 0.0
H521 H 0.93699 0.17996 0.55534 0.0
H522 H 0.9012 0.04629 0.632 0.0
H523 H 0.86038 0.05954 0.64196 0.0
H524 H 0.91628 0.09193 0.65311 0.0
H525 H 0.87782 0.07894 0.53549 0.0
H526 H 0.87356 0.12784 0.53313 0.0
H527 H 0.83137 0.0798 0.54906 0.0
C528 C 0.11901 0.11781 0.88023 0.0
C529 C 0.14075 0.16197 0.88777 0.0
C530 C 0.13771 0.09125 0.88453 0.0
C531 C 0.17939 0.10953 0.8964 0.0
C532 C 0.20169 0.15416 0.90392 0.0
C533 C 0.18194 0.17987 0.89962 0.0
C534 C 0.11266 0.0435 0.87655 0.0
C535 C 0.24625 0.17462 0.91651 0.0
C536 C 0.19967 0.02371 0.92618 0.0
C537 C 0.22175 0.01548 0.9067 0.0
C538 C 0.18805 0.05632 0.92375 0.0
C539 C 0.19885 0.08126 0.9013 0.0
C540 C 0.22404 0.07542 0.88237 0.0
C541 C 0.23521 0.04246 0.88529 0.0
C542 C 0.1613 0.06166 0.9444 0.0
C543 C 0.23658 0.10186 0.8583 0.0
H544 H 0.08705 0.10376 0.87119 0.0
H545 H 0.19893 0.21407 0.9054 0.0
H546 H 0.13271 0.03654 0.86308 0.0
H547 H 0.1062 0.02195 0.89318 0.0
H548 H 0.08063 0.03448 0.86751 0.0
H549 H 0.25957 0.21004 0.92079 0.0
H550 H 0.24386 0.15711 0.93435 0.0
H551 H 0.27005 0.17123 0.9042 0.0
H552 H 0.18917 0.00302 0.94281 0.0
H553 H 0.25253 0.03645 0.87024 0.0
H554 H 0.12681 0.04819 0.93791 0.0
H555 H 0.17446 0.09692 0.94888 0.0
H556 H 0.16093 0.0442 0.96194 0.0
H557 H 0.2067 0.09127 0.8466 0.0
H558 H 0.26102 0.09758 0.84708 0.0
H559 H 0.25046 0.13734 0.86248 0.0
C560 C 0.05809 0.84857 0.59505 0.0
C561 C 0.0777 0.8886 0.60817 0.0
C562 C 0.01336 0.82789 0.58815 0.0
C563 C 0.98833 0.84829 0.59422 0.0
C564 C 0.0087 0.88959 0.60657 0.0
C565 C 0.05297 0.90898 0.61356 0.0
C566 C 0.99259 0.78373 0.57518 0.0
C567 C 0.98351 0.91303 0.6129 0.0
C568 C 0.88153 0.82712 0.56502 0.0
C569 C 0.85251 0.80776 0.58537 0.0
C570 C 0.92543 0.83671 0.56654 0.0
C571 C 0.94038 0.82645 0.58889 0.0
C572 C 0.90997 0.80255 0.60831 0.0
C573 C 0.86633 0.79365 0.60637 0.0
C574 C 0.95663 0.86186 0.54529 0.0
C575 C 0.92441 0.79009 0.6322 0.0
H576 H 0.07729 0.83281 0.59089 0.0
H577 H 0.06828 0.9403 0.62335 0.0
H578 H 0.96898 0.75804 0.58823 0.0
H579 H 0.97366 0.78356 0.5584 0.0
H580 H 0.01752 0.77474 0.56922 0.0
H581 H 1.00494 0.94602 0.6213 0.0
H582 H 0.96795 0.91708 0.59568 0.0
H583 H 0.95672 0.8931 0.62647 0.0
H584 H 0.87095 0.83762 0.54855 0.0
H585 H 0.8438 0.77786 0.62195 0.0
H586 H 0.98055 0.85038 0.54198 0.0
H587 H 0.97567 0.89724 0.55039 0.0
H588 H 0.93866 0.85871 0.52746 0.0
H589 H 0.94675 0.77702 0.62787 0.0
H590 H 0.8959 0.7651 0.64325 0.0
H591 H 0.94293 0.81978 0.64413 0.0
C592 C 0.97184 0.11772 0.9251 0.0
C593 C 0.98058 0.15344 0.90953 0.0
C594 C 0.93441 0.07635 0.92126 0.0
C595 C 0.90463 0.07084 0.90168 0.0
C596 C 0.91082 0.10792 0.88776 0.0
C597 C 0.94898 0.14879 0.89171 0.0
C598 C 0.92924 0.03774 0.93651 0.0
C599 C 0.87914 0.10374 0.86725 0.0
C600 C 0.85615 0.9622 0.86695 0.0
C601 C 0.81446 0.9379 0.87815 0.0
C602 C 0.88533 0.00558 0.87428 0.0
C603 C 0.87225 0.02573 0.89291 0.0
C604 C 0.82955 1.00203 0.90365 0.0
C605 C 0.80127 0.95809 0.89635 0.0
C606 C 0.93081 0.02936 0.8626 0.0
C607 C 0.81412 0.02276 0.92314 0.0
H608 H 0.99585 0.12114 0.93912 0.0
H609 H 0.95512 0.17651 0.87993 0.0
H610 H 0.89467 0.01696 0.94289 0.0
H611 H 0.93759 0.01695 0.92452 0.0
H612 H 0.95114 0.04838 0.95328 0.0
H613 H 0.88354 0.13625 0.86178 0.0
H614 H 0.88483 0.08858 0.85034 0.0
H615 H 0.84452 0.08208 0.87336 0.0
H616 H 0.86674 0.94681 0.85299 0.0
H617 H 0.76901 0.93948 0.90501 0.0
H618 H 0.95621 0.03868 0.87747 0.0
H619 H 0.93644 0.06013 0.85342 0.0
H620 H 0.93574 0.00901 0.84831 0.0
H621 H 0.83314 0.0284 0.94079 0.0
H622 H 0.7785 1.00178 0.92753 0.0
H623 H 0.82016 0.05529 0.91649 0.0
C624 C 0.3581 0.11377 0.29477 0.0
C625 C 0.36075 0.14526 0.31202 0.0
C626 C 0.35502 0.11916 0.26888 0.0
C627 C 0.35402 0.15672 0.26005 0.0
C628 C 0.35827 0.18944 0.27727 0.0
C629 C 0.36184 0.18343 0.30313 0.0
C630 C 0.35113 0.08376 0.25105 0.0
C631 C 0.35695 0.2297 0.26853 0.0
C632 C 0.36999 0.17214 0.18947 0.0
C633 C 0.32627 0.14754 0.18113 0.0
C634 C 0.3797 0.17801 0.21532 0.0
C635 C 0.34479 0.1593 0.23303 0.0
C636 C 0.30055 0.13767 0.22461 0.0
C637 C 0.29183 0.13178 0.19874 0.0
C638 C 0.42728 0.20128 0.22363 0.0
C639 C 0.26238 0.11802 0.24293 0.0
H640 H 0.35775 0.08447 0.30156 0.0
H641 H 0.36377 0.20781 0.31644 0.0
H642 H 0.31801 0.06728 0.24218 0.0
H643 H 0.37584 0.09846 0.2357 0.0
H644 H 0.35591 0.05841 0.26075 0.0
H645 H 0.36613 0.25449 0.28378 0.0
H646 H 0.3795 0.24522 0.25231 0.0
H647 H 0.32316 0.21992 0.26204 0.0
H648 H 0.39674 0.18452 0.17591 0.0
H649 H 0.25795 0.11338 0.19232 0.0
H650 H 0.43571 0.17672 0.23084 0.0
H651 H 0.43272 0.22456 0.23921 0.0
H652 H 0.45013 0.21961 0.2079 0.0
H653 H 0.26078 0.08894 0.25223 0.0
H654 H 0.23033 0.10742 0.23346 0.0
H655 H 0.26706 0.14205 0.25792 0.0
C656 C 0.8599 0.70792 0.30137 0.0
C657 C 0.83547 0.67139 0.31687 0.0
C658 C 0.85813 0.70349 0.27511 0.0
C659 C 0.82998 0.66181 0.26423 0.0
C660 C 0.80748 0.62431 0.27986 0.0
C661 C 0.81101 0.62951 0.30613 0.0
C662 C 0.88379 0.74402 0.25905 0.0
C663 C 0.77649 0.57948 0.26902 0.0
C664 C 0.77736 0.67115 0.2043 0.0
C665 C 0.80076 0.66269 0.18585 0.0
C666 C 0.78524 0.66879 0.2299 0.0
C667 C 0.81843 0.65918 0.23717 0.0
C668 C 0.84176 0.64988 0.21859 0.0
C669 C 0.83211 0.6511 0.193 0.0
C670 C 0.75873 0.6777 0.24914 0.0
C671 C 0.87812 0.64067 0.22565 0.0
H672 H 0.87927 0.74022 0.30979 0.0
H673 H 0.79204 0.60129 0.31821 0.0
H674 H 0.89963 0.73699 0.24296 0.0
H675 H 0.86097 0.7543 0.25119 0.0
H676 H 0.90963 0.77193 0.27006 0.0
H677 H 0.76727 0.55293 0.28314 0.0
H678 H 0.74595 0.57864 0.26254 0.0
H679 H 0.79141 0.57257 0.25243 0.0
H680 H 0.75274 0.6796 0.19865 0.0
H681 H 0.85028 0.6448 0.17859 0.0
H682 H 0.78054 0.7088 0.25927 0.0
H683 H 0.7445 0.65095 0.26335 0.0
H684 H 0.73147 0.68057 0.24038 0.0
H685 H 0.90632 0.67097 0.23352 0.0
H686 H 0.88997 0.62978 0.20921 0.0
H687 H 0.86679 0.61507 0.2405 0.0
C688 C 0.8268 0.1671 0.17786 0.0
C689 C 0.86276 0.20377 0.16682 0.0
C690 C 0.82368 0.16182 0.20418 0.0
C691 C 0.857 0.19431 0.21963 0.0
C692 C 0.89219 0.23234 0.20856 0.0
C693 C 0.89479 0.23644 0.1823 0.0
C694 C 0.78589 0.1207 0.21535 0.0
C695 C 0.92806 0.26805 0.22441 0.0
C696 C 0.84529 0.20367 0.2901 0.0
C697 C 0.87205 0.18762 0.29941 0.0
C698 C 0.83807 0.20406 0.2641 0.0
C699 C 0.85759 0.18744 0.24719 0.0
C700 C 0.88227 0.16867 0.25666 0.0
C701 C 0.88948 0.1693 0.28264 0.0
C702 C 0.8118 0.2246 0.25467 0.0
C703 C 0.90303 0.14995 0.23926 0.0
H704 H 0.80196 0.14177 0.16594 0.0
H705 H 0.92233 0.26517 0.17386 0.0
H706 H 0.79856 0.10009 0.22357 0.0
H707 H 0.77012 0.12918 0.23085 0.0
H708 H 0.76044 0.10087 0.20107 0.0
H709 H 0.95113 0.29707 0.213 0.0
H710 H 0.91339 0.27905 0.23929 0.0
H711 H 0.94728 0.25496 0.23396 0.0
H712 H 0.83163 0.21776 0.30301 0.0
H713 H 0.90957 0.15615 0.28979 0.0
H714 H 0.78735 0.20319 0.24039 0.0
H715 H 0.83432 0.2564 0.24538 0.0
H716 H 0.79421 0.2308 0.27018 0.0
H717 H 0.87843 0.127 0.2255 0.0
H718 H 0.91689 0.13219 0.2497 0.0
H719 H 0.93003 0.17698 0.22837 0.0
C720 C 0.1766 0.3631 0.69411 0.0
C721 C 0.13381 0.34554 0.68437 0.0
C722 C 0.18383 0.36487 0.72023 0.0
C723 C 0.14744 0.34904 0.7369 0.0
C724 C 0.10446 0.333 0.72718 0.0
C725 C 0.09815 0.33125 0.70107 0.0
C726 C 0.23008 0.38194 0.72992 0.0
C727 C 0.06481 0.31617 0.74436 0.0
C728 C 0.14526 0.29812 0.79987 0.0
C729 C 0.14897 0.33064 0.81671 0.0
C730 C 0.14755 0.30491 0.77381 0.0
C731 C 0.15316 0.34504 0.76431 0.0
C732 C 0.15933 0.37898 0.78119 0.0
C733 C 0.15741 0.37145 0.8073 0.0
C734 C 0.14153 0.26813 0.75645 0.0
C735 C 0.16533 0.42218 0.77172 0.0
H736 H 0.20436 0.37437 0.68133 0.0
H737 H 0.06505 0.31816 0.69373 0.0
H738 H 0.23761 0.40635 0.74516 0.0
H739 H 0.23293 0.35437 0.73809 0.0
H740 H 0.25519 0.39746 0.71479 0.0
H741 H 0.0342 0.30817 0.73393 0.0
H742 H 0.05966 0.28605 0.75416 0.0
H743 H 0.07043 0.34099 0.75904 0.0
H744 H 0.13947 0.26676 0.80707 0.0
H745 H 0.16043 0.39674 0.82026 0.0
H746 H 0.16772 0.28071 0.74184 0.0
H747 H 0.10942 0.25455 0.74657 0.0
H748 H 0.14218 0.24094 0.76677 0.0
H749 H 0.19038 0.43553 0.75648 0.0
H750 H 0.17548 0.44707 0.787 0.0
H751 H 0.13381 0.41683 0.76364 0.0
C752 C 0.16333 0.81257 0.80872 0.0
C753 C 0.20322 0.84315 0.82001 0.0
C754 C 0.15829 0.81149 0.78242 0.0
C755 C 0.19412 0.84143 0.76728 0.0
C756 C 0.23507 0.87074 0.77857 0.0
C757 C 0.23903 0.87135 0.80479 0.0
C758 C 0.11417 0.77985 0.77096 0.0
C759 C 0.27427 0.90283 0.76305 0.0
C760 C 0.20247 0.83225 0.69668 0.0
C761 C 0.19464 0.86562 0.68823 0.0
C762 C 0.1997 0.82186 0.72238 0.0
C763 C 0.18851 0.84518 0.73988 0.0
C764 C 0.17767 0.87676 0.73126 0.0
C765 C 0.18108 0.88676 0.70553 0.0
C766 C 0.21151 0.788 0.73091 0.0
C767 C 0.16505 0.90195 0.74935 0.0
H768 H 0.13558 0.79068 0.82046 0.0
H769 H 0.27014 0.89462 0.81343 0.0
H770 H 0.0985 0.79842 0.76373 0.0
H771 H 0.11834 0.76228 0.75473 0.0
H772 H 0.0915 0.75523 0.78486 0.0
H773 H 0.30459 0.9211 0.77459 0.0
H774 H 0.28091 0.88528 0.74777 0.0
H775 H 0.267 0.92702 0.75401 0.0
H776 H 0.21268 0.81555 0.68338 0.0
H777 H 0.17419 0.91202 0.69906 0.0
H778 H 0.18724 0.76533 0.74491 0.0
H779 H 0.2442 0.80481 0.74026 0.0
H780 H 0.21305 0.76835 0.7149 0.0
H781 H 0.13935 0.87913 0.76268 0.0
H782 H 0.15257 0.92142 0.73943 0.0
H783 H 0.19426 0.92483 0.76066 0.0
C784 C 0.71935 0.84566 0.69135 0.0
C785 C 0.68225 0.82029 0.67633 0.0
C786 C 0.71568 0.84622 0.7176 0.0
C787 C 0.67402 0.82005 0.72907 0.0
C788 C 0.63603 0.7962 0.71393 0.0
C789 C 0.64056 0.79693 0.68761 0.0
C790 C 0.75684 0.87283 0.73309 0.0
C791 C 0.59115 0.7676 0.72553 0.0
C792 C 0.68224 0.77807 0.79319 0.0
C793 C 0.67623 0.80627 0.80935 0.0
C794 C 0.67958 0.78104 0.76703 0.0
C795 C 0.67153 0.81358 0.75676 0.0
C796 C 0.66442 0.84155 0.77295 0.0
C797 C 0.66648 0.8373 0.79916 0.0
C798 C 0.68661 0.75009 0.75037 0.0
C799 C 0.65637 0.87699 0.76261 0.0
H800 H 0.75153 0.86434 0.68261 0.0
H801 H 0.61183 0.7773 0.67599 0.0
H802 H 0.75121 0.89237 0.74757 0.0
H803 H 0.76534 0.85033 0.74312 0.0
H804 H 0.78547 0.89555 0.72128 0.0
H805 H 0.56436 0.75597 0.71132 0.0
H806 H 0.59009 0.73845 0.73439 0.0
H807 H 0.58468 0.78564 0.74057 0.0
H808 H 0.68916 0.75362 0.80101 0.0
H809 H 0.66182 0.85917 0.81162 0.0
H810 H 0.71746 0.76895 0.73935 0.0
H811 H 0.65912 0.73363 0.73671 0.0
H812 H 0.689 0.72444 0.76136 0.0
H813 H 0.68648 0.90218 0.75282 0.0
H814 H 0.64771 0.89345 0.77765 0.0
H815 H 0.62943 0.86301 0.7485 0.0
C816 C 0.19922 0.89315 0.97332 0.0
C817 C 0.23387 0.89275 0.96026 0.0
C818 C 0.208 0.92266 0.99338 0.0
C819 C 0.25229 0.95149 0.00061 0.0
C820 C 0.28695 0.94876 0.98857 0.0
C821 C 0.27729 0.91959 0.96847 0.0
C822 C 0.17025 0.92481 0.00578 0.0
C823 C 0.33453 0.97812 -0.00387 0.0
C824 C 0.2918 0.06211 0.03209 0.0
C825 C 0.29747 0.05259 0.05696 0.0
C826 C 0.27458 0.02879 0.01371 0.0
C827 C 0.26322 0.98526 0.02043 0.0
C828 C 0.26743 0.97529 0.04567 0.0
C829 C 0.28464 0.00904 0.06357 0.0
C830 C 0.26976 0.04033 0.98696 0.0
C831 C 0.25565 0.92935 0.0536 0.0
H832 H 0.16567 0.87282 0.96673 0.0
H833 H 0.30402 0.91909 0.95837 0.0
H834 H 0.17317 0.9252 0.02661 0.0
H835 H 0.17128 0.95579 0.00022 0.0
H836 H 0.13773 0.89672 0.00025 0.0
H837 H 0.35723 0.97008 0.98577 0.0
H838 H 0.34454 0.01297 0.99233 0.0
H839 H 0.33856 0.9751 0.01664 0.0
H840 H 0.30121 0.09556 0.02694 0.0
H841 H 0.28868 1.00124 0.0828 0.0
H842 H 0.236 0.01753 0.98003 0.0
H843 H 0.29307 0.03637 0.97451 0.0
H844 H 0.27627 0.07461 0.98522 0.0
H845 H 0.22218 0.9051 0.04685 0.0
H846 H 0.25669 0.92619 0.07438 0.0
H847 H 0.27912 0.92059 0.04491 0.0
C848 C 0.74073 0.68372 0.44916 0.0
C849 C 0.78373 0.69067 0.44803 0.0
C850 C 0.72738 0.70106 0.46876 0.0
C851 C 0.75814 0.72692 0.48751 0.0
C852 C 0.80189 0.73448 0.48645 0.0
C853 C 0.81409 0.71559 0.46682 0.0
C854 C 0.68004 0.69093 0.46961 0.0
C855 C 0.8358 0.763 0.50578 0.0
C856 C 0.71938 0.79189 0.52688 0.0
C857 C 0.70231 0.76464 0.54803 0.0
C858 C 0.74031 0.78152 0.50754 0.0
C859 C 0.74274 0.74243 0.50922 0.0
C860 C 0.72561 0.71508 0.53063 0.0
C861 C 0.70606 0.72677 0.54983 0.0
C862 C 0.75958 0.81208 0.48527 0.0
C863 C 0.72634 0.6725 0.53287 0.0
H864 H 0.71721 0.66429 0.43463 0.0
H865 H 0.84757 0.7216 0.46566 0.0
H866 H 0.66423 0.67343 0.48737 0.0
H867 H 0.67878 0.72188 0.46941 0.0
H868 H 0.66036 0.67024 0.45349 0.0
H869 H 0.86831 0.76548 0.50242 0.0
H870 H 0.84015 0.79656 0.50534 0.0
H871 H 0.82436 0.74977 0.52501 0.0
H872 H 0.7172 0.82159 0.52572 0.0
H873 H 0.6928 0.70562 0.56619 0.0
H874 H 0.74204 0.79509 0.46776 0.0
H875 H 0.79469 0.82147 0.48277 0.0
H876 H 0.75745 0.84246 0.48751 0.0
H877 H 0.70646 0.6498 0.51749 0.0
H878 H 0.71297 0.65579 0.5512 0.0
H879 H 0.76051 0.67869 0.53081 0.0
C880 C 0.04104 0.28941 0.92775 0.0
C881 C 0.08298 0.30797 0.93861 0.0
C882 C 1.00294 0.26941 0.94275 0.0
C883 C 0.0072 0.26838 0.96921 0.0
C884 C 0.04966 0.28566 0.98013 0.0
C885 C 0.0872 0.30586 0.96466 0.0
C886 C 0.9584 0.25123 0.93039 0.0
C887 C 0.05551 0.28432 0.00825 0.0
C888 C 0.92974 0.27598 0.0157 0.0
C889 C 0.90824 0.23356 0.02584 0.0
C890 C 0.95919 0.28666 -0.00446 0.0
C891 C 0.96823 0.25434 0.98586 0.0
C892 C 0.94373 0.21041 0.99464 0.0
C893 C 0.91345 0.20038 0.01447 0.0
C894 C 0.98359 0.33359 0.98622 0.0
C895 C 0.95259 0.17507 0.98497 0.0
H896 H 0.03813 0.29181 0.90754 0.0
H897 H 0.11983 0.32043 0.9729 0.0
H898 H 0.93549 0.21756 0.93737 0.0
H899 H 0.94395 0.27212 0.93537 0.0
H900 H 0.96051 0.25011 0.90953 0.0
H901 H 0.0901 0.29473 0.01343 0.0
H902 H 0.04591 0.30645 0.01782 0.0
H903 H 0.03373 0.25061 0.01556 0.0
H904 H 0.92575 0.30158 0.0247 0.0
H905 H 0.89727 0.16773 0.02269 0.0
H906 H 0.98422 0.33451 0.96532 0.0
H907 H 0.01826 0.34977 0.99284 0.0
H908 H 0.96847 0.35294 0.99318 0.0
H909 H 0.95813 0.17778 0.9643 0.0
H910 H 0.92502 0.14162 0.98944 0.0
H911 H 0.98295 0.17902 0.99398 0.0
C912 C 0.35133 0.05722 0.4587 0.0
C913 C 0.33801 0.08689 0.45096 0.0
C914 C 0.33435 0.03243 0.48065 0.0
C915 C 0.3025 0.03679 0.49488 0.0
C916 C 0.28959 0.0675 0.48747 0.0
C917 C 0.308 0.09273 0.46561 0.0
C918 C 0.34986 1.0009 0.48831 0.0
C919 C 0.25512 0.07235 0.50201 0.0
C920 C 0.23474 0.93773 0.53648 0.0
C921 C 0.25703 0.95243 0.55947 0.0
C922 C 0.2474 0.96591 0.51552 0.0
C923 C 0.28355 0.0093 0.51766 0.0
C924 C 0.30503 0.02468 0.54106 0.0
C925 C 0.29142 0.99612 0.56167 0.0
C926 C 0.22322 0.94882 0.49088 0.0
C927 C 0.34392 0.07059 0.54402 0.0
H928 H 0.37455 0.05283 0.44722 0.0
H929 H 0.29715 0.11514 0.45925 0.0
H930 H 0.36276 0.008 0.50786 0.0
H931 H 0.32175 0.96669 0.488 0.0
H932 H 0.37612 0.00283 0.47566 0.0
H933 H 0.25103 0.09981 0.4948 0.0
H934 H 0.22297 0.04141 0.50061 0.0
H935 H 0.26384 0.07805 0.52229 0.0
H936 H 0.20778 0.90419 0.53479 0.0
H937 H 0.30871 0.00785 0.57942 0.0
H938 H 0.24509 0.94538 0.47703 0.0
H939 H 0.21416 0.97246 0.4829 0.0
H940 H 0.19281 0.91634 0.49308 0.0
H941 H 0.37218 0.07368 0.53286 0.0
H942 H 0.35444 0.07868 0.56399 0.0
H943 H 0.33582 0.09527 0.53666 0.0
C944 C 0.72075 0.71047 0.05986 0.0
C945 C 0.74976 0.69386 0.05767 0.0
C946 C 0.71247 0.73037 0.03943 0.0
C947 C 0.73353 0.73357 0.01618 0.0
C948 C 0.76435 0.71868 0.01408 0.0
C949 C 0.77196 0.69869 0.03489 0.0
C950 C 0.67933 0.74573 0.04241 0.0
C951 C 0.78787 0.72225 0.98955 0.0
C952 C 0.67274 0.72677 0.9562 0.0
C953 C 0.69398 0.77069 0.94852 0.0
C954 C 0.68446 0.7146 0.97867 0.0
C955 C 0.71907 0.74717 0.9934 0.0
C956 C 0.73977 0.79195 0.9861 0.0
C957 C 0.72664 0.8033 0.96366 0.0
C958 C 0.66081 0.66666 0.98617 0.0
C959 C 0.77704 0.82739 0.0013 0.0
H960 H 0.70354 0.70704 0.07746 0.0
H961 H 0.79468 0.68628 0.0332 0.0
H962 H 0.69284 0.77956 0.03495 0.0
H963 H 0.6493 0.72398 0.03135 0.0
H964 H 0.66958 0.74531 0.06239 0.0
H965 H 0.81441 0.71391 0.9918 0.0
H966 H 0.76388 0.69952 0.97547 0.0
H967 H 0.80246 0.75605 0.98184 0.0
H968 H 0.64772 0.70176 0.94418 0.0
H969 H 0.74357 0.83715 0.95723 0.0
H970 H 0.64772 0.6628 0.00563 0.0
H971 H 0.68428 0.65408 0.98601 0.0
H972 H 0.63303 0.64597 0.97331 0.0
H973 H 0.76743 0.8254 0.0214 0.0
H974 H 0.78719 0.86088 0.99417 0.0
H975 H 0.80595 0.82243 0.00052 0.0
C976 C 0.08895 0.30205 0.52808 0.0
C977 C 0.07794 0.32545 0.5452 0.0
C978 C 0.06518 0.28586 0.50553 0.0
C979 C 0.03047 0.29426 0.49993 0.0
C980 C 0.02059 0.31946 0.51675 0.0
C981 C 0.04417 0.33437 0.5393 0.0
C982 C 0.07612 0.25851 0.48816 0.0
C983 C 0.98459 0.33006 0.51117 0.0
C984 C 0.99306 0.2863 0.43229 0.0
C985 C 0.95325 0.24615 0.43232 0.0
C986 C 0.01861 0.3022 0.45413 0.0
C987 C 1.00438 0.27693 0.47646 0.0
C988 C 0.96433 0.23616 0.47661 0.0
C989 C 0.93886 0.22146 0.45454 0.0
C990 C 0.06056 0.34627 0.45337 0.0
C991 C 0.94843 0.2081 0.50004 0.0
H992 H 0.11464 0.29463 0.53286 0.0
H993 H 0.03577 0.35258 0.55258 0.0
H994 H 0.04708 0.225 0.48641 0.0
H995 H 0.08384 0.27311 0.469 0.0
H996 H 0.10456 0.25566 0.49501 0.0
H997 H 0.98262 0.35194 0.52564 0.0
H998 H 0.9903 0.34627 0.4925 0.0
H999 H 0.95226 0.29925 0.51031 0.0
H1000 H 1.00412 0.3056 0.41513 0.0
H1001 H 0.90829 0.19023 0.45452 0.0
H1002 H 0.08907 0.34248 0.4588 0.0
H1003 H 0.05852 0.36895 0.46721 0.0
H1004 H 0.06704 0.36171 0.43441 0.0
H1005 H 0.97494 0.20293 0.50778 0.0
H1006 H 0.91893 0.17551 0.49636 0.0
H1007 H 0.93996 0.22518 0.51474 0.0
C1008 C 0.67159 0.15819 0.08277 0.0
C1009 C 0.70065 0.189 0.10025 0.0
C1010 C 0.62873 0.15133 0.07964 0.0
C1011 C 0.61499 0.17638 0.09406 0.0
C1012 C 0.64407 0.20716 0.11191 0.0
C1013 C 0.68637 0.21285 0.11491 0.0
C1014 C 0.59838 0.11782 0.06066 0.0
C1015 C 0.63092 0.23496 0.12742 0.0
C1016 C 0.52537 0.19754 0.06984 0.0
C1017 C 0.48973 0.17022 0.08547 0.0
C1018 C 0.56599 0.19896 0.07198 0.0
C1019 C 0.57092 0.17193 0.08994 0.0
C1020 C 0.53459 0.14304 0.10512 0.0
C1021 C 0.49448 0.14277 0.10284 0.0
C1022 C 0.60413 0.23067 0.0557 0.0
C1023 C 0.53845 0.11333 0.12425 0.0
H1024 H 0.68238 0.13955 0.07146 0.0
H1025 H 0.70868 0.23692 0.12837 0.0
H1026 H 0.56676 0.09416 0.0698 0.0
H1027 H 0.59058 0.1345 0.04545 0.0
H1028 H 0.61311 0.09924 0.05203 0.0
H1029 H 0.65715 0.25687 0.1408 0.0
H1030 H 0.62349 0.2556 0.11478 0.0
H1031 H 0.60051 0.21359 0.13829 0.0
H1032 H 0.52201 0.21895 0.05642 0.0
H1033 H 0.46696 0.12136 0.11485 0.0
H1034 H 0.61826 0.21305 0.04537 0.0
H1035 H 0.63064 0.25576 0.06777 0.0
H1036 H 0.59427 0.24783 0.0418 0.0
H1037 H 0.55212 0.0941 0.11526 0.0
H1038 H 0.5062 0.09013 0.13299 0.0
H1039 H 0.56162 0.13347 0.13938 0.0
C1040 C 0.68501 0.472 0.42606 0.0
C1041 C 0.69533 0.50921 0.41144 0.0
C1042 C 0.6455 0.4323 0.4224 0.0
C1043 C 0.61529 0.42989 0.40388 0.0
C1044 C 0.62445 0.46795 0.38999 0.0
C1045 C 0.66451 0.50712 0.39382 0.0
C1046 C 0.6372 0.39234 0.43743 0.0
C1047 C 0.59281 0.46681 0.3703 0.0
C1048 C 0.54443 0.31844 0.37341 0.0
C1049 C 0.50455 0.30229 0.38661 0.0
C1050 C 0.58044 0.36006 0.3787 0.0
C1051 C 0.57638 0.3866 0.39744 0.0
C1052 C 0.53588 0.37103 0.41042 0.0
C1053 C 0.50047 0.32886 0.40498 0.0
C1054 C 0.62322 0.37517 0.36464 0.0
C1055 C 0.53023 0.39864 0.43032 0.0
H1056 H 0.70863 0.47328 0.43971 0.0
H1057 H 0.67211 0.53583 0.38257 0.0
H1058 H 0.60407 0.37682 0.44628 0.0
H1059 H 0.63785 0.36759 0.42466 0.0
H1060 H 0.66222 0.40048 0.45243 0.0
H1061 H 0.6024 0.50016 0.36315 0.0
H1062 H 0.59189 0.44623 0.35415 0.0
H1063 H 0.55893 0.45163 0.37813 0.0
H1064 H 0.54801 0.29807 0.35929 0.0
H1065 H 0.46972 0.31661 0.41521 0.0
H1066 H 0.64977 0.38092 0.37813 0.0
H1067 H 0.63331 0.40683 0.35498 0.0
H1068 H 0.62073 0.35082 0.35037 0.0
H1069 H 0.55283 0.40426 0.4463 0.0
H1070 H 0.49593 0.38286 0.43765 0.0
H1071 H 0.53911 0.43136 0.4225 0.0
C1072 C 0.8647 0.37215 0.06217 0.0
C1073 C 0.85579 0.34233 0.08194 0.0
C1074 C 0.86469 0.41183 0.06612 0.0
C1075 C 0.85452 0.42157 0.09031 0.0
C1076 C 0.84673 0.39213 0.11051 0.0
C1077 C 0.84791 0.35313 0.10614 0.0
C1078 C 0.87413 0.44263 0.04417 0.0
C1079 C 0.83504 0.40076 0.13649 0.0
C1080 C 0.87821 0.53769 0.10628 0.0
C1081 C 0.83708 0.53435 0.10196 0.0
C1082 C 0.88465 0.50156 0.10222 0.0
C1083 C 0.84893 0.46083 0.09406 0.0
C1084 C 0.80738 0.45734 0.08965 0.0
C1085 C 0.80209 0.49411 0.09343 0.0
C1086 C 0.92964 0.50692 0.10673 0.0
C1087 C 0.7682 0.41446 0.08129 0.0
H1088 H 0.87103 0.36414 0.04344 0.0
H1089 H 0.84058 0.33011 0.12148 0.0
H1090 H 0.84379 0.44341 0.0391 0.0
H1091 H 0.89949 0.47661 0.04944 0.0
H1092 H 0.88572 0.43254 0.02728 0.0
H1093 H 0.83246 0.37606 0.15049 0.0
H1094 H 0.86013 0.43395 0.14311 0.0
H1095 H 0.803 0.40003 0.13578 0.0
H1096 H 0.90548 0.56861 0.11281 0.0
H1097 H 0.77008 0.49098 0.09019 0.0
H1098 H 0.94132 0.49796 0.08946 0.0
H1099 H 0.92771 0.4843 0.1219 0.0
H1100 H 0.95438 0.54108 0.11218 0.0
H1101 H 0.77558 0.40383 0.06311 0.0
H1102 H 0.73801 0.41699 0.07895 0.0
H1103 H 0.76131 0.38836 0.09532 0.0
C1104 C 0.54506 0.1819 0.41995 0.0
C1105 C 0.50932 0.15861 0.40355 0.0
C1106 C 0.58547 0.1834 0.416 0.0
C1107 C 0.59024 0.16051 0.39533 0.0
C1108 C 0.55357 0.13494 0.37952 0.0
C1109 C 0.51364 0.13456 0.38369 0.0
C1110 C 0.6238 0.21158 0.43313 0.0
C1111 C 0.55708 0.10955 0.35751 0.0
C1112 C 0.70512 0.21003 0.36723 0.0
C1113 C 0.72126 0.18444 0.37817 0.0
C1114 C 0.66251 0.20217 0.37247 0.0
C1115 C 0.63475 0.16732 0.3888 0.0
C1116 C 0.65037 0.14064 0.39951 0.0
C1117 C 0.69363 0.14977 0.39426 0.0
C1118 C 0.6476 0.23198 0.36098 0.0
C1119 C 0.62155 0.10284 0.41674 0.0
H1120 H 0.54218 0.20065 0.43535 0.0
H1121 H 0.48615 0.11627 0.37101 0.0
H1122 H 0.63911 0.1926 0.44021 0.0
H1123 H 0.64943 0.23999 0.42236 0.0
H1124 H 0.61379 0.22435 0.44953 0.0
H1125 H 0.52443 0.08712 0.34896 0.0
H1126 H 0.5787 0.13284 0.34281 0.0
H1127 H 0.57234 0.08991 0.36354 0.0
H1128 H 0.72624 0.2371 0.35491 0.0
H1129 H 0.7058 0.12978 0.40273 0.0
H1130 H 0.63978 0.24889 0.37612 0.0
H1131 H 0.61706 0.21233 0.34989 0.0
H1132 H 0.67301 0.25733 0.34845 0.0
H1133 H 0.61379 0.11549 0.43404 0.0
H1134 H 0.63753 0.0836 0.42232 0.0
H1135 H 0.58978 0.08049 0.40733 0.0
C1136 C 0.43725 0.34162 0.11708 0.0
C1137 C 0.43557 0.30734 0.1026 0.0
C1138 C 0.47321 0.38467 0.11521 0.0
C1139 C 0.50873 0.39332 0.09889 0.0
C1140 C 0.5064 0.35916 0.08355 0.0
C1141 C 0.46966 0.31675 0.08538 0.0
C1142 C 0.47399 0.42046 0.1314 0.0
C1143 C 0.54383 0.36676 0.06619 0.0
C1144 C 0.59764 0.50852 0.08003 0.0
C1145 C 0.63187 0.51584 0.09658 0.0
C1146 C 0.55651 0.46968 0.08135 0.0
C1147 C 0.5499 0.43698 0.09921 0.0
C1148 C 0.584 0.44475 0.11638 0.0
C1149 C 0.62436 0.48429 0.11504 0.0
C1150 C 0.52062 0.46309 0.06314 0.0
C1151 C 0.57861 0.41044 0.13542 0.0
H1152 H 0.41092 0.33463 0.13033 0.0
H1153 H 0.46882 0.29045 0.07421 0.0
H1154 H 0.4995 0.43013 0.14622 0.0
H1155 H 0.48287 0.45014 0.1199 0.0
H1156 H 0.44173 0.40975 0.14069 0.0
H1157 H 0.53602 0.33726 0.05469 0.0
H1158 H 0.55187 0.39463 0.0533 0.0
H1159 H 0.5738 0.37565 0.07748 0.0
H1160 H 0.60317 0.53296 0.06584 0.0
H1161 H 0.65074 0.4896 0.12779 0.0
H1162 H 0.48926 0.45257 0.0734 0.0
H1163 H 0.5147 0.43659 0.04959 0.0
H1164 H 0.52925 0.49345 0.05234 0.0
H1165 H 0.54896 0.40076 0.1472 0.0
H1166 H 0.60769 0.4222 0.148 0.0
H1167 H 0.57371 0.38047 0.12547 0.0
C1168 C 0.88059 0.52791 0.40194 0.0
C1169 C 0.84694 0.52365 0.38585 0.0
C1170 C 0.88901 0.49296 0.40514 0.0
C1171 C 0.86258 0.45274 0.39231 0.0
C1172 C 0.82891 0.44854 0.37586 0.0
C1173 C 0.8218 0.48412 0.37268 0.0
C1174 C 0.92563 0.49878 0.42252 0.0
C1175 C 0.79946 0.40598 0.36214 0.0
C1176 C 0.8937 0.3647 0.38175 0.0
C1177 C 0.86785 0.33353 0.40002 0.0
C1178 C 0.89458 0.40508 0.38003 0.0
C1179 C 0.86839 0.41407 0.39669 0.0
C1180 C 0.84377 0.38353 0.41586 0.0
C1181 C 0.84409 0.34379 0.41742 0.0
C1182 C 0.92183 0.43715 0.3596 0.0
C1183 C 0.81489 0.39155 0.43376 0.0
H1184 H 0.90019 0.55843 0.41211 0.0
H1185 H 0.79551 0.4804 0.36033 0.0
H1186 H 0.9116 0.47619 0.43883 0.0
H1187 H 0.94815 0.49009 0.41255 0.0
H1188 H 0.94512 0.53299 0.4297 0.0
H1189 H 0.7751 0.40833 0.34981 0.0
H1190 H 0.81962 0.39648 0.35039 0.0
H1191 H 0.78127 0.37916 0.37598 0.0
H1192 H 0.91245 0.35713 0.36839 0.0
H1193 H 0.82399 0.31987 0.43159 0.0
H1194 H 0.94133 0.47085 0.36744 0.0
H1195 H 0.8997 0.43806 0.34497 0.0
H1196 H 0.94469 0.428 0.35042 0.0
H1197 H 0.83384 0.42453 0.44255 0.0
H1198 H 0.80088 0.36645 0.44894 0.0
H1199 H 0.78724 0.39084 0.42315 0.0
C1200 C 0.21368 0.69593 0.62481 0.0
C1201 C 0.19041 0.71353 0.61257 0.0
C1202 C 0.20463 0.65291 0.62 0.0
C1203 C 0.17088 0.62624 0.60278 0.0
C1204 C 0.14644 0.64332 0.59078 0.0
C1205 C 0.15676 0.68695 0.59564 0.0
C1206 C 0.23207 0.6364 0.63289 0.0
C1207 C 0.10982 0.61569 0.57258 0.0
C1208 C 0.18423 0.53462 0.57364 0.0
C1209 C 0.1583 0.49907 0.58965 0.0
C1210 C 0.18711 0.57567 0.57703 0.0
C1211 C 0.16296 0.58131 0.5967 0.0
C1212 C 0.13485 0.54492 0.61207 0.0
C1213 C 0.13311 0.50432 0.60849 0.0
C1214 C 0.21798 0.61366 0.56043 0.0
C1215 C 0.10808 0.54939 0.63301 0.0
H1216 H 0.23995 0.71622 0.6378 0.0
H1217 H 0.13856 0.70025 0.58617 0.0
H1218 H 0.21048 0.606 0.64364 0.0
H1219 H 0.2498 0.62793 0.61857 0.0
H1220 H 0.25671 0.66108 0.64603 0.0
H1221 H 0.0921 0.63274 0.56606 0.0
H1222 H 0.12353 0.60753 0.5559 0.0
H1223 H 0.08578 0.58416 0.58159 0.0
H1224 H 0.20389 0.531 0.55903 0.0
H1225 H 0.11279 0.477 0.62086 0.0
H1226 H 0.24582 0.63848 0.5719 0.0
H1227 H 0.20072 0.63008 0.55236 0.0
H1228 H 0.23166 0.60309 0.54474 0.0
H1229 H 0.13043 0.5703 0.64823 0.0
H1230 H 0.08394 0.51703 0.6412 0.0
H1231 H 0.09007 0.56579 0.62598 0.0
C1232 C 0.35008 0.8383 0.88867 0.0
C1233 C 0.32143 0.81099 0.90759 0.0
C1234 C 0.3913 0.84137 0.88456 0.0
C1235 C 0.40416 0.8163 0.89959 0.0
C1236 C 0.37588 0.78961 0.91914 0.0
C1237 C 0.33507 0.78743 0.92295 0.0
C1238 C 0.42055 0.87045 0.86364 0.0
C1239 C 0.388 0.76201 0.93547 0.0
C1240 C 0.48221 0.78159 0.87141 0.0
C1241 C 0.52219 0.8097 0.8836 0.0
C1242 C 0.44388 0.78369 0.87634 0.0
C1243 C 0.4454 0.81515 0.89367 0.0
C1244 C 0.4858 0.84419 0.90577 0.0
C1245 C 0.52365 0.84089 0.90074 0.0
C1246 C 0.40148 0.75153 0.86332 0.0
C1247 C 0.48888 0.87838 0.92421 0.0
H1248 H 0.34002 0.85681 0.87676 0.0
H1249 H 0.31332 0.76625 0.93765 0.0
H1250 H 0.45426 0.89275 0.87087 0.0
H1251 H 0.42339 0.84986 0.84868 0.0
H1252 H 0.4076 0.8906 0.85505 0.0
H1253 H 0.36369 0.74504 0.95082 0.0
H1254 H 0.38992 0.73681 0.92373 0.0
H1255 H 0.42097 0.78281 0.94401 0.0
H1256 H 0.48047 0.75704 0.85831 0.0
H1257 H 0.55435 0.86272 0.91024 0.0
H1258 H 0.38836 0.76958 0.85255 0.0
H1259 H 0.37626 0.73109 0.87756 0.0
H1260 H 0.40591 0.72932 0.85019 0.0
H1261 H 0.47732 0.89935 0.91522 0.0
H1262 H 0.52303 0.89977 0.93118 0.0
H1263 H 0.46703 0.86204 0.9406 0.0
C1264 C 0.47099 0.66466 0.57079 0.0
C1265 C 0.50816 0.67377 0.58522 0.0
C1266 C 0.4305 0.62602 0.57458 0.0
C1267 C 0.42717 0.59541 0.59305 0.0
C1268 C 0.46507 0.6034 0.60685 0.0
C1269 C 0.50507 0.64264 0.60289 0.0
C1270 C 0.39078 0.61903 0.55967 0.0
C1271 C 0.46296 0.57131 0.62648 0.0
C1272 C 0.31472 0.52713 0.62332 0.0
C1273 C 0.29735 0.48741 0.60993 0.0
C1274 C 0.35711 0.56216 0.61822 0.0
C1275 C 0.3832 0.55729 0.59948 0.0
C1276 C 0.36643 0.51689 0.58635 0.0
C1277 C 0.32352 0.48247 0.5916 0.0
C1278 C 0.37347 0.60487 0.63245 0.0
C1279 C 0.3935 0.51036 0.56643 0.0
H1280 H 0.473 0.68851 0.55711 0.0
H1281 H 0.53371 0.64931 0.614 0.0
H1282 H 0.3745 0.5861 0.55067 0.0
H1283 H 0.36636 0.6202 0.57255 0.0
H1284 H 0.39952 0.64433 0.5448 0.0
H1285 H 0.49615 0.57998 0.63363 0.0
H1286 H 0.44256 0.57087 0.64264 0.0
H1287 H 0.447 0.53752 0.61859 0.0
H1288 H 0.29473 0.53141 0.63743 0.0
H1289 H 0.31036 0.45186 0.58121 0.0
H1290 H 0.37992 0.63173 0.61908 0.0
H1291 H 0.40505 0.61397 0.642 0.0
H1292 H 0.34946 0.60297 0.64683 0.0
H1293 H 0.39967 0.53306 0.55044 0.0
H1294 H 0.37689 0.47612 0.55911 0.0
H1295 H 0.42608 0.51839 0.57421 0.0
C1296 C 0.08258 0.64199 0.87385 0.0
C1297 C 0.11066 0.66979 0.89277 0.0
C1298 C 0.07404 0.59855 0.87159 0.0
C1299 C 0.09395 0.58283 0.88871 0.0
C1300 C 0.11916 0.60958 0.9091 0.0
C1301 C 0.12724 0.65277 0.91086 0.0
C1302 C 0.04659 0.57079 0.84979 0.0
C1303 C 0.14054 0.59383 0.92795 0.0
C1304 C 0.06848 0.46469 0.89353 0.0
C1305 C 0.10523 0.46734 0.8812 0.0
C1306 C 0.0626 0.50142 0.89487 0.0
C1307 C 0.09414 0.54137 0.88352 0.0
C1308 C 0.12944 0.54314 0.86949 0.0
C1309 C 0.13459 0.5061 0.86854 0.0
C1310 C 0.02442 0.49825 0.90985 0.0
C1311 C 0.16354 0.58504 0.85685 0.0
H1312 H 0.06943 0.65487 0.85989 0.0
H1313 H 0.14842 0.67391 0.92575 0.0
H1314 H 0.0686 0.56946 0.83516 0.0
H1315 H 0.02374 0.53654 0.85594 0.0
H1316 H 0.02711 0.58442 0.84108 0.0
H1317 H 0.15472 0.61661 0.94423 0.0
H1318 H 0.11631 0.56074 0.93513 0.0
H1319 H 0.16746 0.59108 0.91859 0.0
H1320 H 0.04556 0.43472 0.90328 0.0
H1321 H 0.16271 0.50811 0.85869 0.0
H1322 H 0.00878 0.51462 0.89977 0.0
H1323 H 0.03666 0.51539 0.92815 0.0
H1324 H 0.99899 0.46356 0.9137 0.0
H1325 H 0.1473 0.59903 0.84515 0.0
H1326 H 0.18636 0.57973 0.84469 0.0
H1327 H 0.1833 0.60982 0.87142 0.0
C1328 C 0.37625 0.88204 0.60982 0.0
C1329 C 0.34454 0.85463 0.5922 0.0
C1330 C 0.41617 0.88201 0.6124 0.0
C1331 C 0.42406 0.85327 0.59734 0.0
C1332 C 0.39282 0.82671 0.57892 0.0
C1333 C 0.35363 0.82802 0.57642 0.0
C1334 C 0.44906 0.91136 0.63193 0.0
C1335 C 0.39963 0.79506 0.56277 0.0
C1336 C 0.5366 0.862 0.59225 0.0
C1337 C 0.53225 0.82995 0.6096 0.0
C1338 C 0.5023 0.87135 0.58871 0.0
C1339 C 0.46257 0.84744 0.60251 0.0
C1340 C 0.45845 0.81574 0.62041 0.0
C1341 C 0.49346 0.80771 0.62389 0.0
C1342 C 0.5081 0.90592 0.56979 0.0
C1343 C 0.41638 0.789 0.63522 0.0
H1344 H 0.36954 0.90294 0.62192 0.0
H1345 H 0.32923 0.80665 0.5628 0.0
H1346 H 0.45012 0.89099 0.64759 0.0
H1347 H 0.48263 0.92945 0.62365 0.0
H1348 H 0.44057 0.93553 0.63987 0.0
H1349 H 0.37366 0.77895 0.54817 0.0
H1350 H 0.43221 0.8124 0.5533 0.0
H1351 H 0.39935 0.76913 0.57486 0.0
H1352 H 0.56659 0.87941 0.58123 0.0
H1353 H 0.48969 0.78272 0.63726 0.0
H1354 H 0.49968 0.92958 0.57849 0.0
H1355 H 0.48525 0.89015 0.55374 0.0
H1356 H 0.54231 0.92436 0.56235 0.0
H1357 H 0.40772 0.81108 0.64564 0.0
H1358 H 0.419 0.76651 0.64893 0.0
H1359 H 0.38881 0.76903 0.62212 0.0
C1360 C 0.49185 0.66403 0.91873 0.0
C1361 C 0.52709 0.6738 0.90233 0.0
C1362 C 0.45019 0.62691 0.91497 0.0
C1363 C 0.44365 0.59825 0.89456 0.0
C1364 C 0.4797 0.60651 0.87878 0.0
C1365 C 0.52093 0.64444 0.8827 0.0
C1366 C 0.41257 0.61984 0.93201 0.0
C1367 C 0.47425 0.5763 0.8571 0.0
C1368 C 0.33628 0.48835 0.89591 0.0
C1369 C 0.30945 0.49687 0.87999 0.0
C1370 C 0.38064 0.5204 0.90009 0.0
C1371 C 0.39823 0.5622 0.8885 0.0
C1372 C 0.37143 0.57068 0.87213 0.0
C1373 C 0.3276 0.53782 0.86789 0.0
C1374 C 0.40839 0.5099 0.91733 0.0
C1375 C 0.38854 0.61506 0.85976 0.0
H1376 H 0.49616 0.68654 0.93391 0.0
H1377 H 0.54803 0.65164 0.87001 0.0
H1378 H 0.38792 0.62395 0.92102 0.0
H1379 H 0.39562 0.58587 0.93962 0.0
H1380 H 0.42374 0.64333 0.94806 0.0
H1381 H 0.50638 0.58423 0.84855 0.0
H1382 H 0.45718 0.54156 0.8635 0.0
H1383 H 0.45345 0.57915 0.84231 0.0
H1384 H 0.32255 0.45672 0.90522 0.0
H1385 H 0.3071 0.54483 0.85566 0.0
H1386 H 0.41704 0.53064 0.93451 0.0
H1387 H 0.43975 0.51763 0.90787 0.0
H1388 H 0.39108 0.4748 0.92314 0.0
H1389 H 0.39761 0.64077 0.87442 0.0
H1390 H 0.3639 0.61596 0.84698 0.0
H1391 H 0.41878 0.62377 0.84875 0.0
loop_
_geom_bond_atom_site_label_1
_geom_bond_atom_site_label_2
_geom_bond_distance
_geom_bond_site_symmetry_2
_ccdc_geom_bond_type
Zn0 O6 1.969 . S
Zn0 O7 1.965 . S
Zn0 O11 2.024 . S
Zn0 O16 1.969 . S
Zn1 O8 1.969 . S
Zn1 O14 1.969 . S
Zn1 O15 1.965 . S
Zn1 O17 2.024 . S
C2 O3 1.229 . S
C2 O11 1.058 . S
O3 C2 1.229 . S
C4 O5 1.229 . S
C4 O17 1.058 . S
O5 C4 1.229 . S
O6 Zn0 1.969 . S
O6 C9 1.267 . S
O7 Zn0 1.965 . S
O7 C18 1.260 . S
O8 Zn1 1.969 . S
O8 C18 1.258 . S
C9 O6 1.267 . S
C9 O10 1.228 . S
O10 C9 1.228 . S
O11 Zn0 2.024 . S
O11 C2 1.058 . S
C12 O13 1.228 . S
C12 O14 1.267 . S
O13 C12 1.228 . S
O14 Zn1 1.969 . S
O14 C12 1.267 . S
O15 Zn1 1.965 . S
O15 C19 1.260 . S
O16 Zn0 1.969 . S
O16 C19 1.258 . S
O17 Zn1 2.024 . S
O17 C4 1.058 . S
C18 O7 1.260 . S
C18 O8 1.258 . S
C19 O15 1.260 . S
C19 O16 1.258 . S
Zn20 O26 1.969 . S
Zn20 O27 1.965 . S
Zn20 O31 2.024 . S
Zn20 O36 1.969 . S
Zn21 O28 1.969 . S
Zn21 O34 1.969 . S
Zn21 O35 1.965 . S
Zn21 O37 2.024 . S
C22 O23 1.229 . S
C22 O31 1.058 . S
O23 C22 1.229 . S
C24 O25 1.229 . S
C24 O37 1.058 . S
O25 C24 1.229 . S
O26 Zn20 1.969 . S
O26 C29 1.267 . S
O27 Zn20 1.965 . S
O27 C38 1.260 . S
O28 Zn21 1.969 . S
O28 C38 1.258 . S
C29 O26 1.267 . S
C29 O30 1.228 . S
O30 C29 1.228 . S
O31 Zn20 2.024 . S
O31 C22 1.058 . S
C32 O33 1.228 . S
C32 O34 1.267 . S
O33 C32 1.228 . S
O34 Zn21 1.969 . S
O34 C32 1.267 . S
O35 Zn21 1.965 . S
O35 C39 1.260 . S
O36 Zn20 1.969 . S
O36 C39 1.258 . S
O37 Zn21 2.024 . S
O37 C24 1.058 . S
C38 O27 1.260 . S
C38 O28 1.258 . S
C39 O35 1.260 . S
C39 O36 1.258 . S
Zn40 O46 1.969 . S
Zn40 O47 1.965 . S
Zn40 O51 2.024 . S
Zn40 O56 1.969 . S
Zn41 O48 1.969 . S
Zn41 O54 1.969 . S
Zn41 O55 1.965 . S
Zn41 O57 2.024 . S
C42 O43 1.229 . S
C42 O51 1.058 . S
O43 C42 1.229 . S
C44 O45 1.229 . S
C44 O57 1.058 . S
O45 C44 1.229 . S
O46 Zn40 1.969 . S
O46 C49 1.267 . S
O47 Zn40 1.965 . S
O47 C58 1.260 . S
O48 Zn41 1.969 . S
O48 C58 1.258 . S
C49 O46 1.267 . S
C49 O50 1.228 . S
O50 C49 1.228 . S
O51 Zn40 2.024 . S
O51 C42 1.058 . S
C52 O53 1.228 . S
C52 O54 1.267 . S
O53 C52 1.228 . S
O54 Zn41 1.969 . S
O54 C52 1.267 . S
O55 Zn41 1.965 . S
O55 C59 1.260 . S
O56 Zn40 1.969 . S
O56 C59 1.258 . S
O57 Zn41 2.024 . S
O57 C44 1.058 . S
C58 O47 1.260 . S
C58 O48 1.258 . S
C59 O55 1.260 . S
C59 O56 1.258 . S
Zn60 O66 1.969 . S
Zn60 O67 1.965 . S
Zn60 O71 2.024 . S
Zn60 O76 1.969 . S
Zn61 O68 1.969 . S
Zn61 O74 1.969 . S
Zn61 O75 1.965 . S
Zn61 O77 2.024 . S
C62 O63 1.229 . S
C62 O71 1.058 . S
O63 C62 1.229 . S
C64 O65 1.229 . S
C64 O77 1.058 . S
O65 C64 1.229 . S
O66 Zn60 1.969 . S
O66 C69 1.267 . S
O67 Zn60 1.965 . S
O67 C78 1.260 . S
O68 Zn61 1.969 . S
O68 C78 1.258 . S
C69 O66 1.267 . S
C69 O70 1.228 . S
O70 C69 1.228 . S
O71 Zn60 2.024 . S
O71 C62 1.058 . S
C72 O73 1.228 . S
C72 O74 1.267 . S
O73 C72 1.228 . S
O74 Zn61 1.969 . S
O74 C72 1.267 . S
O75 Zn61 1.965 . S
O75 C79 1.260 . S
O76 Zn60 1.969 . S
O76 C79 1.258 . S
O77 Zn61 2.024 . S
O77 C64 1.058 . S
C78 O67 1.260 . S
C78 O68 1.258 . S
C79 O75 1.260 . S
C79 O76 1.258 . S
Zn80 O86 1.969 . S
Zn80 O87 1.965 . S
Zn80 O91 2.024 . S
Zn80 O96 1.969 . S
Zn81 O88 1.969 . S
Zn81 O94 1.969 . S
Zn81 O95 1.965 . S
Zn81 O97 2.024 . S
C82 O83 1.229 . S
C82 O91 1.058 . S
O83 C82 1.229 . S
C84 O85 1.229 . S
C84 O97 1.058 . S
O85 C84 1.229 . S
O86 Zn80 1.969 . S
O86 C89 1.267 . S
O87 Zn80 1.965 . S
O87 C98 1.260 . S
O88 Zn81 1.969 . S
O88 C98 1.258 . S
C89 O86 1.267 . S
C89 O90 1.228 . S
O90 C89 1.228 . S
O91 Zn80 2.024 . S
O91 C82 1.058 . S
C92 O93 1.228 . S
C92 O94 1.267 . S
O93 C92 1.228 . S
O94 Zn81 1.969 . S
O94 C92 1.267 . S
O95 Zn81 1.965 . S
O95 C99 1.260 . S
O96 Zn80 1.969 . S
O96 C99 1.258 . S
O97 Zn81 2.024 . S
O97 C84 1.058 . S
C98 O87 1.260 . S
C98 O88 1.258 . S
C99 O95 1.260 . S
C99 O96 1.258 . S
Zn100 O106 1.969 . S
Zn100 O107 1.965 . S
Zn100 O111 2.024 . S
Zn100 O116 1.969 . S
Zn101 O108 1.969 . S
Zn101 O114 1.969 . S
Zn101 O115 1.965 . S
Zn101 O117 2.024 . S
C102 O103 1.229 . S
C102 O111 1.058 . S
O103 C102 1.229 . S
C104 O105 1.229 . S
C104 O117 1.058 . S
O105 C104 1.229 . S
O106 Zn100 1.969 . S
O106 C109 1.267 . S
O107 Zn100 1.965 . S
O107 C118 1.260 . S
O108 Zn101 1.969 . S
O108 C118 1.258 . S
C109 O106 1.267 . S
C109 O110 1.228 . S
O110 C109 1.228 . S
O111 Zn100 2.024 . S
O111 C102 1.058 . S
C112 O113 1.228 . S
C112 O114 1.267 . S
O113 C112 1.228 . S
O114 Zn101 1.969 . S
O114 C112 1.267 . S
O115 Zn101 1.965 . S
O115 C119 1.260 . S
O116 Zn100 1.969 . S
O116 C119 1.258 . S
O117 Zn101 2.024 . S
O117 C104 1.058 . S
C118 O107 1.260 . S
C118 O108 1.258 . S
C119 O115 1.260 . S
C119 O116 1.258 . S
Zn120 O126 1.969 . S
Zn120 O127 1.965 . S
Zn120 O131 2.024 . S
Zn120 O136 1.969 . S
Zn121 O128 1.969 . S
Zn121 O134 1.969 . S
Zn121 O135 1.965 . S
Zn121 O137 2.024 . S
C122 O123 1.229 . S
C122 O131 1.058 . S
O123 C122 1.229 . S
C124 O125 1.229 . S
C124 O137 1.058 . S
O125 C124 1.229 . S
O126 Zn120 1.969 . S
O126 C129 1.267 . S
O127 Zn120 1.965 . S
O127 C138 1.260 . S
O128 Zn121 1.969 . S
O128 C138 1.258 . S
C129 O126 1.267 . S
C129 O130 1.228 . S
O130 C129 1.228 . S
O131 Zn120 2.024 . S
O131 C122 1.058 . S
C132 O133 1.228 . S
C132 O134 1.267 . S
O133 C132 1.228 . S
O134 Zn121 1.969 . S
O134 C132 1.267 . S
O135 Zn121 1.965 . S
O135 C139 1.260 . S
O136 Zn120 1.969 . S
O136 C139 1.258 . S
O137 Zn121 2.024 . S
O137 C124 1.058 . S
C138 O127 1.260 . S
C138 O128 1.258 . S
C139 O135 1.260 . S
C139 O136 1.258 . S
Zn140 O146 1.969 . S
Zn140 O147 1.965 . S
Zn140 O151 2.024 . S
Zn140 O156 1.969 . S
Zn141 O148 1.969 . S
Zn141 O154 1.969 . S
Zn141 O155 1.965 . S
Zn141 O157 2.024 . S
C142 O143 1.229 . S
C142 O151 1.058 . S
O143 C142 1.229 . S
C144 O145 1.229 . S
C144 O157 1.058 . S
O145 C144 1.229 . S
O146 Zn140 1.969 . S
O146 C149 1.267 . S
O147 Zn140 1.965 . S
O147 C158 1.260 . S
O148 Zn141 1.969 . S
O148 C158 1.258 . S
C149 O146 1.267 . S
C149 O150 1.228 . S
O150 C149 1.228 . S
O151 Zn140 2.024 . S
O151 C142 1.058 . S
C152 O153 1.228 . S
C152 O154 1.267 . S
O153 C152 1.228 . S
O154 Zn141 1.969 . S
O154 C152 1.267 . S
O155 Zn141 1.965 . S
O155 C159 1.260 . S
O156 Zn140 1.969 . S
O156 C159 1.258 . S
O157 Zn141 2.024 . S
O157 C144 1.058 . S
C158 O147 1.260 . S
C158 O148 1.258 . S
C159 O155 1.260 . S
C159 O156 1.258 . S
Zn160 O166 1.969 . S
Zn160 O167 1.965 . S
Zn160 O171 2.024 . S
Zn160 O176 1.969 . S
Zn161 O168 1.969 . S
Zn161 O174 1.969 . S
Zn161 O175 1.965 . S
Zn161 O177 2.024 . S
C162 O163 1.229 . S
C162 O171 1.058 . S
O163 C162 1.229 . S
C164 O165 1.229 . S
C164 O177 1.058 . S
O165 C164 1.229 . S
O166 Zn160 1.969 . S
O166 C169 1.267 . S
O167 Zn160 1.965 . S
O167 C178 1.260 . S
O168 Zn161 1.969 . S
O168 C178 1.258 . S
C169 O166 1.267 . S
C169 O170 1.228 . S
O170 C169 1.228 . S
O171 Zn160 2.024 . S
O171 C162 1.058 . S
C172 O173 1.228 . S
C172 O174 1.267 . S
O173 C172 1.228 . S
O174 Zn161 1.969 . S
O174 C172 1.267 . S
O175 Zn161 1.965 . S
O175 C179 1.260 . S
O176 Zn160 1.969 . S
O176 C179 1.258 . S
O177 Zn161 2.024 . S
O177 C164 1.058 . S
C178 O167 1.260 . S
C178 O168 1.258 . S
C179 O175 1.260 . S
C179 O176 1.258 . S
Zn180 O186 1.969 . S
Zn180 O187 1.965 . S
Zn180 O191 2.024 . S
Zn180 O196 1.969 . S
Zn181 O188 1.969 . S
Zn181 O194 1.969 . S
Zn181 O195 1.965 . S
Zn181 O197 2.024 . S
C182 O183 1.229 . S
C182 O191 1.058 . S
O183 C182 1.229 . S
C184 O185 1.229 . S
C184 O197 1.058 . S
O185 C184 1.229 . S
O186 Zn180 1.969 . S
O186 C189 1.267 . S
O187 Zn180 1.965 . S
O187 C198 1.260 . S
O188 Zn181 1.969 . S
O188 C198 1.258 . S
C189 O186 1.267 . S
C189 O190 1.228 . S
O190 C189 1.228 . S
O191 Zn180 2.024 . S
O191 C182 1.058 . S
C192 O193 1.228 . S
C192 O194 1.267 . S
O193 C192 1.228 . S
O194 Zn181 1.969 . S
O194 C192 1.267 . S
O195 Zn181 1.965 . S
O195 C199 1.260 . S
O196 Zn180 1.969 . S
O196 C199 1.258 . S
O197 Zn181 2.024 . S
O197 C184 1.058 . S
C198 O187 1.260 . S
C198 O188 1.258 . S
C199 O195 1.260 . S
C199 O196 1.258 . S
Zn200 O206 1.969 . S
Zn200 O207 1.965 . S
Zn200 O211 2.024 . S
Zn200 O216 1.969 . S
Zn201 O208 1.969 . S
Zn201 O214 1.969 . S
Zn201 O215 1.965 . S
Zn201 O217 2.024 . S
C202 O203 1.229 . S
C202 O211 1.058 . S
O203 C202 1.229 . S
C204 O205 1.229 . S
C204 O217 1.058 . S
O205 C204 1.229 . S
O206 Zn200 1.969 . S
O206 C209 1.267 . S
O207 Zn200 1.965 . S
O207 C218 1.260 . S
O208 Zn201 1.969 . S
O208 C218 1.258 . S
C209 O206 1.267 . S
C209 O210 1.228 . S
O210 C209 1.228 . S
O211 Zn200 2.024 . S
O211 C202 1.058 . S
C212 O213 1.228 . S
C212 O214 1.267 . S
O213 C212 1.228 . S
O214 Zn201 1.969 . S
O214 C212 1.267 . S
O215 Zn201 1.965 . S
O215 C219 1.260 . S
O216 Zn200 1.969 . S
O216 C219 1.258 . S
O217 Zn201 2.024 . S
O217 C204 1.058 . S
C218 O207 1.260 . S
C218 O208 1.258 . S
C219 O215 1.260 . S
C219 O216 1.258 . S
Zn220 O226 1.969 . S
Zn220 O227 1.965 . S
Zn220 O231 2.024 . S
Zn220 O236 1.969 . S
Zn221 O228 1.969 . S
Zn221 O234 1.969 . S
Zn221 O235 1.965 . S
Zn221 O237 2.024 . S
C222 O223 1.229 . S
C222 O231 1.058 . S
O223 C222 1.229 . S
C224 O225 1.229 . S
C224 O237 1.058 . S
O225 C224 1.229 . S
O226 Zn220 1.969 . S
O226 C229 1.267 . S
O227 Zn220 1.965 . S
O227 C238 1.260 . S
O228 Zn221 1.969 . S
O228 C238 1.258 . S
C229 O226 1.267 . S
C229 O230 1.228 . S
O230 C229 1.228 . S
O231 Zn220 2.024 . S
O231 C222 1.058 . S
C232 O233 1.228 . S
C232 O234 1.267 . S
O233 C232 1.228 . S
O234 Zn221 1.969 . S
O234 C232 1.267 . S
O235 Zn221 1.965 . S
O235 C239 1.260 . S
O236 Zn220 1.969 . S
O236 C239 1.258 . S
O237 Zn221 2.024 . S
O237 C224 1.058 . S
C238 O227 1.260 . S
C238 O228 1.258 . S
C239 O235 1.260 . S
C239 O236 1.258 . S
C240 C241 1.391 . S
C240 C242 1.394 . S
C240 H256 0.931 . S
C241 C240 1.391 . S
C241 C245 1.376 . S
C242 C240 1.394 . S
C242 C243 1.369 . S
C242 C246 1.531 . S
C243 C242 1.369 . S
C243 C244 1.410 . S
C243 C251 1.503 . S
C244 C243 1.410 . S
C244 C245 1.392 . S
C244 C247 1.511 . S
C245 C241 1.376 . S
C245 C244 1.392 . S
C245 H257 0.929 1_455 S
C246 C242 1.531 . S
C246 H258 0.960 . S
C246 H259 0.962 . S
C246 H260 0.960 . S
C247 C244 1.511 . S
C247 H261 0.961 . S
C247 H262 0.961 . S
C247 H263 0.961 . S
C248 C249 1.370 . S
C248 C250 1.363 . S
C248 H264 0.931 . S
C249 C248 1.370 . S
C249 C253 1.408 . S
C250 C248 1.363 . S
C250 C251 1.370 . S
C250 C254 1.524 . S
C251 C243 1.503 . S
C251 C250 1.370 . S
C251 C252 1.403 . S
C252 C251 1.403 . S
C252 C253 1.404 . S
C252 C255 1.539 . S
C253 C249 1.408 . S
C253 C252 1.404 . S
C253 H265 0.930 . S
C254 C250 1.524 . S
C254 H266 0.956 . S
C254 H267 0.961 . S
C254 H268 0.961 . S
C255 C252 1.539 . S
C255 H269 0.958 . S
C255 H270 0.961 . S
C255 H271 0.960 . S
H256 C240 0.931 . S
H257 C245 0.929 1_655 S
H258 C246 0.960 . S
H259 C246 0.962 . S
H260 C246 0.960 . S
H261 C247 0.961 . S
H262 C247 0.961 . S
H263 C247 0.961 . S
H264 C248 0.931 . S
H265 C253 0.930 . S
H266 C254 0.956 . S
H267 C254 0.961 . S
H268 C254 0.961 . S
H269 C255 0.958 . S
H270 C255 0.961 . S
H271 C255 0.960 . S
C272 C273 1.391 . S
C272 C274 1.394 . S
C272 H288 0.931 1_565 S
C273 C272 1.391 . S
C273 C277 1.376 . S
C274 C272 1.394 . S
C274 C275 1.369 . S
C274 C278 1.531 . S
C275 C274 1.369 . S
C275 C276 1.410 . S
C275 C283 1.503 . S
C276 C275 1.410 . S
C276 C277 1.392 . S
C276 C279 1.511 . S
C277 C273 1.376 . S
C277 C276 1.392 . S
C277 H289 0.929 . S
C278 C274 1.531 . S
C278 H290 0.960 . S
C278 H291 0.962 . S
C278 H292 0.960 . S
C279 C276 1.511 . S
C279 H293 0.961 . S
C279 H294 0.961 . S
C279 H295 0.961 . S
C280 C281 1.370 . S
C280 C282 1.363 1_655 S
C280 H296 0.931 . S
C281 C280 1.370 . S
C281 C285 1.408 . S
C282 C280 1.363 1_455 S
C282 C283 1.370 . S
C282 C286 1.524 . S
C283 C275 1.503 . S
C283 C282 1.370 . S
C283 C284 1.403 . S
C284 C283 1.403 . S
C284 C285 1.404 1_455 S
C284 C287 1.539 . S
C285 C281 1.408 . S
C285 C284 1.404 1_655 S
C285 H297 0.930 . S
C286 C282 1.524 . S
C286 H298 0.956 . S
C286 H299 0.961 . S
C286 H300 0.961 . S
C287 C284 1.539 . S
C287 H301 0.958 . S
C287 H302 0.961 . S
C287 H303 0.960 . S
H288 C272 0.931 1_545 S
H289 C277 0.929 . S
H290 C278 0.960 . S
H291 C278 0.962 . S
H292 C278 0.960 . S
H293 C279 0.961 . S
H294 C279 0.961 . S
H295 C279 0.961 . S
H296 C280 0.931 . S
H297 C285 0.930 . S
H298 C286 0.956 . S
H299 C286 0.961 . S
H300 C286 0.961 . S
H301 C287 0.958 . S
H302 C287 0.961 . S
H303 C287 0.960 . S
C304 C305 1.391 . S
C304 C306 1.394 1_545 S
C304 H320 0.931 . S
C305 C304 1.391 . S
C305 C309 1.376 . S
C306 C304 1.394 1_565 S
C306 C307 1.369 . S
C306 C310 1.531 . S
C307 C306 1.369 . S
C307 C308 1.410 . S
C307 C315 1.503 . S
C308 C307 1.410 . S
C308 C309 1.392 1_565 S
C308 C311 1.511 . S
C309 C305 1.376 . S
C309 C308 1.392 1_545 S
C309 H321 0.929 . S
C310 C306 1.531 . S
C310 H322 0.960 . S
C310 H323 0.962 . S
C310 H324 0.960 . S
C311 C308 1.511 . S
C311 H325 0.961 1_565 S
C311 H326 0.961 . S
C311 H327 0.961 . S
C312 C313 1.370 . S
C312 C314 1.363 . S
C312 H328 0.931 . S
C313 C312 1.370 . S
C313 C317 1.408 . S
C314 C312 1.363 . S
C314 C315 1.370 . S
C314 C318 1.524 . S
C315 C307 1.503 . S
C315 C314 1.370 . S
C315 C316 1.403 . S
C316 C315 1.403 . S
C316 C317 1.404 . S
C316 C319 1.539 . S
C317 C313 1.408 . S
C317 C316 1.404 . S
C317 H329 0.930 . S
C318 C314 1.524 . S
C318 H330 0.956 . S
C318 H331 0.961 . S
C318 H332 0.961 . S
C319 C316 1.539 . S
C319 H333 0.958 . S
C319 H334 0.961 . S
C319 H335 0.960 . S
H320 C304 0.931 . S
H321 C309 0.929 . S
H322 C310 0.960 . S
H323 C310 0.962 . S
H324 C310 0.960 . S
H325 C311 0.961 1_545 S
H326 C311 0.961 . S
H327 C311 0.961 . S
H328 C312 0.931 . S
H329 C317 0.930 . S
H330 C318 0.956 . S
H331 C318 0.961 . S
H332 C318 0.961 . S
H333 C319 0.958 . S
H334 C319 0.961 . S
H335 C319 0.960 . S
C336 C337 1.391 . S
C336 C338 1.394 . S
C336 H352 0.931 . S
C337 C336 1.391 . S
C337 C341 1.376 . S
C338 C336 1.394 . S
C338 C339 1.369 . S
C338 C342 1.531 . S
C339 C338 1.369 . S
C339 C340 1.410 . S
C339 C347 1.503 . S
C340 C339 1.410 . S
C340 C341 1.392 . S
C340 C343 1.511 . S
C341 C337 1.376 . S
C341 C340 1.392 . S
C341 H353 0.929 . S
C342 C338 1.531 . S
C342 H354 0.960 . S
C342 H355 0.962 . S
C342 H356 0.960 . S
C343 C340 1.511 . S
C343 H357 0.961 . S
C343 H358 0.961 . S
C343 H359 0.961 . S
C344 C345 1.370 . S
C344 C346 1.363 . S
C344 H360 0.920 1_455 S
C345 C344 1.370 . S
C345 C349 1.408 . S
C346 C344 1.363 . S
C346 C347 1.370 . S
C346 C350 1.524 . S
C347 C339 1.503 . S
C347 C346 1.370 . S
C347 C348 1.403 . S
C348 C347 1.403 . S
C348 C349 1.404 . S
C348 C351 1.539 . S
C349 C345 1.408 . S
C349 C348 1.404 . S
C349 H361 0.930 . S
C350 C346 1.524 . S
C350 H362 0.956 . S
C350 H363 0.961 . S
C350 H364 0.961 . S
C351 C348 1.539 . S
C351 H365 0.958 . S
C351 H366 0.961 . S
C351 H367 0.960 . S
H352 C336 0.931 . S
H353 C341 0.929 . S
H354 C342 0.960 . S
H355 C342 0.962 . S
H356 C342 0.960 . S
H357 C343 0.961 . S
H358 C343 0.961 . S
H359 C343 0.961 . S
H360 C344 0.920 1_655 S
H361 C349 0.930 . S
H362 C350 0.956 . S
H363 C350 0.961 . S
H364 C350 0.961 . S
H365 C351 0.958 . S
H366 C351 0.961 . S
H367 C351 0.960 . S
C368 C369 1.391 . S
C368 C370 1.394 . S
C368 H384 0.931 . S
C369 C368 1.391 . S
C369 C373 1.376 . S
C370 C368 1.394 . S
C370 C371 1.369 . S
C370 C374 1.531 . S
C371 C370 1.369 . S
C371 C372 1.410 . S
C371 C379 1.503 . S
C372 C371 1.410 . S
C372 C373 1.392 . S
C372 C375 1.511 . S
C373 C369 1.376 . S
C373 C372 1.392 . S
C373 H385 0.929 1_565 S
C374 C370 1.531 . S
C374 H386 0.960 . S
C374 H387 0.962 . S
C374 H388 0.960 . S
C375 C372 1.511 . S
C375 H389 0.961 . S
C375 H390 0.961 . S
C375 H391 0.961 . S
C376 C377 1.370 . S
C376 C378 1.363 1_655 S
C376 H392 0.931 . S
C377 C376 1.370 . S
C377 C381 1.408 . S
C378 C376 1.363 1_455 S
C378 C379 1.370 . S
C378 C382 1.524 . S
C379 C371 1.503 . S
C379 C378 1.370 . S
C379 C380 1.403 . S
C380 C379 1.403 . S
C380 C381 1.404 1_455 S
C380 C383 1.539 . S
C381 C377 1.408 . S
C381 C380 1.404 1_655 S
C381 H393 0.930 . S
C382 C378 1.524 . S
C382 H394 0.956 . S
C382 H395 0.961 . S
C382 H396 0.961 . S
C383 C380 1.539 . S
C383 H397 0.958 . S
C383 H398 0.941 1_455 S
C383 H399 0.960 . S
H384 C368 0.931 . S
H385 C373 0.929 1_545 S
H386 C374 0.960 . S
H387 C374 0.962 . S
H388 C374 0.960 . S
H389 C375 0.961 . S
H390 C375 0.961 . S
H391 C375 0.961 . S
H392 C376 0.931 . S
H393 C381 0.930 . S
H394 C382 0.956 . S
H395 C382 0.961 . S
H396 C382 0.961 . S
H397 C383 0.958 . S
H398 C383 0.941 1_655 S
H399 C383 0.960 . S
C400 C401 1.391 . S
C400 C402 1.394 . S
C400 H416 0.931 . S
C401 C400 1.391 . S
C401 C405 1.376 . S
C402 C400 1.394 . S
C402 C403 1.369 . S
C402 C406 1.531 . S
C403 C402 1.369 . S
C403 C404 1.410 . S
C403 C411 1.503 . S
C404 C403 1.410 . S
C404 C405 1.392 . S
C404 C407 1.511 . S
C405 C401 1.376 . S
C405 C404 1.392 . S
C405 H417 0.929 . S
C406 C402 1.531 . S
C406 H418 0.960 . S
C406 H419 0.962 . S
C406 H420 0.960 . S
C407 C404 1.511 . S
C407 H421 0.961 . S
C407 H422 0.961 . S
C407 H423 0.961 . S
C408 C409 1.370 . S
C408 C410 1.363 1_545 S
C408 H424 0.931 . S
C409 C408 1.370 . S
C409 C413 1.408 . S
C410 C408 1.363 1_565 S
C410 C411 1.370 . S
C410 C414 1.524 . S
C411 C403 1.503 . S
C411 C410 1.370 . S
C411 C412 1.403 . S
C412 C411 1.403 . S
C412 C413 1.404 1_565 S
C412 C415 1.539 . S
C413 C409 1.408 . S
C413 C412 1.404 1_545 S
C413 H425 0.930 . S
C414 C410 1.524 . S
C414 H426 0.956 . S
C414 H427 0.961 . S
C414 H428 0.961 . S
C415 C412 1.539 . S
C415 H429 0.958 . S
C415 H430 0.961 . S
C415 H431 0.960 . S
H416 C400 0.931 . S
H417 C405 0.929 . S
H418 C406 0.960 . S
H419 C406 0.962 . S
H420 C406 0.960 . S
H421 C407 0.961 . S
H422 C407 0.961 . S
H423 C407 0.961 . S
H424 C408 0.931 . S
H425 C413 0.930 . S
H426 C414 0.956 . S
H427 C414 0.961 . S
H428 C414 0.961 . S
H429 C415 0.958 . S
H430 C415 0.961 . S
H431 C415 0.960 . S
C432 C433 1.391 . S
C432 C434 1.394 . S
C432 H448 0.931 1_545 S
C433 C432 1.391 . S
C433 C437 1.376 . S
C434 C432 1.394 . S
C434 C435 1.369 . S
C434 C438 1.531 . S
C435 C434 1.369 . S
C435 C436 1.410 . S
C435 C443 1.503 . S
C436 C435 1.410 . S
C436 C437 1.392 . S
C436 C439 1.511 . S
C437 C433 1.376 . S
C437 C436 1.392 . S
C437 H449 0.929 . S
C438 C434 1.531 . S
C438 H450 0.960 . S
C438 H451 0.962 . S
C438 H452 0.960 . S
C439 C436 1.511 . S
C439 H453 0.961 . S
C439 H454 0.961 . S
C439 H455 0.961 . S
C440 C441 1.370 . S
C440 C442 1.363 . S
C440 H456 0.931 . S
C441 C440 1.370 . S
C441 C445 1.408 . S
C442 C440 1.363 . S
C442 C443 1.370 . S
C442 C446 1.524 . S
C443 C435 1.503 . S
C443 C442 1.370 . S
C443 C444 1.403 . S
C444 C443 1.403 . S
C444 C445 1.404 . S
C444 C447 1.539 . S
C445 C441 1.408 . S
C445 C444 1.404 . S
C445 H457 0.930 . S
C446 C442 1.524 . S
C446 H458 0.956 . S
C446 H459 0.961 . S
C446 H460 0.961 . S
C447 C444 1.539 . S
C447 H461 0.958 . S
C447 H462 0.961 . S
C447 H463 0.960 . S
H448 C432 0.931 1_565 S
H449 C437 0.929 . S
H450 C438 0.960 . S
H451 C438 0.962 . S
H452 C438 0.960 . S
H453 C439 0.961 . S
H454 C439 0.961 . S
H455 C439 0.961 . S
H456 C440 0.931 . S
H457 C445 0.930 . S
H458 C446 0.956 . S
H459 C446 0.961 . S
H460 C446 0.961 . S
H461 C447 0.958 . S
H462 C447 0.961 . S
H463 C447 0.960 . S
C464 C465 1.391 . S
C464 C466 1.394 1_455 S
C464 H480 0.931 . S
C465 C464 1.391 . S
C465 C469 1.376 . S
C466 C464 1.394 1_655 S
C466 C467 1.369 . S
C466 C470 1.531 . S
C467 C466 1.369 . S
C467 C468 1.410 . S
C467 C475 1.503 . S
C468 C467 1.410 . S
C468 C469 1.392 1_655 S
C468 C471 1.511 . S
C469 C465 1.376 . S
C469 C468 1.392 1_455 S
C469 H481 0.929 . S
C470 C466 1.531 . S
C470 H482 0.960 . S
C470 H483 0.962 . S
C470 H484 0.960 . S
C471 C468 1.511 . S
C471 H485 0.961 . S
C471 H486 0.961 . S
C471 H487 0.961 . S
C472 C473 1.370 . S
C472 C474 1.363 . S
C472 H488 0.931 . S
C473 C472 1.370 . S
C473 C477 1.408 . S
C474 C472 1.363 . S
C474 C475 1.370 . S
C474 C478 1.524 . S
C475 C467 1.503 . S
C475 C474 1.370 . S
C475 C476 1.403 . S
C476 C475 1.403 . S
C476 C477 1.404 . S
C476 C479 1.539 . S
C477 C473 1.408 . S
C477 C476 1.404 . S
C477 H489 0.930 . S
C478 C474 1.524 . S
C478 H490 0.956 . S
C478 H491 0.961 . S
C478 H492 0.961 . S
C479 C476 1.539 . S
C479 H493 0.958 . S
C479 H494 0.961 . S
C479 H495 0.960 . S
H480 C464 0.931 . S
H481 C469 0.929 . S
H482 C470 0.960 . S
H483 C470 0.962 . S
H484 C470 0.960 . S
H485 C471 0.961 . S
H486 C471 0.961 . S
H487 C471 0.961 . S
H488 C472 0.931 . S
H489 C477 0.930 . S
H490 C478 0.956 . S
H491 C478 0.961 . S
H492 C478 0.961 . S
H493 C479 0.958 . S
H494 C479 0.961 . S
H495 C479 0.960 . S
C496 C497 1.391 . S
C496 C498 1.394 1_565 S
C496 H512 0.931 . S
C497 C496 1.391 . S
C497 C501 1.376 . S
C498 C496 1.394 1_545 S
C498 C499 1.369 . S
C498 C502 1.531 . S
C499 C498 1.369 . S
C499 C500 1.410 . S
C499 C507 1.503 . S
C500 C499 1.410 . S
C500 C501 1.392 1_545 S
C500 C503 1.511 . S
C501 C497 1.376 . S
C501 C500 1.392 1_565 S
C501 H513 0.929 . S
C502 C498 1.531 . S
C502 H514 0.960 . S
C502 H515 0.962 . S
C502 H516 0.960 . S
C503 C500 1.511 . S
C503 H517 0.961 . S
C503 H518 0.961 . S
C503 H519 0.961 . S
C504 C505 1.370 . S
C504 C506 1.363 . S
C504 H520 0.931 1_655 S
C505 C504 1.370 . S
C505 C509 1.408 . S
C506 C504 1.363 . S
C506 C507 1.370 . S
C506 C510 1.524 . S
C507 C499 1.503 . S
C507 C506 1.370 . S
C507 C508 1.403 . S
C508 C507 1.403 . S
C508 C509 1.404 . S
C508 C511 1.539 . S
C509 C505 1.408 . S
C509 C508 1.404 . S
C509 H521 0.930 . S
C510 C506 1.524 . S
C510 H522 0.956 . S
C510 H523 0.961 . S
C510 H524 0.961 . S
C511 C508 1.539 . S
C511 H525 0.958 . S
C511 H526 0.961 . S
C511 H527 0.960 . S
H512 C496 0.931 . S
H513 C501 0.929 . S
H514 C502 0.960 . S
H515 C502 0.962 . S
H516 C502 0.960 . S
H517 C503 0.961 . S
H518 C503 0.961 . S
H519 C503 0.961 . S
H520 C504 0.931 1_455 S
H521 C509 0.930 . S
H522 C510 0.956 . S
H523 C510 0.961 . S
H524 C510 0.961 . S
H525 C511 0.958 . S
H526 C511 0.961 . S
H527 C511 0.960 . S
C528 C529 1.391 . S
C528 C530 1.394 . S
C528 H544 0.931 . S
C529 C528 1.391 . S
C529 C533 1.376 . S
C530 C528 1.394 . S
C530 C531 1.369 . S
C530 C534 1.531 . S
C531 C530 1.369 . S
C531 C532 1.410 . S
C531 C539 1.503 . S
C532 C531 1.410 . S
C532 C533 1.392 . S
C532 C535 1.511 . S
C533 C529 1.376 . S
C533 C532 1.392 . S
C533 H545 0.929 . S
C534 C530 1.531 . S
C534 H546 0.960 . S
C534 H547 0.962 . S
C534 H548 0.960 . S
C535 C532 1.511 . S
C535 H549 0.961 . S
C535 H550 0.961 . S
C535 H551 0.961 . S
C536 C537 1.370 . S
C536 C538 1.363 . S
C536 H552 0.931 1_545 S
C537 C536 1.370 . S
C537 C541 1.408 . S
C538 C536 1.363 . S
C538 C539 1.370 . S
C538 C542 1.524 . S
C539 C531 1.503 . S
C539 C538 1.370 . S
C539 C540 1.403 . S
C540 C539 1.403 . S
C540 C541 1.404 . S
C540 C543 1.539 . S
C541 C537 1.408 . S
C541 C540 1.404 . S
C541 H553 0.930 . S
C542 C538 1.524 . S
C542 H554 0.956 . S
C542 H555 0.961 . S
C542 H556 0.961 . S
C543 C540 1.539 . S
C543 H557 0.958 . S
C543 H558 0.961 . S
C543 H559 0.960 . S
H544 C528 0.931 . S
H545 C533 0.929 . S
H546 C534 0.960 . S
H547 C534 0.962 . S
H548 C534 0.960 . S
H549 C535 0.961 . S
H550 C535 0.961 . S
H551 C535 0.961 . S
H552 C536 0.931 1_565 S
H553 C541 0.930 . S
H554 C542 0.956 . S
H555 C542 0.961 . S
H556 C542 0.961 . S
H557 C543 0.958 . S
H558 C543 0.961 . S
H559 C543 0.960 . S
C560 C561 1.391 . S
C560 C562 1.394 1_455 S
C560 H576 0.931 . S
C561 C560 1.391 . S
C561 C565 1.376 . S
C562 C560 1.394 1_655 S
C562 C563 1.369 . S
C562 C566 1.531 . S
C563 C562 1.369 . S
C563 C564 1.410 . S
C563 C571 1.503 . S
C564 C563 1.410 . S
C564 C565 1.392 1_655 S
C564 C567 1.511 . S
C565 C561 1.376 . S
C565 C564 1.392 1_455 S
C565 H577 0.929 . S
C566 C562 1.531 . S
C566 H578 0.960 . S
C566 H579 0.962 . S
C566 H580 0.960 . S
C567 C564 1.511 . S
C567 H581 0.961 1_655 S
C567 H582 0.961 . S
C567 H583 0.961 . S
C568 C569 1.370 . S
C568 C570 1.363 . S
C568 H584 0.931 . S
C569 C568 1.370 . S
C569 C573 1.408 . S
C570 C568 1.363 . S
C570 C571 1.370 . S
C570 C574 1.524 . S
C571 C563 1.503 . S
C571 C570 1.370 . S
C571 C572 1.403 . S
C572 C571 1.403 . S
C572 C573 1.404 . S
C572 C575 1.539 . S
C573 C569 1.408 . S
C573 C572 1.404 . S
C573 H585 0.930 . S
C574 C570 1.524 . S
C574 H586 0.956 . S
C574 H587 0.961 . S
C574 H588 0.961 . S
C575 C572 1.539 . S
C575 H589 0.958 . S
C575 H590 0.961 . S
C575 H591 0.960 . S
H576 C560 0.931 . S
H577 C565 0.929 . S
H578 C566 0.960 . S
H579 C566 0.962 . S
H580 C566 0.960 . S
H581 C567 0.961 1_455 S
H582 C567 0.961 . S
H583 C567 0.961 . S
H584 C568 0.931 . S
H585 C573 0.930 . S
H586 C574 0.956 . S
H587 C574 0.961 . S
H588 C574 0.961 . S
H589 C575 0.958 . S
H590 C575 0.961 . S
H591 C575 0.960 . S
C592 C593 1.391 . S
C592 C594 1.394 . S
C592 H608 0.931 . S
C593 C592 1.391 . S
C593 C597 1.376 . S
C594 C592 1.394 . S
C594 C595 1.369 . S
C594 C598 1.531 . S
C595 C594 1.369 . S
C595 C596 1.410 . S
C595 C603 1.503 . S
C596 C595 1.410 . S
C596 C597 1.392 . S
C596 C599 1.511 . S
C597 C593 1.376 . S
C597 C596 1.392 . S
C597 H609 0.929 . S
C598 C594 1.531 . S
C598 H610 0.960 . S
C598 H611 0.962 . S
C598 H612 0.960 . S
C599 C596 1.511 . S
C599 H613 0.961 . S
C599 H614 0.961 . S
C599 H615 0.961 . S
C600 C601 1.370 . S
C600 C602 1.363 1_565 S
C600 H616 0.931 . S
C601 C600 1.370 . S
C601 C605 1.408 . S
C602 C600 1.363 1_545 S
C602 C603 1.370 . S
C602 C606 1.524 . S
C603 C595 1.503 . S
C603 C602 1.370 . S
C603 C604 1.403 . S
C604 C603 1.403 . S
C604 C605 1.404 1_545 S
C604 C607 1.539 . S
C605 C601 1.408 . S
C605 C604 1.404 1_565 S
C605 H617 0.930 . S
C606 C602 1.524 . S
C606 H618 0.956 . S
C606 H619 0.961 . S
C606 H620 0.937 1_545 S
C607 C604 1.539 . S
C607 H621 0.958 . S
C607 H622 0.961 . S
C607 H623 0.960 . S
H608 C592 0.931 . S
H609 C597 0.929 . S
H610 C598 0.960 . S
H611 C598 0.962 . S
H612 C598 0.960 . S
H613 C599 0.961 . S
H614 C599 0.961 . S
H615 C599 0.961 . S
H616 C600 0.931 . S
H617 C605 0.930 . S
H618 C606 0.956 . S
H619 C606 0.961 . S
H620 C606 0.937 1_565 S
H621 C607 0.958 . S
H622 C607 0.961 . S
H623 C607 0.960 . S
C624 C625 1.391 . S
C624 C626 1.394 . S
C624 H640 0.931 . S
C625 C624 1.391 . S
C625 C629 1.376 . S
C626 C624 1.394 . S
C626 C627 1.369 . S
C626 C630 1.531 . S
C627 C626 1.369 . S
C627 C628 1.410 . S
C627 C635 1.503 . S
C628 C627 1.410 . S
C628 C629 1.392 . S
C628 C631 1.511 . S
C629 C625 1.376 . S
C629 C628 1.392 . S
C629 H641 0.929 . S
C630 C626 1.531 . S
C630 H642 0.960 . S
C630 H643 0.962 . S
C630 H644 0.960 . S
C631 C628 1.511 . S
C631 H645 0.961 . S
C631 H646 0.961 . S
C631 H647 0.961 . S
C632 C633 1.370 . S
C632 C634 1.363 . S
C632 H648 0.931 . S
C633 C632 1.370 . S
C633 C637 1.408 . S
C634 C632 1.363 . S
C634 C635 1.370 . S
C634 C638 1.524 . S
C635 C627 1.503 . S
C635 C634 1.370 . S
C635 C636 1.403 . S
C636 C635 1.403 . S
C636 C637 1.404 . S
C636 C639 1.539 . S
C637 C633 1.408 . S
C637 C636 1.404 . S
C637 H649 0.930 . S
C638 C634 1.524 . S
C638 H650 0.956 . S
C638 H651 0.961 . S
C638 H652 0.961 . S
C639 C636 1.539 . S
C639 H653 0.958 . S
C639 H654 0.961 . S
C639 H655 0.960 . S
H640 C624 0.931 . S
H641 C629 0.929 . S
H642 C630 0.960 . S
H643 C630 0.962 . S
H644 C630 0.960 . S
H645 C631 0.961 . S
H646 C631 0.961 . S
H647 C631 0.961 . S
H648 C632 0.931 . S
H649 C637 0.930 . S
H650 C638 0.956 . S
H651 C638 0.961 . S
H652 C638 0.961 . S
H653 C639 0.958 . S
H654 C639 0.961 . S
H655 C639 0.960 . S
C656 C657 1.391 . S
C656 C658 1.394 . S
C656 H672 0.931 . S
C657 C656 1.391 . S
C657 C661 1.376 . S
C658 C656 1.394 . S
C658 C659 1.369 . S
C658 C662 1.531 . S
C659 C658 1.369 . S
C659 C660 1.410 . S
C659 C667 1.503 . S
C660 C659 1.410 . S
C660 C661 1.392 . S
C660 C663 1.511 . S
C661 C657 1.376 . S
C661 C660 1.392 . S
C661 H673 0.929 . S
C662 C658 1.531 . S
C662 H674 0.960 . S
C662 H675 0.962 . S
C662 H676 0.960 . S
C663 C660 1.511 . S
C663 H677 0.961 . S
C663 H678 0.961 . S
C663 H679 0.961 . S
C664 C665 1.370 . S
C664 C666 1.363 . S
C664 H680 0.931 . S
C665 C664 1.370 . S
C665 C669 1.408 . S
C666 C664 1.363 . S
C666 C667 1.370 . S
C666 C670 1.524 . S
C667 C659 1.503 . S
C667 C666 1.370 . S
C667 C668 1.403 . S
C668 C667 1.403 . S
C668 C669 1.404 . S
C668 C671 1.539 . S
C669 C665 1.408 . S
C669 C668 1.404 . S
C669 H681 0.930 . S
C670 C666 1.524 . S
C670 H682 0.956 . S
C670 H683 0.961 . S
C670 H684 0.961 . S
C671 C668 1.539 . S
C671 H685 0.958 . S
C671 H686 0.961 . S
C671 H687 0.960 . S
H672 C656 0.931 . S
H673 C661 0.929 . S
H674 C662 0.960 . S
H675 C662 0.962 . S
H676 C662 0.960 . S
H677 C663 0.961 . S
H678 C663 0.961 . S
H679 C663 0.961 . S
H680 C664 0.931 . S
H681 C669 0.930 . S
H682 C670 0.956 . S
H683 C670 0.961 . S
H684 C670 0.961 . S
H685 C671 0.958 . S
H686 C671 0.961 . S
H687 C671 0.960 . S
C688 C689 1.391 . S
C688 C690 1.394 . S
C688 H704 0.931 . S
C689 C688 1.391 . S
C689 C693 1.376 . S
C690 C688 1.394 . S
C690 C691 1.369 . S
C690 C694 1.531 . S
C691 C690 1.369 . S
C691 C692 1.410 . S
C691 C699 1.503 . S
C692 C691 1.410 . S
C692 C693 1.392 . S
C692 C695 1.511 . S
C693 C689 1.376 . S
C693 C692 1.392 . S
C693 H705 0.929 . S
C694 C690 1.531 . S
C694 H706 0.960 . S
C694 H707 0.962 . S
C694 H708 0.960 . S
C695 C692 1.511 . S
C695 H709 0.961 . S
C695 H710 0.961 . S
C695 H711 0.961 . S
C696 C697 1.370 . S
C696 C698 1.363 . S
C696 H712 0.931 . S
C697 C696 1.370 . S
C697 C701 1.408 . S
C698 C696 1.363 . S
C698 C699 1.370 . S
C698 C702 1.524 . S
C699 C691 1.503 . S
C699 C698 1.370 . S
C699 C700 1.403 . S
C700 C699 1.403 . S
C700 C701 1.404 . S
C700 C703 1.539 . S
C701 C697 1.408 . S
C701 C700 1.404 . S
C701 H713 0.930 . S
C702 C698 1.524 . S
C702 H714 0.956 . S
C702 H715 0.961 . S
C702 H716 0.961 . S
C703 C700 1.539 . S
C703 H717 0.958 . S
C703 H718 0.961 . S
C703 H719 0.960 . S
H704 C688 0.931 . S
H705 C693 0.929 . S
H706 C694 0.960 . S
H707 C694 0.962 . S
H708 C694 0.960 . S
H709 C695 0.961 . S
H710 C695 0.961 . S
H711 C695 0.961 . S
H712 C696 0.931 . S
H713 C701 0.930 . S
H714 C702 0.956 . S
H715 C702 0.961 . S
H716 C702 0.961 . S
H717 C703 0.958 . S
H718 C703 0.961 . S
H719 C703 0.960 . S
C720 C721 1.391 . S
C720 C722 1.394 . S
C720 H736 0.931 . S
C721 C720 1.391 . S
C721 C725 1.376 . S
C722 C720 1.394 . S
C722 C723 1.369 . S
C722 C726 1.531 . S
C723 C722 1.369 . S
C723 C724 1.410 . S
C723 C731 1.503 . S
C724 C723 1.410 . S
C724 C725 1.392 . S
C724 C727 1.511 . S
C725 C721 1.376 . S
C725 C724 1.392 . S
C725 H737 0.929 . S
C726 C722 1.531 . S
C726 H738 0.960 . S
C726 H739 0.962 . S
C726 H740 0.960 . S
C727 C724 1.511 . S
C727 H741 0.961 . S
C727 H742 0.961 . S
C727 H743 0.961 . S
C728 C729 1.370 . S
C728 C730 1.363 . S
C728 H744 0.931 . S
C729 C728 1.370 . S
C729 C733 1.408 . S
C730 C728 1.363 . S
C730 C731 1.370 . S
C730 C734 1.524 . S
C731 C723 1.503 . S
C731 C730 1.370 . S
C731 C732 1.403 . S
C732 C731 1.403 . S
C732 C733 1.404 . S
C732 C735 1.539 . S
C733 C729 1.408 . S
C733 C732 1.404 . S
C733 H745 0.930 . S
C734 C730 1.524 . S
C734 H746 0.956 . S
C734 H747 0.961 . S
C734 H748 0.961 . S
C735 C732 1.539 . S
C735 H749 0.958 . S
C735 H750 0.961 . S
C735 H751 0.960 . S
H736 C720 0.931 . S
H737 C725 0.929 . S
H738 C726 0.960 . S
H739 C726 0.962 . S
H740 C726 0.960 . S
H741 C727 0.961 . S
H742 C727 0.961 . S
H743 C727 0.961 . S
H744 C728 0.931 . S
H745 C733 0.930 . S
H746 C734 0.956 . S
H747 C734 0.961 . S
H748 C734 0.961 . S
H749 C735 0.958 . S
H750 C735 0.961 . S
H751 C735 0.960 . S
C752 C753 1.391 . S
C752 C754 1.394 . S
C752 H768 0.931 . S
C753 C752 1.391 . S
C753 C757 1.376 . S
C754 C752 1.394 . S
C754 C755 1.369 . S
C754 C758 1.531 . S
C755 C754 1.369 . S
C755 C756 1.410 . S
C755 C763 1.503 . S
C756 C755 1.410 . S
C756 C757 1.392 . S
C756 C759 1.511 . S
C757 C753 1.376 . S
C757 C756 1.392 . S
C757 H769 0.929 . S
C758 C754 1.531 . S
C758 H770 0.960 . S
C758 H771 0.962 . S
C758 H772 0.960 . S
C759 C756 1.511 . S
C759 H773 0.961 . S
C759 H774 0.961 . S
C759 H775 0.961 . S
C760 C761 1.370 . S
C760 C762 1.363 . S
C760 H776 0.931 . S
C761 C760 1.370 . S
C761 C765 1.408 . S
C762 C760 1.363 . S
C762 C763 1.370 . S
C762 C766 1.524 . S
C763 C755 1.503 . S
C763 C762 1.370 . S
C763 C764 1.403 . S
C764 C763 1.403 . S
C764 C765 1.404 . S
C764 C767 1.539 . S
C765 C761 1.408 . S
C765 C764 1.404 . S
C765 H777 0.930 . S
C766 C762 1.524 . S
C766 H778 0.956 . S
C766 H779 0.961 . S
C766 H780 0.961 . S
C767 C764 1.539 . S
C767 H781 0.958 . S
C767 H782 0.961 . S
C767 H783 0.960 . S
H768 C752 0.931 . S
H769 C757 0.929 . S
H770 C758 0.960 . S
H771 C758 0.962 . S
H772 C758 0.960 . S
H773 C759 0.961 . S
H774 C759 0.961 . S
H775 C759 0.961 . S
H776 C760 0.931 . S
H777 C765 0.930 . S
H778 C766 0.956 . S
H779 C766 0.961 . S
H780 C766 0.961 . S
H781 C767 0.958 . S
H782 C767 0.961 . S
H783 C767 0.960 . S
C784 C785 1.391 . S
C784 C786 1.394 . S
C784 H800 0.931 . S
C785 C784 1.391 . S
C785 C789 1.376 . S
C786 C784 1.394 . S
C786 C787 1.369 . S
C786 C790 1.531 . S
C787 C786 1.369 . S
C787 C788 1.410 . S
C787 C795 1.503 . S
C788 C787 1.410 . S
C788 C789 1.392 . S
C788 C791 1.511 . S
C789 C785 1.376 . S
C789 C788 1.392 . S
C789 H801 0.929 . S
C790 C786 1.531 . S
C790 H802 0.960 . S
C790 H803 0.962 . S
C790 H804 0.960 . S
C791 C788 1.511 . S
C791 H805 0.961 . S
C791 H806 0.961 . S
C791 H807 0.961 . S
C792 C793 1.370 . S
C792 C794 1.363 . S
C792 H808 0.931 . S
C793 C792 1.370 . S
C793 C797 1.408 . S
C794 C792 1.363 . S
C794 C795 1.370 . S
C794 C798 1.524 . S
C795 C787 1.503 . S
C795 C794 1.370 . S
C795 C796 1.403 . S
C796 C795 1.403 . S
C796 C797 1.404 . S
C796 C799 1.539 . S
C797 C793 1.408 . S
C797 C796 1.404 . S
C797 H809 0.930 . S
C798 C794 1.524 . S
C798 H810 0.956 . S
C798 H811 0.961 . S
C798 H812 0.961 . S
C799 C796 1.539 . S
C799 H813 0.958 . S
C799 H814 0.961 . S
C799 H815 0.960 . S
H800 C784 0.931 . S
H801 C789 0.929 . S
H802 C790 0.960 . S
H803 C790 0.962 . S
H804 C790 0.960 . S
H805 C791 0.961 . S
H806 C791 0.961 . S
H807 C791 0.961 . S
H808 C792 0.931 . S
H809 C797 0.930 . S
H810 C798 0.956 . S
H811 C798 0.961 . S
H812 C798 0.961 . S
H813 C799 0.958 . S
H814 C799 0.961 . S
H815 C799 0.960 . S
C816 C817 1.391 . S
C816 C818 1.394 . S
C816 H832 0.931 . S
C817 C816 1.391 . S
C817 C821 1.376 . S
C818 C816 1.394 . S
C818 C819 1.369 . S
C818 C822 1.532 . S
C819 C818 1.369 . S
C819 C820 1.410 . S
C819 C827 1.503 1_566 S
C820 C819 1.410 . S
C820 C821 1.392 . S
C820 C823 1.511 . S
C821 C817 1.376 . S
C821 C820 1.392 . S
C821 H833 0.929 . S
C822 C818 1.532 . S
C822 H834 0.956 1_556 S
C822 H835 0.964 . S
C822 H836 0.960 . S
C823 C820 1.511 . S
C823 H837 0.961 . S
C823 H838 0.961 1_565 S
C823 H839 0.961 1_556 S
C824 C825 1.370 . S
C824 C826 1.363 . S
C824 H840 0.931 . S
C825 C824 1.370 . S
C825 C829 1.408 . S
C826 C824 1.363 . S
C826 C827 1.370 . S
C826 C830 1.524 1_554 S
C827 C819 1.503 1_544 S
C827 C826 1.370 . S
C827 C828 1.403 . S
C828 C827 1.403 . S
C828 C829 1.404 . S
C828 C831 1.539 1_545 S
C829 C825 1.408 . S
C829 C828 1.404 . S
C829 H841 0.930 . S
C830 C826 1.524 1_556 S
C830 H842 0.956 . S
C830 H843 0.961 . S
C830 H844 0.961 . S
C831 C828 1.539 1_565 S
C831 H845 0.958 . S
C831 H846 0.961 . S
C831 H847 0.960 . S
H832 C816 0.931 . S
H833 C821 0.929 . S
H834 C822 0.956 1_554 S
H835 C822 0.964 . S
H836 C822 0.960 . S
H837 C823 0.961 . S
H838 C823 0.961 1_545 S
H839 C823 0.961 1_554 S
H840 C824 0.931 . S
H841 C829 0.930 . S
H842 C830 0.956 . S
H843 C830 0.961 . S
H844 C830 0.961 . S
H845 C831 0.958 . S
H846 C831 0.961 . S
H847 C831 0.960 . S
C848 C849 1.391 . S
C848 C850 1.394 . S
C848 H864 0.931 . S
C849 C848 1.391 . S
C849 C853 1.376 . S
C850 C848 1.394 . S
C850 C851 1.369 . S
C850 C854 1.531 . S
C851 C850 1.369 . S
C851 C852 1.410 . S
C851 C859 1.503 . S
C852 C851 1.410 . S
C852 C853 1.392 . S
C852 C855 1.511 . S
C853 C849 1.376 . S
C853 C852 1.392 . S
C853 H865 0.929 . S
C854 C850 1.531 . S
C854 H866 0.960 . S
C854 H867 0.962 . S
C854 H868 0.960 . S
C855 C852 1.511 . S
C855 H869 0.961 . S
C855 H870 0.961 . S
C855 H871 0.961 . S
C856 C857 1.370 . S
C856 C858 1.363 . S
C856 H872 0.931 . S
C857 C856 1.370 . S
C857 C861 1.408 . S
C858 C856 1.363 . S
C858 C859 1.370 . S
C858 C862 1.524 . S
C859 C851 1.503 . S
C859 C858 1.370 . S
C859 C860 1.403 . S
C860 C859 1.403 . S
C860 C861 1.404 . S
C860 C863 1.539 . S
C861 C857 1.408 . S
C861 C860 1.404 . S
C861 H873 0.930 . S
C862 C858 1.524 . S
C862 H874 0.956 . S
C862 H875 0.961 . S
C862 H876 0.961 . S
C863 C860 1.539 . S
C863 H877 0.958 . S
C863 H878 0.961 . S
C863 H879 0.960 . S
H864 C848 0.931 . S
H865 C853 0.929 . S
H866 C854 0.960 . S
H867 C854 0.962 . S
H868 C854 0.960 . S
H869 C855 0.961 . S
H870 C855 0.961 . S
H871 C855 0.961 . S
H872 C856 0.931 . S
H873 C861 0.930 . S
H874 C862 0.956 . S
H875 C862 0.961 . S
H876 C862 0.961 . S
H877 C863 0.958 . S
H878 C863 0.961 . S
H879 C863 0.960 . S
C880 C881 1.391 . S
C880 C882 1.394 . S
C880 H896 0.931 . S
C881 C880 1.391 . S
C881 C885 1.376 . S
C882 C880 1.394 . S
C882 C883 1.369 . S
C882 C886 1.531 1_455 S
C883 C882 1.369 . S
C883 C884 1.410 . S
C883 C891 1.503 1_456 S
C884 C883 1.410 . S
C884 C885 1.392 . S
C884 C887 1.511 1_556 S
C885 C881 1.376 . S
C885 C884 1.392 . S
C885 H897 0.929 . S
C886 C882 1.531 1_655 S
C886 H898 0.960 . S
C886 H899 0.962 . S
C886 H900 0.960 . S
C887 C884 1.511 1_554 S
C887 H901 0.961 . S
C887 H902 0.961 . S
C887 H903 0.961 . S
C888 C889 1.370 . S
C888 C890 1.363 . S
C888 H904 0.931 . S
C889 C888 1.370 . S
C889 C893 1.408 . S
C890 C888 1.363 . S
C890 C891 1.370 . S
C890 C894 1.524 . S
C891 C883 1.503 1_654 S
C891 C890 1.370 . S
C891 C892 1.403 . S
C892 C891 1.403 . S
C892 C893 1.404 . S
C892 C895 1.539 . S
C893 C889 1.408 . S
C893 C892 1.404 . S
C893 H905 0.930 . S
C894 C890 1.524 . S
C894 H906 0.956 1_554 S
C894 H907 0.961 1_655 S
C894 H908 0.961 . S
C895 C892 1.539 . S
C895 H909 0.958 1_554 S
C895 H910 0.961 . S
C895 H911 0.960 1_655 S
H896 C880 0.931 . S
H897 C885 0.929 . S
H898 C886 0.960 . S
H899 C886 0.962 . S
H900 C886 0.960 . S
H901 C887 0.961 . S
H902 C887 0.961 . S
H903 C887 0.961 . S
H904 C888 0.931 . S
H905 C893 0.930 . S
H906 C894 0.956 1_556 S
H907 C894 0.961 1_455 S
H908 C894 0.961 . S
H909 C895 0.958 1_556 S
H910 C895 0.961 . S
H911 C895 0.960 1_455 S
C912 C913 1.391 . S
C912 C914 1.394 . S
C912 H928 0.931 . S
C913 C912 1.391 . S
C913 C917 1.376 . S
C914 C912 1.394 . S
C914 C915 1.369 . S
C914 C918 1.531 . S
C915 C914 1.369 . S
C915 C916 1.410 . S
C915 C923 1.503 1_545 S
C916 C915 1.410 . S
C916 C917 1.392 . S
C916 C919 1.511 1_545 S
C917 C913 1.376 . S
C917 C916 1.392 . S
C917 H929 0.929 . S
C918 C914 1.531 . S
C918 H930 0.960 . S
C918 H931 0.962 . S
C918 H932 0.960 . S
C919 C916 1.511 1_565 S
C919 H933 0.961 . S
C919 H934 0.961 . S
C919 H935 0.961 . S
C920 C921 1.370 . S
C920 C922 1.363 . S
C920 H936 0.931 . S
C921 C920 1.370 . S
C921 C925 1.408 . S
C922 C920 1.363 . S
C922 C923 1.370 . S
C922 C926 1.524 . S
C923 C915 1.503 1_565 S
C923 C922 1.370 . S
C923 C924 1.403 . S
C924 C923 1.403 . S
C924 C925 1.404 . S
C924 C927 1.539 1_565 S
C925 C921 1.408 . S
C925 C924 1.404 . S
C925 H937 0.930 . S
C926 C922 1.524 . S
C926 H938 0.956 . S
C926 H939 0.961 . S
C926 H940 0.961 . S
C927 C924 1.539 1_545 S
C927 H941 0.958 . S
C927 H942 0.961 . S
C927 H943 0.960 . S
H928 C912 0.931 . S
H929 C917 0.929 . S
H930 C918 0.960 . S
H931 C918 0.962 . S
H932 C918 0.960 . S
H933 C919 0.961 . S
H934 C919 0.961 . S
H935 C919 0.961 . S
H936 C920 0.931 . S
H937 C925 0.930 . S
H938 C926 0.956 . S
H939 C926 0.961 . S
H940 C926 0.961 . S
H941 C927 0.958 . S
H942 C927 0.961 . S
H943 C927 0.960 . S
C944 C945 1.391 . S
C944 C946 1.394 . S
C944 H960 0.931 . S
C945 C944 1.391 . S
C945 C949 1.376 . S
C946 C944 1.394 . S
C946 C947 1.369 . S
C946 C950 1.531 . S
C947 C946 1.369 . S
C947 C948 1.410 . S
C947 C955 1.503 1_554 S
C948 C947 1.410 . S
C948 C949 1.392 . S
C948 C951 1.511 1_554 S
C949 C945 1.376 . S
C949 C948 1.392 . S
C949 H961 0.929 . S
C950 C946 1.531 . S
C950 H962 0.960 . S
C950 H963 0.962 . S
C950 H964 0.960 . S
C951 C948 1.511 1_556 S
C951 H965 0.961 . S
C951 H966 0.961 . S
C951 H967 0.961 . S
C952 C953 1.370 . S
C952 C954 1.363 . S
C952 H968 0.931 . S
C953 C952 1.370 . S
C953 C957 1.408 . S
C954 C952 1.363 . S
C954 C955 1.370 . S
C954 C958 1.524 . S
C955 C947 1.503 1_556 S
C955 C954 1.370 . S
C955 C956 1.403 . S
C956 C955 1.403 . S
C956 C957 1.404 . S
C956 C959 1.539 1_556 S
C957 C953 1.408 . S
C957 C956 1.404 . S
C957 H969 0.930 . S
C958 C954 1.524 . S
C958 H970 0.956 . S
C958 H971 0.961 . S
C958 H972 0.961 . S
C959 C956 1.539 1_554 S
C959 H973 0.958 . S
C959 H974 0.961 . S
C959 H975 0.960 . S
H960 C944 0.931 . S
H961 C949 0.929 . S
H962 C950 0.960 . S
H963 C950 0.962 . S
H964 C950 0.960 . S
H965 C951 0.961 . S
H966 C951 0.961 . S
H967 C951 0.961 . S
H968 C952 0.931 . S
H969 C957 0.930 . S
H970 C958 0.956 . S
H971 C958 0.961 . S
H972 C958 0.961 . S
H973 C959 0.958 . S
H974 C959 0.961 . S
H975 C959 0.960 . S
C976 C977 1.391 . S
C976 C978 1.394 . S
C976 H992 0.931 . S
C977 C976 1.391 . S
C977 C981 1.376 . S
C978 C976 1.394 . S
C978 C979 1.369 . S
C978 C982 1.531 . S
C979 C978 1.369 . S
C979 C980 1.410 . S
C979 C987 1.503 1_455 S
C980 C979 1.410 . S
C980 C981 1.392 . S
C980 C983 1.511 1_455 S
C981 C977 1.376 . S
C981 C980 1.392 . S
C981 H993 0.929 . S
C982 C978 1.531 . S
C982 H994 0.960 . S
C982 H995 0.962 . S
C982 H996 0.960 . S
C983 C980 1.511 1_655 S
C983 H997 0.961 . S
C983 H998 0.961 . S
C983 H999 0.961 . S
C984 C985 1.370 . S
C984 C986 1.363 . S
C984 H1000 0.931 . S
C985 C984 1.370 . S
C985 C989 1.408 . S
C986 C984 1.363 . S
C986 C987 1.370 . S
C986 C990 1.524 1_655 S
C987 C979 1.503 1_655 S
C987 C986 1.370 . S
C987 C988 1.403 . S
C988 C987 1.403 . S
C988 C989 1.404 . S
C988 C991 1.539 . S
C989 C985 1.408 . S
C989 C988 1.404 . S
C989 H1001 0.930 . S
C990 C986 1.524 1_455 S
C990 H1002 0.956 . S
C990 H1003 0.961 . S
C990 H1004 0.961 . S
C991 C988 1.539 . S
C991 H1005 0.958 . S
C991 H1006 0.961 . S
C991 H1007 0.960 . S
H992 C976 0.931 . S
H993 C981 0.929 . S
H994 C982 0.960 . S
H995 C982 0.962 . S
H996 C982 0.960 . S
H997 C983 0.961 . S
H998 C983 0.961 . S
H999 C983 0.961 . S
H1000 C984 0.931 . S
H1001 C989 0.930 . S
H1002 C990 0.956 . S
H1003 C990 0.961 . S
H1004 C990 0.961 . S
H1005 C991 0.958 . S
H1006 C991 0.961 . S
H1007 C991 0.960 . S
C1008 C1009 1.391 . S
C1008 C1010 1.394 . S
C1008 H1024 0.931 . S
C1009 C1008 1.391 . S
C1009 C1013 1.376 . S
C1010 C1008 1.394 . S
C1010 C1011 1.369 . S
C1010 C1014 1.531 . S
C1011 C1010 1.369 . S
C1011 C1012 1.410 . S
C1011 C1019 1.503 . S
C1012 C1011 1.410 . S
C1012 C1013 1.392 . S
C1012 C1015 1.511 . S
C1013 C1009 1.376 . S
C1013 C1012 1.392 . S
C1013 H1025 0.929 . S
C1014 C1010 1.531 . S
C1014 H1026 0.960 . S
C1014 H1027 0.962 . S
C1014 H1028 0.960 . S
C1015 C1012 1.511 . S
C1015 H1029 0.961 . S
C1015 H1030 0.961 . S
C1015 H1031 0.961 . S
C1016 C1017 1.370 . S
C1016 C1018 1.363 . S
C1016 H1032 0.931 . S
C1017 C1016 1.370 . S
C1017 C1021 1.408 . S
C1018 C1016 1.363 . S
C1018 C1019 1.370 . S
C1018 C1022 1.524 . S
C1019 C1011 1.503 . S
C1019 C1018 1.370 . S
C1019 C1020 1.403 . S
C1020 C1019 1.403 . S
C1020 C1021 1.404 . S
C1020 C1023 1.539 . S
C1021 C1017 1.408 . S
C1021 C1020 1.404 . S
C1021 H1033 0.930 . S
C1022 C1018 1.524 . S
C1022 H1034 0.956 . S
C1022 H1035 0.961 . S
C1022 H1036 0.961 . S
C1023 C1020 1.539 . S
C1023 H1037 0.958 . S
C1023 H1038 0.961 . S
C1023 H1039 0.960 . S
H1024 C1008 0.931 . S
H1025 C1013 0.929 . S
H1026 C1014 0.960 . S
H1027 C1014 0.962 . S
H1028 C1014 0.960 . S
H1029 C1015 0.961 . S
H1030 C1015 0.961 . S
H1031 C1015 0.961 . S
H1032 C1016 0.931 . S
H1033 C1021 0.930 . S
H1034 C1022 0.956 . S
H1035 C1022 0.961 . S
H1036 C1022 0.961 . S
H1037 C1023 0.958 . S
H1038 C1023 0.961 . S
H1039 C1023 0.960 . S
C1040 C1041 1.391 . S
C1040 C1042 1.394 . S
C1040 H1056 0.931 . S
C1041 C1040 1.391 . S
C1041 C1045 1.376 . S
C1042 C1040 1.394 . S
C1042 C1043 1.369 . S
C1042 C1046 1.531 . S
C1043 C1042 1.369 . S
C1043 C1044 1.410 . S
C1043 C1051 1.503 . S
C1044 C1043 1.410 . S
C1044 C1045 1.392 . S
C1044 C1047 1.511 . S
C1045 C1041 1.376 . S
C1045 C1044 1.392 . S
C1045 H1057 0.929 . S
C1046 C1042 1.531 . S
C1046 H1058 0.960 . S
C1046 H1059 0.962 . S
C1046 H1060 0.960 . S
C1047 C1044 1.511 . S
C1047 H1061 0.961 . S
C1047 H1062 0.961 . S
C1047 H1063 0.961 . S
C1048 C1049 1.370 . S
C1048 C1050 1.363 . S
C1048 H1064 0.931 . S
C1049 C1048 1.370 . S
C1049 C1053 1.408 . S
C1050 C1048 1.363 . S
C1050 C1051 1.370 . S
C1050 C1054 1.524 . S
C1051 C1043 1.503 . S
C1051 C1050 1.370 . S
C1051 C1052 1.403 . S
C1052 C1051 1.403 . S
C1052 C1053 1.404 . S
C1052 C1055 1.539 . S
C1053 C1049 1.408 . S
C1053 C1052 1.404 . S
C1053 H1065 0.930 . S
C1054 C1050 1.524 . S
C1054 H1066 0.956 . S
C1054 H1067 0.961 . S
C1054 H1068 0.961 . S
C1055 C1052 1.539 . S
C1055 H1069 0.958 . S
C1055 H1070 0.961 . S
C1055 H1071 0.960 . S
H1056 C1040 0.931 . S
H1057 C1045 0.929 . S
H1058 C1046 0.960 . S
H1059 C1046 0.962 . S
H1060 C1046 0.960 . S
H1061 C1047 0.961 . S
H1062 C1047 0.961 . S
H1063 C1047 0.961 . S
H1064 C1048 0.931 . S
H1065 C1053 0.930 . S
H1066 C1054 0.956 . S
H1067 C1054 0.961 . S
H1068 C1054 0.961 . S
H1069 C1055 0.958 . S
H1070 C1055 0.961 . S
H1071 C1055 0.960 . S
C1072 C1073 1.391 . S
C1072 C1074 1.394 . S
C1072 H1088 0.931 . S
C1073 C1072 1.391 . S
C1073 C1077 1.376 . S
C1074 C1072 1.394 . S
C1074 C1075 1.369 . S
C1074 C1078 1.531 . S
C1075 C1074 1.369 . S
C1075 C1076 1.410 . S
C1075 C1083 1.503 . S
C1076 C1075 1.410 . S
C1076 C1077 1.392 . S
C1076 C1079 1.511 . S
C1077 C1073 1.376 . S
C1077 C1076 1.392 . S
C1077 H1089 0.929 . S
C1078 C1074 1.531 . S
C1078 H1090 0.960 . S
C1078 H1091 0.962 . S
C1078 H1092 0.960 . S
C1079 C1076 1.511 . S
C1079 H1093 0.961 . S
C1079 H1094 0.961 . S
C1079 H1095 0.961 . S
C1080 C1081 1.370 . S
C1080 C1082 1.363 . S
C1080 H1096 0.931 . S
C1081 C1080 1.370 . S
C1081 C1085 1.408 . S
C1082 C1080 1.363 . S
C1082 C1083 1.370 . S
C1082 C1086 1.524 . S
C1083 C1075 1.503 . S
C1083 C1082 1.370 . S
C1083 C1084 1.403 . S
C1084 C1083 1.403 . S
C1084 C1085 1.404 . S
C1084 C1087 1.539 . S
C1085 C1081 1.408 . S
C1085 C1084 1.404 . S
C1085 H1097 0.930 . S
C1086 C1082 1.524 . S
C1086 H1098 0.956 . S
C1086 H1099 0.961 . S
C1086 H1100 0.961 . S
C1087 C1084 1.539 . S
C1087 H1101 0.958 . S
C1087 H1102 0.961 . S
C1087 H1103 0.960 . S
H1088 C1072 0.931 . S
H1089 C1077 0.929 . S
H1090 C1078 0.960 . S
H1091 C1078 0.962 . S
H1092 C1078 0.960 . S
H1093 C1079 0.961 . S
H1094 C1079 0.961 . S
H1095 C1079 0.961 . S
H1096 C1080 0.931 . S
H1097 C1085 0.930 . S
H1098 C1086 0.956 . S
H1099 C1086 0.961 . S
H1100 C1086 0.961 . S
H1101 C1087 0.958 . S
H1102 C1087 0.961 . S
H1103 C1087 0.960 . S
C1104 C1105 1.391 . S
C1104 C1106 1.394 . S
C1104 H1120 0.931 . S
C1105 C1104 1.391 . S
C1105 C1109 1.376 . S
C1106 C1104 1.394 . S
C1106 C1107 1.369 . S
C1106 C1110 1.531 . S
C1107 C1106 1.369 . S
C1107 C1108 1.410 . S
C1107 C1115 1.503 . S
C1108 C1107 1.410 . S
C1108 C1109 1.392 . S
C1108 C1111 1.511 . S
C1109 C1105 1.376 . S
C1109 C1108 1.392 . S
C1109 H1121 0.929 . S
C1110 C1106 1.531 . S
C1110 H1122 0.960 . S
C1110 H1123 0.962 . S
C1110 H1124 0.960 . S
C1111 C1108 1.511 . S
C1111 H1125 0.961 . S
C1111 H1126 0.961 . S
C1111 H1127 0.961 . S
C1112 C1113 1.370 . S
C1112 C1114 1.363 . S
C1112 H1128 0.931 . S
C1113 C1112 1.370 . S
C1113 C1117 1.408 . S
C1114 C1112 1.363 . S
C1114 C1115 1.370 . S
C1114 C1118 1.524 . S
C1115 C1107 1.503 . S
C1115 C1114 1.370 . S
C1115 C1116 1.403 . S
C1116 C1115 1.403 . S
C1116 C1117 1.404 . S
C1116 C1119 1.539 . S
C1117 C1113 1.408 . S
C1117 C1116 1.404 . S
C1117 H1129 0.930 . S
C1118 C1114 1.524 . S
C1118 H1130 0.956 . S
C1118 H1131 0.961 . S
C1118 H1132 0.961 . S
C1119 C1116 1.539 . S
C1119 H1133 0.958 . S
C1119 H1134 0.961 . S
C1119 H1135 0.960 . S
H1120 C1104 0.931 . S
H1121 C1109 0.929 . S
H1122 C1110 0.960 . S
H1123 C1110 0.962 . S
H1124 C1110 0.960 . S
H1125 C1111 0.961 . S
H1126 C1111 0.961 . S
H1127 C1111 0.961 . S
H1128 C1112 0.931 . S
H1129 C1117 0.930 . S
H1130 C1118 0.956 . S
H1131 C1118 0.961 . S
H1132 C1118 0.961 . S
H1133 C1119 0.958 . S
H1134 C1119 0.961 . S
H1135 C1119 0.960 . S
C1136 C1137 1.391 . S
C1136 C1138 1.394 . S
C1136 H1152 0.931 . S
C1137 C1136 1.391 . S
C1137 C1141 1.376 . S
C1138 C1136 1.394 . S
C1138 C1139 1.369 . S
C1138 C1142 1.531 . S
C1139 C1138 1.369 . S
C1139 C1140 1.410 . S
C1139 C1147 1.503 . S
C1140 C1139 1.410 . S
C1140 C1141 1.392 . S
C1140 C1143 1.511 . S
C1141 C1137 1.376 . S
C1141 C1140 1.392 . S
C1141 H1153 0.929 . S
C1142 C1138 1.531 . S
C1142 H1154 0.960 . S
C1142 H1155 0.962 . S
C1142 H1156 0.960 . S
C1143 C1140 1.511 . S
C1143 H1157 0.961 . S
C1143 H1158 0.961 . S
C1143 H1159 0.961 . S
C1144 C1145 1.370 . S
C1144 C1146 1.363 . S
C1144 H1160 0.931 . S
C1145 C1144 1.370 . S
C1145 C1149 1.408 . S
C1146 C1144 1.363 . S
C1146 C1147 1.370 . S
C1146 C1150 1.524 . S
C1147 C1139 1.503 . S
C1147 C1146 1.370 . S
C1147 C1148 1.403 . S
C1148 C1147 1.403 . S
C1148 C1149 1.404 . S
C1148 C1151 1.539 . S
C1149 C1145 1.408 . S
C1149 C1148 1.404 . S
C1149 H1161 0.930 . S
C1150 C1146 1.524 . S
C1150 H1162 0.956 . S
C1150 H1163 0.961 . S
C1150 H1164 0.961 . S
C1151 C1148 1.539 . S
C1151 H1165 0.958 . S
C1151 H1166 0.961 . S
C1151 H1167 0.960 . S
H1152 C1136 0.931 . S
H1153 C1141 0.929 . S
H1154 C1142 0.960 . S
H1155 C1142 0.962 . S
H1156 C1142 0.960 . S
H1157 C1143 0.961 . S
H1158 C1143 0.961 . S
H1159 C1143 0.961 . S
H1160 C1144 0.931 . S
H1161 C1149 0.930 . S
H1162 C1150 0.956 . S
H1163 C1150 0.961 . S
H1164 C1150 0.961 . S
H1165 C1151 0.958 . S
H1166 C1151 0.961 . S
H1167 C1151 0.960 . S
C1168 C1169 1.391 . S
C1168 C1170 1.394 . S
C1168 H1184 0.931 . S
C1169 C1168 1.391 . S
C1169 C1173 1.376 . S
C1170 C1168 1.394 . S
C1170 C1171 1.369 . S
C1170 C1174 1.531 . S
C1171 C1170 1.369 . S
C1171 C1172 1.410 . S
C1171 C1179 1.503 . S
C1172 C1171 1.410 . S
C1172 C1173 1.392 . S
C1172 C1175 1.511 . S
C1173 C1169 1.376 . S
C1173 C1172 1.392 . S
C1173 H1185 0.929 . S
C1174 C1170 1.531 . S
C1174 H1186 0.960 . S
C1174 H1187 0.962 . S
C1174 H1188 0.960 . S
C1175 C1172 1.511 . S
C1175 H1189 0.961 . S
C1175 H1190 0.961 . S
C1175 H1191 0.961 . S
C1176 C1177 1.370 . S
C1176 C1178 1.363 . S
C1176 H1192 0.931 . S
C1177 C1176 1.370 . S
C1177 C1181 1.408 . S
C1178 C1176 1.363 . S
C1178 C1179 1.370 . S
C1178 C1182 1.524 . S
C1179 C1171 1.503 . S
C1179 C1178 1.370 . S
C1179 C1180 1.403 . S
C1180 C1179 1.403 . S
C1180 C1181 1.404 . S
C1180 C1183 1.539 . S
C1181 C1177 1.408 . S
C1181 C1180 1.404 . S
C1181 H1193 0.930 . S
C1182 C1178 1.524 . S
C1182 H1194 0.956 . S
C1182 H1195 0.961 . S
C1182 H1196 0.961 . S
C1183 C1180 1.539 . S
C1183 H1197 0.958 . S
C1183 H1198 0.961 . S
C1183 H1199 0.960 . S
H1184 C1168 0.931 . S
H1185 C1173 0.929 . S
H1186 C1174 0.960 . S
H1187 C1174 0.962 . S
H1188 C1174 0.960 . S
H1189 C1175 0.961 . S
H1190 C1175 0.961 . S
H1191 C1175 0.961 . S
H1192 C1176 0.931 . S
H1193 C1181 0.930 . S
H1194 C1182 0.956 . S
H1195 C1182 0.961 . S
H1196 C1182 0.961 . S
H1197 C1183 0.958 . S
H1198 C1183 0.961 . S
H1199 C1183 0.960 . S
C1200 C1201 1.391 . S
C1200 C1202 1.394 . S
C1200 H1216 0.931 . S
C1201 C1200 1.391 . S
C1201 C1205 1.376 . S
C1202 C1200 1.394 . S
C1202 C1203 1.369 . S
C1202 C1206 1.531 . S
C1203 C1202 1.369 . S
C1203 C1204 1.410 . S
C1203 C1211 1.503 . S
C1204 C1203 1.410 . S
C1204 C1205 1.392 . S
C1204 C1207 1.511 . S
C1205 C1201 1.376 . S
C1205 C1204 1.392 . S
C1205 H1217 0.929 . S
C1206 C1202 1.531 . S
C1206 H1218 0.960 . S
C1206 H1219 0.962 . S
C1206 H1220 0.960 . S
C1207 C1204 1.511 . S
C1207 H1221 0.961 . S
C1207 H1222 0.961 . S
C1207 H1223 0.961 . S
C1208 C1209 1.370 . S
C1208 C1210 1.363 . S
C1208 H1224 0.931 . S
C1209 C1208 1.370 . S
C1209 C1213 1.408 . S
C1210 C1208 1.363 . S
C1210 C1211 1.370 . S
C1210 C1214 1.524 . S
C1211 C1203 1.503 . S
C1211 C1210 1.370 . S
C1211 C1212 1.403 . S
C1212 C1211 1.403 . S
C1212 C1213 1.404 . S
C1212 C1215 1.539 . S
C1213 C1209 1.408 . S
C1213 C1212 1.404 . S
C1213 H1225 0.930 . S
C1214 C1210 1.524 . S
C1214 H1226 0.956 . S
C1214 H1227 0.961 . S
C1214 H1228 0.961 . S
C1215 C1212 1.539 . S
C1215 H1229 0.958 . S
C1215 H1230 0.961 . S
C1215 H1231 0.960 . S
H1216 C1200 0.931 . S
H1217 C1205 0.929 . S
H1218 C1206 0.960 . S
H1219 C1206 0.962 . S
H1220 C1206 0.960 . S
H1221 C1207 0.961 . S
H1222 C1207 0.961 . S
H1223 C1207 0.961 . S
H1224 C1208 0.931 . S
H1225 C1213 0.930 . S
H1226 C1214 0.956 . S
H1227 C1214 0.961 . S
H1228 C1214 0.961 . S
H1229 C1215 0.958 . S
H1230 C1215 0.961 . S
H1231 C1215 0.960 . S
C1232 C1233 1.391 . S
C1232 C1234 1.394 . S
C1232 H1248 0.931 . S
C1233 C1232 1.391 . S
C1233 C1237 1.376 . S
C1234 C1232 1.394 . S
C1234 C1235 1.369 . S
C1234 C1238 1.531 . S
C1235 C1234 1.369 . S
C1235 C1236 1.410 . S
C1235 C1243 1.503 . S
C1236 C1235 1.410 . S
C1236 C1237 1.392 . S
C1236 C1239 1.511 . S
C1237 C1233 1.376 . S
C1237 C1236 1.392 . S
C1237 H1249 0.929 . S
C1238 C1234 1.531 . S
C1238 H1250 0.960 . S
C1238 H1251 0.962 . S
C1238 H1252 0.960 . S
C1239 C1236 1.511 . S
C1239 H1253 0.961 . S
C1239 H1254 0.961 . S
C1239 H1255 0.961 . S
C1240 C1241 1.370 . S
C1240 C1242 1.363 . S
C1240 H1256 0.931 . S
C1241 C1240 1.370 . S
C1241 C1245 1.408 . S
C1242 C1240 1.363 . S
C1242 C1243 1.370 . S
C1242 C1246 1.524 . S
C1243 C1235 1.503 . S
C1243 C1242 1.370 . S
C1243 C1244 1.403 . S
C1244 C1243 1.403 . S
C1244 C1245 1.404 . S
C1244 C1247 1.539 . S
C1245 C1241 1.408 . S
C1245 C1244 1.404 . S
C1245 H1257 0.930 . S
C1246 C1242 1.524 . S
C1246 H1258 0.956 . S
C1246 H1259 0.961 . S
C1246 H1260 0.961 . S
C1247 C1244 1.539 . S
C1247 H1261 0.958 . S
C1247 H1262 0.961 . S
C1247 H1263 0.960 . S
H1248 C1232 0.931 . S
H1249 C1237 0.929 . S
H1250 C1238 0.960 . S
H1251 C1238 0.962 . S
H1252 C1238 0.960 . S
H1253 C1239 0.961 . S
H1254 C1239 0.961 . S
H1255 C1239 0.961 . S
H1256 C1240 0.931 . S
H1257 C1245 0.930 . S
H1258 C1246 0.956 . S
H1259 C1246 0.961 . S
H1260 C1246 0.961 . S
H1261 C1247 0.958 . S
H1262 C1247 0.961 . S
H1263 C1247 0.960 . S
C1264 C1265 1.391 . S
C1264 C1266 1.394 . S
C1264 H1280 0.931 . S
C1265 C1264 1.391 . S
C1265 C1269 1.376 . S
C1266 C1264 1.394 . S
C1266 C1267 1.369 . S
C1266 C1270 1.531 . S
C1267 C1266 1.369 . S
C1267 C1268 1.410 . S
C1267 C1275 1.503 . S
C1268 C1267 1.410 . S
C1268 C1269 1.392 . S
C1268 C1271 1.511 . S
C1269 C1265 1.376 . S
C1269 C1268 1.392 . S
C1269 H1281 0.929 . S
C1270 C1266 1.531 . S
C1270 H1282 0.960 . S
C1270 H1283 0.962 . S
C1270 H1284 0.960 . S
C1271 C1268 1.511 . S
C1271 H1285 0.961 . S
C1271 H1286 0.961 . S
C1271 H1287 0.961 . S
C1272 C1273 1.370 . S
C1272 C1274 1.363 . S
C1272 H1288 0.931 . S
C1273 C1272 1.370 . S
C1273 C1277 1.408 . S
C1274 C1272 1.363 . S
C1274 C1275 1.370 . S
C1274 C1278 1.524 . S
C1275 C1267 1.503 . S
C1275 C1274 1.370 . S
C1275 C1276 1.403 . S
C1276 C1275 1.403 . S
C1276 C1277 1.404 . S
C1276 C1279 1.539 . S
C1277 C1273 1.408 . S
C1277 C1276 1.404 . S
C1277 H1289 0.930 . S
C1278 C1274 1.524 . S
C1278 H1290 0.956 . S
C1278 H1291 0.961 . S
C1278 H1292 0.961 . S
C1279 C1276 1.539 . S
C1279 H1293 0.958 . S
C1279 H1294 0.961 . S
C1279 H1295 0.960 . S
H1280 C1264 0.931 . S
H1281 C1269 0.929 . S
H1282 C1270 0.960 . S
H1283 C1270 0.962 . S
H1284 C1270 0.960 . S
H1285 C1271 0.961 . S
H1286 C1271 0.961 . S
H1287 C1271 0.961 . S
H1288 C1272 0.931 . S
H1289 C1277 0.930 . S
H1290 C1278 0.956 . S
H1291 C1278 0.961 . S
H1292 C1278 0.961 . S
H1293 C1279 0.958 . S
H1294 C1279 0.961 . S
H1295 C1279 0.960 . S
C1296 C1297 1.391 . S
C1296 C1298 1.394 . S
C1296 H1312 0.931 . S
C1297 C1296 1.391 . S
C1297 C1301 1.376 . S
C1298 C1296 1.394 . S
C1298 C1299 1.369 . S
C1298 C1302 1.531 . S
C1299 C1298 1.369 . S
C1299 C1300 1.410 . S
C1299 C1307 1.503 . S
C1300 C1299 1.410 . S
C1300 C1301 1.392 . S
C1300 C1303 1.511 . S
C1301 C1297 1.376 . S
C1301 C1300 1.392 . S
C1301 H1313 0.929 . S
C1302 C1298 1.531 . S
C1302 H1314 0.960 . S
C1302 H1315 0.962 . S
C1302 H1316 0.960 . S
C1303 C1300 1.511 . S
C1303 H1317 0.961 . S
C1303 H1318 0.961 . S
C1303 H1319 0.961 . S
C1304 C1305 1.370 . S
C1304 C1306 1.363 . S
C1304 H1320 0.931 . S
C1305 C1304 1.370 . S
C1305 C1309 1.408 . S
C1306 C1304 1.363 . S
C1306 C1307 1.370 . S
C1306 C1310 1.524 . S
C1307 C1299 1.503 . S
C1307 C1306 1.370 . S
C1307 C1308 1.403 . S
C1308 C1307 1.403 . S
C1308 C1309 1.404 . S
C1308 C1311 1.539 . S
C1309 C1305 1.408 . S
C1309 C1308 1.404 . S
C1309 H1321 0.930 . S
C1310 C1306 1.524 . S
C1310 H1322 0.956 . S
C1310 H1323 0.961 . S
C1310 H1324 0.961 . S
C1311 C1308 1.539 . S
C1311 H1325 0.958 . S
C1311 H1326 0.961 . S
C1311 H1327 0.960 . S
H1312 C1296 0.931 . S
H1313 C1301 0.929 . S
H1314 C1302 0.960 . S
H1315 C1302 0.962 . S
H1316 C1302 0.960 . S
H1317 C1303 0.961 . S
H1318 C1303 0.961 . S
H1319 C1303 0.961 . S
H1320 C1304 0.931 . S
H1321 C1309 0.930 . S
H1322 C1310 0.956 . S
H1323 C1310 0.961 . S
H1324 C1310 0.961 . S
H1325 C1311 0.958 . S
H1326 C1311 0.961 . S
H1327 C1311 0.960 . S
C1328 C1329 1.391 . S
C1328 C1330 1.394 . S
C1328 H1344 0.931 . S
C1329 C1328 1.391 . S
C1329 C1333 1.376 . S
C1330 C1328 1.394 . S
C1330 C1331 1.369 . S
C1330 C1334 1.531 . S
C1331 C1330 1.369 . S
C1331 C1332 1.410 . S
C1331 C1339 1.503 . S
C1332 C1331 1.410 . S
C1332 C1333 1.392 . S
C1332 C1335 1.511 . S
C1333 C1329 1.376 . S
C1333 C1332 1.392 . S
C1333 H1345 0.929 . S
C1334 C1330 1.531 . S
C1334 H1346 0.960 . S
C1334 H1347 0.962 . S
C1334 H1348 0.960 . S
C1335 C1332 1.511 . S
C1335 H1349 0.961 . S
C1335 H1350 0.961 . S
C1335 H1351 0.961 . S
C1336 C1337 1.370 . S
C1336 C1338 1.363 . S
C1336 H1352 0.931 . S
C1337 C1336 1.370 . S
C1337 C1341 1.408 . S
C1338 C1336 1.363 . S
C1338 C1339 1.370 . S
C1338 C1342 1.524 . S
C1339 C1331 1.503 . S
C1339 C1338 1.370 . S
C1339 C1340 1.403 . S
C1340 C1339 1.403 . S
C1340 C1341 1.404 . S
C1340 C1343 1.539 . S
C1341 C1337 1.408 . S
C1341 C1340 1.404 . S
C1341 H1353 0.930 . S
C1342 C1338 1.524 . S
C1342 H1354 0.956 . S
C1342 H1355 0.961 . S
C1342 H1356 0.961 . S
C1343 C1340 1.539 . S
C1343 H1357 0.958 . S
C1343 H1358 0.961 . S
C1343 H1359 0.960 . S
H1344 C1328 0.931 . S
H1345 C1333 0.929 . S
H1346 C1334 0.960 . S
H1347 C1334 0.962 . S
H1348 C1334 0.960 . S
H1349 C1335 0.961 . S
H1350 C1335 0.961 . S
H1351 C1335 0.961 . S
H1352 C1336 0.931 . S
H1353 C1341 0.930 . S
H1354 C1342 0.956 . S
H1355 C1342 0.961 . S
H1356 C1342 0.961 . S
H1357 C1343 0.958 . S
H1358 C1343 0.961 . S
H1359 C1343 0.960 . S
C1360 C1361 1.391 . S
C1360 C1362 1.394 . S
C1360 H1376 0.931 . S
C1361 C1360 1.391 . S
C1361 C1365 1.376 . S
C1362 C1360 1.394 . S
C1362 C1363 1.369 . S
C1362 C1366 1.531 . S
C1363 C1362 1.369 . S
C1363 C1364 1.410 . S
C1363 C1371 1.503 . S
C1364 C1363 1.410 . S
C1364 C1365 1.392 . S
C1364 C1367 1.511 . S
C1365 C1361 1.376 . S
C1365 C1364 1.392 . S
C1365 H1377 0.929 . S
C1366 C1362 1.531 . S
C1366 H1378 0.960 . S
C1366 H1379 0.962 . S
C1366 H1380 0.960 . S
C1367 C1364 1.511 . S
C1367 H1381 0.961 . S
C1367 H1382 0.961 . S
C1367 H1383 0.961 . S
C1368 C1369 1.370 . S
C1368 C1370 1.363 . S
C1368 H1384 0.931 . S
C1369 C1368 1.370 . S
C1369 C1373 1.408 . S
C1370 C1368 1.363 . S
C1370 C1371 1.370 . S
C1370 C1374 1.524 . S
C1371 C1363 1.503 . S
C1371 C1370 1.370 . S
C1371 C1372 1.403 . S
C1372 C1371 1.403 . S
C1372 C1373 1.404 . S
C1372 C1375 1.539 . S
C1373 C1369 1.408 . S
C1373 C1372 1.404 . S
C1373 H1385 0.930 . S
C1374 C1370 1.524 . S
C1374 H1386 0.956 . S
C1374 H1387 0.961 . S
C1374 H1388 0.961 . S
C1375 C1372 1.539 . S
C1375 H1389 0.958 . S
C1375 H1390 0.961 . S
C1375 H1391 0.960 . S
H1376 C1360 0.931 . S
H1377 C1365 0.929 . S
H1378 C1366 0.960 . S
H1379 C1366 0.962 . S
H1380 C1366 0.960 . S
H1381 C1367 0.961 . S
H1382 C1367 0.961 . S
H1383 C1367 0.961 . S
H1384 C1368 0.931 . S
H1385 C1373 0.930 . S
H1386 C1374 0.956 . S
H1387 C1374 0.961 . S
H1388 C1374 0.961 . S
H1389 C1375 0.958 . S
H1390 C1375 0.961 . S
H1391 C1375 0.960 . S
C241 C49 1.091 1_455 S
C249 C2 1.085 . S
C273 C72 1.079 1_565 S
C281 C24 1.087 . S
C305 C42 1.113 . S
C313 C89 1.062 . S
C337 C64 1.140 . S
C345 C112 1.089 1_455 S
C369 C9 1.081 1_565 S
C377 C82 1.083 . S
C401 C32 1.036 . S
C409 C104 1.099 . S
C433 C212 1.092 1_545 S
C441 C124 1.091 . S
C465 C142 1.066 . S
C473 C229 1.056 . S
C497 C164 1.141 . S
C505 C132 1.090 1_655 S
C529 C182 1.112 . S
C537 C149 1.100 1_545 S
C561 C204 1.094 . S
C569 C172 1.093 . S
C593 C189 1.113 1_655 S
C601 C222 1.117 . S
C625 C78 1.730 . S
C633 C19 1.744 . S
C657 C38 1.747 . S
C665 C99 1.753 . S
C689 C59 1.728 . S
C697 C118 1.743 . S
C721 C138 1.754 . S
C729 C199 1.753 . S
C753 C159 1.730 . S
C761 C218 1.745 . S
C785 C178 1.749 . S
C793 C239 1.754 . S
C817 C158 1.974 . S
C825 C18 1.944 . S
C849 C39 1.934 . S
C857 C179 1.949 . S
C881 C198 1.963 . S
C889 C58 1.961 . S
C913 C79 1.979 . S
C921 C219 1.954 . S
C945 C98 1.949 . S
C953 C238 1.966 . S
C977 C139 1.942 . S
C985 C119 1.968 . S
C1009 C52 1.405 . S
C1017 C4 1.304 . S
C1041 C22 1.313 . S
C1049 C69 1.407 . S
C1073 C44 1.243 . S
C1081 C92 1.400 . S
C1105 C62 1.286 . S
C1113 C109 1.408 . S
C1137 C12 1.368 . S
C1145 C84 1.264 . S
C1169 C29 1.409 . S
C1177 C102 1.267 . S
C1201 C209 1.380 . S
C1209 C122 1.297 . S
C1233 C144 1.333 . S
C1241 C232 1.403 . S
C1265 C162 1.312 . S
C1273 C129 1.407 . S
C1297 C152 1.368 . S
C1305 C184 1.271 . S
C1329 C202 1.252 . S
C1337 C169 1.387 . S
C1361 C224 1.238 . S
C1369 C192 1.387 . S
