# Generated by pormake.
# Topology cbo, (4)-cn, num edge types: 1
# Building blocks:
#     Node 0, Type 0, BuildingBlock: NAHDIM_clean_sbu_0, # of connection points: 4
#     Node 1, Type 0, BuildingBlock: NAHDIM_clean_sbu_0, # of connection points: 4
#     Node 2, Type 0, BuildingBlock: NAHDIM_clean_sbu_0, # of connection points: 4
#     Node 3, Type 0, BuildingBlock: NAHDIM_clean_sbu_0, # of connection points: 4
#     Node 4, Type 0, BuildingBlock: NAHDIM_clean_sbu_0, # of connection points: 4
#     Node 5, Type 0, BuildingBlock: NAHDIM_clean_sbu_0, # of connection points: 4
#     Node 6, Type 0, BuildingBlock: NAHDIM_clean_sbu_0, # of connection points: 4
#     Node 7, Type 0, BuildingBlock: NAHDIM_clean_sbu_0, # of connection points: 4
#     Node 8, Type 0, BuildingBlock: NAHDIM_clean_sbu_0, # of connection points: 4
#     Node 9, Type 0, BuildingBlock: NAHDIM_clean_sbu_0, # of connection points: 4
#     Node 10, Type 0, BuildingBlock: NAHDIM_clean_sbu_0, # of connection points: 4
#     Node 11, Type 0, BuildingBlock: NAHDIM_clean_sbu_0, # of connection points: 4
#     Node 12, Type 0, BuildingBlock: NAHDIM_clean_sbu_0, # of connection points: 4
#     Node 13, Type 0, BuildingBlock: NAHDIM_clean_sbu_0, # of connection points: 4
#     Node 14, Type 0, BuildingBlock: NAHDIM_clean_sbu_0, # of connection points: 4
#     Node 15, Type 0, BuildingBlock: NAHDIM_clean_sbu_0, # of connection points: 4
#     Node 16, Type 0, BuildingBlock: NAHDIM_clean_sbu_0, # of connection points: 4
#     Node 17, Type 0, BuildingBlock: NAHDIM_clean_sbu_0, # of connection points: 4
#     Node 18, Type 0, BuildingBlock: NAHDIM_clean_sbu_0, # of connection points: 4
#     Node 19, Type 0, BuildingBlock: NAHDIM_clean_sbu_0, # of connection points: 4
#     Node 20, Type 0, BuildingBlock: NAHDIM_clean_sbu_0, # of connection points: 4
#     Node 21, Type 0, BuildingBlock: NAHDIM_clean_sbu_0, # of connection points: 4
#     Node 22, Type 0, BuildingBlock: NAHDIM_clean_sbu_0, # of connection points: 4
#     Node 23, Type 0, BuildingBlock: NAHDIM_clean_sbu_0, # of connection points: 4
#     Edge 24, Type (0, 0), BuildingBlock: XUDNAN_clean_linker_2, # of connection points: 2
#     Edge 25, Type (0, 0), BuildingBlock: XUDNAN_clean_linker_2, # of connection points: 2
#     Edge 26, Type (0, 0), BuildingBlock: XUDNAN_clean_linker_2, # of connection points: 2
#     Edge 27, Type (0, 0), BuildingBlock: XUDNAN_clean_linker_2, # of connection points: 2
#     Edge 28, Type (0, 0), BuildingBlock: XUDNAN_clean_linker_2, # of connection points: 2
#     Edge 29, Type (0, 0), BuildingBlock: XUDNAN_clean_linker_2, # of connection points: 2
#     Edge 30, Type (0, 0), BuildingBlock: XUDNAN_clean_linker_2, # of connection points: 2
#     Edge 31, Type (0, 0), BuildingBlock: XUDNAN_clean_linker_2, # of connection points: 2
#     Edge 32, Type (0, 0), BuildingBlock: XUDNAN_clean_linker_2, # of connection points: 2
#     Edge 33, Type (0, 0), BuildingBlock: XUDNAN_clean_linker_2, # of connection points: 2
#     Edge 34, Type (0, 0), BuildingBlock: XUDNAN_clean_linker_2, # of connection points: 2
#     Edge 35, Type (0, 0), BuildingBlock: XUDNAN_clean_linker_2, # of connection points: 2
#     Edge 36, Type (0, 0), BuildingBlock: XUDNAN_clean_linker_2, # of connection points: 2
#     Edge 37, Type (0, 0), BuildingBlock: XUDNAN_clean_linker_2, # of connection points: 2
#     Edge 38, Type (0, 0), BuildingBlock: XUDNAN_clean_linker_2, # of connection points: 2
#     Edge 39, Type (0, 0), BuildingBlock: XUDNAN_clean_linker_2, # of connection points: 2
#     Edge 40, Type (0, 0), BuildingBlock: XUDNAN_clean_linker_2, # of connection points: 2
#     Edge 41, Type (0, 0), BuildingBlock: XUDNAN_clean_linker_2, # of connection points: 2
#     Edge 42, Type (0, 0), BuildingBlock: XUDNAN_clean_linker_2, # of connection points: 2
#     Edge 43, Type (0, 0), BuildingBlock: XUDNAN_clean_linker_2, # of connection points: 2
#     Edge 44, Type (0, 0), BuildingBlock: XUDNAN_clean_linker_2, # of connection points: 2
#     Edge 45, Type (0, 0), BuildingBlock: XUDNAN_clean_linker_2, # of connection points: 2
#     Edge 46, Type (0, 0), BuildingBlock: XUDNAN_clean_linker_2, # of connection points: 2
#     Edge 47, Type (0, 0), BuildingBlock: XUDNAN_clean_linker_2, # of connection points: 2
#     Edge 48, Type (0, 0), BuildingBlock: XUDNAN_clean_linker_2, # of connection points: 2
#     Edge 49, Type (0, 0), BuildingBlock: XUDNAN_clean_linker_2, # of connection points: 2
#     Edge 50, Type (0, 0), BuildingBlock: XUDNAN_clean_linker_2, # of connection points: 2
#     Edge 51, Type (0, 0), BuildingBlock: XUDNAN_clean_linker_2, # of connection points: 2
#     Edge 52, Type (0, 0), BuildingBlock: XUDNAN_clean_linker_2, # of connection points: 2
#     Edge 53, Type (0, 0), BuildingBlock: XUDNAN_clean_linker_2, # of connection points: 2
#     Edge 54, Type (0, 0), BuildingBlock: XUDNAN_clean_linker_2, # of connection points: 2
#     Edge 55, Type (0, 0), BuildingBlock: XUDNAN_clean_linker_2, # of connection points: 2
#     Edge 56, Type (0, 0), BuildingBlock: XUDNAN_clean_linker_2, # of connection points: 2
#     Edge 57, Type (0, 0), BuildingBlock: XUDNAN_clean_linker_2, # of connection points: 2
#     Edge 58, Type (0, 0), BuildingBlock: XUDNAN_clean_linker_2, # of connection points: 2
#     Edge 59, Type (0, 0), BuildingBlock: XUDNAN_clean_linker_2, # of connection points: 2
#     Edge 60, Type (0, 0), BuildingBlock: XUDNAN_clean_linker_2, # of connection points: 2
#     Edge 61, Type (0, 0), BuildingBlock: XUDNAN_clean_linker_2, # of connection points: 2
#     Edge 62, Type (0, 0), BuildingBlock: XUDNAN_clean_linker_2, # of connection points: 2
#     Edge 63, Type (0, 0), BuildingBlock: XUDNAN_clean_linker_2, # of connection points: 2
#     Edge 64, Type (0, 0), BuildingBlock: XUDNAN_clean_linker_2, # of connection points: 2
#     Edge 65, Type (0, 0), BuildingBlock: XUDNAN_clean_linker_2, # of connection points: 2
#     Edge 66, Type (0, 0), BuildingBlock: XUDNAN_clean_linker_2, # of connection points: 2
#     Edge 67, Type (0, 0), BuildingBlock: XUDNAN_clean_linker_2, # of connection points: 2
#     Edge 68, Type (0, 0), BuildingBlock: XUDNAN_clean_linker_2, # of connection points: 2
#     Edge 69, Type (0, 0), BuildingBlock: XUDNAN_clean_linker_2, # of connection points: 2
#     Edge 70, Type (0, 0), BuildingBlock: XUDNAN_clean_linker_2, # of connection points: 2
#     Edge 71, Type (0, 0), BuildingBlock: XUDNAN_clean_linker_2, # of connection points: 2
# Relax obj value: 0.274
# Max RMSD: 0.281
# Mean RMSD: 0.265
data_MOF--net-cbo--node1-NAHDIM_clean_sbu_0--edge1-XUDNAN_clean_linker_2
_symmetry_space_group_name_H-M    P1
_symmetry_Int_Tables_number       1
_symmetry_cell_setting            triclinic
loop_
_symmetry_equiv_pos_as_xyz
'x, y, z'
_cell_length_a     53.746675
_cell_length_b     51.189731
_cell_length_c     52.489647
_cell_angle_alpha  90.128202
_cell_angle_beta   89.919494
_cell_angle_gamma 89.959478
loop_
_atom_site_label
_atom_site_type_symbol
_atom_site_fract_x
_atom_site_fract_y
_atom_site_fract_z
_atom_type_partial_charge
C0 C 0.01276 0.11572 0.26077 0.0
O1 O 0.02415 0.12764 0.24194 0.0
O2 O 0.05844 0.16304 0.26348 0.0
Zn3 Zn 0.05653 0.13256 0.28762 0.0
O4 O 0.05962 0.1445 0.32406 0.0
C5 C 0.09066 0.10277 0.25678 0.0
O6 O 0.0748 0.10911 0.23882 0.0
O7 O 0.02342 0.11446 0.28237 0.0
C8 C 0.05395 0.16737 0.33155 0.0
O9 O 0.04528 0.1843 0.315 0.0
C10 C 0.07923 0.17357 0.25835 0.0
O11 O 0.09919 0.1658 0.27064 0.0
O12 O 0.08597 0.10936 0.27965 0.0
C13 C 0.44187 0.87489 0.78825 0.0
O14 O 0.4244 0.88547 0.80246 0.0
O15 O 0.39942 0.81291 0.74662 0.0
Zn16 Zn 0.40242 0.83886 0.77515 0.0
O17 O 0.39675 0.82212 0.80934 0.0
C18 C 0.35757 0.86932 0.78499 0.0
O19 O 0.36027 0.8607 0.80837 0.0
O20 O 0.43649 0.85533 0.77438 0.0
C21 C 0.41377 0.81216 0.82301 0.0
O22 O 0.43661 0.81103 0.81414 0.0
C23 C 0.41235 0.79275 0.7417 0.0
O24 O 0.43059 0.78609 0.757 0.0
O25 O 0.37438 0.86436 0.76856 0.0
C26 C 0.51043 0.32108 0.66989 0.0
O27 O 0.51942 0.2973 0.66786 0.0
O28 O 0.56768 0.30346 0.69969 0.0
Zn29 Zn 0.56181 0.32977 0.67181 0.0
O30 O 0.56988 0.31495 0.6371 0.0
C31 C 0.58688 0.36683 0.70279 0.0
O32 O 0.57201 0.35636 0.71983 0.0
O33 O 0.52554 0.34005 0.67213 0.0
C34 C 0.5911 0.31792 0.6268 0.0
O35 O 0.60871 0.33002 0.63952 0.0
C36 C 0.57008 0.27888 0.69751 0.0
O37 O 0.56845 0.26797 0.67489 0.0
O38 O 0.58472 0.35991 0.67963 0.0
C39 C 0.95406 0.62784 0.17005 0.0
O40 O 0.95233 0.65022 0.15798 0.0
O41 O 0.90285 0.66582 0.20946 0.0
Zn42 Zn 0.903 0.63954 0.18074 0.0
O43 O 0.89854 0.65699 0.14661 0.0
C44 C 0.86909 0.608 0.20922 0.0
O45 O 0.88583 0.61222 0.22698 0.0
O46 O 0.93499 0.61888 0.18141 0.0
C47 C 0.90213 0.68118 0.14258 0.0
O48 O 0.90951 0.69622 0.16142 0.0
C49 C 0.88181 0.67562 0.21509 0.0
O50 O 0.86257 0.67012 0.20062 0.0
O51 O 0.87321 0.61635 0.18682 0.0
C52 C 0.3415 0.04405 0.16581 0.0
O53 O 0.33268 0.02021 0.16781 0.0
O54 O 0.286 0.08918 0.12216 0.0
Zn55 Zn 0.29204 0.05862 0.14555 0.0
O56 O 0.28644 0.02402 0.128 0.0
C57 C 0.2451 0.05512 0.16966 0.0
O58 O 0.23989 0.04588 0.14694 0.0
O59 O 0.32745 0.0622 0.15772 0.0
C60 C 0.30187 0.01253 0.11344 0.0
O61 O 0.32324 0.0238 0.10827 0.0
C62 C 0.26892 0.09093 0.10554 0.0
O63 O 0.2541 0.07095 0.10155 0.0
O64 O 0.26742 0.06163 0.17464 0.0
C65 C 0.10666 0.90912 0.68929 0.0
O66 O 0.11645 0.93252 0.69153 0.0
O67 O 0.1644 0.86135 0.64897 0.0
Zn68 Zn 0.15586 0.89371 0.6693 0.0
O69 O 0.16178 0.92688 0.64936 0.0
C70 C 0.20258 0.8974 0.69227 0.0
O71 O 0.20782 0.89966 0.66792 0.0
O72 O 0.12002 0.89047 0.68088 0.0
C73 C 0.14668 0.93883 0.63486 0.0
O74 O 0.12443 0.92903 0.63093 0.0
C75 C 0.17699 0.86076 0.62845 0.0
O76 O 0.1845 0.8828 0.61824 0.0
O77 O 0.17993 0.89466 0.69889 0.0
C78 C 0.83128 0.40549 0.81679 0.0
O79 O 0.82383 0.39992 0.84 0.0
O80 O 0.76974 0.38969 0.83342 0.0
Zn81 Zn 0.78116 0.42193 0.81482 0.0
O82 O 0.78143 0.45382 0.83733 0.0
C83 C 0.73374 0.42646 0.794 0.0
O84 O 0.72919 0.42536 0.81858 0.0
O85 O 0.81587 0.41565 0.80135 0.0
C86 C 0.78844 0.47495 0.82688 0.0
O87 O 0.79458 0.47457 0.80264 0.0
C88 C 0.76741 0.38614 0.85725 0.0
O89 O 0.77358 0.40489 0.87314 0.0
O90 O 0.75626 0.42666 0.78651 0.0
C91 C 0.61304 0.58477 0.3203 0.0
O92 O 0.61935 0.58348 0.34444 0.0
O93 O 0.67401 0.59586 0.34267 0.0
Zn94 Zn 0.66354 0.56972 0.31582 0.0
O95 O 0.66154 0.53175 0.32584 0.0
C96 C 0.71154 0.57002 0.295 0.0
O97 O 0.71601 0.56593 0.31928 0.0
O98 O 0.62939 0.57992 0.3034 0.0
C99 C 0.67284 0.51745 0.34187 0.0
O100 O 0.6893 0.52777 0.35736 0.0
C101 C 0.67502 0.59576 0.36685 0.0
O102 O 0.66839 0.5748 0.37954 0.0
O103 O 0.68908 0.57234 0.28774 0.0
C104 C 0.12897 0.29348 0.00282 0.0
O105 O 0.14758 0.30969 0.00638 0.0
O106 O 0.16957 0.25088 0.0516 0.0
Zn107 Zn 0.14247 0.27801 0.05341 0.0
O108 O 0.15597 0.31409 0.06035 0.0
C109 C 0.13196 0.26463 0.10404 0.0
O110 O 0.15607 0.26874 0.10498 0.0
O111 O 0.12308 0.27772 0.02052 0.0
C112 C 0.14017 0.3324 0.06294 0.0
O113 O 0.11639 0.32689 0.06086 0.0
C114 C 0.19261 0.25518 0.05494 0.0
O115 O 0.20032 0.27925 0.05854 0.0
O116 O 0.1207 0.2679 0.083 0.0
C117 C 0.64099 0.17327 0.9519 0.0
O118 O 0.66542 0.17257 0.95108 0.0
O119 O 0.67369 0.20762 0.90172 0.0
Zn120 Zn 0.649 0.17788 0.89868 0.0
O121 O 0.66575 0.14311 0.89215 0.0
C122 C 0.61824 0.20737 0.86343 0.0
O123 O 0.62219 0.22659 0.87956 0.0
O124 O 0.62901 0.17561 0.93116 0.0
C125 C 0.68694 0.14034 0.88169 0.0
O126 O 0.70003 0.16114 0.87589 0.0
C127 C 0.68206 0.21873 0.88183 0.0
O128 O 0.67566 0.20964 0.85935 0.0
O129 O 0.62687 0.18483 0.86841 0.0
C130 C 0.8275 0.77612 0.46379 0.0
O131 O 0.82141 0.75182 0.45866 0.0
O132 O 0.77599 0.76062 0.42287 0.0
Zn133 Zn 0.80487 0.7849 0.41497 0.0
O134 O 0.79433 0.81876 0.39809 0.0
C135 C 0.82054 0.7483 0.37623 0.0
O136 O 0.79747 0.74042 0.37899 0.0
O137 O 0.82254 0.79379 0.44761 0.0
C138 C 0.79162 0.81933 0.37403 0.0
O139 O 0.79358 0.79746 0.36108 0.0
C140 C 0.75581 0.76009 0.41026 0.0
O141 O 0.75209 0.77765 0.39246 0.0
O142 O 0.82866 0.76653 0.39049 0.0
C143 C 0.30078 0.67506 0.50707 0.0
O144 O 0.27821 0.6711 0.51589 0.0
O145 O 0.27901 0.69455 0.56912 0.0
Zn146 Zn 0.31092 0.67506 0.56043 0.0
O147 O 0.30865 0.63712 0.5704 0.0
C148 C 0.33915 0.71383 0.58924 0.0
O149 O 0.32241 0.73005 0.58028 0.0
O150 O 0.31866 0.6775 0.52273 0.0
C151 C 0.29049 0.62155 0.56731 0.0
O152 O 0.27002 0.62996 0.55641 0.0
C153 C 0.27342 0.71584 0.558 0.0
O154 O 0.28782 0.7244 0.53958 0.0
O155 O 0.33865 0.69004 0.58223 0.0
C156 C 0.93433 0.84678 0.70306 0.0
O157 O 0.91324 0.85977 0.70352 0.0
O158 O 0.91276 0.76273 0.69518 0.0
Zn159 Zn 0.90346 0.80085 0.69075 0.0
O160 O 0.89587 0.80608 0.65321 0.0
C161 C 0.8515 0.80501 0.70216 0.0
O162 O 0.85061 0.78971 0.68207 0.0
O163 O 0.934 0.82231 0.6989 0.0
C164 C 0.89024 0.78677 0.63904 0.0
O165 O 0.88962 0.76324 0.64893 0.0
C166 C 0.91223 0.7453 0.71241 0.0
O167 O 0.91999 0.72172 0.70643 0.0
O168 O 0.87264 0.81209 0.71061 0.0
C169 C 0.51113 0.1145 0.17427 0.0
O170 O 0.51034 0.13973 0.16975 0.0
O171 O 0.56107 0.15502 0.19994 0.0
Zn172 Zn 0.56309 0.12567 0.17408 0.0
O173 O 0.56599 0.13952 0.1381 0.0
C174 C 0.60086 0.10001 0.20433 0.0
O175 O 0.58755 0.10911 0.2234 0.0
O176 O 0.53219 0.10354 0.17693 0.0
C177 C 0.58733 0.14361 0.1284 0.0
O178 O 0.60722 0.13983 0.14244 0.0
C179 C 0.58056 0.16701 0.20713 0.0
O180 O 0.60193 0.16137 0.19625 0.0
O181 O 0.59348 0.10378 0.18165 0.0
C182 C 0.43675 0.6342 0.30877 0.0
O183 O 0.43045 0.6474 0.32928 0.0
O184 O 0.38918 0.68112 0.26819 0.0
Zn185 Zn 0.38747 0.64923 0.29072 0.0
O186 O 0.37594 0.6588 0.32626 0.0
C187 C 0.3456 0.63377 0.26 0.0
O188 O 0.34622 0.65866 0.25408 0.0
O189 O 0.42115 0.63181 0.29074 0.0
C190 C 0.35475 0.66966 0.32823 0.0
O191 O 0.34236 0.67515 0.30736 0.0
C192 C 0.40839 0.68808 0.25578 0.0
O193 O 0.42951 0.67574 0.25947 0.0
O194 O 0.36177 0.62473 0.27536 0.0
C195 C 0.00078 0.33833 0.79356 0.0
O196 O 0.00316 0.318 0.80859 0.0
O197 O 0.04326 0.29164 0.75449 0.0
Zn198 Zn 0.04902 0.32101 0.77931 0.0
O199 O 0.05436 0.3074 0.81501 0.0
C200 C 0.10124 0.33345 0.77619 0.0
O201 O 0.10252 0.31498 0.79346 0.0
O202 O 0.01867 0.34431 0.7788 0.0
C203 C 0.06128 0.32361 0.83194 0.0
O204 O 0.06432 0.34823 0.82561 0.0
C205 C 0.05749 0.27184 0.75386 0.0
O206 O 0.07523 0.26975 0.77094 0.0
O207 O 0.08007 0.34004 0.76743 0.0
C208 C 0.69909 0.95977 0.82124 0.0
O209 O 0.71124 0.95043 0.8015 0.0
O210 O 0.69375 0.89596 0.79187 0.0
Zn211 Zn 0.67234 0.90952 0.82096 0.0
O212 O 0.63552 0.91089 0.81304 0.0
C213 C 0.67598 0.86033 0.84426 0.0
O214 O 0.66827 0.85382 0.82138 0.0
O215 O 0.6826 0.9458 0.83201 0.0
C216 C 0.6231 0.89647 0.79795 0.0
O217 O 0.63458 0.87832 0.78466 0.0
C218 C 0.71613 0.89026 0.79766 0.0
O219 O 0.72394 0.89509 0.82091 0.0
O220 O 0.67804 0.88441 0.8498 0.0
C221 C 0.8042 -0.00106 0.31097 0.0
O222 O 0.81508 0.00618 0.28972 0.0
O223 O 0.76967 0.05786 0.28663 0.0
Zn224 Zn 0.79754 0.05326 0.3122 0.0
O225 O 0.83194 0.05994 0.29776 0.0
C226 C 0.79002 0.10355 0.32914 0.0
O227 O 0.79538 0.10614 0.30484 0.0
O228 O 0.79555 0.01638 0.32582 0.0
C229 C 0.8366 0.06827 0.27546 0.0
O230 O 0.81813 0.07296 0.25976 0.0
C231 C 0.76573 0.04662 0.26539 0.0
O232 O 0.78191 0.02964 0.25654 0.0
O233 O 0.7906 0.08079 0.33882 0.0
C234 C 0.1576 0.51894 0.10295 0.0
O235 O 0.13585 0.53046 0.10091 0.0
O236 O 0.19439 0.57346 0.15609 0.0
Zn237 Zn 0.17193 0.56831 0.12585 0.0
O238 O 0.13637 0.57561 0.13582 0.0
C239 C 0.20614 0.59977 0.09848 0.0
O240 O 0.22164 0.58576 0.11215 0.0
O241 O 0.17576 0.53154 0.1124 0.0
C242 C 0.12504 0.56203 0.15242 0.0
O243 O 0.13685 0.5427 0.16356 0.0
C244 C 0.20535 0.55537 0.16825 0.0
O245 O 0.20053 0.53087 0.16265 0.0
O246 O 0.18297 0.59493 0.09986 0.0
C247 C 0.27576 0.43622 0.6147 0.0
O248 O 0.25478 0.42626 0.60631 0.0
O249 O 0.26298 0.38384 0.67038 0.0
Zn250 Zn 0.28474 0.3849 0.63908 0.0
O251 O 0.31802 0.36849 0.64709 0.0
C252 C 0.27158 0.33889 0.6108 0.0
O253 O 0.28884 0.32873 0.62544 0.0
O254 O 0.29024 0.42222 0.62808 0.0
C255 C 0.33777 0.38146 0.65131 0.0
O256 O 0.33692 0.40711 0.65095 0.0
C257 C 0.23965 0.38696 0.66772 0.0
O258 O 0.23077 0.39202 0.64495 0.0
O259 O 0.26721 0.36329 0.61224 0.0
C260 C 0.85099 0.72065 0.96751 0.0
O261 O 0.8457 0.74303 0.95659 0.0
O262 O 0.79623 0.72169 0.92586 0.0
Zn263 Zn 0.82639 0.69866 0.92317 0.0
O264 O 0.81594 0.66135 0.91592 0.0
C265 C 0.84761 0.73585 0.88704 0.0
O266 O 0.83595 0.75339 0.90091 0.0
O267 O 0.84506 0.69948 0.95637 0.0
C268 C 0.81762 0.65168 0.89364 0.0
O269 O 0.82595 0.66634 0.87498 0.0
C270 C 0.78079 0.7215 0.90757 0.0
O271 O 0.78439 0.70524 0.88852 0.0
O272 O 0.84708 0.71198 0.89376 0.0
C273 C 0.3499 0.79293 -0.00289 0.0
O274 O 0.32801 0.80427 -0.00156 0.0
O275 O 0.31343 0.75789 0.05097 0.0
Zn276 Zn 0.34011 0.78566 0.05019 0.0
O277 O 0.32679 0.82228 0.05493 0.0
C278 C 0.35162 0.7745 0.10122 0.0
O279 O 0.32731 0.77703 0.10231 0.0
O280 O 0.3593 0.78332 0.01723 0.0
C281 C 0.30565 0.82785 0.06437 0.0
O282 O 0.2905 0.80889 0.0709 0.0
C283 C 0.29319 0.75637 0.03857 0.0
O284 O 0.28719 0.77498 0.02253 0.0
O285 O 0.36252 0.77784 0.07996 0.0
C286 C 0.09847 0.18507 0.51221 0.0
O287 O 0.09976 0.20584 0.52691 0.0
O288 O 0.14794 0.19143 0.55667 0.0
Zn289 Zn 0.12239 0.16246 0.55529 0.0
O290 O 0.13507 0.12588 0.56281 0.0
C291 C 0.10496 0.17138 0.60507 0.0
O292 O 0.12778 0.16334 0.60936 0.0
O293 O 0.10667 0.16342 0.52053 0.0
C294 C 0.15457 0.11995 0.57522 0.0
O295 O 0.16925 0.1386 0.58354 0.0
C296 C 0.17095 0.19268 0.55122 0.0
O297 O 0.18287 0.17178 0.54328 0.0
O298 O 0.09716 0.17204 0.58223 0.0
C299 C 0.64556 0.29172 0.44989 0.0
O300 O 0.66823 0.30094 0.44726 0.0
O301 O 0.68458 0.26203 0.401 0.0
Zn302 Zn 0.65312 0.28299 0.39713 0.0
O303 O 0.65996 0.32049 0.38664 0.0
C304 C 0.61085 0.26644 0.36426 0.0
O305 O 0.5965 0.28122 0.37856 0.0
O306 O 0.63448 0.28262 0.43042 0.0
C307 C 0.65712 0.32718 0.3635 0.0
O308 O 0.65101 0.30932 0.34665 0.0
C309 C 0.69721 0.25755 0.38098 0.0
O310 O 0.69069 0.26908 0.35967 0.0
O311 O 0.63387 0.26456 0.36942 0.0
H312 H 0.15243 0.24735 0.14851 0.0
H313 H 0.08153 0.25915 0.11072 0.0
H314 H 0.05982 0.24052 0.14808 0.0
H315 H 0.13793 0.18613 0.17458 0.0
H316 H 0.15472 0.19136 0.20384 0.0
H317 H 0.16431 0.20786 0.17525 0.0
H318 H 0.16044 0.25251 0.19836 0.0
H319 H 0.15078 0.23612 0.22706 0.0
H320 H 0.13146 0.26128 0.21349 0.0
H321 H 0.04619 0.21803 0.18849 0.0
H322 H 0.0418 0.19216 0.22789 0.0
H323 H 0.12183 0.1949 0.23871 0.0
C324 C 0.1323 0.24643 0.14821 0.0
C325 C 0.11864 0.25486 0.12676 0.0
C326 C 0.09236 0.25288 0.12698 0.0
C327 C 0.07987 0.24241 0.14814 0.0
C328 C 0.09396 0.23404 0.16887 0.0
C329 C 0.1196 0.23591 0.16903 0.0
C330 C 0.13056 0.22397 0.19286 0.0
C331 C 0.14789 0.20097 0.18622 0.0
C332 C 0.14411 0.24471 0.20889 0.0
C333 C 0.10711 0.21472 0.20596 0.0
C334 C 0.08616 0.22091 0.19196 0.0
C335 C 0.06245 0.2133 0.19972 0.0
C336 C 0.06015 0.19862 0.22214 0.0
C337 C 0.08146 0.19159 0.23646 0.0
C338 C 0.10515 0.20017 0.22837 0.0
H339 H 0.37924 0.80504 0.70424 0.0
H340 H 0.43247 0.7456 0.72672 0.0
H341 H 0.42164 0.71983 0.68829 0.0
H342 H 0.33291 0.76241 0.68156 0.0
H343 H 0.32379 0.78323 0.65554 0.0
H344 H 0.33683 0.79731 0.68397 0.0
H345 H 0.37087 0.82005 0.65698 0.0
H346 H 0.35798 0.80599 0.62842 0.0
H347 H 0.39027 0.80076 0.63613 0.0
H348 H 0.40278 0.69949 0.64841 0.0
H349 H 0.37774 0.68648 0.61094 0.0
H350 H 0.33805 0.76026 0.6149 0.0
C351 C 0.3888 0.78668 0.7011 0.0
C352 C 0.4067 0.77731 0.71853 0.0
C353 C 0.41871 0.75318 0.71361 0.0
C354 C 0.41271 0.73844 0.69183 0.0
C355 C 0.39484 0.74826 0.67512 0.0
C356 C 0.38316 0.7719 0.67951 0.0
C357 C 0.36411 0.77791 0.65919 0.0
C358 C 0.33787 0.78034 0.67076 0.0
C359 C 0.37125 0.80264 0.6443 0.0
C360 C 0.36652 0.75373 0.6428 0.0
C361 C 0.38438 0.73686 0.65217 0.0
C362 C 0.38895 0.71269 0.64078 0.0
C363 C 0.37465 0.70547 0.6195 0.0
C364 C 0.35604 0.72241 0.60987 0.0
C365 C 0.35232 0.74698 0.62154 0.0
H366 H 0.58009 0.29643 0.74571 0.0
H367 H 0.57149 0.22538 0.70125 0.0
H368 H 0.58033 0.19914 0.7397 0.0
H369 H 0.631 0.27441 0.78293 0.0
H370 H 0.62101 0.2909 0.81154 0.0
H371 H 0.61275 0.30389 0.78086 0.0
H372 H 0.56614 0.30275 0.7935 0.0
H373 H 0.57423 0.28967 0.82423 0.0
H374 H 0.55248 0.27252 0.80415 0.0
H375 H 0.59157 0.18079 0.78275 0.0
H376 H 0.60569 0.17173 0.8266 0.0
H377 H 0.60686 0.25498 0.84259 0.0
C378 C 0.57984 0.27534 0.74403 0.0
C379 C 0.57498 0.26294 0.72046 0.0
C380 C 0.57513 0.23531 0.71909 0.0
C381 C 0.58006 0.22024 0.74084 0.0
C382 C 0.58481 0.23313 0.76376 0.0
C383 C 0.58481 0.26007 0.76546 0.0
C384 C 0.59144 0.2692 0.79205 0.0
C385 C 0.61548 0.28556 0.79181 0.0
C386 C 0.56978 0.28443 0.8042 0.0
C387 C 0.59535 0.24318 0.80506 0.0
C388 C 0.59132 0.22261 0.78847 0.0
C389 C 0.59462 0.19674 0.79595 0.0
C390 C 0.60263 0.19179 0.82091 0.0
C391 C 0.60726 0.21262 0.8381 0.0
C392 C 0.6032 0.2386 0.83005 0.0
H393 H 0.83794 0.68401 0.2397 0.0
H394 H 0.91731 0.69801 0.24588 0.0
H395 H 0.91066 0.71871 0.2881 0.0
H396 H 0.81696 0.74331 0.2708 0.0
H397 H 0.79142 0.72708 0.28642 0.0
H398 H 0.80265 0.71518 0.25621 0.0
H399 H 0.80932 0.66951 0.27599 0.0
H400 H 0.7985 0.68118 0.30642 0.0
H401 H 0.82871 0.66608 0.30379 0.0
H402 H 0.89466 0.73798 0.3301 0.0
H403 H 0.87104 0.75267 0.36818 0.0
H404 H 0.80303 0.72301 0.33435 0.0
C405 C 0.85393 0.69179 0.24969 0.0
C406 C 0.87812 0.68969 0.23941 0.0
C407 C 0.89859 0.69959 0.25339 0.0
C408 C 0.89499 0.71135 0.27735 0.0
C409 C 0.87086 0.71277 0.28709 0.0
C410 C 0.85072 0.70317 0.27365 0.0
C411 C 0.82681 0.70594 0.28857 0.0
C412 C 0.80838 0.72395 0.27467 0.0
C413 C 0.81517 0.67908 0.29403 0.0
C414 C 0.83656 0.71854 0.3126 0.0
C415 C 0.86194 0.72262 0.3114 0.0
C416 C 0.8748 0.73473 0.33127 0.0
C417 C 0.86127 0.74297 0.3528 0.0
C418 C 0.83528 0.73872 0.35434 0.0
C419 C 0.82295 0.7262 0.33397 0.0
H420 H 0.1954 0.05683 0.15979 0.0
H421 H 0.24891 0.06433 0.22118 0.0
H422 H 0.2145 0.07358 0.25136 0.0
H423 H 0.1577 0.10954 0.17895 0.0
H424 H 0.12893 0.09443 0.16928 0.0
H425 H 0.15751 0.08597 0.15338 0.0
H426 H 0.14998 0.03708 0.16371 0.0
H427 H 0.12138 0.04542 0.17974 0.0
H428 H 0.14509 0.02725 0.19629 0.0
H429 H 0.17401 0.08382 0.27431 0.0
H430 H 0.13168 0.09715 0.28745 0.0
H431 H 0.10546 0.08421 0.21027 0.0
C432 C 0.19991 0.05998 0.17966 0.0
C433 C 0.22481 0.0596 0.18822 0.0
C434 C 0.22994 0.06443 0.21426 0.0
C435 C 0.21052 0.06959 0.23153 0.0
C436 C 0.18615 0.06999 0.22237 0.0
C437 C 0.18087 0.06546 0.19699 0.0
C438 C 0.15344 0.06889 0.19146 0.0
C439 C 0.14916 0.09103 0.17213 0.0
C440 C 0.14179 0.04312 0.18226 0.0
C441 C 0.14406 0.07631 0.21765 0.0
C442 C 0.16311 0.07653 0.23533 0.0
C443 C 0.15895 0.08356 0.26065 0.0
C444 C 0.13481 0.09103 0.26795 0.0
C445 C 0.11522 0.09169 0.2499 0.0
C446 C 0.11997 0.08381 0.22456 0.0
H447 H 0.34302 0.88129 0.73635 0.0
H448 H 0.31662 0.87992 0.81453 0.0
H449 H 0.27418 0.8903 0.79967 0.0
H450 H 0.30132 0.93406 0.71352 0.0
H451 H 0.29723 0.91841 0.68302 0.0
H452 H 0.32595 0.91434 0.70024 0.0
H453 H 0.32068 0.86406 0.69785 0.0
H454 H 0.29185 0.86794 0.68093 0.0
H455 H 0.29262 0.84936 0.71004 0.0
H456 H 0.23362 0.8956 0.77565 0.0
H457 H 0.19901 0.89774 0.74462 0.0
H458 H 0.25245 0.89579 0.68257 0.0
C459 C 0.3285 0.88388 0.75046 0.0
C460 C 0.33322 0.87988 0.77664 0.0
C461 C 0.31353 0.88301 0.79438 0.0
C462 C 0.28932 0.88888 0.78612 0.0
C463 C 0.28514 0.89175 0.76007 0.0
C464 C 0.30428 0.88966 0.74254 0.0
C465 C 0.2947 0.89183 0.71554 0.0
C466 C 0.30544 0.91611 0.70231 0.0
C467 C 0.30029 0.86681 0.70021 0.0
C468 C 0.26712 0.89485 0.72056 0.0
C469 C 0.26192 0.8949 0.74634 0.0
C470 C 0.23752 0.89599 0.75543 0.0
C471 C 0.21798 0.8971 0.73768 0.0
C472 C 0.223 0.89709 0.71118 0.0
C473 C 0.24794 0.89614 0.70268 0.0
H474 H 0.68548 0.4142 0.80457 0.0
H475 H 0.73529 0.4322 0.7419 0.0
H476 H 0.70112 0.4238 0.71137 0.0
H477 H 0.65718 0.36108 0.77544 0.0
H478 H 0.62674 0.36703 0.7887 0.0
H479 H 0.65398 0.37794 0.80546 0.0
H480 H 0.63668 0.42525 0.80609 0.0
H481 H 0.60931 0.41447 0.78931 0.0
H482 H 0.62793 0.44066 0.77658 0.0
H483 H 0.66246 0.40928 0.6877 0.0
H484 H 0.62347 0.38861 0.67299 0.0
H485 H 0.59968 0.37982 0.75157 0.0
C486 C 0.68912 0.41702 0.78447 0.0
C487 C 0.713 0.42411 0.77562 0.0
C488 C 0.71708 0.42695 0.7491 0.0
C489 C 0.69777 0.42229 0.73165 0.0
C490 C 0.67455 0.41482 0.74104 0.0
C491 C 0.6702 0.41223 0.76687 0.0
C492 C 0.6444 0.4017 0.77211 0.0
C493 C 0.64567 0.37539 0.78625 0.0
C494 C 0.62865 0.42172 0.78689 0.0
C495 C 0.635 0.39829 0.74517 0.0
C496 C 0.6525 0.40622 0.72749 0.0
C497 C 0.6485 0.40335 0.70139 0.0
C498 C 0.62628 0.3916 0.69321 0.0
C499 C 0.60843 0.38271 0.71111 0.0
C500 C 0.61275 0.38668 0.73736 0.0
H501 H 0.85281 0.59356 0.25655 0.0
H502 H 0.82877 0.60048 0.17793 0.0
H503 H 0.78596 0.58886 0.19082 0.0
H504 H 0.81201 0.53883 0.27396 0.0
H505 H 0.80646 0.55167 0.30546 0.0
H506 H 0.83555 0.55814 0.28958 0.0
H507 H 0.82857 0.60817 0.29535 0.0
H508 H 0.79974 0.60146 0.31153 0.0
H509 H 0.79997 0.62247 0.28407 0.0
H510 H 0.74487 0.58055 0.21315 0.0
H511 H 0.70951 0.57435 0.2428 0.0
H512 H 0.76104 0.57251 0.30638 0.0
C513 C 0.8387 0.59211 0.24191 0.0
C514 C 0.84421 0.59781 0.2162 0.0
C515 C 0.82505 0.59604 0.19774 0.0
C516 C 0.80065 0.58949 0.20488 0.0
C517 C 0.79575 0.58462 0.23051 0.0
C518 C 0.81431 0.58562 0.2487 0.0
C519 C 0.80405 0.58085 0.27513 0.0
C520 C 0.81518 0.55588 0.28671 0.0
C521 C 0.80836 0.60465 0.29254 0.0
C522 C 0.77674 0.57743 0.26907 0.0
C523 C 0.77227 0.57961 0.24325 0.0
C524 C 0.74821 0.57848 0.23337 0.0
C525 C 0.72824 0.57504 0.25035 0.0
C526 C 0.7325 0.57279 0.27689 0.0
C527 C 0.75714 0.57386 0.28619 0.0
H528 H 0.22602 0.10686 0.08219 0.0
H529 H 0.30022 0.13293 0.10246 0.0
H530 H 0.29016 0.17718 0.08691 0.0
H531 H 0.21797 0.14878 0.02497 0.0
H532 H 0.18566 0.15474 0.03217 0.0
H533 H 0.19993 0.12429 0.0413 0.0
H534 H 0.1864 0.13223 0.08811 0.0
H535 H 0.17223 0.16268 0.07917 0.0
H536 H 0.19548 0.16206 0.10387 0.0
H537 H 0.27059 0.21958 0.07359 0.0
H538 H 0.24286 0.25682 0.06411 0.0
H539 H 0.18135 0.20304 0.05314 0.0
C540 C 0.24039 0.12167 0.08268 0.0
C541 C 0.26397 0.1164 0.09332 0.0
C542 C 0.28205 0.13651 0.09426 0.0
C543 C 0.27654 0.16169 0.08541 0.0
C544 C 0.25288 0.16643 0.07564 0.0
C545 C 0.23511 0.14695 0.07414 0.0
C546 C 0.21039 0.15767 0.06514 0.0
C547 C 0.20306 0.14565 0.03936 0.0
C548 C 0.18993 0.15341 0.08528 0.0
C549 C 0.21684 0.18631 0.06245 0.0
C550 C 0.24151 0.19094 0.06827 0.0
C551 C 0.25133 0.21615 0.06864 0.0
C552 C 0.23542 0.23719 0.06326 0.0
C553 C 0.20995 0.23288 0.05778 0.0
C554 C 0.20078 0.20702 0.05697 0.0
H555 H 0.7475 0.34671 0.8287 0.0
H556 H 0.76309 0.36932 0.90683 0.0
H557 H 0.74439 0.32792 0.92188 0.0
H558 H 0.68847 0.31815 0.84087 0.0
H559 H 0.69237 0.29244 0.8177 0.0
H560 H 0.7079 0.32324 0.81331 0.0
H561 H 0.75034 0.29929 0.81014 0.0
H562 H 0.73493 0.26839 0.81455 0.0
H563 H 0.7599 0.27785 0.83552 0.0
H564 H 0.72273 0.28424 0.92818 0.0
H565 H 0.69951 0.24262 0.92524 0.0
H566 H 0.69845 0.24955 0.84283 0.0
C567 C 0.74722 0.34295 0.849 0.0
C568 C 0.75688 0.36122 0.8666 0.0
C569 C 0.75584 0.35558 0.89299 0.0
C570 C 0.74529 0.33212 0.90171 0.0
C571 C 0.73585 0.31459 0.88377 0.0
C572 C 0.73671 0.3198 0.85797 0.0
C573 C 0.72464 0.29827 0.84257 0.0
C574 C 0.70201 0.30865 0.82775 0.0
C575 C 0.74359 0.28518 0.82464 0.0
C576 C 0.71679 0.28006 0.86372 0.0
C577 C 0.72343 0.28971 0.88736 0.0
C578 C 0.71755 0.27645 0.90975 0.0
C579 C 0.70437 0.25283 0.90789 0.0
C580 C 0.69724 0.24276 0.8838 0.0
C581 C 0.70377 0.25657 0.86152 0.0
H582 H 0.72543 0.7412 0.37301 0.0
H583 H 0.75169 0.72498 0.44944 0.0
H584 H 0.73004 0.68231 0.44849 0.0
H585 H 0.66469 0.70717 0.37736 0.0
H586 H 0.66721 0.69509 0.34518 0.0
H587 H 0.68123 0.72586 0.3537 0.0
H588 H 0.72377 0.70917 0.33692 0.0
H589 H 0.71 0.67831 0.3286 0.0
H590 H 0.73655 0.6793 0.34952 0.0
H591 H 0.70856 0.63955 0.43737 0.0
H592 H 0.69047 0.60038 0.41667 0.0
H593 H 0.68052 0.64459 0.34697 0.0
C594 C 0.72595 0.72909 0.38989 0.0
C595 C 0.73989 0.73657 0.41147 0.0
C596 C 0.74086 0.71972 0.43282 0.0
C597 C 0.72862 0.69547 0.43245 0.0
C598 C 0.71563 0.68833 0.41052 0.0
C599 C 0.71423 0.70472 0.38965 0.0
C600 C 0.70146 0.69152 0.36743 0.0
C601 C 0.6772 0.70576 0.36052 0.0
C602 C 0.719 0.68945 0.34427 0.0
C603 C 0.69627 0.66499 0.37885 0.0
C604 C 0.7042 0.66356 0.40383 0.0
C605 C 0.70208 0.64054 0.41789 0.0
C606 C 0.6918 0.6184 0.40599 0.0
C607 C 0.68414 0.61939 0.38021 0.0
C608 C 0.68621 0.64314 0.3667 0.0
H609 H 0.20919 0.85216 0.58862 0.0
H610 H 0.16408 0.8118 0.64478 0.0
H611 H 0.18102 0.7696 0.63002 0.0
H612 H 0.20515 0.80164 0.53826 0.0
H613 H 0.23694 0.80665 0.52844 0.0
H614 H 0.21924 0.83342 0.54156 0.0
H615 H 0.25328 0.84072 0.57578 0.0
H616 H 0.27102 0.814 0.56283 0.0
H617 H 0.26232 0.81393 0.59601 0.0
H618 H 0.20611 0.73224 0.61226 0.0
H619 H 0.23693 0.70271 0.59228 0.0
H620 H 0.26501 0.76736 0.54728 0.0
C621 C 0.20247 0.83443 0.59748 0.0
C622 C 0.18524 0.83533 0.61782 0.0
C623 C 0.17722 0.81165 0.62912 0.0
C624 C 0.18669 0.78754 0.62083 0.0
C625 C 0.20405 0.78739 0.6011 0.0
C626 C 0.21173 0.8102 0.58944 0.0
C627 C 0.23174 0.80484 0.56977 0.0
C628 C 0.22272 0.81206 0.54291 0.0
C629 C 0.25602 0.81922 0.57652 0.0
C630 C 0.23456 0.77556 0.57265 0.0
C631 C 0.21831 0.76581 0.59068 0.0
C632 C 0.21865 0.73958 0.59781 0.0
C633 C 0.23624 0.72296 0.5864 0.0
C634 C 0.25324 0.73265 0.56807 0.0
C635 C 0.25201 0.75922 0.56089 0.0
H636 H 0.86201 0.70317 0.84854 0.0
H637 H 0.85775 0.78517 0.86925 0.0
H638 H 0.87408 0.79718 0.82671 0.0
H639 H 0.9182 0.70639 0.81129 0.0
H640 H 0.90724 0.68317 0.78802 0.0
H641 H 0.8963 0.68142 0.82041 0.0
H642 H 0.85074 0.68424 0.80449 0.0
H643 H 0.86153 0.68614 0.77206 0.0
H644 H 0.84144 0.71125 0.78468 0.0
H645 H 0.89161 0.79977 0.78136 0.0
H646 H 0.90753 0.79253 0.73756 0.0
H647 H 0.89699 0.70912 0.74674 0.0
C648 C 0.86479 0.72366 0.84432 0.0
C649 C 0.85883 0.74323 0.86231 0.0
C650 C 0.86233 0.76984 0.85579 0.0
C651 C 0.87158 0.77684 0.83169 0.0
C652 C 0.87703 0.757 0.81429 0.0
C653 C 0.87366 0.73097 0.82036 0.0
C654 C 0.88002 0.71333 0.79818 0.0
C655 C 0.90174 0.69501 0.80488 0.0
C656 C 0.85706 0.69784 0.78933 0.0
C657 C 0.88767 0.73344 0.77866 0.0
C658 C 0.88595 0.75855 0.78821 0.0
C659 C 0.89267 0.7802 0.7736 0.0
C660 C 0.90136 0.77597 0.74863 0.0
C661 C 0.90278 0.75039 0.73844 0.0
C662 C 0.89591 0.72898 0.75383 0.0
H663 H 0.61992 0.18444 0.23538 0.0
H664 H 0.53942 0.18838 0.23019 0.0
H665 H 0.53822 0.21506 0.26955 0.0
H666 H 0.6226 0.17695 0.30241 0.0
H667 H 0.65036 0.1963 0.30621 0.0
H668 H 0.64492 0.17903 0.27683 0.0
H669 H 0.64919 0.2223 0.25163 0.0
H670 H 0.65479 0.23966 0.28094 0.0
H671 H 0.62998 0.24986 0.26013 0.0
H672 H 0.54599 0.24061 0.31026 0.0
H673 H 0.56207 0.26254 0.34895 0.0
H674 H 0.63725 0.24029 0.3276 0.0
C675 C 0.60204 0.19122 0.24226 0.0
C676 C 0.57977 0.18452 0.22959 0.0
C677 C 0.55673 0.19339 0.23954 0.0
C678 C 0.55587 0.20853 0.26187 0.0
C679 C 0.57818 0.21448 0.27409 0.0
C680 C 0.60083 0.20608 0.26461 0.0
C681 C 0.62206 0.2142 0.28179 0.0
C682 C 0.63578 0.19019 0.29244 0.0
C683 C 0.64006 0.23261 0.26778 0.0
C684 C 0.60783 0.22846 0.30247 0.0
C685 C 0.58257 0.22856 0.29768 0.0
C686 C 0.56575 0.24066 0.31419 0.0
C687 C 0.57505 0.25304 0.33612 0.0
C688 C 0.60089 0.25307 0.34139 0.0
C689 C 0.61737 0.24054 0.32426 0.0
H690 H 0.36551 0.7101 0.23772 0.0
H691 H 0.44523 0.70699 0.22462 0.0
H692 H 0.43985 0.73251 0.18511 0.0
H693 H 0.3483 0.69936 0.17522 0.0
H694 H 0.32165 0.72075 0.1757 0.0
H695 H 0.3321 0.70567 0.20469 0.0
H696 H 0.33615 0.75116 0.22609 0.0
H697 H 0.32548 0.76642 0.19719 0.0
H698 H 0.35473 0.77608 0.21107 0.0
H699 H 0.42511 0.75387 0.14451 0.0
H700 H 0.40231 0.77043 0.10694 0.0
H701 H 0.33243 0.75914 0.14699 0.0
C702 C 0.38196 0.71533 0.22694 0.0
C703 C 0.40582 0.70663 0.23435 0.0
C704 C 0.42678 0.71355 0.21941 0.0
C705 C 0.4239 0.72805 0.19693 0.0
C706 C 0.39999 0.73556 0.18974 0.0
C707 C 0.37941 0.72962 0.20445 0.0
C708 C 0.35555 0.7381 0.19163 0.0
C709 C 0.33841 0.71457 0.18651 0.0
C710 C 0.3422 0.7592 0.20744 0.0
C711 C 0.36586 0.74922 0.16712 0.0
C712 C 0.39153 0.74778 0.16642 0.0
C713 C 0.40503 0.75546 0.14501 0.0
C714 C 0.39193 0.76476 0.12374 0.0
C715 C 0.36561 0.76622 0.12407 0.0
C716 C 0.35256 0.75858 0.14621 0.0
H717 H 0.11779 0.1738 0.65528 0.0
H718 H 0.05888 0.19462 0.60261 0.0
H719 H 0.03698 0.21798 0.6373 0.0
H720 H 0.07781 0.16695 0.7132 0.0
H721 H 0.10148 0.18098 0.7333 0.0
H722 H 0.11022 0.16236 0.7055 0.0
H723 H 0.13617 0.20157 0.68912 0.0
H724 H 0.12746 0.2203 0.71672 0.0
H725 H 0.12136 0.23293 0.68531 0.0
H726 H 0.02467 0.24402 0.67607 0.0
H727 H 0.02299 0.2705 0.71541 0.0
H728 H 0.09007 0.2324 0.74248 0.0
C729 C 0.09996 0.18269 0.65113 0.0
C730 C 0.09001 0.18233 0.62624 0.0
C731 C 0.06679 0.19451 0.62157 0.0
C732 C 0.0542 0.20777 0.64117 0.0
C733 C 0.06494 0.20841 0.66535 0.0
C734 C 0.08722 0.19596 0.67041 0.0
C735 C 0.09608 0.20156 0.69722 0.0
C736 C 0.09641 0.17647 0.71325 0.0
C737 C 0.12177 0.21489 0.69706 0.0
C738 C 0.07589 0.22003 0.70614 0.0
C739 C 0.05787 0.22341 0.68767 0.0
C740 C 0.03842 0.24116 0.69084 0.0
C741 C 0.03767 0.25616 0.71324 0.0
C742 C 0.05635 0.25346 0.73208 0.0
C743 C 0.07532 0.23469 0.72863 0.0
H744 H 0.76602 0.88076 0.80298 0.0
H745 H 0.70422 0.86968 0.75089 0.0
H746 H 0.73204 0.8458 0.72135 0.0
H747 H 0.81285 0.89152 0.75507 0.0
H748 H 0.83682 0.87446 0.77234 0.0
H749 H 0.81198 0.89043 0.78939 0.0
H750 H 0.80141 0.84685 0.81198 0.0
H751 H 0.8261 0.83068 0.79487 0.0
H752 H 0.79478 0.81823 0.79312 0.0
H753 H 0.7663 0.82213 0.69813 0.0
H754 H 0.80509 0.80303 0.68128 0.0
H755 H 0.845 0.83066 0.74796 0.0
C756 C 0.7583 0.87339 0.78533 0.0
C757 C 0.7329 0.87709 0.77924 0.0
C758 C 0.72361 0.86718 0.75591 0.0
C759 C 0.73925 0.85349 0.73907 0.0
C760 C 0.76413 0.85002 0.74579 0.0
C761 C 0.77366 0.85985 0.76826 0.0
C762 C 0.80118 0.85379 0.77079 0.0
C763 C 0.81661 0.87906 0.77196 0.0
C764 C 0.80615 0.83635 0.79407 0.0
C765 C 0.80569 0.83908 0.74614 0.0
C766 C 0.78401 0.8369 0.73214 0.0
C767 C 0.78339 0.82382 0.70888 0.0
C768 C 0.80555 0.81296 0.69951 0.0
C769 C 0.82813 0.81543 0.71324 0.0
C770 C 0.82808 0.82858 0.73695 0.0
H771 H 0.62887 0.10362 0.24762 0.0
H772 H 0.62886 0.07052 0.17142 0.0
H773 H 0.67114 0.05291 0.17867 0.0
H774 H 0.69233 0.12392 0.24689 0.0
H775 H 0.69757 0.11665 0.28003 0.0
H776 H 0.6669 0.12547 0.26929 0.0
H777 H 0.64914 0.08257 0.28809 0.0
H778 H 0.67972 0.07368 0.29905 0.0
H779 H 0.66257 0.05171 0.27876 0.0
H780 H 0.7136 0.03904 0.19442 0.0
H781 H 0.7531 0.0307 0.21712 0.0
H782 H 0.72547 0.07458 0.28217 0.0
C783 C 0.6376 0.09237 0.23256 0.0
C784 C 0.62551 0.08818 0.20904 0.0
C785 C 0.63778 0.07383 0.18963 0.0
C786 C 0.66177 0.06378 0.19357 0.0
C787 C 0.67328 0.06849 0.21691 0.0
C788 C 0.66162 0.08253 0.23603 0.0
C789 C 0.6783 0.08565 0.25904 0.0
C790 C 0.68412 0.11464 0.2641 0.0
C791 C 0.66674 0.07262 0.28262 0.0
C792 C 0.70113 0.07104 0.24994 0.0
C793 C 0.69788 0.06119 0.22564 0.0
C794 C 0.71637 0.04671 0.21343 0.0
C795 C 0.73874 0.04207 0.22647 0.0
C796 C 0.74243 0.05203 0.25138 0.0
C797 C 0.72333 0.0668 0.26309 0.0
H798 H 0.3085 0.6483 0.22754 0.0
H799 H 0.33776 0.58131 0.26834 0.0
H800 H 0.30404 0.55388 0.25055 0.0
H801 H 0.24383 0.63332 0.23597 0.0
H802 H 0.23518 0.64466 0.20472 0.0
H803 H 0.26154 0.65882 0.22077 0.0
H804 H 0.2897 0.64746 0.18215 0.0
H805 H 0.26342 0.63339 0.16594 0.0
H806 H 0.29112 0.61421 0.17086 0.0
H807 H 0.26724 0.5337 0.22724 0.0
H808 H 0.23105 0.52253 0.2002 0.0
H809 H 0.22618 0.6034 0.17592 0.0
C810 C 0.30789 0.62786 0.23281 0.0
C811 C 0.32578 0.61694 0.24935 0.0
C812 C 0.32425 0.5901 0.25569 0.0
C813 C 0.30515 0.57439 0.24571 0.0
C814 C 0.28776 0.58587 0.22951 0.0
C815 C 0.28902 0.61201 0.22312 0.0
C816 C 0.26829 0.61969 0.20518 0.0
C817 C 0.2512 0.64034 0.2174 0.0
C818 C 0.27877 0.62924 0.17952 0.0
C819 C 0.25514 0.59376 0.20237 0.0
C820 C 0.26659 0.57445 0.21651 0.0
C821 C 0.25806 0.54872 0.21622 0.0
C822 C 0.23749 0.54257 0.20084 0.0
C823 C 0.22567 0.5621 0.18608 0.0
C824 C 0.23456 0.58804 0.18719 0.0
H825 H 0.18876 0.39015 0.66746 0.0
H826 H 0.25154 0.37294 0.71664 0.0
H827 H 0.22253 0.36133 0.75132 0.0
H828 H 0.14747 0.41696 0.71763 0.0
H829 H 0.12013 0.40251 0.70361 0.0
H830 H 0.14581 0.41221 0.68364 0.0
H831 H 0.14822 0.36532 0.66505 0.0
H832 H 0.12267 0.35547 0.68498 0.0
H833 H 0.15177 0.33801 0.68638 0.0
H834 H 0.18696 0.34709 0.77889 0.0
H835 H 0.14737 0.33216 0.79773 0.0
H836 H 0.10767 0.35941 0.73093 0.0
C837 C 0.19646 0.38443 0.68567 0.0
C838 C 0.22245 0.38251 0.68934 0.0
C839 C 0.23171 0.37466 0.71339 0.0
C840 C 0.21538 0.36806 0.73323 0.0
C841 C 0.18986 0.36965 0.72878 0.0
C842 C 0.18044 0.37784 0.70566 0.0
C843 C 0.15229 0.37631 0.70526 0.0
C844 C 0.14075 0.40363 0.70237 0.0
C845 C 0.14322 0.35766 0.68418 0.0
C846 C 0.14736 0.36524 0.7315 0.0
C847 C 0.16928 0.36172 0.74483 0.0
C848 C 0.16965 0.35013 0.7688 0.0
C849 C 0.14708 0.34163 0.77931 0.0
C850 C 0.12443 0.3448 0.76588 0.0
C851 C 0.12461 0.35716 0.74184 0.0
H852 H 0.74705 0.72829 0.86931 0.0
H853 H 0.77059 0.76064 0.94187 0.0
H854 H 0.74137 0.79742 0.93623 0.0
H855 H 0.74507 0.78635 0.83708 0.0
H856 H 0.71825 0.77861 0.81794 0.0
H857 H 0.73779 0.75281 0.82964 0.0
H858 H 0.69963 0.73097 0.8511 0.0
H859 H 0.6799 0.75674 0.83936 0.0
H860 H 0.68071 0.74959 0.87296 0.0
H861 H 0.71435 0.83376 0.91967 0.0
H862 H 0.6914 0.8661 0.89383 0.0
H863 H 0.68514 0.80932 0.83267 0.0
C864 C 0.74561 0.74271 0.88436 0.0
C865 C 0.76103 0.74154 0.90606 0.0
C866 C 0.75885 0.76105 0.92513 0.0
C867 C 0.74226 0.782 0.92212 0.0
C868 C 0.72783 0.78296 0.9001 0.0
C869 C 0.72919 0.76368 0.88166 0.0
C870 C 0.71353 0.77042 0.85868 0.0
C871 C 0.72963 0.77216 0.83442 0.0
C872 C 0.69217 0.75076 0.85534 0.0
C873 C 0.70386 0.79695 0.86664 0.0
C874 C 0.71206 0.80377 0.8907 0.0
C875 C 0.70737 0.82841 0.90105 0.0
C876 C 0.69437 0.84667 0.88623 0.0
C877 C 0.6863 0.84016 0.86134 0.0
C878 C 0.69063 0.81475 0.8518 0.0
H879 H 0.25209 0.62209 0.10185 0.0
H880 H 0.18088 0.62988 0.06372 0.0
H881 H 0.19584 0.67016 0.04264 0.0
H882 H 0.26007 0.68907 0.1151 0.0
H883 H 0.29327 0.68879 0.11027 0.0
H884 H 0.27763 0.65961 0.12062 0.0
H885 H 0.29581 0.63413 0.08215 0.0
H886 H 0.31168 0.66319 0.07173 0.0
H887 H 0.29095 0.6463 0.05034 0.0
H888 H 0.21848 0.71073 0.02701 0.0
H889 H 0.24648 0.74815 0.0187 0.0
H890 H 0.302 0.71358 0.06831 0.0
C891 C 0.23973 0.63197 0.08874 0.0
C892 C 0.21538 0.62272 0.08424 0.0
C893 C 0.19966 0.63656 0.06734 0.0
C894 C 0.208 0.65944 0.05529 0.0
C895 C 0.23203 0.66822 0.06046 0.0
C896 C 0.24764 0.65487 0.07681 0.0
C897 C 0.27215 0.66893 0.08024 0.0
C898 C 0.27599 0.67708 0.10821 0.0
C899 C 0.29393 0.65213 0.07052 0.0
C900 C 0.2679 0.6924 0.06335 0.0
C901 C 0.24475 0.69163 0.05196 0.0
C902 C 0.23669 0.71147 0.03577 0.0
C903 C 0.25271 0.73264 0.03116 0.0
C904 C 0.27643 0.73383 0.04284 0.0
C905 C 0.28401 0.71332 0.05906 0.0
H906 H 0.27817 0.28677 0.60081 0.0
H907 H 0.22783 0.35158 0.58708 0.0
H908 H 0.19812 0.32137 0.56664 0.0
H909 H 0.26391 0.25041 0.5411 0.0
H910 H 0.26628 0.2192 0.55675 0.0
H911 H 0.28477 0.24636 0.56767 0.0
H912 H 0.26672 0.24071 0.61311 0.0
H913 H 0.24806 0.21371 0.60234 0.0
H914 H 0.23346 0.2413 0.61767 0.0
H915 H 0.17164 0.28362 0.55334 0.0
H916 H 0.15135 0.24119 0.54509 0.0
H917 H 0.21948 0.20089 0.56536 0.0
C918 C 0.26114 0.29472 0.59301 0.0
C919 C 0.25534 0.32156 0.59552 0.0
C920 C 0.23277 0.33114 0.58524 0.0
C921 C 0.21575 0.31412 0.57361 0.0
C922 C 0.22176 0.28767 0.57207 0.0
C923 C 0.24407 0.27805 0.58114 0.0
C924 C 0.24542 0.24859 0.57833 0.0
C925 C 0.26633 0.24068 0.55985 0.0
C926 C 0.24859 0.23531 0.60441 0.0
C927 C 0.22004 0.24304 0.56705 0.0
C928 C 0.20672 0.26588 0.56356 0.0
C929 C 0.18206 0.26566 0.55547 0.0
C930 C 0.17067 0.24148 0.55095 0.0
C931 C 0.18398 0.21786 0.55429 0.0
C932 C 0.20909 0.2187 0.56208 0.0
H933 H 0.72552 0.24183 0.34054 0.0
H934 H 0.71046 0.22462 0.42 0.0
H935 H 0.73669 0.18505 0.41683 0.0
H936 H 0.72039 0.17886 0.31861 0.0
H937 H 0.74477 0.18112 0.29511 0.0
H938 H 0.72812 0.20998 0.30469 0.0
H939 H 0.76962 0.23249 0.31704 0.0
H940 H 0.78648 0.20371 0.30727 0.0
H941 H 0.79043 0.21658 0.339 0.0
H942 H 0.75975 0.14409 0.40307 0.0
H943 H 0.779 0.10669 0.38037 0.0
H944 H 0.77918 0.15178 0.31045 0.0
C945 C 0.72825 0.23017 0.3575 0.0
C946 C 0.71599 0.23638 0.38053 0.0
C947 C 0.7198 0.22035 0.40217 0.0
C948 C 0.73466 0.19782 0.40055 0.0
C949 C 0.74578 0.19178 0.37726 0.0
C950 C 0.74299 0.20772 0.35622 0.0
C951 C 0.75516 0.19598 0.33287 0.0
C952 C 0.73597 0.1912 0.31159 0.0
C953 C 0.77671 0.21322 0.3235 0.0
C954 C 0.76462 0.17057 0.34382 0.0
C955 C 0.75923 0.16848 0.36948 0.0
C956 C 0.7645 0.14574 0.38309 0.0
C957 C 0.77536 0.12458 0.37005 0.0
C958 C 0.78078 0.12636 0.3437 0.0
C959 C 0.77565 0.14987 0.33068 0.0
H960 H 0.09633 0.14667 0.47567 0.0
H961 H 0.07906 0.22844 0.48908 0.0
H962 H 0.06457 0.23256 0.44466 0.0
H963 H 0.11981 0.15449 0.4129 0.0
H964 H 0.10695 0.12429 0.4011 0.0
H965 H 0.11483 0.12746 0.43428 0.0
H966 H 0.06981 0.1147 0.44686 0.0
H967 H 0.0618 0.11143 0.4137 0.0
H968 H 0.04401 0.13291 0.434 0.0
H969 H 0.05318 0.22808 0.39829 0.0
H970 H 0.0458 0.2153 0.35351 0.0
H971 H 0.07081 0.13658 0.37059 0.0
C972 C 0.08931 0.1654 0.46937 0.0
C973 C 0.08877 0.18722 0.48591 0.0
C974 C 0.0796 0.21142 0.4768 0.0
C975 C 0.07132 0.21396 0.45159 0.0
C976 C 0.07229 0.19212 0.43574 0.0
C977 C 0.08101 0.1683 0.44428 0.0
C978 C 0.08073 0.14803 0.42324 0.0
C979 C 0.10715 0.13799 0.41755 0.0
C980 C 0.06303 0.12543 0.42985 0.0
C981 C 0.07072 0.16424 0.40146 0.0
C982 C 0.06585 0.18958 0.40907 0.0
C983 C 0.05681 0.20825 0.39214 0.0
C984 C 0.05269 0.2008 0.36674 0.0
C985 C 0.05769 0.17494 0.35851 0.0
C986 C 0.06674 0.15649 0.37624 0.0
H987 H 0.3335 0.80924 0.95043 0.0
H988 H 0.3969 0.77385 -0.0118 0.0
H989 H 0.41963 0.77284 0.94723 0.0
H990 H 0.33892 0.77298 0.89114 0.0
H991 H 0.32973 0.80044 0.87187 0.0
H992 H 0.31823 0.79743 0.90399 0.0
H993 H 0.33537 0.84348 0.91473 0.0
H994 H 0.34687 0.84662 0.88267 0.0
H995 H 0.3678 0.85049 0.90921 0.0
H996 H 0.43611 0.7777 0.90226 0.0
H997 H 0.44484 0.78789 0.85708 0.0
H998 H 0.37018 0.81925 0.84914 0.0
C999 C 0.35212 0.80113 0.95012 0.0
C1000 C 0.36343 0.79164 0.97255 0.0
C1001 C 0.38784 0.78122 0.97126 0.0
C1002 C 0.40089 0.78053 0.94807 0.0
C1003 C 0.38921 0.79018 0.92635 0.0
C1004 C 0.36533 0.8002 0.92718 0.0
C1005 C 0.35713 0.8099 0.90131 0.0
C1006 C 0.33468 0.79424 0.89151 0.0
C1007 C 0.35147 0.83937 0.90204 0.0
C1008 C 0.38025 0.80411 0.88583 0.0
C1009 C 0.39854 0.79267 0.90054 0.0
C1010 C 0.42185 0.78646 0.89051 0.0
C1011 C 0.42664 0.79233 0.86484 0.0
C1012 C 0.40818 0.80425 0.84952 0.0
C1013 C 0.38463 0.8099 0.86022 0.0
H1014 H 0.66412 0.31104 0.4947 0.0
H1015 H 0.59915 0.27322 0.46223 0.0
H1016 H 0.57869 0.27418 0.50443 0.0
H1017 H 0.66255 0.27812 0.55557 0.0
H1018 H 0.67229 0.30663 0.57312 0.0
H1019 H 0.68203 0.30226 0.54053 0.0
H1020 H 0.66342 0.34742 0.52892 0.0
H1021 H 0.65369 0.35196 0.56145 0.0
H1022 H 0.63123 0.35415 0.53608 0.0
H1023 H 0.56498 0.28033 0.55008 0.0
H1024 H 0.55877 0.29184 0.59537 0.0
H1025 H 0.63287 0.32552 0.59767 0.0
C1026 C 0.64563 0.30283 0.49642 0.0
C1027 C 0.63325 0.29201 0.47514 0.0
C1028 C 0.60902 0.28159 0.47826 0.0
C1029 C 0.59726 0.28201 0.50216 0.0
C1030 C 0.61 0.29287 0.52273 0.0
C1031 C 0.63365 0.3031 0.52008 0.0
C1032 C 0.6431 0.31419 0.54501 0.0
C1033 C 0.66637 0.29941 0.55409 0.0
C1034 C 0.64815 0.34368 0.54272 0.0
C1035 C 0.621 0.3088 0.56209 0.0
C1036 C 0.60213 0.29639 0.54893 0.0
C1037 C 0.57967 0.28994 0.5606 0.0
C1038 C 0.57632 0.29656 0.58634 0.0
C1039 C 0.59534 0.30955 0.60011 0.0
C1040 C 0.61801 0.31548 0.58776 0.0
H1041 H 0.88779 0.65496 0.09948 0.0
H1042 H 0.90591 0.73241 0.12775 0.0
H1043 H 0.89683 0.75086 0.08529 0.0
H1044 H 0.91368 0.66331 0.03597 0.0
H1045 H 0.88935 0.6446 0.02097 0.0
H1046 H 0.89842 0.63746 0.05324 0.0
H1047 H 0.85279 0.64368 0.06816 0.0
H1048 H 0.84359 0.65082 0.03597 0.0
H1049 H 0.83688 0.67383 0.06111 0.0
H1050 H 0.8837 0.76103 0.04014 0.0
H1051 H 0.86771 0.76205 -0.00398 0.0
H1052 H 0.85876 0.67778 -0.00237 0.0
C1053 C 0.89005 0.67578 0.09676 0.0
C1054 C 0.89758 0.69224 0.11697 0.0
C1055 C 0.9002 0.7194 0.11256 0.0
C1056 C 0.89511 0.73006 0.08849 0.0
C1057 C 0.88755 0.71328 0.06904 0.0
C1058 C 0.88511 0.68671 0.07291 0.0
C1059 C 0.87601 0.67297 0.04914 0.0
C1060 C 0.89553 0.65343 0.03925 0.0
C1061 C 0.85083 0.65955 0.05389 0.0
C1062 C 0.87336 0.69601 0.03135 0.0
C1063 C 0.88019 0.71909 0.04311 0.0
C1064 C 0.87848 0.74305 0.03067 0.0
C1065 C 0.86936 0.74343 0.00562 0.0
C1066 C 0.86205 0.72 -0.00668 0.0
C1067 C 0.86437 0.69602 0.00638 0.0
H1068 H 0.3651 0.09133 0.16311 0.0
H1069 H 0.3782 0.00937 0.17948 0.0
H1070 H 0.42305 0.01859 0.185 0.0
H1071 H 0.41927 0.10159 0.12659 0.0
H1072 H 0.42468 0.13421 0.13835 0.0
H1073 H 0.39353 0.12139 0.13731 0.0
H1074 H 0.38823 0.13077 0.18557 0.0
H1075 H 0.41935 0.14375 0.18674 0.0
H1076 H 0.41045 0.1176 0.2078 0.0
H1077 H 0.46698 0.03668 0.18647 0.0
H1078 H 0.50599 0.06219 0.18465 0.0
H1079 H 0.4635 0.13208 0.16734 0.0
C1080 C 0.3773 0.0753 0.16812 0.0
C1081 C 0.36809 0.0496 0.1709 0.0
C1082 C 0.38478 0.02923 0.17734 0.0
C1083 C 0.41029 0.03427 0.1805 0.0
C1084 C 0.41877 0.0598 0.17725 0.0
C1085 C 0.40271 0.07998 0.17135 0.0
C1086 C 0.41649 0.10553 0.16814 0.0
C1087 C 0.4133 0.1163 0.14098 0.0
C1088 C 0.40813 0.12559 0.18827 0.0
C1089 C 0.4429 0.09656 0.17281 0.0
C1090 C 0.44387 0.07015 0.17813 0.0
C1091 C 0.4664 0.0574 0.18249 0.0
C1092 C 0.48846 0.07205 0.18137 0.0
C1093 C 0.48783 0.09915 0.17589 0.0
C1094 C 0.46467 0.11144 0.17168 0.0
H1095 H -0.01891 0.82657 0.69594 0.0
H1096 H 0.94222 0.89856 0.71434 0.0
H1097 H -0.01761 0.92208 0.71507 0.0
H1098 H 0.03646 0.83881 0.73433 0.0
H1099 H 0.05704 0.82434 0.71111 0.0
H1100 H 0.02543 0.81298 0.71387 0.0
H1101 H 0.0184 0.82223 0.66589 0.0
H1102 H 0.04993 0.83368 0.66299 0.0
H1103 H 0.02447 0.85446 0.65359 0.0
H1104 H 0.0269 0.93811 0.71171 0.0
H1105 H 0.07177 0.94534 0.70411 0.0
H1106 H 0.08102 0.86281 0.68734 0.0
C1107 C -0.01902 0.84721 0.70048 0.0
C1108 C 0.95846 0.86068 0.7052 0.0
C1109 C 0.95921 0.88778 0.71074 0.0
C1110 C -0.01805 0.90131 0.71122 0.0
C1111 C 0.00377 0.88747 0.70613 0.0
C1112 C 0.00345 0.86101 0.70091 0.0
C1113 C 0.02929 0.85086 0.69494 0.0
C1114 C 0.03754 0.83055 0.71475 0.0
C1115 C 0.03059 0.83966 0.66774 0.0
C1116 C 0.04421 0.87582 0.69729 0.0
C1117 C 0.02922 0.8967 0.70394 0.0
C1118 C 0.03882 0.92185 0.70664 0.0
C1119 C 0.06435 0.92577 0.70228 0.0
C1120 C 0.07998 0.90466 0.69515 0.0
C1121 C 0.06965 0.87937 0.69284 0.0
H1122 H 0.96302 0.33577 0.82824 0.0
H1123 H -0.01509 0.37395 0.75796 0.0
H1124 H 0.94403 0.39623 0.75637 0.0
H1125 H 0.90024 0.32412 0.81191 0.0
H1126 H 0.88837 0.33053 0.84345 0.0
H1127 H 0.91959 0.31849 0.83939 0.0
H1128 H 0.93674 0.35806 0.86476 0.0
H1129 H 0.90554 0.37017 0.86902 0.0
H1130 H 0.92893 0.39072 0.85478 0.0
H1131 H 0.89941 0.41219 0.76143 0.0
H1132 H 0.85608 0.42252 0.77408 0.0
H1133 H 0.86477 0.3747 0.84166 0.0
C1134 C 0.95933 0.34893 0.81256 0.0
C1135 C 0.97711 0.35307 0.79317 0.0
C1136 C 0.97157 0.37055 0.77307 0.0
C1137 C 0.94839 0.38323 0.77198 0.0
C1138 C 0.93114 0.37841 0.79128 0.0
C1139 C 0.93648 0.36188 0.81132 0.0
C1140 C 0.91483 0.35982 0.82963 0.0
C1141 C 0.90519 0.33156 0.83117 0.0
C1142 C 0.92194 0.37033 0.85611 0.0
C1143 C 0.89628 0.37751 0.81662 0.0
C1144 C 0.90592 0.38802 0.79448 0.0
C1145 C 0.89177 0.40425 0.77885 0.0
C1146 C 0.86717 0.40994 0.78614 0.0
C1147 C 0.85711 0.39954 0.80892 0.0
C1148 C 0.87198 0.38318 0.82427 0.0
H1149 H 0.47337 0.63124 0.34504 0.0
H1150 H 0.45826 0.61467 0.26538 0.0
H1151 H 0.50174 0.60028 0.25952 0.0
H1152 H 0.53461 0.65622 0.33659 0.0
H1153 H 0.54681 0.64166 0.3652 0.0
H1154 H 0.51435 0.65012 0.36332 0.0
H1155 H 0.50223 0.60248 0.37441 0.0
H1156 H 0.53467 0.5939 0.37649 0.0
H1157 H 0.51441 0.576 0.35542 0.0
H1158 H 0.54748 0.58948 0.26192 0.0
H1159 H 0.59132 0.58044 0.27317 0.0
H1160 H 0.576 0.60303 0.35142 0.0
C1161 C 0.47914 0.62445 0.32639 0.0
C1162 C 0.4624 0.62411 0.30567 0.0
C1163 C 0.47071 0.61502 0.28158 0.0
C1164 C 0.4954 0.60688 0.27802 0.0
C1165 C 0.5115 0.60775 0.29878 0.0
C1166 C 0.50365 0.61606 0.32254 0.0
C1167 C 0.52463 0.61502 0.34174 0.0
C1168 C 0.53044 0.64239 0.35232 0.0
C1169 C 0.51862 0.59569 0.36328 0.0
C1170 C 0.54554 0.60503 0.32501 0.0
C1171 C 0.53765 0.60106 0.30027 0.0
C1172 C 0.55384 0.59236 0.28127 0.0
C1173 C 0.57871 0.58737 0.28782 0.0
C1174 C 0.58707 0.59094 0.31318 0.0
C1175 C 0.57018 0.59995 0.3319 0.0
H1176 H 0.11084 0.37593 0.06701 0.0
H1177 H 0.18775 0.35021 0.0707 0.0
H1178 H 0.20089 0.39551 0.08008 0.0
H1179 H 0.12277 0.43809 0.03692 0.0
H1180 H 0.09887 0.45486 0.05471 0.0
H1181 H 0.09571 0.42054 0.04779 0.0
H1182 H 0.09047 0.41084 0.09595 0.0
H1183 H 0.0936 0.44511 0.10301 0.0
H1184 H 0.11397 0.42178 0.118 0.0
H1185 H 0.20533 0.44352 0.09051 0.0
H1186 H 0.20079 0.49043 0.10072 0.0
H1187 H 0.12099 0.48441 0.0894 0.0
C1188 C 0.13048 0.37977 0.06969 0.0
C1189 C 0.14828 0.35951 0.06813 0.0
C1190 C 0.17378 0.36543 0.07179 0.0
C1191 C 0.18142 0.39109 0.07711 0.0
C1192 C 0.16334 0.41058 0.0786 0.0
C1193 C 0.13841 0.40522 0.07492 0.0
C1194 C 0.12263 0.42954 0.07786 0.0
C1195 C 0.10921 0.43614 0.05282 0.0
C1196 C 0.10408 0.42664 0.10003 0.0
C1197 C 0.14256 0.44945 0.08394 0.0
C1198 C 0.16592 0.43816 0.08428 0.0
C1199 C 0.18714 0.45259 0.09014 0.0
C1200 C 0.18437 0.47922 0.09593 0.0
C1201 C 0.16056 0.49114 0.09574 0.0
C1202 C 0.13948 0.47598 0.08949 0.0
H1203 H 0.67116 -0.01179 0.85509 0.0
H1204 H 0.73678 -0.00728 0.80699 0.0
H1205 H 0.74288 0.03865 0.82015 0.0
H1206 H 0.64827 0.05066 0.84072 0.0
H1207 H 0.63656 0.05723 0.87229 0.0
H1208 H 0.63882 0.02409 0.86104 0.0
H1209 H 0.6659 0.01208 0.90013 0.0
H1210 H 0.66373 0.04525 0.91151 0.0
H1211 H 0.6938 0.03046 0.90658 0.0
H1212 H 0.74041 0.08483 0.83673 0.0
H1213 H 0.72861 0.12803 0.85394 0.0
H1214 H 0.66415 0.09327 0.8905 0.0
C1215 C 0.68706 -0.00131 0.84761 0.0
C1216 C 0.70359 -0.01318 0.83011 0.0
C1217 C 0.72391 0.00139 0.82046 0.0
C1218 C 0.72758 0.02746 0.8279 0.0
C1219 C 0.71076 0.03865 0.84498 0.0
C1220 C 0.69089 0.02473 0.85468 0.0
C1221 C 0.67458 0.04173 0.87144 0.0
C1222 C 0.64799 0.04354 0.86072 0.0
C1223 C 0.67451 0.03178 0.89905 0.0
C1224 C 0.68812 0.06754 0.86926 0.0
C1225 C 0.70911 0.0653 0.85419 0.0
C1226 C 0.72412 0.08677 0.84872 0.0
C1227 C 0.71726 0.11124 0.85861 0.0
C1228 C 0.69546 0.11407 0.87359 0.0
C1229 C 0.68099 0.09177 0.87923 0.0
H1230 H 0.79721 0.97459 0.35727 0.0
H1231 H 0.80261 0.95995 0.27596 0.0
H1232 H 0.79623 0.91295 0.28338 0.0
H1233 H 0.83155 0.91824 0.37573 0.0
H1234 H 0.81325 0.91173 0.40382 0.0
H1235 H 0.81603 0.94462 0.39211 0.0
H1236 H 0.76799 0.94823 0.38976 0.0
H1237 H 0.76509 0.91525 0.40135 0.0
H1238 H 0.75069 0.92441 0.37169 0.0
H1239 H 0.7904 0.86785 0.29913 0.0
H1240 H 0.78925 0.82637 0.32264 0.0
H1241 H 0.78947 0.86914 0.39424 0.0
C1242 C 0.79677 0.96147 0.34107 0.0
C1243 C 0.80028 0.97088 0.31603 0.0
C1244 C 0.80004 0.95313 0.2953 0.0
C1245 C 0.79625 0.92642 0.29929 0.0
C1246 C 0.79295 0.9177 0.32415 0.0
C1247 C 0.79342 0.93456 0.34475 0.0
C1248 C 0.7912 0.91967 0.36962 0.0
C1249 C 0.81439 0.92381 0.38629 0.0
C1250 C 0.76732 0.92735 0.38394 0.0
C1251 C 0.78974 0.89185 0.3597 0.0
C1252 C 0.79038 0.8913 0.3334 0.0
C1253 C 0.78983 0.86798 0.31974 0.0
C1254 C 0.78915 0.8445 0.33331 0.0
C1255 C 0.78931 0.84444 0.3603 0.0
C1256 C 0.78921 0.86852 0.37362 0.0
H1257 H 0.24793 0.47336 0.58957 0.0
H1258 H 0.31887 0.46131 0.62738 0.0
H1259 H 0.33018 0.50711 0.61902 0.0
H1260 H 0.27091 0.51635 0.54022 0.0
H1261 H 0.24366 0.53689 0.54046 0.0
H1262 H 0.24112 0.50294 0.54904 0.0
H1263 H 0.22124 0.51607 0.59222 0.0
H1264 H 0.22376 0.55006 0.58378 0.0
H1265 H 0.23748 0.53841 0.61294 0.0
H1266 H 0.33387 0.55398 0.60706 0.0
H1267 H 0.32973 0.59937 0.59225 0.0
H1268 H 0.25631 0.58165 0.5623 0.0
C1269 C 0.26588 0.48031 0.59601 0.0
C1270 C 0.28251 0.46367 0.60912 0.0
C1271 C 0.30578 0.47362 0.61731 0.0
C1272 C 0.31241 0.49963 0.61264 0.0
C1273 C 0.29558 0.51551 0.59978 0.0
C1274 C 0.27281 0.5063 0.59156 0.0
C1275 C 0.2581 0.52765 0.57838 0.0
C1276 C 0.25316 0.52053 0.55036 0.0
C1277 C 0.2337 0.53338 0.59269 0.0
C1278 C 0.27617 0.55028 0.58058 0.0
C1279 C 0.29768 0.54276 0.59295 0.0
C1280 C 0.31713 0.56012 0.59732 0.0
C1281 C 0.31457 0.58589 0.58882 0.0
C1282 C 0.29269 0.59415 0.57609 0.0
C1283 C 0.27326 0.576 0.57197 0.0
H1284 H 0.83859 0.74325 0.50332 0.0
H1285 H 0.84229 0.82458 0.48029 0.0
H1286 H 0.8601 0.83615 0.52218 0.0
H1287 H 0.82027 0.75499 0.5673 0.0
H1288 H 0.83845 0.72858 0.58028 0.0
H1289 H 0.82707 0.72661 0.5481 0.0
H1290 H 0.87202 0.71921 0.53162 0.0
H1291 H 0.88355 0.72112 0.56378 0.0
H1292 H 0.89596 0.74246 0.53963 0.0
H1293 H 0.87616 0.839 0.56737 0.0
H1294 H 0.8893 0.83275 0.61209 0.0
H1295 H 0.87501 0.74957 0.605 0.0
C1296 C 0.84331 0.76348 0.50696 0.0
C1297 C 0.83907 0.78299 0.48849 0.0
C1298 C 0.84539 0.80926 0.49413 0.0
C1299 C 0.85554 0.81604 0.51786 0.0
C1300 C 0.85929 0.79632 0.53571 0.0
C1301 C 0.85342 0.77058 0.5305 0.0
C1302 C 0.85867 0.75318 0.55313 0.0
C1303 C 0.83469 0.74008 0.56277 0.0
C1304 C 0.87875 0.7328 0.54664 0.0
C1305 C 0.86822 0.77319 0.57198 0.0
C1306 C 0.86852 0.79796 0.56159 0.0
C1307 C 0.87613 0.81966 0.57566 0.0
C1308 C 0.88354 0.81592 0.60104 0.0
C1309 C 0.88324 0.79068 0.61205 0.0
C1310 C 0.87558 0.76911 0.59717 0.0
H1311 H 0.66165 0.1672 -0.00085 0.0
H1312 H 0.59054 0.17379 0.96056 0.0
H1313 H 0.56884 0.16879 0.00185 0.0
H1314 H 0.64349 0.11833 0.04322 0.0
H1315 H 0.66167 0.1314 0.0691 0.0
H1316 H 0.67142 0.13663 0.0367 0.0
H1317 H 0.6718 0.18665 0.0445 0.0
H1318 H 0.66202 0.18157 0.07695 0.0
H1319 H 0.64415 0.20254 0.05635 0.0
H1320 H 0.55499 0.16154 0.0475 0.0
H1321 H 0.55018 0.15221 0.09345 0.0
H1322 H 0.63054 0.15063 0.10161 0.0
C1323 C 0.64151 0.16777 -0.00067 0.0
C1324 C 0.6278 0.17092 0.97659 0.0
C1325 C 0.60146 0.17142 0.97773 0.0
C1326 C 0.58897 0.16864 0.0011 0.0
C1327 C 0.60309 0.16544 0.02314 0.0
C1328 C 0.62879 0.16503 0.02242 0.0
C1329 C 0.63968 0.16066 0.04864 0.0
C1330 C 0.65496 0.13524 0.04945 0.0
C1331 C 0.65533 0.18427 0.05711 0.0
C1332 C 0.61609 0.1584 0.06424 0.0
C1333 C 0.59516 0.16132 0.04925 0.0
C1334 C 0.57126 0.15936 0.05943 0.0
C1335 C 0.56872 0.15406 0.08555 0.0
C1336 C 0.58997 0.15074 0.10118 0.0
C1337 C 0.6139 0.15319 0.09027 0.0
H1338 H 0.37591 0.66395 0.37577 0.0
H1339 H 0.30716 0.68545 0.33775 0.0
H1340 H 0.28656 0.69053 0.37938 0.0
H1341 H 0.34857 0.62669 0.4253 0.0
H1342 H 0.36979 0.63748 0.44972 0.0
H1343 H 0.37971 0.63661 0.41695 0.0
H1344 H 0.39162 0.68558 0.41938 0.0
H1345 H 0.38182 0.68659 0.45222 0.0
H1346 H 0.3687 0.70914 0.42957 0.0
H1347 H 0.27245 0.69019 0.42454 0.0
H1348 H 0.26633 0.68712 0.47101 0.0
H1349 H 0.34442 0.66776 0.48046 0.0
C1350 C 0.35659 0.66997 0.37622 0.0
C1351 C 0.34316 0.67427 0.35345 0.0
C1352 C 0.31789 0.68209 0.35488 0.0
C1353 C 0.30598 0.68501 0.37846 0.0
C1354 C 0.31963 0.68032 0.40049 0.0
C1355 C 0.34443 0.67323 0.39966 0.0
C1356 C 0.35464 0.66906 0.42628 0.0
C1357 C 0.36371 0.64078 0.42976 0.0
C1358 C 0.37543 0.68877 0.43221 0.0
C1359 C 0.33158 0.67449 0.4421 0.0
C1360 C 0.3116 0.68087 0.42678 0.0
C1361 C 0.288 0.68552 0.43679 0.0
C1362 C 0.2847 0.68362 0.46319 0.0
C1363 C 0.30492 0.67736 0.47933 0.0
C1364 C 0.3287 0.67292 0.4686 0.0
H1365 H 0.1303 0.33084 0.96576 0.0
H1366 H 0.09684 0.2562 -0.01532 0.0
H1367 H 0.07512 0.25592 0.94315 0.0
H1368 H 0.07654 0.35773 0.93395 0.0
H1369 H 0.09482 0.37453 0.91029 0.0
H1370 H 0.10752 0.36875 0.94151 0.0
H1371 H 0.14547 0.3453 0.92121 0.0
H1372 H 0.13289 0.35098 0.88994 0.0
H1373 H 0.14042 0.31822 0.89982 0.0
H1374 H 0.05874 0.263 0.89844 0.0
H1375 H 0.0472 0.27806 0.85524 0.0
H1376 H 0.09007 0.34886 0.86698 0.0
C1377 C 0.11838 0.31443 0.96122 0.0
C1378 C 0.11532 0.29349 0.97839 0.0
C1379 C 0.09941 0.27248 0.9718 0.0
C1380 C 0.08705 0.27213 0.94826 0.0
C1381 C 0.0906 0.29306 0.93169 0.0
C1382 C 0.10572 0.31391 0.938 0.0
C1383 C 0.10634 0.33407 0.91698 0.0
C1384 C 0.09566 0.36032 0.92624 0.0
C1385 C 0.13285 0.33732 0.90636 0.0
C1386 C 0.08936 0.32122 0.89773 0.0
C1387 C 0.08057 0.2975 0.90646 0.0
C1388 C 0.06533 0.28166 0.89151 0.0
C1389 C 0.05892 0.29032 0.86702 0.0
C1390 C 0.06756 0.31471 0.85789 0.0
C1391 C 0.08287 0.33031 0.87357 0.0
H1392 H 0.58944 0.86458 0.77347 0.0
H1393 H 0.59459 0.93461 0.82002 0.0
H1394 H 0.54885 0.93815 0.82035 0.0
H1395 H 0.53556 0.88521 0.73564 0.0
H1396 H 0.52219 0.85293 0.73508 0.0
H1397 H 0.55545 0.85688 0.73694 0.0
H1398 H 0.55633 0.82869 0.77788 0.0
H1399 H 0.5231 0.8247 0.77617 0.0
H1400 H 0.5371 0.83784 0.80463 0.0
H1401 H 0.50258 0.93266 0.818 0.0
H1402 H 0.45896 0.9185 0.81292 0.0
H1403 H 0.48373 0.85221 0.76775 0.0
C1404 C 0.58098 0.88088 0.78343 0.0
C1405 C 0.59567 0.89935 0.79666 0.0
C1406 C 0.58379 0.9202 0.80972 0.0
C1407 C 0.55779 0.92243 0.80998 0.0
C1408 C 0.54387 0.90372 0.79705 0.0
C1409 C 0.55501 0.88338 0.78394 0.0
C1410 C 0.53569 0.86524 0.77257 0.0
C1411 C 0.53732 0.86507 0.74332 0.0
C1412 C 0.53821 0.83748 0.78347 0.0
C1413 C 0.51199 0.87834 0.78167 0.0
C1414 C 0.51712 0.90058 0.79564 0.0
C1415 C 0.4983 0.91541 0.80688 0.0
C1416 C 0.47358 0.90719 0.80392 0.0
C1417 C 0.46788 0.88433 0.78984 0.0
C1418 C 0.48742 0.86993 0.7784 0.0
H1419 H 0.87827 0.06862 0.30562 0.0
H1420 H 0.85364 0.08025 0.22771 0.0
H1421 H 0.89675 0.09067 0.21498 0.0
H1422 H 0.92073 0.12124 0.30692 0.0
H1423 H 0.94344 0.1047 0.3263 0.0
H1424 H 0.91105 0.0962 0.32889 0.0
H1425 H 0.92176 0.04782 0.31915 0.0
H1426 H 0.95422 0.05619 0.3165 0.0
H1427 H 0.93877 0.03979 0.29055 0.0
H1428 H 0.94199 0.10186 0.21113 0.0
H1429 H -0.01404 0.11433 0.21658 0.0
H1430 H -0.01889 0.09586 0.29715 0.0
C1431 C 0.88196 0.07303 0.28581 0.0
C1432 C 0.86258 0.07351 0.26762 0.0
C1433 C 0.86818 0.07974 0.24197 0.0
C1434 C 0.89262 0.0856 0.23454 0.0
C1435 C 0.91124 0.08515 0.25298 0.0
C1436 C 0.90621 0.07907 0.2781 0.0
C1437 C 0.92935 0.08131 0.29442 0.0
C1438 C 0.92593 0.1021 0.31536 0.0
C1439 C 0.93644 0.05469 0.30582 0.0
C1440 C 0.94811 0.08997 0.27463 0.0
C1441 C 0.93732 0.09184 0.25081 0.0
C1442 C 0.95069 0.1003 0.22965 0.0
C1443 C 0.97568 0.10736 0.23296 0.0
C1444 C -0.01297 0.10604 0.25728 0.0
C1445 C 0.97306 0.09689 0.27827 0.0
H1446 H 0.09589 0.60149 0.13366 0.0
H1447 H 0.0945 0.5352 0.18511 0.0
H1448 H 0.05038 0.54441 0.195 0.0
H1449 H 0.05743 0.64372 0.17143 0.0
H1450 H 0.04194 0.65788 0.14434 0.0
H1451 H 0.07327 0.64581 0.1412 0.0
H1452 H 0.05942 0.61582 0.10398 0.0
H1453 H 0.02803 0.62777 0.10703 0.0
H1454 H 0.03415 0.5932 0.10879 0.0
H1455 H 0.00614 0.56089 0.199 0.0
H1456 H 0.96572 0.58395 0.19757 0.0
H1457 H -0.00334 0.63956 0.14385 0.0
C1458 C 0.08635 0.58887 0.14702 0.0
C1459 C 0.09867 0.5676 0.1586 0.0
C1460 C 0.08547 0.55162 0.176 0.0
C1461 C 0.0604 0.55667 0.18172 0.0
C1462 C 0.04882 0.57778 0.16991 0.0
C1463 C 0.0614 0.59365 0.15297 0.0
C1464 C 0.04481 0.61521 0.14298 0.0
C1465 C 0.05497 0.64225 0.15045 0.0
C1466 C 0.0414 0.61284 0.11398 0.0
C1467 C 0.02093 0.60908 0.15702 0.0
C1468 C 0.02354 0.58736 0.17237 0.0
C1469 C 0.00389 0.57793 0.18706 0.0
C1470 C -0.019 0.59114 0.1861 0.0
C1471 C 0.97803 0.61359 0.17065 0.0
C1472 C -0.00168 0.62253 0.15593 0.0
H1473 H 0.38424 0.40301 0.65768 0.0
H1474 H 0.34529 0.32873 0.65476 0.0
H1475 H 0.38507 0.30555 0.66076 0.0
H1476 H 0.43773 0.38248 0.62299 0.0
H1477 H 0.45943 0.40126 0.6417 0.0
H1478 H 0.42776 0.41222 0.63839 0.0
H1479 H 0.42294 0.41328 0.6875 0.0
H1480 H 0.45463 0.40234 0.69097 0.0
H1481 H 0.42969 0.3843 0.7057 0.0
H1482 H 0.42889 0.29032 0.66549 0.0
H1483 H 0.47418 0.28385 0.66866 0.0
H1484 H 0.48506 0.36793 0.66858 0.0
C1485 C 0.38403 0.38187 0.6585 0.0
C1486 C 0.3616 0.36769 0.65579 0.0
C1487 C 0.36219 0.34004 0.65682 0.0
C1488 C 0.3847 0.32668 0.66025 0.0
C1489 C 0.40645 0.34123 0.66267 0.0
C1490 C 0.40635 0.3682 0.6619 0.0
C1491 C 0.43248 0.37907 0.6643 0.0
C1492 C 0.43977 0.39467 0.64042 0.0
C1493 C 0.43508 0.39573 0.68857 0.0
C1494 C 0.4473 0.35396 0.66629 0.0
C1495 C 0.43187 0.3324 0.66541 0.0
C1496 C 0.44117 0.30704 0.66633 0.0
C1497 C 0.46695 0.30359 0.6681 0.0
C1498 C 0.48321 0.32537 0.6689 0.0
C1499 C 0.47314 0.35089 0.66814 0.0
H1500 H 0.82028 0.62527 0.84834 0.0
H1501 H 0.79959 0.61568 0.92776 0.0
H1502 H 0.78903 0.56944 0.91933 0.0
H1503 H 0.7723 0.58418 0.82189 0.0
H1504 H 0.7922 0.5712 0.79725 0.0
H1505 H 0.79756 0.60358 0.80956 0.0
H1506 H 0.843 0.59094 0.82056 0.0
H1507 H 0.83778 0.55853 0.80831 0.0
H1508 H 0.84879 0.56292 0.84046 0.0
H1509 H 0.78149 0.52379 0.90211 0.0
H1510 H 0.77764 0.48269 0.87755 0.0
H1511 H 0.80341 0.52283 0.80969 0.0
C1512 C 0.81343 0.61354 0.86399 0.0
C1513 C 0.81074 0.62412 0.88872 0.0
C1514 C 0.80178 0.60801 0.90864 0.0
C1515 C 0.79573 0.58173 0.90404 0.0
C1516 C 0.79872 0.57191 0.87943 0.0
C1517 C 0.80734 0.58735 0.85975 0.0
C1518 C 0.80925 0.57209 0.83512 0.0
C1519 C 0.79178 0.58344 0.81476 0.0
C1520 C 0.83631 0.57106 0.82557 0.0
C1521 C 0.80048 0.54556 0.844 0.0
C1522 C 0.79443 0.5458 0.8696 0.0
C1523 C 0.78612 0.5234 0.88204 0.0
C1524 C 0.784 0.50016 0.86794 0.0
C1525 C 0.7902 0.49952 0.84169 0.0
C1526 C 0.79846 0.52262 0.82969 0.0
H1527 H 0.33556 0.87103 0.06003 0.0
H1528 H 0.26098 0.84693 0.08146 0.0
H1529 H 0.25093 0.89245 0.09331 0.0
H1530 H 0.34445 0.91479 0.11071 0.0
H1531 H 0.36169 0.93844 0.09244 0.0
H1532 H 0.36227 0.90454 0.08333 0.0
H1533 H 0.34692 0.91674 0.03811 0.0
H1534 H 0.34635 0.95074 0.04706 0.0
H1535 H 0.31872 0.93546 0.03456 0.0
H1536 H 0.24996 0.93983 0.10567 0.0
H1537 H 0.25816 -0.01445 0.11795 0.0
H1538 H 0.33348 0.97873 0.08862 0.0
C1539 C 0.31697 0.87536 0.06681 0.0
C1540 C 0.29901 0.85541 0.06972 0.0
C1541 C 0.27502 0.86188 0.07901 0.0
C1542 C 0.26912 0.8877 0.08574 0.0
C1543 C 0.28738 0.90681 0.083 0.0
C1544 C 0.3108 0.90098 0.0737 0.0
C1545 C 0.32751 0.92481 0.07399 0.0
C1546 C 0.35032 0.92037 0.09114 0.0
C1547 C 0.33533 0.93238 0.04681 0.0
C1548 C 0.30997 0.94485 0.08536 0.0
C1549 C 0.28686 0.93412 0.09023 0.0
C1550 C 0.26791 0.94851 0.10172 0.0
C1551 C 0.27278 0.97447 0.10867 0.0
C1552 C 0.29645 -0.01422 0.10418 0.0
C1553 C 0.31513 0.97077 0.09208 0.0
H1554 H 0.11754 0.97279 0.60726 0.0
H1555 H 0.19163 0.9635 0.63893 0.0
H1556 H 0.20262 0.00774 0.62435 0.0
H1557 H 0.13635 0.01126 0.55118 0.0
H1558 H 0.10907 0.03172 0.55266 0.0
H1559 H 0.10762 -0.00155 0.56373 0.0
H1560 H 0.0916 0.01463 0.60761 0.0
H1561 H 0.09306 0.0479 0.59671 0.0
H1562 H 0.1095 0.0384 0.62513 0.0
H1563 H 0.20454 0.05423 0.60967 0.0
H1564 H 0.19742 0.09943 0.59498 0.0
H1565 H 0.12246 0.07838 0.57211 0.0
C1566 C 0.13621 0.97988 0.61077 0.0
C1567 C 0.15372 0.9646 0.62422 0.0
C1568 C 0.17787 0.97477 0.62865 0.0
C1569 C 0.18433 -0.0001 0.62041 0.0
C1570 C 0.16652 0.0146 0.6076 0.0
C1571 C 0.143 0.00494 0.60263 0.0
C1572 C 0.12698 0.02524 0.58954 0.0
C1573 C 0.11958 0.01612 0.56268 0.0
C1574 C 0.10393 0.03193 0.60572 0.0
C1575 C 0.145 0.04797 0.58843 0.0
C1576 C 0.16774 0.04138 0.59883 0.0
C1577 C 0.18692 0.05954 0.60118 0.0
C1578 C 0.18268 0.08518 0.59284 0.0
C1579 C 0.15946 0.09241 0.58223 0.0
C1580 C 0.14054 0.07339 0.57977 0.0
H1581 H 0.67506 0.36912 0.39118 0.0
H1582 H 0.64274 0.34799 0.31817 0.0
H1583 H 0.64339 0.39413 0.30523 0.0
H1584 H 0.64244 0.42962 0.39935 0.0
H1585 H 0.66846 0.44681 0.41307 0.0
H1586 H 0.66584 0.41195 0.41687 0.0
H1587 H 0.70967 0.40579 0.39716 0.0
H1588 H 0.71247 0.44064 0.3934 0.0
H1589 H 0.71631 0.4194 0.36624 0.0
H1590 H 0.64547 0.44212 0.30067 0.0
H1591 H 0.65177 0.4896 0.30336 0.0
H1592 H 0.68458 0.48061 0.37844 0.0
C1593 C 0.66823 0.37422 0.37244 0.0
C1594 C 0.65879 0.3549 0.35571 0.0
C1595 C 0.65011 0.36236 0.33132 0.0
C1596 C 0.65033 0.38855 0.32378 0.0
C1597 C 0.65952 0.4071 0.34074 0.0
C1598 C 0.66857 0.40035 0.36445 0.0
C1599 C 0.67764 0.42431 0.37878 0.0
C1600 C 0.6627 0.42841 0.40348 0.0
C1601 C 0.70569 0.42242 0.38421 0.0
C1602 C 0.67205 0.44553 0.35946 0.0
C1603 C 0.66144 0.43506 0.33776 0.0
C1604 C 0.65393 0.45058 0.31747 0.0
C1605 C 0.65751 0.47757 0.31926 0.0
C1606 C 0.66873 0.48886 0.34109 0.0
C1607 C 0.67612 0.47254 0.36145 0.0
loop_
_geom_bond_atom_site_label_1
_geom_bond_atom_site_label_2
_geom_bond_distance
_geom_bond_site_symmetry_2
_ccdc_geom_bond_type
C0 O1 1.160 . S
C0 O7 1.185 . S
O1 C0 1.160 . S
O2 Zn3 1.899 . S
O2 C10 1.284 . S
Zn3 O2 1.899 . S
Zn3 O4 2.032 . S
Zn3 O7 2.086 . S
Zn3 O12 1.977 . S
O4 Zn3 2.032 . S
O4 C8 1.278 . S
C5 O6 1.203 . S
C5 O12 1.267 . S
O6 C5 1.203 . S
O7 C0 1.185 . S
O7 Zn3 2.086 . S
C8 O4 1.278 . S
C8 O9 1.211 . S
O9 C8 1.211 . S
C10 O2 1.284 . S
C10 O11 1.273 . S
O11 C10 1.273 . S
O12 Zn3 1.977 . S
O12 C5 1.267 . S
C13 O14 1.160 . S
C13 O20 1.185 . S
O14 C13 1.160 . S
O15 Zn16 1.899 . S
O15 C23 1.284 . S
Zn16 O15 1.899 . S
Zn16 O17 2.032 . S
Zn16 O20 2.086 . S
Zn16 O25 1.977 . S
O17 Zn16 2.032 . S
O17 C21 1.278 . S
C18 O19 1.203 . S
C18 O25 1.267 . S
O19 C18 1.203 . S
O20 C13 1.185 . S
O20 Zn16 2.086 . S
C21 O17 1.278 . S
C21 O22 1.211 . S
O22 C21 1.211 . S
C23 O15 1.284 . S
C23 O24 1.273 . S
O24 C23 1.273 . S
O25 Zn16 1.977 . S
O25 C18 1.267 . S
C26 O27 1.160 . S
C26 O33 1.185 . S
O27 C26 1.160 . S
O28 Zn29 1.899 . S
O28 C36 1.284 . S
Zn29 O28 1.899 . S
Zn29 O30 2.032 . S
Zn29 O33 2.086 . S
Zn29 O38 1.977 . S
O30 Zn29 2.032 . S
O30 C34 1.278 . S
C31 O32 1.203 . S
C31 O38 1.267 . S
O32 C31 1.203 . S
O33 C26 1.185 . S
O33 Zn29 2.086 . S
C34 O30 1.278 . S
C34 O35 1.211 . S
O35 C34 1.211 . S
C36 O28 1.284 . S
C36 O37 1.273 . S
O37 C36 1.273 . S
O38 Zn29 1.977 . S
O38 C31 1.267 . S
C39 O40 1.160 . S
C39 O46 1.185 . S
O40 C39 1.160 . S
O41 Zn42 1.899 . S
O41 C49 1.284 . S
Zn42 O41 1.899 . S
Zn42 O43 2.032 . S
Zn42 O46 2.086 . S
Zn42 O51 1.977 . S
O43 Zn42 2.032 . S
O43 C47 1.278 . S
C44 O45 1.203 . S
C44 O51 1.267 . S
O45 C44 1.203 . S
O46 C39 1.185 . S
O46 Zn42 2.086 . S
C47 O43 1.278 . S
C47 O48 1.211 . S
O48 C47 1.211 . S
C49 O41 1.284 . S
C49 O50 1.273 . S
O50 C49 1.273 . S
O51 Zn42 1.977 . S
O51 C44 1.267 . S
C52 O53 1.160 . S
C52 O59 1.185 . S
O53 C52 1.160 . S
O54 Zn55 1.899 . S
O54 C62 1.284 . S
Zn55 O54 1.899 . S
Zn55 O56 2.032 . S
Zn55 O59 2.086 . S
Zn55 O64 1.977 . S
O56 Zn55 2.032 . S
O56 C60 1.278 . S
C57 O58 1.203 . S
C57 O64 1.267 . S
O58 C57 1.203 . S
O59 C52 1.185 . S
O59 Zn55 2.086 . S
C60 O56 1.278 . S
C60 O61 1.211 . S
O61 C60 1.211 . S
C62 O54 1.284 . S
C62 O63 1.273 . S
O63 C62 1.273 . S
O64 Zn55 1.977 . S
O64 C57 1.267 . S
C65 O66 1.160 . S
C65 O72 1.185 . S
O66 C65 1.160 . S
O67 Zn68 1.899 . S
O67 C75 1.284 . S
Zn68 O67 1.899 . S
Zn68 O69 2.032 . S
Zn68 O72 2.086 . S
Zn68 O77 1.977 . S
O69 Zn68 2.032 . S
O69 C73 1.278 . S
C70 O71 1.203 . S
C70 O77 1.267 . S
O71 C70 1.203 . S
O72 C65 1.185 . S
O72 Zn68 2.086 . S
C73 O69 1.278 . S
C73 O74 1.211 . S
O74 C73 1.211 . S
C75 O67 1.284 . S
C75 O76 1.273 . S
O76 C75 1.273 . S
O77 Zn68 1.977 . S
O77 C70 1.267 . S
C78 O79 1.160 . S
C78 O85 1.185 . S
O79 C78 1.160 . S
O80 Zn81 1.899 . S
O80 C88 1.284 . S
Zn81 O80 1.899 . S
Zn81 O82 2.032 . S
Zn81 O85 2.086 . S
Zn81 O90 1.977 . S
O82 Zn81 2.032 . S
O82 C86 1.278 . S
C83 O84 1.203 . S
C83 O90 1.267 . S
O84 C83 1.203 . S
O85 C78 1.185 . S
O85 Zn81 2.086 . S
C86 O82 1.278 . S
C86 O87 1.211 . S
O87 C86 1.211 . S
C88 O80 1.284 . S
C88 O89 1.273 . S
O89 C88 1.273 . S
O90 Zn81 1.977 . S
O90 C83 1.267 . S
C91 O92 1.160 . S
C91 O98 1.185 . S
O92 C91 1.160 . S
O93 Zn94 1.899 . S
O93 C101 1.284 . S
Zn94 O93 1.899 . S
Zn94 O95 2.032 . S
Zn94 O98 2.086 . S
Zn94 O103 1.977 . S
O95 Zn94 2.032 . S
O95 C99 1.278 . S
C96 O97 1.203 . S
C96 O103 1.267 . S
O97 C96 1.203 . S
O98 C91 1.185 . S
O98 Zn94 2.086 . S
C99 O95 1.278 . S
C99 O100 1.211 . S
O100 C99 1.211 . S
C101 O93 1.284 . S
C101 O102 1.273 . S
O102 C101 1.273 . S
O103 Zn94 1.977 . S
O103 C96 1.267 . S
C104 O105 1.160 . S
C104 O111 1.185 . S
O105 C104 1.160 . S
O106 Zn107 1.899 . S
O106 C114 1.284 . S
Zn107 O106 1.899 . S
Zn107 O108 2.032 . S
Zn107 O111 2.086 . S
Zn107 O116 1.977 . S
O108 Zn107 2.032 . S
O108 C112 1.278 . S
C109 O110 1.203 . S
C109 O116 1.267 . S
O110 C109 1.203 . S
O111 C104 1.185 . S
O111 Zn107 2.086 . S
C112 O108 1.278 . S
C112 O113 1.211 . S
O113 C112 1.211 . S
C114 O106 1.284 . S
C114 O115 1.273 . S
O115 C114 1.273 . S
O116 Zn107 1.977 . S
O116 C109 1.267 . S
C117 O118 1.160 . S
C117 O124 1.185 . S
O118 C117 1.160 . S
O119 Zn120 1.899 . S
O119 C127 1.284 . S
Zn120 O119 1.899 . S
Zn120 O121 2.032 . S
Zn120 O124 2.086 . S
Zn120 O129 1.977 . S
O121 Zn120 2.032 . S
O121 C125 1.278 . S
C122 O123 1.203 . S
C122 O129 1.267 . S
O123 C122 1.203 . S
O124 C117 1.185 . S
O124 Zn120 2.086 . S
C125 O121 1.278 . S
C125 O126 1.211 . S
O126 C125 1.211 . S
C127 O119 1.284 . S
C127 O128 1.273 . S
O128 C127 1.273 . S
O129 Zn120 1.977 . S
O129 C122 1.267 . S
C130 O131 1.160 . S
C130 O137 1.185 . S
O131 C130 1.160 . S
O132 Zn133 1.899 . S
O132 C140 1.284 . S
Zn133 O132 1.899 . S
Zn133 O134 2.032 . S
Zn133 O137 2.086 . S
Zn133 O142 1.977 . S
O134 Zn133 2.032 . S
O134 C138 1.278 . S
C135 O136 1.203 . S
C135 O142 1.267 . S
O136 C135 1.203 . S
O137 C130 1.185 . S
O137 Zn133 2.086 . S
C138 O134 1.278 . S
C138 O139 1.211 . S
O139 C138 1.211 . S
C140 O132 1.284 . S
C140 O141 1.273 . S
O141 C140 1.273 . S
O142 Zn133 1.977 . S
O142 C135 1.267 . S
C143 O144 1.160 . S
C143 O150 1.185 . S
O144 C143 1.160 . S
O145 Zn146 1.899 . S
O145 C153 1.284 . S
Zn146 O145 1.899 . S
Zn146 O147 2.032 . S
Zn146 O150 2.086 . S
Zn146 O155 1.977 . S
O147 Zn146 2.032 . S
O147 C151 1.278 . S
C148 O149 1.203 . S
C148 O155 1.267 . S
O149 C148 1.203 . S
O150 C143 1.185 . S
O150 Zn146 2.086 . S
C151 O147 1.278 . S
C151 O152 1.211 . S
O152 C151 1.211 . S
C153 O145 1.284 . S
C153 O154 1.273 . S
O154 C153 1.273 . S
O155 Zn146 1.977 . S
O155 C148 1.267 . S
C156 O157 1.160 . S
C156 O163 1.185 . S
O157 C156 1.160 . S
O158 Zn159 1.899 . S
O158 C166 1.284 . S
Zn159 O158 1.899 . S
Zn159 O160 2.032 . S
Zn159 O163 2.086 . S
Zn159 O168 1.977 . S
O160 Zn159 2.032 . S
O160 C164 1.278 . S
C161 O162 1.203 . S
C161 O168 1.267 . S
O162 C161 1.203 . S
O163 C156 1.185 . S
O163 Zn159 2.086 . S
C164 O160 1.278 . S
C164 O165 1.211 . S
O165 C164 1.211 . S
C166 O158 1.284 . S
C166 O167 1.273 . S
O167 C166 1.273 . S
O168 Zn159 1.977 . S
O168 C161 1.267 . S
C169 O170 1.160 . S
C169 O176 1.185 . S
O170 C169 1.160 . S
O171 Zn172 1.899 . S
O171 C179 1.284 . S
Zn172 O171 1.899 . S
Zn172 O173 2.032 . S
Zn172 O176 2.086 . S
Zn172 O181 1.977 . S
O173 Zn172 2.032 . S
O173 C177 1.278 . S
C174 O175 1.203 . S
C174 O181 1.267 . S
O175 C174 1.203 . S
O176 C169 1.185 . S
O176 Zn172 2.086 . S
C177 O173 1.278 . S
C177 O178 1.211 . S
O178 C177 1.211 . S
C179 O171 1.284 . S
C179 O180 1.273 . S
O180 C179 1.273 . S
O181 Zn172 1.977 . S
O181 C174 1.267 . S
C182 O183 1.160 . S
C182 O189 1.185 . S
O183 C182 1.160 . S
O184 Zn185 1.899 . S
O184 C192 1.284 . S
Zn185 O184 1.899 . S
Zn185 O186 2.032 . S
Zn185 O189 2.086 . S
Zn185 O194 1.977 . S
O186 Zn185 2.032 . S
O186 C190 1.278 . S
C187 O188 1.203 . S
C187 O194 1.267 . S
O188 C187 1.203 . S
O189 C182 1.185 . S
O189 Zn185 2.086 . S
C190 O186 1.278 . S
C190 O191 1.211 . S
O191 C190 1.211 . S
C192 O184 1.284 . S
C192 O193 1.273 . S
O193 C192 1.273 . S
O194 Zn185 1.977 . S
O194 C187 1.267 . S
C195 O196 1.160 . S
C195 O202 1.185 . S
O196 C195 1.160 . S
O197 Zn198 1.899 . S
O197 C205 1.284 . S
Zn198 O197 1.899 . S
Zn198 O199 2.032 . S
Zn198 O202 2.086 . S
Zn198 O207 1.977 . S
O199 Zn198 2.032 . S
O199 C203 1.278 . S
C200 O201 1.203 . S
C200 O207 1.267 . S
O201 C200 1.203 . S
O202 C195 1.185 . S
O202 Zn198 2.086 . S
C203 O199 1.278 . S
C203 O204 1.211 . S
O204 C203 1.211 . S
C205 O197 1.284 . S
C205 O206 1.273 . S
O206 C205 1.273 . S
O207 Zn198 1.977 . S
O207 C200 1.267 . S
C208 O209 1.160 . S
C208 O215 1.185 . S
O209 C208 1.160 . S
O210 Zn211 1.899 . S
O210 C218 1.284 . S
Zn211 O210 1.899 . S
Zn211 O212 2.032 . S
Zn211 O215 2.086 . S
Zn211 O220 1.977 . S
O212 Zn211 2.032 . S
O212 C216 1.278 . S
C213 O214 1.203 . S
C213 O220 1.267 . S
O214 C213 1.203 . S
O215 C208 1.185 . S
O215 Zn211 2.086 . S
C216 O212 1.278 . S
C216 O217 1.211 . S
O217 C216 1.211 . S
C218 O210 1.284 . S
C218 O219 1.273 . S
O219 C218 1.273 . S
O220 Zn211 1.977 . S
O220 C213 1.267 . S
C221 O222 1.160 . S
C221 O228 1.185 . S
O222 C221 1.160 . S
O223 Zn224 1.899 . S
O223 C231 1.284 . S
Zn224 O223 1.899 . S
Zn224 O225 2.032 . S
Zn224 O228 2.086 . S
Zn224 O233 1.977 . S
O225 Zn224 2.032 . S
O225 C229 1.278 . S
C226 O227 1.203 . S
C226 O233 1.267 . S
O227 C226 1.203 . S
O228 C221 1.185 . S
O228 Zn224 2.086 . S
C229 O225 1.278 . S
C229 O230 1.211 . S
O230 C229 1.211 . S
C231 O223 1.284 . S
C231 O232 1.273 . S
O232 C231 1.273 . S
O233 Zn224 1.977 . S
O233 C226 1.267 . S
C234 O235 1.160 . S
C234 O241 1.185 . S
O235 C234 1.160 . S
O236 Zn237 1.899 . S
O236 C244 1.284 . S
Zn237 O236 1.899 . S
Zn237 O238 2.032 . S
Zn237 O241 2.086 . S
Zn237 O246 1.977 . S
O238 Zn237 2.032 . S
O238 C242 1.278 . S
C239 O240 1.203 . S
C239 O246 1.267 . S
O240 C239 1.203 . S
O241 C234 1.185 . S
O241 Zn237 2.086 . S
C242 O238 1.278 . S
C242 O243 1.211 . S
O243 C242 1.211 . S
C244 O236 1.284 . S
C244 O245 1.273 . S
O245 C244 1.273 . S
O246 Zn237 1.977 . S
O246 C239 1.267 . S
C247 O248 1.160 . S
C247 O254 1.185 . S
O248 C247 1.160 . S
O249 Zn250 1.899 . S
O249 C257 1.284 . S
Zn250 O249 1.899 . S
Zn250 O251 2.032 . S
Zn250 O254 2.086 . S
Zn250 O259 1.977 . S
O251 Zn250 2.032 . S
O251 C255 1.278 . S
C252 O253 1.203 . S
C252 O259 1.267 . S
O253 C252 1.203 . S
O254 C247 1.185 . S
O254 Zn250 2.086 . S
C255 O251 1.278 . S
C255 O256 1.211 . S
O256 C255 1.211 . S
C257 O249 1.284 . S
C257 O258 1.273 . S
O258 C257 1.273 . S
O259 Zn250 1.977 . S
O259 C252 1.267 . S
C260 O261 1.160 . S
C260 O267 1.185 . S
O261 C260 1.160 . S
O262 Zn263 1.899 . S
O262 C270 1.284 . S
Zn263 O262 1.899 . S
Zn263 O264 2.032 . S
Zn263 O267 2.086 . S
Zn263 O272 1.977 . S
O264 Zn263 2.032 . S
O264 C268 1.278 . S
C265 O266 1.203 . S
C265 O272 1.267 . S
O266 C265 1.203 . S
O267 C260 1.185 . S
O267 Zn263 2.086 . S
C268 O264 1.278 . S
C268 O269 1.211 . S
O269 C268 1.211 . S
C270 O262 1.284 . S
C270 O271 1.273 . S
O271 C270 1.273 . S
O272 Zn263 1.977 . S
O272 C265 1.267 . S
C273 O274 1.160 . S
C273 O280 1.185 . S
O274 C273 1.160 . S
O275 Zn276 1.899 . S
O275 C283 1.284 . S
Zn276 O275 1.899 . S
Zn276 O277 2.032 . S
Zn276 O280 2.086 . S
Zn276 O285 1.977 . S
O277 Zn276 2.032 . S
O277 C281 1.278 . S
C278 O279 1.203 . S
C278 O285 1.267 . S
O279 C278 1.203 . S
O280 C273 1.185 . S
O280 Zn276 2.086 . S
C281 O277 1.278 . S
C281 O282 1.211 . S
O282 C281 1.211 . S
C283 O275 1.284 . S
C283 O284 1.273 . S
O284 C283 1.273 . S
O285 Zn276 1.977 . S
O285 C278 1.267 . S
C286 O287 1.160 . S
C286 O293 1.185 . S
O287 C286 1.160 . S
O288 Zn289 1.899 . S
O288 C296 1.284 . S
Zn289 O288 1.899 . S
Zn289 O290 2.032 . S
Zn289 O293 2.086 . S
Zn289 O298 1.977 . S
O290 Zn289 2.032 . S
O290 C294 1.278 . S
C291 O292 1.203 . S
C291 O298 1.267 . S
O292 C291 1.203 . S
O293 C286 1.185 . S
O293 Zn289 2.086 . S
C294 O290 1.278 . S
C294 O295 1.211 . S
O295 C294 1.211 . S
C296 O288 1.284 . S
C296 O297 1.273 . S
O297 C296 1.273 . S
O298 Zn289 1.977 . S
O298 C291 1.267 . S
C299 O300 1.160 . S
C299 O306 1.185 . S
O300 C299 1.160 . S
O301 Zn302 1.899 . S
O301 C309 1.284 . S
Zn302 O301 1.899 . S
Zn302 O303 2.032 . S
Zn302 O306 2.086 . S
Zn302 O311 1.977 . S
O303 Zn302 2.032 . S
O303 C307 1.278 . S
C304 O305 1.203 . S
C304 O311 1.267 . S
O305 C304 1.203 . S
O306 C299 1.185 . S
O306 Zn302 2.086 . S
C307 O303 1.278 . S
C307 O308 1.211 . S
O308 C307 1.211 . S
C309 O301 1.284 . S
C309 O310 1.273 . S
O310 C309 1.273 . S
O311 Zn302 1.977 . S
O311 C304 1.267 . S
H312 C324 0.930 . S
H313 C326 0.930 . S
H314 C327 0.930 . S
H315 C331 0.959 . S
H316 C331 0.959 . S
H317 C331 0.961 . S
H318 C332 0.960 . S
H319 C332 0.961 . S
H320 C332 0.959 . S
H321 C335 0.929 . S
H322 C336 0.931 . S
H323 C338 0.930 . S
C324 H312 0.930 . S
C324 C325 1.399 . S
C324 C329 1.399 . S
C325 C324 1.399 . S
C325 C326 1.376 . S
C326 H313 0.930 . S
C326 C325 1.376 . S
C326 C327 1.388 . S
C327 H314 0.930 . S
C327 C326 1.388 . S
C327 C328 1.390 . S
C328 C327 1.390 . S
C328 C329 1.394 . S
C328 C334 1.465 . S
C329 C324 1.399 . S
C329 C328 1.394 . S
C329 C330 1.516 . S
C330 C329 1.516 . S
C330 C331 1.502 . S
C330 C332 1.561 . S
C330 C333 1.526 . S
C331 H315 0.959 . S
C331 H316 0.959 . S
C331 H317 0.961 . S
C331 C330 1.502 . S
C332 H318 0.960 . S
C332 H319 0.961 . S
C332 H320 0.959 . S
C332 C330 1.561 . S
C333 C330 1.526 . S
C333 C334 1.396 . S
C333 C338 1.390 . S
C334 C328 1.465 . S
C334 C333 1.396 . S
C334 C335 1.399 . S
C335 H321 0.929 . S
C335 C334 1.399 . S
C335 C336 1.385 . S
C336 H322 0.931 . S
C336 C335 1.385 . S
C336 C337 1.389 . S
C337 C336 1.389 . S
C337 C338 1.387 . S
C338 H323 0.930 . S
C338 C333 1.390 . S
C338 C337 1.387 . S
H339 C351 0.930 . S
H340 C353 0.930 . S
H341 C354 0.930 . S
H342 C358 0.959 . S
H343 C358 0.959 . S
H344 C358 0.961 . S
H345 C359 0.960 . S
H346 C359 0.961 . S
H347 C359 0.959 . S
H348 C362 0.929 . S
H349 C363 0.931 . S
H350 C365 0.930 . S
C351 H339 0.930 . S
C351 C352 1.399 . S
C351 C356 1.399 . S
C352 C351 1.399 . S
C352 C353 1.376 . S
C353 H340 0.930 . S
C353 C352 1.376 . S
C353 C354 1.388 . S
C354 H341 0.930 . S
C354 C353 1.388 . S
C354 C355 1.390 . S
C355 C354 1.390 . S
C355 C356 1.394 . S
C355 C361 1.465 . S
C356 C351 1.399 . S
C356 C355 1.394 . S
C356 C357 1.516 . S
C357 C356 1.516 . S
C357 C358 1.502 . S
C357 C359 1.561 . S
C357 C360 1.526 . S
C358 H342 0.959 . S
C358 H343 0.959 . S
C358 H344 0.961 . S
C358 C357 1.502 . S
C359 H345 0.960 . S
C359 H346 0.961 . S
C359 H347 0.959 . S
C359 C357 1.561 . S
C360 C357 1.526 . S
C360 C361 1.396 . S
C360 C365 1.390 . S
C361 C355 1.465 . S
C361 C360 1.396 . S
C361 C362 1.399 . S
C362 H348 0.929 . S
C362 C361 1.399 . S
C362 C363 1.385 . S
C363 H349 0.931 . S
C363 C362 1.385 . S
C363 C364 1.389 . S
C364 C363 1.389 . S
C364 C365 1.387 . S
C365 H350 0.930 . S
C365 C360 1.390 . S
C365 C364 1.387 . S
H366 C378 0.930 . S
H367 C380 0.930 . S
H368 C381 0.930 . S
H369 C385 0.959 . S
H370 C385 0.959 . S
H371 C385 0.961 . S
H372 C386 0.960 . S
H373 C386 0.961 . S
H374 C386 0.959 . S
H375 C389 0.929 . S
H376 C390 0.931 . S
H377 C392 0.930 . S
C378 H366 0.930 . S
C378 C379 1.399 . S
C378 C383 1.399 . S
C379 C378 1.399 . S
C379 C380 1.376 . S
C380 H367 0.930 . S
C380 C379 1.376 . S
C380 C381 1.388 . S
C381 H368 0.930 . S
C381 C380 1.388 . S
C381 C382 1.390 . S
C382 C381 1.390 . S
C382 C383 1.394 . S
C382 C388 1.465 . S
C383 C378 1.399 . S
C383 C382 1.394 . S
C383 C384 1.516 . S
C384 C383 1.516 . S
C384 C385 1.502 . S
C384 C386 1.561 . S
C384 C387 1.526 . S
C385 H369 0.959 . S
C385 H370 0.959 . S
C385 H371 0.961 . S
C385 C384 1.502 . S
C386 H372 0.960 . S
C386 H373 0.961 . S
C386 H374 0.959 . S
C386 C384 1.561 . S
C387 C384 1.526 . S
C387 C388 1.396 . S
C387 C392 1.390 . S
C388 C382 1.465 . S
C388 C387 1.396 . S
C388 C389 1.399 . S
C389 H375 0.929 . S
C389 C388 1.399 . S
C389 C390 1.385 . S
C390 H376 0.931 . S
C390 C389 1.385 . S
C390 C391 1.389 . S
C391 C390 1.389 . S
C391 C392 1.387 . S
C392 H377 0.930 . S
C392 C387 1.390 . S
C392 C391 1.387 . S
H393 C405 0.930 . S
H394 C407 0.930 . S
H395 C408 0.930 . S
H396 C412 0.959 . S
H397 C412 0.959 . S
H398 C412 0.961 . S
H399 C413 0.960 . S
H400 C413 0.961 . S
H401 C413 0.959 . S
H402 C416 0.929 . S
H403 C417 0.931 . S
H404 C419 0.930 . S
C405 H393 0.930 . S
C405 C406 1.399 . S
C405 C410 1.399 . S
C406 C405 1.399 . S
C406 C407 1.376 . S
C407 H394 0.930 . S
C407 C406 1.376 . S
C407 C408 1.388 . S
C408 H395 0.930 . S
C408 C407 1.388 . S
C408 C409 1.390 . S
C409 C408 1.390 . S
C409 C410 1.394 . S
C409 C415 1.465 . S
C410 C405 1.399 . S
C410 C409 1.394 . S
C410 C411 1.516 . S
C411 C410 1.516 . S
C411 C412 1.502 . S
C411 C413 1.561 . S
C411 C414 1.526 . S
C412 H396 0.959 . S
C412 H397 0.959 . S
C412 H398 0.961 . S
C412 C411 1.502 . S
C413 H399 0.960 . S
C413 H400 0.961 . S
C413 H401 0.959 . S
C413 C411 1.561 . S
C414 C411 1.526 . S
C414 C415 1.396 . S
C414 C419 1.390 . S
C415 C409 1.465 . S
C415 C414 1.396 . S
C415 C416 1.399 . S
C416 H402 0.929 . S
C416 C415 1.399 . S
C416 C417 1.385 . S
C417 H403 0.931 . S
C417 C416 1.385 . S
C417 C418 1.389 . S
C418 C417 1.389 . S
C418 C419 1.387 . S
C419 H404 0.930 . S
C419 C414 1.390 . S
C419 C418 1.387 . S
H420 C432 0.930 . S
H421 C434 0.930 . S
H422 C435 0.930 . S
H423 C439 0.959 . S
H424 C439 0.959 . S
H425 C439 0.961 . S
H426 C440 0.960 . S
H427 C440 0.961 . S
H428 C440 0.959 . S
H429 C443 0.929 . S
H430 C444 0.931 . S
H431 C446 0.930 . S
C432 H420 0.930 . S
C432 C433 1.399 . S
C432 C437 1.399 . S
C433 C432 1.399 . S
C433 C434 1.376 . S
C434 H421 0.930 . S
C434 C433 1.376 . S
C434 C435 1.388 . S
C435 H422 0.930 . S
C435 C434 1.388 . S
C435 C436 1.390 . S
C436 C435 1.390 . S
C436 C437 1.394 . S
C436 C442 1.465 . S
C437 C432 1.399 . S
C437 C436 1.394 . S
C437 C438 1.516 . S
C438 C437 1.516 . S
C438 C439 1.502 . S
C438 C440 1.561 . S
C438 C441 1.526 . S
C439 H423 0.959 . S
C439 H424 0.959 . S
C439 H425 0.961 . S
C439 C438 1.502 . S
C440 H426 0.960 . S
C440 H427 0.961 . S
C440 H428 0.959 . S
C440 C438 1.561 . S
C441 C438 1.526 . S
C441 C442 1.396 . S
C441 C446 1.390 . S
C442 C436 1.465 . S
C442 C441 1.396 . S
C442 C443 1.399 . S
C443 H429 0.929 . S
C443 C442 1.399 . S
C443 C444 1.385 . S
C444 H430 0.931 . S
C444 C443 1.385 . S
C444 C445 1.389 . S
C445 C444 1.389 . S
C445 C446 1.387 . S
C446 H431 0.930 . S
C446 C441 1.390 . S
C446 C445 1.387 . S
H447 C459 0.930 . S
H448 C461 0.930 . S
H449 C462 0.930 . S
H450 C466 0.959 . S
H451 C466 0.959 . S
H452 C466 0.961 . S
H453 C467 0.960 . S
H454 C467 0.961 . S
H455 C467 0.959 . S
H456 C470 0.929 . S
H457 C471 0.931 . S
H458 C473 0.930 . S
C459 H447 0.930 . S
C459 C460 1.399 . S
C459 C464 1.399 . S
C460 C459 1.399 . S
C460 C461 1.376 . S
C461 H448 0.930 . S
C461 C460 1.376 . S
C461 C462 1.388 . S
C462 H449 0.930 . S
C462 C461 1.388 . S
C462 C463 1.390 . S
C463 C462 1.390 . S
C463 C464 1.394 . S
C463 C469 1.465 . S
C464 C459 1.399 . S
C464 C463 1.394 . S
C464 C465 1.516 . S
C465 C464 1.516 . S
C465 C466 1.502 . S
C465 C467 1.561 . S
C465 C468 1.526 . S
C466 H450 0.959 . S
C466 H451 0.959 . S
C466 H452 0.961 . S
C466 C465 1.502 . S
C467 H453 0.960 . S
C467 H454 0.961 . S
C467 H455 0.959 . S
C467 C465 1.561 . S
C468 C465 1.526 . S
C468 C469 1.396 . S
C468 C473 1.390 . S
C469 C463 1.465 . S
C469 C468 1.396 . S
C469 C470 1.399 . S
C470 H456 0.929 . S
C470 C469 1.399 . S
C470 C471 1.385 . S
C471 H457 0.931 . S
C471 C470 1.385 . S
C471 C472 1.389 . S
C472 C471 1.389 . S
C472 C473 1.387 . S
C473 H458 0.930 . S
C473 C468 1.390 . S
C473 C472 1.387 . S
H474 C486 0.930 . S
H475 C488 0.930 . S
H476 C489 0.930 . S
H477 C493 0.959 . S
H478 C493 0.959 . S
H479 C493 0.961 . S
H480 C494 0.960 . S
H481 C494 0.961 . S
H482 C494 0.959 . S
H483 C497 0.929 . S
H484 C498 0.931 . S
H485 C500 0.930 . S
C486 H474 0.930 . S
C486 C487 1.399 . S
C486 C491 1.399 . S
C487 C486 1.399 . S
C487 C488 1.376 . S
C488 H475 0.930 . S
C488 C487 1.376 . S
C488 C489 1.388 . S
C489 H476 0.930 . S
C489 C488 1.388 . S
C489 C490 1.390 . S
C490 C489 1.390 . S
C490 C491 1.394 . S
C490 C496 1.465 . S
C491 C486 1.399 . S
C491 C490 1.394 . S
C491 C492 1.516 . S
C492 C491 1.516 . S
C492 C493 1.502 . S
C492 C494 1.561 . S
C492 C495 1.526 . S
C493 H477 0.959 . S
C493 H478 0.959 . S
C493 H479 0.961 . S
C493 C492 1.502 . S
C494 H480 0.960 . S
C494 H481 0.961 . S
C494 H482 0.959 . S
C494 C492 1.561 . S
C495 C492 1.526 . S
C495 C496 1.396 . S
C495 C500 1.390 . S
C496 C490 1.465 . S
C496 C495 1.396 . S
C496 C497 1.399 . S
C497 H483 0.929 . S
C497 C496 1.399 . S
C497 C498 1.385 . S
C498 H484 0.931 . S
C498 C497 1.385 . S
C498 C499 1.389 . S
C499 C498 1.389 . S
C499 C500 1.387 . S
C500 H485 0.930 . S
C500 C495 1.390 . S
C500 C499 1.387 . S
H501 C513 0.930 . S
H502 C515 0.930 . S
H503 C516 0.930 . S
H504 C520 0.959 . S
H505 C520 0.959 . S
H506 C520 0.961 . S
H507 C521 0.960 . S
H508 C521 0.961 . S
H509 C521 0.959 . S
H510 C524 0.929 . S
H511 C525 0.931 . S
H512 C527 0.930 . S
C513 H501 0.930 . S
C513 C514 1.399 . S
C513 C518 1.399 . S
C514 C513 1.399 . S
C514 C515 1.376 . S
C515 H502 0.930 . S
C515 C514 1.376 . S
C515 C516 1.388 . S
C516 H503 0.930 . S
C516 C515 1.388 . S
C516 C517 1.390 . S
C517 C516 1.390 . S
C517 C518 1.394 . S
C517 C523 1.465 . S
C518 C513 1.399 . S
C518 C517 1.394 . S
C518 C519 1.516 . S
C519 C518 1.516 . S
C519 C520 1.502 . S
C519 C521 1.561 . S
C519 C522 1.526 . S
C520 H504 0.959 . S
C520 H505 0.959 . S
C520 H506 0.961 . S
C520 C519 1.502 . S
C521 H507 0.960 . S
C521 H508 0.961 . S
C521 H509 0.959 . S
C521 C519 1.561 . S
C522 C519 1.526 . S
C522 C523 1.396 . S
C522 C527 1.390 . S
C523 C517 1.465 . S
C523 C522 1.396 . S
C523 C524 1.399 . S
C524 H510 0.929 . S
C524 C523 1.399 . S
C524 C525 1.385 . S
C525 H511 0.931 . S
C525 C524 1.385 . S
C525 C526 1.389 . S
C526 C525 1.389 . S
C526 C527 1.387 . S
C527 H512 0.930 . S
C527 C522 1.390 . S
C527 C526 1.387 . S
H528 C540 0.930 . S
H529 C542 0.930 . S
H530 C543 0.930 . S
H531 C547 0.959 . S
H532 C547 0.959 . S
H533 C547 0.961 . S
H534 C548 0.960 . S
H535 C548 0.961 . S
H536 C548 0.959 . S
H537 C551 0.929 . S
H538 C552 0.931 . S
H539 C554 0.930 . S
C540 H528 0.930 . S
C540 C541 1.399 . S
C540 C545 1.399 . S
C541 C540 1.399 . S
C541 C542 1.376 . S
C542 H529 0.930 . S
C542 C541 1.376 . S
C542 C543 1.388 . S
C543 H530 0.930 . S
C543 C542 1.388 . S
C543 C544 1.390 . S
C544 C543 1.390 . S
C544 C545 1.394 . S
C544 C550 1.465 . S
C545 C540 1.399 . S
C545 C544 1.394 . S
C545 C546 1.516 . S
C546 C545 1.516 . S
C546 C547 1.502 . S
C546 C548 1.561 . S
C546 C549 1.526 . S
C547 H531 0.959 . S
C547 H532 0.959 . S
C547 H533 0.961 . S
C547 C546 1.502 . S
C548 H534 0.960 . S
C548 H535 0.961 . S
C548 H536 0.959 . S
C548 C546 1.561 . S
C549 C546 1.526 . S
C549 C550 1.396 . S
C549 C554 1.390 . S
C550 C544 1.465 . S
C550 C549 1.396 . S
C550 C551 1.399 . S
C551 H537 0.929 . S
C551 C550 1.399 . S
C551 C552 1.385 . S
C552 H538 0.931 . S
C552 C551 1.385 . S
C552 C553 1.389 . S
C553 C552 1.389 . S
C553 C554 1.387 . S
C554 H539 0.930 . S
C554 C549 1.390 . S
C554 C553 1.387 . S
H555 C567 0.930 . S
H556 C569 0.930 . S
H557 C570 0.930 . S
H558 C574 0.959 . S
H559 C574 0.959 . S
H560 C574 0.961 . S
H561 C575 0.960 . S
H562 C575 0.961 . S
H563 C575 0.959 . S
H564 C578 0.929 . S
H565 C579 0.931 . S
H566 C581 0.930 . S
C567 H555 0.930 . S
C567 C568 1.399 . S
C567 C572 1.399 . S
C568 C567 1.399 . S
C568 C569 1.376 . S
C569 H556 0.930 . S
C569 C568 1.376 . S
C569 C570 1.388 . S
C570 H557 0.930 . S
C570 C569 1.388 . S
C570 C571 1.390 . S
C571 C570 1.390 . S
C571 C572 1.394 . S
C571 C577 1.465 . S
C572 C567 1.399 . S
C572 C571 1.394 . S
C572 C573 1.516 . S
C573 C572 1.516 . S
C573 C574 1.502 . S
C573 C575 1.561 . S
C573 C576 1.526 . S
C574 H558 0.959 . S
C574 H559 0.959 . S
C574 H560 0.961 . S
C574 C573 1.502 . S
C575 H561 0.960 . S
C575 H562 0.961 . S
C575 H563 0.959 . S
C575 C573 1.561 . S
C576 C573 1.526 . S
C576 C577 1.396 . S
C576 C581 1.390 . S
C577 C571 1.465 . S
C577 C576 1.396 . S
C577 C578 1.399 . S
C578 H564 0.929 . S
C578 C577 1.399 . S
C578 C579 1.385 . S
C579 H565 0.931 . S
C579 C578 1.385 . S
C579 C580 1.389 . S
C580 C579 1.389 . S
C580 C581 1.387 . S
C581 H566 0.930 . S
C581 C576 1.390 . S
C581 C580 1.387 . S
H582 C594 0.930 . S
H583 C596 0.930 . S
H584 C597 0.930 . S
H585 C601 0.959 . S
H586 C601 0.959 . S
H587 C601 0.961 . S
H588 C602 0.960 . S
H589 C602 0.961 . S
H590 C602 0.959 . S
H591 C605 0.929 . S
H592 C606 0.931 . S
H593 C608 0.930 . S
C594 H582 0.930 . S
C594 C595 1.399 . S
C594 C599 1.399 . S
C595 C594 1.399 . S
C595 C596 1.376 . S
C596 H583 0.930 . S
C596 C595 1.376 . S
C596 C597 1.388 . S
C597 H584 0.930 . S
C597 C596 1.388 . S
C597 C598 1.390 . S
C598 C597 1.390 . S
C598 C599 1.394 . S
C598 C604 1.465 . S
C599 C594 1.399 . S
C599 C598 1.394 . S
C599 C600 1.516 . S
C600 C599 1.516 . S
C600 C601 1.502 . S
C600 C602 1.561 . S
C600 C603 1.526 . S
C601 H585 0.959 . S
C601 H586 0.959 . S
C601 H587 0.961 . S
C601 C600 1.502 . S
C602 H588 0.960 . S
C602 H589 0.961 . S
C602 H590 0.959 . S
C602 C600 1.561 . S
C603 C600 1.526 . S
C603 C604 1.396 . S
C603 C608 1.390 . S
C604 C598 1.465 . S
C604 C603 1.396 . S
C604 C605 1.399 . S
C605 H591 0.929 . S
C605 C604 1.399 . S
C605 C606 1.385 . S
C606 H592 0.931 . S
C606 C605 1.385 . S
C606 C607 1.389 . S
C607 C606 1.389 . S
C607 C608 1.387 . S
C608 H593 0.930 . S
C608 C603 1.390 . S
C608 C607 1.387 . S
H609 C621 0.930 . S
H610 C623 0.930 . S
H611 C624 0.930 . S
H612 C628 0.959 . S
H613 C628 0.959 . S
H614 C628 0.961 . S
H615 C629 0.960 . S
H616 C629 0.961 . S
H617 C629 0.959 . S
H618 C632 0.929 . S
H619 C633 0.931 . S
H620 C635 0.930 . S
C621 H609 0.930 . S
C621 C622 1.399 . S
C621 C626 1.399 . S
C622 C621 1.399 . S
C622 C623 1.376 . S
C623 H610 0.930 . S
C623 C622 1.376 . S
C623 C624 1.388 . S
C624 H611 0.930 . S
C624 C623 1.388 . S
C624 C625 1.390 . S
C625 C624 1.390 . S
C625 C626 1.394 . S
C625 C631 1.465 . S
C626 C621 1.399 . S
C626 C625 1.394 . S
C626 C627 1.516 . S
C627 C626 1.516 . S
C627 C628 1.502 . S
C627 C629 1.561 . S
C627 C630 1.526 . S
C628 H612 0.959 . S
C628 H613 0.959 . S
C628 H614 0.961 . S
C628 C627 1.502 . S
C629 H615 0.960 . S
C629 H616 0.961 . S
C629 H617 0.959 . S
C629 C627 1.561 . S
C630 C627 1.526 . S
C630 C631 1.396 . S
C630 C635 1.390 . S
C631 C625 1.465 . S
C631 C630 1.396 . S
C631 C632 1.399 . S
C632 H618 0.929 . S
C632 C631 1.399 . S
C632 C633 1.385 . S
C633 H619 0.931 . S
C633 C632 1.385 . S
C633 C634 1.389 . S
C634 C633 1.389 . S
C634 C635 1.387 . S
C635 H620 0.930 . S
C635 C630 1.390 . S
C635 C634 1.387 . S
H636 C648 0.930 . S
H637 C650 0.930 . S
H638 C651 0.930 . S
H639 C655 0.959 . S
H640 C655 0.959 . S
H641 C655 0.961 . S
H642 C656 0.960 . S
H643 C656 0.961 . S
H644 C656 0.959 . S
H645 C659 0.929 . S
H646 C660 0.931 . S
H647 C662 0.930 . S
C648 H636 0.930 . S
C648 C649 1.399 . S
C648 C653 1.399 . S
C649 C648 1.399 . S
C649 C650 1.376 . S
C650 H637 0.930 . S
C650 C649 1.376 . S
C650 C651 1.388 . S
C651 H638 0.930 . S
C651 C650 1.388 . S
C651 C652 1.390 . S
C652 C651 1.390 . S
C652 C653 1.394 . S
C652 C658 1.465 . S
C653 C648 1.399 . S
C653 C652 1.394 . S
C653 C654 1.516 . S
C654 C653 1.516 . S
C654 C655 1.502 . S
C654 C656 1.561 . S
C654 C657 1.526 . S
C655 H639 0.959 . S
C655 H640 0.959 . S
C655 H641 0.961 . S
C655 C654 1.502 . S
C656 H642 0.960 . S
C656 H643 0.961 . S
C656 H644 0.959 . S
C656 C654 1.561 . S
C657 C654 1.526 . S
C657 C658 1.396 . S
C657 C662 1.390 . S
C658 C652 1.465 . S
C658 C657 1.396 . S
C658 C659 1.399 . S
C659 H645 0.929 . S
C659 C658 1.399 . S
C659 C660 1.385 . S
C660 H646 0.931 . S
C660 C659 1.385 . S
C660 C661 1.389 . S
C661 C660 1.389 . S
C661 C662 1.387 . S
C662 H647 0.930 . S
C662 C657 1.390 . S
C662 C661 1.387 . S
H663 C675 0.930 . S
H664 C677 0.930 . S
H665 C678 0.930 . S
H666 C682 0.959 . S
H667 C682 0.959 . S
H668 C682 0.961 . S
H669 C683 0.960 . S
H670 C683 0.961 . S
H671 C683 0.959 . S
H672 C686 0.929 . S
H673 C687 0.931 . S
H674 C689 0.930 . S
C675 H663 0.930 . S
C675 C676 1.399 . S
C675 C680 1.399 . S
C676 C675 1.399 . S
C676 C677 1.376 . S
C677 H664 0.930 . S
C677 C676 1.376 . S
C677 C678 1.388 . S
C678 H665 0.930 . S
C678 C677 1.388 . S
C678 C679 1.390 . S
C679 C678 1.390 . S
C679 C680 1.394 . S
C679 C685 1.465 . S
C680 C675 1.399 . S
C680 C679 1.394 . S
C680 C681 1.516 . S
C681 C680 1.516 . S
C681 C682 1.502 . S
C681 C683 1.561 . S
C681 C684 1.526 . S
C682 H666 0.959 . S
C682 H667 0.959 . S
C682 H668 0.961 . S
C682 C681 1.502 . S
C683 H669 0.960 . S
C683 H670 0.961 . S
C683 H671 0.959 . S
C683 C681 1.561 . S
C684 C681 1.526 . S
C684 C685 1.396 . S
C684 C689 1.390 . S
C685 C679 1.465 . S
C685 C684 1.396 . S
C685 C686 1.399 . S
C686 H672 0.929 . S
C686 C685 1.399 . S
C686 C687 1.385 . S
C687 H673 0.931 . S
C687 C686 1.385 . S
C687 C688 1.389 . S
C688 C687 1.389 . S
C688 C689 1.387 . S
C689 H674 0.930 . S
C689 C684 1.390 . S
C689 C688 1.387 . S
H690 C702 0.930 . S
H691 C704 0.930 . S
H692 C705 0.930 . S
H693 C709 0.959 . S
H694 C709 0.959 . S
H695 C709 0.961 . S
H696 C710 0.960 . S
H697 C710 0.961 . S
H698 C710 0.959 . S
H699 C713 0.929 . S
H700 C714 0.931 . S
H701 C716 0.930 . S
C702 H690 0.930 . S
C702 C703 1.399 . S
C702 C707 1.399 . S
C703 C702 1.399 . S
C703 C704 1.376 . S
C704 H691 0.930 . S
C704 C703 1.376 . S
C704 C705 1.388 . S
C705 H692 0.930 . S
C705 C704 1.388 . S
C705 C706 1.390 . S
C706 C705 1.390 . S
C706 C707 1.394 . S
C706 C712 1.465 . S
C707 C702 1.399 . S
C707 C706 1.394 . S
C707 C708 1.516 . S
C708 C707 1.516 . S
C708 C709 1.502 . S
C708 C710 1.561 . S
C708 C711 1.526 . S
C709 H693 0.959 . S
C709 H694 0.959 . S
C709 H695 0.961 . S
C709 C708 1.502 . S
C710 H696 0.960 . S
C710 H697 0.961 . S
C710 H698 0.959 . S
C710 C708 1.561 . S
C711 C708 1.526 . S
C711 C712 1.396 . S
C711 C716 1.390 . S
C712 C706 1.465 . S
C712 C711 1.396 . S
C712 C713 1.399 . S
C713 H699 0.929 . S
C713 C712 1.399 . S
C713 C714 1.385 . S
C714 H700 0.931 . S
C714 C713 1.385 . S
C714 C715 1.389 . S
C715 C714 1.389 . S
C715 C716 1.387 . S
C716 H701 0.930 . S
C716 C711 1.390 . S
C716 C715 1.387 . S
H717 C729 0.930 . S
H718 C731 0.930 . S
H719 C732 0.930 . S
H720 C736 0.959 . S
H721 C736 0.959 . S
H722 C736 0.961 . S
H723 C737 0.960 . S
H724 C737 0.961 . S
H725 C737 0.959 . S
H726 C740 0.929 . S
H727 C741 0.931 . S
H728 C743 0.930 . S
C729 H717 0.930 . S
C729 C730 1.399 . S
C729 C734 1.399 . S
C730 C729 1.399 . S
C730 C731 1.376 . S
C731 H718 0.930 . S
C731 C730 1.376 . S
C731 C732 1.388 . S
C732 H719 0.930 . S
C732 C731 1.388 . S
C732 C733 1.390 . S
C733 C732 1.390 . S
C733 C734 1.394 . S
C733 C739 1.465 . S
C734 C729 1.399 . S
C734 C733 1.394 . S
C734 C735 1.516 . S
C735 C734 1.516 . S
C735 C736 1.502 . S
C735 C737 1.561 . S
C735 C738 1.526 . S
C736 H720 0.959 . S
C736 H721 0.959 . S
C736 H722 0.961 . S
C736 C735 1.502 . S
C737 H723 0.960 . S
C737 H724 0.961 . S
C737 H725 0.959 . S
C737 C735 1.561 . S
C738 C735 1.526 . S
C738 C739 1.396 . S
C738 C743 1.390 . S
C739 C733 1.465 . S
C739 C738 1.396 . S
C739 C740 1.399 . S
C740 H726 0.929 . S
C740 C739 1.399 . S
C740 C741 1.385 . S
C741 H727 0.931 . S
C741 C740 1.385 . S
C741 C742 1.389 . S
C742 C741 1.389 . S
C742 C743 1.387 . S
C743 H728 0.930 . S
C743 C738 1.390 . S
C743 C742 1.387 . S
H744 C756 0.930 . S
H745 C758 0.930 . S
H746 C759 0.930 . S
H747 C763 0.959 . S
H748 C763 0.959 . S
H749 C763 0.961 . S
H750 C764 0.960 . S
H751 C764 0.961 . S
H752 C764 0.959 . S
H753 C767 0.929 . S
H754 C768 0.931 . S
H755 C770 0.930 . S
C756 H744 0.930 . S
C756 C757 1.399 . S
C756 C761 1.399 . S
C757 C756 1.399 . S
C757 C758 1.376 . S
C758 H745 0.930 . S
C758 C757 1.376 . S
C758 C759 1.388 . S
C759 H746 0.930 . S
C759 C758 1.388 . S
C759 C760 1.390 . S
C760 C759 1.390 . S
C760 C761 1.394 . S
C760 C766 1.465 . S
C761 C756 1.399 . S
C761 C760 1.394 . S
C761 C762 1.516 . S
C762 C761 1.516 . S
C762 C763 1.502 . S
C762 C764 1.561 . S
C762 C765 1.526 . S
C763 H747 0.959 . S
C763 H748 0.959 . S
C763 H749 0.961 . S
C763 C762 1.502 . S
C764 H750 0.960 . S
C764 H751 0.961 . S
C764 H752 0.959 . S
C764 C762 1.561 . S
C765 C762 1.526 . S
C765 C766 1.396 . S
C765 C770 1.390 . S
C766 C760 1.465 . S
C766 C765 1.396 . S
C766 C767 1.399 . S
C767 H753 0.929 . S
C767 C766 1.399 . S
C767 C768 1.385 . S
C768 H754 0.931 . S
C768 C767 1.385 . S
C768 C769 1.389 . S
C769 C768 1.389 . S
C769 C770 1.387 . S
C770 H755 0.930 . S
C770 C765 1.390 . S
C770 C769 1.387 . S
H771 C783 0.930 . S
H772 C785 0.930 . S
H773 C786 0.930 . S
H774 C790 0.959 . S
H775 C790 0.959 . S
H776 C790 0.961 . S
H777 C791 0.960 . S
H778 C791 0.961 . S
H779 C791 0.959 . S
H780 C794 0.929 . S
H781 C795 0.931 . S
H782 C797 0.930 . S
C783 H771 0.930 . S
C783 C784 1.399 . S
C783 C788 1.399 . S
C784 C783 1.399 . S
C784 C785 1.376 . S
C785 H772 0.930 . S
C785 C784 1.376 . S
C785 C786 1.388 . S
C786 H773 0.930 . S
C786 C785 1.388 . S
C786 C787 1.390 . S
C787 C786 1.390 . S
C787 C788 1.394 . S
C787 C793 1.465 . S
C788 C783 1.399 . S
C788 C787 1.394 . S
C788 C789 1.516 . S
C789 C788 1.516 . S
C789 C790 1.502 . S
C789 C791 1.561 . S
C789 C792 1.526 . S
C790 H774 0.959 . S
C790 H775 0.959 . S
C790 H776 0.961 . S
C790 C789 1.502 . S
C791 H777 0.960 . S
C791 H778 0.961 . S
C791 H779 0.959 . S
C791 C789 1.561 . S
C792 C789 1.526 . S
C792 C793 1.396 . S
C792 C797 1.390 . S
C793 C787 1.465 . S
C793 C792 1.396 . S
C793 C794 1.399 . S
C794 H780 0.929 . S
C794 C793 1.399 . S
C794 C795 1.385 . S
C795 H781 0.931 . S
C795 C794 1.385 . S
C795 C796 1.389 . S
C796 C795 1.389 . S
C796 C797 1.387 . S
C797 H782 0.930 . S
C797 C792 1.390 . S
C797 C796 1.387 . S
H798 C810 0.930 . S
H799 C812 0.930 . S
H800 C813 0.930 . S
H801 C817 0.959 . S
H802 C817 0.959 . S
H803 C817 0.961 . S
H804 C818 0.960 . S
H805 C818 0.961 . S
H806 C818 0.959 . S
H807 C821 0.929 . S
H808 C822 0.931 . S
H809 C824 0.930 . S
C810 H798 0.930 . S
C810 C811 1.399 . S
C810 C815 1.399 . S
C811 C810 1.399 . S
C811 C812 1.376 . S
C812 H799 0.930 . S
C812 C811 1.376 . S
C812 C813 1.388 . S
C813 H800 0.930 . S
C813 C812 1.388 . S
C813 C814 1.390 . S
C814 C813 1.390 . S
C814 C815 1.394 . S
C814 C820 1.465 . S
C815 C810 1.399 . S
C815 C814 1.394 . S
C815 C816 1.516 . S
C816 C815 1.516 . S
C816 C817 1.502 . S
C816 C818 1.561 . S
C816 C819 1.526 . S
C817 H801 0.959 . S
C817 H802 0.959 . S
C817 H803 0.961 . S
C817 C816 1.502 . S
C818 H804 0.960 . S
C818 H805 0.961 . S
C818 H806 0.959 . S
C818 C816 1.561 . S
C819 C816 1.526 . S
C819 C820 1.396 . S
C819 C824 1.390 . S
C820 C814 1.465 . S
C820 C819 1.396 . S
C820 C821 1.399 . S
C821 H807 0.929 . S
C821 C820 1.399 . S
C821 C822 1.385 . S
C822 H808 0.931 . S
C822 C821 1.385 . S
C822 C823 1.389 . S
C823 C822 1.389 . S
C823 C824 1.387 . S
C824 H809 0.930 . S
C824 C819 1.390 . S
C824 C823 1.387 . S
H825 C837 0.930 . S
H826 C839 0.930 . S
H827 C840 0.930 . S
H828 C844 0.959 . S
H829 C844 0.959 . S
H830 C844 0.961 . S
H831 C845 0.960 . S
H832 C845 0.961 . S
H833 C845 0.959 . S
H834 C848 0.929 . S
H835 C849 0.931 . S
H836 C851 0.930 . S
C837 H825 0.930 . S
C837 C838 1.399 . S
C837 C842 1.399 . S
C838 C837 1.399 . S
C838 C839 1.376 . S
C839 H826 0.930 . S
C839 C838 1.376 . S
C839 C840 1.388 . S
C840 H827 0.930 . S
C840 C839 1.388 . S
C840 C841 1.390 . S
C841 C840 1.390 . S
C841 C842 1.394 . S
C841 C847 1.465 . S
C842 C837 1.399 . S
C842 C841 1.394 . S
C842 C843 1.516 . S
C843 C842 1.516 . S
C843 C844 1.502 . S
C843 C845 1.561 . S
C843 C846 1.526 . S
C844 H828 0.959 . S
C844 H829 0.959 . S
C844 H830 0.961 . S
C844 C843 1.502 . S
C845 H831 0.960 . S
C845 H832 0.961 . S
C845 H833 0.959 . S
C845 C843 1.561 . S
C846 C843 1.526 . S
C846 C847 1.396 . S
C846 C851 1.390 . S
C847 C841 1.465 . S
C847 C846 1.396 . S
C847 C848 1.399 . S
C848 H834 0.929 . S
C848 C847 1.399 . S
C848 C849 1.385 . S
C849 H835 0.931 . S
C849 C848 1.385 . S
C849 C850 1.389 . S
C850 C849 1.389 . S
C850 C851 1.387 . S
C851 H836 0.930 . S
C851 C846 1.390 . S
C851 C850 1.387 . S
H852 C864 0.930 . S
H853 C866 0.930 . S
H854 C867 0.930 . S
H855 C871 0.959 . S
H856 C871 0.959 . S
H857 C871 0.961 . S
H858 C872 0.960 . S
H859 C872 0.961 . S
H860 C872 0.959 . S
H861 C875 0.929 . S
H862 C876 0.931 . S
H863 C878 0.930 . S
C864 H852 0.930 . S
C864 C865 1.399 . S
C864 C869 1.399 . S
C865 C864 1.399 . S
C865 C866 1.376 . S
C866 H853 0.930 . S
C866 C865 1.376 . S
C866 C867 1.388 . S
C867 H854 0.930 . S
C867 C866 1.388 . S
C867 C868 1.390 . S
C868 C867 1.390 . S
C868 C869 1.394 . S
C868 C874 1.465 . S
C869 C864 1.399 . S
C869 C868 1.394 . S
C869 C870 1.516 . S
C870 C869 1.516 . S
C870 C871 1.502 . S
C870 C872 1.561 . S
C870 C873 1.526 . S
C871 H855 0.959 . S
C871 H856 0.959 . S
C871 H857 0.961 . S
C871 C870 1.502 . S
C872 H858 0.960 . S
C872 H859 0.961 . S
C872 H860 0.959 . S
C872 C870 1.561 . S
C873 C870 1.526 . S
C873 C874 1.396 . S
C873 C878 1.390 . S
C874 C868 1.465 . S
C874 C873 1.396 . S
C874 C875 1.399 . S
C875 H861 0.929 . S
C875 C874 1.399 . S
C875 C876 1.385 . S
C876 H862 0.931 . S
C876 C875 1.385 . S
C876 C877 1.389 . S
C877 C876 1.389 . S
C877 C878 1.387 . S
C878 H863 0.930 . S
C878 C873 1.390 . S
C878 C877 1.387 . S
H879 C891 0.930 . S
H880 C893 0.930 . S
H881 C894 0.930 . S
H882 C898 0.959 . S
H883 C898 0.959 . S
H884 C898 0.961 . S
H885 C899 0.960 . S
H886 C899 0.961 . S
H887 C899 0.959 . S
H888 C902 0.929 . S
H889 C903 0.931 . S
H890 C905 0.930 . S
C891 H879 0.930 . S
C891 C892 1.399 . S
C891 C896 1.399 . S
C892 C891 1.399 . S
C892 C893 1.376 . S
C893 H880 0.930 . S
C893 C892 1.376 . S
C893 C894 1.388 . S
C894 H881 0.930 . S
C894 C893 1.388 . S
C894 C895 1.390 . S
C895 C894 1.390 . S
C895 C896 1.394 . S
C895 C901 1.465 . S
C896 C891 1.399 . S
C896 C895 1.394 . S
C896 C897 1.516 . S
C897 C896 1.516 . S
C897 C898 1.502 . S
C897 C899 1.561 . S
C897 C900 1.526 . S
C898 H882 0.959 . S
C898 H883 0.959 . S
C898 H884 0.961 . S
C898 C897 1.502 . S
C899 H885 0.960 . S
C899 H886 0.961 . S
C899 H887 0.959 . S
C899 C897 1.561 . S
C900 C897 1.526 . S
C900 C901 1.396 . S
C900 C905 1.390 . S
C901 C895 1.465 . S
C901 C900 1.396 . S
C901 C902 1.399 . S
C902 H888 0.929 . S
C902 C901 1.399 . S
C902 C903 1.385 . S
C903 H889 0.931 . S
C903 C902 1.385 . S
C903 C904 1.389 . S
C904 C903 1.389 . S
C904 C905 1.387 . S
C905 H890 0.930 . S
C905 C900 1.390 . S
C905 C904 1.387 . S
H906 C918 0.930 . S
H907 C920 0.930 . S
H908 C921 0.930 . S
H909 C925 0.959 . S
H910 C925 0.959 . S
H911 C925 0.961 . S
H912 C926 0.960 . S
H913 C926 0.961 . S
H914 C926 0.959 . S
H915 C929 0.929 . S
H916 C930 0.931 . S
H917 C932 0.930 . S
C918 H906 0.930 . S
C918 C919 1.399 . S
C918 C923 1.399 . S
C919 C918 1.399 . S
C919 C920 1.376 . S
C920 H907 0.930 . S
C920 C919 1.376 . S
C920 C921 1.388 . S
C921 H908 0.930 . S
C921 C920 1.388 . S
C921 C922 1.390 . S
C922 C921 1.390 . S
C922 C923 1.394 . S
C922 C928 1.465 . S
C923 C918 1.399 . S
C923 C922 1.394 . S
C923 C924 1.516 . S
C924 C923 1.516 . S
C924 C925 1.502 . S
C924 C926 1.561 . S
C924 C927 1.526 . S
C925 H909 0.959 . S
C925 H910 0.959 . S
C925 H911 0.961 . S
C925 C924 1.502 . S
C926 H912 0.960 . S
C926 H913 0.961 . S
C926 H914 0.959 . S
C926 C924 1.561 . S
C927 C924 1.526 . S
C927 C928 1.396 . S
C927 C932 1.390 . S
C928 C922 1.465 . S
C928 C927 1.396 . S
C928 C929 1.399 . S
C929 H915 0.929 . S
C929 C928 1.399 . S
C929 C930 1.385 . S
C930 H916 0.931 . S
C930 C929 1.385 . S
C930 C931 1.389 . S
C931 C930 1.389 . S
C931 C932 1.387 . S
C932 H917 0.930 . S
C932 C927 1.390 . S
C932 C931 1.387 . S
H933 C945 0.930 . S
H934 C947 0.930 . S
H935 C948 0.930 . S
H936 C952 0.959 . S
H937 C952 0.959 . S
H938 C952 0.961 . S
H939 C953 0.960 . S
H940 C953 0.961 . S
H941 C953 0.959 . S
H942 C956 0.929 . S
H943 C957 0.931 . S
H944 C959 0.930 . S
C945 H933 0.930 . S
C945 C946 1.399 . S
C945 C950 1.399 . S
C946 C945 1.399 . S
C946 C947 1.376 . S
C947 H934 0.930 . S
C947 C946 1.376 . S
C947 C948 1.388 . S
C948 H935 0.930 . S
C948 C947 1.388 . S
C948 C949 1.390 . S
C949 C948 1.390 . S
C949 C950 1.394 . S
C949 C955 1.465 . S
C950 C945 1.399 . S
C950 C949 1.394 . S
C950 C951 1.516 . S
C951 C950 1.516 . S
C951 C952 1.502 . S
C951 C953 1.561 . S
C951 C954 1.526 . S
C952 H936 0.959 . S
C952 H937 0.959 . S
C952 H938 0.961 . S
C952 C951 1.502 . S
C953 H939 0.960 . S
C953 H940 0.961 . S
C953 H941 0.959 . S
C953 C951 1.561 . S
C954 C951 1.526 . S
C954 C955 1.396 . S
C954 C959 1.390 . S
C955 C949 1.465 . S
C955 C954 1.396 . S
C955 C956 1.399 . S
C956 H942 0.929 . S
C956 C955 1.399 . S
C956 C957 1.385 . S
C957 H943 0.931 . S
C957 C956 1.385 . S
C957 C958 1.389 . S
C958 C957 1.389 . S
C958 C959 1.387 . S
C959 H944 0.930 . S
C959 C954 1.390 . S
C959 C958 1.387 . S
H960 C972 0.930 . S
H961 C974 0.930 . S
H962 C975 0.930 . S
H963 C979 0.959 . S
H964 C979 0.959 . S
H965 C979 0.961 . S
H966 C980 0.960 . S
H967 C980 0.961 . S
H968 C980 0.959 . S
H969 C983 0.929 . S
H970 C984 0.931 . S
H971 C986 0.930 . S
C972 H960 0.930 . S
C972 C973 1.399 . S
C972 C977 1.399 . S
C973 C972 1.399 . S
C973 C974 1.376 . S
C974 H961 0.930 . S
C974 C973 1.376 . S
C974 C975 1.388 . S
C975 H962 0.930 . S
C975 C974 1.388 . S
C975 C976 1.390 . S
C976 C975 1.390 . S
C976 C977 1.394 . S
C976 C982 1.465 . S
C977 C972 1.399 . S
C977 C976 1.394 . S
C977 C978 1.516 . S
C978 C977 1.516 . S
C978 C979 1.502 . S
C978 C980 1.561 . S
C978 C981 1.526 . S
C979 H963 0.959 . S
C979 H964 0.959 . S
C979 H965 0.961 . S
C979 C978 1.502 . S
C980 H966 0.960 . S
C980 H967 0.961 . S
C980 H968 0.959 . S
C980 C978 1.561 . S
C981 C978 1.526 . S
C981 C982 1.396 . S
C981 C986 1.390 . S
C982 C976 1.465 . S
C982 C981 1.396 . S
C982 C983 1.399 . S
C983 H969 0.929 . S
C983 C982 1.399 . S
C983 C984 1.385 . S
C984 H970 0.931 . S
C984 C983 1.385 . S
C984 C985 1.389 . S
C985 C984 1.389 . S
C985 C986 1.387 . S
C986 H971 0.930 . S
C986 C981 1.390 . S
C986 C985 1.387 . S
H987 C999 0.930 . S
H988 C1001 0.930 . S
H989 C1002 0.930 . S
H990 C1006 0.959 . S
H991 C1006 0.959 . S
H992 C1006 0.961 . S
H993 C1007 0.960 . S
H994 C1007 0.961 . S
H995 C1007 0.959 . S
H996 C1010 0.929 . S
H997 C1011 0.931 . S
H998 C1013 0.930 . S
C999 H987 0.930 . S
C999 C1000 1.399 1_556 S
C999 C1004 1.399 . S
C1000 C999 1.399 1_554 S
C1000 C1001 1.376 . S
C1001 H988 0.930 . S
C1001 C1000 1.376 . S
C1001 C1002 1.388 1_554 S
C1002 H989 0.930 . S
C1002 C1001 1.388 1_556 S
C1002 C1003 1.390 . S
C1003 C1002 1.390 . S
C1003 C1004 1.394 . S
C1003 C1009 1.465 . S
C1004 C999 1.399 . S
C1004 C1003 1.394 . S
C1004 C1005 1.516 . S
C1005 C1004 1.516 . S
C1005 C1006 1.502 . S
C1005 C1007 1.561 . S
C1005 C1008 1.526 . S
C1006 H990 0.959 . S
C1006 H991 0.959 . S
C1006 H992 0.961 . S
C1006 C1005 1.502 . S
C1007 H993 0.960 . S
C1007 H994 0.961 . S
C1007 H995 0.959 . S
C1007 C1005 1.561 . S
C1008 C1005 1.526 . S
C1008 C1009 1.396 . S
C1008 C1013 1.390 . S
C1009 C1003 1.465 . S
C1009 C1008 1.396 . S
C1009 C1010 1.399 . S
C1010 H996 0.929 . S
C1010 C1009 1.399 . S
C1010 C1011 1.385 . S
C1011 H997 0.931 . S
C1011 C1010 1.385 . S
C1011 C1012 1.389 . S
C1012 C1011 1.389 . S
C1012 C1013 1.387 . S
C1013 H998 0.930 . S
C1013 C1008 1.390 . S
C1013 C1012 1.387 . S
H1014 C1026 0.930 . S
H1015 C1028 0.930 . S
H1016 C1029 0.930 . S
H1017 C1033 0.959 . S
H1018 C1033 0.959 . S
H1019 C1033 0.961 . S
H1020 C1034 0.960 . S
H1021 C1034 0.961 . S
H1022 C1034 0.959 . S
H1023 C1037 0.929 . S
H1024 C1038 0.931 . S
H1025 C1040 0.930 . S
C1026 H1014 0.930 . S
C1026 C1027 1.399 . S
C1026 C1031 1.399 . S
C1027 C1026 1.399 . S
C1027 C1028 1.376 . S
C1028 H1015 0.930 . S
C1028 C1027 1.376 . S
C1028 C1029 1.388 . S
C1029 H1016 0.930 . S
C1029 C1028 1.388 . S
C1029 C1030 1.390 . S
C1030 C1029 1.390 . S
C1030 C1031 1.394 . S
C1030 C1036 1.465 . S
C1031 C1026 1.399 . S
C1031 C1030 1.394 . S
C1031 C1032 1.516 . S
C1032 C1031 1.516 . S
C1032 C1033 1.502 . S
C1032 C1034 1.561 . S
C1032 C1035 1.526 . S
C1033 H1017 0.959 . S
C1033 H1018 0.959 . S
C1033 H1019 0.961 . S
C1033 C1032 1.502 . S
C1034 H1020 0.960 . S
C1034 H1021 0.961 . S
C1034 H1022 0.959 . S
C1034 C1032 1.561 . S
C1035 C1032 1.526 . S
C1035 C1036 1.396 . S
C1035 C1040 1.390 . S
C1036 C1030 1.465 . S
C1036 C1035 1.396 . S
C1036 C1037 1.399 . S
C1037 H1023 0.929 . S
C1037 C1036 1.399 . S
C1037 C1038 1.385 . S
C1038 H1024 0.931 . S
C1038 C1037 1.385 . S
C1038 C1039 1.389 . S
C1039 C1038 1.389 . S
C1039 C1040 1.387 . S
C1040 H1025 0.930 . S
C1040 C1035 1.390 . S
C1040 C1039 1.387 . S
H1041 C1053 0.930 . S
H1042 C1055 0.930 . S
H1043 C1056 0.930 . S
H1044 C1060 0.959 . S
H1045 C1060 0.959 . S
H1046 C1060 0.961 . S
H1047 C1061 0.960 . S
H1048 C1061 0.961 . S
H1049 C1061 0.959 . S
H1050 C1064 0.929 . S
H1051 C1065 0.931 1_556 S
H1052 C1067 0.930 1_556 S
C1053 H1041 0.930 . S
C1053 C1054 1.399 . S
C1053 C1058 1.399 . S
C1054 C1053 1.399 . S
C1054 C1055 1.376 . S
C1055 H1042 0.930 . S
C1055 C1054 1.376 . S
C1055 C1056 1.388 . S
C1056 H1043 0.930 . S
C1056 C1055 1.388 . S
C1056 C1057 1.390 . S
C1057 C1056 1.390 . S
C1057 C1058 1.394 . S
C1057 C1063 1.465 . S
C1058 C1053 1.399 . S
C1058 C1057 1.394 . S
C1058 C1059 1.516 . S
C1059 C1058 1.516 . S
C1059 C1060 1.502 . S
C1059 C1061 1.561 . S
C1059 C1062 1.526 . S
C1060 H1044 0.959 . S
C1060 H1045 0.959 . S
C1060 H1046 0.961 . S
C1060 C1059 1.502 . S
C1061 H1047 0.960 . S
C1061 H1048 0.961 . S
C1061 H1049 0.959 . S
C1061 C1059 1.561 . S
C1062 C1059 1.526 . S
C1062 C1063 1.396 . S
C1062 C1067 1.390 . S
C1063 C1057 1.465 . S
C1063 C1062 1.396 . S
C1063 C1064 1.399 . S
C1064 H1050 0.929 . S
C1064 C1063 1.399 . S
C1064 C1065 1.385 . S
C1065 H1051 0.931 1_554 S
C1065 C1064 1.385 . S
C1065 C1066 1.389 1_554 S
C1066 C1065 1.389 1_556 S
C1066 C1067 1.387 1_556 S
C1067 H1052 0.930 1_554 S
C1067 C1062 1.390 . S
C1067 C1066 1.387 1_554 S
H1068 C1080 0.930 . S
H1069 C1082 0.930 . S
H1070 C1083 0.930 . S
H1071 C1087 0.959 . S
H1072 C1087 0.959 . S
H1073 C1087 0.961 . S
H1074 C1088 0.960 . S
H1075 C1088 0.961 . S
H1076 C1088 0.959 . S
H1077 C1091 0.929 . S
H1078 C1092 0.931 . S
H1079 C1094 0.930 . S
C1080 H1068 0.930 . S
C1080 C1081 1.399 . S
C1080 C1085 1.399 . S
C1081 C1080 1.399 . S
C1081 C1082 1.376 . S
C1082 H1069 0.930 . S
C1082 C1081 1.376 . S
C1082 C1083 1.388 . S
C1083 H1070 0.930 . S
C1083 C1082 1.388 . S
C1083 C1084 1.390 . S
C1084 C1083 1.390 . S
C1084 C1085 1.394 . S
C1084 C1090 1.465 . S
C1085 C1080 1.399 . S
C1085 C1084 1.394 . S
C1085 C1086 1.516 . S
C1086 C1085 1.516 . S
C1086 C1087 1.502 . S
C1086 C1088 1.561 . S
C1086 C1089 1.526 . S
C1087 H1071 0.959 . S
C1087 H1072 0.959 . S
C1087 H1073 0.961 . S
C1087 C1086 1.502 . S
C1088 H1074 0.960 . S
C1088 H1075 0.961 . S
C1088 H1076 0.959 . S
C1088 C1086 1.561 . S
C1089 C1086 1.526 . S
C1089 C1090 1.396 . S
C1089 C1094 1.390 . S
C1090 C1084 1.465 . S
C1090 C1089 1.396 . S
C1090 C1091 1.399 . S
C1091 H1077 0.929 . S
C1091 C1090 1.399 . S
C1091 C1092 1.385 . S
C1092 H1078 0.931 . S
C1092 C1091 1.385 . S
C1092 C1093 1.389 . S
C1093 C1092 1.389 . S
C1093 C1094 1.387 . S
C1094 H1079 0.930 . S
C1094 C1089 1.390 . S
C1094 C1093 1.387 . S
H1095 C1107 0.930 . S
H1096 C1109 0.930 . S
H1097 C1110 0.930 . S
H1098 C1114 0.959 . S
H1099 C1114 0.959 . S
H1100 C1114 0.961 . S
H1101 C1115 0.960 . S
H1102 C1115 0.961 . S
H1103 C1115 0.959 . S
H1104 C1118 0.929 . S
H1105 C1119 0.931 . S
H1106 C1121 0.930 . S
C1107 H1095 0.930 . S
C1107 C1108 1.399 . S
C1107 C1112 1.399 1_655 S
C1108 C1107 1.399 . S
C1108 C1109 1.376 . S
C1109 H1096 0.930 . S
C1109 C1108 1.376 . S
C1109 C1110 1.388 1_655 S
C1110 H1097 0.930 . S
C1110 C1109 1.388 1_455 S
C1110 C1111 1.390 . S
C1111 C1110 1.390 . S
C1111 C1112 1.394 . S
C1111 C1117 1.465 . S
C1112 C1107 1.399 1_455 S
C1112 C1111 1.394 . S
C1112 C1113 1.516 . S
C1113 C1112 1.516 . S
C1113 C1114 1.502 . S
C1113 C1115 1.561 . S
C1113 C1116 1.526 . S
C1114 H1098 0.959 . S
C1114 H1099 0.959 . S
C1114 H1100 0.961 . S
C1114 C1113 1.502 . S
C1115 H1101 0.960 . S
C1115 H1102 0.961 . S
C1115 H1103 0.959 . S
C1115 C1113 1.561 . S
C1116 C1113 1.526 . S
C1116 C1117 1.396 . S
C1116 C1121 1.390 . S
C1117 C1111 1.465 . S
C1117 C1116 1.396 . S
C1117 C1118 1.399 . S
C1118 H1104 0.929 . S
C1118 C1117 1.399 . S
C1118 C1119 1.385 . S
C1119 H1105 0.931 . S
C1119 C1118 1.385 . S
C1119 C1120 1.389 . S
C1120 C1119 1.389 . S
C1120 C1121 1.387 . S
C1121 H1106 0.930 . S
C1121 C1116 1.390 . S
C1121 C1120 1.387 . S
H1122 C1134 0.930 . S
H1123 C1136 0.930 . S
H1124 C1137 0.930 . S
H1125 C1141 0.959 . S
H1126 C1141 0.959 . S
H1127 C1141 0.961 . S
H1128 C1142 0.960 . S
H1129 C1142 0.961 . S
H1130 C1142 0.959 . S
H1131 C1145 0.929 . S
H1132 C1146 0.931 . S
H1133 C1148 0.930 . S
C1134 H1122 0.930 . S
C1134 C1135 1.399 . S
C1134 C1139 1.399 1_455 S
C1135 C1134 1.399 . S
C1135 C1136 1.376 . S
C1136 H1123 0.930 . S
C1136 C1135 1.376 . S
C1136 C1137 1.388 1_455 S
C1137 H1124 0.930 . S
C1137 C1136 1.388 1_655 S
C1137 C1138 1.390 . S
C1138 C1137 1.390 . S
C1138 C1139 1.394 . S
C1138 C1144 1.465 . S
C1139 C1134 1.399 1_655 S
C1139 C1138 1.394 . S
C1139 C1140 1.516 . S
C1140 C1139 1.516 . S
C1140 C1141 1.502 . S
C1140 C1142 1.561 . S
C1140 C1143 1.526 . S
C1141 H1125 0.959 . S
C1141 H1126 0.959 . S
C1141 H1127 0.961 . S
C1141 C1140 1.502 . S
C1142 H1128 0.960 . S
C1142 H1129 0.961 . S
C1142 H1130 0.959 . S
C1142 C1140 1.561 . S
C1143 C1140 1.526 . S
C1143 C1144 1.396 . S
C1143 C1148 1.390 . S
C1144 C1138 1.465 . S
C1144 C1143 1.396 . S
C1144 C1145 1.399 . S
C1145 H1131 0.929 . S
C1145 C1144 1.399 . S
C1145 C1146 1.385 . S
C1146 H1132 0.931 . S
C1146 C1145 1.385 . S
C1146 C1147 1.389 . S
C1147 C1146 1.389 . S
C1147 C1148 1.387 . S
C1148 H1133 0.930 . S
C1148 C1143 1.390 . S
C1148 C1147 1.387 . S
H1149 C1161 0.930 . S
H1150 C1163 0.930 . S
H1151 C1164 0.930 . S
H1152 C1168 0.959 . S
H1153 C1168 0.959 . S
H1154 C1168 0.961 . S
H1155 C1169 0.960 . S
H1156 C1169 0.961 . S
H1157 C1169 0.959 . S
H1158 C1172 0.929 . S
H1159 C1173 0.931 . S
H1160 C1175 0.930 . S
C1161 H1149 0.930 . S
C1161 C1162 1.399 . S
C1161 C1166 1.399 . S
C1162 C1161 1.399 . S
C1162 C1163 1.376 . S
C1163 H1150 0.930 . S
C1163 C1162 1.376 . S
C1163 C1164 1.388 . S
C1164 H1151 0.930 . S
C1164 C1163 1.388 . S
C1164 C1165 1.390 . S
C1165 C1164 1.390 . S
C1165 C1166 1.394 . S
C1165 C1171 1.465 . S
C1166 C1161 1.399 . S
C1166 C1165 1.394 . S
C1166 C1167 1.516 . S
C1167 C1166 1.516 . S
C1167 C1168 1.502 . S
C1167 C1169 1.561 . S
C1167 C1170 1.526 . S
C1168 H1152 0.959 . S
C1168 H1153 0.959 . S
C1168 H1154 0.961 . S
C1168 C1167 1.502 . S
C1169 H1155 0.960 . S
C1169 H1156 0.961 . S
C1169 H1157 0.959 . S
C1169 C1167 1.561 . S
C1170 C1167 1.526 . S
C1170 C1171 1.396 . S
C1170 C1175 1.390 . S
C1171 C1165 1.465 . S
C1171 C1170 1.396 . S
C1171 C1172 1.399 . S
C1172 H1158 0.929 . S
C1172 C1171 1.399 . S
C1172 C1173 1.385 . S
C1173 H1159 0.931 . S
C1173 C1172 1.385 . S
C1173 C1174 1.389 . S
C1174 C1173 1.389 . S
C1174 C1175 1.387 . S
C1175 H1160 0.930 . S
C1175 C1170 1.390 . S
C1175 C1174 1.387 . S
H1176 C1188 0.930 . S
H1177 C1190 0.930 . S
H1178 C1191 0.930 . S
H1179 C1195 0.959 . S
H1180 C1195 0.959 . S
H1181 C1195 0.961 . S
H1182 C1196 0.960 . S
H1183 C1196 0.961 . S
H1184 C1196 0.959 . S
H1185 C1199 0.929 . S
H1186 C1200 0.931 . S
H1187 C1202 0.930 . S
C1188 H1176 0.930 . S
C1188 C1189 1.399 . S
C1188 C1193 1.399 . S
C1189 C1188 1.399 . S
C1189 C1190 1.376 . S
C1190 H1177 0.930 . S
C1190 C1189 1.376 . S
C1190 C1191 1.388 . S
C1191 H1178 0.930 . S
C1191 C1190 1.388 . S
C1191 C1192 1.390 . S
C1192 C1191 1.390 . S
C1192 C1193 1.394 . S
C1192 C1198 1.465 . S
C1193 C1188 1.399 . S
C1193 C1192 1.394 . S
C1193 C1194 1.516 . S
C1194 C1193 1.516 . S
C1194 C1195 1.502 . S
C1194 C1196 1.561 . S
C1194 C1197 1.526 . S
C1195 H1179 0.959 . S
C1195 H1180 0.959 . S
C1195 H1181 0.961 . S
C1195 C1194 1.502 . S
C1196 H1182 0.960 . S
C1196 H1183 0.961 . S
C1196 H1184 0.959 . S
C1196 C1194 1.561 . S
C1197 C1194 1.526 . S
C1197 C1198 1.396 . S
C1197 C1202 1.390 . S
C1198 C1192 1.465 . S
C1198 C1197 1.396 . S
C1198 C1199 1.399 . S
C1199 H1185 0.929 . S
C1199 C1198 1.399 . S
C1199 C1200 1.385 . S
C1200 H1186 0.931 . S
C1200 C1199 1.385 . S
C1200 C1201 1.389 . S
C1201 C1200 1.389 . S
C1201 C1202 1.387 . S
C1202 H1187 0.930 . S
C1202 C1197 1.390 . S
C1202 C1201 1.387 . S
H1203 C1215 0.930 1_565 S
H1204 C1217 0.936 . S
H1205 C1218 0.930 . S
H1206 C1222 0.959 . S
H1207 C1222 0.959 . S
H1208 C1222 0.961 . S
H1209 C1223 0.960 . S
H1210 C1223 0.961 . S
H1211 C1223 0.959 . S
H1212 C1226 0.929 . S
H1213 C1227 0.931 . S
H1214 C1229 0.930 . S
C1215 H1203 0.930 1_545 S
C1215 C1216 1.399 1_545 S
C1215 C1220 1.399 . S
C1216 C1215 1.399 1_565 S
C1216 C1217 1.376 1_565 S
C1217 H1204 0.936 . S
C1217 C1216 1.376 1_545 S
C1217 C1218 1.388 . S
C1218 H1205 0.930 . S
C1218 C1217 1.388 . S
C1218 C1219 1.390 . S
C1219 C1218 1.390 . S
C1219 C1220 1.394 . S
C1219 C1225 1.465 . S
C1220 C1215 1.399 . S
C1220 C1219 1.394 . S
C1220 C1221 1.516 . S
C1221 C1220 1.516 . S
C1221 C1222 1.502 . S
C1221 C1223 1.561 . S
C1221 C1224 1.526 . S
C1222 H1206 0.959 . S
C1222 H1207 0.959 . S
C1222 H1208 0.961 . S
C1222 C1221 1.502 . S
C1223 H1209 0.960 . S
C1223 H1210 0.961 . S
C1223 H1211 0.959 . S
C1223 C1221 1.561 . S
C1224 C1221 1.526 . S
C1224 C1225 1.396 . S
C1224 C1229 1.390 . S
C1225 C1219 1.465 . S
C1225 C1224 1.396 . S
C1225 C1226 1.399 . S
C1226 H1212 0.929 . S
C1226 C1225 1.399 . S
C1226 C1227 1.385 . S
C1227 H1213 0.931 . S
C1227 C1226 1.385 . S
C1227 C1228 1.389 . S
C1228 C1227 1.389 . S
C1228 C1229 1.387 . S
C1229 H1214 0.930 . S
C1229 C1224 1.390 . S
C1229 C1228 1.387 . S
H1230 C1242 0.917 1_545 S
H1231 C1244 0.930 1_545 S
H1232 C1245 0.930 . S
H1233 C1249 0.959 . S
H1234 C1249 0.959 . S
H1235 C1249 0.961 . S
H1236 C1250 0.960 . S
H1237 C1250 0.961 . S
H1238 C1250 0.959 . S
H1239 C1253 0.929 . S
H1240 C1254 0.931 . S
H1241 C1256 0.930 . S
C1242 H1230 0.917 1_565 S
C1242 C1243 1.399 1_565 S
C1242 C1247 1.399 . S
C1243 C1242 1.399 1_545 S
C1243 C1244 1.376 1_545 S
C1244 H1231 0.930 1_565 S
C1244 C1243 1.376 1_565 S
C1244 C1245 1.388 . S
C1245 H1232 0.930 . S
C1245 C1244 1.388 . S
C1245 C1246 1.390 . S
C1246 C1245 1.390 . S
C1246 C1247 1.394 . S
C1246 C1252 1.465 . S
C1247 C1242 1.399 . S
C1247 C1246 1.394 . S
C1247 C1248 1.516 . S
C1248 C1247 1.516 . S
C1248 C1249 1.502 . S
C1248 C1250 1.561 . S
C1248 C1251 1.526 . S
C1249 H1233 0.959 . S
C1249 H1234 0.959 . S
C1249 H1235 0.961 . S
C1249 C1248 1.502 . S
C1250 H1236 0.960 . S
C1250 H1237 0.961 . S
C1250 H1238 0.959 . S
C1250 C1248 1.561 . S
C1251 C1248 1.526 . S
C1251 C1252 1.396 . S
C1251 C1256 1.390 . S
C1252 C1246 1.465 . S
C1252 C1251 1.396 . S
C1252 C1253 1.399 . S
C1253 H1239 0.929 . S
C1253 C1252 1.399 . S
C1253 C1254 1.385 . S
C1254 H1240 0.931 . S
C1254 C1253 1.385 . S
C1254 C1255 1.389 . S
C1255 C1254 1.389 . S
C1255 C1256 1.387 . S
C1256 H1241 0.930 . S
C1256 C1251 1.390 . S
C1256 C1255 1.387 . S
H1257 C1269 0.930 . S
H1258 C1271 0.930 . S
H1259 C1272 0.930 . S
H1260 C1276 0.959 . S
H1261 C1276 0.959 . S
H1262 C1276 0.961 . S
H1263 C1277 0.960 . S
H1264 C1277 0.961 . S
H1265 C1277 0.959 . S
H1266 C1280 0.929 . S
H1267 C1281 0.931 . S
H1268 C1283 0.930 . S
C1269 H1257 0.930 . S
C1269 C1270 1.399 . S
C1269 C1274 1.399 . S
C1270 C1269 1.399 . S
C1270 C1271 1.376 . S
C1271 H1258 0.930 . S
C1271 C1270 1.376 . S
C1271 C1272 1.388 . S
C1272 H1259 0.930 . S
C1272 C1271 1.388 . S
C1272 C1273 1.390 . S
C1273 C1272 1.390 . S
C1273 C1274 1.394 . S
C1273 C1279 1.465 . S
C1274 C1269 1.399 . S
C1274 C1273 1.394 . S
C1274 C1275 1.516 . S
C1275 C1274 1.516 . S
C1275 C1276 1.502 . S
C1275 C1277 1.561 . S
C1275 C1278 1.526 . S
C1276 H1260 0.959 . S
C1276 H1261 0.959 . S
C1276 H1262 0.961 . S
C1276 C1275 1.502 . S
C1277 H1263 0.960 . S
C1277 H1264 0.961 . S
C1277 H1265 0.959 . S
C1277 C1275 1.561 . S
C1278 C1275 1.526 . S
C1278 C1279 1.396 . S
C1278 C1283 1.390 . S
C1279 C1273 1.465 . S
C1279 C1278 1.396 . S
C1279 C1280 1.399 . S
C1280 H1266 0.929 . S
C1280 C1279 1.399 . S
C1280 C1281 1.385 . S
C1281 H1267 0.931 . S
C1281 C1280 1.385 . S
C1281 C1282 1.389 . S
C1282 C1281 1.389 . S
C1282 C1283 1.387 . S
C1283 H1268 0.930 . S
C1283 C1278 1.390 . S
C1283 C1282 1.387 . S
H1284 C1296 0.930 . S
H1285 C1298 0.930 . S
H1286 C1299 0.930 . S
H1287 C1303 0.959 . S
H1288 C1303 0.959 . S
H1289 C1303 0.961 . S
H1290 C1304 0.960 . S
H1291 C1304 0.961 . S
H1292 C1304 0.959 . S
H1293 C1307 0.929 . S
H1294 C1308 0.931 . S
H1295 C1310 0.930 . S
C1296 H1284 0.930 . S
C1296 C1297 1.399 . S
C1296 C1301 1.399 . S
C1297 C1296 1.399 . S
C1297 C1298 1.376 . S
C1298 H1285 0.930 . S
C1298 C1297 1.376 . S
C1298 C1299 1.388 . S
C1299 H1286 0.930 . S
C1299 C1298 1.388 . S
C1299 C1300 1.390 . S
C1300 C1299 1.390 . S
C1300 C1301 1.394 . S
C1300 C1306 1.465 . S
C1301 C1296 1.399 . S
C1301 C1300 1.394 . S
C1301 C1302 1.516 . S
C1302 C1301 1.516 . S
C1302 C1303 1.502 . S
C1302 C1304 1.561 . S
C1302 C1305 1.526 . S
C1303 H1287 0.959 . S
C1303 H1288 0.959 . S
C1303 H1289 0.961 . S
C1303 C1302 1.502 . S
C1304 H1290 0.960 . S
C1304 H1291 0.961 . S
C1304 H1292 0.959 . S
C1304 C1302 1.561 . S
C1305 C1302 1.526 . S
C1305 C1306 1.396 . S
C1305 C1310 1.390 . S
C1306 C1300 1.465 . S
C1306 C1305 1.396 . S
C1306 C1307 1.399 . S
C1307 H1293 0.929 . S
C1307 C1306 1.399 . S
C1307 C1308 1.385 . S
C1308 H1294 0.931 . S
C1308 C1307 1.385 . S
C1308 C1309 1.389 . S
C1309 C1308 1.389 . S
C1309 C1310 1.387 . S
C1310 H1295 0.930 . S
C1310 C1305 1.390 . S
C1310 C1309 1.387 . S
H1311 C1323 0.930 . S
H1312 C1325 0.930 . S
H1313 C1326 0.930 . S
H1314 C1330 0.959 . S
H1315 C1330 0.959 . S
H1316 C1330 0.961 . S
H1317 C1331 0.960 . S
H1318 C1331 0.961 . S
H1319 C1331 0.959 . S
H1320 C1334 0.929 . S
H1321 C1335 0.931 . S
H1322 C1337 0.930 . S
C1323 H1311 0.930 . S
C1323 C1324 1.399 1_554 S
C1323 C1328 1.399 . S
C1324 C1323 1.399 1_556 S
C1324 C1325 1.376 . S
C1325 H1312 0.930 . S
C1325 C1324 1.376 . S
C1325 C1326 1.388 1_556 S
C1326 H1313 0.930 . S
C1326 C1325 1.388 1_554 S
C1326 C1327 1.390 . S
C1327 C1326 1.390 . S
C1327 C1328 1.394 . S
C1327 C1333 1.465 . S
C1328 C1323 1.399 . S
C1328 C1327 1.394 . S
C1328 C1329 1.516 . S
C1329 C1328 1.516 . S
C1329 C1330 1.502 . S
C1329 C1331 1.561 . S
C1329 C1332 1.526 . S
C1330 H1314 0.959 . S
C1330 H1315 0.959 . S
C1330 H1316 0.961 . S
C1330 C1329 1.502 . S
C1331 H1317 0.960 . S
C1331 H1318 0.961 . S
C1331 H1319 0.959 . S
C1331 C1329 1.561 . S
C1332 C1329 1.526 . S
C1332 C1333 1.396 . S
C1332 C1337 1.390 . S
C1333 C1327 1.465 . S
C1333 C1332 1.396 . S
C1333 C1334 1.399 . S
C1334 H1320 0.929 . S
C1334 C1333 1.399 . S
C1334 C1335 1.385 . S
C1335 H1321 0.931 . S
C1335 C1334 1.385 . S
C1335 C1336 1.389 . S
C1336 C1335 1.389 . S
C1336 C1337 1.387 . S
C1337 H1322 0.930 . S
C1337 C1332 1.390 . S
C1337 C1336 1.387 . S
H1338 C1350 0.930 . S
H1339 C1352 0.930 . S
H1340 C1353 0.930 . S
H1341 C1357 0.959 . S
H1342 C1357 0.959 . S
H1343 C1357 0.961 . S
H1344 C1358 0.960 . S
H1345 C1358 0.961 . S
H1346 C1358 0.959 . S
H1347 C1361 0.929 . S
H1348 C1362 0.931 . S
H1349 C1364 0.930 . S
C1350 H1338 0.930 . S
C1350 C1351 1.399 . S
C1350 C1355 1.399 . S
C1351 C1350 1.399 . S
C1351 C1352 1.376 . S
C1352 H1339 0.930 . S
C1352 C1351 1.376 . S
C1352 C1353 1.388 . S
C1353 H1340 0.930 . S
C1353 C1352 1.388 . S
C1353 C1354 1.390 . S
C1354 C1353 1.390 . S
C1354 C1355 1.394 . S
C1354 C1360 1.465 . S
C1355 C1350 1.399 . S
C1355 C1354 1.394 . S
C1355 C1356 1.516 . S
C1356 C1355 1.516 . S
C1356 C1357 1.502 . S
C1356 C1358 1.561 . S
C1356 C1359 1.526 . S
C1357 H1341 0.959 . S
C1357 H1342 0.959 . S
C1357 H1343 0.961 . S
C1357 C1356 1.502 . S
C1358 H1344 0.960 . S
C1358 H1345 0.961 . S
C1358 H1346 0.959 . S
C1358 C1356 1.561 . S
C1359 C1356 1.526 . S
C1359 C1360 1.396 . S
C1359 C1364 1.390 . S
C1360 C1354 1.465 . S
C1360 C1359 1.396 . S
C1360 C1361 1.399 . S
C1361 H1347 0.929 . S
C1361 C1360 1.399 . S
C1361 C1362 1.385 . S
C1362 H1348 0.931 . S
C1362 C1361 1.385 . S
C1362 C1363 1.389 . S
C1363 C1362 1.389 . S
C1363 C1364 1.387 . S
C1364 H1349 0.930 . S
C1364 C1359 1.390 . S
C1364 C1363 1.387 . S
H1365 C1377 0.930 . S
H1366 C1379 0.930 . S
H1367 C1380 0.930 . S
H1368 C1384 0.959 . S
H1369 C1384 0.959 . S
H1370 C1384 0.961 . S
H1371 C1385 0.960 . S
H1372 C1385 0.961 . S
H1373 C1385 0.959 . S
H1374 C1388 0.929 . S
H1375 C1389 0.931 . S
H1376 C1391 0.930 . S
C1377 H1365 0.930 . S
C1377 C1378 1.399 1_556 S
C1377 C1382 1.399 . S
C1378 C1377 1.399 1_554 S
C1378 C1379 1.376 . S
C1379 H1366 0.930 . S
C1379 C1378 1.376 . S
C1379 C1380 1.388 1_554 S
C1380 H1367 0.930 . S
C1380 C1379 1.388 1_556 S
C1380 C1381 1.390 . S
C1381 C1380 1.390 . S
C1381 C1382 1.394 . S
C1381 C1387 1.465 . S
C1382 C1377 1.399 . S
C1382 C1381 1.394 . S
C1382 C1383 1.516 . S
C1383 C1382 1.516 . S
C1383 C1384 1.502 . S
C1383 C1385 1.561 . S
C1383 C1386 1.526 . S
C1384 H1368 0.959 . S
C1384 H1369 0.959 . S
C1384 H1370 0.961 . S
C1384 C1383 1.502 . S
C1385 H1371 0.960 . S
C1385 H1372 0.961 . S
C1385 H1373 0.959 . S
C1385 C1383 1.561 . S
C1386 C1383 1.526 . S
C1386 C1387 1.396 . S
C1386 C1391 1.390 . S
C1387 C1381 1.465 . S
C1387 C1386 1.396 . S
C1387 C1388 1.399 . S
C1388 H1374 0.929 . S
C1388 C1387 1.399 . S
C1388 C1389 1.385 . S
C1389 H1375 0.931 . S
C1389 C1388 1.385 . S
C1389 C1390 1.389 . S
C1390 C1389 1.389 . S
C1390 C1391 1.387 . S
C1391 H1376 0.930 . S
C1391 C1386 1.390 . S
C1391 C1390 1.387 . S
H1392 C1404 0.930 . S
H1393 C1406 0.930 . S
H1394 C1407 0.930 . S
H1395 C1411 0.959 . S
H1396 C1411 0.959 . S
H1397 C1411 0.961 . S
H1398 C1412 0.960 . S
H1399 C1412 0.961 . S
H1400 C1412 0.959 . S
H1401 C1415 0.929 . S
H1402 C1416 0.931 . S
H1403 C1418 0.930 . S
C1404 H1392 0.930 . S
C1404 C1405 1.399 . S
C1404 C1409 1.399 . S
C1405 C1404 1.399 . S
C1405 C1406 1.376 . S
C1406 H1393 0.930 . S
C1406 C1405 1.376 . S
C1406 C1407 1.388 . S
C1407 H1394 0.930 . S
C1407 C1406 1.388 . S
C1407 C1408 1.390 . S
C1408 C1407 1.390 . S
C1408 C1409 1.394 . S
C1408 C1414 1.465 . S
C1409 C1404 1.399 . S
C1409 C1408 1.394 . S
C1409 C1410 1.516 . S
C1410 C1409 1.516 . S
C1410 C1411 1.502 . S
C1410 C1412 1.561 . S
C1410 C1413 1.526 . S
C1411 H1395 0.959 . S
C1411 H1396 0.959 . S
C1411 H1397 0.961 . S
C1411 C1410 1.502 . S
C1412 H1398 0.960 . S
C1412 H1399 0.961 . S
C1412 H1400 0.959 . S
C1412 C1410 1.561 . S
C1413 C1410 1.526 . S
C1413 C1414 1.396 . S
C1413 C1418 1.390 . S
C1414 C1408 1.465 . S
C1414 C1413 1.396 . S
C1414 C1415 1.399 . S
C1415 H1401 0.929 . S
C1415 C1414 1.399 . S
C1415 C1416 1.385 . S
C1416 H1402 0.931 . S
C1416 C1415 1.385 . S
C1416 C1417 1.389 . S
C1417 C1416 1.389 . S
C1417 C1418 1.387 . S
C1418 H1403 0.930 . S
C1418 C1413 1.390 . S
C1418 C1417 1.387 . S
H1419 C1431 0.930 . S
H1420 C1433 0.930 . S
H1421 C1434 0.930 . S
H1422 C1438 0.959 . S
H1423 C1438 0.959 . S
H1424 C1438 0.961 . S
H1425 C1439 0.960 . S
H1426 C1439 0.961 . S
H1427 C1439 0.959 . S
H1428 C1442 0.929 . S
H1429 C1443 0.931 1_455 S
H1430 C1445 0.930 1_455 S
C1431 H1419 0.930 . S
C1431 C1432 1.399 . S
C1431 C1436 1.399 . S
C1432 C1431 1.399 . S
C1432 C1433 1.376 . S
C1433 H1420 0.930 . S
C1433 C1432 1.376 . S
C1433 C1434 1.388 . S
C1434 H1421 0.930 . S
C1434 C1433 1.388 . S
C1434 C1435 1.390 . S
C1435 C1434 1.390 . S
C1435 C1436 1.394 . S
C1435 C1441 1.465 . S
C1436 C1431 1.399 . S
C1436 C1435 1.394 . S
C1436 C1437 1.516 . S
C1437 C1436 1.516 . S
C1437 C1438 1.502 . S
C1437 C1439 1.561 . S
C1437 C1440 1.526 . S
C1438 H1422 0.959 . S
C1438 H1423 0.959 . S
C1438 H1424 0.961 . S
C1438 C1437 1.502 . S
C1439 H1425 0.960 . S
C1439 H1426 0.961 . S
C1439 H1427 0.959 . S
C1439 C1437 1.561 . S
C1440 C1437 1.526 . S
C1440 C1441 1.396 . S
C1440 C1445 1.390 . S
C1441 C1435 1.465 . S
C1441 C1440 1.396 . S
C1441 C1442 1.399 . S
C1442 H1428 0.929 . S
C1442 C1441 1.399 . S
C1442 C1443 1.385 . S
C1443 H1429 0.931 1_655 S
C1443 C1442 1.385 . S
C1443 C1444 1.389 1_655 S
C1444 C1443 1.389 1_455 S
C1444 C1445 1.387 1_455 S
C1445 H1430 0.930 1_655 S
C1445 C1440 1.390 . S
C1445 C1444 1.387 1_655 S
H1446 C1458 0.930 . S
H1447 C1460 0.930 . S
H1448 C1461 0.930 . S
H1449 C1465 0.959 . S
H1450 C1465 0.959 . S
H1451 C1465 0.961 . S
H1452 C1466 0.960 . S
H1453 C1466 0.961 . S
H1454 C1466 0.959 . S
H1455 C1469 0.929 . S
H1456 C1470 0.931 . S
H1457 C1472 0.930 . S
C1458 H1446 0.930 . S
C1458 C1459 1.399 . S
C1458 C1463 1.399 . S
C1459 C1458 1.399 . S
C1459 C1460 1.376 . S
C1460 H1447 0.930 . S
C1460 C1459 1.376 . S
C1460 C1461 1.388 . S
C1461 H1448 0.930 . S
C1461 C1460 1.388 . S
C1461 C1462 1.390 . S
C1462 C1461 1.390 . S
C1462 C1463 1.394 . S
C1462 C1468 1.465 . S
C1463 C1458 1.399 . S
C1463 C1462 1.394 . S
C1463 C1464 1.516 . S
C1464 C1463 1.516 . S
C1464 C1465 1.502 . S
C1464 C1466 1.561 . S
C1464 C1467 1.526 . S
C1465 H1449 0.959 . S
C1465 H1450 0.959 . S
C1465 H1451 0.961 . S
C1465 C1464 1.502 . S
C1466 H1452 0.960 . S
C1466 H1453 0.961 . S
C1466 H1454 0.959 . S
C1466 C1464 1.561 . S
C1467 C1464 1.526 . S
C1467 C1468 1.396 . S
C1467 C1472 1.390 . S
C1468 C1462 1.465 . S
C1468 C1467 1.396 . S
C1468 C1469 1.399 . S
C1469 H1455 0.929 . S
C1469 C1468 1.399 . S
C1469 C1470 1.385 1_455 S
C1470 H1456 0.931 . S
C1470 C1469 1.385 1_655 S
C1470 C1471 1.389 . S
C1471 C1470 1.389 . S
C1471 C1472 1.387 1_655 S
C1472 H1457 0.930 . S
C1472 C1467 1.390 . S
C1472 C1471 1.387 1_455 S
H1473 C1485 0.930 . S
H1474 C1487 0.930 . S
H1475 C1488 0.930 . S
H1476 C1492 0.959 . S
H1477 C1492 0.959 . S
H1478 C1492 0.961 . S
H1479 C1493 0.960 . S
H1480 C1493 0.961 . S
H1481 C1493 0.959 . S
H1482 C1496 0.929 . S
H1483 C1497 0.931 . S
H1484 C1499 0.930 . S
C1485 H1473 0.930 . S
C1485 C1486 1.399 . S
C1485 C1490 1.399 . S
C1486 C1485 1.399 . S
C1486 C1487 1.376 . S
C1487 H1474 0.930 . S
C1487 C1486 1.376 . S
C1487 C1488 1.388 . S
C1488 H1475 0.930 . S
C1488 C1487 1.388 . S
C1488 C1489 1.390 . S
C1489 C1488 1.390 . S
C1489 C1490 1.394 . S
C1489 C1495 1.465 . S
C1490 C1485 1.399 . S
C1490 C1489 1.394 . S
C1490 C1491 1.516 . S
C1491 C1490 1.516 . S
C1491 C1492 1.502 . S
C1491 C1493 1.561 . S
C1491 C1494 1.526 . S
C1492 H1476 0.959 . S
C1492 H1477 0.959 . S
C1492 H1478 0.961 . S
C1492 C1491 1.502 . S
C1493 H1479 0.960 . S
C1493 H1480 0.961 . S
C1493 H1481 0.959 . S
C1493 C1491 1.561 . S
C1494 C1491 1.526 . S
C1494 C1495 1.396 . S
C1494 C1499 1.390 . S
C1495 C1489 1.465 . S
C1495 C1494 1.396 . S
C1495 C1496 1.399 . S
C1496 H1482 0.929 . S
C1496 C1495 1.399 . S
C1496 C1497 1.385 . S
C1497 H1483 0.931 . S
C1497 C1496 1.385 . S
C1497 C1498 1.389 . S
C1498 C1497 1.389 . S
C1498 C1499 1.387 . S
C1499 H1484 0.930 . S
C1499 C1494 1.390 . S
C1499 C1498 1.387 . S
H1500 C1512 0.930 . S
H1501 C1514 0.930 . S
H1502 C1515 0.930 . S
H1503 C1519 0.959 . S
H1504 C1519 0.959 . S
H1505 C1519 0.961 . S
H1506 C1520 0.960 . S
H1507 C1520 0.961 . S
H1508 C1520 0.959 . S
H1509 C1523 0.929 . S
H1510 C1524 0.931 . S
H1511 C1526 0.930 . S
C1512 H1500 0.930 . S
C1512 C1513 1.399 . S
C1512 C1517 1.399 . S
C1513 C1512 1.399 . S
C1513 C1514 1.376 . S
C1514 H1501 0.930 . S
C1514 C1513 1.376 . S
C1514 C1515 1.388 . S
C1515 H1502 0.930 . S
C1515 C1514 1.388 . S
C1515 C1516 1.390 . S
C1516 C1515 1.390 . S
C1516 C1517 1.394 . S
C1516 C1522 1.465 . S
C1517 C1512 1.399 . S
C1517 C1516 1.394 . S
C1517 C1518 1.516 . S
C1518 C1517 1.516 . S
C1518 C1519 1.502 . S
C1518 C1520 1.561 . S
C1518 C1521 1.526 . S
C1519 H1503 0.959 . S
C1519 H1504 0.959 . S
C1519 H1505 0.961 . S
C1519 C1518 1.502 . S
C1520 H1506 0.960 . S
C1520 H1507 0.961 . S
C1520 H1508 0.959 . S
C1520 C1518 1.561 . S
C1521 C1518 1.526 . S
C1521 C1522 1.396 . S
C1521 C1526 1.390 . S
C1522 C1516 1.465 . S
C1522 C1521 1.396 . S
C1522 C1523 1.399 . S
C1523 H1509 0.929 . S
C1523 C1522 1.399 . S
C1523 C1524 1.385 . S
C1524 H1510 0.931 . S
C1524 C1523 1.385 . S
C1524 C1525 1.389 . S
C1525 C1524 1.389 . S
C1525 C1526 1.387 . S
C1526 H1511 0.930 . S
C1526 C1521 1.390 . S
C1526 C1525 1.387 . S
H1527 C1539 0.930 . S
H1528 C1541 0.930 . S
H1529 C1542 0.930 . S
H1530 C1546 0.959 . S
H1531 C1546 0.959 . S
H1532 C1546 0.961 . S
H1533 C1547 0.960 . S
H1534 C1547 0.961 . S
H1535 C1547 0.959 . S
H1536 C1550 0.929 . S
H1537 C1551 0.931 . S
H1538 C1553 0.930 . S
C1539 H1527 0.930 . S
C1539 C1540 1.399 . S
C1539 C1544 1.399 . S
C1540 C1539 1.399 . S
C1540 C1541 1.376 . S
C1541 H1528 0.930 . S
C1541 C1540 1.376 . S
C1541 C1542 1.388 . S
C1542 H1529 0.930 . S
C1542 C1541 1.388 . S
C1542 C1543 1.390 . S
C1543 C1542 1.390 . S
C1543 C1544 1.394 . S
C1543 C1549 1.465 . S
C1544 C1539 1.399 . S
C1544 C1543 1.394 . S
C1544 C1545 1.516 . S
C1545 C1544 1.516 . S
C1545 C1546 1.502 . S
C1545 C1547 1.561 . S
C1545 C1548 1.526 . S
C1546 H1530 0.959 . S
C1546 H1531 0.959 . S
C1546 H1532 0.961 . S
C1546 C1545 1.502 . S
C1547 H1533 0.960 . S
C1547 H1534 0.961 . S
C1547 H1535 0.959 . S
C1547 C1545 1.561 . S
C1548 C1545 1.526 . S
C1548 C1549 1.396 . S
C1548 C1553 1.390 1_565 S
C1549 C1543 1.465 . S
C1549 C1548 1.396 . S
C1549 C1550 1.399 . S
C1550 H1536 0.929 . S
C1550 C1549 1.399 . S
C1550 C1551 1.385 1_565 S
C1551 H1537 0.931 . S
C1551 C1550 1.385 1_545 S
C1551 C1552 1.389 . S
C1552 C1551 1.389 . S
C1552 C1553 1.387 . S
C1553 H1538 0.930 . S
C1553 C1548 1.390 1_545 S
C1553 C1552 1.387 . S
H1554 C1566 0.930 . S
H1555 C1568 0.930 . S
H1556 C1569 0.930 . S
H1557 C1573 0.959 . S
H1558 C1573 0.959 . S
H1559 C1573 0.961 . S
H1560 C1574 0.960 . S
H1561 C1574 0.961 . S
H1562 C1574 0.959 . S
H1563 C1577 0.929 . S
H1564 C1578 0.931 . S
H1565 C1580 0.930 . S
C1566 H1554 0.930 . S
C1566 C1567 1.399 . S
C1566 C1571 1.399 1_565 S
C1567 C1566 1.399 . S
C1567 C1568 1.376 . S
C1568 H1555 0.930 . S
C1568 C1567 1.376 . S
C1568 C1569 1.388 1_565 S
C1569 H1556 0.930 . S
C1569 C1568 1.388 1_545 S
C1569 C1570 1.390 . S
C1570 C1569 1.390 . S
C1570 C1571 1.394 . S
C1570 C1576 1.465 . S
C1571 C1566 1.399 1_545 S
C1571 C1570 1.394 . S
C1571 C1572 1.516 . S
C1572 C1571 1.516 . S
C1572 C1573 1.502 . S
C1572 C1574 1.561 . S
C1572 C1575 1.526 . S
C1573 H1557 0.959 . S
C1573 H1558 0.959 . S
C1573 H1559 0.961 . S
C1573 C1572 1.502 . S
C1574 H1560 0.960 . S
C1574 H1561 0.961 . S
C1574 H1562 0.959 . S
C1574 C1572 1.561 . S
C1575 C1572 1.526 . S
C1575 C1576 1.396 . S
C1575 C1580 1.390 . S
C1576 C1570 1.465 . S
C1576 C1575 1.396 . S
C1576 C1577 1.399 . S
C1577 H1563 0.929 . S
C1577 C1576 1.399 . S
C1577 C1578 1.385 . S
C1578 H1564 0.931 . S
C1578 C1577 1.385 . S
C1578 C1579 1.389 . S
C1579 C1578 1.389 . S
C1579 C1580 1.387 . S
C1580 H1565 0.930 . S
C1580 C1575 1.390 . S
C1580 C1579 1.387 . S
H1581 C1593 0.930 . S
H1582 C1595 0.930 . S
H1583 C1596 0.930 . S
H1584 C1600 0.959 . S
H1585 C1600 0.959 . S
H1586 C1600 0.961 . S
H1587 C1601 0.960 . S
H1588 C1601 0.961 . S
H1589 C1601 0.959 . S
H1590 C1604 0.929 . S
H1591 C1605 0.931 . S
H1592 C1607 0.930 . S
C1593 H1581 0.930 . S
C1593 C1594 1.399 . S
C1593 C1598 1.399 . S
C1594 C1593 1.399 . S
C1594 C1595 1.376 . S
C1595 H1582 0.930 . S
C1595 C1594 1.376 . S
C1595 C1596 1.388 . S
C1596 H1583 0.930 . S
C1596 C1595 1.388 . S
C1596 C1597 1.390 . S
C1597 C1596 1.390 . S
C1597 C1598 1.394 . S
C1597 C1603 1.465 . S
C1598 C1593 1.399 . S
C1598 C1597 1.394 . S
C1598 C1599 1.516 . S
C1599 C1598 1.516 . S
C1599 C1600 1.502 . S
C1599 C1601 1.561 . S
C1599 C1602 1.526 . S
C1600 H1584 0.959 . S
C1600 H1585 0.959 . S
C1600 H1586 0.961 . S
C1600 C1599 1.502 . S
C1601 H1587 0.960 . S
C1601 H1588 0.961 . S
C1601 H1589 0.959 . S
C1601 C1599 1.561 . S
C1602 C1599 1.526 . S
C1602 C1603 1.396 . S
C1602 C1607 1.390 . S
C1603 C1597 1.465 . S
C1603 C1602 1.396 . S
C1603 C1604 1.399 . S
C1604 H1590 0.929 . S
C1604 C1603 1.399 . S
C1604 C1605 1.385 . S
C1605 H1591 0.931 . S
C1605 C1604 1.385 . S
C1605 C1606 1.389 . S
C1606 C1605 1.389 . S
C1606 C1607 1.387 . S
C1607 H1592 0.930 . S
C1607 C1602 1.390 . S
C1607 C1606 1.387 . S
C325 C109 0.981 . S
C337 C10 0.936 . S
C352 C23 1.000 . S
C364 C148 0.903 . S
C379 C36 1.006 . S
C391 C122 0.927 . S
C406 C49 0.915 . S
C418 C135 0.934 . S
C433 C57 0.964 . S
C445 C5 0.942 . S
C460 C18 0.868 . S
C472 C70 0.798 . S
C487 C83 0.966 . S
C499 C31 0.843 . S
C514 C44 0.873 . S
C526 C96 0.977 . S
C541 C62 0.910 . S
C553 C114 0.881 . S
C568 C88 0.955 . S
C580 C127 0.953 . S
C595 C140 0.920 . S
C607 C101 0.946 . S
C622 C75 0.911 . S
C634 C153 0.878 . S
C649 C265 0.831 . S
C661 C166 0.886 . S
C676 C179 0.917 . S
C688 C304 0.924 . S
C703 C192 0.969 . S
C715 C278 0.980 . S
C730 C291 0.847 . S
C742 C205 0.888 . S
C757 C218 0.879 . S
C769 C161 0.818 . S
C784 C174 0.833 . S
C796 C231 0.916 . S
C811 C187 0.913 . S
C823 C244 0.956 . S
C838 C257 0.879 . S
C850 C200 0.817 . S
C865 C270 1.040 . S
C877 C213 1.029 . S
C892 C239 0.901 . S
C904 C283 0.986 . S
C919 C252 0.896 . S
C931 C296 0.950 . S
C946 C309 1.038 . S
C958 C226 1.032 . S
C973 C286 1.314 . S
C985 C8 1.326 . S
C1000 C273 1.336 . S
C1012 C21 1.347 . S
C1027 C299 1.332 . S
C1039 C34 1.345 . S
C1054 C47 1.295 . S
C1066 C260 1.304 . S
C1081 C52 1.282 . S
C1093 C169 1.339 . S
C1108 C156 1.316 . S
C1120 C65 1.240 . S
C1135 C195 1.312 . S
C1147 C78 1.326 . S
C1162 C182 1.301 . S
C1174 C91 1.322 . S
C1189 C112 1.309 . S
C1201 C234 1.294 . S
C1216 C208 1.245 . S
C1228 C125 1.232 . S
C1243 C221 1.255 . S
C1255 C138 1.282 . S
C1270 C247 1.310 . S
C1282 C151 1.250 . S
C1297 C130 1.281 . S
C1309 C164 1.225 . S
C1324 C117 1.281 . S
C1336 C177 1.214 . S
C1351 C190 1.180 . S
C1363 C143 1.250 . S
C1378 C104 1.277 . S
C1390 C203 1.243 . S
C1405 C216 1.219 . S
C1417 C13 1.293 . S
C1432 C229 1.285 . S
C1444 C0 1.240 . S
C1459 C242 1.311 . S
C1471 C39 1.269 . S
C1486 C255 1.219 . S
C1498 C26 1.289 . S
C1513 C268 1.272 . S
C1525 C86 1.321 . S
C1540 C281 1.248 . S
C1552 C60 1.263 . S
C1567 C73 1.305 . S
C1579 C294 1.213 . S
C1594 C307 1.261 . S
C1606 C99 1.258 . S
