# Generated by pormake.
# Topology sod, (4)-cn, num edge types: 1
# Building blocks:
#     Node 0, Type 0, BuildingBlock: GALJAG_clean_sbu_0, # of connection points: 4
#     Node 1, Type 0, BuildingBlock: GALJAG_clean_sbu_0, # of connection points: 4
#     Node 2, Type 0, BuildingBlock: GALJAG_clean_sbu_0, # of connection points: 4
#     Node 3, Type 0, BuildingBlock: GALJAG_clean_sbu_0, # of connection points: 4
#     Node 4, Type 0, BuildingBlock: GALJAG_clean_sbu_0, # of connection points: 4
#     Node 5, Type 0, BuildingBlock: GALJAG_clean_sbu_0, # of connection points: 4
#     Node 6, Type 0, BuildingBlock: GALJAG_clean_sbu_0, # of connection points: 4
#     Node 7, Type 0, BuildingBlock: GALJAG_clean_sbu_0, # of connection points: 4
#     Node 8, Type 0, BuildingBlock: GALJAG_clean_sbu_0, # of connection points: 4
#     Node 9, Type 0, BuildingBlock: GALJAG_clean_sbu_0, # of connection points: 4
#     Node 10, Type 0, BuildingBlock: GALJAG_clean_sbu_0, # of connection points: 4
#     Node 11, Type 0, BuildingBlock: GALJAG_clean_sbu_0, # of connection points: 4
#     Edge 12, Type (0, 0), BuildingBlock: XIVTED_clean_linker_0, # of connection points: 2
#     Edge 13, Type (0, 0), BuildingBlock: XIVTED_clean_linker_0, # of connection points: 2
#     Edge 14, Type (0, 0), BuildingBlock: XIVTED_clean_linker_0, # of connection points: 2
#     Edge 15, Type (0, 0), BuildingBlock: XIVTED_clean_linker_0, # of connection points: 2
#     Edge 16, Type (0, 0), BuildingBlock: XIVTED_clean_linker_0, # of connection points: 2
#     Edge 17, Type (0, 0), BuildingBlock: XIVTED_clean_linker_0, # of connection points: 2
#     Edge 18, Type (0, 0), BuildingBlock: XIVTED_clean_linker_0, # of connection points: 2
#     Edge 19, Type (0, 0), BuildingBlock: XIVTED_clean_linker_0, # of connection points: 2
#     Edge 20, Type (0, 0), BuildingBlock: XIVTED_clean_linker_0, # of connection points: 2
#     Edge 21, Type (0, 0), BuildingBlock: XIVTED_clean_linker_0, # of connection points: 2
#     Edge 22, Type (0, 0), BuildingBlock: XIVTED_clean_linker_0, # of connection points: 2
#     Edge 23, Type (0, 0), BuildingBlock: XIVTED_clean_linker_0, # of connection points: 2
#     Edge 24, Type (0, 0), BuildingBlock: XIVTED_clean_linker_0, # of connection points: 2
#     Edge 25, Type (0, 0), BuildingBlock: XIVTED_clean_linker_0, # of connection points: 2
#     Edge 26, Type (0, 0), BuildingBlock: XIVTED_clean_linker_0, # of connection points: 2
#     Edge 27, Type (0, 0), BuildingBlock: XIVTED_clean_linker_0, # of connection points: 2
#     Edge 28, Type (0, 0), BuildingBlock: XIVTED_clean_linker_0, # of connection points: 2
#     Edge 29, Type (0, 0), BuildingBlock: XIVTED_clean_linker_0, # of connection points: 2
#     Edge 30, Type (0, 0), BuildingBlock: XIVTED_clean_linker_0, # of connection points: 2
#     Edge 31, Type (0, 0), BuildingBlock: XIVTED_clean_linker_0, # of connection points: 2
#     Edge 32, Type (0, 0), BuildingBlock: XIVTED_clean_linker_0, # of connection points: 2
#     Edge 33, Type (0, 0), BuildingBlock: XIVTED_clean_linker_0, # of connection points: 2
#     Edge 34, Type (0, 0), BuildingBlock: XIVTED_clean_linker_0, # of connection points: 2
#     Edge 35, Type (0, 0), BuildingBlock: XIVTED_clean_linker_0, # of connection points: 2
# Relax obj value: 0.078
# Max RMSD: 0.153
# Mean RMSD: 0.153
data_MOF--net-sod--node1-GALJAG_clean_sbu_0--edge1-XIVTED_clean_linker_0
_symmetry_space_group_name_H-M    P1
_symmetry_Int_Tables_number       1
_symmetry_cell_setting            triclinic
loop_
_symmetry_equiv_pos_as_xyz
'x, y, z'
_cell_length_a     43.625264
_cell_length_b     43.549419
_cell_length_c     43.587418
_cell_angle_alpha  90.007058
_cell_angle_beta   89.99738
_cell_angle_gamma 89.969191
loop_
_atom_site_label
_atom_site_type_symbol
_atom_site_fract_x
_atom_site_fract_y
_atom_site_fract_z
_atom_type_partial_charge
In0 In 0.99115 0.24576 0.49805 0.0
O1 O 0.95635 0.2147 0.52192 0.0
O2 O 0.95642 0.21545 0.47323 0.0
C3 C 0.99083 0.28625 0.54502 0.0
C4 C 0.03832 0.20557 0.4982 0.0
C5 C 0.99199 0.28657 0.45139 0.0
O6 O 0.96654 0.27665 0.5326 0.0
O7 O 0.01517 0.27531 0.5339 0.0
O8 O 0.01609 0.27567 0.46309 0.0
O9 O 0.96743 0.2768 0.46311 0.0
C10 C 0.94481 0.2046 0.49739 0.0
O11 O 0.02648 0.21585 0.52253 0.0
O12 O 0.02643 0.2156 0.47381 0.0
In13 In 0.74619 0.99088 0.4906 0.0
O14 O 0.71509 0.96698 0.52533 0.0
O15 O 0.71663 0.01571 0.52591 0.0
C16 C 0.7871 0.94426 0.49059 0.0
C17 C 0.70556 0.99112 0.44382 0.0
C18 C 0.78651 0.0379 0.49135 0.0
O19 O 0.77584 0.95521 0.51489 0.0
O20 O 0.77752 0.9566 0.46624 0.0
O21 O 0.77615 0.02663 0.46679 0.0
O22 O 0.77649 0.02552 0.5155 0.0
C23 C 0.70558 0.99154 0.53737 0.0
O24 O 0.7165 0.01539 0.45518 0.0
O25 O 0.7153 0.96666 0.45585 0.0
In26 In 0.0013 0.74603 0.49663 0.0
O27 O 0.02417 0.71645 0.5334 0.0
O28 O 0.97561 0.71541 0.53038 0.0
C29 C 0.0477 0.78711 0.49665 0.0
C30 C 0.0027 0.70496 0.45022 0.0
C31 C 0.9541 0.78616 0.4957 0.0
O32 O 0.03533 0.77757 0.52099 0.0
O33 O 0.03688 0.77575 0.47236 0.0
O34 O 0.96661 0.77622 0.47157 0.0
O35 O 0.96533 0.77582 0.52028 0.0
C36 C -0.00063 0.70568 0.54366 0.0
O37 O 0.97821 0.71708 0.4597 0.0
O38 O 0.02657 0.71368 0.46402 0.0
In39 In 0.24636 0.00087 0.49639 0.0
O40 O 0.21682 0.96469 0.47276 0.0
O41 O 0.21569 0.96661 0.52143 0.0
C42 C 0.28648 -0.0007 0.4492 0.0
C43 C 0.20542 0.04747 0.49605 0.0
C44 C 0.2874 0.00144 0.5428 0.0
O45 O 0.27652 0.97536 0.46206 0.0
O46 O 0.2761 0.02408 0.46002 0.0
O47 O 0.27864 0.02561 0.52946 0.0
O48 O 0.27533 0.97709 0.53287 0.0
C49 C 0.20607 0.95382 0.49732 0.0
O50 O 0.21657 0.03666 0.52045 0.0
O51 O 0.21515 0.03502 0.47181 0.0
In52 In 0.4934 0.99381 0.24362 0.0
O53 O 0.5272 0.96823 0.27441 0.0
O54 O 0.52993 0.01689 0.27309 0.0
C55 C 0.49504 0.94746 0.20244 0.0
C56 C 0.44677 -0.00455 0.28441 0.0
C57 C 0.49217 0.04097 0.20341 0.0
O58 O 0.51884 0.96089 0.21185 0.0
O59 O 0.47037 0.95721 0.21398 0.0
O60 O 0.46826 0.02704 0.21184 0.0
O61 O 0.51664 0.03123 0.21536 0.0
C62 C 0.54037 0.99217 0.28396 0.0
O63 O 0.45939 0.01937 0.27414 0.0
O64 O 0.45748 0.97067 0.27395 0.0
In65 In 0.0003 0.49511 0.24723 0.0
O66 O 0.96571 0.47054 0.21651 0.0
O67 O 0.9643 0.51926 0.21797 0.0
C68 C -0.00089 0.44814 0.28771 0.0
C69 C 0.04674 0.49649 0.20622 0.0
C70 C 0.00108 0.5417 0.2881 0.0
O71 O 0.97513 0.46113 0.27809 0.0
O72 O 0.02371 0.45864 0.27674 0.0
O73 O 0.97671 0.53178 0.27613 0.0
O74 O 0.02515 0.52823 0.27937 0.0
C75 C 0.95315 0.49487 0.20709 0.0
O76 O 0.0348 0.52049 0.21713 0.0
O77 O 0.03546 0.47177 0.21618 0.0
In78 In 0.49919 0.00036 0.74335 0.0
O79 O 0.53568 0.0235 0.71378 0.0
O80 O 0.53203 0.97494 0.71147 0.0
C81 C 0.49873 0.04686 0.78439 0.0
C82 C 0.45207 0.00198 0.7032 0.0
C83 C 0.50015 0.9531 0.78348 0.0
O84 O 0.52318 0.03557 0.77384 0.0
O85 O 0.47453 0.03488 0.77408 0.0
O86 O 0.47559 0.96441 0.77319 0.0
O87 O 0.52425 0.96553 0.77345 0.0
C88 C 0.54543 -0.00116 0.70216 0.0
O89 O 0.46179 0.97737 0.71494 0.0
O90 O 0.46599 0.02584 0.71182 0.0
In91 In 0.99227 0.49668 0.74743 0.0
O92 O 0.02936 0.47354 0.77624 0.0
O93 O 0.02566 0.52211 0.77869 0.0
C94 C 0.99065 0.44959 0.7071 0.0
C95 C 0.94593 0.49552 0.78854 0.0
C96 C 0.99422 0.54328 0.70657 0.0
O97 O 0.01527 0.45959 0.71851 0.0
O98 O 0.96679 0.46321 0.71616 0.0
O99 O 0.96941 0.53288 0.71717 0.0
O100 O 0.018 0.53031 0.71668 0.0
C101 C 0.03933 0.49821 0.78764 0.0
O102 O 0.95596 0.52011 0.77705 0.0
O103 O 0.95905 0.47151 0.7791 0.0
In104 In 0.24617 0.50005 0.99328 0.0
O105 O 0.21611 0.47489 0.02789 0.0
O106 O 0.21612 0.52364 0.02916 0.0
C107 C 0.28691 0.45336 0.99419 0.0
C108 C 0.20521 0.4997 0.94678 0.0
C109 C 0.28668 0.54697 0.9926 0.0
O110 O 0.27626 0.4653 0.0183 0.0
O111 O 0.27694 0.46488 0.96959 0.0
O112 O 0.27668 0.53466 0.96841 0.0
O113 O 0.27603 0.53585 0.01708 0.0
C114 C 0.20593 0.49896 0.04035 0.0
O115 O 0.21411 0.52413 0.95952 0.0
O116 O 0.21715 0.47553 0.95731 0.0
In117 In 0.49352 0.24717 -0.00322 0.0
O118 O 0.51754 0.21764 0.03271 0.0
O119 O 0.46896 0.21563 0.03068 0.0
C120 C 0.54054 0.28747 -0.00218 0.0
C121 C 0.49399 0.20684 0.94971 0.0
C122 C 0.44711 0.28825 -0.00441 0.0
O123 O 0.5271 0.27859 0.02185 0.0
O124 O 0.53037 0.27593 0.97331 0.0
O125 O 0.46 0.27851 0.97159 0.0
O126 O 0.45744 0.2771 0.02021 0.0
C127 C 0.4932 0.20623 0.04335 0.0
O128 O 0.46953 0.21737 0.96102 0.0
O129 O 0.5182 0.21674 0.96205 0.0
In130 In 0.74637 0.49418 0.00143 0.0
O131 O 0.71718 0.45788 0.97759 0.0
O132 O 0.71439 0.46081 0.02613 0.0
C133 C 0.78686 0.4949 0.95455 0.0
C134 C 0.70617 0.54135 6e-05 0.0
C135 C 0.7871 0.49333 0.04814 0.0
O136 O 0.77668 0.47032 0.96598 0.0
O137 O 0.77655 0.51908 0.96669 0.0
O138 O 0.77638 0.51789 0.03718 0.0
O139 O 0.77707 0.46917 0.03576 0.0
C140 C 0.70536 0.44772 0.00196 0.0
O141 O 0.7168 0.53064 0.02477 0.0
O142 O 0.7159 0.52837 0.97611 0.0
In143 In 0.49917 0.74693 0.99014 0.0
O144 O 0.46365 0.71692 0.01405 0.0
O145 O 0.46466 0.71628 0.96534 0.0
C146 C 0.49799 0.78757 0.03695 0.0
C147 C 0.54596 0.70625 0.99148 0.0
C148 C 0.49924 0.78767 0.94338 0.0
O149 O 0.474 0.77626 0.02544 0.0
O150 O 0.52263 0.77831 0.02494 0.0
O151 O 0.52358 0.7776 0.95533 0.0
O152 O 0.47493 0.77701 0.95482 0.0
C153 C 0.45239 0.70635 0.98959 0.0
O154 O 0.53446 0.716 0.96679 0.0
O155 O 0.53404 0.71718 0.01547 0.0
H156 H 0.94319 0.31405 0.42315 0.0
H157 H 0.04772 0.41737 0.31271 0.0
H158 H 0.04205 0.31083 0.42254 0.0
H159 H 0.94894 0.42214 0.31483 0.0
H160 H 0.04607 0.37706 0.35172 0.0
H161 H 0.94473 0.35248 0.38228 0.0
C162 C 0.96522 0.3214 0.41435 0.0
C163 C 0.99254 0.3093 0.42626 0.0
C164 C 0.02474 0.38686 0.34362 0.0
C165 C 0.99451 0.35327 0.37953 0.0
C166 C 0.02568 0.40986 0.32133 0.0
C167 C -0.00157 0.42313 0.31058 0.0
C168 C -0.00366 0.37708 0.35525 0.0
C169 C 0.9705 0.41254 0.32252 0.0
C170 C 0.9661 0.34334 0.39103 0.0
C171 C 0.02045 0.3196 0.41403 0.0
N172 N 0.97018 0.39017 0.34426 0.0
N173 N 0.02071 0.34103 0.39136 0.0
H174 H 0.68146 0.04099 0.41445 0.0
H175 H 0.56663 0.94181 0.31075 0.0
H176 H 0.67724 0.94202 0.41679 0.0
H177 H 0.57171 0.04073 0.30821 0.0
H178 H 0.60794 0.94121 0.3487 0.0
H179 H 0.64215 0.0412 0.37453 0.0
C180 C 0.67231 0.01929 0.40648 0.0
C181 C 0.68256 0.99144 0.41897 0.0
C182 C 0.60008 0.96305 0.3398 0.0
C183 C 0.63749 0.99149 0.37334 0.0
C184 C 0.57649 0.9634 0.31815 0.0
C185 C 0.56571 0.99137 0.30639 0.0
C186 C 0.61294 0.99088 0.34979 0.0
C187 C 0.57932 0.01865 0.31673 0.0
C188 C 0.64985 0.01942 0.3837 0.0
C189 C 0.66995 0.96401 0.40779 0.0
N190 N 0.60218 0.01773 0.33787 0.0
N191 N 0.64801 0.96472 0.38565 0.0
H192 H 0.95218 0.5743 0.30977 0.0
H193 H 0.05241 0.67485 0.42651 0.0
H194 H 0.05039 0.56607 0.31831 0.0
H195 H 0.95422 0.68273 0.41742 0.0
H196 H 0.05246 0.63585 0.38609 0.0
H197 H 0.95274 0.61497 0.34835 0.0
C198 C 0.97388 0.58111 0.31974 0.0
C199 C 0.00128 0.56677 0.31089 0.0
C200 C 0.03091 0.64616 0.39288 0.0
C201 C 0.00211 0.61328 0.35512 0.0
C202 C 0.03088 0.66842 0.41594 0.0
C203 C 0.00325 0.68197 0.42534 0.0
C204 C 0.00312 0.63739 0.37916 0.0
C205 C 0.97603 0.67282 0.41089 0.0
C206 C 0.9742 0.60434 0.34177 0.0
C207 C 0.02874 0.57652 0.32452 0.0
N208 N 0.97664 0.65106 0.38857 0.0
N209 N 0.02846 0.59914 0.34601 0.0
H210 H 0.31172 0.94869 0.42206 0.0
H211 H 0.41975 0.04608 0.30977 0.0
H212 H 0.3123 0.04772 0.41873 0.0
H213 H 0.41738 0.94704 0.31144 0.0
H214 H 0.37969 0.04718 0.34898 0.0
H215 H 0.34975 0.9476 0.3809 0.0
C216 C 0.31981 0.97021 0.4126 0.0
C217 C 0.3089 -0.00166 0.42385 0.0
C218 C 0.38786 0.0252 0.34073 0.0
C219 C 0.35247 -0.00271 0.37677 0.0
C220 C 0.41072 0.02456 0.31834 0.0
C221 C 0.42193 -0.00358 0.3074 0.0
C222 C 0.37615 -0.00252 0.35232 0.0
C223 C 0.40941 0.96924 0.31927 0.0
C224 C 0.34153 0.96958 0.3891 0.0
C225 C 0.32014 0.02552 0.41075 0.0
N226 N 0.38725 0.97044 0.34115 0.0
N227 N 0.34137 0.02432 0.38795 0.0
H228 H 0.04497 0.56995 0.68129 0.0
H229 H 0.94865 0.68001 0.56997 0.0
H230 H 0.94612 0.57338 0.6798 0.0
H231 H 0.04747 0.6796 0.57439 0.0
H232 H 0.94724 0.64136 0.6106 0.0
H233 H 0.04639 0.6105 0.64254 0.0
C234 C 0.02356 0.5793 0.67285 0.0
C235 C -0.00462 0.56828 0.68372 0.0
C236 C 0.96924 0.64977 0.60276 0.0
C237 C -0.0032 0.61462 0.63933 0.0
C238 C 0.97006 0.67183 0.57957 0.0
C239 C -0.00177 0.68297 0.56878 0.0
C240 C -0.00319 0.63869 0.61523 0.0
C241 C 0.02525 0.6716 0.58203 0.0
C242 C 0.02438 0.60246 0.65073 0.0
C243 C 0.96834 0.58121 0.67202 0.0
N244 N 0.02387 0.65002 0.60451 0.0
N245 N 0.96973 0.60365 0.65039 0.0
H246 H 0.42786 0.05196 0.67386 0.0
H247 H 0.30919 0.95232 0.57505 0.0
H248 H 0.41879 0.95358 0.68134 0.0
H249 H 0.31803 0.05067 0.56694 0.0
H250 H 0.34833 0.95261 0.61511 0.0
H251 H 0.38673 0.05229 0.6357 0.0
C252 C 0.41714 0.03044 0.66752 0.0
C253 C 0.42676 0.00269 0.68072 0.0
C254 C 0.34169 0.97415 0.60464 0.0
C255 C 0.37976 0.00287 0.63708 0.0
C256 C 0.31933 0.97399 0.58177 0.0
C257 C 0.31042 0.0015 0.56763 0.0
C258 C 0.3553 0.00203 0.61343 0.0
C259 C 0.32428 0.02893 0.57725 0.0
C260 C 0.39368 0.03064 0.64574 0.0
C261 C 0.41211 0.97549 0.67169 0.0
N262 N 0.34609 0.0285 0.59952 0.0
N263 N 0.38938 0.97626 0.6504 0.0
H264 H 0.04025 0.30945 0.57566 0.0
H265 H 0.94058 0.42441 0.67892 0.0
H266 H 0.94157 0.31485 0.57146 0.0
H267 H 0.03913 0.41747 0.68376 0.0
H268 H 0.9402 0.38351 0.64042 0.0
H269 H 0.04009 0.34818 0.6162 0.0
C270 C 0.01853 0.31875 0.58334 0.0
C271 C 0.99088 0.30899 0.57015 0.0
C272 C 0.9619 0.39087 0.64996 0.0
C273 C 0.9905 0.35341 0.61651 0.0
C274 C 0.96213 0.4142 0.67193 0.0
C275 C 0.98994 0.42436 0.68448 0.0
C276 C 0.98971 0.37764 0.64044 0.0
C277 C 0.01718 0.41035 0.67464 0.0
C278 C 0.01844 0.34087 0.60649 0.0
C279 C 0.96341 0.32177 0.581 0.0
N280 N 0.01638 0.38776 0.65316 0.0
N281 N 0.96391 0.34339 0.6035 0.0
H282 H 0.57699 0.04731 0.67791 0.0
H283 H 0.67745 0.94264 0.56486 0.0
H284 H 0.56995 0.94857 0.6737 0.0
H285 H 0.68226 0.04159 0.56713 0.0
H286 H 0.63927 0.94416 0.60592 0.0
H287 H 0.61689 0.04555 0.63856 0.0
C288 C 0.58391 0.02525 0.66875 0.0
C289 C 0.57013 -0.00196 0.67902 0.0
C290 C 0.6487 0.96554 0.59749 0.0
C291 C 0.61572 -0.00417 0.63396 0.0
C292 C 0.67051 0.96468 0.57406 0.0
C293 C 0.68297 0.99204 0.56256 0.0
C294 C 0.63932 0.99398 0.60951 0.0
C295 C 0.67319 0.01995 0.57531 0.0
C296 C 0.60667 0.02425 0.64627 0.0
C297 C 0.57997 0.97009 0.66639 0.0
N298 N 0.65191 0.02021 0.59807 0.0
N299 N 0.60213 0.96971 0.64448 0.0
H300 H 0.42116 0.3154 0.94538 0.0
H301 H 0.31126 0.42463 0.04432 0.0
H302 H 0.41698 0.31389 0.04428 0.0
H303 H 0.31401 0.42476 0.94536 0.0
H304 H 0.34939 0.38348 0.04478 0.0
H305 H 0.38128 0.35484 0.94484 0.0
C306 C 0.41177 0.32332 0.96698 0.0
C307 C 0.4224 0.31141 0.99492 0.0
C308 C 0.34162 0.39245 0.02295 0.0
C309 C 0.37682 0.3566 0.99451 0.0
C310 C 0.31986 0.41595 0.02268 0.0
C311 C 0.30952 0.42813 0.99476 0.0
C312 C 0.35317 0.38109 0.99508 0.0
C313 C 0.3214 0.41603 0.9674 0.0
C314 C 0.38901 0.34585 0.96667 0.0
C315 C 0.40944 0.32248 0.02223 0.0
N316 N 0.34264 0.39321 0.96825 0.0
N317 N 0.38738 0.34451 0.02134 0.0
H318 H 0.31177 0.57657 0.04181 0.0
H319 H 0.42466 0.67981 0.93992 0.0
H320 H 0.31415 0.57367 0.94288 0.0
H321 H 0.42248 0.68181 0.03888 0.0
H322 H 0.38321 0.64199 0.94035 0.0
H323 H 0.35126 0.61632 0.04107 0.0
C324 C 0.32055 0.58439 0.01992 0.0
C325 C 0.30973 0.57178 0.99237 0.0
C326 C 0.39176 0.65073 0.96197 0.0
C327 C 0.35501 0.61722 0.99131 0.0
C328 C 0.41541 0.67232 0.96173 0.0
C329 C 0.42704 0.6839 0.98941 0.0
C330 C 0.37966 0.64065 0.9901 0.0
C331 C 0.41422 0.67344 0.01701 0.0
C332 C 0.34311 0.60707 0.0195 0.0
C333 C 0.32188 0.58277 0.96466 0.0
N334 N 0.39125 0.65238 0.01665 0.0
N335 N 0.34393 0.60481 0.96484 0.0
H336 H 0.57282 0.30993 0.94904 0.0
H337 H 0.67589 0.42264 0.05135 0.0
H338 H 0.5658 0.31615 0.0476 0.0
H339 H 0.68222 0.41657 0.95274 0.0
H340 H 0.63656 0.38262 0.0507 0.0
H341 H 0.61396 0.34798 0.95013 0.0
C342 C 0.58 0.31928 0.97092 0.0
C343 C 0.56586 0.30994 -0.00173 0.0
C344 C 0.6466 0.38998 0.02921 0.0
C345 C 0.6129 0.35353 -0.00029 0.0
C346 C 0.66906 0.4128 0.02958 0.0
C347 C 0.68227 0.42295 0.00205 0.0
C348 C 0.63728 0.37723 0.0011 0.0
C349 C 0.67259 0.40944 0.97449 0.0
C350 C 0.60348 0.341 0.97154 0.0
C351 C 0.57607 0.32276 0.02597 0.0
N352 N 0.65064 0.38732 0.97471 0.0
N353 N 0.59893 0.34395 0.02599 0.0
H354 H 0.68114 0.57234 0.04856 0.0
H355 H 0.57447 0.67858 0.94293 0.0
H356 H 0.68016 0.56806 0.94966 0.0
H357 H 0.57393 0.68154 0.04188 0.0
H358 H 0.61453 0.63934 0.94487 0.0
H359 H 0.64313 0.61361 0.04659 0.0
C360 C 0.67296 0.58015 0.02643 0.0
C361 C 0.68375 0.56674 -0.00077 0.0
C362 C 0.60572 0.64861 0.96617 0.0
C363 C 0.64026 0.6139 -0.00323 0.0
C364 C 0.58287 0.67103 0.96506 0.0
C365 C 0.57084 0.68326 0.99229 0.0
C366 C 0.61662 0.63833 0.99472 0.0
C367 C 0.58255 0.67267 0.02034 0.0
C368 C 0.65127 0.60369 0.02531 0.0
C369 C 0.67241 0.57774 0.97118 0.0
N370 N 0.60475 0.65077 0.02083 0.0
N371 N 0.65125 0.60064 0.97068 0.0
H372 H 0.44968 0.81273 0.9144 0.0
H373 H 0.55008 0.92533 0.80938 0.0
H374 H 0.54855 0.81508 0.91592 0.0
H375 H 0.4512 0.92305 0.80851 0.0
H376 H 0.55015 0.88393 0.84731 0.0
H377 H 0.44988 0.85206 0.87443 0.0
C378 C 0.47144 0.82147 0.90624 0.0
C379 C 0.49914 0.81069 0.91852 0.0
C380 C 0.52844 0.89243 0.83878 0.0
C381 C 0.49957 0.85578 0.87283 0.0
C382 C 0.52839 0.91605 0.81713 0.0
C383 C 0.50059 0.92766 0.80586 0.0
C384 C 0.50047 0.88034 0.84924 0.0
C385 C 0.47316 0.9148 0.81665 0.0
C386 C 0.47155 0.84395 0.88343 0.0
C387 C 0.52667 0.82279 0.90709 0.0
N388 N 0.47379 0.89188 0.83778 0.0
N389 N 0.52619 0.84475 0.88493 0.0
H390 H 0.18257 0.44991 0.91615 0.0
H391 H 0.06444 0.54848 0.81554 0.0
H392 H 0.17513 0.54858 0.92131 0.0
H393 H 0.07195 0.4498 0.81063 0.0
H394 H 0.10587 0.54918 0.85333 0.0
H395 H 0.14306 0.44956 0.87641 0.0
C396 C 0.17267 0.47152 0.90884 0.0
C397 C 0.18208 0.49932 0.92206 0.0
C398 C 0.09852 0.52737 0.84395 0.0
C399 C 0.13679 0.49911 0.87666 0.0
C400 C 0.07487 0.52696 0.82238 0.0
C401 C 0.06474 0.49903 0.81 0.0
C402 C 0.11211 0.49963 0.85323 0.0
C403 C 0.07905 0.47184 0.81964 0.0
C404 C 0.1501 0.47131 0.88616 0.0
C405 C 0.16851 0.52663 0.91172 0.0
N406 N 0.10198 0.47282 0.84072 0.0
N407 N 0.14649 0.52584 0.88968 0.0
H408 H 0.54787 0.07546 0.81079 0.0
H409 H 0.44485 0.18163 0.92005 0.0
H410 H 0.44896 0.07452 0.81066 0.0
H411 H 0.54375 0.18095 0.92171 0.0
H412 H 0.44587 0.14362 0.87876 0.0
H413 H 0.54686 0.11541 0.8502 0.0
C414 C 0.52594 0.08374 0.81901 0.0
C415 C 0.49846 0.07164 0.80751 0.0
C416 C 0.46736 0.15181 0.88811 0.0
C417 C 0.4971 0.11729 0.85263 0.0
C418 C 0.46679 0.17351 0.91167 0.0
C419 C 0.49427 0.18438 0.92434 0.0
C420 C 0.49563 0.1409 0.87714 0.0
C421 C 0.52203 0.17313 0.91261 0.0
C422 C 0.52537 0.10653 0.84152 0.0
C423 C 0.47069 0.0832 0.81894 0.0
N424 N 0.522 0.15196 0.8897 0.0
N425 N 0.47072 0.10534 0.84091 0.0
H426 H 0.92032 0.44537 0.81618 0.0
H427 H 0.81138 0.54494 0.9258 0.0
H428 H 0.91574 0.54433 0.81394 0.0
H429 H 0.81343 0.44587 0.92572 0.0
H430 H 0.84921 0.54518 0.88443 0.0
H431 H 0.88071 0.44502 0.85587 0.0
C432 C 0.91089 0.46703 0.82399 0.0
C433 C 0.92134 0.49493 0.81181 0.0
C434 C 0.84135 0.52337 0.8934 0.0
C435 C 0.87609 0.49473 0.85727 0.0
C436 C 0.81977 0.52323 0.91702 0.0
C437 C 0.80931 0.49534 0.92921 0.0
C438 C 0.85262 0.49541 0.88191 0.0
C439 C 0.82091 0.46789 0.91699 0.0
C440 C 0.88829 0.46682 0.84665 0.0
C441 C 0.90834 0.5223 0.82274 0.0
N442 N 0.842 0.46862 0.89405 0.0
N443 N 0.88645 0.52152 0.8449 0.0
H444 H 0.44239 0.06584 0.17444 0.0
H445 H 0.54247 0.18313 0.0744 0.0
H446 H 0.54075 0.07375 0.18127 0.0
H447 H 0.44393 0.17679 0.06866 0.0
H448 H 0.54214 0.14381 0.11438 0.0
H449 H 0.44227 0.10713 0.1364 0.0
C450 C 0.46395 0.07633 0.16798 0.0
C451 C 0.49163 0.06635 0.18096 0.0
C452 C 0.52057 0.15105 0.10445 0.0
C453 C 0.4917 0.11354 0.13745 0.0
C454 C 0.52075 0.1735 0.08163 0.0
C455 C 0.49318 0.18317 0.06817 0.0
C456 C 0.49262 0.13809 0.11386 0.0
C457 C 0.4657 0.16996 0.07842 0.0
C458 C 0.46388 0.0999 0.14626 0.0
C459 C 0.5189 0.08073 0.17179 0.0
N460 N 0.46612 0.14803 0.10061 0.0
N461 N 0.51825 0.10355 0.15055 0.0
H462 H 0.92255 0.54436 0.18374 0.0
H463 H 0.81454 0.44341 0.07453 0.0
H464 H 0.92577 0.4454 0.17979 0.0
H465 H 0.81232 0.54241 0.07793 0.0
H466 H 0.85411 0.44348 0.11428 0.0
H467 H 0.88101 0.54398 0.14613 0.0
C468 C 0.91446 0.52254 0.17498 0.0
C469 C 0.92765 0.49487 0.18482 0.0
C470 C 0.84492 0.46519 0.1064 0.0
C471 C 0.88014 0.49424 0.14175 0.0
C472 C 0.82231 0.46516 0.08373 0.0
C473 C 0.8102 0.49295 0.07289 0.0
C474 C 0.8555 0.49324 0.1183 0.0
C475 C 0.82108 0.52046 0.0856 0.0
C476 C 0.89075 0.52233 0.1535 0.0
C477 C 0.91627 0.46727 0.17277 0.0
N478 N 0.84315 0.51991 0.10759 0.0
N479 N 0.8932 0.46765 0.15181 0.0
H480 H 0.44777 0.81041 0.06668 0.0
H481 H 0.5454 0.92289 0.17438 0.0
H482 H 0.5465 0.81606 0.06467 0.0
H483 H 0.44678 0.91608 0.17754 0.0
H484 H 0.54636 0.8831 0.13483 0.0
H485 H 0.44697 0.84846 0.10791 0.0
C486 C 0.46929 0.81964 0.07497 0.0
C487 C 0.49725 0.81012 0.06223 0.0
C488 C 0.5245 0.89024 0.14421 0.0
C489 C 0.49652 0.8537 0.10937 0.0
C490 C 0.52395 0.91294 0.1668 0.0
C491 C 0.49596 0.92281 0.1792 0.0
C492 C 0.49685 0.87733 0.1339 0.0
C493 C 0.46886 0.90915 0.16856 0.0
C494 C 0.46882 0.84136 0.09851 0.0
C495 C 0.52444 0.82279 0.07384 0.0
N496 N 0.46997 0.88715 0.14647 0.0
N497 N 0.52339 0.84397 0.09672 0.0
H498 H 0.18095 0.44861 0.06811 0.0
H499 H 0.07416 0.54693 0.18095 0.0
H500 H 0.17999 0.54767 0.07033 0.0
H501 H 0.07532 0.44788 0.17868 0.0
H502 H 0.11389 0.54773 0.14139 0.0
H503 H 0.14316 0.44788 0.1095 0.0
C504 C 0.17281 0.47021 0.07736 0.0
C505 C 0.18356 0.49825 0.06575 0.0
C506 C 0.10553 0.52581 0.14958 0.0
C507 C 0.14029 0.49761 0.1131 0.0
C508 C 0.08286 0.52535 0.17218 0.0
C509 C 0.07141 0.49729 0.18305 0.0
C510 C 0.1168 0.498 0.13773 0.0
C511 C 0.08349 0.47002 0.17091 0.0
C512 C 0.15124 0.46979 0.101 0.0
C513 C 0.17227 0.52555 0.0786 0.0
N514 N 0.10549 0.47106 0.14885 0.0
N515 N 0.15121 0.52455 0.10155 0.0
H516 H 0.81547 0.91767 0.44133 0.0
H517 H 0.92323 0.81031 0.54463 0.0
H518 H 0.81174 0.91493 0.54022 0.0
H519 H 0.92681 0.81249 0.44571 0.0
H520 H 0.88147 0.84773 0.54339 0.0
H521 H 0.85532 0.87815 0.44231 0.0
C522 C 0.82297 0.90866 0.46324 0.0
C523 C 0.81035 0.91962 0.49074 0.0
C524 C 0.89133 0.84 0.52194 0.0
C525 C 0.85597 0.87449 0.49207 0.0
C526 C 0.91518 0.81865 0.52264 0.0
C527 C 0.92852 0.80835 0.49523 0.0
C528 C 0.88077 0.8512 0.49361 0.0
C529 C 0.91718 0.81987 0.46739 0.0
C530 C 0.84573 0.88612 0.4638 0.0
C531 C 0.82089 0.90715 0.51848 0.0
N532 N 0.89399 0.84072 0.46729 0.0
N533 N 0.84314 0.88531 0.51844 0.0
H534 H 0.91701 0.17703 0.54639 0.0
H535 H 0.81151 0.06813 0.44241 0.0
H536 H 0.9169 0.17901 0.44741 0.0
H537 H 0.8123 0.06555 0.54137 0.0
H538 H 0.84912 0.10973 0.44376 0.0
H539 H 0.87754 0.1372 0.54507 0.0
C540 C 0.90859 0.16914 0.52438 0.0
C541 C 0.92026 0.18128 0.49696 0.0
C542 C 0.84104 0.10011 0.46519 0.0
C543 C 0.87517 0.13567 0.49525 0.0
C544 C 0.81958 0.07637 0.46443 0.0
C545 C 0.80884 0.06336 0.49182 0.0
C546 C 0.85186 0.11092 0.49357 0.0
C547 C 0.82002 0.07491 0.5197 0.0
C548 C 0.88608 0.14639 0.52363 0.0
C549 C 0.90855 0.17024 0.46909 0.0
N550 N 0.84096 0.098 0.51986 0.0
N551 N 0.88669 0.14801 0.46895 0.0
H552 H 0.07757 0.81118 0.44709 0.0
H553 H 0.17912 0.92712 0.54727 0.0
H554 H 0.07367 0.81608 0.54589 0.0
H555 H 0.18225 0.92263 0.44842 0.0
H556 H 0.1415 0.8855 0.5474 0.0
H557 H 0.11707 0.85095 0.44723 0.0
C558 C 0.08511 0.82057 0.46883 0.0
C559 C 0.0723 0.81038 0.49652 0.0
C560 C 0.15045 0.89357 0.52568 0.0
C561 C 0.11744 0.85596 0.49688 0.0
C562 C 0.17192 0.91732 0.5256 0.0
C563 C 0.18375 0.92836 0.49778 0.0
C564 C 0.14074 0.88076 0.49773 0.0
C565 C 0.17366 0.91483 0.47038 0.0
C566 C 0.10765 0.84329 0.4689 0.0
C567 C 0.08292 0.82331 0.52401 0.0
N568 N 0.1527 0.89177 0.47104 0.0
N569 N 0.10483 0.84549 0.5235 0.0
H570 H 0.06801 0.1812 0.54778 0.0
H571 H 0.17776 0.074 0.44641 0.0
H572 H 0.06673 0.17937 0.4488 0.0
H573 H 0.17999 0.07679 0.54535 0.0
H574 H 0.13788 0.11346 0.44676 0.0
H575 H 0.10977 0.14373 0.54737 0.0
C576 C 0.07656 0.17293 0.52596 0.0
C577 C 0.06388 0.18334 0.49828 0.0
C578 C 0.14714 0.10553 0.46841 0.0
C579 C 0.11162 0.14045 0.49761 0.0
C580 C 0.16992 0.08302 0.46821 0.0
C581 C 0.18214 0.07209 0.4959 0.0
C582 C 0.13645 0.11717 0.49651 0.0
C583 C 0.17116 0.08456 0.52347 0.0
C584 C 0.10041 0.15155 0.52573 0.0
C585 C 0.07585 0.17191 0.47067 0.0
N586 N 0.14888 0.10638 0.52308 0.0
N587 N 0.09901 0.15104 0.47104 0.0
loop_
_geom_bond_atom_site_label_1
_geom_bond_atom_site_label_2
_geom_bond_distance
_geom_bond_site_symmetry_2
_ccdc_geom_bond_type
In0 O1 2.294 1_455 S
In0 O2 2.326 1_455 S
In0 O6 2.266 1_455 S
In0 O7 2.326 . S
In0 O8 2.266 . S
In0 O9 2.326 1_455 S
In0 O11 2.294 . S
In0 O12 2.326 . S
O1 In0 2.294 1_655 S
O1 C10 1.240 . S
O2 In0 2.326 1_655 S
O2 C10 1.252 . S
C3 O6 1.252 1_455 S
C3 O7 1.260 . S
C4 O11 1.240 . S
C4 O12 1.252 . S
C5 O8 1.252 1_655 S
C5 O9 1.260 . S
O6 In0 2.266 1_655 S
O6 C3 1.252 1_655 S
O7 In0 2.326 . S
O7 C3 1.260 . S
O8 In0 2.266 . S
O8 C5 1.252 1_455 S
O9 In0 2.326 1_655 S
O9 C5 1.260 . S
C10 O1 1.240 . S
C10 O2 1.252 . S
O11 In0 2.294 . S
O11 C4 1.240 . S
O12 In0 2.326 . S
O12 C4 1.252 . S
In13 O14 2.294 1_545 S
In13 O15 2.326 . S
In13 O19 2.266 1_545 S
In13 O20 2.326 1_545 S
In13 O21 2.266 . S
In13 O22 2.326 . S
In13 O24 2.294 . S
In13 O25 2.326 1_545 S
O14 In13 2.294 1_565 S
O14 C23 1.240 1_565 S
O15 In13 2.326 . S
O15 C23 1.252 . S
C16 O19 1.252 . S
C16 O20 1.260 . S
C17 O24 1.240 1_565 S
C17 O25 1.252 . S
C18 O21 1.252 . S
C18 O22 1.260 . S
O19 In13 2.266 1_565 S
O19 C16 1.252 . S
O20 In13 2.326 1_565 S
O20 C16 1.260 . S
O21 In13 2.266 . S
O21 C18 1.252 . S
O22 In13 2.326 . S
O22 C18 1.260 . S
C23 O14 1.240 1_545 S
C23 O15 1.252 . S
O24 In13 2.294 . S
O24 C17 1.240 1_545 S
O25 In13 2.326 1_565 S
O25 C17 1.252 . S
In26 O27 2.294 . S
In26 O28 2.326 1_455 S
In26 O32 2.266 . S
In26 O33 2.326 . S
In26 O34 2.266 1_455 S
In26 O35 2.326 1_455 S
In26 O37 2.294 1_455 S
In26 O38 2.326 . S
O27 In26 2.294 . S
O27 C36 1.240 1_455 S
O28 In26 2.326 1_655 S
O28 C36 1.252 . S
C29 O32 1.252 . S
C29 O33 1.260 . S
C30 O37 1.240 1_455 S
C30 O38 1.252 . S
C31 O34 1.252 . S
C31 O35 1.260 . S
O32 In26 2.266 . S
O32 C29 1.252 . S
O33 In26 2.326 . S
O33 C29 1.260 . S
O34 In26 2.266 1_655 S
O34 C31 1.252 . S
O35 In26 2.326 1_655 S
O35 C31 1.260 . S
C36 O27 1.240 1_655 S
C36 O28 1.252 . S
O37 In26 2.294 1_655 S
O37 C30 1.240 1_655 S
O38 In26 2.326 . S
O38 C30 1.252 . S
In39 O40 2.294 1_545 S
In39 O41 2.326 1_545 S
In39 O45 2.266 1_545 S
In39 O46 2.326 . S
In39 O47 2.266 . S
In39 O48 2.326 1_545 S
In39 O50 2.294 . S
In39 O51 2.326 . S
O40 In39 2.294 1_565 S
O40 C49 1.240 . S
O41 In39 2.326 1_565 S
O41 C49 1.252 . S
C42 O45 1.252 1_545 S
C42 O46 1.260 . S
C43 O50 1.240 . S
C43 O51 1.252 . S
C44 O47 1.252 1_565 S
C44 O48 1.260 . S
O45 In39 2.266 1_565 S
O45 C42 1.252 1_565 S
O46 In39 2.326 . S
O46 C42 1.260 . S
O47 In39 2.266 . S
O47 C44 1.252 1_545 S
O48 In39 2.326 1_565 S
O48 C44 1.260 . S
C49 O40 1.240 . S
C49 O41 1.252 . S
O50 In39 2.294 . S
O50 C43 1.240 . S
O51 In39 2.326 . S
O51 C43 1.252 . S
In52 O53 2.294 1_545 S
In52 O54 2.326 . S
In52 O58 2.266 1_545 S
In52 O59 2.326 1_545 S
In52 O60 2.266 . S
In52 O61 2.326 . S
In52 O63 2.294 . S
In52 O64 2.326 1_545 S
O53 In52 2.294 1_565 S
O53 C62 1.240 1_565 S
O54 In52 2.326 . S
O54 C62 1.252 . S
C55 O58 1.252 . S
C55 O59 1.260 . S
C56 O63 1.240 1_565 S
C56 O64 1.252 . S
C57 O60 1.252 . S
C57 O61 1.260 . S
O58 In52 2.266 1_565 S
O58 C55 1.252 . S
O59 In52 2.326 1_565 S
O59 C55 1.260 . S
O60 In52 2.266 . S
O60 C57 1.252 . S
O61 In52 2.326 . S
O61 C57 1.260 . S
C62 O53 1.240 1_545 S
C62 O54 1.252 . S
O63 In52 2.294 . S
O63 C56 1.240 1_545 S
O64 In52 2.326 1_565 S
O64 C56 1.252 . S
In65 O66 2.294 1_455 S
In65 O67 2.326 1_455 S
In65 O71 2.266 1_455 S
In65 O72 2.326 . S
In65 O73 2.266 . S
In65 O74 2.326 1_455 S
In65 O76 2.294 . S
In65 O77 2.326 . S
O66 In65 2.294 1_655 S
O66 C75 1.240 . S
O67 In65 2.326 1_655 S
O67 C75 1.252 . S
C68 O71 1.252 1_455 S
C68 O72 1.260 . S
C69 O76 1.240 . S
C69 O77 1.252 . S
C70 O73 1.252 1_655 S
C70 O74 1.260 . S
O71 In65 2.266 1_655 S
O71 C68 1.252 1_655 S
O72 In65 2.326 . S
O72 C68 1.260 . S
O73 In65 2.266 . S
O73 C70 1.252 1_455 S
O74 In65 2.326 1_655 S
O74 C70 1.260 . S
C75 O66 1.240 . S
C75 O67 1.252 . S
O76 In65 2.294 . S
O76 C69 1.240 . S
O77 In65 2.326 . S
O77 C69 1.252 . S
In78 O79 2.294 . S
In78 O80 2.326 1_545 S
In78 O84 2.266 . S
In78 O85 2.326 . S
In78 O86 2.266 1_545 S
In78 O87 2.326 1_545 S
In78 O89 2.294 1_545 S
In78 O90 2.326 . S
O79 In78 2.294 . S
O79 C88 1.240 1_545 S
O80 In78 2.326 1_565 S
O80 C88 1.252 . S
C81 O84 1.252 . S
C81 O85 1.260 . S
C82 O89 1.240 1_545 S
C82 O90 1.252 . S
C83 O86 1.252 . S
C83 O87 1.260 . S
O84 In78 2.266 . S
O84 C81 1.252 . S
O85 In78 2.326 . S
O85 C81 1.260 . S
O86 In78 2.266 1_565 S
O86 C83 1.252 . S
O87 In78 2.326 1_565 S
O87 C83 1.260 . S
C88 O79 1.240 1_565 S
C88 O80 1.252 . S
O89 In78 2.294 1_565 S
O89 C82 1.240 1_565 S
O90 In78 2.326 . S
O90 C82 1.252 . S
In91 O92 2.294 . S
In91 O93 2.326 . S
In91 O97 2.266 . S
In91 O98 2.326 1_455 S
In91 O99 2.266 1_455 S
In91 O100 2.326 . S
In91 O102 2.294 1_455 S
In91 O103 2.326 1_455 S
O92 In91 2.294 . S
O92 C101 1.240 . S
O93 In91 2.326 . S
O93 C101 1.252 . S
C94 O97 1.252 1_655 S
C94 O98 1.260 . S
C95 O102 1.240 . S
C95 O103 1.252 . S
C96 O99 1.252 1_455 S
C96 O100 1.260 . S
O97 In91 2.266 . S
O97 C94 1.252 1_455 S
O98 In91 2.326 1_655 S
O98 C94 1.260 . S
O99 In91 2.266 1_655 S
O99 C96 1.252 1_655 S
O100 In91 2.326 . S
O100 C96 1.260 . S
C101 O92 1.240 . S
C101 O93 1.252 . S
O102 In91 2.294 1_655 S
O102 C95 1.240 . S
O103 In91 2.326 1_655 S
O103 C95 1.252 . S
In104 O105 2.299 . S
In104 O106 2.329 . S
In104 O110 2.268 . S
In104 O111 2.322 1_554 S
In104 O112 2.264 1_554 S
In104 O113 2.329 . S
In104 O115 2.289 1_554 S
In104 O116 2.324 1_554 S
O105 In104 2.299 . S
O105 C114 1.240 . S
O106 In104 2.329 . S
O106 C114 1.252 . S
C107 O110 1.252 1_556 S
C107 O111 1.260 . S
C108 O115 1.240 . S
C108 O116 1.252 . S
C109 O112 1.252 1_554 S
C109 O113 1.260 . S
O110 In104 2.268 . S
O110 C107 1.252 1_554 S
O111 In104 2.322 1_556 S
O111 C107 1.260 . S
O112 In104 2.264 1_556 S
O112 C109 1.252 1_556 S
O113 In104 2.329 . S
O113 C109 1.260 . S
C114 O105 1.240 . S
C114 O106 1.252 . S
O115 In104 2.289 1_556 S
O115 C108 1.240 . S
O116 In104 2.324 1_556 S
O116 C108 1.252 . S
In117 O118 2.301 . S
In117 O119 2.330 . S
In117 O123 2.269 . S
In117 O124 2.321 1_554 S
In117 O125 2.264 1_554 S
In117 O126 2.330 . S
In117 O128 2.287 1_554 S
In117 O129 2.323 1_554 S
O118 In117 2.301 . S
O118 C127 1.240 . S
O119 In117 2.330 . S
O119 C127 1.252 . S
C120 O123 1.252 1_556 S
C120 O124 1.260 . S
C121 O128 1.240 . S
C121 O129 1.252 . S
C122 O125 1.252 1_554 S
C122 O126 1.260 . S
O123 In117 2.269 . S
O123 C120 1.252 1_554 S
O124 In117 2.321 1_556 S
O124 C120 1.260 . S
O125 In117 2.264 1_556 S
O125 C122 1.252 1_556 S
O126 In117 2.330 . S
O126 C122 1.260 . S
C127 O118 1.240 . S
C127 O119 1.252 . S
O128 In117 2.287 1_556 S
O128 C121 1.240 . S
O129 In117 2.323 1_556 S
O129 C121 1.252 . S
In130 O131 2.291 1_554 S
In130 O132 2.331 . S
In130 O136 2.259 1_554 S
In130 O137 2.322 1_554 S
In130 O138 2.273 . S
In130 O139 2.329 . S
In130 O141 2.296 . S
In130 O142 2.322 1_554 S
O131 In130 2.291 1_556 S
O131 C140 1.240 1_556 S
O132 In130 2.331 . S
O132 C140 1.252 . S
C133 O136 1.252 . S
C133 O137 1.260 . S
C134 O141 1.240 1_556 S
C134 O142 1.252 . S
C135 O138 1.252 . S
C135 O139 1.260 . S
O136 In130 2.259 1_556 S
O136 C133 1.252 . S
O137 In130 2.322 1_556 S
O137 C133 1.260 . S
O138 In130 2.273 . S
O138 C135 1.252 . S
O139 In130 2.329 . S
O139 C135 1.260 . S
C140 O131 1.240 1_554 S
C140 O132 1.252 . S
O141 In130 2.296 . S
O141 C134 1.240 1_554 S
O142 In130 2.322 1_556 S
O142 C134 1.252 . S
In143 O144 2.296 . S
In143 O145 2.323 1_554 S
In143 O149 2.271 . S
In143 O150 2.328 . S
In143 O151 2.261 1_554 S
In143 O152 2.323 1_554 S
In143 O154 2.292 1_554 S
In143 O155 2.330 . S
O144 In143 2.296 . S
O144 C153 1.240 1_554 S
O145 In143 2.323 1_556 S
O145 C153 1.252 . S
C146 O149 1.252 . S
C146 O150 1.260 . S
C147 O154 1.240 1_554 S
C147 O155 1.252 . S
C148 O151 1.252 . S
C148 O152 1.260 . S
O149 In143 2.271 . S
O149 C146 1.252 . S
O150 In143 2.328 . S
O150 C146 1.260 . S
O151 In143 2.261 1_556 S
O151 C148 1.252 . S
O152 In143 2.323 1_556 S
O152 C148 1.260 . S
C153 O144 1.240 1_556 S
C153 O145 1.252 . S
O154 In143 2.292 1_556 S
O154 C147 1.240 1_556 S
O155 In143 2.330 . S
O155 C147 1.252 . S
H156 C162 0.930 . S
H157 C166 0.930 . S
H158 C171 0.929 . S
H159 C169 0.929 . S
H160 C164 0.929 . S
H161 C170 0.929 . S
C162 H156 0.930 . S
C162 C163 1.367 . S
C162 C170 1.378 . S
C163 C162 1.367 . S
C163 C171 1.433 1_655 S
C164 H160 0.929 . S
C164 C166 1.378 . S
C164 C168 1.350 . S
C165 C168 1.463 1_655 S
C165 C170 1.350 . S
C165 N173 1.427 1_655 S
C166 H157 0.930 . S
C166 C164 1.378 . S
C166 C167 1.367 . S
C167 C166 1.367 . S
C167 C169 1.433 1_455 S
C168 C164 1.350 . S
C168 C165 1.463 1_455 S
C168 N172 1.427 1_455 S
C169 H159 0.929 . S
C169 C167 1.433 1_655 S
C169 N172 1.384 . S
C170 H161 0.929 . S
C170 C162 1.378 . S
C170 C165 1.350 . S
C171 H158 0.929 . S
C171 C163 1.433 1_455 S
C171 N173 1.384 . S
N172 C168 1.427 1_655 S
N172 C169 1.384 . S
N173 C165 1.427 1_455 S
N173 C171 1.384 . S
H174 C180 0.930 . S
H175 C184 0.937 . S
H176 C189 0.929 . S
H177 C187 0.929 . S
H178 C182 0.929 . S
H179 C188 0.929 . S
C180 H174 0.930 . S
C180 C181 1.367 1_545 S
C180 C188 1.378 . S
C181 C180 1.367 1_565 S
C181 C189 1.433 . S
C182 H178 0.929 . S
C182 C184 1.381 . S
C182 C186 1.350 1_565 S
C183 C186 1.462 1_565 S
C183 C188 1.347 1_565 S
C183 N191 1.431 . S
C184 H175 0.937 . S
C184 C182 1.381 . S
C184 C185 1.358 1_565 S
C185 C184 1.358 1_545 S
C185 C187 1.433 . S
C186 C182 1.350 1_545 S
C186 C183 1.462 1_545 S
C186 N190 1.427 . S
C187 H177 0.929 . S
C187 C185 1.433 . S
C187 N190 1.384 . S
C188 H179 0.929 . S
C188 C180 1.378 . S
C188 C183 1.347 1_545 S
C189 H176 0.929 . S
C189 C181 1.433 . S
C189 N191 1.384 . S
N190 C186 1.427 . S
N190 C187 1.384 . S
N191 C183 1.431 . S
N191 C189 1.384 . S
H192 C198 0.930 . S
H193 C202 0.930 . S
H194 C207 0.929 . S
H195 C205 0.929 1_655 S
H196 C200 0.929 . S
H197 C206 0.929 . S
C198 H192 0.930 . S
C198 C199 1.367 . S
C198 C206 1.378 . S
C199 C198 1.367 . S
C199 C207 1.433 1_655 S
C200 H196 0.929 . S
C200 C202 1.378 . S
C200 C204 1.350 . S
C201 C204 1.463 1_655 S
C201 C206 1.350 . S
C201 N209 1.427 1_655 S
C202 H193 0.930 . S
C202 C200 1.378 . S
C202 C203 1.367 . S
C203 C202 1.367 . S
C203 C205 1.433 . S
C204 C200 1.350 . S
C204 C201 1.463 1_455 S
C204 N208 1.427 1_455 S
C205 H195 0.929 1_455 S
C205 C203 1.433 . S
C205 N208 1.384 1_455 S
C206 H197 0.929 . S
C206 C198 1.378 . S
C206 C201 1.350 . S
C207 H194 0.929 . S
C207 C199 1.433 1_455 S
C207 N209 1.384 . S
N208 C204 1.427 1_655 S
N208 C205 1.384 1_655 S
N209 C201 1.427 1_455 S
N209 C207 1.384 . S
H210 C216 0.930 . S
H211 C220 0.930 . S
H212 C225 0.929 . S
H213 C223 0.929 . S
H214 C218 0.929 . S
H215 C224 0.929 . S
C216 H210 0.930 . S
C216 C217 1.367 1_565 S
C216 C224 1.378 . S
C217 C216 1.367 1_545 S
C217 C225 1.433 . S
C218 H214 0.929 . S
C218 C220 1.378 . S
C218 C222 1.353 . S
C219 C222 1.463 . S
C219 C224 1.350 1_545 S
C219 N227 1.427 . S
C220 H211 0.930 . S
C220 C218 1.378 . S
C220 C221 1.367 1_545 S
C221 C220 1.367 1_565 S
C221 C223 1.433 . S
C222 C218 1.353 . S
C222 C219 1.463 . S
C222 N226 1.424 1_545 S
C223 H213 0.929 . S
C223 C221 1.433 . S
C223 N226 1.384 . S
C224 H215 0.929 . S
C224 C216 1.378 . S
C224 C219 1.350 1_565 S
C225 H212 0.929 . S
C225 C217 1.433 . S
C225 N227 1.384 . S
N226 C222 1.424 1_565 S
N226 C223 1.384 . S
N227 C219 1.427 . S
N227 C225 1.384 . S
H228 C234 0.930 . S
H229 C238 0.930 . S
H230 C243 0.929 . S
H231 C241 0.929 . S
H232 C236 0.929 . S
H233 C242 0.929 . S
C234 H228 0.930 . S
C234 C235 1.367 . S
C234 C242 1.378 . S
C235 C234 1.367 . S
C235 C243 1.433 1_455 S
C236 H232 0.929 . S
C236 C238 1.378 . S
C236 C240 1.350 . S
C237 C240 1.463 1_455 S
C237 C242 1.350 . S
C237 N245 1.427 1_455 S
C238 H229 0.930 . S
C238 C236 1.378 . S
C238 C239 1.367 . S
C239 C238 1.367 . S
C239 C241 1.433 1_655 S
C240 C236 1.350 . S
C240 C237 1.463 1_655 S
C240 N244 1.427 1_655 S
C241 H231 0.929 . S
C241 C239 1.433 1_455 S
C241 N244 1.384 . S
C242 H233 0.929 . S
C242 C234 1.378 . S
C242 C237 1.350 . S
C243 H230 0.929 . S
C243 C235 1.433 1_655 S
C243 N245 1.384 . S
N244 C240 1.427 1_455 S
N244 C241 1.384 . S
N245 C237 1.427 1_655 S
N245 C243 1.384 . S
H246 C252 0.930 . S
H247 C256 0.930 . S
H248 C261 0.929 . S
H249 C259 0.929 . S
H250 C254 0.929 . S
H251 C260 0.929 . S
C252 H246 0.930 . S
C252 C253 1.367 . S
C252 C260 1.378 . S
C253 C252 1.367 . S
C253 C261 1.433 1_545 S
C254 H250 0.929 . S
C254 C256 1.378 . S
C254 C258 1.350 . S
C255 C258 1.463 1_545 S
C255 C260 1.350 . S
C255 N263 1.427 1_545 S
C256 H247 0.930 . S
C256 C254 1.378 . S
C256 C257 1.367 . S
C257 C256 1.367 . S
C257 C259 1.433 1_565 S
C258 C254 1.350 . S
C258 C255 1.463 1_565 S
C258 N262 1.427 1_565 S
C259 H249 0.929 . S
C259 C257 1.433 1_545 S
C259 N262 1.384 . S
C260 H251 0.929 . S
C260 C252 1.378 . S
C260 C255 1.350 . S
C261 H248 0.929 . S
C261 C253 1.433 1_565 S
C261 N263 1.384 . S
N262 C258 1.427 1_545 S
N262 C259 1.384 . S
N263 C255 1.427 1_565 S
N263 C261 1.384 . S
H264 C270 0.930 . S
H265 C274 0.930 . S
H266 C279 0.929 . S
H267 C277 0.929 . S
H268 C272 0.929 . S
H269 C278 0.929 . S
C270 H264 0.930 . S
C270 C271 1.367 . S
C270 C278 1.378 . S
C271 C270 1.367 . S
C271 C279 1.433 1_455 S
C272 H268 0.929 . S
C272 C274 1.378 . S
C272 C276 1.350 . S
C273 C276 1.463 1_455 S
C273 C278 1.350 . S
C273 N281 1.427 1_455 S
C274 H265 0.930 . S
C274 C272 1.378 . S
C274 C275 1.367 . S
C275 C274 1.367 . S
C275 C277 1.433 1_655 S
C276 C272 1.350 . S
C276 C273 1.463 1_655 S
C276 N280 1.427 1_655 S
C277 H267 0.929 . S
C277 C275 1.433 1_455 S
C277 N280 1.384 . S
C278 H269 0.929 . S
C278 C270 1.378 . S
C278 C273 1.350 . S
C279 H266 0.929 . S
C279 C271 1.433 1_655 S
C279 N281 1.384 . S
N280 C276 1.427 1_455 S
N280 C277 1.384 . S
N281 C273 1.427 1_655 S
N281 C279 1.384 . S
H282 C288 0.930 . S
H283 C292 0.930 . S
H284 C297 0.929 . S
H285 C295 0.929 . S
H286 C290 0.929 . S
H287 C296 0.929 . S
C288 H282 0.930 . S
C288 C289 1.367 1_545 S
C288 C296 1.378 . S
C289 C288 1.367 1_565 S
C289 C297 1.433 . S
C290 H286 0.929 . S
C290 C292 1.378 . S
C290 C294 1.350 1_565 S
C291 C294 1.462 . S
C291 C296 1.349 . S
C291 N299 1.429 1_545 S
C292 H283 0.930 . S
C292 C290 1.378 . S
C292 C293 1.367 1_565 S
C293 C292 1.367 1_545 S
C293 C295 1.433 . S
C294 C290 1.350 1_545 S
C294 C291 1.462 . S
C294 N298 1.427 . S
C295 H285 0.929 . S
C295 C293 1.433 . S
C295 N298 1.384 . S
C296 H287 0.929 . S
C296 C288 1.378 . S
C296 C291 1.349 . S
C297 H284 0.929 . S
C297 C289 1.433 . S
C297 N299 1.384 . S
N298 C294 1.427 . S
N298 C295 1.384 . S
N299 C291 1.429 1_565 S
N299 C297 1.384 . S
H300 C306 0.930 . S
H301 C310 0.930 . S
H302 C315 0.929 . S
H303 C313 0.929 . S
H304 C308 0.929 . S
H305 C314 0.929 . S
C306 H300 0.930 . S
C306 C307 1.367 1_556 S
C306 C314 1.378 . S
C307 C306 1.367 1_554 S
C307 C315 1.433 . S
C308 H304 0.929 . S
C308 C310 1.378 . S
C308 C312 1.326 1_554 S
C309 C312 1.461 1_554 S
C309 C314 1.350 1_554 S
C309 N317 1.427 . S
C310 H301 0.930 . S
C310 C308 1.378 . S
C310 C311 1.367 1_554 S
C311 C310 1.367 1_556 S
C311 C313 1.433 . S
C312 C308 1.326 1_556 S
C312 C309 1.461 1_556 S
C312 N316 1.455 . S
C313 H303 0.929 . S
C313 C311 1.433 . S
C313 N316 1.384 . S
C314 H305 0.929 . S
C314 C306 1.378 . S
C314 C309 1.350 1_556 S
C315 H302 0.929 . S
C315 C307 1.433 . S
C315 N317 1.384 . S
N316 C312 1.455 . S
N316 C313 1.384 . S
N317 C309 1.427 . S
N317 C315 1.384 . S
H318 C324 0.930 . S
H319 C328 0.930 . S
H320 C333 0.929 . S
H321 C331 0.929 . S
H322 C326 0.929 . S
H323 C332 0.929 . S
C324 H318 0.930 . S
C324 C325 1.367 . S
C324 C332 1.378 . S
C325 C324 1.367 . S
C325 C333 1.433 1_554 S
C326 H322 0.929 . S
C326 C328 1.378 . S
C326 C330 1.350 . S
C327 C330 1.463 1_554 S
C327 C332 1.350 . S
C327 N335 1.427 1_554 S
C328 H319 0.930 . S
C328 C326 1.378 . S
C328 C329 1.367 . S
C329 C328 1.367 . S
C329 C331 1.433 1_556 S
C330 C326 1.350 . S
C330 C327 1.463 1_556 S
C330 N334 1.427 1_556 S
C331 H321 0.929 . S
C331 C329 1.433 1_554 S
C331 N334 1.384 . S
C332 H323 0.929 . S
C332 C324 1.378 . S
C332 C327 1.350 . S
C333 H320 0.929 . S
C333 C325 1.433 1_556 S
C333 N335 1.384 . S
N334 C330 1.427 1_554 S
N334 C331 1.384 . S
N335 C327 1.427 1_556 S
N335 C333 1.384 . S
H336 C342 0.930 . S
H337 C346 0.930 . S
H338 C351 0.929 . S
H339 C349 0.929 . S
H340 C344 0.929 . S
H341 C350 0.929 . S
C342 H336 0.930 . S
C342 C343 1.367 . S
C342 C350 1.378 . S
C343 C342 1.367 . S
C343 C351 1.433 1_556 S
C344 H340 0.929 . S
C344 C346 1.378 . S
C344 C348 1.350 . S
C345 C348 1.463 1_556 S
C345 C350 1.350 . S
C345 N353 1.427 1_556 S
C346 H337 0.930 . S
C346 C344 1.378 . S
C346 C347 1.367 . S
C347 C346 1.367 . S
C347 C349 1.433 1_554 S
C348 C344 1.350 . S
C348 C345 1.463 1_554 S
C348 N352 1.427 1_554 S
C349 H339 0.929 . S
C349 C347 1.433 1_556 S
C349 N352 1.384 . S
C350 H341 0.929 . S
C350 C342 1.378 . S
C350 C345 1.350 . S
C351 H338 0.929 . S
C351 C343 1.433 1_554 S
C351 N353 1.384 . S
N352 C348 1.427 1_556 S
N352 C349 1.384 . S
N353 C345 1.427 1_554 S
N353 C351 1.384 . S
H354 C360 0.930 . S
H355 C364 0.930 . S
H356 C369 0.929 . S
H357 C367 0.929 . S
H358 C362 0.929 . S
H359 C368 0.929 . S
C360 H354 0.930 . S
C360 C361 1.367 1_554 S
C360 C368 1.378 . S
C361 C360 1.367 1_556 S
C361 C369 1.433 . S
C362 H358 0.929 . S
C362 C364 1.378 . S
C362 C366 1.350 1_556 S
C363 C366 1.461 1_556 S
C363 C368 1.326 1_556 S
C363 N371 1.456 . S
C364 H355 0.930 . S
C364 C362 1.378 . S
C364 C365 1.367 1_556 S
C365 C364 1.367 1_554 S
C365 C367 1.433 . S
C366 C362 1.350 1_554 S
C366 C363 1.461 1_554 S
C366 N370 1.427 . S
C367 H357 0.929 . S
C367 C365 1.433 . S
C367 N370 1.384 . S
C368 H359 0.929 . S
C368 C360 1.378 . S
C368 C363 1.326 1_554 S
C369 H356 0.929 . S
C369 C361 1.433 . S
C369 N371 1.384 . S
N370 C366 1.427 . S
N370 C367 1.384 . S
N371 C363 1.456 . S
N371 C369 1.384 . S
H372 C378 0.930 . S
H373 C382 0.930 . S
H374 C387 0.929 . S
H375 C385 0.929 . S
H376 C380 0.929 . S
H377 C386 0.929 . S
C378 H372 0.930 . S
C378 C379 1.367 . S
C378 C386 1.378 . S
C379 C378 1.367 . S
C379 C387 1.433 . S
C380 H376 0.929 . S
C380 C382 1.378 . S
C380 C384 1.350 . S
C381 C384 1.463 . S
C381 C386 1.350 . S
C381 N389 1.427 . S
C382 H373 0.930 . S
C382 C380 1.378 . S
C382 C383 1.367 . S
C383 C382 1.367 . S
C383 C385 1.433 . S
C384 C380 1.350 . S
C384 C381 1.463 . S
C384 N388 1.427 . S
C385 H375 0.929 . S
C385 C383 1.433 . S
C385 N388 1.384 . S
C386 H377 0.929 . S
C386 C378 1.378 . S
C386 C381 1.350 . S
C387 H374 0.929 . S
C387 C379 1.433 . S
C387 N389 1.384 . S
N388 C384 1.427 . S
N388 C385 1.384 . S
N389 C381 1.427 . S
N389 C387 1.384 . S
H390 C396 0.930 . S
H391 C400 0.930 . S
H392 C405 0.929 . S
H393 C403 0.929 . S
H394 C398 0.929 . S
H395 C404 0.929 . S
C396 H390 0.930 . S
C396 C397 1.367 . S
C396 C404 1.378 . S
C397 C396 1.367 . S
C397 C405 1.433 . S
C398 H394 0.929 . S
C398 C400 1.378 . S
C398 C402 1.350 . S
C399 C402 1.463 . S
C399 C404 1.350 . S
C399 N407 1.427 . S
C400 H391 0.930 . S
C400 C398 1.378 . S
C400 C401 1.367 . S
C401 C400 1.367 . S
C401 C403 1.433 . S
C402 C398 1.350 . S
C402 C399 1.463 . S
C402 N406 1.427 . S
C403 H393 0.929 . S
C403 C401 1.433 . S
C403 N406 1.384 . S
C404 H395 0.929 . S
C404 C396 1.378 . S
C404 C399 1.350 . S
C405 H392 0.929 . S
C405 C397 1.433 . S
C405 N407 1.384 . S
N406 C402 1.427 . S
N406 C403 1.384 . S
N407 C399 1.427 . S
N407 C405 1.384 . S
H408 C414 0.930 . S
H409 C418 0.930 . S
H410 C423 0.929 . S
H411 C421 0.929 . S
H412 C416 0.929 . S
H413 C422 0.929 . S
C414 H408 0.930 . S
C414 C415 1.367 . S
C414 C422 1.378 . S
C415 C414 1.367 . S
C415 C423 1.433 . S
C416 H412 0.929 . S
C416 C418 1.378 . S
C416 C420 1.350 . S
C417 C420 1.463 . S
C417 C422 1.350 . S
C417 N425 1.427 . S
C418 H409 0.930 . S
C418 C416 1.378 . S
C418 C419 1.367 . S
C419 C418 1.367 . S
C419 C421 1.433 . S
C420 C416 1.350 . S
C420 C417 1.463 . S
C420 N424 1.427 . S
C421 H411 0.929 . S
C421 C419 1.433 . S
C421 N424 1.384 . S
C422 H413 0.929 . S
C422 C414 1.378 . S
C422 C417 1.350 . S
C423 H410 0.929 . S
C423 C415 1.433 . S
C423 N425 1.384 . S
N424 C420 1.427 . S
N424 C421 1.384 . S
N425 C417 1.427 . S
N425 C423 1.384 . S
H426 C432 0.930 . S
H427 C436 0.930 . S
H428 C441 0.929 . S
H429 C439 0.929 . S
H430 C434 0.929 . S
H431 C440 0.929 . S
C432 H426 0.930 . S
C432 C433 1.367 . S
C432 C440 1.378 . S
C433 C432 1.367 . S
C433 C441 1.433 . S
C434 H430 0.929 . S
C434 C436 1.378 . S
C434 C438 1.350 . S
C435 C438 1.463 . S
C435 C440 1.350 . S
C435 N443 1.427 . S
C436 H427 0.930 . S
C436 C434 1.378 . S
C436 C437 1.367 . S
C437 C436 1.367 . S
C437 C439 1.433 . S
C438 C434 1.350 . S
C438 C435 1.463 . S
C438 N442 1.427 . S
C439 H429 0.929 . S
C439 C437 1.433 . S
C439 N442 1.384 . S
C440 H431 0.929 . S
C440 C432 1.378 . S
C440 C435 1.350 . S
C441 H428 0.929 . S
C441 C433 1.433 . S
C441 N443 1.384 . S
N442 C438 1.427 . S
N442 C439 1.384 . S
N443 C435 1.427 . S
N443 C441 1.384 . S
H444 C450 0.930 . S
H445 C454 0.930 . S
H446 C459 0.929 . S
H447 C457 0.929 . S
H448 C452 0.929 . S
H449 C458 0.929 . S
C450 H444 0.930 . S
C450 C451 1.367 . S
C450 C458 1.378 . S
C451 C450 1.367 . S
C451 C459 1.433 . S
C452 H448 0.929 . S
C452 C454 1.378 . S
C452 C456 1.350 . S
C453 C456 1.463 . S
C453 C458 1.350 . S
C453 N461 1.427 . S
C454 H445 0.930 . S
C454 C452 1.378 . S
C454 C455 1.367 . S
C455 C454 1.367 . S
C455 C457 1.433 . S
C456 C452 1.350 . S
C456 C453 1.463 . S
C456 N460 1.427 . S
C457 H447 0.929 . S
C457 C455 1.433 . S
C457 N460 1.384 . S
C458 H449 0.929 . S
C458 C450 1.378 . S
C458 C453 1.350 . S
C459 H446 0.929 . S
C459 C451 1.433 . S
C459 N461 1.384 . S
N460 C456 1.427 . S
N460 C457 1.384 . S
N461 C453 1.427 . S
N461 C459 1.384 . S
H462 C468 0.930 . S
H463 C472 0.930 . S
H464 C477 0.929 . S
H465 C475 0.929 . S
H466 C470 0.929 . S
H467 C476 0.929 . S
C468 H462 0.930 . S
C468 C469 1.367 . S
C468 C476 1.378 . S
C469 C468 1.367 . S
C469 C477 1.433 . S
C470 H466 0.929 . S
C470 C472 1.378 . S
C470 C474 1.350 . S
C471 C474 1.463 . S
C471 C476 1.350 . S
C471 N479 1.427 . S
C472 H463 0.930 . S
C472 C470 1.378 . S
C472 C473 1.367 . S
C473 C472 1.367 . S
C473 C475 1.433 . S
C474 C470 1.350 . S
C474 C471 1.463 . S
C474 N478 1.427 . S
C475 H465 0.929 . S
C475 C473 1.433 . S
C475 N478 1.384 . S
C476 H467 0.929 . S
C476 C468 1.378 . S
C476 C471 1.350 . S
C477 H464 0.929 . S
C477 C469 1.433 . S
C477 N479 1.384 . S
N478 C474 1.427 . S
N478 C475 1.384 . S
N479 C471 1.427 . S
N479 C477 1.384 . S
H480 C486 0.930 . S
H481 C490 0.930 . S
H482 C495 0.929 . S
H483 C493 0.929 . S
H484 C488 0.929 . S
H485 C494 0.929 . S
C486 H480 0.930 . S
C486 C487 1.367 . S
C486 C494 1.378 . S
C487 C486 1.367 . S
C487 C495 1.433 . S
C488 H484 0.929 . S
C488 C490 1.378 . S
C488 C492 1.350 . S
C489 C492 1.463 . S
C489 C494 1.350 . S
C489 N497 1.427 . S
C490 H481 0.930 . S
C490 C488 1.378 . S
C490 C491 1.367 . S
C491 C490 1.367 . S
C491 C493 1.433 . S
C492 C488 1.350 . S
C492 C489 1.463 . S
C492 N496 1.427 . S
C493 H483 0.929 . S
C493 C491 1.433 . S
C493 N496 1.384 . S
C494 H485 0.929 . S
C494 C486 1.378 . S
C494 C489 1.350 . S
C495 H482 0.929 . S
C495 C487 1.433 . S
C495 N497 1.384 . S
N496 C492 1.427 . S
N496 C493 1.384 . S
N497 C489 1.427 . S
N497 C495 1.384 . S
H498 C504 0.930 . S
H499 C508 0.930 . S
H500 C513 0.929 . S
H501 C511 0.929 . S
H502 C506 0.929 . S
H503 C512 0.929 . S
C504 H498 0.930 . S
C504 C505 1.367 . S
C504 C512 1.378 . S
C505 C504 1.367 . S
C505 C513 1.433 . S
C506 H502 0.929 . S
C506 C508 1.378 . S
C506 C510 1.350 . S
C507 C510 1.463 . S
C507 C512 1.350 . S
C507 N515 1.427 . S
C508 H499 0.930 . S
C508 C506 1.378 . S
C508 C509 1.367 . S
C509 C508 1.367 . S
C509 C511 1.433 . S
C510 C506 1.350 . S
C510 C507 1.463 . S
C510 N514 1.427 . S
C511 H501 0.929 . S
C511 C509 1.433 . S
C511 N514 1.384 . S
C512 H503 0.929 . S
C512 C504 1.378 . S
C512 C507 1.350 . S
C513 H500 0.929 . S
C513 C505 1.433 . S
C513 N515 1.384 . S
N514 C510 1.427 . S
N514 C511 1.384 . S
N515 C507 1.427 . S
N515 C513 1.384 . S
H516 C522 0.930 . S
H517 C526 0.930 . S
H518 C531 0.929 . S
H519 C529 0.929 . S
H520 C524 0.929 . S
H521 C530 0.929 . S
C522 H516 0.930 . S
C522 C523 1.367 . S
C522 C530 1.378 . S
C523 C522 1.367 . S
C523 C531 1.433 . S
C524 H520 0.929 . S
C524 C526 1.378 . S
C524 C528 1.350 . S
C525 C528 1.463 . S
C525 C530 1.350 . S
C525 N533 1.427 . S
C526 H517 0.930 . S
C526 C524 1.378 . S
C526 C527 1.367 . S
C527 C526 1.367 . S
C527 C529 1.433 . S
C528 C524 1.350 . S
C528 C525 1.463 . S
C528 N532 1.427 . S
C529 H519 0.929 . S
C529 C527 1.433 . S
C529 N532 1.384 . S
C530 H521 0.929 . S
C530 C522 1.378 . S
C530 C525 1.350 . S
C531 H518 0.929 . S
C531 C523 1.433 . S
C531 N533 1.384 . S
N532 C528 1.427 . S
N532 C529 1.384 . S
N533 C525 1.427 . S
N533 C531 1.384 . S
H534 C540 0.930 . S
H535 C544 0.930 . S
H536 C549 0.929 . S
H537 C547 0.929 . S
H538 C542 0.929 . S
H539 C548 0.929 . S
C540 H534 0.930 . S
C540 C541 1.367 . S
C540 C548 1.378 . S
C541 C540 1.367 . S
C541 C549 1.433 . S
C542 H538 0.929 . S
C542 C544 1.378 . S
C542 C546 1.350 . S
C543 C546 1.463 . S
C543 C548 1.350 . S
C543 N551 1.427 . S
C544 H535 0.930 . S
C544 C542 1.378 . S
C544 C545 1.367 . S
C545 C544 1.367 . S
C545 C547 1.433 . S
C546 C542 1.350 . S
C546 C543 1.463 . S
C546 N550 1.427 . S
C547 H537 0.929 . S
C547 C545 1.433 . S
C547 N550 1.384 . S
C548 H539 0.929 . S
C548 C540 1.378 . S
C548 C543 1.350 . S
C549 H536 0.929 . S
C549 C541 1.433 . S
C549 N551 1.384 . S
N550 C546 1.427 . S
N550 C547 1.384 . S
N551 C543 1.427 . S
N551 C549 1.384 . S
H552 C558 0.930 . S
H553 C562 0.930 . S
H554 C567 0.929 . S
H555 C565 0.929 . S
H556 C560 0.929 . S
H557 C566 0.929 . S
C558 H552 0.930 . S
C558 C559 1.367 . S
C558 C566 1.378 . S
C559 C558 1.367 . S
C559 C567 1.433 . S
C560 H556 0.929 . S
C560 C562 1.378 . S
C560 C564 1.350 . S
C561 C564 1.463 . S
C561 C566 1.350 . S
C561 N569 1.427 . S
C562 H553 0.930 . S
C562 C560 1.378 . S
C562 C563 1.367 . S
C563 C562 1.367 . S
C563 C565 1.433 . S
C564 C560 1.350 . S
C564 C561 1.463 . S
C564 N568 1.427 . S
C565 H555 0.929 . S
C565 C563 1.433 . S
C565 N568 1.384 . S
C566 H557 0.929 . S
C566 C558 1.378 . S
C566 C561 1.350 . S
C567 H554 0.929 . S
C567 C559 1.433 . S
C567 N569 1.384 . S
N568 C564 1.427 . S
N568 C565 1.384 . S
N569 C561 1.427 . S
N569 C567 1.384 . S
H570 C576 0.930 . S
H571 C580 0.930 . S
H572 C585 0.929 . S
H573 C583 0.929 . S
H574 C578 0.929 . S
H575 C584 0.929 . S
C576 H570 0.930 . S
C576 C577 1.367 . S
C576 C584 1.378 . S
C577 C576 1.367 . S
C577 C585 1.433 . S
C578 H574 0.929 . S
C578 C580 1.378 . S
C578 C582 1.350 . S
C579 C582 1.463 . S
C579 C584 1.350 . S
C579 N587 1.427 . S
C580 H571 0.930 . S
C580 C578 1.378 . S
C580 C581 1.367 . S
C581 C580 1.367 . S
C581 C583 1.433 . S
C582 C578 1.350 . S
C582 C579 1.463 . S
C582 N586 1.427 . S
C583 H573 0.929 . S
C583 C581 1.433 . S
C583 N586 1.384 . S
C584 H575 0.929 . S
C584 C576 1.378 . S
C584 C579 1.350 . S
C585 H572 0.929 . S
C585 C577 1.433 . S
C585 N587 1.384 . S
N586 C582 1.427 . S
N586 C583 1.384 . S
N587 C579 1.427 . S
N587 C585 1.384 . S
C163 C5 1.594 . S
C167 C68 1.594 . S
C181 C17 1.574 . S
C185 C62 1.574 . S
C199 C70 1.581 . S
C203 C30 1.577 . S
C217 C42 1.588 . S
C221 C56 1.583 . S
C235 C96 1.582 . S
C239 C36 1.578 . S
C253 C82 1.589 . S
C257 C44 1.593 . S
C271 C3 1.595 . S
C275 C94 1.595 . S
C289 C88 1.573 . S
C293 C23 1.572 . S
C307 C122 1.594 . S
C311 C107 1.594 . S
C325 C109 1.589 . S
C329 C153 1.585 . S
C343 C120 1.589 . S
C347 C140 1.585 . S
C361 C134 1.567 . S
C365 C147 1.567 . S
C379 C148 1.594 . S
C383 C83 1.594 . S
C397 C108 1.579 . S
C401 C101 1.579 . S
C415 C81 1.578 . S
C419 C121 1.574 . S
C433 C95 1.590 . S
C437 C133 1.594 . S
C451 C57 1.579 . S
C455 C127 1.575 . S
C469 C75 1.589 . S
C473 C135 1.592 . S
C487 C146 1.589 . S
C491 C55 1.589 . S
C505 C114 1.571 . S
C509 C69 1.572 . S
C523 C16 1.600 . S
C527 C31 1.600 . S
C541 C10 1.578 . S
C545 C18 1.583 . S
C559 C29 1.589 . S
C563 C49 1.585 . S
C577 C4 1.571 . S
C581 C43 1.570 . S
