# Generated by pormake.
# Topology snw, (6)-cn, num edge types: 1
# Building blocks:
#     Node 0, Type 0, BuildingBlock: OJICUG_clean_sbu_0, # of connection points: 6
#     Node 1, Type 0, BuildingBlock: OJICUG_clean_sbu_0, # of connection points: 6
#     Node 2, Type 0, BuildingBlock: OJICUG_clean_sbu_0, # of connection points: 6
#     Node 3, Type 0, BuildingBlock: OJICUG_clean_sbu_0, # of connection points: 6
#     Node 4, Type 0, BuildingBlock: OJICUG_clean_sbu_0, # of connection points: 6
#     Node 5, Type 0, BuildingBlock: OJICUG_clean_sbu_0, # of connection points: 6
#     Node 6, Type 0, BuildingBlock: OJICUG_clean_sbu_0, # of connection points: 6
#     Node 7, Type 0, BuildingBlock: OJICUG_clean_sbu_0, # of connection points: 6
#     Edge 8, Type (0, 0), BuildingBlock: XIVTED_clean_linker_0, # of connection points: 2
#     Edge 9, Type (0, 0), BuildingBlock: XIVTED_clean_linker_0, # of connection points: 2
#     Edge 10, Type (0, 0), BuildingBlock: XIVTED_clean_linker_0, # of connection points: 2
#     Edge 11, Type (0, 0), BuildingBlock: XIVTED_clean_linker_0, # of connection points: 2
#     Edge 12, Type (0, 0), BuildingBlock: XIVTED_clean_linker_0, # of connection points: 2
#     Edge 13, Type (0, 0), BuildingBlock: XIVTED_clean_linker_0, # of connection points: 2
#     Edge 14, Type (0, 0), BuildingBlock: XIVTED_clean_linker_0, # of connection points: 2
#     Edge 15, Type (0, 0), BuildingBlock: XIVTED_clean_linker_0, # of connection points: 2
#     Edge 16, Type (0, 0), BuildingBlock: XIVTED_clean_linker_0, # of connection points: 2
#     Edge 17, Type (0, 0), BuildingBlock: XIVTED_clean_linker_0, # of connection points: 2
#     Edge 18, Type (0, 0), BuildingBlock: XIVTED_clean_linker_0, # of connection points: 2
#     Edge 19, Type (0, 0), BuildingBlock: XIVTED_clean_linker_0, # of connection points: 2
#     Edge 20, Type (0, 0), BuildingBlock: XIVTED_clean_linker_0, # of connection points: 2
#     Edge 21, Type (0, 0), BuildingBlock: XIVTED_clean_linker_0, # of connection points: 2
#     Edge 22, Type (0, 0), BuildingBlock: XIVTED_clean_linker_0, # of connection points: 2
#     Edge 23, Type (0, 0), BuildingBlock: XIVTED_clean_linker_0, # of connection points: 2
#     Edge 24, Type (0, 0), BuildingBlock: XIVTED_clean_linker_0, # of connection points: 2
#     Edge 25, Type (0, 0), BuildingBlock: XIVTED_clean_linker_0, # of connection points: 2
#     Edge 26, Type (0, 0), BuildingBlock: XIVTED_clean_linker_0, # of connection points: 2
#     Edge 27, Type (0, 0), BuildingBlock: XIVTED_clean_linker_0, # of connection points: 2
#     Edge 28, Type (0, 0), BuildingBlock: XIVTED_clean_linker_0, # of connection points: 2
#     Edge 29, Type (0, 0), BuildingBlock: XIVTED_clean_linker_0, # of connection points: 2
#     Edge 30, Type (0, 0), BuildingBlock: XIVTED_clean_linker_0, # of connection points: 2
#     Edge 31, Type (0, 0), BuildingBlock: XIVTED_clean_linker_0, # of connection points: 2
# Relax obj value: 0.000
# Max RMSD: 0.008
# Mean RMSD: 0.008
data_MOF--net-snw--node1-OJICUG_clean_sbu_0--edge1-XIVTED_clean_linker_0
_symmetry_space_group_name_H-M    P1
_symmetry_Int_Tables_number       1
_symmetry_cell_setting            triclinic
loop_
_symmetry_equiv_pos_as_xyz
'x, y, z'
_cell_length_a     22.106438
_cell_length_b     22.063068
_cell_length_c     75.343353
_cell_angle_alpha  90.048844
_cell_angle_beta   90.021037
_cell_angle_gamma 90.08777
loop_
_atom_site_label
_atom_site_type_symbol
_atom_site_fract_x
_atom_site_fract_y
_atom_site_fract_z
_atom_type_partial_charge
Sc0 Sc 0.06176 0.22886 0.06149 0.0
Sc1 Sc 0.90284 0.23446 0.06088 0.0
Sc2 Sc 0.98045 0.22808 0.10159 0.0
O3 O 0.98167 0.2305 0.07465 0.0
C4 C 0.0868 0.13489 0.09225 0.0
C5 C 0.97856 0.14402 0.03704 0.0
C6 C 0.86995 0.14203 0.09221 0.0
C7 C 0.9884 0.32363 0.03855 0.0
C8 C 0.09185 0.31532 0.09452 0.0
C9 C 0.87457 0.32257 0.09295 0.0
O10 O 0.0932 0.15218 0.07629 0.0
O11 O 0.92839 0.1612 0.04356 0.0
O12 O 0.9152 0.15501 0.10195 0.0
O13 O 0.03792 0.30519 0.04519 0.0
O14 O 0.04558 0.30098 0.10364 0.0
O15 O 0.86962 0.30816 0.07669 0.0
O16 O 0.10483 0.29054 0.07977 0.0
O17 O 0.93743 0.30042 0.04245 0.0
O18 O 0.91001 0.29537 0.10359 0.0
O19 O 0.02904 0.16657 0.04172 0.0
O20 O 0.05069 0.16041 0.10306 0.0
O21 O 0.85834 0.1693 0.07775 0.0
Sc22 Sc 0.98136 0.82742 0.31001 0.0
Sc23 Sc 0.98412 0.66824 0.31104 0.0
Sc24 Sc 0.98221 0.75068 0.35098 0.0
O25 O 0.98255 0.74882 0.32402 0.0
C26 C 0.06971 0.86091 0.34228 0.0
C27 C 0.0727 0.74926 0.28723 0.0
C28 C 0.07543 0.64331 0.34255 0.0
C29 C 0.89324 0.74247 0.28707 0.0
C30 C 0.88939 0.857 0.34102 0.0
C31 C 0.89508 0.6393 0.34344 0.0
O32 O 0.04469 0.8721 0.32745 0.0
O33 O 0.04831 0.69941 0.2917 0.0
O34 O 0.04971 0.68015 0.35314 0.0
O35 O 0.91735 0.79319 0.29089 0.0
O36 O 0.91474 0.82134 0.35201 0.0
O37 O 0.92062 0.62616 0.32884 0.0
O38 O 0.90629 0.86195 0.32496 0.0
O39 O 0.90965 0.6929 0.29418 0.0
O40 O 0.90917 0.68556 0.35265 0.0
O41 O 0.05629 0.80008 0.29357 0.0
O42 O 0.05514 0.81602 0.35197 0.0
O43 O 0.0589 0.63638 0.32653 0.0
Sc44 Sc 0.57488 0.75057 0.55989 0.0
Sc45 Sc 0.41579 0.74683 0.56103 0.0
Sc46 Sc 0.49836 0.75458 0.60097 0.0
O47 O 0.4964 0.75067 0.57397 0.0
C48 C 0.60732 0.66416 0.59266 0.0
C49 C 0.49627 0.6571 0.53755 0.0
C50 C 0.39179 0.65929 0.59365 0.0
C51 C 0.49026 0.83733 0.53659 0.0
C52 C 0.60521 0.84549 0.59049 0.0
C53 C 0.38676 0.84013 0.5924 0.0
O54 O 0.61636 0.68454 0.57709 0.0
O55 O 0.44608 0.67902 0.54261 0.0
O56 O 0.42951 0.6855 0.60387 0.0
O57 O 0.54151 0.81623 0.54115 0.0
O58 O 0.56693 0.82383 0.60136 0.0
O59 O 0.37429 0.81374 0.57786 0.0
O60 O 0.61234 0.82461 0.57491 0.0
O61 O 0.44062 0.81829 0.54305 0.0
O62 O 0.43196 0.82609 0.60197 0.0
O63 O 0.54688 0.67683 0.54308 0.0
O64 O 0.56572 0.6841 0.60277 0.0
O65 O 0.3837 0.67487 0.5776 0.0
Sc66 Sc 0.49515 0.3112 0.81145 0.0
Sc67 Sc 0.49538 0.15178 0.80975 0.0
Sc68 Sc 0.49437 0.2268 0.85113 0.0
O69 O 0.49493 0.22988 0.82413 0.0
C70 C 0.58706 0.335 0.84309 0.0
C71 C 0.58353 0.2339 0.78671 0.0
C72 C 0.58552 0.1192 0.84155 0.0
C73 C 0.40361 0.23505 0.78775 0.0
C74 C 0.40658 0.33823 0.84405 0.0
C75 C 0.40426 0.11882 0.84111 0.0
O76 O 0.56867 0.34414 0.82733 0.0
O77 O 0.56627 0.18243 0.79233 0.0
O78 O 0.56545 0.1597 0.85205 0.0
O79 O 0.42185 0.28509 0.79424 0.0
O80 O 0.42264 0.29291 0.85331 0.0
O81 O 0.42418 0.11204 0.82541 0.0
O82 O 0.43022 0.35113 0.82917 0.0
O83 O 0.42687 0.18422 0.79182 0.0
O84 O 0.42584 0.1576 0.85188 0.0
O85 O 0.5607 0.28328 0.79213 0.0
O86 O 0.56319 0.29605 0.8534 0.0
O87 O 0.56425 0.11092 0.82605 0.0
Sc88 Sc -0.00413 0.72569 0.87936 0.0
Sc89 Sc 0.07442 0.73395 0.92008 0.0
Sc90 Sc 0.91544 0.72871 0.91976 0.0
O91 O -0.00475 0.72943 0.90639 0.0
C92 C 0.88566 0.81551 0.88687 0.0
C93 C 0.10148 0.82129 0.88758 0.0
C94 C -0.00934 0.82305 0.94277 0.0
C95 C 0.10734 0.64077 0.88896 0.0
C96 C 0.88885 0.63389 0.88886 0.0
C97 C -0.00204 0.64281 0.94387 0.0
O98 O 0.92808 0.79597 0.87697 0.0
O99 O 0.10818 0.8058 0.9037 0.0
O100 O 0.94098 0.80239 0.93684 0.0
O101 O 0.06314 0.65466 0.87895 0.0
O102 O 0.88028 0.65462 0.90438 0.0
O103 O 0.04819 0.6625 0.93797 0.0
O104 O 0.92779 0.65591 0.87826 0.0
O105 O 0.11789 0.66704 0.90366 0.0
O106 O 0.94714 0.66323 0.93872 0.0
O107 O 0.06453 0.79512 0.87711 0.0
O108 O 0.87552 0.79463 0.90231 0.0
O109 O 0.04172 0.80197 0.93815 0.0
Sc110 Sc 0.47974 0.72875 0.12921 0.0
Sc111 Sc 0.48036 0.81161 0.16909 0.0
Sc112 Sc 0.48463 0.65248 0.1702 0.0
O113 O 0.48163 0.73092 0.15615 0.0
C114 C 0.39398 0.61794 0.13859 0.0
C115 C 0.38664 0.83556 0.13817 0.0
C116 C 0.39436 0.73001 0.19353 0.0
C117 C 0.56647 0.84091 0.13603 0.0
C118 C 0.57388 0.62307 0.13852 0.0
C119 C 0.57365 0.73841 0.19251 0.0
O120 O 0.40706 0.663 0.12878 0.0
O121 O 0.40403 0.84269 0.15411 0.0
O122 O 0.41067 0.67928 0.1871 0.0
O123 O 0.55231 0.79426 0.127 0.0
O124 O 0.55882 0.61842 0.15474 0.0
O125 O 0.55643 0.78783 0.18548 0.0
O126 O 0.5472 0.65837 0.12772 0.0
O127 O 0.54187 0.85408 0.15078 0.0
O128 O 0.54964 0.68752 0.18886 0.0
O129 O 0.41197 0.79888 0.12747 0.0
O130 O 0.42051 0.60711 0.15321 0.0
O131 O 0.41806 0.78002 0.18889 0.0
Sc132 Sc 0.48185 0.25036 0.37878 0.0
Sc133 Sc 0.56237 0.24462 0.41894 0.0
Sc134 Sc 0.40367 0.25203 0.41948 0.0
O135 O 0.48259 0.24901 0.40573 0.0
C136 C 0.37702 0.34509 0.38859 0.0
C137 C 0.59422 0.33504 0.38705 0.0
C138 C 0.49018 0.33689 0.443 0.0
C139 C 0.58704 0.15464 0.38713 0.0
C140 C 0.36989 0.16488 0.38687 0.0
C141 C 0.47784 0.15742 0.44222 0.0
O142 O 0.41198 0.31869 0.37763 0.0
O143 O 0.60658 0.30789 0.40147 0.0
O144 O 0.43897 0.31451 0.43892 0.0
O145 O 0.55172 0.18214 0.37651 0.0
O146 O 0.35827 0.19045 0.40162 0.0
O147 O 0.52851 0.18039 0.43793 0.0
O148 O 0.41581 0.17811 0.37745 0.0
O149 O 0.59283 0.16953 0.40333 0.0
O150 O 0.42788 0.17569 0.4358 0.0
O151 O 0.5478 0.32282 0.37771 0.0
O152 O 0.37194 0.32866 0.40468 0.0
O153 O 0.53938 0.31916 0.43601 0.0
Sc154 Sc 0.00046 0.25259 0.62904 0.0
Sc155 Sc -0.00481 0.32939 0.67015 0.0
Sc156 Sc -0.00554 0.16999 0.66898 0.0
O157 O -0.00326 0.25072 0.65604 0.0
C158 C 0.90617 0.14533 0.6365 0.0
C159 C 0.90919 0.36119 0.63731 0.0
C160 C 0.90372 0.24883 0.69253 0.0
C161 C 0.09021 0.36033 0.63962 0.0
C162 C 0.08641 0.14089 0.63739 0.0
C163 C 0.08367 0.24642 0.69337 0.0
O164 O 0.9314 0.18367 0.62627 0.0
O165 O 0.92867 0.36993 0.65299 0.0
O166 O 0.92691 0.19917 0.68749 0.0
O167 O 0.06958 0.32124 0.62879 0.0
O168 O 0.06109 0.12895 0.65209 0.0
O169 O 0.06128 0.29727 0.68892 0.0
O170 O 0.07175 0.18585 0.62779 0.0
O171 O 0.06852 0.36797 0.65509 0.0
O172 O 0.06585 0.1963 0.68683 0.0
O173 O 0.93012 0.32014 0.62715 0.0
O174 O 0.92269 0.13688 0.65247 0.0
O175 O 0.92197 0.30003 0.68697 0.0
H176 H 0.89232 0.37917 0.02247 0.0
H177 H 0.09605 0.58947 0.95995 0.0
H178 H 0.08773 0.38023 0.02409 0.0
H179 H 0.90057 0.58754 0.95942 0.0
H180 H 0.09461 0.51303 0.9834 0.0
H181 H 0.89528 0.45661 -0.00046 0.0
C182 C 0.93594 0.39575 0.01806 0.0
C183 C -0.0101 0.37286 0.02523 0.0
C184 C 0.0521 0.52939 0.97813 0.0
C185 C -0.00648 0.46175 -0.00118 0.0
C186 C 0.05284 0.57295 0.9647 0.0
C187 C -0.00166 0.59514 0.95768 0.0
C188 C -0.00352 0.50782 0.98456 0.0
C189 C 0.94377 0.57198 0.96441 0.0
C190 C 0.93756 0.44004 0.00492 0.0
C191 C 0.04497 0.39644 0.01897 0.0
N192 N 0.94429 0.5297 0.97746 0.0
N193 N 0.04536 0.4395 0.00608 0.0
H194 H 0.63554 0.83747 0.20522 0.0
H195 H 0.83132 0.64381 0.27422 0.0
H196 H 0.62288 0.64288 0.21063 0.0
H197 H 0.84545 0.83824 0.26866 0.0
H198 H 0.75442 0.64281 0.251 0.0
H199 H 0.71302 0.83871 0.22832 0.0
C200 C 0.64912 0.79498 0.2112 0.0
C201 C 0.62244 0.74 0.20596 0.0
C202 C 0.77433 0.68569 0.25488 0.0
C203 C 0.711 0.74119 0.23248 0.0
C204 C 0.81822 0.68633 0.26817 0.0
C205 C 0.84509 0.74118 0.27342 0.0
C206 C 0.75709 0.74027 0.24675 0.0
C207 C 0.82615 0.79482 0.26506 0.0
C208 C 0.69332 0.79575 0.22442 0.0
C209 C 0.64198 0.6864 0.21422 0.0
N210 N 0.78339 0.79298 0.25214 0.0
N211 N 0.68494 0.68839 0.22708 0.0
H212 H 0.3976 0.59886 0.52364 0.0
H213 H 0.59026 0.394 0.45679 0.0
H214 H 0.59283 0.60298 0.52096 0.0
H215 H 0.39533 0.38847 0.46082 0.0
H216 H 0.59255 0.47065 0.48018 0.0
H217 H 0.39653 0.52102 0.50074 0.0
C218 C 0.44033 0.58335 0.51829 0.0
C219 C 0.49542 0.60779 0.52423 0.0
C220 C 0.54932 0.45263 0.47593 0.0
C221 C 0.49439 0.5185 0.49788 0.0
C222 C 0.54792 0.40892 0.46254 0.0
C223 C 0.4925 0.3846 0.4568 0.0
C224 C 0.49493 0.47224 0.48363 0.0
C225 C 0.43916 0.40576 0.46479 0.0
C226 C 0.43965 0.53883 0.50518 0.0
C227 C 0.54927 0.58556 0.51679 0.0
N228 N 0.44175 0.44829 0.47778 0.0
N229 N 0.54739 0.54229 0.50396 0.0
H230 H 0.63412 0.33516 0.77176 0.0
H231 H 0.85028 0.14808 0.70681 0.0
H232 H 0.6417 0.13951 0.7702 0.0
H233 H 0.84517 0.34378 0.70874 0.0
H234 H 0.77253 0.14439 0.72963 0.0
H235 H 0.71065 0.33926 0.74854 0.0
C236 C 0.65188 0.29298 0.76658 0.0
C237 C 0.63125 0.23683 0.77297 0.0
C238 C 0.78832 0.18816 0.72506 0.0
C239 C 0.71899 0.2414 0.74628 0.0
C240 C 0.83277 0.19038 0.71199 0.0
C241 C 0.8546 0.24641 0.70585 0.0
C242 C 0.76537 0.24229 0.73211 0.0
C243 C 0.82985 0.29956 0.71306 0.0
C244 C 0.69561 0.29544 0.75328 0.0
C245 C 0.65614 0.18382 0.76571 0.0
N246 N 0.78664 0.29618 0.72585 0.0
N247 N 0.69864 0.18744 0.75274 0.0
H248 H 0.35085 0.13829 0.7709 0.0
H249 H 0.13457 0.34322 0.71072 0.0
H250 H 0.34439 0.33377 0.77402 0.0
H251 H 0.14166 0.14777 0.70755 0.0
H252 H 0.21107 0.3406 0.734 0.0
H253 H 0.27313 0.14094 0.74799 0.0
C254 C 0.33303 0.18182 0.76683 0.0
C255 C 0.35447 0.23594 0.77441 0.0
C256 C 0.19591 0.29829 0.7282 0.0
C257 C 0.26539 0.23918 0.74806 0.0
C258 C 0.15223 0.29971 0.71486 0.0
C259 C 0.13147 0.24559 0.70713 0.0
C260 C 0.21911 0.24239 0.73388 0.0
C261 C 0.15619 0.19066 0.71309 0.0
C262 C 0.28863 0.18325 0.7537 0.0
C263 C 0.3294 0.29088 0.76857 0.0
N264 N 0.19865 0.1905 0.72612 0.0
N265 N 0.28631 0.29107 0.75572 0.0
H266 H 0.33265 0.63424 0.20831 0.0
H267 H 0.13534 0.84479 0.27268 0.0
H268 H 0.34659 0.82956 0.21004 0.0
H269 H 0.12118 0.64948 0.271 0.0
H270 H 0.21359 0.84 0.24986 0.0
H271 H 0.25499 0.63885 0.23133 0.0
C272 C 0.31941 0.67807 0.21348 0.0
C273 C 0.34636 0.73155 0.20721 0.0
C274 C 0.19335 0.79821 0.25451 0.0
C275 C 0.25758 0.73712 0.23359 0.0
C276 C 0.1487 0.80091 0.26757 0.0
C277 C 0.12144 0.74751 0.27378 0.0
C278 C 0.2109 0.74173 0.2476 0.0
C279 C 0.14072 0.69193 0.26662 0.0
C280 C 0.27509 0.68067 0.22665 0.0
C281 C 0.32726 0.78706 0.21444 0.0
N282 N 0.18415 0.69053 0.25392 0.0
N283 N 0.28413 0.78836 0.22724 0.0
H284 H 0.37995 0.1013 0.45773 0.0
H285 H 0.58585 0.89165 0.5198 0.0
H286 H 0.57543 0.10171 0.45733 0.0
H287 H 0.39049 0.8919 0.52187 0.0
H288 H 0.58202 0.96807 0.49657 0.0
H289 H 0.38206 0.02314 0.48074 0.0
C290 C 0.42327 0.08488 0.4624 0.0
C291 C 0.47759 0.10836 0.4556 0.0
C292 C 0.53994 0.95149 0.5021 0.0
C293 C 0.48024 0.01917 0.48194 0.0
C294 C 0.54208 0.90779 0.51541 0.0
C295 C 0.4884 0.88513 0.52283 0.0
C296 C 0.48374 0.97285 0.49611 0.0
C297 C 0.43307 0.90799 0.51656 0.0
C298 C 0.42441 0.04037 0.47557 0.0
C299 C 0.53235 0.0853 0.46219 0.0
N300 N 0.43218 0.95056 0.50354 0.0
N301 N 0.53221 0.04215 0.47498 0.0
H302 H 0.8811 0.08619 0.02186 0.0
H303 H 0.08652 0.88239 0.95798 0.0
H304 H 0.0764 0.0935 0.02047 0.0
H305 H 0.89112 0.87633 0.95796 0.0
H306 H 0.08304 0.96065 0.98076 0.0
H307 H 0.8833 0.00931 -0.00151 0.0
C308 C 0.92442 0.07164 0.01669 0.0
C309 C 0.97864 0.09649 0.02317 0.0
C310 C 0.04089 0.94231 0.97576 0.0
C311 C 0.98139 0.00865 -0.0036 0.0
C312 C 0.04282 0.89757 0.96271 0.0
C313 C -0.01098 0.87247 0.95605 0.0
C314 C 0.98478 0.96218 0.98225 0.0
C315 C 0.93378 0.89424 0.9627 0.0
C316 C 0.92562 0.02782 0.00332 0.0
C317 C 0.0334 0.07582 0.01592 0.0
N318 N 0.9331 0.93772 0.97547 0.0
N319 N 0.03332 0.03319 0.00295 0.0
H320 H 0.31001 0.90684 0.15764 0.0
H321 H 0.15889 0.05912 0.0727 0.0
H322 H 0.34783 0.85036 0.10386 0.0
H323 H 0.10122 0.09514 0.12647 0.0
H324 H 0.22628 0.98042 0.08381 0.0
H325 H 0.23131 0.97399 0.14646 0.0
C326 C 0.30164 0.90832 0.14348 0.0
C327 C 0.33605 0.87324 0.13166 0.0
C328 C 0.19856 0.00525 0.09317 0.0
C329 C 0.24598 0.95031 0.11878 0.0
C330 C 0.16014 0.05035 0.08684 0.0
C331 C 0.12467 0.08427 0.09868 0.0
C332 C 0.20198 -0.00577 0.11148 0.0
C333 C 0.12787 0.07039 0.11684 0.0
C334 C 0.25652 0.94659 0.13711 0.0
C335 C 0.32266 0.87669 0.11347 0.0
N336 N 0.16627 0.02679 0.1227 0.0
N337 N 0.27903 0.91498 0.10757 0.0
H338 H 0.17486 0.83549 0.3601 0.0
H339 H 0.24731 0.16977 0.3884 0.0
H340 H 0.06949 0.98358 0.33922 0.0
H341 H 0.39401 0.05681 0.37034 0.0
H342 H 0.17498 0.09444 0.37717 0.0
H343 H 0.25094 0.90913 0.37063 0.0
C344 C 0.16775 0.88342 0.3578 0.0
C345 C 0.11611 0.90371 0.34876 0.0
C346 C 0.22304 0.08627 0.37572 0.0
C347 C 0.20142 0.98727 0.36103 0.0
C348 C 0.26419 0.1289 0.38215 0.0
C349 C 0.32653 0.11936 0.38021 0.0
C350 C 0.24443 0.03295 0.36781 0.0
C351 C 0.3462 0.06584 0.37195 0.0
C352 C 0.21111 0.92511 0.3637 0.0
C353 C 0.10894 0.96619 0.34604 0.0
N354 N 0.30518 0.02407 0.36621 0.0
N355 N 0.15074 0.00589 0.35236 0.0
H356 H 0.08429 0.01849 0.64004 0.0
H357 H 0.41427 0.94656 0.60941 0.0
H358 H 0.19238 0.16609 0.61986 0.0
H359 H 0.26435 0.84035 0.58987 0.0
H360 H 0.34198 0.02356 0.62005 0.0
H361 H 0.15925 0.94662 0.62864 0.0
C362 C 0.12409 0.0357 0.63332 0.0
C363 C 0.13233 0.09812 0.63082 0.0
C364 C 0.32535 0.98338 0.61336 0.0
C365 C 0.21824 0.01653 0.61816 0.0
C366 C 0.36624 0.93952 0.60741 0.0
C367 C 0.34497 0.88733 0.59875 0.0
C368 C 0.26311 0.97358 0.61112 0.0
C369 C 0.28245 0.8802 0.59639 0.0
C370 C 0.16647 -0.00522 0.62679 0.0
C371 C 0.18443 0.11817 0.62193 0.0
N372 N 0.24357 0.92247 0.60277 0.0
N373 N 0.22604 0.07737 0.61605 0.0
H374 H 0.16914 0.90252 0.90653 0.0
H375 H 0.33714 0.03755 0.82167 0.0
H376 H 0.12262 0.8521 0.85282 0.0
H377 H 0.35811 0.10916 0.87472 0.0
H378 H 0.25843 0.96931 0.83263 0.0
H379 H 0.23839 0.97874 0.89494 0.0
C380 C 0.17327 0.90761 0.89228 0.0
C381 C 0.14025 0.87051 0.88063 0.0
C382 C 0.28006 0.00024 0.84183 0.0
C383 C 0.2199 0.95772 0.86726 0.0
C384 C 0.32515 0.03912 0.8356 0.0
C385 C 0.35468 0.07897 0.84731 0.0
C386 C 0.26469 0.00088 0.85991 0.0
C387 C 0.33685 0.07917 0.8652 0.0
C388 C 0.21278 0.95131 0.88567 0.0
C389 C 0.14717 0.87963 0.8623 0.0
N390 N 0.29334 0.04046 0.87095 0.0
N391 N 0.18666 0.922 0.85617 0.0
H392 H 0.80916 0.88734 0.90611 0.0
H393 H 0.65471 0.04091 0.82183 0.0
H394 H 0.87041 0.85503 0.85251 0.0
H395 H 0.62809 0.10437 0.8755 0.0
H396 H 0.7315 0.97041 0.83264 0.0
H397 H 0.74013 0.96457 0.895 0.0
C398 C 0.8082 0.89649 0.89199 0.0
C399 C 0.84555 0.8643 0.88022 0.0
C400 C 0.7091 4e-05 0.84203 0.0
C401 C 0.76612 0.95286 0.8674 0.0
C402 C 0.66508 0.04023 0.83588 0.0
C403 C 0.63453 0.07856 0.84778 0.0
C404 C 0.72232 -0.00245 0.86023 0.0
C405 C 0.65032 0.07578 0.86582 0.0
C406 C 0.76886 0.94085 0.88567 0.0
C407 C 0.84253 0.87867 0.86208 0.0
N408 N 0.69272 0.03566 0.8715 0.0
N409 N 0.80313 0.92155 0.8562 0.0
H410 H 0.82432 0.0789 0.65544 0.0
H411 H 0.68627 0.91194 0.57084 0.0
H412 H 0.87443 0.12528 0.60173 0.0
H413 H 0.61398 0.89403 0.62385 0.0
H414 H 0.75499 -0.00933 0.58161 0.0
H415 H 0.74651 0.0114 0.64387 0.0
C416 C 0.81885 0.07505 0.64119 0.0
C417 C 0.85633 0.10747 0.62953 0.0
C418 C 0.72375 0.96976 0.59083 0.0
C419 C 0.76723 0.02987 0.61618 0.0
C420 C 0.68458 0.92467 0.58471 0.0
C421 C 0.64454 0.89585 0.59648 0.0
C422 C 0.72322 0.98579 0.60887 0.0
C423 C 0.64417 0.91465 0.61429 0.0
C424 C 0.77421 0.0366 0.63459 0.0
C425 C 0.84663 0.10109 0.6112 0.0
N426 N 0.68323 0.95805 0.61995 0.0
N427 N 0.80335 0.06254 0.60508 0.0
H428 H 0.81709 0.9326 0.32139 0.0
H429 H 0.65382 0.07345 0.40629 0.0
H430 H 0.84667 0.86971 0.37499 0.0
H431 H 0.60729 0.12186 0.35246 0.0
H432 H 0.7222 -0.00374 0.3949 0.0
H433 H 0.73797 -5e-05 0.33233 0.0
C434 C 0.80688 0.93271 0.33545 0.0
C435 C 0.83906 0.89566 0.3473 0.0
C436 C 0.69678 0.02346 0.38556 0.0
C437 C 0.74844 0.97288 0.3599 0.0
C438 C 0.65773 0.06772 0.39206 0.0
C439 C 0.62506 0.10465 0.38031 0.0
C440 C 0.70372 0.01624 0.36717 0.0
C441 C 0.63166 0.0946 0.36201 0.0
C442 C 0.76153 0.97114 0.34167 0.0
C443 C 0.82337 0.89756 0.36535 0.0
N444 N 0.67065 0.05167 0.356 0.0
N445 N 0.77949 0.93583 0.3711 0.0
H446 H 0.56053 0.96348 0.13637 0.0
H447 H 0.89502 0.03581 0.10965 0.0
H448 H 0.67461 0.81558 0.11973 0.0
H449 H 0.74777 0.14137 0.08838 0.0
H450 H 0.82138 0.95881 0.11952 0.0
H451 H 0.63571 0.03535 0.12499 0.0
C452 C 0.60157 0.94625 0.13036 0.0
C453 C 0.61154 0.88371 0.12891 0.0
C454 C 0.80561 -0.00118 0.11262 0.0
C455 C 0.69784 0.96536 0.11631 0.0
C456 C 0.84729 0.04274 0.10711 0.0
C457 C 0.82724 0.09481 0.09819 0.0
C458 C 0.74368 0.00834 0.10967 0.0
C459 C 0.76503 0.10167 0.09512 0.0
C460 C 0.64414 0.98714 0.12384 0.0
C461 C 0.66529 0.86356 0.12096 0.0
N462 N 0.72532 0.05932 0.10108 0.0
N463 N 0.70706 0.90442 0.11512 0.0
H464 H 0.8711 0.3758 0.60288 0.0
H465 H 0.62002 0.62362 0.6269 0.0
H466 H 0.83733 0.4391 0.65622 0.0
H467 H 0.68732 0.59451 0.57377 0.0
H468 H 0.69025 0.54663 0.63777 0.0
H469 H 0.79451 0.44637 0.59193 0.0
C470 C 0.8474 0.40422 0.61231 0.0
C471 C 0.861 0.40166 0.63051 0.0
C472 C 0.68951 0.55706 0.62373 0.0
C473 C 0.77316 0.48244 0.61803 0.0
C474 C 0.64928 0.60088 0.61749 0.0
C475 C 0.6479 0.6159 0.59939 0.0
C476 C 0.7283 0.52754 0.61178 0.0
C477 C 0.68704 0.58483 0.58785 0.0
C478 C 0.80383 0.44466 0.60603 0.0
C479 C 0.82876 0.43976 0.64208 0.0
N480 N 0.72558 0.54216 0.59424 0.0
N481 N 0.78638 0.47851 0.63564 0.0
H482 H 0.81174 0.56327 0.9085 0.0
H483 H 0.66502 0.40517 0.8238 0.0
H484 H 0.87779 0.58917 0.85507 0.0
H485 H 0.62412 0.35088 0.87756 0.0
H486 H 0.74382 0.4722 0.83511 0.0
H487 H 0.74343 0.48464 0.89757 0.0
C488 C 0.81213 0.55229 0.89448 0.0
C489 C 0.85025 0.58334 0.88266 0.0
C490 C 0.71792 0.44532 0.84443 0.0
C491 C 0.77195 0.49346 0.87008 0.0
C492 C 0.67271 0.40716 0.83799 0.0
C493 C 0.63749 0.3727 0.84977 0.0
C494 C 0.72768 0.44965 0.86279 0.0
C495 C 0.65004 0.37672 0.868 0.0
C496 C 0.77321 0.50722 0.88827 0.0
C497 C 0.8491 0.56669 0.86467 0.0
N498 N 0.69376 0.41499 0.87397 0.0
N499 N 0.81017 0.52327 0.85892 0.0
H500 H 0.61259 0.61022 0.10415 0.0
H501 H 0.85917 0.35774 0.1276 0.0
H502 H 0.64821 0.54737 0.15744 0.0
H503 H 0.80178 0.39997 0.0742 0.0
H504 H 0.79073 0.43554 0.13884 0.0
H505 H 0.69054 0.54183 0.09311 0.0
C506 C 0.63695 0.58233 0.11357 0.0
C507 C 0.62337 0.5843 0.13176 0.0
C508 C 0.79332 0.42788 0.12466 0.0
C509 C 0.71277 0.5058 0.11915 0.0
C510 C 0.83251 0.38354 0.11822 0.0
C511 C 0.83596 0.37188 0.09992 0.0
C512 C 0.75752 0.46102 0.11274 0.0
C513 C 0.80032 0.40695 0.08842 0.0
C514 C 0.68141 0.54318 0.10723 0.0
C515 C 0.65672 0.54712 0.14329 0.0
N516 N 0.76248 0.44978 0.09503 0.0
N517 N 0.69973 0.50927 0.13678 0.0
H518 H 0.78857 0.66588 0.3605 0.0
H519 H 0.71658 0.33143 0.38936 0.0
H520 H 0.89683 0.51661 0.34166 0.0
H521 H 0.57017 0.44321 0.37047 0.0
H522 H 0.78893 0.40748 0.3788 0.0
H523 H 0.71204 0.59261 0.37101 0.0
C524 C 0.79626 0.61779 0.35868 0.0
C525 C 0.84879 0.59701 0.3502 0.0
C526 C 0.74093 0.41528 0.37702 0.0
C527 C 0.76297 0.514 0.36238 0.0
C528 C 0.69973 0.37219 0.38307 0.0
C529 C 0.63747 0.38112 0.38069 0.0
C530 C 0.71969 0.46843 0.36901 0.0
C531 C 0.61793 0.4346 0.3724 0.0
C532 C 0.75264 0.57632 0.36454 0.0
C533 C 0.8567 0.53437 0.34804 0.0
N534 N 0.65901 0.47679 0.36698 0.0
N535 N 0.81459 0.495 0.35429 0.0
H536 H 0.30463 0.42054 0.40822 0.0
H537 H 0.15308 0.57279 0.32323 0.0
H538 H 0.36169 0.38474 0.35439 0.0
H539 H 0.11266 0.62731 0.37702 0.0
H540 H 0.23172 0.50584 0.33449 0.0
H541 H 0.23633 0.49862 0.39716 0.0
C542 C 0.30309 0.42923 0.39408 0.0
C543 C 0.33868 0.39553 0.38221 0.0
C544 C 0.20593 0.53271 0.34383 0.0
C545 C 0.26028 0.48487 0.36947 0.0
C546 C 0.16082 0.57089 0.33742 0.0
C547 C 0.12574 0.60544 0.34921 0.0
C548 C 0.21589 0.52852 0.36219 0.0
C549 C 0.13838 0.60142 0.36744 0.0
C550 C 0.2641 0.47396 0.38779 0.0
C551 C 0.335 0.40929 0.36405 0.0
N552 N 0.18211 0.56324 0.37338 0.0
N553 N 0.29613 0.45254 0.35823 0.0
H554 H 0.0648 0.42215 0.11137 0.0
H555 H 0.39657 0.49554 0.14201 0.0
H556 H 0.21449 0.31294 0.09344 0.0
H557 H 0.287 0.64092 0.12135 0.0
H558 H 0.32116 0.42237 0.13141 0.0
H559 H 0.13748 0.49882 0.12216 0.0
C560 C 0.11287 0.41427 0.10982 0.0
C561 C 0.13395 0.36145 0.10149 0.0
C562 C 0.31369 0.47034 0.12928 0.0
C563 C 0.21629 0.44744 0.11403 0.0
C564 C 0.35637 0.51201 0.13536 0.0
C565 C 0.34791 0.57421 0.13247 0.0
C566 C 0.26138 0.49111 0.12074 0.0
C567 C 0.29522 0.59323 0.12369 0.0
C568 C 0.15401 0.45796 0.11585 0.0
C569 C 0.19655 0.3533 0.09969 0.0
N570 N 0.2534 0.55176 0.11826 0.0
N571 N 0.23561 0.39551 0.10611 0.0
H572 H 0.22932 0.64119 0.89306 0.0
H573 H 0.30053 0.31029 0.86113 0.0
H574 H 0.08328 0.53458 0.87129 0.0
H575 H 0.40866 0.46095 0.84307 0.0
H576 H 0.22447 0.38274 0.87233 0.0
H577 H 0.30151 0.56522 0.88235 0.0
C578 C 0.21249 0.60149 0.88616 0.0
C579 C 0.15042 0.59407 0.88296 0.0
C580 C 0.26497 0.39951 0.86589 0.0
C581 C 0.23234 0.50693 0.87112 0.0
C582 C 0.30827 0.35851 0.85963 0.0
C583 C 0.36056 0.37997 0.85115 0.0
C584 C 0.27547 0.46196 0.86417 0.0
C585 C 0.36865 0.44274 0.84942 0.0
C586 C 0.25359 0.5585 0.88003 0.0
C587 C 0.1309 0.542 0.87388 0.0
N588 N 0.32689 0.48163 0.85608 0.0
N589 N 0.17181 0.49987 0.86838 0.0
H590 H 0.15424 0.44388 0.65919 0.0
H591 H 0.32791 0.57487 0.57489 0.0
H592 H 0.14129 0.36674 0.60658 0.0
H593 H 0.36929 0.63053 0.62852 0.0
H594 H 0.25989 0.49775 0.58654 0.0
H595 H 0.23351 0.51212 0.64853 0.0
C596 C 0.16815 0.44105 0.64543 0.0
C597 C 0.14058 0.39975 0.63373 0.0
C598 C 0.28411 0.52649 0.59579 0.0
C599 C 0.23118 0.47782 0.62149 0.0
C600 C 0.32287 0.57074 0.58914 0.0
C601 C 0.35401 0.60959 0.60075 0.0
C602 C 0.27574 0.52131 0.61419 0.0
C603 C 0.34612 0.6016 0.61909 0.0
C604 C 0.21355 0.47992 0.63938 0.0
C605 C 0.16088 0.39793 0.61608 0.0
N606 N 0.30725 0.55869 0.62526 0.0
N607 N 0.20457 0.43669 0.61049 0.0
loop_
_geom_bond_atom_site_label_1
_geom_bond_atom_site_label_2
_geom_bond_distance
_geom_bond_site_symmetry_2
_ccdc_geom_bond_type
Sc0 O3 2.025 . S
Sc0 O10 2.105 . S
Sc0 O13 2.105 . S
Sc0 O16 2.105 . S
Sc0 O19 2.105 . S
Sc1 O3 2.025 1_655 S
Sc1 O11 2.105 . S
Sc1 O15 2.105 . S
Sc1 O17 2.105 . S
Sc1 O21 2.105 . S
Sc2 O3 2.025 . S
Sc2 O12 2.105 1_455 S
Sc2 O14 2.105 . S
Sc2 O18 2.105 1_455 S
Sc2 O20 2.105 . S
O3 Sc0 2.025 . S
O3 Sc1 2.025 1_455 S
O3 Sc2 2.025 . S
C4 O10 1.268 . S
C4 O20 1.268 . S
C5 O11 1.268 1_455 S
C5 O19 1.268 . S
C6 O12 1.268 . S
C6 O21 1.268 . S
C7 O13 1.268 . S
C7 O17 1.268 1_455 S
C8 O14 1.268 . S
C8 O16 1.268 . S
C9 O15 1.268 . S
C9 O18 1.268 . S
O10 Sc0 2.105 . S
O10 C4 1.268 . S
O11 Sc1 2.105 . S
O11 C5 1.268 1_655 S
O12 Sc2 2.105 1_655 S
O12 C6 1.268 . S
O13 Sc0 2.105 . S
O13 C7 1.268 . S
O14 Sc2 2.105 . S
O14 C8 1.268 . S
O15 Sc1 2.105 . S
O15 C9 1.268 . S
O16 Sc0 2.105 . S
O16 C8 1.268 . S
O17 Sc1 2.105 . S
O17 C7 1.268 1_655 S
O18 Sc2 2.105 1_655 S
O18 C9 1.268 . S
O19 Sc0 2.105 . S
O19 C5 1.268 . S
O20 Sc2 2.105 . S
O20 C4 1.268 . S
O21 Sc1 2.105 . S
O21 C6 1.268 . S
Sc22 O25 2.025 . S
Sc22 O32 2.105 . S
Sc22 O35 2.105 1_455 S
Sc22 O38 2.105 1_455 S
Sc22 O41 2.105 . S
Sc23 O25 2.025 . S
Sc23 O33 2.105 . S
Sc23 O37 2.105 1_455 S
Sc23 O39 2.105 1_455 S
Sc23 O43 2.105 . S
Sc24 O25 2.025 . S
Sc24 O34 2.105 . S
Sc24 O36 2.105 1_455 S
Sc24 O40 2.105 1_455 S
Sc24 O42 2.105 . S
O25 Sc22 2.025 . S
O25 Sc23 2.025 . S
O25 Sc24 2.025 . S
C26 O32 1.268 . S
C26 O42 1.268 . S
C27 O33 1.268 . S
C27 O41 1.268 . S
C28 O34 1.268 . S
C28 O43 1.268 . S
C29 O35 1.268 . S
C29 O39 1.268 . S
C30 O36 1.268 . S
C30 O38 1.268 . S
C31 O37 1.268 . S
C31 O40 1.268 . S
O32 Sc22 2.105 . S
O32 C26 1.268 . S
O33 Sc23 2.105 . S
O33 C27 1.268 . S
O34 Sc24 2.105 . S
O34 C28 1.268 . S
O35 Sc22 2.105 1_655 S
O35 C29 1.268 . S
O36 Sc24 2.105 1_655 S
O36 C30 1.268 . S
O37 Sc23 2.105 1_655 S
O37 C31 1.268 . S
O38 Sc22 2.105 1_655 S
O38 C30 1.268 . S
O39 Sc23 2.105 1_655 S
O39 C29 1.268 . S
O40 Sc24 2.105 1_655 S
O40 C31 1.268 . S
O41 Sc22 2.105 . S
O41 C27 1.268 . S
O42 Sc24 2.105 . S
O42 C26 1.268 . S
O43 Sc23 2.105 . S
O43 C28 1.268 . S
Sc44 O47 2.025 . S
Sc44 O54 2.105 . S
Sc44 O57 2.105 . S
Sc44 O60 2.105 . S
Sc44 O63 2.105 . S
Sc45 O47 2.025 . S
Sc45 O55 2.105 . S
Sc45 O59 2.105 . S
Sc45 O61 2.105 . S
Sc45 O65 2.105 . S
Sc46 O47 2.025 . S
Sc46 O56 2.105 . S
Sc46 O58 2.105 . S
Sc46 O62 2.105 . S
Sc46 O64 2.105 . S
O47 Sc44 2.025 . S
O47 Sc45 2.025 . S
O47 Sc46 2.025 . S
C48 O54 1.268 . S
C48 O64 1.268 . S
C49 O55 1.268 . S
C49 O63 1.268 . S
C50 O56 1.268 . S
C50 O65 1.268 . S
C51 O57 1.268 . S
C51 O61 1.268 . S
C52 O58 1.268 . S
C52 O60 1.268 . S
C53 O59 1.268 . S
C53 O62 1.268 . S
O54 Sc44 2.105 . S
O54 C48 1.268 . S
O55 Sc45 2.105 . S
O55 C49 1.268 . S
O56 Sc46 2.105 . S
O56 C50 1.268 . S
O57 Sc44 2.105 . S
O57 C51 1.268 . S
O58 Sc46 2.105 . S
O58 C52 1.268 . S
O59 Sc45 2.105 . S
O59 C53 1.268 . S
O60 Sc44 2.105 . S
O60 C52 1.268 . S
O61 Sc45 2.105 . S
O61 C51 1.268 . S
O62 Sc46 2.105 . S
O62 C53 1.268 . S
O63 Sc44 2.105 . S
O63 C49 1.268 . S
O64 Sc46 2.105 . S
O64 C48 1.268 . S
O65 Sc45 2.105 . S
O65 C50 1.268 . S
Sc66 O69 2.025 . S
Sc66 O76 2.105 . S
Sc66 O79 2.105 . S
Sc66 O82 2.105 . S
Sc66 O85 2.105 . S
Sc67 O69 2.025 . S
Sc67 O77 2.105 . S
Sc67 O81 2.105 . S
Sc67 O83 2.105 . S
Sc67 O87 2.105 . S
Sc68 O69 2.025 . S
Sc68 O78 2.105 . S
Sc68 O80 2.105 . S
Sc68 O84 2.105 . S
Sc68 O86 2.105 . S
O69 Sc66 2.025 . S
O69 Sc67 2.025 . S
O69 Sc68 2.025 . S
C70 O76 1.268 . S
C70 O86 1.268 . S
C71 O77 1.268 . S
C71 O85 1.268 . S
C72 O78 1.268 . S
C72 O87 1.268 . S
C73 O79 1.268 . S
C73 O83 1.268 . S
C74 O80 1.268 . S
C74 O82 1.268 . S
C75 O81 1.268 . S
C75 O84 1.268 . S
O76 Sc66 2.105 . S
O76 C70 1.268 . S
O77 Sc67 2.105 . S
O77 C71 1.268 . S
O78 Sc68 2.105 . S
O78 C72 1.268 . S
O79 Sc66 2.105 . S
O79 C73 1.268 . S
O80 Sc68 2.105 . S
O80 C74 1.268 . S
O81 Sc67 2.105 . S
O81 C75 1.268 . S
O82 Sc66 2.105 . S
O82 C74 1.268 . S
O83 Sc67 2.105 . S
O83 C73 1.268 . S
O84 Sc68 2.105 . S
O84 C75 1.268 . S
O85 Sc66 2.105 . S
O85 C71 1.268 . S
O86 Sc68 2.105 . S
O86 C70 1.268 . S
O87 Sc67 2.105 . S
O87 C72 1.268 . S
Sc88 O91 2.025 . S
Sc88 O98 2.105 1_455 S
Sc88 O101 2.105 . S
Sc88 O104 2.105 1_455 S
Sc88 O107 2.105 . S
Sc89 O91 2.025 . S
Sc89 O99 2.105 . S
Sc89 O103 2.105 . S
Sc89 O105 2.105 . S
Sc89 O109 2.105 . S
Sc90 O91 2.025 1_655 S
Sc90 O100 2.105 . S
Sc90 O102 2.105 . S
Sc90 O106 2.105 . S
Sc90 O108 2.105 . S
O91 Sc88 2.025 . S
O91 Sc89 2.025 . S
O91 Sc90 2.025 1_455 S
C92 O98 1.268 . S
C92 O108 1.268 . S
C93 O99 1.268 . S
C93 O107 1.268 . S
C94 O100 1.268 1_455 S
C94 O109 1.268 . S
C95 O101 1.268 . S
C95 O105 1.268 . S
C96 O102 1.268 . S
C96 O104 1.268 . S
C97 O103 1.268 . S
C97 O106 1.268 1_455 S
O98 Sc88 2.105 1_655 S
O98 C92 1.268 . S
O99 Sc89 2.105 . S
O99 C93 1.268 . S
O100 Sc90 2.105 . S
O100 C94 1.268 1_655 S
O101 Sc88 2.105 . S
O101 C95 1.268 . S
O102 Sc90 2.105 . S
O102 C96 1.268 . S
O103 Sc89 2.105 . S
O103 C97 1.268 . S
O104 Sc88 2.105 1_655 S
O104 C96 1.268 . S
O105 Sc89 2.105 . S
O105 C95 1.268 . S
O106 Sc90 2.105 . S
O106 C97 1.268 1_655 S
O107 Sc88 2.105 . S
O107 C93 1.268 . S
O108 Sc90 2.105 . S
O108 C92 1.268 . S
O109 Sc89 2.105 . S
O109 C94 1.268 . S
Sc110 O113 2.025 . S
Sc110 O120 2.105 . S
Sc110 O123 2.105 . S
Sc110 O126 2.105 . S
Sc110 O129 2.105 . S
Sc111 O113 2.025 . S
Sc111 O121 2.105 . S
Sc111 O125 2.105 . S
Sc111 O127 2.105 . S
Sc111 O131 2.105 . S
Sc112 O113 2.025 . S
Sc112 O122 2.105 . S
Sc112 O124 2.105 . S
Sc112 O128 2.105 . S
Sc112 O130 2.105 . S
O113 Sc110 2.025 . S
O113 Sc111 2.025 . S
O113 Sc112 2.025 . S
C114 O120 1.268 . S
C114 O130 1.268 . S
C115 O121 1.268 . S
C115 O129 1.268 . S
C116 O122 1.268 . S
C116 O131 1.268 . S
C117 O123 1.268 . S
C117 O127 1.268 . S
C118 O124 1.268 . S
C118 O126 1.268 . S
C119 O125 1.268 . S
C119 O128 1.268 . S
O120 Sc110 2.105 . S
O120 C114 1.268 . S
O121 Sc111 2.105 . S
O121 C115 1.268 . S
O122 Sc112 2.105 . S
O122 C116 1.268 . S
O123 Sc110 2.105 . S
O123 C117 1.268 . S
O124 Sc112 2.105 . S
O124 C118 1.268 . S
O125 Sc111 2.105 . S
O125 C119 1.268 . S
O126 Sc110 2.105 . S
O126 C118 1.268 . S
O127 Sc111 2.105 . S
O127 C117 1.268 . S
O128 Sc112 2.105 . S
O128 C119 1.268 . S
O129 Sc110 2.105 . S
O129 C115 1.268 . S
O130 Sc112 2.105 . S
O130 C114 1.268 . S
O131 Sc111 2.105 . S
O131 C116 1.268 . S
Sc132 O135 2.025 . S
Sc132 O142 2.105 . S
Sc132 O145 2.105 . S
Sc132 O148 2.105 . S
Sc132 O151 2.105 . S
Sc133 O135 2.025 . S
Sc133 O143 2.105 . S
Sc133 O147 2.105 . S
Sc133 O149 2.105 . S
Sc133 O153 2.105 . S
Sc134 O135 2.025 . S
Sc134 O144 2.105 . S
Sc134 O146 2.105 . S
Sc134 O150 2.105 . S
Sc134 O152 2.105 . S
O135 Sc132 2.025 . S
O135 Sc133 2.025 . S
O135 Sc134 2.025 . S
C136 O142 1.268 . S
C136 O152 1.268 . S
C137 O143 1.268 . S
C137 O151 1.268 . S
C138 O144 1.268 . S
C138 O153 1.268 . S
C139 O145 1.268 . S
C139 O149 1.268 . S
C140 O146 1.268 . S
C140 O148 1.268 . S
C141 O147 1.268 . S
C141 O150 1.268 . S
O142 Sc132 2.105 . S
O142 C136 1.268 . S
O143 Sc133 2.105 . S
O143 C137 1.268 . S
O144 Sc134 2.105 . S
O144 C138 1.268 . S
O145 Sc132 2.105 . S
O145 C139 1.268 . S
O146 Sc134 2.105 . S
O146 C140 1.268 . S
O147 Sc133 2.105 . S
O147 C141 1.268 . S
O148 Sc132 2.105 . S
O148 C140 1.268 . S
O149 Sc133 2.105 . S
O149 C139 1.268 . S
O150 Sc134 2.105 . S
O150 C141 1.268 . S
O151 Sc132 2.105 . S
O151 C137 1.268 . S
O152 Sc134 2.105 . S
O152 C136 1.268 . S
O153 Sc133 2.105 . S
O153 C138 1.268 . S
Sc154 O157 2.025 . S
Sc154 O164 2.105 1_455 S
Sc154 O167 2.105 . S
Sc154 O170 2.105 . S
Sc154 O173 2.105 1_455 S
Sc155 O157 2.025 . S
Sc155 O165 2.105 1_455 S
Sc155 O169 2.105 . S
Sc155 O171 2.105 . S
Sc155 O175 2.105 1_455 S
Sc156 O157 2.025 . S
Sc156 O166 2.105 1_455 S
Sc156 O168 2.105 . S
Sc156 O172 2.105 . S
Sc156 O174 2.105 1_455 S
O157 Sc154 2.025 . S
O157 Sc155 2.025 . S
O157 Sc156 2.025 . S
C158 O164 1.268 . S
C158 O174 1.268 . S
C159 O165 1.268 . S
C159 O173 1.268 . S
C160 O166 1.268 . S
C160 O175 1.268 . S
C161 O167 1.268 . S
C161 O171 1.268 . S
C162 O168 1.268 . S
C162 O170 1.268 . S
C163 O169 1.268 . S
C163 O172 1.268 . S
O164 Sc154 2.105 1_655 S
O164 C158 1.268 . S
O165 Sc155 2.105 1_655 S
O165 C159 1.268 . S
O166 Sc156 2.105 1_655 S
O166 C160 1.268 . S
O167 Sc154 2.105 . S
O167 C161 1.268 . S
O168 Sc156 2.105 . S
O168 C162 1.268 . S
O169 Sc155 2.105 . S
O169 C163 1.268 . S
O170 Sc154 2.105 . S
O170 C162 1.268 . S
O171 Sc155 2.105 . S
O171 C161 1.268 . S
O172 Sc156 2.105 . S
O172 C163 1.268 . S
O173 Sc154 2.105 1_655 S
O173 C159 1.268 . S
O174 Sc156 2.105 1_655 S
O174 C158 1.268 . S
O175 Sc155 2.105 1_655 S
O175 C160 1.268 . S
H176 C182 0.930 . S
H177 C186 0.930 . S
H178 C191 0.929 . S
H179 C189 0.929 . S
H180 C184 0.929 1_554 S
H181 C190 0.929 1_556 S
C182 H176 0.930 . S
C182 C183 1.374 . S
C182 C190 1.378 . S
C183 C182 1.374 . S
C183 C191 1.426 1_655 S
C184 H180 0.929 1_556 S
C184 C186 1.378 . S
C184 C188 1.350 . S
C185 C188 1.463 1_654 S
C185 C190 1.350 . S
C185 N193 1.427 1_655 S
C186 H177 0.930 . S
C186 C184 1.378 . S
C186 C187 1.377 . S
C187 C186 1.377 . S
C187 C189 1.423 1_455 S
C188 C184 1.350 . S
C188 C185 1.463 1_456 S
C188 N192 1.427 1_455 S
C189 H179 0.929 . S
C189 C187 1.423 1_655 S
C189 N192 1.384 . S
C190 H181 0.929 1_554 S
C190 C182 1.378 . S
C190 C185 1.350 . S
C191 H178 0.929 . S
C191 C183 1.426 1_455 S
C191 N193 1.384 . S
N192 C188 1.427 1_655 S
N192 C189 1.384 . S
N193 C185 1.427 1_455 S
N193 C191 1.384 . S
H194 C200 0.930 . S
H195 C204 0.930 . S
H196 C209 0.929 . S
H197 C207 0.929 . S
H198 C202 0.929 . S
H199 C208 0.929 . S
C200 H194 0.930 . S
C200 C201 1.367 . S
C200 C208 1.378 . S
C201 C200 1.367 . S
C201 C209 1.433 . S
C202 H198 0.929 . S
C202 C204 1.378 . S
C202 C206 1.350 . S
C203 C206 1.463 . S
C203 C208 1.350 . S
C203 N211 1.427 . S
C204 H195 0.930 . S
C204 C202 1.378 . S
C204 C205 1.367 . S
C205 C204 1.367 . S
C205 C207 1.433 . S
C206 C202 1.350 . S
C206 C203 1.463 . S
C206 N210 1.427 . S
C207 H197 0.929 . S
C207 C205 1.433 . S
C207 N210 1.384 . S
C208 H199 0.929 . S
C208 C200 1.378 . S
C208 C203 1.350 . S
C209 H196 0.929 . S
C209 C201 1.433 . S
C209 N211 1.384 . S
N210 C206 1.427 . S
N210 C207 1.384 . S
N211 C203 1.427 . S
N211 C209 1.384 . S
H212 C218 0.930 . S
H213 C222 0.930 . S
H214 C227 0.929 . S
H215 C225 0.929 . S
H216 C220 0.929 . S
H217 C226 0.929 . S
C218 H212 0.930 . S
C218 C219 1.367 . S
C218 C226 1.378 . S
C219 C218 1.367 . S
C219 C227 1.433 . S
C220 H216 0.929 . S
C220 C222 1.378 . S
C220 C224 1.350 . S
C221 C224 1.463 . S
C221 C226 1.350 . S
C221 N229 1.427 . S
C222 H213 0.930 . S
C222 C220 1.378 . S
C222 C223 1.367 . S
C223 C222 1.367 . S
C223 C225 1.433 . S
C224 C220 1.350 . S
C224 C221 1.463 . S
C224 N228 1.427 . S
C225 H215 0.929 . S
C225 C223 1.433 . S
C225 N228 1.384 . S
C226 H217 0.929 . S
C226 C218 1.378 . S
C226 C221 1.350 . S
C227 H214 0.929 . S
C227 C219 1.433 . S
C227 N229 1.384 . S
N228 C224 1.427 . S
N228 C225 1.384 . S
N229 C221 1.427 . S
N229 C227 1.384 . S
H230 C236 0.930 . S
H231 C240 0.930 . S
H232 C245 0.929 . S
H233 C243 0.929 . S
H234 C238 0.929 . S
H235 C244 0.929 . S
C236 H230 0.930 . S
C236 C237 1.367 . S
C236 C244 1.378 . S
C237 C236 1.367 . S
C237 C245 1.433 . S
C238 H234 0.929 . S
C238 C240 1.378 . S
C238 C242 1.350 . S
C239 C242 1.463 . S
C239 C244 1.350 . S
C239 N247 1.427 . S
C240 H231 0.930 . S
C240 C238 1.378 . S
C240 C241 1.367 . S
C241 C240 1.367 . S
C241 C243 1.433 . S
C242 C238 1.350 . S
C242 C239 1.463 . S
C242 N246 1.427 . S
C243 H233 0.929 . S
C243 C241 1.433 . S
C243 N246 1.384 . S
C244 H235 0.929 . S
C244 C236 1.378 . S
C244 C239 1.350 . S
C245 H232 0.929 . S
C245 C237 1.433 . S
C245 N247 1.384 . S
N246 C242 1.427 . S
N246 C243 1.384 . S
N247 C239 1.427 . S
N247 C245 1.384 . S
H248 C254 0.930 . S
H249 C258 0.930 . S
H250 C263 0.929 . S
H251 C261 0.929 . S
H252 C256 0.929 . S
H253 C262 0.929 . S
C254 H248 0.930 . S
C254 C255 1.367 . S
C254 C262 1.378 . S
C255 C254 1.367 . S
C255 C263 1.433 . S
C256 H252 0.929 . S
C256 C258 1.378 . S
C256 C260 1.350 . S
C257 C260 1.463 . S
C257 C262 1.350 . S
C257 N265 1.427 . S
C258 H249 0.930 . S
C258 C256 1.378 . S
C258 C259 1.367 . S
C259 C258 1.367 . S
C259 C261 1.433 . S
C260 C256 1.350 . S
C260 C257 1.463 . S
C260 N264 1.427 . S
C261 H251 0.929 . S
C261 C259 1.433 . S
C261 N264 1.384 . S
C262 H253 0.929 . S
C262 C254 1.378 . S
C262 C257 1.350 . S
C263 H250 0.929 . S
C263 C255 1.433 . S
C263 N265 1.384 . S
N264 C260 1.427 . S
N264 C261 1.384 . S
N265 C257 1.427 . S
N265 C263 1.384 . S
H266 C272 0.930 . S
H267 C276 0.930 . S
H268 C281 0.929 . S
H269 C279 0.929 . S
H270 C274 0.929 . S
H271 C280 0.929 . S
C272 H266 0.930 . S
C272 C273 1.367 . S
C272 C280 1.378 . S
C273 C272 1.367 . S
C273 C281 1.433 . S
C274 H270 0.929 . S
C274 C276 1.378 . S
C274 C278 1.350 . S
C275 C278 1.463 . S
C275 C280 1.350 . S
C275 N283 1.427 . S
C276 H267 0.930 . S
C276 C274 1.378 . S
C276 C277 1.367 . S
C277 C276 1.367 . S
C277 C279 1.433 . S
C278 C274 1.350 . S
C278 C275 1.463 . S
C278 N282 1.427 . S
C279 H269 0.929 . S
C279 C277 1.433 . S
C279 N282 1.384 . S
C280 H271 0.929 . S
C280 C272 1.378 . S
C280 C275 1.350 . S
C281 H268 0.929 . S
C281 C273 1.433 . S
C281 N283 1.384 . S
N282 C278 1.427 . S
N282 C279 1.384 . S
N283 C275 1.427 . S
N283 C281 1.384 . S
H284 C290 0.930 . S
H285 C294 0.930 . S
H286 C299 0.929 . S
H287 C297 0.929 . S
H288 C292 0.929 . S
H289 C298 0.929 . S
C290 H284 0.930 . S
C290 C291 1.367 . S
C290 C298 1.378 . S
C291 C290 1.367 . S
C291 C299 1.433 . S
C292 H288 0.929 . S
C292 C294 1.378 . S
C292 C296 1.350 . S
C293 C296 1.463 1_545 S
C293 C298 1.350 . S
C293 N301 1.426 1_545 S
C294 H285 0.930 . S
C294 C292 1.378 . S
C294 C295 1.367 . S
C295 C294 1.367 . S
C295 C297 1.433 . S
C296 C292 1.350 . S
C296 C293 1.463 1_565 S
C296 N300 1.426 1_565 S
C297 H287 0.929 . S
C297 C295 1.433 . S
C297 N300 1.381 1_565 S
C298 H289 0.929 . S
C298 C290 1.378 . S
C298 C293 1.350 . S
C299 H286 0.929 . S
C299 C291 1.433 . S
C299 N301 1.381 1_545 S
N300 C296 1.426 1_545 S
N300 C297 1.381 1_545 S
N301 C293 1.426 1_565 S
N301 C299 1.381 1_565 S
H302 C308 0.930 . S
H303 C312 0.930 . S
H304 C317 0.929 . S
H305 C315 0.929 . S
H306 C310 0.929 1_545 S
H307 C316 0.929 1_565 S
C308 H302 0.930 . S
C308 C309 1.375 . S
C308 C316 1.378 . S
C309 C308 1.375 . S
C309 C317 1.425 1_655 S
C310 H306 0.929 1_565 S
C310 C312 1.378 . S
C310 C314 1.350 . S
C311 C314 1.463 1_644 S
C311 C316 1.350 . S
C311 N319 1.427 1_655 S
C312 H303 0.930 . S
C312 C310 1.378 . S
C312 C313 1.378 . S
C313 C312 1.378 . S
C313 C315 1.422 1_455 S
C314 C310 1.350 . S
C314 C311 1.463 1_466 S
C314 N318 1.427 1_455 S
C315 H305 0.929 . S
C315 C313 1.422 1_655 S
C315 N318 1.384 . S
C316 H307 0.929 1_545 S
C316 C308 1.378 . S
C316 C311 1.350 . S
C317 H304 0.929 . S
C317 C309 1.425 1_455 S
C317 N319 1.384 . S
N318 C314 1.427 1_655 S
N318 C315 1.384 . S
N319 C311 1.427 1_455 S
N319 C317 1.384 . S
H320 C326 0.930 . S
H321 C330 0.930 . S
H322 C335 0.929 . S
H323 C333 0.929 . S
H324 C328 0.924 1_565 S
H325 C334 0.929 1_545 S
C326 H320 0.930 . S
C326 C327 1.367 . S
C326 C334 1.378 . S
C327 C326 1.367 . S
C327 C335 1.433 . S
C328 H324 0.924 1_545 S
C328 C330 1.381 . S
C328 C332 1.351 . S
C329 C332 1.463 1_565 S
C329 C334 1.350 . S
C329 N337 1.427 . S
C330 H321 0.930 . S
C330 C328 1.381 . S
C330 C331 1.367 . S
C331 C330 1.367 . S
C331 C333 1.433 . S
C332 C328 1.351 . S
C332 C329 1.463 1_545 S
C332 N336 1.427 . S
C333 H323 0.929 . S
C333 C331 1.433 . S
C333 N336 1.384 . S
C334 H325 0.929 1_565 S
C334 C326 1.378 . S
C334 C329 1.350 . S
C335 H322 0.929 . S
C335 C327 1.433 . S
C335 N337 1.384 . S
N336 C332 1.427 . S
N336 C333 1.384 . S
N337 C329 1.427 . S
N337 C335 1.384 . S
H338 C344 0.930 . S
H339 C348 0.930 . S
H340 C353 0.929 . S
H341 C351 0.929 . S
H342 C346 0.929 . S
H343 C352 0.929 . S
C344 H338 0.930 . S
C344 C345 1.367 . S
C344 C352 1.378 . S
C345 C344 1.367 . S
C345 C353 1.433 . S
C346 H342 0.929 . S
C346 C348 1.378 . S
C346 C350 1.350 . S
C347 C350 1.463 1_565 S
C347 C352 1.350 . S
C347 N355 1.427 . S
C348 H339 0.930 . S
C348 C346 1.378 . S
C348 C349 1.367 . S
C349 C348 1.367 . S
C349 C351 1.433 . S
C350 C346 1.350 . S
C350 C347 1.463 1_545 S
C350 N354 1.427 . S
C351 H341 0.929 . S
C351 C349 1.433 . S
C351 N354 1.384 . S
C352 H343 0.929 . S
C352 C344 1.378 . S
C352 C347 1.350 . S
C353 H340 0.929 . S
C353 C345 1.433 . S
C353 N355 1.384 . S
N354 C350 1.427 . S
N354 C351 1.384 . S
N355 C347 1.427 . S
N355 C353 1.384 . S
H356 C362 0.930 . S
H357 C366 0.930 . S
H358 C371 0.929 . S
H359 C369 0.929 . S
H360 C364 0.945 . S
H361 C370 0.929 1_565 S
C362 H356 0.930 . S
C362 C363 1.367 . S
C362 C370 1.378 . S
C363 C362 1.367 . S
C363 C371 1.433 . S
C364 H360 0.945 . S
C364 C366 1.366 1_545 S
C364 C368 1.344 1_545 S
C365 C368 1.463 1_545 S
C365 C370 1.350 . S
C365 N373 1.427 . S
C366 H357 0.930 . S
C366 C364 1.366 1_565 S
C366 C367 1.367 . S
C367 C366 1.367 . S
C367 C369 1.433 . S
C368 C364 1.344 1_565 S
C368 C365 1.463 1_565 S
C368 N372 1.427 . S
C369 H359 0.929 . S
C369 C367 1.433 . S
C369 N372 1.384 . S
C370 H361 0.929 1_545 S
C370 C362 1.378 . S
C370 C365 1.350 . S
C371 H358 0.929 . S
C371 C363 1.433 . S
C371 N373 1.384 . S
N372 C368 1.427 . S
N372 C369 1.384 . S
N373 C365 1.427 . S
N373 C371 1.384 . S
H374 C380 0.930 . S
H375 C384 0.930 . S
H376 C389 0.929 . S
H377 C387 0.929 . S
H378 C382 0.929 . S
H379 C388 0.929 . S
C380 H374 0.930 . S
C380 C381 1.367 . S
C380 C388 1.378 . S
C381 C380 1.367 . S
C381 C389 1.433 . S
C382 H378 0.929 . S
C382 C384 1.378 . S
C382 C386 1.350 . S
C383 C386 1.463 1_565 S
C383 C388 1.350 . S
C383 N391 1.427 . S
C384 H375 0.930 . S
C384 C382 1.378 . S
C384 C385 1.367 . S
C385 C384 1.367 . S
C385 C387 1.433 . S
C386 C382 1.350 . S
C386 C383 1.463 1_545 S
C386 N390 1.427 . S
C387 H377 0.929 . S
C387 C385 1.433 . S
C387 N390 1.384 . S
C388 H379 0.929 . S
C388 C380 1.378 . S
C388 C383 1.350 . S
C389 H376 0.929 . S
C389 C381 1.433 . S
C389 N391 1.384 . S
N390 C386 1.427 . S
N390 C387 1.384 . S
N391 C383 1.427 . S
N391 C389 1.384 . S
H392 C398 0.930 . S
H393 C402 0.930 . S
H394 C407 0.929 . S
H395 C405 0.929 . S
H396 C400 0.929 . S
H397 C406 0.929 . S
C398 H392 0.930 . S
C398 C399 1.367 . S
C398 C406 1.378 . S
C399 C398 1.367 . S
C399 C407 1.433 . S
C400 H396 0.929 . S
C400 C402 1.378 . S
C400 C404 1.350 . S
C401 C404 1.463 1_565 S
C401 C406 1.350 . S
C401 N409 1.427 . S
C402 H393 0.930 . S
C402 C400 1.378 . S
C402 C403 1.367 . S
C403 C402 1.367 . S
C403 C405 1.433 . S
C404 C400 1.350 . S
C404 C401 1.463 1_545 S
C404 N408 1.427 . S
C405 H395 0.929 . S
C405 C403 1.433 . S
C405 N408 1.384 . S
C406 H397 0.929 . S
C406 C398 1.378 . S
C406 C401 1.350 . S
C407 H394 0.929 . S
C407 C399 1.433 . S
C407 N409 1.384 . S
N408 C404 1.427 . S
N408 C405 1.384 . S
N409 C401 1.427 . S
N409 C407 1.384 . S
H410 C416 0.930 . S
H411 C420 0.930 . S
H412 C425 0.929 . S
H413 C423 0.929 . S
H414 C418 0.929 1_545 S
H415 C424 0.929 1_565 S
C416 H410 0.930 . S
C416 C417 1.367 . S
C416 C424 1.378 . S
C417 C416 1.367 . S
C417 C425 1.433 . S
C418 H414 0.929 1_565 S
C418 C420 1.378 . S
C418 C422 1.350 . S
C419 C422 1.463 1_545 S
C419 C424 1.350 . S
C419 N427 1.427 . S
C420 H411 0.930 . S
C420 C418 1.378 . S
C420 C421 1.367 . S
C421 C420 1.367 . S
C421 C423 1.433 . S
C422 C418 1.350 . S
C422 C419 1.463 1_565 S
C422 N426 1.427 . S
C423 H413 0.929 . S
C423 C421 1.433 . S
C423 N426 1.384 . S
C424 H415 0.929 1_545 S
C424 C416 1.378 . S
C424 C419 1.350 . S
C425 H412 0.929 . S
C425 C417 1.433 . S
C425 N427 1.384 . S
N426 C422 1.427 . S
N426 C423 1.384 . S
N427 C419 1.427 . S
N427 C425 1.384 . S
H428 C434 0.930 . S
H429 C438 0.930 . S
H430 C443 0.929 . S
H431 C441 0.929 . S
H432 C436 0.929 . S
H433 C442 0.929 1_545 S
C434 H428 0.930 . S
C434 C435 1.367 . S
C434 C442 1.378 . S
C435 C434 1.367 . S
C435 C443 1.433 . S
C436 H432 0.929 . S
C436 C438 1.378 1_565 S
C436 C440 1.350 1_565 S
C437 C440 1.463 1_565 S
C437 C442 1.350 . S
C437 N445 1.427 . S
C438 H429 0.930 . S
C438 C436 1.378 1_545 S
C438 C439 1.367 . S
C439 C438 1.367 . S
C439 C441 1.433 . S
C440 C436 1.350 1_545 S
C440 C437 1.463 1_545 S
C440 N444 1.427 . S
C441 H431 0.929 . S
C441 C439 1.433 . S
C441 N444 1.384 . S
C442 H433 0.929 1_565 S
C442 C434 1.378 . S
C442 C437 1.350 . S
C443 H430 0.929 . S
C443 C435 1.433 . S
C443 N445 1.384 . S
N444 C440 1.427 . S
N444 C441 1.384 . S
N445 C437 1.427 . S
N445 C443 1.384 . S
H446 C452 0.930 . S
H447 C456 0.930 . S
H448 C461 0.929 . S
H449 C459 0.929 . S
H450 C454 0.942 . S
H451 C460 0.929 1_545 S
C452 H446 0.930 . S
C452 C453 1.367 . S
C452 C460 1.378 . S
C453 C452 1.367 . S
C453 C461 1.433 . S
C454 H450 0.942 . S
C454 C456 1.369 1_565 S
C454 C458 1.345 1_565 S
C455 C458 1.463 1_565 S
C455 C460 1.350 . S
C455 N463 1.427 . S
C456 H447 0.930 . S
C456 C454 1.369 1_545 S
C456 C457 1.367 . S
C457 C456 1.367 . S
C457 C459 1.433 . S
C458 C454 1.345 1_545 S
C458 C455 1.463 1_545 S
C458 N462 1.427 . S
C459 H449 0.929 . S
C459 C457 1.433 . S
C459 N462 1.384 . S
C460 H451 0.929 1_565 S
C460 C452 1.378 . S
C460 C455 1.350 . S
C461 H448 0.929 . S
C461 C453 1.433 . S
C461 N463 1.384 . S
N462 C458 1.427 . S
N462 C459 1.384 . S
N463 C455 1.427 . S
N463 C461 1.384 . S
H464 C470 0.930 . S
H465 C474 0.930 . S
H466 C479 0.929 . S
H467 C477 0.929 . S
H468 C472 0.929 . S
H469 C478 0.929 . S
C470 H464 0.930 . S
C470 C471 1.367 . S
C470 C478 1.378 . S
C471 C470 1.367 . S
C471 C479 1.433 . S
C472 H468 0.929 . S
C472 C474 1.378 . S
C472 C476 1.350 . S
C473 C476 1.463 . S
C473 C478 1.350 . S
C473 N481 1.427 . S
C474 H465 0.930 . S
C474 C472 1.378 . S
C474 C475 1.367 . S
C475 C474 1.367 . S
C475 C477 1.433 . S
C476 C472 1.350 . S
C476 C473 1.463 . S
C476 N480 1.427 . S
C477 H467 0.929 . S
C477 C475 1.433 . S
C477 N480 1.384 . S
C478 H469 0.929 . S
C478 C470 1.378 . S
C478 C473 1.350 . S
C479 H466 0.929 . S
C479 C471 1.433 . S
C479 N481 1.384 . S
N480 C476 1.427 . S
N480 C477 1.384 . S
N481 C473 1.427 . S
N481 C479 1.384 . S
H482 C488 0.930 . S
H483 C492 0.930 . S
H484 C497 0.929 . S
H485 C495 0.929 . S
H486 C490 0.929 . S
H487 C496 0.929 . S
C488 H482 0.930 . S
C488 C489 1.367 . S
C488 C496 1.378 . S
C489 C488 1.367 . S
C489 C497 1.433 . S
C490 H486 0.929 . S
C490 C492 1.378 . S
C490 C494 1.350 . S
C491 C494 1.463 . S
C491 C496 1.350 . S
C491 N499 1.427 . S
C492 H483 0.930 . S
C492 C490 1.378 . S
C492 C493 1.367 . S
C493 C492 1.367 . S
C493 C495 1.433 . S
C494 C490 1.350 . S
C494 C491 1.463 . S
C494 N498 1.427 . S
C495 H485 0.929 . S
C495 C493 1.433 . S
C495 N498 1.384 . S
C496 H487 0.929 . S
C496 C488 1.378 . S
C496 C491 1.350 . S
C497 H484 0.929 . S
C497 C489 1.433 . S
C497 N499 1.384 . S
N498 C494 1.427 . S
N498 C495 1.384 . S
N499 C491 1.427 . S
N499 C497 1.384 . S
H500 C506 0.930 . S
H501 C510 0.930 . S
H502 C515 0.929 . S
H503 C513 0.929 . S
H504 C508 0.929 . S
H505 C514 0.929 . S
C506 H500 0.930 . S
C506 C507 1.367 . S
C506 C514 1.378 . S
C507 C506 1.367 . S
C507 C515 1.433 . S
C508 H504 0.929 . S
C508 C510 1.378 . S
C508 C512 1.350 . S
C509 C512 1.463 . S
C509 C514 1.350 . S
C509 N517 1.427 . S
C510 H501 0.930 . S
C510 C508 1.378 . S
C510 C511 1.367 . S
C511 C510 1.367 . S
C511 C513 1.433 . S
C512 C508 1.350 . S
C512 C509 1.463 . S
C512 N516 1.427 . S
C513 H503 0.929 . S
C513 C511 1.433 . S
C513 N516 1.384 . S
C514 H505 0.929 . S
C514 C506 1.378 . S
C514 C509 1.350 . S
C515 H502 0.929 . S
C515 C507 1.433 . S
C515 N517 1.384 . S
N516 C512 1.427 . S
N516 C513 1.384 . S
N517 C509 1.427 . S
N517 C515 1.384 . S
H518 C524 0.930 . S
H519 C528 0.930 . S
H520 C533 0.929 . S
H521 C531 0.929 . S
H522 C526 0.929 . S
H523 C532 0.929 . S
C524 H518 0.930 . S
C524 C525 1.367 . S
C524 C532 1.378 . S
C525 C524 1.367 . S
C525 C533 1.433 . S
C526 H522 0.929 . S
C526 C528 1.378 . S
C526 C530 1.350 . S
C527 C530 1.463 . S
C527 C532 1.350 . S
C527 N535 1.427 . S
C528 H519 0.930 . S
C528 C526 1.378 . S
C528 C529 1.367 . S
C529 C528 1.367 . S
C529 C531 1.433 . S
C530 C526 1.350 . S
C530 C527 1.463 . S
C530 N534 1.427 . S
C531 H521 0.929 . S
C531 C529 1.433 . S
C531 N534 1.384 . S
C532 H523 0.929 . S
C532 C524 1.378 . S
C532 C527 1.350 . S
C533 H520 0.929 . S
C533 C525 1.433 . S
C533 N535 1.384 . S
N534 C530 1.427 . S
N534 C531 1.384 . S
N535 C527 1.427 . S
N535 C533 1.384 . S
H536 C542 0.930 . S
H537 C546 0.930 . S
H538 C551 0.929 . S
H539 C549 0.929 . S
H540 C544 0.929 . S
H541 C550 0.929 . S
C542 H536 0.930 . S
C542 C543 1.367 . S
C542 C550 1.378 . S
C543 C542 1.367 . S
C543 C551 1.433 . S
C544 H540 0.929 . S
C544 C546 1.378 . S
C544 C548 1.350 . S
C545 C548 1.463 . S
C545 C550 1.350 . S
C545 N553 1.427 . S
C546 H537 0.930 . S
C546 C544 1.378 . S
C546 C547 1.367 . S
C547 C546 1.367 . S
C547 C549 1.433 . S
C548 C544 1.350 . S
C548 C545 1.463 . S
C548 N552 1.427 . S
C549 H539 0.929 . S
C549 C547 1.433 . S
C549 N552 1.384 . S
C550 H541 0.929 . S
C550 C542 1.378 . S
C550 C545 1.350 . S
C551 H538 0.929 . S
C551 C543 1.433 . S
C551 N553 1.384 . S
N552 C548 1.427 . S
N552 C549 1.384 . S
N553 C545 1.427 . S
N553 C551 1.384 . S
H554 C560 0.930 . S
H555 C564 0.930 . S
H556 C569 0.929 . S
H557 C567 0.929 . S
H558 C562 0.929 . S
H559 C568 0.929 . S
C560 H554 0.930 . S
C560 C561 1.367 . S
C560 C568 1.378 . S
C561 C560 1.367 . S
C561 C569 1.433 . S
C562 H558 0.929 . S
C562 C564 1.378 . S
C562 C566 1.350 . S
C563 C566 1.463 . S
C563 C568 1.350 . S
C563 N571 1.427 . S
C564 H555 0.930 . S
C564 C562 1.378 . S
C564 C565 1.367 . S
C565 C564 1.367 . S
C565 C567 1.433 . S
C566 C562 1.350 . S
C566 C563 1.463 . S
C566 N570 1.427 . S
C567 H557 0.929 . S
C567 C565 1.433 . S
C567 N570 1.384 . S
C568 H559 0.929 . S
C568 C560 1.378 . S
C568 C563 1.350 . S
C569 H556 0.929 . S
C569 C561 1.433 . S
C569 N571 1.384 . S
N570 C566 1.427 . S
N570 C567 1.384 . S
N571 C563 1.427 . S
N571 C569 1.384 . S
H572 C578 0.930 . S
H573 C582 0.930 . S
H574 C587 0.929 . S
H575 C585 0.929 . S
H576 C580 0.929 . S
H577 C586 0.929 . S
C578 H572 0.930 . S
C578 C579 1.367 . S
C578 C586 1.378 . S
C579 C578 1.367 . S
C579 C587 1.433 . S
C580 H576 0.929 . S
C580 C582 1.378 . S
C580 C584 1.350 . S
C581 C584 1.463 . S
C581 C586 1.350 . S
C581 N589 1.427 . S
C582 H573 0.930 . S
C582 C580 1.378 . S
C582 C583 1.367 . S
C583 C582 1.367 . S
C583 C585 1.433 . S
C584 C580 1.350 . S
C584 C581 1.463 . S
C584 N588 1.427 . S
C585 H575 0.929 . S
C585 C583 1.433 . S
C585 N588 1.384 . S
C586 H577 0.929 . S
C586 C578 1.378 . S
C586 C581 1.350 . S
C587 H574 0.929 . S
C587 C579 1.433 . S
C587 N589 1.384 . S
N588 C584 1.427 . S
N588 C585 1.384 . S
N589 C581 1.427 . S
N589 C587 1.384 . S
H590 C596 0.930 . S
H591 C600 0.930 . S
H592 C605 0.929 . S
H593 C603 0.929 . S
H594 C598 0.929 . S
H595 C604 0.929 . S
C596 H590 0.930 . S
C596 C597 1.367 . S
C596 C604 1.378 . S
C597 C596 1.367 . S
C597 C605 1.433 . S
C598 H594 0.929 . S
C598 C600 1.378 . S
C598 C602 1.350 . S
C599 C602 1.463 . S
C599 C604 1.350 . S
C599 N607 1.427 . S
C600 H591 0.930 . S
C600 C598 1.378 . S
C600 C601 1.367 . S
C601 C600 1.367 . S
C601 C603 1.433 . S
C602 C598 1.350 . S
C602 C599 1.463 . S
C602 N606 1.427 . S
C603 H593 0.929 . S
C603 C601 1.433 . S
C603 N606 1.384 . S
C604 H595 0.929 . S
C604 C596 1.378 . S
C604 C599 1.350 . S
C605 H592 0.929 . S
C605 C597 1.433 . S
C605 N607 1.384 . S
N606 C602 1.427 . S
N606 C603 1.384 . S
N607 C599 1.427 . S
N607 C605 1.384 . S
C183 C7 1.460 1_655 S
C187 C97 1.460 . S
C201 C119 1.464 . S
C205 C29 1.466 . S
C219 C49 1.466 . S
C223 C138 1.466 . S
C237 C71 1.464 . S
C241 C160 1.466 . S
C255 C73 1.459 . S
C259 C163 1.457 . S
C273 C116 1.463 . S
C277 C27 1.462 . S
C291 C141 1.459 . S
C295 C51 1.459 . S
C309 C5 1.467 1_655 S
C313 C94 1.467 . S
C327 C115 1.496 . S
C331 C4 1.501 . S
C345 C26 1.503 . S
C349 C140 1.493 . S
C363 C162 1.494 . S
C367 C53 1.502 . S
C381 C93 1.496 . S
C385 C75 1.500 . S
C399 C92 1.499 . S
C403 C72 1.502 . S
C417 C158 1.496 . S
C421 C52 1.504 . S
C435 C30 1.494 . S
C439 C139 1.504 . S
C453 C117 1.494 . S
C457 C6 1.504 . S
C471 C159 1.494 . S
C475 C48 1.502 . S
C489 C96 1.502 . S
C493 C70 1.498 . S
C507 C118 1.498 . S
C511 C9 1.497 . S
C525 C31 1.501 . S
C529 C137 1.495 . S
C543 C136 1.501 . S
C547 C28 1.496 . S
C561 C8 1.503 . S
C565 C114 1.493 . S
C579 C95 1.494 . S
C583 C74 1.501 . S
C597 C161 1.494 . S
C601 C50 1.502 . S
