# Generated by pormake.
# Topology lcy-e, (6)-cn, num edge types: 1
# Building blocks:
#     Node 0, Type 0, BuildingBlock: KUMBUR_clean_sbu_0, # of connection points: 6
#     Node 1, Type 0, BuildingBlock: KUMBUR_clean_sbu_0, # of connection points: 6
#     Node 2, Type 0, BuildingBlock: KUMBUR_clean_sbu_0, # of connection points: 6
#     Node 3, Type 0, BuildingBlock: KUMBUR_clean_sbu_0, # of connection points: 6
#     Node 4, Type 0, BuildingBlock: KUMBUR_clean_sbu_0, # of connection points: 6
#     Node 5, Type 0, BuildingBlock: KUMBUR_clean_sbu_0, # of connection points: 6
#     Node 6, Type 0, BuildingBlock: KUMBUR_clean_sbu_0, # of connection points: 6
#     Node 7, Type 0, BuildingBlock: KUMBUR_clean_sbu_0, # of connection points: 6
#     Node 8, Type 0, BuildingBlock: KUMBUR_clean_sbu_0, # of connection points: 6
#     Node 9, Type 0, BuildingBlock: KUMBUR_clean_sbu_0, # of connection points: 6
#     Node 10, Type 0, BuildingBlock: KUMBUR_clean_sbu_0, # of connection points: 6
#     Node 11, Type 0, BuildingBlock: KUMBUR_clean_sbu_0, # of connection points: 6
#     Edge 12, Type (0, 0), BuildingBlock: CIFDUS_clean_linker_0, # of connection points: 2
#     Edge 13, Type (0, 0), BuildingBlock: CIFDUS_clean_linker_0, # of connection points: 2
#     Edge 14, Type (0, 0), BuildingBlock: CIFDUS_clean_linker_0, # of connection points: 2
#     Edge 15, Type (0, 0), BuildingBlock: CIFDUS_clean_linker_0, # of connection points: 2
#     Edge 16, Type (0, 0), BuildingBlock: CIFDUS_clean_linker_0, # of connection points: 2
#     Edge 17, Type (0, 0), BuildingBlock: CIFDUS_clean_linker_0, # of connection points: 2
#     Edge 18, Type (0, 0), BuildingBlock: CIFDUS_clean_linker_0, # of connection points: 2
#     Edge 19, Type (0, 0), BuildingBlock: CIFDUS_clean_linker_0, # of connection points: 2
#     Edge 20, Type (0, 0), BuildingBlock: CIFDUS_clean_linker_0, # of connection points: 2
#     Edge 21, Type (0, 0), BuildingBlock: CIFDUS_clean_linker_0, # of connection points: 2
#     Edge 22, Type (0, 0), BuildingBlock: CIFDUS_clean_linker_0, # of connection points: 2
#     Edge 23, Type (0, 0), BuildingBlock: CIFDUS_clean_linker_0, # of connection points: 2
#     Edge 24, Type (0, 0), BuildingBlock: CIFDUS_clean_linker_0, # of connection points: 2
#     Edge 25, Type (0, 0), BuildingBlock: CIFDUS_clean_linker_0, # of connection points: 2
#     Edge 26, Type (0, 0), BuildingBlock: CIFDUS_clean_linker_0, # of connection points: 2
#     Edge 27, Type (0, 0), BuildingBlock: CIFDUS_clean_linker_0, # of connection points: 2
#     Edge 28, Type (0, 0), BuildingBlock: CIFDUS_clean_linker_0, # of connection points: 2
#     Edge 29, Type (0, 0), BuildingBlock: CIFDUS_clean_linker_0, # of connection points: 2
#     Edge 30, Type (0, 0), BuildingBlock: CIFDUS_clean_linker_0, # of connection points: 2
#     Edge 31, Type (0, 0), BuildingBlock: CIFDUS_clean_linker_0, # of connection points: 2
#     Edge 32, Type (0, 0), BuildingBlock: CIFDUS_clean_linker_0, # of connection points: 2
#     Edge 33, Type (0, 0), BuildingBlock: CIFDUS_clean_linker_0, # of connection points: 2
#     Edge 34, Type (0, 0), BuildingBlock: CIFDUS_clean_linker_0, # of connection points: 2
#     Edge 35, Type (0, 0), BuildingBlock: CIFDUS_clean_linker_0, # of connection points: 2
#     Edge 36, Type (0, 0), BuildingBlock: CIFDUS_clean_linker_0, # of connection points: 2
#     Edge 37, Type (0, 0), BuildingBlock: CIFDUS_clean_linker_0, # of connection points: 2
#     Edge 38, Type (0, 0), BuildingBlock: CIFDUS_clean_linker_0, # of connection points: 2
#     Edge 39, Type (0, 0), BuildingBlock: CIFDUS_clean_linker_0, # of connection points: 2
#     Edge 40, Type (0, 0), BuildingBlock: CIFDUS_clean_linker_0, # of connection points: 2
#     Edge 41, Type (0, 0), BuildingBlock: CIFDUS_clean_linker_0, # of connection points: 2
#     Edge 42, Type (0, 0), BuildingBlock: CIFDUS_clean_linker_0, # of connection points: 2
#     Edge 43, Type (0, 0), BuildingBlock: CIFDUS_clean_linker_0, # of connection points: 2
#     Edge 44, Type (0, 0), BuildingBlock: CIFDUS_clean_linker_0, # of connection points: 2
#     Edge 45, Type (0, 0), BuildingBlock: CIFDUS_clean_linker_0, # of connection points: 2
#     Edge 46, Type (0, 0), BuildingBlock: CIFDUS_clean_linker_0, # of connection points: 2
#     Edge 47, Type (0, 0), BuildingBlock: CIFDUS_clean_linker_0, # of connection points: 2
# Relax obj value: 0.105
# Max RMSD: 0.289
# Mean RMSD: 0.288
data_MOF--net-lcy-e--node1-KUMBUR_clean_sbu_0--edge1-CIFDUS_clean_linker_0
_symmetry_space_group_name_H-M    P1
_symmetry_Int_Tables_number       1
_symmetry_cell_setting            triclinic
loop_
_symmetry_equiv_pos_as_xyz
'x, y, z'
_cell_length_a     38.891973
_cell_length_b     38.780322
_cell_length_c     38.988533
_cell_angle_alpha  90.19786
_cell_angle_beta   90.122604
_cell_angle_gamma 90.708689
loop_
_atom_site_label
_atom_site_type_symbol
_atom_site_fract_x
_atom_site_fract_y
_atom_site_fract_z
_atom_type_partial_charge
Tb0 Tb 0.16614 0.2067 0.54518 0.0
C1 C 0.0662 0.29802 0.47334 0.0
C2 C 0.03777 0.26061 0.43191 0.0
C3 C 1.00692 0.30861 0.45694 0.0
C4 C 0.06683 0.26947 0.45193 0.0
C5 C 0.03668 0.3187 0.47502 0.0
C6 C 1.00747 0.27959 0.43544 0.0
C7 C 0.06982 0.36063 0.50758 0.0
N8 N 0.09578 0.3076 0.48954 0.0
C9 C 0.09858 0.33957 0.50475 0.0
C10 C 0.03855 0.34985 0.49323 0.0
Tb11 Tb 0.14063 0.27003 0.4836 0.0
N12 N 0.09665 0.25189 0.44886 0.0
C13 C 0.10008 0.22729 0.42392 0.0
C14 C 0.04044 0.23372 0.40807 0.0
C15 C 0.07191 0.21741 0.40364 0.0
H16 H 0.12271 0.34789 0.51612 0.0
H17 H 0.07449 0.19716 0.38469 0.0
H18 H 0.98472 0.27282 0.42068 0.0
H19 H 0.07182 0.3852 0.52073 0.0
H20 H 0.1242 0.21442 0.42007 0.0
H21 H 0.23102 0.27862 0.64496 0.0
H22 H 0.01867 0.22602 0.3923 0.0
H23 H 0.18891 0.13493 0.50351 0.0
H24 H 0.1811 0.25801 0.61108 0.0
H25 H 0.24116 0.101 0.49522 0.0
H26 H 0.98381 0.32387 0.45831 0.0
H27 H 0.28816 0.25276 0.63555 0.0
H28 H 0.32353 0.20752 0.60575 0.0
H29 H 0.01641 0.36643 0.4951 0.0
H30 H 0.32608 0.15852 0.56542 0.0
N31 N 0.21033 0.22453 0.5799 0.0
C32 C 0.20624 0.24827 0.60539 0.0
C33 C 0.2665 0.24453 0.61991 0.0
C34 C 0.26987 0.21815 0.5956 0.0
C35 C 0.23434 0.25926 0.62522 0.0
C36 C 0.24085 0.20854 0.57595 0.0
H37 H 0.29534 0.11835 0.52423 0.0
N38 N 0.21315 0.17231 0.53619 0.0
C39 C 0.24187 0.12359 0.51159 0.0
C40 C 0.24226 0.18103 0.55363 0.0
C41 C 0.21218 0.14301 0.51641 0.0
C42 C 0.27241 0.13347 0.528 0.0
C43 C 0.27275 0.16224 0.54976 0.0
O44 O 0.13868 0.16078 0.55666 0.0
O45 O 0.12806 0.22205 0.50799 0.0
O46 O 0.10924 0.27958 0.53053 0.0
O47 O 0.13107 0.24135 0.57142 0.0
O48 O 0.14048 0.1716 0.50858 0.0
O49 O 0.15675 0.19339 0.59701 0.0
O50 O 0.15824 0.31936 0.46864 0.0
O51 O 0.16737 0.26211 0.53229 0.0
O52 O 0.205 0.21221 0.50499 0.0
O53 O 0.16982 0.22779 0.46009 0.0
O54 O 0.1925 0.28778 0.49592 0.0
O55 O 0.15629 0.27692 0.43246 0.0
C56 C 0.1201 0.19335 0.49489 0.0
C57 C 0.15158 0.13326 0.60883 0.0
C58 C 0.13716 0.08017 0.64064 0.0
C59 C 0.12683 0.11107 0.62439 0.0
C60 C 0.17238 0.07235 0.64131 0.0
C61 C 0.1864 0.12455 0.61032 0.0
C62 C 0.19666 0.09436 0.6264 0.0
C63 C 0.10939 0.26553 0.56174 0.0
C64 C 0.14114 0.16445 0.58961 0.0
C65 C 0.30226 0.17245 0.56819 0.0
C66 C 0.30083 0.20039 0.59109 0.0
C67 C 0.19358 0.28142 0.52796 0.0
C68 C 0.15001 0.33293 0.40967 0.0
C69 C 0.17172 0.34322 0.38248 0.0
C70 C 0.1591 0.36437 0.35595 0.0
C71 C 0.12477 0.37534 0.35741 0.0
C72 C 0.11595 0.34428 0.41017 0.0
C73 C 0.10345 0.36529 0.38427 0.0
C74 C 0.19914 0.21559 0.47189 0.0
C75 C 0.16284 0.30979 0.43678 0.0
H76 H 0.09979 0.11737 0.62315 0.0
H77 H 0.18126 0.04914 0.65373 0.0
H78 H 0.20575 0.14105 0.59894 0.0
H79 H 0.22364 0.0879 0.62723 0.0
H80 H 0.19804 0.33436 0.38168 0.0
H81 H 0.11441 0.3921 0.33788 0.0
H82 H 0.09886 0.33717 0.43049 0.0
H83 H 0.07709 0.3739 0.38506 0.0
Tb84 Tb 0.99484 0.87416 0.75169 0.0
C85 C 0.0786 0.99237 0.81276 0.0
C86 C 0.12211 1.00523 0.77034 0.0
C87 C 0.10098 0.05087 0.80727 0.0
C88 C 0.09916 0.98179 0.78615 0.0
C89 C 0.07983 0.02684 0.8243 0.0
C90 C 0.12216 0.04006 0.78034 0.0
C91 C 0.04225 1.01029 0.87083 0.0
N92 N 0.05898 0.96828 0.82877 0.0
C93 C 0.04217 0.97637 0.85856 0.0
C94 C 0.06075 0.03579 0.85332 0.0
Tb95 Tb 0.0596 0.91367 0.80609 0.0
N96 N 0.09814 0.94803 0.77713 0.0
C97 C 0.12189 0.93538 0.75461 0.0
C98 C 0.145 0.99275 0.74577 0.0
C99 C 0.14533 0.95753 0.73837 0.0
H100 H 0.02771 0.95691 0.87228 0.0
H101 H 0.16337 0.94744 0.7199 0.0
H102 H 0.13915 0.0586 0.76809 0.0
H103 H 0.02814 0.01672 0.89383 0.0
H104 H 0.12229 0.90829 0.74824 0.0
H105 H 0.89531 0.82887 0.83823 0.0
H106 H 0.16299 1.00991 0.73296 0.0
H107 H 0.0261 0.83803 0.68071 0.0
H108 H 0.93257 0.87201 0.81135 0.0
H109 H 0.02485 0.78141 0.65256 0.0
H110 H 0.10199 0.0776 0.81544 0.0
H111 H 0.89604 0.76824 0.81837 0.0
H112 H 0.91756 0.72466 0.77591 0.0
H113 H 0.06099 0.062 0.86302 0.0
H114 H 0.95231 0.71187 0.72477 0.0
N115 N 0.95655 0.83648 0.77714 0.0
C116 C 0.93388 0.84587 0.80221 0.0
C117 C 0.91286 0.78717 0.80647 0.0
C118 C 0.93414 0.77817 0.77911 0.0
C119 C 0.91233 0.82134 0.81767 0.0
C120 C 0.95572 0.80377 0.76474 0.0
H121 H 0.99192 0.73305 0.67819 0.0
N122 N 0.99448 0.8224 0.72279 0.0
C123 C 1.01084 0.78525 0.67619 0.0
C124 C 0.9751 0.79655 0.73623 0.0
C125 C 1.01142 0.81748 0.69239 0.0
C126 C 0.99227 0.75802 0.69075 0.0
C127 C 0.97375 0.76356 0.72094 0.0
O128 O 0.9822 0.89035 0.70146 0.0
O129 O 0.0332 0.91545 0.75765 0.0
O130 O 1.01547 0.94978 0.80111 0.0
O131 O 0.97158 0.91068 0.78702 0.0
O132 O 0.03128 0.89036 0.71191 0.0
O133 O 0.94559 0.8943 0.74207 0.0
O134 O 0.07799 0.90602 0.85658 0.0
O135 O 0.02059 0.87331 0.80189 0.0
O136 O 0.03361 0.83462 0.75834 0.0
O137 O 0.0798 0.86996 0.77477 0.0
O138 O 0.02684 0.89795 0.84827 0.0
O139 O 0.1104 0.89653 0.81338 0.0
C140 C 0.046 0.91532 0.72792 0.0
C141 C 0.92363 0.88696 0.68524 0.0
C142 C 0.89199 0.8924 0.63068 0.0
C143 C 0.91788 0.90428 0.65366 0.0
C144 C 0.87166 0.86378 0.64031 0.0
C145 C 0.90318 0.85815 0.69351 0.0
C146 C 0.87725 0.8469 0.67131 0.0
C147 C 0.98226 0.94092 0.79864 0.0
C148 C 0.95101 0.89865 0.70936 0.0
C149 C 0.95345 0.73749 0.7359 0.0
C150 C 0.93371 0.74477 0.76502 0.0
C151 C 1.00932 0.87449 0.83265 0.0
C152 C 0.12303 0.86532 0.86386 0.0
C153 C 0.15751 0.86609 0.8759 0.0
C154 C 0.17202 0.83704 0.8924 0.0
C155 C 0.15111 0.80735 0.89619 0.0
C156 C 0.10319 0.83527 0.86816 0.0
C157 C 0.11717 0.80659 0.88429 0.0
C158 C 0.06693 0.84015 0.76284 0.0
C159 C 0.10818 0.89581 0.84659 0.0
H160 H 0.93393 0.9262 0.64672 0.0
H161 H 0.85141 0.8542 0.62356 0.0
H162 H 0.90719 0.8443 0.71723 0.0
H163 H 0.86149 0.82476 0.67806 0.0
H164 H 0.17278 0.8894 0.87265 0.0
H165 H 0.16113 0.7842 0.90774 0.0
H166 H 0.07692 0.83398 0.85893 0.0
H167 H 0.10166 0.78344 0.88736 0.0
Tb168 Tb 0.41276 0.75144 0.97643 0.0
C169 C 0.31108 0.80374 0.08136 0.0
C170 C 0.27469 0.84319 0.05037 0.0
C171 C 0.25204 0.81185 0.09949 0.0
C172 C 0.30631 0.82637 0.05452 0.0
C173 C 0.2843 0.79674 0.10463 0.0
C174 C 0.24725 0.83506 0.0724 0.0
C175 C 0.32435 0.76324 0.13802 0.0
N176 N 0.34278 0.79032 0.08586 0.0
C177 C 0.3502 0.77127 0.11437 0.0
C178 C 0.29114 0.77571 0.13293 0.0
Tb179 Tb 0.38253 0.80433 0.04518 0.0
N180 N 0.33356 0.83392 0.03415 0.0
C181 C 0.33206 0.86058 1.01141 0.0
C182 C 0.27212 0.86866 0.02515 0.0
C183 C 0.30114 0.87783 1.00602 0.0
H184 H 0.3759 0.76157 0.11813 0.0
H185 H 0.29972 0.89813 0.98711 0.0
H186 H 0.22258 0.84739 0.06939 0.0
H187 H 0.33006 0.74755 0.16017 0.0
H188 H 0.35438 0.86788 0.99654 0.0
H189 H 0.49851 0.66068 0.03473 0.0
H190 H 0.24824 0.88215 0.02104 0.0
H191 H 0.42433 0.80744 0.91083 0.0
H192 H 0.4434 0.68939 0.02453 0.0
H193 H 0.47096 0.82507 0.87271 0.0
H194 H 0.23096 0.80657 0.11689 0.0
H195 H 0.54943 0.677 1.00013 0.0
H196 H 0.57468 0.71302 0.95265 0.0
H197 H 0.27122 0.76968 0.15142 0.0
H198 H 0.56701 0.7574 0.90835 0.0
N199 N 0.46295 0.72333 0.98687 0.0
C200 C 0.46553 0.6976 1.01041 0.0
C201 C 0.52531 0.69009 0.99612 0.0
C202 C 0.52223 0.71561 0.97104 0.0
C203 C 0.49671 0.6809 1.01576 0.0
C204 C 0.49025 0.73182 0.96691 0.0
H205 H 0.52848 0.79934 0.87845 0.0
N206 N 0.45453 0.77154 0.93921 0.0
C207 C 0.47551 0.80576 0.89213 0.0
C208 C 0.48588 0.75652 0.94195 0.0
C209 C 0.4489 0.79543 0.91401 0.0
C210 C 0.50794 0.79118 0.89543 0.0
C211 C 0.51343 0.76611 0.92045 0.0
O212 O 0.37889 0.73622 0.93656 0.0
O213 O 0.37183 0.78333 0.9956 0.0
O214 O 0.35398 0.75249 0.04866 0.0
O215 O 0.38647 0.71809 1.01188 0.0
O216 O 0.38059 0.78623 0.94512 0.0
O217 O 0.41434 0.70033 0.95662 0.0
O218 O 0.39855 0.82395 0.09341 0.0
O219 O 0.41397 0.75958 0.03313 0.0
O220 O 0.44844 0.79333 0.98657 0.0
O221 O 0.40876 0.83318 1.00369 0.0
O222 O 0.43342 0.79424 0.06565 0.0
O223 O 0.39734 0.85657 0.04855 0.0
C224 C 0.36044 0.79713 0.96871 0.0
C225 C 0.39795 0.69429 0.89759 0.0
C226 C 0.3794 0.66684 0.84332 0.0
C227 C 0.37376 0.6741 0.87858 0.0
C228 C 0.40938 0.67982 0.82775 0.0
C229 C 0.42784 0.7061 0.88115 0.0
C230 C 0.43342 0.69901 0.84656 0.0
C231 C 0.36101 0.72184 0.03386 0.0
C232 C 0.39086 0.70543 0.93344 0.0
C233 C 0.54549 0.75035 0.9246 0.0
C234 C 0.54988 0.72513 0.94984 0.0
C235 C 0.43885 0.764 0.05431 0.0
C236 C 0.39222 0.88478 0.10225 0.0
C237 C 0.41574 0.91074 0.11372 0.0
C238 C 0.4039 0.94029 0.13155 0.0
C239 C 0.36843 0.94287 0.13797 0.0
C240 C 0.35717 0.88843 0.10926 0.0
C241 C 0.34543 0.91722 0.12699 0.0
C242 C 0.43968 0.82534 0.99217 0.0
C243 C 0.404 0.85507 0.0814 0.0
H244 H 0.3505 0.66477 0.89087 0.0
H245 H 0.41454 0.67453 0.80095 0.0
H246 H 0.44683 0.72114 0.8949 0.0
H247 H 0.45654 0.70855 0.83422 0.0
H248 H 0.44288 0.90832 0.10811 0.0
H249 H 0.35838 0.96473 0.15194 0.0
H250 H 0.33877 0.86913 0.10089 0.0
H251 H 0.31824 0.91973 0.13219 0.0
Tb252 Tb 0.54764 0.15176 0.2205 0.0
C253 C 0.46291 0.0508 0.27361 0.0
C254 C 0.40977 0.05117 0.24118 0.0
C255 C 0.43508 0.99662 0.25695 0.0
C256 C 0.43768 0.06891 0.2568 0.0
C257 C 0.46116 1.01439 0.27489 0.0
C258 C 0.4093 1.01499 0.24026 0.0
C259 C 0.50638 0.01585 0.31705 0.0
N260 N 0.48676 0.06893 0.29194 0.0
C261 C 0.50643 0.05182 0.31565 0.0
C262 C 0.48429 0.99696 0.29584 0.0
Tb263 Tb 0.48717 0.12822 0.28362 0.0
N264 N 0.43898 0.1039 0.2581 0.0
C265 C 0.41052 0.12219 0.24873 0.0
C266 C 0.38253 0.07025 0.2281 0.0
C267 C 0.38254 0.10588 0.23269 0.0
H268 H 0.52224 0.06557 0.33411 0.0
H269 H 0.36068 0.12077 0.22446 0.0
H270 H 0.38854 1.00099 0.22765 0.0
H271 H 0.5229 1.00276 0.33506 0.0
H272 H 0.40847 0.14933 0.25421 0.0
H273 H 0.66164 0.18212 0.29407 0.0
H274 H 0.36071 0.05762 0.21587 0.0
H275 H 0.51416 0.19206 0.15307 0.0
H276 H 0.61648 0.14411 0.26947 0.0
H277 H 0.51785 0.24977 0.12687 0.0
H278 H 0.43374 0.96869 0.25714 0.0
H279 H 0.66369 0.24399 0.27862 0.0
H280 H 0.64104 0.29192 0.24169 0.0
H281 H 0.48381 0.96907 0.29745 0.0
H282 H 0.60227 0.31016 0.19528 0.0
N283 N 0.59133 0.18448 0.24326 0.0
C284 C 0.61645 0.17123 0.26356 0.0
C285 C 0.64343 0.22751 0.26836 0.0
C286 C 0.61954 0.24017 0.24481 0.0
C287 C 0.64238 0.19262 0.27711 0.0
C288 C 0.59376 0.21757 0.23229 0.0
H289 H 0.55665 0.29436 0.15174 0.0
N290 N 0.54966 0.20414 0.19326 0.0
C291 C 0.53324 0.24395 0.14923 0.0
C292 C 0.57245 0.22768 0.20598 0.0
C293 C 0.53129 0.21122 0.16411 0.0
C294 C 0.5551 0.26907 0.1634 0.0
C295 C 0.57557 0.26089 0.19174 0.0
O296 O 0.5558 0.13801 0.16859 0.0
O297 O 0.50673 0.1153 0.23344 0.0
O298 O 0.53978 0.10915 0.2977 0.0
O299 O 0.56343 0.1036 0.24399 0.0
O300 O 0.505 0.13787 0.18617 0.0
O301 O 0.59497 0.13025 0.20645 0.0
O302 O 0.47551 0.11454 0.33486 0.0
O303 O 0.53658 0.15473 0.27638 0.0
O304 O 0.51352 0.19512 0.22826 0.0
O305 O 0.46497 0.16669 0.24785 0.0
O306 O 0.49969 0.1796 0.30286 0.0
O307 O 0.45036 0.15678 0.31064 0.0
C308 C 0.49047 0.11515 0.20529 0.0
C309 C 0.61366 0.14092 0.1496 0.0
C310 C 0.64506 0.13422 0.09558 0.0
C311 C 0.6181 0.12411 0.11771 0.0
C312 C 0.66703 0.16149 0.10543 0.0
C313 C 0.63572 0.16845 0.15853 0.0
C314 C 0.66216 0.17864 0.13653 0.0
C315 C 0.56304 0.09539 0.27661 0.0
C316 C 0.58724 0.12848 0.174 0.0
C317 C 0.59969 0.28436 0.20559 0.0
C318 C 0.62168 0.274 0.23209 0.0
C319 C 0.53169 0.18132 0.29527 0.0
C320 C 0.41641 0.12427 0.3484 0.0
C321 C 0.39375 0.14631 0.36615 0.0
C322 C 0.35959 0.13555 0.37326 0.0
C323 C 0.34857 0.10268 0.36225 0.0
C324 C 0.40477 0.09125 0.33874 0.0
C325 C 0.37105 0.08072 0.34533 0.0
C326 C 0.48022 0.19398 0.2339 0.0
C327 C 0.4508 0.13684 0.33728 0.0
H328 H 0.60119 0.10286 0.1105 0.0
H329 H 0.68778 0.16981 0.08877 0.0
H330 H 0.63293 0.18177 0.18274 0.0
H331 H 0.67913 0.19979 0.14373 0.0
H332 H 0.40241 0.17189 0.37378 0.0
H333 H 0.32268 0.09357 0.36752 0.0
H334 H 0.42159 0.07358 0.32582 0.0
H335 H 0.36232 0.05531 0.33735 0.0
Tb336 Tb 0.62712 0.25408 0.54271 0.0
C337 C 0.73751 0.33047 0.46802 0.0
C338 C 0.75823 0.36957 0.51221 0.0
C339 C 0.79799 0.34696 0.47001 0.0
C340 C 0.73148 0.34976 0.49723 0.0
C341 C 0.77059 0.32983 0.45337 0.0
C342 C 0.79179 0.36689 0.49936 0.0
C343 C 0.74602 0.30013 0.40442 0.0
N344 N 0.71024 0.31503 0.45223 0.0
C345 C 0.71362 0.30187 0.41975 0.0
C346 C 0.77478 0.31347 0.42164 0.0
Tb347 Tb 0.66001 0.31516 0.4828 0.0
N348 N 0.69872 0.35174 0.50889 0.0
C349 C 0.69019 0.37668 0.5322 0.0
C350 C 0.7501 0.3928 0.5384 0.0
C351 C 0.71577 0.39716 0.54763 0.0
H352 H 0.69171 0.2917 0.40588 0.0
H353 H 0.709 0.41604 0.56689 0.0
H354 H 0.81283 0.38132 0.511 0.0
H355 H 0.74877 0.2886 0.37926 0.0
H356 H 0.66394 0.38067 0.53973 0.0
H357 H 0.57599 0.14872 0.46635 0.0
H358 H 0.76987 0.40854 0.55056 0.0
H359 H 0.59584 0.29483 0.61053 0.0
H360 H 0.6209 0.18856 0.48735 0.0
H361 H 0.54075 0.29764 0.64158 0.0
H362 H 0.82373 0.34628 0.45948 0.0
H363 H 0.51728 0.15096 0.49053 0.0
H364 H 0.47684 0.17656 0.53379 0.0
H365 H 0.7998 0.31236 0.40954 0.0
H366 H 0.46735 0.21677 0.58181 0.0
N367 N 0.5878 0.21489 0.52192 0.0
C368 C 0.5954 0.19039 0.49791 0.0
C369 C 0.53688 0.16886 0.49966 0.0
C370 C 0.5298 0.19259 0.52574 0.0
C371 C 0.56998 0.16749 0.486 0.0
C372 C 0.55621 0.21537 0.53654 0.0
H373 H 0.49112 0.26192 0.62238 0.0
N374 N 0.57743 0.25838 0.57361 0.0
C375 C 0.54324 0.28071 0.61962 0.0
C376 C 0.5509 0.23769 0.56357 0.0
C377 C 0.57446 0.27898 0.60201 0.0
C378 C 0.51527 0.26055 0.60867 0.0
C379 C 0.519 0.23836 0.58056 0.0
O380 O 0.64401 0.24409 0.5929 0.0
O381 O 0.66808 0.2902 0.53081 0.0
O382 O 0.69255 0.26827 0.47682 0.0
O383 O 0.66341 0.22729 0.51056 0.0
O384 O 0.65119 0.291 0.57944 0.0
O385 O 0.64396 0.2041 0.55414 0.0
O386 O 0.66428 0.36269 0.45687 0.0
O387 O 0.62206 0.27477 0.49049 0.0
O388 O 0.5879 0.29231 0.53391 0.0
O389 O 0.62533 0.33732 0.52256 0.0
O390 O 0.64476 0.2794 0.44281 0.0
O391 O 0.61615 0.33563 0.45847 0.0
C392 C 0.67447 0.30353 0.55963 0.0
C393 C 0.63897 0.18708 0.61239 0.0
C394 C 0.65053 0.15804 0.66643 0.0
C395 C 0.65968 0.18258 0.64162 0.0
C396 C 0.62032 0.13831 0.662 0.0
C397 C 0.60858 0.16759 0.60855 0.0
C398 C 0.59934 0.14332 0.63335 0.0
C399 C 0.68803 0.2363 0.48913 0.0
C400 C 0.65009 0.21186 0.58621 0.0
C401 C 0.49216 0.21655 0.56924 0.0
C402 C 0.49756 0.19369 0.54187 0.0
C403 C 0.62315 0.26124 0.46036 0.0
C404 C 0.62415 0.37578 0.41331 0.0
C405 C 0.61227 0.40977 0.40915 0.0
C406 C 0.60493 0.423 0.3762 0.0
C407 C 0.60976 0.40119 0.34764 0.0
C408 C 0.62837 0.35467 0.38449 0.0
C409 C 0.62115 0.36739 0.35185 0.0
C410 C 0.59466 0.32555 0.53241 0.0
C411 C 0.63214 0.36316 0.44799 0.0
H412 H 0.68324 0.19755 0.64466 0.0
H413 H 0.61295 0.11909 0.68079 0.0
H414 H 0.59221 0.1709 0.58634 0.0
H415 H 0.576 0.12814 0.63023 0.0
H416 H 0.60853 0.42569 0.43169 0.0
H417 H 0.60533 0.41034 0.32183 0.0
H418 H 0.63737 0.3285 0.38724 0.0
H419 H 0.62469 0.35105 0.3296 0.0
Tb420 Tb 0.97087 0.41372 0.73723 0.0
C421 C 0.04241 0.31861 0.82608 0.0
C422 C 1.00032 0.30888 0.87092 0.0
C423 C 0.03712 0.26216 0.85305 0.0
C424 C 1.01626 0.33092 0.84669 0.0
C425 C 0.05372 0.28429 0.82984 0.0
C426 C 1.01047 0.27441 0.87351 0.0
C427 C 0.09973 0.29692 0.79047 0.0
N428 N 0.05802 0.34061 0.80379 0.0
C429 C 0.08793 0.33065 0.78785 0.0
C430 C 0.08215 0.27341 0.81103 0.0
Tb431 Tb 0.03535 0.39554 0.80161 0.0
N432 N 1.00639 0.36427 0.84313 0.0
C433 C 0.98197 0.37738 0.86483 0.0
C434 C 0.97463 0.32204 0.89199 0.0
C435 C 0.96569 0.3565 0.88913 0.0
H436 H 0.10301 0.34869 0.77281 0.0
H437 H 0.94608 0.36708 0.90562 0.0
H438 H 0.99816 0.25713 0.89163 0.0
H439 H 0.12272 0.28926 0.77699 0.0
H440 H 0.97405 0.40373 0.86398 0.0
H441 H 0.04558 0.49071 0.64744 0.0
H442 H 0.96175 0.3059 0.91074 0.0
H443 H 0.88959 0.42516 0.76122 0.0
H444 H 0.02746 0.43738 0.67551 0.0
H445 H 0.84999 0.47396 0.76804 0.0
H446 H 0.04521 0.23568 0.85589 0.0
H447 H 1.01564 0.54522 0.65987 0.0
H448 H 0.96625 0.57509 0.68842 0.0
H449 H 0.09155 0.24733 0.81329 0.0
H450 H 0.91249 0.57055 0.72144 0.0
N451 N 0.98857 0.46086 0.70591 0.0
C452 C 1.01421 0.46058 0.68195 0.0
C453 C 1.00767 0.52173 0.67272 0.0
C454 C 0.97945 0.52133 0.69486 0.0
C455 C 0.02454 0.49101 0.66556 0.0
C456 C 0.97017 0.49003 0.71086 0.0
H457 H 0.86838 0.53265 0.7506 0.0
N458 N 0.93067 0.45629 0.74169 0.0
C459 C 0.87536 0.47824 0.7574 0.0
C460 C 0.93994 0.4876 0.72919 0.0
C461 C 0.89788 0.45066 0.75353 0.0
C462 C 0.88588 0.51134 0.74762 0.0
C463 C 0.91814 0.51617 0.73238 0.0
O464 O 0.95952 0.3682 0.70949 0.0
O465 O 0.98846 0.37893 0.77643 0.0
O466 O 0.05092 0.37135 0.75163 0.0
O467 O 1.01289 0.39052 0.70924 0.0
O468 O 0.93712 0.38482 0.77258 0.0
O469 O 0.93267 0.41381 0.69781 0.0
O470 O 0.08901 0.40012 0.81073 0.0
O471 O 0.02438 0.42373 0.75439 0.0
O472 O 0.95946 0.445 0.78222 0.0
O473 O 1.00183 0.43493 0.82337 0.0
O474 O 0.05033 0.44884 0.79099 0.0
O475 O 0.05207 0.41509 0.849 0.0
C476 C 0.96036 0.36782 0.78836 0.0
C477 C 0.90077 0.36052 0.69313 0.0
C478 C 0.84394 0.34439 0.66898 0.0
C479 C 0.87403 0.36566 0.66865 0.0
C480 C 0.84092 0.31856 0.69392 0.0
C481 C 0.8964 0.33422 0.71759 0.0
C482 C 0.86682 0.31365 0.71801 0.0
C483 C 0.03933 0.37202 0.71933 0.0
C484 C 0.93388 0.38088 0.69264 0.0
C485 C 0.92859 0.54809 0.71881 0.0
C486 C 0.95922 0.55067 0.70005 0.0
C487 C 0.04079 0.45184 0.75977 0.0
C488 C 0.10562 0.3977 0.87035 0.0
C489 C 0.11825 0.42008 0.89635 0.0
C490 C 0.13545 0.40683 0.92537 0.0
C491 C 0.14004 0.37104 0.92778 0.0
C492 C 0.11091 0.36217 0.87354 0.0
C493 C 0.12798 0.349 0.90201 0.0
C494 C 0.97418 0.45078 0.81216 0.0
C495 C 0.08457 0.41171 0.84196 0.0
H496 H 0.87666 0.38575 0.64957 0.0
H497 H 0.81812 0.30223 0.69492 0.0
H498 H 0.91611 0.32902 0.73633 0.0
H499 H 0.86402 0.29361 0.7371 0.0
H500 H 0.11396 0.44758 0.89441 0.0
H501 H 0.15345 0.36007 0.94947 0.0
H502 H 0.10172 0.34438 0.85439 0.0
H503 H 0.13178 0.32149 0.90416 0.0
Tb504 Tb 0.89907 0.7966 0.06832 0.0
C505 C 0.8026 0.71063 1.0046 0.0
C506 C 0.79767 0.66361 0.04508 0.0
C507 C 0.74659 0.6845 1.01649 0.0
C508 C 0.8178 0.68869 0.02783 0.0
C509 C 0.76698 0.70772 0.99766 0.0
C510 C 0.76193 0.66243 0.04014 0.0
C511 C 0.77515 0.74603 0.94988 0.0
N512 N 0.82307 0.73266 0.98667 0.0
C513 C 0.81025 0.74766 0.95748 0.0
C514 C 0.75319 0.72682 0.97074 0.0
Tb515 Tb 0.88025 0.73483 1.00325 0.0
N516 N 0.85242 0.69094 0.03252 0.0
C517 C 0.86862 0.66576 0.0509 0.0
C518 C 0.81409 0.63995 0.06626 0.0
C519 C 0.84979 0.64063 0.06861 0.0
H520 H 0.82681 0.76185 0.94016 0.0
H521 H 0.86294 0.62139 0.08361 0.0
H522 H 0.74606 0.64385 0.05375 0.0
H523 H 0.76515 0.75935 0.92772 0.0
H524 H 0.89606 0.6635 0.05131 0.0
H525 H 0.93008 0.92653 0.02585 0.0
H526 H 0.79956 0.62037 0.07995 0.0
H527 H 0.9531 0.76343 0.12848 0.0
H528 H 0.89392 0.88187 0.05299 0.0
H529 H 1.01496 0.75158 0.13255 0.0
H530 H 0.71915 0.68244 1.01197 0.0
H531 H 0.99025 0.91384 1.01 0.0
H532 H 0.04064 0.87348 1.01547 0.0
H533 H 0.72602 0.72531 0.96463 0.0
H534 H 0.06464 0.82303 0.04502 0.0
N535 N 0.93233 0.84307 0.05059 0.0
C536 C 0.92006 0.87571 0.0462 0.0
C537 C 0.97437 0.89398 0.02167 0.0
C538 C 0.9881 0.86211 0.03063 0.0
C539 C 0.94051 0.90129 0.03079 0.0
C540 C 0.96616 0.83733 0.04575 0.0
H541 H 0.05532 0.77759 0.09064 0.0
N542 N 0.9572 0.79091 0.08127 0.0
C543 C 1.0053 0.76717 0.11176 0.0
C544 C 0.97934 0.80928 0.06173 0.0
C545 C 0.97004 0.77347 0.10894 0.0
C546 C 0.02795 0.78175 0.088 0.0
C547 C 1.01521 0.80489 0.06382 0.0
O548 O 0.89522 0.79199 0.12205 0.0
O549 O 0.86812 0.75107 0.05491 0.0
O550 O 0.85628 0.7854 0.98858 0.0
O551 O 0.8707 0.82607 0.03083 0.0
O552 O 0.84306 0.7936 0.07234 0.0
O553 O 0.87973 0.83816 0.09723 0.0
O554 O 0.88414 0.73354 0.94942 0.0
O555 O 0.90779 0.78238 1.01439 0.0
O556 O 0.91353 0.74424 0.08347 0.0
O557 O 0.92299 0.7142 0.03317 0.0
O558 O 0.93418 0.74484 0.99085 0.0
O559 O 0.89046 0.68667 0.9797 0.0
C560 C 0.83874 0.76184 0.06384 0.0
C561 C 0.89702 0.84335 0.15508 0.0
C562 C 0.8869 0.87774 0.20679 0.0
C563 C 0.87423 0.85946 0.17801 0.0
C564 C 0.92263 0.87986 0.21207 0.0
C565 C 0.93255 0.84644 0.16047 0.0
C566 C 0.94523 0.86453 0.18892 0.0
C567 C 0.85477 0.81706 1.0022 0.0
C568 C 0.88311 0.82272 0.12636 0.0
C569 C 0.03705 0.82653 0.04463 0.0
C570 C 0.0234 0.85531 0.02791 0.0
C571 C 0.9356 0.77718 0.99807 0.0
C572 C 0.89555 0.6808 0.91729 0.0
C573 C 0.91099 0.64793 0.91729 0.0
C574 C 0.91454 0.6294 0.88629 0.0
C575 C 0.90277 0.64405 0.85561 0.0
C576 C 0.88444 0.69491 0.88611 0.0
C577 C 0.88803 0.6766 0.85554 0.0
C578 C 0.92916 0.71975 0.06596 0.0
C579 C 0.89005 0.70052 0.94933 0.0
H580 H 0.84672 0.85723 0.17384 0.0
H581 H 0.9331 0.8939 0.23385 0.0
H582 H 0.95045 0.83475 0.14285 0.0
H583 H 0.97269 0.86665 0.19308 0.0
H584 H 0.91984 0.63672 0.94111 0.0
H585 H 0.90528 0.63029 0.83152 0.0
H586 H 0.87253 0.72 0.88536 0.0
H587 H 0.87922 0.68766 0.83168 0.0
Tb588 Tb 0.48641 0.65535 0.30426 0.0
C589 C 0.57188 0.55108 0.22647 0.0
C590 C 0.61406 0.53568 0.26899 0.0
C591 C 0.59555 0.49336 0.22655 0.0
C592 C 0.59123 0.55969 0.25463 0.0
C593 C 0.57446 0.51817 0.21129 0.0
C594 C 0.61537 0.50213 0.25542 0.0
C595 C 0.53867 0.53828 0.16506 0.0
N596 N 0.55263 0.57606 0.21229 0.0
C597 C 0.53738 0.5706 0.18099 0.0
C598 C 0.55686 0.51172 0.18057 0.0
Tb599 Tb 0.54905 0.62784 0.24101 0.0
N600 N 0.58905 0.59238 0.26671 0.0
C601 C 0.61134 0.6033 0.29191 0.0
C602 C 0.6355 0.54639 0.29586 0.0
C603 C 0.63451 0.58054 0.30697 0.0
H604 H 0.52338 0.59102 0.16867 0.0
H605 H 0.65136 0.58933 0.32741 0.0
H606 H 0.63231 0.48314 0.26643 0.0
H607 H 0.52575 0.53395 0.14078 0.0
H608 H 0.61111 0.62917 0.30164 0.0
H609 H 0.38707 0.71429 0.22789 0.0
H610 H 0.65332 0.52875 0.30769 0.0
H611 H 0.52265 0.67943 0.37763 0.0
H612 H 0.42365 0.66691 0.24693 0.0
H613 H 0.52494 0.73153 0.41423 0.0
H614 H 0.59756 0.46776 0.21559 0.0
H615 H 0.39069 0.77109 0.25685 0.0
H616 H 0.41541 0.80751 0.30469 0.0
H617 H 0.55813 0.48677 0.16807 0.0
H618 H 0.45264 0.81213 0.35574 0.0
N619 N 0.44975 0.69682 0.28516 0.0
C620 C 0.4261 0.69155 0.25963 0.0
C621 C 0.40723 0.75043 0.26512 0.0
C622 C 0.42985 0.75501 0.29277 0.0
C623 C 0.40506 0.7184 0.24877 0.0
C624 C 0.45094 0.72734 0.30231 0.0
H625 H 0.4933 0.78373 0.39711 0.0
N626 N 0.49095 0.70237 0.33961 0.0
C627 C 0.51016 0.73155 0.39069 0.0
C628 C 0.47196 0.73012 0.3308 0.0
C629 C 0.5088 0.70209 0.36992 0.0
C630 C 0.49226 0.76098 0.38092 0.0
C631 C 0.47244 0.76035 0.35089 0.0
O632 O 0.47636 0.62931 0.35077 0.0
O633 O 0.52226 0.61673 0.28748 0.0
O634 O 0.50192 0.5948 0.23445 0.0
O635 O 0.45971 0.6222 0.26759 0.0
O636 O 0.52291 0.62814 0.33805 0.0
O637 O 0.43489 0.64238 0.31753 0.0
O638 O 0.56743 0.63974 0.19129 0.0
O639 O 0.5091 0.66513 0.25287 0.0
O640 O 0.52571 0.69569 0.30302 0.0
O641 O 0.57086 0.66533 0.27889 0.0
O642 O 0.51325 0.64629 0.20355 0.0
O643 O 0.59264 0.66046 0.2353 0.0
C644 C 0.53534 0.60765 0.31541 0.0
C645 C 0.42303 0.63847 0.37806 0.0
C646 C 0.39343 0.62318 0.43232 0.0
C647 C 0.40988 0.61318 0.40126 0.0
C648 C 0.39044 0.6586 0.43937 0.0
C649 C 0.41865 0.67338 0.386 0.0
C650 C 0.40273 0.6833 0.41639 0.0
C651 C 0.46943 0.59895 0.24488 0.0
C652 C 0.44321 0.62875 0.34696 0.0
C653 C 0.45245 0.7885 0.34083 0.0
C654 C 0.43126 0.78587 0.31175 0.0
C655 C 0.49599 0.66674 0.22263 0.0
C656 C 0.62795 0.64793 0.18766 0.0
C657 C 0.65003 0.67263 0.17184 0.0
C658 C 0.68271 0.66285 0.15886 0.0
C659 C 0.69223 0.62804 0.1618 0.0
C660 C 0.63882 0.61375 0.1902 0.0
C661 C 0.6706 0.60393 0.17742 0.0
C662 C 0.5586 0.69215 0.29611 0.0
C663 C 0.59394 0.65733 0.20218 0.0
H664 H 0.41297 0.58605 0.39549 0.0
H665 H 0.37778 0.66731 0.4625 0.0
H666 H 0.42767 0.69315 0.36876 0.0
H667 H 0.39981 0.71043 0.42217 0.0
H668 H 0.64197 0.69921 0.17006 0.0
H669 H 0.71633 0.61907 0.15144 0.0
H670 H 0.62262 0.59445 0.20192 0.0
H671 H 0.67844 0.57733 0.17943 0.0
Tb672 Tb 0.21641 0.52541 0.15699 0.0
C673 C 0.27659 0.4423 0.04896 0.0
C674 C 0.23568 0.39499 0.04664 0.0
C675 C 0.26475 0.41348 0.99466 0.0
C676 C 0.25302 0.42133 0.06504 0.0
C677 C 0.28362 0.43801 1.01375 0.0
C678 C 0.24086 0.39187 1.01113 0.0
C679 C 0.33064 0.47872 0.0202 0.0
N680 N 0.29484 0.4648 0.06858 0.0
C681 C 0.32297 0.4815 0.05511 0.0
C682 C 0.31045 0.45733 0.99925 0.0
Tb683 Tb 0.27979 0.46883 0.12544 0.0
N684 N 0.2485 0.42557 0.09924 0.0
C685 C 0.22934 0.402 0.11714 0.0
C686 C 0.21441 0.37208 0.06465 0.0
C687 C 0.21167 0.37531 0.10018 0.0
H688 H 0.3391 0.4977 0.07127 0.0
H689 H 0.19616 0.35711 0.11459 0.0
H690 H 0.22725 0.37228 0.99639 0.0
H691 H 0.35229 0.49283 1.00957 0.0
H692 H 0.22805 0.40294 0.14456 0.0
H693 H 0.29196 0.63062 0.21191 0.0
H694 H 0.2007 0.35143 0.05153 0.0
H695 H 0.14693 0.48713 0.19308 0.0
H696 H 0.26409 0.59857 0.16543 0.0
H697 H 0.12758 0.47255 0.25136 0.0
H698 H 0.26937 0.41012 0.96747 0.0
H699 H 0.28425 0.61219 0.27206 0.0
H700 H 0.25427 0.57329 0.31407 0.0
H701 H 0.31668 0.45483 0.97229 0.0
H702 H 0.20941 0.52943 0.3249 0.0
N703 N 0.24187 0.55993 0.19809 0.0
C704 C 0.26052 0.58934 0.1912 0.0
C705 C 0.272 0.59758 0.25158 0.0
C706 C 0.25037 0.56945 0.25873 0.0
C707 C 0.27634 0.6081 0.2177 0.0
C708 C 0.23504 0.55131 0.2311 0.0
H709 H 0.16132 0.49234 0.30168 0.0
N710 N 0.19272 0.51327 0.20988 0.0
C711 C 0.15094 0.48755 0.2478 0.0
C712 C 0.20971 0.52686 0.23721 0.0
C713 C 0.16205 0.49596 0.21478 0.0
C714 C 0.17014 0.49862 0.27609 0.0
C715 C 0.1992 0.51959 0.27107 0.0
O716 O 0.16383 0.52818 0.1451 0.0
O717 O 0.22637 0.4822 0.12217 0.0
O718 O 0.28139 0.51811 0.09379 0.0
O719 O 0.24875 0.55673 0.1259 0.0
O720 O 0.20205 0.52444 0.10274 0.0
O721 O 0.19353 0.57443 0.15466 0.0
O722 O 0.33106 0.45124 0.12316 0.0
O723 O 0.27041 0.50808 0.16461 0.0
O724 O 0.20565 0.4723 0.17104 0.0
O725 O 0.26067 0.45328 0.17662 0.0
O726 O 0.3163 0.50837 0.13673 0.0
O727 O 0.29457 0.4263 0.15549 0.0
C728 C 0.21276 0.4943 0.09529 0.0
C729 C 0.13285 0.5774 0.16134 0.0
C730 C 0.07722 0.60568 0.15248 0.0
C731 C 0.10919 0.59407 0.13976 0.0
C732 C 0.06988 0.59911 0.18744 0.0
C733 C 0.12575 0.57398 0.19625 0.0
C734 C 0.0942 0.58436 0.20908 0.0
C735 C 0.2688 0.54964 0.09998 0.0
C736 C 0.16352 0.5617 0.14625 0.0
C737 C 0.21668 0.53516 0.29871 0.0
C738 C 0.24221 0.56015 0.29254 0.0
C739 C 0.29985 0.52333 0.1611 0.0
C740 C 0.33743 0.39096 0.1323 0.0
C741 C 0.35195 0.36758 0.15598 0.0
C742 C 0.36103 0.334 0.14532 0.0
C743 C 0.35577 0.3244 0.11094 0.0
C744 C 0.33282 0.38057 0.09809 0.0
C745 C 0.34195 0.34756 0.08754 0.0
C746 C 0.22825 0.45275 0.18629 0.0
C747 C 0.32557 0.42537 0.14357 0.0
H748 H 0.11617 0.5977 0.11319 0.0
H749 H 0.04532 0.6049 0.19873 0.0
H750 H 0.14421 0.56278 0.21349 0.0
H751 H 0.08831 0.58048 0.23592 0.0
H752 H 0.35548 0.37518 0.18255 0.0
H753 H 0.36261 0.29886 0.10212 0.0
H754 H 0.32206 0.3979 0.07945 0.0
H755 H 0.33814 0.33983 0.06109 0.0
Tb756 Tb 0.72652 1.00859 0.87307 0.0
C757 C 0.78973 0.11149 0.96514 0.0
C758 C 0.74479 0.15423 0.96366 0.0
C759 C 0.77913 0.14763 1.01517 0.0
C760 C 0.76374 0.12795 0.94736 0.0
C761 C 0.79804 0.12167 0.99905 0.0
C762 C 0.75253 0.16379 0.99756 0.0
C763 C 0.84447 0.08114 0.99836 0.0
N764 N 0.80686 0.08557 0.94943 0.0
C765 C 0.8354 0.07199 0.96487 0.0
C766 C 0.82534 0.1057 1.01577 0.0
Tb767 Tb 0.79032 0.07328 0.89409 0.0
N768 N 0.75615 0.11745 0.91478 0.0
C769 C 0.72963 0.13283 0.89741 0.0
C770 C 0.71813 0.16985 0.94572 0.0
C771 C 0.71055 0.15906 0.91251 0.0
H772 H 0.85156 0.05397 0.95147 0.0
H773 H 0.68949 0.17057 0.89862 0.0
H774 H 0.73806 0.18371 1.01042 0.0
H775 H 0.86648 0.06951 1.01055 0.0
H776 H 0.7212 0.12445 0.87253 0.0
H777 H 0.79529 0.90246 0.81706 0.0
H778 H 0.70295 0.18993 0.95744 0.0
H779 H 0.6546 0.04688 0.84773 0.0
H780 H 0.77562 0.94014 0.8639 0.0
H781 H 0.61926 0.04991 0.79524 0.0
H782 H 0.78497 0.15549 0.04126 0.0
H783 H 0.76959 0.9078 0.7592 0.0
H784 H 0.72455 0.93473 0.72154 0.0
H785 H 0.83244 0.1128 0.04176 0.0
H786 H 0.67572 0.97424 0.71589 0.0
N787 N 0.74361 0.9702 0.83198 0.0
C788 C 0.76637 0.94449 0.83828 0.0
C789 C 0.76199 0.92532 0.77943 0.0
C790 C 0.73616 0.94953 0.77401 0.0
C791 C 0.77666 0.92233 0.81198 0.0
C792 C 0.72733 0.97168 0.80123 0.0
H793 H 0.63587 0.01701 0.74349 0.0
N794 N 0.6918 1.01364 0.82552 0.0
C795 C 0.64208 0.03423 0.79561 0.0
C796 C 0.69993 0.99366 0.79801 0.0
C797 C 0.66219 0.03246 0.82533 0.0
C798 C 0.65153 0.0156 0.76643 0.0
C799 C 0.68047 0.99452 0.76757 0.0
O800 O 0.68123 0.99889 0.90131 0.0
O801 O 0.74396 0.04703 0.90947 0.0
O802 O 0.80209 0.02628 0.92588 0.0
O803 O 0.76152 0.98468 0.90844 0.0
O804 O 0.69296 0.04632 0.89803 0.0
O805 O 0.71208 0.95708 0.88453 0.0
O806 O 0.84453 0.07482 0.89169 0.0
O807 O 0.78165 0.02288 0.87048 0.0
O808 O 0.72944 0.04506 0.83127 0.0
O809 O 0.76288 0.09239 0.84864 0.0
O810 O 0.80848 0.058 0.84346 0.0
O811 O 0.81417 0.121 0.88188 0.0
C812 C 0.71569 0.05984 0.91803 0.0
C813 C 0.6517 0.94747 0.88879 0.0
C814 C 0.59641 0.9206 0.90345 0.0
C815 C 0.62848 0.93475 0.91358 0.0
C816 C 0.58784 0.91953 0.86846 0.0
C817 C 0.64295 0.94482 0.85397 0.0
C818 C 0.61111 0.93133 0.84392 0.0
C819 C 0.78742 0.99482 0.92812 0.0
C820 C 0.68359 0.96568 0.89945 0.0
C821 C 0.69011 0.97375 0.7397 0.0
C822 C 0.71797 0.95132 0.74289 0.0
C823 C 0.80111 0.02566 0.84435 0.0
C824 C 0.87688 0.12775 0.87776 0.0
C825 C 0.87668 0.16205 0.86504 0.0
C826 C 0.90801 0.18021 0.85903 0.0
C827 C 0.9391 0.16367 0.86673 0.0
C828 C 0.90852 0.11217 0.88457 0.0
C829 C 0.93927 0.13006 0.87922 0.0
C830 C 0.74213 0.07624 0.82674 0.0
C831 C 0.84471 0.10757 0.8838 0.0
H832 H 0.63511 0.93623 0.94058 0.0
H833 H 0.56349 0.90854 0.86003 0.0
H834 H 0.66059 0.95321 0.83449 0.0
H835 H 0.60455 0.92982 0.81696 0.0
H836 H 0.85243 0.17424 0.85932 0.0
H837 H 0.96356 0.1769 0.86352 0.0
H838 H 0.90956 0.08606 0.89427 0.0
H839 H 0.96347 0.11781 0.88489 0.0
Tb840 Tb 0.7526 0.97263 0.42138 0.0
C841 C 0.8478 0.02591 0.32109 0.0
C842 C 0.89236 0.98306 0.32395 0.0
C843 C 0.88101 1.01226 0.27015 0.0
C844 C 0.86584 1.00196 0.33955 0.0
C845 C 0.85574 0.03207 0.28636 0.0
C846 C 0.89935 0.98781 0.28895 0.0
C847 C 0.81629 0.0796 0.28756 0.0
N848 N 0.82393 0.04469 0.33781 0.0
C849 C 0.80969 0.07269 0.32211 0.0
C850 C 0.83898 0.0588 0.2694 0.0
Tb851 Tb 0.81557 0.03219 0.39472 0.0
N852 N 0.85771 0.99758 0.37304 0.0
C853 C 0.87678 0.97612 0.39306 0.0
C854 C 0.91124 0.96028 0.34411 0.0
C855 C 0.90361 0.95705 0.37893 0.0
H856 H 0.79295 0.08967 0.33624 0.0
H857 H 0.91833 0.93986 0.3949 0.0
H858 H 0.91923 0.97314 0.27635 0.0
H859 H 0.80422 0.10123 0.27511 0.0
H860 H 0.87174 0.97374 0.42003 0.0
H861 H 0.6695 0.04551 0.50396 0.0
H862 H 0.93186 0.94532 0.33315 0.0
H863 H 0.7829 0.89281 0.43144 0.0
H864 H 0.69455 0.02793 0.44871 0.0
H865 H 0.79382 0.85321 0.47978 0.0
H866 H 0.88718 0.01627 0.24337 0.0
H867 H 0.68642 0.01571 0.55732 0.0
H868 H 0.71815 0.96693 0.58509 0.0
H869 H 0.84437 0.0644 0.24272 0.0
H870 H 0.75199 0.9141 0.57841 0.0
N871 N 0.72711 0.99039 0.47067 0.0
C872 C 0.70279 0.01538 0.47181 0.0
C873 C 0.69786 1.00824 0.53314 0.0
C874 C 0.72059 0.98059 0.53129 0.0
C875 C 0.68818 0.02507 0.50309 0.0
C876 C 0.73456 0.97185 0.49914 0.0
H877 H 0.77954 0.87096 0.53904 0.0
N878 N 0.76367 0.93294 0.4634 0.0
C879 C 0.78264 0.87819 0.48453 0.0
C880 C 0.75332 0.94197 0.49539 0.0
C881 C 0.77623 0.90053 0.45725 0.0
C882 C 0.77466 0.88837 0.51797 0.0
C883 C 0.759 0.92021 0.52364 0.0
O884 O 0.73834 0.92644 0.39638 0.0
O885 O 0.79917 0.97948 0.39078 0.0
O886 O 0.76717 0.03651 0.36113 0.0
O887 O 0.7246 1.01173 0.39554 0.0
O888 O 0.75695 0.95915 0.36701 0.0
O889 O 0.70022 0.95688 0.42192 0.0
O890 O 0.83408 0.08338 0.39512 0.0
O891 O 0.77322 0.02657 0.43119 0.0
O892 O 0.80191 0.96093 0.44561 0.0
O893 O 0.82446 0.01563 0.44843 0.0
O894 O 0.78201 0.07292 0.40421 0.0
O895 O 0.86185 0.04409 0.42117 0.0
C896 C 0.7885 0.96715 0.36262 0.0
C897 C 0.68851 0.89635 0.41385 0.0
C898 C 0.65727 0.84346 0.39708 0.0
C899 C 0.67132 0.87612 0.38866 0.0
C900 C 0.66083 0.83129 0.43073 0.0
C901 C 0.69056 0.88399 0.44752 0.0
C902 C 0.67713 0.85152 0.45576 0.0
C903 C 0.7339 0.02978 0.36859 0.0
C904 C 0.70597 0.92898 0.40399 0.0
C905 C 0.74744 0.93021 0.55625 0.0
C906 C 0.72822 0.96033 0.56006 0.0
C907 C 0.76344 0.05841 0.42744 0.0
C908 C 0.89459 0.09034 0.398 0.0
C909 C 0.92233 0.09887 0.42011 0.0
C910 C 0.95315 0.11269 0.40656 0.0
C911 C 0.95576 0.11819 0.37109 0.0
C912 C 0.89808 0.09606 0.36261 0.0
C913 C 0.92841 0.10995 0.34935 0.0
C914 C 0.82148 0.98415 0.46099 0.0
C915 C 0.86198 0.07619 0.41188 0.0
H916 H 0.66918 0.88554 0.3626 0.0
H917 H 0.65022 0.80636 0.43784 0.0
H918 H 0.70266 0.89924 0.46745 0.0
H919 H 0.67924 0.84205 0.48175 0.0
H920 H 0.92015 0.09431 0.44744 0.0
H921 H 0.97925 0.12865 0.36017 0.0
H922 H 0.87731 0.09011 0.3451 0.0
H923 H 0.93077 0.11425 0.32204 0.0
Tb924 Tb 0.29779 0.49129 0.65237 0.0
C925 C 0.23422 0.57448 0.54556 0.0
C926 C 0.27697 0.61954 0.53741 0.0
C927 C 0.24174 0.60045 0.48933 0.0
C928 C 0.26035 0.59505 0.55861 0.0
C929 C 0.22405 0.57748 0.51095 0.0
C930 C 0.26809 0.62154 0.50257 0.0
C931 C 0.17719 0.53785 0.52257 0.0
N932 N 0.21735 0.55305 0.5673 0.0
C933 C 0.18799 0.53613 0.55671 0.0
C934 C 0.19563 0.55822 0.49942 0.0
Tb935 Tb 0.23723 0.55134 0.62267 0.0
N936 N 0.26882 0.59176 0.59227 0.0
C937 C 0.29294 0.6137 0.60647 0.0
C938 C 0.30161 0.64168 0.55193 0.0
C939 C 0.30927 0.63903 0.5867 0.0
H940 H 0.17324 0.52071 0.5746 0.0
H941 H 0.32843 0.65596 0.5982 0.0
H942 H 0.28099 0.63977 0.48582 0.0
H943 H 0.15451 0.52369 0.51421 0.0
H944 H 0.30093 0.61168 0.63269 0.0
H945 H 0.24004 0.38457 0.721 0.0
H946 H 0.3148 0.66092 0.53655 0.0
H947 H 0.36922 0.53773 0.66981 0.0
H948 H 0.25441 0.41859 0.66987 0.0
H949 H 0.4074 0.5475 0.71979 0.0
H950 H 0.23459 0.60282 0.46258 0.0
H951 H 0.26718 0.39903 0.7767 0.0
H952 H 0.31143 0.43376 0.80913 0.0
H953 H 0.18704 0.55978 0.47303 0.0
H954 H 0.35809 0.47715 0.80843 0.0
N955 N 0.28462 0.45573 0.69708 0.0
C956 C 0.26428 0.42694 0.69436 0.0
C957 C 0.27244 0.415 0.75454 0.0
C958 C 0.2964 0.44216 0.75627 0.0
C959 C 0.25697 0.40683 0.72319 0.0
C960 C 0.30227 0.46217 0.72666 0.0
H961 H 0.39464 0.51891 0.77499 0.0
N962 N 0.33472 0.50436 0.69684 0.0
C963 C 0.38521 0.53056 0.72202 0.0
C964 C 0.32861 0.48668 0.7264 0.0
C965 C 0.36371 0.5248 0.69375 0.0
C966 C 0.37787 0.51439 0.75316 0.0
C967 C 0.34967 0.49173 0.75551 0.0
O968 O 0.34802 0.48792 0.63267 0.0
O969 O 0.2908 0.53769 0.62036 0.0
O970 O 0.23519 0.50186 0.59091 0.0
O971 O 0.25955 0.4602 0.62635 0.0
O972 O 0.31119 0.49552 0.59789 0.0
O973 O 0.31936 0.44179 0.64622 0.0
O974 O 0.1946 0.58321 0.61306 0.0
O975 O 0.24443 0.51081 0.66073 0.0
O976 O 0.29822 0.53456 0.68901 0.0
O977 O 0.26533 0.57745 0.66447 0.0
O978 O 0.19806 0.51367 0.63524 0.0
O979 O 0.21496 0.57995 0.66336 0.0
C980 C 0.3036 0.52681 0.59244 0.0
C981 C 0.38114 0.4384 0.64411 0.0
C982 C 0.43645 0.41276 0.62817 0.0
C983 C 0.40361 0.42507 0.6189 0.0
C984 C 0.44636 0.41403 0.66281 0.0
C985 C 0.39147 0.43815 0.67854 0.0
C986 C 0.42393 0.42636 0.68774 0.0
C987 C 0.24222 0.46898 0.59877 0.0
C988 C 0.34821 0.4543 0.63376 0.0
C989 C 0.34252 0.47328 0.78563 0.0
C990 C 0.31587 0.44864 0.78605 0.0
C991 C 0.21382 0.49738 0.65911 0.0
C992 C 0.193 0.63433 0.64657 0.0
C993 C 0.17132 0.65192 0.66997 0.0
C994 C 0.17168 0.68861 0.67163 0.0
C995 C 0.19404 0.70688 0.64969 0.0
C996 C 0.21419 0.65389 0.62479 0.0
C997 C 0.21501 0.68967 0.62663 0.0
C998 C 0.28598 0.56609 0.68879 0.0
C999 C 0.19341 0.59592 0.64383 0.0
H1000 H 0.39582 0.42475 0.59218 0.0
H1001 H 0.47124 0.40459 0.67074 0.0
H1002 H 0.37464 0.44712 0.69839 0.0
H1003 H 0.43169 0.42665 0.71442 0.0
H1004 H 0.15439 0.63723 0.6866 0.0
H1005 H 0.19462 0.73481 0.64948 0.0
H1006 H 0.22967 0.64165 0.60563 0.0
H1007 H 0.23157 0.70422 0.60955 0.0
H1008 H 0.23794 0.33308 0.51186 0.0
H1009 H 0.16244 0.30501 0.58773 0.0
H1010 H 0.1687 0.36143 0.61465 0.0
H1011 H 0.19523 0.41994 0.61593 0.0
H1012 H 0.2651 0.45043 0.53584 0.0
H1013 H 0.25964 0.39295 0.50969 0.0
C1014 C 0.22315 0.339 0.53465 0.0
C1015 C 0.2009 0.31349 0.54864 0.0
C1016 C 0.22476 0.37275 0.54822 0.0
C1017 C 0.1812 0.32263 0.57739 0.0
C1018 C 0.18412 0.35554 0.59231 0.0
C1019 C 0.20854 0.41421 0.59227 0.0
C1020 C 0.23011 0.4396 0.57747 0.0
C1021 C 0.20556 0.38094 0.57771 0.0
C1022 C 0.24758 0.43171 0.54709 0.0
C1023 C 0.245 0.3986 0.5326 0.0
H1024 H 0.85343 0.03762 0.79962 0.0
H1025 H 0.82232 0.96651 0.87851 0.0
H1026 H 0.87542 0.93543 0.8723 0.0
H1027 H 0.93206 0.92854 0.84475 0.0
H1028 H 0.96786 1.00445 0.77244 0.0
H1029 H 0.91291 0.0348 0.77721 0.0
C1030 C 0.85793 1.01498 0.81516 0.0
C1031 C 0.83199 1.00333 0.83807 0.0
C1032 C 0.89038 0.99893 0.81357 0.0
C1033 C 0.83968 0.97492 0.85893 0.0
C1034 C 0.87092 0.95756 0.85605 0.0
C1035 C 0.92818 0.95228 0.83075 0.0
C1036 C 0.95424 0.96455 0.80865 0.0
C1037 C 0.89657 0.96946 0.83363 0.0
C1038 C 0.94862 0.995 0.79026 0.0
C1039 C 0.91692 1.01195 0.79254 0.0
H1040 H 0.29622 0.70442 0.05969 0.0
H1041 H 0.39383 0.66052 0.03147 0.0
H1042 H 0.37481 0.60435 0.0477 0.0
H1043 H 0.3307 0.5655 0.07042 0.0
H1044 H 0.22943 0.60534 0.08883 0.0
H1045 H 0.24896 0.66343 0.07492 0.0
C1046 C 0.3133 0.68264 0.05748 0.0
C1047 C 0.34709 0.68788 0.04598 0.0
C1048 C 0.30126 0.64868 0.06427 0.0
C1049 C 0.36819 0.65855 0.04178 0.0
C1050 C 0.35723 0.62566 0.05054 0.0
C1051 C 0.31267 0.58663 0.07017 0.0
C1052 C 0.2789 0.58097 0.08081 0.0
C1053 C 0.32377 0.62019 0.06159 0.0
C1054 C 0.25589 0.60897 0.08079 0.0
C1055 C 0.26702 0.64244 0.07321 0.0
H1056 H 0.58879 0.0938 0.34208 0.0
H1057 H 0.60887 0.05827 0.23925 0.0
H1058 H 0.66581 0.03911 0.25643 0.0
H1059 H 0.71104 0.03246 0.30126 0.0
H1060 H 0.68766 0.06577 0.4039 0.0
H1061 H 0.63312 0.0878 0.38586 0.0
C1062 C 0.6055 0.08177 0.32343 0.0
C1063 C 0.59446 0.07794 0.28939 0.0
C1064 C 0.6388 0.07169 0.33314 0.0
C1065 C 0.61659 0.06179 0.26575 0.0
C1066 C 0.64947 0.05109 0.27541 0.0
C1067 C 0.69447 0.04563 0.31925 0.0
C1068 C 0.70489 0.04937 0.35362 0.0
C1069 C 0.66124 0.05636 0.30901 0.0
C1070 C 0.68189 0.0647 0.37692 0.0
C1071 C 0.64985 0.07642 0.36682 0.0
H1072 H 0.71135 0.17928 0.52231 0.0
H1073 H 0.70188 0.2252 0.42206 0.0
H1074 H 0.71684 0.17038 0.39547 0.0
H1075 H 0.73208 0.11091 0.40032 0.0
H1076 H 0.75307 0.06534 0.4987 0.0
H1077 H 0.73203 0.11819 0.52698 0.0
C1078 C 0.7135 0.17741 0.49464 0.0
C1079 C 0.70614 0.20657 0.47407 0.0
C1080 C 0.72251 0.14565 0.4795 0.0
C1081 C 0.70846 0.20371 0.43838 0.0
C1082 C 0.71628 0.17213 0.42323 0.0
C1083 C 0.73107 0.11175 0.42814 0.0
C1084 C 0.74202 0.08293 0.44733 0.0
C1085 C 0.72284 0.14305 0.44355 0.0
C1086 C 0.74259 0.08584 0.48323 0.0
C1087 C 0.73159 0.11655 0.49924 0.0
H1088 H 0.09452 0.41563 0.73263 0.0
H1089 H 0.05544 0.5184 0.7429 0.0
H1090 H 0.1097 0.54193 0.72026 0.0
H1091 H 0.16823 0.53311 0.69681 0.0
H1092 H 0.20005 0.42983 0.67476 0.0
H1093 H 0.15023 0.40658 0.70404 0.0
C1094 C 0.09693 0.44303 0.72838 0.0
C1095 C 0.06969 0.46498 0.73779 0.0
C1096 C 0.12824 0.45632 0.71515 0.0
C1097 C 0.07512 0.50073 0.73457 0.0
C1098 C 0.10648 0.51421 0.72215 0.0
C1099 C 0.16508 0.50546 0.69983 0.0
C1100 C 0.19085 0.48337 0.68675 0.0
C1101 C 0.13348 0.49225 0.71274 0.0
C1102 C 0.18411 0.44768 0.68827 0.0
C1103 C 0.15419 0.4343 0.70361 0.0
H1104 H 0.76189 0.93 0.93585 0.0
H1105 H 0.85048 0.99391 0.9609 0.0
H1106 H 0.87952 0.94326 0.98364 0.0
H1107 H 0.87963 0.88179 0.99447 0.0
H1108 H 0.79253 0.81734 0.96852 0.0
H1109 H 0.7632 0.86787 0.94529 0.0
C1110 C 0.78756 0.93327 0.94635 0.0
C1111 C 0.8039 0.96616 0.94682 0.0
C1112 C 0.80446 0.90396 0.958 0.0
C1113 C 0.83705 0.96934 0.96067 0.0
C1114 C 0.85379 0.94026 0.97322 0.0
C1115 C 0.85436 0.87844 0.98398 0.0
C1116 C 0.83842 0.84562 0.98344 0.0
C1117 C 0.83776 0.90756 0.97167 0.0
C1118 C 0.80568 0.84205 0.96873 0.0
C1119 C 0.78878 0.87106 0.95602 0.0
H1120 H 0.41173 0.56737 0.27047 0.0
H1121 H 0.46169 0.59703 0.17622 0.0
H1122 H 0.40897 0.58469 0.14435 0.0
H1123 H 0.34941 0.56573 0.14293 0.0
H1124 H 0.30304 0.52071 0.23271 0.0
H1125 H 0.35234 0.54111 0.26757 0.0
C1126 C 0.41121 0.57015 0.2428 0.0
C1127 C 0.44082 0.5826 0.22556 0.0
C1128 C 0.3809 0.56181 0.22437 0.0
C1129 C 0.43974 0.5866 0.18989 0.0
C1130 C 0.40934 0.58022 0.17178 0.0
C1131 C 0.34971 0.56087 0.17035 0.0
C1132 C 0.32189 0.54296 0.18548 0.0
C1133 C 0.3798 0.5682 0.18882 0.0
C1134 C 0.32318 0.53592 0.22075 0.0
C1135 C 0.3519 0.54667 0.24036 0.0
H1136 H 0.51936 0.23262 0.3413 0.0
H1137 H 0.59039 0.1511 0.32107 0.0
H1138 H 0.62308 0.16624 0.37225 0.0
H1139 H 0.6323 0.2041 0.42273 0.0
H1140 H 0.55646 0.27963 0.44868 0.0
H1141 H 0.52345 0.26407 0.39696 0.0
C1142 C 0.54236 0.21848 0.34775 0.0
C1143 C 0.55408 0.19244 0.32505 0.0
C1144 C 0.55916 0.22535 0.37941 0.0
C1145 C 0.58259 0.17323 0.3355 0.0
C1146 C 0.60064 0.1812 0.36574 0.0
C1147 C 0.60771 0.21607 0.41791 0.0
C1148 C 0.59642 0.24237 0.44023 0.0
C1149 C 0.58919 0.20724 0.3879 0.0
C1150 C 0.56511 0.25844 0.43284 0.0
C1151 C 0.5467 0.2501 0.40272 0.0
H1152 H 0.10446 0.33335 0.57793 0.0
H1153 H 0.07342 0.23158 0.61026 0.0
H1154 H 0.05211 0.25489 0.66448 0.0
H1155 H 0.04327 0.30448 0.70328 0.0
H1156 H 0.07693 0.40555 0.67135 0.0
H1157 H 0.09749 0.38234 0.61719 0.0
C1158 C 0.09217 0.3165 0.59644 0.0
C1159 C 0.08969 0.281 0.58989 0.0
C1160 C 0.08165 0.32983 0.62822 0.0
C1161 C 0.07486 0.25918 0.61462 0.0
C1162 C 0.06319 0.27238 0.64579 0.0
C1163 C 0.05598 0.32108 0.68476 0.0
C1164 C 0.05927 0.35647 0.6915 0.0
C1165 C 0.06699 0.3076 0.65315 0.0
C1166 C 0.07475 0.3781 0.66701 0.0
C1167 C 0.08606 0.36492 0.63576 0.0
H1168 H 0.96421 0.88855 0.88182 0.0
H1169 H 1.01561 0.80335 0.83407 0.0
H1170 H 0.99898 0.76601 0.88248 0.0
H1171 H 0.97415 0.75955 0.94124 0.0
H1172 H 0.92014 0.84446 0.9856 0.0
H1173 H 0.93415 0.88044 0.93657 0.0
C1174 C 0.97078 0.86145 0.88139 0.0
C1175 C 0.9906 0.84864 0.85397 0.0
C1176 C 0.96182 0.84059 0.90956 0.0
C1177 C 0.99962 0.81368 0.85427 0.0
C1178 C 0.99064 0.79256 0.88236 0.0
C1179 C 0.96567 0.78606 0.94043 0.0
C1180 C 0.94705 0.79983 0.96863 0.0
C1181 C 0.97266 0.80607 0.91074 0.0
C1182 C 0.93556 0.83376 0.96579 0.0
C1183 C 0.94317 0.8541 0.93716 0.0
H1184 H 0.44306 0.66005 0.17992 0.0
H1185 H 0.51545 0.73528 0.21877 0.0
H1186 H 0.50671 0.7707 0.16727 0.0
H1187 H 0.48304 0.77663 0.10788 0.0
H1188 H 0.41164 0.70014 0.07085 0.0
H1189 H 0.41683 0.66773 0.12334 0.0
C1190 C 0.4559 0.68492 0.17783 0.0
C1191 C 0.47927 0.69527 0.20378 0.0
C1192 C 0.45244 0.70382 0.14722 0.0
C1193 C 0.49637 0.72717 0.20004 0.0
C1194 C 0.49212 0.74689 0.16997 0.0
C1195 C 0.46907 0.75248 0.11095 0.0
C1196 C 0.44761 0.74021 0.08374 0.0
C1197 C 0.47128 0.73471 0.1427 0.0
C1198 C 0.42913 0.70958 0.08956 0.0
C1199 C 0.43165 0.69139 0.12038 0.0
H1200 H 0.14132 0.36426 0.289 0.0
H1201 H 0.22553 0.38995 0.35679 0.0
H1202 H 0.25688 0.41662 0.3089 0.0
H1203 H 0.25711 0.43824 0.24865 0.0
H1204 H 0.17019 0.41479 0.18342 0.0
H1205 H 0.14298 0.38204 0.22935 0.0
C1206 C 0.16664 0.37554 0.29332 0.0
C1207 C 0.18083 0.37556 0.3265 0.0
C1208 C 0.1839 0.3915 0.26606 0.0
C1209 C 0.21402 0.38955 0.33148 0.0
C1210 C 0.23181 0.40505 0.30415 0.0
C1211 C 0.23266 0.42514 0.24442 0.0
C1212 C 0.21569 0.42862 0.21272 0.0
C1213 C 0.21663 0.40693 0.27144 0.0
C1214 C 0.1837 0.41227 0.20761 0.0
C1215 C 0.16808 0.39365 0.23387 0.0
H1216 H 0.87821 0.95997 0.6122 0.0
H1217 H 0.89196 0.858 0.57035 0.0
H1218 H 0.87268 0.87751 0.51427 0.0
H1219 H 0.84798 0.92208 0.47769 0.0
H1220 H 0.8343 0.02464 0.51754 0.0
H1221 H 0.85768 1.00675 0.57322 0.0
C1222 C 0.87769 0.94231 0.59059 0.0
C1223 C 0.88634 0.90739 0.5957 0.0
C1224 C 0.86624 0.95375 0.55797 0.0
C1225 C 0.88524 0.88486 0.56733 0.0
C1226 C 0.87411 0.89597 0.53518 0.0
C1227 C 0.8503 0.94058 0.49851 0.0
C1228 C 0.83919 0.97457 0.49349 0.0
C1229 C 0.86381 0.93009 0.53034 0.0
C1230 C 0.84285 0.99835 0.52062 0.0
C1231 C 0.85606 0.98803 0.55256 0.0
H1232 H 0.30603 0.55053 0.75442 0.0
H1233 H 0.29081 0.63669 0.68671 0.0
H1234 H 0.31583 0.67568 0.72951 0.0
H1235 H 0.34656 0.68489 0.78444 0.0
H1236 H 0.36026 0.59949 0.85322 0.0
H1237 H 0.3315 0.56069 0.81198 0.0
C1238 C 0.30841 0.57778 0.74889 0.0
C1239 C 0.29759 0.59028 0.71665 0.0
C1240 C 0.32251 0.60028 0.774 0.0
C1241 C 0.29947 0.62601 0.71078 0.0
C1242 C 0.31379 0.64844 0.73537 0.0
C1243 C 0.34254 0.65792 0.79069 0.0
C1244 C 0.35546 0.64513 0.82197 0.0
C1245 C 0.326 0.63581 0.76681 0.0
C1246 C 0.35019 0.61008 0.82963 0.0
C1247 C 0.33403 0.58784 0.80585 0.0
H1248 H 0.70034 0.09735 0.07549 0.0
H1249 H 0.6027 0.13444 0.03989 0.0
H1250 H 0.61609 0.11527 0.9814 0.0
H1251 H 0.65746 0.09116 0.93972 0.0
H1252 H 0.75206 0.0482 0.97688 0.0
H1253 H 0.73839 0.06669 0.03519 0.0
C1254 C 0.68183 0.10068 0.05495 0.0
C1255 C 0.65063 0.11732 0.06183 0.0
C1256 C 0.68956 0.08921 0.02157 0.0
C1257 C 0.62676 0.12148 0.03515 0.0
C1258 C 0.63455 0.11078 1.00171 0.0
C1259 C 0.67502 0.08589 0.96065 0.0
C1260 C 0.70666 0.07009 0.95368 0.0
C1261 C 0.66618 0.09521 0.99447 0.0
C1262 C 0.72844 0.06199 0.98124 0.0
C1263 C 0.72041 0.07217 1.0147 0.0
H1264 H 0.68626 0.10078 0.67897 0.0
H1265 H 0.6644 0.20105 0.72053 0.0
H1266 H 0.69494 0.18656 0.77379 0.0
H1267 H 0.72215 0.14216 0.81076 0.0
H1268 H 0.74535 0.04304 0.76657 0.0
H1269 H 0.72022 0.06012 0.71222 0.0
C1270 C 0.68868 0.11955 0.69958 0.0
C1271 C 0.6729 0.15162 0.69634 0.0
C1272 C 0.70627 0.11109 0.72973 0.0
C1273 C 0.67635 0.17607 0.72281 0.0
C1274 C 0.69368 0.16775 0.75319 0.0
C1275 C 0.7225 0.12481 0.7889 0.0
C1276 C 0.73477 0.09113 0.79282 0.0
C1277 C 0.70803 0.13494 0.75732 0.0
C1278 C 0.7352 0.06883 0.76432 0.0
C1279 C 0.72091 0.07856 0.73318 0.0
H1280 H 0.21765 0.50604 0.027 0.0
H1281 H 0.16763 0.44101 0.10148 0.0
H1282 H 0.13754 0.40955 0.05558 0.0
H1283 H 0.12727 0.39906 0.99416 0.0
H1284 H 0.17505 0.46544 0.9192 0.0
H1285 H 0.2039 0.49813 0.96516 0.0
C1286 C 0.20038 0.48472 0.03295 0.0
C1287 C 0.1961 0.47451 0.0673 0.0
C1288 C 0.18269 0.4672 1.00637 0.0
C1289 C 0.17252 0.44805 0.07506 0.0
C1290 C 0.15501 0.43042 0.04886 0.0
C1291 C 0.14386 0.42082 0.98789 0.0
C1292 C 0.14925 0.42959 0.95325 0.0
C1293 C 0.16029 0.43942 1.01441 0.0
C1294 C 0.17036 0.45822 0.9456 0.0
C1295 C 0.18707 0.47674 0.97188 0.0
H1296 H 0.78594 0.97097 0.29332 0.0
H1297 H 0.83405 0.91671 0.37637 0.0
H1298 H 0.86794 0.88328 0.33544 0.0
H1299 H 0.88571 0.87133 0.27606 0.0
H1300 H 0.83542 0.9229 0.19245 0.0
H1301 H 0.80049 0.9555 0.2333 0.0
C1302 C 0.80404 0.95192 0.30226 0.0
C1303 C 0.80899 0.94741 0.3377 0.0
C1304 C 0.82296 0.93239 0.27848 0.0
C1305 C 0.83122 0.92168 0.34918 0.0
C1306 C 0.85026 0.90235 0.3258 0.0
C1307 C 0.86696 0.8896 0.26683 0.0
C1308 C 0.86335 0.89496 0.23134 0.0
C1309 C 0.84679 0.9079 0.29042 0.0
C1310 C 0.83861 0.9183 0.21966 0.0
C1311 C 0.81877 0.93704 0.243 0.0
H1312 H 0.29976 0.52246 0.52247 0.0
H1313 H 0.35576 0.57297 0.60409 0.0
H1314 H 0.39007 0.60518 0.56205 0.0
H1315 H 0.40221 0.62141 0.502 0.0
H1316 H 0.34873 0.56901 0.41975 0.0
H1317 H 0.31584 0.53501 0.46171 0.0
C1318 C 0.31934 0.54075 0.53094 0.0
C1319 C 0.32382 0.54686 0.56648 0.0
C1320 C 0.33959 0.55871 0.50639 0.0
C1321 C 0.35055 0.56917 0.57702 0.0
C1322 C 0.37044 0.58732 0.55292 0.0
C1323 C 0.38366 0.60222 0.49318 0.0
C1324 C 0.378 0.59798 0.45753 0.0
C1325 C 0.36483 0.58275 0.51753 0.0
C1326 C 0.35398 0.57273 0.44681 0.0
C1327 C 0.33489 0.55347 0.4709 0.0
H1328 H 0.26775 0.20958 0.48407 0.0
H1329 H 0.1909 0.19495 0.40522 0.0
H1330 H 0.23444 0.17146 0.36672 0.0
H1331 H 0.29362 0.15161 0.35678 0.0
H1332 H 0.37072 0.16729 0.43506 0.0
H1333 H 0.32797 0.19422 0.47234 0.0
C1334 C 0.26052 0.20131 0.45842 0.0
C1335 C 0.22595 0.20358 0.44769 0.0
C1336 C 0.2858 0.18811 0.43632 0.0
C1337 C 0.21722 0.1934 0.41416 0.0
C1338 C 0.24213 0.1799 0.39216 0.0
C1339 C 0.30113 0.16135 0.38185 0.0
C1340 C 0.33529 0.15726 0.39322 0.0
C1341 C 0.27638 0.17669 0.40312 0.0
C1342 C 0.34473 0.17032 0.4256 0.0
C1343 C 0.3202 0.18544 0.44703 0.0
H1344 H 0.13254 1.01143 0.62929 0.0
H1345 H 0.08682 0.09227 0.68906 0.0
H1346 H 0.05366 0.04904 0.72174 0.0
H1347 H 0.04053 0.98688 0.73567 0.0
H1348 H 0.08787 0.90772 0.67453 0.0
H1349 H 0.11714 0.95134 0.64019 0.0
C1350 C 0.11501 0.01968 0.64922 0.0
C1351 C 0.11236 0.05509 0.65675 0.0
C1352 C 0.09644 0.99475 0.66798 0.0
C1353 C 0.08922 0.06525 0.68248 0.0
C1354 C 0.07043 0.04045 0.70136 0.0
C1355 C 0.05742 0.97935 0.71494 0.0
C1356 C 0.06292 0.94392 0.70842 0.0
C1357 C 0.07433 1.00494 0.69483 0.0
C1358 C 0.08377 0.93466 0.68057 0.0
C1359 C 0.10051 0.95963 0.66083 0.0
H1360 H 0.19865 0.80528 0.94958 0.0
H1361 H 0.22934 0.86762 0.86311 0.0
H1362 H 0.28959 0.86235 0.88008 0.0
H1363 H 0.3344 0.83674 0.91742 0.0
H1364 H 0.30332 0.7714 1.00126 0.0
H1365 H 0.24286 0.78061 0.98708 0.0
C1366 C 0.21838 0.8176 0.93415 0.0
C1367 C 0.20892 0.83659 0.9047 0.0
C1368 C 0.25323 0.8137 0.94355 0.0
C1369 C 0.23531 0.85307 0.88596 0.0
C1370 C 0.27 0.84978 0.8955 0.0
C1371 C 0.31431 0.82472 0.93267 0.0
C1372 C 0.32349 0.80403 0.96091 0.0
C1373 C 0.27936 0.82968 0.92391 0.0
C1374 C 0.29713 0.7881 0.97998 0.0
C1375 C 0.26247 0.79322 0.97172 0.0
H1376 H 0.50622 0.04573 0.20752 0.0
H1377 H 0.43478 0.11806 0.1648 0.0
H1378 H 0.40368 0.07105 0.136 0.0
H1379 H 0.39491 1.00942 0.12486 0.0
H1380 H 0.46558 0.93576 0.16651 0.0
H1381 H 0.49908 0.98291 0.19321 0.0
C1382 C 0.48369 0.05101 0.19206 0.0
C1383 C 0.47199 0.0853 0.18925 0.0
C1384 C 0.46602 0.0236 0.17508 0.0
C1385 C 0.44368 0.09191 0.16804 0.0
C1386 C 0.426 0.06502 0.15145 0.0
C1387 C 0.41775 1.00358 0.13964 0.0
C1388 C 0.42742 0.96889 0.14383 0.0
C1389 C 0.43662 0.03077 0.15509 0.0
C1390 C 0.45753 0.96209 0.1626 0.0
C1391 C 0.47658 0.98911 0.1781 0.0
H1392 H 0.8307 0.31137 0.60808 0.0
H1393 H 0.78828 0.38419 0.67947 0.0
H1394 H 0.7318 0.37811 0.65206 0.0
H1395 H 0.69284 0.34718 0.6117 0.0
H1396 H 0.73563 0.27688 0.53795 0.0
H1397 H 0.7931 0.28647 0.56224 0.0
C1398 C 0.80936 0.32687 0.61674 0.0
C1399 C 0.81392 0.34876 0.64546 0.0
C1400 C 0.77668 0.32291 0.60094 0.0
C1401 C 0.78571 0.36786 0.65699 0.0
C1402 C 0.75323 0.36393 0.64163 0.0
C1403 C 0.71485 0.33424 0.6008 0.0
C1404 C 0.70984 0.31143 0.57295 0.0
C1405 C 0.74812 0.3407 0.61431 0.0
C1406 C 0.73866 0.29478 0.55915 0.0
C1407 C 0.77162 0.30029 0.57306 0.0
H1408 H 1.00619 0.50224 0.84904 0.0
H1409 H 0.90645 0.45967 0.82372 0.0
H1410 H 0.87865 0.5102 0.84791 0.0
H1411 H 0.88292 0.56941 0.86999 0.0
H1412 H 0.98184 0.61273 0.89664 0.0
H1413 H 1.00979 0.55889 0.87939 0.0
C1414 C 0.97837 0.50373 0.84972 0.0
C1415 C 0.95833 0.4777 0.83378 0.0
C1416 C 0.96247 0.53305 0.86395 0.0
C1417 C 0.92236 0.47993 0.83476 0.0
C1418 C 0.90645 0.50871 0.84884 0.0
C1419 C 0.9105 0.56661 0.87291 0.0
C1420 C 0.93034 0.5948 0.88458 0.0
C1421 C 0.92625 0.53589 0.8625 0.0
C1422 C 0.96607 0.59115 0.88804 0.0
C1423 C 0.98203 0.5605 0.87785 0.0
H1424 H 0.76858 0.76608 0.06361 0.0
H1425 H 0.85255 0.7129 0.11147 0.0
H1426 H 0.81205 0.68016 0.1469 0.0
H1427 H 0.753 0.66546 0.16342 0.0
H1428 H 0.66795 0.71629 0.11457 0.0
H1429 H 0.70843 0.75164 0.08127 0.0
C1430 C 0.77785 0.74715 0.08171 0.0
C1431 C 0.81351 0.74114 0.08411 0.0
C1432 C 0.7542 0.72822 0.10209 0.0
C1433 C 0.82527 0.71725 0.10832 0.0
C1434 C 0.80209 0.69873 0.12883 0.0
C1435 C 0.74309 0.68408 0.14536 0.0
C1436 C 0.70714 0.68766 0.14142 0.0
C1437 C 0.7665 0.70371 0.12568 0.0
C1438 C 0.69526 0.71289 0.11852 0.0
C1439 C 0.71849 0.73295 0.09915 0.0
H1440 H 0.55941 0.44724 0.32839 0.0
H1441 H 0.62335 0.48145 0.41287 0.0
H1442 H 0.606 0.54088 0.40296 0.0
H1443 H 0.57482 0.58408 0.36822 0.0
H1444 H 0.51326 0.54922 0.28256 0.0
H1445 H 0.52802 0.48962 0.29458 0.0
C1446 C 0.56996 0.46758 0.34453 0.0
C1447 C 0.59298 0.45941 0.37126 0.0
C1448 C 0.56045 0.50193 0.33827 0.0
C1449 C 0.60535 0.48647 0.39233 0.0
C1450 C 0.59563 0.52069 0.38651 0.0
C1451 C 0.56462 0.56334 0.35233 0.0
C1452 C 0.54377 0.57128 0.32391 0.0
C1453 C 0.57347 0.52882 0.35932 0.0
C1454 C 0.53011 0.54408 0.30398 0.0
C1455 C 0.53842 0.50985 0.31096 0.0
H1456 H 0.42392 0.33503 0.17643 0.0
H1457 H 0.33154 0.27368 0.16539 0.0
H1458 H 0.35904 0.22525 0.19428 0.0
H1459 H 0.41152 0.19822 0.21714 0.0
H1460 H 0.5042 0.25967 0.22723 0.0
H1461 H 0.47488 0.30957 0.20409 0.0
C1462 C 0.40962 0.31135 0.18123 0.0
C1463 C 0.37566 0.308 0.1691 0.0
C1464 C 0.42597 0.28323 0.19707 0.0
C1465 C 0.35762 0.27691 0.17479 0.0
C1466 C 0.37344 0.24912 0.19108 0.0
C1467 C 0.42507 0.22267 0.215 0.0
C1468 C 0.4602 0.22485 0.22364 0.0
C1469 C 0.40793 0.25161 0.20154 0.0
C1470 C 0.47734 0.25688 0.22024 0.0
C1471 C 0.46053 0.28564 0.20713 0.0
H1472 H 0.90896 0.34146 0.82854 0.0
H1473 H 0.99486 0.31159 0.76594 0.0
H1474 H 0.98433 0.25106 0.77998 0.0
H1475 H 0.95246 0.20679 0.81172 0.0
H1476 H 0.86689 0.23545 0.8755 0.0
H1477 H 0.87479 0.2959 0.85858 0.0
C1478 C 0.92537 0.3216 0.81818 0.0
C1479 C 0.95361 0.33112 0.79747 0.0
C1480 C 0.919 0.28658 0.82629 0.0
C1481 C 0.97386 0.30508 0.78305 0.0
C1482 C 0.96764 0.27041 0.79082 0.0
C1483 C 0.93549 0.22619 0.82208 0.0
C1484 C 0.90941 0.21639 0.84537 0.0
C1485 C 0.94064 0.2609 0.81281 0.0
C1486 C 0.88713 0.24198 0.85755 0.0
C1487 C 0.89185 0.27668 0.84809 0.0
H1488 H 0.02311 0.64661 0.17243 0.0
H1489 H 0.07263 0.60878 0.08047 0.0
H1490 H 0.03218 0.64072 0.04582 0.0
H1491 H 0.98174 0.6797 0.04137 0.0
H1492 H 0.92726 0.70616 0.13399 0.0
H1493 H 0.96957 0.67623 0.16824 0.0
C1494 C 0.02493 0.64359 0.14495 0.0
C1495 C 0.05167 0.62435 0.13001 0.0
C1496 C 1.00012 0.65997 0.12487 0.0
C1497 C 0.05334 0.62349 0.09373 0.0
C1498 C 0.02969 0.64153 0.0735 0.0
C1499 C 0.97887 0.67834 0.06899 0.0
C1500 C 0.95195 0.69617 0.08517 0.0
C1501 C 1.00283 0.65983 0.0888 0.0
C1502 C 0.94828 0.69365 0.12091 0.0
C1503 C 0.97248 0.67648 0.14059 0.0
H1504 H 0.67573 0.78311 0.36674 0.0
H1505 H 0.59292 0.85547 0.37328 0.0
H1506 H 0.55499 0.81541 0.3418 0.0
H1507 H 0.54437 0.7581 0.31604 0.0
H1508 H 0.62809 0.68669 0.30713 0.0
H1509 H 0.66668 0.72807 0.33526 0.0
C1510 C 0.64961 0.79033 0.3605 0.0
C1511 C 0.63712 0.82225 0.37209 0.0
C1512 C 0.62802 0.76717 0.34224 0.0
C1513 C 0.60317 0.83126 0.3642 0.0
C1514 C 0.58143 0.80823 0.34646 0.0
C1515 C 0.57107 0.75155 0.32016 0.0
C1516 C 0.58295 0.71877 0.31011 0.0
C1517 C 0.59337 0.7758 0.33597 0.0
C1518 C 0.61792 0.71131 0.31493 0.0
C1519 C 0.64012 0.73507 0.33106 0.0
H1520 H 0.52548 0.31496 0.53495 0.0
H1521 H 0.60469 0.38873 0.56279 0.0
H1522 H 0.56214 0.4237 0.59274 0.0
H1523 H 0.50309 0.43084 0.61504 0.0
H1524 H 0.42365 0.35813 0.5856 0.0
H1525 H 0.46543 0.32534 0.55207 0.0
C1526 C 0.53338 0.33896 0.54718 0.0
C1527 C 0.56836 0.34913 0.54671 0.0
C1528 C 0.50867 0.35904 0.56419 0.0
C1529 C 0.57804 0.38036 0.56254 0.0
C1530 C 0.55369 0.40027 0.57986 0.0
C1531 C 0.49486 0.40817 0.60071 0.0
C1532 C 0.46029 0.3969 0.60281 0.0
C1533 C 0.51905 0.38957 0.58138 0.0
C1534 C 0.44996 0.36751 0.58412 0.0
C1535 C 0.47393 0.34863 0.56519 0.0
H1536 H 0.18756 0.74616 0.70917 0.0
H1537 H 0.10264 0.67788 0.68456 0.0
H1538 H 0.06287 0.71758 0.71273 0.0
H1539 H 0.05183 0.77418 0.74022 0.0
H1540 H 0.1372 0.84356 0.76069 0.0
H1541 H 0.17695 0.80104 0.73828 0.0
C1542 C 0.16035 0.73976 0.71005 0.0
C1543 C 0.14822 0.70905 0.69432 0.0
C1544 C 0.13757 0.76322 0.72528 0.0
C1545 C 0.11291 0.70105 0.69655 0.0
C1546 C 0.09007 0.72401 0.71236 0.0
C1547 C 0.07908 0.78016 0.73965 0.0
C1548 C 0.09119 0.81262 0.75166 0.0
C1549 C 0.10201 0.75562 0.72608 0.0
C1550 C 0.12684 0.81918 0.75148 0.0
C1551 C 0.14972 0.79478 0.7386 0.0
H1552 H 0.50834 0.82122 0.99552 0.0
H1553 H 0.42698 0.8878 0.96212 0.0
H1554 H 0.46938 0.92547 0.93371 0.0
H1555 H 0.52905 0.93565 0.91356 0.0
H1556 H 0.60985 0.86894 0.94805 0.0
H1557 H 0.56818 0.83497 0.98111 0.0
C1558 C 0.49996 0.84441 0.9826 0.0
C1559 C 0.46466 0.85185 0.98081 0.0
C1560 C 0.52434 0.8656 0.96636 0.0
C1561 C 0.45406 0.88184 0.96408 0.0
C1562 C 0.47826 0.90312 0.94762 0.0
C1563 C 0.53751 0.91411 0.92896 0.0
C1564 C 0.57239 0.90471 0.92845 0.0
C1565 C 0.51337 0.89477 0.94792 0.0
C1566 C 0.58321 0.8768 0.9484 0.0
C1567 C 0.55937 0.85727 0.96705 0.0
H1568 H 0.96447 0.16477 0.45323 0.0
H1569 H 1.01167 0.07675 0.40578 0.0
H1570 H 0.06748 0.09382 0.42956 0.0
H1571 H 0.10388 0.13648 0.45899 0.0
H1572 H 0.05787 0.22338 0.5093 0.0
H1573 H 1.00072 0.20443 0.48931 0.0
C1574 C 0.98687 0.14895 0.449 0.0
C1575 C 0.9841 0.11947 0.4279 0.0
C1576 C 0.01916 0.15922 0.46252 0.0
C1577 C 1.0133 0.09939 0.42211 0.0
C1578 C 0.04522 0.1093 0.43545 0.0
C1579 C 0.08127 0.15119 0.46562 0.0
C1580 C 0.08514 0.18209 0.4841 0.0
C1581 C 0.04864 0.13965 0.45479 0.0
C1582 C 0.05561 0.20028 0.49371 0.0
C1583 C 0.02292 0.18922 0.48262 0.0
loop_
_geom_bond_atom_site_label_1
_geom_bond_atom_site_label_2
_geom_bond_distance
_geom_bond_site_symmetry_2
_ccdc_geom_bond_type
Tb0 N31 2.660 . S
Tb0 N38 2.600 . S
Tb0 O44 2.546 . S
Tb0 O45 2.610 . S
Tb0 O47 2.320 . S
Tb0 O48 2.552 . S
Tb0 O49 2.413 . S
Tb0 O51 2.362 . S
Tb0 O52 2.421 . S
Tb0 C64 2.833 . S
C1 C4 1.432 . S
C1 C5 1.414 1_455 S
C1 N8 1.359 . S
C2 C4 1.417 . S
C2 C6 1.432 1_455 S
C2 C14 1.410 . S
C3 C5 1.444 . S
C3 C6 1.317 . S
C3 H26 0.929 . S
C4 C1 1.432 . S
C4 C2 1.417 . S
C4 N12 1.360 . S
C5 C1 1.414 1_655 S
C5 C3 1.444 . S
C5 C10 1.385 . S
C6 C2 1.432 1_655 S
C6 C3 1.317 . S
C6 H18 0.930 . S
C7 C9 1.392 1_655 S
C7 C10 1.370 . S
C7 H19 0.931 . S
N8 C1 1.359 . S
N8 C9 1.327 . S
N8 Tb11 2.600 . S
C9 C7 1.392 1_455 S
C9 N8 1.327 . S
C9 H16 0.930 . S
C10 C5 1.385 . S
C10 C7 1.370 . S
C10 H29 0.930 . S
Tb11 N8 2.600 . S
Tb11 N12 2.660 . S
Tb11 O45 2.362 . S
Tb11 O46 2.421 . S
Tb11 O50 2.546 . S
Tb11 O51 2.610 . S
Tb11 O53 2.320 . S
Tb11 O54 2.552 . S
Tb11 O55 2.413 . S
Tb11 C75 2.833 . S
N12 C4 1.360 . S
N12 Tb11 2.660 . S
N12 C13 1.305 . S
C13 N12 1.305 . S
C13 C15 1.407 . S
C13 H20 0.930 . S
C14 C2 1.410 . S
C14 C15 1.345 . S
C14 H22 0.930 . S
C15 C13 1.407 . S
C15 C14 1.345 . S
C15 H17 0.930 . S
H16 C9 0.930 . S
H17 C15 0.930 . S
H18 C6 0.930 . S
H19 C7 0.931 . S
H20 C13 0.930 . S
H21 C35 0.930 . S
H22 C14 0.930 . S
H23 C41 0.930 . S
H24 C32 0.930 . S
H25 C39 0.931 . S
H26 C3 0.929 . S
H27 C33 0.930 . S
H28 C66 0.930 . S
H29 C10 0.930 . S
H30 C65 0.929 . S
N31 Tb0 2.660 . S
N31 C32 1.305 . S
N31 C36 1.360 . S
C32 H24 0.930 . S
C32 N31 1.305 . S
C32 C35 1.407 . S
C33 H27 0.930 . S
C33 C34 1.410 . S
C33 C35 1.345 . S
C34 C33 1.410 . S
C34 C36 1.417 . S
C34 C66 1.432 . S
C35 H21 0.930 . S
C35 C32 1.407 . S
C35 C33 1.345 . S
C36 N31 1.360 . S
C36 C34 1.417 . S
C36 C40 1.432 . S
H37 C42 0.930 . S
N38 Tb0 2.600 . S
N38 C40 1.359 . S
N38 C41 1.327 . S
C39 H25 0.931 . S
C39 C41 1.392 . S
C39 C42 1.370 . S
C40 C36 1.432 . S
C40 N38 1.359 . S
C40 C43 1.414 . S
C41 H23 0.930 . S
C41 N38 1.327 . S
C41 C39 1.392 . S
C42 H37 0.930 . S
C42 C39 1.370 . S
C42 C43 1.385 . S
C43 C40 1.414 . S
C43 C42 1.385 . S
C43 C65 1.444 . S
O44 Tb0 2.546 . S
O44 C64 1.251 . S
O45 Tb0 2.610 . S
O45 Tb11 2.362 . S
O45 C56 1.283 . S
O46 Tb11 2.421 . S
O46 C63 1.262 . S
O47 Tb0 2.320 . S
O47 C63 1.260 . S
O48 Tb0 2.552 . S
O48 C56 1.243 . S
O49 Tb0 2.413 . S
O49 C64 1.256 . S
O50 Tb11 2.546 . S
O50 C75 1.251 . S
O51 Tb0 2.362 . S
O51 Tb11 2.610 . S
O51 C67 1.283 . S
O52 Tb0 2.421 . S
O52 C74 1.262 . S
O53 Tb11 2.320 . S
O53 C74 1.260 . S
O54 Tb11 2.552 . S
O54 C67 1.243 . S
O55 Tb11 2.413 . S
O55 C75 1.256 . S
C56 O45 1.283 . S
C56 O48 1.243 . S
C57 C59 1.382 . S
C57 C61 1.393 . S
C57 C64 1.500 . S
C58 C59 1.400 . S
C58 C60 1.384 . S
C59 C57 1.382 . S
C59 C58 1.400 . S
C59 H76 0.930 . S
C60 C58 1.384 . S
C60 C62 1.392 . S
C60 H77 0.931 . S
C61 C57 1.393 . S
C61 C62 1.401 . S
C61 H78 0.930 . S
C62 C60 1.392 . S
C62 C61 1.401 . S
C62 H79 0.930 . S
C63 O46 1.262 . S
C63 O47 1.260 . S
C64 Tb0 2.833 . S
C64 O44 1.251 . S
C64 O49 1.256 . S
C64 C57 1.500 . S
C65 H30 0.929 . S
C65 C43 1.444 . S
C65 C66 1.317 . S
C66 H28 0.930 . S
C66 C34 1.432 . S
C66 C65 1.317 . S
C67 O51 1.283 . S
C67 O54 1.243 . S
C68 C69 1.382 . S
C68 C72 1.393 . S
C68 C75 1.500 . S
C69 C68 1.382 . S
C69 C70 1.400 . S
C69 H80 0.930 . S
C70 C69 1.400 . S
C70 C71 1.384 . S
C71 C70 1.384 . S
C71 C73 1.392 . S
C71 H81 0.931 . S
C72 C68 1.393 . S
C72 C73 1.401 . S
C72 H82 0.930 . S
C73 C71 1.392 . S
C73 C72 1.401 . S
C73 H83 0.930 . S
C74 O52 1.262 . S
C74 O53 1.260 . S
C75 Tb11 2.833 . S
C75 O50 1.251 . S
C75 O55 1.256 . S
C75 C68 1.500 . S
H76 C59 0.930 . S
H77 C60 0.931 . S
H78 C61 0.930 . S
H79 C62 0.930 . S
H80 C69 0.930 . S
H81 C71 0.931 . S
H82 C72 0.930 . S
H83 C73 0.930 . S
Tb84 N115 2.660 . S
Tb84 N122 2.600 . S
Tb84 O128 2.546 . S
Tb84 O129 2.610 1_655 S
Tb84 O131 2.320 . S
Tb84 O132 2.552 . S
Tb84 O133 2.413 . S
Tb84 O135 2.362 . S
Tb84 O136 2.421 1_655 S
Tb84 C148 2.833 . S
C85 C88 1.432 . S
C85 C89 1.414 1_565 S
C85 N92 1.359 . S
C86 C88 1.417 . S
C86 C90 1.411 1_565 S
C86 C98 1.410 . S
C87 C89 1.444 . S
C87 C90 1.328 . S
C87 H110 0.929 . S
C88 C85 1.432 . S
C88 C86 1.417 . S
C88 N96 1.360 . S
C89 C85 1.414 1_545 S
C89 C87 1.444 . S
C89 C94 1.385 . S
C90 C86 1.411 1_545 S
C90 C87 1.328 . S
C90 H102 0.941 . S
C91 C93 1.383 1_545 S
C91 C94 1.374 . S
C91 H103 0.935 . S
N92 C85 1.359 . S
N92 C93 1.327 . S
N92 Tb95 2.600 . S
C93 C91 1.383 1_565 S
C93 N92 1.327 . S
C93 H100 0.930 . S
C94 C89 1.385 . S
C94 C91 1.374 . S
C94 H113 0.930 . S
Tb95 N92 2.600 . S
Tb95 N96 2.660 . S
Tb95 O129 2.362 . S
Tb95 O130 2.421 1_455 S
Tb95 O134 2.546 . S
Tb95 O135 2.610 1_455 S
Tb95 O137 2.320 . S
Tb95 O138 2.552 . S
Tb95 O139 2.413 . S
Tb95 C159 2.833 . S
N96 C88 1.360 . S
N96 Tb95 2.660 . S
N96 C97 1.305 . S
C97 N96 1.305 . S
C97 C99 1.407 . S
C97 H104 0.930 . S
C98 C86 1.410 . S
C98 C99 1.345 . S
C98 H106 0.930 . S
C99 C97 1.407 . S
C99 C98 1.345 . S
C99 H101 0.930 . S
H100 C93 0.930 . S
H101 C99 0.930 . S
H102 C90 0.941 . S
H103 C91 0.935 . S
H104 C97 0.930 . S
H105 C119 0.930 . S
H106 C98 0.930 . S
H107 C125 0.930 . S
H108 C116 0.930 . S
H109 C123 0.931 . S
H110 C87 0.929 . S
H111 C117 0.930 . S
H112 C150 0.930 . S
H113 C94 0.930 . S
H114 C149 0.929 . S
N115 Tb84 2.660 . S
N115 C116 1.305 . S
N115 C120 1.360 . S
C116 H108 0.930 . S
C116 N115 1.305 . S
C116 C119 1.407 . S
C117 H111 0.930 . S
C117 C118 1.410 . S
C117 C119 1.345 . S
C118 C117 1.410 . S
C118 C120 1.417 . S
C118 C150 1.432 . S
C119 H105 0.930 . S
C119 C116 1.407 . S
C119 C117 1.345 . S
C120 N115 1.360 . S
C120 C118 1.417 . S
C120 C124 1.432 . S
H121 C126 0.930 . S
N122 Tb84 2.600 . S
N122 C124 1.359 . S
N122 C125 1.327 . S
C123 H109 0.931 . S
C123 C125 1.392 . S
C123 C126 1.370 . S
C124 C120 1.432 . S
C124 N122 1.359 . S
C124 C127 1.414 . S
C125 H107 0.930 . S
C125 N122 1.327 . S
C125 C123 1.392 . S
C126 H121 0.930 . S
C126 C123 1.370 . S
C126 C127 1.385 . S
C127 C124 1.414 . S
C127 C126 1.385 . S
C127 C149 1.444 . S
O128 Tb84 2.546 . S
O128 C148 1.251 . S
O129 Tb84 2.610 1_455 S
O129 Tb95 2.362 . S
O129 C140 1.283 . S
O130 Tb95 2.421 1_655 S
O130 C147 1.262 . S
O131 Tb84 2.320 . S
O131 C147 1.260 . S
O132 Tb84 2.552 . S
O132 C140 1.243 1_655 S
O133 Tb84 2.413 . S
O133 C148 1.256 . S
O134 Tb95 2.546 . S
O134 C159 1.251 . S
O135 Tb84 2.362 . S
O135 Tb95 2.610 1_655 S
O135 C151 1.282 1_655 S
O136 Tb84 2.421 1_455 S
O136 C158 1.262 . S
O137 Tb95 2.320 . S
O137 C158 1.260 . S
O138 Tb95 2.552 . S
O138 C151 1.247 . S
O139 Tb95 2.413 . S
O139 C159 1.256 . S
C140 O129 1.283 . S
C140 O132 1.243 1_455 S
C141 C143 1.382 . S
C141 C145 1.393 . S
C141 C148 1.500 . S
C142 C143 1.400 . S
C142 C144 1.384 . S
C143 C141 1.382 . S
C143 C142 1.400 . S
C143 H160 0.930 . S
C144 C142 1.384 . S
C144 C146 1.392 . S
C144 H161 0.931 . S
C145 C141 1.393 . S
C145 C146 1.401 . S
C145 H162 0.930 . S
C146 C144 1.392 . S
C146 C145 1.401 . S
C146 H163 0.930 . S
C147 O130 1.262 . S
C147 O131 1.260 . S
C148 Tb84 2.833 . S
C148 O128 1.251 . S
C148 O133 1.256 . S
C148 C141 1.500 . S
C149 H114 0.929 . S
C149 C127 1.444 . S
C149 C150 1.317 . S
C150 H112 0.930 . S
C150 C118 1.432 . S
C150 C149 1.317 . S
C151 O135 1.282 1_455 S
C151 O138 1.247 . S
C152 C153 1.382 . S
C152 C156 1.393 . S
C152 C159 1.500 . S
C153 C152 1.382 . S
C153 C154 1.400 . S
C153 H164 0.930 . S
C154 C153 1.400 . S
C154 C155 1.384 . S
C155 C154 1.384 . S
C155 C157 1.392 . S
C155 H165 0.931 . S
C156 C152 1.393 . S
C156 C157 1.401 . S
C156 H166 0.930 . S
C157 C155 1.392 . S
C157 C156 1.401 . S
C157 H167 0.930 . S
C158 O136 1.262 . S
C158 O137 1.260 . S
C159 Tb95 2.833 . S
C159 O134 1.251 . S
C159 O139 1.256 . S
C159 C152 1.500 . S
H160 C143 0.930 . S
H161 C144 0.931 . S
H162 C145 0.930 . S
H163 C146 0.930 . S
H164 C153 0.930 . S
H165 C155 0.931 . S
H166 C156 0.930 . S
H167 C157 0.930 . S
Tb168 N199 2.660 . S
Tb168 N206 2.600 . S
Tb168 O212 2.546 . S
Tb168 O213 2.610 . S
Tb168 O215 2.320 . S
Tb168 O216 2.552 . S
Tb168 O217 2.413 . S
Tb168 O219 2.362 1_556 S
Tb168 O220 2.421 . S
Tb168 C232 2.833 . S
C169 C172 1.432 . S
C169 C173 1.414 . S
C169 N176 1.359 . S
C170 C172 1.417 1_556 S
C170 C174 1.432 . S
C170 C182 1.410 . S
C171 C173 1.444 . S
C171 C174 1.317 1_554 S
C171 H194 0.929 . S
C172 C169 1.432 . S
C172 C170 1.417 1_554 S
C172 N180 1.360 1_554 S
C173 C169 1.414 . S
C173 C171 1.444 . S
C173 C178 1.385 . S
C174 C170 1.432 . S
C174 C171 1.317 1_556 S
C174 H186 0.930 . S
C175 C177 1.392 . S
C175 C178 1.370 . S
C175 H187 0.931 . S
N176 C169 1.359 . S
N176 C177 1.327 . S
N176 Tb179 2.600 . S
C177 C175 1.392 . S
C177 N176 1.327 . S
C177 H184 0.930 . S
C178 C173 1.385 . S
C178 C175 1.370 . S
C178 H197 0.930 . S
Tb179 N176 2.600 . S
Tb179 N180 2.660 1_554 S
Tb179 O213 2.362 1_554 S
Tb179 O214 2.421 . S
Tb179 O218 2.546 . S
Tb179 O219 2.610 . S
Tb179 O221 2.320 1_554 S
Tb179 O222 2.552 . S
Tb179 O223 2.413 . S
Tb179 C243 2.833 . S
N180 C172 1.360 1_556 S
N180 Tb179 2.660 1_556 S
N180 C181 1.305 . S
C181 N180 1.305 . S
C181 C183 1.407 . S
C181 H188 0.930 . S
C182 C170 1.410 . S
C182 C183 1.345 . S
C182 H190 0.930 . S
C183 C181 1.407 . S
C183 C182 1.345 . S
C183 H185 0.930 . S
H184 C177 0.930 . S
H185 C183 0.930 . S
H186 C174 0.930 . S
H187 C175 0.931 . S
H188 C181 0.930 . S
H189 C203 0.930 . S
H190 C182 0.930 . S
H191 C209 0.930 . S
H192 C200 0.930 . S
H193 C207 0.931 . S
H194 C171 0.929 . S
H195 C201 0.930 . S
H196 C234 0.930 1_554 S
H197 C178 0.930 . S
H198 C233 0.929 . S
N199 Tb168 2.660 . S
N199 C200 1.305 1_556 S
N199 C204 1.360 . S
C200 H192 0.930 . S
C200 N199 1.305 1_554 S
C200 C203 1.407 . S
C201 H195 0.930 . S
C201 C202 1.410 . S
C201 C203 1.345 . S
C202 C201 1.410 . S
C202 C204 1.417 1_554 S
C202 C234 1.432 1_554 S
C203 H189 0.930 . S
C203 C200 1.407 . S
C203 C201 1.345 . S
C204 N199 1.360 . S
C204 C202 1.417 1_556 S
C204 C208 1.432 . S
H205 C210 0.930 . S
N206 Tb168 2.600 . S
N206 C208 1.359 . S
N206 C209 1.327 . S
C207 H193 0.931 . S
C207 C209 1.392 . S
C207 C210 1.370 . S
C208 C204 1.432 . S
C208 N206 1.359 . S
C208 C211 1.414 . S
C209 H191 0.930 . S
C209 N206 1.327 . S
C209 C207 1.392 . S
C210 H205 0.930 . S
C210 C207 1.370 . S
C210 C211 1.385 . S
C211 C208 1.414 . S
C211 C210 1.385 . S
C211 C233 1.444 . S
O212 Tb168 2.546 . S
O212 C232 1.251 . S
O213 Tb168 2.610 . S
O213 Tb179 2.362 1_556 S
O213 C224 1.283 . S
O214 Tb179 2.421 . S
O214 C231 1.262 . S
O215 Tb168 2.320 . S
O215 C231 1.260 1_556 S
O216 Tb168 2.552 . S
O216 C224 1.243 . S
O217 Tb168 2.413 . S
O217 C232 1.256 . S
O218 Tb179 2.546 . S
O218 C243 1.251 . S
O219 Tb168 2.362 1_554 S
O219 Tb179 2.610 . S
O219 C235 1.283 . S
O220 Tb168 2.421 . S
O220 C242 1.262 . S
O221 Tb179 2.320 1_556 S
O221 C242 1.260 . S
O222 Tb179 2.552 . S
O222 C235 1.243 . S
O223 Tb179 2.413 . S
O223 C243 1.256 . S
C224 O213 1.283 . S
C224 O216 1.243 . S
C225 C227 1.382 . S
C225 C229 1.393 . S
C225 C232 1.500 . S
C226 C227 1.400 . S
C226 C228 1.384 . S
C227 C225 1.382 . S
C227 C226 1.400 . S
C227 H244 0.930 . S
C228 C226 1.384 . S
C228 C230 1.392 . S
C228 H245 0.931 . S
C229 C225 1.393 . S
C229 C230 1.401 . S
C229 H246 0.930 . S
C230 C228 1.392 . S
C230 C229 1.401 . S
C230 H247 0.930 . S
C231 O214 1.262 . S
C231 O215 1.260 1_554 S
C232 Tb168 2.833 . S
C232 O212 1.251 . S
C232 O217 1.256 . S
C232 C225 1.500 . S
C233 H198 0.929 . S
C233 C211 1.444 . S
C233 C234 1.317 . S
C234 H196 0.930 1_556 S
C234 C202 1.432 1_556 S
C234 C233 1.317 . S
C235 O219 1.283 . S
C235 O222 1.243 . S
C236 C237 1.382 . S
C236 C240 1.393 . S
C236 C243 1.500 . S
C237 C236 1.382 . S
C237 C238 1.400 . S
C237 H248 0.930 . S
C238 C237 1.400 . S
C238 C239 1.384 . S
C239 C238 1.384 . S
C239 C241 1.392 . S
C239 H249 0.931 . S
C240 C236 1.393 . S
C240 C241 1.401 . S
C240 H250 0.930 . S
C241 C239 1.392 . S
C241 C240 1.401 . S
C241 H251 0.930 . S
C242 O220 1.262 . S
C242 O221 1.260 . S
C243 Tb179 2.833 . S
C243 O218 1.251 . S
C243 O223 1.256 . S
C243 C236 1.500 . S
H244 C227 0.930 . S
H245 C228 0.931 . S
H246 C229 0.930 . S
H247 C230 0.930 . S
H248 C237 0.930 . S
H249 C239 0.931 . S
H250 C240 0.930 . S
H251 C241 0.930 . S
Tb252 N283 2.660 . S
Tb252 N290 2.600 . S
Tb252 O296 2.546 . S
Tb252 O297 2.610 . S
Tb252 O299 2.320 . S
Tb252 O300 2.552 . S
Tb252 O301 2.413 . S
Tb252 O303 2.362 . S
Tb252 O304 2.421 . S
Tb252 C316 2.833 . S
C253 C256 1.432 . S
C253 C257 1.414 1_545 S
C253 N260 1.359 . S
C254 C256 1.417 . S
C254 C258 1.432 1_545 S
C254 C266 1.410 . S
C255 C257 1.444 . S
C255 C258 1.317 . S
C255 H278 0.929 . S
C256 C253 1.432 . S
C256 C254 1.417 . S
C256 N264 1.360 . S
C257 C253 1.414 1_565 S
C257 C255 1.444 . S
C257 C262 1.385 . S
C258 C254 1.432 1_565 S
C258 C255 1.317 . S
C258 H270 0.930 . S
C259 C261 1.392 1_565 S
C259 C262 1.370 . S
C259 H271 0.931 . S
N260 C253 1.359 . S
N260 C261 1.327 . S
N260 Tb263 2.600 . S
C261 C259 1.392 1_545 S
C261 N260 1.327 . S
C261 H268 0.930 . S
C262 C257 1.385 . S
C262 C259 1.370 . S
C262 H281 0.930 . S
Tb263 N260 2.600 . S
Tb263 N264 2.660 . S
Tb263 O297 2.362 . S
Tb263 O298 2.421 . S
Tb263 O302 2.546 . S
Tb263 O303 2.610 . S
Tb263 O305 2.320 . S
Tb263 O306 2.552 . S
Tb263 O307 2.413 . S
Tb263 C327 2.833 . S
N264 C256 1.360 . S
N264 Tb263 2.660 . S
N264 C265 1.305 . S
C265 N264 1.305 . S
C265 C267 1.407 . S
C265 H272 0.930 . S
C266 C254 1.410 . S
C266 C267 1.345 . S
C266 H274 0.930 . S
C267 C265 1.407 . S
C267 C266 1.345 . S
C267 H269 0.930 . S
H268 C261 0.930 . S
H269 C267 0.930 . S
H270 C258 0.930 . S
H271 C259 0.931 . S
H272 C265 0.930 . S
H273 C287 0.930 . S
H274 C266 0.930 . S
H275 C293 0.930 . S
H276 C284 0.930 . S
H277 C291 0.931 . S
H278 C255 0.929 . S
H279 C285 0.930 . S
H280 C318 0.930 . S
H281 C262 0.930 . S
H282 C317 0.929 . S
N283 Tb252 2.660 . S
N283 C284 1.305 . S
N283 C288 1.360 . S
C284 H276 0.930 . S
C284 N283 1.305 . S
C284 C287 1.407 . S
C285 H279 0.930 . S
C285 C286 1.410 . S
C285 C287 1.345 . S
C286 C285 1.410 . S
C286 C288 1.417 . S
C286 C318 1.432 . S
C287 H273 0.930 . S
C287 C284 1.407 . S
C287 C285 1.345 . S
C288 N283 1.360 . S
C288 C286 1.417 . S
C288 C292 1.432 . S
H289 C294 0.930 . S
N290 Tb252 2.600 . S
N290 C292 1.359 . S
N290 C293 1.327 . S
C291 H277 0.931 . S
C291 C293 1.392 . S
C291 C294 1.370 . S
C292 C288 1.432 . S
C292 N290 1.359 . S
C292 C295 1.414 . S
C293 H275 0.930 . S
C293 N290 1.327 . S
C293 C291 1.392 . S
C294 H289 0.930 . S
C294 C291 1.370 . S
C294 C295 1.385 . S
C295 C292 1.414 . S
C295 C294 1.385 . S
C295 C317 1.444 . S
O296 Tb252 2.546 . S
O296 C316 1.251 . S
O297 Tb252 2.610 . S
O297 Tb263 2.362 . S
O297 C308 1.283 . S
O298 Tb263 2.421 . S
O298 C315 1.262 . S
O299 Tb252 2.320 . S
O299 C315 1.260 . S
O300 Tb252 2.552 . S
O300 C308 1.243 . S
O301 Tb252 2.413 . S
O301 C316 1.256 . S
O302 Tb263 2.546 . S
O302 C327 1.251 . S
O303 Tb252 2.362 . S
O303 Tb263 2.610 . S
O303 C319 1.283 . S
O304 Tb252 2.421 . S
O304 C326 1.262 . S
O305 Tb263 2.320 . S
O305 C326 1.260 . S
O306 Tb263 2.552 . S
O306 C319 1.243 . S
O307 Tb263 2.413 . S
O307 C327 1.256 . S
C308 O297 1.283 . S
C308 O300 1.243 . S
C309 C311 1.382 . S
C309 C313 1.393 . S
C309 C316 1.500 . S
C310 C311 1.400 . S
C310 C312 1.384 . S
C311 C309 1.382 . S
C311 C310 1.400 . S
C311 H328 0.930 . S
C312 C310 1.384 . S
C312 C314 1.392 . S
C312 H329 0.931 . S
C313 C309 1.393 . S
C313 C314 1.401 . S
C313 H330 0.930 . S
C314 C312 1.392 . S
C314 C313 1.401 . S
C314 H331 0.930 . S
C315 O298 1.262 . S
C315 O299 1.260 . S
C316 Tb252 2.833 . S
C316 O296 1.251 . S
C316 O301 1.256 . S
C316 C309 1.500 . S
C317 H282 0.929 . S
C317 C295 1.444 . S
C317 C318 1.317 . S
C318 H280 0.930 . S
C318 C286 1.432 . S
C318 C317 1.317 . S
C319 O303 1.283 . S
C319 O306 1.243 . S
C320 C321 1.382 . S
C320 C324 1.393 . S
C320 C327 1.500 . S
C321 C320 1.382 . S
C321 C322 1.400 . S
C321 H332 0.930 . S
C322 C321 1.400 . S
C322 C323 1.384 . S
C323 C322 1.384 . S
C323 C325 1.392 . S
C323 H333 0.931 . S
C324 C320 1.393 . S
C324 C325 1.401 . S
C324 H334 0.930 . S
C325 C323 1.392 . S
C325 C324 1.401 . S
C325 H335 0.930 . S
C326 O304 1.262 . S
C326 O305 1.260 . S
C327 Tb263 2.833 . S
C327 O302 1.251 . S
C327 O307 1.256 . S
C327 C320 1.500 . S
H328 C311 0.930 . S
H329 C312 0.931 . S
H330 C313 0.930 . S
H331 C314 0.930 . S
H332 C321 0.930 . S
H333 C323 0.931 . S
H334 C324 0.930 . S
H335 C325 0.930 . S
Tb336 N367 2.660 . S
Tb336 N374 2.600 . S
Tb336 O380 2.546 . S
Tb336 O381 2.610 . S
Tb336 O383 2.320 . S
Tb336 O384 2.552 . S
Tb336 O385 2.413 . S
Tb336 O387 2.362 . S
Tb336 O388 2.421 . S
Tb336 C400 2.833 . S
C337 C340 1.432 . S
C337 C341 1.414 . S
C337 N344 1.359 . S
C338 C340 1.417 . S
C338 C342 1.432 . S
C338 C350 1.410 . S
C339 C341 1.444 . S
C339 C342 1.317 . S
C339 H362 0.929 . S
C340 C337 1.432 . S
C340 C338 1.417 . S
C340 N348 1.360 . S
C341 C337 1.414 . S
C341 C339 1.444 . S
C341 C346 1.385 . S
C342 C338 1.432 . S
C342 C339 1.317 . S
C342 H354 0.930 . S
C343 C345 1.392 . S
C343 C346 1.370 . S
C343 H355 0.931 . S
N344 C337 1.359 . S
N344 C345 1.327 . S
N344 Tb347 2.600 . S
C345 C343 1.392 . S
C345 N344 1.327 . S
C345 H352 0.930 . S
C346 C341 1.385 . S
C346 C343 1.370 . S
C346 H365 0.930 . S
Tb347 N344 2.600 . S
Tb347 N348 2.660 . S
Tb347 O381 2.362 . S
Tb347 O382 2.421 . S
Tb347 O386 2.546 . S
Tb347 O387 2.610 . S
Tb347 O389 2.320 . S
Tb347 O390 2.552 . S
Tb347 O391 2.413 . S
Tb347 C411 2.833 . S
N348 C340 1.360 . S
N348 Tb347 2.660 . S
N348 C349 1.305 . S
C349 N348 1.305 . S
C349 C351 1.407 . S
C349 H356 0.930 . S
C350 C338 1.410 . S
C350 C351 1.345 . S
C350 H358 0.930 . S
C351 C349 1.407 . S
C351 C350 1.345 . S
C351 H353 0.930 . S
H352 C345 0.930 . S
H353 C351 0.930 . S
H354 C342 0.930 . S
H355 C343 0.931 . S
H356 C349 0.930 . S
H357 C371 0.930 . S
H358 C350 0.930 . S
H359 C377 0.930 . S
H360 C368 0.930 . S
H361 C375 0.931 . S
H362 C339 0.929 . S
H363 C369 0.930 . S
H364 C402 0.930 . S
H365 C346 0.930 . S
H366 C401 0.929 . S
N367 Tb336 2.660 . S
N367 C368 1.305 . S
N367 C372 1.360 . S
C368 H360 0.930 . S
C368 N367 1.305 . S
C368 C371 1.407 . S
C369 H363 0.930 . S
C369 C370 1.410 . S
C369 C371 1.345 . S
C370 C369 1.410 . S
C370 C372 1.417 . S
C370 C402 1.432 . S
C371 H357 0.930 . S
C371 C368 1.407 . S
C371 C369 1.345 . S
C372 N367 1.360 . S
C372 C370 1.417 . S
C372 C376 1.432 . S
H373 C378 0.930 . S
N374 Tb336 2.600 . S
N374 C376 1.359 . S
N374 C377 1.327 . S
C375 H361 0.931 . S
C375 C377 1.392 . S
C375 C378 1.370 . S
C376 C372 1.432 . S
C376 N374 1.359 . S
C376 C379 1.414 . S
C377 H359 0.930 . S
C377 N374 1.327 . S
C377 C375 1.392 . S
C378 H373 0.930 . S
C378 C375 1.370 . S
C378 C379 1.385 . S
C379 C376 1.414 . S
C379 C378 1.385 . S
C379 C401 1.444 . S
O380 Tb336 2.546 . S
O380 C400 1.251 . S
O381 Tb336 2.610 . S
O381 Tb347 2.362 . S
O381 C392 1.283 . S
O382 Tb347 2.421 . S
O382 C399 1.262 . S
O383 Tb336 2.320 . S
O383 C399 1.260 . S
O384 Tb336 2.552 . S
O384 C392 1.243 . S
O385 Tb336 2.413 . S
O385 C400 1.256 . S
O386 Tb347 2.546 . S
O386 C411 1.251 . S
O387 Tb336 2.362 . S
O387 Tb347 2.610 . S
O387 C403 1.283 . S
O388 Tb336 2.421 . S
O388 C410 1.262 . S
O389 Tb347 2.320 . S
O389 C410 1.260 . S
O390 Tb347 2.552 . S
O390 C403 1.243 . S
O391 Tb347 2.413 . S
O391 C411 1.256 . S
C392 O381 1.283 . S
C392 O384 1.243 . S
C393 C395 1.382 . S
C393 C397 1.393 . S
C393 C400 1.500 . S
C394 C395 1.400 . S
C394 C396 1.384 . S
C395 C393 1.382 . S
C395 C394 1.400 . S
C395 H412 0.930 . S
C396 C394 1.384 . S
C396 C398 1.392 . S
C396 H413 0.931 . S
C397 C393 1.393 . S
C397 C398 1.401 . S
C397 H414 0.930 . S
C398 C396 1.392 . S
C398 C397 1.401 . S
C398 H415 0.930 . S
C399 O382 1.262 . S
C399 O383 1.260 . S
C400 Tb336 2.833 . S
C400 O380 1.251 . S
C400 O385 1.256 . S
C400 C393 1.500 . S
C401 H366 0.929 . S
C401 C379 1.444 . S
C401 C402 1.317 . S
C402 H364 0.930 . S
C402 C370 1.432 . S
C402 C401 1.317 . S
C403 O387 1.283 . S
C403 O390 1.243 . S
C404 C405 1.382 . S
C404 C408 1.393 . S
C404 C411 1.500 . S
C405 C404 1.382 . S
C405 C406 1.400 . S
C405 H416 0.930 . S
C406 C405 1.400 . S
C406 C407 1.384 . S
C407 C406 1.384 . S
C407 C409 1.392 . S
C407 H417 0.931 . S
C408 C404 1.393 . S
C408 C409 1.401 . S
C408 H418 0.930 . S
C409 C407 1.392 . S
C409 C408 1.401 . S
C409 H419 0.930 . S
C410 O388 1.262 . S
C410 O389 1.260 . S
C411 Tb347 2.833 . S
C411 O386 1.251 . S
C411 O391 1.256 . S
C411 C404 1.500 . S
H412 C395 0.930 . S
H413 C396 0.931 . S
H414 C397 0.930 . S
H415 C398 0.930 . S
H416 C405 0.930 . S
H417 C407 0.931 . S
H418 C408 0.930 . S
H419 C409 0.930 . S
Tb420 N451 2.660 . S
Tb420 N458 2.600 . S
Tb420 O464 2.546 . S
Tb420 O465 2.610 . S
Tb420 O467 2.320 . S
Tb420 O468 2.552 . S
Tb420 O469 2.413 . S
Tb420 O471 2.362 1_655 S
Tb420 O472 2.421 . S
Tb420 C484 2.833 . S
C421 C424 1.432 . S
C421 C425 1.414 . S
C421 N428 1.359 . S
C422 C424 1.417 1_655 S
C422 C426 1.432 . S
C422 C434 1.410 . S
C423 C425 1.444 . S
C423 C426 1.317 1_455 S
C423 H446 0.929 . S
C424 C421 1.432 . S
C424 C422 1.417 1_455 S
C424 N432 1.360 1_455 S
C425 C421 1.414 . S
C425 C423 1.444 . S
C425 C430 1.385 . S
C426 C422 1.432 . S
C426 C423 1.317 1_655 S
C426 H438 0.930 . S
C427 C429 1.392 . S
C427 C430 1.370 . S
C427 H439 0.931 . S
N428 C421 1.359 . S
N428 C429 1.327 . S
N428 Tb431 2.600 . S
C429 C427 1.392 . S
C429 N428 1.327 . S
C429 H436 0.930 . S
C430 C425 1.385 . S
C430 C427 1.370 . S
C430 H449 0.930 . S
Tb431 N428 2.600 . S
Tb431 N432 2.660 1_455 S
Tb431 O465 2.362 1_455 S
Tb431 O466 2.421 . S
Tb431 O470 2.546 . S
Tb431 O471 2.610 . S
Tb431 O473 2.320 1_455 S
Tb431 O474 2.552 . S
Tb431 O475 2.413 . S
Tb431 C495 2.833 . S
N432 C424 1.360 1_655 S
N432 Tb431 2.660 1_655 S
N432 C433 1.305 . S
C433 N432 1.305 . S
C433 C435 1.407 . S
C433 H440 0.930 . S
C434 C422 1.410 . S
C434 C435 1.345 . S
C434 H442 0.930 . S
C435 C433 1.407 . S
C435 C434 1.345 . S
C435 H437 0.930 . S
H436 C429 0.930 . S
H437 C435 0.930 . S
H438 C426 0.930 . S
H439 C427 0.931 . S
H440 C433 0.930 . S
H441 C455 0.930 . S
H442 C434 0.930 . S
H443 C461 0.930 . S
H444 C452 0.930 . S
H445 C459 0.931 . S
H446 C423 0.929 . S
H447 C453 0.930 . S
H448 C486 0.930 1_455 S
H449 C430 0.930 . S
H450 C485 0.929 . S
N451 Tb420 2.660 . S
N451 C452 1.305 1_655 S
N451 C456 1.360 . S
C452 H444 0.930 . S
C452 N451 1.305 1_455 S
C452 C455 1.407 . S
C453 H447 0.930 . S
C453 C454 1.410 . S
C453 C455 1.345 . S
C454 C453 1.410 . S
C454 C456 1.417 1_455 S
C454 C486 1.432 1_455 S
C455 H441 0.930 . S
C455 C452 1.407 . S
C455 C453 1.345 . S
C456 N451 1.360 . S
C456 C454 1.417 1_655 S
C456 C460 1.432 . S
H457 C462 0.930 . S
N458 Tb420 2.600 . S
N458 C460 1.359 . S
N458 C461 1.327 . S
C459 H445 0.931 . S
C459 C461 1.392 . S
C459 C462 1.370 . S
C460 C456 1.432 . S
C460 N458 1.359 . S
C460 C463 1.414 . S
C461 H443 0.930 . S
C461 N458 1.327 . S
C461 C459 1.392 . S
C462 H457 0.930 . S
C462 C459 1.370 . S
C462 C463 1.385 . S
C463 C460 1.414 . S
C463 C462 1.385 . S
C463 C485 1.444 . S
O464 Tb420 2.546 . S
O464 C484 1.251 . S
O465 Tb420 2.610 . S
O465 Tb431 2.362 1_655 S
O465 C476 1.283 . S
O466 Tb431 2.421 . S
O466 C483 1.262 . S
O467 Tb420 2.320 . S
O467 C483 1.260 1_655 S
O468 Tb420 2.552 . S
O468 C476 1.243 . S
O469 Tb420 2.413 . S
O469 C484 1.256 . S
O470 Tb431 2.546 . S
O470 C495 1.251 . S
O471 Tb420 2.362 1_455 S
O471 Tb431 2.610 . S
O471 C487 1.283 . S
O472 Tb420 2.421 . S
O472 C494 1.262 . S
O473 Tb431 2.320 1_655 S
O473 C494 1.260 . S
O474 Tb431 2.552 . S
O474 C487 1.243 . S
O475 Tb431 2.413 . S
O475 C495 1.256 . S
C476 O465 1.283 . S
C476 O468 1.243 . S
C477 C479 1.382 . S
C477 C481 1.393 . S
C477 C484 1.500 . S
C478 C479 1.400 . S
C478 C480 1.384 . S
C479 C477 1.382 . S
C479 C478 1.400 . S
C479 H496 0.930 . S
C480 C478 1.384 . S
C480 C482 1.392 . S
C480 H497 0.931 . S
C481 C477 1.393 . S
C481 C482 1.401 . S
C481 H498 0.930 . S
C482 C480 1.392 . S
C482 C481 1.401 . S
C482 H499 0.930 . S
C483 O466 1.262 . S
C483 O467 1.260 1_455 S
C484 Tb420 2.833 . S
C484 O464 1.251 . S
C484 O469 1.256 . S
C484 C477 1.500 . S
C485 H450 0.929 . S
C485 C463 1.444 . S
C485 C486 1.317 . S
C486 H448 0.930 1_655 S
C486 C454 1.432 1_655 S
C486 C485 1.317 . S
C487 O471 1.283 . S
C487 O474 1.243 . S
C488 C489 1.382 . S
C488 C492 1.393 . S
C488 C495 1.500 . S
C489 C488 1.382 . S
C489 C490 1.400 . S
C489 H500 0.930 . S
C490 C489 1.400 . S
C490 C491 1.384 . S
C491 C490 1.384 . S
C491 C493 1.392 . S
C491 H501 0.931 . S
C492 C488 1.393 . S
C492 C493 1.401 . S
C492 H502 0.930 . S
C493 C491 1.392 . S
C493 C492 1.401 . S
C493 H503 0.930 . S
C494 O472 1.262 . S
C494 O473 1.260 . S
C495 Tb431 2.833 . S
C495 O470 1.251 . S
C495 O475 1.256 . S
C495 C488 1.500 . S
H496 C479 0.930 . S
H497 C480 0.931 . S
H498 C481 0.930 . S
H499 C482 0.930 . S
H500 C489 0.930 . S
H501 C491 0.931 . S
H502 C492 0.930 . S
H503 C493 0.930 . S
Tb504 N535 2.660 . S
Tb504 N542 2.600 . S
Tb504 O548 2.546 . S
Tb504 O549 2.610 . S
Tb504 O551 2.320 . S
Tb504 O552 2.552 . S
Tb504 O553 2.413 . S
Tb504 O555 2.362 1_554 S
Tb504 O556 2.421 . S
Tb504 C568 2.833 . S
C505 C508 1.416 1_556 S
C505 C509 1.414 . S
C505 N512 1.359 . S
C506 C508 1.427 . S
C506 C510 1.432 . S
C506 C518 1.410 . S
C507 C509 1.444 . S
C507 C510 1.317 1_556 S
C507 H530 0.929 . S
C508 C505 1.416 1_554 S
C508 C506 1.427 . S
C508 N516 1.364 . S
C509 C505 1.414 . S
C509 C507 1.444 . S
C509 C514 1.385 . S
C510 C506 1.432 . S
C510 C507 1.317 1_554 S
C510 H522 0.930 . S
C511 C513 1.392 . S
C511 C514 1.370 . S
C511 H523 0.931 . S
N512 C505 1.359 . S
N512 C513 1.327 . S
N512 Tb515 2.600 . S
C513 C511 1.392 . S
C513 N512 1.327 . S
C513 H520 0.930 . S
C514 C509 1.385 . S
C514 C511 1.370 . S
C514 H533 0.930 . S
Tb515 N512 2.600 . S
Tb515 N516 2.660 1_556 S
Tb515 O549 2.362 1_556 S
Tb515 O550 2.421 . S
Tb515 O554 2.546 . S
Tb515 O555 2.610 . S
Tb515 O557 2.320 1_556 S
Tb515 O558 2.552 . S
Tb515 O559 2.413 . S
Tb515 C579 2.833 . S
N516 C508 1.364 . S
N516 Tb515 2.660 1_554 S
N516 C517 1.305 . S
C517 N516 1.305 . S
C517 C519 1.407 . S
C517 H524 0.930 . S
C518 C506 1.410 . S
C518 C519 1.345 . S
C518 H526 0.930 . S
C519 C517 1.407 . S
C519 C518 1.345 . S
C519 H521 0.930 . S
H520 C513 0.930 . S
H521 C519 0.930 . S
H522 C510 0.930 . S
H523 C511 0.931 . S
H524 C517 0.930 . S
H525 C539 0.930 . S
H526 C518 0.930 . S
H527 C545 0.930 . S
H528 C536 0.930 . S
H529 C543 0.935 . S
H530 C507 0.929 . S
H531 C537 0.930 . S
H532 C570 0.932 1_556 S
H533 C514 0.930 . S
H534 C569 0.929 . S
N535 Tb504 2.660 . S
N535 C536 1.305 1_554 S
N535 C540 1.360 . S
C536 H528 0.930 . S
C536 N535 1.305 1_556 S
C536 C539 1.407 . S
C537 H531 0.930 . S
C537 C538 1.410 . S
C537 C539 1.345 . S
C538 C537 1.410 . S
C538 C540 1.417 1_556 S
C538 C570 1.428 1_656 S
C539 H525 0.930 . S
C539 C536 1.407 . S
C539 C537 1.345 . S
C540 N535 1.360 . S
C540 C538 1.417 1_554 S
C540 C544 1.432 . S
H541 C546 0.930 . S
N542 Tb504 2.600 . S
N542 C544 1.359 . S
N542 C545 1.327 . S
C543 H529 0.935 . S
C543 C545 1.383 1_455 S
C543 C546 1.375 . S
C544 C540 1.432 . S
C544 N542 1.359 . S
C544 C547 1.388 1_655 S
C545 H527 0.930 . S
C545 N542 1.327 . S
C545 C543 1.383 1_655 S
C546 H541 0.930 . S
C546 C543 1.375 . S
C546 C547 1.398 . S
C547 C544 1.388 1_455 S
C547 C546 1.398 . S
C547 C569 1.456 . S
O548 Tb504 2.546 . S
O548 C568 1.251 . S
O549 Tb504 2.610 . S
O549 Tb515 2.362 1_554 S
O549 C560 1.283 . S
O550 Tb515 2.421 . S
O550 C567 1.262 . S
O551 Tb504 2.320 . S
O551 C567 1.260 1_554 S
O552 Tb504 2.552 . S
O552 C560 1.243 . S
O553 Tb504 2.413 . S
O553 C568 1.256 . S
O554 Tb515 2.546 . S
O554 C579 1.251 . S
O555 Tb504 2.362 1_556 S
O555 Tb515 2.610 . S
O555 C571 1.283 . S
O556 Tb504 2.421 . S
O556 C578 1.262 . S
O557 Tb515 2.320 1_554 S
O557 C578 1.260 . S
O558 Tb515 2.552 . S
O558 C571 1.243 . S
O559 Tb515 2.413 . S
O559 C579 1.256 . S
C560 O549 1.283 . S
C560 O552 1.243 . S
C561 C563 1.382 . S
C561 C565 1.393 . S
C561 C568 1.500 . S
C562 C563 1.400 . S
C562 C564 1.384 . S
C563 C561 1.382 . S
C563 C562 1.400 . S
C563 H580 0.930 . S
C564 C562 1.384 . S
C564 C566 1.392 . S
C564 H581 0.931 . S
C565 C561 1.393 . S
C565 C566 1.401 . S
C565 H582 0.930 . S
C566 C564 1.392 . S
C566 C565 1.401 . S
C566 H583 0.930 . S
C567 O550 1.262 . S
C567 O551 1.260 1_556 S
C568 Tb504 2.833 . S
C568 O548 1.251 . S
C568 O553 1.256 . S
C568 C561 1.500 . S
C569 H534 0.929 . S
C569 C547 1.456 . S
C569 C570 1.319 . S
C570 H532 0.932 1_554 S
C570 C538 1.428 1_454 S
C570 C569 1.319 . S
C571 O555 1.283 . S
C571 O558 1.243 . S
C572 C573 1.382 . S
C572 C576 1.393 . S
C572 C579 1.500 . S
C573 C572 1.382 . S
C573 C574 1.400 . S
C573 H584 0.930 . S
C574 C573 1.400 . S
C574 C575 1.384 . S
C575 C574 1.384 . S
C575 C577 1.392 . S
C575 H585 0.931 . S
C576 C572 1.393 . S
C576 C577 1.401 . S
C576 H586 0.930 . S
C577 C575 1.392 . S
C577 C576 1.401 . S
C577 H587 0.930 . S
C578 O556 1.262 . S
C578 O557 1.260 . S
C579 Tb515 2.833 . S
C579 O554 1.251 . S
C579 O559 1.256 . S
C579 C572 1.500 . S
H580 C563 0.930 . S
H581 C564 0.931 . S
H582 C565 0.930 . S
H583 C566 0.930 . S
H584 C573 0.930 . S
H585 C575 0.931 . S
H586 C576 0.930 . S
H587 C577 0.930 . S
Tb588 N619 2.660 . S
Tb588 N626 2.600 . S
Tb588 O632 2.546 . S
Tb588 O633 2.610 . S
Tb588 O635 2.320 . S
Tb588 O636 2.552 . S
Tb588 O637 2.413 . S
Tb588 O639 2.362 . S
Tb588 O640 2.421 . S
Tb588 C652 2.833 . S
C589 C592 1.432 . S
C589 C593 1.414 . S
C589 N596 1.359 . S
C590 C592 1.417 . S
C590 C594 1.432 . S
C590 C602 1.410 . S
C591 C593 1.444 . S
C591 C594 1.317 . S
C591 H614 0.929 . S
C592 C589 1.432 . S
C592 C590 1.417 . S
C592 N600 1.360 . S
C593 C589 1.414 . S
C593 C591 1.444 . S
C593 C598 1.385 . S
C594 C590 1.432 . S
C594 C591 1.317 . S
C594 H606 0.930 . S
C595 C597 1.392 . S
C595 C598 1.370 . S
C595 H607 0.931 . S
N596 C589 1.359 . S
N596 C597 1.327 . S
N596 Tb599 2.600 . S
C597 C595 1.392 . S
C597 N596 1.327 . S
C597 H604 0.930 . S
C598 C593 1.385 . S
C598 C595 1.370 . S
C598 H617 0.930 . S
Tb599 N596 2.600 . S
Tb599 N600 2.660 . S
Tb599 O633 2.362 . S
Tb599 O634 2.421 . S
Tb599 O638 2.546 . S
Tb599 O639 2.610 . S
Tb599 O641 2.320 . S
Tb599 O642 2.552 . S
Tb599 O643 2.413 . S
Tb599 C663 2.833 . S
N600 C592 1.360 . S
N600 Tb599 2.660 . S
N600 C601 1.305 . S
C601 N600 1.305 . S
C601 C603 1.407 . S
C601 H608 0.930 . S
C602 C590 1.410 . S
C602 C603 1.345 . S
C602 H610 0.930 . S
C603 C601 1.407 . S
C603 C602 1.345 . S
C603 H605 0.930 . S
H604 C597 0.930 . S
H605 C603 0.930 . S
H606 C594 0.930 . S
H607 C595 0.931 . S
H608 C601 0.930 . S
H609 C623 0.930 . S
H610 C602 0.930 . S
H611 C629 0.930 . S
H612 C620 0.930 . S
H613 C627 0.931 . S
H614 C591 0.929 . S
H615 C621 0.930 . S
H616 C654 0.930 . S
H617 C598 0.930 . S
H618 C653 0.929 . S
N619 Tb588 2.660 . S
N619 C620 1.305 . S
N619 C624 1.360 . S
C620 H612 0.930 . S
C620 N619 1.305 . S
C620 C623 1.407 . S
C621 H615 0.930 . S
C621 C622 1.410 . S
C621 C623 1.345 . S
C622 C621 1.410 . S
C622 C624 1.417 . S
C622 C654 1.432 . S
C623 H609 0.930 . S
C623 C620 1.407 . S
C623 C621 1.345 . S
C624 N619 1.360 . S
C624 C622 1.417 . S
C624 C628 1.432 . S
H625 C630 0.930 . S
N626 Tb588 2.600 . S
N626 C628 1.359 . S
N626 C629 1.327 . S
C627 H613 0.931 . S
C627 C629 1.392 . S
C627 C630 1.370 . S
C628 C624 1.432 . S
C628 N626 1.359 . S
C628 C631 1.414 . S
C629 H611 0.930 . S
C629 N626 1.327 . S
C629 C627 1.392 . S
C630 H625 0.930 . S
C630 C627 1.370 . S
C630 C631 1.385 . S
C631 C628 1.414 . S
C631 C630 1.385 . S
C631 C653 1.444 . S
O632 Tb588 2.546 . S
O632 C652 1.251 . S
O633 Tb588 2.610 . S
O633 Tb599 2.362 . S
O633 C644 1.283 . S
O634 Tb599 2.421 . S
O634 C651 1.262 . S
O635 Tb588 2.320 . S
O635 C651 1.260 . S
O636 Tb588 2.552 . S
O636 C644 1.243 . S
O637 Tb588 2.413 . S
O637 C652 1.256 . S
O638 Tb599 2.546 . S
O638 C663 1.251 . S
O639 Tb588 2.362 . S
O639 Tb599 2.610 . S
O639 C655 1.283 . S
O640 Tb588 2.421 . S
O640 C662 1.262 . S
O641 Tb599 2.320 . S
O641 C662 1.260 . S
O642 Tb599 2.552 . S
O642 C655 1.243 . S
O643 Tb599 2.413 . S
O643 C663 1.256 . S
C644 O633 1.283 . S
C644 O636 1.243 . S
C645 C647 1.382 . S
C645 C649 1.393 . S
C645 C652 1.500 . S
C646 C647 1.400 . S
C646 C648 1.384 . S
C647 C645 1.382 . S
C647 C646 1.400 . S
C647 H664 0.930 . S
C648 C646 1.384 . S
C648 C650 1.392 . S
C648 H665 0.931 . S
C649 C645 1.393 . S
C649 C650 1.401 . S
C649 H666 0.930 . S
C650 C648 1.392 . S
C650 C649 1.401 . S
C650 H667 0.930 . S
C651 O634 1.262 . S
C651 O635 1.260 . S
C652 Tb588 2.833 . S
C652 O632 1.251 . S
C652 O637 1.256 . S
C652 C645 1.500 . S
C653 H618 0.929 . S
C653 C631 1.444 . S
C653 C654 1.317 . S
C654 H616 0.930 . S
C654 C622 1.432 . S
C654 C653 1.317 . S
C655 O639 1.283 . S
C655 O642 1.243 . S
C656 C657 1.382 . S
C656 C660 1.393 . S
C656 C663 1.500 . S
C657 C656 1.382 . S
C657 C658 1.400 . S
C657 H668 0.930 . S
C658 C657 1.400 . S
C658 C659 1.384 . S
C659 C658 1.384 . S
C659 C661 1.392 . S
C659 H669 0.931 . S
C660 C656 1.393 . S
C660 C661 1.401 . S
C660 H670 0.930 . S
C661 C659 1.392 . S
C661 C660 1.401 . S
C661 H671 0.930 . S
C662 O640 1.262 . S
C662 O641 1.260 . S
C663 Tb599 2.833 . S
C663 O638 1.251 . S
C663 O643 1.256 . S
C663 C656 1.500 . S
H664 C647 0.930 . S
H665 C648 0.931 . S
H666 C649 0.930 . S
H667 C650 0.930 . S
H668 C657 0.930 . S
H669 C659 0.931 . S
H670 C660 0.930 . S
H671 C661 0.930 . S
Tb672 N703 2.660 . S
Tb672 N710 2.600 . S
Tb672 O716 2.546 . S
Tb672 O717 2.610 . S
Tb672 O719 2.320 . S
Tb672 O720 2.552 . S
Tb672 O721 2.413 . S
Tb672 O723 2.362 . S
Tb672 O724 2.421 . S
Tb672 C736 2.833 . S
C673 C676 1.432 . S
C673 C677 1.386 1_554 S
C673 N680 1.359 . S
C674 C676 1.417 . S
C674 C678 1.421 1_554 S
C674 C686 1.410 . S
C675 C677 1.457 . S
C675 C678 1.322 . S
C675 H698 0.929 . S
C676 C673 1.432 . S
C676 C674 1.417 . S
C676 N684 1.360 . S
C677 C673 1.386 1_556 S
C677 C675 1.457 . S
C677 C682 1.398 . S
C678 C674 1.421 1_556 S
C678 C675 1.322 . S
C678 H690 0.935 . S
C679 C681 1.386 1_556 S
C679 C682 1.373 . S
C679 H691 0.934 . S
N680 C673 1.359 . S
N680 C681 1.327 . S
N680 Tb683 2.600 . S
C681 C679 1.386 1_554 S
C681 N680 1.327 . S
C681 H688 0.930 . S
C682 C677 1.398 . S
C682 C679 1.373 . S
C682 H701 0.930 . S
Tb683 N680 2.600 . S
Tb683 N684 2.660 . S
Tb683 O717 2.362 . S
Tb683 O718 2.421 . S
Tb683 O722 2.546 . S
Tb683 O723 2.610 . S
Tb683 O725 2.320 . S
Tb683 O726 2.552 . S
Tb683 O727 2.413 . S
Tb683 C747 2.833 . S
N684 C676 1.360 . S
N684 Tb683 2.660 . S
N684 C685 1.305 . S
C685 N684 1.305 . S
C685 C687 1.407 . S
C685 H692 0.930 . S
C686 C674 1.410 . S
C686 C687 1.345 . S
C686 H694 0.930 . S
C687 C685 1.407 . S
C687 C686 1.345 . S
C687 H689 0.930 . S
H688 C681 0.930 . S
H689 C687 0.930 . S
H690 C678 0.935 . S
H691 C679 0.934 . S
H692 C685 0.930 . S
H693 C707 0.930 . S
H694 C686 0.930 . S
H695 C713 0.930 . S
H696 C704 0.930 . S
H697 C711 0.931 . S
H698 C675 0.929 . S
H699 C705 0.930 . S
H700 C738 0.930 . S
H701 C682 0.930 . S
H702 C737 0.929 . S
N703 Tb672 2.660 . S
N703 C704 1.305 . S
N703 C708 1.360 . S
C704 H696 0.930 . S
C704 N703 1.305 . S
C704 C707 1.407 . S
C705 H699 0.930 . S
C705 C706 1.410 . S
C705 C707 1.345 . S
C706 C705 1.410 . S
C706 C708 1.417 . S
C706 C738 1.432 . S
C707 H693 0.930 . S
C707 C704 1.407 . S
C707 C705 1.345 . S
C708 N703 1.360 . S
C708 C706 1.417 . S
C708 C712 1.432 . S
H709 C714 0.930 . S
N710 Tb672 2.600 . S
N710 C712 1.359 . S
N710 C713 1.327 . S
C711 H697 0.931 . S
C711 C713 1.392 . S
C711 C714 1.370 . S
C712 C708 1.432 . S
C712 N710 1.359 . S
C712 C715 1.414 . S
C713 H695 0.930 . S
C713 N710 1.327 . S
C713 C711 1.392 . S
C714 H709 0.930 . S
C714 C711 1.370 . S
C714 C715 1.385 . S
C715 C712 1.414 . S
C715 C714 1.385 . S
C715 C737 1.444 . S
O716 Tb672 2.546 . S
O716 C736 1.251 . S
O717 Tb672 2.610 . S
O717 Tb683 2.362 . S
O717 C728 1.283 . S
O718 Tb683 2.421 . S
O718 C735 1.262 . S
O719 Tb672 2.320 . S
O719 C735 1.260 . S
O720 Tb672 2.552 . S
O720 C728 1.243 . S
O721 Tb672 2.413 . S
O721 C736 1.256 . S
O722 Tb683 2.546 . S
O722 C747 1.251 . S
O723 Tb672 2.362 . S
O723 Tb683 2.610 . S
O723 C739 1.283 . S
O724 Tb672 2.421 . S
O724 C746 1.262 . S
O725 Tb683 2.320 . S
O725 C746 1.260 . S
O726 Tb683 2.552 . S
O726 C739 1.243 . S
O727 Tb683 2.413 . S
O727 C747 1.256 . S
C728 O717 1.283 . S
C728 O720 1.243 . S
C729 C731 1.382 . S
C729 C733 1.393 . S
C729 C736 1.500 . S
C730 C731 1.400 . S
C730 C732 1.384 . S
C731 C729 1.382 . S
C731 C730 1.400 . S
C731 H748 0.930 . S
C732 C730 1.384 . S
C732 C734 1.392 . S
C732 H749 0.931 . S
C733 C729 1.393 . S
C733 C734 1.401 . S
C733 H750 0.930 . S
C734 C732 1.392 . S
C734 C733 1.401 . S
C734 H751 0.930 . S
C735 O718 1.262 . S
C735 O719 1.260 . S
C736 Tb672 2.833 . S
C736 O716 1.251 . S
C736 O721 1.256 . S
C736 C729 1.500 . S
C737 H702 0.929 . S
C737 C715 1.444 . S
C737 C738 1.317 . S
C738 H700 0.930 . S
C738 C706 1.432 . S
C738 C737 1.317 . S
C739 O723 1.283 . S
C739 O726 1.243 . S
C740 C741 1.382 . S
C740 C744 1.393 . S
C740 C747 1.500 . S
C741 C740 1.382 . S
C741 C742 1.400 . S
C741 H752 0.930 . S
C742 C741 1.400 . S
C742 C743 1.384 . S
C743 C742 1.384 . S
C743 C745 1.392 . S
C743 H753 0.931 . S
C744 C740 1.393 . S
C744 C745 1.401 . S
C744 H754 0.930 . S
C745 C743 1.392 . S
C745 C744 1.401 . S
C745 H755 0.930 . S
C746 O724 1.262 . S
C746 O725 1.260 . S
C747 Tb683 2.833 . S
C747 O722 1.251 . S
C747 O727 1.256 . S
C747 C740 1.500 . S
H748 C731 0.930 . S
H749 C732 0.931 . S
H750 C733 0.930 . S
H751 C734 0.930 . S
H752 C741 0.930 . S
H753 C743 0.931 . S
H754 C744 0.930 . S
H755 C745 0.930 . S
Tb756 N787 2.660 . S
Tb756 N794 2.600 . S
Tb756 O800 2.546 . S
Tb756 O801 2.610 1_565 S
Tb756 O803 2.320 . S
Tb756 O804 2.560 . S
Tb756 O805 2.413 . S
Tb756 O807 2.362 . S
Tb756 O808 2.421 1_565 S
Tb756 C820 2.833 . S
C757 C760 1.432 . S
C757 C761 1.414 1_556 S
C757 N764 1.359 . S
C758 C760 1.417 . S
C758 C762 1.401 1_556 S
C758 C770 1.410 . S
C759 C761 1.444 . S
C759 C762 1.333 . S
C759 H782 0.929 . S
C760 C757 1.432 . S
C760 C758 1.417 . S
C760 N768 1.360 . S
C761 C757 1.414 1_554 S
C761 C759 1.444 . S
C761 C766 1.385 . S
C762 C758 1.401 1_554 S
C762 C759 1.333 . S
C762 H774 0.946 . S
C763 C765 1.373 1_554 S
C763 C766 1.380 . S
C763 H775 0.940 . S
N764 C757 1.359 . S
N764 C765 1.327 . S
N764 Tb767 2.600 . S
C765 C763 1.373 1_556 S
C765 N764 1.327 . S
C765 H772 0.930 . S
C766 C761 1.385 . S
C766 C763 1.380 . S
C766 H785 0.930 . S
Tb767 N764 2.600 . S
Tb767 N768 2.660 . S
Tb767 O801 2.362 . S
Tb767 O802 2.421 1_545 S
Tb767 O806 2.546 . S
Tb767 O807 2.610 1_545 S
Tb767 O809 2.320 . S
Tb767 O810 2.552 . S
Tb767 O811 2.413 . S
Tb767 C831 2.833 . S
N768 C760 1.360 . S
N768 Tb767 2.660 . S
N768 C769 1.305 . S
C769 N768 1.305 . S
C769 C771 1.407 . S
C769 H776 0.930 . S
C770 C758 1.410 . S
C770 C771 1.345 . S
C770 H778 0.930 . S
C771 C769 1.407 . S
C771 C770 1.345 . S
C771 H773 0.930 . S
H772 C765 0.930 . S
H773 C771 0.930 . S
H774 C762 0.946 . S
H775 C763 0.940 . S
H776 C769 0.930 . S
H777 C791 0.930 . S
H778 C770 0.930 . S
H779 C797 0.930 . S
H780 C788 0.930 . S
H781 C795 0.931 . S
H782 C759 0.929 . S
H783 C789 0.930 . S
H784 C822 0.930 . S
H785 C766 0.930 . S
H786 C821 0.929 . S
N787 Tb756 2.660 . S
N787 C788 1.305 . S
N787 C792 1.360 . S
C788 H780 0.930 . S
C788 N787 1.305 . S
C788 C791 1.407 . S
C789 H783 0.930 . S
C789 C790 1.410 . S
C789 C791 1.345 . S
C790 C789 1.410 . S
C790 C792 1.417 . S
C790 C822 1.432 . S
C791 H777 0.930 . S
C791 C788 1.407 . S
C791 C789 1.345 . S
C792 N787 1.360 . S
C792 C790 1.417 . S
C792 C796 1.432 . S
H793 C798 0.930 . S
N794 Tb756 2.600 . S
N794 C796 1.359 . S
N794 C797 1.327 . S
C795 H781 0.931 . S
C795 C797 1.392 . S
C795 C798 1.370 . S
C796 C792 1.432 . S
C796 N794 1.359 . S
C796 C799 1.414 . S
C797 H779 0.930 . S
C797 N794 1.327 . S
C797 C795 1.392 . S
C798 H793 0.930 . S
C798 C795 1.370 . S
C798 C799 1.385 . S
C799 C796 1.414 . S
C799 C798 1.385 . S
C799 C821 1.444 . S
O800 Tb756 2.546 . S
O800 C820 1.251 . S
O801 Tb756 2.610 1_545 S
O801 Tb767 2.362 . S
O801 C812 1.283 . S
O802 Tb767 2.421 1_565 S
O802 C819 1.262 . S
O803 Tb756 2.320 . S
O803 C819 1.260 . S
O804 Tb756 2.560 . S
O804 C812 1.231 1_565 S
O805 Tb756 2.413 . S
O805 C820 1.256 . S
O806 Tb767 2.546 . S
O806 C831 1.251 . S
O807 Tb756 2.362 . S
O807 Tb767 2.610 1_565 S
O807 C823 1.283 1_565 S
O808 Tb756 2.421 1_545 S
O808 C830 1.262 . S
O809 Tb767 2.320 . S
O809 C830 1.260 . S
O810 Tb767 2.552 . S
O810 C823 1.243 . S
O811 Tb767 2.413 . S
O811 C831 1.256 . S
C812 O801 1.283 . S
C812 O804 1.231 1_545 S
C813 C815 1.382 . S
C813 C817 1.393 . S
C813 C820 1.500 . S
C814 C815 1.400 . S
C814 C816 1.384 . S
C815 C813 1.382 . S
C815 C814 1.400 . S
C815 H832 0.930 . S
C816 C814 1.384 . S
C816 C818 1.392 . S
C816 H833 0.931 . S
C817 C813 1.393 . S
C817 C818 1.401 . S
C817 H834 0.930 . S
C818 C816 1.392 . S
C818 C817 1.401 . S
C818 H835 0.930 . S
C819 O802 1.262 . S
C819 O803 1.260 . S
C820 Tb756 2.833 . S
C820 O800 1.251 . S
C820 O805 1.256 . S
C820 C813 1.500 . S
C821 H786 0.929 . S
C821 C799 1.444 . S
C821 C822 1.317 . S
C822 H784 0.930 . S
C822 C790 1.432 . S
C822 C821 1.317 . S
C823 O807 1.283 1_545 S
C823 O810 1.243 . S
C824 C825 1.382 . S
C824 C828 1.393 . S
C824 C831 1.500 . S
C825 C824 1.382 . S
C825 C826 1.400 . S
C825 H836 0.930 . S
C826 C825 1.400 . S
C826 C827 1.384 . S
C827 C826 1.384 . S
C827 C829 1.392 . S
C827 H837 0.931 . S
C828 C824 1.393 . S
C828 C829 1.401 . S
C828 H838 0.930 . S
C829 C827 1.392 . S
C829 C828 1.401 . S
C829 H839 0.930 . S
C830 O808 1.262 . S
C830 O809 1.260 . S
C831 Tb767 2.833 . S
C831 O806 1.251 . S
C831 O811 1.256 . S
C831 C824 1.500 . S
H832 C815 0.930 . S
H833 C816 0.931 . S
H834 C817 0.930 . S
H835 C818 0.930 . S
H836 C825 0.930 . S
H837 C827 0.931 . S
H838 C828 0.930 . S
H839 C829 0.930 . S
Tb840 N871 2.660 . S
Tb840 N878 2.600 . S
Tb840 O884 2.546 . S
Tb840 O885 2.610 . S
Tb840 O887 2.320 . S
Tb840 O888 2.552 . S
Tb840 O889 2.413 . S
Tb840 O891 2.362 1_565 S
Tb840 O892 2.421 . S
Tb840 C904 2.833 . S
C841 C844 1.421 1_545 S
C841 C845 1.414 . S
C841 N848 1.359 . S
C842 C844 1.424 . S
C842 C846 1.432 . S
C842 C854 1.410 . S
C843 C845 1.444 . S
C843 C846 1.317 1_545 S
C843 H866 0.929 . S
C844 C841 1.421 1_565 S
C844 C842 1.424 . S
C844 N852 1.363 . S
C845 C841 1.414 . S
C845 C843 1.444 . S
C845 C850 1.385 . S
C846 C842 1.432 . S
C846 C843 1.317 1_565 S
C846 H858 0.930 . S
C847 C849 1.392 . S
C847 C850 1.370 . S
C847 H859 0.931 . S
N848 C841 1.359 . S
N848 C849 1.327 . S
N848 Tb851 2.600 . S
C849 C847 1.392 . S
C849 N848 1.327 . S
C849 H856 0.930 . S
C850 C845 1.385 . S
C850 C847 1.370 . S
C850 H869 0.930 . S
Tb851 N848 2.600 . S
Tb851 N852 2.660 1_545 S
Tb851 O885 2.362 1_545 S
Tb851 O886 2.421 . S
Tb851 O890 2.546 . S
Tb851 O891 2.610 . S
Tb851 O893 2.320 1_545 S
Tb851 O894 2.552 . S
Tb851 O895 2.413 . S
Tb851 C915 2.833 . S
N852 C844 1.363 . S
N852 Tb851 2.660 1_565 S
N852 C853 1.305 . S
C853 N852 1.305 . S
C853 C855 1.407 . S
C853 H860 0.930 . S
C854 C842 1.410 . S
C854 C855 1.345 . S
C854 H862 0.930 . S
C855 C853 1.407 . S
C855 C854 1.345 . S
C855 H857 0.930 . S
H856 C849 0.930 . S
H857 C855 0.930 . S
H858 C846 0.930 . S
H859 C847 0.931 . S
H860 C853 0.930 . S
H861 C875 0.930 . S
H862 C854 0.930 . S
H863 C881 0.930 . S
H864 C872 0.930 . S
H865 C879 0.931 . S
H866 C843 0.929 . S
H867 C873 0.930 . S
H868 C906 0.930 1_545 S
H869 C850 0.930 . S
H870 C905 0.929 . S
N871 Tb840 2.660 . S
N871 C872 1.305 1_565 S
N871 C876 1.360 . S
C872 H864 0.930 . S
C872 N871 1.305 1_545 S
C872 C875 1.407 . S
C873 H867 0.930 . S
C873 C874 1.410 . S
C873 C875 1.345 . S
C874 C873 1.410 . S
C874 C876 1.417 1_545 S
C874 C906 1.432 1_545 S
C875 H861 0.930 . S
C875 C872 1.407 . S
C875 C873 1.345 . S
C876 N871 1.360 . S
C876 C874 1.417 1_565 S
C876 C880 1.432 . S
H877 C882 0.930 . S
N878 Tb840 2.600 . S
N878 C880 1.359 . S
N878 C881 1.327 . S
C879 H865 0.931 . S
C879 C881 1.392 . S
C879 C882 1.370 . S
C880 C876 1.432 . S
C880 N878 1.359 . S
C880 C883 1.414 . S
C881 H863 0.930 . S
C881 N878 1.327 . S
C881 C879 1.392 . S
C882 H877 0.930 . S
C882 C879 1.370 . S
C882 C883 1.385 . S
C883 C880 1.414 . S
C883 C882 1.385 . S
C883 C905 1.444 . S
O884 Tb840 2.546 . S
O884 C904 1.251 . S
O885 Tb840 2.610 . S
O885 Tb851 2.362 1_565 S
O885 C896 1.283 . S
O886 Tb851 2.421 . S
O886 C903 1.262 . S
O887 Tb840 2.320 . S
O887 C903 1.260 1_565 S
O888 Tb840 2.552 . S
O888 C896 1.243 . S
O889 Tb840 2.413 . S
O889 C904 1.256 . S
O890 Tb851 2.546 . S
O890 C915 1.251 . S
O891 Tb840 2.362 1_545 S
O891 Tb851 2.610 . S
O891 C907 1.283 . S
O892 Tb840 2.421 . S
O892 C914 1.262 . S
O893 Tb851 2.320 1_565 S
O893 C914 1.260 . S
O894 Tb851 2.552 . S
O894 C907 1.243 . S
O895 Tb851 2.413 . S
O895 C915 1.256 . S
C896 O885 1.283 . S
C896 O888 1.243 . S
C897 C899 1.382 . S
C897 C901 1.393 . S
C897 C904 1.500 . S
C898 C899 1.400 . S
C898 C900 1.384 . S
C899 C897 1.382 . S
C899 C898 1.400 . S
C899 H916 0.930 . S
C900 C898 1.384 . S
C900 C902 1.392 . S
C900 H917 0.931 . S
C901 C897 1.393 . S
C901 C902 1.401 . S
C901 H918 0.930 . S
C902 C900 1.392 . S
C902 C901 1.401 . S
C902 H919 0.930 . S
C903 O886 1.262 . S
C903 O887 1.260 1_545 S
C904 Tb840 2.833 . S
C904 O884 1.251 . S
C904 O889 1.256 . S
C904 C897 1.500 . S
C905 H870 0.929 . S
C905 C883 1.444 . S
C905 C906 1.317 . S
C906 H868 0.930 1_565 S
C906 C874 1.432 1_565 S
C906 C905 1.317 . S
C907 O891 1.283 . S
C907 O894 1.243 . S
C908 C909 1.382 . S
C908 C912 1.393 . S
C908 C915 1.500 . S
C909 C908 1.382 . S
C909 C910 1.400 . S
C909 H920 0.930 . S
C910 C909 1.400 . S
C910 C911 1.384 . S
C911 C910 1.384 . S
C911 C913 1.392 . S
C911 H921 0.931 . S
C912 C908 1.393 . S
C912 C913 1.401 . S
C912 H922 0.930 . S
C913 C911 1.392 . S
C913 C912 1.401 . S
C913 H923 0.930 . S
C914 O892 1.262 . S
C914 O893 1.260 . S
C915 Tb851 2.833 . S
C915 O890 1.251 . S
C915 O895 1.256 . S
C915 C908 1.500 . S
H916 C899 0.930 . S
H917 C900 0.931 . S
H918 C901 0.930 . S
H919 C902 0.930 . S
H920 C909 0.930 . S
H921 C911 0.931 . S
H922 C912 0.930 . S
H923 C913 0.930 . S
Tb924 N955 2.660 . S
Tb924 N962 2.600 . S
Tb924 O968 2.546 . S
Tb924 O969 2.610 . S
Tb924 O971 2.320 . S
Tb924 O972 2.552 . S
Tb924 O973 2.413 . S
Tb924 O975 2.362 . S
Tb924 O976 2.421 . S
Tb924 C988 2.833 . S
C925 C928 1.432 . S
C925 C929 1.414 . S
C925 N932 1.359 . S
C926 C928 1.417 . S
C926 C930 1.432 . S
C926 C938 1.410 . S
C927 C929 1.444 . S
C927 C930 1.317 . S
C927 H950 0.929 . S
C928 C925 1.432 . S
C928 C926 1.417 . S
C928 N936 1.360 . S
C929 C925 1.414 . S
C929 C927 1.444 . S
C929 C934 1.385 . S
C930 C926 1.432 . S
C930 C927 1.317 . S
C930 H942 0.930 . S
C931 C933 1.392 . S
C931 C934 1.370 . S
C931 H943 0.931 . S
N932 C925 1.359 . S
N932 C933 1.327 . S
N932 Tb935 2.600 . S
C933 C931 1.392 . S
C933 N932 1.327 . S
C933 H940 0.930 . S
C934 C929 1.385 . S
C934 C931 1.370 . S
C934 H953 0.930 . S
Tb935 N932 2.600 . S
Tb935 N936 2.660 . S
Tb935 O969 2.362 . S
Tb935 O970 2.421 . S
Tb935 O974 2.546 . S
Tb935 O975 2.610 . S
Tb935 O977 2.320 . S
Tb935 O978 2.552 . S
Tb935 O979 2.413 . S
Tb935 C999 2.833 . S
N936 C928 1.360 . S
N936 Tb935 2.660 . S
N936 C937 1.305 . S
C937 N936 1.305 . S
C937 C939 1.407 . S
C937 H944 0.930 . S
C938 C926 1.410 . S
C938 C939 1.345 . S
C938 H946 0.930 . S
C939 C937 1.407 . S
C939 C938 1.345 . S
C939 H941 0.930 . S
H940 C933 0.930 . S
H941 C939 0.930 . S
H942 C930 0.930 . S
H943 C931 0.931 . S
H944 C937 0.930 . S
H945 C959 0.930 . S
H946 C938 0.930 . S
H947 C965 0.930 . S
H948 C956 0.930 . S
H949 C963 0.931 . S
H950 C927 0.929 . S
H951 C957 0.930 . S
H952 C990 0.930 . S
H953 C934 0.930 . S
H954 C989 0.929 . S
N955 Tb924 2.660 . S
N955 C956 1.305 . S
N955 C960 1.360 . S
C956 H948 0.930 . S
C956 N955 1.305 . S
C956 C959 1.407 . S
C957 H951 0.930 . S
C957 C958 1.410 . S
C957 C959 1.345 . S
C958 C957 1.410 . S
C958 C960 1.417 . S
C958 C990 1.432 . S
C959 H945 0.930 . S
C959 C956 1.407 . S
C959 C957 1.345 . S
C960 N955 1.360 . S
C960 C958 1.417 . S
C960 C964 1.432 . S
H961 C966 0.930 . S
N962 Tb924 2.600 . S
N962 C964 1.359 . S
N962 C965 1.327 . S
C963 H949 0.931 . S
C963 C965 1.392 . S
C963 C966 1.370 . S
C964 C960 1.432 . S
C964 N962 1.359 . S
C964 C967 1.414 . S
C965 H947 0.930 . S
C965 N962 1.327 . S
C965 C963 1.392 . S
C966 H961 0.930 . S
C966 C963 1.370 . S
C966 C967 1.385 . S
C967 C964 1.414 . S
C967 C966 1.385 . S
C967 C989 1.444 . S
O968 Tb924 2.546 . S
O968 C988 1.251 . S
O969 Tb924 2.610 . S
O969 Tb935 2.362 . S
O969 C980 1.283 . S
O970 Tb935 2.421 . S
O970 C987 1.262 . S
O971 Tb924 2.320 . S
O971 C987 1.260 . S
O972 Tb924 2.552 . S
O972 C980 1.243 . S
O973 Tb924 2.413 . S
O973 C988 1.256 . S
O974 Tb935 2.546 . S
O974 C999 1.251 . S
O975 Tb924 2.362 . S
O975 Tb935 2.610 . S
O975 C991 1.283 . S
O976 Tb924 2.421 . S
O976 C998 1.262 . S
O977 Tb935 2.320 . S
O977 C998 1.260 . S
O978 Tb935 2.552 . S
O978 C991 1.243 . S
O979 Tb935 2.413 . S
O979 C999 1.256 . S
C980 O969 1.283 . S
C980 O972 1.243 . S
C981 C983 1.382 . S
C981 C985 1.393 . S
C981 C988 1.500 . S
C982 C983 1.400 . S
C982 C984 1.384 . S
C983 C981 1.382 . S
C983 C982 1.400 . S
C983 H1000 0.930 . S
C984 C982 1.384 . S
C984 C986 1.392 . S
C984 H1001 0.931 . S
C985 C981 1.393 . S
C985 C986 1.401 . S
C985 H1002 0.930 . S
C986 C984 1.392 . S
C986 C985 1.401 . S
C986 H1003 0.930 . S
C987 O970 1.262 . S
C987 O971 1.260 . S
C988 Tb924 2.833 . S
C988 O968 1.251 . S
C988 O973 1.256 . S
C988 C981 1.500 . S
C989 H954 0.929 . S
C989 C967 1.444 . S
C989 C990 1.317 . S
C990 H952 0.930 . S
C990 C958 1.432 . S
C990 C989 1.317 . S
C991 O975 1.283 . S
C991 O978 1.243 . S
C992 C993 1.382 . S
C992 C996 1.393 . S
C992 C999 1.500 . S
C993 C992 1.382 . S
C993 C994 1.400 . S
C993 H1004 0.930 . S
C994 C993 1.400 . S
C994 C995 1.384 . S
C995 C994 1.384 . S
C995 C997 1.392 . S
C995 H1005 0.931 . S
C996 C992 1.393 . S
C996 C997 1.401 . S
C996 H1006 0.930 . S
C997 C995 1.392 . S
C997 C996 1.401 . S
C997 H1007 0.930 . S
C998 O976 1.262 . S
C998 O977 1.260 . S
C999 Tb935 2.833 . S
C999 O974 1.251 . S
C999 O979 1.256 . S
C999 C992 1.500 . S
H1000 C983 0.930 . S
H1001 C984 0.931 . S
H1002 C985 0.930 . S
H1003 C986 0.930 . S
H1004 C993 0.930 . S
H1005 C995 0.931 . S
H1006 C996 0.930 . S
H1007 C997 0.930 . S
H1008 C1014 0.930 . S
H1009 C1017 0.930 . S
H1010 C1018 0.930 . S
H1011 C1019 0.930 . S
H1012 C1022 0.930 . S
H1013 C1023 0.930 . S
C1014 H1008 0.930 . S
C1014 C1015 1.355 . S
C1014 C1016 1.415 . S
C1015 C1014 1.355 . S
C1015 C1017 1.419 . S
C1016 C1014 1.415 . S
C1016 C1021 1.425 . S
C1016 C1023 1.409 . S
C1017 H1009 0.930 . S
C1017 C1015 1.419 . S
C1017 C1018 1.362 . S
C1018 H1010 0.930 . S
C1018 C1017 1.362 . S
C1018 C1021 1.409 . S
C1019 H1011 0.930 . S
C1019 C1020 1.355 . S
C1019 C1021 1.415 . S
C1020 C1019 1.355 . S
C1020 C1022 1.419 . S
C1021 C1016 1.425 . S
C1021 C1018 1.409 . S
C1021 C1019 1.415 . S
C1022 H1012 0.930 . S
C1022 C1020 1.419 . S
C1022 C1023 1.362 . S
C1023 H1013 0.930 . S
C1023 C1016 1.409 . S
C1023 C1022 1.362 . S
H1024 C1030 0.930 1_545 S
H1025 C1033 0.930 . S
H1026 C1034 0.930 . S
H1027 C1035 0.930 . S
H1028 C1038 0.930 . S
H1029 C1039 0.930 1_545 S
C1030 H1024 0.930 1_565 S
C1030 C1031 1.355 . S
C1030 C1032 1.415 . S
C1031 C1030 1.355 . S
C1031 C1033 1.419 . S
C1032 C1030 1.415 . S
C1032 C1037 1.425 . S
C1032 C1039 1.409 . S
C1033 H1025 0.930 . S
C1033 C1031 1.419 . S
C1033 C1034 1.362 . S
C1034 H1026 0.930 . S
C1034 C1033 1.362 . S
C1034 C1037 1.409 . S
C1035 H1027 0.930 . S
C1035 C1036 1.355 . S
C1035 C1037 1.415 . S
C1036 C1035 1.355 . S
C1036 C1038 1.419 . S
C1037 C1032 1.425 . S
C1037 C1034 1.409 . S
C1037 C1035 1.415 . S
C1038 H1028 0.930 . S
C1038 C1036 1.419 . S
C1038 C1039 1.362 . S
C1039 H1029 0.930 1_565 S
C1039 C1032 1.409 . S
C1039 C1038 1.362 . S
H1040 C1046 0.930 . S
H1041 C1049 0.930 . S
H1042 C1050 0.920 1_556 S
H1043 C1051 0.930 . S
H1044 C1054 0.930 . S
H1045 C1055 0.930 . S
C1046 H1040 0.930 . S
C1046 C1047 1.355 . S
C1046 C1048 1.415 . S
C1047 C1046 1.355 . S
C1047 C1049 1.419 1_554 S
C1048 C1046 1.415 . S
C1048 C1053 1.425 . S
C1048 C1055 1.409 . S
C1049 H1041 0.930 . S
C1049 C1047 1.419 1_556 S
C1049 C1050 1.360 1_556 S
C1050 H1042 0.920 1_554 S
C1050 C1049 1.360 1_554 S
C1050 C1053 1.421 . S
C1051 H1043 0.930 . S
C1051 C1052 1.355 . S
C1051 C1053 1.415 . S
C1052 C1051 1.355 . S
C1052 C1054 1.419 . S
C1053 C1048 1.425 . S
C1053 C1050 1.421 . S
C1053 C1051 1.415 . S
C1054 H1044 0.930 . S
C1054 C1052 1.419 . S
C1054 C1055 1.362 . S
C1055 H1045 0.930 . S
C1055 C1048 1.409 . S
C1055 C1054 1.362 . S
H1056 C1062 0.930 . S
H1057 C1065 0.930 . S
H1058 C1066 0.930 . S
H1059 C1067 0.930 . S
H1060 C1070 0.930 1_565 S
H1061 C1071 0.930 1_565 S
C1062 H1056 0.930 . S
C1062 C1063 1.355 . S
C1062 C1064 1.415 . S
C1063 C1062 1.355 . S
C1063 C1065 1.419 . S
C1064 C1062 1.415 . S
C1064 C1069 1.425 . S
C1064 C1071 1.409 . S
C1065 H1057 0.930 . S
C1065 C1063 1.419 . S
C1065 C1066 1.362 . S
C1066 H1058 0.930 . S
C1066 C1065 1.362 . S
C1066 C1069 1.409 . S
C1067 H1059 0.930 . S
C1067 C1068 1.355 . S
C1067 C1069 1.415 . S
C1068 C1067 1.355 . S
C1068 C1070 1.419 . S
C1069 C1064 1.425 . S
C1069 C1066 1.409 . S
C1069 C1067 1.415 . S
C1070 H1060 0.930 1_545 S
C1070 C1068 1.419 . S
C1070 C1071 1.362 . S
C1071 H1061 0.930 1_545 S
C1071 C1064 1.409 . S
C1071 C1070 1.362 . S
H1072 C1078 0.930 . S
H1073 C1081 0.930 . S
H1074 C1082 0.930 . S
H1075 C1083 0.930 . S
H1076 C1086 0.930 . S
H1077 C1087 0.930 . S
C1078 H1072 0.930 . S
C1078 C1079 1.355 . S
C1078 C1080 1.415 . S
C1079 C1078 1.355 . S
C1079 C1081 1.419 . S
C1080 C1078 1.415 . S
C1080 C1085 1.425 . S
C1080 C1087 1.409 . S
C1081 H1073 0.930 . S
C1081 C1079 1.419 . S
C1081 C1082 1.362 . S
C1082 H1074 0.930 . S
C1082 C1081 1.362 . S
C1082 C1085 1.409 . S
C1083 H1075 0.930 . S
C1083 C1084 1.355 . S
C1083 C1085 1.415 . S
C1084 C1083 1.355 . S
C1084 C1086 1.419 . S
C1085 C1080 1.425 . S
C1085 C1082 1.409 . S
C1085 C1083 1.415 . S
C1086 H1076 0.930 . S
C1086 C1084 1.419 . S
C1086 C1087 1.362 . S
C1087 H1077 0.930 . S
C1087 C1080 1.409 . S
C1087 C1086 1.362 . S
H1088 C1094 0.930 . S
H1089 C1097 0.930 . S
H1090 C1098 0.930 . S
H1091 C1099 0.930 . S
H1092 C1102 0.930 . S
H1093 C1103 0.930 . S
C1094 H1088 0.930 . S
C1094 C1095 1.355 . S
C1094 C1096 1.415 . S
C1095 C1094 1.355 . S
C1095 C1097 1.419 . S
C1096 C1094 1.415 . S
C1096 C1101 1.425 . S
C1096 C1103 1.409 . S
C1097 H1089 0.930 . S
C1097 C1095 1.419 . S
C1097 C1098 1.362 . S
C1098 H1090 0.930 . S
C1098 C1097 1.362 . S
C1098 C1101 1.409 . S
C1099 H1091 0.930 . S
C1099 C1100 1.355 . S
C1099 C1101 1.415 . S
C1100 C1099 1.355 . S
C1100 C1102 1.419 . S
C1101 C1096 1.425 . S
C1101 C1098 1.409 . S
C1101 C1099 1.415 . S
C1102 H1092 0.930 . S
C1102 C1100 1.419 . S
C1102 C1103 1.362 . S
C1103 H1093 0.930 . S
C1103 C1096 1.409 . S
C1103 C1102 1.362 . S
H1104 C1110 0.930 . S
H1105 C1113 0.930 . S
H1106 C1114 0.930 . S
H1107 C1115 0.930 . S
H1108 C1118 0.930 . S
H1109 C1119 0.930 . S
C1110 H1104 0.930 . S
C1110 C1111 1.355 . S
C1110 C1112 1.415 . S
C1111 C1110 1.355 . S
C1111 C1113 1.419 . S
C1112 C1110 1.415 . S
C1112 C1117 1.425 . S
C1112 C1119 1.409 1_556 S
C1113 H1105 0.930 . S
C1113 C1111 1.419 . S
C1113 C1114 1.362 . S
C1114 H1106 0.930 . S
C1114 C1113 1.362 . S
C1114 C1117 1.409 . S
C1115 H1107 0.930 . S
C1115 C1116 1.355 . S
C1115 C1117 1.415 . S
C1116 C1115 1.355 . S
C1116 C1118 1.419 1_556 S
C1117 C1112 1.425 . S
C1117 C1114 1.409 . S
C1117 C1115 1.415 . S
C1118 H1108 0.930 . S
C1118 C1116 1.419 1_554 S
C1118 C1119 1.362 . S
C1119 H1109 0.930 . S
C1119 C1112 1.409 1_554 S
C1119 C1118 1.362 . S
H1120 C1126 0.930 . S
H1121 C1129 0.930 . S
H1122 C1130 0.930 . S
H1123 C1131 0.930 . S
H1124 C1134 0.930 . S
H1125 C1135 0.930 . S
C1126 H1120 0.930 . S
C1126 C1127 1.355 . S
C1126 C1128 1.415 . S
C1127 C1126 1.355 . S
C1127 C1129 1.419 . S
C1128 C1126 1.415 . S
C1128 C1133 1.425 . S
C1128 C1135 1.409 . S
C1129 H1121 0.930 . S
C1129 C1127 1.419 . S
C1129 C1130 1.362 . S
C1130 H1122 0.930 . S
C1130 C1129 1.362 . S
C1130 C1133 1.409 . S
C1131 H1123 0.930 . S
C1131 C1132 1.355 . S
C1131 C1133 1.415 . S
C1132 C1131 1.355 . S
C1132 C1134 1.419 . S
C1133 C1128 1.425 . S
C1133 C1130 1.409 . S
C1133 C1131 1.415 . S
C1134 H1124 0.930 . S
C1134 C1132 1.419 . S
C1134 C1135 1.362 . S
C1135 H1125 0.930 . S
C1135 C1128 1.409 . S
C1135 C1134 1.362 . S
H1136 C1142 0.930 . S
H1137 C1145 0.930 . S
H1138 C1146 0.930 . S
H1139 C1147 0.930 . S
H1140 C1150 0.930 . S
H1141 C1151 0.930 . S
C1142 H1136 0.930 . S
C1142 C1143 1.355 . S
C1142 C1144 1.415 . S
C1143 C1142 1.355 . S
C1143 C1145 1.419 . S
C1144 C1142 1.415 . S
C1144 C1149 1.425 . S
C1144 C1151 1.409 . S
C1145 H1137 0.930 . S
C1145 C1143 1.419 . S
C1145 C1146 1.362 . S
C1146 H1138 0.930 . S
C1146 C1145 1.362 . S
C1146 C1149 1.409 . S
C1147 H1139 0.930 . S
C1147 C1148 1.355 . S
C1147 C1149 1.415 . S
C1148 C1147 1.355 . S
C1148 C1150 1.419 . S
C1149 C1144 1.425 . S
C1149 C1146 1.409 . S
C1149 C1147 1.415 . S
C1150 H1140 0.930 . S
C1150 C1148 1.419 . S
C1150 C1151 1.362 . S
C1151 H1141 0.930 . S
C1151 C1144 1.409 . S
C1151 C1150 1.362 . S
H1152 C1158 0.930 . S
H1153 C1161 0.930 . S
H1154 C1162 0.930 . S
H1155 C1163 0.930 . S
H1156 C1166 0.930 1_655 S
H1157 C1167 0.941 . S
C1158 H1152 0.930 . S
C1158 C1159 1.355 . S
C1158 C1160 1.415 . S
C1159 C1158 1.355 . S
C1159 C1161 1.419 . S
C1160 C1158 1.415 . S
C1160 C1165 1.425 . S
C1160 C1167 1.409 . S
C1161 H1153 0.930 . S
C1161 C1159 1.419 . S
C1161 C1162 1.362 . S
C1162 H1154 0.930 . S
C1162 C1161 1.362 . S
C1162 C1165 1.409 . S
C1163 H1155 0.930 . S
C1163 C1164 1.355 . S
C1163 C1165 1.415 . S
C1164 C1163 1.355 . S
C1164 C1166 1.419 . S
C1165 C1160 1.425 . S
C1165 C1162 1.409 . S
C1165 C1163 1.415 . S
C1166 H1156 0.930 1_455 S
C1166 C1164 1.419 . S
C1166 C1167 1.362 . S
C1167 H1157 0.941 . S
C1167 C1160 1.409 . S
C1167 C1166 1.362 . S
H1168 C1174 0.930 . S
H1169 C1177 0.930 . S
H1170 C1178 0.930 . S
H1171 C1179 0.930 . S
H1172 C1182 0.930 . S
H1173 C1183 0.930 . S
C1174 H1168 0.930 . S
C1174 C1175 1.355 . S
C1174 C1176 1.415 . S
C1175 C1174 1.355 . S
C1175 C1177 1.419 1_655 S
C1176 C1174 1.415 . S
C1176 C1181 1.425 . S
C1176 C1183 1.409 . S
C1177 H1169 0.930 . S
C1177 C1175 1.419 1_455 S
C1177 C1178 1.362 . S
C1178 H1170 0.930 . S
C1178 C1177 1.362 . S
C1178 C1181 1.409 1_455 S
C1179 H1171 0.930 . S
C1179 C1180 1.355 . S
C1179 C1181 1.415 . S
C1180 C1179 1.355 . S
C1180 C1182 1.419 . S
C1181 C1176 1.425 . S
C1181 C1178 1.409 1_655 S
C1181 C1179 1.415 . S
C1182 H1172 0.930 . S
C1182 C1180 1.419 . S
C1182 C1183 1.362 . S
C1183 H1173 0.930 . S
C1183 C1176 1.409 . S
C1183 C1182 1.362 . S
H1184 C1190 0.930 . S
H1185 C1193 0.930 . S
H1186 C1194 0.930 . S
H1187 C1195 0.930 . S
H1188 C1198 0.930 . S
H1189 C1199 0.930 . S
C1190 H1184 0.930 . S
C1190 C1191 1.355 . S
C1190 C1192 1.415 . S
C1191 C1190 1.355 . S
C1191 C1193 1.419 . S
C1192 C1190 1.415 . S
C1192 C1197 1.425 . S
C1192 C1199 1.409 . S
C1193 H1185 0.930 . S
C1193 C1191 1.419 . S
C1193 C1194 1.362 . S
C1194 H1186 0.930 . S
C1194 C1193 1.362 . S
C1194 C1197 1.409 . S
C1195 H1187 0.930 . S
C1195 C1196 1.355 . S
C1195 C1197 1.415 . S
C1196 C1195 1.355 . S
C1196 C1198 1.419 . S
C1197 C1192 1.425 . S
C1197 C1194 1.409 . S
C1197 C1195 1.415 . S
C1198 H1188 0.930 . S
C1198 C1196 1.419 . S
C1198 C1199 1.362 . S
C1199 H1189 0.930 . S
C1199 C1192 1.409 . S
C1199 C1198 1.362 . S
H1200 C1206 0.930 . S
H1201 C1209 0.930 . S
H1202 C1210 0.930 . S
H1203 C1211 0.930 . S
H1204 C1214 0.930 . S
H1205 C1215 0.930 . S
C1206 H1200 0.930 . S
C1206 C1207 1.355 . S
C1206 C1208 1.415 . S
C1207 C1206 1.355 . S
C1207 C1209 1.419 . S
C1208 C1206 1.415 . S
C1208 C1213 1.425 . S
C1208 C1215 1.409 . S
C1209 H1201 0.930 . S
C1209 C1207 1.419 . S
C1209 C1210 1.362 . S
C1210 H1202 0.930 . S
C1210 C1209 1.362 . S
C1210 C1213 1.409 . S
C1211 H1203 0.930 . S
C1211 C1212 1.355 . S
C1211 C1213 1.415 . S
C1212 C1211 1.355 . S
C1212 C1214 1.419 . S
C1213 C1208 1.425 . S
C1213 C1210 1.409 . S
C1213 C1211 1.415 . S
C1214 H1204 0.930 . S
C1214 C1212 1.419 . S
C1214 C1215 1.362 . S
C1215 H1205 0.930 . S
C1215 C1208 1.409 . S
C1215 C1214 1.362 . S
H1216 C1222 0.930 . S
H1217 C1225 0.930 . S
H1218 C1226 0.930 . S
H1219 C1227 0.930 . S
H1220 C1230 0.930 . S
H1221 C1231 0.930 . S
C1222 H1216 0.930 . S
C1222 C1223 1.355 . S
C1222 C1224 1.415 . S
C1223 C1222 1.355 . S
C1223 C1225 1.419 . S
C1224 C1222 1.415 . S
C1224 C1229 1.425 . S
C1224 C1231 1.409 . S
C1225 H1217 0.930 . S
C1225 C1223 1.419 . S
C1225 C1226 1.362 . S
C1226 H1218 0.930 . S
C1226 C1225 1.362 . S
C1226 C1229 1.409 . S
C1227 H1219 0.930 . S
C1227 C1228 1.355 . S
C1227 C1229 1.415 . S
C1228 C1227 1.355 . S
C1228 C1230 1.419 . S
C1229 C1224 1.425 . S
C1229 C1226 1.409 . S
C1229 C1227 1.415 . S
C1230 H1220 0.930 . S
C1230 C1228 1.419 . S
C1230 C1231 1.362 . S
C1231 H1221 0.930 . S
C1231 C1224 1.409 . S
C1231 C1230 1.362 . S
H1232 C1238 0.930 . S
H1233 C1241 0.930 . S
H1234 C1242 0.930 . S
H1235 C1243 0.930 . S
H1236 C1246 0.930 . S
H1237 C1247 0.930 . S
C1238 H1232 0.930 . S
C1238 C1239 1.355 . S
C1238 C1240 1.415 . S
C1239 C1238 1.355 . S
C1239 C1241 1.419 . S
C1240 C1238 1.415 . S
C1240 C1245 1.425 . S
C1240 C1247 1.409 . S
C1241 H1233 0.930 . S
C1241 C1239 1.419 . S
C1241 C1242 1.362 . S
C1242 H1234 0.930 . S
C1242 C1241 1.362 . S
C1242 C1245 1.409 . S
C1243 H1235 0.930 . S
C1243 C1244 1.355 . S
C1243 C1245 1.415 . S
C1244 C1243 1.355 . S
C1244 C1246 1.419 . S
C1245 C1240 1.425 . S
C1245 C1242 1.409 . S
C1245 C1243 1.415 . S
C1246 H1236 0.930 . S
C1246 C1244 1.419 . S
C1246 C1247 1.362 . S
C1247 H1237 0.930 . S
C1247 C1240 1.409 . S
C1247 C1246 1.362 . S
H1248 C1254 0.930 . S
H1249 C1257 0.930 . S
H1250 C1258 0.930 . S
H1251 C1259 0.930 . S
H1252 C1262 0.930 1_565 S
H1253 C1263 0.930 1_565 S
C1254 H1248 0.930 . S
C1254 C1255 1.355 . S
C1254 C1256 1.415 . S
C1255 C1254 1.355 . S
C1255 C1257 1.419 . S
C1256 C1254 1.415 . S
C1256 C1261 1.425 . S
C1256 C1263 1.409 . S
C1257 H1249 0.930 . S
C1257 C1255 1.419 . S
C1257 C1258 1.362 . S
C1258 H1250 0.930 . S
C1258 C1257 1.362 . S
C1258 C1261 1.409 . S
C1259 H1251 0.930 . S
C1259 C1260 1.355 . S
C1259 C1261 1.415 1_556 S
C1260 C1259 1.355 . S
C1260 C1262 1.419 . S
C1261 C1256 1.425 . S
C1261 C1258 1.409 . S
C1261 C1259 1.415 1_554 S
C1262 H1252 0.930 1_545 S
C1262 C1260 1.419 . S
C1262 C1263 1.362 1_556 S
C1263 H1253 0.930 1_545 S
C1263 C1256 1.409 . S
C1263 C1262 1.362 1_554 S
H1264 C1270 0.930 . S
H1265 C1273 0.930 . S
H1266 C1274 0.930 . S
H1267 C1275 0.930 . S
H1268 C1278 0.930 . S
H1269 C1279 0.930 . S
C1270 H1264 0.930 . S
C1270 C1271 1.355 . S
C1270 C1272 1.415 . S
C1271 C1270 1.355 . S
C1271 C1273 1.419 . S
C1272 C1270 1.415 . S
C1272 C1277 1.425 . S
C1272 C1279 1.409 . S
C1273 H1265 0.930 . S
C1273 C1271 1.419 . S
C1273 C1274 1.362 . S
C1274 H1266 0.930 . S
C1274 C1273 1.362 . S
C1274 C1277 1.409 . S
C1275 H1267 0.930 . S
C1275 C1276 1.355 . S
C1275 C1277 1.415 . S
C1276 C1275 1.355 . S
C1276 C1278 1.419 . S
C1277 C1272 1.425 . S
C1277 C1274 1.409 . S
C1277 C1275 1.415 . S
C1278 H1268 0.930 . S
C1278 C1276 1.419 . S
C1278 C1279 1.362 . S
C1279 H1269 0.930 . S
C1279 C1272 1.409 . S
C1279 C1278 1.362 . S
H1280 C1286 0.930 . S
H1281 C1289 0.930 . S
H1282 C1290 0.925 1_556 S
H1283 C1291 0.930 . S
H1284 C1294 0.930 . S
H1285 C1295 0.930 . S
C1286 H1280 0.930 . S
C1286 C1287 1.355 . S
C1286 C1288 1.415 1_554 S
C1287 C1286 1.355 . S
C1287 C1289 1.419 . S
C1288 C1286 1.415 1_556 S
C1288 C1293 1.425 . S
C1288 C1295 1.409 . S
C1289 H1281 0.930 . S
C1289 C1287 1.419 . S
C1289 C1290 1.362 . S
C1290 H1282 0.925 1_554 S
C1290 C1289 1.362 . S
C1290 C1293 1.409 1_554 S
C1291 H1283 0.930 . S
C1291 C1292 1.355 . S
C1291 C1293 1.415 . S
C1292 C1291 1.355 . S
C1292 C1294 1.419 . S
C1293 C1288 1.425 . S
C1293 C1290 1.409 1_556 S
C1293 C1291 1.415 . S
C1294 H1284 0.930 . S
C1294 C1292 1.419 . S
C1294 C1295 1.362 . S
C1295 H1285 0.930 . S
C1295 C1288 1.409 . S
C1295 C1294 1.362 . S
H1296 C1302 0.930 . S
H1297 C1305 0.930 . S
H1298 C1306 0.930 . S
H1299 C1307 0.930 . S
H1300 C1310 0.930 . S
H1301 C1311 0.930 . S
C1302 H1296 0.930 . S
C1302 C1303 1.355 . S
C1302 C1304 1.415 . S
C1303 C1302 1.355 . S
C1303 C1305 1.419 . S
C1304 C1302 1.415 . S
C1304 C1309 1.425 . S
C1304 C1311 1.409 . S
C1305 H1297 0.930 . S
C1305 C1303 1.419 . S
C1305 C1306 1.362 . S
C1306 H1298 0.930 . S
C1306 C1305 1.362 . S
C1306 C1309 1.409 . S
C1307 H1299 0.930 . S
C1307 C1308 1.355 . S
C1307 C1309 1.415 . S
C1308 C1307 1.355 . S
C1308 C1310 1.419 . S
C1309 C1304 1.425 . S
C1309 C1306 1.409 . S
C1309 C1307 1.415 . S
C1310 H1300 0.930 . S
C1310 C1308 1.419 . S
C1310 C1311 1.362 . S
C1311 H1301 0.930 . S
C1311 C1304 1.409 . S
C1311 C1310 1.362 . S
H1312 C1318 0.930 . S
H1313 C1321 0.930 . S
H1314 C1322 0.930 . S
H1315 C1323 0.930 . S
H1316 C1326 0.930 . S
H1317 C1327 0.930 . S
C1318 H1312 0.930 . S
C1318 C1319 1.355 . S
C1318 C1320 1.415 . S
C1319 C1318 1.355 . S
C1319 C1321 1.419 . S
C1320 C1318 1.415 . S
C1320 C1325 1.425 . S
C1320 C1327 1.409 . S
C1321 H1313 0.930 . S
C1321 C1319 1.419 . S
C1321 C1322 1.362 . S
C1322 H1314 0.930 . S
C1322 C1321 1.362 . S
C1322 C1325 1.409 . S
C1323 H1315 0.930 . S
C1323 C1324 1.355 . S
C1323 C1325 1.415 . S
C1324 C1323 1.355 . S
C1324 C1326 1.419 . S
C1325 C1320 1.425 . S
C1325 C1322 1.409 . S
C1325 C1323 1.415 . S
C1326 H1316 0.930 . S
C1326 C1324 1.419 . S
C1326 C1327 1.362 . S
C1327 H1317 0.930 . S
C1327 C1320 1.409 . S
C1327 C1326 1.362 . S
H1328 C1334 0.930 . S
H1329 C1337 0.930 . S
H1330 C1338 0.930 . S
H1331 C1339 0.930 . S
H1332 C1342 0.930 . S
H1333 C1343 0.930 . S
C1334 H1328 0.930 . S
C1334 C1335 1.355 . S
C1334 C1336 1.415 . S
C1335 C1334 1.355 . S
C1335 C1337 1.419 . S
C1336 C1334 1.415 . S
C1336 C1341 1.425 . S
C1336 C1343 1.409 . S
C1337 H1329 0.930 . S
C1337 C1335 1.419 . S
C1337 C1338 1.362 . S
C1338 H1330 0.930 . S
C1338 C1337 1.362 . S
C1338 C1341 1.409 . S
C1339 H1331 0.930 . S
C1339 C1340 1.355 . S
C1339 C1341 1.415 . S
C1340 C1339 1.355 . S
C1340 C1342 1.419 . S
C1341 C1336 1.425 . S
C1341 C1338 1.409 . S
C1341 C1339 1.415 . S
C1342 H1332 0.930 . S
C1342 C1340 1.419 . S
C1342 C1343 1.362 . S
C1343 H1333 0.930 . S
C1343 C1336 1.409 . S
C1343 C1342 1.362 . S
H1344 C1350 0.930 . S
H1345 C1353 0.930 . S
H1346 C1354 0.930 . S
H1347 C1355 0.930 . S
H1348 C1358 0.930 . S
H1349 C1359 0.930 1_655 S
C1350 H1344 0.930 . S
C1350 C1351 1.355 . S
C1350 C1352 1.415 . S
C1351 C1350 1.355 . S
C1351 C1353 1.419 . S
C1352 C1350 1.415 . S
C1352 C1357 1.425 . S
C1352 C1359 1.409 . S
C1353 H1345 0.930 . S
C1353 C1351 1.419 . S
C1353 C1354 1.362 . S
C1354 H1346 0.930 . S
C1354 C1353 1.362 . S
C1354 C1357 1.409 . S
C1355 H1347 0.930 . S
C1355 C1356 1.355 . S
C1355 C1357 1.415 1_565 S
C1356 C1355 1.355 . S
C1356 C1358 1.419 1_455 S
C1357 C1352 1.425 . S
C1357 C1354 1.409 . S
C1357 C1355 1.415 1_545 S
C1358 H1348 0.930 . S
C1358 C1356 1.419 1_655 S
C1358 C1359 1.362 1_665 S
C1359 H1349 0.930 1_455 S
C1359 C1352 1.409 . S
C1359 C1358 1.362 1_445 S
H1360 C1366 0.930 . S
H1361 C1369 0.930 . S
H1362 C1370 0.930 . S
H1363 C1371 0.930 . S
H1364 C1374 0.930 . S
H1365 C1375 0.930 . S
C1366 H1360 0.930 . S
C1366 C1367 1.355 . S
C1366 C1368 1.415 . S
C1367 C1366 1.355 . S
C1367 C1369 1.419 . S
C1368 C1366 1.415 . S
C1368 C1373 1.425 . S
C1368 C1375 1.409 . S
C1369 H1361 0.930 . S
C1369 C1367 1.419 . S
C1369 C1370 1.362 . S
C1370 H1362 0.930 . S
C1370 C1369 1.362 . S
C1370 C1373 1.409 . S
C1371 H1363 0.930 . S
C1371 C1372 1.355 . S
C1371 C1373 1.415 . S
C1372 C1371 1.355 . S
C1372 C1374 1.419 . S
C1373 C1368 1.425 . S
C1373 C1370 1.409 . S
C1373 C1371 1.415 . S
C1374 H1364 0.930 . S
C1374 C1372 1.419 . S
C1374 C1375 1.362 . S
C1375 H1365 0.930 . S
C1375 C1368 1.409 . S
C1375 C1374 1.362 . S
H1376 C1382 0.930 . S
H1377 C1385 0.930 . S
H1378 C1386 0.930 . S
H1379 C1387 0.930 . S
H1380 C1390 0.930 . S
H1381 C1391 0.930 . S
C1382 H1376 0.930 . S
C1382 C1383 1.355 . S
C1382 C1384 1.415 1_545 S
C1383 C1382 1.355 . S
C1383 C1385 1.419 . S
C1384 C1382 1.415 1_565 S
C1384 C1389 1.425 . S
C1384 C1391 1.409 . S
C1385 H1377 0.930 . S
C1385 C1383 1.419 . S
C1385 C1386 1.362 . S
C1386 H1378 0.930 . S
C1386 C1385 1.362 . S
C1386 C1389 1.409 1_545 S
C1387 H1379 0.930 . S
C1387 C1388 1.355 . S
C1387 C1389 1.415 . S
C1388 C1387 1.355 . S
C1388 C1390 1.419 . S
C1389 C1384 1.425 . S
C1389 C1386 1.409 1_565 S
C1389 C1387 1.415 . S
C1390 H1380 0.930 . S
C1390 C1388 1.419 . S
C1390 C1391 1.362 . S
C1391 H1381 0.930 . S
C1391 C1384 1.409 . S
C1391 C1390 1.362 . S
H1392 C1398 0.930 . S
H1393 C1401 0.930 . S
H1394 C1402 0.930 . S
H1395 C1403 0.930 . S
H1396 C1406 0.930 . S
H1397 C1407 0.930 . S
C1398 H1392 0.930 . S
C1398 C1399 1.355 . S
C1398 C1400 1.415 . S
C1399 C1398 1.355 . S
C1399 C1401 1.419 . S
C1400 C1398 1.415 . S
C1400 C1405 1.425 . S
C1400 C1407 1.409 . S
C1401 H1393 0.930 . S
C1401 C1399 1.419 . S
C1401 C1402 1.362 . S
C1402 H1394 0.930 . S
C1402 C1401 1.362 . S
C1402 C1405 1.409 . S
C1403 H1395 0.930 . S
C1403 C1404 1.355 . S
C1403 C1405 1.415 . S
C1404 C1403 1.355 . S
C1404 C1406 1.419 . S
C1405 C1400 1.425 . S
C1405 C1402 1.409 . S
C1405 C1403 1.415 . S
C1406 H1396 0.930 . S
C1406 C1404 1.419 . S
C1406 C1407 1.362 . S
C1407 H1397 0.930 . S
C1407 C1400 1.409 . S
C1407 C1406 1.362 . S
H1408 C1414 0.930 . S
H1409 C1417 0.930 . S
H1410 C1418 0.930 . S
H1411 C1419 0.930 . S
H1412 C1422 0.930 . S
H1413 C1423 0.930 . S
C1414 H1408 0.930 . S
C1414 C1415 1.355 . S
C1414 C1416 1.415 . S
C1415 C1414 1.355 . S
C1415 C1417 1.419 . S
C1416 C1414 1.415 . S
C1416 C1421 1.425 . S
C1416 C1423 1.409 . S
C1417 H1409 0.930 . S
C1417 C1415 1.419 . S
C1417 C1418 1.362 . S
C1418 H1410 0.930 . S
C1418 C1417 1.362 . S
C1418 C1421 1.409 . S
C1419 H1411 0.930 . S
C1419 C1420 1.355 . S
C1419 C1421 1.415 . S
C1420 C1419 1.355 . S
C1420 C1422 1.419 . S
C1421 C1416 1.425 . S
C1421 C1418 1.409 . S
C1421 C1419 1.415 . S
C1422 H1412 0.930 . S
C1422 C1420 1.419 . S
C1422 C1423 1.362 . S
C1423 H1413 0.930 . S
C1423 C1416 1.409 . S
C1423 C1422 1.362 . S
H1424 C1430 0.930 . S
H1425 C1433 0.930 . S
H1426 C1434 0.930 . S
H1427 C1435 0.930 . S
H1428 C1438 0.930 . S
H1429 C1439 0.930 . S
C1430 H1424 0.930 . S
C1430 C1431 1.355 . S
C1430 C1432 1.415 . S
C1431 C1430 1.355 . S
C1431 C1433 1.419 . S
C1432 C1430 1.415 . S
C1432 C1437 1.425 . S
C1432 C1439 1.409 . S
C1433 H1425 0.930 . S
C1433 C1431 1.419 . S
C1433 C1434 1.362 . S
C1434 H1426 0.930 . S
C1434 C1433 1.362 . S
C1434 C1437 1.409 . S
C1435 H1427 0.930 . S
C1435 C1436 1.355 . S
C1435 C1437 1.415 . S
C1436 C1435 1.355 . S
C1436 C1438 1.419 . S
C1437 C1432 1.425 . S
C1437 C1434 1.409 . S
C1437 C1435 1.415 . S
C1438 H1428 0.930 . S
C1438 C1436 1.419 . S
C1438 C1439 1.362 . S
C1439 H1429 0.930 . S
C1439 C1432 1.409 . S
C1439 C1438 1.362 . S
H1440 C1446 0.930 . S
H1441 C1449 0.930 . S
H1442 C1450 0.930 . S
H1443 C1451 0.930 . S
H1444 C1454 0.930 . S
H1445 C1455 0.930 . S
C1446 H1440 0.930 . S
C1446 C1447 1.355 . S
C1446 C1448 1.415 . S
C1447 C1446 1.355 . S
C1447 C1449 1.419 . S
C1448 C1446 1.415 . S
C1448 C1453 1.425 . S
C1448 C1455 1.409 . S
C1449 H1441 0.930 . S
C1449 C1447 1.419 . S
C1449 C1450 1.362 . S
C1450 H1442 0.930 . S
C1450 C1449 1.362 . S
C1450 C1453 1.409 . S
C1451 H1443 0.930 . S
C1451 C1452 1.355 . S
C1451 C1453 1.415 . S
C1452 C1451 1.355 . S
C1452 C1454 1.419 . S
C1453 C1448 1.425 . S
C1453 C1450 1.409 . S
C1453 C1451 1.415 . S
C1454 H1444 0.930 . S
C1454 C1452 1.419 . S
C1454 C1455 1.362 . S
C1455 H1445 0.930 . S
C1455 C1448 1.409 . S
C1455 C1454 1.362 . S
H1456 C1462 0.930 . S
H1457 C1465 0.930 . S
H1458 C1466 0.930 . S
H1459 C1467 0.930 . S
H1460 C1470 0.930 . S
H1461 C1471 0.930 . S
C1462 H1456 0.930 . S
C1462 C1463 1.355 . S
C1462 C1464 1.415 . S
C1463 C1462 1.355 . S
C1463 C1465 1.419 . S
C1464 C1462 1.415 . S
C1464 C1469 1.425 . S
C1464 C1471 1.409 . S
C1465 H1457 0.930 . S
C1465 C1463 1.419 . S
C1465 C1466 1.362 . S
C1466 H1458 0.930 . S
C1466 C1465 1.362 . S
C1466 C1469 1.409 . S
C1467 H1459 0.930 . S
C1467 C1468 1.355 . S
C1467 C1469 1.415 . S
C1468 C1467 1.355 . S
C1468 C1470 1.419 . S
C1469 C1464 1.425 . S
C1469 C1466 1.409 . S
C1469 C1467 1.415 . S
C1470 H1460 0.930 . S
C1470 C1468 1.419 . S
C1470 C1471 1.362 . S
C1471 H1461 0.930 . S
C1471 C1464 1.409 . S
C1471 C1470 1.362 . S
H1472 C1478 0.930 . S
H1473 C1481 0.930 . S
H1474 C1482 0.930 . S
H1475 C1483 0.930 . S
H1476 C1486 0.930 . S
H1477 C1487 0.930 . S
C1478 H1472 0.930 . S
C1478 C1479 1.355 . S
C1478 C1480 1.415 . S
C1479 C1478 1.355 . S
C1479 C1481 1.419 . S
C1480 C1478 1.415 . S
C1480 C1485 1.425 . S
C1480 C1487 1.409 . S
C1481 H1473 0.930 . S
C1481 C1479 1.419 . S
C1481 C1482 1.362 . S
C1482 H1474 0.930 . S
C1482 C1481 1.362 . S
C1482 C1485 1.409 . S
C1483 H1475 0.930 . S
C1483 C1484 1.355 . S
C1483 C1485 1.415 . S
C1484 C1483 1.355 . S
C1484 C1486 1.419 . S
C1485 C1480 1.425 . S
C1485 C1482 1.409 . S
C1485 C1483 1.415 . S
C1486 H1476 0.930 . S
C1486 C1484 1.419 . S
C1486 C1487 1.362 . S
C1487 H1477 0.930 . S
C1487 C1480 1.409 . S
C1487 C1486 1.362 . S
H1488 C1494 0.930 . S
H1489 C1497 0.930 . S
H1490 C1498 0.930 . S
H1491 C1499 0.930 . S
H1492 C1502 0.930 . S
H1493 C1503 0.930 . S
C1494 H1488 0.930 . S
C1494 C1495 1.355 . S
C1494 C1496 1.415 . S
C1495 C1494 1.355 . S
C1495 C1497 1.419 . S
C1496 C1494 1.415 . S
C1496 C1501 1.425 . S
C1496 C1503 1.409 . S
C1497 H1489 0.930 . S
C1497 C1495 1.419 . S
C1497 C1498 1.362 . S
C1498 H1490 0.930 . S
C1498 C1497 1.362 . S
C1498 C1501 1.409 . S
C1499 H1491 0.930 . S
C1499 C1500 1.355 . S
C1499 C1501 1.415 1_655 S
C1500 C1499 1.355 . S
C1500 C1502 1.419 . S
C1501 C1496 1.425 . S
C1501 C1498 1.409 . S
C1501 C1499 1.415 1_455 S
C1502 H1492 0.930 . S
C1502 C1500 1.419 . S
C1502 C1503 1.362 1_655 S
C1503 H1493 0.930 . S
C1503 C1496 1.409 . S
C1503 C1502 1.362 1_455 S
H1504 C1510 0.930 . S
H1505 C1513 0.930 . S
H1506 C1514 0.930 . S
H1507 C1515 0.930 . S
H1508 C1518 0.930 . S
H1509 C1519 0.930 . S
C1510 H1504 0.930 . S
C1510 C1511 1.355 . S
C1510 C1512 1.415 . S
C1511 C1510 1.355 . S
C1511 C1513 1.419 . S
C1512 C1510 1.415 . S
C1512 C1517 1.425 . S
C1512 C1519 1.409 . S
C1513 H1505 0.930 . S
C1513 C1511 1.419 . S
C1513 C1514 1.362 . S
C1514 H1506 0.930 . S
C1514 C1513 1.362 . S
C1514 C1517 1.409 . S
C1515 H1507 0.930 . S
C1515 C1516 1.355 . S
C1515 C1517 1.415 . S
C1516 C1515 1.355 . S
C1516 C1518 1.419 . S
C1517 C1512 1.425 . S
C1517 C1514 1.409 . S
C1517 C1515 1.415 . S
C1518 H1508 0.930 . S
C1518 C1516 1.419 . S
C1518 C1519 1.362 . S
C1519 H1509 0.930 . S
C1519 C1512 1.409 . S
C1519 C1518 1.362 . S
H1520 C1526 0.930 . S
H1521 C1529 0.930 . S
H1522 C1530 0.930 . S
H1523 C1531 0.930 . S
H1524 C1534 0.930 . S
H1525 C1535 0.930 . S
C1526 H1520 0.930 . S
C1526 C1527 1.355 . S
C1526 C1528 1.415 . S
C1527 C1526 1.355 . S
C1527 C1529 1.419 . S
C1528 C1526 1.415 . S
C1528 C1533 1.425 . S
C1528 C1535 1.409 . S
C1529 H1521 0.930 . S
C1529 C1527 1.419 . S
C1529 C1530 1.362 . S
C1530 H1522 0.930 . S
C1530 C1529 1.362 . S
C1530 C1533 1.409 . S
C1531 H1523 0.930 . S
C1531 C1532 1.355 . S
C1531 C1533 1.415 . S
C1532 C1531 1.355 . S
C1532 C1534 1.419 . S
C1533 C1528 1.425 . S
C1533 C1530 1.409 . S
C1533 C1531 1.415 . S
C1534 H1524 0.930 . S
C1534 C1532 1.419 . S
C1534 C1535 1.362 . S
C1535 H1525 0.930 . S
C1535 C1528 1.409 . S
C1535 C1534 1.362 . S
H1536 C1542 0.930 . S
H1537 C1545 0.930 . S
H1538 C1546 0.930 . S
H1539 C1547 0.930 . S
H1540 C1550 0.930 . S
H1541 C1551 0.930 . S
C1542 H1536 0.930 . S
C1542 C1543 1.355 . S
C1542 C1544 1.415 . S
C1543 C1542 1.355 . S
C1543 C1545 1.419 . S
C1544 C1542 1.415 . S
C1544 C1549 1.425 . S
C1544 C1551 1.409 . S
C1545 H1537 0.930 . S
C1545 C1543 1.419 . S
C1545 C1546 1.362 . S
C1546 H1538 0.930 . S
C1546 C1545 1.362 . S
C1546 C1549 1.409 . S
C1547 H1539 0.930 . S
C1547 C1548 1.355 . S
C1547 C1549 1.415 . S
C1548 C1547 1.355 . S
C1548 C1550 1.419 . S
C1549 C1544 1.425 . S
C1549 C1546 1.409 . S
C1549 C1547 1.415 . S
C1550 H1540 0.930 . S
C1550 C1548 1.419 . S
C1550 C1551 1.362 . S
C1551 H1541 0.930 . S
C1551 C1544 1.409 . S
C1551 C1550 1.362 . S
H1552 C1558 0.930 . S
H1553 C1561 0.930 . S
H1554 C1562 0.930 . S
H1555 C1563 0.930 . S
H1556 C1566 0.930 . S
H1557 C1567 0.930 . S
C1558 H1552 0.930 . S
C1558 C1559 1.355 . S
C1558 C1560 1.415 . S
C1559 C1558 1.355 . S
C1559 C1561 1.419 . S
C1560 C1558 1.415 . S
C1560 C1565 1.425 . S
C1560 C1567 1.409 . S
C1561 H1553 0.930 . S
C1561 C1559 1.419 . S
C1561 C1562 1.362 . S
C1562 H1554 0.930 . S
C1562 C1561 1.362 . S
C1562 C1565 1.409 . S
C1563 H1555 0.930 . S
C1563 C1564 1.355 . S
C1563 C1565 1.415 . S
C1564 C1563 1.355 . S
C1564 C1566 1.419 . S
C1565 C1560 1.425 . S
C1565 C1562 1.409 . S
C1565 C1563 1.415 . S
C1566 H1556 0.930 . S
C1566 C1564 1.419 . S
C1566 C1567 1.362 . S
C1567 H1557 0.930 . S
C1567 C1560 1.409 . S
C1567 C1566 1.362 . S
H1568 C1574 0.930 . S
H1569 C1577 0.930 . S
H1570 C1578 0.930 . S
H1571 C1579 0.930 . S
H1572 C1582 0.930 . S
H1573 C1583 0.930 . S
C1574 H1568 0.930 . S
C1574 C1575 1.355 . S
C1574 C1576 1.415 . S
C1575 C1574 1.355 . S
C1575 C1577 1.419 . S
C1576 C1574 1.415 . S
C1576 C1581 1.425 . S
C1576 C1583 1.409 . S
C1577 H1569 0.930 . S
C1577 C1575 1.419 . S
C1577 C1578 1.362 . S
C1578 H1570 0.930 . S
C1578 C1577 1.362 . S
C1578 C1581 1.409 . S
C1579 H1571 0.930 . S
C1579 C1580 1.355 . S
C1579 C1581 1.415 1_455 S
C1580 C1579 1.355 . S
C1580 C1582 1.419 . S
C1581 C1576 1.425 . S
C1581 C1578 1.409 . S
C1581 C1579 1.415 1_655 S
C1582 H1572 0.930 . S
C1582 C1580 1.419 . S
C1582 C1583 1.362 1_455 S
C1583 H1573 0.930 . S
C1583 C1576 1.409 . S
C1583 C1582 1.362 1_655 S
C1015 C67 1.529 . S
C1020 C987 1.660 . S
C1031 C823 1.616 1_565 S
C1036 C147 1.727 . S
C1047 C231 1.522 . S
C1052 C735 1.534 . S
C1063 C315 1.559 . S
C1068 C903 1.578 . S
C1079 C399 1.641 . S
C1084 C907 1.609 . S
C1095 C487 1.699 . S
C1100 C991 1.715 . S
C1111 C819 1.556 . S
C1116 C567 1.638 . S
C1127 C651 1.603 . S
C1132 C739 1.608 . S
C1143 C319 1.631 . S
C1148 C403 1.658 . S
C1159 C63 1.543 . S
C1164 C483 1.563 . S
C1175 C151 1.629 1_655 S
C1180 C571 1.618 . S
C1191 C655 1.652 . S
C1196 C235 1.641 . S
C1207 C70 1.707 . S
C1212 C746 1.780 . S
C1223 C142 1.410 . S
C1228 C914 1.634 . S
C1239 C998 1.715 . S
C1244 C226 1.422 . S
C1255 C310 1.505 . S
C1260 C812 1.801 . S
C1271 C394 1.383 . S
C1276 C830 1.633 . S
C1287 C728 1.901 . S
C1292 C490 1.781 . S
C1303 C896 1.815 . S
C1308 C562 1.612 . S
C1319 C980 1.778 . S
C1324 C646 1.580 . S
C1335 C74 1.824 . S
C1340 C322 1.650 . S
C1351 C58 1.505 . S
C1356 C140 1.771 . S
C1367 C154 1.705 . S
C1372 C224 1.884 . S
C1383 C308 1.801 . S
C1388 C238 1.640 . S
C1399 C478 1.493 . S
C1404 C392 1.767 . S
C1415 C494 1.671 . S
C1420 C574 1.628 . S
C1431 C560 1.804 . S
C1436 C658 1.682 . S
C1447 C406 1.601 . S
C1452 C644 1.777 . S
C1463 C742 1.616 . S
C1468 C326 1.748 . S
C1479 C476 1.820 . S
C1484 C826 1.642 . S
C1495 C730 1.468 . S
C1500 C578 1.686 . S
C1511 C898 1.463 . S
C1516 C662 1.637 . S
C1527 C410 1.647 . S
C1532 C982 1.386 . S
C1543 C994 1.539 . S
C1548 C158 1.685 . S
C1559 C242 1.613 . S
C1564 C814 1.436 . S
C1575 C910 1.641 . S
C1580 C56 1.806 . S
