# Generated by pormake.
# Topology npo, (4)-cn, num edge types: 1
# Building blocks:
#     Node 0, Type 0, BuildingBlock: NAHDIM_clean_sbu_0, # of connection points: 4
#     Node 1, Type 0, BuildingBlock: NAHDIM_clean_sbu_0, # of connection points: 4
#     Node 2, Type 0, BuildingBlock: NAHDIM_clean_sbu_0, # of connection points: 4
#     Node 3, Type 0, BuildingBlock: NAHDIM_clean_sbu_0, # of connection points: 4
#     Node 4, Type 0, BuildingBlock: NAHDIM_clean_sbu_0, # of connection points: 4
#     Node 5, Type 0, BuildingBlock: NAHDIM_clean_sbu_0, # of connection points: 4
#     Edge 6, Type (0, 0), BuildingBlock: UVAHIK_clean_linker_0, # of connection points: 2
#     Edge 7, Type (0, 0), BuildingBlock: UVAHIK_clean_linker_0, # of connection points: 2
#     Edge 8, Type (0, 0), BuildingBlock: UVAHIK_clean_linker_0, # of connection points: 2
#     Edge 9, Type (0, 0), BuildingBlock: UVAHIK_clean_linker_0, # of connection points: 2
#     Edge 10, Type (0, 0), BuildingBlock: UVAHIK_clean_linker_0, # of connection points: 2
#     Edge 11, Type (0, 0), BuildingBlock: UVAHIK_clean_linker_0, # of connection points: 2
#     Edge 12, Type (0, 0), BuildingBlock: UVAHIK_clean_linker_0, # of connection points: 2
#     Edge 13, Type (0, 0), BuildingBlock: UVAHIK_clean_linker_0, # of connection points: 2
#     Edge 14, Type (0, 0), BuildingBlock: UVAHIK_clean_linker_0, # of connection points: 2
#     Edge 15, Type (0, 0), BuildingBlock: UVAHIK_clean_linker_0, # of connection points: 2
#     Edge 16, Type (0, 0), BuildingBlock: UVAHIK_clean_linker_0, # of connection points: 2
#     Edge 17, Type (0, 0), BuildingBlock: UVAHIK_clean_linker_0, # of connection points: 2
# Relax obj value: 0.249
# Max RMSD: 0.223
# Mean RMSD: 0.223
data_MOF--net-npo--node1-NAHDIM_clean_sbu_0--edge1-UVAHIK_clean_linker_0
_symmetry_space_group_name_H-M    P1
_symmetry_Int_Tables_number       1
_symmetry_cell_setting            triclinic
loop_
_symmetry_equiv_pos_as_xyz
'x, y, z'
_cell_length_a     52.928112
_cell_length_b     55.992209
_cell_length_c     32.635892
_cell_angle_alpha  92.009616
_cell_angle_beta   90.423591
_cell_angle_gamma 118.3652
loop_
_atom_site_label
_atom_site_type_symbol
_atom_site_fract_x
_atom_site_fract_y
_atom_site_fract_z
_atom_type_partial_charge
C0 C 0.48825 0.05468 0.30242 0.0
O1 O 0.4686 0.04908 0.27349 0.0
O2 O 0.56762 0.11804 0.25028 0.0
Zn3 Zn 0.52469 0.0958 0.24828 0.0
O4 O 0.51143 0.07096 0.19808 0.0
C5 C 0.49255 0.12343 0.22177 0.0
O6 O 0.48746 0.10872 0.18748 0.0
O7 O 0.51355 0.07374 0.29788 0.0
C8 C 0.52139 0.07903 0.16299 0.0
O9 O 0.54069 0.10453 0.15916 0.0
C10 C 0.58424 0.10922 0.23675 0.0
O11 O 0.57328 0.08462 0.2197 0.0
O12 O 0.50727 0.12085 0.25056 0.0
C13 C 0.49748 0.57085 0.64091 0.0
O14 O 0.52118 0.58579 0.66268 0.0
O15 O 0.43203 0.57618 0.71963 0.0
Zn16 Zn 0.4729 0.5879 0.70564 0.0
O17 O 0.49098 0.57841 0.75187 0.0
C18 C 0.51585 0.64609 0.7129 0.0
O19 O 0.53146 0.63902 0.7359 0.0
O20 O 0.47388 0.56864 0.65356 0.0
C21 C 0.49107 0.58806 0.78769 0.0
O22 O 0.48059 0.605 0.79292 0.0
C23 C 0.41203 0.55206 0.71266 0.0
O24 O 0.41806 0.53389 0.69534 0.0
O25 O 0.49188 0.62798 0.69775 0.0
C26 C 0.93634 0.43099 0.31697 0.0
O27 O 0.94099 0.44453 0.28333 0.0
O28 O 0.86042 0.40885 0.27117 0.0
Zn29 Zn 0.88701 0.39265 0.27027 0.0
O30 O 0.90854 0.40316 0.21819 0.0
C31 C 0.85713 0.33564 0.24222 0.0
O32 O 0.86848 0.34485 0.20676 0.0
O33 O 0.91435 0.40778 0.31848 0.0
C34 C 0.92668 0.39591 0.20597 0.0
O35 O 0.93242 0.37991 0.22827 0.0
C36 C 0.84524 0.40542 0.23897 0.0
O37 O 0.84775 0.39169 0.2072 0.0
O38 O 0.86277 0.35216 0.2729 0.0
C39 C 0.43635 0.91017 0.67353 0.0
O40 O 0.45798 0.91704 0.6996 0.0
O41 O 0.43153 0.85087 0.72647 0.0
Zn42 Zn 0.40841 0.87069 0.7323 0.0
O43 O 0.42341 0.89749 0.77996 0.0
C44 C 0.34664 0.84793 0.72716 0.0
O45 O 0.35254 0.86879 0.70452 0.0
O46 O 0.41209 0.89039 0.68113 0.0
C47 C 0.41738 0.8892 0.8161 0.0
O48 O 0.40133 0.86311 0.82137 0.0
C49 C 0.45628 0.85958 0.74324 0.0
O50 O 0.46726 0.88207 0.76636 0.0
O51 O 0.36703 0.84451 0.74148 0.0
C52 C 0.54461 0.47477 0.14479 0.0
O53 O 0.55505 0.4896 0.17893 0.0
O54 O 0.58649 0.44129 0.19531 0.0
Zn55 Zn 0.54562 0.4345 0.19443 0.0
O56 O 0.53898 0.45228 0.24449 0.0
C57 C 0.51532 0.38287 0.22908 0.0
O58 O 0.52606 0.39815 0.26276 0.0
O59 O 0.53849 0.4499 0.14391 0.0
C60 C 0.51456 0.44952 0.254 0.0
O61 O 0.49214 0.43469 0.22977 0.0
C62 C 0.60357 0.45259 0.22595 0.0
O63 O 0.59468 0.4609 0.25818 0.0
O64 O 0.52015 0.39411 0.19477 0.0
C65 C 0.06412 0.5063 0.83144 0.0
O66 O 0.07399 0.4945 0.80548 0.0
O67 O 0.13187 0.5457 0.78396 0.0
Zn68 Zn 0.09727 0.55168 0.78303 0.0
O69 O 0.07722 0.53871 0.72826 0.0
C70 C 0.10138 0.60543 0.7752 0.0
O71 O 0.0785 0.59298 0.7509 0.0
O72 O 0.07092 0.53112 0.82764 0.0
C73 C 0.0901 0.54996 0.69609 0.0
O74 O 0.11612 0.5707 0.6995 0.0
C75 C 0.13358 0.52743 0.76176 0.0
O76 O 0.1118 0.51123 0.73741 0.0
O77 O 0.11167 0.59171 0.79211 0.0
C78 C 0.47711 0.15479 0.19066 0.0
C79 C 0.48375 0.14475 0.22568 0.0
C80 C 0.47248 0.17736 0.19408 0.0
C81 C 0.49267 0.23721 0.26333 0.0
H82 H 0.44418 0.25139 0.18926 0.0
C83 C 0.49653 0.3408 0.26894 0.0
C84 C 0.50115 0.35296 0.23085 0.0
C85 C 0.48715 0.313 0.27089 0.0
C86 C 0.45776 0.24765 0.21019 0.0
H87 H 0.48845 0.14898 0.29199 0.0
H88 H 0.4795 0.18775 0.29812 0.0
H89 H 0.44055 0.20615 0.18855 0.0
H90 H 0.49758 0.34519 0.1649 0.0
H91 H 0.48156 0.29667 0.16836 0.0
H92 H 0.51036 0.27867 0.28435 0.0
C93 C 0.47884 0.17886 0.26786 0.0
C94 C 0.45575 0.2218 0.20973 0.0
C95 C 0.48384 0.15657 0.26438 0.0
C96 C 0.49437 0.33645 0.19473 0.0
C97 C 0.48502 0.3086 0.1967 0.0
C98 C 0.49453 0.26288 0.26395 0.0
C99 C 0.47407 0.19011 0.23265 0.0
C100 C 0.47357 0.21643 0.23584 0.0
C101 C 0.48224 0.29678 0.23482 0.0
C102 C 0.47748 0.26854 0.23695 0.0
H103 H 0.47688 0.14608 0.16041 0.0
H104 H 0.46912 0.1856 0.16628 0.0
H105 H 0.50719 0.23408 0.28324 0.0
H106 H 0.50118 0.3529 0.29735 0.0
H107 H 0.4847 0.30435 0.30071 0.0
C108 C 0.35912 0.51998 0.70903 0.0
C109 C 0.3822 0.54491 0.72296 0.0
C110 C 0.33086 0.514 0.71711 0.0
C111 C 0.2872 0.53344 0.78416 0.0
H112 H 0.23363 0.50963 0.69113 0.0
C113 C 0.18501 0.54502 0.78335 0.0
C114 C 0.1603 0.52522 0.76215 0.0
C115 C 0.21073 0.54383 0.78189 0.0
C116 C 0.24808 0.51575 0.71766 0.0
H117 H 0.39384 0.58275 0.75737 0.0
H118 H 0.34463 0.57228 0.77142 0.0
H119 H 0.28115 0.51359 0.68298 0.0
H120 H 0.1429 0.48807 0.72401 0.0
H121 H 0.18771 0.48571 0.72207 0.0
H122 H 0.25431 0.53593 0.81877 0.0
C123 C 0.34834 0.55733 0.75441 0.0
C124 C 0.27533 0.51805 0.71294 0.0
C125 C 0.37652 0.5634 0.74606 0.0
C126 C 0.16164 0.50377 0.74039 0.0
C127 C 0.18735 0.50248 0.73914 0.0
C128 C 0.25989 0.53097 0.78897 0.0
C129 C 0.32521 0.53272 0.73962 0.0
C130 C 0.29535 0.52744 0.74592 0.0
C131 C 0.21229 0.52269 0.75943 0.0
C132 C 0.24021 0.52264 0.75555 0.0
H133 H 0.36281 0.50529 0.69123 0.0
H134 H 0.31341 0.4948 0.70559 0.0
H135 H 0.3021 0.54037 0.81025 0.0
H136 H 0.18472 0.56186 0.80032 0.0
H137 H 0.22961 0.55998 0.79735 0.0
C138 C 0.63395 0.12221 0.2136 0.0
C139 C 0.61561 0.12679 0.23985 0.0
C140 C 0.66351 0.13997 0.21518 0.0
C141 C 0.72222 0.19158 0.28016 0.0
H142 H 0.75375 0.2275 0.17929 0.0
C143 C 0.81732 0.29875 0.27913 0.0
C144 C 0.83519 0.30692 0.24518 0.0
C145 C 0.79416 0.27259 0.27969 0.0
C146 C 0.74571 0.21728 0.20758 0.0
H147 H 0.61382 0.15275 0.2894 0.0
H148 H 0.66543 0.1834 0.29261 0.0
H149 H 0.70599 0.18839 0.17817 0.0
H150 H 0.84408 0.29353 0.18648 0.0
H151 H 0.8041 0.24751 0.18797 0.0
H152 H 0.76167 0.22054 0.30982 0.0
C153 C 0.65696 0.16621 0.27072 0.0
C154 C 0.71826 0.19491 0.20687 0.0
C155 C 0.62743 0.14882 0.26863 0.0
C156 C 0.83045 0.2879 0.21287 0.0
C157 C 0.80744 0.26157 0.21364 0.0
C158 C 0.74985 0.21369 0.28081 0.0
C159 C 0.6752 0.16218 0.24364 0.0
C160 C 0.70593 0.18248 0.24337 0.0
C161 C 0.78851 0.25383 0.24653 0.0
C162 C 0.76153 0.22746 0.24477 0.0
H163 H 0.62538 0.10539 0.19109 0.0
H164 H 0.67722 0.13652 0.19397 0.0
H165 H 0.71323 0.18206 0.30863 0.0
H166 H 0.82037 0.31293 0.30452 0.0
H167 H 0.77988 0.26761 0.30528 0.0
C168 C 0.49704 0.8505 0.76088 0.0
C169 C 0.47253 0.84448 0.73655 0.0
C170 C 0.51164 0.8354 0.75538 0.0
C171 C 0.52065 0.78815 0.68241 0.0
H172 H 0.52942 0.75462 0.77963 0.0
C173 C 0.50926 0.68209 0.67945 0.0
C174 C 0.52381 0.67496 0.70869 0.0
C175 C 0.51297 0.70844 0.67937 0.0
C176 C 0.52794 0.76431 0.75224 0.0
H177 H 0.44469 0.81858 0.68653 0.0
H178 H 0.47012 0.79235 0.67697 0.0
H179 H 0.51687 0.79113 0.78659 0.0
H180 H 0.55527 0.69031 0.75895 0.0
H181 H 0.56176 0.73661 0.75886 0.0
H182 H 0.53053 0.76058 0.64793 0.0
C183 C 0.47816 0.80879 0.70013 0.0
C184 C 0.52065 0.78519 0.75626 0.0
C185 C 0.46341 0.82363 0.70591 0.0
C186 C 0.54366 0.6952 0.73615 0.0
C187 C 0.54727 0.72165 0.73624 0.0
C188 C 0.52809 0.76739 0.6784 0.0
C189 C 0.50222 0.8143 0.72509 0.0
C190 C 0.51574 0.79648 0.72128 0.0
C191 C 0.53129 0.7283 0.70861 0.0
C192 C 0.53055 0.75443 0.71316 0.0
H193 H 0.50462 0.8665 0.7847 0.0
H194 H 0.53015 0.84006 0.775 0.0
H195 H 0.51752 0.79689 0.65499 0.0
H196 H 0.49399 0.66701 0.65764 0.0
H197 H 0.50006 0.71271 0.65795 0.0
C198 C 0.64149 0.44465 0.19255 0.0
C199 C 0.6324 0.45449 0.22643 0.0
C200 C 0.66778 0.44451 0.19411 0.0
C201 C 0.71876 0.44219 0.26817 0.0
H202 H 0.76692 0.45609 0.17354 0.0
C203 C 0.8211 0.43014 0.27167 0.0
C204 C 0.82439 0.41593 0.23755 0.0
C205 C 0.80051 0.43904 0.27073 0.0
C206 C 0.75362 0.45204 0.20017 0.0
H207 H 0.6443 0.47289 0.28796 0.0
H208 H 0.69031 0.47276 0.29055 0.0
H209 H 0.72583 0.46466 0.17098 0.0
H210 H 0.80908 0.40042 0.17539 0.0
H211 H 0.773 0.41561 0.17397 0.0
H212 H 0.74604 0.42892 0.29701 0.0
C213 C 0.67689 0.46484 0.26299 0.0
C214 C 0.73012 0.45697 0.1987 0.0
C215 C 0.6506 0.46502 0.26141 0.0
C216 C 0.8071 0.41131 0.20221 0.0
C217 C 0.78655 0.4202 0.20127 0.0
C218 C 0.74223 0.43725 0.26962 0.0
C219 C 0.68556 0.4542 0.22958 0.0
C220 C 0.71215 0.45164 0.23244 0.0
C221 C 0.78283 0.43394 0.23564 0.0
C222 C 0.75962 0.44166 0.23538 0.0
H223 H 0.628 0.43643 0.1651 0.0
H224 H 0.67367 0.43589 0.16803 0.0
H225 H 0.7051 0.43753 0.29447 0.0
H226 H 0.8342 0.43416 0.2993 0.0
H227 H 0.79837 0.44984 0.29753 0.0
C228 C 0.29363 0.82813 0.71357 0.0
C229 C 0.31659 0.82855 0.73611 0.0
C230 C 0.26531 0.80891 0.72111 0.0
C231 C 0.21976 0.76071 0.79729 0.0
H232 H 0.17629 0.71542 0.70285 0.0
C233 C 0.14109 0.64828 0.80633 0.0
C234 C 0.11781 0.63541 0.77823 0.0
C235 C 0.15976 0.67604 0.80498 0.0
C236 C 0.18767 0.72822 0.72953 0.0
H237 H 0.32787 0.80988 0.78516 0.0
H238 H 0.27859 0.77652 0.79832 0.0
H239 H 0.2205 0.75726 0.69281 0.0
H240 H 0.09456 0.64192 0.72864 0.0
H241 H 0.12726 0.69068 0.72638 0.0
H242 H 0.18753 0.73118 0.83411 0.0
C243 C 0.28241 0.79104 0.77495 0.0
C244 C 0.21307 0.75218 0.72373 0.0
C245 C 0.31066 0.80997 0.76711 0.0
C246 C 0.11243 0.65124 0.75056 0.0
C247 C 0.13123 0.67912 0.74911 0.0
C248 C 0.19427 0.73687 0.80309 0.0
C249 C 0.25947 0.79009 0.75173 0.0
C250 C 0.22994 0.76804 0.75762 0.0
C251 C 0.1556 0.69164 0.77548 0.0
C252 C 0.1786 0.71976 0.76933 0.0
H253 H 0.29756 0.84224 0.68953 0.0
H254 H 0.24799 0.8086 0.70281 0.0
H255 H 0.23213 0.77287 0.82392 0.0
H256 H 0.14572 0.63669 0.82826 0.0
H257 H 0.17845 0.68489 0.82547 0.0
C258 C 0.42036 0.89999 0.89156 0.0
C259 C 0.42846 0.90872 0.85165 0.0
C260 C 0.43068 0.91855 0.9251 0.0
C261 C 0.48916 0.98579 0.95814 0.0
H262 H 0.43638 0.98266 0.04218 0.0
C263 C 0.52073 0.0687 0.0876 0.0
C264 C 0.51116 0.05982 0.127 0.0
C265 C 0.51084 0.05041 0.05367 0.0
C266 C 0.45145 0.98361 0.01921 0.0
H267 H 0.45389 0.94371 0.8156 0.0
H268 H 0.4718 0.97608 0.87419 0.0
H269 H 0.41883 0.95016 0.98372 0.0
H270 H 0.48393 0.02477 0.16183 0.0
H271 H 0.46702 -0.00711 0.10282 0.0
H272 H 0.52183 0.01914 -0.00626 0.0
C273 C 0.45764 0.95486 0.87953 0.0
C274 C 0.44139 0.965 0.98575 0.0
C275 C 0.44723 0.93634 0.84597 0.0
C276 C 0.49161 0.0323 0.13184 0.0
C277 C 0.48178 0.01404 0.09798 0.0
C278 C 0.49925 0.00436 -0.00831 0.0
C279 C 0.4494 0.94617 0.9194 0.0
C280 C 0.46014 0.96589 0.95491 0.0
C281 C 0.49121 0.0229 0.05852 0.0
C282 C 0.48051 0.00343 0.02261 0.0
H283 H 0.40597 0.87883 0.89694 0.0
H284 H 0.42424 0.91124 0.95557 0.0
H285 H 0.50416 0.98672 0.93505 0.0
H286 H 0.53575 0.0898 0.08288 0.0
H287 H 0.51824 0.05791 0.02357 0.0
C288 C 0.53571 0.47715 0.31891 0.0
C289 C 0.5115 0.46187 0.2931 0.0
C290 C 0.53298 0.48806 0.35661 0.0
C291 C 0.48619 0.50809 0.4142 0.0
H292 H 0.5288 0.50374 0.50832 0.0
C293 C 0.4728 0.54176 0.57818 0.0
C294 C 0.49817 0.55714 0.60178 0.0
C295 C 0.47346 0.52917 0.54083 0.0
C296 C 0.51698 0.50532 0.48225 0.0
H297 H 0.46546 0.44635 0.28636 0.0
H298 H 0.4607 0.46542 0.35258 0.0
H299 H 0.53142 0.48354 0.4422 0.0
H300 H 0.54409 0.57125 0.60482 0.0
H301 H 0.54524 0.5494 0.53944 0.0
H302 H 0.47189 0.53004 0.45429 0.0
C303 C 0.4818 0.46904 0.34338 0.0
C304 C 0.51847 0.49375 0.44441 0.0
C305 C 0.48453 0.45806 0.30556 0.0
C306 C 0.52417 0.5595 0.5874 0.0
C307 C 0.52481 0.54687 0.55006 0.0
C308 C 0.4847 0.51967 0.4521 0.0
C309 C 0.506 0.48396 0.36941 0.0
C310 C 0.50331 0.49524 0.4099 0.0
C311 C 0.49947 0.53164 0.52634 0.0
C312 C 0.50027 0.5186 0.48643 0.0
H313 H 0.55683 0.4806 0.31018 0.0
H314 H 0.5521 0.49988 0.37566 0.0
H315 H 0.47452 0.5098 0.38805 0.0
H316 H 0.4524 0.53947 0.58846 0.0
H317 H 0.45354 0.51729 0.52346 0.0
C318 C 0.04468 0.46625 0.87586 0.0
C319 C 0.04672 0.49134 0.86607 0.0
C320 C 0.02973 0.4529 0.91018 0.0
C321 C 0.97459 0.44808 0.98152 0.0
H322 H 0.01493 0.42687 0.05988 0.0
C323 C 0.93796 0.42576 0.14663 0.0
C324 C 0.94015 0.40481 0.16607 0.0
C325 C 0.94978 0.4339 0.10839 0.0
C326 C 0.00312 0.43219 0.03803 0.0
H327 H 0.03395 0.52171 0.88368 0.0
H328 H 0.00758 0.49821 0.9434 0.0
H329 H 0.03683 0.44482 -0.00526 0.0
H330 H 0.95646 0.37593 0.16074 0.0
H331 H 0.97674 0.38983 0.09321 0.0
H332 H 0.94086 0.43548 0.02448 0.0
C333 C 0.0176 0.48894 0.92454 0.0
C334 C 0.01571 0.44252 0.00079 0.0
C335 C 0.03283 0.50244 0.89053 0.0
C336 C 0.95459 0.39224 0.14655 0.0
C337 C 0.96624 0.40025 0.10795 0.0
C338 C 0.96187 0.43751 0.01851 0.0
C339 C 0.01624 0.46424 0.93496 0.0
C340 C 0.00177 0.45102 0.97259 0.0
C341 C 0.96384 0.42111 0.08838 0.0
C342 C 0.97626 0.42999 0.04758 0.0
H343 H 0.05516 0.45718 0.85757 0.0
H344 H 0.0288 0.43377 0.91746 0.0
H345 H 0.96324 0.45414 0.95997 0.0
H346 H 0.92719 0.43603 0.16106 0.0
H347 H 0.94815 0.45048 0.09472 0.0
C348 C 0.45341 0.01809 0.34612 0.0
C349 C 0.48122 0.03933 0.34025 0.0
C350 C 0.44699 0.0039 0.38228 0.0
C351 C 0.47244 0.0103 0.48951 0.0
H352 H 0.42865 0.93165 0.48548 0.0
C353 C 0.467 0.94708 0.62735 0.0
C354 C 0.44023 0.92504 0.63566 0.0
C355 C 0.47072 0.96102 0.5914 0.0
C356 C 0.4406 0.95364 0.48711 0.0
H357 H 0.52415 0.0622 0.36747 0.0
H358 H 0.51299 0.03736 0.4301 0.0
H359 H 0.43718 0.956 0.42213 0.0
H360 H 0.39631 0.90036 0.61291 0.0
H361 H 0.40284 0.92487 0.55022 0.0
H362 H 0.4761 0.00798 0.55436 0.0
C363 C 0.49604 0.0319 0.40713 0.0
C364 C 0.44546 0.96755 0.45089 0.0
C365 C 0.50246 0.04601 0.37108 0.0
C366 C 0.41724 0.91724 0.60733 0.0
C367 C 0.42098 0.93116 0.57134 0.0
C368 C 0.4676 -0.00359 0.52567 0.0
C369 C 0.46824 0.01078 0.41319 0.0
C370 C 0.46169 -0.00399 0.4517 0.0
C371 C 0.44776 0.9532 0.56303 0.0
C372 C 0.45188 0.96793 0.5248 0.0
H373 H 0.43658 0.01248 0.32292 0.0
H374 H 0.42531 0.98781 0.38628 0.0
H375 H 0.48459 0.03227 0.49115 0.0
H376 H 0.48515 0.95353 0.6485 0.0
H377 H 0.49172 0.97771 0.58554 0.0
C378 C 0.50366 0.59121 0.86241 0.0
C379 C 0.50069 0.57867 0.82333 0.0
C380 C 0.51074 0.58104 0.8966 0.0
C381 C 0.50383 0.51789 0.93413 0.0
H382 H 0.56135 0.56394 0.01624 0.0
C383 C 0.53499 0.47304 0.06935 0.0
C384 C 0.54049 0.487 0.10771 0.0
C385 C 0.53143 0.48475 0.0342 0.0
C386 C 0.54495 0.55084 -0.00613 0.0
H387 H 0.50353 0.54607 0.78922 0.0
H388 H 0.51561 0.52821 0.84907 0.0
H389 H 0.55334 0.58398 0.95551 0.0
H390 H 0.5463 0.52402 0.13946 0.0
H391 H 0.53924 0.54411 0.07836 0.0
H392 H 0.49475 0.48486 0.97267 0.0
C393 C 0.51238 0.54584 0.85317 0.0
C394 C 0.54049 0.56232 0.95906 0.0
C395 C 0.50562 0.55617 0.81894 0.0
C396 C 0.54224 0.51283 0.11027 0.0
C397 C 0.53839 0.52443 0.07518 0.0
C398 C 0.50805 0.50645 0.96909 0.0
C399 C 0.51467 0.55799 0.89235 0.0
C400 C 0.51992 0.54593 0.92888 0.0
C401 C 0.53298 0.51054 0.0367 0.0
C402 C 0.52868 0.52277 -0.00061 0.0
H403 H 0.50007 0.60863 0.86672 0.0
H404 H 0.51223 0.59068 0.92654 0.0
H405 H 0.48751 0.50487 0.91159 0.0
H406 H 0.53374 0.45318 0.06635 0.0
H407 H 0.52779 0.47368 0.005 0.0
C408 C 0.08916 0.55254 0.61967 0.0
C409 C 0.07654 0.53883 0.65532 0.0
C410 C 0.0766 0.54147 0.58108 0.0
C411 C 0.02818 0.47664 0.52746 0.0
H412 H 0.01542 0.5208 0.44957 0.0
C413 C 0.94894 0.42979 0.39052 0.0
C414 C 0.95566 0.44309 0.35333 0.0
C415 C 0.96639 0.44174 0.42546 0.0
C416 C 0.01928 0.50829 0.47065 0.0
H417 H 0.04085 0.50284 0.67852 0.0
H418 H 0.01904 0.48359 0.61126 0.0
H419 H 0.04107 0.54159 0.5144 0.0
H420 H 0.98638 0.47905 0.3233 0.0
H421 H 0.01713 0.49975 0.3843 0.0
H422 H 0.00637 0.44332 0.48402 0.0
C423 C 0.03872 0.50278 0.61314 0.0
C424 C 0.0339 0.5202 0.50778 0.0
C425 C 0.0511 0.51392 0.65165 0.0
C426 C 0.98054 0.46836 0.35159 0.0
C427 C -0.00192 0.48028 0.38656 0.0
C428 C 0.01375 0.46477 0.49029 0.0
C429 C 0.05138 0.51638 0.57749 0.0
C430 C 0.038 0.50436 0.53682 0.0
C431 C 0.99105 0.4672 0.42397 0.0
C432 C 0.00865 0.48035 0.46178 0.0
H433 H 0.10877 0.57177 0.62154 0.0
H434 H 0.08683 0.5523 0.55403 0.0
H435 H 0.03152 0.46407 0.54905 0.0
H436 H 0.92988 0.41034 0.39293 0.0
H437 H 0.96009 0.43131 0.45392 0.0
loop_
_geom_bond_atom_site_label_1
_geom_bond_atom_site_label_2
_geom_bond_distance
_geom_bond_site_symmetry_2
_ccdc_geom_bond_type
C0 O1 1.160 . S
C0 O7 1.185 . S
O1 C0 1.160 . S
O2 Zn3 1.899 . S
O2 C10 1.284 . S
Zn3 O2 1.899 . S
Zn3 O4 2.032 . S
Zn3 O7 2.086 . S
Zn3 O12 1.977 . S
O4 Zn3 2.032 . S
O4 C8 1.278 . S
C5 O6 1.203 . S
C5 O12 1.267 . S
O6 C5 1.203 . S
O7 C0 1.185 . S
O7 Zn3 2.086 . S
C8 O4 1.278 . S
C8 O9 1.211 . S
O9 C8 1.211 . S
C10 O2 1.284 . S
C10 O11 1.273 . S
O11 C10 1.273 . S
O12 Zn3 1.977 . S
O12 C5 1.267 . S
C13 O14 1.160 . S
C13 O20 1.185 . S
O14 C13 1.160 . S
O15 Zn16 1.899 . S
O15 C23 1.284 . S
Zn16 O15 1.899 . S
Zn16 O17 2.032 . S
Zn16 O20 2.086 . S
Zn16 O25 1.977 . S
O17 Zn16 2.032 . S
O17 C21 1.278 . S
C18 O19 1.203 . S
C18 O25 1.267 . S
O19 C18 1.203 . S
O20 C13 1.185 . S
O20 Zn16 2.086 . S
C21 O17 1.278 . S
C21 O22 1.211 . S
O22 C21 1.211 . S
C23 O15 1.284 . S
C23 O24 1.273 . S
O24 C23 1.273 . S
O25 Zn16 1.977 . S
O25 C18 1.267 . S
C26 O27 1.160 . S
C26 O33 1.185 . S
O27 C26 1.160 . S
O28 Zn29 1.899 . S
O28 C36 1.284 . S
Zn29 O28 1.899 . S
Zn29 O30 2.032 . S
Zn29 O33 2.086 . S
Zn29 O38 1.977 . S
O30 Zn29 2.032 . S
O30 C34 1.278 . S
C31 O32 1.203 . S
C31 O38 1.267 . S
O32 C31 1.203 . S
O33 C26 1.185 . S
O33 Zn29 2.086 . S
C34 O30 1.278 . S
C34 O35 1.211 . S
O35 C34 1.211 . S
C36 O28 1.284 . S
C36 O37 1.273 . S
O37 C36 1.273 . S
O38 Zn29 1.977 . S
O38 C31 1.267 . S
C39 O40 1.160 . S
C39 O46 1.185 . S
O40 C39 1.160 . S
O41 Zn42 1.899 . S
O41 C49 1.284 . S
Zn42 O41 1.899 . S
Zn42 O43 2.032 . S
Zn42 O46 2.086 . S
Zn42 O51 1.977 . S
O43 Zn42 2.032 . S
O43 C47 1.278 . S
C44 O45 1.203 . S
C44 O51 1.267 . S
O45 C44 1.203 . S
O46 C39 1.185 . S
O46 Zn42 2.086 . S
C47 O43 1.278 . S
C47 O48 1.211 . S
O48 C47 1.211 . S
C49 O41 1.284 . S
C49 O50 1.273 . S
O50 C49 1.273 . S
O51 Zn42 1.977 . S
O51 C44 1.267 . S
C52 O53 1.160 . S
C52 O59 1.185 . S
O53 C52 1.160 . S
O54 Zn55 1.899 . S
O54 C62 1.284 . S
Zn55 O54 1.899 . S
Zn55 O56 2.032 . S
Zn55 O59 2.086 . S
Zn55 O64 1.977 . S
O56 Zn55 2.032 . S
O56 C60 1.278 . S
C57 O58 1.203 . S
C57 O64 1.267 . S
O58 C57 1.203 . S
O59 C52 1.185 . S
O59 Zn55 2.086 . S
C60 O56 1.278 . S
C60 O61 1.211 . S
O61 C60 1.211 . S
C62 O54 1.284 . S
C62 O63 1.273 . S
O63 C62 1.273 . S
O64 Zn55 1.977 . S
O64 C57 1.267 . S
C65 O66 1.160 . S
C65 O72 1.185 . S
O66 C65 1.160 . S
O67 Zn68 1.899 . S
O67 C75 1.284 . S
Zn68 O67 1.899 . S
Zn68 O69 2.032 . S
Zn68 O72 2.086 . S
Zn68 O77 1.977 . S
O69 Zn68 2.032 . S
O69 C73 1.278 . S
C70 O71 1.203 . S
C70 O77 1.267 . S
O71 C70 1.203 . S
O72 C65 1.185 . S
O72 Zn68 2.086 . S
C73 O69 1.278 . S
C73 O74 1.211 . S
O74 C73 1.211 . S
C75 O67 1.284 . S
C75 O76 1.273 . S
O76 C75 1.273 . S
O77 Zn68 1.977 . S
O77 C70 1.267 . S
C78 C79 1.349 . S
C78 C80 1.327 . S
C78 H103 0.950 . S
C79 C78 1.349 . S
C79 C95 1.349 . S
C80 C78 1.327 . S
C80 C99 1.429 . S
C80 H104 0.950 . S
C81 C98 1.574 . S
C81 C100 1.368 . S
C81 H105 0.949 . S
H82 C86 0.949 . S
C83 C84 1.349 . S
C83 C85 1.327 . S
C83 H106 0.950 . S
C84 C83 1.349 . S
C84 C96 1.349 . S
C85 C83 1.327 . S
C85 C101 1.429 . S
C85 H107 0.950 . S
C86 H82 0.949 . S
C86 C94 1.574 . S
C86 C102 1.368 . S
H87 C95 0.950 . S
H88 C93 0.950 . S
H89 C94 0.949 . S
H90 C96 0.950 . S
H91 C97 0.950 . S
H92 C98 0.949 . S
C93 H88 0.950 . S
C93 C95 1.327 . S
C93 C99 1.429 . S
C94 C86 1.574 . S
C94 H89 0.949 . S
C94 C100 1.368 . S
C95 C79 1.349 . S
C95 H87 0.950 . S
C95 C93 1.327 . S
C96 C84 1.349 . S
C96 H90 0.950 . S
C96 C97 1.327 . S
C97 H91 0.950 . S
C97 C96 1.327 . S
C97 C101 1.429 . S
C98 C81 1.574 . S
C98 H92 0.949 . S
C98 C102 1.368 . S
C99 C80 1.429 . S
C99 C93 1.429 . S
C99 C100 1.523 . S
C100 C81 1.368 . S
C100 C94 1.368 . S
C100 C99 1.523 . S
C101 C85 1.429 . S
C101 C97 1.429 . S
C101 C102 1.523 . S
C102 C86 1.368 . S
C102 C98 1.368 . S
C102 C101 1.523 . S
H103 C78 0.950 . S
H104 C80 0.950 . S
H105 C81 0.949 . S
H106 C83 0.950 . S
H107 C85 0.950 . S
C108 C109 1.349 . S
C108 C110 1.327 . S
C108 H133 0.950 . S
C109 C108 1.349 . S
C109 C125 1.349 . S
C110 C108 1.327 . S
C110 C129 1.429 . S
C110 H134 0.950 . S
C111 C128 1.574 . S
C111 C130 1.368 . S
C111 H135 0.949 . S
H112 C116 0.949 . S
C113 C114 1.349 . S
C113 C115 1.327 . S
C113 H136 0.950 . S
C114 C113 1.349 . S
C114 C126 1.349 . S
C115 C113 1.327 . S
C115 C131 1.429 . S
C115 H137 0.950 . S
C116 H112 0.949 . S
C116 C124 1.574 . S
C116 C132 1.368 . S
H117 C125 0.950 . S
H118 C123 0.950 . S
H119 C124 0.949 . S
H120 C126 0.950 . S
H121 C127 0.950 . S
H122 C128 0.949 . S
C123 H118 0.950 . S
C123 C125 1.327 . S
C123 C129 1.429 . S
C124 C116 1.574 . S
C124 H119 0.949 . S
C124 C130 1.368 . S
C125 C109 1.349 . S
C125 H117 0.950 . S
C125 C123 1.327 . S
C126 C114 1.349 . S
C126 H120 0.950 . S
C126 C127 1.327 . S
C127 H121 0.950 . S
C127 C126 1.327 . S
C127 C131 1.429 . S
C128 C111 1.574 . S
C128 H122 0.949 . S
C128 C132 1.368 . S
C129 C110 1.429 . S
C129 C123 1.429 . S
C129 C130 1.523 . S
C130 C111 1.368 . S
C130 C124 1.368 . S
C130 C129 1.523 . S
C131 C115 1.429 . S
C131 C127 1.429 . S
C131 C132 1.523 . S
C132 C116 1.368 . S
C132 C128 1.368 . S
C132 C131 1.523 . S
H133 C108 0.950 . S
H134 C110 0.950 . S
H135 C111 0.949 . S
H136 C113 0.950 . S
H137 C115 0.950 . S
C138 C139 1.349 . S
C138 C140 1.327 . S
C138 H163 0.950 . S
C139 C138 1.349 . S
C139 C155 1.349 . S
C140 C138 1.327 . S
C140 C159 1.429 . S
C140 H164 0.950 . S
C141 C158 1.574 . S
C141 C160 1.368 . S
C141 H165 0.949 . S
H142 C146 0.949 . S
C143 C144 1.349 . S
C143 C145 1.327 . S
C143 H166 0.950 . S
C144 C143 1.349 . S
C144 C156 1.349 . S
C145 C143 1.327 . S
C145 C161 1.429 . S
C145 H167 0.950 . S
C146 H142 0.949 . S
C146 C154 1.574 . S
C146 C162 1.368 . S
H147 C155 0.950 . S
H148 C153 0.950 . S
H149 C154 0.949 . S
H150 C156 0.950 . S
H151 C157 0.950 . S
H152 C158 0.949 . S
C153 H148 0.950 . S
C153 C155 1.327 . S
C153 C159 1.429 . S
C154 C146 1.574 . S
C154 H149 0.949 . S
C154 C160 1.368 . S
C155 C139 1.349 . S
C155 H147 0.950 . S
C155 C153 1.327 . S
C156 C144 1.349 . S
C156 H150 0.950 . S
C156 C157 1.327 . S
C157 H151 0.950 . S
C157 C156 1.327 . S
C157 C161 1.429 . S
C158 C141 1.574 . S
C158 H152 0.949 . S
C158 C162 1.368 . S
C159 C140 1.429 . S
C159 C153 1.429 . S
C159 C160 1.523 . S
C160 C141 1.368 . S
C160 C154 1.368 . S
C160 C159 1.523 . S
C161 C145 1.429 . S
C161 C157 1.429 . S
C161 C162 1.523 . S
C162 C146 1.368 . S
C162 C158 1.368 . S
C162 C161 1.523 . S
H163 C138 0.950 . S
H164 C140 0.950 . S
H165 C141 0.949 . S
H166 C143 0.950 . S
H167 C145 0.950 . S
C168 C169 1.349 . S
C168 C170 1.327 . S
C168 H193 0.950 . S
C169 C168 1.349 . S
C169 C185 1.349 . S
C170 C168 1.327 . S
C170 C189 1.429 . S
C170 H194 0.950 . S
C171 C188 1.574 . S
C171 C190 1.368 . S
C171 H195 0.949 . S
H172 C176 0.949 . S
C173 C174 1.349 . S
C173 C175 1.327 . S
C173 H196 0.950 . S
C174 C173 1.349 . S
C174 C186 1.349 . S
C175 C173 1.327 . S
C175 C191 1.429 . S
C175 H197 0.950 . S
C176 H172 0.949 . S
C176 C184 1.574 . S
C176 C192 1.368 . S
H177 C185 0.950 . S
H178 C183 0.950 . S
H179 C184 0.949 . S
H180 C186 0.950 . S
H181 C187 0.950 . S
H182 C188 0.949 . S
C183 H178 0.950 . S
C183 C185 1.327 . S
C183 C189 1.429 . S
C184 C176 1.574 . S
C184 H179 0.949 . S
C184 C190 1.368 . S
C185 C169 1.349 . S
C185 H177 0.950 . S
C185 C183 1.327 . S
C186 C174 1.349 . S
C186 H180 0.950 . S
C186 C187 1.327 . S
C187 H181 0.950 . S
C187 C186 1.327 . S
C187 C191 1.429 . S
C188 C171 1.574 . S
C188 H182 0.949 . S
C188 C192 1.368 . S
C189 C170 1.429 . S
C189 C183 1.429 . S
C189 C190 1.523 . S
C190 C171 1.368 . S
C190 C184 1.368 . S
C190 C189 1.523 . S
C191 C175 1.429 . S
C191 C187 1.429 . S
C191 C192 1.523 . S
C192 C176 1.368 . S
C192 C188 1.368 . S
C192 C191 1.523 . S
H193 C168 0.950 . S
H194 C170 0.950 . S
H195 C171 0.949 . S
H196 C173 0.950 . S
H197 C175 0.950 . S
C198 C199 1.349 . S
C198 C200 1.327 . S
C198 H223 0.950 . S
C199 C198 1.349 . S
C199 C215 1.349 . S
C200 C198 1.327 . S
C200 C219 1.429 . S
C200 H224 0.950 . S
C201 C218 1.574 . S
C201 C220 1.368 . S
C201 H225 0.949 . S
H202 C206 0.949 . S
C203 C204 1.349 . S
C203 C205 1.327 . S
C203 H226 0.950 . S
C204 C203 1.349 . S
C204 C216 1.349 . S
C205 C203 1.327 . S
C205 C221 1.429 . S
C205 H227 0.950 . S
C206 H202 0.949 . S
C206 C214 1.574 . S
C206 C222 1.368 . S
H207 C215 0.950 . S
H208 C213 0.950 . S
H209 C214 0.949 . S
H210 C216 0.950 . S
H211 C217 0.950 . S
H212 C218 0.949 . S
C213 H208 0.950 . S
C213 C215 1.327 . S
C213 C219 1.429 . S
C214 C206 1.574 . S
C214 H209 0.949 . S
C214 C220 1.368 . S
C215 C199 1.349 . S
C215 H207 0.950 . S
C215 C213 1.327 . S
C216 C204 1.349 . S
C216 H210 0.950 . S
C216 C217 1.327 . S
C217 H211 0.950 . S
C217 C216 1.327 . S
C217 C221 1.429 . S
C218 C201 1.574 . S
C218 H212 0.949 . S
C218 C222 1.368 . S
C219 C200 1.429 . S
C219 C213 1.429 . S
C219 C220 1.523 . S
C220 C201 1.368 . S
C220 C214 1.368 . S
C220 C219 1.523 . S
C221 C205 1.429 . S
C221 C217 1.429 . S
C221 C222 1.523 . S
C222 C206 1.368 . S
C222 C218 1.368 . S
C222 C221 1.523 . S
H223 C198 0.950 . S
H224 C200 0.950 . S
H225 C201 0.949 . S
H226 C203 0.950 . S
H227 C205 0.950 . S
C228 C229 1.349 . S
C228 C230 1.327 . S
C228 H253 0.950 . S
C229 C228 1.349 . S
C229 C245 1.349 . S
C230 C228 1.327 . S
C230 C249 1.429 . S
C230 H254 0.950 . S
C231 C248 1.574 . S
C231 C250 1.368 . S
C231 H255 0.949 . S
H232 C236 0.949 . S
C233 C234 1.349 . S
C233 C235 1.327 . S
C233 H256 0.950 . S
C234 C233 1.349 . S
C234 C246 1.349 . S
C235 C233 1.327 . S
C235 C251 1.429 . S
C235 H257 0.950 . S
C236 H232 0.949 . S
C236 C244 1.574 . S
C236 C252 1.368 . S
H237 C245 0.950 . S
H238 C243 0.950 . S
H239 C244 0.949 . S
H240 C246 0.950 . S
H241 C247 0.950 . S
H242 C248 0.949 . S
C243 H238 0.950 . S
C243 C245 1.327 . S
C243 C249 1.429 . S
C244 C236 1.574 . S
C244 H239 0.949 . S
C244 C250 1.368 . S
C245 C229 1.349 . S
C245 H237 0.950 . S
C245 C243 1.327 . S
C246 C234 1.349 . S
C246 H240 0.950 . S
C246 C247 1.327 . S
C247 H241 0.950 . S
C247 C246 1.327 . S
C247 C251 1.429 . S
C248 C231 1.574 . S
C248 H242 0.949 . S
C248 C252 1.368 . S
C249 C230 1.429 . S
C249 C243 1.429 . S
C249 C250 1.523 . S
C250 C231 1.368 . S
C250 C244 1.368 . S
C250 C249 1.523 . S
C251 C235 1.429 . S
C251 C247 1.429 . S
C251 C252 1.523 . S
C252 C236 1.368 . S
C252 C248 1.368 . S
C252 C251 1.523 . S
H253 C228 0.950 . S
H254 C230 0.950 . S
H255 C231 0.949 . S
H256 C233 0.950 . S
H257 C235 0.950 . S
C258 C259 1.349 . S
C258 C260 1.327 . S
C258 H283 0.950 . S
C259 C258 1.349 . S
C259 C275 1.349 . S
C260 C258 1.327 . S
C260 C279 1.429 . S
C260 H284 0.950 . S
C261 C278 1.574 1_556 S
C261 C280 1.368 1_545 S
C261 H285 0.949 . S
H262 C266 0.949 . S
C263 C264 1.349 . S
C263 C265 1.327 . S
C263 H286 0.950 . S
C264 C263 1.349 . S
C264 C276 1.349 . S
C265 C263 1.327 . S
C265 C281 1.429 . S
C265 H287 0.950 . S
C266 H262 0.949 . S
C266 C274 1.574 1_554 S
C266 C282 1.368 1_565 S
H267 C275 0.950 . S
H268 C273 0.950 . S
H269 C274 0.949 . S
H270 C276 0.950 . S
H271 C277 0.950 . S
H272 C278 0.949 . S
C273 H268 0.950 . S
C273 C275 1.327 . S
C273 C279 1.429 . S
C274 C266 1.574 1_556 S
C274 H269 0.949 . S
C274 C280 1.368 . S
C275 C259 1.349 . S
C275 H267 0.950 . S
C275 C273 1.327 . S
C276 C264 1.349 . S
C276 H270 0.950 . S
C276 C277 1.327 . S
C277 H271 0.950 . S
C277 C276 1.327 . S
C277 C281 1.429 . S
C278 C261 1.574 1_554 S
C278 H272 0.949 . S
C278 C282 1.368 . S
C279 C260 1.429 . S
C279 C273 1.429 . S
C279 C280 1.523 . S
C280 C261 1.368 1_565 S
C280 C274 1.368 . S
C280 C279 1.523 . S
C281 C265 1.429 . S
C281 C277 1.429 . S
C281 C282 1.523 . S
C282 C266 1.368 1_545 S
C282 C278 1.368 . S
C282 C281 1.523 . S
H283 C258 0.950 . S
H284 C260 0.950 . S
H285 C261 0.949 . S
H286 C263 0.950 . S
H287 C265 0.950 . S
C288 C289 1.349 . S
C288 C290 1.327 . S
C288 H313 0.950 . S
C289 C288 1.349 . S
C289 C305 1.349 . S
C290 C288 1.327 . S
C290 C309 1.429 . S
C290 H314 0.950 . S
C291 C308 1.574 . S
C291 C310 1.368 . S
C291 H315 0.949 . S
H292 C296 0.949 . S
C293 C294 1.349 . S
C293 C295 1.327 . S
C293 H316 0.950 . S
C294 C293 1.349 . S
C294 C306 1.349 . S
C295 C293 1.327 . S
C295 C311 1.429 . S
C295 H317 0.950 . S
C296 H292 0.949 . S
C296 C304 1.574 . S
C296 C312 1.368 . S
H297 C305 0.950 . S
H298 C303 0.950 . S
H299 C304 0.949 . S
H300 C306 0.950 . S
H301 C307 0.950 . S
H302 C308 0.949 . S
C303 H298 0.950 . S
C303 C305 1.327 . S
C303 C309 1.429 . S
C304 C296 1.574 . S
C304 H299 0.949 . S
C304 C310 1.368 . S
C305 C289 1.349 . S
C305 H297 0.950 . S
C305 C303 1.327 . S
C306 C294 1.349 . S
C306 H300 0.950 . S
C306 C307 1.327 . S
C307 H301 0.950 . S
C307 C306 1.327 . S
C307 C311 1.429 . S
C308 C291 1.574 . S
C308 H302 0.949 . S
C308 C312 1.368 . S
C309 C290 1.429 . S
C309 C303 1.429 . S
C309 C310 1.523 . S
C310 C291 1.368 . S
C310 C304 1.368 . S
C310 C309 1.523 . S
C311 C295 1.429 . S
C311 C307 1.429 . S
C311 C312 1.523 . S
C312 C296 1.368 . S
C312 C308 1.368 . S
C312 C311 1.523 . S
H313 C288 0.950 . S
H314 C290 0.950 . S
H315 C291 0.949 . S
H316 C293 0.950 . S
H317 C295 0.950 . S
C318 C319 1.349 . S
C318 C320 1.327 . S
C318 H343 0.950 . S
C319 C318 1.349 . S
C319 C335 1.349 . S
C320 C318 1.327 . S
C320 C339 1.429 . S
C320 H344 0.950 . S
C321 C338 1.574 . S
C321 C340 1.368 1_554 S
C321 H345 0.949 . S
H322 C326 0.949 . S
C323 C324 1.349 . S
C323 C325 1.327 . S
C323 H346 0.950 . S
C324 C323 1.349 . S
C324 C336 1.349 . S
C325 C323 1.327 . S
C325 C341 1.429 . S
C325 H347 0.950 . S
C326 H322 0.949 . S
C326 C334 1.574 1_554 S
C326 C342 1.368 . S
H327 C335 0.950 . S
H328 C333 0.950 . S
H329 C334 0.949 . S
H330 C336 0.950 . S
H331 C337 0.950 . S
H332 C338 0.949 . S
C333 H328 0.950 . S
C333 C335 1.327 . S
C333 C339 1.429 . S
C334 C326 1.574 1_556 S
C334 H329 0.949 . S
C334 C340 1.368 1_655 S
C335 C319 1.349 . S
C335 H327 0.950 . S
C335 C333 1.327 . S
C336 C324 1.349 . S
C336 H330 0.950 . S
C336 C337 1.327 . S
C337 H331 0.950 . S
C337 C336 1.327 . S
C337 C341 1.429 . S
C338 C321 1.574 . S
C338 H332 0.949 . S
C338 C342 1.368 1_455 S
C339 C320 1.429 . S
C339 C333 1.429 . S
C339 C340 1.523 . S
C340 C321 1.368 1_556 S
C340 C334 1.368 1_455 S
C340 C339 1.523 . S
C341 C325 1.429 . S
C341 C337 1.429 . S
C341 C342 1.523 . S
C342 C326 1.368 . S
C342 C338 1.368 1_655 S
C342 C341 1.523 . S
H343 C318 0.950 . S
H344 C320 0.950 . S
H345 C321 0.949 . S
H346 C323 0.950 . S
H347 C325 0.950 . S
C348 C349 1.349 . S
C348 C350 1.327 . S
C348 H373 0.950 . S
C349 C348 1.349 . S
C349 C365 1.349 . S
C350 C348 1.327 . S
C350 C369 1.429 . S
C350 H374 0.908 1_545 S
C351 C368 1.574 . S
C351 C370 1.368 . S
C351 H375 0.949 . S
H352 C356 0.949 . S
C353 C354 1.349 . S
C353 C355 1.327 . S
C353 H376 0.950 . S
C354 C353 1.349 . S
C354 C366 1.349 . S
C355 C353 1.327 . S
C355 C371 1.429 . S
C355 H377 0.908 1_565 S
C356 H352 0.949 . S
C356 C364 1.574 . S
C356 C372 1.368 . S
H357 C365 0.950 . S
H358 C363 0.950 . S
H359 C364 0.949 . S
H360 C366 0.950 . S
H361 C367 0.950 . S
H362 C368 0.949 . S
C363 H358 0.950 . S
C363 C365 1.327 . S
C363 C369 1.429 . S
C364 C356 1.574 . S
C364 H359 0.949 . S
C364 C370 1.368 1_565 S
C365 C349 1.349 . S
C365 H357 0.950 . S
C365 C363 1.327 . S
C366 C354 1.349 . S
C366 H360 0.950 . S
C366 C367 1.327 . S
C367 H361 0.950 . S
C367 C366 1.327 . S
C367 C371 1.429 . S
C368 C351 1.574 . S
C368 H362 0.949 . S
C368 C372 1.368 1_545 S
C369 C350 1.429 . S
C369 C363 1.429 . S
C369 C370 1.523 . S
C370 C351 1.368 . S
C370 C364 1.368 1_545 S
C370 C369 1.523 . S
C371 C355 1.429 . S
C371 C367 1.429 . S
C371 C372 1.523 . S
C372 C356 1.368 . S
C372 C368 1.368 1_565 S
C372 C371 1.523 . S
H373 C348 0.950 . S
H374 C350 0.908 1_565 S
H375 C351 0.949 . S
H376 C353 0.950 . S
H377 C355 0.908 1_545 S
C378 C379 1.349 . S
C378 C380 1.327 . S
C378 H403 0.950 . S
C379 C378 1.349 . S
C379 C395 1.349 . S
C380 C378 1.327 . S
C380 C399 1.429 . S
C380 H404 0.950 . S
C381 C398 1.574 . S
C381 C400 1.368 . S
C381 H405 0.949 . S
H382 C386 0.949 . S
C383 C384 1.349 . S
C383 C385 1.327 . S
C383 H406 0.950 . S
C384 C383 1.349 . S
C384 C396 1.349 . S
C385 C383 1.327 . S
C385 C401 1.429 . S
C385 H407 0.950 . S
C386 H382 0.949 . S
C386 C394 1.574 1_554 S
C386 C402 1.368 . S
H387 C395 0.950 . S
H388 C393 0.950 . S
H389 C394 0.949 . S
H390 C396 0.950 . S
H391 C397 0.950 . S
H392 C398 0.949 . S
C393 H388 0.950 . S
C393 C395 1.327 . S
C393 C399 1.429 . S
C394 C386 1.574 1_556 S
C394 H389 0.949 . S
C394 C400 1.368 . S
C395 C379 1.349 . S
C395 H387 0.950 . S
C395 C393 1.327 . S
C396 C384 1.349 . S
C396 H390 0.950 . S
C396 C397 1.327 . S
C397 H391 0.950 . S
C397 C396 1.327 . S
C397 C401 1.429 . S
C398 C381 1.574 . S
C398 H392 0.949 . S
C398 C402 1.368 1_556 S
C399 C380 1.429 . S
C399 C393 1.429 . S
C399 C400 1.523 . S
C400 C381 1.368 . S
C400 C394 1.368 . S
C400 C399 1.523 . S
C401 C385 1.429 . S
C401 C397 1.429 . S
C401 C402 1.523 . S
C402 C386 1.368 . S
C402 C398 1.368 1_554 S
C402 C401 1.523 . S
H403 C378 0.950 . S
H404 C380 0.950 . S
H405 C381 0.949 . S
H406 C383 0.950 . S
H407 C385 0.950 . S
C408 C409 1.349 . S
C408 C410 1.327 . S
C408 H433 0.950 . S
C409 C408 1.349 . S
C409 C425 1.349 . S
C410 C408 1.327 . S
C410 C429 1.429 . S
C410 H434 0.950 . S
C411 C428 1.574 . S
C411 C430 1.368 1_655 S
C411 H435 0.949 . S
H412 C416 0.949 . S
C413 C414 1.349 . S
C413 C415 1.327 . S
C413 H436 0.950 . S
C414 C413 1.349 . S
C414 C426 1.349 . S
C415 C413 1.327 . S
C415 C431 1.429 . S
C415 H437 0.950 . S
C416 H412 0.949 . S
C416 C424 1.574 . S
C416 C432 1.368 1_455 S
H417 C425 0.950 . S
H418 C423 0.950 . S
H419 C424 0.949 . S
H420 C426 0.950 . S
H421 C427 0.955 . S
H422 C428 0.949 . S
C423 H418 0.950 . S
C423 C425 1.327 . S
C423 C429 1.429 . S
C424 C416 1.574 . S
C424 H419 0.949 . S
C424 C430 1.368 . S
C425 C409 1.349 . S
C425 H417 0.950 . S
C425 C423 1.327 . S
C426 C414 1.349 . S
C426 H420 0.950 . S
C426 C427 1.327 . S
C427 H421 0.955 . S
C427 C426 1.327 . S
C427 C431 1.429 . S
C428 C411 1.574 . S
C428 H422 0.949 . S
C428 C432 1.368 . S
C429 C410 1.429 . S
C429 C423 1.429 . S
C429 C430 1.523 . S
C430 C411 1.368 1_455 S
C430 C424 1.368 . S
C430 C429 1.523 . S
C431 C415 1.429 . S
C431 C427 1.429 . S
C431 C432 1.523 . S
C432 C416 1.368 1_655 S
C432 C428 1.368 . S
C432 C431 1.523 . S
H433 C408 0.950 . S
H434 C410 0.950 . S
H435 C411 0.949 . S
H436 C413 0.950 . S
H437 C415 0.950 . S
C79 C5 0.749 . S
C84 C57 0.749 . S
C109 C23 0.795 . S
C114 C75 0.795 . S
C139 C10 0.776 . S
C144 C31 0.771 . S
C169 C49 0.777 . S
C174 C18 0.771 . S
C199 C62 0.794 . S
C204 C36 0.795 . S
C229 C44 0.749 . S
C234 C70 0.749 . S
C259 C47 1.264 . S
C264 C8 1.264 . S
C289 C60 1.302 . S
C294 C13 1.297 . S
C319 C65 1.283 . S
C324 C34 1.293 . S
C349 C0 1.292 . S
C354 C39 1.292 . S
C379 C21 1.293 . S
C384 C52 1.283 . S
C409 C73 1.302 . S
C414 C26 1.297 . S
