# Generated by pormake.
# Topology twf-e, (6)-cn, num edge types: 1
# Building blocks:
#     Node 0, Type 0, BuildingBlock: LEVNOQ01_clean_sbu_1, # of connection points: 6
#     Node 1, Type 0, BuildingBlock: LEVNOQ01_clean_sbu_1, # of connection points: 6
#     Node 2, Type 0, BuildingBlock: LEVNOQ01_clean_sbu_1, # of connection points: 6
#     Node 3, Type 0, BuildingBlock: LEVNOQ01_clean_sbu_1, # of connection points: 6
#     Node 4, Type 0, BuildingBlock: LEVNOQ01_clean_sbu_1, # of connection points: 6
#     Node 5, Type 0, BuildingBlock: LEVNOQ01_clean_sbu_1, # of connection points: 6
#     Node 6, Type 0, BuildingBlock: LEVNOQ01_clean_sbu_1, # of connection points: 6
#     Node 7, Type 0, BuildingBlock: LEVNOQ01_clean_sbu_1, # of connection points: 6
#     Node 8, Type 0, BuildingBlock: LEVNOQ01_clean_sbu_1, # of connection points: 6
#     Node 9, Type 0, BuildingBlock: LEVNOQ01_clean_sbu_1, # of connection points: 6
#     Node 10, Type 0, BuildingBlock: LEVNOQ01_clean_sbu_1, # of connection points: 6
#     Node 11, Type 0, BuildingBlock: LEVNOQ01_clean_sbu_1, # of connection points: 6
#     Node 12, Type 0, BuildingBlock: LEVNOQ01_clean_sbu_1, # of connection points: 6
#     Node 13, Type 0, BuildingBlock: LEVNOQ01_clean_sbu_1, # of connection points: 6
#     Node 14, Type 0, BuildingBlock: LEVNOQ01_clean_sbu_1, # of connection points: 6
#     Node 15, Type 0, BuildingBlock: LEVNOQ01_clean_sbu_1, # of connection points: 6
#     Node 16, Type 0, BuildingBlock: LEVNOQ01_clean_sbu_1, # of connection points: 6
#     Node 17, Type 0, BuildingBlock: LEVNOQ01_clean_sbu_1, # of connection points: 6
#     Node 18, Type 0, BuildingBlock: LEVNOQ01_clean_sbu_1, # of connection points: 6
#     Node 19, Type 0, BuildingBlock: LEVNOQ01_clean_sbu_1, # of connection points: 6
#     Node 20, Type 0, BuildingBlock: LEVNOQ01_clean_sbu_1, # of connection points: 6
#     Node 21, Type 0, BuildingBlock: LEVNOQ01_clean_sbu_1, # of connection points: 6
#     Node 22, Type 0, BuildingBlock: LEVNOQ01_clean_sbu_1, # of connection points: 6
#     Node 23, Type 0, BuildingBlock: LEVNOQ01_clean_sbu_1, # of connection points: 6
#     Node 24, Type 0, BuildingBlock: LEVNOQ01_clean_sbu_1, # of connection points: 6
#     Node 25, Type 0, BuildingBlock: LEVNOQ01_clean_sbu_1, # of connection points: 6
#     Node 26, Type 0, BuildingBlock: LEVNOQ01_clean_sbu_1, # of connection points: 6
#     Node 27, Type 0, BuildingBlock: LEVNOQ01_clean_sbu_1, # of connection points: 6
#     Node 28, Type 0, BuildingBlock: LEVNOQ01_clean_sbu_1, # of connection points: 6
#     Node 29, Type 0, BuildingBlock: LEVNOQ01_clean_sbu_1, # of connection points: 6
#     Node 30, Type 0, BuildingBlock: LEVNOQ01_clean_sbu_1, # of connection points: 6
#     Node 31, Type 0, BuildingBlock: LEVNOQ01_clean_sbu_1, # of connection points: 6
#     Node 32, Type 0, BuildingBlock: LEVNOQ01_clean_sbu_1, # of connection points: 6
#     Node 33, Type 0, BuildingBlock: LEVNOQ01_clean_sbu_1, # of connection points: 6
#     Node 34, Type 0, BuildingBlock: LEVNOQ01_clean_sbu_1, # of connection points: 6
#     Node 35, Type 0, BuildingBlock: LEVNOQ01_clean_sbu_1, # of connection points: 6
#     Node 36, Type 0, BuildingBlock: LEVNOQ01_clean_sbu_1, # of connection points: 6
#     Node 37, Type 0, BuildingBlock: LEVNOQ01_clean_sbu_1, # of connection points: 6
#     Node 38, Type 0, BuildingBlock: LEVNOQ01_clean_sbu_1, # of connection points: 6
#     Node 39, Type 0, BuildingBlock: LEVNOQ01_clean_sbu_1, # of connection points: 6
#     Node 40, Type 0, BuildingBlock: LEVNOQ01_clean_sbu_1, # of connection points: 6
#     Node 41, Type 0, BuildingBlock: LEVNOQ01_clean_sbu_1, # of connection points: 6
#     Node 42, Type 0, BuildingBlock: LEVNOQ01_clean_sbu_1, # of connection points: 6
#     Node 43, Type 0, BuildingBlock: LEVNOQ01_clean_sbu_1, # of connection points: 6
#     Node 44, Type 0, BuildingBlock: LEVNOQ01_clean_sbu_1, # of connection points: 6
#     Node 45, Type 0, BuildingBlock: LEVNOQ01_clean_sbu_1, # of connection points: 6
#     Node 46, Type 0, BuildingBlock: LEVNOQ01_clean_sbu_1, # of connection points: 6
#     Node 47, Type 0, BuildingBlock: LEVNOQ01_clean_sbu_1, # of connection points: 6
#     Edge 48, Type (0, 0), None
#     Edge 49, Type (0, 0), None
#     Edge 50, Type (0, 0), None
#     Edge 51, Type (0, 0), None
#     Edge 52, Type (0, 0), None
#     Edge 53, Type (0, 0), None
#     Edge 54, Type (0, 0), None
#     Edge 55, Type (0, 0), None
#     Edge 56, Type (0, 0), None
#     Edge 57, Type (0, 0), None
#     Edge 58, Type (0, 0), None
#     Edge 59, Type (0, 0), None
#     Edge 60, Type (0, 0), None
#     Edge 61, Type (0, 0), None
#     Edge 62, Type (0, 0), None
#     Edge 63, Type (0, 0), None
#     Edge 64, Type (0, 0), None
#     Edge 65, Type (0, 0), None
#     Edge 66, Type (0, 0), None
#     Edge 67, Type (0, 0), None
#     Edge 68, Type (0, 0), None
#     Edge 69, Type (0, 0), None
#     Edge 70, Type (0, 0), None
#     Edge 71, Type (0, 0), None
#     Edge 72, Type (0, 0), None
#     Edge 73, Type (0, 0), None
#     Edge 74, Type (0, 0), None
#     Edge 75, Type (0, 0), None
#     Edge 76, Type (0, 0), None
#     Edge 77, Type (0, 0), None
#     Edge 78, Type (0, 0), None
#     Edge 79, Type (0, 0), None
#     Edge 80, Type (0, 0), None
#     Edge 81, Type (0, 0), None
#     Edge 82, Type (0, 0), None
#     Edge 83, Type (0, 0), None
#     Edge 84, Type (0, 0), None
#     Edge 85, Type (0, 0), None
#     Edge 86, Type (0, 0), None
#     Edge 87, Type (0, 0), None
#     Edge 88, Type (0, 0), None
#     Edge 89, Type (0, 0), None
#     Edge 90, Type (0, 0), None
#     Edge 91, Type (0, 0), None
#     Edge 92, Type (0, 0), None
#     Edge 93, Type (0, 0), None
#     Edge 94, Type (0, 0), None
#     Edge 95, Type (0, 0), None
#     Edge 96, Type (0, 0), None
#     Edge 97, Type (0, 0), None
#     Edge 98, Type (0, 0), None
#     Edge 99, Type (0, 0), None
#     Edge 100, Type (0, 0), None
#     Edge 101, Type (0, 0), None
#     Edge 102, Type (0, 0), None
#     Edge 103, Type (0, 0), None
#     Edge 104, Type (0, 0), None
#     Edge 105, Type (0, 0), None
#     Edge 106, Type (0, 0), None
#     Edge 107, Type (0, 0), None
#     Edge 108, Type (0, 0), None
#     Edge 109, Type (0, 0), None
#     Edge 110, Type (0, 0), None
#     Edge 111, Type (0, 0), None
#     Edge 112, Type (0, 0), None
#     Edge 113, Type (0, 0), None
#     Edge 114, Type (0, 0), None
#     Edge 115, Type (0, 0), None
#     Edge 116, Type (0, 0), None
#     Edge 117, Type (0, 0), None
#     Edge 118, Type (0, 0), None
#     Edge 119, Type (0, 0), None
#     Edge 120, Type (0, 0), None
#     Edge 121, Type (0, 0), None
#     Edge 122, Type (0, 0), None
#     Edge 123, Type (0, 0), None
#     Edge 124, Type (0, 0), None
#     Edge 125, Type (0, 0), None
#     Edge 126, Type (0, 0), None
#     Edge 127, Type (0, 0), None
#     Edge 128, Type (0, 0), None
#     Edge 129, Type (0, 0), None
#     Edge 130, Type (0, 0), None
#     Edge 131, Type (0, 0), None
#     Edge 132, Type (0, 0), None
#     Edge 133, Type (0, 0), None
#     Edge 134, Type (0, 0), None
#     Edge 135, Type (0, 0), None
#     Edge 136, Type (0, 0), None
#     Edge 137, Type (0, 0), None
#     Edge 138, Type (0, 0), None
#     Edge 139, Type (0, 0), None
#     Edge 140, Type (0, 0), None
#     Edge 141, Type (0, 0), None
#     Edge 142, Type (0, 0), None
#     Edge 143, Type (0, 0), None
#     Edge 144, Type (0, 0), None
#     Edge 145, Type (0, 0), None
#     Edge 146, Type (0, 0), None
#     Edge 147, Type (0, 0), None
#     Edge 148, Type (0, 0), None
#     Edge 149, Type (0, 0), None
#     Edge 150, Type (0, 0), None
#     Edge 151, Type (0, 0), None
#     Edge 152, Type (0, 0), None
#     Edge 153, Type (0, 0), None
#     Edge 154, Type (0, 0), None
#     Edge 155, Type (0, 0), None
#     Edge 156, Type (0, 0), None
#     Edge 157, Type (0, 0), None
#     Edge 158, Type (0, 0), None
#     Edge 159, Type (0, 0), None
#     Edge 160, Type (0, 0), None
#     Edge 161, Type (0, 0), None
#     Edge 162, Type (0, 0), None
#     Edge 163, Type (0, 0), None
#     Edge 164, Type (0, 0), None
#     Edge 165, Type (0, 0), None
#     Edge 166, Type (0, 0), None
#     Edge 167, Type (0, 0), None
#     Edge 168, Type (0, 0), None
#     Edge 169, Type (0, 0), None
#     Edge 170, Type (0, 0), None
#     Edge 171, Type (0, 0), None
#     Edge 172, Type (0, 0), None
#     Edge 173, Type (0, 0), None
#     Edge 174, Type (0, 0), None
#     Edge 175, Type (0, 0), None
#     Edge 176, Type (0, 0), None
#     Edge 177, Type (0, 0), None
#     Edge 178, Type (0, 0), None
#     Edge 179, Type (0, 0), None
#     Edge 180, Type (0, 0), None
#     Edge 181, Type (0, 0), None
#     Edge 182, Type (0, 0), None
#     Edge 183, Type (0, 0), None
#     Edge 184, Type (0, 0), None
#     Edge 185, Type (0, 0), None
#     Edge 186, Type (0, 0), None
#     Edge 187, Type (0, 0), None
#     Edge 188, Type (0, 0), None
#     Edge 189, Type (0, 0), None
#     Edge 190, Type (0, 0), None
#     Edge 191, Type (0, 0), None
# Relax obj value: 0.448
# Max RMSD: 0.160
# Mean RMSD: 0.159
data_MOF--net-twf-e--node1-LEVNOQ01_clean_sbu_1--edge1-none
_symmetry_space_group_name_H-M    P1
_symmetry_Int_Tables_number       1
_symmetry_cell_setting            triclinic
loop_
_symmetry_equiv_pos_as_xyz
'x, y, z'
_cell_length_a     28.825224
_cell_length_b     28.976844
_cell_length_c     28.990866
_cell_angle_alpha  90.452484
_cell_angle_beta   89.425299
_cell_angle_gamma 90.447881
loop_
_atom_site_label
_atom_site_type_symbol
_atom_site_fract_x
_atom_site_fract_y
_atom_site_fract_z
_atom_type_partial_charge
O0 O 0.91031 0.13377 0.45537 0.0
Mg1 Mg 0.87212 0.13561 0.39459 0.0
O2 O -0.01917 0.12652 0.42274 0.0
Mg3 Mg -0.02074 0.15713 0.34361 0.0
O4 O 0.91093 0.12047 0.3368 0.0
O5 O 0.86977 0.06748 0.37191 0.0
O6 O 0.97093 0.19118 0.26613 0.0
O7 O 0.00948 0.09121 0.31085 0.0
Mg8 Mg 0.06326 0.1649 0.28754 0.0
O9 O 0.05313 0.19989 0.35412 0.0
O10 O 0.0388 0.2011 0.23092 0.0
O11 O 0.07378 0.0918 0.275 0.0
O12 O 0.11934 0.19727 0.31291 0.0
C13 C 0.90013 0.23032 0.37847 0.0
C14 C 0.95279 0.12376 0.45805 0.0
C15 C 0.89922 0.07795 0.34042 0.0
C16 C -0.00464 0.20546 0.23114 0.0
C17 C 0.05137 0.07872 0.30994 0.0
C18 C 0.09648 0.21336 0.34783 0.0
O19 O 0.86573 0.20329 0.37313 0.0
O20 O 0.94225 0.21817 0.37367 0.0
O21 O 0.83586 0.90594 0.4499 0.0
Mg22 Mg 0.84603 0.86796 0.38904 0.0
O23 O 0.85399 -0.02355 0.42304 0.0
Mg24 Mg 0.82684 0.97463 0.34309 0.0
O25 O 0.86658 0.90857 0.33535 0.0
O26 O 0.91744 0.87142 0.37607 0.0
O27 O 0.78684 0.96209 0.26876 0.0
O28 O 0.89522 0.00491 0.31182 0.0
Mg29 Mg 0.81666 0.04976 0.28582 0.0
O30 O 0.78384 0.04812 0.35387 0.0
O31 O 0.77205 0.02795 0.2343 0.0
O32 O 0.88793 0.06122 0.26627 0.0
O33 O 0.79182 0.10979 0.30774 0.0
C34 C 0.75449 0.89399 0.36074 0.0
C35 C 0.8485 0.9473 0.4567 0.0
C36 C 0.90917 0.89981 0.34379 0.0
C37 C 0.76623 -0.01499 0.2368 0.0
C38 C 0.90581 0.04621 0.30243 0.0
C39 C 0.77393 0.09128 0.34404 0.0
O40 O 0.78289 0.86107 0.35588 0.0
O41 O 0.76631 0.93551 0.3697 0.0
O42 O 0.06859 0.84795 0.46858 0.0
Mg43 Mg 0.1142 0.85184 0.41183 0.0
O44 O -0.00086 0.85359 0.43405 0.0
Mg45 Mg 0.01019 0.82793 0.35325 0.0
O46 O 0.07772 0.86478 0.35454 0.0
O47 O 0.11709 0.92042 0.38653 0.0
O48 O 0.02759 0.78548 0.28164 0.0
O49 O -0.01475 0.89556 0.31951 0.0
Mg50 Mg 0.94236 0.82682 0.28577 0.0
O51 O 0.93616 0.78763 0.34979 0.0
O52 O 0.96661 0.78235 0.23581 0.0
O53 O 0.93237 0.8992 0.26963 0.0
O54 O 0.88013 0.80041 0.29782 0.0
C55 C 0.08801 0.75646 0.38199 0.0
C56 C 0.02501 0.85282 0.47074 0.0
C57 C 0.08867 0.90748 0.35542 0.0
C58 C 0.00579 0.7676 0.24691 0.0
C59 C 0.945 0.90932 0.30981 0.0
C60 C 0.89501 0.77829 0.33292 0.0
O61 O 0.12172 0.78486 0.38545 0.0
O62 O 0.04523 0.76745 0.3829 0.0
O63 O 0.08819 0.91809 0.27891 0.0
Mg64 Mg 0.1608 0.93544 0.28892 0.0
O65 O 0.09009 -0.02107 0.31987 0.0
Mg66 Mg 0.15526 0.00869 0.3535 0.0
O67 O 0.19935 0.93362 0.35417 0.0
O68 O 0.19624 0.87793 0.29988 0.0
O69 O 0.21499 0.04431 0.38424 0.0
O70 O 0.1237 0.00219 0.43131 0.0
Mg71 Mg 0.12931 0.11454 0.41096 0.0
O72 O 0.11934 0.07551 0.35399 0.0
O73 O 0.19976 0.12013 0.39379 0.0
O74 O 0.12241 0.07159 0.46751 0.0
O75 O 0.06337 0.11797 0.38031 0.0
C76 C 0.2035 0.01007 0.24211 0.0
C77 C 0.07813 0.93694 0.31682 0.0
C78 C 0.21293 0.89289 0.33821 0.0
C79 C 0.22718 0.086 0.39112 0.0
C80 C 0.11637 0.02833 0.46732 0.0
C81 C 0.07719 0.08767 0.35128 0.0
O82 O 0.1947 0.96816 0.23421 0.0
O83 O 0.19095 0.0285 0.28065 0.0
O84 O 0.96962 0.87717 0.52621 0.0
Mg85 Mg 0.92828 0.86122 0.58385 0.0
O86 O 0.02086 0.82574 0.54914 0.0
Mg87 Mg 0.01068 0.79113 0.62534 0.0
O88 O 0.94261 0.82463 0.6433 0.0
O89 O 0.94867 0.89957 0.64408 0.0
O90 O 0.00333 0.75259 0.69586 0.0
O91 O 0.04498 0.84517 0.67315 0.0
Mg92 Mg 0.10342 0.78411 0.66802 0.0
O93 O 0.07926 0.74604 0.60902 0.0
O94 O 0.07253 0.75845 0.72961 0.0
O95 O 0.11705 0.85662 0.65986 0.0
O96 O 0.15021 0.74223 0.64082 0.0
C97 C 0.92523 0.75438 0.56273 0.0
C98 C 0.00464 0.85269 0.51795 0.0
C99 C 0.92779 0.8633 0.65855 0.0
C100 C 0.03015 0.74644 0.73052 0.0
C101 C 0.07701 0.87347 0.66396 0.0
C102 C 0.12079 0.72792 0.61055 0.0
O103 O 0.90792 0.79465 0.56104 0.0
O104 O 0.96282 0.74418 0.58407 0.0
O105 O 0.10326 0.09596 0.66814 0.0
Mg106 Mg 0.16934 0.06377 0.67491 0.0
O107 O 0.09329 0.02267 0.66571 0.0
Mg108 Mg 0.15237 -0.0066 0.62139 0.0
O109 O 0.2123 0.05593 0.61571 0.0
O110 O 0.21616 0.11301 0.66899 0.0
O111 O 0.1948 0.9427 0.58185 0.0
O112 O 0.12782 0.01824 0.54742 0.0
Mg113 Mg 0.08402 0.92314 0.55773 0.0
O114 O 0.09504 0.9417 0.62329 0.0
O115 O 0.14747 0.88981 0.54807 0.0
O116 O 0.0761 0.9741 0.51046 0.0
O117 O 0.03468 0.8989 0.60233 0.0
C118 C 0.19942 -0.01616 0.72611 0.0
C119 C 0.07572 0.06208 0.66679 0.0
C120 C 0.23174 0.09408 0.63173 0.0
C121 C 0.18716 0.90494 0.55988 0.0
C122 C 0.10392 0.00777 0.51148 0.0
C123 C 0.06551 0.90949 0.63244 0.0
O124 O 0.19201 0.02633 0.73253 0.0
O125 O 0.18634 0.96411 0.68876 0.0
O126 O 0.00364 0.08499 0.50747 0.0
Mg127 Mg 0.04239 0.08292 0.56818 0.0
O128 O 0.95198 0.1312 0.54044 0.0
Mg129 Mg 0.96 0.14858 0.62086 0.0
O130 O 0.02205 0.10702 0.63202 0.0
O131 O 0.02024 0.0336 0.61825 0.0
O132 O 0.97114 0.18211 0.69621 0.0
O133 O 0.92217 0.08319 0.64173 0.0
Mg134 Mg 0.88034 0.1568 0.67464 0.0
O135 O 0.8936 0.19607 0.61308 0.0
O136 O 0.90364 0.19458 0.73088 0.0
O137 O 0.85967 0.08625 0.68372 0.0
O138 O 0.82641 0.19188 0.65368 0.0
C139 C 0.05455 0.18978 0.57893 0.0
C140 C 0.96952 0.11158 0.50442 0.0
C141 C 0.02979 0.06656 0.6464 0.0
C142 C 0.94685 0.2008 0.72878 0.0
C143 C 0.89021 0.06246 0.66354 0.0
C144 C 0.85178 0.21096 0.62226 0.0
O145 O 0.07069 0.15015 0.56849 0.0
O146 O 0.0137 0.19806 0.59527 0.0
O147 O 0.88196 -0.00685 0.51526 0.0
Mg148 Mg 0.87437 0.02725 0.57856 0.0
O149 O 0.82808 0.94267 0.53706 0.0
Mg150 Mg 0.80015 0.94438 0.61588 0.0
O151 O 0.84237 0.0048 0.63897 0.0
O152 O 0.91664 -0.00436 0.62974 0.0
O153 O 0.76388 0.95016 0.69153 0.0
O154 O 0.86025 0.90306 0.64096 0.0
Mg155 Mg 0.77973 0.85886 0.65803 0.0
O156 O 0.74925 0.88085 0.59365 0.0
O157 O 0.74376 0.88167 0.71808 0.0
O158 O 0.84961 0.83427 0.66818 0.0
O159 O 0.74026 0.81158 0.6271 0.0
C160 C 0.76626 0.03877 0.57199 0.0
C161 C 0.85395 0.96111 0.50558 0.0
C162 C 0.8833 0.0132 0.65321 0.0
C163 C 0.74457 0.92499 0.72287 0.0
C164 C 0.87676 0.86739 0.65902 0.0
C165 C 0.72928 0.83999 0.59512 0.0
O166 O 0.80737 0.05472 0.56727 0.0
O167 O 0.7554 -0.00092 0.58862 0.0
O168 O 0.45091 0.96667 0.0883 0.0
Mg169 Mg 0.38517 0.93547 0.08593 0.0
O170 O 0.42494 0.02158 0.1352 0.0
Mg171 Mg 0.34383 0.01924 0.1561 0.0
O172 O 0.32297 0.95962 0.11221 0.0
O173 O 0.33912 0.96904 0.03948 0.0
O174 O 0.26788 0.01066 0.18991 0.0
O175 O 0.32325 0.05979 0.09442 0.0
Mg176 Mg 0.29635 0.09973 0.17306 0.0
O177 O 0.36205 0.08506 0.20517 0.0
O178 O 0.23938 0.07747 0.21251 0.0
O179 O 0.28375 0.12254 0.10417 0.0
O180 O 0.32352 0.15258 0.20646 0.0
C181 C 0.3778 0.92196 0.19268 0.0
C182 C 0.45855 0.00065 0.11447 0.0
C183 C 0.31192 0.95218 0.07029 0.0
C184 C 0.23667 0.03409 0.21137 0.0
C185 C 0.30151 0.09304 0.07737 0.0
C186 C 0.35712 0.12751 0.22052 0.0
O187 O 0.38424 0.9057 0.15216 0.0
O188 O 0.36646 0.96372 0.20277 0.0
O189 O 0.03991 0.45434 0.11948 0.0
Mg190 Mg 0.08357 0.39632 0.11239 0.0
O191 O 0.96969 0.42039 0.11777 0.0
Mg192 Mg -0.02009 0.33917 0.13607 0.0
O193 O 0.0466 0.33975 0.09407 0.0
O194 O 0.09342 0.37307 0.0445 0.0
O195 O -0.0034 0.26437 0.17212 0.0
O196 O 0.94986 0.30836 0.06783 0.0
Mg197 Mg 0.90429 0.27784 0.14562 0.0
O198 O 0.9083 0.34349 0.18112 0.0
O199 O 0.93078 0.22752 0.18775 0.0
O200 O 0.89176 0.26328 0.07394 0.0
O201 O 0.84534 0.29771 0.17595 0.0
C202 C 0.06182 0.36237 0.20563 0.0
C203 C -0.00394 0.45696 0.11933 0.0
C204 C 0.06221 0.34239 0.05248 0.0
C205 C 0.97376 0.23218 0.19352 0.0
C206 C 0.9085 0.29933 0.05637 0.0
C207 C 0.86583 0.33297 0.19414 0.0
O208 O 0.0945 0.3663 0.17619 0.0
O209 O 0.01888 0.36465 0.19618 0.0
O210 O 0.51437 0.05482 0.13689 0.0
Mg211 Mg 0.57855 0.08928 0.13745 0.0
O212 O 0.54047 -0.01688 0.12358 0.0
Mg213 Mg 0.62067 -0.01912 0.15183 0.0
O214 O 0.63241 0.04869 0.11496 0.0
O215 O 0.59665 0.095 0.06807 0.0
O216 O 0.69877 -0.01239 0.18716 0.0
O217 O 0.6487 0.95118 0.08251 0.0
Mg218 Mg 0.67209 0.89819 0.16628 0.0
O219 O 0.60378 0.90909 0.19525 0.0
O220 O 0.7254 0.91989 0.20888 0.0
O221 O 0.69288 0.89429 0.09508 0.0
O222 O 0.6417 0.8417 0.19307 0.0
C223 C 0.59654 0.05719 0.22982 0.0
C224 C 0.50733 0.01339 0.12465 0.0
C225 C 0.62606 0.06277 0.07355 0.0
C226 C 0.72961 0.96311 0.20793 0.0
C227 C 0.65892 0.90978 0.07349 0.0
C228 C 0.60756 0.86593 0.20877 0.0
O229 O 0.60358 0.09224 0.20464 0.0
O230 O 0.59505 0.01624 0.2144 0.0
O231 O 0.93294 0.50544 0.1365 0.0
Mg232 Mg 0.89424 0.56624 0.14709 0.0
O233 O 0.00288 0.53914 0.13507 0.0
Mg234 Mg -0.00086 0.6167 0.16929 0.0
O235 O 0.92975 0.62578 0.13353 0.0
O236 O 0.87891 0.59528 0.08566 0.0
O237 O -0.00447 0.69416 0.20687 0.0
O238 O 0.02884 0.65631 0.10625 0.0
Mg239 Mg 0.08848 0.66513 0.18206 0.0
O240 O 0.06988 0.59911 0.20908 0.0
O241 O 0.06672 0.72064 0.22126 0.0
O242 O 0.09891 0.68169 0.11159 0.0
O243 O 0.14055 0.63126 0.21246 0.0
C244 C 0.91824 0.58034 0.24036 0.0
C245 C 0.97614 0.50343 0.12879 0.0
C246 C 0.9104 0.62575 0.09373 0.0
C247 C 0.02342 0.72579 0.22311 0.0
C248 C 0.06887 0.66037 0.08836 0.0
C249 C 0.11235 0.59868 0.22478 0.0
O250 O 0.88609 0.59069 0.21319 0.0
O251 O 0.96116 0.58251 0.22937 0.0
O252 O 0.44273 -0.00593 0.88809 0.0
Mg253 Mg 0.38717 0.03904 0.8813 0.0
O254 O 0.4137 0.94567 0.83584 0.0
Mg255 Mg 0.33932 0.96311 0.80428 0.0
O256 O 0.32759 0.02661 0.84446 0.0
O257 O 0.32505 0.02322 0.91919 0.0
O258 O 0.2712 -0.0173 0.7653 0.0
O259 O 0.29138 0.93242 0.86023 0.0
Mg260 Mg 0.28799 0.88338 0.78998 0.0
O261 O 0.3509 0.89591 0.75175 0.0
O262 O 0.22884 0.91874 0.76489 0.0
O263 O 0.29501 0.85903 0.85928 0.0
O264 O 0.30318 0.83406 0.74546 0.0
C265 C 0.40426 0.05053 0.77596 0.0
C266 C 0.44726 0.95995 0.86137 0.0
C267 C 0.30911 0.04044 0.88208 0.0
C268 C 0.23357 0.9611 0.75546 0.0
C269 C 0.29686 0.89592 0.88255 0.0
C270 C 0.3398 0.85615 0.73211 0.0
O271 O 0.40617 0.06668 0.81693 0.0
O272 O 0.38364 0.01276 0.76362 0.0
O273 O 0.90321 0.46905 0.83267 0.0
Mg274 Mg 0.85761 0.41249 0.8258 0.0
O275 O 0.96885 0.42774 0.83138 0.0
Mg276 Mg 0.96092 0.35076 0.80103 0.0
O277 O 0.89244 0.35289 0.83619 0.0
O278 O 0.84963 0.38277 0.89083 0.0
O279 O 0.94582 0.27433 0.76801 0.0
O280 O -0.01204 0.3167 0.86646 0.0
Mg281 Mg 0.04038 0.28954 0.79917 0.0
O282 O 0.0365 0.35363 0.75964 0.0
O283 O 0.01056 0.23343 0.76635 0.0
O284 O 0.05026 0.27902 0.87259 0.0
O285 O 0.09835 0.30748 0.76466 0.0
C286 C 0.88439 0.39193 0.73007 0.0
C287 C 0.9464 0.46559 0.83914 0.0
C288 C 0.87878 0.35212 0.87804 0.0
C289 C 0.96799 0.23689 0.75789 0.0
C290 C 0.02892 0.31561 0.88165 0.0
C291 C 0.07901 0.34282 0.74646 0.0
O292 O 0.8505 0.38914 0.75819 0.0
O293 O 0.9264 0.38352 0.74043 0.0
O294 O 0.49416 0.89589 0.85284 0.0
Mg295 Mg 0.54983 0.85044 0.84887 0.0
O296 O 0.53049 0.96515 0.84905 0.0
Mg297 Mg 0.60963 0.95323 0.81856 0.0
O298 O 0.60769 0.88822 0.8579 0.0
O299 O 0.5832 0.84364 0.9127 0.0
O300 O 0.68055 0.92943 0.77757 0.0
O301 O 0.6458 -0.01731 0.88307 0.0
Mg302 Mg 0.67738 0.01994 0.81054 0.0
O303 O 0.61163 0.02671 0.77334 0.0
O304 O 0.72929 -0.01202 0.77215 0.0
O305 O 0.69184 0.0398 0.88121 0.0
O306 O 0.67018 0.07835 0.7767 0.0
C307 C 0.5731 0.87255 0.75117 0.0
C308 C 0.49363 0.93949 0.85564 0.0
C309 C 0.61217 0.87426 0.89917 0.0
C310 C 0.71842 0.94724 0.7614 0.0
C311 C 0.65338 0.02417 0.89491 0.0
C312 C 0.63092 0.06597 0.7599 0.0
O313 O 0.56917 0.84008 0.78021 0.0
O314 O 0.57679 0.91535 0.76108 0.0
O315 O 0.01311 0.49989 0.86605 0.0
Mg316 Mg 0.06737 0.54491 0.87567 0.0
O317 O 0.95734 0.54781 0.84343 0.0
Mg318 Mg -0.0093 0.62035 0.82102 0.0
O319 O 0.05025 0.61051 0.86426 0.0
O320 O 0.06235 0.58948 0.93421 0.0
O321 O 0.0246 0.68428 0.78293 0.0
O322 O 0.96867 0.66911 0.88063 0.0
Mg323 Mg 0.92538 0.69333 0.81383 0.0
O324 O 0.92307 0.62992 0.7743 0.0
O325 O 0.97227 0.7399 0.78581 0.0
O326 O 0.90082 0.69722 0.88382 0.0
O327 O 0.87277 0.68896 0.77115 0.0
C328 C 0.07348 0.56455 0.77222 0.0
C329 C 0.97252 0.5071 0.85237 0.0
C330 C 0.05792 0.62245 0.90554 0.0
C331 C 0.01069 0.72449 0.77158 0.0
C332 C 0.93128 0.67336 0.90311 0.0
C333 C 0.88624 0.64903 0.75675 0.0
O334 O 0.09462 0.55311 0.80883 0.0
O335 O 0.03135 0.57848 0.77008 0.0
O336 O 0.11965 0.46599 0.9049 0.0
Mg337 Mg 0.11374 0.41454 0.85355 0.0
O338 O 0.1163 0.42379 0.96978 0.0
Mg339 Mg 0.13854 0.34727 0.95173 0.0
O340 O 0.09998 0.35578 0.8868 0.0
O341 O 0.04643 0.3865 0.84496 0.0
O342 O 0.17668 0.27723 0.92695 0.0
O343 O 0.07069 0.3124 -0.02124 0.0
Mg344 Mg 0.13907 0.27879 0.01784 0.0
O345 O 0.18071 0.34175 0.02449 0.0
O346 O 0.17883 0.22903 -0.01441 0.0
O347 O 0.06658 0.26671 0.0353 0.0
O348 O 0.17075 0.28642 0.07765 0.0
C349 C 0.20857 0.38221 0.87179 0.0
C350 C 0.11751 0.4628 0.94845 0.0
C351 C 0.058 0.3554 0.87356 0.0
C352 C 0.19282 0.24087 0.94614 0.0
C353 C 0.05557 0.30525 0.01934 0.0
C354 C 0.19153 0.32344 0.06427 0.0
O355 O 0.17909 0.3877 0.84004 0.0
O356 O 0.19891 0.37898 0.9148 0.0
O357 O 0.12084 0.50166 0.01845 0.0
Mg358 Mg 0.13266 0.55623 0.06237 0.0
O359 O 0.13765 0.54304 0.95574 0.0
Mg360 Mg 0.16853 0.61777 -0.02276 0.0
O361 O 0.11676 0.61771 0.03778 0.0
O362 O 0.07993 0.58212 0.09705 0.0
O363 O 0.20148 0.69142 -0.00155 0.0
O364 O 0.11104 0.66304 0.94838 0.0
Mg365 Mg 0.18225 0.67458 0.89669 0.0
O366 O 0.2186 0.61164 0.9087 0.0
O367 O 0.20444 0.73226 0.93382 0.0
O368 O 0.11244 0.67146 0.8751 0.0
O369 O 0.22721 0.65759 0.84707 0.0
C370 C 0.22923 0.56743 0.05973 0.0
C371 C 0.12381 0.50532 0.97525 0.0
C372 C 0.08742 0.61812 0.07196 0.0
C373 C 0.21033 0.72932 -0.02325 0.0
C374 C 0.08966 0.66066 0.91086 0.0
C375 C 0.23861 0.62077 0.86879 0.0
O376 O 0.19634 0.56792 0.08852 0.0
O377 O 0.22449 0.57869 0.01749 0.0
O378 O 0.44433 0.09242 0.00183 0.0
Mg379 Mg 0.38424 0.10877 0.03905 0.0
O380 O 0.42431 0.14615 0.95196 0.0
Mg381 Mg 0.34568 0.17612 0.95475 0.0
O382 O 0.32374 0.14187 0.02004 0.0
O383 O 0.32991 0.06859 0.00735 0.0
O384 O 0.26808 0.20785 0.95617 0.0
O385 O 0.32062 0.11112 0.91927 0.0
Mg386 Mg 0.30482 0.18558 0.86495 0.0
O387 O 0.36563 0.22108 0.8886 0.0
O388 O 0.24153 0.2153 0.88515 0.0
O389 O 0.30038 0.11417 0.84737 0.0
O390 O 0.33556 0.22491 0.81745 0.0
C391 C 0.40071 0.21853 0.0385 0.0
C392 C 0.45469 0.11861 0.96882 0.0
C393 C 0.30871 0.10138 0.02805 0.0
C394 C 0.23557 0.21916 0.92815 0.0
C395 C 0.30573 0.09094 0.88358 0.0
C396 C 0.36547 0.23899 0.84733 0.0
O397 O 0.4056 0.17778 0.05378 0.0
O398 O 0.37658 0.22877 0.00294 0.0
O399 O 0.83361 0.45691 0.04554 0.0
Mg400 Mg 0.82144 0.39499 0.08189 0.0
O401 O 0.83404 0.42506 0.97495 0.0
Mg402 Mg 0.80339 0.34618 0.97438 0.0
O403 O 0.83731 0.33793 0.0436 0.0
O404 O 0.88465 0.36562 0.09585 0.0
O405 O 0.76973 0.26718 -0.02212 0.0
O406 O 0.87173 0.31524 0.94616 0.0
Mg407 Mg 0.79188 0.29529 0.88576 0.0
O408 O 0.76288 0.36215 0.90217 0.0
O409 O 0.75172 0.24005 0.90844 0.0
O410 O 0.86447 0.27771 0.88323 0.0
O411 O 0.76281 0.32865 0.83239 0.0
C412 C 0.72633 0.37778 0.05114 0.0
C413 C 0.84099 0.45987 0.00257 0.0
C414 C 0.87751 0.33764 0.06219 0.0
C415 C 0.75238 0.23505 0.95157 0.0
C416 C 0.88326 0.31085 0.90426 0.0
C417 C 0.74845 0.36143 0.85926 0.0
O418 O 0.75283 0.37285 0.08539 0.0
O419 O 0.73981 0.37422 0.0094 0.0
O420 O 0.50582 0.8244 0.0588 0.0
Mg421 Mg 0.56489 0.82057 0.10018 0.0
O422 O 0.54267 0.83432 -0.00898 0.0
Mg423 Mg 0.62002 0.80259 -0.00581 0.0
O424 O 0.62324 0.83719 0.06327 0.0
O425 O 0.58896 0.88775 0.10805 0.0
O426 O 0.69567 0.76771 0.00552 0.0
O427 O 0.65475 0.86836 0.9657 0.0
Mg428 Mg 0.67937 0.79904 0.91274 0.0
O429 O 0.61307 0.76176 0.91874 0.0
O430 O 0.73552 0.76327 0.93997 0.0
O431 O 0.68951 0.87256 0.90114 0.0
O432 O 0.65823 0.76668 0.85541 0.0
C433 C 0.58374 0.72816 0.07054 0.0
C434 C 0.50607 0.83696 0.01708 0.0
C435 C 0.62006 0.87888 0.07753 0.0
C436 C 0.7322 0.7553 -0.01743 0.0
C437 C 0.65421 0.88292 0.92464 0.0
C438 C 0.62217 0.7495 0.87569 0.0
O439 O 0.59077 0.75442 0.10492 0.0
O440 O 0.58749 0.74116 0.02879 0.0
O441 O 0.85761 0.508 0.94056 0.0
Mg442 Mg 0.87147 0.56621 0.90155 0.0
O443 O 0.85254 0.543 0.00917 0.0
Mg444 Mg 0.82898 0.62272 -0.00317 0.0
O445 O 0.87067 0.62974 0.93273 0.0
O446 O 0.9362 0.59588 0.91865 0.0
O447 O 0.78944 0.69501 -0.01861 0.0
O448 O 0.89329 0.6613 0.02715 0.0
Mg449 Mg 0.81613 0.68065 0.07494 0.0
O450 O 0.7841 0.61343 0.06653 0.0
O451 O 0.77297 0.73027 0.04756 0.0
O452 O 0.88708 0.69846 0.09023 0.0
O453 O 0.78552 0.65558 0.1317 0.0
C454 C 0.77139 0.59233 0.90947 0.0
C455 C 0.85273 0.50604 -0.01634 0.0
C456 C 0.91449 0.63316 0.92758 0.0
C457 C 0.76815 0.72688 0.0045 0.0
C458 C 0.90774 0.66743 0.06774 0.0
C459 C 0.76988 0.62048 0.10898 0.0
O460 O 0.80566 0.58734 0.88193 0.0
O461 O 0.77386 0.59273 0.95345 0.0
O462 O 0.27659 0.88029 0.09069 0.0
Mg463 Mg 0.28454 0.80934 0.07104 0.0
O464 O 0.32342 0.88223 0.03178 0.0
Mg465 Mg 0.34504 0.81643 -0.00434 0.0
O466 O 0.34574 0.76856 0.06182 0.0
O467 O 0.30021 0.77256 0.12555 0.0
O468 O 0.37228 0.76518 0.94447 0.0
O469 O 0.42404 0.83128 0.01105 0.0
Mg470 Mg 0.40931 0.87711 0.9154 0.0
O471 O 0.34391 0.85913 0.93391 0.0
O472 O 0.40767 0.80899 0.88895 0.0
O473 O 0.4626 0.87773 0.96348 0.0
O474 O 0.35884 0.9303 0.91835 0.0
C475 C 0.23585 0.76701 -0.00064 0.0
C476 C 0.29992 0.9035 0.06202 0.0
C477 C 0.33315 0.75315 0.10234 0.0
C478 C 0.39226 0.77083 0.90497 0.0
C479 C 0.46165 0.8511 -0.00238 0.0
C480 C 0.32844 0.89797 0.92152 0.0
O481 O 0.23023 0.77299 0.04208 0.0
O482 O 0.26999 0.78617 -0.0223 0.0
O483 O 0.50665 0.12398 0.9073 0.0
Mg484 Mg 0.56471 0.11738 0.8635 0.0
O485 O 0.53842 0.11464 -0.02275 0.0
Mg486 Mg 0.62014 0.13622 0.96817 0.0
O487 O 0.61997 0.09851 0.9008 0.0
O488 O 0.58518 0.04761 0.85739 0.0
O489 O 0.69406 0.17473 0.94999 0.0
O490 O 0.64758 0.06623 -0.00297 0.0
Mg491 Mg 0.68508 0.14003 0.03599 0.0
O492 O 0.62064 0.17845 0.04072 0.0
O493 O 0.73692 0.18333 0.0122 0.0
O494 O 0.69961 0.06862 0.04839 0.0
O495 O 0.67195 0.16727 0.09744 0.0
C496 C 0.59734 0.21017 0.89037 0.0
C497 C 0.50271 0.11824 0.95041 0.0
C498 C 0.6162 0.05652 0.88747 0.0
C499 C 0.72823 0.19423 0.97136 0.0
C500 C 0.66 0.05447 0.03714 0.0
C501 C 0.63648 0.18852 0.08186 0.0
O502 O 0.59535 0.1825 0.85619 0.0
O503 O 0.59471 0.19806 0.93244 0.0
O504 O 0.41027 0.63446 0.95517 0.0
Mg505 Mg 0.37213 0.6363 0.89434 0.0
O506 O 0.48073 0.62677 0.92254 0.0
Mg507 Mg 0.47931 0.65744 0.84345 0.0
O508 O 0.41093 0.62084 0.8366 0.0
O509 O 0.36955 0.56813 0.87189 0.0
O510 O 0.47111 0.69147 0.76597 0.0
O511 O 0.50951 0.59149 0.81072 0.0
Mg512 Mg 0.56342 0.66509 0.78744 0.0
O513 O 0.55322 0.70012 0.85399 0.0
O514 O 0.539 0.70126 0.73077 0.0
O515 O 0.57389 0.59196 0.77502 0.0
O516 O 0.61948 0.69745 0.81287 0.0
C517 C 0.4003 0.73082 0.8781 0.0
C518 C 0.45267 0.62415 0.95784 0.0
C519 C 0.39909 0.57836 0.8404 0.0
C520 C 0.49557 0.7057 0.73098 0.0
C521 C 0.55138 0.57895 0.80993 0.0
C522 C 0.59658 0.71358 0.84774 0.0
O523 O 0.36587 0.70389 0.87258 0.0
O524 O 0.44241 0.71854 0.87351 0.0
O525 O 0.33578 0.40587 0.95004 0.0
Mg526 Mg 0.34597 0.368 0.88913 0.0
O527 O 0.35381 0.47643 0.92325 0.0
Mg528 Mg 0.32671 0.47471 0.84328 0.0
O529 O 0.36649 0.40869 0.83548 0.0
O530 O 0.41738 0.37154 0.87617 0.0
O531 O 0.28678 0.46214 0.76889 0.0
O532 O 0.39518 0.50515 0.8123 0.0
Mg533 Mg 0.31633 0.54972 0.78609 0.0
O534 O 0.2836 0.54813 0.85415 0.0
O535 O 0.27172 0.528 0.73457 0.0
O536 O 0.38752 0.56116 0.76641 0.0
O537 O 0.29148 0.60976 0.80794 0.0
C538 C 0.25439 0.39398 0.86081 0.0
C539 C 0.3484 0.44723 0.95687 0.0
C540 C 0.40909 0.39996 0.84391 0.0
C541 C 0.26607 0.48503 0.73698 0.0
C542 C 0.40561 0.54642 0.80257 0.0
C543 C 0.27363 0.59127 0.84426 0.0
O544 O 0.28278 0.36105 0.85605 0.0
O545 O 0.26618 0.4355 0.86978 0.0
O546 O 0.56847 0.3481 0.96868 0.0
Mg547 Mg 0.61411 0.35199 0.91196 0.0
O548 O 0.49903 0.35376 0.93413 0.0
Mg549 Mg 0.5101 0.32811 0.85334 0.0
O550 O 0.57763 0.36496 0.85467 0.0
O551 O 0.61701 0.42058 0.88668 0.0
O552 O 0.52752 0.28567 0.78172 0.0
O553 O 0.48517 0.39574 0.8196 0.0
Mg554 Mg 0.44227 0.32702 0.78583 0.0
O555 O 0.43608 0.28779 0.84983 0.0
O556 O 0.46655 0.28256 0.73587 0.0
O557 O 0.43227 0.39942 0.76975 0.0
O558 O 0.38004 0.30061 0.79787 0.0
C559 C 0.5879 0.25664 0.88193 0.0
C560 C 0.52489 0.35297 0.97082 0.0
C561 C 0.58859 0.40766 0.85557 0.0
C562 C 0.50573 0.2678 0.74698 0.0
C563 C 0.44491 0.4095 0.80994 0.0
C564 C 0.39493 0.27846 0.83295 0.0
O565 O 0.62161 0.28502 0.88552 0.0
O566 O 0.54512 0.26762 0.883 0.0
O567 O 0.58812 0.41829 0.77907 0.0
Mg568 Mg 0.66073 0.43562 0.78911 0.0
O569 O 0.59 0.47912 0.82005 0.0
Mg570 Mg 0.65517 0.50888 0.85368 0.0
O571 O 0.69928 0.43382 0.85436 0.0
O572 O 0.69618 0.37812 0.80008 0.0
O573 O 0.71491 0.54451 0.88438 0.0
O574 O 0.62358 0.50242 0.93151 0.0
Mg575 Mg 0.62919 0.61476 0.91109 0.0
O576 O 0.61925 0.5757 0.85414 0.0
O577 O 0.69968 0.62032 0.89401 0.0
O578 O 0.62218 0.57185 0.96766 0.0
O579 O 0.56329 0.61825 0.8803 0.0
C580 C 0.70342 0.51023 0.74228 0.0
C581 C 0.57804 0.43713 0.81699 0.0
C582 C 0.71288 0.3931 0.83839 0.0
C583 C 0.7271 0.58621 0.8912 0.0
C584 C 0.61618 0.52858 0.96751 0.0
C585 C 0.57714 0.58792 0.85132 0.0
O586 O 0.69462 0.46832 0.73439 0.0
O587 O 0.69088 0.52867 0.78081 0.0
O588 O 0.46946 0.37723 0.02629 0.0
Mg589 Mg 0.42814 0.3612 0.08392 0.0
O590 O 0.52076 0.32584 0.04919 0.0
Mg591 Mg 0.51061 0.29115 0.12533 0.0
O592 O 0.44252 0.32456 0.14332 0.0
O593 O 0.4486 0.39947 0.14419 0.0
O594 O 0.50325 0.25259 0.1958 0.0
O595 O 0.54485 0.34523 0.17315 0.0
Mg596 Mg 0.60331 0.28418 0.16798 0.0
O597 O 0.57919 0.24609 0.10899 0.0
O598 O 0.57242 0.25855 0.22958 0.0
O599 O 0.61691 0.35668 0.1598 0.0
O600 O 0.65013 0.2423 0.14081 0.0
C601 C 0.4252 0.25436 0.06271 0.0
C602 C 0.50451 0.3528 0.01802 0.0
C603 C 0.42774 0.36319 0.15866 0.0
C604 C 0.53005 0.2465 0.23047 0.0
C605 C 0.57688 0.37353 0.16398 0.0
C606 C 0.62073 0.22799 0.11052 0.0
O607 O 0.40785 0.29462 0.06104 0.0
O608 O 0.46279 0.24418 0.08404 0.0
O609 O 0.60302 0.59624 0.16838 0.0
Mg610 Mg 0.6692 0.56421 0.17526 0.0
O611 O 0.59335 0.52294 0.16638 0.0
Mg612 Mg 0.65213 0.49367 0.12162 0.0
O613 O 0.71202 0.55626 0.11596 0.0
O614 O 0.716 0.61342 0.16916 0.0
O615 O 0.69459 0.4431 0.08193 0.0
O616 O 0.6275 0.5186 0.04766 0.0
Mg617 Mg 0.58392 0.42337 0.05791 0.0
O618 O 0.59486 0.44189 0.1235 0.0
O619 O 0.64738 0.39006 0.04823 0.0
O620 O 0.57598 0.47428 0.01062 0.0
O621 O 0.53455 0.39907 0.1024 0.0
C622 C 0.69938 0.48405 0.22625 0.0
C623 C 0.57559 0.56226 0.16704 0.0
C624 C 0.7315 0.59444 0.13189 0.0
C625 C 0.68703 0.40533 0.05997 0.0
C626 C 0.60369 0.50803 0.01168 0.0
C627 C 0.56534 0.40964 0.13255 0.0
O628 O 0.69197 0.52654 0.23272 0.0
O629 O 0.68626 0.46435 0.18889 0.0
O630 O 0.50344 0.58515 0.00713 0.0
Mg631 Mg 0.54242 0.5831 0.06766 0.0
O632 O 0.45187 0.63135 0.04026 0.0
Mg633 Mg 0.46003 0.64854 0.12071 0.0
O634 O 0.52209 0.60691 0.13157 0.0
O635 O 0.52099 0.53349 0.11769 0.0
O636 O 0.4713 0.68199 0.19609 0.0
O637 O 0.42221 0.58313 0.14164 0.0
Mg638 Mg 0.38039 0.6568 0.17463 0.0
O639 O 0.39367 0.69605 0.11309 0.0
O640 O 0.40383 0.69454 0.23081 0.0
O641 O 0.35975 0.58625 0.18372 0.0
O642 O 0.32648 0.69194 0.1537 0.0
C643 C 0.55453 0.68991 0.07874 0.0
C644 C 0.46935 0.61178 0.00418 0.0
C645 C 0.52993 0.56648 0.146 0.0
C646 C 0.44705 0.70072 0.22867 0.0
C647 C 0.39026 0.56244 0.16352 0.0
C648 C 0.35187 0.71099 0.12228 0.0
O649 O 0.57071 0.65033 0.06812 0.0
O650 O 0.51368 0.69808 0.09514 0.0
O651 O 0.38207 0.49289 0.01545 0.0
Mg652 Mg 0.37451 0.52702 0.07872 0.0
O653 O 0.32802 0.44258 0.03723 0.0
Mg654 Mg 0.30014 0.44428 0.11604 0.0
O655 O 0.34243 0.50467 0.13913 0.0
O656 O 0.41674 0.49549 0.12997 0.0
O657 O 0.26386 0.45007 0.19169 0.0
O658 O 0.36019 0.40293 0.14111 0.0
Mg659 Mg 0.27971 0.35878 0.1582 0.0
O660 O 0.24922 0.38074 0.09381 0.0
O661 O 0.24375 0.38158 0.21824 0.0
O662 O 0.34957 0.33416 0.16837 0.0
O663 O 0.24027 0.31148 0.12731 0.0
C664 C 0.26644 0.53871 0.07209 0.0
C665 C 0.35393 0.46097 0.00575 0.0
C666 C 0.38337 0.51315 0.15334 0.0
C667 C 0.24455 0.42489 0.22303 0.0
C668 C 0.37672 0.36728 0.15918 0.0
C669 C 0.22927 0.33986 0.09531 0.0
O670 O 0.30758 0.55459 0.06741 0.0
O671 O 0.25548 0.49905 0.08874 0.0
O672 O 0.95082 0.46663 0.58851 0.0
Mg673 Mg 0.88507 0.43546 0.58613 0.0
O674 O 0.92486 0.52161 0.63534 0.0
Mg675 Mg 0.84375 0.5193 0.65625 0.0
O676 O 0.82284 0.45966 0.61232 0.0
O677 O 0.83914 0.4691 0.53962 0.0
O678 O 0.76781 0.51078 0.69008 0.0
O679 O 0.82316 0.55988 0.59459 0.0
Mg680 Mg 0.79636 0.59986 0.67326 0.0
O681 O 0.86205 0.58509 0.70534 0.0
O682 O 0.73937 0.57762 0.7127 0.0
O683 O 0.7838 0.62272 0.60438 0.0
O684 O 0.82359 0.65265 0.70673 0.0
C685 C 0.8777 0.42205 0.69289 0.0
C686 C 0.95846 0.50063 0.61464 0.0
C687 C 0.8119 0.45219 0.57038 0.0
C688 C 0.73662 0.53424 0.71155 0.0
C689 C 0.80147 0.59317 0.57757 0.0
C690 C 0.85717 0.62753 0.72074 0.0
O691 O 0.88413 0.40575 0.65238 0.0
O692 O 0.86636 0.46381 0.70294 0.0
O693 O 0.54011 0.95459 0.6194 0.0
Mg694 Mg 0.5838 0.8966 0.61224 0.0
O695 O 0.46989 0.92061 0.61767 0.0
Mg696 Mg 0.48013 0.83937 0.63588 0.0
O697 O 0.54682 0.84002 0.59392 0.0
O698 O 0.59354 0.87337 0.54429 0.0
O699 O 0.49685 0.76456 0.67189 0.0
O700 O 0.45014 0.80867 0.56755 0.0
Mg701 Mg 0.40455 0.778 0.64538 0.0
O702 O 0.40851 0.84364 0.68087 0.0
O703 O 0.43102 0.72774 0.68757 0.0
O704 O 0.39223 0.76335 0.5737 0.0
O705 O 0.34555 0.79787 0.67561 0.0
C706 C 0.56194 0.86247 0.70548 0.0
C707 C 0.49625 0.95719 0.61928 0.0
C708 C 0.56236 0.84267 0.55232 0.0
C709 C 0.474 0.73239 0.69332 0.0
C710 C 0.40882 0.79945 0.5561 0.0
C711 C 0.36603 0.83311 0.69385 0.0
O712 O 0.59466 0.86657 0.67609 0.0
O713 O 0.51902 0.86482 0.69602 0.0
O714 O 0.01431 0.55479 0.63703 0.0
Mg715 Mg 0.07851 0.58922 0.63757 0.0
O716 O 0.04037 0.48308 0.62375 0.0
Mg717 Mg 0.12057 0.48081 0.65197 0.0
O718 O 0.13235 0.5486 0.61507 0.0
O719 O 0.09661 0.59493 0.56819 0.0
O720 O 0.19866 0.48754 0.68728 0.0
O721 O 0.14853 0.45104 0.58263 0.0
Mg722 Mg 0.17198 0.39816 0.6665 0.0
O723 O 0.10365 0.40904 0.69542 0.0
O724 O 0.2253 0.41985 0.7091 0.0
O725 O 0.19278 0.39423 0.59531 0.0
O726 O 0.14162 0.34167 0.69329 0.0
C727 C 0.09664 0.55717 0.72995 0.0
C728 C 0.00725 0.51336 0.62481 0.0
C729 C 0.126 0.56268 0.57366 0.0
C730 C 0.22951 0.46308 0.70809 0.0
C731 C 0.15883 0.40965 0.57365 0.0
C732 C 0.10747 0.36589 0.70897 0.0
O733 O 0.10357 0.59222 0.70476 0.0
O734 O 0.09503 0.51622 0.71454 0.0
O735 O 0.43313 0.0056 0.63663 0.0
Mg736 Mg 0.39441 0.0664 0.64709 0.0
O737 O 0.50302 0.03937 0.63505 0.0
Mg738 Mg 0.49921 0.11691 0.66932 0.0
O739 O 0.42985 0.12599 0.63347 0.0
O740 O 0.37922 0.0952 0.58555 0.0
O741 O 0.49551 0.19435 0.70696 0.0
O742 O 0.52902 0.15663 0.60633 0.0
Mg743 Mg 0.58845 0.1653 0.68217 0.0
O744 O 0.56989 0.09927 0.70919 0.0
O745 O 0.56668 0.22089 0.72128 0.0
O746 O 0.59923 0.18162 0.61171 0.0
O747 O 0.6405 0.13155 0.71271 0.0
C748 C 0.41822 0.08061 0.74034 0.0
C749 C 0.47631 0.00364 0.62882 0.0
C750 C 0.41062 0.12578 0.59361 0.0
C751 C 0.52337 0.226 0.72317 0.0
C752 C 0.56903 0.16066 0.58838 0.0
C753 C 0.61235 0.09891 0.72493 0.0
O754 O 0.3861 0.09093 0.71313 0.0
O755 O 0.46115 0.08266 0.72936 0.0
O756 O 0.94274 0.49405 0.38816 0.0
Mg757 Mg 0.88723 0.53906 0.3814 0.0
O758 O 0.91364 0.44559 0.336 0.0
Mg759 Mg 0.83926 0.46309 0.30447 0.0
O760 O 0.82762 0.5266 0.34463 0.0
O761 O 0.82514 0.52321 0.41935 0.0
O762 O 0.77116 0.48277 0.26547 0.0
O763 O 0.79125 0.43243 0.36038 0.0
Mg764 Mg 0.78773 0.38339 0.29017 0.0
O765 O 0.85071 0.39582 0.252 0.0
O766 O 0.72868 0.41888 0.26501 0.0
O767 O 0.79464 0.35904 0.3595 0.0
O768 O 0.80291 0.33405 0.24567 0.0
C769 C 0.90433 0.55034 0.27604 0.0
C770 C 0.94723 0.45989 0.3615 0.0
C771 C 0.80913 0.5404 0.38226 0.0
C772 C 0.73349 0.46124 0.25559 0.0
C773 C 0.79672 0.39594 0.38273 0.0
C774 C 0.83959 0.35607 0.23236 0.0
O775 O 0.90621 0.56659 0.31698 0.0
O776 O 0.88364 0.5126 0.26377 0.0
O777 O 0.40317 0.96898 0.33252 0.0
Mg778 Mg 0.35764 0.91236 0.32559 0.0
O779 O 0.46886 0.92776 0.33119 0.0
Mg780 Mg 0.46102 0.85074 0.30083 0.0
O781 O 0.39253 0.85279 0.33598 0.0
O782 O 0.34962 0.88258 0.3906 0.0
O783 O 0.44601 0.77428 0.26784 0.0
O784 O 0.48807 0.81675 0.36629 0.0
Mg785 Mg 0.54053 0.78958 0.299 0.0
O786 O 0.5366 0.85366 0.25945 0.0
O787 O 0.51077 0.73342 0.26617 0.0
O788 O 0.55037 0.77909 0.37242 0.0
O789 O 0.59849 0.80756 0.26451 0.0
C790 C 0.38445 0.89179 0.22983 0.0
C791 C 0.44637 0.96557 0.33897 0.0
C792 C 0.37881 0.85197 0.37781 0.0
C793 C 0.4682 0.73685 0.25773 0.0
C794 C 0.52904 0.81568 0.38145 0.0
C795 C 0.57913 0.84287 0.24628 0.0
O796 O 0.35055 0.88909 0.25795 0.0
O797 O 0.42647 0.88345 0.24022 0.0
O798 O -0.00591 0.39581 0.353 0.0
Mg799 Mg 0.04974 0.35033 0.34899 0.0
O800 O 0.03044 0.46506 0.34913 0.0
Mg801 Mg 0.10957 0.45312 0.31865 0.0
O802 O 0.10759 0.38812 0.35801 0.0
O803 O 0.0832 0.34342 0.41276 0.0
O804 O 0.18051 0.42932 0.27769 0.0
O805 O 0.14577 0.48259 0.38313 0.0
Mg806 Mg 0.17731 0.51988 0.31061 0.0
O807 O 0.11159 0.52657 0.27334 0.0
O808 O 0.22924 0.48788 0.2723 0.0
O809 O 0.19174 0.53975 0.3813 0.0
O810 O 0.1701 0.57825 0.2767 0.0
C811 C 0.07305 0.37242 0.2513 0.0
C812 C -0.00641 0.43941 0.35575 0.0
C813 C 0.11214 0.37408 0.39925 0.0
C814 C 0.21838 0.44713 0.26155 0.0
C815 C 0.15329 0.52408 0.39498 0.0
C816 C 0.13087 0.56582 0.25986 0.0
O817 O 0.06904 0.33996 0.28034 0.0
O818 O 0.07671 0.41522 0.2612 0.0
O819 O 0.51297 -4e-05 0.36605 0.0
Mg820 Mg 0.56722 0.04501 0.37557 0.0
O821 O 0.45725 0.04781 0.34318 0.0
Mg822 Mg 0.49058 0.12039 0.32082 0.0
O823 O 0.55014 0.11059 0.36402 0.0
O824 O 0.56229 0.08975 0.434 0.0
O825 O 0.52447 0.18432 0.2828 0.0
O826 O 0.46853 0.16916 0.3804 0.0
Mg827 Mg 0.42518 0.19339 0.31366 0.0
O828 O 0.42297 0.12998 0.27412 0.0
O829 O 0.47217 0.23995 0.28574 0.0
O830 O 0.40063 0.19713 0.38367 0.0
O831 O 0.37263 0.18899 0.27089 0.0
C832 C 0.57336 0.06457 0.27208 0.0
C833 C 0.47242 0.00712 0.35224 0.0
C834 C 0.55792 0.12265 0.40524 0.0
C835 C 0.51059 0.22455 0.27152 0.0
C836 C 0.43116 0.17332 0.40292 0.0
C837 C 0.38615 0.14906 0.25653 0.0
O838 O 0.59445 0.05309 0.30869 0.0
O839 O 0.53124 0.07853 0.2699 0.0
O840 O 0.61966 0.96611 0.40444 0.0
Mg841 Mg 0.61384 0.91459 0.35319 0.0
O842 O 0.61626 0.92399 0.46938 0.0
Mg843 Mg 0.63857 0.84745 0.45151 0.0
O844 O 0.60009 0.85586 0.38653 0.0
O845 O 0.54652 0.88654 0.34467 0.0
O846 O 0.67675 0.77738 0.42685 0.0
O847 O 0.57072 0.81263 0.47857 0.0
Mg848 Mg 0.63903 0.77901 0.51766 0.0
O849 O 0.68071 0.84195 0.5243 0.0
O850 O 0.67876 0.72919 0.48549 0.0
O851 O 0.56653 0.76697 0.53513 0.0
O852 O 0.67069 0.78664 0.57747 0.0
C853 C 0.70866 0.88221 0.37163 0.0
C854 C 0.61744 0.96297 0.448 0.0
C855 C 0.5581 0.85547 0.3733 0.0
C856 C 0.69283 0.74101 0.44606 0.0
C857 C 0.55562 0.80554 0.51917 0.0
C858 C 0.69151 0.82363 0.56409 0.0
O859 O 0.67924 0.88777 0.33983 0.0
O860 O 0.69895 0.87913 0.41464 0.0
O861 O 0.62034 0.00191 0.51793 0.0
Mg862 Mg 0.6323 0.05646 0.56169 0.0
O863 O 0.63768 0.0432 0.45531 0.0
Mg864 Mg 0.66858 0.11793 0.4769 0.0
O865 O 0.61668 0.11813 0.53736 0.0
O866 O 0.5796 0.0823 0.59637 0.0
O867 O 0.7015 0.19152 0.49817 0.0
O868 O 0.6112 0.16323 0.44789 0.0
Mg869 Mg 0.68249 0.17457 0.39636 0.0
O870 O 0.71884 0.11165 0.40845 0.0
O871 O 0.70451 0.23234 0.43354 0.0
O872 O 0.61275 0.17123 0.37456 0.0
O873 O 0.72757 0.15764 0.34686 0.0
C874 C 0.72896 0.06737 0.55957 0.0
C875 C 0.62362 0.00553 0.47476 0.0
C876 C 0.58729 0.11844 0.57153 0.0
C877 C 0.71034 0.22942 0.47648 0.0
C878 C 0.58987 0.16072 0.41035 0.0
C879 C 0.73892 0.1208 0.36857 0.0
O880 O 0.69591 0.06752 0.58818 0.0
O881 O 0.72442 0.07886 0.51737 0.0
O882 O 0.94422 0.59237 0.50197 0.0
Mg883 Mg 0.88414 0.60881 0.53917 0.0
O884 O 0.92425 0.64611 0.45209 0.0
Mg885 Mg 0.84565 0.67614 0.45484 0.0
O886 O 0.82366 0.64197 0.52017 0.0
O887 O 0.82977 0.56867 0.50751 0.0
O888 O 0.76805 0.70793 0.45618 0.0
O889 O 0.82058 0.6111 0.41943 0.0
Mg890 Mg 0.80484 0.68553 0.36502 0.0
O891 O 0.86567 0.721 0.38864 0.0
O892 O 0.74156 0.71533 0.38513 0.0
O893 O 0.80035 0.61411 0.34753 0.0
O894 O 0.83562 0.72475 0.31747 0.0
C895 C 0.90071 0.71856 0.53856 0.0
C896 C 0.95461 0.61856 0.46896 0.0
C897 C 0.80862 0.60149 0.52823 0.0
C898 C 0.73558 0.71924 0.42813 0.0
C899 C 0.80569 0.5909 0.38374 0.0
C900 C 0.86553 0.73885 0.34735 0.0
O901 O 0.90557 0.67782 0.55385 0.0
O902 O 0.87658 0.7288 0.50299 0.0
O903 O 0.33344 0.95672 0.54532 0.0
Mg904 Mg 0.3214 0.89477 0.58166 0.0
O905 O 0.33415 0.92485 0.47474 0.0
Mg906 Mg 0.30346 0.84597 0.47418 0.0
O907 O 0.33745 0.83773 0.54338 0.0
O908 O 0.38474 0.86567 0.59555 0.0
O909 O 0.26976 0.76699 0.47775 0.0
O910 O 0.37177 0.81502 0.4459 0.0
Mg911 Mg 0.29189 0.79506 0.38561 0.0
O912 O 0.26291 0.86194 0.402 0.0
O913 O 0.25175 0.73979 0.40834 0.0
O914 O 0.36449 0.77754 0.38293 0.0
O915 O 0.26276 0.82836 0.33225 0.0
C916 C 0.22638 0.87731 0.55099 0.0
C917 C 0.34099 0.95968 0.50237 0.0
C918 C 0.37768 0.83764 0.56192 0.0
C919 C 0.2524 0.73484 0.45148 0.0
C920 C 0.38328 0.81066 0.40399 0.0
C921 C 0.24845 0.86118 0.35909 0.0
O922 O 0.25289 0.87233 0.58521 0.0
O923 O 0.2399 0.874 0.50924 0.0
O924 O 0.00579 0.32418 0.55882 0.0
Mg925 Mg 0.06486 0.32035 0.60021 0.0
O926 O 0.04268 0.33411 0.49106 0.0
Mg927 Mg 0.12001 0.30238 0.49426 0.0
O928 O 0.12323 0.33703 0.56335 0.0
O929 O 0.0889 0.38751 0.60818 0.0
O930 O 0.19567 0.26749 0.50556 0.0
O931 O 0.15475 0.36815 0.46575 0.0
Mg932 Mg 0.17931 0.29881 0.41279 0.0
O933 O 0.11302 0.26153 0.41882 0.0
O934 O 0.23547 0.26303 0.43999 0.0
O935 O 0.18947 0.37232 0.40118 0.0
O936 O 0.15815 0.26645 0.35547 0.0
C937 C 0.08386 0.22796 0.57068 0.0
C938 C 0.00606 0.33674 0.5171 0.0
C939 C 0.12 0.3787 0.57765 0.0
C940 C 0.23218 0.25506 0.48259 0.0
C941 C 0.1542 0.38271 0.42469 0.0
C942 C 0.1221 0.24927 0.37577 0.0
O943 O 0.09085 0.25426 0.60504 0.0
O944 O 0.08749 0.24095 0.52891 0.0
O945 O 0.35777 0.0078 0.44039 0.0
Mg946 Mg 0.37157 0.06602 0.40138 0.0
O947 O 0.35261 0.04279 0.509 0.0
Mg948 Mg 0.32907 0.12253 0.49669 0.0
O949 O 0.37066 0.12955 0.43254 0.0
O950 O 0.43626 0.09584 0.41843 0.0
O951 O 0.28949 0.19484 0.48134 0.0
O952 O 0.39346 0.16108 0.52693 0.0
Mg953 Mg 0.31622 0.18044 0.57487 0.0
O954 O 0.28431 0.1132 0.56641 0.0
O955 O 0.27292 0.22997 0.54756 0.0
O956 O 0.38716 0.19842 0.58991 0.0
O957 O 0.28577 0.15522 0.63166 0.0
C958 C 0.27147 0.09216 0.40937 0.0
C959 C 0.35281 0.00584 0.48349 0.0
C960 C 0.41447 0.13307 0.42738 0.0
C961 C 0.26814 0.22664 0.50449 0.0
C962 C 0.40789 0.16737 0.56751 0.0
C963 C 0.27013 0.12016 0.60889 0.0
O964 O 0.30571 0.08707 0.38182 0.0
O965 O 0.27394 0.09254 0.45335 0.0
O966 O 0.77655 0.38027 0.59067 0.0
Mg967 Mg 0.7844 0.30932 0.57101 0.0
O968 O 0.82343 0.38227 0.53179 0.0
Mg969 Mg 0.84499 0.31642 0.49567 0.0
O970 O 0.84561 0.26856 0.56182 0.0
O971 O 0.8 0.27244 0.62549 0.0
O972 O 0.87212 0.26502 0.44464 0.0
O973 O 0.92401 0.33118 0.51112 0.0
Mg974 Mg 0.90938 0.37676 0.41522 0.0
O975 O 0.84396 0.35905 0.43388 0.0
O976 O 0.90756 0.30856 0.38894 0.0
O977 O 0.96265 0.37734 0.46332 0.0
O978 O 0.85906 0.43013 0.41812 0.0
C979 C 0.73578 0.26713 0.49915 0.0
C980 C 0.79992 0.40352 0.56205 0.0
C981 C 0.833 0.2531 0.60231 0.0
C982 C 0.89207 0.27048 0.4051 0.0
C983 C 0.96165 0.35088 0.49759 0.0
C984 C 0.82856 0.39792 0.42149 0.0
O985 O 0.73012 0.27304 0.54188 0.0
O986 O 0.76995 0.2863 0.47757 0.0
O987 O 0.00655 0.62384 0.40742 0.0
Mg988 Mg 0.06458 0.61723 0.36357 0.0
O989 O 0.03834 0.61456 0.47737 0.0
Mg990 Mg 0.12008 0.63609 0.46824 0.0
O991 O 0.1198 0.59836 0.40089 0.0
O992 O 0.0851 0.54748 0.35741 0.0
O993 O 0.19401 0.67456 0.44998 0.0
O994 O 0.14748 0.5661 0.49713 0.0
Mg995 Mg 0.18507 0.63991 0.53601 0.0
O996 O 0.12064 0.67836 0.54076 0.0
O997 O 0.23692 0.68317 0.51215 0.0
O998 O 0.19954 0.5685 0.54847 0.0
O999 O 0.172 0.66719 0.59745 0.0
C1000 C 0.09744 0.71 0.39044 0.0
C1001 C 0.00262 0.61814 0.45054 0.0
C1002 C 0.11609 0.55639 0.38753 0.0
C1003 C 0.22822 0.69404 0.47131 0.0
C1004 C 0.15992 0.55435 0.53724 0.0
C1005 C 0.13652 0.68844 0.58188 0.0
O1006 O 0.09528 0.68232 0.35626 0.0
O1007 O 0.09466 0.69792 0.4325 0.0
loop_
_geom_bond_atom_site_label_1
_geom_bond_atom_site_label_2
_geom_bond_distance
_geom_bond_site_symmetry_2
_ccdc_geom_bond_type
O0 Mg1 1.990 . S
O0 C14 1.253 . S
Mg1 O0 1.990 . S
Mg1 O4 2.180 . S
Mg1 O5 2.117 . S
Mg1 O19 2.030 . S
O2 Mg3 2.072 . S
O2 C14 1.260 1_455 S
Mg3 O2 2.072 . S
Mg3 O4 2.099 1_455 S
Mg3 O6 2.079 1_455 S
Mg3 O7 2.072 . S
Mg3 O9 2.099 . S
Mg3 O20 2.079 1_455 S
O4 Mg1 2.180 . S
O4 Mg3 2.099 1_655 S
O4 C15 1.279 . S
O5 Mg1 2.117 . S
O5 C15 1.250 . S
O6 Mg3 2.079 1_655 S
O6 C16 1.264 1_655 S
O7 Mg3 2.072 . S
O7 C17 1.260 . S
Mg8 O9 2.180 . S
Mg8 O10 2.030 . S
Mg8 O11 1.990 . S
Mg8 O12 2.117 . S
O9 Mg3 2.099 . S
O9 Mg8 2.180 . S
O9 C18 1.279 . S
O10 Mg8 2.030 . S
O10 C16 1.248 . S
O11 Mg8 1.990 . S
O11 C17 1.253 . S
O12 Mg8 2.117 . S
O12 C18 1.250 . S
C13 O19 1.248 . S
C13 O20 1.264 . S
C14 O0 1.253 . S
C14 O2 1.260 1_655 S
C15 O4 1.279 . S
C15 O5 1.250 . S
C16 O6 1.264 1_455 S
C16 O10 1.248 . S
C17 O7 1.260 . S
C17 O11 1.253 . S
C18 O9 1.279 . S
C18 O12 1.250 . S
O19 Mg1 2.030 . S
O19 C13 1.248 . S
O20 Mg3 2.079 1_655 S
O20 C13 1.264 . S
O21 Mg22 1.990 . S
O21 C35 1.253 . S
Mg22 O21 1.990 . S
Mg22 O25 2.180 . S
Mg22 O26 2.117 . S
Mg22 O40 2.030 . S
O23 Mg24 2.072 . S
O23 C35 1.260 1_545 S
Mg24 O23 2.072 . S
Mg24 O25 2.099 1_545 S
Mg24 O27 2.079 1_545 S
Mg24 O28 2.072 . S
Mg24 O30 2.099 . S
Mg24 O41 2.079 1_545 S
O25 Mg22 2.180 . S
O25 Mg24 2.099 1_565 S
O25 C36 1.279 . S
O26 Mg22 2.117 . S
O26 C36 1.250 . S
O27 Mg24 2.079 1_565 S
O27 C37 1.264 1_565 S
O28 Mg24 2.072 . S
O28 C38 1.260 . S
Mg29 O30 2.180 . S
Mg29 O31 2.030 . S
Mg29 O32 1.990 . S
Mg29 O33 2.117 . S
O30 Mg24 2.099 . S
O30 Mg29 2.180 . S
O30 C39 1.279 . S
O31 Mg29 2.030 . S
O31 C37 1.248 . S
O32 Mg29 1.990 . S
O32 C38 1.253 . S
O33 Mg29 2.117 . S
O33 C39 1.250 . S
C34 O40 1.248 . S
C34 O41 1.264 . S
C35 O21 1.253 . S
C35 O23 1.260 1_565 S
C36 O25 1.279 . S
C36 O26 1.250 . S
C37 O27 1.264 1_545 S
C37 O31 1.248 . S
C38 O28 1.260 . S
C38 O32 1.253 . S
C39 O30 1.279 . S
C39 O33 1.250 . S
O40 Mg22 2.030 . S
O40 C34 1.248 . S
O41 Mg24 2.079 1_565 S
O41 C34 1.264 . S
O42 Mg43 1.990 . S
O42 C56 1.253 . S
Mg43 O42 1.990 . S
Mg43 O46 2.180 . S
Mg43 O47 2.117 . S
Mg43 O61 2.030 . S
O44 Mg45 2.072 1_655 S
O44 C56 1.260 1_655 S
Mg45 O44 2.072 1_455 S
Mg45 O46 2.099 . S
Mg45 O48 2.079 . S
Mg45 O49 2.072 1_455 S
Mg45 O51 2.099 1_455 S
Mg45 O62 2.079 . S
O46 Mg43 2.180 . S
O46 Mg45 2.099 . S
O46 C57 1.279 . S
O47 Mg43 2.117 . S
O47 C57 1.250 . S
O48 Mg45 2.079 . S
O48 C58 1.264 1_455 S
O49 Mg45 2.072 1_655 S
O49 C59 1.260 . S
Mg50 O51 2.180 . S
Mg50 O52 2.030 . S
Mg50 O53 1.990 . S
Mg50 O54 2.117 . S
O51 Mg45 2.099 1_655 S
O51 Mg50 2.180 . S
O51 C60 1.279 . S
O52 Mg50 2.030 . S
O52 C58 1.248 . S
O53 Mg50 1.990 . S
O53 C59 1.253 . S
O54 Mg50 2.117 . S
O54 C60 1.250 . S
C55 O61 1.248 . S
C55 O62 1.264 . S
C56 O42 1.253 . S
C56 O44 1.260 1_455 S
C57 O46 1.279 . S
C57 O47 1.250 . S
C58 O48 1.264 1_655 S
C58 O52 1.248 . S
C59 O49 1.260 . S
C59 O53 1.253 . S
C60 O51 1.279 . S
C60 O54 1.250 . S
O61 Mg43 2.030 . S
O61 C55 1.248 . S
O62 Mg45 2.079 . S
O62 C55 1.264 . S
O63 Mg64 1.990 . S
O63 C77 1.253 . S
Mg64 O63 1.990 . S
Mg64 O67 2.180 . S
Mg64 O68 2.117 . S
Mg64 O82 2.030 . S
O65 Mg66 2.072 1_565 S
O65 C77 1.260 . S
Mg66 O65 2.072 1_545 S
Mg66 O67 2.099 1_545 S
Mg66 O69 2.079 . S
Mg66 O70 2.072 1_545 S
Mg66 O72 2.099 . S
Mg66 O83 2.079 . S
O67 Mg64 2.180 . S
O67 Mg66 2.099 1_565 S
O67 C78 1.279 . S
O68 Mg64 2.117 . S
O68 C78 1.250 . S
O69 Mg66 2.079 . S
O69 C79 1.264 . S
O70 Mg66 2.072 1_565 S
O70 C80 1.260 1_565 S
Mg71 O72 2.180 . S
Mg71 O73 2.030 . S
Mg71 O74 1.990 . S
Mg71 O75 2.117 . S
O72 Mg66 2.099 . S
O72 Mg71 2.180 . S
O72 C81 1.279 . S
O73 Mg71 2.030 . S
O73 C79 1.248 . S
O74 Mg71 1.990 . S
O74 C80 1.253 . S
O75 Mg71 2.117 . S
O75 C81 1.250 . S
C76 O82 1.248 . S
C76 O83 1.264 1_565 S
C77 O63 1.253 . S
C77 O65 1.260 . S
C78 O67 1.279 . S
C78 O68 1.250 . S
C79 O69 1.264 . S
C79 O73 1.248 . S
C80 O70 1.260 1_545 S
C80 O74 1.253 . S
C81 O72 1.279 . S
C81 O75 1.250 . S
O82 Mg64 2.030 . S
O82 C76 1.248 . S
O83 Mg66 2.079 . S
O83 C76 1.264 1_545 S
O84 Mg85 1.990 . S
O84 C98 1.253 . S
Mg85 O84 1.990 . S
Mg85 O88 2.180 . S
Mg85 O89 2.117 . S
Mg85 O103 2.030 . S
O86 Mg87 2.072 . S
O86 C98 1.260 1_455 S
Mg87 O86 2.072 . S
Mg87 O88 2.099 1_455 S
Mg87 O90 2.079 1_455 S
Mg87 O91 2.072 . S
Mg87 O93 2.099 . S
Mg87 O104 2.079 1_455 S
O88 Mg85 2.180 . S
O88 Mg87 2.099 1_655 S
O88 C99 1.279 . S
O89 Mg85 2.117 . S
O89 C99 1.250 . S
O90 Mg87 2.079 1_655 S
O90 C100 1.264 1_655 S
O91 Mg87 2.072 . S
O91 C101 1.260 . S
Mg92 O93 2.180 . S
Mg92 O94 2.030 . S
Mg92 O95 1.990 . S
Mg92 O96 2.117 . S
O93 Mg87 2.099 . S
O93 Mg92 2.180 . S
O93 C102 1.279 . S
O94 Mg92 2.030 . S
O94 C100 1.248 . S
O95 Mg92 1.990 . S
O95 C101 1.253 . S
O96 Mg92 2.117 . S
O96 C102 1.250 . S
C97 O103 1.248 . S
C97 O104 1.264 . S
C98 O84 1.253 . S
C98 O86 1.260 1_655 S
C99 O88 1.279 . S
C99 O89 1.250 . S
C100 O90 1.264 1_455 S
C100 O94 1.248 . S
C101 O91 1.260 . S
C101 O95 1.253 . S
C102 O93 1.279 . S
C102 O96 1.250 . S
O103 Mg85 2.030 . S
O103 C97 1.248 . S
O104 Mg87 2.079 1_655 S
O104 C97 1.264 . S
O105 Mg106 1.990 . S
O105 C119 1.253 . S
Mg106 O105 1.990 . S
Mg106 O109 2.180 . S
Mg106 O110 2.117 . S
Mg106 O124 2.030 . S
O107 Mg108 2.072 . S
O107 C119 1.260 . S
Mg108 O107 2.072 . S
Mg108 O109 2.099 . S
Mg108 O111 2.079 1_545 S
Mg108 O112 2.072 . S
Mg108 O114 2.099 1_545 S
Mg108 O125 2.079 1_545 S
O109 Mg106 2.180 . S
O109 Mg108 2.099 . S
O109 C120 1.279 . S
O110 Mg106 2.117 . S
O110 C120 1.250 . S
O111 Mg108 2.079 1_565 S
O111 C121 1.264 . S
O112 Mg108 2.072 . S
O112 C122 1.260 1_545 S
Mg113 O114 2.180 . S
Mg113 O115 2.030 . S
Mg113 O116 1.990 . S
Mg113 O117 2.117 . S
O114 Mg108 2.099 1_565 S
O114 Mg113 2.180 . S
O114 C123 1.279 . S
O115 Mg113 2.030 . S
O115 C121 1.248 . S
O116 Mg113 1.990 . S
O116 C122 1.253 . S
O117 Mg113 2.117 . S
O117 C123 1.250 . S
C118 O124 1.248 . S
C118 O125 1.264 1_545 S
C119 O105 1.253 . S
C119 O107 1.260 . S
C120 O109 1.279 . S
C120 O110 1.250 . S
C121 O111 1.264 . S
C121 O115 1.248 . S
C122 O112 1.260 1_565 S
C122 O116 1.253 . S
C123 O114 1.279 . S
C123 O117 1.250 . S
O124 Mg106 2.030 . S
O124 C118 1.248 . S
O125 Mg108 2.079 1_565 S
O125 C118 1.264 1_565 S
O126 Mg127 1.990 . S
O126 C140 1.253 . S
Mg127 O126 1.990 . S
Mg127 O130 2.180 . S
Mg127 O131 2.117 . S
Mg127 O145 2.030 . S
O128 Mg129 2.072 1_655 S
O128 C140 1.260 1_655 S
Mg129 O128 2.072 1_455 S
Mg129 O130 2.099 . S
Mg129 O132 2.079 . S
Mg129 O133 2.072 1_455 S
Mg129 O135 2.099 1_455 S
Mg129 O146 2.079 . S
O130 Mg127 2.180 . S
O130 Mg129 2.099 . S
O130 C141 1.279 . S
O131 Mg127 2.117 . S
O131 C141 1.250 . S
O132 Mg129 2.079 . S
O132 C142 1.264 1_455 S
O133 Mg129 2.072 1_655 S
O133 C143 1.260 . S
Mg134 O135 2.180 . S
Mg134 O136 2.030 . S
Mg134 O137 1.990 . S
Mg134 O138 2.117 . S
O135 Mg129 2.099 1_655 S
O135 Mg134 2.180 . S
O135 C144 1.279 . S
O136 Mg134 2.030 . S
O136 C142 1.248 . S
O137 Mg134 1.990 . S
O137 C143 1.253 . S
O138 Mg134 2.117 . S
O138 C144 1.250 . S
C139 O145 1.248 . S
C139 O146 1.264 . S
C140 O126 1.253 . S
C140 O128 1.260 1_455 S
C141 O130 1.279 . S
C141 O131 1.250 . S
C142 O132 1.264 1_655 S
C142 O136 1.248 . S
C143 O133 1.260 . S
C143 O137 1.253 . S
C144 O135 1.279 . S
C144 O138 1.250 . S
O145 Mg127 2.030 . S
O145 C139 1.248 . S
O146 Mg129 2.079 . S
O146 C139 1.264 . S
O147 Mg148 1.990 . S
O147 C161 1.253 . S
Mg148 O147 1.990 . S
Mg148 O151 2.180 . S
Mg148 O152 2.117 . S
Mg148 O166 2.030 . S
O149 Mg150 2.072 1_565 S
O149 C161 1.260 1_565 S
Mg150 O149 2.072 1_545 S
Mg150 O151 2.099 . S
Mg150 O153 2.079 . S
Mg150 O154 2.072 1_545 S
Mg150 O156 2.099 1_545 S
Mg150 O167 2.079 . S
O151 Mg148 2.180 . S
O151 Mg150 2.099 . S
O151 C162 1.279 . S
O152 Mg148 2.117 . S
O152 C162 1.250 . S
O153 Mg150 2.079 . S
O153 C163 1.264 1_545 S
O154 Mg150 2.072 1_565 S
O154 C164 1.260 . S
Mg155 O156 2.180 . S
Mg155 O157 2.030 . S
Mg155 O158 1.990 . S
Mg155 O159 2.117 . S
O156 Mg150 2.099 1_565 S
O156 Mg155 2.180 . S
O156 C165 1.279 . S
O157 Mg155 2.030 . S
O157 C163 1.248 . S
O158 Mg155 1.990 . S
O158 C164 1.253 . S
O159 Mg155 2.117 . S
O159 C165 1.250 . S
C160 O166 1.248 . S
C160 O167 1.264 . S
C161 O147 1.253 . S
C161 O149 1.260 1_545 S
C162 O151 1.279 . S
C162 O152 1.250 . S
C163 O153 1.264 1_565 S
C163 O157 1.248 . S
C164 O154 1.260 . S
C164 O158 1.253 . S
C165 O156 1.279 . S
C165 O159 1.250 . S
O166 Mg148 2.030 . S
O166 C160 1.248 . S
O167 Mg150 2.079 . S
O167 C160 1.264 . S
O168 Mg169 1.990 . S
O168 C182 1.253 . S
Mg169 O168 1.990 . S
Mg169 O172 2.180 . S
Mg169 O173 2.117 . S
Mg169 O187 2.030 . S
O170 Mg171 2.072 . S
O170 C182 1.260 1_545 S
Mg171 O170 2.072 . S
Mg171 O172 2.099 1_545 S
Mg171 O174 2.079 1_545 S
Mg171 O175 2.072 . S
Mg171 O177 2.099 . S
Mg171 O188 2.079 1_545 S
O172 Mg169 2.180 . S
O172 Mg171 2.099 1_565 S
O172 C183 1.279 . S
O173 Mg169 2.117 . S
O173 C183 1.250 . S
O174 Mg171 2.079 1_565 S
O174 C184 1.264 1_565 S
O175 Mg171 2.072 . S
O175 C185 1.260 . S
Mg176 O177 2.180 . S
Mg176 O178 2.030 . S
Mg176 O179 1.990 . S
Mg176 O180 2.117 . S
O177 Mg171 2.099 . S
O177 Mg176 2.180 . S
O177 C186 1.279 . S
O178 Mg176 2.030 . S
O178 C184 1.248 . S
O179 Mg176 1.990 . S
O179 C185 1.253 . S
O180 Mg176 2.117 . S
O180 C186 1.250 . S
C181 O187 1.248 . S
C181 O188 1.264 . S
C182 O168 1.253 . S
C182 O170 1.260 1_565 S
C183 O172 1.279 . S
C183 O173 1.250 . S
C184 O174 1.264 1_545 S
C184 O178 1.248 . S
C185 O175 1.260 . S
C185 O179 1.253 . S
C186 O177 1.279 . S
C186 O180 1.250 . S
O187 Mg169 2.030 . S
O187 C181 1.248 . S
O188 Mg171 2.079 1_565 S
O188 C181 1.264 . S
O189 Mg190 1.990 . S
O189 C203 1.253 . S
Mg190 O189 1.990 . S
Mg190 O193 2.180 . S
Mg190 O194 2.117 . S
Mg190 O208 2.030 . S
O191 Mg192 2.072 1_655 S
O191 C203 1.260 1_655 S
Mg192 O191 2.072 1_455 S
Mg192 O193 2.099 . S
Mg192 O195 2.079 . S
Mg192 O196 2.072 1_455 S
Mg192 O198 2.099 1_455 S
Mg192 O209 2.079 . S
O193 Mg190 2.180 . S
O193 Mg192 2.099 . S
O193 C204 1.279 . S
O194 Mg190 2.117 . S
O194 C204 1.250 . S
O195 Mg192 2.079 . S
O195 C205 1.264 1_455 S
O196 Mg192 2.072 1_655 S
O196 C206 1.260 . S
Mg197 O198 2.180 . S
Mg197 O199 2.030 . S
Mg197 O200 1.990 . S
Mg197 O201 2.117 . S
O198 Mg192 2.099 1_655 S
O198 Mg197 2.180 . S
O198 C207 1.279 . S
O199 Mg197 2.030 . S
O199 C205 1.248 . S
O200 Mg197 1.990 . S
O200 C206 1.253 . S
O201 Mg197 2.117 . S
O201 C207 1.250 . S
C202 O208 1.248 . S
C202 O209 1.264 . S
C203 O189 1.253 . S
C203 O191 1.260 1_455 S
C204 O193 1.279 . S
C204 O194 1.250 . S
C205 O195 1.264 1_655 S
C205 O199 1.248 . S
C206 O196 1.260 . S
C206 O200 1.253 . S
C207 O198 1.279 . S
C207 O201 1.250 . S
O208 Mg190 2.030 . S
O208 C202 1.248 . S
O209 Mg192 2.079 . S
O209 C202 1.264 . S
O210 Mg211 1.990 . S
O210 C224 1.253 . S
Mg211 O210 1.990 . S
Mg211 O214 2.180 . S
Mg211 O215 2.117 . S
Mg211 O229 2.030 . S
O212 Mg213 2.072 1_565 S
O212 C224 1.260 1_565 S
Mg213 O212 2.072 1_545 S
Mg213 O214 2.099 . S
Mg213 O216 2.079 . S
Mg213 O217 2.072 1_545 S
Mg213 O219 2.099 1_545 S
Mg213 O230 2.079 . S
O214 Mg211 2.180 . S
O214 Mg213 2.099 . S
O214 C225 1.279 . S
O215 Mg211 2.117 . S
O215 C225 1.250 . S
O216 Mg213 2.079 . S
O216 C226 1.264 1_545 S
O217 Mg213 2.072 1_565 S
O217 C227 1.260 . S
Mg218 O219 2.180 . S
Mg218 O220 2.030 . S
Mg218 O221 1.990 . S
Mg218 O222 2.117 . S
O219 Mg213 2.099 1_565 S
O219 Mg218 2.180 . S
O219 C228 1.279 . S
O220 Mg218 2.030 . S
O220 C226 1.248 . S
O221 Mg218 1.990 . S
O221 C227 1.253 . S
O222 Mg218 2.117 . S
O222 C228 1.250 . S
C223 O229 1.248 . S
C223 O230 1.264 . S
C224 O210 1.253 . S
C224 O212 1.260 1_545 S
C225 O214 1.279 . S
C225 O215 1.250 . S
C226 O216 1.264 1_565 S
C226 O220 1.248 . S
C227 O217 1.260 . S
C227 O221 1.253 . S
C228 O219 1.279 . S
C228 O222 1.250 . S
O229 Mg211 2.030 . S
O229 C223 1.248 . S
O230 Mg213 2.079 . S
O230 C223 1.264 . S
O231 Mg232 1.990 . S
O231 C245 1.253 . S
Mg232 O231 1.990 . S
Mg232 O235 2.180 . S
Mg232 O236 2.117 . S
Mg232 O250 2.030 . S
O233 Mg234 2.072 . S
O233 C245 1.260 1_455 S
Mg234 O233 2.072 . S
Mg234 O235 2.099 1_455 S
Mg234 O237 2.079 1_455 S
Mg234 O238 2.072 . S
Mg234 O240 2.099 . S
Mg234 O251 2.079 1_455 S
O235 Mg232 2.180 . S
O235 Mg234 2.099 1_655 S
O235 C246 1.279 . S
O236 Mg232 2.117 . S
O236 C246 1.250 . S
O237 Mg234 2.079 1_655 S
O237 C247 1.264 1_655 S
O238 Mg234 2.072 . S
O238 C248 1.260 . S
Mg239 O240 2.180 . S
Mg239 O241 2.030 . S
Mg239 O242 1.990 . S
Mg239 O243 2.117 . S
O240 Mg234 2.099 . S
O240 Mg239 2.180 . S
O240 C249 1.279 . S
O241 Mg239 2.030 . S
O241 C247 1.248 . S
O242 Mg239 1.990 . S
O242 C248 1.253 . S
O243 Mg239 2.117 . S
O243 C249 1.250 . S
C244 O250 1.248 . S
C244 O251 1.264 . S
C245 O231 1.253 . S
C245 O233 1.260 1_655 S
C246 O235 1.279 . S
C246 O236 1.250 . S
C247 O237 1.264 1_455 S
C247 O241 1.248 . S
C248 O238 1.260 . S
C248 O242 1.253 . S
C249 O240 1.279 . S
C249 O243 1.250 . S
O250 Mg232 2.030 . S
O250 C244 1.248 . S
O251 Mg234 2.079 1_655 S
O251 C244 1.264 . S
O252 Mg253 1.990 . S
O252 C266 1.253 . S
Mg253 O252 1.990 . S
Mg253 O256 2.180 . S
Mg253 O257 2.117 . S
Mg253 O271 2.030 . S
O254 Mg255 2.072 1_565 S
O254 C266 1.260 1_565 S
Mg255 O254 2.072 1_545 S
Mg255 O256 2.099 . S
Mg255 O258 2.079 . S
Mg255 O259 2.072 1_545 S
Mg255 O261 2.099 1_545 S
Mg255 O272 2.079 . S
O256 Mg253 2.180 . S
O256 Mg255 2.099 . S
O256 C267 1.279 . S
O257 Mg253 2.117 . S
O257 C267 1.250 . S
O258 Mg255 2.079 . S
O258 C268 1.264 1_545 S
O259 Mg255 2.072 1_565 S
O259 C269 1.260 . S
Mg260 O261 2.180 . S
Mg260 O262 2.030 . S
Mg260 O263 1.990 . S
Mg260 O264 2.117 . S
O261 Mg255 2.099 1_565 S
O261 Mg260 2.180 . S
O261 C270 1.279 . S
O262 Mg260 2.030 . S
O262 C268 1.248 . S
O263 Mg260 1.990 . S
O263 C269 1.253 . S
O264 Mg260 2.117 . S
O264 C270 1.250 . S
C265 O271 1.248 . S
C265 O272 1.264 . S
C266 O252 1.253 . S
C266 O254 1.260 1_545 S
C267 O256 1.279 . S
C267 O257 1.250 . S
C268 O258 1.264 1_565 S
C268 O262 1.248 . S
C269 O259 1.260 . S
C269 O263 1.253 . S
C270 O261 1.279 . S
C270 O264 1.250 . S
O271 Mg253 2.030 . S
O271 C265 1.248 . S
O272 Mg255 2.079 . S
O272 C265 1.264 . S
O273 Mg274 1.990 . S
O273 C287 1.253 . S
Mg274 O273 1.990 . S
Mg274 O277 2.180 . S
Mg274 O278 2.117 . S
Mg274 O292 2.030 . S
O275 Mg276 2.072 . S
O275 C287 1.260 1_455 S
Mg276 O275 2.072 . S
Mg276 O277 2.099 1_455 S
Mg276 O279 2.079 1_455 S
Mg276 O280 2.072 . S
Mg276 O282 2.099 . S
Mg276 O293 2.079 1_455 S
O277 Mg274 2.180 . S
O277 Mg276 2.099 1_655 S
O277 C288 1.279 . S
O278 Mg274 2.117 . S
O278 C288 1.250 . S
O279 Mg276 2.079 1_655 S
O279 C289 1.264 1_655 S
O280 Mg276 2.072 . S
O280 C290 1.260 . S
Mg281 O282 2.180 . S
Mg281 O283 2.030 . S
Mg281 O284 1.990 . S
Mg281 O285 2.117 . S
O282 Mg276 2.099 . S
O282 Mg281 2.180 . S
O282 C291 1.279 . S
O283 Mg281 2.030 . S
O283 C289 1.248 . S
O284 Mg281 1.990 . S
O284 C290 1.253 . S
O285 Mg281 2.117 . S
O285 C291 1.250 . S
C286 O292 1.248 . S
C286 O293 1.264 . S
C287 O273 1.253 . S
C287 O275 1.260 1_655 S
C288 O277 1.279 . S
C288 O278 1.250 . S
C289 O279 1.264 1_455 S
C289 O283 1.248 . S
C290 O280 1.260 . S
C290 O284 1.253 . S
C291 O282 1.279 . S
C291 O285 1.250 . S
O292 Mg274 2.030 . S
O292 C286 1.248 . S
O293 Mg276 2.079 1_655 S
O293 C286 1.264 . S
O294 Mg295 1.990 . S
O294 C308 1.253 . S
Mg295 O294 1.990 . S
Mg295 O298 2.180 . S
Mg295 O299 2.117 . S
Mg295 O313 2.030 . S
O296 Mg297 2.072 . S
O296 C308 1.260 1_545 S
Mg297 O296 2.072 . S
Mg297 O298 2.099 1_545 S
Mg297 O300 2.079 1_545 S
Mg297 O301 2.072 . S
Mg297 O303 2.099 . S
Mg297 O314 2.079 1_545 S
O298 Mg295 2.180 . S
O298 Mg297 2.099 1_565 S
O298 C309 1.279 . S
O299 Mg295 2.117 . S
O299 C309 1.250 . S
O300 Mg297 2.079 1_565 S
O300 C310 1.264 1_565 S
O301 Mg297 2.072 . S
O301 C311 1.260 . S
Mg302 O303 2.180 . S
Mg302 O304 2.030 . S
Mg302 O305 1.990 . S
Mg302 O306 2.117 . S
O303 Mg297 2.099 . S
O303 Mg302 2.180 . S
O303 C312 1.279 . S
O304 Mg302 2.030 . S
O304 C310 1.248 . S
O305 Mg302 1.990 . S
O305 C311 1.253 . S
O306 Mg302 2.117 . S
O306 C312 1.250 . S
C307 O313 1.248 . S
C307 O314 1.264 . S
C308 O294 1.253 . S
C308 O296 1.260 1_565 S
C309 O298 1.279 . S
C309 O299 1.250 . S
C310 O300 1.264 1_545 S
C310 O304 1.248 . S
C311 O301 1.260 . S
C311 O305 1.253 . S
C312 O303 1.279 . S
C312 O306 1.250 . S
O313 Mg295 2.030 . S
O313 C307 1.248 . S
O314 Mg297 2.079 1_565 S
O314 C307 1.264 . S
O315 Mg316 1.990 . S
O315 C329 1.253 . S
Mg316 O315 1.990 . S
Mg316 O319 2.180 . S
Mg316 O320 2.117 . S
Mg316 O334 2.030 . S
O317 Mg318 2.072 1_655 S
O317 C329 1.260 1_655 S
Mg318 O317 2.072 1_455 S
Mg318 O319 2.099 . S
Mg318 O321 2.079 . S
Mg318 O322 2.072 1_455 S
Mg318 O324 2.099 1_455 S
Mg318 O335 2.079 . S
O319 Mg316 2.180 . S
O319 Mg318 2.099 . S
O319 C330 1.279 . S
O320 Mg316 2.117 . S
O320 C330 1.250 . S
O321 Mg318 2.079 . S
O321 C331 1.264 1_455 S
O322 Mg318 2.072 1_655 S
O322 C332 1.260 . S
Mg323 O324 2.180 . S
Mg323 O325 2.030 . S
Mg323 O326 1.990 . S
Mg323 O327 2.117 . S
O324 Mg318 2.099 1_655 S
O324 Mg323 2.180 . S
O324 C333 1.279 . S
O325 Mg323 2.030 . S
O325 C331 1.248 . S
O326 Mg323 1.990 . S
O326 C332 1.253 . S
O327 Mg323 2.117 . S
O327 C333 1.250 . S
C328 O334 1.248 . S
C328 O335 1.264 . S
C329 O315 1.253 . S
C329 O317 1.260 1_455 S
C330 O319 1.279 . S
C330 O320 1.250 . S
C331 O321 1.264 1_655 S
C331 O325 1.248 . S
C332 O322 1.260 . S
C332 O326 1.253 . S
C333 O324 1.279 . S
C333 O327 1.250 . S
O334 Mg316 2.030 . S
O334 C328 1.248 . S
O335 Mg318 2.079 . S
O335 C328 1.264 . S
O336 Mg337 1.990 . S
O336 C350 1.253 . S
Mg337 O336 1.990 . S
Mg337 O340 2.180 . S
Mg337 O341 2.117 . S
Mg337 O355 2.030 . S
O338 Mg339 2.072 . S
O338 C350 1.260 1_554 S
Mg339 O338 2.072 . S
Mg339 O340 2.099 1_554 S
Mg339 O342 2.079 1_554 S
Mg339 O343 2.072 . S
Mg339 O345 2.099 . S
Mg339 O356 2.079 1_554 S
O340 Mg337 2.180 . S
O340 Mg339 2.099 1_556 S
O340 C351 1.279 . S
O341 Mg337 2.117 . S
O341 C351 1.250 . S
O342 Mg339 2.079 1_556 S
O342 C352 1.264 1_556 S
O343 Mg339 2.072 . S
O343 C353 1.260 . S
Mg344 O345 2.180 . S
Mg344 O346 2.030 . S
Mg344 O347 1.990 . S
Mg344 O348 2.117 . S
O345 Mg339 2.099 . S
O345 Mg344 2.180 . S
O345 C354 1.279 . S
O346 Mg344 2.030 . S
O346 C352 1.248 . S
O347 Mg344 1.990 . S
O347 C353 1.253 . S
O348 Mg344 2.117 . S
O348 C354 1.250 . S
C349 O355 1.248 . S
C349 O356 1.264 . S
C350 O336 1.253 . S
C350 O338 1.260 1_556 S
C351 O340 1.279 . S
C351 O341 1.250 . S
C352 O342 1.264 1_554 S
C352 O346 1.248 . S
C353 O343 1.260 . S
C353 O347 1.253 . S
C354 O345 1.279 . S
C354 O348 1.250 . S
O355 Mg337 2.030 . S
O355 C349 1.248 . S
O356 Mg339 2.079 1_556 S
O356 C349 1.264 . S
O357 Mg358 1.990 . S
O357 C371 1.253 . S
Mg358 O357 1.990 . S
Mg358 O361 2.180 . S
Mg358 O362 2.117 . S
Mg358 O376 2.030 . S
O359 Mg360 2.072 1_556 S
O359 C371 1.260 1_556 S
Mg360 O359 2.072 1_554 S
Mg360 O361 2.099 . S
Mg360 O363 2.079 . S
Mg360 O364 2.072 1_554 S
Mg360 O366 2.099 1_554 S
Mg360 O377 2.079 . S
O361 Mg358 2.180 . S
O361 Mg360 2.099 . S
O361 C372 1.279 . S
O362 Mg358 2.117 . S
O362 C372 1.250 . S
O363 Mg360 2.079 . S
O363 C373 1.264 1_554 S
O364 Mg360 2.072 1_556 S
O364 C374 1.260 . S
Mg365 O366 2.180 . S
Mg365 O367 2.030 . S
Mg365 O368 1.990 . S
Mg365 O369 2.117 . S
O366 Mg360 2.099 1_556 S
O366 Mg365 2.180 . S
O366 C375 1.279 . S
O367 Mg365 2.030 . S
O367 C373 1.248 . S
O368 Mg365 1.990 . S
O368 C374 1.253 . S
O369 Mg365 2.117 . S
O369 C375 1.250 . S
C370 O376 1.248 . S
C370 O377 1.264 . S
C371 O357 1.253 . S
C371 O359 1.260 1_554 S
C372 O361 1.279 . S
C372 O362 1.250 . S
C373 O363 1.264 1_556 S
C373 O367 1.248 . S
C374 O364 1.260 . S
C374 O368 1.253 . S
C375 O366 1.279 . S
C375 O369 1.250 . S
O376 Mg358 2.030 . S
O376 C370 1.248 . S
O377 Mg360 2.079 . S
O377 C370 1.264 . S
O378 Mg379 1.990 . S
O378 C392 1.253 . S
Mg379 O378 1.990 . S
Mg379 O382 2.180 . S
Mg379 O383 2.117 . S
Mg379 O397 2.030 . S
O380 Mg381 2.072 1_556 S
O380 C392 1.260 1_556 S
Mg381 O380 2.072 1_554 S
Mg381 O382 2.099 . S
Mg381 O384 2.079 . S
Mg381 O385 2.072 1_554 S
Mg381 O387 2.099 1_554 S
Mg381 O398 2.079 . S
O382 Mg379 2.180 . S
O382 Mg381 2.099 . S
O382 C393 1.279 . S
O383 Mg379 2.117 . S
O383 C393 1.250 . S
O384 Mg381 2.079 . S
O384 C394 1.264 1_554 S
O385 Mg381 2.072 1_556 S
O385 C395 1.260 . S
Mg386 O387 2.180 . S
Mg386 O388 2.030 . S
Mg386 O389 1.990 . S
Mg386 O390 2.117 . S
O387 Mg381 2.099 1_556 S
O387 Mg386 2.180 . S
O387 C396 1.279 . S
O388 Mg386 2.030 . S
O388 C394 1.248 . S
O389 Mg386 1.990 . S
O389 C395 1.253 . S
O390 Mg386 2.117 . S
O390 C396 1.250 . S
C391 O397 1.248 . S
C391 O398 1.264 . S
C392 O378 1.253 . S
C392 O380 1.260 1_554 S
C393 O382 1.279 . S
C393 O383 1.250 . S
C394 O384 1.264 1_556 S
C394 O388 1.248 . S
C395 O385 1.260 . S
C395 O389 1.253 . S
C396 O387 1.279 . S
C396 O390 1.250 . S
O397 Mg379 2.030 . S
O397 C391 1.248 . S
O398 Mg381 2.079 . S
O398 C391 1.264 . S
O399 Mg400 1.990 . S
O399 C413 1.253 . S
Mg400 O399 1.990 . S
Mg400 O403 2.180 . S
Mg400 O404 2.117 . S
Mg400 O418 2.030 . S
O401 Mg402 2.072 1_556 S
O401 C413 1.260 1_556 S
Mg402 O401 2.072 1_554 S
Mg402 O403 2.099 . S
Mg402 O405 2.079 . S
Mg402 O406 2.072 1_554 S
Mg402 O408 2.099 1_554 S
Mg402 O419 2.079 . S
O403 Mg400 2.180 . S
O403 Mg402 2.099 . S
O403 C414 1.279 . S
O404 Mg400 2.117 . S
O404 C414 1.250 . S
O405 Mg402 2.079 . S
O405 C415 1.264 1_554 S
O406 Mg402 2.072 1_556 S
O406 C416 1.260 . S
Mg407 O408 2.180 . S
Mg407 O409 2.030 . S
Mg407 O410 1.990 . S
Mg407 O411 2.117 . S
O408 Mg402 2.099 1_556 S
O408 Mg407 2.180 . S
O408 C417 1.279 . S
O409 Mg407 2.030 . S
O409 C415 1.248 . S
O410 Mg407 1.990 . S
O410 C416 1.253 . S
O411 Mg407 2.117 . S
O411 C417 1.250 . S
C412 O418 1.248 . S
C412 O419 1.264 . S
C413 O399 1.253 . S
C413 O401 1.260 1_554 S
C414 O403 1.279 . S
C414 O404 1.250 . S
C415 O405 1.264 1_556 S
C415 O409 1.248 . S
C416 O406 1.260 . S
C416 O410 1.253 . S
C417 O408 1.279 . S
C417 O411 1.250 . S
O418 Mg400 2.030 . S
O418 C412 1.248 . S
O419 Mg402 2.079 . S
O419 C412 1.264 . S
O420 Mg421 1.990 . S
O420 C434 1.253 . S
Mg421 O420 1.990 . S
Mg421 O424 2.180 . S
Mg421 O425 2.117 . S
Mg421 O439 2.030 . S
O422 Mg423 2.072 1_556 S
O422 C434 1.260 1_556 S
Mg423 O422 2.072 1_554 S
Mg423 O424 2.099 . S
Mg423 O426 2.079 . S
Mg423 O427 2.072 1_554 S
Mg423 O429 2.099 1_554 S
Mg423 O440 2.079 . S
O424 Mg421 2.180 . S
O424 Mg423 2.099 . S
O424 C435 1.279 . S
O425 Mg421 2.117 . S
O425 C435 1.250 . S
O426 Mg423 2.079 . S
O426 C436 1.264 1_554 S
O427 Mg423 2.072 1_556 S
O427 C437 1.260 . S
Mg428 O429 2.180 . S
Mg428 O430 2.030 . S
Mg428 O431 1.990 . S
Mg428 O432 2.117 . S
O429 Mg423 2.099 1_556 S
O429 Mg428 2.180 . S
O429 C438 1.279 . S
O430 Mg428 2.030 . S
O430 C436 1.248 . S
O431 Mg428 1.990 . S
O431 C437 1.253 . S
O432 Mg428 2.117 . S
O432 C438 1.250 . S
C433 O439 1.248 . S
C433 O440 1.264 . S
C434 O420 1.253 . S
C434 O422 1.260 1_554 S
C435 O424 1.279 . S
C435 O425 1.250 . S
C436 O426 1.264 1_556 S
C436 O430 1.248 . S
C437 O427 1.260 . S
C437 O431 1.253 . S
C438 O429 1.279 . S
C438 O432 1.250 . S
O439 Mg421 2.030 . S
O439 C433 1.248 . S
O440 Mg423 2.079 . S
O440 C433 1.264 . S
O441 Mg442 1.990 . S
O441 C455 1.253 . S
Mg442 O441 1.990 . S
Mg442 O445 2.180 . S
Mg442 O446 2.117 . S
Mg442 O460 2.030 . S
O443 Mg444 2.072 . S
O443 C455 1.260 1_554 S
Mg444 O443 2.072 . S
Mg444 O445 2.099 1_554 S
Mg444 O447 2.079 1_554 S
Mg444 O448 2.072 . S
Mg444 O450 2.099 . S
Mg444 O461 2.079 1_554 S
O445 Mg442 2.180 . S
O445 Mg444 2.099 1_556 S
O445 C456 1.279 . S
O446 Mg442 2.117 . S
O446 C456 1.250 . S
O447 Mg444 2.079 1_556 S
O447 C457 1.264 1_556 S
O448 Mg444 2.072 . S
O448 C458 1.260 . S
Mg449 O450 2.180 . S
Mg449 O451 2.030 . S
Mg449 O452 1.990 . S
Mg449 O453 2.117 . S
O450 Mg444 2.099 . S
O450 Mg449 2.180 . S
O450 C459 1.279 . S
O451 Mg449 2.030 . S
O451 C457 1.248 . S
O452 Mg449 1.990 . S
O452 C458 1.253 . S
O453 Mg449 2.117 . S
O453 C459 1.250 . S
C454 O460 1.248 . S
C454 O461 1.264 . S
C455 O441 1.253 . S
C455 O443 1.260 1_556 S
C456 O445 1.279 . S
C456 O446 1.250 . S
C457 O447 1.264 1_554 S
C457 O451 1.248 . S
C458 O448 1.260 . S
C458 O452 1.253 . S
C459 O450 1.279 . S
C459 O453 1.250 . S
O460 Mg442 2.030 . S
O460 C454 1.248 . S
O461 Mg444 2.079 1_556 S
O461 C454 1.264 . S
O462 Mg463 1.990 . S
O462 C476 1.253 . S
Mg463 O462 1.990 . S
Mg463 O466 2.180 . S
Mg463 O467 2.117 . S
Mg463 O481 2.030 . S
O464 Mg465 2.072 . S
O464 C476 1.260 . S
Mg465 O464 2.072 . S
Mg465 O466 2.099 . S
Mg465 O468 2.079 1_554 S
Mg465 O469 2.072 . S
Mg465 O471 2.099 1_554 S
Mg465 O482 2.079 1_554 S
O466 Mg463 2.180 . S
O466 Mg465 2.099 . S
O466 C477 1.279 . S
O467 Mg463 2.117 . S
O467 C477 1.250 . S
O468 Mg465 2.079 1_556 S
O468 C478 1.264 . S
O469 Mg465 2.072 . S
O469 C479 1.260 1_554 S
Mg470 O471 2.180 . S
Mg470 O472 2.030 . S
Mg470 O473 1.990 . S
Mg470 O474 2.117 . S
O471 Mg465 2.099 1_556 S
O471 Mg470 2.180 . S
O471 C480 1.279 . S
O472 Mg470 2.030 . S
O472 C478 1.248 . S
O473 Mg470 1.990 . S
O473 C479 1.253 . S
O474 Mg470 2.117 . S
O474 C480 1.250 . S
C475 O481 1.248 . S
C475 O482 1.264 1_554 S
C476 O462 1.253 . S
C476 O464 1.260 . S
C477 O466 1.279 . S
C477 O467 1.250 . S
C478 O468 1.264 . S
C478 O472 1.248 . S
C479 O469 1.260 1_556 S
C479 O473 1.253 . S
C480 O471 1.279 . S
C480 O474 1.250 . S
O481 Mg463 2.030 . S
O481 C475 1.248 . S
O482 Mg465 2.079 1_556 S
O482 C475 1.264 1_556 S
O483 Mg484 1.990 . S
O483 C497 1.253 . S
Mg484 O483 1.990 . S
Mg484 O487 2.180 . S
Mg484 O488 2.117 . S
Mg484 O502 2.030 . S
O485 Mg486 2.072 . S
O485 C497 1.260 1_554 S
Mg486 O485 2.072 . S
Mg486 O487 2.099 1_554 S
Mg486 O489 2.079 1_554 S
Mg486 O490 2.072 . S
Mg486 O492 2.099 . S
Mg486 O503 2.079 1_554 S
O487 Mg484 2.180 . S
O487 Mg486 2.099 1_556 S
O487 C498 1.279 . S
O488 Mg484 2.117 . S
O488 C498 1.250 . S
O489 Mg486 2.079 1_556 S
O489 C499 1.264 1_556 S
O490 Mg486 2.072 . S
O490 C500 1.260 . S
Mg491 O492 2.180 . S
Mg491 O493 2.030 . S
Mg491 O494 1.990 . S
Mg491 O495 2.117 . S
O492 Mg486 2.099 . S
O492 Mg491 2.180 . S
O492 C501 1.279 . S
O493 Mg491 2.030 . S
O493 C499 1.248 . S
O494 Mg491 1.990 . S
O494 C500 1.253 . S
O495 Mg491 2.117 . S
O495 C501 1.250 . S
C496 O502 1.248 . S
C496 O503 1.264 . S
C497 O483 1.253 . S
C497 O485 1.260 1_556 S
C498 O487 1.279 . S
C498 O488 1.250 . S
C499 O489 1.264 1_554 S
C499 O493 1.248 . S
C500 O490 1.260 . S
C500 O494 1.253 . S
C501 O492 1.279 . S
C501 O495 1.250 . S
O502 Mg484 2.030 . S
O502 C496 1.248 . S
O503 Mg486 2.079 1_556 S
O503 C496 1.264 . S
O504 Mg505 1.990 . S
O504 C518 1.253 . S
Mg505 O504 1.990 . S
Mg505 O508 2.180 . S
Mg505 O509 2.117 . S
Mg505 O523 2.030 . S
O506 Mg507 2.072 . S
O506 C518 1.260 . S
Mg507 O506 2.072 . S
Mg507 O508 2.099 . S
Mg507 O510 2.079 . S
Mg507 O511 2.072 . S
Mg507 O513 2.099 . S
Mg507 O524 2.079 . S
O508 Mg505 2.180 . S
O508 Mg507 2.099 . S
O508 C519 1.279 . S
O509 Mg505 2.117 . S
O509 C519 1.250 . S
O510 Mg507 2.079 . S
O510 C520 1.264 . S
O511 Mg507 2.072 . S
O511 C521 1.260 . S
Mg512 O513 2.180 . S
Mg512 O514 2.030 . S
Mg512 O515 1.990 . S
Mg512 O516 2.117 . S
O513 Mg507 2.099 . S
O513 Mg512 2.180 . S
O513 C522 1.279 . S
O514 Mg512 2.030 . S
O514 C520 1.248 . S
O515 Mg512 1.990 . S
O515 C521 1.253 . S
O516 Mg512 2.117 . S
O516 C522 1.250 . S
C517 O523 1.248 . S
C517 O524 1.264 . S
C518 O504 1.253 . S
C518 O506 1.260 . S
C519 O508 1.279 . S
C519 O509 1.250 . S
C520 O510 1.264 . S
C520 O514 1.248 . S
C521 O511 1.260 . S
C521 O515 1.253 . S
C522 O513 1.279 . S
C522 O516 1.250 . S
O523 Mg505 2.030 . S
O523 C517 1.248 . S
O524 Mg507 2.079 . S
O524 C517 1.264 . S
O525 Mg526 1.990 . S
O525 C539 1.253 . S
Mg526 O525 1.990 . S
Mg526 O529 2.180 . S
Mg526 O530 2.117 . S
Mg526 O544 2.030 . S
O527 Mg528 2.072 . S
O527 C539 1.260 . S
Mg528 O527 2.072 . S
Mg528 O529 2.099 . S
Mg528 O531 2.079 . S
Mg528 O532 2.072 . S
Mg528 O534 2.099 . S
Mg528 O545 2.079 . S
O529 Mg526 2.180 . S
O529 Mg528 2.099 . S
O529 C540 1.279 . S
O530 Mg526 2.117 . S
O530 C540 1.250 . S
O531 Mg528 2.079 . S
O531 C541 1.264 . S
O532 Mg528 2.072 . S
O532 C542 1.260 . S
Mg533 O534 2.180 . S
Mg533 O535 2.030 . S
Mg533 O536 1.990 . S
Mg533 O537 2.117 . S
O534 Mg528 2.099 . S
O534 Mg533 2.180 . S
O534 C543 1.279 . S
O535 Mg533 2.030 . S
O535 C541 1.248 . S
O536 Mg533 1.990 . S
O536 C542 1.253 . S
O537 Mg533 2.117 . S
O537 C543 1.250 . S
C538 O544 1.248 . S
C538 O545 1.264 . S
C539 O525 1.253 . S
C539 O527 1.260 . S
C540 O529 1.279 . S
C540 O530 1.250 . S
C541 O531 1.264 . S
C541 O535 1.248 . S
C542 O532 1.260 . S
C542 O536 1.253 . S
C543 O534 1.279 . S
C543 O537 1.250 . S
O544 Mg526 2.030 . S
O544 C538 1.248 . S
O545 Mg528 2.079 . S
O545 C538 1.264 . S
O546 Mg547 1.990 . S
O546 C560 1.253 . S
Mg547 O546 1.990 . S
Mg547 O550 2.180 . S
Mg547 O551 2.117 . S
Mg547 O565 2.030 . S
O548 Mg549 2.072 . S
O548 C560 1.260 . S
Mg549 O548 2.072 . S
Mg549 O550 2.099 . S
Mg549 O552 2.079 . S
Mg549 O553 2.072 . S
Mg549 O555 2.099 . S
Mg549 O566 2.079 . S
O550 Mg547 2.180 . S
O550 Mg549 2.099 . S
O550 C561 1.279 . S
O551 Mg547 2.117 . S
O551 C561 1.250 . S
O552 Mg549 2.079 . S
O552 C562 1.264 . S
O553 Mg549 2.072 . S
O553 C563 1.260 . S
Mg554 O555 2.180 . S
Mg554 O556 2.030 . S
Mg554 O557 1.990 . S
Mg554 O558 2.117 . S
O555 Mg549 2.099 . S
O555 Mg554 2.180 . S
O555 C564 1.279 . S
O556 Mg554 2.030 . S
O556 C562 1.248 . S
O557 Mg554 1.990 . S
O557 C563 1.253 . S
O558 Mg554 2.117 . S
O558 C564 1.250 . S
C559 O565 1.248 . S
C559 O566 1.264 . S
C560 O546 1.253 . S
C560 O548 1.260 . S
C561 O550 1.279 . S
C561 O551 1.250 . S
C562 O552 1.264 . S
C562 O556 1.248 . S
C563 O553 1.260 . S
C563 O557 1.253 . S
C564 O555 1.279 . S
C564 O558 1.250 . S
O565 Mg547 2.030 . S
O565 C559 1.248 . S
O566 Mg549 2.079 . S
O566 C559 1.264 . S
O567 Mg568 1.990 . S
O567 C581 1.253 . S
Mg568 O567 1.990 . S
Mg568 O571 2.180 . S
Mg568 O572 2.117 . S
Mg568 O586 2.030 . S
O569 Mg570 2.072 . S
O569 C581 1.260 . S
Mg570 O569 2.072 . S
Mg570 O571 2.099 . S
Mg570 O573 2.079 . S
Mg570 O574 2.072 . S
Mg570 O576 2.099 . S
Mg570 O587 2.079 . S
O571 Mg568 2.180 . S
O571 Mg570 2.099 . S
O571 C582 1.279 . S
O572 Mg568 2.117 . S
O572 C582 1.250 . S
O573 Mg570 2.079 . S
O573 C583 1.264 . S
O574 Mg570 2.072 . S
O574 C584 1.260 . S
Mg575 O576 2.180 . S
Mg575 O577 2.030 . S
Mg575 O578 1.990 . S
Mg575 O579 2.117 . S
O576 Mg570 2.099 . S
O576 Mg575 2.180 . S
O576 C585 1.279 . S
O577 Mg575 2.030 . S
O577 C583 1.248 . S
O578 Mg575 1.990 . S
O578 C584 1.253 . S
O579 Mg575 2.117 . S
O579 C585 1.250 . S
C580 O586 1.248 . S
C580 O587 1.264 . S
C581 O567 1.253 . S
C581 O569 1.260 . S
C582 O571 1.279 . S
C582 O572 1.250 . S
C583 O573 1.264 . S
C583 O577 1.248 . S
C584 O574 1.260 . S
C584 O578 1.253 . S
C585 O576 1.279 . S
C585 O579 1.250 . S
O586 Mg568 2.030 . S
O586 C580 1.248 . S
O587 Mg570 2.079 . S
O587 C580 1.264 . S
O588 Mg589 1.990 . S
O588 C602 1.253 . S
Mg589 O588 1.990 . S
Mg589 O592 2.180 . S
Mg589 O593 2.117 . S
Mg589 O607 2.030 . S
O590 Mg591 2.072 . S
O590 C602 1.260 . S
Mg591 O590 2.072 . S
Mg591 O592 2.099 . S
Mg591 O594 2.079 . S
Mg591 O595 2.072 . S
Mg591 O597 2.099 . S
Mg591 O608 2.079 . S
O592 Mg589 2.180 . S
O592 Mg591 2.099 . S
O592 C603 1.279 . S
O593 Mg589 2.117 . S
O593 C603 1.250 . S
O594 Mg591 2.079 . S
O594 C604 1.264 . S
O595 Mg591 2.072 . S
O595 C605 1.260 . S
Mg596 O597 2.180 . S
Mg596 O598 2.030 . S
Mg596 O599 1.990 . S
Mg596 O600 2.117 . S
O597 Mg591 2.099 . S
O597 Mg596 2.180 . S
O597 C606 1.279 . S
O598 Mg596 2.030 . S
O598 C604 1.248 . S
O599 Mg596 1.990 . S
O599 C605 1.253 . S
O600 Mg596 2.117 . S
O600 C606 1.250 . S
C601 O607 1.248 . S
C601 O608 1.264 . S
C602 O588 1.253 . S
C602 O590 1.260 . S
C603 O592 1.279 . S
C603 O593 1.250 . S
C604 O594 1.264 . S
C604 O598 1.248 . S
C605 O595 1.260 . S
C605 O599 1.253 . S
C606 O597 1.279 . S
C606 O600 1.250 . S
O607 Mg589 2.030 . S
O607 C601 1.248 . S
O608 Mg591 2.079 . S
O608 C601 1.264 . S
O609 Mg610 1.990 . S
O609 C623 1.253 . S
Mg610 O609 1.990 . S
Mg610 O613 2.180 . S
Mg610 O614 2.117 . S
Mg610 O628 2.030 . S
O611 Mg612 2.072 . S
O611 C623 1.260 . S
Mg612 O611 2.072 . S
Mg612 O613 2.099 . S
Mg612 O615 2.079 . S
Mg612 O616 2.072 . S
Mg612 O618 2.099 . S
Mg612 O629 2.079 . S
O613 Mg610 2.180 . S
O613 Mg612 2.099 . S
O613 C624 1.279 . S
O614 Mg610 2.117 . S
O614 C624 1.250 . S
O615 Mg612 2.079 . S
O615 C625 1.264 . S
O616 Mg612 2.072 . S
O616 C626 1.260 . S
Mg617 O618 2.180 . S
Mg617 O619 2.030 . S
Mg617 O620 1.990 . S
Mg617 O621 2.117 . S
O618 Mg612 2.099 . S
O618 Mg617 2.180 . S
O618 C627 1.279 . S
O619 Mg617 2.030 . S
O619 C625 1.248 . S
O620 Mg617 1.990 . S
O620 C626 1.253 . S
O621 Mg617 2.117 . S
O621 C627 1.250 . S
C622 O628 1.248 . S
C622 O629 1.264 . S
C623 O609 1.253 . S
C623 O611 1.260 . S
C624 O613 1.279 . S
C624 O614 1.250 . S
C625 O615 1.264 . S
C625 O619 1.248 . S
C626 O616 1.260 . S
C626 O620 1.253 . S
C627 O618 1.279 . S
C627 O621 1.250 . S
O628 Mg610 2.030 . S
O628 C622 1.248 . S
O629 Mg612 2.079 . S
O629 C622 1.264 . S
O630 Mg631 1.990 . S
O630 C644 1.253 . S
Mg631 O630 1.990 . S
Mg631 O634 2.180 . S
Mg631 O635 2.117 . S
Mg631 O649 2.030 . S
O632 Mg633 2.072 . S
O632 C644 1.260 . S
Mg633 O632 2.072 . S
Mg633 O634 2.099 . S
Mg633 O636 2.079 . S
Mg633 O637 2.072 . S
Mg633 O639 2.099 . S
Mg633 O650 2.079 . S
O634 Mg631 2.180 . S
O634 Mg633 2.099 . S
O634 C645 1.279 . S
O635 Mg631 2.117 . S
O635 C645 1.250 . S
O636 Mg633 2.079 . S
O636 C646 1.264 . S
O637 Mg633 2.072 . S
O637 C647 1.260 . S
Mg638 O639 2.180 . S
Mg638 O640 2.030 . S
Mg638 O641 1.990 . S
Mg638 O642 2.117 . S
O639 Mg633 2.099 . S
O639 Mg638 2.180 . S
O639 C648 1.279 . S
O640 Mg638 2.030 . S
O640 C646 1.248 . S
O641 Mg638 1.990 . S
O641 C647 1.253 . S
O642 Mg638 2.117 . S
O642 C648 1.250 . S
C643 O649 1.248 . S
C643 O650 1.264 . S
C644 O630 1.253 . S
C644 O632 1.260 . S
C645 O634 1.279 . S
C645 O635 1.250 . S
C646 O636 1.264 . S
C646 O640 1.248 . S
C647 O637 1.260 . S
C647 O641 1.253 . S
C648 O639 1.279 . S
C648 O642 1.250 . S
O649 Mg631 2.030 . S
O649 C643 1.248 . S
O650 Mg633 2.079 . S
O650 C643 1.264 . S
O651 Mg652 1.990 . S
O651 C665 1.253 . S
Mg652 O651 1.990 . S
Mg652 O655 2.180 . S
Mg652 O656 2.117 . S
Mg652 O670 2.030 . S
O653 Mg654 2.072 . S
O653 C665 1.260 . S
Mg654 O653 2.072 . S
Mg654 O655 2.099 . S
Mg654 O657 2.079 . S
Mg654 O658 2.072 . S
Mg654 O660 2.099 . S
Mg654 O671 2.079 . S
O655 Mg652 2.180 . S
O655 Mg654 2.099 . S
O655 C666 1.279 . S
O656 Mg652 2.117 . S
O656 C666 1.250 . S
O657 Mg654 2.079 . S
O657 C667 1.264 . S
O658 Mg654 2.072 . S
O658 C668 1.260 . S
Mg659 O660 2.180 . S
Mg659 O661 2.030 . S
Mg659 O662 1.990 . S
Mg659 O663 2.117 . S
O660 Mg654 2.099 . S
O660 Mg659 2.180 . S
O660 C669 1.279 . S
O661 Mg659 2.030 . S
O661 C667 1.248 . S
O662 Mg659 1.990 . S
O662 C668 1.253 . S
O663 Mg659 2.117 . S
O663 C669 1.250 . S
C664 O670 1.248 . S
C664 O671 1.264 . S
C665 O651 1.253 . S
C665 O653 1.260 . S
C666 O655 1.279 . S
C666 O656 1.250 . S
C667 O657 1.264 . S
C667 O661 1.248 . S
C668 O658 1.260 . S
C668 O662 1.253 . S
C669 O660 1.279 . S
C669 O663 1.250 . S
O670 Mg652 2.030 . S
O670 C664 1.248 . S
O671 Mg654 2.079 . S
O671 C664 1.264 . S
O672 Mg673 1.990 . S
O672 C686 1.253 . S
Mg673 O672 1.990 . S
Mg673 O676 2.180 . S
Mg673 O677 2.117 . S
Mg673 O691 2.030 . S
O674 Mg675 2.072 . S
O674 C686 1.260 . S
Mg675 O674 2.072 . S
Mg675 O676 2.099 . S
Mg675 O678 2.079 . S
Mg675 O679 2.072 . S
Mg675 O681 2.099 . S
Mg675 O692 2.079 . S
O676 Mg673 2.180 . S
O676 Mg675 2.099 . S
O676 C687 1.279 . S
O677 Mg673 2.117 . S
O677 C687 1.250 . S
O678 Mg675 2.079 . S
O678 C688 1.264 . S
O679 Mg675 2.072 . S
O679 C689 1.260 . S
Mg680 O681 2.180 . S
Mg680 O682 2.030 . S
Mg680 O683 1.990 . S
Mg680 O684 2.117 . S
O681 Mg675 2.099 . S
O681 Mg680 2.180 . S
O681 C690 1.279 . S
O682 Mg680 2.030 . S
O682 C688 1.248 . S
O683 Mg680 1.990 . S
O683 C689 1.253 . S
O684 Mg680 2.117 . S
O684 C690 1.250 . S
C685 O691 1.248 . S
C685 O692 1.264 . S
C686 O672 1.253 . S
C686 O674 1.260 . S
C687 O676 1.279 . S
C687 O677 1.250 . S
C688 O678 1.264 . S
C688 O682 1.248 . S
C689 O679 1.260 . S
C689 O683 1.253 . S
C690 O681 1.279 . S
C690 O684 1.250 . S
O691 Mg673 2.030 . S
O691 C685 1.248 . S
O692 Mg675 2.079 . S
O692 C685 1.264 . S
O693 Mg694 1.990 . S
O693 C707 1.253 . S
Mg694 O693 1.990 . S
Mg694 O697 2.180 . S
Mg694 O698 2.117 . S
Mg694 O712 2.030 . S
O695 Mg696 2.072 . S
O695 C707 1.260 . S
Mg696 O695 2.072 . S
Mg696 O697 2.099 . S
Mg696 O699 2.079 . S
Mg696 O700 2.072 . S
Mg696 O702 2.099 . S
Mg696 O713 2.079 . S
O697 Mg694 2.180 . S
O697 Mg696 2.099 . S
O697 C708 1.279 . S
O698 Mg694 2.117 . S
O698 C708 1.250 . S
O699 Mg696 2.079 . S
O699 C709 1.264 . S
O700 Mg696 2.072 . S
O700 C710 1.260 . S
Mg701 O702 2.180 . S
Mg701 O703 2.030 . S
Mg701 O704 1.990 . S
Mg701 O705 2.117 . S
O702 Mg696 2.099 . S
O702 Mg701 2.180 . S
O702 C711 1.279 . S
O703 Mg701 2.030 . S
O703 C709 1.248 . S
O704 Mg701 1.990 . S
O704 C710 1.253 . S
O705 Mg701 2.117 . S
O705 C711 1.250 . S
C706 O712 1.248 . S
C706 O713 1.264 . S
C707 O693 1.253 . S
C707 O695 1.260 . S
C708 O697 1.279 . S
C708 O698 1.250 . S
C709 O699 1.264 . S
C709 O703 1.248 . S
C710 O700 1.260 . S
C710 O704 1.253 . S
C711 O702 1.279 . S
C711 O705 1.250 . S
O712 Mg694 2.030 . S
O712 C706 1.248 . S
O713 Mg696 2.079 . S
O713 C706 1.264 . S
O714 Mg715 1.990 . S
O714 C728 1.253 . S
Mg715 O714 1.990 . S
Mg715 O718 2.180 . S
Mg715 O719 2.117 . S
Mg715 O733 2.030 . S
O716 Mg717 2.072 . S
O716 C728 1.260 . S
Mg717 O716 2.072 . S
Mg717 O718 2.099 . S
Mg717 O720 2.079 . S
Mg717 O721 2.072 . S
Mg717 O723 2.099 . S
Mg717 O734 2.079 . S
O718 Mg715 2.180 . S
O718 Mg717 2.099 . S
O718 C729 1.279 . S
O719 Mg715 2.117 . S
O719 C729 1.250 . S
O720 Mg717 2.079 . S
O720 C730 1.264 . S
O721 Mg717 2.072 . S
O721 C731 1.260 . S
Mg722 O723 2.180 . S
Mg722 O724 2.030 . S
Mg722 O725 1.990 . S
Mg722 O726 2.117 . S
O723 Mg717 2.099 . S
O723 Mg722 2.180 . S
O723 C732 1.279 . S
O724 Mg722 2.030 . S
O724 C730 1.248 . S
O725 Mg722 1.990 . S
O725 C731 1.253 . S
O726 Mg722 2.117 . S
O726 C732 1.250 . S
C727 O733 1.248 . S
C727 O734 1.264 . S
C728 O714 1.253 . S
C728 O716 1.260 . S
C729 O718 1.279 . S
C729 O719 1.250 . S
C730 O720 1.264 . S
C730 O724 1.248 . S
C731 O721 1.260 . S
C731 O725 1.253 . S
C732 O723 1.279 . S
C732 O726 1.250 . S
O733 Mg715 2.030 . S
O733 C727 1.248 . S
O734 Mg717 2.079 . S
O734 C727 1.264 . S
O735 Mg736 1.990 . S
O735 C749 1.253 . S
Mg736 O735 1.990 . S
Mg736 O739 2.180 . S
Mg736 O740 2.117 . S
Mg736 O754 2.030 . S
O737 Mg738 2.072 . S
O737 C749 1.260 . S
Mg738 O737 2.072 . S
Mg738 O739 2.099 . S
Mg738 O741 2.079 . S
Mg738 O742 2.072 . S
Mg738 O744 2.099 . S
Mg738 O755 2.079 . S
O739 Mg736 2.180 . S
O739 Mg738 2.099 . S
O739 C750 1.279 . S
O740 Mg736 2.117 . S
O740 C750 1.250 . S
O741 Mg738 2.079 . S
O741 C751 1.264 . S
O742 Mg738 2.072 . S
O742 C752 1.260 . S
Mg743 O744 2.180 . S
Mg743 O745 2.030 . S
Mg743 O746 1.990 . S
Mg743 O747 2.117 . S
O744 Mg738 2.099 . S
O744 Mg743 2.180 . S
O744 C753 1.279 . S
O745 Mg743 2.030 . S
O745 C751 1.248 . S
O746 Mg743 1.990 . S
O746 C752 1.253 . S
O747 Mg743 2.117 . S
O747 C753 1.250 . S
C748 O754 1.248 . S
C748 O755 1.264 . S
C749 O735 1.253 . S
C749 O737 1.260 . S
C750 O739 1.279 . S
C750 O740 1.250 . S
C751 O741 1.264 . S
C751 O745 1.248 . S
C752 O742 1.260 . S
C752 O746 1.253 . S
C753 O744 1.279 . S
C753 O747 1.250 . S
O754 Mg736 2.030 . S
O754 C748 1.248 . S
O755 Mg738 2.079 . S
O755 C748 1.264 . S
O756 Mg757 1.990 . S
O756 C770 1.253 . S
Mg757 O756 1.990 . S
Mg757 O760 2.180 . S
Mg757 O761 2.117 . S
Mg757 O775 2.030 . S
O758 Mg759 2.072 . S
O758 C770 1.260 . S
Mg759 O758 2.072 . S
Mg759 O760 2.099 . S
Mg759 O762 2.079 . S
Mg759 O763 2.072 . S
Mg759 O765 2.099 . S
Mg759 O776 2.079 . S
O760 Mg757 2.180 . S
O760 Mg759 2.099 . S
O760 C771 1.279 . S
O761 Mg757 2.117 . S
O761 C771 1.250 . S
O762 Mg759 2.079 . S
O762 C772 1.264 . S
O763 Mg759 2.072 . S
O763 C773 1.260 . S
Mg764 O765 2.180 . S
Mg764 O766 2.030 . S
Mg764 O767 1.990 . S
Mg764 O768 2.117 . S
O765 Mg759 2.099 . S
O765 Mg764 2.180 . S
O765 C774 1.279 . S
O766 Mg764 2.030 . S
O766 C772 1.248 . S
O767 Mg764 1.990 . S
O767 C773 1.253 . S
O768 Mg764 2.117 . S
O768 C774 1.250 . S
C769 O775 1.248 . S
C769 O776 1.264 . S
C770 O756 1.253 . S
C770 O758 1.260 . S
C771 O760 1.279 . S
C771 O761 1.250 . S
C772 O762 1.264 . S
C772 O766 1.248 . S
C773 O763 1.260 . S
C773 O767 1.253 . S
C774 O765 1.279 . S
C774 O768 1.250 . S
O775 Mg757 2.030 . S
O775 C769 1.248 . S
O776 Mg759 2.079 . S
O776 C769 1.264 . S
O777 Mg778 1.990 . S
O777 C791 1.253 . S
Mg778 O777 1.990 . S
Mg778 O781 2.180 . S
Mg778 O782 2.117 . S
Mg778 O796 2.030 . S
O779 Mg780 2.072 . S
O779 C791 1.260 . S
Mg780 O779 2.072 . S
Mg780 O781 2.099 . S
Mg780 O783 2.079 . S
Mg780 O784 2.072 . S
Mg780 O786 2.099 . S
Mg780 O797 2.079 . S
O781 Mg778 2.180 . S
O781 Mg780 2.099 . S
O781 C792 1.279 . S
O782 Mg778 2.117 . S
O782 C792 1.250 . S
O783 Mg780 2.079 . S
O783 C793 1.264 . S
O784 Mg780 2.072 . S
O784 C794 1.260 . S
Mg785 O786 2.180 . S
Mg785 O787 2.030 . S
Mg785 O788 1.990 . S
Mg785 O789 2.117 . S
O786 Mg780 2.099 . S
O786 Mg785 2.180 . S
O786 C795 1.279 . S
O787 Mg785 2.030 . S
O787 C793 1.248 . S
O788 Mg785 1.990 . S
O788 C794 1.253 . S
O789 Mg785 2.117 . S
O789 C795 1.250 . S
C790 O796 1.248 . S
C790 O797 1.264 . S
C791 O777 1.253 . S
C791 O779 1.260 . S
C792 O781 1.279 . S
C792 O782 1.250 . S
C793 O783 1.264 . S
C793 O787 1.248 . S
C794 O784 1.260 . S
C794 O788 1.253 . S
C795 O786 1.279 . S
C795 O789 1.250 . S
O796 Mg778 2.030 . S
O796 C790 1.248 . S
O797 Mg780 2.079 . S
O797 C790 1.264 . S
O798 Mg799 1.990 . S
O798 C812 1.253 . S
Mg799 O798 1.990 . S
Mg799 O802 2.180 . S
Mg799 O803 2.117 . S
Mg799 O817 2.030 . S
O800 Mg801 2.072 . S
O800 C812 1.260 . S
Mg801 O800 2.072 . S
Mg801 O802 2.099 . S
Mg801 O804 2.079 . S
Mg801 O805 2.072 . S
Mg801 O807 2.099 . S
Mg801 O818 2.079 . S
O802 Mg799 2.180 . S
O802 Mg801 2.099 . S
O802 C813 1.279 . S
O803 Mg799 2.117 . S
O803 C813 1.250 . S
O804 Mg801 2.079 . S
O804 C814 1.264 . S
O805 Mg801 2.072 . S
O805 C815 1.260 . S
Mg806 O807 2.180 . S
Mg806 O808 2.030 . S
Mg806 O809 1.990 . S
Mg806 O810 2.117 . S
O807 Mg801 2.099 . S
O807 Mg806 2.180 . S
O807 C816 1.279 . S
O808 Mg806 2.030 . S
O808 C814 1.248 . S
O809 Mg806 1.990 . S
O809 C815 1.253 . S
O810 Mg806 2.117 . S
O810 C816 1.250 . S
C811 O817 1.248 . S
C811 O818 1.264 . S
C812 O798 1.253 . S
C812 O800 1.260 . S
C813 O802 1.279 . S
C813 O803 1.250 . S
C814 O804 1.264 . S
C814 O808 1.248 . S
C815 O805 1.260 . S
C815 O809 1.253 . S
C816 O807 1.279 . S
C816 O810 1.250 . S
O817 Mg799 2.030 . S
O817 C811 1.248 . S
O818 Mg801 2.079 . S
O818 C811 1.264 . S
O819 Mg820 1.990 . S
O819 C833 1.253 . S
Mg820 O819 1.990 . S
Mg820 O823 2.180 . S
Mg820 O824 2.117 . S
Mg820 O838 2.030 . S
O821 Mg822 2.072 . S
O821 C833 1.260 . S
Mg822 O821 2.072 . S
Mg822 O823 2.099 . S
Mg822 O825 2.079 . S
Mg822 O826 2.072 . S
Mg822 O828 2.099 . S
Mg822 O839 2.079 . S
O823 Mg820 2.180 . S
O823 Mg822 2.099 . S
O823 C834 1.279 . S
O824 Mg820 2.117 . S
O824 C834 1.250 . S
O825 Mg822 2.079 . S
O825 C835 1.264 . S
O826 Mg822 2.072 . S
O826 C836 1.260 . S
Mg827 O828 2.180 . S
Mg827 O829 2.030 . S
Mg827 O830 1.990 . S
Mg827 O831 2.117 . S
O828 Mg822 2.099 . S
O828 Mg827 2.180 . S
O828 C837 1.279 . S
O829 Mg827 2.030 . S
O829 C835 1.248 . S
O830 Mg827 1.990 . S
O830 C836 1.253 . S
O831 Mg827 2.117 . S
O831 C837 1.250 . S
C832 O838 1.248 . S
C832 O839 1.264 . S
C833 O819 1.253 . S
C833 O821 1.260 . S
C834 O823 1.279 . S
C834 O824 1.250 . S
C835 O825 1.264 . S
C835 O829 1.248 . S
C836 O826 1.260 . S
C836 O830 1.253 . S
C837 O828 1.279 . S
C837 O831 1.250 . S
O838 Mg820 2.030 . S
O838 C832 1.248 . S
O839 Mg822 2.079 . S
O839 C832 1.264 . S
O840 Mg841 1.990 . S
O840 C854 1.253 . S
Mg841 O840 1.990 . S
Mg841 O844 2.180 . S
Mg841 O845 2.117 . S
Mg841 O859 2.030 . S
O842 Mg843 2.072 . S
O842 C854 1.260 . S
Mg843 O842 2.072 . S
Mg843 O844 2.099 . S
Mg843 O846 2.079 . S
Mg843 O847 2.072 . S
Mg843 O849 2.099 . S
Mg843 O860 2.079 . S
O844 Mg841 2.180 . S
O844 Mg843 2.099 . S
O844 C855 1.279 . S
O845 Mg841 2.117 . S
O845 C855 1.250 . S
O846 Mg843 2.079 . S
O846 C856 1.264 . S
O847 Mg843 2.072 . S
O847 C857 1.260 . S
Mg848 O849 2.180 . S
Mg848 O850 2.030 . S
Mg848 O851 1.990 . S
Mg848 O852 2.117 . S
O849 Mg843 2.099 . S
O849 Mg848 2.180 . S
O849 C858 1.279 . S
O850 Mg848 2.030 . S
O850 C856 1.248 . S
O851 Mg848 1.990 . S
O851 C857 1.253 . S
O852 Mg848 2.117 . S
O852 C858 1.250 . S
C853 O859 1.248 . S
C853 O860 1.264 . S
C854 O840 1.253 . S
C854 O842 1.260 . S
C855 O844 1.279 . S
C855 O845 1.250 . S
C856 O846 1.264 . S
C856 O850 1.248 . S
C857 O847 1.260 . S
C857 O851 1.253 . S
C858 O849 1.279 . S
C858 O852 1.250 . S
O859 Mg841 2.030 . S
O859 C853 1.248 . S
O860 Mg843 2.079 . S
O860 C853 1.264 . S
O861 Mg862 1.990 . S
O861 C875 1.253 . S
Mg862 O861 1.990 . S
Mg862 O865 2.180 . S
Mg862 O866 2.117 . S
Mg862 O880 2.030 . S
O863 Mg864 2.072 . S
O863 C875 1.260 . S
Mg864 O863 2.072 . S
Mg864 O865 2.099 . S
Mg864 O867 2.079 . S
Mg864 O868 2.072 . S
Mg864 O870 2.099 . S
Mg864 O881 2.079 . S
O865 Mg862 2.180 . S
O865 Mg864 2.099 . S
O865 C876 1.279 . S
O866 Mg862 2.117 . S
O866 C876 1.250 . S
O867 Mg864 2.079 . S
O867 C877 1.264 . S
O868 Mg864 2.072 . S
O868 C878 1.260 . S
Mg869 O870 2.180 . S
Mg869 O871 2.030 . S
Mg869 O872 1.990 . S
Mg869 O873 2.117 . S
O870 Mg864 2.099 . S
O870 Mg869 2.180 . S
O870 C879 1.279 . S
O871 Mg869 2.030 . S
O871 C877 1.248 . S
O872 Mg869 1.990 . S
O872 C878 1.253 . S
O873 Mg869 2.117 . S
O873 C879 1.250 . S
C874 O880 1.248 . S
C874 O881 1.264 . S
C875 O861 1.253 . S
C875 O863 1.260 . S
C876 O865 1.279 . S
C876 O866 1.250 . S
C877 O867 1.264 . S
C877 O871 1.248 . S
C878 O868 1.260 . S
C878 O872 1.253 . S
C879 O870 1.279 . S
C879 O873 1.250 . S
O880 Mg862 2.030 . S
O880 C874 1.248 . S
O881 Mg864 2.079 . S
O881 C874 1.264 . S
O882 Mg883 1.990 . S
O882 C896 1.253 . S
Mg883 O882 1.990 . S
Mg883 O886 2.180 . S
Mg883 O887 2.117 . S
Mg883 O901 2.030 . S
O884 Mg885 2.072 . S
O884 C896 1.260 . S
Mg885 O884 2.072 . S
Mg885 O886 2.099 . S
Mg885 O888 2.079 . S
Mg885 O889 2.072 . S
Mg885 O891 2.099 . S
Mg885 O902 2.079 . S
O886 Mg883 2.180 . S
O886 Mg885 2.099 . S
O886 C897 1.279 . S
O887 Mg883 2.117 . S
O887 C897 1.250 . S
O888 Mg885 2.079 . S
O888 C898 1.264 . S
O889 Mg885 2.072 . S
O889 C899 1.260 . S
Mg890 O891 2.180 . S
Mg890 O892 2.030 . S
Mg890 O893 1.990 . S
Mg890 O894 2.117 . S
O891 Mg885 2.099 . S
O891 Mg890 2.180 . S
O891 C900 1.279 . S
O892 Mg890 2.030 . S
O892 C898 1.248 . S
O893 Mg890 1.990 . S
O893 C899 1.253 . S
O894 Mg890 2.117 . S
O894 C900 1.250 . S
C895 O901 1.248 . S
C895 O902 1.264 . S
C896 O882 1.253 . S
C896 O884 1.260 . S
C897 O886 1.279 . S
C897 O887 1.250 . S
C898 O888 1.264 . S
C898 O892 1.248 . S
C899 O889 1.260 . S
C899 O893 1.253 . S
C900 O891 1.279 . S
C900 O894 1.250 . S
O901 Mg883 2.030 . S
O901 C895 1.248 . S
O902 Mg885 2.079 . S
O902 C895 1.264 . S
O903 Mg904 1.990 . S
O903 C917 1.253 . S
Mg904 O903 1.990 . S
Mg904 O907 2.180 . S
Mg904 O908 2.117 . S
Mg904 O922 2.030 . S
O905 Mg906 2.072 . S
O905 C917 1.260 . S
Mg906 O905 2.072 . S
Mg906 O907 2.099 . S
Mg906 O909 2.079 . S
Mg906 O910 2.072 . S
Mg906 O912 2.099 . S
Mg906 O923 2.079 . S
O907 Mg904 2.180 . S
O907 Mg906 2.099 . S
O907 C918 1.279 . S
O908 Mg904 2.117 . S
O908 C918 1.250 . S
O909 Mg906 2.079 . S
O909 C919 1.264 . S
O910 Mg906 2.072 . S
O910 C920 1.260 . S
Mg911 O912 2.180 . S
Mg911 O913 2.030 . S
Mg911 O914 1.990 . S
Mg911 O915 2.117 . S
O912 Mg906 2.099 . S
O912 Mg911 2.180 . S
O912 C921 1.279 . S
O913 Mg911 2.030 . S
O913 C919 1.248 . S
O914 Mg911 1.990 . S
O914 C920 1.253 . S
O915 Mg911 2.117 . S
O915 C921 1.250 . S
C916 O922 1.248 . S
C916 O923 1.264 . S
C917 O903 1.253 . S
C917 O905 1.260 . S
C918 O907 1.279 . S
C918 O908 1.250 . S
C919 O909 1.264 . S
C919 O913 1.248 . S
C920 O910 1.260 . S
C920 O914 1.253 . S
C921 O912 1.279 . S
C921 O915 1.250 . S
O922 Mg904 2.030 . S
O922 C916 1.248 . S
O923 Mg906 2.079 . S
O923 C916 1.264 . S
O924 Mg925 1.990 . S
O924 C938 1.253 . S
Mg925 O924 1.990 . S
Mg925 O928 2.180 . S
Mg925 O929 2.117 . S
Mg925 O943 2.030 . S
O926 Mg927 2.072 . S
O926 C938 1.260 . S
Mg927 O926 2.072 . S
Mg927 O928 2.099 . S
Mg927 O930 2.079 . S
Mg927 O931 2.072 . S
Mg927 O933 2.099 . S
Mg927 O944 2.079 . S
O928 Mg925 2.180 . S
O928 Mg927 2.099 . S
O928 C939 1.279 . S
O929 Mg925 2.117 . S
O929 C939 1.250 . S
O930 Mg927 2.079 . S
O930 C940 1.264 . S
O931 Mg927 2.072 . S
O931 C941 1.260 . S
Mg932 O933 2.180 . S
Mg932 O934 2.030 . S
Mg932 O935 1.990 . S
Mg932 O936 2.117 . S
O933 Mg927 2.099 . S
O933 Mg932 2.180 . S
O933 C942 1.279 . S
O934 Mg932 2.030 . S
O934 C940 1.248 . S
O935 Mg932 1.990 . S
O935 C941 1.253 . S
O936 Mg932 2.117 . S
O936 C942 1.250 . S
C937 O943 1.248 . S
C937 O944 1.264 . S
C938 O924 1.253 . S
C938 O926 1.260 . S
C939 O928 1.279 . S
C939 O929 1.250 . S
C940 O930 1.264 . S
C940 O934 1.248 . S
C941 O931 1.260 . S
C941 O935 1.253 . S
C942 O933 1.279 . S
C942 O936 1.250 . S
O943 Mg925 2.030 . S
O943 C937 1.248 . S
O944 Mg927 2.079 . S
O944 C937 1.264 . S
O945 Mg946 1.990 . S
O945 C959 1.253 . S
Mg946 O945 1.990 . S
Mg946 O949 2.180 . S
Mg946 O950 2.117 . S
Mg946 O964 2.030 . S
O947 Mg948 2.072 . S
O947 C959 1.260 . S
Mg948 O947 2.072 . S
Mg948 O949 2.099 . S
Mg948 O951 2.079 . S
Mg948 O952 2.072 . S
Mg948 O954 2.099 . S
Mg948 O965 2.079 . S
O949 Mg946 2.180 . S
O949 Mg948 2.099 . S
O949 C960 1.279 . S
O950 Mg946 2.117 . S
O950 C960 1.250 . S
O951 Mg948 2.079 . S
O951 C961 1.264 . S
O952 Mg948 2.072 . S
O952 C962 1.260 . S
Mg953 O954 2.180 . S
Mg953 O955 2.030 . S
Mg953 O956 1.990 . S
Mg953 O957 2.117 . S
O954 Mg948 2.099 . S
O954 Mg953 2.180 . S
O954 C963 1.279 . S
O955 Mg953 2.030 . S
O955 C961 1.248 . S
O956 Mg953 1.990 . S
O956 C962 1.253 . S
O957 Mg953 2.117 . S
O957 C963 1.250 . S
C958 O964 1.248 . S
C958 O965 1.264 . S
C959 O945 1.253 . S
C959 O947 1.260 . S
C960 O949 1.279 . S
C960 O950 1.250 . S
C961 O951 1.264 . S
C961 O955 1.248 . S
C962 O952 1.260 . S
C962 O956 1.253 . S
C963 O954 1.279 . S
C963 O957 1.250 . S
O964 Mg946 2.030 . S
O964 C958 1.248 . S
O965 Mg948 2.079 . S
O965 C958 1.264 . S
O966 Mg967 1.990 . S
O966 C980 1.253 . S
Mg967 O966 1.990 . S
Mg967 O970 2.180 . S
Mg967 O971 2.117 . S
Mg967 O985 2.030 . S
O968 Mg969 2.072 . S
O968 C980 1.260 . S
Mg969 O968 2.072 . S
Mg969 O970 2.099 . S
Mg969 O972 2.079 . S
Mg969 O973 2.072 . S
Mg969 O975 2.099 . S
Mg969 O986 2.079 . S
O970 Mg967 2.180 . S
O970 Mg969 2.099 . S
O970 C981 1.279 . S
O971 Mg967 2.117 . S
O971 C981 1.250 . S
O972 Mg969 2.079 . S
O972 C982 1.264 . S
O973 Mg969 2.072 . S
O973 C983 1.260 . S
Mg974 O975 2.180 . S
Mg974 O976 2.030 . S
Mg974 O977 1.990 . S
Mg974 O978 2.117 . S
O975 Mg969 2.099 . S
O975 Mg974 2.180 . S
O975 C984 1.279 . S
O976 Mg974 2.030 . S
O976 C982 1.248 . S
O977 Mg974 1.990 . S
O977 C983 1.253 . S
O978 Mg974 2.117 . S
O978 C984 1.250 . S
C979 O985 1.248 . S
C979 O986 1.264 . S
C980 O966 1.253 . S
C980 O968 1.260 . S
C981 O970 1.279 . S
C981 O971 1.250 . S
C982 O972 1.264 . S
C982 O976 1.248 . S
C983 O973 1.260 . S
C983 O977 1.253 . S
C984 O975 1.279 . S
C984 O978 1.250 . S
O985 Mg967 2.030 . S
O985 C979 1.248 . S
O986 Mg969 2.079 . S
O986 C979 1.264 . S
O987 Mg988 1.990 . S
O987 C1001 1.253 . S
Mg988 O987 1.990 . S
Mg988 O991 2.180 . S
Mg988 O992 2.117 . S
Mg988 O1006 2.030 . S
O989 Mg990 2.072 . S
O989 C1001 1.260 . S
Mg990 O989 2.072 . S
Mg990 O991 2.099 . S
Mg990 O993 2.079 . S
Mg990 O994 2.072 . S
Mg990 O996 2.099 . S
Mg990 O1007 2.079 . S
O991 Mg988 2.180 . S
O991 Mg990 2.099 . S
O991 C1002 1.279 . S
O992 Mg988 2.117 . S
O992 C1002 1.250 . S
O993 Mg990 2.079 . S
O993 C1003 1.264 . S
O994 Mg990 2.072 . S
O994 C1004 1.260 . S
Mg995 O996 2.180 . S
Mg995 O997 2.030 . S
Mg995 O998 1.990 . S
Mg995 O999 2.117 . S
O996 Mg990 2.099 . S
O996 Mg995 2.180 . S
O996 C1005 1.279 . S
O997 Mg995 2.030 . S
O997 C1003 1.248 . S
O998 Mg995 1.990 . S
O998 C1004 1.253 . S
O999 Mg995 2.117 . S
O999 C1005 1.250 . S
C1000 O1006 1.248 . S
C1000 O1007 1.264 . S
C1001 O987 1.253 . S
C1001 O989 1.260 . S
C1002 O991 1.279 . S
C1002 O992 1.250 . S
C1003 O993 1.264 . S
C1003 O997 1.248 . S
C1004 O994 1.260 . S
C1004 O998 1.253 . S
C1005 O996 1.279 . S
C1005 O999 1.250 . S
O1006 Mg988 2.030 . S
O1006 C1000 1.248 . S
O1007 Mg990 2.079 . S
O1007 C1000 1.264 . S
C140 C14 2.048 1_455 S
C161 C35 2.048 1_545 S
C98 C56 2.048 1_655 S
C122 C80 2.048 1_565 S
C224 C182 2.048 1_545 S
C245 C203 2.048 1_655 S
C308 C266 2.048 1_565 S
C329 C287 2.048 1_455 S
C371 C350 2.048 1_554 S
C497 C392 2.048 1_556 S
C455 C413 2.048 1_556 S
C434 C479 2.048 1_554 S
C518 C644 2.048 1_556 S
C539 C665 2.048 1_556 S
C560 C602 2.048 1_556 S
C584 C626 2.048 1_556 S
C686 C728 2.048 1_655 S
C707 C749 2.048 1_565 S
C770 C812 2.048 1_655 S
C833 C791 2.048 1_545 S
C854 C875 2.048 1_565 S
C1001 C896 2.048 1_455 S
C917 C959 2.048 1_565 S
C938 C983 2.048 1_455 S
C16 C205 1.933 1_455 S
C37 C226 1.934 1_545 S
C58 C247 1.933 1_655 S
C184 C76 1.933 1_545 S
C331 C100 1.933 1_655 S
C268 C118 1.933 1_565 S
C289 C142 1.934 1_455 S
C163 C310 1.933 1_565 S
C394 C352 1.933 1_556 S
C475 C373 1.934 1_554 S
C415 C499 1.933 1_556 S
C457 C436 1.933 1_554 S
C520 C709 1.933 . S
C730 C541 1.934 . S
C751 C562 1.933 . S
C580 C688 1.933 . S
C835 C604 1.933 . S
C622 C772 1.933 . S
C646 C793 1.934 . S
C667 C814 1.933 . S
C856 C898 1.933 . S
C979 C877 1.934 . S
C1003 C919 1.933 . S
C940 C961 1.933 . S
C17 C81 1.182 . S
C15 C38 1.182 . S
C59 C36 1.182 . S
C77 C57 1.182 . S
C123 C101 1.182 . S
C141 C119 1.182 . S
C143 C162 1.183 . S
C99 C164 1.182 . S
C185 C393 1.182 . S
C206 C414 1.182 . S
C227 C435 1.183 . S
C248 C372 1.182 . S
C269 C480 1.182 . S
C351 C290 1.182 . S
C498 C311 1.182 . S
C332 C456 1.182 . S
C353 C204 1.182 . S
C374 C330 1.183 . S
C395 C267 1.182 . S
C288 C416 1.182 . S
C309 C437 1.182 . S
C246 C458 1.182 . S
C183 C476 1.183 . S
C500 C225 1.182 . S
C521 C585 1.182 . S
C542 C519 1.182 . S
C540 C563 1.182 . S
C561 C581 1.182 . S
C605 C627 1.182 . S
C645 C623 1.182 . S
C666 C647 1.183 . S
C668 C603 1.182 . S
C689 C897 1.182 . S
C918 C710 1.182 . S
C939 C731 1.183 . S
C752 C876 1.182 . S
C984 C773 1.182 . S
C794 C855 1.182 . S
C815 C1002 1.182 . S
C836 C960 1.182 . S
C708 C857 1.182 . S
C834 C878 1.183 . S
C771 C899 1.182 . S
C920 C792 1.182 . S
C813 C941 1.182 . S
C962 C750 1.182 . S
C980 C687 1.182 . S
C729 C1004 1.182 . S
C18 C942 0.958 . S
C879 C39 0.958 . S
C60 C900 0.958 . S
C78 C921 0.958 . S
C102 C1005 0.958 . S
C120 C963 0.958 . S
C144 C981 0.958 . S
C165 C858 0.958 . S
C186 C837 0.958 . S
C207 C774 0.958 . S
C228 C795 0.958 . S
C249 C816 0.958 . S
C270 C711 0.958 . S
C291 C732 0.958 . S
C312 C753 0.958 . S
C333 C690 0.958 . S
C354 C669 0.958 . S
C375 C543 0.958 . S
C396 C564 0.958 . S
C417 C582 0.958 . S
C438 C522 0.958 . S
C459 C624 0.958 . S
C477 C648 0.958 . S
C501 C606 0.958 . S
C97 C895 0.607 . S
C121 C916 0.607 . S
C139 C937 0.607 . S
C160 C874 0.607 . S
C13 C982 0.607 . S
C34 C853 0.607 . S
C55 C1000 0.607 . S
C958 C79 0.607 . S
C307 C706 0.607 . S
C328 C727 0.607 . S
C265 C748 0.607 . S
C286 C685 0.607 . S
C223 C832 0.607 . S
C244 C769 0.607 . S
C181 C790 0.607 . S
C202 C811 0.607 . S
C454 C583 0.607 . S
C412 C625 0.607 . S
C433 C643 0.607 . S
C370 C664 0.607 . S
C391 C601 0.607 . S
C349 C538 0.607 . S
C496 C559 0.607 . S
C478 C517 0.607 . S
