# Generated by pormake.
# Topology wme, (6)-cn, num edge types: 1
# Building blocks:
#     Node 0, Type 0, BuildingBlock: KUMJIN_clean_sbu_1, # of connection points: 6
#     Node 1, Type 0, BuildingBlock: KUMJIN_clean_sbu_1, # of connection points: 6
#     Node 2, Type 0, BuildingBlock: KUMJIN_clean_sbu_1, # of connection points: 6
#     Node 3, Type 0, BuildingBlock: KUMJIN_clean_sbu_1, # of connection points: 6
#     Node 4, Type 0, BuildingBlock: KUMJIN_clean_sbu_1, # of connection points: 6
#     Node 5, Type 0, BuildingBlock: KUMJIN_clean_sbu_1, # of connection points: 6
#     Node 6, Type 0, BuildingBlock: KUMJIN_clean_sbu_1, # of connection points: 6
#     Node 7, Type 0, BuildingBlock: KUMJIN_clean_sbu_1, # of connection points: 6
#     Node 8, Type 0, BuildingBlock: KUMJIN_clean_sbu_1, # of connection points: 6
#     Node 9, Type 0, BuildingBlock: KUMJIN_clean_sbu_1, # of connection points: 6
#     Node 10, Type 0, BuildingBlock: KUMJIN_clean_sbu_1, # of connection points: 6
#     Node 11, Type 0, BuildingBlock: KUMJIN_clean_sbu_1, # of connection points: 6
#     Edge 12, Type (0, 0), BuildingBlock: UVAHIK_clean_linker_0, # of connection points: 2
#     Edge 13, Type (0, 0), BuildingBlock: UVAHIK_clean_linker_0, # of connection points: 2
#     Edge 14, Type (0, 0), BuildingBlock: UVAHIK_clean_linker_0, # of connection points: 2
#     Edge 15, Type (0, 0), BuildingBlock: UVAHIK_clean_linker_0, # of connection points: 2
#     Edge 16, Type (0, 0), BuildingBlock: UVAHIK_clean_linker_0, # of connection points: 2
#     Edge 17, Type (0, 0), BuildingBlock: UVAHIK_clean_linker_0, # of connection points: 2
#     Edge 18, Type (0, 0), BuildingBlock: UVAHIK_clean_linker_0, # of connection points: 2
#     Edge 19, Type (0, 0), BuildingBlock: UVAHIK_clean_linker_0, # of connection points: 2
#     Edge 20, Type (0, 0), BuildingBlock: UVAHIK_clean_linker_0, # of connection points: 2
#     Edge 21, Type (0, 0), BuildingBlock: UVAHIK_clean_linker_0, # of connection points: 2
#     Edge 22, Type (0, 0), BuildingBlock: UVAHIK_clean_linker_0, # of connection points: 2
#     Edge 23, Type (0, 0), BuildingBlock: UVAHIK_clean_linker_0, # of connection points: 2
#     Edge 24, Type (0, 0), BuildingBlock: UVAHIK_clean_linker_0, # of connection points: 2
#     Edge 25, Type (0, 0), BuildingBlock: UVAHIK_clean_linker_0, # of connection points: 2
#     Edge 26, Type (0, 0), BuildingBlock: UVAHIK_clean_linker_0, # of connection points: 2
#     Edge 27, Type (0, 0), BuildingBlock: UVAHIK_clean_linker_0, # of connection points: 2
#     Edge 28, Type (0, 0), BuildingBlock: UVAHIK_clean_linker_0, # of connection points: 2
#     Edge 29, Type (0, 0), BuildingBlock: UVAHIK_clean_linker_0, # of connection points: 2
#     Edge 30, Type (0, 0), BuildingBlock: UVAHIK_clean_linker_0, # of connection points: 2
#     Edge 31, Type (0, 0), BuildingBlock: UVAHIK_clean_linker_0, # of connection points: 2
#     Edge 32, Type (0, 0), BuildingBlock: UVAHIK_clean_linker_0, # of connection points: 2
#     Edge 33, Type (0, 0), BuildingBlock: UVAHIK_clean_linker_0, # of connection points: 2
#     Edge 34, Type (0, 0), BuildingBlock: UVAHIK_clean_linker_0, # of connection points: 2
#     Edge 35, Type (0, 0), BuildingBlock: UVAHIK_clean_linker_0, # of connection points: 2
#     Edge 36, Type (0, 0), BuildingBlock: UVAHIK_clean_linker_0, # of connection points: 2
#     Edge 37, Type (0, 0), BuildingBlock: UVAHIK_clean_linker_0, # of connection points: 2
#     Edge 38, Type (0, 0), BuildingBlock: UVAHIK_clean_linker_0, # of connection points: 2
#     Edge 39, Type (0, 0), BuildingBlock: UVAHIK_clean_linker_0, # of connection points: 2
#     Edge 40, Type (0, 0), BuildingBlock: UVAHIK_clean_linker_0, # of connection points: 2
#     Edge 41, Type (0, 0), BuildingBlock: UVAHIK_clean_linker_0, # of connection points: 2
#     Edge 42, Type (0, 0), BuildingBlock: UVAHIK_clean_linker_0, # of connection points: 2
#     Edge 43, Type (0, 0), BuildingBlock: UVAHIK_clean_linker_0, # of connection points: 2
#     Edge 44, Type (0, 0), BuildingBlock: UVAHIK_clean_linker_0, # of connection points: 2
#     Edge 45, Type (0, 0), BuildingBlock: UVAHIK_clean_linker_0, # of connection points: 2
#     Edge 46, Type (0, 0), BuildingBlock: UVAHIK_clean_linker_0, # of connection points: 2
#     Edge 47, Type (0, 0), BuildingBlock: UVAHIK_clean_linker_0, # of connection points: 2
# Relax obj value: 0.062
# Max RMSD: 0.165
# Mean RMSD: 0.165
data_MOF--net-wme--node1-KUMJIN_clean_sbu_1--edge1-UVAHIK_clean_linker_0
_symmetry_space_group_name_H-M    P1
_symmetry_Int_Tables_number       1
_symmetry_cell_setting            triclinic
loop_
_symmetry_equiv_pos_as_xyz
'x, y, z'
_cell_length_a     48.050531
_cell_length_b     48.162225
_cell_length_c     69.825638
_cell_angle_alpha  89.998497
_cell_angle_beta   89.955212
_cell_angle_gamma 120.04814
loop_
_atom_site_label
_atom_site_type_symbol
_atom_site_fract_x
_atom_site_fract_y
_atom_site_fract_z
_atom_type_partial_charge
Eu0 Eu 0.23168 0.31146 0.13374 0.0
C1 C 0.11915 0.31763 0.09511 0.0
N2 N 0.15001 0.33119 0.08877 0.0
C3 C 0.13164 0.31268 0.05693 0.0
C4 C 0.09317 0.30047 0.08248 0.0
C5 C 0.15665 0.3293 0.06999 0.0
C6 C 0.09977 0.29814 0.0632 0.0
C7 C 0.08183 0.30551 0.12147 0.0
C8 C 0.11363 0.32006 0.11445 0.0
C9 C 0.05591 0.2882 0.10895 0.0
C10 C 0.06156 0.28576 0.08951 0.0
Eu11 Eu 0.19054 0.3596 0.11157 0.0
N12 N 0.13923 0.33658 0.12637 0.0
C13 C 0.07697 0.30913 0.14085 0.0
C14 C 0.13439 0.34231 0.14486 0.0
C15 C 0.10335 0.32804 0.15251 0.0
H16 H 0.18124 0.34089 0.06503 0.0
H17 H 0.09977 0.33222 0.1673 0.0
H18 H 0.22902 0.31587 0.18158 0.0
H19 H 0.33495 0.35023 0.08605 0.0
H20 H 0.15409 0.35877 0.15367 0.0
H21 H 0.05293 0.29827 0.14679 0.0
H22 H 0.27762 0.32211 0.09479 0.0
H23 H 0.13695 0.31113 0.04203 0.0
H24 H 0.03137 0.27673 0.11414 0.0
H25 H 0.0413 0.27231 0.08004 0.0
H26 H 0.26691 0.34069 0.20854 0.0
H27 H 0.08046 0.28514 0.05305 0.0
H28 H 0.37629 0.37828 0.111 0.0
N29 N 0.26579 0.33257 0.16052 0.0
C30 C 0.29792 0.34809 0.15687 0.0
C31 C 0.27593 0.34308 0.19407 0.0
C32 C 0.32042 0.36223 0.17182 0.0
C33 C 0.25453 0.32937 0.17878 0.0
C34 C 0.30902 0.35971 0.19058 0.0
N35 N 0.28602 0.3366 0.12387 0.0
C36 C 0.29521 0.33549 0.10557 0.0
C37 C 0.34148 0.36584 0.13383 0.0
C38 C 0.30834 0.35007 0.13805 0.0
C39 C 0.35105 0.36646 0.11482 0.0
C40 C 0.3278 0.35083 0.10068 0.0
H41 H 0.32555 0.3703 0.20246 0.0
H42 H 0.37109 0.38951 0.17891 0.0
H43 H 0.38951 0.39253 0.14569 0.0
O44 O 0.22837 0.26792 0.12178 0.0
O45 O 0.26158 0.36657 0.13415 0.0
O46 O 0.24418 0.38272 0.10802 0.0
O47 O 0.2296 0.27413 0.15247 0.0
O48 O 0.21954 0.30552 0.10198 0.0
O49 O 0.22325 0.35267 0.09079 0.0
O50 O 0.18821 0.40242 0.11987 0.0
O51 O 0.16518 0.30507 0.10888 0.0
O52 O 0.17761 0.28962 0.13702 0.0
O53 O 0.19281 0.39366 0.09014 0.0
O54 O 0.20678 0.36855 0.14309 0.0
O55 O 0.19803 0.31904 0.15246 0.0
C56 C 0.26584 0.38807 0.12108 0.0
C57 C 0.25073 0.2427 0.14016 0.0
C58 C 0.25814 0.19599 0.13904 0.0
C59 C 0.29074 0.21611 0.14381 0.0
C60 C 0.28326 0.26223 0.14485 0.0
C61 C 0.30313 0.24895 0.14663 0.0
C62 C 0.23831 0.2097 0.13719 0.0
C63 C 0.22493 0.32637 0.08825 0.0
C64 C 0.2293 0.25619 0.13843 0.0
C65 C 0.35345 0.37841 0.16761 0.0
C66 C 0.36394 0.38017 0.14868 0.0
C67 C 0.15743 0.28446 0.12296 0.0
C68 C 0.16252 0.41895 0.09725 0.0
C69 C 0.1403 0.45501 0.0992 0.0
C70 C 0.11523 0.43415 0.08692 0.0
C71 C 0.13714 0.39873 0.08506 0.0
C72 C 0.16397 0.4471 0.10433 0.0
C73 C 0.11366 0.40625 0.08003 0.0
C74 C 0.20205 0.34738 0.15656 0.0
C75 C 0.18778 0.41116 0.10229 0.0
H76 H 0.30661 0.20644 0.1457 0.0
H77 H 0.29325 0.28761 0.14727 0.0
H78 H 0.3282 0.26414 0.15036 0.0
H79 H 0.21323 0.19481 0.13331 0.0
H80 H 0.09707 0.43967 0.08224 0.0
H81 H 0.13557 0.37729 0.07914 0.0
H82 H 0.18343 0.46266 0.11382 0.0
H83 H 0.09434 0.39057 0.07052 0.0
Eu84 Eu 0.92785 0.23281 0.63814 0.0
C85 C 0.81434 0.13042 0.58484 0.0
N86 N 0.82996 0.16296 0.58353 0.0
C87 C 0.83174 0.15986 0.54934 0.0
C88 C 0.80713 0.11126 0.56828 0.0
C89 C 0.83845 0.17788 0.56615 0.0
C90 C 0.8161 0.12642 0.5504 0.0
C91 C 0.79012 0.08255 0.60469 0.0
C92 C 0.80594 0.11621 0.60284 0.0
C93 C 0.78298 0.06341 0.58823 0.0
C94 C 0.79144 0.07772 0.57008 0.0
Eu95 Eu 0.84078 0.19122 0.61266 0.0
N96 N 0.81427 0.1354 0.61857 0.0
C97 C 0.7823 0.06915 0.62306 0.0
C98 C 0.80555 0.12246 0.63645 0.0
C99 C 0.78981 0.0892 0.63899 0.0
H100 H 0.85011 0.20371 0.56522 0.0
H101 H 0.78346 0.07904 0.65323 0.0
H102 H 0.91064 0.24723 0.68225 0.0
H103 H 1.00572 0.31766 0.58331 0.0
H104 H 0.8107 0.13763 0.64879 0.0
H105 H 0.77033 0.04341 0.6251 0.0
H106 H 0.9762 0.26521 0.59939 0.0
H107 H 0.83857 0.17177 0.53558 0.0
H108 H 0.77101 0.03752 0.58939 0.0
H109 H 0.78581 0.06263 0.55753 0.0
H110 H 0.91774 0.29363 0.70143 0.0
H111 H 0.811 0.11254 0.53735 0.0
H112 H 0.00937 0.36572 0.59859 0.0
N113 N 0.93463 0.27553 0.65786 0.0
C114 C 0.95148 0.30545 0.65014 0.0
C115 C 0.92721 0.29723 0.68701 0.0
C116 C 0.95587 0.33248 0.66049 0.0
C117 C 0.92321 0.27107 0.67617 0.0
C118 C 0.94338 0.32802 0.67909 0.0
N119 N 0.95898 0.28224 0.62197 0.0
C120 C 0.97569 0.28548 0.60552 0.0
C121 C 0.98128 0.33958 0.62335 0.0
C122 C 0.9635 0.30879 0.63161 0.0
C123 C 0.99549 0.3425 0.60541 0.0
C124 C 0.99332 0.31542 0.59667 0.0
H125 H 0.94626 0.34821 0.68749 0.0
H126 H 0.97587 0.38399 0.65964 0.0
H127 H 0.99844 0.39027 0.62725 0.0
O128 O 0.97404 0.23336 0.63458 0.0
O129 O 0.89515 0.25484 0.63978 0.0
O130 O 0.87196 0.24488 0.6103 0.0
O131 O 0.95649 0.23597 0.66301 0.0
O132 O 0.92371 0.21797 0.60679 0.0
O133 O 0.88371 0.22617 0.5946 0.0
O134 O 0.79714 0.18611 0.62562 0.0
O135 O 0.86766 0.16344 0.61222 0.0
O136 O 0.89978 0.1783 0.63921 0.0
O137 O 0.80465 0.1947 0.59523 0.0
O138 O 0.84302 0.19921 0.64524 0.0
O139 O 0.88728 0.19704 0.65651 0.0
C140 C 0.88441 0.26371 0.62511 0.0
C141 C 1.00796 0.23819 0.6623 0.0
C142 C 0.05508 0.23117 0.66235 0.0
C143 C 0.06305 0.24511 0.68067 0.0
C144 C 0.01654 0.25189 0.68064 0.0
C145 C 0.04388 0.25531 0.68972 0.0
C146 C 0.02727 0.22764 0.65318 0.0
C147 C 0.91024 0.22472 0.59246 0.0
C148 C 0.97912 0.23567 0.65299 0.0
C149 C 0.97244 0.36295 0.65196 0.0
C150 C 0.98515 0.3665 0.63347 0.0
C151 C 0.88256 0.15732 0.62591 0.0
C152 C 0.77293 0.2128 0.61117 0.0
C153 C 0.72664 0.22042 0.61555 0.0
C154 C 0.74781 0.25365 0.61712 0.0
C155 C 0.79354 0.24602 0.61255 0.0
C156 C 0.73945 0.20009 0.61245 0.0
C157 C 0.78101 0.26633 0.61548 0.0
C158 C 0.85909 0.19467 0.65907 0.0
C159 C 0.78603 0.191 0.60974 0.0
H160 H 0.084 0.24778 0.68815 0.0
H161 H 1.00224 0.26029 0.68795 0.0
H162 H 0.05026 0.26593 0.70384 0.0
H163 H 0.02091 0.21703 0.63904 0.0
H164 H 0.73863 0.26985 0.61941 0.0
H165 H 0.81927 0.25614 0.61156 0.0
H166 H 0.72346 0.17437 0.61156 0.0
H167 H 0.79709 0.29196 0.61662 0.0
Eu168 Eu 0.6966 0.91814 0.13615 0.0
C169 C 0.69505 0.80118 0.10111 0.0
N170 N 0.68333 0.81928 0.09358 0.0
C171 C 0.70984 0.82329 0.06379 0.0
C172 C 0.71583 0.79444 0.09036 0.0
C173 C 0.68953 0.82958 0.07505 0.0
C174 C 0.72327 0.80588 0.07153 0.0
C175 C 0.69908 0.77165 0.12806 0.0
C176 C 0.68672 0.78996 0.11976 0.0
C177 C 0.72048 0.76561 0.11759 0.0
C178 C 0.72872 0.77686 0.09877 0.0
Eu179 Eu 0.64942 0.82893 0.11338 0.0
N180 N 0.66609 0.79634 0.12961 0.0
C181 C 0.68914 0.75944 0.14654 0.0
C182 C 0.65447 0.78236 0.14703 0.0
C183 C 0.66633 0.76438 0.15592 0.0
H184 H 0.67903 0.84291 0.06905 0.0
H185 H 0.65749 0.75392 0.1699 0.0
H186 H 0.69367 0.90774 0.18431 0.0
H187 H 0.66032 0.9906 0.09464 0.0
H188 H 0.63552 0.78425 0.15406 0.0
H189 H 0.69813 0.74533 0.15343 0.0
H190 H 0.68933 0.96108 0.10095 0.0
H191 H 0.71515 0.8319 0.04919 0.0
H192 H 0.73045 0.75189 0.12383 0.0
H193 H 0.74503 0.77177 0.09082 0.0
H194 H 0.66371 0.91177 0.21181 0.0
H195 H 0.73918 0.80125 0.06282 0.0
H196 H 0.62637 0.99451 0.11999 0.0
N197 N 0.67217 0.92431 0.16405 0.0
C198 C 0.65418 0.93861 0.16151 0.0
C199 C 0.66048 0.91904 0.1977 0.0
C200 C 0.63753 0.94251 0.17697 0.0
C201 C 0.67695 0.9162 0.18199 0.0
C202 C 0.64026 0.93178 0.19513 0.0
N203 N 0.67083 0.94767 0.12915 0.0
C204 C 0.67433 0.96258 0.11195 0.0
C205 C 0.63702 0.96767 0.14073 0.0
C206 C 0.6539 0.9511 0.14364 0.0
C207 C 0.63896 0.98152 0.12277 0.0
C208 C 0.65808 0.97936 0.10841 0.0
H209 H 0.62779 0.93426 0.20736 0.0
H210 H 0.60638 0.9608 0.18563 0.0
H211 H 0.60594 0.98282 0.1539 0.0
O212 O 0.74352 0.95305 0.12437 0.0
O213 O 0.64682 0.89961 0.12226 0.0
O214 O 0.62148 0.84667 0.13033 0.0
O215 O 0.73136 0.95915 0.15313 0.0
O216 O 0.704 0.91325 0.1046 0.0
O217 O 0.65724 0.86958 0.09291 0.0
O218 O 0.61359 0.77797 0.11084 0.0
O219 O 0.70381 0.86084 0.11123 0.0
O220 O 0.71705 0.88507 0.14039 0.0
O221 O 0.61332 0.81174 0.09068 0.0
O222 O 0.63954 0.83376 0.14498 0.0
O223 O 0.68738 0.87651 0.15573 0.0
C224 C 0.62033 0.87252 0.1261 0.0
C225 C 0.76845 0.00599 0.13626 0.0
C226 C 0.81774 0.05739 0.13128 0.0
C227 C 0.79899 0.07191 0.12827 0.0
C228 C 0.75026 0.02111 0.13362 0.0
C229 C 0.7655 0.05389 0.12957 0.0
C230 C 0.80223 0.0243 0.13531 0.0
C231 C 0.68285 0.89845 0.0909 0.0
C232 C 0.7527 0.97114 0.13954 0.0
C233 C 0.61955 0.95784 0.17396 0.0
C234 C 0.61933 0.97043 0.15589 0.0
C235 C 0.72272 0.8707 0.12622 0.0
C236 C 0.56276 0.76675 0.09935 0.0
C237 C 0.51082 0.71829 0.10556 0.0
C238 C 0.49577 0.73684 0.10386 0.0
C239 C 0.54704 0.78463 0.0979 0.0
C240 C 0.5445 0.73357 0.10317 0.0
C241 C 0.51378 0.76967 0.10006 0.0
C242 C 0.65992 0.84999 0.15886 0.0
C243 C 0.59807 0.78231 0.09701 0.0
H244 H 0.81031 0.09734 0.12522 0.0
H245 H 0.72435 0.00766 0.13468 0.0
H246 H 0.75131 0.06538 0.12746 0.0
H247 H 0.8164 0.01272 0.1374 0.0
H248 H 0.46993 0.72592 0.10515 0.0
H249 H 0.56037 0.81017 0.09505 0.0
H250 H 0.55664 0.71983 0.10453 0.0
H251 H 0.50188 0.78358 0.09863 0.0
Eu252 Eu 0.78968 0.7008 0.63382 0.0
C253 C 0.89067 0.68352 0.58383 0.0
N254 N 0.85821 0.66782 0.58154 0.0
C255 C 0.86436 0.67239 0.54745 0.0
C256 C 0.91135 0.6947 0.56782 0.0
C257 C 0.8448 0.66185 0.56373 0.0
C258 C 0.89777 0.68894 0.54949 0.0
C259 C 0.93692 0.70615 0.60508 0.0
C260 C 0.90333 0.68921 0.60229 0.0
C261 C 0.95753 0.7172 0.58915 0.0
C262 C 0.94479 0.71149 0.57059 0.0
Eu263 Eu 0.82743 0.65102 0.60983 0.0
N264 N 0.88281 0.67934 0.6175 0.0
C265 C 0.94881 0.71188 0.62382 0.0
C266 C 0.89427 0.68371 0.63576 0.0
C267 C 0.92738 0.7004 0.63921 0.0
H268 H 0.81899 0.64858 0.56204 0.0
H269 H 0.93636 0.70425 0.65375 0.0
H270 H 0.79754 0.70233 0.68147 0.0
H271 H 0.68111 0.65268 0.58983 0.0
H272 H 0.8781 0.67424 0.64773 0.0
H273 H 0.97444 0.72496 0.62656 0.0
H274 H 0.73928 0.68299 0.59618 0.0
H275 H 0.85367 0.66767 0.53333 0.0
H276 H 0.98339 0.73039 0.59103 0.0
H277 H 0.96103 0.72031 0.55845 0.0
H278 H 0.76292 0.67978 0.71007 0.0
H279 H 0.91285 0.69715 0.53684 0.0
H280 H 0.64281 0.62761 0.61664 0.0
N281 N 0.75859 0.68213 0.66193 0.0
C282 C 0.72615 0.66551 0.65955 0.0
C283 C 0.75228 0.67544 0.69594 0.0
C284 C 0.70542 0.65269 0.67544 0.0
C285 C 0.77186 0.68779 0.67975 0.0
C286 C 0.71891 0.65767 0.69378 0.0
N287 N 0.73435 0.67341 0.62602 0.0
C288 C 0.72303 0.67135 0.60788 0.0
C289 C 0.68013 0.64406 0.63819 0.0
C290 C 0.71366 0.66119 0.64111 0.0
C291 C 0.66842 0.64059 0.61948 0.0
C292 C 0.68997 0.65458 0.60429 0.0
H293 H 0.70378 0.64817 0.70635 0.0
H294 H 0.6557 0.62528 0.68458 0.0
H295 H 0.63358 0.61777 0.65201 0.0
O296 O 0.78888 0.74229 0.62167 0.0
O297 O 0.76108 0.64585 0.63584 0.0
O298 O 0.77361 0.6295 0.6079 0.0
O299 O 0.7955 0.74006 0.65213 0.0
O300 O 0.8005 0.70655 0.6019 0.0
O301 O 0.79357 0.65843 0.59041 0.0
O302 O 0.83379 0.61327 0.62259 0.0
O303 O 0.85612 0.70576 0.60744 0.0
O304 O 0.84382 0.72281 0.63518 0.0
O305 O 0.8213 0.61016 0.5927 0.0
O306 O 0.81607 0.64473 0.64203 0.0
O307 O 0.82517 0.69433 0.65144 0.0
C308 C 0.75437 0.62423 0.62244 0.0
C309 C 0.77161 0.77009 0.642 0.0
C310 C 0.76575 0.8177 0.64369 0.0
C311 C 0.73419 0.79819 0.65058 0.0
C312 C 0.74009 0.75115 0.64873 0.0
C313 C 0.7215 0.76519 0.65296 0.0
C314 C 0.78422 0.80317 0.63933 0.0
C315 C 0.79398 0.68581 0.58795 0.0
C316 C 0.79215 0.75613 0.63822 0.0
C317 C 0.67201 0.63537 0.67255 0.0
C318 C 0.65941 0.63109 0.65399 0.0
C319 C 0.86329 0.72761 0.62076 0.0
C320 C 0.80425 0.56152 0.60966 0.0
C321 C 0.7959 0.50782 0.61554 0.0
C322 C 0.76283 0.4964 0.61787 0.0
C323 C 0.77119 0.5496 0.61187 0.0
C324 C 0.8165 0.54052 0.61132 0.0
C325 C 0.75059 0.51717 0.6159 0.0
C326 C 0.82182 0.66622 0.65543 0.0
C327 C 0.82651 0.59609 0.60706 0.0
H328 H 0.7194 0.80842 0.65447 0.0
H329 H 0.72999 0.72567 0.65089 0.0
H330 H 0.69724 0.7505 0.65831 0.0
H331 H 0.80844 0.81748 0.63381 0.0
H332 H 0.74642 0.47133 0.621 0.0
H333 H 0.76147 0.56546 0.61069 0.0
H334 H 0.84213 0.54979 0.60985 0.0
H335 H 0.72509 0.50815 0.61763 0.0
Eu336 Eu 0.0946 0.78439 0.13883 0.0
C337 C 0.2085 0.89204 0.09487 0.0
N338 N 0.1886 0.86125 0.08926 0.0
C339 C 0.18108 0.87922 0.05876 0.0
C340 C 0.21453 0.91786 0.08272 0.0
C341 C 0.17557 0.8544 0.07135 0.0
C342 C 0.20044 0.91109 0.06451 0.0
C343 C 0.24207 0.92947 0.11943 0.0
C344 C 0.2221 0.89769 0.11305 0.0
C345 C 0.24758 0.95526 0.10752 0.0
C346 C 0.23398 0.94947 0.08919 0.0
Eu347 Eu 0.18096 0.82087 0.11112 0.0
N348 N 0.21609 0.87223 0.12438 0.0
C349 C 0.25627 0.93444 0.13752 0.0
C350 C 0.23185 0.87709 0.14141 0.0
C351 C 0.25152 0.90814 0.14841 0.0
H352 H 0.1608 0.82977 0.06685 0.0
H353 H 0.26343 0.91177 0.1621 0.0
H354 H 0.11301 0.8022 0.18566 0.0
H355 H 0.00878 0.66872 0.10817 0.0
H356 H 0.23016 0.8573 0.14953 0.0
H357 H 0.27166 0.95848 0.14296 0.0
H358 H 0.0431 0.72797 0.10924 0.0
H359 H 0.17038 0.87377 0.04463 0.0
H360 H 0.26259 0.97979 0.11229 0.0
H361 H 0.23858 0.96962 0.08015 0.0
H362 H 0.11288 0.77441 0.21535 0.0
H363 H 0.20446 0.93027 0.05477 0.0
H364 H 1.0082 0.63605 0.13573 0.0
N365 N 0.09242 0.75988 0.16866 0.0
C366 C 0.07679 0.7273 0.16878 0.0
C367 C 0.10302 0.76087 0.2023 0.0
C368 C 0.07476 0.71022 0.18563 0.0
C369 C 0.10367 0.77663 0.18534 0.0
C370 C 0.08901 0.72752 0.20237 0.0
N371 N 0.06201 0.7282 0.1367 0.0
C372 C 0.04291 0.71367 0.12119 0.0
C373 C 0.04162 0.67724 0.15248 0.0
C374 C 0.06059 0.71096 0.15242 0.0
C375 C 0.02322 0.66192 0.13621 0.0
C376 C 0.02348 0.68027 0.12062 0.0
H377 H 0.0881 0.71532 0.21559 0.0
H378 H 0.05592 0.66298 0.19819 0.0
H379 H 0.02674 0.6341 0.16917 0.0
O380 O 0.05682 0.7923 0.12701 0.0
O381 O 0.10864 0.74942 0.12561 0.0
O382 O 0.16328 0.77657 0.12945 0.0
O383 O 0.05903 0.78635 0.1574 0.0
O384 O 0.09662 0.79296 0.10689 0.0
O385 O 0.13688 0.78625 0.09327 0.0
O386 O 0.23147 0.83441 0.10733 0.0
O387 O 0.15043 0.84498 0.10974 0.0
O388 O 0.12968 0.83789 0.13989 0.0
O389 O 0.19561 0.79964 0.08838 0.0
O390 O 0.18026 0.80988 0.14313 0.0
O391 O 0.14036 0.81874 0.15478 0.0
C392 C 0.13614 0.74972 0.12699 0.0
C393 C 1.00768 0.76914 0.14415 0.0
C394 C 0.95411 0.76336 0.14167 0.0
C395 C 0.94058 0.73071 0.1465 0.0
C396 C 0.9935 0.73657 0.14896 0.0
C397 C 0.96015 0.7175 0.15004 0.0
C398 C 0.98794 0.78244 0.14048 0.0
C399 C 0.10762 0.78257 0.093 0.0
C400 C 0.04298 0.78964 0.14347 0.0
C401 C 0.05749 0.67651 0.18544 0.0
C402 C 0.04084 0.66005 0.16892 0.0
C403 C 0.1429 0.85612 0.12482 0.0
C404 C 0.24096 0.79369 0.09572 0.0
C405 C 0.28897 0.78916 0.10161 0.0
C406 C 0.26974 0.75563 0.09991 0.0
C407 C 0.22255 0.76014 0.09408 0.0
C408 C 0.27434 0.80813 0.0993 0.0
C409 C 0.23691 0.74135 0.09616 0.0
C410 C 0.16599 0.81602 0.15734 0.0
C411 C 0.22563 0.81372 0.09377 0.0
H412 H 0.91482 0.7154 0.14796 0.0
H413 H 1.00816 0.72594 0.15213 0.0
H414 H 0.9494 0.69243 0.15387 0.0
H415 H 0.99898 0.80757 0.13666 0.0
H416 H 0.28019 0.74034 0.10127 0.0
H417 H 0.19697 0.74831 0.09126 0.0
H418 H 0.28873 0.83398 0.10064 0.0
H419 H 0.22248 0.71553 0.09486 0.0
Eu420 Eu 0.31875 0.08964 0.63408 0.0
C421 C 0.33249 0.20831 0.58397 0.0
N422 N 0.34913 0.19243 0.58241 0.0
C423 C 0.34706 0.1943 0.54818 0.0
C424 C 0.32216 0.21757 0.56751 0.0
C425 C 0.35677 0.18555 0.56489 0.0
C426 C 0.32963 0.21032 0.54948 0.0
C427 C 0.30754 0.23079 0.60421 0.0
C428 C 0.32526 0.21487 0.60211 0.0
C429 C 0.29728 0.2401 0.58784 0.0
C430 C 0.30457 0.23352 0.56955 0.0
Eu431 Eu 0.36427 0.17864 0.61139 0.0
N432 N 0.33438 0.20441 0.6177 0.0
C433 C 0.30025 0.23645 0.62271 0.0
C434 C 0.32837 0.21087 0.63577 0.0
C435 C 0.31089 0.22662 0.63854 0.0
H436 H 0.37075 0.17369 0.56379 0.0
H437 H 0.30569 0.23122 0.6529 0.0
H438 H 0.35011 0.10292 0.67827 0.0
H439 H 0.32673 0.01713 0.57618 0.0
H440 H 0.33688 0.20382 0.64806 0.0
H441 H 0.28653 0.24845 0.62492 0.0
H442 H 0.30321 0.0447 0.59385 0.0
H443 H 0.35311 0.18878 0.5343 0.0
H444 H 0.28352 0.25224 0.58917 0.0
H445 H 0.29639 0.24076 0.55707 0.0
H446 H 0.38989 0.09483 0.6963 0.0
H447 H 0.32211 0.21702 0.5365 0.0
H448 H 0.37187 0.01324 0.59027 0.0
N449 N 0.35526 0.08196 0.65274 0.0
C450 C 0.36876 0.06622 0.64405 0.0
C451 C 0.38427 0.08684 0.6816 0.0
C452 C 0.39166 0.06131 0.65373 0.0
C453 C 0.36186 0.09143 0.67141 0.0
C454 C 0.39947 0.072 0.67267 0.0
N455 N 0.33773 0.06061 0.61627 0.0
C456 C 0.32425 0.0451 0.59953 0.0
C457 C 0.37356 0.03911 0.61601 0.0
C458 C 0.36015 0.05578 0.62523 0.0
C459 C 0.36225 0.02625 0.59781 0.0
C460 C 0.33692 0.02857 0.58975 0.0
H461 H 0.41697 0.06867 0.68058 0.0
H462 H 0.42388 0.0422 0.65139 0.0
H463 H 0.40776 0.02243 0.61849 0.0
O464 O 0.27446 0.04256 0.62997 0.0
O465 O 0.3734 0.12305 0.63653 0.0
O466 O 0.3871 0.14795 0.6076 0.0
O467 O 0.29338 0.05991 0.65864 0.0
O468 O 0.30813 0.09633 0.60317 0.0
O469 O 0.35666 0.1373 0.59204 0.0
O470 O 0.40267 0.22002 0.62614 0.0
O471 O 0.30951 0.15299 0.61086 0.0
O472 O 0.28992 0.1154 0.63537 0.0
O473 O 0.40434 0.21707 0.59538 0.0
O474 O 0.3684 0.1737 0.64391 0.0
O475 O 0.32157 0.1283 0.65327 0.0
C476 C 0.39338 0.13471 0.62203 0.0
C477 C 0.24573 0.00735 0.65728 0.0
C478 C 0.19241 0.95916 0.65673 0.0
C479 C 0.19874 0.95058 0.67478 0.0
C480 C 0.25126 0.9982 0.67534 0.0
C481 C 0.22791 0.97 0.68399 0.0
C482 C 0.21611 0.98777 0.648 0.0
C483 C 0.32855 0.11135 0.58912 0.0
C484 C 0.27141 0.03697 0.64832 0.0
C485 C 0.40603 0.04597 0.64424 0.0
C486 C 0.39697 0.03486 0.62546 0.0
C487 C 0.28697 0.13466 0.62317 0.0
C488 C 0.45392 0.24638 0.61187 0.0
C489 C 0.50793 0.29225 0.61648 0.0
C490 C 0.52005 0.27108 0.61734 0.0
C491 C 0.46656 0.22574 0.61247 0.0
C492 C 0.47473 0.27968 0.61363 0.0
C493 C 0.49948 0.23806 0.61518 0.0
C494 C 0.34735 0.15579 0.65715 0.0
C495 C 0.41898 0.23344 0.61062 0.0
H496 H 0.18087 0.92899 0.68194 0.0
H497 H 0.27384 0.01273 0.68274 0.0
H498 H 0.23244 0.96317 0.6979 0.0
H499 H 0.21161 0.99461 0.63406 0.0
H500 H 0.5455 0.28015 0.61947 0.0
H501 H 0.45091 0.20017 0.61102 0.0
H502 H 0.465 0.2957 0.61329 0.0
H503 H 0.50905 0.22195 0.61573 0.0
Eu504 Eu 0.70328 0.79278 0.3726 0.0
C505 C 0.69522 0.89445 0.42152 0.0
N506 N 0.68467 0.86376 0.42717 0.0
C507 C 0.71035 0.88206 0.45761 0.0
C508 C 0.71447 0.92038 0.43375 0.0
C509 C 0.69155 0.85713 0.44495 0.0
C510 C 0.72195 0.91383 0.45197 0.0
C511 C 0.69898 0.93167 0.39685 0.0
C512 C 0.68772 0.89994 0.40317 0.0
C513 C 0.71844 0.95755 0.40893 0.0
C514 C 0.72611 0.95193 0.42733 0.0
Eu515 Eu 0.65327 0.82323 0.40503 0.0
N516 N 0.6694 0.87442 0.39156 0.0
C517 C 0.69002 0.93648 0.37865 0.0
C518 C 0.65833 0.87907 0.37455 0.0
C519 C 0.66912 0.91004 0.36761 0.0
H520 H 0.68253 0.83257 0.44934 0.0
H521 H 0.66079 0.91349 0.3539 0.0
H522 H 0.70865 0.81961 0.32777 0.0
H523 H 0.65942 0.67125 0.39909 0.0
H524 H 0.64032 0.85919 0.36646 0.0
H525 H 0.69821 0.96045 0.37327 0.0
H526 H 0.68539 0.73032 0.4014 0.0
H527 H 0.71593 0.87678 0.47168 0.0
H528 H 0.72754 0.98204 0.40421 0.0
H529 H 0.74117 0.97216 0.43646 0.0
H530 H 0.69132 0.79726 0.2952 0.0
H531 H 0.73671 0.93311 0.46177 0.0
H532 H 0.63919 0.64438 0.36783 0.0
N533 N 0.68926 0.77391 0.34098 0.0
C534 C 0.67421 0.74162 0.33858 0.0
C535 C 0.68627 0.78134 0.30728 0.0
C536 C 0.66419 0.72781 0.32028 0.0
C537 C 0.69588 0.79391 0.3257 0.0
C538 C 0.67016 0.74813 0.30456 0.0
N539 N 0.6791 0.73643 0.3719 0.0
C540 C 0.67654 0.71872 0.38774 0.0
C541 C 0.65436 0.68876 0.35245 0.0
C542 C 0.66928 0.72231 0.35445 0.0
C543 C 0.65054 0.67026 0.36877 0.0
C544 C 0.66191 0.68534 0.38646 0.0
H545 H 0.66276 0.73846 0.29027 0.0
H546 H 0.64086 0.68326 0.30431 0.0
H547 H 0.63234 0.64909 0.33246 0.0
O548 O 0.74813 0.7987 0.38451 0.0
O549 O 0.64934 0.7573 0.37582 0.0
O550 O 0.63283 0.76962 0.40425 0.0
O551 O 0.74383 0.80296 0.35401 0.0
O552 O 0.70861 0.79145 0.40485 0.0
O553 O 0.66663 0.79117 0.42198 0.0
O554 O 0.60728 0.82324 0.4028 0.0
O555 O 0.7083 0.84959 0.40522 0.0
O556 O 0.71904 0.84541 0.37399 0.0
O557 O 0.62395 0.81605 0.43042 0.0
O558 O 0.63831 0.80896 0.37377 0.0
O559 O 0.688 0.82652 0.36089 0.0
C560 C 0.62867 0.75019 0.38997 0.0
C561 C 0.77734 0.78298 0.36423 0.0
C562 C 0.82567 0.77794 0.36489 0.0
C563 C 0.80782 0.74758 0.3562 0.0
C564 C 0.76016 0.75256 0.35579 0.0
C565 C 0.77536 0.73501 0.35182 0.0
C566 C 0.81001 0.79553 0.36887 0.0
C567 C 0.69151 0.78653 0.42059 0.0
C568 C 0.76161 0.80208 0.3678 0.0
C569 C 0.64883 0.69432 0.31825 0.0
C570 C 0.64397 0.67486 0.33428 0.0
C571 C 0.7263 0.86185 0.38995 0.0
C572 C 0.57276 0.81478 0.43079 0.0
C573 C 0.52659 0.82339 0.43255 0.0
C574 C 0.51819 0.80716 0.45023 0.0
C575 C 0.56383 0.79907 0.44857 0.0
C576 C 0.55384 0.82672 0.42269 0.0
C577 C 0.53666 0.79516 0.45813 0.0
C578 C 0.65744 0.81672 0.3588 0.0
C579 C 0.60177 0.81828 0.42108 0.0
H580 H 0.81901 0.73362 0.35245 0.0
H581 H 0.73512 0.74251 0.35205 0.0
H582 H 0.762 0.71168 0.34512 0.0
H583 H 0.82304 0.81886 0.37563 0.0
H584 H 0.49706 0.80348 0.45798 0.0
H585 H 0.57774 0.78949 0.45506 0.0
H586 H 0.56073 0.83918 0.40907 0.0
H587 H 0.52987 0.78275 0.47175 0.0
Eu588 Eu 0.92565 0.6939 0.87974 0.0
C589 C 0.80831 0.69078 0.91756 0.0
N590 N 0.82658 0.67853 0.92411 0.0
C591 C 0.83106 0.70259 0.95481 0.0
C592 C 0.80169 0.71058 0.92933 0.0
C593 C 0.83717 0.68325 0.94259 0.0
C594 C 0.81349 0.71654 0.94811 0.0
C595 C 0.77812 0.69678 0.89166 0.0
C596 C 0.79669 0.6839 0.89892 0.0
C597 C 0.77218 0.71718 0.90317 0.0
C598 C 0.78381 0.72394 0.92198 0.0
Eu599 Eu 0.83585 0.6463 0.90268 0.0
N600 N 0.80293 0.66415 0.88804 0.0
C601 C 0.76556 0.68833 0.87315 0.0
C602 C 0.78857 0.65392 0.87058 0.0
C603 C 0.77037 0.66639 0.8627 0.0
H604 H 0.85049 0.67224 0.94784 0.0
H605 H 0.75962 0.65866 0.84868 0.0
H606 H 0.91402 0.69063 0.83173 0.0
H607 H 0.99801 0.65643 0.92027 0.0
H608 H 0.79029 0.63557 0.86274 0.0
H609 H 0.75127 0.69778 0.86705 0.0
H610 H 0.96884 0.68594 0.91434 0.0
H611 H 0.83989 0.7067 0.96939 0.0
H612 H 0.75826 0.72754 0.89775 0.0
H613 H 0.77879 0.7395 0.93074 0.0
H614 H 0.91626 0.65987 0.80416 0.0
H615 H 0.80896 0.73166 0.95759 0.0
H616 H 1.00062 0.62194 0.89486 0.0
N617 N 0.93026 0.66861 0.85176 0.0
C618 C 0.94423 0.65029 0.85407 0.0
C619 C 0.92375 0.65655 0.81818 0.0
C620 C 0.94723 0.6332 0.83856 0.0
C621 C 0.92179 0.6734 0.83394 0.0
C622 C 0.93601 0.6359 0.82056 0.0
N623 N 0.95462 0.6674 0.88625 0.0
C624 C 0.96991 0.67081 0.90328 0.0
C625 C 0.97351 0.63283 0.87444 0.0
C626 C 0.95728 0.65009 0.87174 0.0
C627 C 0.98787 0.63481 0.89222 0.0
C628 C 0.98643 0.65424 0.90662 0.0
H629 H 0.93783 0.62314 0.80828 0.0
H630 H 0.96446 0.60133 0.82966 0.0
H631 H 0.98746 0.601 0.86109 0.0
O632 O 0.96422 0.73859 0.89201 0.0
O633 O 0.90589 0.64383 0.89288 0.0
O634 O 0.85313 0.6194 0.88427 0.0
O635 O 0.9645 0.72928 0.86184 0.0
O636 O 0.92044 0.70079 0.91121 0.0
O637 O 0.87703 0.6538 0.92281 0.0
O638 O 0.78459 0.61131 0.9055 0.0
O639 O 0.86782 0.70034 0.90575 0.0
O640 O 0.89353 0.7158 0.87697 0.0
O641 O 0.81865 0.60764 0.92382 0.0
O642 O 0.84013 0.63928 0.87051 0.0
O643 O 0.88428 0.687 0.8607 0.0
C644 C 0.87916 0.61803 0.88776 0.0
C645 C 0.01486 0.76235 0.87649 0.0
C646 C 0.06873 0.8097 0.87881 0.0
C647 C 0.08188 0.7897 0.87555 0.0
C648 C 0.02859 0.743 0.87344 0.0
C649 C 0.06194 0.75667 0.87304 0.0
C650 C 0.03492 0.79551 0.87937 0.0
C651 C 0.90598 0.67945 0.92488 0.0
C652 C 0.97976 0.74869 0.87591 0.0
C653 C 0.96221 0.61484 0.84136 0.0
C654 C 0.97536 0.6147 0.85926 0.0
C655 C 0.87809 0.72004 0.89114 0.0
C656 C 0.77265 0.55906 0.91367 0.0
C657 C 0.72346 0.50862 0.90626 0.0
C658 C 0.74213 0.49409 0.9031 0.0
C659 C 0.79068 0.54382 0.91059 0.0
C660 C 0.73887 0.54116 0.91174 0.0
C661 C 0.77542 0.51154 0.90545 0.0
C662 C 0.85679 0.66072 0.85715 0.0
C663 C 0.78888 0.5938 0.91797 0.0
H664 H 0.10761 0.79954 0.87454 0.0
H665 H 0.01357 0.71746 0.8711 0.0
H666 H 0.07241 0.74166 0.8705 0.0
H667 H 0.02401 0.81013 0.88203 0.0
H668 H 0.73088 0.46903 0.89907 0.0
H669 H 0.81659 0.55684 0.91202 0.0
H670 H 0.72472 0.5527 0.91407 0.0
H671 H 0.78952 0.50004 0.90326 0.0
Eu672 Eu 0.23867 0.92564 0.38164 0.0
C673 C 0.12891 0.8064 0.42797 0.0
N674 N 0.16121 0.82134 0.43084 0.0
C675 C 0.15339 0.8186 0.46482 0.0
C676 C 0.10749 0.7973 0.44359 0.0
C677 C 0.17371 0.82732 0.44889 0.0
C678 C 0.12014 0.80359 0.46217 0.0
C679 C 0.0839 0.78608 0.40586 0.0
C680 C 0.11723 0.80085 0.4093 0.0
C681 C 0.06251 0.77696 0.4214 0.0
C682 C 0.07427 0.78252 0.4402 0.0
Eu683 Eu 0.19345 0.83548 0.40313 0.0
N684 N 0.1386 0.81113 0.39452 0.0
C685 C 0.0731 0.78133 0.38688 0.0
C686 C 0.12816 0.80547 0.37601 0.0
C687 C 0.09531 0.79084 0.37191 0.0
H688 H 0.19937 0.83853 0.45102 0.0
H689 H 0.08715 0.78688 0.3572 0.0
H690 H 0.261 0.91493 0.338 0.0
H691 H 0.31393 0.99896 0.44114 0.0
H692 H 0.14499 0.81218 0.36437 0.0
H693 H 0.04769 0.77024 0.38364 0.0
H694 H 0.26421 0.97047 0.42218 0.0
H695 H 0.16336 0.82342 0.47913 0.0
H696 H 0.03684 0.76573 0.41902 0.0
H697 H 0.05746 0.77544 0.45203 0.0
H698 H 0.31079 0.92522 0.32129 0.0
H699 H 0.10448 0.79696 0.47455 0.0
H700 H 0.3646 1.00437 0.42865 0.0
N701 N 0.28481 0.93536 0.36422 0.0
C702 C 0.31333 0.95148 0.37369 0.0
C703 C 0.31178 0.93255 0.33605 0.0
C704 C 0.34221 0.95763 0.36479 0.0
C705 C 0.28369 0.92673 0.34548 0.0
C706 C 0.34112 0.94777 0.34579 0.0
N707 N 0.28524 0.95565 0.40058 0.0
C708 C 0.28563 0.97086 0.41715 0.0
C709 C 0.34276 0.97854 0.40245 0.0
C710 C 0.31343 0.96134 0.39246 0.0
C711 C 0.34258 0.99099 0.42053 0.0
C712 C 0.31401 0.98785 0.42768 0.0
H713 H 0.36281 0.95206 0.33847 0.0
H714 H 0.39355 0.97799 0.36855 0.0
H715 H 0.3941 0.99661 0.40141 0.0
O716 O 0.23872 0.97148 0.38549 0.0
O717 O 0.2611 0.89331 0.37952 0.0
O718 O 0.24707 0.86513 0.40754 0.0
O719 O 0.24433 0.95577 0.35713 0.0
O720 O 0.22056 0.9176 0.41245 0.0
O721 O 0.22674 0.87564 0.42334 0.0
O722 O 0.18742 0.79234 0.38918 0.0
O723 O 0.16643 0.86315 0.40438 0.0
O724 O 0.18411 0.89834 0.3788 0.0
O725 O 0.19537 0.7977 0.41967 0.0
O726 O 0.20593 0.84179 0.37109 0.0
O727 O 0.20434 0.88695 0.36181 0.0
C728 C 0.26804 0.88038 0.39396 0.0
C729 C 0.24657 0.00705 0.35806 0.0
C730 C 0.24022 0.05447 0.35793 0.0
C731 C 0.25551 0.06302 0.33996 0.0
C732 C 0.26168 0.01626 0.34008 0.0
C733 C 0.26607 0.04402 0.33114 0.0
C734 C 0.23566 0.02621 0.36695 0.0
C735 C 0.22585 0.90224 0.42632 0.0
C736 C 0.243 0.97773 0.36722 0.0
C737 C 0.37116 0.97335 0.37508 0.0
C738 C 0.37144 0.9838 0.39384 0.0
C739 C 0.16184 0.88003 0.39127 0.0
C740 C 0.2133 0.76673 0.40277 0.0
C741 C 0.22035 0.72025 0.39814 0.0
C742 C 0.25345 0.74119 0.39537 0.0
C743 C 0.24641 0.78715 0.40011 0.0
C744 C 0.20038 0.73326 0.402 0.0
C745 C 0.26637 0.77439 0.39651 0.0
C746 C 0.20393 0.86017 0.35776 0.0
C747 C 0.1917 0.78001 0.40472 0.0
H748 H 0.25895 0.08431 0.33258 0.0
H749 H 0.27039 1.0021 0.33295 0.0
H750 H 0.27774 0.05086 0.31729 0.0
H751 H 0.22401 0.01938 0.38082 0.0
H752 H 0.26935 0.73182 0.39247 0.0
H753 H 0.25669 0.81289 0.40053 0.0
H754 H 0.17472 0.71742 0.40381 0.0
H755 H 0.2919 0.79032 0.39439 0.0
Eu756 Eu 0.31688 0.22528 0.8824 0.0
C757 C 0.32827 0.11817 0.92565 0.0
N758 N 0.34322 0.14983 0.93032 0.0
C759 C 0.3297 0.13656 0.96337 0.0
C760 C 0.31283 0.09435 0.93979 0.0
C761 C 0.34446 0.15935 0.94885 0.0
C762 C 0.31373 0.10393 0.95883 0.0
C763 C 0.3113 0.07693 0.90122 0.0
C764 C 0.32737 0.1096 0.90651 0.0
C765 C 0.2959 0.05318 0.91529 0.0
C766 C 0.29666 0.06186 0.9345 0.0
Eu767 Eu 0.36678 0.18646 0.90488 0.0
N768 N 0.34146 0.13315 0.89305 0.0
C769 C 0.31105 0.06908 0.88191 0.0
C770 C 0.34294 0.12551 0.87441 0.0
C771 C 0.32731 0.09348 0.8685 0.0
H772 H 0.35707 0.18453 0.95248 0.0
H773 H 0.32813 0.08761 0.85362 0.0
H774 H 0.33257 0.23156 0.83535 0.0
H775 H 0.33706 0.31869 0.93427 0.0
H776 H 0.35676 0.14379 0.86407 0.0
H777 H 0.29888 0.04429 0.87726 0.0
H778 H 0.31258 0.26351 0.92192 0.0
H779 H 0.33064 0.14417 0.97805 0.0
H780 H 0.28324 0.028 0.91144 0.0
H781 H 0.28454 0.04323 0.94517 0.0
H782 H 0.36292 0.27417 0.81148 0.0
H783 H 0.30216 0.08635 0.9701 0.0
H784 H 0.37219 0.3644 0.91325 0.0
N785 N 0.34323 0.26417 0.85834 0.0
C786 C 0.35698 0.29536 0.86392 0.0
C787 C 0.36158 0.28044 0.8262 0.0
C788 C 0.37429 0.32045 0.85079 0.0
C789 C 0.34468 0.25636 0.83976 0.0
C790 C 0.37663 0.31262 0.83176 0.0
N791 N 0.33717 0.27731 0.8953 0.0
C792 C 0.32958 0.28298 0.91313 0.0
C793 C 0.36756 0.33418 0.88909 0.0
C794 C 0.35401 0.3021 0.88295 0.0
C795 C 0.36226 0.3401 0.90799 0.0
C796 C 0.34264 0.31437 0.91994 0.0
H797 H 0.38974 0.33121 0.82123 0.0
H798 H 0.40218 0.37202 0.84715 0.0
H799 H 0.39603 0.38405 0.88062 0.0
O800 O 0.27102 0.22023 0.89165 0.0
O801 O 0.37211 0.25397 0.8808 0.0
O802 O 0.3886 0.23998 0.90817 0.0
O803 O 0.28217 0.2233 0.86149 0.0
O804 O 0.31072 0.2121 0.91407 0.0
O805 O 0.35944 0.21948 0.92512 0.0
O806 O 0.4083 0.18445 0.89386 0.0
O807 O 0.31209 0.15934 0.90733 0.0
O808 O 0.29552 0.17137 0.87943 0.0
O809 O 0.40337 0.18821 0.9243 0.0
O810 O 0.3741 0.20029 0.87297 0.0
O811 O 0.32475 0.19232 0.86328 0.0
C812 C 0.39311 0.26063 0.89461 0.0
C813 C 0.24766 0.24241 0.87146 0.0
C814 C 0.20004 0.24837 0.87073 0.0
C815 C 0.21939 0.2802 0.86449 0.0
C816 C 0.2666 0.27432 0.86541 0.0
C817 C 0.25247 0.29309 0.86199 0.0
C818 C 0.21448 0.22964 0.87432 0.0
C819 C 0.33222 0.21949 0.92772 0.0
C820 C 0.2618 0.22177 0.87434 0.0
C821 C 0.38865 0.35241 0.85702 0.0
C822 C 0.38524 0.35926 0.87611 0.0
C823 C 0.29135 0.15125 0.89331 0.0
C824 C 0.45615 0.21028 0.91177 0.0
C825 C 0.51151 0.22085 0.90919 0.0
C826 C 0.52253 0.25348 0.91301 0.0
C827 C 0.46774 0.24288 0.9154 0.0
C828 C 0.47803 0.19938 0.90864 0.0
C829 C 0.50078 0.26432 0.91603 0.0
C830 C 0.35288 0.19535 0.85947 0.0
C831 C 0.42138 0.18745 0.91061 0.0
H832 H 0.20895 0.2952 0.86173 0.0
H833 H 0.29217 0.28462 0.86315 0.0
H834 H 0.26718 0.31768 0.85726 0.0
H835 H 0.19978 0.20492 0.8789 0.0
H836 H 0.548 0.27064 0.91388 0.0
H837 H 0.45124 0.25169 0.91772 0.0
H838 H 0.46889 0.17426 0.90544 0.0
H839 H 0.5096 0.28947 0.91889 0.0
Eu840 Eu 0.09327 0.3127 0.38485 0.0
C841 C 0.21649 0.33005 0.42928 0.0
N842 N 0.20047 0.34635 0.43201 0.0
C843 C 0.20542 0.34388 0.46602 0.0
C844 C 0.22727 0.31961 0.445 0.0
C845 C 0.19507 0.35365 0.45 0.0
C846 C 0.22152 0.32673 0.46352 0.0
C847 C 0.23732 0.30555 0.40741 0.0
C848 C 0.22146 0.32309 0.41067 0.0
C849 C 0.24814 0.29521 0.42305 0.0
C850 C 0.24316 0.30223 0.44178 0.0
Eu851 Eu 0.18398 0.36167 0.40412 0.0
N852 N 0.20958 0.33229 0.39581 0.0
C853 C 0.24138 0.29851 0.38852 0.0
C854 C 0.21454 0.32655 0.37735 0.0
C855 C 0.23014 0.30925 0.37343 0.0
H856 H 0.18316 0.36741 0.45204 0.0
H857 H 0.23357 0.3043 0.35877 0.0
H858 H 0.09923 0.33594 0.33915 0.0
H859 H 0.02311 0.32362 0.44319 0.0
H860 H 0.20661 0.33526 0.3656 0.0
H861 H 0.25327 0.28493 0.38543 0.0
H862 H 0.05188 0.30066 0.42622 0.0
H863 H 0.20105 0.34967 0.48028 0.0
H864 H 0.26023 0.28158 0.42082 0.0
H865 H 0.25154 0.29397 0.4537 0.0
H866 H 0.08612 0.37058 0.31941 0.0
H867 H 0.22943 0.31913 0.47598 0.0
H868 H 0.01399 0.36416 0.42713 0.0
N869 N 0.07994 0.34353 0.36465 0.0
C870 C 0.06387 0.35699 0.37293 0.0
C871 C 0.07987 0.36706 0.33446 0.0
C872 C 0.0559 0.37686 0.36226 0.0
C873 C 0.08736 0.34759 0.34562 0.0
C874 C 0.06431 0.38197 0.34284 0.0
N875 N 0.06345 0.33143 0.4021 0.0
C876 C 0.05008 0.31992 0.41962 0.0
C877 C 0.03823 0.36391 0.40103 0.0
C878 C 0.05575 0.35106 0.39223 0.0
C879 C 0.02758 0.3549 0.41988 0.0
C880 C 0.03285 0.33217 0.42904 0.0
H881 H 0.05862 0.39711 0.33415 0.0
H882 H 0.03363 0.40638 0.36332 0.0
H883 H 0.01776 0.39469 0.39717 0.0
O884 O 0.05223 0.26647 0.39303 0.0
O885 O 0.123 0.36731 0.38079 0.0
O886 O 0.15312 0.38437 0.40804 0.0
O887 O 0.05834 0.28151 0.36347 0.0
O888 O 0.10383 0.30678 0.41593 0.0
O889 O 0.14527 0.35637 0.42507 0.0
O890 O 0.22561 0.3989 0.38896 0.0
O891 O 0.15779 0.30715 0.40688 0.0
O892 O 0.12309 0.28839 0.38128 0.0
O893 O 0.22225 0.40262 0.41958 0.0
O894 O 0.17572 0.36512 0.37195 0.0
O895 O 0.13056 0.31727 0.36363 0.0
C896 C 0.13719 0.38876 0.39432 0.0
C897 C 1.00515 0.24768 0.37463 0.0
C898 C 0.95036 0.20199 0.37629 0.0
C899 C 0.93857 0.22292 0.37241 0.0
C900 C 0.99291 0.26813 0.37086 0.0
C901 C 0.95974 0.25573 0.36978 0.0
C902 C 0.98388 0.21481 0.37747 0.0
C903 C 0.11914 0.32895 0.42903 0.0
C904 C 0.03994 0.25997 0.37591 0.0
C905 C 0.03979 0.39087 0.37126 0.0
C906 C 0.0309 0.38434 0.39057 0.0
C907 C 0.14094 0.28482 0.39419 0.0
C908 C 0.25126 0.45083 0.40187 0.0
C909 C 0.2972 0.50453 0.397 0.0
C910 C 0.2759 0.51617 0.39413 0.0
C911 C 0.23037 0.46289 0.39916 0.0
C912 C 0.28464 0.47176 0.401 0.0
C913 C 0.24268 0.49546 0.39537 0.0
C914 C 0.15726 0.34363 0.35908 0.0
C915 C 0.23873 0.41625 0.40416 0.0
H916 H 0.91301 0.21393 0.37109 0.0
H917 H 0.0089 0.29355 0.3687 0.0
H918 H 0.95039 0.27157 0.36677 0.0
H919 H 0.99357 0.19932 0.38077 0.0
H920 H 0.28498 0.54133 0.39111 0.0
H921 H 0.20465 0.44703 0.3997 0.0
H922 H 0.3008 0.46238 0.40288 0.0
H923 H 0.22642 0.50461 0.39322 0.0
Eu924 Eu 0.78573 0.08337 0.88663 0.0
C925 C 0.90123 0.20435 0.92159 0.0
N926 N 0.87031 0.18851 0.92796 0.0
C927 C 0.88822 0.18979 0.9601 0.0
C928 C 0.92699 0.21303 0.93438 0.0
C929 C 0.86342 0.18145 0.94689 0.0
C930 C 0.92013 0.20558 0.95383 0.0
C931 C 0.93889 0.22606 0.89504 0.0
C932 C 0.90703 0.21056 0.90204 0.0
C933 C 0.96457 0.23482 0.90778 0.0
C934 C 0.95864 0.22834 0.92738 0.0
Eu935 Eu 0.8303 0.17584 0.90472 0.0
N936 N 0.88162 0.20084 0.88987 0.0
C937 C 0.94404 0.23227 0.87541 0.0
C938 C 0.88676 0.20862 0.8709 0.0
C939 C 0.91789 0.22385 0.86334 0.0
H940 H 0.83882 0.1696 0.95182 0.0
H941 H 0.92172 0.22949 0.84822 0.0
H942 H 0.7673 0.08795 0.84098 0.0
H943 H 0.70698 0.01025 0.94497 0.0
H944 H 0.86723 0.20411 0.86152 0.0
H945 H 0.96812 0.24404 0.86948 0.0
H946 H 0.75851 0.04204 0.92807 0.0
H947 H 0.88272 0.18407 0.97511 0.0
H948 H 0.98913 0.24652 0.9026 0.0
H949 H 0.97872 0.23507 0.93699 0.0
H950 H 0.71878 0.07216 0.82131 0.0
H951 H 0.93926 0.21184 0.9641 0.0
H952 H 0.65609 0.99765 0.92892 0.0
N953 N 0.74094 0.06788 0.86654 0.0
C954 C 0.71151 0.05041 0.87486 0.0
C955 C 0.71643 0.06607 0.83637 0.0
C956 C 0.68322 0.0407 0.86421 0.0
C957 C 0.74384 0.07515 0.84751 0.0
C958 C 0.68599 0.04899 0.84479 0.0
N959 N 0.73763 0.05151 0.90392 0.0
C960 C 0.73674 0.03856 0.92144 0.0
C961 C 0.67967 0.02299 0.90288 0.0
C962 C 0.70986 0.04224 0.89411 0.0
C963 C 0.67879 0.01251 0.92168 0.0
C964 C 0.70745 0.01971 0.93083 0.0
H965 H 0.6648 0.04196 0.83611 0.0
H966 H 0.63115 0.01529 0.86526 0.0
H967 H 0.62803 0.99945 0.89903 0.0
O968 O 0.79386 0.04426 0.89517 0.0
O969 O 0.75815 0.11056 0.88327 0.0
O970 O 0.77632 0.14795 0.90767 0.0
O971 O 0.78325 0.04857 0.86565 0.0
O972 O 0.8013 0.09551 0.91773 0.0
O973 O 0.79617 0.13909 0.92644 0.0
O974 O 0.83519 0.22069 0.89396 0.0
O975 O 0.85429 0.14561 0.90845 0.0
O976 O 0.83942 0.1146 0.88156 0.0
O977 O 0.83242 0.21222 0.92439 0.0
O978 O 0.81385 0.16617 0.87332 0.0
O979 O 0.81688 0.12122 0.86517 0.0
C980 C 0.75502 0.13059 0.89466 0.0
C981 C 0.76658 0.99636 0.87727 0.0
C982 C 0.75979 0.94247 0.87841 0.0
C983 C 0.7267 0.92961 0.87491 0.0
C984 C 0.73355 0.98294 0.87391 0.0
C985 C 0.71376 0.94973 0.87278 0.0
C986 C 0.77954 0.9761 0.87963 0.0
C987 C 0.79347 0.11097 0.93019 0.0
C988 C 0.78797 0.03137 0.87819 0.0
C989 C 0.65318 0.02283 0.87318 0.0
C990 C 0.65141 0.01393 0.89245 0.0
C991 C 0.86092 0.13151 0.8946 0.0
C992 C 0.81209 0.24465 0.91255 0.0
C993 C 0.80308 0.29005 0.90903 0.0
C994 C 0.77056 0.26972 0.91383 0.0
C995 C 0.77966 0.22489 0.91748 0.0
C996 C 0.82379 0.27728 0.9085 0.0
C997 C 0.75906 0.23744 0.91814 0.0
C998 C 0.81523 0.14677 0.86043 0.0
C999 C 0.83368 0.23136 0.91083 0.0
H1000 H 0.71081 0.90399 0.8735 0.0
H1001 H 0.72309 0.99808 0.87202 0.0
H1002 H 0.68831 0.93953 0.87005 0.0
H1003 H 0.80501 0.98663 0.88255 0.0
H1004 H 0.75409 0.2789 0.91448 0.0
H1005 H 0.77024 0.19974 0.92069 0.0
H1006 H 0.84881 0.29251 0.90454 0.0
H1007 H 0.73406 0.22206 0.92195 0.0
C1008 C 0.16352 0.9071 0.1432 0.0
C1009 C 0.15278 0.89046 0.12582 0.0
C1010 C 0.17435 0.93994 0.1441 0.0
C1011 C 0.20402 0.01262 0.11373 0.0
H1012 H 0.18489 0.04711 0.1588 0.0
C1013 C 0.21397 0.13851 0.14302 0.0
C1014 C 0.2449 0.16082 0.13636 0.0
C1015 C 0.20201 0.10552 0.14107 0.0
C1016 C 0.19018 0.03792 0.146 0.0
H1017 H 0.14401 0.8947 0.09587 0.0
H1018 H 0.16225 0.95205 0.09744 0.0
H1019 H 0.16474 0.98978 0.15655 0.0
H1020 H 0.2871 0.1656 0.12193 0.0
H1021 H 0.26673 0.10825 0.11911 0.0
H1022 H 0.22874 0.0607 0.10296 0.0
C1023 C 0.16306 0.93996 0.11032 0.0
C1024 C 0.17898 1.005 0.14483 0.0
C1025 C 0.15244 0.90711 0.10941 0.0
C1026 C 0.26337 0.1492 0.12748 0.0
C1027 C 0.25147 0.11621 0.12562 0.0
C1028 C 0.21509 0.04556 0.11486 0.0
C1029 C 0.17427 0.95685 0.12768 0.0
C1030 C 0.18584 0.9919 0.12872 0.0
C1031 C 0.22069 0.09389 0.13248 0.0
C1032 C 0.2084 0.05869 0.13104 0.0
H1033 H 0.16435 0.89488 0.15602 0.0
H1034 H 0.18332 0.95219 0.15763 0.0
H1035 H 0.2101 1.00348 0.10121 0.0
H1036 H 0.19915 0.14647 0.15011 0.0
H1037 H 0.17803 0.08913 0.14629 0.0
C1038 C 0.24985 0.15145 0.6088 0.0
C1039 C 0.25817 0.13842 0.62432 0.0
C1040 C 0.22529 0.15884 0.61055 0.0
C1041 C 0.15464 0.14393 0.63989 0.0
H1042 H 0.17363 0.22725 0.62083 0.0
C1043 C 0.10961 0.24034 0.65357 0.0
C1044 C 0.07603 0.22025 0.65333 0.0
C1045 C 0.12989 0.22908 0.64748 0.0
C1046 C 0.1679 0.20388 0.62621 0.0
H1047 H 0.24607 0.12154 0.65357 0.0
H1048 H 0.2029 0.13413 0.65658 0.0
H1049 H 0.21213 0.20902 0.61574 0.0
H1050 H 0.03735 0.17285 0.6459 0.0
H1051 H 0.0729 0.15302 0.63515 0.0
H1052 H 0.11081 0.13927 0.65087 0.0
C1053 C 0.21545 0.13867 0.64304 0.0
C1054 C 0.18986 0.19329 0.62314 0.0
C1055 C 0.24021 0.13144 0.64132 0.0
C1056 C 0.06313 0.18893 0.64615 0.0
C1057 C 0.08349 0.1775 0.64019 0.0
C1058 C 0.13256 0.15447 0.64288 0.0
C1059 C 0.20812 0.15306 0.6278 0.0
C1060 C 0.18371 0.16334 0.63014 0.0
C1061 C 0.11715 0.19733 0.64107 0.0
C1062 C 0.13913 0.18479 0.63631 0.0
H1063 H 0.26278 0.15655 0.59536 0.0
H1064 H 0.21994 0.16937 0.59841 0.0
H1065 H 0.149 0.12061 0.64531 0.0
H1066 H 0.12026 0.26466 0.65894 0.0
H1067 H 0.15563 0.24495 0.64852 0.0
C1068 C 0.87254 0.07709 0.14547 0.0
C1069 C 0.85337 0.07699 0.13025 0.0
C1070 C 0.906 0.09727 0.145 0.0
C1071 C 0.97463 0.14051 0.11276 0.0
H1072 H 0.01566 0.19901 0.15513 0.0
C1073 C 0.1053 0.24568 0.10734 0.0
C1074 C 0.12409 0.25697 0.12398 0.0
C1075 C 0.07286 0.222 0.10839 0.0
C1076 C 1.00488 0.18246 0.14331 0.0
H1077 H 0.85415 0.09711 0.10238 0.0
H1078 H 0.9127 0.1317 0.10131 0.0
H1079 H 0.95828 0.1602 0.15652 0.0
H1080 H 0.12406 0.25089 0.15472 0.0
H1081 H 0.06796 0.20839 0.15653 0.0
H1082 H 0.02103 0.16188 0.09967 0.0
C1083 C 0.90183 0.11646 0.11368 0.0
C1084 C 0.97187 0.16031 0.14411 0.0
C1085 C 0.86837 0.0968 0.11433 0.0
C1086 C 0.11017 0.24283 0.14162 0.0
C1087 C 0.07779 0.21874 0.14267 0.0
C1088 C 1.00774 0.16222 0.1121 0.0
C1089 C 0.92097 0.11721 0.12911 0.0
C1090 C 0.95633 0.13938 0.12874 0.0
C1091 C 0.05845 0.20831 0.1261 0.0
C1092 C 0.02336 0.18387 0.12726 0.0
H1093 H 0.86156 0.06218 0.15796 0.0
H1094 H 0.9202 0.09729 0.15704 0.0
H1095 H 0.96331 0.12442 0.10079 0.0
H1096 H 0.11553 0.25562 0.09347 0.0
H1097 H 0.05897 0.21515 0.09529 0.0
C1098 C 0.75988 0.86553 0.63542 0.0
C1099 C 0.77943 0.85304 0.64132 0.0
C1100 C 0.77248 0.89862 0.63361 0.0
C1101 C 0.84263 0.97726 0.64801 0.0
H1102 H 0.8095 0.00973 0.60869 0.0
C1103 C 0.87454 0.11022 0.64538 0.0
C1104 C 0.87645 0.1241 0.6274 0.0
C1105 C 0.86434 0.07752 0.6469 0.0
C1106 C 0.81943 1.00121 0.6196 0.0
H1107 H 0.82789 0.86615 0.64997 0.0
H1108 H 0.85015 0.92349 0.64585 0.0
H1109 H 0.78914 0.95246 0.61106 0.0
H1110 H 0.87079 0.11517 0.59685 0.0
H1111 H 0.85425 0.05854 0.59937 0.0
H1112 H 0.87386 0.02617 0.65603 0.0
C1113 C 0.82479 0.90776 0.64308 0.0
C1114 C 0.80729 0.96816 0.62118 0.0
C1115 C 0.81209 0.87467 0.64513 0.0
C1116 C 0.86937 0.10503 0.61092 0.0
C1117 C 0.85956 0.07247 0.61241 0.0
C1118 C 0.85507 0.01035 0.64627 0.0
C1119 C 0.80515 0.92026 0.63738 0.0
C1120 C 0.81857 0.95564 0.63547 0.0
C1121 C 0.85626 0.05807 0.63044 0.0
C1122 C 0.84357 0.02281 0.63208 0.0
H1123 H 0.73474 0.84974 0.63208 0.0
H1124 H 0.75639 0.90719 0.62946 0.0
H1125 H 0.85167 0.96866 0.65939 0.0
H1126 H 0.87944 0.12427 0.65834 0.0
H1127 H 0.86171 0.06731 0.66105 0.0
C1128 C 0.90284 0.75912 0.12926 0.0
C1129 C 0.93278 0.77726 0.13839 0.0
C1130 C 0.88175 0.77105 0.12734 0.0
C1131 C 0.84654 0.80643 0.11691 0.0
H1132 H 0.84061 0.85664 0.15843 0.0
C1133 C 0.76608 0.86373 0.11122 0.0
C1134 C 0.74918 0.86354 0.12766 0.0
C1135 C 0.78969 0.85489 0.11229 0.0
C1136 C 0.84172 0.84243 0.14676 0.0
H1137 H 0.96408 0.82274 0.1523 0.0
H1138 H 0.92786 0.84401 0.14833 0.0
H1139 H 0.87895 0.83775 0.1605 0.0
H1140 H 0.7438 0.85431 0.15816 0.0
H1141 H 0.78458 0.83826 0.16007 0.0
H1142 H 0.80839 0.80997 0.10354 0.0
C1143 C 0.92034 0.82016 0.14302 0.0
C1144 C 0.86413 0.83196 0.14781 0.0
C1145 C 0.94139 0.80812 0.14505 0.0
C1146 C 0.75676 0.85498 0.1453 0.0
C1147 C 0.78017 0.84583 0.14636 0.0
C1148 C 0.82399 0.8167 0.11592 0.0
C1149 C 0.89003 0.80164 0.13433 0.0
C1150 C 0.86683 0.81372 0.13293 0.0
C1151 C 0.79685 0.84545 0.12984 0.0
C1152 C 0.82121 0.83482 0.13084 0.0
H1153 H 0.8955 0.73548 0.12365 0.0
H1154 H 0.85858 0.75584 0.12075 0.0
H1155 H 0.84809 0.79282 0.10504 0.0
H1156 H 0.76083 0.87049 0.09747 0.0
H1157 H 0.80232 0.85546 0.09932 0.0
C1158 C 0.90902 0.7728 0.63839 0.0
C1159 C 0.89649 0.75551 0.62132 0.0
C1160 C 0.94113 0.79735 0.63943 0.0
C1161 C 0.01997 0.8243 0.61725 0.0
H1162 H 0.04512 0.90239 0.64584 0.0
C1163 C 0.14193 0.95089 0.64065 0.0
C1164 C 0.1607 0.93817 0.64755 0.0
C1165 C 0.11027 0.93045 0.63453 0.0
C1166 C 0.03854 0.88094 0.63759 0.0
H1167 H 0.90752 0.75163 0.59166 0.0
H1168 H 0.96372 0.79413 0.59357 0.0
H1169 H 0.98818 0.86389 0.64096 0.0
H1170 H 0.16173 0.89425 0.65238 0.0
H1171 H 0.10676 0.85872 0.6417 0.0
H1172 H 0.07032 0.84115 0.61412 0.0
C1173 C 0.94877 0.78844 0.60621 0.0
C1174 C 1.00589 0.8587 0.63498 0.0
C1175 C 0.91655 0.76409 0.60513 0.0
C1176 C 0.14775 0.90474 0.64727 0.0
C1177 C 0.1163 0.88439 0.64101 0.0
C1178 C 0.05263 0.84646 0.61997 0.0
C1179 C 0.96153 0.80517 0.62344 0.0
C1180 C 0.9962 0.82991 0.625 0.0
C1181 C 0.09689 0.89691 0.63497 0.0
C1182 C 0.06232 0.87486 0.6304 0.0
H1183 H 0.8943 0.7668 0.65117 0.0
H1184 H 0.95025 0.80951 0.65297 0.0
H1185 H 0.01334 0.80227 0.60962 0.0
H1186 H 0.15122 0.97654 0.64079 0.0
H1187 H 0.09605 0.94088 0.62977 0.0
C1188 C 0.11668 0.87674 0.37153 0.0
C1189 C 0.12904 0.87535 0.38949 0.0
C1190 C 0.08439 0.86844 0.36959 0.0
C1191 C 1.0056 0.82354 0.39494 0.0
H1192 H 0.97853 0.86309 0.3565 0.0
C1193 C 0.88301 0.82393 0.36731 0.0
C1194 C 0.86051 0.79106 0.36942 0.0
C1195 C 0.91582 0.8357 0.37066 0.0
C1196 C 0.98558 0.85203 0.36752 0.0
H1197 H 0.11774 0.8656 0.41964 0.0
H1198 H 0.06198 0.85236 0.41648 0.0
H1199 H 0.03548 0.88211 0.36089 0.0
H1200 H 0.85528 0.74512 0.37743 0.0
H1201 H 0.9121 0.76517 0.38228 0.0
H1202 H 0.95593 0.79432 0.40212 0.0
C1203 C 0.07671 0.85881 0.40371 0.0
C1204 C 0.01837 0.86264 0.36983 0.0
C1205 C 0.10883 0.86672 0.40558 0.0
C1206 C 0.87178 0.77047 0.37528 0.0
C1207 C 0.90453 0.78214 0.3784 0.0
C1208 C 0.97289 0.81322 0.3928 0.0
C1209 C 0.0638 0.85896 0.38563 0.0
C1210 C 0.02889 0.84841 0.38349 0.0
C1211 C 0.92714 0.81492 0.37606 0.0
C1212 C 0.96229 0.82706 0.37893 0.0
H1213 H 0.13158 0.8829 0.35882 0.0
H1214 H 0.07538 0.86843 0.35539 0.0
H1215 H 0.01251 0.81152 0.40542 0.0
H1216 H 0.87544 0.84057 0.36266 0.0
H1217 H 0.93228 0.86117 0.36899 0.0
C1218 C 0.08105 0.8669 0.87428 0.0
C1219 C 0.09024 0.84518 0.88116 0.0
C1220 C 0.10156 0.90007 0.87606 0.0
C1221 C 0.17599 0.96149 0.90139 0.0
H1222 H 0.17499 0.01734 0.86179 0.0
C1223 C 0.25194 0.09921 0.90855 0.0
C1224 C 0.26549 0.11736 0.8919 0.0
C1225 C 0.22953 0.06643 0.90737 0.0
C1226 C 0.17597 1.00217 0.8729 0.0
H1227 H 0.12844 0.842 0.89577 0.0
H1228 H 0.16469 0.89934 0.89779 0.0
H1229 H 0.13931 0.95986 0.8593 0.0
H1230 H 0.26635 0.1156 0.86094 0.0
H1231 H 0.2281 0.05827 0.85879 0.0
H1232 H 0.21397 1.0036 0.91439 0.0
C1233 C 0.14127 0.89088 0.89144 0.0
C1234 C 0.15495 0.96903 0.87165 0.0
C1235 C 0.12055 0.85774 0.88995 0.0
C1236 C 0.25586 0.10225 0.874 0.0
C1237 C 0.23386 0.06932 0.87281 0.0
C1238 C 0.19737 0.99455 0.90247 0.0
C1239 C 0.13215 0.91263 0.8845 0.0
C1240 C 0.15453 0.94813 0.8859 0.0
C1241 C 0.22048 0.05083 0.88949 0.0
C1242 C 0.19762 0.01546 0.88829 0.0
H1243 H 0.05819 0.85842 0.86718 0.0
H1244 H 0.09325 0.91581 0.87083 0.0
H1245 H 0.17623 0.94648 0.91285 0.0
H1246 H 0.25891 0.11033 0.92254 0.0
H1247 H 0.2194 0.05337 0.92055 0.0
C1248 C 0.15821 0.24837 0.40891 0.0
C1249 C 0.14571 0.25669 0.39313 0.0
C1250 C 0.16601 0.22411 0.40741 0.0
C1251 C 0.1525 0.15407 0.3782 0.0
H1252 H 0.23485 0.17241 0.39891 0.0
C1253 C 0.24933 0.10876 0.36688 0.0
C1254 C 0.22898 0.07529 0.36672 0.0
C1255 C 0.2379 0.129 0.37267 0.0
C1256 C 0.21176 0.16687 0.39306 0.0
H1257 H 0.13037 0.24508 0.3636 0.0
H1258 H 0.14373 0.20249 0.361 0.0
H1259 H 0.21656 0.21095 0.40334 0.0
H1260 H 0.18092 0.03674 0.37317 0.0
H1261 H 0.1608 0.07222 0.38344 0.0
H1262 H 0.14821 0.11043 0.3674 0.0
C1263 C 0.1475 0.21476 0.37457 0.0
C1264 C 0.20113 0.18885 0.39575 0.0
C1265 C 0.13984 0.23919 0.37605 0.0
C1266 C 0.1972 0.06243 0.37324 0.0
C1267 C 0.18562 0.08276 0.37891 0.0
C1268 C 0.16309 0.132 0.37558 0.0
C1269 C 0.16119 0.20728 0.39014 0.0
C1270 C 0.17153 0.18293 0.38816 0.0
C1271 C 0.20572 0.11634 0.37839 0.0
C1272 C 0.19307 0.13833 0.38274 0.0
H1273 H 0.16255 0.26103 0.42238 0.0
H1274 H 0.17604 0.21867 0.41978 0.0
H1275 H 0.12945 0.14861 0.37232 0.0
H1276 H 0.27401 0.11937 0.36204 0.0
H1277 H 0.25401 0.15468 0.37192 0.0
C1278 C 0.14652 0.238 0.85866 0.0
C1279 C 0.16484 0.23471 0.87321 0.0
C1280 C 0.11344 0.22549 0.86098 0.0
C1281 C 0.04346 0.16901 0.89139 0.0
H1282 H 1.00353 0.21342 0.86799 0.0
C1283 C 0.91395 0.14352 0.90816 0.0
C1284 C 0.89454 0.13909 0.89211 0.0
C1285 C 0.9466 0.15364 0.9059 0.0
C1286 C 0.01437 0.20068 0.87449 0.0
H1287 H 0.16299 0.21605 0.90166 0.0
H1288 H 0.10552 0.19528 0.90611 0.0
H1289 H 0.0612 0.2349 0.86438 0.0
H1290 H 0.89382 0.14152 0.86116 0.0
H1291 H 0.95117 0.15993 0.85722 0.0
H1292 H 0.99644 0.13548 0.90206 0.0
C1293 C 0.11634 0.20661 0.89261 0.0
C1294 C 0.04744 0.21285 0.87236 0.0
C1295 C 0.14937 0.21866 0.89014 0.0
C1296 C 0.9082 0.14441 0.87374 0.0
C1297 C 0.94101 0.15521 0.87151 0.0
C1298 C 0.01047 0.15718 0.89379 0.0
C1299 C 0.09782 0.20983 0.87806 0.0
C1300 C 0.06251 0.19708 0.88065 0.0
C1301 C 0.96056 0.16011 0.88757 0.0
C1302 C 0.99558 0.17276 0.88523 0.0
H1303 H 0.15776 0.24991 0.84535 0.0
H1304 H 0.1001 0.22786 0.84922 0.0
H1305 H 0.05386 0.15577 0.89774 0.0
H1306 H 0.90396 0.13968 0.92247 0.0
H1307 H 0.96119 0.15745 0.91852 0.0
C1308 C 0.89824 0.15548 0.38829 0.0
C1309 C 0.92788 0.16688 0.37883 0.0
C1310 C 0.87695 0.12252 0.39028 0.0
C1311 C 0.85859 0.04428 0.36937 0.0
H1312 H 0.80618 0.00937 0.41494 0.0
C1313 C 0.7552 0.91364 0.37227 0.0
C1314 C 0.75019 0.89644 0.38937 0.0
C1315 C 0.77678 0.94657 0.37163 0.0
C1316 C 0.82089 0.01869 0.4022 0.0
H1317 H 0.95818 0.15218 0.36408 0.0
H1318 H 0.92182 0.09504 0.36821 0.0
H1319 H 0.84471 0.06675 0.41302 0.0
H1320 H 0.76401 0.89995 0.41915 0.0
H1321 H 0.80255 0.95763 0.41797 0.0
H1322 H 0.83559 0.99626 0.35876 0.0
C1323 C 0.91466 0.11152 0.37378 0.0
C1324 C 0.84269 0.05168 0.40098 0.0
C1325 C 0.9358 0.14442 0.37165 0.0
C1326 C 0.76743 0.91274 0.4058 0.0
C1327 C 0.7893 0.94576 0.40513 0.0
C1328 C 0.83702 0.01137 0.37064 0.0
C1329 C 0.88481 0.10008 0.38297 0.0
C1330 C 0.86179 0.06492 0.38452 0.0
C1331 C 0.79427 0.96308 0.388 0.0
C1332 C 0.81775 0.99813 0.38701 0.0
H1333 H 0.89147 0.17202 0.39424 0.0
H1334 H 0.85408 0.11467 0.39728 0.0
H1335 H 0.87248 0.05356 0.35635 0.0
H1336 H 0.74183 0.90179 0.35945 0.0
H1337 H 0.77941 0.95918 0.3583 0.0
C1338 C 0.8596 0.75174 0.87221 0.0
C1339 C 0.86934 0.74527 0.88977 0.0
C1340 C 0.84876 0.77378 0.87119 0.0
C1341 C 0.81734 0.81526 0.90178 0.0
H1342 H 0.83481 0.86864 0.85678 0.0
C1343 C 0.80411 0.92965 0.87306 0.0
C1344 C 0.77356 0.92085 0.8805 0.0
C1345 C 0.81661 0.90901 0.87461 0.0
C1346 C 0.83 0.85424 0.86958 0.0
H1347 H 0.87658 0.75734 0.91988 0.0
H1348 H 0.8588 0.79672 0.91809 0.0
H1349 H 0.85616 0.83242 0.85879 0.0
H1350 H 0.73259 0.8834 0.89581 0.0
H1351 H 0.7537 0.84701 0.89777 0.0
H1352 H 0.79213 0.83787 0.91287 0.0
C1353 C 0.85857 0.78421 0.90515 0.0
C1354 C 0.84187 0.83303 0.8706 0.0
C1355 C 0.86901 0.76187 0.90619 0.0
C1356 C 0.75598 0.8909 0.88964 0.0
C1357 C 0.76835 0.87014 0.89103 0.0
C1358 C 0.8057 0.83667 0.90083 0.0
C1359 C 0.84793 0.79022 0.88768 0.0
C1360 C 0.83563 0.81317 0.88669 0.0
C1361 C 0.79882 0.87884 0.88349 0.0
C1362 C 0.81175 0.8564 0.88468 0.0
H1363 H 0.85924 0.7389 0.85939 0.0
H1364 H 0.84027 0.7773 0.85755 0.0
H1365 H 0.81163 0.80007 0.91429 0.0
H1366 H 0.81826 0.95232 0.86573 0.0
H1367 H 0.84035 0.91684 0.86887 0.0
C1368 C 0.10937 0.68997 0.12177 0.0
C1369 C 0.13699 0.71929 0.1262 0.0
C1370 C 0.11062 0.66156 0.12085 0.0
C1371 C 0.16529 0.6313 0.11104 0.0
H1372 H 0.10256 0.55454 0.13758 0.0
C1373 C 0.17113 0.51417 0.10728 0.0
C1374 C 0.14172 0.48517 0.10598 0.0
C1375 C 0.17184 0.54292 0.11177 0.0
C1376 C 0.12005 0.57556 0.12982 0.0
H1377 H 0.18782 0.74155 0.13303 0.0
H1378 H 0.19014 0.69224 0.13077 0.0
H1379 H 0.10046 0.60389 0.14066 0.0
H1380 H 0.09012 0.46368 0.10958 0.0
H1381 H 0.09119 0.51347 0.11637 0.0
H1382 H 0.18418 0.603 0.09949 0.0
C1383 C 0.1674 0.69123 0.12824 0.0
C1384 C 0.11887 0.6039 0.13169 0.0
C1385 C 0.16599 0.71948 0.12954 0.0
C1386 C 0.11322 0.48557 0.11001 0.0
C1387 C 0.11389 0.51426 0.11425 0.0
C1388 C 0.16616 0.60283 0.10888 0.0
C1389 C 0.13973 0.66195 0.12392 0.0
C1390 C 0.14138 0.63202 0.12226 0.0
C1391 C 0.14315 0.54351 0.11494 0.0
C1392 C 0.14342 0.57442 0.11815 0.0
H1393 H 0.0869 0.68899 0.11868 0.0
H1394 H 0.08897 0.63937 0.11728 0.0
H1395 H 0.18282 0.65258 0.10347 0.0
H1396 H 0.19359 0.51493 0.10421 0.0
H1397 H 0.19495 0.56474 0.11254 0.0
C1398 C 0.67029 0.18691 0.60306 0.0
C1399 C 0.69135 0.20723 0.61726 0.0
C1400 C 0.63729 0.17619 0.6041 0.0
C1401 C 0.57136 0.16061 0.63678 0.0
H1402 H 0.53249 0.17713 0.59289 0.0
C1403 C 0.4428 0.14394 0.63967 0.0
C1404 C 0.42508 0.13667 0.62262 0.0
C1405 C 0.47454 0.14993 0.63949 0.0
C1406 C 0.54254 0.17156 0.60518 0.0
H1407 H 0.69426 0.23136 0.64399 0.0
H1408 H 0.63643 0.21187 0.64608 0.0
H1409 H 0.58869 0.19139 0.59162 0.0
H1410 H 0.42559 0.1278 0.5923 0.0
H1411 H 0.47998 0.13638 0.59204 0.0
H1412 H 0.52516 0.13996 0.65023 0.0
C1413 C 0.64552 0.20456 0.63405 0.0
C1414 C 0.57496 0.18001 0.60444 0.0
C1415 C 0.67859 0.21583 0.6328 0.0
C1416 C 0.43895 0.13379 0.60561 0.0
C1417 C 0.47034 0.1391 0.60547 0.0
C1418 C 0.53869 0.15152 0.6374 0.0
C1419 C 0.62457 0.18499 0.61957 0.0
C1420 C 0.58978 0.17482 0.62026 0.0
C1421 C 0.48905 0.14819 0.62229 0.0
C1422 C 0.52375 0.15698 0.62162 0.0
H1423 H 0.67948 0.18002 0.59089 0.0
H1424 H 0.62167 0.16103 0.59278 0.0
H1425 H 0.58215 0.15617 0.64916 0.0
H1426 H 0.43266 0.14647 0.65297 0.0
H1427 H 0.48801 0.15712 0.65274 0.0
C1428 C 0.4646 0.67109 0.12201 0.0
C1429 C 0.49116 0.6831 0.10953 0.0
C1430 C 0.44471 0.63805 0.12473 0.0
C1431 C 0.42034 0.56061 0.10076 0.0
H1432 H 0.37595 0.52517 0.14876 0.0
C1433 C 0.30304 0.43954 0.10443 0.0
C1434 C 0.29631 0.41943 0.12045 0.0
C1435 C 0.33037 0.46998 0.10392 0.0
C1436 C 0.38845 0.53451 0.13532 0.0
H1437 H 0.51801 0.66936 0.09058 0.0
H1438 H 0.48388 0.61183 0.09573 0.0
H1439 H 0.41775 0.58151 0.14708 0.0
H1440 H 0.31371 0.41558 0.1484 0.0
H1441 H 0.36195 0.46888 0.1474 0.0
H1442 H 0.39121 0.51366 0.08902 0.0
C1443 C 0.47805 0.628 0.10315 0.0
C1444 C 0.41217 0.567 0.13428 0.0
C1445 C 0.49791 0.6611 0.10037 0.0
C1446 C 0.31819 0.43035 0.13581 0.0
C1447 C 0.3457 0.46103 0.1353 0.0
C1448 C 0.39674 0.52817 0.10182 0.0
C1449 C 0.45086 0.61597 0.11515 0.0
C1450 C 0.42798 0.58068 0.11687 0.0
C1451 C 0.35198 0.48135 0.11938 0.0
C1452 C 0.37991 0.51482 0.11899 0.0
H1453 H 0.45891 0.68724 0.12958 0.0
H1454 H 0.42389 0.62985 0.13393 0.0
H1455 H 0.43169 0.57016 0.08706 0.0
H1456 H 0.28689 0.43203 0.09228 0.0
H1457 H 0.334 0.48499 0.09155 0.0
C1458 C 0.80038 0.46503 0.63354 0.0
C1459 C 0.80877 0.48559 0.61762 0.0
C1460 C 0.81172 0.44343 0.63525 0.0
C1461 C 0.83691 0.397 0.60647 0.0
H1462 H 0.87686 0.38908 0.6528 0.0
C1463 C 0.88631 0.31052 0.60883 0.0
C1464 C 0.88255 0.29337 0.62577 0.0
C1465 C 0.88055 0.3362 0.60856 0.0
C1466 C 0.86536 0.3906 0.63983 0.0
H1467 H 0.83563 0.49969 0.59105 0.0
H1468 H 0.85484 0.46133 0.59378 0.0
H1469 H 0.85978 0.42908 0.65106 0.0
H1470 H 0.871 0.29018 0.65593 0.0
H1471 H 0.85968 0.33435 0.65544 0.0
H1472 H 0.84089 0.35785 0.59541 0.0
C1473 C 0.83974 0.4622 0.60502 0.0
C1474 C 0.85574 0.41367 0.63883 0.0
C1475 C 0.8289 0.48423 0.6035 0.0
C1476 C 0.87419 0.30317 0.64269 0.0
C1477 C 0.86778 0.32857 0.64237 0.0
C1478 C 0.84596 0.37361 0.60757 0.0
C1479 C 0.83119 0.44151 0.62088 0.0
C1480 C 0.8416 0.41722 0.62208 0.0
C1481 C 0.87017 0.34501 0.62516 0.0
C1482 C 0.86058 0.37017 0.6242 0.0
H1483 H 0.78506 0.46571 0.6447 0.0
H1484 H 0.80461 0.42765 0.64756 0.0
H1485 H 0.82557 0.39882 0.59349 0.0
H1486 H 0.89318 0.30367 0.59564 0.0
H1487 H 0.88378 0.34882 0.59517 0.0
C1488 C 0.56217 0.8446 0.13484 0.0
C1489 C 0.58815 0.86983 0.12512 0.0
C1490 C 0.53102 0.83944 0.13285 0.0
C1491 C 0.48236 0.87542 0.11558 0.0
H1492 H 0.41542 0.78603 0.11386 0.0
C1493 C 0.34748 0.83056 0.09571 0.0
C1494 C 0.32405 0.80363 0.10582 0.0
C1495 C 0.38041 0.84158 0.09839 0.0
C1496 C 0.43367 0.81116 0.11453 0.0
H1497 H 0.60178 0.91007 0.10606 0.0
H1498 H 0.54699 0.90081 0.10227 0.0
H1499 H 0.47082 0.79967 0.11789 0.0
H1500 H 0.31713 0.76877 0.12768 0.0
H1501 H 0.37402 0.78791 0.1324 0.0
H1502 H 0.44453 0.88656 0.11214 0.0
C1503 C 0.55086 0.88518 0.11167 0.0
C1504 C 0.46569 0.81906 0.11683 0.0
C1505 C 0.58231 0.89054 0.11382 0.0
C1506 C 0.33442 0.78907 0.11931 0.0
C1507 C 0.36713 0.80004 0.12199 0.0
C1508 C 0.45009 0.86744 0.11325 0.0
C1509 C 0.52463 0.85908 0.12086 0.0
C1510 C 0.49058 0.85128 0.11764 0.0
C1511 C 0.39062 0.82592 0.11124 0.0
C1512 C 0.42527 0.83514 0.11296 0.0
H1513 H 0.56581 0.82841 0.14389 0.0
H1514 H 0.51183 0.8197 0.14065 0.0
H1515 H 0.50073 0.90049 0.11624 0.0
H1516 H 0.34034 0.84228 0.08517 0.0
H1517 H 0.39779 0.86153 0.08985 0.0
C1518 C 0.7133 0.57716 0.64129 0.0
C1519 C 0.72444 0.59283 0.62362 0.0
C1520 C 0.68749 0.54554 0.64197 0.0
C1521 C 0.61649 0.48514 0.61641 0.0
H1522 H 0.63468 0.42239 0.6389 0.0
C1523 C 0.5315 0.34892 0.60476 0.0
C1524 C 0.53002 0.32731 0.61875 0.0
C1525 C 0.55364 0.38179 0.6064 0.0
C1526 C 0.62868 0.43945 0.63292 0.0
H1527 H 0.71634 0.58867 0.59298 0.0
H1528 H 0.67051 0.53393 0.59426 0.0
H1529 H 0.67469 0.47916 0.64068 0.0
H1530 H 0.54956 0.32311 0.64578 0.0
H1531 H 0.58693 0.3804 0.64928 0.0
H1532 H 0.57025 0.44593 0.60907 0.0
C1533 C 0.68204 0.5458 0.60751 0.0
C1534 C 0.65184 0.47208 0.63388 0.0
C1535 C 0.70826 0.57705 0.60678 0.0
C1536 C 0.55047 0.33927 0.63468 0.0
C1537 C 0.57212 0.37218 0.63656 0.0
C1538 C 0.59301 0.45257 0.61581 0.0
C1539 C 0.67184 0.52947 0.62505 0.0
C1540 C 0.64615 0.4952 0.62542 0.0
C1541 C 0.57444 0.394 0.62231 0.0
C1542 C 0.59886 0.42907 0.62381 0.0
H1543 H 0.72544 0.5888 0.65446 0.0
H1544 H 0.67999 0.53349 0.65568 0.0
H1545 H 0.61145 0.50254 0.60987 0.0
H1546 H 0.51616 0.34025 0.59224 0.0
H1547 H 0.55489 0.39741 0.59488 0.0
C1548 C 0.31353 0.883 0.41256 0.0
C1549 C 0.2992 0.88115 0.39474 0.0
C1550 C 0.34193 0.88179 0.41376 0.0
C1551 C 0.3868 0.84922 0.39011 0.0
H1552 H 0.45616 0.9073 0.42345 0.0
C1553 C 0.49676 0.83271 0.40568 0.0
C1554 C 0.50663 0.83674 0.42493 0.0
C1555 C 0.47499 0.84222 0.39939 0.0
C1556 C 0.43696 0.89067 0.41418 0.0
H1557 H 0.30329 0.87663 0.36416 0.0
H1558 H 0.35292 0.87381 0.36629 0.0
H1559 H 0.41113 0.91599 0.41748 0.0
H1560 H 0.50276 0.8557 0.45234 0.0
H1561 H 0.46464 0.87136 0.44168 0.0
H1562 H 0.41176 0.82293 0.38752 0.0
C1563 C 0.34223 0.87653 0.3793 0.0
C1564 C 0.41121 0.8958 0.4107 0.0
C1565 C 0.31402 0.87835 0.37807 0.0
C1566 C 0.49533 0.85176 0.43748 0.0
C1567 C 0.47367 0.86117 0.43125 0.0
C1568 C 0.41244 0.84383 0.39377 0.0
C1569 C 0.35642 0.87812 0.39719 0.0
C1570 C 0.38551 0.87478 0.39894 0.0
C1571 C 0.46274 0.85616 0.41219 0.0
C1572 C 0.43753 0.86406 0.40624 0.0
H1573 H 0.30264 0.88522 0.42563 0.0
H1574 H 0.35209 0.8828 0.42776 0.0
H1575 H 0.36722 0.83247 0.38109 0.0
H1576 H 0.50493 0.82116 0.39564 0.0
H1577 H 0.46749 0.83833 0.38454 0.0
C1578 C 0.67462 0.47207 0.88695 0.0
C1579 C 0.68798 0.48931 0.90395 0.0
C1580 C 0.64141 0.45124 0.88536 0.0
C1581 C 0.57247 0.39851 0.91433 0.0
H1582 H 0.52043 0.39645 0.87135 0.0
C1583 C 0.43784 0.30532 0.91255 0.0
C1584 C 0.42366 0.29162 0.89491 0.0
C1585 C 0.46857 0.33229 0.91335 0.0
C1586 C 0.53461 0.39631 0.88334 0.0
H1587 H 0.6771 0.49871 0.93248 0.0
H1588 H 0.61896 0.46153 0.92991 0.0
H1589 H 0.57704 0.43827 0.87309 0.0
H1590 H 0.42984 0.29615 0.86417 0.0
H1591 H 0.48425 0.34257 0.86543 0.0
H1592 H 0.53122 0.35585 0.92419 0.0
C1593 C 0.63422 0.4645 0.91775 0.0
C1594 C 0.56703 0.42048 0.88438 0.0
C1595 C 0.66739 0.48587 0.91918 0.0
C1596 C 0.44027 0.30629 0.87797 0.0
C1597 C 0.47146 0.33301 0.87875 0.0
C1598 C 0.54036 0.37403 0.91312 0.0
C1599 C 0.62094 0.44668 0.90089 0.0
C1600 C 0.58624 0.42188 0.89994 0.0
C1601 C 0.48641 0.34597 0.89651 0.0
C1602 C 0.52077 0.37256 0.89767 0.0
H1603 H 0.68999 0.47432 0.87499 0.0
H1604 H 0.6319 0.4377 0.87226 0.0
H1605 H 0.58686 0.39861 0.9263 0.0
H1606 H 0.42533 0.29479 0.92585 0.0
H1607 H 0.47846 0.34205 0.92728 0.0
C1608 C 0.18853 0.66463 0.41181 0.0
C1609 C 0.2069 0.68498 0.39678 0.0
C1610 C 0.17779 0.63169 0.41105 0.0
C1611 C 0.15778 0.56419 0.37899 0.0
H1612 H 0.18247 0.5288 0.42114 0.0
C1613 C 0.14149 0.43592 0.37631 0.0
C1614 C 0.13789 0.41979 0.39368 0.0
C1615 C 0.14712 0.46748 0.37625 0.0
C1616 C 0.17459 0.53785 0.4094 0.0
H1617 H 0.22743 0.68671 0.36887 0.0
H1618 H 0.2078 0.62893 0.36729 0.0
H1619 H 0.1963 0.58472 0.42198 0.0
H1620 H 0.13482 0.42281 0.42444 0.0
H1621 H 0.14251 0.47666 0.4244 0.0
H1622 H 0.13521 0.51724 0.36658 0.0
C1623 C 0.20208 0.63855 0.37974 0.0
C1624 C 0.18281 0.57012 0.40987 0.0
C1625 C 0.21342 0.67157 0.3807 0.0
C1626 C 0.138 0.43493 0.41086 0.0
C1627 C 0.14284 0.46605 0.4108 0.0
C1628 C 0.14889 0.53164 0.37868 0.0
C1629 C 0.18456 0.61833 0.39504 0.0
C1630 C 0.17466 0.5837 0.39466 0.0
C1631 C 0.14857 0.48332 0.39356 0.0
C1632 C 0.15725 0.51793 0.39387 0.0
H1633 H 0.18327 0.67435 0.4244 0.0
H1634 H 0.16425 0.61663 0.42301 0.0
H1635 H 0.15108 0.57405 0.36708 0.0
H1636 H 0.14164 0.42478 0.36286 0.0
H1637 H 0.1516 0.47979 0.36266 0.0
C1638 C 0.69698 0.11367 0.89893 0.0
C1639 C 0.72767 0.13595 0.89215 0.0
C1640 C 0.67236 0.12129 0.89911 0.0
C1641 C 0.66147 0.19266 0.89875 0.0
H1642 H 0.57154 0.1295 0.89144 0.0
C1643 C 0.56358 0.2286 0.89558 0.0
C1644 C 0.53492 0.20947 0.90579 0.0
C1645 C 0.58611 0.21861 0.89294 0.0
C1646 C 0.59654 0.14737 0.89367 0.0
H1647 H 0.75677 0.18298 0.87969 0.0
H1648 H 0.7138 0.19603 0.87932 0.0
H1649 H 0.61232 0.11371 0.88791 0.0
H1650 H 0.50761 0.16448 0.92109 0.0
H1651 H 0.54681 0.14695 0.9163 0.0
H1652 H 0.64576 0.22631 0.90445 0.0
C1653 C 0.70859 0.17296 0.88494 0.0
C1654 C 0.61997 0.13831 0.89167 0.0
C1655 C 0.73315 0.16541 0.88492 0.0
C1656 C 0.52917 0.17971 0.91295 0.0
C1657 C 0.55169 0.16965 0.91022 0.0
C1658 C 0.63812 0.20171 0.90065 0.0
C1659 C 0.67801 0.15135 0.89247 0.0
C1660 C 0.65281 0.16084 0.89419 0.0
C1661 C 0.58061 0.18913 0.90035 0.0
C1662 C 0.60534 0.17922 0.89815 0.0
H1663 H 0.69245 0.09104 0.9049 0.0
H1664 H 0.64934 0.10412 0.90521 0.0
H1665 H 0.68633 0.21063 0.90123 0.0
H1666 H 0.5686 0.25132 0.88947 0.0
H1667 H 0.60783 0.23397 0.88496 0.0
C1668 C 0.3528 0.52805 0.41051 0.0
C1669 C 0.33244 0.52648 0.39561 0.0
C1670 C 0.38592 0.54954 0.4095 0.0
C1671 C 0.4532 0.59464 0.37699 0.0
H1672 H 0.49095 0.65543 0.41863 0.0
C1673 C 0.58192 0.70564 0.3727 0.0
C1674 C 0.5984 0.71903 0.38986 0.0
C1675 C 0.55053 0.67933 0.37307 0.0
C1676 C 0.48123 0.63825 0.40704 0.0
H1677 H 0.33071 0.54531 0.36775 0.0
H1678 H 0.38888 0.5824 0.36577 0.0
H1679 H 0.43447 0.61463 0.41995 0.0
H1680 H 0.59648 0.71373 0.4207 0.0
H1681 H 0.54297 0.66683 0.42137 0.0
H1682 H 0.50002 0.61751 0.36424 0.0
C1683 C 0.37911 0.56723 0.37828 0.0
C1684 C 0.44866 0.61499 0.40778 0.0
C1685 C 0.3459 0.54623 0.37947 0.0
C1686 C 0.58403 0.70421 0.40726 0.0
C1687 C 0.55312 0.67749 0.40762 0.0
C1688 C 0.48606 0.61752 0.37641 0.0
C1689 C 0.39937 0.56934 0.39339 0.0
C1690 C 0.43426 0.59312 0.39272 0.0
C1691 C 0.5353 0.66541 0.39061 0.0
C1692 C 0.50057 0.63985 0.39139 0.0
H1693 H 0.343 0.51315 0.42313 0.0
H1694 H 0.40106 0.55069 0.42132 0.0
H1695 H 0.44264 0.57788 0.36523 0.0
H1696 H 0.59251 0.71663 0.35908 0.0
H1697 H 0.53779 0.67101 0.35963 0.0
C1698 C 0.85302 0.56169 0.87583 0.0
C1699 C 0.87702 0.58625 0.887 0.0
C1700 C 0.84836 0.53065 0.87635 0.0
C1701 C 0.88402 0.48117 0.8923 0.0
H1702 H 0.79457 0.41402 0.89372 0.0
C1703 C 0.8431 0.34888 0.91304 0.0
C1704 C 0.81504 0.32439 0.90446 0.0
C1705 C 0.85292 0.38123 0.90968 0.0
C1706 C 0.81973 0.43225 0.89301 0.0
H1707 H 0.91577 0.59779 0.90696 0.0
H1708 H 0.90736 0.54329 0.90815 0.0
H1709 H 0.80794 0.46901 0.88934 0.0
H1710 H 0.77631 0.31456 0.88484 0.0
H1711 H 0.79381 0.37062 0.87847 0.0
H1712 H 0.89562 0.44384 0.89567 0.0
C1713 C 0.89234 0.54812 0.89877 0.0
C1714 C 0.82747 0.46409 0.89062 0.0
C1715 C 0.89718 0.57938 0.89813 0.0
C1716 C 0.79771 0.3329 0.89192 0.0
C1717 C 0.80772 0.36513 0.88836 0.0
C1718 C 0.87626 0.44908 0.89451 0.0
C1719 C 0.86733 0.52314 0.88822 0.0
C1720 C 0.85967 0.48911 0.8903 0.0
C1721 C 0.83508 0.38982 0.8975 0.0
C1722 C 0.84394 0.42414 0.8949 0.0
H1723 H 0.83736 0.5663 0.86689 0.0
H1724 H 0.82942 0.51237 0.86763 0.0
H1725 H 0.9091 0.49969 0.8919 0.0
H1726 H 0.85685 0.34302 0.92285 0.0
H1727 H 0.87391 0.39943 0.91714 0.0
C1728 C 0.18884 0.37943 0.33137 0.0
C1729 C 0.16602 0.34905 0.33847 0.0
C1730 C 0.19441 0.38447 0.31157 0.0
C1731 C 0.15382 0.34984 0.26554 0.0
H1732 H 0.2388 0.39418 0.24269 0.0
C1733 C 0.17611 0.32771 0.1883 0.0
C1734 C 0.19737 0.35356 0.17674 0.0
C1735 C 0.17278 0.33216 0.2077 0.0
C1736 C 0.21491 0.38225 0.24888 0.0
H1737 H 0.13247 0.29983 0.33032 0.0
H1738 H 0.14224 0.30855 0.29623 0.0
H1739 H 0.23309 0.39256 0.27768 0.0
H1740 H 0.23161 0.40451 0.17632 0.0
H1741 H 0.22601 0.41238 0.21069 0.0
H1742 H 0.13557 0.33871 0.23695 0.0
C1743 C 0.15533 0.32871 0.3058 0.0
C1744 C 0.21165 0.38127 0.2689 0.0
C1745 C 0.14987 0.32368 0.32542 0.0
C1746 C 0.21492 0.38423 0.18494 0.0
C1747 C 0.21191 0.38865 0.20457 0.0
C1748 C 0.15707 0.35078 0.24565 0.0
C1749 C 0.17715 0.35925 0.29855 0.0
C1750 C 0.18106 0.36419 0.27744 0.0
C1751 C 0.19078 0.36257 0.21615 0.0
C1752 C 0.18764 0.36616 0.23709 0.0
H1753 H 0.2017 0.39949 0.34104 0.0
H1754 H 0.21145 0.40827 0.30643 0.0
H1755 H 0.12987 0.33718 0.27163 0.0
H1756 H 0.16216 0.3038 0.18237 0.0
H1757 H 0.15662 0.31149 0.21623 0.0
C1758 C 0.8284 0.20099 0.6863 0.0
C1759 C 0.84575 0.18719 0.67867 0.0
C1760 C 0.81939 0.19656 0.70569 0.0
C1761 C 0.80648 0.14351 0.74694 0.0
H1762 H 0.83337 0.21867 0.77881 0.0
C1763 C 0.82768 0.13959 0.82675 0.0
C1764 C 0.81688 0.15445 0.83974 0.0
C1765 C 0.82711 0.14424 0.8071 0.0
C1766 C 0.82518 0.1974 0.77008 0.0
H1767 H 0.86619 0.15704 0.68499 0.0
H1768 H 0.84993 0.14874 0.71846 0.0
H1769 H 0.83777 0.22438 0.74386 0.0
H1770 H 0.79807 0.18686 0.84225 0.0
H1771 H 0.79719 0.19516 0.80756 0.0
H1772 H 0.79454 0.11655 0.77294 0.0
C1773 C 0.8434 0.16311 0.70965 0.0
C1774 C 0.82767 0.20067 0.75008 0.0
C1775 C 0.85285 0.16799 0.6905 0.0
C1776 C 0.80653 0.17507 0.83259 0.0
C1777 C 0.806 0.17979 0.81276 0.0
C1778 C 0.80388 0.14024 0.76681 0.0
C1779 C 0.82698 0.17767 0.71757 0.0
C1780 C 0.81929 0.17385 0.73836 0.0
C1781 C 0.81573 0.16388 0.79979 0.0
C1782 C 0.81423 0.16725 0.77867 0.0
H1783 H 0.82294 0.21617 0.6775 0.0
H1784 H 0.8067 0.20801 0.71143 0.0
H1785 H 0.79931 0.12234 0.73826 0.0
H1786 H 0.83632 0.12396 0.83172 0.0
H1787 H 0.83565 0.13233 0.79758 0.0
C1788 C 0.6748 0.8393 0.19105 0.0
C1789 C 0.65145 0.83875 0.17876 0.0
C1790 C 0.6678 0.8314 0.21039 0.0
C1791 C 0.62505 0.83934 0.24937 0.0
H1792 H 0.63744 0.77509 0.27533 0.0
C1793 C 0.66233 0.84497 0.32825 0.0
C1794 C 0.64567 0.81721 0.33945 0.0
C1795 C 0.65534 0.84442 0.30882 0.0
C1796 C 0.63349 0.79283 0.26824 0.0
H1797 H 0.60257 0.82951 0.17677 0.0
H1798 H 0.59068 0.81688 0.21099 0.0
H1799 H 0.64067 0.77891 0.24027 0.0
H1800 H 0.60861 0.7672 0.33942 0.0
H1801 H 0.59698 0.76585 0.30497 0.0
H1802 H 0.62011 0.85473 0.27738 0.0
C1803 C 0.61408 0.82269 0.2055 0.0
C1804 C 0.63547 0.79508 0.24825 0.0
C1805 C 0.6208 0.82973 0.186 0.0
C1806 C 0.62125 0.78901 0.33107 0.0
C1807 C 0.61483 0.7882 0.31143 0.0
C1808 C 0.62385 0.8376 0.26938 0.0
C1809 C 0.6376 0.82362 0.21784 0.0
C1810 C 0.63171 0.81864 0.23869 0.0
C1811 C 0.63215 0.81584 0.30011 0.0
C1812 C 0.62856 0.81465 0.279 0.0
H1813 H 0.6986 0.84624 0.18573 0.0
H1814 H 0.68638 0.83253 0.21969 0.0
H1815 H 0.62233 0.85786 0.24228 0.0
H1816 H 0.68157 0.86683 0.33442 0.0
H1817 H 0.6693 0.86592 0.30037 0.0
C1818 C 0.80743 0.6279 0.6831 0.0
C1819 C 0.82478 0.65922 0.6757 0.0
C1820 C 0.80663 0.62264 0.70293 0.0
C1821 C 0.81219 0.66415 0.74754 0.0
H1822 H 0.8352 0.6069 0.77295 0.0
C1823 C 0.85258 0.68205 0.82552 0.0
C1824 C 0.84468 0.65549 0.83728 0.0
C1825 C 0.84453 0.67794 0.80616 0.0
C1826 C 0.82803 0.62249 0.76607 0.0
H1827 H 0.85684 0.70914 0.68295 0.0
H1828 H 0.85514 0.70002 0.71731 0.0
H1829 H 0.83283 0.60745 0.73785 0.0
H1830 H 0.82117 0.60365 0.83822 0.0
H1831 H 0.80674 0.5963 0.8041 0.0
H1832 H 0.8077 0.67961 0.77547 0.0
C1833 C 0.84176 0.67963 0.70794 0.0
C1834 C 0.8268 0.62285 0.746 0.0
C1835 C 0.84282 0.6848 0.68827 0.0
C1836 C 0.82744 0.62453 0.82944 0.0
C1837 C 0.81948 0.62037 0.80991 0.0
C1838 C 0.81314 0.66362 0.76749 0.0
C1839 C 0.82301 0.64867 0.71552 0.0
C1840 C 0.8199 0.64447 0.73659 0.0
C1841 C 0.82826 0.64711 0.79801 0.0
C1842 C 0.82214 0.6436 0.77701 0.0
H1843 H 0.79331 0.60777 0.6737 0.0
H1844 H 0.79213 0.59853 0.70846 0.0
H1845 H 0.80618 0.68061 0.74062 0.0
H1846 H 0.86579 0.7062 0.8312 0.0
H1847 H 0.85213 0.69912 0.79742 0.0
C1848 C 0.18875 0.80064 0.18489 0.0
C1849 C 0.17978 0.82163 0.17672 0.0
C1850 C 0.19706 0.80336 0.20432 0.0
C1851 C 0.22269 0.85946 0.24525 0.0
H1852 H 0.17477 0.78388 0.27697 0.0
C1853 C 0.19706 0.86972 0.32344 0.0
C1854 C 0.20202 0.85138 0.33725 0.0
C1855 C 0.19817 0.86408 0.30399 0.0
C1856 C 0.18877 0.80505 0.26828 0.0
H1857 H 0.17386 0.86268 0.18187 0.0
H1858 H 0.18901 0.86798 0.21551 0.0
H1859 H 0.17194 0.77872 0.24197 0.0
H1860 H 0.21069 0.8117 0.34134 0.0
H1861 H 0.21211 0.80145 0.30695 0.0
H1862 H 0.23853 0.886 0.27138 0.0
C1863 C 0.18954 0.84933 0.20712 0.0
C1864 C 0.18722 0.80211 0.24827 0.0
C1865 C 0.18078 0.84628 0.18789 0.0
C1866 C 0.20684 0.82629 0.33107 0.0
C1867 C 0.2077 0.82044 0.31142 0.0
C1868 C 0.22421 0.86238 0.26514 0.0
C1869 C 0.19719 0.82757 0.21567 0.0
C1870 C 0.20333 0.82949 0.23659 0.0
C1871 C 0.20405 0.8398 0.29773 0.0
C1872 C 0.20639 0.83541 0.27686 0.0
H1873 H 0.1878 0.78125 0.17651 0.0
H1874 H 0.20292 0.78632 0.21055 0.0
H1875 H 0.2358 0.88089 0.23661 0.0
H1876 H 0.1929 0.88901 0.3276 0.0
H1877 H 0.1945 0.87889 0.29379 0.0
C1878 C 0.33354 0.17017 0.82758 0.0
C1879 C 0.35936 0.19083 0.83935 0.0
C1880 C 0.33825 0.16749 0.80814 0.0
C1881 C 0.38868 0.21122 0.76747 0.0
H1882 H 0.34328 0.12745 0.74346 0.0
C1883 C 0.38413 0.18746 0.68444 0.0
C1884 C 0.35329 0.16529 0.67761 0.0
C1885 C 0.38977 0.19273 0.70422 0.0
C1886 C 0.35608 0.15105 0.74993 0.0
H1887 H 0.41048 0.22477 0.84009 0.0
H1888 H 0.41879 0.22034 0.80565 0.0
H1889 H 0.34521 0.13153 0.77824 0.0
H1890 H 0.30387 0.13285 0.68613 0.0
H1891 H 0.31365 0.14211 0.72019 0.0
H1892 H 0.39867 0.23065 0.73894 0.0
C1893 C 0.39492 0.20612 0.81165 0.0
C1894 C 0.35725 0.15336 0.76985 0.0
C1895 C 0.39025 0.20844 0.83132 0.0
C1896 C 0.32804 0.14973 0.69085 0.0
C1897 C 0.33366 0.15489 0.71043 0.0
C1898 C 0.38751 0.20889 0.74741 0.0
C1899 C 0.36887 0.18564 0.79986 0.0
C1900 C 0.37265 0.18347 0.77887 0.0
C1901 C 0.36468 0.17579 0.71742 0.0
C1902 C 0.37024 0.17877 0.73846 0.0
H1903 H 0.30946 0.15627 0.83338 0.0
H1904 H 0.31761 0.15182 0.79944 0.0
H1905 H 0.40064 0.23476 0.77403 0.0
H1906 H 0.4041 0.19977 0.6746 0.0
H1907 H 0.41391 0.2091 0.7092 0.0
C1908 C 0.34758 0.25708 0.95563 0.0
C1909 C 0.325 0.22873 0.94644 0.0
C1910 C 0.33807 0.2696 0.97082 0.0
C1911 C 0.263 0.26316 0.99134 0.0
H1912 H 0.31867 0.31266 0.03324 0.0
C1913 C 0.21839 0.28786 0.06254 0.0
C1914 C 0.23398 0.31953 0.06935 0.0
C1915 C 0.22987 0.27968 0.04638 0.0
C1916 C 0.30304 0.2992 0.02147 0.0
H1917 H 0.27566 0.18994 0.94671 0.0
H1918 H 0.25956 0.21025 0.97388 0.0
H1919 H 0.3388 0.29097 0.00862 0.0
H1920 H 0.27362 0.36763 0.0646 0.0
H1921 H 0.29443 0.35307 0.03639 0.0
H1922 H 0.22685 0.2702 1.00476 0.0
C1923 C 0.28417 0.22397 0.96891 0.0
C1924 C 0.31453 0.28674 1.00733 0.0
C1925 C 0.29347 0.21195 0.95352 0.0
C1926 C 0.26088 0.34316 0.0594 0.0
C1927 C 0.27296 0.33477 0.04346 0.0
C1928 C 0.25142 0.27509 1.00562 0.0
C1929 C 0.30593 0.25363 0.97732 0.0
C1930 C 0.2945 0.26812 0.99218 0.0
C1931 C 0.25771 0.30285 0.03695 0.0
C1932 C 0.27118 0.29297 0.02091 0.0
H1933 H 0.37193 0.27072 0.95019 0.0
H1934 H 0.35556 0.29254 0.97679 0.0
H1935 H 0.24707 0.24994 0.97964 0.0
H1936 H 0.19773 0.26919 0.07006 0.0
H1937 H 0.21775 0.25489 0.04173 0.0
C1938 C 0.09081 0.29193 0.45616 0.0
C1939 C 0.10482 0.32293 0.44838 0.0
C1940 C 0.07199 0.28405 0.47271 0.0
C1941 C 0.01622 0.30087 0.49702 0.0
H1942 H 0.02853 0.25852 0.54067 0.0
C1943 C 0.93144 0.2605 0.56364 0.0
C1944 C 0.92771 0.23388 0.57401 0.0
C1945 C 0.95321 0.27277 0.54829 0.0
C1946 C 0.02425 0.26975 0.52848 0.0
H1947 H 0.11076 0.37026 0.45192 0.0
H1948 H 0.07687 0.35616 0.48077 0.0
H1949 H 0.06793 0.27841 0.51487 0.0
H1950 H 0.94181 0.19777 0.57572 0.0
H1951 H 0.9779 0.21754 0.54834 0.0
H1952 H 0.97176 0.29089 0.51001 0.0
C1953 C 0.08098 0.33818 0.47416 0.0
C1954 C 0.04715 0.28151 0.51381 0.0
C1955 C 0.10062 0.34633 0.45784 0.0
C1956 C 0.94446 0.2185 0.56803 0.0
C1957 C 0.96557 0.23024 0.55248 0.0
C1958 C 0.9929 0.28854 0.51154 0.0
C1959 C 0.06615 0.30681 0.48157 0.0
C1960 C 0.04328 0.29699 0.49788 0.0
C1961 C 0.97119 0.25822 0.54276 0.0
C1962 C 0.99637 0.27243 0.52741 0.0
H1963 H 0.09355 0.27344 0.44904 0.0
H1964 H 0.06076 0.25969 0.47808 0.0
H1965 H 0.0125 0.3124 0.48475 0.0
H1966 H 0.91911 0.27305 0.56815 0.0
H1967 H 0.95688 0.29444 0.54135 0.0
C1968 C 0.66713 0.9215 0.0635 0.0
C1969 C 0.6898 0.91555 0.07242 0.0
C1970 C 0.6765 0.94379 0.04843 0.0
C1971 C 0.75102 0.01347 0.02866 0.0
H1972 H 0.69753 0.00546 0.98511 0.0
C1973 C 0.80043 0.08345 0.95831 0.0
C1974 C 0.7836 0.0968 0.94949 0.0
C1975 C 0.78809 0.06432 0.97463 0.0
C1976 C 0.71253 0.00821 0.99735 0.0
H1977 H 0.73928 0.92646 0.072 0.0
H1978 H 0.75523 0.9637 0.04526 0.0
H1979 H 0.67675 0.96387 0.00992 0.0
H1980 H 0.74104 0.10128 0.95091 0.0
H1981 H 0.71895 0.06713 0.9795 0.0
H1982 H 0.78717 0.05712 0.01574 0.0
C1983 C 0.73057 0.95244 0.0502 0.0
C1984 C 0.70066 0.98437 0.01157 0.0
C1985 C 0.72136 0.9307 0.06536 0.0
C1986 C 0.7547 0.09169 0.9577 0.0
C1987 C 0.74191 0.07185 0.97385 0.0
C1988 C 0.76294 0.03699 0.01439 0.0
C1989 C 0.70865 0.96026 0.04195 0.0
C1990 C 0.72002 0.98636 0.02725 0.0
C1991 C 0.75829 0.05757 0.98229 0.0
C1992 C 0.74406 0.03442 0.99843 0.0
H1993 H 0.64278 0.91053 0.06897 0.0
H1994 H 0.65894 0.9492 0.04251 0.0
H1995 H 0.76635 0.01653 0.04077 0.0
H1996 H 0.82262 0.08685 0.95214 0.0
H1997 H 0.80117 0.05353 0.98072 0.0
C1998 C 0.7955 0.726 0.56482 0.0
C1999 C 0.78544 0.69381 0.56913 0.0
C2000 C 0.78536 0.73413 0.5481 0.0
C2001 C 0.72051 0.70286 0.51256 0.0
H2002 H 0.78117 0.77741 0.48342 0.0
C2003 C 0.68248 0.76471 0.45441 0.0
C2004 C 0.70104 0.77441 0.43754 0.0
C2005 C 0.69188 0.75308 0.47012 0.0
C2006 C 0.76391 0.75642 0.4913 0.0
H2007 H 0.75702 0.64486 0.55909 0.0
H2008 H 0.73906 0.65915 0.52963 0.0
H2009 H 0.80001 0.75957 0.51055 0.0
H2010 H 0.74404 0.77909 0.42411 0.0
H2011 H 0.76013 0.7591 0.45123 0.0
H2012 H 0.68437 0.69988 0.49322 0.0
C2013 C 0.75485 0.67804 0.53934 0.0
C2014 C 0.77469 0.74631 0.50695 0.0
C2015 C 0.76538 0.66988 0.55608 0.0
C2016 C 0.72908 0.77206 0.4368 0.0
C2017 C 0.73849 0.76067 0.45245 0.0
C2018 C 0.70964 0.71315 0.49693 0.0
C2019 C 0.76464 0.7103 0.53523 0.0
C2020 C 0.75315 0.71952 0.51785 0.0
C2021 C 0.72017 0.75117 0.46934 0.0
C2022 C 0.73124 0.74009 0.48612 0.0
H2023 H 0.81097 0.74506 0.57454 0.0
H2024 H 0.79311 0.75914 0.5455 0.0
H2025 H 0.70327 0.68231 0.52078 0.0
H2026 H 0.6607 0.76605 0.4555 0.0
H2027 H 0.67734 0.74616 0.48299 0.0
C2028 C 0.91829 0.66252 0.95665 0.0
C2029 C 0.92308 0.68666 0.94351 0.0
C2030 C 0.93726 0.67022 0.9733 0.0
C2031 C 0.98737 0.73887 1.00505 0.0
H2032 H 0.0287 0.69101 0.02071 0.0
C2033 C 0.0565 0.76726 0.07556 0.0
C2034 C 0.08662 0.76895 0.07584 0.0
C2035 C 0.0361 0.75474 0.05985 0.0
C2036 C 0.01745 0.70469 0.01642 0.0
H2037 H 0.95103 0.73783 0.93783 0.0
H2038 H 0.9834 0.75098 0.96649 0.0
H2039 H 0.99245 0.67304 0.99292 0.0
H2040 H 0.11847 0.75807 0.05963 0.0
H2041 H 0.08265 0.73649 0.03173 0.0
H2042 H 0.01253 0.77087 0.02805 0.0
C2043 C 0.96518 0.72618 0.96412 0.0
C2044 C 0.99639 0.69417 1.00068 0.0
C2045 C 0.94662 0.71854 0.94758 0.0
C2046 C 0.09556 0.75729 0.05989 0.0
C2047 C 0.07494 0.74471 0.04398 0.0
C2048 C 1.00818 0.74926 0.0207 0.0
C2049 C 0.96093 0.70222 0.97719 0.0
C2050 C 0.98133 0.71136 0.99473 0.0
C2051 C 0.04509 0.74367 0.04372 0.0
C2052 C 0.02355 0.73239 0.02663 0.0
H2053 H 0.90056 0.63772 0.95382 0.0
H2054 H 0.93332 0.65124 0.98317 0.0
H2055 H 0.97602 0.75256 1.00097 0.0
H2056 H 0.04839 0.77564 0.08754 0.0
H2057 H 0.01308 0.75375 0.06036 0.0
C2058 C 0.2605 0.92105 0.45562 0.0
C2059 C 0.23371 0.91746 0.44541 0.0
C2060 C 0.27173 0.94122 0.47169 0.0
C2061 C 0.24877 0.9772 0.50977 0.0
H2062 H 0.33441 0.05142 0.50625 0.0
C2063 C 0.28878 0.07955 0.56389 0.0
C2064 C 0.32075 0.09544 0.57022 0.0
C2065 C 0.2795 0.05896 0.54814 0.0
C2066 C 0.31066 0.03063 0.50771 0.0
H2067 H 0.19657 0.93035 0.44446 0.0
H2068 H 0.21513 0.96412 0.47309 0.0
H2069 H 0.31528 0.01027 0.48132 0.0
H2070 H 0.36848 0.10334 0.56468 0.0
H2071 H 0.35226 0.0664 0.53755 0.0
H2072 H 0.24405 0.99644 0.53628 0.0
C2073 C 0.22785 0.95202 0.46848 0.0
C2074 C 0.29973 0.00709 0.49337 0.0
C2075 C 0.21718 0.93265 0.45217 0.0
C2076 C 0.34373 0.09167 0.55989 0.0
C2077 C 0.3343 0.07036 0.54436 0.0
C2078 C 0.25986 1.00029 0.52428 0.0
C2079 C 0.25571 0.9572 0.47808 0.0
C2080 C 0.26851 0.98042 0.49415 0.0
C2081 C 0.30181 0.05296 0.53859 0.0
C2082 C 0.29075 0.02775 0.52332 0.0
H2083 H 0.27391 0.90996 0.45049 0.0
H2084 H 0.29323 0.94481 0.47891 0.0
H2085 H 0.22467 0.95673 0.51076 0.0
H2086 H 0.27066 0.08227 0.57154 0.0
H2087 H 0.25455 0.04715 0.54378 0.0
loop_
_geom_bond_atom_site_label_1
_geom_bond_atom_site_label_2
_geom_bond_distance
_geom_bond_site_symmetry_2
_ccdc_geom_bond_type
Eu0 N29 2.600 . S
Eu0 N35 2.562 . S
Eu0 O44 2.462 . S
Eu0 O45 2.373 . S
Eu0 O47 2.432 . S
Eu0 O48 2.291 . S
Eu0 O52 2.335 . S
Eu0 O55 2.372 . S
Eu0 C64 2.787 . S
C1 N2 1.365 . S
C1 C4 1.405 . S
C1 C8 1.448 . S
N2 C1 1.365 . S
N2 C5 1.319 . S
N2 Eu11 2.600 . S
C3 C5 1.397 . S
C3 C6 1.367 . S
C3 H23 0.931 . S
C4 C1 1.405 . S
C4 C6 1.403 . S
C4 C10 1.439 . S
C5 N2 1.319 . S
C5 C3 1.397 . S
C5 H16 0.930 . S
C6 C3 1.367 . S
C6 C4 1.403 . S
C6 H27 0.929 . S
C7 C8 1.430 . S
C7 C9 1.387 . S
C7 C13 1.404 . S
C8 C1 1.448 . S
C8 C7 1.430 . S
C8 N12 1.351 . S
C9 C7 1.387 . S
C9 C10 1.374 . S
C9 H24 0.931 . S
C10 C4 1.439 . S
C10 C9 1.374 . S
C10 H25 0.931 . S
Eu11 N2 2.600 . S
Eu11 N12 2.562 . S
Eu11 O46 2.335 . S
Eu11 O49 2.372 . S
Eu11 O50 2.462 . S
Eu11 O51 2.373 . S
Eu11 O53 2.432 . S
Eu11 O54 2.291 . S
Eu11 C75 2.787 . S
N12 C8 1.351 . S
N12 Eu11 2.562 . S
N12 C14 1.325 . S
C13 C7 1.404 . S
C13 C15 1.366 . S
C13 H21 0.930 . S
C14 N12 1.325 . S
C14 C15 1.416 . S
C14 H20 0.929 . S
C15 C13 1.366 . S
C15 C14 1.416 . S
C15 H17 0.930 . S
H16 C5 0.930 . S
H17 C15 0.930 . S
H18 C33 0.930 . S
H19 C40 0.930 . S
H20 C14 0.929 . S
H21 C13 0.930 . S
H22 C36 0.929 . S
H23 C3 0.931 . S
H24 C9 0.931 . S
H25 C10 0.931 . S
H26 C31 0.931 . S
H27 C6 0.929 . S
H28 C39 0.930 . S
N29 Eu0 2.600 . S
N29 C30 1.365 . S
N29 C33 1.319 . S
C30 N29 1.365 . S
C30 C32 1.405 . S
C30 C38 1.448 . S
C31 H26 0.931 . S
C31 C33 1.397 . S
C31 C34 1.367 . S
C32 C30 1.405 . S
C32 C34 1.403 . S
C32 C65 1.439 . S
C33 H18 0.930 . S
C33 N29 1.319 . S
C33 C31 1.397 . S
C34 C31 1.367 . S
C34 C32 1.403 . S
C34 H41 0.929 . S
N35 Eu0 2.562 . S
N35 C36 1.325 . S
N35 C38 1.351 . S
C36 H22 0.929 . S
C36 N35 1.325 . S
C36 C40 1.416 . S
C37 C38 1.430 . S
C37 C39 1.404 . S
C37 C66 1.387 . S
C38 C30 1.448 . S
C38 N35 1.351 . S
C38 C37 1.430 . S
C39 H28 0.930 . S
C39 C37 1.404 . S
C39 C40 1.366 . S
C40 H19 0.930 . S
C40 C36 1.416 . S
C40 C39 1.366 . S
H41 C34 0.929 . S
H42 C65 0.931 . S
H43 C66 0.931 . S
O44 Eu0 2.462 . S
O44 C64 1.252 . S
O45 Eu0 2.373 . S
O45 C56 1.249 . S
O46 Eu11 2.335 . S
O46 C56 1.264 . S
O47 Eu0 2.432 . S
O47 C64 1.268 . S
O48 Eu0 2.291 . S
O48 C63 1.255 . S
O49 Eu11 2.372 . S
O49 C63 1.257 . S
O50 Eu11 2.462 . S
O50 C75 1.252 . S
O51 Eu11 2.373 . S
O51 C67 1.249 . S
O52 Eu0 2.335 . S
O52 C67 1.264 . S
O53 Eu11 2.432 . S
O53 C75 1.268 . S
O54 Eu11 2.291 . S
O54 C74 1.255 . S
O55 Eu0 2.372 . S
O55 C74 1.257 . S
C56 O45 1.249 . S
C56 O46 1.264 . S
C57 C60 1.382 . S
C57 C62 1.390 . S
C57 C64 1.506 . S
C58 C59 1.398 . S
C58 C62 1.392 . S
C59 C58 1.398 . S
C59 C61 1.372 . S
C59 H76 0.931 . S
C60 C57 1.382 . S
C60 C61 1.390 . S
C60 H77 0.931 . S
C61 C59 1.372 . S
C61 C60 1.390 . S
C61 H78 0.929 . S
C62 C57 1.390 . S
C62 C58 1.392 . S
C62 H79 0.930 . S
C63 O48 1.255 . S
C63 O49 1.257 . S
C64 Eu0 2.787 . S
C64 O44 1.252 . S
C64 O47 1.268 . S
C64 C57 1.506 . S
C65 C32 1.439 . S
C65 H42 0.931 . S
C65 C66 1.374 . S
C66 C37 1.387 . S
C66 H43 0.931 . S
C66 C65 1.374 . S
C67 O51 1.249 . S
C67 O52 1.264 . S
C68 C71 1.382 . S
C68 C72 1.390 . S
C68 C75 1.506 . S
C69 C70 1.398 . S
C69 C72 1.392 . S
C70 C69 1.398 . S
C70 C73 1.372 . S
C70 H80 0.931 . S
C71 C68 1.382 . S
C71 C73 1.390 . S
C71 H81 0.931 . S
C72 C68 1.390 . S
C72 C69 1.392 . S
C72 H82 0.930 . S
C73 C70 1.372 . S
C73 C71 1.390 . S
C73 H83 0.929 . S
C74 O54 1.255 . S
C74 O55 1.257 . S
C75 Eu11 2.787 . S
C75 O50 1.252 . S
C75 O53 1.268 . S
C75 C68 1.506 . S
H76 C59 0.931 . S
H77 C60 0.931 . S
H78 C61 0.929 . S
H79 C62 0.930 . S
H80 C70 0.931 . S
H81 C71 0.931 . S
H82 C72 0.930 . S
H83 C73 0.929 . S
Eu84 N113 2.600 . S
Eu84 N119 2.562 . S
Eu84 O128 2.462 . S
Eu84 O129 2.373 . S
Eu84 O131 2.432 . S
Eu84 O132 2.291 . S
Eu84 O136 2.335 . S
Eu84 O139 2.372 . S
Eu84 C148 2.787 . S
C85 N86 1.365 . S
C85 C88 1.405 . S
C85 C92 1.448 . S
N86 C85 1.365 . S
N86 C89 1.319 . S
N86 Eu95 2.600 . S
C87 C89 1.397 . S
C87 C90 1.367 . S
C87 H107 0.931 . S
C88 C85 1.405 . S
C88 C90 1.403 . S
C88 C94 1.439 . S
C89 N86 1.319 . S
C89 C87 1.397 . S
C89 H100 0.930 . S
C90 C87 1.367 . S
C90 C88 1.403 . S
C90 H111 0.929 . S
C91 C92 1.430 . S
C91 C93 1.387 . S
C91 C97 1.404 . S
C92 C85 1.448 . S
C92 C91 1.430 . S
C92 N96 1.351 . S
C93 C91 1.387 . S
C93 C94 1.374 . S
C93 H108 0.931 . S
C94 C88 1.439 . S
C94 C93 1.374 . S
C94 H109 0.931 . S
Eu95 N86 2.600 . S
Eu95 N96 2.562 . S
Eu95 O130 2.335 . S
Eu95 O133 2.372 . S
Eu95 O134 2.462 . S
Eu95 O135 2.373 . S
Eu95 O137 2.432 . S
Eu95 O138 2.291 . S
Eu95 C159 2.787 . S
N96 C92 1.351 . S
N96 Eu95 2.562 . S
N96 C98 1.325 . S
C97 C91 1.404 . S
C97 C99 1.366 . S
C97 H105 0.930 . S
C98 N96 1.325 . S
C98 C99 1.416 . S
C98 H104 0.929 . S
C99 C97 1.366 . S
C99 C98 1.416 . S
C99 H101 0.930 . S
H100 C89 0.930 . S
H101 C99 0.930 . S
H102 C117 0.930 . S
H103 C124 0.930 . S
H104 C98 0.929 . S
H105 C97 0.930 . S
H106 C120 0.929 . S
H107 C87 0.931 . S
H108 C93 0.931 . S
H109 C94 0.931 . S
H110 C115 0.931 . S
H111 C90 0.929 . S
H112 C123 0.930 . S
N113 Eu84 2.600 . S
N113 C114 1.365 . S
N113 C117 1.319 . S
C114 N113 1.365 . S
C114 C116 1.405 . S
C114 C122 1.448 . S
C115 H110 0.931 . S
C115 C117 1.397 . S
C115 C118 1.367 . S
C116 C114 1.405 . S
C116 C118 1.403 . S
C116 C149 1.439 . S
C117 H102 0.930 . S
C117 N113 1.319 . S
C117 C115 1.397 . S
C118 C115 1.367 . S
C118 C116 1.403 . S
C118 H125 0.929 . S
N119 Eu84 2.562 . S
N119 C120 1.325 . S
N119 C122 1.351 . S
C120 H106 0.929 . S
C120 N119 1.325 . S
C120 C124 1.416 . S
C121 C122 1.430 . S
C121 C123 1.404 . S
C121 C150 1.387 . S
C122 C114 1.448 . S
C122 N119 1.351 . S
C122 C121 1.430 . S
C123 H112 0.930 . S
C123 C121 1.404 . S
C123 C124 1.366 . S
C124 H103 0.930 . S
C124 C120 1.416 . S
C124 C123 1.366 . S
H125 C118 0.929 . S
H126 C149 0.931 . S
H127 C150 0.931 . S
O128 Eu84 2.462 . S
O128 C148 1.252 . S
O129 Eu84 2.373 . S
O129 C140 1.249 . S
O130 Eu95 2.335 . S
O130 C140 1.264 . S
O131 Eu84 2.432 . S
O131 C148 1.268 . S
O132 Eu84 2.291 . S
O132 C147 1.255 . S
O133 Eu95 2.372 . S
O133 C147 1.257 . S
O134 Eu95 2.462 . S
O134 C159 1.252 . S
O135 Eu95 2.373 . S
O135 C151 1.249 . S
O136 Eu84 2.335 . S
O136 C151 1.264 . S
O137 Eu95 2.432 . S
O137 C159 1.268 . S
O138 Eu95 2.291 . S
O138 C158 1.255 . S
O139 Eu84 2.372 . S
O139 C158 1.257 . S
C140 O129 1.249 . S
C140 O130 1.264 . S
C141 C144 1.382 . S
C141 C146 1.415 . S
C141 C148 1.506 . S
C142 C143 1.398 . S
C142 C146 1.348 1_455 S
C143 C142 1.398 . S
C143 C145 1.372 . S
C143 H160 0.931 . S
C144 C141 1.382 . S
C144 C145 1.390 1_655 S
C144 H161 0.931 . S
C145 C143 1.372 . S
C145 C144 1.390 1_455 S
C145 H162 0.929 . S
C146 C141 1.415 . S
C146 C142 1.348 1_655 S
C146 H163 0.949 . S
C147 O132 1.255 . S
C147 O133 1.257 . S
C148 Eu84 2.787 . S
C148 O128 1.252 . S
C148 O131 1.268 . S
C148 C141 1.506 . S
C149 C116 1.439 . S
C149 H126 0.931 . S
C149 C150 1.374 . S
C150 C121 1.387 . S
C150 H127 0.931 . S
C150 C149 1.374 . S
C151 O135 1.249 . S
C151 O136 1.264 . S
C152 C155 1.382 . S
C152 C156 1.390 . S
C152 C159 1.506 . S
C153 C154 1.398 . S
C153 C156 1.392 . S
C154 C153 1.398 . S
C154 C157 1.372 . S
C154 H164 0.931 . S
C155 C152 1.382 . S
C155 C157 1.390 . S
C155 H165 0.931 . S
C156 C152 1.390 . S
C156 C153 1.392 . S
C156 H166 0.930 . S
C157 C154 1.372 . S
C157 C155 1.390 . S
C157 H167 0.929 . S
C158 O138 1.255 . S
C158 O139 1.257 . S
C159 Eu95 2.787 . S
C159 O134 1.252 . S
C159 O137 1.268 . S
C159 C152 1.506 . S
H160 C143 0.931 . S
H161 C144 0.931 . S
H162 C145 0.929 . S
H163 C146 0.949 . S
H164 C154 0.931 . S
H165 C155 0.931 . S
H166 C156 0.930 . S
H167 C157 0.929 . S
Eu168 N197 2.600 . S
Eu168 N203 2.562 . S
Eu168 O212 2.462 . S
Eu168 O213 2.373 . S
Eu168 O215 2.432 . S
Eu168 O216 2.291 . S
Eu168 O220 2.335 . S
Eu168 O223 2.372 . S
Eu168 C232 2.787 . S
C169 N170 1.365 . S
C169 C172 1.405 . S
C169 C176 1.448 . S
N170 C169 1.365 . S
N170 C173 1.319 . S
N170 Eu179 2.600 . S
C171 C173 1.397 . S
C171 C174 1.367 . S
C171 H191 0.931 . S
C172 C169 1.405 . S
C172 C174 1.403 . S
C172 C178 1.439 . S
C173 N170 1.319 . S
C173 C171 1.397 . S
C173 H184 0.930 . S
C174 C171 1.367 . S
C174 C172 1.403 . S
C174 H195 0.929 . S
C175 C176 1.430 . S
C175 C177 1.387 . S
C175 C181 1.404 . S
C176 C169 1.448 . S
C176 C175 1.430 . S
C176 N180 1.351 . S
C177 C175 1.387 . S
C177 C178 1.374 . S
C177 H192 0.931 . S
C178 C172 1.439 . S
C178 C177 1.374 . S
C178 H193 0.931 . S
Eu179 N170 2.600 . S
Eu179 N180 2.562 . S
Eu179 O214 2.335 . S
Eu179 O217 2.372 . S
Eu179 O218 2.462 . S
Eu179 O219 2.373 . S
Eu179 O221 2.432 . S
Eu179 O222 2.291 . S
Eu179 C243 2.787 . S
N180 C176 1.351 . S
N180 Eu179 2.562 . S
N180 C182 1.325 . S
C181 C175 1.404 . S
C181 C183 1.366 . S
C181 H189 0.930 . S
C182 N180 1.325 . S
C182 C183 1.416 . S
C182 H188 0.929 . S
C183 C181 1.366 . S
C183 C182 1.416 . S
C183 H185 0.930 . S
H184 C173 0.930 . S
H185 C183 0.930 . S
H186 C201 0.930 . S
H187 C208 0.930 . S
H188 C182 0.929 . S
H189 C181 0.930 . S
H190 C204 0.929 . S
H191 C171 0.931 . S
H192 C177 0.931 . S
H193 C178 0.931 . S
H194 C199 0.931 . S
H195 C174 0.929 . S
H196 C207 0.930 . S
N197 Eu168 2.600 . S
N197 C198 1.365 . S
N197 C201 1.319 . S
C198 N197 1.365 . S
C198 C200 1.405 . S
C198 C206 1.448 . S
C199 H194 0.931 . S
C199 C201 1.397 . S
C199 C202 1.367 . S
C200 C198 1.405 . S
C200 C202 1.403 . S
C200 C233 1.439 . S
C201 H186 0.930 . S
C201 N197 1.319 . S
C201 C199 1.397 . S
C202 C199 1.367 . S
C202 C200 1.403 . S
C202 H209 0.929 . S
N203 Eu168 2.562 . S
N203 C204 1.325 . S
N203 C206 1.351 . S
C204 H190 0.929 . S
C204 N203 1.325 . S
C204 C208 1.416 . S
C205 C206 1.430 . S
C205 C207 1.404 . S
C205 C234 1.387 . S
C206 C198 1.448 . S
C206 N203 1.351 . S
C206 C205 1.430 . S
C207 H196 0.930 . S
C207 C205 1.404 . S
C207 C208 1.366 . S
C208 H187 0.930 . S
C208 C204 1.416 . S
C208 C207 1.366 . S
H209 C202 0.929 . S
H210 C233 0.931 . S
H211 C234 0.931 . S
O212 Eu168 2.462 . S
O212 C232 1.252 . S
O213 Eu168 2.373 . S
O213 C224 1.249 . S
O214 Eu179 2.335 . S
O214 C224 1.264 . S
O215 Eu168 2.432 . S
O215 C232 1.268 . S
O216 Eu168 2.291 . S
O216 C231 1.255 . S
O217 Eu179 2.372 . S
O217 C231 1.257 . S
O218 Eu179 2.462 . S
O218 C243 1.252 . S
O219 Eu179 2.373 . S
O219 C235 1.249 . S
O220 Eu168 2.335 . S
O220 C235 1.264 . S
O221 Eu179 2.432 . S
O221 C243 1.268 . S
O222 Eu179 2.291 . S
O222 C242 1.255 . S
O223 Eu168 2.372 . S
O223 C242 1.257 . S
C224 O213 1.249 . S
C224 O214 1.264 . S
C225 C228 1.382 . S
C225 C230 1.403 . S
C225 C232 1.506 . S
C226 C227 1.398 . S
C226 C230 1.373 1_545 S
C227 C226 1.398 . S
C227 C229 1.372 . S
C227 H244 0.931 . S
C228 C225 1.382 . S
C228 C229 1.390 1_565 S
C228 H245 0.931 . S
C229 C227 1.372 . S
C229 C228 1.390 1_545 S
C229 H246 0.929 . S
C230 C225 1.403 . S
C230 C226 1.373 1_565 S
C230 H247 0.937 . S
C231 O216 1.255 . S
C231 O217 1.257 . S
C232 Eu168 2.787 . S
C232 O212 1.252 . S
C232 O215 1.268 . S
C232 C225 1.506 . S
C233 C200 1.439 . S
C233 H210 0.931 . S
C233 C234 1.374 . S
C234 C205 1.387 . S
C234 H211 0.931 . S
C234 C233 1.374 . S
C235 O219 1.249 . S
C235 O220 1.264 . S
C236 C239 1.382 . S
C236 C240 1.390 . S
C236 C243 1.506 . S
C237 C238 1.398 . S
C237 C240 1.392 . S
C238 C237 1.398 . S
C238 C241 1.372 . S
C238 H248 0.931 . S
C239 C236 1.382 . S
C239 C241 1.390 . S
C239 H249 0.931 . S
C240 C236 1.390 . S
C240 C237 1.392 . S
C240 H250 0.930 . S
C241 C238 1.372 . S
C241 C239 1.390 . S
C241 H251 0.929 . S
C242 O222 1.255 . S
C242 O223 1.257 . S
C243 Eu179 2.787 . S
C243 O218 1.252 . S
C243 O221 1.268 . S
C243 C236 1.506 . S
H244 C227 0.931 . S
H245 C228 0.931 . S
H246 C229 0.929 . S
H247 C230 0.937 . S
H248 C238 0.931 . S
H249 C239 0.931 . S
H250 C240 0.930 . S
H251 C241 0.929 . S
Eu252 N281 2.600 . S
Eu252 N287 2.562 . S
Eu252 O296 2.462 . S
Eu252 O297 2.373 . S
Eu252 O299 2.432 . S
Eu252 O300 2.291 . S
Eu252 O304 2.335 . S
Eu252 O307 2.372 . S
Eu252 C316 2.787 . S
C253 N254 1.365 . S
C253 C256 1.405 . S
C253 C260 1.448 . S
N254 C253 1.365 . S
N254 C257 1.319 . S
N254 Eu263 2.600 . S
C255 C257 1.397 . S
C255 C258 1.367 . S
C255 H275 0.931 . S
C256 C253 1.405 . S
C256 C258 1.403 . S
C256 C262 1.439 . S
C257 N254 1.319 . S
C257 C255 1.397 . S
C257 H268 0.930 . S
C258 C255 1.367 . S
C258 C256 1.403 . S
C258 H279 0.929 . S
C259 C260 1.430 . S
C259 C261 1.387 . S
C259 C265 1.404 . S
C260 C253 1.448 . S
C260 C259 1.430 . S
C260 N264 1.351 . S
C261 C259 1.387 . S
C261 C262 1.374 . S
C261 H276 0.931 . S
C262 C256 1.439 . S
C262 C261 1.374 . S
C262 H277 0.931 . S
Eu263 N254 2.600 . S
Eu263 N264 2.562 . S
Eu263 O298 2.335 . S
Eu263 O301 2.372 . S
Eu263 O302 2.462 . S
Eu263 O303 2.373 . S
Eu263 O305 2.432 . S
Eu263 O306 2.291 . S
Eu263 C327 2.787 . S
N264 C260 1.351 . S
N264 Eu263 2.562 . S
N264 C266 1.325 . S
C265 C259 1.404 . S
C265 C267 1.366 . S
C265 H273 0.930 . S
C266 N264 1.325 . S
C266 C267 1.416 . S
C266 H272 0.929 . S
C267 C265 1.366 . S
C267 C266 1.416 . S
C267 H269 0.930 . S
H268 C257 0.930 . S
H269 C267 0.930 . S
H270 C285 0.930 . S
H271 C292 0.930 . S
H272 C266 0.929 . S
H273 C265 0.930 . S
H274 C288 0.929 . S
H275 C255 0.931 . S
H276 C261 0.931 . S
H277 C262 0.931 . S
H278 C283 0.931 . S
H279 C258 0.929 . S
H280 C291 0.930 . S
N281 Eu252 2.600 . S
N281 C282 1.365 . S
N281 C285 1.319 . S
C282 N281 1.365 . S
C282 C284 1.405 . S
C282 C290 1.448 . S
C283 H278 0.931 . S
C283 C285 1.397 . S
C283 C286 1.367 . S
C284 C282 1.405 . S
C284 C286 1.403 . S
C284 C317 1.439 . S
C285 H270 0.930 . S
C285 N281 1.319 . S
C285 C283 1.397 . S
C286 C283 1.367 . S
C286 C284 1.403 . S
C286 H293 0.929 . S
N287 Eu252 2.562 . S
N287 C288 1.325 . S
N287 C290 1.351 . S
C288 H274 0.929 . S
C288 N287 1.325 . S
C288 C292 1.416 . S
C289 C290 1.430 . S
C289 C291 1.404 . S
C289 C318 1.387 . S
C290 C282 1.448 . S
C290 N287 1.351 . S
C290 C289 1.430 . S
C291 H280 0.930 . S
C291 C289 1.404 . S
C291 C292 1.366 . S
C292 H271 0.930 . S
C292 C288 1.416 . S
C292 C291 1.366 . S
H293 C286 0.929 . S
H294 C317 0.931 . S
H295 C318 0.931 . S
O296 Eu252 2.462 . S
O296 C316 1.252 . S
O297 Eu252 2.373 . S
O297 C308 1.249 . S
O298 Eu263 2.335 . S
O298 C308 1.264 . S
O299 Eu252 2.432 . S
O299 C316 1.268 . S
O300 Eu252 2.291 . S
O300 C315 1.255 . S
O301 Eu263 2.372 . S
O301 C315 1.257 . S
O302 Eu263 2.462 . S
O302 C327 1.252 . S
O303 Eu263 2.373 . S
O303 C319 1.249 . S
O304 Eu252 2.335 . S
O304 C319 1.264 . S
O305 Eu263 2.432 . S
O305 C327 1.268 . S
O306 Eu263 2.291 . S
O306 C326 1.255 . S
O307 Eu252 2.372 . S
O307 C326 1.257 . S
C308 O297 1.249 . S
C308 O298 1.264 . S
C309 C312 1.382 . S
C309 C314 1.390 . S
C309 C316 1.506 . S
C310 C311 1.398 . S
C310 C314 1.392 . S
C311 C310 1.398 . S
C311 C313 1.372 . S
C311 H328 0.931 . S
C312 C309 1.382 . S
C312 C313 1.390 . S
C312 H329 0.931 . S
C313 C311 1.372 . S
C313 C312 1.390 . S
C313 H330 0.929 . S
C314 C309 1.390 . S
C314 C310 1.392 . S
C314 H331 0.930 . S
C315 O300 1.255 . S
C315 O301 1.257 . S
C316 Eu252 2.787 . S
C316 O296 1.252 . S
C316 O299 1.268 . S
C316 C309 1.506 . S
C317 C284 1.439 . S
C317 H294 0.931 . S
C317 C318 1.374 . S
C318 C289 1.387 . S
C318 H295 0.931 . S
C318 C317 1.374 . S
C319 O303 1.249 . S
C319 O304 1.264 . S
C320 C323 1.382 . S
C320 C324 1.390 . S
C320 C327 1.506 . S
C321 C322 1.398 . S
C321 C324 1.392 . S
C322 C321 1.398 . S
C322 C325 1.372 . S
C322 H332 0.931 . S
C323 C320 1.382 . S
C323 C325 1.390 . S
C323 H333 0.931 . S
C324 C320 1.390 . S
C324 C321 1.392 . S
C324 H334 0.930 . S
C325 C322 1.372 . S
C325 C323 1.390 . S
C325 H335 0.929 . S
C326 O306 1.255 . S
C326 O307 1.257 . S
C327 Eu263 2.787 . S
C327 O302 1.252 . S
C327 O305 1.268 . S
C327 C320 1.506 . S
H328 C311 0.931 . S
H329 C312 0.931 . S
H330 C313 0.929 . S
H331 C314 0.930 . S
H332 C322 0.931 . S
H333 C323 0.931 . S
H334 C324 0.930 . S
H335 C325 0.929 . S
Eu336 N365 2.600 . S
Eu336 N371 2.562 . S
Eu336 O380 2.462 . S
Eu336 O381 2.373 . S
Eu336 O383 2.432 . S
Eu336 O384 2.291 . S
Eu336 O388 2.335 . S
Eu336 O391 2.372 . S
Eu336 C400 2.787 . S
C337 N338 1.365 . S
C337 C340 1.405 . S
C337 C344 1.448 . S
N338 C337 1.365 . S
N338 C341 1.319 . S
N338 Eu347 2.600 . S
C339 C341 1.397 . S
C339 C342 1.367 . S
C339 H359 0.931 . S
C340 C337 1.405 . S
C340 C342 1.403 . S
C340 C346 1.439 . S
C341 N338 1.319 . S
C341 C339 1.397 . S
C341 H352 0.930 . S
C342 C339 1.367 . S
C342 C340 1.403 . S
C342 H363 0.929 . S
C343 C344 1.430 . S
C343 C345 1.387 . S
C343 C349 1.404 . S
C344 C337 1.448 . S
C344 C343 1.430 . S
C344 N348 1.351 . S
C345 C343 1.387 . S
C345 C346 1.374 . S
C345 H360 0.931 . S
C346 C340 1.439 . S
C346 C345 1.374 . S
C346 H361 0.931 . S
Eu347 N338 2.600 . S
Eu347 N348 2.562 . S
Eu347 O382 2.335 . S
Eu347 O385 2.372 . S
Eu347 O386 2.462 . S
Eu347 O387 2.373 . S
Eu347 O389 2.432 . S
Eu347 O390 2.291 . S
Eu347 C411 2.787 . S
N348 C344 1.351 . S
N348 Eu347 2.562 . S
N348 C350 1.325 . S
C349 C343 1.404 . S
C349 C351 1.366 . S
C349 H357 0.930 . S
C350 N348 1.325 . S
C350 C351 1.416 . S
C350 H356 0.929 . S
C351 C349 1.366 . S
C351 C350 1.416 . S
C351 H353 0.930 . S
H352 C341 0.930 . S
H353 C351 0.930 . S
H354 C369 0.930 . S
H355 C376 0.930 . S
H356 C350 0.929 . S
H357 C349 0.930 . S
H358 C372 0.929 . S
H359 C339 0.931 . S
H360 C345 0.931 . S
H361 C346 0.931 . S
H362 C367 0.931 . S
H363 C342 0.929 . S
H364 C375 0.930 . S
N365 Eu336 2.600 . S
N365 C366 1.365 . S
N365 C369 1.319 . S
C366 N365 1.365 . S
C366 C368 1.405 . S
C366 C374 1.448 . S
C367 H362 0.931 . S
C367 C369 1.397 . S
C367 C370 1.367 . S
C368 C366 1.405 . S
C368 C370 1.403 . S
C368 C401 1.439 . S
C369 H354 0.930 . S
C369 N365 1.319 . S
C369 C367 1.397 . S
C370 C367 1.367 . S
C370 C368 1.403 . S
C370 H377 0.929 . S
N371 Eu336 2.562 . S
N371 C372 1.325 . S
N371 C374 1.351 . S
C372 H358 0.929 . S
C372 N371 1.325 . S
C372 C376 1.416 . S
C373 C374 1.430 . S
C373 C375 1.404 . S
C373 C402 1.387 . S
C374 C366 1.448 . S
C374 N371 1.351 . S
C374 C373 1.430 . S
C375 H364 0.930 . S
C375 C373 1.404 . S
C375 C376 1.366 . S
C376 H355 0.930 . S
C376 C372 1.416 . S
C376 C375 1.366 . S
H377 C370 0.929 . S
H378 C401 0.931 . S
H379 C402 0.931 . S
O380 Eu336 2.462 . S
O380 C400 1.252 . S
O381 Eu336 2.373 . S
O381 C392 1.249 . S
O382 Eu347 2.335 . S
O382 C392 1.264 . S
O383 Eu336 2.432 . S
O383 C400 1.268 . S
O384 Eu336 2.291 . S
O384 C399 1.255 . S
O385 Eu347 2.372 . S
O385 C399 1.257 . S
O386 Eu347 2.462 . S
O386 C411 1.252 . S
O387 Eu347 2.373 . S
O387 C403 1.249 . S
O388 Eu336 2.335 . S
O388 C403 1.264 . S
O389 Eu347 2.432 . S
O389 C411 1.268 . S
O390 Eu347 2.291 . S
O390 C410 1.255 . S
O391 Eu336 2.372 . S
O391 C410 1.257 . S
C392 O381 1.249 . S
C392 O382 1.264 . S
C393 C396 1.382 . S
C393 C398 1.415 . S
C393 C400 1.506 . S
C394 C395 1.398 . S
C394 C398 1.348 1_655 S
C395 C394 1.398 . S
C395 C397 1.372 . S
C395 H412 0.931 . S
C396 C393 1.382 . S
C396 C397 1.390 1_455 S
C396 H413 0.931 . S
C397 C395 1.372 . S
C397 C396 1.390 1_655 S
C397 H414 0.929 . S
C398 C393 1.415 . S
C398 C394 1.348 1_455 S
C398 H415 0.949 . S
C399 O384 1.255 . S
C399 O385 1.257 . S
C400 Eu336 2.787 . S
C400 O380 1.252 . S
C400 O383 1.268 . S
C400 C393 1.506 . S
C401 C368 1.439 . S
C401 H378 0.931 . S
C401 C402 1.374 . S
C402 C373 1.387 . S
C402 H379 0.931 . S
C402 C401 1.374 . S
C403 O387 1.249 . S
C403 O388 1.264 . S
C404 C407 1.382 . S
C404 C408 1.390 . S
C404 C411 1.506 . S
C405 C406 1.398 . S
C405 C408 1.392 . S
C406 C405 1.398 . S
C406 C409 1.372 . S
C406 H416 0.931 . S
C407 C404 1.382 . S
C407 C409 1.390 . S
C407 H417 0.931 . S
C408 C404 1.390 . S
C408 C405 1.392 . S
C408 H418 0.930 . S
C409 C406 1.372 . S
C409 C407 1.390 . S
C409 H419 0.929 . S
C410 O390 1.255 . S
C410 O391 1.257 . S
C411 Eu347 2.787 . S
C411 O386 1.252 . S
C411 O389 1.268 . S
C411 C404 1.506 . S
H412 C395 0.931 . S
H413 C396 0.931 . S
H414 C397 0.929 . S
H415 C398 0.949 . S
H416 C406 0.931 . S
H417 C407 0.931 . S
H418 C408 0.930 . S
H419 C409 0.929 . S
Eu420 N449 2.600 . S
Eu420 N455 2.562 . S
Eu420 O464 2.462 . S
Eu420 O465 2.373 . S
Eu420 O467 2.432 . S
Eu420 O468 2.291 . S
Eu420 O472 2.335 . S
Eu420 O475 2.372 . S
Eu420 C484 2.787 . S
C421 N422 1.365 . S
C421 C424 1.405 . S
C421 C428 1.448 . S
N422 C421 1.365 . S
N422 C425 1.319 . S
N422 Eu431 2.600 . S
C423 C425 1.397 . S
C423 C426 1.367 . S
C423 H443 0.931 . S
C424 C421 1.405 . S
C424 C426 1.403 . S
C424 C430 1.439 . S
C425 N422 1.319 . S
C425 C423 1.397 . S
C425 H436 0.930 . S
C426 C423 1.367 . S
C426 C424 1.403 . S
C426 H447 0.929 . S
C427 C428 1.430 . S
C427 C429 1.387 . S
C427 C433 1.404 . S
C428 C421 1.448 . S
C428 C427 1.430 . S
C428 N432 1.351 . S
C429 C427 1.387 . S
C429 C430 1.374 . S
C429 H444 0.931 . S
C430 C424 1.439 . S
C430 C429 1.374 . S
C430 H445 0.931 . S
Eu431 N422 2.600 . S
Eu431 N432 2.562 . S
Eu431 O466 2.335 . S
Eu431 O469 2.372 . S
Eu431 O470 2.462 . S
Eu431 O471 2.373 . S
Eu431 O473 2.432 . S
Eu431 O474 2.291 . S
Eu431 C495 2.787 . S
N432 C428 1.351 . S
N432 Eu431 2.562 . S
N432 C434 1.325 . S
C433 C427 1.404 . S
C433 C435 1.366 . S
C433 H441 0.930 . S
C434 N432 1.325 . S
C434 C435 1.416 . S
C434 H440 0.929 . S
C435 C433 1.366 . S
C435 C434 1.416 . S
C435 H437 0.930 . S
H436 C425 0.930 . S
H437 C435 0.930 . S
H438 C453 0.930 . S
H439 C460 0.930 . S
H440 C434 0.929 . S
H441 C433 0.930 . S
H442 C456 0.929 . S
H443 C423 0.931 . S
H444 C429 0.931 . S
H445 C430 0.931 . S
H446 C451 0.931 . S
H447 C426 0.929 . S
H448 C459 0.930 . S
N449 Eu420 2.600 . S
N449 C450 1.365 . S
N449 C453 1.319 . S
C450 N449 1.365 . S
C450 C452 1.405 . S
C450 C458 1.448 . S
C451 H446 0.931 . S
C451 C453 1.397 . S
C451 C454 1.367 . S
C452 C450 1.405 . S
C452 C454 1.403 . S
C452 C485 1.439 . S
C453 H438 0.930 . S
C453 N449 1.319 . S
C453 C451 1.397 . S
C454 C451 1.367 . S
C454 C452 1.403 . S
C454 H461 0.929 . S
N455 Eu420 2.562 . S
N455 C456 1.325 . S
N455 C458 1.351 . S
C456 H442 0.929 . S
C456 N455 1.325 . S
C456 C460 1.416 . S
C457 C458 1.430 . S
C457 C459 1.404 . S
C457 C486 1.387 . S
C458 C450 1.448 . S
C458 N455 1.351 . S
C458 C457 1.430 . S
C459 H448 0.930 . S
C459 C457 1.404 . S
C459 C460 1.366 . S
C460 H439 0.930 . S
C460 C456 1.416 . S
C460 C459 1.366 . S
H461 C454 0.929 . S
H462 C485 0.931 . S
H463 C486 0.931 . S
O464 Eu420 2.462 . S
O464 C484 1.252 . S
O465 Eu420 2.373 . S
O465 C476 1.249 . S
O466 Eu431 2.335 . S
O466 C476 1.264 . S
O467 Eu420 2.432 . S
O467 C484 1.268 . S
O468 Eu420 2.291 . S
O468 C483 1.255 . S
O469 Eu431 2.372 . S
O469 C483 1.257 . S
O470 Eu431 2.462 . S
O470 C495 1.252 . S
O471 Eu431 2.373 . S
O471 C487 1.249 . S
O472 Eu420 2.335 . S
O472 C487 1.264 . S
O473 Eu431 2.432 . S
O473 C495 1.268 . S
O474 Eu431 2.291 . S
O474 C494 1.255 . S
O475 Eu420 2.372 . S
O475 C494 1.257 . S
C476 O465 1.249 . S
C476 O466 1.264 . S
C477 C480 1.382 . S
C477 C482 1.403 . S
C477 C484 1.506 . S
C478 C479 1.398 . S
C478 C482 1.373 1_565 S
C479 C478 1.398 . S
C479 C481 1.372 . S
C479 H496 0.931 . S
C480 C477 1.382 . S
C480 C481 1.390 1_545 S
C480 H497 0.931 . S
C481 C479 1.372 . S
C481 C480 1.390 1_565 S
C481 H498 0.929 . S
C482 C477 1.403 . S
C482 C478 1.373 1_545 S
C482 H499 0.937 . S
C483 O468 1.255 . S
C483 O469 1.257 . S
C484 Eu420 2.787 . S
C484 O464 1.252 . S
C484 O467 1.268 . S
C484 C477 1.506 . S
C485 C452 1.439 . S
C485 H462 0.931 . S
C485 C486 1.374 . S
C486 C457 1.387 . S
C486 H463 0.931 . S
C486 C485 1.374 . S
C487 O471 1.249 . S
C487 O472 1.264 . S
C488 C491 1.382 . S
C488 C492 1.390 . S
C488 C495 1.506 . S
C489 C490 1.398 . S
C489 C492 1.392 . S
C490 C489 1.398 . S
C490 C493 1.372 . S
C490 H500 0.931 . S
C491 C488 1.382 . S
C491 C493 1.390 . S
C491 H501 0.931 . S
C492 C488 1.390 . S
C492 C489 1.392 . S
C492 H502 0.930 . S
C493 C490 1.372 . S
C493 C491 1.390 . S
C493 H503 0.929 . S
C494 O474 1.255 . S
C494 O475 1.257 . S
C495 Eu431 2.787 . S
C495 O470 1.252 . S
C495 O473 1.268 . S
C495 C488 1.506 . S
H496 C479 0.931 . S
H497 C480 0.931 . S
H498 C481 0.929 . S
H499 C482 0.937 . S
H500 C490 0.931 . S
H501 C491 0.931 . S
H502 C492 0.930 . S
H503 C493 0.929 . S
Eu504 N533 2.600 . S
Eu504 N539 2.562 . S
Eu504 O548 2.462 . S
Eu504 O549 2.373 . S
Eu504 O551 2.432 . S
Eu504 O552 2.291 . S
Eu504 O556 2.335 . S
Eu504 O559 2.372 . S
Eu504 C568 2.787 . S
C505 N506 1.365 . S
C505 C508 1.405 . S
C505 C512 1.448 . S
N506 C505 1.365 . S
N506 C509 1.319 . S
N506 Eu515 2.600 . S
C507 C509 1.397 . S
C507 C510 1.367 . S
C507 H527 0.931 . S
C508 C505 1.405 . S
C508 C510 1.403 . S
C508 C514 1.439 . S
C509 N506 1.319 . S
C509 C507 1.397 . S
C509 H520 0.930 . S
C510 C507 1.367 . S
C510 C508 1.403 . S
C510 H531 0.929 . S
C511 C512 1.430 . S
C511 C513 1.387 . S
C511 C517 1.404 . S
C512 C505 1.448 . S
C512 C511 1.430 . S
C512 N516 1.351 . S
C513 C511 1.387 . S
C513 C514 1.374 . S
C513 H528 0.931 . S
C514 C508 1.439 . S
C514 C513 1.374 . S
C514 H529 0.931 . S
Eu515 N506 2.600 . S
Eu515 N516 2.562 . S
Eu515 O550 2.335 . S
Eu515 O553 2.372 . S
Eu515 O554 2.462 . S
Eu515 O555 2.373 . S
Eu515 O557 2.432 . S
Eu515 O558 2.291 . S
Eu515 C579 2.787 . S
N516 C512 1.351 . S
N516 Eu515 2.562 . S
N516 C518 1.325 . S
C517 C511 1.404 . S
C517 C519 1.366 . S
C517 H525 0.930 . S
C518 N516 1.325 . S
C518 C519 1.416 . S
C518 H524 0.929 . S
C519 C517 1.366 . S
C519 C518 1.416 . S
C519 H521 0.930 . S
H520 C509 0.930 . S
H521 C519 0.930 . S
H522 C537 0.930 . S
H523 C544 0.930 . S
H524 C518 0.929 . S
H525 C517 0.930 . S
H526 C540 0.929 . S
H527 C507 0.931 . S
H528 C513 0.931 . S
H529 C514 0.931 . S
H530 C535 0.931 . S
H531 C510 0.929 . S
H532 C543 0.930 . S
N533 Eu504 2.600 . S
N533 C534 1.365 . S
N533 C537 1.319 . S
C534 N533 1.365 . S
C534 C536 1.405 . S
C534 C542 1.448 . S
C535 H530 0.931 . S
C535 C537 1.397 . S
C535 C538 1.367 . S
C536 C534 1.405 . S
C536 C538 1.403 . S
C536 C569 1.439 . S
C537 H522 0.930 . S
C537 N533 1.319 . S
C537 C535 1.397 . S
C538 C535 1.367 . S
C538 C536 1.403 . S
C538 H545 0.929 . S
N539 Eu504 2.562 . S
N539 C540 1.325 . S
N539 C542 1.351 . S
C540 H526 0.929 . S
C540 N539 1.325 . S
C540 C544 1.416 . S
C541 C542 1.430 . S
C541 C543 1.404 . S
C541 C570 1.387 . S
C542 C534 1.448 . S
C542 N539 1.351 . S
C542 C541 1.430 . S
C543 H532 0.930 . S
C543 C541 1.404 . S
C543 C544 1.366 . S
C544 H523 0.930 . S
C544 C540 1.416 . S
C544 C543 1.366 . S
H545 C538 0.929 . S
H546 C569 0.931 . S
H547 C570 0.931 . S
O548 Eu504 2.462 . S
O548 C568 1.252 . S
O549 Eu504 2.373 . S
O549 C560 1.249 . S
O550 Eu515 2.335 . S
O550 C560 1.264 . S
O551 Eu504 2.432 . S
O551 C568 1.268 . S
O552 Eu504 2.291 . S
O552 C567 1.255 . S
O553 Eu515 2.372 . S
O553 C567 1.257 . S
O554 Eu515 2.462 . S
O554 C579 1.252 . S
O555 Eu515 2.373 . S
O555 C571 1.249 . S
O556 Eu504 2.335 . S
O556 C571 1.264 . S
O557 Eu515 2.432 . S
O557 C579 1.268 . S
O558 Eu515 2.291 . S
O558 C578 1.255 . S
O559 Eu504 2.372 . S
O559 C578 1.257 . S
C560 O549 1.249 . S
C560 O550 1.264 . S
C561 C564 1.382 . S
C561 C566 1.390 . S
C561 C568 1.506 . S
C562 C563 1.398 . S
C562 C566 1.392 . S
C563 C562 1.398 . S
C563 C565 1.372 . S
C563 H580 0.931 . S
C564 C561 1.382 . S
C564 C565 1.390 . S
C564 H581 0.931 . S
C565 C563 1.372 . S
C565 C564 1.390 . S
C565 H582 0.929 . S
C566 C561 1.390 . S
C566 C562 1.392 . S
C566 H583 0.930 . S
C567 O552 1.255 . S
C567 O553 1.257 . S
C568 Eu504 2.787 . S
C568 O548 1.252 . S
C568 O551 1.268 . S
C568 C561 1.506 . S
C569 C536 1.439 . S
C569 H546 0.931 . S
C569 C570 1.374 . S
C570 C541 1.387 . S
C570 H547 0.931 . S
C570 C569 1.374 . S
C571 O555 1.249 . S
C571 O556 1.264 . S
C572 C575 1.382 . S
C572 C576 1.390 . S
C572 C579 1.506 . S
C573 C574 1.398 . S
C573 C576 1.392 . S
C574 C573 1.398 . S
C574 C577 1.372 . S
C574 H584 0.931 . S
C575 C572 1.382 . S
C575 C577 1.390 . S
C575 H585 0.931 . S
C576 C572 1.390 . S
C576 C573 1.392 . S
C576 H586 0.930 . S
C577 C574 1.372 . S
C577 C575 1.390 . S
C577 H587 0.929 . S
C578 O558 1.255 . S
C578 O559 1.257 . S
C579 Eu515 2.787 . S
C579 O554 1.252 . S
C579 O557 1.268 . S
C579 C572 1.506 . S
H580 C563 0.931 . S
H581 C564 0.931 . S
H582 C565 0.929 . S
H583 C566 0.930 . S
H584 C574 0.931 . S
H585 C575 0.931 . S
H586 C576 0.930 . S
H587 C577 0.929 . S
Eu588 N617 2.600 . S
Eu588 N623 2.562 . S
Eu588 O632 2.462 . S
Eu588 O633 2.373 . S
Eu588 O635 2.432 . S
Eu588 O636 2.291 . S
Eu588 O640 2.335 . S
Eu588 O643 2.372 . S
Eu588 C652 2.787 . S
C589 N590 1.365 . S
C589 C592 1.405 . S
C589 C596 1.448 . S
N590 C589 1.365 . S
N590 C593 1.319 . S
N590 Eu599 2.600 . S
C591 C593 1.397 . S
C591 C594 1.367 . S
C591 H611 0.931 . S
C592 C589 1.405 . S
C592 C594 1.403 . S
C592 C598 1.439 . S
C593 N590 1.319 . S
C593 C591 1.397 . S
C593 H604 0.930 . S
C594 C591 1.367 . S
C594 C592 1.403 . S
C594 H615 0.929 . S
C595 C596 1.430 . S
C595 C597 1.387 . S
C595 C601 1.404 . S
C596 C589 1.448 . S
C596 C595 1.430 . S
C596 N600 1.351 . S
C597 C595 1.387 . S
C597 C598 1.374 . S
C597 H612 0.931 . S
C598 C592 1.439 . S
C598 C597 1.374 . S
C598 H613 0.931 . S
Eu599 N590 2.600 . S
Eu599 N600 2.562 . S
Eu599 O634 2.335 . S
Eu599 O637 2.372 . S
Eu599 O638 2.462 . S
Eu599 O639 2.373 . S
Eu599 O641 2.432 . S
Eu599 O642 2.291 . S
Eu599 C663 2.787 . S
N600 C596 1.351 . S
N600 Eu599 2.562 . S
N600 C602 1.325 . S
C601 C595 1.404 . S
C601 C603 1.366 . S
C601 H609 0.930 . S
C602 N600 1.325 . S
C602 C603 1.416 . S
C602 H608 0.929 . S
C603 C601 1.366 . S
C603 C602 1.416 . S
C603 H605 0.930 . S
H604 C593 0.930 . S
H605 C603 0.930 . S
H606 C621 0.930 . S
H607 C628 0.930 . S
H608 C602 0.929 . S
H609 C601 0.930 . S
H610 C624 0.929 . S
H611 C591 0.931 . S
H612 C597 0.931 . S
H613 C598 0.931 . S
H614 C619 0.931 . S
H615 C594 0.929 . S
H616 C627 0.930 . S
N617 Eu588 2.600 . S
N617 C618 1.365 . S
N617 C621 1.319 . S
C618 N617 1.365 . S
C618 C620 1.405 . S
C618 C626 1.448 . S
C619 H614 0.931 . S
C619 C621 1.397 . S
C619 C622 1.367 . S
C620 C618 1.405 . S
C620 C622 1.403 . S
C620 C653 1.439 . S
C621 H606 0.930 . S
C621 N617 1.319 . S
C621 C619 1.397 . S
C622 C619 1.367 . S
C622 C620 1.403 . S
C622 H629 0.929 . S
N623 Eu588 2.562 . S
N623 C624 1.325 . S
N623 C626 1.351 . S
C624 H610 0.929 . S
C624 N623 1.325 . S
C624 C628 1.416 . S
C625 C626 1.430 . S
C625 C627 1.404 . S
C625 C654 1.387 . S
C626 C618 1.448 . S
C626 N623 1.351 . S
C626 C625 1.430 . S
C627 H616 0.930 . S
C627 C625 1.404 . S
C627 C628 1.366 . S
C628 H607 0.930 . S
C628 C624 1.416 . S
C628 C627 1.366 . S
H629 C622 0.929 . S
H630 C653 0.931 . S
H631 C654 0.931 . S
O632 Eu588 2.462 . S
O632 C652 1.252 . S
O633 Eu588 2.373 . S
O633 C644 1.249 . S
O634 Eu599 2.335 . S
O634 C644 1.264 . S
O635 Eu588 2.432 . S
O635 C652 1.268 . S
O636 Eu588 2.291 . S
O636 C651 1.255 . S
O637 Eu599 2.372 . S
O637 C651 1.257 . S
O638 Eu599 2.462 . S
O638 C663 1.252 . S
O639 Eu599 2.373 . S
O639 C655 1.249 . S
O640 Eu588 2.335 . S
O640 C655 1.264 . S
O641 Eu599 2.432 . S
O641 C663 1.268 . S
O642 Eu599 2.291 . S
O642 C662 1.255 . S
O643 Eu588 2.372 . S
O643 C662 1.257 . S
C644 O633 1.249 . S
C644 O634 1.264 . S
C645 C648 1.382 . S
C645 C650 1.403 . S
C645 C652 1.506 . S
C646 C647 1.398 . S
C646 C650 1.373 1_455 S
C647 C646 1.398 . S
C647 C649 1.372 . S
C647 H664 0.931 . S
C648 C645 1.382 . S
C648 C649 1.390 1_655 S
C648 H665 0.931 . S
C649 C647 1.372 . S
C649 C648 1.390 1_455 S
C649 H666 0.929 . S
C650 C645 1.403 . S
C650 C646 1.373 1_655 S
C650 H667 0.937 . S
C651 O636 1.255 . S
C651 O637 1.257 . S
C652 Eu588 2.787 . S
C652 O632 1.252 . S
C652 O635 1.268 . S
C652 C645 1.506 . S
C653 C620 1.439 . S
C653 H630 0.931 . S
C653 C654 1.374 . S
C654 C625 1.387 . S
C654 H631 0.931 . S
C654 C653 1.374 . S
C655 O639 1.249 . S
C655 O640 1.264 . S
C656 C659 1.382 . S
C656 C660 1.390 . S
C656 C663 1.506 . S
C657 C658 1.398 . S
C657 C660 1.392 . S
C658 C657 1.398 . S
C658 C661 1.372 . S
C658 H668 0.931 . S
C659 C656 1.382 . S
C659 C661 1.390 . S
C659 H669 0.931 . S
C660 C656 1.390 . S
C660 C657 1.392 . S
C660 H670 0.930 . S
C661 C658 1.372 . S
C661 C659 1.390 . S
C661 H671 0.929 . S
C662 O642 1.255 . S
C662 O643 1.257 . S
C663 Eu599 2.787 . S
C663 O638 1.252 . S
C663 O641 1.268 . S
C663 C656 1.506 . S
H664 C647 0.931 . S
H665 C648 0.931 . S
H666 C649 0.929 . S
H667 C650 0.937 . S
H668 C658 0.931 . S
H669 C659 0.931 . S
H670 C660 0.930 . S
H671 C661 0.929 . S
Eu672 N701 2.600 . S
Eu672 N707 2.562 . S
Eu672 O716 2.462 . S
Eu672 O717 2.373 . S
Eu672 O719 2.432 . S
Eu672 O720 2.291 . S
Eu672 O724 2.335 . S
Eu672 O727 2.372 . S
Eu672 C736 2.787 . S
C673 N674 1.365 . S
C673 C676 1.405 . S
C673 C680 1.448 . S
N674 C673 1.365 . S
N674 C677 1.319 . S
N674 Eu683 2.600 . S
C675 C677 1.397 . S
C675 C678 1.367 . S
C675 H695 0.931 . S
C676 C673 1.405 . S
C676 C678 1.403 . S
C676 C682 1.439 . S
C677 N674 1.319 . S
C677 C675 1.397 . S
C677 H688 0.930 . S
C678 C675 1.367 . S
C678 C676 1.403 . S
C678 H699 0.929 . S
C679 C680 1.430 . S
C679 C681 1.387 . S
C679 C685 1.404 . S
C680 C673 1.448 . S
C680 C679 1.430 . S
C680 N684 1.351 . S
C681 C679 1.387 . S
C681 C682 1.374 . S
C681 H696 0.931 . S
C682 C676 1.439 . S
C682 C681 1.374 . S
C682 H697 0.931 . S
Eu683 N674 2.600 . S
Eu683 N684 2.562 . S
Eu683 O718 2.335 . S
Eu683 O721 2.372 . S
Eu683 O722 2.462 . S
Eu683 O723 2.373 . S
Eu683 O725 2.432 . S
Eu683 O726 2.291 . S
Eu683 C747 2.787 . S
N684 C680 1.351 . S
N684 Eu683 2.562 . S
N684 C686 1.325 . S
C685 C679 1.404 . S
C685 C687 1.366 . S
C685 H693 0.930 . S
C686 N684 1.325 . S
C686 C687 1.416 . S
C686 H692 0.929 . S
C687 C685 1.366 . S
C687 C686 1.416 . S
C687 H689 0.930 . S
H688 C677 0.930 . S
H689 C687 0.930 . S
H690 C705 0.930 . S
H691 C712 0.930 . S
H692 C686 0.929 . S
H693 C685 0.930 . S
H694 C708 0.929 . S
H695 C675 0.931 . S
H696 C681 0.931 . S
H697 C682 0.931 . S
H698 C703 0.931 . S
H699 C678 0.929 . S
H700 C711 0.930 . S
N701 Eu672 2.600 . S
N701 C702 1.365 . S
N701 C705 1.319 . S
C702 N701 1.365 . S
C702 C704 1.405 . S
C702 C710 1.448 . S
C703 H698 0.931 . S
C703 C705 1.397 . S
C703 C706 1.367 . S
C704 C702 1.405 . S
C704 C706 1.403 . S
C704 C737 1.439 . S
C705 H690 0.930 . S
C705 N701 1.319 . S
C705 C703 1.397 . S
C706 C703 1.367 . S
C706 C704 1.403 . S
C706 H713 0.929 . S
N707 Eu672 2.562 . S
N707 C708 1.325 . S
N707 C710 1.351 . S
C708 H694 0.929 . S
C708 N707 1.325 . S
C708 C712 1.416 . S
C709 C710 1.430 . S
C709 C711 1.404 . S
C709 C738 1.387 . S
C710 C702 1.448 . S
C710 N707 1.351 . S
C710 C709 1.430 . S
C711 H700 0.930 . S
C711 C709 1.404 . S
C711 C712 1.366 . S
C712 H691 0.930 . S
C712 C708 1.416 . S
C712 C711 1.366 . S
H713 C706 0.929 . S
H714 C737 0.931 . S
H715 C738 0.931 . S
O716 Eu672 2.462 . S
O716 C736 1.252 . S
O717 Eu672 2.373 . S
O717 C728 1.249 . S
O718 Eu683 2.335 . S
O718 C728 1.264 . S
O719 Eu672 2.432 . S
O719 C736 1.268 . S
O720 Eu672 2.291 . S
O720 C735 1.255 . S
O721 Eu683 2.372 . S
O721 C735 1.257 . S
O722 Eu683 2.462 . S
O722 C747 1.252 . S
O723 Eu683 2.373 . S
O723 C739 1.249 . S
O724 Eu672 2.335 . S
O724 C739 1.264 . S
O725 Eu683 2.432 . S
O725 C747 1.268 . S
O726 Eu683 2.291 . S
O726 C746 1.255 . S
O727 Eu672 2.372 . S
O727 C746 1.257 . S
C728 O717 1.249 . S
C728 O718 1.264 . S
C729 C732 1.382 . S
C729 C734 1.415 . S
C729 C736 1.506 . S
C730 C731 1.398 . S
C730 C734 1.348 1_545 S
C731 C730 1.398 . S
C731 C733 1.372 . S
C731 H748 0.931 . S
C732 C729 1.382 . S
C732 C733 1.390 1_565 S
C732 H749 0.931 . S
C733 C731 1.372 . S
C733 C732 1.390 1_545 S
C733 H750 0.929 . S
C734 C729 1.415 . S
C734 C730 1.348 1_565 S
C734 H751 0.949 . S
C735 O720 1.255 . S
C735 O721 1.257 . S
C736 Eu672 2.787 . S
C736 O716 1.252 . S
C736 O719 1.268 . S
C736 C729 1.506 . S
C737 C704 1.439 . S
C737 H714 0.931 . S
C737 C738 1.374 . S
C738 C709 1.387 . S
C738 H715 0.931 . S
C738 C737 1.374 . S
C739 O723 1.249 . S
C739 O724 1.264 . S
C740 C743 1.382 . S
C740 C744 1.390 . S
C740 C747 1.506 . S
C741 C742 1.398 . S
C741 C744 1.392 . S
C742 C741 1.398 . S
C742 C745 1.372 . S
C742 H752 0.931 . S
C743 C740 1.382 . S
C743 C745 1.390 . S
C743 H753 0.931 . S
C744 C740 1.390 . S
C744 C741 1.392 . S
C744 H754 0.930 . S
C745 C742 1.372 . S
C745 C743 1.390 . S
C745 H755 0.929 . S
C746 O726 1.255 . S
C746 O727 1.257 . S
C747 Eu683 2.787 . S
C747 O722 1.252 . S
C747 O725 1.268 . S
C747 C740 1.506 . S
H748 C731 0.931 . S
H749 C732 0.931 . S
H750 C733 0.929 . S
H751 C734 0.949 . S
H752 C742 0.931 . S
H753 C743 0.931 . S
H754 C744 0.930 . S
H755 C745 0.929 . S
Eu756 N785 2.600 . S
Eu756 N791 2.562 . S
Eu756 O800 2.462 . S
Eu756 O801 2.373 . S
Eu756 O803 2.432 . S
Eu756 O804 2.291 . S
Eu756 O808 2.335 . S
Eu756 O811 2.372 . S
Eu756 C820 2.787 . S
C757 N758 1.365 . S
C757 C760 1.405 . S
C757 C764 1.448 . S
N758 C757 1.365 . S
N758 C761 1.319 . S
N758 Eu767 2.600 . S
C759 C761 1.397 . S
C759 C762 1.367 . S
C759 H779 0.931 . S
C760 C757 1.405 . S
C760 C762 1.403 . S
C760 C766 1.439 . S
C761 N758 1.319 . S
C761 C759 1.397 . S
C761 H772 0.930 . S
C762 C759 1.367 . S
C762 C760 1.403 . S
C762 H783 0.929 . S
C763 C764 1.430 . S
C763 C765 1.387 . S
C763 C769 1.404 . S
C764 C757 1.448 . S
C764 C763 1.430 . S
C764 N768 1.351 . S
C765 C763 1.387 . S
C765 C766 1.374 . S
C765 H780 0.931 . S
C766 C760 1.439 . S
C766 C765 1.374 . S
C766 H781 0.931 . S
Eu767 N758 2.600 . S
Eu767 N768 2.562 . S
Eu767 O802 2.335 . S
Eu767 O805 2.372 . S
Eu767 O806 2.462 . S
Eu767 O807 2.373 . S
Eu767 O809 2.432 . S
Eu767 O810 2.291 . S
Eu767 C831 2.787 . S
N768 C764 1.351 . S
N768 Eu767 2.562 . S
N768 C770 1.325 . S
C769 C763 1.404 . S
C769 C771 1.366 . S
C769 H777 0.930 . S
C770 N768 1.325 . S
C770 C771 1.416 . S
C770 H776 0.929 . S
C771 C769 1.366 . S
C771 C770 1.416 . S
C771 H773 0.930 . S
H772 C761 0.930 . S
H773 C771 0.930 . S
H774 C789 0.930 . S
H775 C796 0.930 . S
H776 C770 0.929 . S
H777 C769 0.930 . S
H778 C792 0.929 . S
H779 C759 0.931 . S
H780 C765 0.931 . S
H781 C766 0.931 . S
H782 C787 0.931 . S
H783 C762 0.929 . S
H784 C795 0.930 . S
N785 Eu756 2.600 . S
N785 C786 1.365 . S
N785 C789 1.319 . S
C786 N785 1.365 . S
C786 C788 1.405 . S
C786 C794 1.448 . S
C787 H782 0.931 . S
C787 C789 1.397 . S
C787 C790 1.367 . S
C788 C786 1.405 . S
C788 C790 1.403 . S
C788 C821 1.439 . S
C789 H774 0.930 . S
C789 N785 1.319 . S
C789 C787 1.397 . S
C790 C787 1.367 . S
C790 C788 1.403 . S
C790 H797 0.929 . S
N791 Eu756 2.562 . S
N791 C792 1.325 . S
N791 C794 1.351 . S
C792 H778 0.929 . S
C792 N791 1.325 . S
C792 C796 1.416 . S
C793 C794 1.430 . S
C793 C795 1.404 . S
C793 C822 1.387 . S
C794 C786 1.448 . S
C794 N791 1.351 . S
C794 C793 1.430 . S
C795 H784 0.930 . S
C795 C793 1.404 . S
C795 C796 1.366 . S
C796 H775 0.930 . S
C796 C792 1.416 . S
C796 C795 1.366 . S
H797 C790 0.929 . S
H798 C821 0.931 . S
H799 C822 0.931 . S
O800 Eu756 2.462 . S
O800 C820 1.252 . S
O801 Eu756 2.373 . S
O801 C812 1.249 . S
O802 Eu767 2.335 . S
O802 C812 1.264 . S
O803 Eu756 2.432 . S
O803 C820 1.268 . S
O804 Eu756 2.291 . S
O804 C819 1.255 . S
O805 Eu767 2.372 . S
O805 C819 1.257 . S
O806 Eu767 2.462 . S
O806 C831 1.252 . S
O807 Eu767 2.373 . S
O807 C823 1.249 . S
O808 Eu756 2.335 . S
O808 C823 1.264 . S
O809 Eu767 2.432 . S
O809 C831 1.268 . S
O810 Eu767 2.291 . S
O810 C830 1.255 . S
O811 Eu756 2.372 . S
O811 C830 1.257 . S
C812 O801 1.249 . S
C812 O802 1.264 . S
C813 C816 1.382 . S
C813 C818 1.390 . S
C813 C820 1.506 . S
C814 C815 1.398 . S
C814 C818 1.392 . S
C815 C814 1.398 . S
C815 C817 1.372 . S
C815 H832 0.931 . S
C816 C813 1.382 . S
C816 C817 1.390 . S
C816 H833 0.931 . S
C817 C815 1.372 . S
C817 C816 1.390 . S
C817 H834 0.929 . S
C818 C813 1.390 . S
C818 C814 1.392 . S
C818 H835 0.930 . S
C819 O804 1.255 . S
C819 O805 1.257 . S
C820 Eu756 2.787 . S
C820 O800 1.252 . S
C820 O803 1.268 . S
C820 C813 1.506 . S
C821 C788 1.439 . S
C821 H798 0.931 . S
C821 C822 1.374 . S
C822 C793 1.387 . S
C822 H799 0.931 . S
C822 C821 1.374 . S
C823 O807 1.249 . S
C823 O808 1.264 . S
C824 C827 1.382 . S
C824 C828 1.390 . S
C824 C831 1.506 . S
C825 C826 1.398 . S
C825 C828 1.392 . S
C826 C825 1.398 . S
C826 C829 1.372 . S
C826 H836 0.931 . S
C827 C824 1.382 . S
C827 C829 1.390 . S
C827 H837 0.931 . S
C828 C824 1.390 . S
C828 C825 1.392 . S
C828 H838 0.930 . S
C829 C826 1.372 . S
C829 C827 1.390 . S
C829 H839 0.929 . S
C830 O810 1.255 . S
C830 O811 1.257 . S
C831 Eu767 2.787 . S
C831 O806 1.252 . S
C831 O809 1.268 . S
C831 C824 1.506 . S
H832 C815 0.931 . S
H833 C816 0.931 . S
H834 C817 0.929 . S
H835 C818 0.930 . S
H836 C826 0.931 . S
H837 C827 0.931 . S
H838 C828 0.930 . S
H839 C829 0.929 . S
Eu840 N869 2.600 . S
Eu840 N875 2.562 . S
Eu840 O884 2.462 . S
Eu840 O885 2.373 . S
Eu840 O887 2.432 . S
Eu840 O888 2.291 . S
Eu840 O892 2.335 . S
Eu840 O895 2.372 . S
Eu840 C904 2.787 . S
C841 N842 1.365 . S
C841 C844 1.405 . S
C841 C848 1.448 . S
N842 C841 1.365 . S
N842 C845 1.319 . S
N842 Eu851 2.600 . S
C843 C845 1.397 . S
C843 C846 1.367 . S
C843 H863 0.931 . S
C844 C841 1.405 . S
C844 C846 1.403 . S
C844 C850 1.439 . S
C845 N842 1.319 . S
C845 C843 1.397 . S
C845 H856 0.930 . S
C846 C843 1.367 . S
C846 C844 1.403 . S
C846 H867 0.929 . S
C847 C848 1.430 . S
C847 C849 1.387 . S
C847 C853 1.404 . S
C848 C841 1.448 . S
C848 C847 1.430 . S
C848 N852 1.351 . S
C849 C847 1.387 . S
C849 C850 1.374 . S
C849 H864 0.931 . S
C850 C844 1.439 . S
C850 C849 1.374 . S
C850 H865 0.931 . S
Eu851 N842 2.600 . S
Eu851 N852 2.562 . S
Eu851 O886 2.335 . S
Eu851 O889 2.372 . S
Eu851 O890 2.462 . S
Eu851 O891 2.373 . S
Eu851 O893 2.432 . S
Eu851 O894 2.291 . S
Eu851 C915 2.787 . S
N852 C848 1.351 . S
N852 Eu851 2.562 . S
N852 C854 1.325 . S
C853 C847 1.404 . S
C853 C855 1.366 . S
C853 H861 0.930 . S
C854 N852 1.325 . S
C854 C855 1.416 . S
C854 H860 0.929 . S
C855 C853 1.366 . S
C855 C854 1.416 . S
C855 H857 0.930 . S
H856 C845 0.930 . S
H857 C855 0.930 . S
H858 C873 0.930 . S
H859 C880 0.930 . S
H860 C854 0.929 . S
H861 C853 0.930 . S
H862 C876 0.929 . S
H863 C843 0.931 . S
H864 C849 0.931 . S
H865 C850 0.931 . S
H866 C871 0.931 . S
H867 C846 0.929 . S
H868 C879 0.930 . S
N869 Eu840 2.600 . S
N869 C870 1.365 . S
N869 C873 1.319 . S
C870 N869 1.365 . S
C870 C872 1.405 . S
C870 C878 1.448 . S
C871 H866 0.931 . S
C871 C873 1.397 . S
C871 C874 1.367 . S
C872 C870 1.405 . S
C872 C874 1.403 . S
C872 C905 1.439 . S
C873 H858 0.930 . S
C873 N869 1.319 . S
C873 C871 1.397 . S
C874 C871 1.367 . S
C874 C872 1.403 . S
C874 H881 0.929 . S
N875 Eu840 2.562 . S
N875 C876 1.325 . S
N875 C878 1.351 . S
C876 H862 0.929 . S
C876 N875 1.325 . S
C876 C880 1.416 . S
C877 C878 1.430 . S
C877 C879 1.404 . S
C877 C906 1.387 . S
C878 C870 1.448 . S
C878 N875 1.351 . S
C878 C877 1.430 . S
C879 H868 0.930 . S
C879 C877 1.404 . S
C879 C880 1.366 . S
C880 H859 0.930 . S
C880 C876 1.416 . S
C880 C879 1.366 . S
H881 C874 0.929 . S
H882 C905 0.931 . S
H883 C906 0.931 . S
O884 Eu840 2.462 . S
O884 C904 1.252 . S
O885 Eu840 2.373 . S
O885 C896 1.249 . S
O886 Eu851 2.335 . S
O886 C896 1.264 . S
O887 Eu840 2.432 . S
O887 C904 1.268 . S
O888 Eu840 2.291 . S
O888 C903 1.255 . S
O889 Eu851 2.372 . S
O889 C903 1.257 . S
O890 Eu851 2.462 . S
O890 C915 1.252 . S
O891 Eu851 2.373 . S
O891 C907 1.249 . S
O892 Eu840 2.335 . S
O892 C907 1.264 . S
O893 Eu851 2.432 . S
O893 C915 1.268 . S
O894 Eu851 2.291 . S
O894 C914 1.255 . S
O895 Eu840 2.372 . S
O895 C914 1.257 . S
C896 O885 1.249 . S
C896 O886 1.264 . S
C897 C900 1.382 . S
C897 C902 1.403 . S
C897 C904 1.506 . S
C898 C899 1.398 . S
C898 C902 1.373 1_655 S
C899 C898 1.398 . S
C899 C901 1.372 . S
C899 H916 0.931 . S
C900 C897 1.382 . S
C900 C901 1.390 1_455 S
C900 H917 0.931 . S
C901 C899 1.372 . S
C901 C900 1.390 1_655 S
C901 H918 0.929 . S
C902 C897 1.403 . S
C902 C898 1.373 1_455 S
C902 H919 0.937 . S
C903 O888 1.255 . S
C903 O889 1.257 . S
C904 Eu840 2.787 . S
C904 O884 1.252 . S
C904 O887 1.268 . S
C904 C897 1.506 . S
C905 C872 1.439 . S
C905 H882 0.931 . S
C905 C906 1.374 . S
C906 C877 1.387 . S
C906 H883 0.931 . S
C906 C905 1.374 . S
C907 O891 1.249 . S
C907 O892 1.264 . S
C908 C911 1.382 . S
C908 C912 1.390 . S
C908 C915 1.506 . S
C909 C910 1.398 . S
C909 C912 1.392 . S
C910 C909 1.398 . S
C910 C913 1.372 . S
C910 H920 0.931 . S
C911 C908 1.382 . S
C911 C913 1.390 . S
C911 H921 0.931 . S
C912 C908 1.390 . S
C912 C909 1.392 . S
C912 H922 0.930 . S
C913 C910 1.372 . S
C913 C911 1.390 . S
C913 H923 0.929 . S
C914 O894 1.255 . S
C914 O895 1.257 . S
C915 Eu851 2.787 . S
C915 O890 1.252 . S
C915 O893 1.268 . S
C915 C908 1.506 . S
H916 C899 0.931 . S
H917 C900 0.931 . S
H918 C901 0.929 . S
H919 C902 0.937 . S
H920 C910 0.931 . S
H921 C911 0.931 . S
H922 C912 0.930 . S
H923 C913 0.929 . S
Eu924 N953 2.600 . S
Eu924 N959 2.562 . S
Eu924 O968 2.462 . S
Eu924 O969 2.373 . S
Eu924 O971 2.432 . S
Eu924 O972 2.291 . S
Eu924 O976 2.335 . S
Eu924 O979 2.372 . S
Eu924 C988 2.787 . S
C925 N926 1.365 . S
C925 C928 1.405 . S
C925 C932 1.448 . S
N926 C925 1.365 . S
N926 C929 1.319 . S
N926 Eu935 2.600 . S
C927 C929 1.397 . S
C927 C930 1.367 . S
C927 H947 0.931 . S
C928 C925 1.405 . S
C928 C930 1.403 . S
C928 C934 1.439 . S
C929 N926 1.319 . S
C929 C927 1.397 . S
C929 H940 0.930 . S
C930 C927 1.367 . S
C930 C928 1.403 . S
C930 H951 0.929 . S
C931 C932 1.430 . S
C931 C933 1.387 . S
C931 C937 1.404 . S
C932 C925 1.448 . S
C932 C931 1.430 . S
C932 N936 1.351 . S
C933 C931 1.387 . S
C933 C934 1.374 . S
C933 H948 0.931 . S
C934 C928 1.439 . S
C934 C933 1.374 . S
C934 H949 0.931 . S
Eu935 N926 2.600 . S
Eu935 N936 2.562 . S
Eu935 O970 2.335 . S
Eu935 O973 2.372 . S
Eu935 O974 2.462 . S
Eu935 O975 2.373 . S
Eu935 O977 2.432 . S
Eu935 O978 2.291 . S
Eu935 C999 2.787 . S
N936 C932 1.351 . S
N936 Eu935 2.562 . S
N936 C938 1.325 . S
C937 C931 1.404 . S
C937 C939 1.366 . S
C937 H945 0.930 . S
C938 N936 1.325 . S
C938 C939 1.416 . S
C938 H944 0.929 . S
C939 C937 1.366 . S
C939 C938 1.416 . S
C939 H941 0.930 . S
H940 C929 0.930 . S
H941 C939 0.930 . S
H942 C957 0.930 . S
H943 C964 0.930 . S
H944 C938 0.929 . S
H945 C937 0.930 . S
H946 C960 0.929 . S
H947 C927 0.931 . S
H948 C933 0.931 . S
H949 C934 0.931 . S
H950 C955 0.931 . S
H951 C930 0.929 . S
H952 C963 0.930 . S
N953 Eu924 2.600 . S
N953 C954 1.365 . S
N953 C957 1.319 . S
C954 N953 1.365 . S
C954 C956 1.405 . S
C954 C962 1.448 . S
C955 H950 0.931 . S
C955 C957 1.397 . S
C955 C958 1.367 . S
C956 C954 1.405 . S
C956 C958 1.403 . S
C956 C989 1.439 . S
C957 H942 0.930 . S
C957 N953 1.319 . S
C957 C955 1.397 . S
C958 C955 1.367 . S
C958 C956 1.403 . S
C958 H965 0.929 . S
N959 Eu924 2.562 . S
N959 C960 1.325 . S
N959 C962 1.351 . S
C960 H946 0.929 . S
C960 N959 1.325 . S
C960 C964 1.416 . S
C961 C962 1.430 . S
C961 C963 1.404 . S
C961 C990 1.387 . S
C962 C954 1.448 . S
C962 N959 1.351 . S
C962 C961 1.430 . S
C963 H952 0.930 . S
C963 C961 1.404 . S
C963 C964 1.366 . S
C964 H943 0.930 . S
C964 C960 1.416 . S
C964 C963 1.366 . S
H965 C958 0.929 . S
H966 C989 0.931 . S
H967 C990 0.931 . S
O968 Eu924 2.462 . S
O968 C988 1.252 . S
O969 Eu924 2.373 . S
O969 C980 1.249 . S
O970 Eu935 2.335 . S
O970 C980 1.264 . S
O971 Eu924 2.432 . S
O971 C988 1.268 . S
O972 Eu924 2.291 . S
O972 C987 1.255 . S
O973 Eu935 2.372 . S
O973 C987 1.257 . S
O974 Eu935 2.462 . S
O974 C999 1.252 . S
O975 Eu935 2.373 . S
O975 C991 1.249 . S
O976 Eu924 2.335 . S
O976 C991 1.264 . S
O977 Eu935 2.432 . S
O977 C999 1.268 . S
O978 Eu935 2.291 . S
O978 C998 1.255 . S
O979 Eu924 2.372 . S
O979 C998 1.257 . S
C980 O969 1.249 . S
C980 O970 1.264 . S
C981 C984 1.382 . S
C981 C986 1.415 . S
C981 C988 1.506 . S
C982 C983 1.398 . S
C982 C986 1.348 1_565 S
C983 C982 1.398 . S
C983 C985 1.372 . S
C983 H1000 0.931 . S
C984 C981 1.382 . S
C984 C985 1.390 1_545 S
C984 H1001 0.931 . S
C985 C983 1.372 . S
C985 C984 1.390 1_565 S
C985 H1002 0.929 . S
C986 C981 1.415 . S
C986 C982 1.348 1_545 S
C986 H1003 0.949 . S
C987 O972 1.255 . S
C987 O973 1.257 . S
C988 Eu924 2.787 . S
C988 O968 1.252 . S
C988 O971 1.268 . S
C988 C981 1.506 . S
C989 C956 1.439 . S
C989 H966 0.931 . S
C989 C990 1.374 . S
C990 C961 1.387 . S
C990 H967 0.931 . S
C990 C989 1.374 . S
C991 O975 1.249 . S
C991 O976 1.264 . S
C992 C995 1.382 . S
C992 C996 1.390 . S
C992 C999 1.506 . S
C993 C994 1.398 . S
C993 C996 1.392 . S
C994 C993 1.398 . S
C994 C997 1.372 . S
C994 H1004 0.931 . S
C995 C992 1.382 . S
C995 C997 1.390 . S
C995 H1005 0.931 . S
C996 C992 1.390 . S
C996 C993 1.392 . S
C996 H1006 0.930 . S
C997 C994 1.372 . S
C997 C995 1.390 . S
C997 H1007 0.929 . S
C998 O978 1.255 . S
C998 O979 1.257 . S
C999 Eu935 2.787 . S
C999 O974 1.252 . S
C999 O977 1.268 . S
C999 C992 1.506 . S
H1000 C983 0.931 . S
H1001 C984 0.931 . S
H1002 C985 0.929 . S
H1003 C986 0.949 . S
H1004 C994 0.931 . S
H1005 C995 0.931 . S
H1006 C996 0.930 . S
H1007 C997 0.929 . S
C1008 C1009 1.349 . S
C1008 C1010 1.327 . S
C1008 H1033 0.950 . S
C1009 C1008 1.349 . S
C1009 C1025 1.349 . S
C1010 C1008 1.327 . S
C1010 C1029 1.429 . S
C1010 H1034 0.950 . S
C1011 C1028 1.574 1_565 S
C1011 C1030 1.368 . S
C1011 H1035 0.949 . S
H1012 C1016 0.949 . S
C1013 C1014 1.349 . S
C1013 C1015 1.327 . S
C1013 H1036 0.950 . S
C1014 C1013 1.349 . S
C1014 C1026 1.349 . S
C1015 C1013 1.327 . S
C1015 C1031 1.429 . S
C1015 H1037 0.950 . S
C1016 H1012 0.949 . S
C1016 C1024 1.574 . S
C1016 C1032 1.368 . S
H1017 C1025 0.950 . S
H1018 C1023 0.950 . S
H1019 C1024 0.949 . S
H1020 C1026 0.950 . S
H1021 C1027 0.950 . S
H1022 C1028 0.949 . S
C1023 H1018 0.950 . S
C1023 C1025 1.327 . S
C1023 C1029 1.429 . S
C1024 C1016 1.574 . S
C1024 H1019 0.949 . S
C1024 C1030 1.368 1_545 S
C1025 C1009 1.349 . S
C1025 H1017 0.950 . S
C1025 C1023 1.327 . S
C1026 C1014 1.349 . S
C1026 H1020 0.950 . S
C1026 C1027 1.327 . S
C1027 H1021 0.950 . S
C1027 C1026 1.327 . S
C1027 C1031 1.429 . S
C1028 C1011 1.574 1_545 S
C1028 H1022 0.949 . S
C1028 C1032 1.368 . S
C1029 C1010 1.429 . S
C1029 C1023 1.429 . S
C1029 C1030 1.523 . S
C1030 C1011 1.368 . S
C1030 C1024 1.368 1_565 S
C1030 C1029 1.523 . S
C1031 C1015 1.429 . S
C1031 C1027 1.429 . S
C1031 C1032 1.523 . S
C1032 C1016 1.368 . S
C1032 C1028 1.368 . S
C1032 C1031 1.523 . S
H1033 C1008 0.950 . S
H1034 C1010 0.950 . S
H1035 C1011 0.949 . S
H1036 C1013 0.950 . S
H1037 C1015 0.950 . S
C1038 C1039 1.349 . S
C1038 C1040 1.327 . S
C1038 H1063 0.950 . S
C1039 C1038 1.349 . S
C1039 C1055 1.349 . S
C1040 C1038 1.327 . S
C1040 C1059 1.429 . S
C1040 H1064 0.950 . S
C1041 C1058 1.574 . S
C1041 C1060 1.368 . S
C1041 H1065 0.949 . S
H1042 C1046 0.949 . S
C1043 C1044 1.349 . S
C1043 C1045 1.327 . S
C1043 H1066 0.950 . S
C1044 C1043 1.349 . S
C1044 C1056 1.349 . S
C1045 C1043 1.327 . S
C1045 C1061 1.429 . S
C1045 H1067 0.950 . S
C1046 H1042 0.949 . S
C1046 C1054 1.574 . S
C1046 C1062 1.368 . S
H1047 C1055 0.950 . S
H1048 C1053 0.950 . S
H1049 C1054 0.949 . S
H1050 C1056 0.950 . S
H1051 C1057 0.950 . S
H1052 C1058 0.949 . S
C1053 H1048 0.950 . S
C1053 C1055 1.327 . S
C1053 C1059 1.429 . S
C1054 C1046 1.574 . S
C1054 H1049 0.949 . S
C1054 C1060 1.368 . S
C1055 C1039 1.349 . S
C1055 H1047 0.950 . S
C1055 C1053 1.327 . S
C1056 C1044 1.349 . S
C1056 H1050 0.950 . S
C1056 C1057 1.327 . S
C1057 H1051 0.950 . S
C1057 C1056 1.327 . S
C1057 C1061 1.429 . S
C1058 C1041 1.574 . S
C1058 H1052 0.949 . S
C1058 C1062 1.368 . S
C1059 C1040 1.429 . S
C1059 C1053 1.429 . S
C1059 C1060 1.523 . S
C1060 C1041 1.368 . S
C1060 C1054 1.368 . S
C1060 C1059 1.523 . S
C1061 C1045 1.429 . S
C1061 C1057 1.429 . S
C1061 C1062 1.523 . S
C1062 C1046 1.368 . S
C1062 C1058 1.368 . S
C1062 C1061 1.523 . S
H1063 C1038 0.950 . S
H1064 C1040 0.950 . S
H1065 C1041 0.949 . S
H1066 C1043 0.950 . S
H1067 C1045 0.950 . S
C1068 C1069 1.349 . S
C1068 C1070 1.327 . S
C1068 H1093 0.950 . S
C1069 C1068 1.349 . S
C1069 C1085 1.349 . S
C1070 C1068 1.327 . S
C1070 C1089 1.429 . S
C1070 H1094 0.950 . S
C1071 C1088 1.574 . S
C1071 C1090 1.368 . S
C1071 H1095 0.949 . S
H1072 C1076 0.957 . S
C1073 C1074 1.349 . S
C1073 C1075 1.327 . S
C1073 H1096 0.950 . S
C1074 C1073 1.349 . S
C1074 C1086 1.349 . S
C1075 C1073 1.327 . S
C1075 C1091 1.429 . S
C1075 H1097 0.950 . S
C1076 H1072 0.957 . S
C1076 C1084 1.566 1_455 S
C1076 C1092 1.367 . S
H1077 C1085 0.950 . S
H1078 C1083 0.950 . S
H1079 C1084 0.949 . S
H1080 C1086 0.950 . S
H1081 C1087 0.950 . S
H1082 C1088 0.948 1_455 S
C1083 H1078 0.950 . S
C1083 C1085 1.327 . S
C1083 C1089 1.429 . S
C1084 C1076 1.566 1_655 S
C1084 H1079 0.949 . S
C1084 C1090 1.368 . S
C1085 C1069 1.349 . S
C1085 H1077 0.950 . S
C1085 C1083 1.327 . S
C1086 C1074 1.349 . S
C1086 H1080 0.950 . S
C1086 C1087 1.327 . S
C1087 H1081 0.950 . S
C1087 C1086 1.327 . S
C1087 C1091 1.429 . S
C1088 C1071 1.574 . S
C1088 H1082 0.948 1_655 S
C1088 C1092 1.368 1_655 S
C1089 C1070 1.429 . S
C1089 C1083 1.429 . S
C1089 C1090 1.523 . S
C1090 C1071 1.368 . S
C1090 C1084 1.368 . S
C1090 C1089 1.523 . S
C1091 C1075 1.429 . S
C1091 C1087 1.429 . S
C1091 C1092 1.523 . S
C1092 C1076 1.367 . S
C1092 C1088 1.368 1_455 S
C1092 C1091 1.523 . S
H1093 C1068 0.950 . S
H1094 C1070 0.950 . S
H1095 C1071 0.949 . S
H1096 C1073 0.950 . S
H1097 C1075 0.950 . S
C1098 C1099 1.349 . S
C1098 C1100 1.327 . S
C1098 H1123 0.950 . S
C1099 C1098 1.349 . S
C1099 C1115 1.349 . S
C1100 C1098 1.327 . S
C1100 C1119 1.429 . S
C1100 H1124 0.950 . S
C1101 C1118 1.574 1_565 S
C1101 C1120 1.368 . S
C1101 H1125 0.949 . S
H1102 C1106 0.949 . S
C1103 C1104 1.349 . S
C1103 C1105 1.327 . S
C1103 H1126 0.950 . S
C1104 C1103 1.349 . S
C1104 C1116 1.349 . S
C1105 C1103 1.327 . S
C1105 C1121 1.429 . S
C1105 H1127 0.950 . S
C1106 H1102 0.949 . S
C1106 C1114 1.574 . S
C1106 C1122 1.368 1_565 S
H1107 C1115 0.950 . S
H1108 C1113 0.950 . S
H1109 C1114 0.949 . S
H1110 C1116 0.950 . S
H1111 C1117 0.950 . S
H1112 C1118 0.949 . S
C1113 H1108 0.950 . S
C1113 C1115 1.327 . S
C1113 C1119 1.429 . S
C1114 C1106 1.574 . S
C1114 H1109 0.949 . S
C1114 C1120 1.368 . S
C1115 C1099 1.349 . S
C1115 H1107 0.950 . S
C1115 C1113 1.327 . S
C1116 C1104 1.349 . S
C1116 H1110 0.950 . S
C1116 C1117 1.327 . S
C1117 H1111 0.950 . S
C1117 C1116 1.327 . S
C1117 C1121 1.429 . S
C1118 C1101 1.574 1_545 S
C1118 H1112 0.949 . S
C1118 C1122 1.368 . S
C1119 C1100 1.429 . S
C1119 C1113 1.429 . S
C1119 C1120 1.523 . S
C1120 C1101 1.368 . S
C1120 C1114 1.368 . S
C1120 C1119 1.523 . S
C1121 C1105 1.429 . S
C1121 C1117 1.429 . S
C1121 C1122 1.523 . S
C1122 C1106 1.368 1_545 S
C1122 C1118 1.368 . S
C1122 C1121 1.523 . S
H1123 C1098 0.950 . S
H1124 C1100 0.950 . S
H1125 C1101 0.949 . S
H1126 C1103 0.950 . S
H1127 C1105 0.950 . S
C1128 C1129 1.349 . S
C1128 C1130 1.327 . S
C1128 H1153 0.950 . S
C1129 C1128 1.349 . S
C1129 C1145 1.349 . S
C1130 C1128 1.327 . S
C1130 C1149 1.429 . S
C1130 H1154 0.950 . S
C1131 C1148 1.574 . S
C1131 C1150 1.368 . S
C1131 H1155 0.949 . S
H1132 C1136 0.949 . S
C1133 C1134 1.349 . S
C1133 C1135 1.327 . S
C1133 H1156 0.950 . S
C1134 C1133 1.349 . S
C1134 C1146 1.349 . S
C1135 C1133 1.327 . S
C1135 C1151 1.429 . S
C1135 H1157 0.950 . S
C1136 H1132 0.949 . S
C1136 C1144 1.574 . S
C1136 C1152 1.368 . S
H1137 C1145 0.950 . S
H1138 C1143 0.950 . S
H1139 C1144 0.949 . S
H1140 C1146 0.950 . S
H1141 C1147 0.950 . S
H1142 C1148 0.949 . S
C1143 H1138 0.950 . S
C1143 C1145 1.327 . S
C1143 C1149 1.429 . S
C1144 C1136 1.574 . S
C1144 H1139 0.949 . S
C1144 C1150 1.368 . S
C1145 C1129 1.349 . S
C1145 H1137 0.950 . S
C1145 C1143 1.327 . S
C1146 C1134 1.349 . S
C1146 H1140 0.950 . S
C1146 C1147 1.327 . S
C1147 H1141 0.950 . S
C1147 C1146 1.327 . S
C1147 C1151 1.429 . S
C1148 C1131 1.574 . S
C1148 H1142 0.949 . S
C1148 C1152 1.368 . S
C1149 C1130 1.429 . S
C1149 C1143 1.429 . S
C1149 C1150 1.523 . S
C1150 C1131 1.368 . S
C1150 C1144 1.368 . S
C1150 C1149 1.523 . S
C1151 C1135 1.429 . S
C1151 C1147 1.429 . S
C1151 C1152 1.523 . S
C1152 C1136 1.368 . S
C1152 C1148 1.368 . S
C1152 C1151 1.523 . S
H1153 C1128 0.950 . S
H1154 C1130 0.950 . S
H1155 C1131 0.949 . S
H1156 C1133 0.950 . S
H1157 C1135 0.950 . S
C1158 C1159 1.349 . S
C1158 C1160 1.327 . S
C1158 H1183 0.950 . S
C1159 C1158 1.349 . S
C1159 C1175 1.349 . S
C1160 C1158 1.327 . S
C1160 C1179 1.429 . S
C1160 H1184 0.950 . S
C1161 C1178 1.574 1_655 S
C1161 C1180 1.368 . S
C1161 H1185 0.949 . S
H1162 C1166 0.949 . S
C1163 C1164 1.349 . S
C1163 C1165 1.327 . S
C1163 H1186 0.950 . S
C1164 C1163 1.349 . S
C1164 C1176 1.349 . S
C1165 C1163 1.327 . S
C1165 C1181 1.429 . S
C1165 H1187 0.950 . S
C1166 H1162 0.949 . S
C1166 C1174 1.574 . S
C1166 C1182 1.368 . S
H1167 C1175 0.950 . S
H1168 C1173 0.950 . S
H1169 C1174 0.949 . S
H1170 C1176 0.950 . S
H1171 C1177 0.950 . S
H1172 C1178 0.949 . S
C1173 H1168 0.950 . S
C1173 C1175 1.327 . S
C1173 C1179 1.429 . S
C1174 C1166 1.574 . S
C1174 H1169 0.949 . S
C1174 C1180 1.368 1_455 S
C1175 C1159 1.349 . S
C1175 H1167 0.950 . S
C1175 C1173 1.327 . S
C1176 C1164 1.349 . S
C1176 H1170 0.950 . S
C1176 C1177 1.327 . S
C1177 H1171 0.950 . S
C1177 C1176 1.327 . S
C1177 C1181 1.429 . S
C1178 C1161 1.574 1_455 S
C1178 H1172 0.949 . S
C1178 C1182 1.368 . S
C1179 C1160 1.429 . S
C1179 C1173 1.429 . S
C1179 C1180 1.523 . S
C1180 C1161 1.368 . S
C1180 C1174 1.368 1_655 S
C1180 C1179 1.523 . S
C1181 C1165 1.429 . S
C1181 C1177 1.429 . S
C1181 C1182 1.523 . S
C1182 C1166 1.368 . S
C1182 C1178 1.368 . S
C1182 C1181 1.523 . S
H1183 C1158 0.950 . S
H1184 C1160 0.950 . S
H1185 C1161 0.949 . S
H1186 C1163 0.950 . S
H1187 C1165 0.950 . S
C1188 C1189 1.349 . S
C1188 C1190 1.327 . S
C1188 H1213 0.950 . S
C1189 C1188 1.349 . S
C1189 C1205 1.349 . S
C1190 C1188 1.327 . S
C1190 C1209 1.429 . S
C1190 H1214 0.950 . S
C1191 C1208 1.574 1_455 S
C1191 C1210 1.368 . S
C1191 H1215 0.949 . S
H1192 C1196 0.949 . S
C1193 C1194 1.349 . S
C1193 C1195 1.327 . S
C1193 H1216 0.950 . S
C1194 C1193 1.349 . S
C1194 C1206 1.349 . S
C1195 C1193 1.327 . S
C1195 C1211 1.429 . S
C1195 H1217 0.950 . S
C1196 H1192 0.949 . S
C1196 C1204 1.574 . S
C1196 C1212 1.368 . S
H1197 C1205 0.950 . S
H1198 C1203 0.950 . S
H1199 C1204 0.949 . S
H1200 C1206 0.950 . S
H1201 C1207 0.950 . S
H1202 C1208 0.949 . S
C1203 H1198 0.950 . S
C1203 C1205 1.327 . S
C1203 C1209 1.429 . S
C1204 C1196 1.574 . S
C1204 H1199 0.949 . S
C1204 C1210 1.368 1_655 S
C1205 C1189 1.349 . S
C1205 H1197 0.950 . S
C1205 C1203 1.327 . S
C1206 C1194 1.349 . S
C1206 H1200 0.950 . S
C1206 C1207 1.327 . S
C1207 H1201 0.950 . S
C1207 C1206 1.327 . S
C1207 C1211 1.429 . S
C1208 C1191 1.574 1_655 S
C1208 H1202 0.949 . S
C1208 C1212 1.368 . S
C1209 C1190 1.429 . S
C1209 C1203 1.429 . S
C1209 C1210 1.523 . S
C1210 C1191 1.368 . S
C1210 C1204 1.368 1_455 S
C1210 C1209 1.523 . S
C1211 C1195 1.429 . S
C1211 C1207 1.429 . S
C1211 C1212 1.523 . S
C1212 C1196 1.368 . S
C1212 C1208 1.368 . S
C1212 C1211 1.523 . S
H1213 C1188 0.950 . S
H1214 C1190 0.950 . S
H1215 C1191 0.949 . S
H1216 C1193 0.950 . S
H1217 C1195 0.950 . S
C1218 C1219 1.349 . S
C1218 C1220 1.327 . S
C1218 H1243 0.950 . S
C1219 C1218 1.349 . S
C1219 C1235 1.349 . S
C1220 C1218 1.327 . S
C1220 C1239 1.429 . S
C1220 H1244 0.950 . S
C1221 C1238 1.574 . S
C1221 C1240 1.368 . S
C1221 H1245 0.949 . S
H1222 C1226 0.949 . S
C1223 C1224 1.349 . S
C1223 C1225 1.327 . S
C1223 H1246 0.950 . S
C1224 C1223 1.349 . S
C1224 C1236 1.349 . S
C1225 C1223 1.327 . S
C1225 C1241 1.429 . S
C1225 H1247 0.950 . S
C1226 H1222 0.949 . S
C1226 C1234 1.574 1_545 S
C1226 C1242 1.368 . S
H1227 C1235 0.950 . S
H1228 C1233 0.950 . S
H1229 C1234 0.949 . S
H1230 C1236 0.950 . S
H1231 C1237 0.950 . S
H1232 C1238 0.949 . S
C1233 H1228 0.950 . S
C1233 C1235 1.327 . S
C1233 C1239 1.429 . S
C1234 C1226 1.574 1_565 S
C1234 H1229 0.949 . S
C1234 C1240 1.368 . S
C1235 C1219 1.349 . S
C1235 H1227 0.950 . S
C1235 C1233 1.327 . S
C1236 C1224 1.349 . S
C1236 H1230 0.950 . S
C1236 C1237 1.327 . S
C1237 H1231 0.950 . S
C1237 C1236 1.327 . S
C1237 C1241 1.429 . S
C1238 C1221 1.574 . S
C1238 H1232 0.949 . S
C1238 C1242 1.368 1_565 S
C1239 C1220 1.429 . S
C1239 C1233 1.429 . S
C1239 C1240 1.523 . S
C1240 C1221 1.368 . S
C1240 C1234 1.368 . S
C1240 C1239 1.523 . S
C1241 C1225 1.429 . S
C1241 C1237 1.429 . S
C1241 C1242 1.523 . S
C1242 C1226 1.368 . S
C1242 C1238 1.368 1_545 S
C1242 C1241 1.523 . S
H1243 C1218 0.950 . S
H1244 C1220 0.950 . S
H1245 C1221 0.949 . S
H1246 C1223 0.950 . S
H1247 C1225 0.950 . S
C1248 C1249 1.349 . S
C1248 C1250 1.327 . S
C1248 H1273 0.950 . S
C1249 C1248 1.349 . S
C1249 C1265 1.349 . S
C1250 C1248 1.327 . S
C1250 C1269 1.429 . S
C1250 H1274 0.950 . S
C1251 C1268 1.574 . S
C1251 C1270 1.368 . S
C1251 H1275 0.949 . S
H1252 C1256 0.949 . S
C1253 C1254 1.349 . S
C1253 C1255 1.327 . S
C1253 H1276 0.950 . S
C1254 C1253 1.349 . S
C1254 C1266 1.349 . S
C1255 C1253 1.327 . S
C1255 C1271 1.429 . S
C1255 H1277 0.950 . S
C1256 H1252 0.949 . S
C1256 C1264 1.574 . S
C1256 C1272 1.368 . S
H1257 C1265 0.950 . S
H1258 C1263 0.950 . S
H1259 C1264 0.949 . S
H1260 C1266 0.950 . S
H1261 C1267 0.950 . S
H1262 C1268 0.949 . S
C1263 H1258 0.950 . S
C1263 C1265 1.327 . S
C1263 C1269 1.429 . S
C1264 C1256 1.574 . S
C1264 H1259 0.949 . S
C1264 C1270 1.368 . S
C1265 C1249 1.349 . S
C1265 H1257 0.950 . S
C1265 C1263 1.327 . S
C1266 C1254 1.349 . S
C1266 H1260 0.950 . S
C1266 C1267 1.327 . S
C1267 H1261 0.950 . S
C1267 C1266 1.327 . S
C1267 C1271 1.429 . S
C1268 C1251 1.574 . S
C1268 H1262 0.949 . S
C1268 C1272 1.368 . S
C1269 C1250 1.429 . S
C1269 C1263 1.429 . S
C1269 C1270 1.523 . S
C1270 C1251 1.368 . S
C1270 C1264 1.368 . S
C1270 C1269 1.523 . S
C1271 C1255 1.429 . S
C1271 C1267 1.429 . S
C1271 C1272 1.523 . S
C1272 C1256 1.368 . S
C1272 C1268 1.368 . S
C1272 C1271 1.523 . S
H1273 C1248 0.950 . S
H1274 C1250 0.950 . S
H1275 C1251 0.949 . S
H1276 C1253 0.950 . S
H1277 C1255 0.950 . S
C1278 C1279 1.349 . S
C1278 C1280 1.327 . S
C1278 H1303 0.950 . S
C1279 C1278 1.349 . S
C1279 C1295 1.349 . S
C1280 C1278 1.327 . S
C1280 C1299 1.429 . S
C1280 H1304 0.950 . S
C1281 C1298 1.574 . S
C1281 C1300 1.368 . S
C1281 H1305 0.949 . S
H1282 C1286 0.940 1_655 S
C1283 C1284 1.349 . S
C1283 C1285 1.327 . S
C1283 H1306 0.950 . S
C1284 C1283 1.349 . S
C1284 C1296 1.349 . S
C1285 C1283 1.327 . S
C1285 C1301 1.429 . S
C1285 H1307 0.950 . S
C1286 H1282 0.940 1_455 S
C1286 C1294 1.593 . S
C1286 C1302 1.359 1_455 S
H1287 C1295 0.950 . S
H1288 C1293 0.950 . S
H1289 C1294 0.949 . S
H1290 C1296 0.950 . S
H1291 C1297 0.950 . S
H1292 C1298 0.949 1_655 S
C1293 H1288 0.950 . S
C1293 C1295 1.327 . S
C1293 C1299 1.429 . S
C1294 C1286 1.593 . S
C1294 H1289 0.949 . S
C1294 C1300 1.368 . S
C1295 C1279 1.349 . S
C1295 H1287 0.950 . S
C1295 C1293 1.327 . S
C1296 C1284 1.349 . S
C1296 H1290 0.950 . S
C1296 C1297 1.327 . S
C1297 H1291 0.950 . S
C1297 C1296 1.327 . S
C1297 C1301 1.429 . S
C1298 C1281 1.574 . S
C1298 H1292 0.949 1_455 S
C1298 C1302 1.368 1_455 S
C1299 C1280 1.429 . S
C1299 C1293 1.429 . S
C1299 C1300 1.523 . S
C1300 C1281 1.368 . S
C1300 C1294 1.368 . S
C1300 C1299 1.523 . S
C1301 C1285 1.429 . S
C1301 C1297 1.429 . S
C1301 C1302 1.523 . S
C1302 C1286 1.359 1_655 S
C1302 C1298 1.368 1_655 S
C1302 C1301 1.523 . S
H1303 C1278 0.950 . S
H1304 C1280 0.950 . S
H1305 C1281 0.949 . S
H1306 C1283 0.950 . S
H1307 C1285 0.950 . S
C1308 C1309 1.349 . S
C1308 C1310 1.327 . S
C1308 H1333 0.950 . S
C1309 C1308 1.349 . S
C1309 C1325 1.349 . S
C1310 C1308 1.327 . S
C1310 C1329 1.429 . S
C1310 H1334 0.950 . S
C1311 C1328 1.574 1_545 S
C1311 C1330 1.368 . S
C1311 H1335 0.949 . S
H1312 C1316 0.949 . S
C1313 C1314 1.349 . S
C1313 C1315 1.327 . S
C1313 H1336 0.950 . S
C1314 C1313 1.349 . S
C1314 C1326 1.349 . S
C1315 C1313 1.327 . S
C1315 C1331 1.429 . S
C1315 H1337 0.950 . S
C1316 H1312 0.949 . S
C1316 C1324 1.574 . S
C1316 C1332 1.368 1_545 S
H1317 C1325 0.950 . S
H1318 C1323 0.950 . S
H1319 C1324 0.949 . S
H1320 C1326 0.950 . S
H1321 C1327 0.950 . S
H1322 C1328 0.949 . S
C1323 H1318 0.950 . S
C1323 C1325 1.327 . S
C1323 C1329 1.429 . S
C1324 C1316 1.574 . S
C1324 H1319 0.949 . S
C1324 C1330 1.368 . S
C1325 C1309 1.349 . S
C1325 H1317 0.950 . S
C1325 C1323 1.327 . S
C1326 C1314 1.349 . S
C1326 H1320 0.950 . S
C1326 C1327 1.327 . S
C1327 H1321 0.950 . S
C1327 C1326 1.327 . S
C1327 C1331 1.429 . S
C1328 C1311 1.574 1_565 S
C1328 H1322 0.949 . S
C1328 C1332 1.368 . S
C1329 C1310 1.429 . S
C1329 C1323 1.429 . S
C1329 C1330 1.523 . S
C1330 C1311 1.368 . S
C1330 C1324 1.368 . S
C1330 C1329 1.523 . S
C1331 C1315 1.429 . S
C1331 C1327 1.429 . S
C1331 C1332 1.523 . S
C1332 C1316 1.368 1_565 S
C1332 C1328 1.368 . S
C1332 C1331 1.523 . S
H1333 C1308 0.950 . S
H1334 C1310 0.950 . S
H1335 C1311 0.949 . S
H1336 C1313 0.950 . S
H1337 C1315 0.950 . S
C1338 C1339 1.349 . S
C1338 C1340 1.327 . S
C1338 H1363 0.950 . S
C1339 C1338 1.349 . S
C1339 C1355 1.349 . S
C1340 C1338 1.327 . S
C1340 C1359 1.429 . S
C1340 H1364 0.950 . S
C1341 C1358 1.574 . S
C1341 C1360 1.368 . S
C1341 H1365 0.949 . S
H1342 C1346 0.949 . S
C1343 C1344 1.349 . S
C1343 C1345 1.327 . S
C1343 H1366 0.950 . S
C1344 C1343 1.349 . S
C1344 C1356 1.349 . S
C1345 C1343 1.327 . S
C1345 C1361 1.429 . S
C1345 H1367 0.950 . S
C1346 H1342 0.949 . S
C1346 C1354 1.574 . S
C1346 C1362 1.368 . S
H1347 C1355 0.950 . S
H1348 C1353 0.950 . S
H1349 C1354 0.949 . S
H1350 C1356 0.950 . S
H1351 C1357 0.950 . S
H1352 C1358 0.949 . S
C1353 H1348 0.950 . S
C1353 C1355 1.327 . S
C1353 C1359 1.429 . S
C1354 C1346 1.574 . S
C1354 H1349 0.949 . S
C1354 C1360 1.368 . S
C1355 C1339 1.349 . S
C1355 H1347 0.950 . S
C1355 C1353 1.327 . S
C1356 C1344 1.349 . S
C1356 H1350 0.950 . S
C1356 C1357 1.327 . S
C1357 H1351 0.950 . S
C1357 C1356 1.327 . S
C1357 C1361 1.429 . S
C1358 C1341 1.574 . S
C1358 H1352 0.949 . S
C1358 C1362 1.368 . S
C1359 C1340 1.429 . S
C1359 C1353 1.429 . S
C1359 C1360 1.523 . S
C1360 C1341 1.368 . S
C1360 C1354 1.368 . S
C1360 C1359 1.523 . S
C1361 C1345 1.429 . S
C1361 C1357 1.429 . S
C1361 C1362 1.523 . S
C1362 C1346 1.368 . S
C1362 C1358 1.368 . S
C1362 C1361 1.523 . S
H1363 C1338 0.950 . S
H1364 C1340 0.950 . S
H1365 C1341 0.949 . S
H1366 C1343 0.950 . S
H1367 C1345 0.950 . S
C1368 C1369 1.349 . S
C1368 C1370 1.327 . S
C1368 H1393 0.950 . S
C1369 C1368 1.349 . S
C1369 C1385 1.349 . S
C1370 C1368 1.327 . S
C1370 C1389 1.429 . S
C1370 H1394 0.950 . S
C1371 C1388 1.574 . S
C1371 C1390 1.368 . S
C1371 H1395 0.949 . S
H1372 C1376 0.949 . S
C1373 C1374 1.349 . S
C1373 C1375 1.327 . S
C1373 H1396 0.950 . S
C1374 C1373 1.349 . S
C1374 C1386 1.349 . S
C1375 C1373 1.327 . S
C1375 C1391 1.429 . S
C1375 H1397 0.950 . S
C1376 H1372 0.949 . S
C1376 C1384 1.574 . S
C1376 C1392 1.368 . S
H1377 C1385 0.950 . S
H1378 C1383 0.950 . S
H1379 C1384 0.949 . S
H1380 C1386 0.950 . S
H1381 C1387 0.950 . S
H1382 C1388 0.949 . S
C1383 H1378 0.950 . S
C1383 C1385 1.327 . S
C1383 C1389 1.429 . S
C1384 C1376 1.574 . S
C1384 H1379 0.949 . S
C1384 C1390 1.368 . S
C1385 C1369 1.349 . S
C1385 H1377 0.950 . S
C1385 C1383 1.327 . S
C1386 C1374 1.349 . S
C1386 H1380 0.950 . S
C1386 C1387 1.327 . S
C1387 H1381 0.950 . S
C1387 C1386 1.327 . S
C1387 C1391 1.429 . S
C1388 C1371 1.574 . S
C1388 H1382 0.949 . S
C1388 C1392 1.368 . S
C1389 C1370 1.429 . S
C1389 C1383 1.429 . S
C1389 C1390 1.523 . S
C1390 C1371 1.368 . S
C1390 C1384 1.368 . S
C1390 C1389 1.523 . S
C1391 C1375 1.429 . S
C1391 C1387 1.429 . S
C1391 C1392 1.523 . S
C1392 C1376 1.368 . S
C1392 C1388 1.368 . S
C1392 C1391 1.523 . S
H1393 C1368 0.950 . S
H1394 C1370 0.950 . S
H1395 C1371 0.949 . S
H1396 C1373 0.950 . S
H1397 C1375 0.950 . S
C1398 C1399 1.349 . S
C1398 C1400 1.327 . S
C1398 H1423 0.950 . S
C1399 C1398 1.349 . S
C1399 C1415 1.349 . S
C1400 C1398 1.327 . S
C1400 C1419 1.429 . S
C1400 H1424 0.950 . S
C1401 C1418 1.574 . S
C1401 C1420 1.368 . S
C1401 H1425 0.949 . S
H1402 C1406 0.949 . S
C1403 C1404 1.349 . S
C1403 C1405 1.327 . S
C1403 H1426 0.950 . S
C1404 C1403 1.349 . S
C1404 C1416 1.349 . S
C1405 C1403 1.327 . S
C1405 C1421 1.429 . S
C1405 H1427 0.950 . S
C1406 H1402 0.949 . S
C1406 C1414 1.574 . S
C1406 C1422 1.368 . S
H1407 C1415 0.950 . S
H1408 C1413 0.950 . S
H1409 C1414 0.949 . S
H1410 C1416 0.950 . S
H1411 C1417 0.950 . S
H1412 C1418 0.949 . S
C1413 H1408 0.950 . S
C1413 C1415 1.327 . S
C1413 C1419 1.429 . S
C1414 C1406 1.574 . S
C1414 H1409 0.949 . S
C1414 C1420 1.368 . S
C1415 C1399 1.349 . S
C1415 H1407 0.950 . S
C1415 C1413 1.327 . S
C1416 C1404 1.349 . S
C1416 H1410 0.950 . S
C1416 C1417 1.327 . S
C1417 H1411 0.950 . S
C1417 C1416 1.327 . S
C1417 C1421 1.429 . S
C1418 C1401 1.574 . S
C1418 H1412 0.949 . S
C1418 C1422 1.368 . S
C1419 C1400 1.429 . S
C1419 C1413 1.429 . S
C1419 C1420 1.523 . S
C1420 C1401 1.368 . S
C1420 C1414 1.368 . S
C1420 C1419 1.523 . S
C1421 C1405 1.429 . S
C1421 C1417 1.429 . S
C1421 C1422 1.523 . S
C1422 C1406 1.368 . S
C1422 C1418 1.368 . S
C1422 C1421 1.523 . S
H1423 C1398 0.950 . S
H1424 C1400 0.950 . S
H1425 C1401 0.949 . S
H1426 C1403 0.950 . S
H1427 C1405 0.950 . S
C1428 C1429 1.349 . S
C1428 C1430 1.327 . S
C1428 H1453 0.950 . S
C1429 C1428 1.349 . S
C1429 C1445 1.349 . S
C1430 C1428 1.327 . S
C1430 C1449 1.429 . S
C1430 H1454 0.950 . S
C1431 C1448 1.574 . S
C1431 C1450 1.368 . S
C1431 H1455 0.949 . S
H1432 C1436 0.949 . S
C1433 C1434 1.349 . S
C1433 C1435 1.327 . S
C1433 H1456 0.950 . S
C1434 C1433 1.349 . S
C1434 C1446 1.349 . S
C1435 C1433 1.327 . S
C1435 C1451 1.429 . S
C1435 H1457 0.950 . S
C1436 H1432 0.949 . S
C1436 C1444 1.574 . S
C1436 C1452 1.368 . S
H1437 C1445 0.950 . S
H1438 C1443 0.950 . S
H1439 C1444 0.949 . S
H1440 C1446 0.950 . S
H1441 C1447 0.950 . S
H1442 C1448 0.949 . S
C1443 H1438 0.950 . S
C1443 C1445 1.327 . S
C1443 C1449 1.429 . S
C1444 C1436 1.574 . S
C1444 H1439 0.949 . S
C1444 C1450 1.368 . S
C1445 C1429 1.349 . S
C1445 H1437 0.950 . S
C1445 C1443 1.327 . S
C1446 C1434 1.349 . S
C1446 H1440 0.950 . S
C1446 C1447 1.327 . S
C1447 H1441 0.950 . S
C1447 C1446 1.327 . S
C1447 C1451 1.429 . S
C1448 C1431 1.574 . S
C1448 H1442 0.949 . S
C1448 C1452 1.368 . S
C1449 C1430 1.429 . S
C1449 C1443 1.429 . S
C1449 C1450 1.523 . S
C1450 C1431 1.368 . S
C1450 C1444 1.368 . S
C1450 C1449 1.523 . S
C1451 C1435 1.429 . S
C1451 C1447 1.429 . S
C1451 C1452 1.523 . S
C1452 C1436 1.368 . S
C1452 C1448 1.368 . S
C1452 C1451 1.523 . S
H1453 C1428 0.950 . S
H1454 C1430 0.950 . S
H1455 C1431 0.949 . S
H1456 C1433 0.950 . S
H1457 C1435 0.950 . S
C1458 C1459 1.349 . S
C1458 C1460 1.327 . S
C1458 H1483 0.950 . S
C1459 C1458 1.349 . S
C1459 C1475 1.349 . S
C1460 C1458 1.327 . S
C1460 C1479 1.429 . S
C1460 H1484 0.950 . S
C1461 C1478 1.574 . S
C1461 C1480 1.368 . S
C1461 H1485 0.949 . S
H1462 C1466 0.949 . S
C1463 C1464 1.349 . S
C1463 C1465 1.327 . S
C1463 H1486 0.950 . S
C1464 C1463 1.349 . S
C1464 C1476 1.349 . S
C1465 C1463 1.327 . S
C1465 C1481 1.429 . S
C1465 H1487 0.950 . S
C1466 H1462 0.949 . S
C1466 C1474 1.574 . S
C1466 C1482 1.368 . S
H1467 C1475 0.950 . S
H1468 C1473 0.950 . S
H1469 C1474 0.949 . S
H1470 C1476 0.950 . S
H1471 C1477 0.950 . S
H1472 C1478 0.949 . S
C1473 H1468 0.950 . S
C1473 C1475 1.327 . S
C1473 C1479 1.429 . S
C1474 C1466 1.574 . S
C1474 H1469 0.949 . S
C1474 C1480 1.368 . S
C1475 C1459 1.349 . S
C1475 H1467 0.950 . S
C1475 C1473 1.327 . S
C1476 C1464 1.349 . S
C1476 H1470 0.950 . S
C1476 C1477 1.327 . S
C1477 H1471 0.950 . S
C1477 C1476 1.327 . S
C1477 C1481 1.429 . S
C1478 C1461 1.574 . S
C1478 H1472 0.949 . S
C1478 C1482 1.368 . S
C1479 C1460 1.429 . S
C1479 C1473 1.429 . S
C1479 C1480 1.523 . S
C1480 C1461 1.368 . S
C1480 C1474 1.368 . S
C1480 C1479 1.523 . S
C1481 C1465 1.429 . S
C1481 C1477 1.429 . S
C1481 C1482 1.523 . S
C1482 C1466 1.368 . S
C1482 C1478 1.368 . S
C1482 C1481 1.523 . S
H1483 C1458 0.950 . S
H1484 C1460 0.950 . S
H1485 C1461 0.949 . S
H1486 C1463 0.950 . S
H1487 C1465 0.950 . S
C1488 C1489 1.349 . S
C1488 C1490 1.327 . S
C1488 H1513 0.950 . S
C1489 C1488 1.349 . S
C1489 C1505 1.349 . S
C1490 C1488 1.327 . S
C1490 C1509 1.429 . S
C1490 H1514 0.950 . S
C1491 C1508 1.574 . S
C1491 C1510 1.368 . S
C1491 H1515 0.949 . S
H1492 C1496 0.949 . S
C1493 C1494 1.349 . S
C1493 C1495 1.327 . S
C1493 H1516 0.950 . S
C1494 C1493 1.349 . S
C1494 C1506 1.349 . S
C1495 C1493 1.327 . S
C1495 C1511 1.429 . S
C1495 H1517 0.950 . S
C1496 H1492 0.949 . S
C1496 C1504 1.574 . S
C1496 C1512 1.368 . S
H1497 C1505 0.950 . S
H1498 C1503 0.950 . S
H1499 C1504 0.949 . S
H1500 C1506 0.950 . S
H1501 C1507 0.950 . S
H1502 C1508 0.949 . S
C1503 H1498 0.950 . S
C1503 C1505 1.327 . S
C1503 C1509 1.429 . S
C1504 C1496 1.574 . S
C1504 H1499 0.949 . S
C1504 C1510 1.368 . S
C1505 C1489 1.349 . S
C1505 H1497 0.950 . S
C1505 C1503 1.327 . S
C1506 C1494 1.349 . S
C1506 H1500 0.950 . S
C1506 C1507 1.327 . S
C1507 H1501 0.950 . S
C1507 C1506 1.327 . S
C1507 C1511 1.429 . S
C1508 C1491 1.574 . S
C1508 H1502 0.949 . S
C1508 C1512 1.368 . S
C1509 C1490 1.429 . S
C1509 C1503 1.429 . S
C1509 C1510 1.523 . S
C1510 C1491 1.368 . S
C1510 C1504 1.368 . S
C1510 C1509 1.523 . S
C1511 C1495 1.429 . S
C1511 C1507 1.429 . S
C1511 C1512 1.523 . S
C1512 C1496 1.368 . S
C1512 C1508 1.368 . S
C1512 C1511 1.523 . S
H1513 C1488 0.950 . S
H1514 C1490 0.950 . S
H1515 C1491 0.949 . S
H1516 C1493 0.950 . S
H1517 C1495 0.950 . S
C1518 C1519 1.349 . S
C1518 C1520 1.327 . S
C1518 H1543 0.950 . S
C1519 C1518 1.349 . S
C1519 C1535 1.349 . S
C1520 C1518 1.327 . S
C1520 C1539 1.429 . S
C1520 H1544 0.950 . S
C1521 C1538 1.574 . S
C1521 C1540 1.368 . S
C1521 H1545 0.949 . S
H1522 C1526 0.949 . S
C1523 C1524 1.349 . S
C1523 C1525 1.327 . S
C1523 H1546 0.950 . S
C1524 C1523 1.349 . S
C1524 C1536 1.349 . S
C1525 C1523 1.327 . S
C1525 C1541 1.429 . S
C1525 H1547 0.950 . S
C1526 H1522 0.949 . S
C1526 C1534 1.574 . S
C1526 C1542 1.368 . S
H1527 C1535 0.950 . S
H1528 C1533 0.950 . S
H1529 C1534 0.949 . S
H1530 C1536 0.950 . S
H1531 C1537 0.950 . S
H1532 C1538 0.949 . S
C1533 H1528 0.950 . S
C1533 C1535 1.327 . S
C1533 C1539 1.429 . S
C1534 C1526 1.574 . S
C1534 H1529 0.949 . S
C1534 C1540 1.368 . S
C1535 C1519 1.349 . S
C1535 H1527 0.950 . S
C1535 C1533 1.327 . S
C1536 C1524 1.349 . S
C1536 H1530 0.950 . S
C1536 C1537 1.327 . S
C1537 H1531 0.950 . S
C1537 C1536 1.327 . S
C1537 C1541 1.429 . S
C1538 C1521 1.574 . S
C1538 H1532 0.949 . S
C1538 C1542 1.368 . S
C1539 C1520 1.429 . S
C1539 C1533 1.429 . S
C1539 C1540 1.523 . S
C1540 C1521 1.368 . S
C1540 C1534 1.368 . S
C1540 C1539 1.523 . S
C1541 C1525 1.429 . S
C1541 C1537 1.429 . S
C1541 C1542 1.523 . S
C1542 C1526 1.368 . S
C1542 C1538 1.368 . S
C1542 C1541 1.523 . S
H1543 C1518 0.950 . S
H1544 C1520 0.950 . S
H1545 C1521 0.949 . S
H1546 C1523 0.950 . S
H1547 C1525 0.950 . S
C1548 C1549 1.349 . S
C1548 C1550 1.327 . S
C1548 H1573 0.950 . S
C1549 C1548 1.349 . S
C1549 C1565 1.349 . S
C1550 C1548 1.327 . S
C1550 C1569 1.429 . S
C1550 H1574 0.950 . S
C1551 C1568 1.574 . S
C1551 C1570 1.368 . S
C1551 H1575 0.949 . S
H1552 C1556 0.949 . S
C1553 C1554 1.349 . S
C1553 C1555 1.327 . S
C1553 H1576 0.950 . S
C1554 C1553 1.349 . S
C1554 C1566 1.349 . S
C1555 C1553 1.327 . S
C1555 C1571 1.429 . S
C1555 H1577 0.950 . S
C1556 H1552 0.949 . S
C1556 C1564 1.574 . S
C1556 C1572 1.368 . S
H1557 C1565 0.950 . S
H1558 C1563 0.950 . S
H1559 C1564 0.949 . S
H1560 C1566 0.950 . S
H1561 C1567 0.950 . S
H1562 C1568 0.949 . S
C1563 H1558 0.950 . S
C1563 C1565 1.327 . S
C1563 C1569 1.429 . S
C1564 C1556 1.574 . S
C1564 H1559 0.949 . S
C1564 C1570 1.368 . S
C1565 C1549 1.349 . S
C1565 H1557 0.950 . S
C1565 C1563 1.327 . S
C1566 C1554 1.349 . S
C1566 H1560 0.950 . S
C1566 C1567 1.327 . S
C1567 H1561 0.950 . S
C1567 C1566 1.327 . S
C1567 C1571 1.429 . S
C1568 C1551 1.574 . S
C1568 H1562 0.949 . S
C1568 C1572 1.368 . S
C1569 C1550 1.429 . S
C1569 C1563 1.429 . S
C1569 C1570 1.523 . S
C1570 C1551 1.368 . S
C1570 C1564 1.368 . S
C1570 C1569 1.523 . S
C1571 C1555 1.429 . S
C1571 C1567 1.429 . S
C1571 C1572 1.523 . S
C1572 C1556 1.368 . S
C1572 C1568 1.368 . S
C1572 C1571 1.523 . S
H1573 C1548 0.950 . S
H1574 C1550 0.950 . S
H1575 C1551 0.949 . S
H1576 C1553 0.950 . S
H1577 C1555 0.950 . S
C1578 C1579 1.349 . S
C1578 C1580 1.327 . S
C1578 H1603 0.950 . S
C1579 C1578 1.349 . S
C1579 C1595 1.349 . S
C1580 C1578 1.327 . S
C1580 C1599 1.429 . S
C1580 H1604 0.950 . S
C1581 C1598 1.574 . S
C1581 C1600 1.368 . S
C1581 H1605 0.949 . S
H1582 C1586 0.949 . S
C1583 C1584 1.349 . S
C1583 C1585 1.327 . S
C1583 H1606 0.950 . S
C1584 C1583 1.349 . S
C1584 C1596 1.349 . S
C1585 C1583 1.327 . S
C1585 C1601 1.429 . S
C1585 H1607 0.950 . S
C1586 H1582 0.949 . S
C1586 C1594 1.574 . S
C1586 C1602 1.368 . S
H1587 C1595 0.950 . S
H1588 C1593 0.950 . S
H1589 C1594 0.949 . S
H1590 C1596 0.950 . S
H1591 C1597 0.950 . S
H1592 C1598 0.949 . S
C1593 H1588 0.950 . S
C1593 C1595 1.327 . S
C1593 C1599 1.429 . S
C1594 C1586 1.574 . S
C1594 H1589 0.949 . S
C1594 C1600 1.368 . S
C1595 C1579 1.349 . S
C1595 H1587 0.950 . S
C1595 C1593 1.327 . S
C1596 C1584 1.349 . S
C1596 H1590 0.950 . S
C1596 C1597 1.327 . S
C1597 H1591 0.950 . S
C1597 C1596 1.327 . S
C1597 C1601 1.429 . S
C1598 C1581 1.574 . S
C1598 H1592 0.949 . S
C1598 C1602 1.368 . S
C1599 C1580 1.429 . S
C1599 C1593 1.429 . S
C1599 C1600 1.523 . S
C1600 C1581 1.368 . S
C1600 C1594 1.368 . S
C1600 C1599 1.523 . S
C1601 C1585 1.429 . S
C1601 C1597 1.429 . S
C1601 C1602 1.523 . S
C1602 C1586 1.368 . S
C1602 C1598 1.368 . S
C1602 C1601 1.523 . S
H1603 C1578 0.950 . S
H1604 C1580 0.950 . S
H1605 C1581 0.949 . S
H1606 C1583 0.950 . S
H1607 C1585 0.950 . S
C1608 C1609 1.349 . S
C1608 C1610 1.327 . S
C1608 H1633 0.950 . S
C1609 C1608 1.349 . S
C1609 C1625 1.349 . S
C1610 C1608 1.327 . S
C1610 C1629 1.429 . S
C1610 H1634 0.950 . S
C1611 C1628 1.574 . S
C1611 C1630 1.368 . S
C1611 H1635 0.949 . S
H1612 C1616 0.949 . S
C1613 C1614 1.349 . S
C1613 C1615 1.327 . S
C1613 H1636 0.950 . S
C1614 C1613 1.349 . S
C1614 C1626 1.349 . S
C1615 C1613 1.327 . S
C1615 C1631 1.429 . S
C1615 H1637 0.950 . S
C1616 H1612 0.949 . S
C1616 C1624 1.574 . S
C1616 C1632 1.368 . S
H1617 C1625 0.950 . S
H1618 C1623 0.950 . S
H1619 C1624 0.949 . S
H1620 C1626 0.950 . S
H1621 C1627 0.950 . S
H1622 C1628 0.949 . S
C1623 H1618 0.950 . S
C1623 C1625 1.327 . S
C1623 C1629 1.429 . S
C1624 C1616 1.574 . S
C1624 H1619 0.949 . S
C1624 C1630 1.368 . S
C1625 C1609 1.349 . S
C1625 H1617 0.950 . S
C1625 C1623 1.327 . S
C1626 C1614 1.349 . S
C1626 H1620 0.950 . S
C1626 C1627 1.327 . S
C1627 H1621 0.950 . S
C1627 C1626 1.327 . S
C1627 C1631 1.429 . S
C1628 C1611 1.574 . S
C1628 H1622 0.949 . S
C1628 C1632 1.368 . S
C1629 C1610 1.429 . S
C1629 C1623 1.429 . S
C1629 C1630 1.523 . S
C1630 C1611 1.368 . S
C1630 C1624 1.368 . S
C1630 C1629 1.523 . S
C1631 C1615 1.429 . S
C1631 C1627 1.429 . S
C1631 C1632 1.523 . S
C1632 C1616 1.368 . S
C1632 C1628 1.368 . S
C1632 C1631 1.523 . S
H1633 C1608 0.950 . S
H1634 C1610 0.950 . S
H1635 C1611 0.949 . S
H1636 C1613 0.950 . S
H1637 C1615 0.950 . S
C1638 C1639 1.349 . S
C1638 C1640 1.327 . S
C1638 H1663 0.950 . S
C1639 C1638 1.349 . S
C1639 C1655 1.349 . S
C1640 C1638 1.327 . S
C1640 C1659 1.429 . S
C1640 H1664 0.950 . S
C1641 C1658 1.574 . S
C1641 C1660 1.368 . S
C1641 H1665 0.949 . S
H1642 C1646 0.949 . S
C1643 C1644 1.349 . S
C1643 C1645 1.327 . S
C1643 H1666 0.950 . S
C1644 C1643 1.349 . S
C1644 C1656 1.349 . S
C1645 C1643 1.327 . S
C1645 C1661 1.429 . S
C1645 H1667 0.950 . S
C1646 H1642 0.949 . S
C1646 C1654 1.574 . S
C1646 C1662 1.368 . S
H1647 C1655 0.950 . S
H1648 C1653 0.950 . S
H1649 C1654 0.949 . S
H1650 C1656 0.950 . S
H1651 C1657 0.950 . S
H1652 C1658 0.949 . S
C1653 H1648 0.950 . S
C1653 C1655 1.327 . S
C1653 C1659 1.429 . S
C1654 C1646 1.574 . S
C1654 H1649 0.949 . S
C1654 C1660 1.368 . S
C1655 C1639 1.349 . S
C1655 H1647 0.950 . S
C1655 C1653 1.327 . S
C1656 C1644 1.349 . S
C1656 H1650 0.950 . S
C1656 C1657 1.327 . S
C1657 H1651 0.950 . S
C1657 C1656 1.327 . S
C1657 C1661 1.429 . S
C1658 C1641 1.574 . S
C1658 H1652 0.949 . S
C1658 C1662 1.368 . S
C1659 C1640 1.429 . S
C1659 C1653 1.429 . S
C1659 C1660 1.523 . S
C1660 C1641 1.368 . S
C1660 C1654 1.368 . S
C1660 C1659 1.523 . S
C1661 C1645 1.429 . S
C1661 C1657 1.429 . S
C1661 C1662 1.523 . S
C1662 C1646 1.368 . S
C1662 C1658 1.368 . S
C1662 C1661 1.523 . S
H1663 C1638 0.950 . S
H1664 C1640 0.950 . S
H1665 C1641 0.949 . S
H1666 C1643 0.950 . S
H1667 C1645 0.950 . S
C1668 C1669 1.349 . S
C1668 C1670 1.327 . S
C1668 H1693 0.950 . S
C1669 C1668 1.349 . S
C1669 C1685 1.349 . S
C1670 C1668 1.327 . S
C1670 C1689 1.429 . S
C1670 H1694 0.950 . S
C1671 C1688 1.574 . S
C1671 C1690 1.368 . S
C1671 H1695 0.949 . S
H1672 C1676 0.949 . S
C1673 C1674 1.349 . S
C1673 C1675 1.327 . S
C1673 H1696 0.950 . S
C1674 C1673 1.349 . S
C1674 C1686 1.349 . S
C1675 C1673 1.327 . S
C1675 C1691 1.429 . S
C1675 H1697 0.950 . S
C1676 H1672 0.949 . S
C1676 C1684 1.574 . S
C1676 C1692 1.368 . S
H1677 C1685 0.950 . S
H1678 C1683 0.950 . S
H1679 C1684 0.949 . S
H1680 C1686 0.950 . S
H1681 C1687 0.950 . S
H1682 C1688 0.949 . S
C1683 H1678 0.950 . S
C1683 C1685 1.327 . S
C1683 C1689 1.429 . S
C1684 C1676 1.574 . S
C1684 H1679 0.949 . S
C1684 C1690 1.368 . S
C1685 C1669 1.349 . S
C1685 H1677 0.950 . S
C1685 C1683 1.327 . S
C1686 C1674 1.349 . S
C1686 H1680 0.950 . S
C1686 C1687 1.327 . S
C1687 H1681 0.950 . S
C1687 C1686 1.327 . S
C1687 C1691 1.429 . S
C1688 C1671 1.574 . S
C1688 H1682 0.949 . S
C1688 C1692 1.368 . S
C1689 C1670 1.429 . S
C1689 C1683 1.429 . S
C1689 C1690 1.523 . S
C1690 C1671 1.368 . S
C1690 C1684 1.368 . S
C1690 C1689 1.523 . S
C1691 C1675 1.429 . S
C1691 C1687 1.429 . S
C1691 C1692 1.523 . S
C1692 C1676 1.368 . S
C1692 C1688 1.368 . S
C1692 C1691 1.523 . S
H1693 C1668 0.950 . S
H1694 C1670 0.950 . S
H1695 C1671 0.949 . S
H1696 C1673 0.950 . S
H1697 C1675 0.950 . S
C1698 C1699 1.349 . S
C1698 C1700 1.327 . S
C1698 H1723 0.950 . S
C1699 C1698 1.349 . S
C1699 C1715 1.349 . S
C1700 C1698 1.327 . S
C1700 C1719 1.429 . S
C1700 H1724 0.950 . S
C1701 C1718 1.574 . S
C1701 C1720 1.368 . S
C1701 H1725 0.949 . S
H1702 C1706 0.949 . S
C1703 C1704 1.349 . S
C1703 C1705 1.327 . S
C1703 H1726 0.950 . S
C1704 C1703 1.349 . S
C1704 C1716 1.349 . S
C1705 C1703 1.327 . S
C1705 C1721 1.429 . S
C1705 H1727 0.950 . S
C1706 H1702 0.949 . S
C1706 C1714 1.574 . S
C1706 C1722 1.368 . S
H1707 C1715 0.950 . S
H1708 C1713 0.950 . S
H1709 C1714 0.949 . S
H1710 C1716 0.950 . S
H1711 C1717 0.950 . S
H1712 C1718 0.949 . S
C1713 H1708 0.950 . S
C1713 C1715 1.327 . S
C1713 C1719 1.429 . S
C1714 C1706 1.574 . S
C1714 H1709 0.949 . S
C1714 C1720 1.368 . S
C1715 C1699 1.349 . S
C1715 H1707 0.950 . S
C1715 C1713 1.327 . S
C1716 C1704 1.349 . S
C1716 H1710 0.950 . S
C1716 C1717 1.327 . S
C1717 H1711 0.950 . S
C1717 C1716 1.327 . S
C1717 C1721 1.429 . S
C1718 C1701 1.574 . S
C1718 H1712 0.949 . S
C1718 C1722 1.368 . S
C1719 C1700 1.429 . S
C1719 C1713 1.429 . S
C1719 C1720 1.523 . S
C1720 C1701 1.368 . S
C1720 C1714 1.368 . S
C1720 C1719 1.523 . S
C1721 C1705 1.429 . S
C1721 C1717 1.429 . S
C1721 C1722 1.523 . S
C1722 C1706 1.368 . S
C1722 C1718 1.368 . S
C1722 C1721 1.523 . S
H1723 C1698 0.950 . S
H1724 C1700 0.950 . S
H1725 C1701 0.949 . S
H1726 C1703 0.950 . S
H1727 C1705 0.950 . S
C1728 C1729 1.349 . S
C1728 C1730 1.327 . S
C1728 H1753 0.950 . S
C1729 C1728 1.349 . S
C1729 C1745 1.349 . S
C1730 C1728 1.327 . S
C1730 C1749 1.429 . S
C1730 H1754 0.950 . S
C1731 C1748 1.574 . S
C1731 C1750 1.368 . S
C1731 H1755 0.949 . S
H1732 C1736 0.949 . S
C1733 C1734 1.349 . S
C1733 C1735 1.327 . S
C1733 H1756 0.950 . S
C1734 C1733 1.349 . S
C1734 C1746 1.349 . S
C1735 C1733 1.327 . S
C1735 C1751 1.429 . S
C1735 H1757 0.950 . S
C1736 H1732 0.949 . S
C1736 C1744 1.574 . S
C1736 C1752 1.368 . S
H1737 C1745 0.950 . S
H1738 C1743 0.950 . S
H1739 C1744 0.949 . S
H1740 C1746 0.950 . S
H1741 C1747 0.950 . S
H1742 C1748 0.949 . S
C1743 H1738 0.950 . S
C1743 C1745 1.327 . S
C1743 C1749 1.429 . S
C1744 C1736 1.574 . S
C1744 H1739 0.949 . S
C1744 C1750 1.368 . S
C1745 C1729 1.349 . S
C1745 H1737 0.950 . S
C1745 C1743 1.327 . S
C1746 C1734 1.349 . S
C1746 H1740 0.950 . S
C1746 C1747 1.327 . S
C1747 H1741 0.950 . S
C1747 C1746 1.327 . S
C1747 C1751 1.429 . S
C1748 C1731 1.574 . S
C1748 H1742 0.949 . S
C1748 C1752 1.368 . S
C1749 C1730 1.429 . S
C1749 C1743 1.429 . S
C1749 C1750 1.523 . S
C1750 C1731 1.368 . S
C1750 C1744 1.368 . S
C1750 C1749 1.523 . S
C1751 C1735 1.429 . S
C1751 C1747 1.429 . S
C1751 C1752 1.523 . S
C1752 C1736 1.368 . S
C1752 C1748 1.368 . S
C1752 C1751 1.523 . S
H1753 C1728 0.950 . S
H1754 C1730 0.950 . S
H1755 C1731 0.949 . S
H1756 C1733 0.950 . S
H1757 C1735 0.950 . S
C1758 C1759 1.349 . S
C1758 C1760 1.327 . S
C1758 H1783 0.950 . S
C1759 C1758 1.349 . S
C1759 C1775 1.349 . S
C1760 C1758 1.327 . S
C1760 C1779 1.429 . S
C1760 H1784 0.950 . S
C1761 C1778 1.574 . S
C1761 C1780 1.368 . S
C1761 H1785 0.949 . S
H1762 C1766 0.949 . S
C1763 C1764 1.349 . S
C1763 C1765 1.327 . S
C1763 H1786 0.950 . S
C1764 C1763 1.349 . S
C1764 C1776 1.349 . S
C1765 C1763 1.327 . S
C1765 C1781 1.429 . S
C1765 H1787 0.950 . S
C1766 H1762 0.949 . S
C1766 C1774 1.574 . S
C1766 C1782 1.368 . S
H1767 C1775 0.950 . S
H1768 C1773 0.950 . S
H1769 C1774 0.949 . S
H1770 C1776 0.950 . S
H1771 C1777 0.950 . S
H1772 C1778 0.949 . S
C1773 H1768 0.950 . S
C1773 C1775 1.327 . S
C1773 C1779 1.429 . S
C1774 C1766 1.574 . S
C1774 H1769 0.949 . S
C1774 C1780 1.368 . S
C1775 C1759 1.349 . S
C1775 H1767 0.950 . S
C1775 C1773 1.327 . S
C1776 C1764 1.349 . S
C1776 H1770 0.950 . S
C1776 C1777 1.327 . S
C1777 H1771 0.950 . S
C1777 C1776 1.327 . S
C1777 C1781 1.429 . S
C1778 C1761 1.574 . S
C1778 H1772 0.949 . S
C1778 C1782 1.368 . S
C1779 C1760 1.429 . S
C1779 C1773 1.429 . S
C1779 C1780 1.523 . S
C1780 C1761 1.368 . S
C1780 C1774 1.368 . S
C1780 C1779 1.523 . S
C1781 C1765 1.429 . S
C1781 C1777 1.429 . S
C1781 C1782 1.523 . S
C1782 C1766 1.368 . S
C1782 C1778 1.368 . S
C1782 C1781 1.523 . S
H1783 C1758 0.950 . S
H1784 C1760 0.950 . S
H1785 C1761 0.949 . S
H1786 C1763 0.950 . S
H1787 C1765 0.950 . S
C1788 C1789 1.349 . S
C1788 C1790 1.327 . S
C1788 H1813 0.950 . S
C1789 C1788 1.349 . S
C1789 C1805 1.349 . S
C1790 C1788 1.327 . S
C1790 C1809 1.429 . S
C1790 H1814 0.950 . S
C1791 C1808 1.574 . S
C1791 C1810 1.368 . S
C1791 H1815 0.949 . S
H1792 C1796 0.949 . S
C1793 C1794 1.349 . S
C1793 C1795 1.327 . S
C1793 H1816 0.950 . S
C1794 C1793 1.349 . S
C1794 C1806 1.349 . S
C1795 C1793 1.327 . S
C1795 C1811 1.429 . S
C1795 H1817 0.950 . S
C1796 H1792 0.949 . S
C1796 C1804 1.574 . S
C1796 C1812 1.368 . S
H1797 C1805 0.950 . S
H1798 C1803 0.950 . S
H1799 C1804 0.949 . S
H1800 C1806 0.950 . S
H1801 C1807 0.950 . S
H1802 C1808 0.949 . S
C1803 H1798 0.950 . S
C1803 C1805 1.327 . S
C1803 C1809 1.429 . S
C1804 C1796 1.574 . S
C1804 H1799 0.949 . S
C1804 C1810 1.368 . S
C1805 C1789 1.349 . S
C1805 H1797 0.950 . S
C1805 C1803 1.327 . S
C1806 C1794 1.349 . S
C1806 H1800 0.950 . S
C1806 C1807 1.327 . S
C1807 H1801 0.950 . S
C1807 C1806 1.327 . S
C1807 C1811 1.429 . S
C1808 C1791 1.574 . S
C1808 H1802 0.949 . S
C1808 C1812 1.368 . S
C1809 C1790 1.429 . S
C1809 C1803 1.429 . S
C1809 C1810 1.523 . S
C1810 C1791 1.368 . S
C1810 C1804 1.368 . S
C1810 C1809 1.523 . S
C1811 C1795 1.429 . S
C1811 C1807 1.429 . S
C1811 C1812 1.523 . S
C1812 C1796 1.368 . S
C1812 C1808 1.368 . S
C1812 C1811 1.523 . S
H1813 C1788 0.950 . S
H1814 C1790 0.950 . S
H1815 C1791 0.949 . S
H1816 C1793 0.950 . S
H1817 C1795 0.950 . S
C1818 C1819 1.349 . S
C1818 C1820 1.327 . S
C1818 H1843 0.950 . S
C1819 C1818 1.349 . S
C1819 C1835 1.349 . S
C1820 C1818 1.327 . S
C1820 C1839 1.429 . S
C1820 H1844 0.950 . S
C1821 C1838 1.574 . S
C1821 C1840 1.368 . S
C1821 H1845 0.949 . S
H1822 C1826 0.949 . S
C1823 C1824 1.349 . S
C1823 C1825 1.327 . S
C1823 H1846 0.950 . S
C1824 C1823 1.349 . S
C1824 C1836 1.349 . S
C1825 C1823 1.327 . S
C1825 C1841 1.429 . S
C1825 H1847 0.950 . S
C1826 H1822 0.949 . S
C1826 C1834 1.574 . S
C1826 C1842 1.368 . S
H1827 C1835 0.950 . S
H1828 C1833 0.950 . S
H1829 C1834 0.949 . S
H1830 C1836 0.950 . S
H1831 C1837 0.950 . S
H1832 C1838 0.949 . S
C1833 H1828 0.950 . S
C1833 C1835 1.327 . S
C1833 C1839 1.429 . S
C1834 C1826 1.574 . S
C1834 H1829 0.949 . S
C1834 C1840 1.368 . S
C1835 C1819 1.349 . S
C1835 H1827 0.950 . S
C1835 C1833 1.327 . S
C1836 C1824 1.349 . S
C1836 H1830 0.950 . S
C1836 C1837 1.327 . S
C1837 H1831 0.950 . S
C1837 C1836 1.327 . S
C1837 C1841 1.429 . S
C1838 C1821 1.574 . S
C1838 H1832 0.949 . S
C1838 C1842 1.368 . S
C1839 C1820 1.429 . S
C1839 C1833 1.429 . S
C1839 C1840 1.523 . S
C1840 C1821 1.368 . S
C1840 C1834 1.368 . S
C1840 C1839 1.523 . S
C1841 C1825 1.429 . S
C1841 C1837 1.429 . S
C1841 C1842 1.523 . S
C1842 C1826 1.368 . S
C1842 C1838 1.368 . S
C1842 C1841 1.523 . S
H1843 C1818 0.950 . S
H1844 C1820 0.950 . S
H1845 C1821 0.949 . S
H1846 C1823 0.950 . S
H1847 C1825 0.950 . S
C1848 C1849 1.349 . S
C1848 C1850 1.327 . S
C1848 H1873 0.950 . S
C1849 C1848 1.349 . S
C1849 C1865 1.349 . S
C1850 C1848 1.327 . S
C1850 C1869 1.429 . S
C1850 H1874 0.950 . S
C1851 C1868 1.574 . S
C1851 C1870 1.368 . S
C1851 H1875 0.949 . S
H1852 C1856 0.949 . S
C1853 C1854 1.349 . S
C1853 C1855 1.327 . S
C1853 H1876 0.950 . S
C1854 C1853 1.349 . S
C1854 C1866 1.349 . S
C1855 C1853 1.327 . S
C1855 C1871 1.429 . S
C1855 H1877 0.950 . S
C1856 H1852 0.949 . S
C1856 C1864 1.574 . S
C1856 C1872 1.368 . S
H1857 C1865 0.950 . S
H1858 C1863 0.950 . S
H1859 C1864 0.949 . S
H1860 C1866 0.950 . S
H1861 C1867 0.950 . S
H1862 C1868 0.949 . S
C1863 H1858 0.950 . S
C1863 C1865 1.327 . S
C1863 C1869 1.429 . S
C1864 C1856 1.574 . S
C1864 H1859 0.949 . S
C1864 C1870 1.368 . S
C1865 C1849 1.349 . S
C1865 H1857 0.950 . S
C1865 C1863 1.327 . S
C1866 C1854 1.349 . S
C1866 H1860 0.950 . S
C1866 C1867 1.327 . S
C1867 H1861 0.950 . S
C1867 C1866 1.327 . S
C1867 C1871 1.429 . S
C1868 C1851 1.574 . S
C1868 H1862 0.949 . S
C1868 C1872 1.368 . S
C1869 C1850 1.429 . S
C1869 C1863 1.429 . S
C1869 C1870 1.523 . S
C1870 C1851 1.368 . S
C1870 C1864 1.368 . S
C1870 C1869 1.523 . S
C1871 C1855 1.429 . S
C1871 C1867 1.429 . S
C1871 C1872 1.523 . S
C1872 C1856 1.368 . S
C1872 C1868 1.368 . S
C1872 C1871 1.523 . S
H1873 C1848 0.950 . S
H1874 C1850 0.950 . S
H1875 C1851 0.949 . S
H1876 C1853 0.950 . S
H1877 C1855 0.950 . S
C1878 C1879 1.349 . S
C1878 C1880 1.327 . S
C1878 H1903 0.950 . S
C1879 C1878 1.349 . S
C1879 C1895 1.349 . S
C1880 C1878 1.327 . S
C1880 C1899 1.429 . S
C1880 H1904 0.950 . S
C1881 C1898 1.574 . S
C1881 C1900 1.368 . S
C1881 H1905 0.949 . S
H1882 C1886 0.949 . S
C1883 C1884 1.349 . S
C1883 C1885 1.327 . S
C1883 H1906 0.950 . S
C1884 C1883 1.349 . S
C1884 C1896 1.349 . S
C1885 C1883 1.327 . S
C1885 C1901 1.429 . S
C1885 H1907 0.950 . S
C1886 H1882 0.949 . S
C1886 C1894 1.574 . S
C1886 C1902 1.368 . S
H1887 C1895 0.950 . S
H1888 C1893 0.950 . S
H1889 C1894 0.949 . S
H1890 C1896 0.950 . S
H1891 C1897 0.950 . S
H1892 C1898 0.949 . S
C1893 H1888 0.950 . S
C1893 C1895 1.327 . S
C1893 C1899 1.429 . S
C1894 C1886 1.574 . S
C1894 H1889 0.949 . S
C1894 C1900 1.368 . S
C1895 C1879 1.349 . S
C1895 H1887 0.950 . S
C1895 C1893 1.327 . S
C1896 C1884 1.349 . S
C1896 H1890 0.950 . S
C1896 C1897 1.327 . S
C1897 H1891 0.950 . S
C1897 C1896 1.327 . S
C1897 C1901 1.429 . S
C1898 C1881 1.574 . S
C1898 H1892 0.949 . S
C1898 C1902 1.368 . S
C1899 C1880 1.429 . S
C1899 C1893 1.429 . S
C1899 C1900 1.523 . S
C1900 C1881 1.368 . S
C1900 C1894 1.368 . S
C1900 C1899 1.523 . S
C1901 C1885 1.429 . S
C1901 C1897 1.429 . S
C1901 C1902 1.523 . S
C1902 C1886 1.368 . S
C1902 C1898 1.368 . S
C1902 C1901 1.523 . S
H1903 C1878 0.950 . S
H1904 C1880 0.950 . S
H1905 C1881 0.949 . S
H1906 C1883 0.950 . S
H1907 C1885 0.950 . S
C1908 C1909 1.349 . S
C1908 C1910 1.327 . S
C1908 H1933 0.950 . S
C1909 C1908 1.349 . S
C1909 C1925 1.349 . S
C1910 C1908 1.327 . S
C1910 C1929 1.429 . S
C1910 H1934 0.950 . S
C1911 C1928 1.575 . S
C1911 C1930 1.368 . S
C1911 H1935 0.949 . S
H1912 C1916 0.949 . S
C1913 C1914 1.349 . S
C1913 C1915 1.327 . S
C1913 H1936 0.950 . S
C1914 C1913 1.349 . S
C1914 C1926 1.349 . S
C1915 C1913 1.327 . S
C1915 C1931 1.429 . S
C1915 H1937 0.950 . S
C1916 H1912 0.949 . S
C1916 C1924 1.575 . S
C1916 C1932 1.368 . S
H1917 C1925 0.950 . S
H1918 C1923 0.950 . S
H1919 C1924 0.949 1_556 S
H1920 C1926 0.950 . S
H1921 C1927 0.950 . S
H1922 C1928 0.949 1_554 S
C1923 H1918 0.950 . S
C1923 C1925 1.327 . S
C1923 C1929 1.429 . S
C1924 C1916 1.575 . S
C1924 H1919 0.949 1_554 S
C1924 C1930 1.367 1_554 S
C1925 C1909 1.349 . S
C1925 H1917 0.950 . S
C1925 C1923 1.327 . S
C1926 C1914 1.349 . S
C1926 H1920 0.950 . S
C1926 C1927 1.327 . S
C1927 H1921 0.950 . S
C1927 C1926 1.327 . S
C1927 C1931 1.429 . S
C1928 C1911 1.575 . S
C1928 H1922 0.949 1_556 S
C1928 C1932 1.367 1_556 S
C1929 C1910 1.429 . S
C1929 C1923 1.429 . S
C1929 C1930 1.523 . S
C1930 C1911 1.368 . S
C1930 C1924 1.367 1_556 S
C1930 C1929 1.523 . S
C1931 C1915 1.429 . S
C1931 C1927 1.429 . S
C1931 C1932 1.523 . S
C1932 C1916 1.368 . S
C1932 C1928 1.367 1_554 S
C1932 C1931 1.523 . S
H1933 C1908 0.950 . S
H1934 C1910 0.950 . S
H1935 C1911 0.949 . S
H1936 C1913 0.950 . S
H1937 C1915 0.950 . S
C1938 C1939 1.349 . S
C1938 C1940 1.327 . S
C1938 H1963 0.950 . S
C1939 C1938 1.349 . S
C1939 C1955 1.349 . S
C1940 C1938 1.327 . S
C1940 C1959 1.429 . S
C1940 H1964 0.950 . S
C1941 C1958 1.574 . S
C1941 C1960 1.368 1_655 S
C1941 H1965 0.949 . S
H1942 C1946 0.949 . S
C1943 C1944 1.349 . S
C1943 C1945 1.327 . S
C1943 H1966 0.950 . S
C1944 C1943 1.349 . S
C1944 C1956 1.349 . S
C1945 C1943 1.327 . S
C1945 C1961 1.429 . S
C1945 H1967 0.950 . S
C1946 H1942 0.949 . S
C1946 C1954 1.574 . S
C1946 C1962 1.368 1_455 S
H1947 C1955 0.950 . S
H1948 C1953 0.950 . S
H1949 C1954 0.949 . S
H1950 C1956 0.950 . S
H1951 C1957 0.950 . S
H1952 C1958 0.949 . S
C1953 H1948 0.950 . S
C1953 C1955 1.327 . S
C1953 C1959 1.429 . S
C1954 C1946 1.574 . S
C1954 H1949 0.949 . S
C1954 C1960 1.368 . S
C1955 C1939 1.349 . S
C1955 H1947 0.950 . S
C1955 C1953 1.327 . S
C1956 C1944 1.349 . S
C1956 H1950 0.950 . S
C1956 C1957 1.327 . S
C1957 H1951 0.950 . S
C1957 C1956 1.327 . S
C1957 C1961 1.429 . S
C1958 C1941 1.574 . S
C1958 H1952 0.949 . S
C1958 C1962 1.368 . S
C1959 C1940 1.429 . S
C1959 C1953 1.429 . S
C1959 C1960 1.523 . S
C1960 C1941 1.368 1_455 S
C1960 C1954 1.368 . S
C1960 C1959 1.523 . S
C1961 C1945 1.429 . S
C1961 C1957 1.429 . S
C1961 C1962 1.523 . S
C1962 C1946 1.368 1_655 S
C1962 C1958 1.368 . S
C1962 C1961 1.523 . S
H1963 C1938 0.950 . S
H1964 C1940 0.950 . S
H1965 C1941 0.949 . S
H1966 C1943 0.950 . S
H1967 C1945 0.950 . S
C1968 C1969 1.349 . S
C1968 C1970 1.327 . S
C1968 H1993 0.950 . S
C1969 C1968 1.349 . S
C1969 C1985 1.349 . S
C1970 C1968 1.327 . S
C1970 C1989 1.429 . S
C1970 H1994 0.950 . S
C1971 C1988 1.573 . S
C1971 C1990 1.368 1_545 S
C1971 H1995 0.949 . S
H1972 C1976 0.949 . S
C1973 C1974 1.349 . S
C1973 C1975 1.327 . S
C1973 H1996 0.950 . S
C1974 C1973 1.349 . S
C1974 C1986 1.349 . S
C1975 C1973 1.327 . S
C1975 C1991 1.429 . S
C1975 H1997 0.950 . S
C1976 H1972 0.949 . S
C1976 C1984 1.573 . S
C1976 C1992 1.368 1_565 S
H1977 C1985 0.950 . S
H1978 C1983 0.950 . S
H1979 C1984 0.949 1_554 S
H1980 C1986 0.950 . S
H1981 C1987 0.950 . S
H1982 C1988 0.949 1_556 S
C1983 H1978 0.950 . S
C1983 C1985 1.327 . S
C1983 C1989 1.429 . S
C1984 C1976 1.573 . S
C1984 H1979 0.949 1_556 S
C1984 C1990 1.369 1_556 S
C1985 C1969 1.349 . S
C1985 H1977 0.950 . S
C1985 C1983 1.327 . S
C1986 C1974 1.349 . S
C1986 H1980 0.950 . S
C1986 C1987 1.327 . S
C1987 H1981 0.950 . S
C1987 C1986 1.327 . S
C1987 C1991 1.429 . S
C1988 C1971 1.573 . S
C1988 H1982 0.949 1_554 S
C1988 C1992 1.369 1_554 S
C1989 C1970 1.429 . S
C1989 C1983 1.429 . S
C1989 C1990 1.523 . S
C1990 C1971 1.368 1_565 S
C1990 C1984 1.369 1_554 S
C1990 C1989 1.523 . S
C1991 C1975 1.429 . S
C1991 C1987 1.429 . S
C1991 C1992 1.523 . S
C1992 C1976 1.368 1_545 S
C1992 C1988 1.369 1_556 S
C1992 C1991 1.523 . S
H1993 C1968 0.950 . S
H1994 C1970 0.950 . S
H1995 C1971 0.949 . S
H1996 C1973 0.950 . S
H1997 C1975 0.950 . S
C1998 C1999 1.349 . S
C1998 C2000 1.327 . S
C1998 H2023 0.950 . S
C1999 C1998 1.349 . S
C1999 C2015 1.349 . S
C2000 C1998 1.327 . S
C2000 C2019 1.429 . S
C2000 H2024 0.950 . S
C2001 C2018 1.574 . S
C2001 C2020 1.368 . S
C2001 H2025 0.949 . S
H2002 C2006 0.949 . S
C2003 C2004 1.349 . S
C2003 C2005 1.327 . S
C2003 H2026 0.950 . S
C2004 C2003 1.349 . S
C2004 C2016 1.349 . S
C2005 C2003 1.327 . S
C2005 C2021 1.429 . S
C2005 H2027 0.950 . S
C2006 H2002 0.949 . S
C2006 C2014 1.574 . S
C2006 C2022 1.368 . S
H2007 C2015 0.950 . S
H2008 C2013 0.950 . S
H2009 C2014 0.949 . S
H2010 C2016 0.950 . S
H2011 C2017 0.950 . S
H2012 C2018 0.949 . S
C2013 H2008 0.950 . S
C2013 C2015 1.327 . S
C2013 C2019 1.429 . S
C2014 C2006 1.574 . S
C2014 H2009 0.949 . S
C2014 C2020 1.368 . S
C2015 C1999 1.349 . S
C2015 H2007 0.950 . S
C2015 C2013 1.327 . S
C2016 C2004 1.349 . S
C2016 H2010 0.950 . S
C2016 C2017 1.327 . S
C2017 H2011 0.950 . S
C2017 C2016 1.327 . S
C2017 C2021 1.429 . S
C2018 C2001 1.574 . S
C2018 H2012 0.949 . S
C2018 C2022 1.368 . S
C2019 C2000 1.429 . S
C2019 C2013 1.429 . S
C2019 C2020 1.523 . S
C2020 C2001 1.368 . S
C2020 C2014 1.368 . S
C2020 C2019 1.523 . S
C2021 C2005 1.429 . S
C2021 C2017 1.429 . S
C2021 C2022 1.523 . S
C2022 C2006 1.368 . S
C2022 C2018 1.368 . S
C2022 C2021 1.523 . S
H2023 C1998 0.950 . S
H2024 C2000 0.950 . S
H2025 C2001 0.949 . S
H2026 C2003 0.950 . S
H2027 C2005 0.950 . S
C2028 C2029 1.349 . S
C2028 C2030 1.327 . S
C2028 H2053 0.950 . S
C2029 C2028 1.349 . S
C2029 C2045 1.349 . S
C2030 C2028 1.327 . S
C2030 C2049 1.429 . S
C2030 H2054 0.950 . S
C2031 C2048 1.574 1_656 S
C2031 C2050 1.368 . S
C2031 H2055 0.949 . S
H2032 C2036 0.949 . S
C2033 C2034 1.349 . S
C2033 C2035 1.327 . S
C2033 H2056 0.950 . S
C2034 C2033 1.349 . S
C2034 C2046 1.349 . S
C2035 C2033 1.327 . S
C2035 C2051 1.429 . S
C2035 H2057 0.950 . S
C2036 H2032 0.949 . S
C2036 C2044 1.574 1_454 S
C2036 C2052 1.368 . S
H2037 C2045 0.950 . S
H2038 C2043 0.950 . S
H2039 C2044 0.949 . S
H2040 C2046 0.950 . S
H2041 C2047 0.950 . S
H2042 C2048 0.949 . S
C2043 H2038 0.950 . S
C2043 C2045 1.327 . S
C2043 C2049 1.429 . S
C2044 C2036 1.574 1_656 S
C2044 H2039 0.949 . S
C2044 C2050 1.368 . S
C2045 C2029 1.349 . S
C2045 H2037 0.950 . S
C2045 C2043 1.327 . S
C2046 C2034 1.349 . S
C2046 H2040 0.950 . S
C2046 C2047 1.327 . S
C2047 H2041 0.950 . S
C2047 C2046 1.327 . S
C2047 C2051 1.429 . S
C2048 C2031 1.574 1_454 S
C2048 H2042 0.949 . S
C2048 C2052 1.368 . S
C2049 C2030 1.429 . S
C2049 C2043 1.429 . S
C2049 C2050 1.523 . S
C2050 C2031 1.368 . S
C2050 C2044 1.368 . S
C2050 C2049 1.523 . S
C2051 C2035 1.429 . S
C2051 C2047 1.429 . S
C2051 C2052 1.523 . S
C2052 C2036 1.368 . S
C2052 C2048 1.368 . S
C2052 C2051 1.523 . S
H2053 C2028 0.950 . S
H2054 C2030 0.950 . S
H2055 C2031 0.949 . S
H2056 C2033 0.950 . S
H2057 C2035 0.950 . S
C2058 C2059 1.349 . S
C2058 C2060 1.327 . S
C2058 H2083 0.950 . S
C2059 C2058 1.349 . S
C2059 C2075 1.349 . S
C2060 C2058 1.327 . S
C2060 C2079 1.429 . S
C2060 H2084 0.950 . S
C2061 C2078 1.574 . S
C2061 C2080 1.368 . S
C2061 H2085 0.949 . S
H2062 C2066 0.949 . S
C2063 C2064 1.349 . S
C2063 C2065 1.327 . S
C2063 H2086 0.950 . S
C2064 C2063 1.349 . S
C2064 C2076 1.349 . S
C2065 C2063 1.327 . S
C2065 C2081 1.429 . S
C2065 H2087 0.950 . S
C2066 H2062 0.949 . S
C2066 C2074 1.574 . S
C2066 C2082 1.368 . S
H2067 C2075 0.950 . S
H2068 C2073 0.950 . S
H2069 C2074 0.949 . S
H2070 C2076 0.950 . S
H2071 C2077 0.950 . S
H2072 C2078 0.949 . S
C2073 H2068 0.950 . S
C2073 C2075 1.327 . S
C2073 C2079 1.429 . S
C2074 C2066 1.574 . S
C2074 H2069 0.949 . S
C2074 C2080 1.368 1_545 S
C2075 C2059 1.349 . S
C2075 H2067 0.950 . S
C2075 C2073 1.327 . S
C2076 C2064 1.349 . S
C2076 H2070 0.950 . S
C2076 C2077 1.327 . S
C2077 H2071 0.950 . S
C2077 C2076 1.327 . S
C2077 C2081 1.429 . S
C2078 C2061 1.574 . S
C2078 H2072 0.949 . S
C2078 C2082 1.368 1_565 S
C2079 C2060 1.429 . S
C2079 C2073 1.429 . S
C2079 C2080 1.523 . S
C2080 C2061 1.368 . S
C2080 C2074 1.368 1_565 S
C2080 C2079 1.523 . S
C2081 C2065 1.429 . S
C2081 C2077 1.429 . S
C2081 C2082 1.523 . S
C2082 C2066 1.368 . S
C2082 C2078 1.368 1_545 S
C2082 C2081 1.523 . S
H2083 C2058 0.950 . S
H2084 C2060 0.950 . S
H2085 C2061 0.949 . S
H2086 C2063 0.950 . S
H2087 C2065 0.950 . S
C1009 C403 1.332 . S
C1014 C58 1.180 . S
C1039 C487 1.332 . S
C1044 C142 1.180 . S
C1069 C226 1.180 . S
C1074 C67 1.332 . S
C1099 C310 1.180 . S
C1104 C151 1.332 . S
C1129 C394 1.180 . S
C1134 C235 1.332 . S
C1159 C319 1.332 . S
C1164 C478 1.180 . S
C1189 C739 1.332 . S
C1194 C562 1.180 . S
C1219 C646 1.180 . S
C1224 C823 1.332 . S
C1249 C907 1.332 . S
C1254 C730 1.180 . S
C1279 C814 1.180 . S
C1284 C991 1.332 . S
C1309 C898 1.180 . S
C1314 C571 1.332 . S
C1339 C655 1.332 . S
C1344 C982 1.180 . S
C1369 C392 1.420 . S
C1374 C69 1.269 . S
C1399 C153 1.269 . S
C1404 C476 1.420 . S
C1429 C237 1.269 . S
C1434 C56 1.420 . S
C1459 C321 1.269 . S
C1464 C140 1.420 . S
C1489 C224 1.420 . S
C1494 C405 1.269 . S
C1519 C308 1.420 . S
C1524 C489 1.269 . S
C1549 C728 1.420 . S
C1554 C573 1.269 . S
C1579 C657 1.269 . S
C1584 C812 1.420 . S
C1609 C741 1.269 . S
C1614 C896 1.420 . S
C1639 C980 1.420 . S
C1644 C825 1.269 . S
C1669 C909 1.269 . S
C1674 C560 1.420 . S
C1699 C644 1.420 . S
C1704 C993 1.269 . S
C1729 C914 1.832 . S
C1734 C74 1.832 . S
C1759 C158 1.832 . S
C1764 C998 1.832 . S
C1789 C242 1.832 . S
C1794 C578 1.832 . S
C1819 C326 1.832 . S
C1824 C662 1.832 . S
C1849 C410 1.832 . S
C1854 C746 1.832 . S
C1879 C830 1.832 . S
C1884 C494 1.832 . S
C1909 C819 1.928 . S
C1914 C63 1.928 . S
C1939 C903 1.928 . S
C1944 C147 1.928 . S
C1969 C231 1.928 . S
C1974 C987 1.928 . S
C1999 C315 1.928 . S
C2004 C567 1.928 . S
C2029 C651 1.928 . S
C2034 C399 1.928 . S
C2059 C735 1.928 . S
C2064 C483 1.928 . S
