# Generated by pormake.
# Topology lcy-e, (6)-cn, num edge types: 1
# Building blocks:
#     Node 0, Type 0, BuildingBlock: KUMJIN_clean_sbu_1, # of connection points: 6
#     Node 1, Type 0, BuildingBlock: KUMJIN_clean_sbu_1, # of connection points: 6
#     Node 2, Type 0, BuildingBlock: KUMJIN_clean_sbu_1, # of connection points: 6
#     Node 3, Type 0, BuildingBlock: KUMJIN_clean_sbu_1, # of connection points: 6
#     Node 4, Type 0, BuildingBlock: KUMJIN_clean_sbu_1, # of connection points: 6
#     Node 5, Type 0, BuildingBlock: KUMJIN_clean_sbu_1, # of connection points: 6
#     Node 6, Type 0, BuildingBlock: KUMJIN_clean_sbu_1, # of connection points: 6
#     Node 7, Type 0, BuildingBlock: KUMJIN_clean_sbu_1, # of connection points: 6
#     Node 8, Type 0, BuildingBlock: KUMJIN_clean_sbu_1, # of connection points: 6
#     Node 9, Type 0, BuildingBlock: KUMJIN_clean_sbu_1, # of connection points: 6
#     Node 10, Type 0, BuildingBlock: KUMJIN_clean_sbu_1, # of connection points: 6
#     Node 11, Type 0, BuildingBlock: KUMJIN_clean_sbu_1, # of connection points: 6
#     Edge 12, Type (0, 0), BuildingBlock: TEMPAE_clean_linker_10, # of connection points: 2
#     Edge 13, Type (0, 0), BuildingBlock: TEMPAE_clean_linker_10, # of connection points: 2
#     Edge 14, Type (0, 0), BuildingBlock: TEMPAE_clean_linker_10, # of connection points: 2
#     Edge 15, Type (0, 0), BuildingBlock: TEMPAE_clean_linker_10, # of connection points: 2
#     Edge 16, Type (0, 0), BuildingBlock: TEMPAE_clean_linker_10, # of connection points: 2
#     Edge 17, Type (0, 0), BuildingBlock: TEMPAE_clean_linker_10, # of connection points: 2
#     Edge 18, Type (0, 0), BuildingBlock: TEMPAE_clean_linker_10, # of connection points: 2
#     Edge 19, Type (0, 0), BuildingBlock: TEMPAE_clean_linker_10, # of connection points: 2
#     Edge 20, Type (0, 0), BuildingBlock: TEMPAE_clean_linker_10, # of connection points: 2
#     Edge 21, Type (0, 0), BuildingBlock: TEMPAE_clean_linker_10, # of connection points: 2
#     Edge 22, Type (0, 0), BuildingBlock: TEMPAE_clean_linker_10, # of connection points: 2
#     Edge 23, Type (0, 0), BuildingBlock: TEMPAE_clean_linker_10, # of connection points: 2
#     Edge 24, Type (0, 0), BuildingBlock: TEMPAE_clean_linker_10, # of connection points: 2
#     Edge 25, Type (0, 0), BuildingBlock: TEMPAE_clean_linker_10, # of connection points: 2
#     Edge 26, Type (0, 0), BuildingBlock: TEMPAE_clean_linker_10, # of connection points: 2
#     Edge 27, Type (0, 0), BuildingBlock: TEMPAE_clean_linker_10, # of connection points: 2
#     Edge 28, Type (0, 0), BuildingBlock: TEMPAE_clean_linker_10, # of connection points: 2
#     Edge 29, Type (0, 0), BuildingBlock: TEMPAE_clean_linker_10, # of connection points: 2
#     Edge 30, Type (0, 0), BuildingBlock: TEMPAE_clean_linker_10, # of connection points: 2
#     Edge 31, Type (0, 0), BuildingBlock: TEMPAE_clean_linker_10, # of connection points: 2
#     Edge 32, Type (0, 0), BuildingBlock: TEMPAE_clean_linker_10, # of connection points: 2
#     Edge 33, Type (0, 0), BuildingBlock: TEMPAE_clean_linker_10, # of connection points: 2
#     Edge 34, Type (0, 0), BuildingBlock: TEMPAE_clean_linker_10, # of connection points: 2
#     Edge 35, Type (0, 0), BuildingBlock: TEMPAE_clean_linker_10, # of connection points: 2
#     Edge 36, Type (0, 0), BuildingBlock: TEMPAE_clean_linker_10, # of connection points: 2
#     Edge 37, Type (0, 0), BuildingBlock: TEMPAE_clean_linker_10, # of connection points: 2
#     Edge 38, Type (0, 0), BuildingBlock: TEMPAE_clean_linker_10, # of connection points: 2
#     Edge 39, Type (0, 0), BuildingBlock: TEMPAE_clean_linker_10, # of connection points: 2
#     Edge 40, Type (0, 0), BuildingBlock: TEMPAE_clean_linker_10, # of connection points: 2
#     Edge 41, Type (0, 0), BuildingBlock: TEMPAE_clean_linker_10, # of connection points: 2
#     Edge 42, Type (0, 0), BuildingBlock: TEMPAE_clean_linker_10, # of connection points: 2
#     Edge 43, Type (0, 0), BuildingBlock: TEMPAE_clean_linker_10, # of connection points: 2
#     Edge 44, Type (0, 0), BuildingBlock: TEMPAE_clean_linker_10, # of connection points: 2
#     Edge 45, Type (0, 0), BuildingBlock: TEMPAE_clean_linker_10, # of connection points: 2
#     Edge 46, Type (0, 0), BuildingBlock: TEMPAE_clean_linker_10, # of connection points: 2
#     Edge 47, Type (0, 0), BuildingBlock: TEMPAE_clean_linker_10, # of connection points: 2
# Relax obj value: 0.092
# Max RMSD: 0.241
# Mean RMSD: 0.240
data_MOF--net-lcy-e--node1-KUMJIN_clean_sbu_1--edge1-TEMPAE_clean_linker_10
_symmetry_space_group_name_H-M    P1
_symmetry_Int_Tables_number       1
_symmetry_cell_setting            triclinic
loop_
_symmetry_equiv_pos_as_xyz
'x, y, z'
_cell_length_a     44.719913
_cell_length_b     44.436583
_cell_length_c     44.704849
_cell_angle_alpha  89.899947
_cell_angle_beta   90.036724
_cell_angle_gamma 89.691758
loop_
_atom_site_label
_atom_site_type_symbol
_atom_site_fract_x
_atom_site_fract_y
_atom_site_fract_z
_atom_type_partial_charge
Eu0 Eu 0.14355 0.20513 0.52081 0.0
C1 C 0.05035 0.29772 0.46793 0.0
N2 N 0.06635 0.2753 0.45456 0.0
C3 C 0.02245 0.25925 0.42836 0.0
C4 C 0.01915 0.3002 0.46358 0.0
C5 C 0.05329 0.25792 0.4331 0.0
C6 C 0.00512 0.27984 0.44436 0.0
C7 C 0.04979 0.34502 0.49526 0.0
C8 C 0.06552 0.32017 0.48338 0.0
C9 C 0.01852 0.34629 0.49276 0.0
C10 C 1.00324 0.32394 0.47696 0.0
Eu11 Eu 0.11833 0.27508 0.46473 0.0
N12 N 0.09586 0.31842 0.48558 0.0
C13 C 0.06605 0.36838 0.50841 0.0
C14 C 0.11188 0.34173 0.4971 0.0
C15 C 0.09726 0.36698 0.50881 0.0
H16 H 0.06664 0.24325 0.41921 0.0
H17 H 0.11003 0.38525 0.51827 0.0
H18 H 0.20803 0.23664 0.54841 0.0
H19 H 0.12726 0.10389 0.45478 0.0
H20 H 0.13585 0.34078 0.49716 0.0
H21 H 0.05478 0.3879 0.51765 0.0
H22 H 0.11191 0.15132 0.47948 0.0
H23 H 0.01226 0.24493 0.41178 0.0
H24 H 0.00604 0.36502 0.50206 0.0
H25 H 0.97924 0.32592 0.47417 0.0
H26 H 0.26114 0.22371 0.55051 0.0
H27 H 0.98126 0.28108 0.4403 0.0
H28 H 0.18025 0.0877 0.45625 0.0
N29 N 0.1961 0.19902 0.52124 0.0
C30 C 0.20577 0.17274 0.50864 0.0
C31 C 0.24584 0.20935 0.53844 0.0
C32 C 0.23603 0.16385 0.51076 0.0
C33 C 0.21555 0.21697 0.53654 0.0
C34 C 0.25611 0.18265 0.52565 0.0
N35 N 0.15612 0.16272 0.49239 0.0
C36 C 0.13521 0.14485 0.4792 0.0
C37 C 0.19481 0.12671 0.48121 0.0
C38 C 0.18529 0.15407 0.49414 0.0
C39 C 0.17372 0.10877 0.46657 0.0
C40 C 0.14379 0.11788 0.46557 0.0
H41 H 0.27953 0.1766 0.52767 0.0
H42 H 0.2684 0.12896 0.50025 0.0
H43 H 0.23257 0.09693 0.47383 0.0
O44 O 0.11844 0.16854 0.54192 0.0
O45 O 0.15402 0.20433 0.47074 0.0
O46 O 0.1642 0.25316 0.45935 0.0
O47 O 0.15846 0.18513 0.56298 0.0
O48 O 0.09591 0.20644 0.50309 0.0
O49 O 0.10268 0.22695 0.45629 0.0
O50 O 0.1361 0.31465 0.44181 0.0
O51 O 0.1016 0.28087 0.51349 0.0
O52 O 0.11355 0.2389 0.54302 0.0
O53 O 0.11746 0.27853 0.41581 0.0
O54 O 0.16241 0.27501 0.48943 0.0
O55 O 0.15994 0.25221 0.53529 0.0
C56 C 0.17052 0.22436 0.45701 0.0
C57 C 0.12236 0.16199 0.59442 0.0
C58 C 0.10015 0.12808 0.63158 0.0
C59 C 0.09813 0.15254 0.6515 0.0
C60 C 0.12039 0.18579 0.61487 0.0
C61 C 0.10843 0.18097 0.64326 0.0
C62 C 0.11218 0.13318 0.60282 0.0
C63 C 0.08754 0.20997 0.4751 0.0
C64 C 0.13626 0.16634 0.56481 0.0
C65 C 0.24535 0.13632 0.49837 0.0
C66 C 0.2249 0.11796 0.48346 0.0
C67 C 0.10025 0.26504 0.5387 0.0
C68 C 0.11544 0.32761 0.39489 0.0
C69 C 0.11933 0.36139 0.35168 0.0
C70 C 0.09027 0.372 0.35778 0.0
C71 C 0.08651 0.33852 0.4004 0.0
C72 C 0.13173 0.3389 0.37035 0.0
C73 C 0.07401 0.36054 0.38187 0.0
C74 C 0.16638 0.27587 0.51843 0.0
C75 C 0.12924 0.30529 0.41514 0.0
H76 H 0.08859 0.14977 0.67358 0.0
H77 H 0.12834 0.20802 0.609 0.0
H78 H 0.10724 0.19934 0.65908 0.0
H79 H 0.11448 0.11465 0.58725 0.0
H80 H 0.08 0.38903 0.3437 0.0
H81 H 0.07368 0.33018 0.41909 0.0
H82 H 0.15422 0.3307 0.3662 0.0
H83 H 0.05165 0.36886 0.38627 0.0
Eu84 Eu 0.05513 0.89178 0.77054 0.0
C85 C 0.95392 0.80724 0.71548 0.0
N86 N 0.97838 0.82059 0.70327 0.0
C87 C 0.99012 0.77522 0.67667 0.0
C88 C 0.94774 0.77661 0.71008 0.0
C89 C 0.99514 0.80566 0.68251 0.0
C90 C 0.96671 0.76042 0.69103 0.0
C91 C 0.90819 0.81157 0.74454 0.0
C92 C 0.934 0.82464 0.73204 0.0
C93 C 0.90267 0.78081 0.7402 0.0
C94 C 0.92233 0.7634 0.72295 0.0
Eu95 Eu 0.98475 0.87211 0.71481 0.0
N96 N 0.94006 0.85432 0.73623 0.0
C97 C 0.88891 0.82975 0.76139 0.0
C98 C 0.92062 0.87244 0.7513 0.0
C99 C 0.89514 0.86032 0.7647 0.0
H100 H 0.01173 0.81738 0.66962 0.0
H101 H 0.88026 0.87452 0.77749 0.0
H102 H 0.02768 0.94937 0.81343 0.0
H103 H 0.15222 0.88798 0.69743 0.0
H104 H 0.9247 0.89623 0.75272 0.0
H105 H 0.86908 0.82048 0.77174 0.0
H106 H 0.10731 0.8678 0.72281 0.0
H107 H 0.00386 0.76341 0.66055 0.0
H108 H 0.88308 0.77033 0.74985 0.0
H109 H 0.91742 0.73985 0.71926 0.0
H110 H 0.03865 1.00251 0.82224 0.0
H111 H 0.96268 0.7369 0.68623 0.0
H112 H 0.16627 0.94126 0.70456 0.0
N113 N 0.06127 0.94377 0.77988 0.0
C114 C 0.08538 0.95639 0.76616 0.0
C115 C 0.05174 0.98989 0.80617 0.0
C116 C 0.09354 0.98641 0.77221 0.0
C117 C 0.04511 0.95975 0.80044 0.0
C118 C 0.07599 1.00332 0.79194 0.0
N119 N 0.09521 0.90986 0.74193 0.0
C120 C 0.113 0.89128 0.72525 0.0
C121 C 0.12884 0.95109 0.73374 0.0
C122 C 0.10298 0.93891 0.74708 0.0
C123 C 0.14634 0.93265 0.71527 0.0
C124 C 0.13846 0.90257 0.71113 0.0
H125 H 0.08145 0.0265 0.79695 0.0
H126 H 0.12631 0.02118 0.7642 0.0
H127 H 0.1567 0.99062 0.72988 0.0
O128 O 0.09089 0.86102 0.78403 0.0
O129 O 0.054 0.90571 0.72141 0.0
O130 O 0.00556 0.91861 0.71382 0.0
O131 O 0.07894 0.89782 0.81304 0.0
O132 O 0.04961 0.84538 0.75087 0.0
O133 O 0.03162 0.85445 0.70383 0.0
O134 O 0.94606 0.89058 0.69103 0.0
O135 O 0.98298 0.84754 0.76071 0.0
O136 O 0.01803 0.86757 0.79405 0.0
O137 O 0.98392 0.87426 0.66579 0.0
O138 O 0.98191 0.91464 0.74277 0.0
O139 O 0.00892 0.90857 0.78668 0.0
C140 C 0.03404 0.92444 0.71064 0.0
C141 C 0.10154 0.85467 0.83526 0.0
C142 C 0.13658 0.83188 0.87107 0.0
C143 C 0.11268 0.81524 0.88309 0.0
C144 C 0.07831 0.83755 0.84736 0.0
C145 C 0.08383 0.81814 0.87133 0.0
C146 C 0.13063 0.85178 0.84709 0.0
C147 C 0.0489 0.83907 0.72229 0.0
C148 C 0.09622 0.87443 0.80929 0.0
C149 C 0.11943 0.99839 0.75921 0.0
C150 C 0.13683 0.98094 0.73979 0.0
C151 C 0.99511 0.85011 0.78775 0.0
C152 C 0.93639 0.87428 0.64174 0.0
C153 C 0.90274 0.88338 0.59934 0.0
C154 C 0.89448 0.85289 0.6003 0.0
C155 C 0.92775 0.84402 0.64217 0.0
C156 C 0.92405 0.8939 0.62007 0.0
C157 C 0.90701 0.8334 0.62146 0.0
C158 C 0.98476 0.9176 0.77188 0.0
C159 C 0.95714 0.88602 0.6645 0.0
H160 H 0.11636 0.79938 0.90115 0.0
H161 H 0.05608 0.83889 0.83795 0.0
H162 H 0.06575 0.80494 0.88055 0.0
H163 H 0.14856 0.86498 0.83754 0.0
H164 H 0.87839 0.84405 0.58451 0.0
H165 H 0.93682 0.82865 0.6586 0.0
H166 H 0.93042 0.91741 0.61986 0.0
H167 H 0.90044 0.80999 0.62194 0.0
Eu168 Eu 0.39586 0.73765 0.95629 0.0
C169 C 0.31447 0.77137 0.06785 0.0
N170 N 0.31897 0.78303 0.04012 0.0
C171 C 0.26601 0.78528 0.03189 0.0
C172 C 0.28541 0.76489 0.07819 0.0
C173 C 0.29527 0.79133 0.02271 0.0
C174 C 0.26107 0.77158 0.05958 0.0
C175 C 0.33526 0.75485 0.11518 0.0
C176 C 0.33907 0.76627 0.08599 0.0
C177 C 0.3065 0.74716 0.12517 0.0
C178 C 0.28162 0.75218 0.10671 0.0
Eu179 Eu 0.36918 0.79149 0.02575 0.0
N180 N 0.36655 0.77403 0.07569 0.0
C181 C 0.36032 0.75248 0.13378 0.0
C182 C 0.39062 0.77366 0.09435 0.0
C183 C 0.38803 0.76249 0.12351 0.0
H184 H 0.29882 0.80302 1.00199 0.0
H185 H 0.40725 0.76199 0.13821 0.0
H186 H 0.44979 0.69098 0.98343 0.0
H187 H 0.39814 0.81049 0.85855 0.0
H188 H 0.41154 0.78301 0.08697 0.0
H189 H 0.35832 0.74401 0.15643 0.0
H190 H 0.37541 0.78472 0.90215 0.0
H191 H 0.24731 0.79146 0.01773 0.0
H192 H 0.30319 0.73801 0.1474 0.0
H193 H 0.25952 0.74666 0.1149 0.0
H194 H 0.50334 0.68134 0.9758 0.0
H195 H 0.23839 0.76692 0.06666 0.0
H196 H 0.45227 0.80465 0.84855 0.0
N197 N 0.44758 0.72696 0.9518 0.0
C198 C 0.46211 0.74181 0.92955 0.0
C199 C 0.49212 0.69866 0.96289 0.0
C200 C 0.49243 0.73556 0.9232 0.0
C201 C 0.4618 0.70476 0.96764 0.0
C202 C 0.50758 0.71428 0.94073 0.0
N203 N 0.4167 0.76646 0.91741 0.0
C204 C 0.39919 0.7827 0.89811 0.0
C205 C 0.45991 0.77555 0.88676 0.0
C206 C 0.44614 0.76177 0.91161 0.0
C207 C 0.44249 0.79372 0.86786 0.0
C208 C 0.41192 0.79708 0.87342 0.0
H209 H 0.5309 0.70899 0.93664 0.0
H210 H 0.52953 0.74495 0.89356 0.0
H211 H 0.5012 0.78029 0.8619 0.0
O212 O 0.36571 0.72508 0.92015 0.0
O213 O 0.40521 0.78803 0.95803 0.0
O214 O 0.41606 0.79703 0.0068 0.0
O215 O 0.40135 0.69472 0.93226 0.0
O216 O 0.34809 0.75417 0.95949 0.0
O217 O 0.35181 0.80159 0.97882 0.0
O218 O 0.37801 0.82677 0.05906 0.0
O219 O 0.34453 0.74582 0.02026 0.0
O220 O 0.37668 0.71284 0.99547 0.0
O221 O 0.3562 0.83824 0.01761 0.0
O222 O 0.41432 0.76801 0.0304 0.0
O223 O 0.41303 0.72353 1.00334 0.0
C224 C 0.4222 0.80057 0.97833 0.0
C225 C 0.35842 0.67431 0.90771 0.0
C226 C 0.33187 0.64424 0.87023 0.0
C227 C 0.31514 0.63111 0.89343 0.0
C228 C 0.34156 0.66079 0.93041 0.0
C229 C 0.32016 0.63916 0.92325 0.0
C230 C 0.35378 0.66571 0.87765 0.0
C231 C 0.33924 0.78229 0.96051 0.0
C232 C 0.37866 0.69949 0.91452 0.0
C233 C 0.50635 0.74973 0.89888 0.0
C234 C 0.49021 0.76983 0.88082 0.0
C235 C 0.35412 0.71826 0.01363 0.0
C236 C 0.38998 0.87418 0.03764 0.0
C237 C 0.4159 0.91904 0.05713 0.0
C238 C 0.42792 0.92351 0.02827 0.0
C239 C 0.40334 0.87901 0.00964 0.0
C240 C 0.39666 0.89402 0.06148 0.0
C241 C 0.42206 0.90349 0.00506 0.0
C242 C 0.42065 0.73915 0.0275 0.0
C243 C 0.3691 0.84853 0.0417 0.0
H244 H 0.29828 0.61443 0.88846 0.0
H245 H 0.34456 0.66737 0.95354 0.0
H246 H 0.30712 0.62887 0.94087 0.0
H247 H 0.36646 0.67647 0.85999 0.0
H248 H 0.44165 0.94281 0.02318 0.0
H249 H 0.39907 0.86404 0.99104 0.0
H250 H 0.38701 0.8897 0.08326 0.0
H251 H 0.43185 0.90718 0.98322 0.0
Eu252 Eu 0.44938 0.10896 0.26821 0.0
C253 C 0.54415 0.20209 0.21679 0.0
N254 N 0.52151 0.18698 0.20319 0.0
C255 C 0.50763 0.23159 0.17624 0.0
C256 C 0.54786 0.23328 0.21221 0.0
C257 C 0.5049 0.20074 0.18145 0.0
C258 C 0.52859 0.24815 0.19234 0.0
C259 C 0.58996 0.20072 0.24611 0.0
C260 C 0.56537 0.18592 0.23311 0.0
C261 C 0.59253 0.23207 0.24322 0.0
C262 C 0.5716 0.24829 0.22623 0.0
Eu263 Eu 0.51907 0.13491 0.21389 0.0
N264 N 0.56239 0.15554 0.23558 0.0
C265 C 0.61157 0.18347 0.26111 0.0
C266 C 0.58414 0.13846 0.24869 0.0
C267 C 0.6088 0.15219 0.26208 0.0
H268 H 0.48983 0.18789 0.16766 0.0
H269 H 0.62561 0.13872 0.2732 0.0
H270 H 0.48629 0.04824 0.29964 0.0
H271 H 0.35022 0.11149 0.19754 0.0
H272 H 0.58245 0.11429 0.24862 0.0
H273 H 0.63073 0.194 0.27151 0.0
H274 H 0.39178 0.13326 0.2271 0.0
H275 H 0.49401 0.24235 0.15931 0.0
H276 H 0.61113 0.24386 0.2533 0.0
H277 H 0.57453 0.2723 0.22326 0.0
H278 H 0.48523 0.99347 0.29579 0.0
H279 H 0.53082 0.27204 0.18803 0.0
H280 H 0.34563 0.05622 0.19304 0.0
N281 N 0.45148 0.05554 0.26756 0.0
C282 C 0.42917 0.04224 0.25152 0.0
C283 C 0.46964 0.00692 0.28286 0.0
C284 C 0.427 0.01058 0.24996 0.0
C285 C 0.47064 0.03831 0.28431 0.0
C286 C 0.44797 0.99299 0.26536 0.0
N287 N 0.41057 0.09064 0.23802 0.0
C288 C 0.38981 0.1091 0.22497 0.0
C289 C 0.38461 0.0469 0.22038 0.0
C290 C 0.408 0.06018 0.2368 0.0
C291 C 0.36384 0.06564 0.20593 0.0
C292 C 0.36637 0.09687 0.20835 0.0
H293 H 0.44712 0.96864 0.26456 0.0
H294 H 0.4018 0.97312 0.23222 0.0
H295 H 0.36447 0.00489 0.20686 0.0
O296 O 0.4094 0.13033 0.28713 0.0
O297 O 0.44995 0.10133 0.2176 0.0
O298 O 0.49831 0.0885 0.2099 0.0
O299 O 0.43007 0.0932 0.31031 0.0
O300 O 0.44786 0.15693 0.25068 0.0
O301 O 0.47172 0.15272 0.20501 0.0
O302 O 0.55868 0.11798 0.19067 0.0
O303 O 0.52188 0.15461 0.26165 0.0
O304 O 0.47869 0.14412 0.28937 0.0
O305 O 0.52086 0.1339 0.16496 0.0
O306 O 0.52027 0.09158 0.24044 0.0
O307 O 0.49678 0.0975 0.28546 0.0
C308 C 0.46994 0.08446 0.20425 0.0
C309 C 0.40482 0.12987 0.33967 0.0
C310 C 0.37133 0.1551 0.37536 0.0
C311 C 0.39632 0.16057 0.39378 0.0
C312 C 0.42912 0.1354 0.35867 0.0
C313 C 0.42475 0.15042 0.38566 0.0
C314 C 0.37596 0.13968 0.34809 0.0
C315 C 0.45448 0.16753 0.22399 0.0
C316 C 0.40926 0.11382 0.31112 0.0
C317 C 0.40376 0.99737 0.23353 0.0
C318 C 0.38254 0.01546 0.219 0.0
C319 C 0.50449 0.15783 0.28551 0.0
C320 C 0.56877 0.13715 0.14253 0.0
C321 C 0.60216 0.13218 0.09951 0.0
C322 C 0.6103 0.16251 0.10301 0.0
C323 C 0.57724 0.16732 0.14558 0.0
C324 C 0.58106 0.11968 0.11929 0.0
C325 C 0.59779 0.17993 0.1258 0.0
C326 C 0.52076 0.09026 0.26967 0.0
C327 C 0.54809 0.12327 0.16404 0.0
H328 H 0.39406 0.17288 0.41453 0.0
H329 H 0.45148 0.12809 0.35269 0.0
H330 H 0.44353 0.15429 0.40038 0.0
H331 H 0.35716 0.13481 0.33361 0.0
H332 H 0.62629 0.17278 0.08798 0.0
H333 H 0.56818 0.18104 0.16332 0.0
H334 H 0.57483 0.09624 0.11709 0.0
H335 H 0.60424 0.20323 0.12829 0.0
Eu336 Eu 0.63604 0.3018 0.4898 0.0
C337 C 0.55542 0.19574 0.54358 0.0
N338 N 0.56584 0.22212 0.55485 0.0
C339 C 0.51793 0.23231 0.57665 0.0
C340 C 0.52508 0.18776 0.54668 0.0
C341 C 0.54811 0.23929 0.57289 0.0
C342 C 0.50612 0.20691 0.56279 0.0
C343 C 0.5657 0.14758 0.52006 0.0
C344 C 0.57558 0.17565 0.53075 0.0
C345 C 0.53522 0.14036 0.52155 0.0
C346 C 0.51496 0.16037 0.5349 0.0
Eu347 Eu 0.61732 0.23153 0.54746 0.0
N348 N 0.60497 0.18332 0.52935 0.0
C349 C 0.58687 0.12735 0.50868 0.0
C350 C 0.62586 0.16317 0.51968 0.0
C351 C 0.61709 0.13498 0.50901 0.0
H352 H 0.55736 0.2577 0.58542 0.0
H353 H 0.63351 0.11911 0.50088 0.0
H354 H 0.69777 0.26602 0.45975 0.0
H355 H 0.62773 0.40429 0.55532 0.0
H356 H 0.64931 0.16879 0.52048 0.0
H357 H 0.5802 0.10556 0.50022 0.0
H358 H 0.6091 0.35708 0.53257 0.0
H359 H 0.50405 0.24604 0.59095 0.0
H360 H 0.5272 0.11901 0.51316 0.0
H361 H 0.49167 0.15406 0.53679 0.0
H362 H 0.75129 0.27547 0.45566 0.0
H363 H 0.48275 0.20145 0.56598 0.0
H364 H 0.68112 0.41774 0.55045 0.0
N365 N 0.68879 0.30448 0.48706 0.0
C366 C 0.70024 0.33034 0.49878 0.0
C367 C 0.73723 0.29092 0.46808 0.0
C368 C 0.73072 0.33749 0.49503 0.0
C369 C 0.70669 0.28524 0.47119 0.0
C370 C 0.74929 0.31717 0.47995 0.0
N371 N 0.652 0.34343 0.51726 0.0
C372 C 0.6326 0.36254 0.5313 0.0
C373 C 0.69269 0.37749 0.52566 0.0
C374 C 0.68137 0.35041 0.51389 0.0
C375 C 0.67318 0.39682 0.54099 0.0
C376 C 0.64302 0.38928 0.54387 0.0
H377 H 0.77285 0.3218 0.47687 0.0
H378 H 0.76476 0.37117 0.50205 0.0
H379 H 0.73189 0.40557 0.52993 0.0
O380 O 0.61102 0.33983 0.47072 0.0
O381 O 0.64815 0.30225 0.53939 0.0
O382 O 0.6629 0.25411 0.54772 0.0
O383 O 0.64853 0.3213 0.44664 0.0
O384 O 0.58982 0.3013 0.51031 0.0
O385 O 0.59815 0.27872 0.55628 0.0
O386 O 0.63809 0.19634 0.57484 0.0
O387 O 0.5921 0.22813 0.50233 0.0
O388 O 0.60279 0.26914 0.47114 0.0
O389 O 0.61584 0.23348 0.59653 0.0
O390 O 0.65821 0.23035 0.51745 0.0
O391 O 0.6485 0.25449 0.47289 0.0
C392 C 0.66679 0.28304 0.55169 0.0
C393 C 0.61176 0.34772 0.41827 0.0
C394 C 0.59127 0.38436 0.38242 0.0
C395 C 0.58396 0.36027 0.36337 0.0
C396 C 0.6045 0.32427 0.3987 0.0
C397 C 0.59073 0.33062 0.37138 0.0
C398 C 0.60506 0.37772 0.41012 0.0
C399 C 0.58157 0.29512 0.53788 0.0
C400 C 0.62734 0.34153 0.44674 0.0
C401 C 0.74166 0.36497 0.50575 0.0
C402 C 0.72288 0.38468 0.5214 0.0
C403 C 0.58856 0.24399 0.47735 0.0
C404 C 0.61745 0.18643 0.62236 0.0
C405 C 0.62477 0.15205 0.66485 0.0
C406 C 0.59489 0.14283 0.6618 0.0
C407 C 0.58774 0.17682 0.62001 0.0
C408 C 0.6359 0.17418 0.64506 0.0
C409 C 0.57655 0.15524 0.63967 0.0
C410 C 0.65747 0.23052 0.48811 0.0
C411 C 0.62979 0.20785 0.60026 0.0
H412 H 0.57287 0.36426 0.34218 0.0
H413 H 0.60972 0.30113 0.4044 0.0
H414 H 0.58539 0.3125 0.3562 0.0
H415 H 0.61129 0.39585 0.42502 0.0
H416 H 0.5856 0.12613 0.67679 0.0
H417 H 0.5732 0.18577 0.60287 0.0
H418 H 0.65899 0.18127 0.64685 0.0
H419 H 0.55358 0.14796 0.63763 0.0
Eu420 Eu 0.01427 0.36895 0.80379 0.0
C421 C 0.95814 0.4606 0.70847 0.0
N422 N 0.94495 0.4441 0.73045 0.0
C423 C 0.91495 0.48668 0.74449 0.0
C424 C 0.95153 0.49153 0.70511 0.0
C425 C 0.9219 0.45606 0.74662 0.0
C426 C 0.9304 0.5047 0.7242 0.0
C427 C 0.98855 0.46233 0.66339 0.0
C428 C 0.97622 0.44608 0.68753 0.0
C429 C 0.98343 0.49344 0.66117 0.0
C430 C 0.96497 0.508 0.68195 0.0
Eu431 Eu 0.95932 0.39283 0.73248 0.0
N432 N 0.98099 0.4159 0.69017 0.0
C433 C 0.00535 0.44673 0.64194 0.0
C434 C 0.99614 0.40038 0.6686 0.0
C435 C 0.00891 0.41558 0.64442 0.0
H436 H 0.90871 0.44197 0.76117 0.0
H437 H 0.02144 0.40329 0.6277 0.0
H438 H 0.05637 0.31017 0.77758 0.0
H439 H 0.93956 0.37415 0.8998 0.0
H440 H 0.99863 0.37642 0.67039 0.0
H441 H 0.01527 0.45844 0.62316 0.0
H442 H 0.96771 0.39437 0.85647 0.0
H443 H 0.89731 0.49621 0.75813 0.0
H444 H 0.99304 0.50633 0.64299 0.0
H445 H 0.96042 0.53183 0.67932 0.0
H446 H 0.06156 0.25606 0.78688 0.0
H447 H 0.92472 0.52836 0.72235 0.0
H448 H 0.94235 0.31981 0.91171 0.0
N449 N 0.0213 0.31643 0.80947 0.0
C450 C 0.00587 0.30379 0.83253 0.0
C451 C 0.04554 0.26914 0.7996 0.0
C452 C 0.00957 0.27302 0.83964 0.0
C453 C 0.0419 0.29986 0.79389 0.0
C454 C 0.02916 0.2556 0.82242 0.0
N455 N 0.98417 0.3515 0.84319 0.0
C456 C 0.9684 0.37053 0.86136 0.0
C457 C 0.97207 0.30951 0.87483 0.0
C458 C 0.98709 0.3218 0.84996 0.0
C459 C 0.9543 0.3285 0.89249 0.0
C460 C 0.95264 0.35919 0.88585 0.0
H461 H 0.03243 0.23187 0.8271 0.0
H462 H 0.99728 0.23725 0.8701 0.0
H463 H 0.96483 0.26925 0.90112 0.0
O464 O 0.02919 0.39833 0.83996 0.0
O465 O 0.96411 0.35997 0.80263 0.0
O466 O 0.95501 0.34694 0.7546 0.0
O467 O 0.05628 0.36015 0.8276 0.0
O468 O 0.99805 0.41704 0.79822 0.0
O469 O 0.95066 0.41155 0.77937 0.0
O470 O 0.93806 0.37552 0.69199 0.0
O471 O 0.00776 0.41084 0.72819 0.0
O472 O 0.03844 0.39315 0.76707 0.0
O473 O 0.91059 0.38931 0.72928 0.0
O474 O 0.98452 0.34848 0.73287 0.0
O475 O 0.0294 0.35063 0.75769 0.0
C476 C 0.95179 0.3419 0.78325 0.0
C477 C 0.0809 0.40201 0.84918 0.0
C478 C 0.1171 0.42546 0.88291 0.0
C479 C 0.1321 0.43715 0.85779 0.0
C480 C 0.09602 0.41419 0.82458 0.0
C481 C 0.12155 0.43159 0.8289 0.0
C482 C 0.09132 0.40789 0.87832 0.0
C483 C 0.97029 0.4264 0.79558 0.0
C484 C 0.05393 0.38364 0.84484 0.0
C485 C 0.99439 0.26074 0.8642 0.0
C486 C 0.97589 0.27896 0.88185 0.0
C487 C 0.03398 0.40823 0.742 0.0
C488 C 0.88849 0.39082 0.68105 0.0
C489 C 0.84481 0.38281 0.649 0.0
C490 C 0.84696 0.41288 0.63932 0.0
C491 C 0.89014 0.42066 0.67104 0.0
C492 C 0.86561 0.37199 0.67022 0.0
C493 C 0.86936 0.43162 0.65038 0.0
C494 C 0.01352 0.34411 0.7335 0.0
C495 C 0.91092 0.37876 0.70209 0.0
H496 H 0.15177 0.45099 0.86052 0.0
H497 H 0.088 0.41033 0.80212 0.0
H498 H 0.13313 0.44091 0.80978 0.0
H499 H 0.07958 0.3985 0.89736 0.0
H500 H 0.83117 0.42194 0.62322 0.0
H501 H 0.90755 0.4354 0.67903 0.0
H502 H 0.86447 0.34881 0.67771 0.0
H503 H 0.87075 0.4547 0.64273 0.0
Eu504 Eu 0.86463 0.7085 0.98332 0.0
C505 C 0.95297 0.78601 0.05145 0.0
N506 N 0.93232 0.76784 0.06448 0.0
C507 C 0.96969 0.74835 0.09789 0.0
C508 C 0.98343 0.78401 0.05956 0.0
C509 C 0.93983 0.75121 0.08913 0.0
C510 C 0.99175 0.76407 0.0824 0.0
C511 C 0.96391 0.82997 0.02098 0.0
C512 C 0.94326 0.80918 0.03275 0.0
C513 C 0.99454 0.8262 0.02684 0.0
C514 C 0.00428 0.80334 0.04619 0.0
Eu515 Eu 0.88268 0.77369 0.04687 0.0
N516 N 0.9134 0.81276 0.02794 0.0
C517 C 0.95305 0.85474 0.00479 0.0
C518 C 0.90261 0.83839 0.01464 0.0
C519 C 0.92224 0.85929 1.00216 0.0
H520 H 0.92278 0.7397 0.10182 0.0
H521 H 0.9136 0.8789 0.99057 0.0
H522 H 0.80339 0.74552 0.95325 0.0
H523 H 0.87087 0.59974 0.03943 0.0
H524 H 0.87891 0.84194 0.01259 0.0
H525 H 0.96822 0.87111 0.9953 0.0
H526 H 0.8905 0.64773 0.01942 0.0
H527 H 0.97553 0.73434 0.11682 0.0
H528 H 0.01076 0.8417 0.01764 0.0
H529 H 0.02782 0.80172 0.05176 0.0
H530 H 0.74954 0.73841 0.95034 0.0
H531 H 0.01486 0.76211 0.08948 0.0
H532 H 0.81691 0.58851 0.03537 0.0
N533 N 0.81164 0.70601 0.97953 0.0
C534 C 0.79956 0.67972 0.9897 0.0
C535 C 0.76328 0.72197 0.96191 0.0
C536 C 0.76863 0.67412 0.98688 0.0
C537 C 0.79409 0.72632 0.96447 0.0
C538 C 0.75044 0.69591 0.97338 0.0
N539 N 0.84785 0.6636 0.00534 0.0
C540 C 0.86684 0.64308 0.01806 0.0
C541 C 0.80613 0.63061 0.01325 0.0
C542 C 0.81814 0.65785 1.0025 0.0
C543 C 0.82536 0.60962 0.02675 0.0
C544 C 0.85584 0.61591 0.02918 0.0
H545 H 0.7266 0.69244 0.97093 0.0
H546 H 0.7332 0.64198 0.99445 0.0
H547 H 0.76581 0.60431 0.01833 0.0
O548 O 0.88123 0.66843 0.95996 0.0
O549 O 0.84828 0.70256 0.03148 0.0
O550 O 0.83761 0.74998 0.04903 0.0
O551 O 0.86088 0.70418 0.93456 0.0
O552 O 0.90866 0.70447 0.00871 0.0
O553 O 0.89708 0.72453 0.05521 0.0
O554 O 0.86478 0.8156 0.06557 0.0
O555 O 0.89884 0.78137 0.99881 0.0
O556 O 0.90861 0.73359 0.98265 0.0
O557 O 0.8763 0.77924 0.09516 0.0
O558 O 0.84083 0.7747 0.01812 0.0
O559 O 0.85049 0.7571 0.97112 0.0
C560 C 0.83163 0.72107 0.04729 0.0
C561 C 0.895 0.67128 0.90888 0.0
C562 C 0.91878 0.63421 0.87557 0.0
C563 C 0.93276 0.65806 0.86038 0.0
C564 C 0.90918 0.69453 0.89317 0.0
C565 C 0.92799 0.68786 0.86915 0.0
C566 C 0.90004 0.64111 0.90009 0.0
C567 C 0.91341 0.70683 0.03779 0.0
C568 C 0.87385 0.67785 0.93353 0.0
C569 C 0.7568 0.64674 0.99698 0.0
C570 C 0.77541 0.62517 0.01035 0.0
C571 C 0.91073 0.76274 0.97922 0.0
C572 C 0.88076 0.82858 0.11419 0.0
C573 C 0.87667 0.86203 0.15759 0.0
C574 C 0.90662 0.87052 0.15311 0.0
C575 C 0.91054 0.83745 0.11031 0.0
C576 C 0.8639 0.84072 0.13802 0.0
C577 C 0.92336 0.85825 0.12972 0.0
C578 C 0.84027 0.77854 0.98903 0.0
C579 C 0.86713 0.807 0.09327 0.0
H580 H 0.9476 0.65366 0.84173 0.0
H581 H 0.9055 0.71783 0.89925 0.0
H582 H 0.9388 0.70588 0.85706 0.0
H583 H 0.88875 0.62312 0.91187 0.0
H584 H 0.91723 0.88651 0.16793 0.0
H585 H 0.92383 0.82836 0.09223 0.0
H586 H 0.84082 0.83403 0.14095 0.0
H587 H 0.94639 0.86495 0.1266 0.0
Eu588 Eu 0.47997 0.64335 0.30155 0.0
C589 C 0.54712 0.54928 0.22217 0.0
N590 N 0.55979 0.57 0.24058 0.0
C591 C 0.59501 0.53306 0.25808 0.0
C592 C 0.55659 0.51892 0.22292 0.0
C593 C 0.58478 0.56278 0.25672 0.0
C594 C 0.58043 0.51092 0.2416 0.0
C595 C 0.51633 0.53825 0.1787 0.0
C596 C 0.52759 0.55897 0.19976 0.0
C597 C 0.52338 0.50757 0.18151 0.0
C598 C 0.54363 0.49795 0.20344 0.0
Eu599 Eu 0.54154 0.61971 0.23528 0.0
N600 N 0.52198 0.58895 0.19673 0.0
C601 C 0.49974 0.54916 0.15438 0.0
C602 C 0.50843 0.59983 0.17144 0.0
C603 C 0.49639 0.58014 0.15036 0.0
H604 H 0.59683 0.58 0.26872 0.0
H605 H 0.48459 0.58887 0.13103 0.0
H606 H 0.45623 0.70739 0.26405 0.0
H607 H 0.53729 0.63232 0.40849 0.0
H608 H 0.50585 0.62364 0.16822 0.0
H609 H 0.49067 0.53394 0.13783 0.0
H610 H 0.51671 0.61449 0.36026 0.0
H611 H 0.6144 0.52738 0.27147 0.0
H612 H 0.51459 0.49132 0.16579 0.0
H613 H 0.55024 0.47447 0.20418 0.0
H614 H 0.45537 0.76145 0.27268 0.0
H615 H 0.58887 0.48804 0.24202 0.0
H616 H 0.53451 0.68638 0.42137 0.0
N617 N 0.47983 0.69674 0.30441 0.0
C618 C 0.48999 0.7078 0.33103 0.0
C619 C 0.46549 0.74664 0.2891 0.0
C620 C 0.4884 0.7389 0.33737 0.0
C621 C 0.46678 0.71565 0.28399 0.0
C622 C 0.47636 0.75833 0.31585 0.0
N623 N 0.50387 0.65826 0.3458 0.0
C624 C 0.51611 0.63821 0.36555 0.0
C625 C 0.51284 0.69906 0.37984 0.0
C626 C 0.50191 0.68807 0.35236 0.0
C627 C 0.52576 0.67873 0.40011 0.0
C628 C 0.52749 0.6482 0.39288 0.0
H629 H 0.47487 0.78233 0.31988 0.0
H630 H 0.49646 0.77332 0.37061 0.0
H631 H 0.51877 0.7387 0.40728 0.0
O632 O 0.45682 0.62708 0.34163 0.0
O633 O 0.52924 0.65717 0.30621 0.0
O634 O 0.54637 0.66511 0.25841 0.0
O635 O 0.43201 0.65159 0.30829 0.0
O636 O 0.50204 0.59715 0.30463 0.0
O637 O 0.54905 0.60445 0.28399 0.0
O638 O 0.55947 0.63723 0.19322 0.0
O639 O 0.49266 0.60525 0.22818 0.0
O640 O 0.47574 0.59937 0.27623 0.0
O641 O 0.58975 0.62565 0.22881 0.0
O642 O 0.51437 0.66276 0.23719 0.0
O643 O 0.4668 0.65741 0.25344 0.0
C644 C 0.54529 0.67255 0.28692 0.0
C645 C 0.40436 0.619 0.34112 0.0
C646 C 0.37147 0.59595 0.37893 0.0
C647 C 0.35223 0.5871 0.35562 0.0
C648 C 0.38446 0.61009 0.3186 0.0
C649 C 0.35857 0.59435 0.32591 0.0
C650 C 0.39779 0.61179 0.37131 0.0
C651 C 0.53032 0.58913 0.30107 0.0
C652 C 0.43087 0.6376 0.33394 0.0
C653 C 0.49838 0.74967 0.36513 0.0
C654 C 0.51077 0.72989 0.38617 0.0
C655 C 0.47193 0.59656 0.24729 0.0
C656 C 0.60801 0.62142 0.17934 0.0
C657 C 0.651 0.626 0.14569 0.0
C658 C 0.64614 0.59624 0.13621 0.0
C659 C 0.60376 0.5918 0.16956 0.0
C660 C 0.63185 0.63842 0.16758 0.0
C661 C 0.6228 0.5793 0.14817 0.0
C662 C 0.4857 0.66481 0.23196 0.0
C663 C 0.58732 0.6349 0.20128 0.0
H664 H 0.33212 0.57448 0.3603 0.0
H665 H 0.38869 0.61555 0.29537 0.0
H666 H 0.34316 0.58784 0.30846 0.0
H667 H 0.4127 0.61934 0.38885 0.0
H668 H 0.66062 0.58596 0.11966 0.0
H669 H 0.58566 0.57841 0.17834 0.0
H670 H 0.63509 0.6614 0.17497 0.0
H671 H 0.61937 0.55641 0.14073 0.0
Eu672 Eu 0.26417 0.45428 0.11725 0.0
C673 C 0.21244 0.55793 0.20315 0.0
N674 N 0.20146 0.53169 0.19211 0.0
C675 C 0.18155 0.51931 0.24033 0.0
C676 C 0.20982 0.56498 0.2338 0.0
C677 C 0.18463 0.51338 0.20979 0.0
C678 C 0.1947 0.54492 0.25253 0.0
C679 C 0.23671 0.60588 0.19422 0.0
C680 C 0.22535 0.57837 0.18352 0.0
C681 C 0.23507 0.61247 0.22488 0.0
C682 C 0.22158 0.59212 0.2446 0.0
Eu683 Eu 0.20762 0.52409 0.14014 0.0
N684 N 0.227 0.57126 0.15397 0.0
C685 C 0.2496 0.62584 0.17376 0.0
C686 C 0.23834 0.59112 0.13379 0.0
C687 C 0.25026 0.61846 0.14343 0.0
H688 H 0.17254 0.49486 0.20028 0.0
H689 H 0.2598 0.63389 0.12749 0.0
H690 H 0.29572 0.4887 0.05601 0.0
H691 H 0.19529 0.35423 0.12468 0.0
H692 H 0.23778 0.58607 0.11023 0.0
H693 H 0.25883 0.64708 0.1811 0.0
H694 H 0.22059 0.39978 0.14381 0.0
H695 H 0.16846 0.5045 0.25429 0.0
H696 H 0.24389 0.63339 0.23352 0.0
H697 H 0.21998 0.59778 0.26812 0.0
H698 H 0.29813 0.48038 1.00202 0.0
H699 H 0.19206 0.54957 0.27617 0.0
H700 H 0.19797 0.34182 0.07081 0.0
N701 N 0.26696 0.45141 0.06447 0.0
C702 C 0.25367 0.42655 0.0526 0.0
C703 C 0.28534 0.46524 0.01597 0.0
C704 C 0.25584 0.42025 0.02174 0.0
C705 C 0.2833 0.47025 0.04675 0.0
C706 C 0.27158 0.44018 1.0034 0.0
N707 N 0.23551 0.4136 0.10089 0.0
C708 C 0.22106 0.39482 0.12017 0.0
C709 C 0.22451 0.38089 0.05959 0.0
C710 C 0.23806 0.40692 0.07132 0.0
C711 C 0.20875 0.36196 0.07903 0.0
C712 C 0.20705 0.36895 0.10945 0.0
H713 H 0.27361 0.43617 0.97958 0.0
H714 H 0.24452 0.38876 0.9866 0.0
H715 H 0.21682 0.35463 0.01957 0.0
O716 O 0.2836 0.41729 0.14364 0.0
O717 O 0.21489 0.45584 0.10347 0.0
O718 O 0.20795 0.50532 0.09308 0.0
O719 O 0.30578 0.4322 0.10357 0.0
O720 O 0.24375 0.45403 0.16362 0.0
O721 O 0.19773 0.47602 0.1551 0.0
O722 O 0.17965 0.5608 0.12307 0.0
O723 O 0.25238 0.52446 0.16596 0.0
O724 O 0.28609 0.48891 0.14652 0.0
O725 O 0.15865 0.52152 0.14187 0.0
O726 O 0.23654 0.52824 0.09863 0.0
O727 O 0.2808 0.50162 0.1046 0.0
C728 C 0.2036 0.47702 0.08634 0.0
C729 C 0.33587 0.40792 0.14037 0.0
C730 C 0.37285 0.37232 0.16113 0.0
C731 C 0.39212 0.39682 0.16608 0.0
C732 C 0.35593 0.43157 0.14492 0.0
C733 C 0.38385 0.42597 0.15772 0.0
C734 C 0.34442 0.3783 0.14839 0.0
C735 C 0.21555 0.45829 0.17078 0.0
C736 C 0.30653 0.41358 0.12611 0.0
C737 C 0.24264 0.39413 0.01015 0.0
C738 C 0.227 0.37457 0.02897 0.0
C739 C 0.2791 0.5114 0.16451 0.0
C740 C 0.13173 0.56795 0.14407 0.0
C741 C 0.08796 0.60114 0.13909 0.0
C742 C 0.09066 0.60847 0.16956 0.0
C743 C 0.13377 0.57561 0.1744 0.0
C744 C 0.10855 0.58055 0.12648 0.0
C745 C 0.11328 0.59566 0.18704 0.0
C746 C 0.26585 0.52635 0.09712 0.0
C747 C 0.15446 0.54817 0.13019 0.0
H748 H 0.41376 0.39359 0.1765 0.0
H749 H 0.35012 0.45433 0.13831 0.0
H750 H 0.39932 0.44429 0.16105 0.0
H751 H 0.32919 0.35995 0.14396 0.0
H752 H 0.0751 0.62403 0.17992 0.0
H753 H 0.1513 0.56633 0.18828 0.0
H754 H 0.10703 0.57498 0.10293 0.0
H755 H 0.11508 0.60147 0.21048 0.0
Eu756 Eu 0.77124 0.05546 0.89547 0.0
C757 C 0.70966 0.96614 0.80489 0.0
N758 N 0.69663 0.986 0.82413 0.0
C759 C 0.66349 1.00297 0.78531 0.0
C760 C 0.70133 0.96563 0.77441 0.0
C761 C 0.67216 1.00234 0.81532 0.0
C762 C 0.67869 0.98517 0.76457 0.0
C763 C 0.74117 0.92204 0.79687 0.0
C764 C 0.72928 0.94427 0.81607 0.0
C765 C 0.73445 0.92292 0.76621 0.0
C766 C 0.71459 0.94464 0.75502 0.0
Eu767 Eu 0.71476 0.98387 0.87387 0.0
N768 N 0.73554 0.94375 0.8459 0.0
C769 C 0.75889 0.89906 0.80916 0.0
C770 C 0.75108 0.92021 0.85826 0.0
C771 C 0.76349 0.89791 0.84003 0.0
H772 H 0.65943 0.01526 0.83139 0.0
H773 H 0.77658 0.87984 0.84976 0.0
H774 H 0.81151 0.0256 0.95421 0.0
H775 H 0.7024 0.15668 0.89127 0.0
H776 H 0.75463 0.91928 0.88201 0.0
H777 H 0.76851 0.88169 0.79511 0.0
H778 H 0.72723 0.11111 0.87096 0.0
H779 H 0.64479 0.01685 0.77832 0.0
H780 H 0.74375 0.90628 0.75111 0.0
H781 H 0.70875 0.94427 0.73149 0.0
H782 H 0.81656 0.03387 0.00791 0.0
H783 H 0.67169 0.98546 0.74136 0.0
H784 H 0.70617 0.16819 0.94525 0.0
N785 N 0.77793 0.05958 0.94797 0.0
C786 C 0.76377 0.08361 0.96073 0.0
C787 C 0.80129 0.04772 0.995 0.0
C788 C 0.76776 0.09025 0.99136 0.0
C789 C 0.7976 0.04258 0.96441 0.0
C790 C 0.78613 0.07149 0.0086 0.0
N791 N 0.7433 0.09654 0.91336 0.0
C792 C 0.72846 0.11588 0.89464 0.0
C793 C 0.7331 0.12878 0.95529 0.0
C794 C 0.74649 0.1028 0.94292 0.0
C795 C 0.7168 0.14808 0.9365 0.0
C796 C 0.71458 0.14166 0.90602 0.0
H797 H 0.78959 0.0758 0.0322 0.0
H798 H 0.7575 0.12152 0.02705 0.0
H799 H 0.72688 0.155 0.9956 0.0
O800 O 0.7855 0.09378 0.86873 0.0
O801 O 0.72124 0.05639 0.90611 0.0
O802 O 0.70974 0.00801 0.9186 0.0
O803 O 0.8155 0.07583 0.90197 0.0
O804 O 0.75144 0.051 0.84878 0.0
O805 O 0.70465 0.0314 0.85709 0.0
O806 O 0.69762 0.94202 0.893 0.0
O807 O 0.76302 0.97892 0.85542 0.0
O808 O 0.79289 0.02061 0.86659 0.0
O809 O 0.6667 0.97697 0.87969 0.0
O810 O 0.7413 0.98783 0.91664 0.0
O811 O 0.78718 0.00862 0.91211 0.0
C812 C 0.70714 0.03711 0.92317 0.0
C813 C 0.83646 0.10109 0.85983 0.0
C814 C 0.8675 0.13712 0.83271 0.0
C815 C 0.87832 0.11352 0.81479 0.0
C816 C 0.84769 0.07777 0.84189 0.0
C817 C 0.86868 0.084 0.81959 0.0
C818 C 0.84672 0.13066 0.85543 0.0
C819 C 0.72292 0.04896 0.84199 0.0
C820 C 0.81176 0.09577 0.88088 0.0
C821 C 0.75431 0.11599 1.00367 0.0
C822 C 0.73694 0.13511 0.98574 0.0
C823 C 0.78836 0.99431 0.85399 0.0
C824 C 0.64881 0.92702 0.8792 0.0
C825 C 0.60542 0.89453 0.88708 0.0
C826 C 0.6097 0.88273 0.85818 0.0
C827 C 0.65254 0.91494 0.85051 0.0
C828 C 0.62507 0.91699 0.89737 0.0
C829 C 0.633 0.89295 0.84007 0.0
C830 C 0.77027 0.98526 0.9189 0.0
C831 C 0.66963 0.94989 0.89053 0.0
H832 H 0.8944 0.11793 0.79722 0.0
H833 H 0.8398 0.05496 0.84471 0.0
H834 H 0.87718 0.06595 0.8057 0.0
H835 H 0.83775 0.14881 0.86898 0.0
H836 H 0.59481 0.86571 0.84945 0.0
H837 H 0.67056 0.92245 0.83624 0.0
H838 H 0.62229 0.92621 0.91963 0.0
H839 H 0.63596 0.88372 0.81787 0.0
Eu840 Eu 0.73733 0.95626 0.39344 0.0
C841 C 0.80653 0.03762 0.29981 0.0
N842 N 0.8169 0.01964 0.32218 0.0
C843 C 0.85456 0.99963 0.28945 0.0
C844 C 0.81859 0.03571 0.2707 0.0
C845 C 0.84197 1.00245 0.31792 0.0
C846 C 0.84237 0.01583 0.26557 0.0
C847 C 0.77753 0.08145 0.28479 0.0
C848 C 0.78659 0.06057 0.30685 0.0
C849 C 0.78742 0.07789 0.2552 0.0
C850 C 0.80801 0.05512 0.24819 0.0
Eu851 Eu 0.79367 0.026 0.36945 0.0
N852 N 0.77817 0.06407 0.33582 0.0
C853 C 0.76005 0.10618 0.29343 0.0
C854 C 0.76288 0.08918 0.34473 0.0
C855 C 0.75325 0.11039 0.32361 0.0
H856 H 0.85206 0.99048 0.33647 0.0
H857 H 0.74083 0.13011 0.33055 0.0
H858 H 0.69895 0.98402 0.45385 0.0
H859 H 0.81098 0.85881 0.38475 0.0
H860 H 0.75791 0.09253 0.36813 0.0
H861 H 0.75272 0.12275 0.27716 0.0
H862 H 0.78358 0.90376 0.36631 0.0
H863 H 0.87386 0.98524 0.28604 0.0
H864 H 0.78039 0.09349 0.23788 0.0
H865 H 0.81666 0.05361 0.2256 0.0
H866 H 0.69476 0.97323 0.50735 0.0
H867 H 0.85254 0.01414 0.24366 0.0
H868 H 0.80816 0.84479 0.43826 0.0
N869 N 0.73213 0.95018 0.44578 0.0
C870 C 0.747 0.92594 0.45738 0.0
C871 C 0.70979 0.95999 0.49362 0.0
C872 C 0.74367 0.91796 0.48776 0.0
C873 C 0.71289 0.96652 0.4632 0.0
C874 C 0.72532 0.9357 0.50599 0.0
N875 N 0.76744 0.91587 0.40933 0.0
C876 C 0.78299 0.8981 0.38981 0.0
C877 C 0.77936 0.88232 0.44994 0.0
C878 C 0.76469 0.90813 0.43865 0.0
C879 C 0.79651 0.86472 0.43036 0.0
C880 C 0.79823 0.87259 0.40014 0.0
H881 H 0.72237 0.93036 0.52947 0.0
H882 H 0.75505 0.88535 0.52199 0.0
H883 H 0.78701 0.8547 0.48921 0.0
O884 O 0.72096 0.91868 0.36662 0.0
O885 O 0.78643 0.95759 0.40596 0.0
O886 O 0.79331 0.00678 0.41678 0.0
O887 O 0.69434 0.93488 0.40336 0.0
O888 O 0.75486 0.95863 0.34599 0.0
O889 O 0.80138 0.97717 0.35563 0.0
O890 O 0.81328 0.06861 0.38385 0.0
O891 O 0.74657 0.02966 0.3475 0.0
O892 O 0.71498 0.99239 0.36673 0.0
O893 O 0.84111 0.02917 0.3819 0.0
O894 O 0.75878 0.04026 0.40284 0.0
O895 O 0.72233 1.00296 0.41139 0.0
C896 C 0.79783 0.97835 0.42311 0.0
C897 C 0.66901 0.91065 0.36334 0.0
C898 C 0.6327 0.87584 0.34138 0.0
C899 C 0.61787 0.90069 0.32841 0.0
C900 C 0.65394 0.93489 0.34997 0.0
C901 C 0.62847 0.92991 0.33267 0.0
C902 C 0.65848 0.88112 0.35884 0.0
C903 C 0.78296 0.96195 0.33851 0.0
C904 C 0.69613 0.91571 0.38139 0.0
C905 C 0.75801 0.8921 0.49889 0.0
C906 C 0.77604 0.87452 0.48017 0.0
C907 C 0.72004 0.01649 0.3504 0.0
C908 C 0.8646 0.07636 0.3741 0.0
C909 C 0.90946 0.10725 0.38062 0.0
C910 C 0.90864 0.11407 0.34991 0.0
C911 C 0.86445 0.08355 0.34355 0.0
C912 C 0.88743 0.08799 0.39262 0.0
C913 C 0.88643 0.10214 0.33155 0.0
C914 C 0.73339 0.03064 0.41432 0.0
C915 C 0.84025 0.05801 0.38691 0.0
H916 H 0.59829 0.89751 0.31453 0.0
H917 H 0.662 0.95758 0.35278 0.0
H918 H 0.61697 0.94877 0.32238 0.0
H919 H 0.67017 0.86236 0.36917 0.0
H920 H 0.92533 0.12864 0.34009 0.0
H921 H 0.84712 0.07512 0.32902 0.0
H922 H 0.88757 0.0828 0.41631 0.0
H923 H 0.88606 0.10759 0.30794 0.0
Eu924 Eu 0.30165 0.48225 0.64054 0.0
C925 C 0.21207 0.54476 0.55172 0.0
N926 N 0.23415 0.55799 0.56783 0.0
C927 C 0.24855 0.58688 0.52496 0.0
C928 C 0.20853 0.55084 0.52095 0.0
C929 C 0.25103 0.58017 0.55539 0.0
C930 C 0.22775 0.57157 0.50743 0.0
C931 C 0.16609 0.51604 0.55147 0.0
C932 C 0.19106 0.52769 0.56672 0.0
C933 C 0.16367 0.52015 0.5204 0.0
C934 C 0.18487 0.53753 0.50515 0.0
Eu935 Eu 0.23699 0.5452 0.61915 0.0
N936 N 0.19384 0.5245 0.59681 0.0
C937 C 0.14365 0.5019 0.56813 0.0
C938 C 0.17107 0.51277 0.61342 0.0
C939 C 0.14585 0.50086 0.59931 0.0
H940 H 0.2661 0.59309 0.56912 0.0
H941 H 0.12819 0.49089 0.61245 0.0
H942 H 0.28389 0.45382 0.70669 0.0
H943 H 0.39772 0.55227 0.60858 0.0
H944 H 0.1726 0.51244 0.63751 0.0
H945 H 0.12406 0.49272 0.55726 0.0
H946 H 0.35583 0.51832 0.5995 0.0
H947 H 0.26228 0.60431 0.51529 0.0
H948 H 0.14486 0.51104 0.50818 0.0
H949 H 0.18202 0.54163 0.48142 0.0
H950 H 0.30132 0.45655 0.75934 0.0
H951 H 0.22561 0.57709 0.4839 0.0
H952 H 0.4136 0.56341 0.66032 0.0
N953 N 0.316 0.48506 0.69098 0.0
C954 C 0.34018 0.50227 0.69738 0.0
C955 C 0.31233 0.46961 0.74216 0.0
C956 C 0.3507 0.5047 0.72701 0.0
C957 C 0.30248 0.46815 0.7125 0.0
C958 C 0.3364 0.48814 0.74949 0.0
N959 N 0.3443 0.51373 0.6456 0.0
C960 C 0.36069 0.52461 0.6222 0.0
C961 C 0.37929 0.53576 0.68039 0.0
C962 C 0.35423 0.51759 0.6742 0.0
C963 C 0.39428 0.5493 0.6565 0.0
C964 C 0.38528 0.54322 0.62727 0.0
H965 H 0.34385 0.48941 0.77252 0.0
H966 H 0.38352 0.52549 0.75584 0.0
H967 H 0.40834 0.553 0.71515 0.0
O968 O 0.34195 0.4549 0.63302 0.0
O969 O 0.28509 0.51635 0.67454 0.0
O970 O 0.27837 0.55835 0.646 0.0
O971 O 0.30137 0.43357 0.64783 0.0
O972 O 0.30454 0.50483 0.59452 0.0
O973 O 0.28494 0.5522 0.60278 0.0
O974 O 0.20654 0.56693 0.65135 0.0
O975 O 0.22967 0.49613 0.60375 0.0
O976 O 0.27714 0.47791 0.59646 0.0
O977 O 0.22358 0.59236 0.61445 0.0
O978 O 0.23016 0.51641 0.66082 0.0
O979 O 0.25373 0.46979 0.65481 0.0
C980 C 0.285 0.54576 0.67181 0.0
C981 C 0.33769 0.4022 0.62308 0.0
C982 C 0.37674 0.36854 0.60299 0.0
C983 C 0.35438 0.34737 0.59645 0.0
C984 C 0.3162 0.38014 0.61689 0.0
C985 C 0.3246 0.35298 0.60373 0.0
C986 C 0.36807 0.3962 0.61615 0.0
C987 C 0.30025 0.5331 0.58616 0.0
C988 C 0.32923 0.42965 0.6401 0.0
C989 C 0.37513 0.52335 0.73322 0.0
C990 C 0.38925 0.53901 0.71002 0.0
C991 C 0.24809 0.47508 0.59374 0.0
C992 C 0.17572 0.60612 0.63173 0.0
C993 C 0.13843 0.64583 0.64115 0.0
C994 C 0.12037 0.63324 0.61863 0.0
C995 C 0.15717 0.59437 0.60939 0.0
C996 C 0.16633 0.63198 0.64758 0.0
C997 C 0.12966 0.60772 0.60304 0.0
C998 C 0.23081 0.48681 0.66364 0.0
C999 C 0.20553 0.5925 0.63715 0.0
H1000 H 0.35986 0.3262 0.58577 0.0
H1001 H 0.2929 0.38361 0.62258 0.0
H1002 H 0.30795 0.33599 0.59929 0.0
H1003 H 0.38498 0.41252 0.62204 0.0
H1004 H 0.09923 0.64351 0.61248 0.0
H1005 H 0.16413 0.57522 0.59636 0.0
H1006 H 0.18069 0.64126 0.66473 0.0
H1007 H 0.11564 0.59852 0.58558 0.0
C1008 C 0.183 0.30846 0.56187 0.0
C1009 C 0.18071 0.3034 0.531 0.0
C1010 C 0.1942 0.33594 0.57304 0.0
C1011 C 0.20199 0.35943 0.55288 0.0
C1012 C 0.19953 0.35435 0.52177 0.0
C1013 C 0.19023 0.32616 0.51133 0.0
C1014 C 0.19665 0.33983 0.60646 0.0
C1015 C 0.20572 0.37905 0.49934 0.0
C1016 C 0.20514 0.44069 0.58083 0.0
C1017 C 0.23604 0.44596 0.58222 0.0
C1018 C 0.19367 0.41267 0.57174 0.0
C1019 C 0.21357 0.38908 0.56381 0.0
C1020 C 0.24476 0.39435 0.56473 0.0
C1021 C 0.2556 0.42254 0.57397 0.0
C1022 C 0.16025 0.40864 0.56983 0.0
C1023 C 0.26675 0.36996 0.55623 0.0
H1024 H 0.17576 0.29116 0.57733 0.0
H1025 H 0.18887 0.32266 0.48738 0.0
H1026 H 0.2148 0.35554 0.61274 0.0
H1027 H 0.17519 0.34896 0.61507 0.0
H1028 H 0.20071 0.31788 0.61773 0.0
H1029 H 0.20079 0.37204 0.47601 0.0
H1030 H 0.19189 0.39916 0.50462 0.0
H1031 H 0.22946 0.38596 0.50056 0.0
H1032 H 0.18981 0.45834 0.58719 0.0
H1033 H 0.27954 0.42606 0.57496 0.0
H1034 H 0.15334 0.38805 0.582 0.0
H1035 H 0.15373 0.40574 0.54607 0.0
H1036 H 0.14778 0.4282 0.57911 0.0
H1037 H 0.26425 0.35069 0.57183 0.0
H1038 H 0.29021 0.37798 0.55664 0.0
H1039 H 0.26204 0.36139 0.53347 0.0
C1040 C 0.81655 0.96019 0.81828 0.0
C1041 C 0.81619 0.97972 0.84277 0.0
C1042 C 0.84383 0.9488 0.80695 0.0
C1043 C 0.87135 0.95685 0.8208 0.0
C1044 C 0.87082 0.97596 0.84602 0.0
C1045 C 0.84345 0.98692 0.85668 0.0
C1046 C 0.84258 0.92813 0.78029 0.0
C1047 C 0.89931 0.98572 0.86131 0.0
C1048 C 0.94526 0.91441 0.81112 0.0
C1049 C 0.95876 0.93058 0.78789 0.0
C1050 C 0.91617 0.92165 0.82095 0.0
C1051 C 0.90098 0.94687 0.80861 0.0
C1052 C 0.91522 0.9641 0.78608 0.0
C1053 C 0.94362 0.95539 0.7756 0.0
C1054 C 0.90152 0.90165 0.84388 0.0
C1055 C 0.90013 0.99139 0.77258 0.0
H1056 H 0.79571 0.95464 0.80734 0.0
H1057 H 0.84351 1.00161 0.87602 0.0
H1058 H 0.86394 0.92722 0.76773 0.0
H1059 H 0.83711 0.90514 0.78823 0.0
H1060 H 0.82448 0.9352 0.76472 0.0
H1061 H 0.89505 1.00133 0.88024 0.0
H1062 H 0.91156 0.96577 0.86998 0.0
H1063 H 0.91412 0.99714 0.84497 0.0
H1064 H 0.95651 0.89479 0.82015 0.0
H1065 H 0.95378 0.96759 0.75723 0.0
H1066 H 0.87727 0.89903 0.83927 0.0
H1067 H 0.90398 0.91177 0.8664 0.0
H1068 H 0.91206 0.87897 0.84423 0.0
H1069 H 0.87896 0.9846 0.76159 0.0
H1070 H 0.91446 1.00283 0.75581 0.0
H1071 H 0.89432 0.00773 0.79044 0.0
C1072 C 0.35466 0.66285 0.02367 0.0
C1073 C 0.34058 0.691 0.02762 0.0
C1074 C 0.34287 0.63637 0.03582 0.0
C1075 C 0.31622 0.63764 0.05275 0.0
C1076 C 0.30176 0.66592 0.05694 0.0
C1077 C 0.31415 0.69219 0.04433 0.0
C1078 C 0.35872 0.60685 0.02989 0.0
C1079 C 0.27355 0.66904 0.07509 0.0
C1080 C 0.27143 0.56502 0.05724 0.0
C1081 C 0.28167 0.5524 0.08412 0.0
C1082 C 0.28233 0.59279 0.04694 0.0
C1083 C 0.30322 0.60894 0.06448 0.0
C1084 C 0.3133 0.5964 0.09193 0.0
C1085 C 0.30293 0.56793 0.10107 0.0
C1086 C 0.27121 0.60507 0.01744 0.0
C1087 C 0.33446 0.61333 0.11201 0.0
H1088 H 0.3751 0.66122 0.01078 0.0
H1089 H 0.30279 0.7135 0.04716 0.0
H1090 H 0.36554 0.59626 0.05133 0.0
H1091 H 0.34331 0.59108 0.01848 0.0
H1092 H 0.37895 0.60963 0.01577 0.0
H1093 H 0.25967 0.68823 0.06703 0.0
H1094 H 0.25981 0.64836 0.07462 0.0
H1095 H 0.27983 0.67386 0.09861 0.0
H1096 H 0.25452 0.55327 0.04445 0.0
H1097 H 0.31016 0.55861 0.12231 0.0
H1098 H 0.29037 0.60904 1.00219 0.0
H1099 H 0.25989 0.62705 0.02104 0.0
H1100 H 0.25529 0.5896 0.00628 0.0
H1101 H 0.33592 0.60306 0.13465 0.0
H1102 H 0.32712 0.63711 0.11434 0.0
H1103 H 0.35714 0.61338 0.10198 0.0
C1104 C 0.56544 0.05647 0.2704 0.0
C1105 C 0.54871 0.07937 0.28416 0.0
C1106 C 0.59431 0.04881 0.28045 0.0
C1107 C 0.60737 0.065 0.30437 0.0
C1108 C 0.59057 0.08827 0.31834 0.0
C1109 C 0.56121 0.09475 0.30846 0.0
C1110 C 0.61085 0.02327 0.26545 0.0
C1111 C 0.604 0.10706 0.34297 0.0
C1112 C 0.66457 0.0231 0.35156 0.0
C1113 C 0.69213 0.03099 0.33853 0.0
C1114 C 0.63728 0.0341 0.34069 0.0
C1115 C 0.63701 0.05497 0.31683 0.0
C1116 C 0.66477 0.06428 0.30426 0.0
C1117 C 0.692 0.05212 0.31525 0.0
C1118 C 0.6086 0.02255 0.35434 0.0
C1119 C 0.66616 0.08728 0.27953 0.0
H1120 H 0.55598 0.04469 0.25142 0.0
H1121 H 0.54862 0.11283 0.31876 0.0
H1122 H 0.63215 0.03162 0.25588 0.0
H1123 H 0.61658 0.00569 0.28221 0.0
H1124 H 0.59757 0.01278 0.24728 0.0
H1125 H 0.5874 0.12272 0.35301 0.0
H1126 H 0.61334 0.09257 0.36094 0.0
H1127 H 0.62277 0.1204 0.33371 0.0
H1128 H 0.66407 0.0079 0.37052 0.0
H1129 H 0.71301 0.05881 0.30531 0.0
H1130 H 0.5944 0.01234 0.33674 0.0
H1131 H 0.59575 0.04142 0.36432 0.0
H1132 H 0.61268 0.00537 0.37199 0.0
H1133 H 0.64602 0.08689 0.26506 0.0
H1134 H 0.68627 0.08381 0.26534 0.0
H1135 H 0.66792 0.10993 0.28977 0.0
C1136 C 0.69643 0.1913 0.47806 0.0
C1137 C 0.66794 0.20314 0.4723 0.0
C1138 C 0.7048 0.16258 0.4676 0.0
C1139 C 0.68331 0.14401 0.45326 0.0
C1140 C 0.6545 0.15632 0.44704 0.0
C1141 C 0.64774 0.18609 0.45559 0.0
C1142 C 0.73664 0.1522 0.47251 0.0
C1143 C 0.62995 0.13831 0.43246 0.0
C1144 C 0.70591 0.07775 0.40392 0.0
C1145 C 0.71388 0.05555 0.42478 0.0
C1146 C 0.69559 0.10623 0.41275 0.0
C1147 C 0.69164 0.1126 0.44359 0.0
C1148 C 0.69752 0.08921 0.46483 0.0
C1149 C 0.70895 0.06113 0.45513 0.0
C1150 C 0.6903 0.12949 0.38858 0.0
C1151 C 0.69274 0.0932 0.498 0.0
H1152 H 0.71217 0.20451 0.49093 0.0
H1153 H 0.6257 0.19513 0.45121 0.0
H1154 H 0.73788 0.13861 0.4933 0.0
H1155 H 0.7447 0.13812 0.45365 0.0
H1156 H 0.752 0.17159 0.47514 0.0
H1157 H 0.60849 0.14214 0.44435 0.0
H1158 H 0.62659 0.14644 0.40922 0.0
H1159 H 0.63453 0.11377 0.43212 0.0
H1160 H 0.70964 0.07354 0.3804 0.0
H1161 H 0.71528 0.04413 0.47141 0.0
H1162 H 0.69384 0.15283 0.39653 0.0
H1163 H 0.66706 0.12742 0.38021 0.0
H1164 H 0.70522 0.12556 0.36918 0.0
H1165 H 0.71354 0.08709 0.51023 0.0
H1166 H 0.67516 0.07738 0.50558 0.0
H1167 H 0.68604 0.11629 0.5045 0.0
C1168 C 0.062 0.44033 0.70428 0.0
C1169 C 0.06197 0.41879 0.72719 0.0
C1170 C 0.08909 0.45032 0.6915 0.0
C1171 C 0.11681 0.43899 0.70242 0.0
C1172 C 0.11678 0.41689 0.72516 0.0
C1173 C 0.08957 0.40667 0.73666 0.0
C1174 C 0.08799 0.47276 0.66619 0.0
C1175 C 0.1456 0.4045 0.73806 0.0
C1176 C 0.1916 0.4468 0.66196 0.0
C1177 C 0.20337 0.47258 0.6755 0.0
C1178 C 0.1629 0.43628 0.66952 0.0
C1179 C 0.14603 0.45132 0.69187 0.0
C1180 C 0.15831 0.47687 0.70617 0.0
C1181 C 0.18656 0.48742 0.6975 0.0
C1182 C 0.15031 0.40961 0.65299 0.0
C1183 C 0.14161 0.49305 0.73076 0.0
H1184 H 0.041 0.44974 0.69671 0.0
H1185 H 0.09014 0.38911 0.75348 0.0
H1186 H 0.10389 0.49143 0.67008 0.0
H1187 H 0.09481 0.4613 0.64522 0.0
H1188 H 0.06522 0.48234 0.66294 0.0
H1189 H 0.14168 0.38777 0.75611 0.0
H1190 H 0.15903 0.3936 0.72022 0.0
H1191 H 0.15916 0.42313 0.74736 0.0
H1192 H 0.2043 0.43562 0.64457 0.0
H1193 H 0.1955 0.50752 0.70783 0.0
H1194 H 0.13065 0.41695 0.63964 0.0
H1195 H 0.1425 0.39217 0.6689 0.0
H1196 H 0.167 0.3993 0.6377 0.0
H1197 H 0.11976 0.50134 0.72223 0.0
H1198 H 0.15431 0.51247 0.73974 0.0
H1199 H 0.13694 0.47723 0.7494 0.0
C1200 C 0.81375 0.94962 0.92924 0.0
C1201 C 0.78295 0.9559 0.92954 0.0
C1202 C 0.82488 0.92095 0.93769 0.0
C1203 C 0.80466 0.89762 0.94553 0.0
C1204 C 0.7736 0.90389 0.94542 0.0
C1205 C 0.76331 0.93298 0.93851 0.0
C1206 C 0.85826 0.9158 0.93779 0.0
C1207 C 0.75096 0.87968 0.95218 0.0
C1208 C 0.82952 0.81471 0.94623 0.0
C1209 C 0.83044 0.8085 0.97705 0.0
C1210 C 0.82163 0.84366 0.93549 0.0
C1211 C 0.81542 0.86725 0.956 0.0
C1212 C 0.81697 0.86114 0.98704 0.0
C1213 C 0.82329 0.83181 0.99706 0.0
C1214 C 0.81923 0.8488 0.90223 0.0
C1215 C 0.8123 0.88575 0.00987 0.0
H1216 H 0.82918 0.96703 0.92238 0.0
H1217 H 0.73947 0.93736 0.93903 0.0
H1218 H 0.8652 0.90012 0.95589 0.0
H1219 H 0.86507 0.90582 0.9161 0.0
H1220 H 0.87057 0.93728 0.94048 0.0
H1221 H 0.72769 0.88714 0.94739 0.0
H1222 H 0.75579 0.85926 0.93871 0.0
H1223 H 0.75237 0.87316 0.97609 0.0
H1224 H 0.83484 0.79695 0.93049 0.0
H1225 H 0.82375 0.82751 0.02091 0.0
H1226 H 0.83365 0.86782 0.89537 0.0
H1227 H 0.79585 0.85501 0.89649 0.0
H1228 H 0.82574 0.82857 0.88916 0.0
H1229 H 0.82616 0.9056 0.00411 0.0
H1230 H 0.81816 0.87828 0.03288 0.0
H1231 H 0.78859 0.89315 0.00976 0.0
C1232 C 0.42318 0.57018 0.25589 0.0
C1233 C 0.44298 0.58449 0.23616 0.0
C1234 C 0.39531 0.55948 0.24607 0.0
C1235 C 0.38691 0.56295 0.21568 0.0
C1236 C 0.40683 0.57738 0.19562 0.0
C1237 C 0.43435 0.58833 0.20622 0.0
C1238 C 0.37518 0.54359 0.26803 0.0
C1239 C 0.39933 0.58168 0.16295 0.0
C1240 C 0.33062 0.50655 0.1857 0.0
C1241 C 0.30487 0.52429 0.18134 0.0
C1242 C 0.35723 0.51877 0.19687 0.0
C1243 C 0.35825 0.54959 0.20471 0.0
C1244 C 0.33193 0.56738 0.20189 0.0
C1245 C 0.30568 0.5546 0.18995 0.0
C1246 C 0.38453 0.49865 0.19842 0.0
C1247 C 0.33167 0.60009 0.21085 0.0
H1248 H 0.42947 0.56717 0.27913 0.0
H1249 H 0.44891 0.60023 0.19099 0.0
H1250 H 0.35228 0.55328 0.26699 0.0
H1251 H 0.37346 0.51947 0.26196 0.0
H1252 H 0.38365 0.54499 0.29133 0.0
H1253 H 0.41987 0.58392 0.14916 0.0
H1254 H 0.38587 0.56281 0.15401 0.0
H1255 H 0.38618 0.60275 0.16032 0.0
H1256 H 0.3303 0.483 0.17957 0.0
H1257 H 0.2863 0.56865 0.18629 0.0
H1258 H 0.40053 0.50539 0.21606 0.0
H1259 H 0.39636 0.49974 0.17662 0.0
H1260 H 0.37809 0.47491 0.20255 0.0
H1261 H 0.34159 0.60279 0.23346 0.0
H1262 H 0.3087 0.60975 0.21094 0.0
H1263 H 0.34548 0.6132 0.19495 0.0
C1264 C 0.54644 0.17715 0.31807 0.0
C1265 C 0.51575 0.17422 0.31236 0.0
C1266 C 0.55689 0.18839 0.34563 0.0
C1267 C 0.53616 0.19708 0.36808 0.0
C1268 C 0.50518 0.19546 0.36192 0.0
C1269 C 0.4954 0.18401 0.33432 0.0
C1270 C 0.59014 0.1908 0.35081 0.0
C1271 C 0.48232 0.20566 0.38464 0.0
C1272 C 0.56446 0.20104 0.44894 0.0
C1273 C 0.57055 0.23183 0.45194 0.0
C1274 C 0.55262 0.18942 0.42204 0.0
C1275 C 0.54678 0.20903 0.39756 0.0
C1276 C 0.55113 0.24028 0.40121 0.0
C1277 C 0.5627 0.25123 0.42823 0.0
C1278 C 0.54731 0.15604 0.41944 0.0
C1279 C 0.54496 0.26224 0.3761 0.0
H1280 H 0.56231 0.16946 0.30156 0.0
H1281 H 0.47159 0.18229 0.33012 0.0
H1282 H 0.5962 0.21474 0.35413 0.0
H1283 H 0.59654 0.17848 0.37146 0.0
H1284 H 0.60336 0.1817 0.3318 0.0
H1285 H 0.48404 0.19138 0.40496 0.0
H1286 H 0.48679 0.22913 0.39165 0.0
H1287 H 0.45914 0.20462 0.37581 0.0
H1288 H 0.57037 0.1858 0.46692 0.0
H1289 H 0.56655 0.27518 0.43035 0.0
H1290 H 0.5243 0.15177 0.41121 0.0
H1291 H 0.55043 0.14419 0.44114 0.0
H1292 H 0.56305 0.14629 0.40286 0.0
H1293 H 0.56323 0.26063 0.3594 0.0
H1294 H 0.54363 0.28579 0.38429 0.0
H1295 H 0.52376 0.25699 0.3644 0.0
C1296 C 0.08121 0.30896 0.56973 0.0
C1297 C 0.08585 0.27797 0.56605 0.0
C1298 C 0.07048 0.32086 0.597 0.0
C1299 C 0.06443 0.30127 0.62137 0.0
C1300 C 0.06857 0.26993 0.61756 0.0
C1301 C 0.07899 0.25876 0.59012 0.0
C1302 C 0.0649 0.35428 0.59935 0.0
C1303 C 0.06264 0.248 0.64271 0.0
C1304 C 0.05858 0.3318 0.70138 0.0
C1305 C 0.0276 0.33094 0.7062 0.0
C1306 C 0.07101 0.32249 0.67381 0.0
C1307 C 0.05196 0.31289 0.65028 0.0
C1308 C 0.02073 0.31212 0.65513 0.0
C1309 C 0.00913 0.32011 0.68317 0.0
C1310 C 0.10451 0.32292 0.66984 0.0
C1311 C 0.9994 0.30297 0.63059 0.0
H1312 H 0.08653 0.32399 0.55161 0.0
H1313 H 0.08206 0.23469 0.58768 0.0
H1314 H 0.04044 0.35853 0.5987 0.0
H1315 H 0.0734 0.36327 0.62085 0.0
H1316 H 0.07542 0.36691 0.58068 0.0
H1317 H 0.06213 0.22438 0.63473 0.0
H1318 H 0.08048 0.25022 0.65982 0.0
H1319 H 0.04103 0.25282 0.65389 0.0
H1320 H 0.07306 0.34013 0.71892 0.0
H1321 H 0.98515 0.31916 0.6865 0.0
H1322 H 0.11054 0.33751 0.65063 0.0
H1323 H 0.11269 0.29988 0.66469 0.0
H1324 H 0.11626 0.33123 0.69009 0.0
H1325 H 0.00401 0.31602 0.60993 0.0
H1326 H 0.97563 0.30655 0.63694 0.0
H1327 H 1.00266 0.27882 0.62518 0.0
C1328 C 0.9573 0.81501 0.81195 0.0
C1329 C 0.98089 0.83553 0.81438 0.0
C1330 C 0.94375 0.80258 0.83768 0.0
C1331 C 0.95473 0.81006 0.86652 0.0
C1332 C 0.97879 0.83035 0.86906 0.0
C1333 C 0.991 0.8432 0.84323 0.0
C1334 C 0.9176 0.7816 0.83406 0.0
C1335 C 0.99178 0.8386 0.89918 0.0
C1336 C 0.9107 0.80181 0.93892 0.0
C1337 C 0.92202 0.77469 0.95042 0.0
C1338 C 0.91988 0.81273 0.91091 0.0
C1339 C 0.94171 0.79665 0.89429 0.0
C1340 C 0.95337 0.76929 0.90595 0.0
C1341 C 0.9431 0.75846 0.93368 0.0
C1342 C 0.90628 0.84158 0.89923 0.0
C1343 C 0.97766 0.75209 0.88982 0.0
H1344 H 0.94947 0.80859 0.79007 0.0
H1345 H 0.00855 0.85964 0.84595 0.0
H1346 H 0.92232 0.75986 0.84538 0.0
H1347 H 0.89757 0.79154 0.84495 0.0
H1348 H 0.91231 0.77719 0.81019 0.0
H1349 H 0.01163 0.8534 0.89718 0.0
H1350 H 0.97466 0.85037 0.91285 0.0
H1351 H 0.99848 0.81796 0.91153 0.0
H1352 H 0.89421 0.81433 0.95163 0.0
H1353 H 0.95199 0.73751 0.94253 0.0
H1354 H 0.89529 0.8373 0.8774 0.0
H1355 H 0.92399 0.85855 0.8955 0.0
H1356 H 0.88946 0.85123 0.91483 0.0
H1357 H 0.97251 0.75017 0.86563 0.0
H1358 H 0.98092 0.72914 0.8992 0.0
H1359 H 0.99903 0.7645 0.89184 0.0
C1360 C 0.49728 0.68038 0.17949 0.0
C1361 C 0.47569 0.6741 0.20138 0.0
C1362 C 0.48946 0.68597 0.14961 0.0
C1363 C 0.45892 0.68908 0.14156 0.0
C1364 C 0.43675 0.68376 0.16387 0.0
C1365 C 0.44544 0.67555 0.19322 0.0
C1366 C 0.51452 0.68795 0.12704 0.0
C1367 C 0.40371 0.6865 0.15754 0.0
C1368 C 0.45149 0.7412 0.07394 0.0
C1369 C 0.43494 0.72398 0.05368 0.0
C1370 C 0.45813 0.73062 0.10279 0.0
C1371 C 0.45091 0.70058 0.11087 0.0
C1372 C 0.43715 0.68182 0.08911 0.0
C1373 C 0.42864 0.69398 0.06109 0.0
C1374 C 0.47183 0.75254 0.12464 0.0
C1375 C 0.43035 0.64919 0.0954 0.0
H1376 H 0.52078 0.67961 0.18524 0.0
H1377 H 0.42847 0.6707 0.20982 0.0
H1378 H 0.50673 0.68636 0.10354 0.0
H1379 H 0.52667 0.70941 0.13016 0.0
H1380 H 0.53098 0.66955 0.13103 0.0
H1381 H 0.39382 0.66364 0.15708 0.0
H1382 H 0.39249 0.69902 0.17589 0.0
H1383 H 0.39859 0.69791 0.13609 0.0
H1384 H 0.4574 0.7641 0.06802 0.0
H1385 H 0.41623 0.68024 0.04547 0.0
H1386 H 0.49645 0.75252 0.12176 0.0
H1387 H 0.46653 0.74699 0.14824 0.0
H1388 H 0.46389 0.77585 0.12014 0.0
H1389 H 0.44636 0.63911 0.1116 0.0
H1390 H 0.43085 0.63574 0.07447 0.0
H1391 H 0.40747 0.64744 0.10479 0.0
C1392 C 0.1374 0.40547 0.32171 0.0
C1393 C 0.1364 0.3742 0.32602 0.0
C1394 C 0.15172 0.41808 0.29672 0.0
C1395 C 0.16515 0.39902 0.27513 0.0
C1396 C 0.16471 0.36741 0.27962 0.0
C1397 C 0.15054 0.3554 0.30511 0.0
C1398 C 0.15207 0.45186 0.2932 0.0
C1399 C 0.17848 0.34626 0.25706 0.0
C1400 C 0.17304 0.43273 0.19701 0.0
C1401 C 0.20318 0.44127 0.19658 0.0
C1402 C 0.16065 0.41818 0.22204 0.0
C1403 C 0.17872 0.41226 0.24748 0.0
C1404 C 0.20934 0.42033 0.2469 0.0
C1405 C 0.22125 0.43448 0.22138 0.0
C1406 C 0.12803 0.40966 0.22148 0.0
C1407 C 0.22932 0.41488 0.27361 0.0
H1408 H 0.12685 0.42014 0.33798 0.0
H1409 H 0.14967 0.33122 0.3082 0.0
H1410 H 0.17538 0.45979 0.29034 0.0
H1411 H 0.13945 0.45841 0.27281 0.0
H1412 H 0.14202 0.46361 0.3127 0.0
H1413 H 0.17719 0.32237 0.26426 0.0
H1414 H 0.1668 0.34871 0.23527 0.0
H1415 H 0.20227 0.35208 0.25331 0.0
H1416 H 0.15905 0.43769 0.17779 0.0
H1417 H 0.24453 0.44116 0.22123 0.0
H1418 H 0.11566 0.42268 0.23868 0.0
H1419 H 0.12547 0.38546 0.22702 0.0
H1420 H 0.11752 0.41402 0.19935 0.0
H1421 H 0.22111 0.42823 0.29291 0.0
H1422 H 0.25291 0.42114 0.26913 0.0
H1423 H 0.22863 0.39084 0.28027 0.0
C1424 C 0.85731 0.90359 0.57334 0.0
C1425 C 0.88844 0.90376 0.57688 0.0
C1426 C 0.84328 0.91957 0.55008 0.0
C1427 C 0.86078 0.93598 0.52931 0.0
C1428 C 0.89215 0.93775 0.53387 0.0
C1429 C 0.90561 0.92168 0.55764 0.0
C1430 C 0.8098 0.91709 0.54754 0.0
C1431 C 0.91165 0.95553 0.51283 0.0
C1432 C 0.82999 0.94079 0.44995 0.0
C1433 C 0.816 0.96912 0.44956 0.0
C1434 C 0.84497 0.93008 0.47551 0.0
C1435 C 0.84679 0.9484 0.50133 0.0
C1436 C 0.83366 0.97754 0.50075 0.0
C1437 C 0.81843 0.98758 0.47487 0.0
C1438 C 0.85781 0.89859 0.47523 0.0
C1439 C 0.83457 0.99753 0.52794 0.0
H1440 H 0.84379 0.89027 0.58848 0.0
H1441 H 0.9297 0.92203 0.56033 0.0
H1442 H 0.79981 0.93196 0.53028 0.0
H1443 H 0.8042 0.89336 0.54243 0.0
H1444 H 0.79931 0.92246 0.56942 0.0
H1445 H 0.93494 0.95755 0.52124 0.0
H1446 H 0.91225 0.94433 0.49067 0.0
H1447 H 0.90222 0.97844 0.50943 0.0
H1448 H 0.82887 0.92666 0.43028 0.0
H1449 H 0.80765 0.00948 0.4748 0.0
H1450 H 0.84554 0.88445 0.49158 0.0
H1451 H 0.88163 0.89884 0.48214 0.0
H1452 H 0.85621 0.8879 0.45285 0.0
H1453 H 0.82112 0.98723 0.5461 0.0
H1454 H 0.82559 0.02041 0.52325 0.0
H1455 H 0.85787 0.99953 0.53626 0.0
C1456 C 0.29928 0.59448 0.6976 0.0
C1457 C 0.29083 0.56414 0.69916 0.0
C1458 C 0.30638 0.6108 0.7238 0.0
C1459 C 0.30536 0.59638 0.75217 0.0
C1460 C 0.2965 0.56589 0.75373 0.0
C1461 C 0.2889 0.55047 0.72745 0.0
C1462 C 0.31525 0.64338 0.72115 0.0
C1463 C 0.29553 0.54924 0.78321 0.0
C1464 C 0.34893 0.62419 0.82035 0.0
C1465 C 0.32593 0.6355 0.83852 0.0
C1466 C 0.34285 0.61264 0.79161 0.0
C1467 C 0.31311 0.61282 0.78048 0.0
C1468 C 0.29013 0.62586 0.79815 0.0
C1469 C 0.29674 0.63664 0.82701 0.0
C1470 C 0.36804 0.59833 0.7742 0.0
C1471 C 0.25826 0.62728 0.78708 0.0
H1472 H 0.30075 0.60534 0.67593 0.0
H1473 H 0.28159 0.52736 0.72914 0.0
H1474 H 0.30052 0.65752 0.73539 0.0
H1475 H 0.33847 0.64629 0.72938 0.0
H1476 H 0.31394 0.6517 0.69774 0.0
H1477 H 0.28736 0.52581 0.78074 0.0
H1478 H 0.31827 0.54849 0.79314 0.0
H1479 H 0.28075 0.5612 0.79922 0.0
H1480 H 0.37149 0.62305 0.82919 0.0
H1481 H 0.27891 0.64563 0.84085 0.0
H1482 H 0.36605 0.60303 0.74991 0.0
H1483 H 0.36705 0.5736 0.77733 0.0
H1484 H 0.39024 0.60615 0.7821 0.0
H1485 H 0.25746 0.63651 0.76401 0.0
H1486 H 0.24381 0.64135 0.80171 0.0
H1487 H 0.24884 0.60424 0.7863 0.0
C1488 C 0.64757 0.11411 0.07232 0.0
C1489 C 0.61645 0.11378 0.07564 0.0
C1490 C 0.66166 0.09895 0.04868 0.0
C1491 C 0.6442 0.08349 0.02723 0.0
C1492 C 0.61276 0.08202 0.03117 0.0
C1493 C 0.59925 0.09706 0.05543 0.0
C1494 C 0.69519 0.10109 0.04652 0.0
C1495 C 0.59331 0.06535 0.00921 0.0
C1496 C 0.6769 0.07713 0.94879 0.0
C1497 C 0.68942 0.04816 0.94908 0.0
C1498 C 0.66185 0.08871 0.97389 0.0
C1499 C 0.65856 0.07064 0.99981 0.0
C1500 C 0.67033 0.04097 0.9999 0.0
C1501 C 0.6856 0.03008 0.97455 0.0
C1502 C 0.65036 0.1207 0.97301 0.0
C1503 C 0.66783 0.02119 0.02723 0.0
H1504 H 0.66105 0.1266 0.08816 0.0
H1505 H 0.57515 0.09669 0.05796 0.0
H1506 H 0.70525 0.08413 0.03137 0.0
H1507 H 0.70088 0.12394 0.03841 0.0
H1508 H 0.70548 0.09846 0.06901 0.0
H1509 H 0.56962 0.06436 0.01659 0.0
H1510 H 0.5942 0.07667 0.98709 0.0
H1511 H 0.60181 0.04206 0.00613 0.0
H1512 H 0.67907 0.09091 0.92893 0.0
H1513 H 0.69523 0.00764 0.97499 0.0
H1514 H 0.6632 0.13449 0.98917 0.0
H1515 H 0.62652 0.12158 0.97984 0.0
H1516 H 0.65248 0.13097 0.95045 0.0
H1517 H 0.68093 0.03116 0.0458 0.0
H1518 H 0.67625 0.998 0.02309 0.0
H1519 H 0.64421 0.01996 0.03469 0.0
C1520 C 0.65917 0.15591 0.70941 0.0
C1521 C 0.64378 0.1381 0.68867 0.0
C1522 C 0.67403 0.14281 0.73411 0.0
C1523 C 0.67394 0.11108 0.73792 0.0
C1524 C 0.65964 0.09298 0.71616 0.0
C1525 C 0.64455 0.10669 0.69208 0.0
C1526 C 0.68878 0.16298 0.7568 0.0
C1527 C 0.65908 0.05912 0.71888 0.0
C1528 C 0.72921 0.0727 0.79131 0.0
C1529 C 0.71104 0.06643 0.8161 0.0
C1530 C 0.71763 0.08756 0.7659 0.0
C1531 C 0.68723 0.09684 0.76538 0.0
C1532 C 0.66907 0.0913 0.79077 0.0
C1533 C 0.68116 0.07619 0.81573 0.0
C1534 C 0.73764 0.09243 0.73918 0.0
C1535 C 0.63664 0.10084 0.79138 0.0
H1536 H 0.65849 0.18019 0.70703 0.0
H1537 H 0.63287 0.09276 0.67601 0.0
H1538 H 0.67707 0.16096 0.77859 0.0
H1539 H 0.71232 0.15589 0.76045 0.0
H1540 H 0.68845 0.18699 0.74981 0.0
H1541 H 0.65289 0.04821 0.69743 0.0
H1542 H 0.68109 0.05014 0.72622 0.0
H1543 H 0.64229 0.05268 0.73593 0.0
H1544 H 0.7523 0.06516 0.79139 0.0
H1545 H 0.66711 0.07182 0.83499 0.0
H1546 H 0.73757 0.11653 0.73268 0.0
H1547 H 0.72897 0.07951 0.71983 0.0
H1548 H 0.76107 0.08523 0.74357 0.0
H1549 H 0.63456 0.12514 0.78595 0.0
H1550 H 0.62607 0.09669 0.81348 0.0
H1551 H 0.62402 0.08826 0.77412 0.0
C1552 C 0.17648 0.44084 0.05271 0.0
C1553 C 0.18888 0.46935 0.05748 0.0
C1554 C 0.16426 0.43292 0.02478 0.0
C1555 C 0.16319 0.45446 1.00137 0.0
C1556 C 0.17474 0.48364 0.00643 0.0
C1557 C 0.18757 0.49066 0.03428 0.0
C1558 C 0.15333 0.40123 0.02 0.0
C1559 C 0.17434 0.50721 0.9821 0.0
C1560 C 0.15921 0.42941 0.9198 0.0
C1561 C 0.12854 0.43175 0.91364 0.0
C1562 C 0.17077 0.43647 0.94814 0.0
C1563 C 0.1512 0.44618 0.9712 0.0
C1564 C 0.12014 0.44866 0.96508 0.0
C1565 C 0.10917 0.44115 0.93651 0.0
C1566 C 0.20412 0.43368 0.95245 0.0
C1567 C 0.09863 0.46027 0.98843 0.0
H1568 H 0.17658 0.42456 0.07076 0.0
H1569 H 0.19706 0.51279 0.03768 0.0
H1570 H 0.12943 0.40149 0.01337 0.0
H1571 H 0.16606 0.39067 1.00142 0.0
H1572 H 0.15588 0.38704 0.04033 0.0
H1573 H 0.18161 0.52958 0.99034 0.0
H1574 H 0.18954 0.50016 0.96375 0.0
H1575 H 0.15152 0.50942 0.97252 0.0
H1576 H 0.17438 0.42197 0.90237 0.0
H1577 H 0.08549 0.4435 0.93178 0.0
H1578 H 0.21117 0.41016 0.94777 0.0
H1579 H 0.2118 0.43995 0.9751 0.0
H1580 H 0.2157 0.44823 0.93593 0.0
H1581 H 0.09955 0.44584 0.00868 0.0
H1582 H 0.0752 0.461 0.98018 0.0
H1583 H 0.10522 0.48329 0.99531 0.0
C1584 C 0.77685 0.94194 0.28647 0.0
C1585 C 0.79459 0.94533 0.31211 0.0
C1586 C 0.78805 0.92748 0.26075 0.0
C1587 C 0.81762 0.91579 0.26075 0.0
C1588 C 0.83528 0.91844 0.28696 0.0
C1589 C 0.82353 0.93306 0.3123 0.0
C1590 C 0.76854 0.92548 0.23328 0.0
C1591 C 0.86687 0.90636 0.28807 0.0
C1592 C 0.84252 0.85796 0.20236 0.0
C1593 C 0.85921 0.87579 0.1826 0.0
C1594 C 0.82835 0.87069 0.22758 0.0
C1595 C 0.83065 0.90205 0.23301 0.0
C1596 C 0.84649 0.92022 0.2124 0.0
C1597 C 0.86067 0.9069 0.18767 0.0
C1598 C 0.81171 0.85046 0.24891 0.0
C1599 C 0.84948 0.95368 0.21698 0.0
H1600 H 0.75443 0.95134 0.28624 0.0
H1601 H 0.83712 0.93509 0.33227 0.0
H1602 H 0.77874 0.93858 0.21479 0.0
H1603 H 0.76698 0.90179 0.2257 0.0
H1604 H 0.7456 0.93427 0.23733 0.0
H1605 H 0.87708 0.90871 0.3106 0.0
H1606 H 0.86724 0.88224 0.2817 0.0
H1607 H 0.88092 0.91862 0.27169 0.0
H1608 H 0.84142 0.83389 0.1987 0.0
H1609 H 0.87321 0.9209 0.17232 0.0
H1610 H 0.78859 0.85896 0.25226 0.0
H1611 H 0.82291 0.85061 0.27107 0.0
H1612 H 0.81066 0.82687 0.2408 0.0
H1613 H 0.82763 0.96392 0.223 0.0
H1614 H 0.85823 0.96524 0.19677 0.0
H1615 H 0.86519 0.95777 0.23571 0.0
C1616 C 0.31689 0.52267 0.53355 0.0
C1617 C 0.31373 0.54316 0.55723 0.0
C1618 C 0.32788 0.53175 0.50543 0.0
C1619 C 0.33618 0.56214 0.50063 0.0
C1620 C 0.33378 0.58277 0.52471 0.0
C1621 C 0.32286 0.57301 0.55272 0.0
C1622 C 0.32955 0.509 0.48045 0.0
C1623 C 0.34193 0.61541 0.52065 0.0
C1624 C 0.38466 0.57961 0.43189 0.0
C1625 C 0.36322 0.58909 0.41083 0.0
C1626 C 0.37633 0.57135 0.46129 0.0
C1627 C 0.3458 0.57245 0.46999 0.0
C1628 C 0.32423 0.58249 0.44892 0.0
C1629 C 0.33321 0.59099 0.41998 0.0
C1630 C 0.40013 0.5608 0.48287 0.0
C1631 C 0.29149 0.58466 0.45672 0.0
H1632 H 0.30992 0.49955 0.53675 0.0
H1633 H 0.32102 0.58888 0.57102 0.0
H1634 H 0.3138 0.51558 0.46236 0.0
H1635 H 0.35235 0.50859 0.47068 0.0
H1636 H 0.32386 0.48593 0.48812 0.0
H1637 H 0.34087 0.62816 0.54198 0.0
H1638 H 0.36481 0.61731 0.51127 0.0
H1639 H 0.32632 0.62604 0.50442 0.0
H1640 H 0.40788 0.57786 0.42519 0.0
H1641 H 0.31646 0.59913 0.40437 0.0
H1642 H 0.396 0.53703 0.48919 0.0
H1643 H 0.39917 0.57432 0.50369 0.0
H1644 H 0.42296 0.56248 0.47326 0.0
H1645 H 0.28439 0.56564 0.47109 0.0
H1646 H 0.27714 0.58503 0.43642 0.0
H1647 H 0.28758 0.60593 0.46906 0.0
C1648 C 0.22241 0.23521 0.43867 0.0
C1649 C 0.1986 0.21495 0.44163 0.0
C1650 C 0.24979 0.2263 0.42583 0.0
C1651 C 0.25367 0.19632 0.41572 0.0
C1652 C 0.22949 0.17595 0.41809 0.0
C1653 C 0.20216 0.18564 0.43055 0.0
C1654 C 0.27504 0.24863 0.42426 0.0
C1655 C 0.23288 0.14358 0.40852 0.0
C1656 C 0.31942 0.17591 0.36462 0.0
C1657 C 0.34075 0.16506 0.38517 0.0
C1658 C 0.29104 0.18611 0.37419 0.0
C1659 C 0.2837 0.18563 0.40505 0.0
C1660 C 0.30528 0.17498 0.42581 0.0
C1661 C 0.3331 0.16449 0.41562 0.0
C1662 C 0.26918 0.19816 0.35134 0.0
C1663 C 0.3001 0.17513 0.45911 0.0
H1664 H 0.21996 0.25793 0.44715 0.0
H1665 H 0.18363 0.17011 0.43195 0.0
H1666 H 0.29293 0.24175 0.44012 0.0
H1667 H 0.28492 0.24887 0.4015 0.0
H1668 H 0.26762 0.2718 0.43004 0.0
H1669 H 0.21187 0.13065 0.4113 0.0
H1670 H 0.23984 0.14243 0.38474 0.0
H1671 H 0.25074 0.13259 0.42199 0.0
H1672 H 0.32508 0.17706 0.3411 0.0
H1673 H 0.34892 0.15577 0.43188 0.0
H1674 H 0.26362 0.22196 0.35655 0.0
H1675 H 0.24803 0.18527 0.35232 0.0
H1676 H 0.27814 0.19698 0.3282 0.0
H1677 H 0.27693 0.18108 0.4654 0.0
H1678 H 0.31536 0.19168 0.4696 0.0
H1679 H 0.30585 0.15275 0.46863 0.0
C1680 C 0.07568 0.07763 0.62214 0.0
C1681 C 0.09067 0.09735 0.64151 0.0
C1682 C 0.06627 0.04898 0.63194 0.0
C1683 C 0.07178 0.0398 0.66186 0.0
C1684 C 0.08689 0.05967 0.68137 0.0
C1685 C 0.09644 0.08782 0.6709 0.0
C1686 C 0.05022 0.02861 0.61034 0.0
C1687 C 0.09422 0.05122 0.71318 0.0
C1688 C 0.02425 0.97863 0.69812 0.0
C1689 C 0.04336 0.9535 0.69704 0.0
C1690 C 0.03301 0.00662 0.68632 0.0
C1691 C 0.06155 0.00966 0.67289 0.0
C1692 C 0.08077 0.98424 0.67141 0.0
C1693 C 0.07134 0.95646 0.68324 0.0
C1694 C 0.01213 0.03324 0.68917 0.0
C1695 C 0.11161 0.98654 0.65797 0.0
H1696 H 0.07086 0.08474 0.59944 0.0
H1697 H 0.10879 0.10232 0.68591 0.0
H1698 H 0.06242 0.00689 0.60838 0.0
H1699 H 0.02753 0.02352 0.61894 0.0
H1700 H 0.04806 0.03876 0.58771 0.0
H1701 H 0.09542 0.07142 0.72774 0.0
H1702 H 0.07777 0.03541 0.72293 0.0
H1703 H 0.11658 0.04037 0.71328 0.0
H1704 H 1.00262 0.97661 0.70885 0.0
H1705 H 0.08595 0.93701 0.68175 0.0
H1706 H 0.00831 0.04371 0.66693 0.0
H1707 H 0.02253 0.05052 0.7037 0.0
H1708 H 0.99018 0.02693 0.69889 0.0
H1709 H 0.1103 0.99645 0.63521 0.0
H1710 H 0.12303 0.96433 0.65658 0.0
H1711 H 0.12547 1.00175 0.67185 0.0
C1712 C 0.17243 0.82378 0.91392 0.0
C1713 C 0.1676 0.82767 0.88309 0.0
C1714 C 0.20114 0.81776 0.92541 0.0
C1715 C 0.22586 0.81575 0.9057 0.0
C1716 C 0.22134 0.82047 0.87467 0.0
C1717 C 0.19232 0.82628 0.86374 0.0
C1718 C 0.2049 0.81288 0.95866 0.0
C1719 C 0.24707 0.81865 0.85289 0.0
C1720 C 0.30329 0.82158 0.94119 0.0
C1721 C 0.31152 0.79118 0.94416 0.0
C1722 C 0.27591 0.82998 0.92794 0.0
C1723 C 0.25612 0.80747 0.91756 0.0
C1724 C 0.2647 0.7768 0.91976 0.0
C1725 C 0.29228 0.76907 0.93285 0.0
C1726 C 0.26782 0.86292 0.92572 0.0
C1727 C 0.24429 0.75204 0.90917 0.0
H1728 H 0.15367 0.82532 0.92917 0.0
H1729 H 0.18891 0.82888 0.83987 0.0
H1730 H 0.21326 0.78971 0.96295 0.0
H1731 H 0.22179 0.82864 0.96771 0.0
H1732 H 0.18364 0.81613 0.97111 0.0
H1733 H 0.24024 0.82475 0.82976 0.0
H1734 H 0.26533 0.83385 0.86002 0.0
H1735 H 0.25633 0.79544 0.85269 0.0
H1736 H 0.31806 0.83884 0.94969 0.0
H1737 H 0.29832 0.74551 0.93504 0.0
H1738 H 0.24805 0.86774 0.93994 0.0
H1739 H 0.26163 0.86875 0.90237 0.0
H1740 H 0.28644 0.87771 0.93292 0.0
H1741 H 0.2234 0.75225 0.92255 0.0
H1742 H 0.25481 0.72941 0.91116 0.0
H1743 H 0.2379 0.75583 0.88548 0.0
C1744 C 0.47113 0.02992 0.19014 0.0
C1745 C 0.46033 0.05913 0.18495 0.0
C1746 C 0.46179 0.00556 0.17232 0.0
C1747 C 0.44273 0.0108 0.14744 0.0
C1748 C 0.43185 0.04043 0.14217 0.0
C1749 C 0.44013 0.06403 0.16148 0.0
C1750 C 0.47236 0.97423 0.18016 0.0
C1751 C 0.41239 0.04748 0.11544 0.0
C1752 C 0.45063 0.95671 0.08158 0.0
C1753 C 0.42334 0.94094 0.08186 0.0
C1754 C 0.4569 0.9795 0.10243 0.0
C1755 C 0.43623 0.98598 0.12554 0.0
C1756 C 0.4094 0.96917 0.12709 0.0
C1757 C 0.40308 0.94729 0.10511 0.0
C1758 C 0.48549 0.99719 0.0992 0.0
C1759 C 0.3874 0.97406 0.15215 0.0
H1760 H 0.48629 0.026 0.2087 0.0
H1761 H 0.43169 0.08661 0.15755 0.0
H1762 H 0.48814 0.96598 0.16286 0.0
H1763 H 0.48379 0.97343 0.20222 0.0
H1764 H 0.45314 0.95855 0.18065 0.0
H1765 H 0.4058 0.0716 0.11446 0.0
H1766 H 0.42457 0.04166 0.09458 0.0
H1767 H 0.39183 0.03366 0.11601 0.0
H1768 H 0.46731 0.95151 0.06481 0.0
H1769 H 0.3819 0.93563 0.10594 0.0
H1770 H 0.49995 0.99357 0.11904 0.0
H1771 H 0.48033 0.02163 0.09798 0.0
H1772 H 0.49833 0.99074 0.07891 0.0
H1773 H 0.39813 0.96773 0.17364 0.0
H1774 H 0.3668 0.96049 0.1494 0.0
H1775 H 0.38101 0.99815 0.15361 0.0
C1776 C 0.81721 0.36211 0.60502 0.0
C1777 C 0.82126 0.36303 0.63607 0.0
C1778 C 0.79355 0.34609 0.59209 0.0
C1779 C 0.77276 0.33089 0.61059 0.0
C1780 C 0.77762 0.33047 0.64199 0.0
C1781 C 0.80187 0.34645 0.65435 0.0
C1782 C 0.79061 0.34723 0.55858 0.0
C1783 C 0.75662 0.31394 0.66258 0.0
C1784 C 0.69317 0.32337 0.58066 0.0
C1785 C 0.69329 0.29427 0.56852 0.0
C1786 C 0.7187 0.33535 0.59457 0.0
C1787 C 0.74494 0.31754 0.59737 0.0
C1788 C 0.74489 0.28773 0.58608 0.0
C1789 C 0.71914 0.27648 0.57178 0.0
C1790 C 0.7179 0.36752 0.60533 0.0
C1791 C 0.77247 0.26816 0.58809 0.0
H1792 H 0.83241 0.37443 0.59067 0.0
H1793 H 0.80496 0.34695 0.6784 0.0
H1794 H 0.77468 0.33057 0.54948 0.0
H1795 H 0.78321 0.37023 0.55226 0.0
H1796 H 0.81274 0.34342 0.54793 0.0
H1797 H 0.76488 0.3134 0.68602 0.0
H1798 H 0.73435 0.32506 0.66224 0.0
H1799 H 0.75352 0.29048 0.65472 0.0
H1800 H 0.67314 0.33705 0.57891 0.0
H1801 H 0.71952 0.25397 0.56246 0.0
H1802 H 0.73401 0.38105 0.59214 0.0
H1803 H 0.72483 0.36872 0.62912 0.0
H1804 H 0.69534 0.37787 0.60305 0.0
H1805 H 0.79042 0.27798 0.57404 0.0
H1806 H 0.76825 0.24479 0.58044 0.0
H1807 H 0.78084 0.26745 0.61146 0.0
C1808 C 0.93189 0.46169 0.81778 0.0
C1809 C 0.96166 0.45549 0.80988 0.0
C1810 C 0.92344 0.4899 0.82956 0.0
C1811 C 0.94538 0.51233 0.83425 0.0
C1812 C 0.97566 0.50573 0.82739 0.0
C1813 C 0.98339 0.4775 0.8153 0.0
C1814 C 0.89092 0.49591 0.83637 0.0
C1815 C 0.99987 0.52879 0.83212 0.0
C1816 C 0.92361 0.59554 0.8347 0.0
C1817 C 0.92372 0.60246 0.86537 0.0
C1818 C 0.92998 0.56629 0.8244 0.0
C1819 C 0.93671 0.5431 0.84518 0.0
C1820 C 0.93625 0.54974 0.87621 0.0
C1821 C 0.92965 0.57925 0.88592 0.0
C1822 C 0.92962 0.56025 0.79117 0.0
C1823 C 0.94351 0.52584 0.89915 0.0
H1824 H 0.91508 0.44454 0.81446 0.0
H1825 H 0.00649 0.47294 0.80946 0.0
H1826 H 0.88831 0.50337 0.8599 0.0
H1827 H 0.8825 0.51439 0.82187 0.0
H1828 H 0.87679 0.47575 0.83273 0.0
H1829 H 0.02251 0.51965 0.82723 0.0
H1830 H 0.99576 0.54851 0.81739 0.0
H1831 H 0.99944 0.53696 0.85555 0.0
H1832 H 0.91852 0.61313 0.81863 0.0
H1833 H 0.93002 0.58435 0.90962 0.0
H1834 H 0.91185 0.54377 0.78595 0.0
H1835 H 0.95121 0.55021 0.78396 0.0
H1836 H 0.92545 0.58098 0.77784 0.0
H1837 H 0.92877 0.50609 0.89605 0.0
H1838 H 0.94094 0.53418 0.92242 0.0
H1839 H 0.96688 0.51793 0.89605 0.0
C1840 C 0.78013 0.72743 0.06887 0.0
C1841 C 0.80518 0.70907 0.06351 0.0
C1842 C 0.75437 0.71593 0.08289 0.0
C1843 C 0.75368 0.68539 0.09209 0.0
C1844 C 0.77912 0.66691 0.08706 0.0
C1845 C 0.80452 0.67899 0.073 0.0
C1846 C 0.72751 0.73619 0.08695 0.0
C1847 C 0.7793 0.63415 0.09601 0.0
C1848 C 0.69676 0.65867 0.15014 0.0
C1849 C 0.67585 0.6437 0.13218 0.0
C1850 C 0.72191 0.67282 0.13739 0.0
C1851 C 0.72602 0.67241 0.10591 0.0
C1852 C 0.70415 0.65847 0.08772 0.0
C1853 C 0.67963 0.64408 0.10105 0.0
C1854 C 0.74461 0.68733 0.15767 0.0
C1855 C 0.70709 0.65715 0.05417 0.0
H1856 H 0.78035 0.75065 0.0614 0.0
H1857 H 0.82397 0.66481 0.06941 0.0
H1858 H 0.70845 0.72731 0.07378 0.0
H1859 H 0.72057 0.73644 0.11077 0.0
H1860 H 0.73193 0.75966 0.07967 0.0
H1861 H 0.80146 0.62333 0.09242 0.0
H1862 H 0.7731 0.63178 0.11993 0.0
H1863 H 0.7624 0.62185 0.08267 0.0
H1864 H 0.69406 0.65832 0.17423 0.0
H1865 H 0.66344 0.63277 0.087 0.0
H1866 H 0.74826 0.71104 0.15084 0.0
H1867 H 0.76638 0.6754 0.15559 0.0
H1868 H 0.73761 0.6869 0.1815 0.0
H1869 H 0.71883 0.67703 0.04495 0.0
H1870 H 0.68487 0.65543 0.0432 0.0
H1871 H 0.72005 0.63666 0.04835 0.0
C1872 C 0.57407 0.43779 0.39295 0.0
C1873 C 0.58491 0.4161 0.37277 0.0
C1874 C 0.56645 0.46712 0.38328 0.0
C1875 C 0.56955 0.47501 0.35268 0.0
C1876 C 0.5811 0.45338 0.33247 0.0
C1877 C 0.58889 0.4245 0.34275 0.0
C1878 C 0.55436 0.48944 0.40567 0.0
C1879 C 0.58499 0.46057 0.29977 0.0
C1880 C 0.52042 0.53667 0.31862 0.0
C1881 C 0.54042 0.56071 0.31571 0.0
C1882 C 0.52946 0.509 0.33111 0.0
C1883 C 0.55926 0.50517 0.34131 0.0
C1884 C 0.57937 0.52967 0.33917 0.0
C1885 C 0.5697 0.55715 0.32645 0.0
C1886 C 0.50729 0.48354 0.33255 0.0
C1887 C 0.61128 0.5267 0.34976 0.0
H1888 H 0.57074 0.43163 0.41617 0.0
H1889 H 0.59802 0.40833 0.32706 0.0
H1890 H 0.56728 0.51067 0.4046 0.0
H1891 H 0.53081 0.49508 0.40011 0.0
H1892 H 0.55522 0.48063 0.42893 0.0
H1893 H 0.59208 0.44066 0.2865 0.0
H1894 H 0.56374 0.4694 0.2903 0.0
H1895 H 0.60217 0.47827 0.29728 0.0
H1896 H 0.49775 0.53921 0.31033 0.0
H1897 H 0.58513 0.57579 0.32469 0.0
H1898 H 0.50562 0.47488 0.35577 0.0
H1899 H 0.51514 0.46466 0.31829 0.0
H1900 H 0.48464 0.49049 0.32491 0.0
H1901 H 0.61189 0.51818 0.3731 0.0
H1902 H 0.62343 0.54842 0.34873 0.0
H1903 H 0.62332 0.51009 0.33565 0.0
C1904 C 0.3631 0.31933 0.1802 0.0
C1905 C 0.38302 0.34092 0.16888 0.0
C1906 C 0.37308 0.29029 0.18857 0.0
C1907 C 0.40382 0.28262 0.18609 0.0
C1908 C 0.42393 0.30422 0.17451 0.0
C1909 C 0.41325 0.33267 0.1656 0.0
C1910 C 0.35075 0.26789 0.20038 0.0
C1911 C 0.45684 0.29742 0.17114 0.0
C1912 C 0.4365 0.21983 0.23497 0.0
C1913 C 0.44004 0.19625 0.21444 0.0
C1914 C 0.42449 0.24784 0.22613 0.0
C1915 C 0.41516 0.25233 0.19611 0.0
C1916 C 0.41797 0.22826 0.17548 0.0
C1917 C 0.43046 0.2006 0.18485 0.0
C1918 C 0.42279 0.27301 0.2487 0.0
C1919 C 0.40826 0.23188 0.14335 0.0
H1920 H 0.33975 0.32525 0.1831 0.0
H1921 H 0.42885 0.34853 0.15596 0.0
H1922 H 0.35194 0.2468 0.18715 0.0
H1923 H 0.35628 0.262 0.22387 0.0
H1924 H 0.32746 0.27669 0.19958 0.0
H1925 H 0.47024 0.31822 0.16832 0.0
H1926 H 0.46561 0.28487 0.19078 0.0
H1927 H 0.46017 0.28329 0.151 0.0
H1928 H 0.44404 0.21667 0.25782 0.0
H1929 H 0.43286 0.18235 0.16896 0.0
H1930 H 0.39957 0.28181 0.25017 0.0
H1931 H 0.4372 0.29188 0.24133 0.0
H1932 H 0.43008 0.26571 0.27135 0.0
H1933 H 0.38502 0.2407 0.14229 0.0
H1934 H 0.40943 0.21035 0.1308 0.0
H1935 H 0.42284 0.24849 0.13203 0.0
C1936 C 0.91262 0.31191 0.8096 0.0
C1937 C 0.93925 0.31285 0.7932 0.0
C1938 C 0.89947 0.2842 0.81731 0.0
C1939 C 0.91416 0.25685 0.80978 0.0
C1940 C 0.94189 0.25794 0.79445 0.0
C1941 C 0.95352 0.28587 0.78542 0.0
C1942 C 0.86959 0.28415 0.83294 0.0
C1943 C 0.95947 0.22964 0.78789 0.0
C1944 C 0.89231 0.18425 0.8502 0.0
C1945 C 0.87776 0.16843 0.82748 0.0
C1946 C 0.90369 0.21326 0.84514 0.0
C1947 C 0.9001 0.22705 0.81668 0.0
C1948 C 0.88405 0.21157 0.7941 0.0
C1949 C 0.87357 0.18226 0.79959 0.0
C1950 C 0.92074 0.22804 0.8701 0.0
C1951 C 0.87799 0.22594 0.76406 0.0
H1952 H 0.90157 0.33285 0.81546 0.0
H1953 H 0.97423 0.28668 0.77286 0.0
H1954 H 0.85335 0.27064 0.81991 0.0
H1955 H 0.8718 0.27346 0.85528 0.0
H1956 H 0.86038 0.30722 0.83589 0.0
H1957 H 0.96353 0.21709 0.80902 0.0
H1958 H 0.94652 0.21473 0.77289 0.0
H1959 H 0.98134 0.23445 0.77719 0.0
H1960 H 0.89565 0.17351 0.87176 0.0
H1961 H 0.8619 0.17016 0.78211 0.0
H1962 H 0.92023 0.2529 0.86854 0.0
H1963 H 0.94431 0.22029 0.86903 0.0
H1964 H 0.91175 0.22131 0.89228 0.0
H1965 H 0.86844 0.24885 0.76712 0.0
H1966 H 0.86228 0.21249 0.7503 0.0
H1967 H 0.89922 0.22837 0.7515 0.0
C1968 C 0.04371 0.59848 0.10417 0.0
C1969 C 0.06391 0.6157 0.12087 0.0
C1970 C 0.01919 0.6121 0.08944 0.0
C1971 C 0.01506 0.64376 0.09095 0.0
C1972 C 0.03624 0.66127 0.10676 0.0
C1973 C 0.06007 0.64703 0.12177 0.0
C1974 C 0.99719 0.59252 0.07297 0.0
C1975 C 0.03336 0.69503 0.10883 0.0
C1976 C 0.96464 0.68387 0.03423 0.0
C1977 C 0.93866 0.68931 0.05101 0.0
C1978 C 0.98948 0.66883 0.04677 0.0
C1979 C 0.98828 0.65854 0.07677 0.0
C1980 C 0.9618 0.66338 0.09359 0.0
C1981 C 0.93735 0.67866 0.08053 0.0
C1982 C 0.01739 0.66484 0.02821 0.0
C1983 C 0.95949 0.65293 0.12562 0.0
H1984 H 0.04646 0.57424 0.10356 0.0
H1985 H 0.07573 0.6605 0.13447 0.0
H1986 H 0.9748 0.59457 0.08349 0.0
H1987 H 0.99494 0.60019 0.04945 0.0
H1988 H 0.00398 0.56844 0.07305 0.0
H1989 H 0.05485 0.7057 0.11519 0.0
H1990 H 0.02572 0.70488 0.08733 0.0
H1991 H 0.01661 0.70067 0.12623 0.0
H1992 H 0.9659 0.69219 0.01145 0.0
H1993 H 0.91724 0.6825 0.09352 0.0
H1994 H 0.02404 0.64077 0.02759 0.0
H1995 H 0.03608 0.6774 0.03861 0.0
H1996 H 0.01439 0.673 0.00489 0.0
H1997 H 0.96499 0.6286 0.12723 0.0
H1998 H 0.93682 0.65674 0.13509 0.0
H1999 H 0.97594 0.66519 0.13955 0.0
C2000 C 0.64043 0.8208 0.32915 0.0
C2001 C 0.62109 0.84472 0.33634 0.0
C2002 C 0.62927 0.79196 0.3224 0.0
C2003 C 0.598 0.78673 0.32296 0.0
C2004 C 0.5785 0.8107 0.33079 0.0
C2005 C 0.59025 0.83918 0.33753 0.0
C2006 C 0.6509 0.76727 0.31382 0.0
C2007 C 0.54513 0.80654 0.33283 0.0
C2008 C 0.56497 0.72396 0.27527 0.0
C2009 C 0.55997 0.70107 0.29635 0.0
C2010 C 0.57766 0.7516 0.2836 0.0
C2011 C 0.58562 0.75676 0.31383 0.0
C2012 C 0.58084 0.73368 0.33522 0.0
C2013 C 0.56845 0.70601 0.32616 0.0
C2014 C 0.58173 0.7757 0.26013 0.0
C2015 C 0.58831 0.73842 0.36776 0.0
H2016 H 0.66428 0.82486 0.32792 0.0
H2017 H 0.57513 0.85726 0.34375 0.0
H2018 H 0.64754 0.74728 0.32832 0.0
H2019 H 0.64658 0.76016 0.29044 0.0
H2020 H 0.67458 0.77448 0.31567 0.0
H2021 H 0.53296 0.82802 0.32876 0.0
H2022 H 0.53675 0.78947 0.31688 0.0
H2023 H 0.53977 0.79902 0.35583 0.0
H2024 H 0.55838 0.72052 0.25219 0.0
H2025 H 0.56537 0.68823 0.34244 0.0
H2026 H 0.60527 0.78344 0.25991 0.0
H2027 H 0.56745 0.79543 0.26565 0.0
H2028 H 0.57576 0.76774 0.23736 0.0
H2029 H 0.58389 0.7181 0.38154 0.0
H2030 H 0.5748 0.75741 0.37667 0.0
H2031 H 0.6122 0.74459 0.37019 0.0
C2032 C 0.52874 0.31162 0.52926 0.0
C2033 C 0.55323 0.30901 0.54871 0.0
C2034 C 0.50113 0.32325 0.53911 0.0
C2035 C 0.49796 0.33322 0.56906 0.0
C2036 C 0.52297 0.33155 0.58855 0.0
C2037 C 0.55022 0.31923 0.57823 0.0
C2038 C 0.47504 0.32392 0.51766 0.0
C2039 C 0.52085 0.34237 0.62045 0.0
C2040 C 0.42892 0.38204 0.58523 0.0
C2041 C 0.40884 0.36076 0.59679 0.0
C2042 C 0.45836 0.37373 0.57711 0.0
C2043 C 0.46793 0.34339 0.58029 0.0
C2044 C 0.44804 0.32215 0.59284 0.0
C2045 C 0.4191 0.33114 0.60124 0.0
C2046 C 0.47897 0.39726 0.56437 0.0
C2047 C 0.45698 0.2896 0.59666 0.0
H2048 H 0.5309 0.30363 0.50645 0.0
H2049 H 0.56918 0.31754 0.59327 0.0
H2050 H 0.457 0.30913 0.52614 0.0
H2051 H 0.46568 0.34703 0.51609 0.0
H2052 H 0.48139 0.31631 0.49486 0.0
H2053 H 0.54292 0.34224 0.63186 0.0
H2054 H 0.5115 0.36554 0.62111 0.0
H2055 H 0.50541 0.32772 0.63321 0.0
H2056 H 0.42138 0.40497 0.58164 0.0
H2057 H 0.40425 0.31464 0.61103 0.0
H2058 H 0.48354 0.39225 0.5405 0.0
H2059 H 0.50074 0.39681 0.5763 0.0
H2060 H 0.4693 0.42029 0.56595 0.0
H2061 H 0.46335 0.27997 0.57467 0.0
H2062 H 0.43875 0.27574 0.6063 0.0
H2063 H 0.47672 0.28797 0.61159 0.0
C2064 C 0.09759 0.67757 0.66385 0.0
C2065 C 0.12801 0.67378 0.65681 0.0
C2066 C 0.08649 0.70484 0.67533 0.0
C2067 C 0.10627 0.72907 0.68043 0.0
C2068 C 0.13722 0.72506 0.67466 0.0
C2069 C 0.1477 0.69755 0.66282 0.0
C2070 C 0.05333 0.70802 0.68097 0.0
C2071 C 0.15916 0.75011 0.6803 0.0
C2072 C 0.07104 0.80755 0.68088 0.0
C2073 C 0.06578 0.81217 0.71147 0.0
C2074 C 0.08468 0.78091 0.67049 0.0
C2075 C 0.09424 0.75866 0.69123 0.0
C2076 C 0.09051 0.76397 0.72223 0.0
C2077 C 0.07625 0.7905 0.73194 0.0
C2078 C 0.08796 0.77614 0.63724 0.0
C2079 C 0.10072 0.74115 0.74518 0.0
H2080 H 0.0822 0.65923 0.65995 0.0
H2081 H 0.17118 0.69505 0.65733 0.0
H2082 H 0.04912 0.71651 0.70391 0.0
H2083 H 0.04377 0.7247 0.66511 0.0
H2084 H 0.04128 0.68642 0.67811 0.0
H2085 H 0.18268 0.74281 0.67667 0.0
H2086 H 0.15422 0.76929 0.66515 0.0
H2087 H 0.15686 0.75846 0.70357 0.0
H2088 H 0.06393 0.82454 0.66493 0.0
H2089 H 0.07269 0.79389 0.75568 0.0
H2090 H 0.07431 0.75659 0.63025 0.0
H2091 H 0.11156 0.77089 0.63161 0.0
H2092 H 0.08071 0.79613 0.6241 0.0
H2093 H 0.08702 0.7205 0.74325 0.0
H2094 H 0.09876 0.74981 0.7684 0.0
H2095 H 0.12432 0.73458 0.74105 0.0
C2096 C 0.47348 0.82143 0.98817 0.0
C2097 C 0.44877 0.81834 0.96906 0.0
C2098 C 0.49967 0.83611 0.97856 0.0
C2099 C 0.50126 0.84791 0.94912 0.0
C2100 C 0.47589 0.84585 0.93024 0.0
C2101 C 0.44992 0.83153 0.9406 0.0
C2102 C 0.52613 0.83773 0.9994 0.0
C2103 C 0.47668 0.85736 0.89845 0.0
C2104 C 0.5609 0.9024 0.92107 0.0
C2105 C 0.58061 0.88286 0.90613 0.0
C2106 C 0.53573 0.89126 0.93649 0.0
C2107 C 0.53007 0.85987 0.93688 0.0
C2108 C 0.55103 0.84005 0.9234 0.0
C2109 C 0.57585 0.85178 0.90821 0.0
C2110 C 0.5148 0.9131 0.95175 0.0
C2111 C 0.54791 0.8063 0.9245 0.0
H2112 H 0.47274 0.81151 0.01033 0.0
H2113 H 0.43058 0.83025 0.92614 0.0
H2114 H 0.54398 0.82235 0.99127 0.0
H2115 H 0.53542 0.86084 0.99963 0.0
H2116 H 0.5202 0.83116 0.02263 0.0
H2117 H 0.45435 0.85663 0.88758 0.0
H2118 H 0.48488 0.88084 0.89773 0.0
H2119 H 0.49248 0.84336 0.88522 0.0
H2120 H 0.56456 0.92647 0.91982 0.0
H2121 H 0.59148 0.83643 0.89756 0.0
H2122 H 0.51028 0.90561 0.97501 0.0
H2123 H 0.49307 0.91371 0.93979 0.0
H2124 H 0.52398 0.93627 0.95234 0.0
H2125 H 0.52595 0.79865 0.9329 0.0
H2126 H 0.56556 0.79689 0.93934 0.0
H2127 H 0.55174 0.79676 0.90187 0.0
C2128 C 0.93668 0.15248 0.3994 0.0
C2129 C 0.93308 0.12116 0.39959 0.0
C2130 C 0.96079 0.1662 0.41414 0.0
C2131 C 0.98251 0.14816 0.42892 0.0
C2132 C 0.97847 0.1165 0.42998 0.0
C2133 C 0.95365 0.1034 0.41552 0.0
C2134 C 0.96362 0.19996 0.41249 0.0
C2135 C 1.00106 0.09635 0.44525 0.0
C2136 C 0.06064 0.18218 0.43435 0.0
C2137 C 0.06141 0.19259 0.46394 0.0
C2138 C 0.03547 0.16709 0.42298 0.0
C2139 C 0.01022 0.16233 0.44154 0.0
C2140 C 0.01111 0.17235 0.47164 0.0
C2141 C 0.03676 0.18709 0.48253 0.0
C2142 C 0.03571 0.15672 0.39085 0.0
C2143 C 0.98454 0.16844 0.49203 0.0
H2144 H 0.92079 0.16631 0.38715 0.0
H2145 H 0.95108 0.07915 0.41552 0.0
H2146 H 0.97194 0.20937 0.43389 0.0
H2147 H 0.97983 0.20573 0.39465 0.0
H2148 H 0.94194 0.21097 0.40694 0.0
H2149 H 0.99384 0.07247 0.44575 0.0
H2150 H 0.02277 0.0977 0.43333 0.0
H2151 H 0.00492 0.104 0.46853 0.0
H2152 H 0.07975 0.18603 0.41996 0.0
H2153 H 0.03715 0.19519 0.50539 0.0
H2154 H 0.01841 0.16921 0.37799 0.0
H2155 H 0.03012 0.13246 0.38961 0.0
H2156 H 0.05773 0.1603 0.37995 0.0
H2157 H 0.96524 0.18145 0.4831 0.0
H2158 H 0.98919 0.17617 0.51519 0.0
H2159 H 0.97782 0.14446 0.4928 0.0
loop_
_geom_bond_atom_site_label_1
_geom_bond_atom_site_label_2
_geom_bond_distance
_geom_bond_site_symmetry_2
_ccdc_geom_bond_type
Eu0 N29 2.600 . S
Eu0 N35 2.562 . S
Eu0 O44 2.462 . S
Eu0 O45 2.373 . S
Eu0 O47 2.432 . S
Eu0 O48 2.291 . S
Eu0 O52 2.335 . S
Eu0 O55 2.372 . S
Eu0 C64 2.787 . S
C1 N2 1.365 . S
C1 C4 1.405 . S
C1 C8 1.448 . S
N2 C1 1.365 . S
N2 C5 1.319 . S
N2 Eu11 2.600 . S
C3 C5 1.397 . S
C3 C6 1.367 1_455 S
C3 H23 0.931 1_455 S
C4 C1 1.405 . S
C4 C6 1.403 1_455 S
C4 C10 1.439 1_455 S
C5 N2 1.319 . S
C5 C3 1.397 . S
C5 H16 0.930 . S
C6 C3 1.367 1_655 S
C6 C4 1.403 1_655 S
C6 H27 0.929 . S
C7 C8 1.430 . S
C7 C9 1.387 . S
C7 C13 1.404 . S
C8 C1 1.448 . S
C8 C7 1.430 . S
C8 N12 1.351 . S
C9 C7 1.387 . S
C9 C10 1.374 1_455 S
C9 H24 0.932 1_455 S
C10 C4 1.439 1_655 S
C10 C9 1.374 1_655 S
C10 H25 0.931 . S
Eu11 N2 2.600 . S
Eu11 N12 2.562 . S
Eu11 O46 2.335 . S
Eu11 O49 2.372 . S
Eu11 O50 2.462 . S
Eu11 O51 2.373 . S
Eu11 O53 2.432 . S
Eu11 O54 2.291 . S
Eu11 C75 2.787 . S
N12 C8 1.351 . S
N12 Eu11 2.562 . S
N12 C14 1.325 . S
C13 C7 1.404 . S
C13 C15 1.366 . S
C13 H21 0.930 . S
C14 N12 1.325 . S
C14 C15 1.416 . S
C14 H20 0.929 . S
C15 C13 1.366 . S
C15 C14 1.416 . S
C15 H17 0.930 . S
H16 C5 0.930 . S
H17 C15 0.930 . S
H18 C33 0.930 . S
H19 C40 0.930 . S
H20 C14 0.929 . S
H21 C13 0.930 . S
H22 C36 0.929 . S
H23 C3 0.931 1_655 S
H24 C9 0.932 1_655 S
H25 C10 0.931 . S
H26 C31 0.931 . S
H27 C6 0.929 . S
H28 C39 0.930 . S
N29 Eu0 2.600 . S
N29 C30 1.365 . S
N29 C33 1.319 . S
C30 N29 1.365 . S
C30 C32 1.405 . S
C30 C38 1.448 . S
C31 H26 0.931 . S
C31 C33 1.397 . S
C31 C34 1.367 . S
C32 C30 1.405 . S
C32 C34 1.403 . S
C32 C65 1.439 . S
C33 H18 0.930 . S
C33 N29 1.319 . S
C33 C31 1.397 . S
C34 C31 1.367 . S
C34 C32 1.403 . S
C34 H41 0.929 . S
N35 Eu0 2.562 . S
N35 C36 1.325 . S
N35 C38 1.351 . S
C36 H22 0.929 . S
C36 N35 1.325 . S
C36 C40 1.416 . S
C37 C38 1.430 . S
C37 C39 1.404 . S
C37 C66 1.387 . S
C38 C30 1.448 . S
C38 N35 1.351 . S
C38 C37 1.430 . S
C39 H28 0.930 . S
C39 C37 1.404 . S
C39 C40 1.366 . S
C40 H19 0.930 . S
C40 C36 1.416 . S
C40 C39 1.366 . S
H41 C34 0.929 . S
H42 C65 0.931 . S
H43 C66 0.931 . S
O44 Eu0 2.462 . S
O44 C64 1.252 . S
O45 Eu0 2.373 . S
O45 C56 1.249 . S
O46 Eu11 2.335 . S
O46 C56 1.264 . S
O47 Eu0 2.432 . S
O47 C64 1.268 . S
O48 Eu0 2.291 . S
O48 C63 1.255 . S
O49 Eu11 2.372 . S
O49 C63 1.257 . S
O50 Eu11 2.462 . S
O50 C75 1.252 . S
O51 Eu11 2.373 . S
O51 C67 1.249 . S
O52 Eu0 2.335 . S
O52 C67 1.264 . S
O53 Eu11 2.432 . S
O53 C75 1.268 . S
O54 Eu11 2.291 . S
O54 C74 1.255 . S
O55 Eu0 2.372 . S
O55 C74 1.257 . S
C56 O45 1.249 . S
C56 O46 1.264 . S
C57 C60 1.382 . S
C57 C62 1.390 . S
C57 C64 1.506 . S
C58 C59 1.398 . S
C58 C62 1.392 . S
C59 C58 1.398 . S
C59 C61 1.372 . S
C59 H76 0.931 . S
C60 C57 1.382 . S
C60 C61 1.390 . S
C60 H77 0.931 . S
C61 C59 1.372 . S
C61 C60 1.390 . S
C61 H78 0.929 . S
C62 C57 1.390 . S
C62 C58 1.392 . S
C62 H79 0.930 . S
C63 O48 1.255 . S
C63 O49 1.257 . S
C64 Eu0 2.787 . S
C64 O44 1.252 . S
C64 O47 1.268 . S
C64 C57 1.506 . S
C65 C32 1.439 . S
C65 H42 0.931 . S
C65 C66 1.374 . S
C66 C37 1.387 . S
C66 H43 0.931 . S
C66 C65 1.374 . S
C67 O51 1.249 . S
C67 O52 1.264 . S
C68 C71 1.382 . S
C68 C72 1.390 . S
C68 C75 1.506 . S
C69 C70 1.398 . S
C69 C72 1.392 . S
C70 C69 1.398 . S
C70 C73 1.372 . S
C70 H80 0.931 . S
C71 C68 1.382 . S
C71 C73 1.390 . S
C71 H81 0.931 . S
C72 C68 1.390 . S
C72 C69 1.392 . S
C72 H82 0.930 . S
C73 C70 1.372 . S
C73 C71 1.390 . S
C73 H83 0.929 . S
C74 O54 1.255 . S
C74 O55 1.257 . S
C75 Eu11 2.787 . S
C75 O50 1.252 . S
C75 O53 1.268 . S
C75 C68 1.506 . S
H76 C59 0.931 . S
H77 C60 0.931 . S
H78 C61 0.929 . S
H79 C62 0.930 . S
H80 C70 0.931 . S
H81 C71 0.931 . S
H82 C72 0.930 . S
H83 C73 0.929 . S
Eu84 N113 2.600 . S
Eu84 N119 2.562 . S
Eu84 O128 2.462 . S
Eu84 O129 2.373 . S
Eu84 O131 2.432 . S
Eu84 O132 2.291 . S
Eu84 O136 2.335 . S
Eu84 O139 2.372 1_455 S
Eu84 C148 2.787 . S
C85 N86 1.365 . S
C85 C88 1.405 . S
C85 C92 1.448 . S
N86 C85 1.365 . S
N86 C89 1.319 . S
N86 Eu95 2.600 . S
C87 C89 1.397 . S
C87 C90 1.367 . S
C87 H107 0.931 1_655 S
C88 C85 1.405 . S
C88 C90 1.403 . S
C88 C94 1.439 . S
C89 N86 1.319 . S
C89 C87 1.397 . S
C89 H100 0.930 1_655 S
C90 C87 1.367 . S
C90 C88 1.403 . S
C90 H111 0.929 . S
C91 C92 1.430 . S
C91 C93 1.387 . S
C91 C97 1.404 . S
C92 C85 1.448 . S
C92 C91 1.430 . S
C92 N96 1.351 . S
C93 C91 1.387 . S
C93 C94 1.374 . S
C93 H108 0.931 . S
C94 C88 1.439 . S
C94 C93 1.374 . S
C94 H109 0.931 . S
Eu95 N86 2.600 . S
Eu95 N96 2.562 . S
Eu95 O130 2.335 1_655 S
Eu95 O133 2.372 1_655 S
Eu95 O134 2.462 . S
Eu95 O135 2.373 . S
Eu95 O137 2.432 . S
Eu95 O138 2.291 . S
Eu95 C159 2.787 . S
N96 C92 1.351 . S
N96 Eu95 2.562 . S
N96 C98 1.325 . S
C97 C91 1.404 . S
C97 C99 1.366 . S
C97 H105 0.930 . S
C98 N96 1.325 . S
C98 C99 1.416 . S
C98 H104 0.929 . S
C99 C97 1.366 . S
C99 C98 1.416 . S
C99 H101 0.930 . S
H100 C89 0.930 1_455 S
H101 C99 0.930 . S
H102 C117 0.930 . S
H103 C124 0.930 . S
H104 C98 0.929 . S
H105 C97 0.930 . S
H106 C120 0.929 . S
H107 C87 0.931 1_455 S
H108 C93 0.931 . S
H109 C94 0.931 . S
H110 C115 0.931 1_545 S
H111 C90 0.929 . S
H112 C123 0.930 . S
N113 Eu84 2.600 . S
N113 C114 1.365 . S
N113 C117 1.319 . S
C114 N113 1.365 . S
C114 C116 1.405 . S
C114 C122 1.448 . S
C115 H110 0.931 1_565 S
C115 C117 1.397 . S
C115 C118 1.367 1_565 S
C116 C114 1.405 . S
C116 C118 1.403 1_565 S
C116 C149 1.439 1_565 S
C117 H102 0.930 . S
C117 N113 1.319 . S
C117 C115 1.397 . S
C118 C115 1.367 1_545 S
C118 C116 1.403 1_545 S
C118 H125 0.929 . S
N119 Eu84 2.562 . S
N119 C120 1.325 . S
N119 C122 1.351 . S
C120 H106 0.929 . S
C120 N119 1.325 . S
C120 C124 1.416 . S
C121 C122 1.430 . S
C121 C123 1.404 . S
C121 C150 1.387 . S
C122 C114 1.448 . S
C122 N119 1.351 . S
C122 C121 1.430 . S
C123 H112 0.930 . S
C123 C121 1.404 . S
C123 C124 1.366 . S
C124 H103 0.930 . S
C124 C120 1.416 . S
C124 C123 1.366 . S
H125 C118 0.929 . S
H126 C149 0.931 . S
H127 C150 0.931 . S
O128 Eu84 2.462 . S
O128 C148 1.252 . S
O129 Eu84 2.373 . S
O129 C140 1.249 . S
O130 Eu95 2.335 1_455 S
O130 C140 1.264 . S
O131 Eu84 2.432 . S
O131 C148 1.268 . S
O132 Eu84 2.291 . S
O132 C147 1.255 . S
O133 Eu95 2.372 1_455 S
O133 C147 1.257 . S
O134 Eu95 2.462 . S
O134 C159 1.252 . S
O135 Eu95 2.373 . S
O135 C151 1.249 . S
O136 Eu84 2.335 . S
O136 C151 1.264 1_455 S
O137 Eu95 2.432 . S
O137 C159 1.268 . S
O138 Eu95 2.291 . S
O138 C158 1.255 . S
O139 Eu84 2.372 1_655 S
O139 C158 1.257 . S
C140 O129 1.249 . S
C140 O130 1.264 . S
C141 C144 1.382 . S
C141 C146 1.390 . S
C141 C148 1.506 . S
C142 C143 1.398 . S
C142 C146 1.392 . S
C143 C142 1.398 . S
C143 C145 1.372 . S
C143 H160 0.931 . S
C144 C141 1.382 . S
C144 C145 1.390 . S
C144 H161 0.931 . S
C145 C143 1.372 . S
C145 C144 1.390 . S
C145 H162 0.929 . S
C146 C141 1.390 . S
C146 C142 1.392 . S
C146 H163 0.930 . S
C147 O132 1.255 . S
C147 O133 1.257 . S
C148 Eu84 2.787 . S
C148 O128 1.252 . S
C148 O131 1.268 . S
C148 C141 1.506 . S
C149 C116 1.439 1_545 S
C149 H126 0.931 . S
C149 C150 1.374 1_545 S
C150 C121 1.387 . S
C150 H127 0.931 . S
C150 C149 1.374 1_565 S
C151 O135 1.249 . S
C151 O136 1.264 1_655 S
C152 C155 1.382 . S
C152 C156 1.390 . S
C152 C159 1.506 . S
C153 C154 1.398 . S
C153 C156 1.392 . S
C154 C153 1.398 . S
C154 C157 1.372 . S
C154 H164 0.931 . S
C155 C152 1.382 . S
C155 C157 1.390 . S
C155 H165 0.931 . S
C156 C152 1.390 . S
C156 C153 1.392 . S
C156 H166 0.930 . S
C157 C154 1.372 . S
C157 C155 1.390 . S
C157 H167 0.929 . S
C158 O138 1.255 . S
C158 O139 1.257 . S
C159 Eu95 2.787 . S
C159 O134 1.252 . S
C159 O137 1.268 . S
C159 C152 1.506 . S
H160 C143 0.931 . S
H161 C144 0.931 . S
H162 C145 0.929 . S
H163 C146 0.930 . S
H164 C154 0.931 . S
H165 C155 0.931 . S
H166 C156 0.930 . S
H167 C157 0.929 . S
Eu168 N197 2.600 . S
Eu168 N203 2.562 . S
Eu168 O212 2.462 . S
Eu168 O213 2.373 . S
Eu168 O215 2.432 . S
Eu168 O216 2.291 . S
Eu168 O220 2.335 . S
Eu168 O223 2.372 1_556 S
Eu168 C232 2.787 . S
C169 N170 1.365 . S
C169 C172 1.405 . S
C169 C176 1.448 . S
N170 C169 1.365 . S
N170 C173 1.319 . S
N170 Eu179 2.600 . S
C171 C173 1.397 . S
C171 C174 1.367 . S
C171 H191 0.931 1_554 S
C172 C169 1.405 . S
C172 C174 1.403 . S
C172 C178 1.439 . S
C173 N170 1.319 . S
C173 C171 1.397 . S
C173 H184 0.930 1_554 S
C174 C171 1.367 . S
C174 C172 1.403 . S
C174 H195 0.929 . S
C175 C176 1.430 . S
C175 C177 1.387 . S
C175 C181 1.404 . S
C176 C169 1.448 . S
C176 C175 1.430 . S
C176 N180 1.351 . S
C177 C175 1.387 . S
C177 C178 1.374 . S
C177 H192 0.931 . S
C178 C172 1.439 . S
C178 C177 1.374 . S
C178 H193 0.931 . S
Eu179 N170 2.600 . S
Eu179 N180 2.562 . S
Eu179 O214 2.335 1_554 S
Eu179 O217 2.372 1_554 S
Eu179 O218 2.462 . S
Eu179 O219 2.373 . S
Eu179 O221 2.432 . S
Eu179 O222 2.291 . S
Eu179 C243 2.787 . S
N180 C176 1.351 . S
N180 Eu179 2.562 . S
N180 C182 1.325 . S
C181 C175 1.404 . S
C181 C183 1.366 . S
C181 H189 0.930 . S
C182 N180 1.325 . S
C182 C183 1.416 . S
C182 H188 0.929 . S
C183 C181 1.366 . S
C183 C182 1.416 . S
C183 H185 0.930 . S
H184 C173 0.930 1_556 S
H185 C183 0.930 . S
H186 C201 0.930 . S
H187 C208 0.930 . S
H188 C182 0.929 . S
H189 C181 0.930 . S
H190 C204 0.929 . S
H191 C171 0.931 1_556 S
H192 C177 0.931 . S
H193 C178 0.931 . S
H194 C199 0.931 . S
H195 C174 0.929 . S
H196 C207 0.930 . S
N197 Eu168 2.600 . S
N197 C198 1.365 . S
N197 C201 1.319 . S
C198 N197 1.365 . S
C198 C200 1.405 . S
C198 C206 1.448 . S
C199 H194 0.931 . S
C199 C201 1.397 . S
C199 C202 1.367 . S
C200 C198 1.405 . S
C200 C202 1.403 . S
C200 C233 1.439 . S
C201 H186 0.930 . S
C201 N197 1.319 . S
C201 C199 1.397 . S
C202 C199 1.367 . S
C202 C200 1.403 . S
C202 H209 0.929 . S
N203 Eu168 2.562 . S
N203 C204 1.325 . S
N203 C206 1.351 . S
C204 H190 0.929 . S
C204 N203 1.325 . S
C204 C208 1.416 . S
C205 C206 1.430 . S
C205 C207 1.404 . S
C205 C234 1.387 . S
C206 C198 1.448 . S
C206 N203 1.351 . S
C206 C205 1.430 . S
C207 H196 0.930 . S
C207 C205 1.404 . S
C207 C208 1.366 . S
C208 H187 0.930 . S
C208 C204 1.416 . S
C208 C207 1.366 . S
H209 C202 0.929 . S
H210 C233 0.931 . S
H211 C234 0.931 . S
O212 Eu168 2.462 . S
O212 C232 1.252 . S
O213 Eu168 2.373 . S
O213 C224 1.249 . S
O214 Eu179 2.335 1_556 S
O214 C224 1.264 . S
O215 Eu168 2.432 . S
O215 C232 1.268 . S
O216 Eu168 2.291 . S
O216 C231 1.255 . S
O217 Eu179 2.372 1_556 S
O217 C231 1.257 . S
O218 Eu179 2.462 . S
O218 C243 1.252 . S
O219 Eu179 2.373 . S
O219 C235 1.249 . S
O220 Eu168 2.335 . S
O220 C235 1.264 1_556 S
O221 Eu179 2.432 . S
O221 C243 1.268 . S
O222 Eu179 2.291 . S
O222 C242 1.255 . S
O223 Eu168 2.372 1_554 S
O223 C242 1.257 . S
C224 O213 1.249 . S
C224 O214 1.264 . S
C225 C228 1.382 . S
C225 C230 1.390 . S
C225 C232 1.506 . S
C226 C227 1.398 . S
C226 C230 1.392 . S
C227 C226 1.398 . S
C227 C229 1.372 . S
C227 H244 0.931 . S
C228 C225 1.382 . S
C228 C229 1.390 . S
C228 H245 0.931 . S
C229 C227 1.372 . S
C229 C228 1.390 . S
C229 H246 0.929 . S
C230 C225 1.390 . S
C230 C226 1.392 . S
C230 H247 0.930 . S
C231 O216 1.255 . S
C231 O217 1.257 . S
C232 Eu168 2.787 . S
C232 O212 1.252 . S
C232 O215 1.268 . S
C232 C225 1.506 . S
C233 C200 1.439 . S
C233 H210 0.931 . S
C233 C234 1.374 . S
C234 C205 1.387 . S
C234 H211 0.931 . S
C234 C233 1.374 . S
C235 O219 1.249 . S
C235 O220 1.264 1_554 S
C236 C239 1.382 . S
C236 C240 1.390 . S
C236 C243 1.506 . S
C237 C238 1.398 . S
C237 C240 1.392 . S
C238 C237 1.398 . S
C238 C241 1.372 . S
C238 H248 0.931 . S
C239 C236 1.382 . S
C239 C241 1.390 . S
C239 H249 0.931 . S
C240 C236 1.390 . S
C240 C237 1.392 . S
C240 H250 0.930 . S
C241 C238 1.372 . S
C241 C239 1.390 . S
C241 H251 0.929 . S
C242 O222 1.255 . S
C242 O223 1.257 . S
C243 Eu179 2.787 . S
C243 O218 1.252 . S
C243 O221 1.268 . S
C243 C236 1.506 . S
H244 C227 0.931 . S
H245 C228 0.931 . S
H246 C229 0.929 . S
H247 C230 0.930 . S
H248 C238 0.931 . S
H249 C239 0.931 . S
H250 C240 0.930 . S
H251 C241 0.929 . S
Eu252 N281 2.600 . S
Eu252 N287 2.562 . S
Eu252 O296 2.462 . S
Eu252 O297 2.373 . S
Eu252 O299 2.432 . S
Eu252 O300 2.291 . S
Eu252 O304 2.335 . S
Eu252 O307 2.372 . S
Eu252 C316 2.787 . S
C253 N254 1.365 . S
C253 C256 1.405 . S
C253 C260 1.448 . S
N254 C253 1.365 . S
N254 C257 1.319 . S
N254 Eu263 2.600 . S
C255 C257 1.397 . S
C255 C258 1.367 . S
C255 H275 0.931 . S
C256 C253 1.405 . S
C256 C258 1.403 . S
C256 C262 1.439 . S
C257 N254 1.319 . S
C257 C255 1.397 . S
C257 H268 0.930 . S
C258 C255 1.367 . S
C258 C256 1.403 . S
C258 H279 0.929 . S
C259 C260 1.430 . S
C259 C261 1.387 . S
C259 C265 1.404 . S
C260 C253 1.448 . S
C260 C259 1.430 . S
C260 N264 1.351 . S
C261 C259 1.387 . S
C261 C262 1.374 . S
C261 H276 0.931 . S
C262 C256 1.439 . S
C262 C261 1.374 . S
C262 H277 0.931 . S
Eu263 N254 2.600 . S
Eu263 N264 2.562 . S
Eu263 O298 2.335 . S
Eu263 O301 2.372 . S
Eu263 O302 2.462 . S
Eu263 O303 2.373 . S
Eu263 O305 2.432 . S
Eu263 O306 2.291 . S
Eu263 C327 2.787 . S
N264 C260 1.351 . S
N264 Eu263 2.562 . S
N264 C266 1.325 . S
C265 C259 1.404 . S
C265 C267 1.366 . S
C265 H273 0.930 . S
C266 N264 1.325 . S
C266 C267 1.416 . S
C266 H272 0.929 . S
C267 C265 1.366 . S
C267 C266 1.416 . S
C267 H269 0.930 . S
H268 C257 0.930 . S
H269 C267 0.930 . S
H270 C285 0.930 . S
H271 C292 0.930 . S
H272 C266 0.929 . S
H273 C265 0.930 . S
H274 C288 0.929 . S
H275 C255 0.931 . S
H276 C261 0.931 . S
H277 C262 0.931 . S
H278 C283 0.931 1_565 S
H279 C258 0.929 . S
H280 C291 0.930 . S
N281 Eu252 2.600 . S
N281 C282 1.365 . S
N281 C285 1.319 . S
C282 N281 1.365 . S
C282 C284 1.405 . S
C282 C290 1.448 . S
C283 H278 0.931 1_545 S
C283 C285 1.397 . S
C283 C286 1.367 1_545 S
C284 C282 1.405 . S
C284 C286 1.403 1_545 S
C284 C317 1.439 1_545 S
C285 H270 0.930 . S
C285 N281 1.319 . S
C285 C283 1.397 . S
C286 C283 1.367 1_565 S
C286 C284 1.403 1_565 S
C286 H293 0.929 . S
N287 Eu252 2.562 . S
N287 C288 1.325 . S
N287 C290 1.351 . S
C288 H274 0.929 . S
C288 N287 1.325 . S
C288 C292 1.416 . S
C289 C290 1.430 . S
C289 C291 1.404 . S
C289 C318 1.387 . S
C290 C282 1.448 . S
C290 N287 1.351 . S
C290 C289 1.430 . S
C291 H280 0.930 . S
C291 C289 1.404 . S
C291 C292 1.366 . S
C292 H271 0.930 . S
C292 C288 1.416 . S
C292 C291 1.366 . S
H293 C286 0.929 . S
H294 C317 0.931 . S
H295 C318 0.931 . S
O296 Eu252 2.462 . S
O296 C316 1.252 . S
O297 Eu252 2.373 . S
O297 C308 1.249 . S
O298 Eu263 2.335 . S
O298 C308 1.264 . S
O299 Eu252 2.432 . S
O299 C316 1.268 . S
O300 Eu252 2.291 . S
O300 C315 1.255 . S
O301 Eu263 2.372 . S
O301 C315 1.257 . S
O302 Eu263 2.462 . S
O302 C327 1.252 . S
O303 Eu263 2.373 . S
O303 C319 1.249 . S
O304 Eu252 2.335 . S
O304 C319 1.264 . S
O305 Eu263 2.432 . S
O305 C327 1.268 . S
O306 Eu263 2.291 . S
O306 C326 1.255 . S
O307 Eu252 2.372 . S
O307 C326 1.257 . S
C308 O297 1.249 . S
C308 O298 1.264 . S
C309 C312 1.382 . S
C309 C314 1.390 . S
C309 C316 1.506 . S
C310 C311 1.398 . S
C310 C314 1.392 . S
C311 C310 1.398 . S
C311 C313 1.372 . S
C311 H328 0.931 . S
C312 C309 1.382 . S
C312 C313 1.390 . S
C312 H329 0.931 . S
C313 C311 1.372 . S
C313 C312 1.390 . S
C313 H330 0.929 . S
C314 C309 1.390 . S
C314 C310 1.392 . S
C314 H331 0.930 . S
C315 O300 1.255 . S
C315 O301 1.257 . S
C316 Eu252 2.787 . S
C316 O296 1.252 . S
C316 O299 1.268 . S
C316 C309 1.506 . S
C317 C284 1.439 1_565 S
C317 H294 0.931 . S
C317 C318 1.374 1_565 S
C318 C289 1.387 . S
C318 H295 0.931 . S
C318 C317 1.374 1_545 S
C319 O303 1.249 . S
C319 O304 1.264 . S
C320 C323 1.382 . S
C320 C324 1.390 . S
C320 C327 1.506 . S
C321 C322 1.398 . S
C321 C324 1.392 . S
C322 C321 1.398 . S
C322 C325 1.372 . S
C322 H332 0.931 . S
C323 C320 1.382 . S
C323 C325 1.390 . S
C323 H333 0.931 . S
C324 C320 1.390 . S
C324 C321 1.392 . S
C324 H334 0.930 . S
C325 C322 1.372 . S
C325 C323 1.390 . S
C325 H335 0.929 . S
C326 O306 1.255 . S
C326 O307 1.257 . S
C327 Eu263 2.787 . S
C327 O302 1.252 . S
C327 O305 1.268 . S
C327 C320 1.506 . S
H328 C311 0.931 . S
H329 C312 0.931 . S
H330 C313 0.929 . S
H331 C314 0.930 . S
H332 C322 0.931 . S
H333 C323 0.931 . S
H334 C324 0.930 . S
H335 C325 0.929 . S
Eu336 N365 2.600 . S
Eu336 N371 2.562 . S
Eu336 O380 2.462 . S
Eu336 O381 2.373 . S
Eu336 O383 2.432 . S
Eu336 O384 2.291 . S
Eu336 O388 2.335 . S
Eu336 O391 2.372 . S
Eu336 C400 2.787 . S
C337 N338 1.365 . S
C337 C340 1.405 . S
C337 C344 1.448 . S
N338 C337 1.365 . S
N338 C341 1.319 . S
N338 Eu347 2.600 . S
C339 C341 1.397 . S
C339 C342 1.367 . S
C339 H359 0.931 . S
C340 C337 1.405 . S
C340 C342 1.403 . S
C340 C346 1.439 . S
C341 N338 1.319 . S
C341 C339 1.397 . S
C341 H352 0.930 . S
C342 C339 1.367 . S
C342 C340 1.403 . S
C342 H363 0.929 . S
C343 C344 1.430 . S
C343 C345 1.387 . S
C343 C349 1.404 . S
C344 C337 1.448 . S
C344 C343 1.430 . S
C344 N348 1.351 . S
C345 C343 1.387 . S
C345 C346 1.374 . S
C345 H360 0.931 . S
C346 C340 1.439 . S
C346 C345 1.374 . S
C346 H361 0.931 . S
Eu347 N338 2.600 . S
Eu347 N348 2.562 . S
Eu347 O382 2.335 . S
Eu347 O385 2.372 . S
Eu347 O386 2.462 . S
Eu347 O387 2.373 . S
Eu347 O389 2.432 . S
Eu347 O390 2.291 . S
Eu347 C411 2.787 . S
N348 C344 1.351 . S
N348 Eu347 2.562 . S
N348 C350 1.325 . S
C349 C343 1.404 . S
C349 C351 1.366 . S
C349 H357 0.930 . S
C350 N348 1.325 . S
C350 C351 1.416 . S
C350 H356 0.929 . S
C351 C349 1.366 . S
C351 C350 1.416 . S
C351 H353 0.930 . S
H352 C341 0.930 . S
H353 C351 0.930 . S
H354 C369 0.930 . S
H355 C376 0.930 . S
H356 C350 0.929 . S
H357 C349 0.930 . S
H358 C372 0.929 . S
H359 C339 0.931 . S
H360 C345 0.931 . S
H361 C346 0.931 . S
H362 C367 0.931 . S
H363 C342 0.929 . S
H364 C375 0.930 . S
N365 Eu336 2.600 . S
N365 C366 1.365 . S
N365 C369 1.319 . S
C366 N365 1.365 . S
C366 C368 1.405 . S
C366 C374 1.448 . S
C367 H362 0.931 . S
C367 C369 1.397 . S
C367 C370 1.367 . S
C368 C366 1.405 . S
C368 C370 1.403 . S
C368 C401 1.439 . S
C369 H354 0.930 . S
C369 N365 1.319 . S
C369 C367 1.397 . S
C370 C367 1.367 . S
C370 C368 1.403 . S
C370 H377 0.929 . S
N371 Eu336 2.562 . S
N371 C372 1.325 . S
N371 C374 1.351 . S
C372 H358 0.929 . S
C372 N371 1.325 . S
C372 C376 1.416 . S
C373 C374 1.430 . S
C373 C375 1.404 . S
C373 C402 1.387 . S
C374 C366 1.448 . S
C374 N371 1.351 . S
C374 C373 1.430 . S
C375 H364 0.930 . S
C375 C373 1.404 . S
C375 C376 1.366 . S
C376 H355 0.930 . S
C376 C372 1.416 . S
C376 C375 1.366 . S
H377 C370 0.929 . S
H378 C401 0.931 . S
H379 C402 0.931 . S
O380 Eu336 2.462 . S
O380 C400 1.252 . S
O381 Eu336 2.373 . S
O381 C392 1.249 . S
O382 Eu347 2.335 . S
O382 C392 1.264 . S
O383 Eu336 2.432 . S
O383 C400 1.268 . S
O384 Eu336 2.291 . S
O384 C399 1.255 . S
O385 Eu347 2.372 . S
O385 C399 1.257 . S
O386 Eu347 2.462 . S
O386 C411 1.252 . S
O387 Eu347 2.373 . S
O387 C403 1.249 . S
O388 Eu336 2.335 . S
O388 C403 1.264 . S
O389 Eu347 2.432 . S
O389 C411 1.268 . S
O390 Eu347 2.291 . S
O390 C410 1.255 . S
O391 Eu336 2.372 . S
O391 C410 1.257 . S
C392 O381 1.249 . S
C392 O382 1.264 . S
C393 C396 1.382 . S
C393 C398 1.390 . S
C393 C400 1.506 . S
C394 C395 1.398 . S
C394 C398 1.392 . S
C395 C394 1.398 . S
C395 C397 1.372 . S
C395 H412 0.931 . S
C396 C393 1.382 . S
C396 C397 1.390 . S
C396 H413 0.931 . S
C397 C395 1.372 . S
C397 C396 1.390 . S
C397 H414 0.929 . S
C398 C393 1.390 . S
C398 C394 1.392 . S
C398 H415 0.930 . S
C399 O384 1.255 . S
C399 O385 1.257 . S
C400 Eu336 2.787 . S
C400 O380 1.252 . S
C400 O383 1.268 . S
C400 C393 1.506 . S
C401 C368 1.439 . S
C401 H378 0.931 . S
C401 C402 1.374 . S
C402 C373 1.387 . S
C402 H379 0.931 . S
C402 C401 1.374 . S
C403 O387 1.249 . S
C403 O388 1.264 . S
C404 C407 1.382 . S
C404 C408 1.390 . S
C404 C411 1.506 . S
C405 C406 1.398 . S
C405 C408 1.392 . S
C406 C405 1.398 . S
C406 C409 1.372 . S
C406 H416 0.931 . S
C407 C404 1.382 . S
C407 C409 1.390 . S
C407 H417 0.931 . S
C408 C404 1.390 . S
C408 C405 1.392 . S
C408 H418 0.930 . S
C409 C406 1.372 . S
C409 C407 1.390 . S
C409 H419 0.929 . S
C410 O390 1.255 . S
C410 O391 1.257 . S
C411 Eu347 2.787 . S
C411 O386 1.252 . S
C411 O389 1.268 . S
C411 C404 1.506 . S
H412 C395 0.931 . S
H413 C396 0.931 . S
H414 C397 0.929 . S
H415 C398 0.930 . S
H416 C406 0.931 . S
H417 C407 0.931 . S
H418 C408 0.930 . S
H419 C409 0.929 . S
Eu420 N449 2.600 . S
Eu420 N455 2.561 . S
Eu420 O464 2.462 . S
Eu420 O465 2.373 1_455 S
Eu420 O467 2.432 . S
Eu420 O468 2.291 1_455 S
Eu420 O472 2.335 . S
Eu420 O475 2.372 . S
Eu420 C484 2.787 . S
C421 N422 1.365 . S
C421 C424 1.405 . S
C421 C428 1.448 . S
N422 C421 1.365 . S
N422 C425 1.319 . S
N422 Eu431 2.600 . S
C423 C425 1.397 . S
C423 C426 1.367 . S
C423 H443 0.931 . S
C424 C421 1.405 . S
C424 C426 1.403 . S
C424 C430 1.439 . S
C425 N422 1.319 . S
C425 C423 1.397 . S
C425 H436 0.930 . S
C426 C423 1.367 . S
C426 C424 1.403 . S
C426 H447 0.929 . S
C427 C428 1.430 . S
C427 C429 1.387 . S
C427 C433 1.404 . S
C428 C421 1.448 . S
C428 C427 1.430 . S
C428 N432 1.351 . S
C429 C427 1.387 . S
C429 C430 1.374 . S
C429 H444 0.931 . S
C430 C424 1.439 . S
C430 C429 1.374 . S
C430 H445 0.931 . S
Eu431 N422 2.600 . S
Eu431 N432 2.562 . S
Eu431 O466 2.335 . S
Eu431 O469 2.372 . S
Eu431 O470 2.462 . S
Eu431 O471 2.373 . S
Eu431 O473 2.432 . S
Eu431 O474 2.291 . S
Eu431 C495 2.787 . S
N432 C428 1.351 . S
N432 Eu431 2.562 . S
N432 C434 1.325 . S
C433 C427 1.404 . S
C433 C435 1.366 . S
C433 H441 0.930 1_655 S
C434 N432 1.325 . S
C434 C435 1.416 . S
C434 H440 0.929 . S
C435 C433 1.366 . S
C435 C434 1.416 . S
C435 H437 0.930 1_655 S
H436 C425 0.930 . S
H437 C435 0.930 1_455 S
H438 C453 0.930 . S
H439 C460 0.930 . S
H440 C434 0.929 . S
H441 C433 0.930 1_455 S
H442 C456 0.929 . S
H443 C423 0.931 . S
H444 C429 0.931 . S
H445 C430 0.931 . S
H446 C451 0.931 . S
H447 C426 0.929 . S
H448 C459 0.930 . S
N449 Eu420 2.600 . S
N449 C450 1.365 . S
N449 C453 1.319 . S
C450 N449 1.365 . S
C450 C452 1.405 . S
C450 C458 1.448 . S
C451 H446 0.931 . S
C451 C453 1.397 . S
C451 C454 1.367 . S
C452 C450 1.405 . S
C452 C454 1.403 . S
C452 C485 1.439 . S
C453 H438 0.930 . S
C453 N449 1.319 . S
C453 C451 1.397 . S
C454 C451 1.367 . S
C454 C452 1.403 . S
C454 H461 0.929 . S
N455 Eu420 2.561 . S
N455 C456 1.327 1_455 S
N455 C458 1.351 . S
C456 H442 0.929 . S
C456 N455 1.327 1_655 S
C456 C460 1.416 . S
C457 C458 1.430 1_655 S
C457 C459 1.404 . S
C457 C486 1.387 . S
C458 C450 1.448 . S
C458 N455 1.351 . S
C458 C457 1.430 1_455 S
C459 H448 0.930 . S
C459 C457 1.404 . S
C459 C460 1.366 . S
C460 H439 0.930 . S
C460 C456 1.416 . S
C460 C459 1.366 . S
H461 C454 0.929 . S
H462 C485 0.931 . S
H463 C486 0.931 . S
O464 Eu420 2.462 . S
O464 C484 1.252 . S
O465 Eu420 2.373 1_655 S
O465 C476 1.249 . S
O466 Eu431 2.335 . S
O466 C476 1.264 . S
O467 Eu420 2.432 . S
O467 C484 1.268 . S
O468 Eu420 2.291 1_655 S
O468 C483 1.255 . S
O469 Eu431 2.372 . S
O469 C483 1.257 . S
O470 Eu431 2.462 . S
O470 C495 1.252 . S
O471 Eu431 2.373 . S
O471 C487 1.249 1_655 S
O472 Eu420 2.335 . S
O472 C487 1.264 . S
O473 Eu431 2.432 . S
O473 C495 1.268 . S
O474 Eu431 2.291 . S
O474 C494 1.255 1_655 S
O475 Eu420 2.372 . S
O475 C494 1.257 . S
C476 O465 1.249 . S
C476 O466 1.264 . S
C477 C480 1.382 . S
C477 C482 1.390 . S
C477 C484 1.506 . S
C478 C479 1.398 . S
C478 C482 1.392 . S
C479 C478 1.398 . S
C479 C481 1.372 . S
C479 H496 0.931 . S
C480 C477 1.382 . S
C480 C481 1.390 . S
C480 H497 0.931 . S
C481 C479 1.372 . S
C481 C480 1.390 . S
C481 H498 0.929 . S
C482 C477 1.390 . S
C482 C478 1.392 . S
C482 H499 0.930 . S
C483 O468 1.255 . S
C483 O469 1.257 . S
C484 Eu420 2.787 . S
C484 O464 1.252 . S
C484 O467 1.268 . S
C484 C477 1.506 . S
C485 C452 1.439 . S
C485 H462 0.931 . S
C485 C486 1.374 1_455 S
C486 C457 1.387 . S
C486 H463 0.931 . S
C486 C485 1.374 1_655 S
C487 O471 1.249 1_455 S
C487 O472 1.264 . S
C488 C491 1.382 . S
C488 C492 1.390 . S
C488 C495 1.506 . S
C489 C490 1.398 . S
C489 C492 1.392 . S
C490 C489 1.398 . S
C490 C493 1.372 . S
C490 H500 0.931 . S
C491 C488 1.382 . S
C491 C493 1.390 . S
C491 H501 0.931 . S
C492 C488 1.390 . S
C492 C489 1.392 . S
C492 H502 0.930 . S
C493 C490 1.372 . S
C493 C491 1.390 . S
C493 H503 0.929 . S
C494 O474 1.255 1_455 S
C494 O475 1.257 . S
C495 Eu431 2.787 . S
C495 O470 1.252 . S
C495 O473 1.268 . S
C495 C488 1.506 . S
H496 C479 0.931 . S
H497 C480 0.931 . S
H498 C481 0.929 . S
H499 C482 0.930 . S
H500 C490 0.931 . S
H501 C491 0.931 . S
H502 C492 0.930 . S
H503 C493 0.929 . S
Eu504 N533 2.600 . S
Eu504 N539 2.562 . S
Eu504 O548 2.462 . S
Eu504 O549 2.373 1_556 S
Eu504 O551 2.432 . S
Eu504 O552 2.291 1_556 S
Eu504 O556 2.335 . S
Eu504 O559 2.372 . S
Eu504 C568 2.787 . S
C505 N506 1.365 . S
C505 C508 1.405 . S
C505 C512 1.448 . S
N506 C505 1.365 . S
N506 C509 1.319 . S
N506 Eu515 2.600 . S
C507 C509 1.397 . S
C507 C510 1.367 1_655 S
C507 H527 0.931 1_655 S
C508 C505 1.405 . S
C508 C510 1.403 1_655 S
C508 C514 1.439 1_655 S
C509 N506 1.319 . S
C509 C507 1.397 . S
C509 H520 0.930 . S
C510 C507 1.367 1_455 S
C510 C508 1.403 1_455 S
C510 H531 0.929 . S
C511 C512 1.430 . S
C511 C513 1.387 . S
C511 C517 1.404 . S
C512 C505 1.448 . S
C512 C511 1.430 . S
C512 N516 1.351 . S
C513 C511 1.387 . S
C513 C514 1.374 1_655 S
C513 H528 0.931 . S
C514 C508 1.439 1_455 S
C514 C513 1.374 1_455 S
C514 H529 0.931 . S
Eu515 N506 2.600 . S
Eu515 N516 2.562 . S
Eu515 O550 2.335 . S
Eu515 O553 2.372 . S
Eu515 O554 2.462 . S
Eu515 O555 2.352 1_554 S
Eu515 O557 2.432 . S
Eu515 O558 2.291 . S
Eu515 C579 2.787 . S
N516 C512 1.351 . S
N516 Eu515 2.562 . S
N516 C518 1.325 . S
C517 C511 1.404 . S
C517 C519 1.369 . S
C517 H525 0.930 1_554 S
C518 N516 1.325 . S
C518 C519 1.428 . S
C518 H524 0.929 . S
C519 C517 1.369 . S
C519 C518 1.428 . S
C519 H521 0.916 1_554 S
H520 C509 0.930 . S
H521 C519 0.916 1_556 S
H522 C537 0.930 . S
H523 C544 0.930 . S
H524 C518 0.929 . S
H525 C517 0.930 1_556 S
H526 C540 0.929 . S
H527 C507 0.931 1_455 S
H528 C513 0.931 . S
H529 C514 0.931 . S
H530 C535 0.931 . S
H531 C510 0.929 . S
H532 C543 0.930 . S
N533 Eu504 2.600 . S
N533 C534 1.365 . S
N533 C537 1.319 . S
C534 N533 1.365 . S
C534 C536 1.405 . S
C534 C542 1.448 . S
C535 H530 0.931 . S
C535 C537 1.397 . S
C535 C538 1.367 . S
C536 C534 1.405 . S
C536 C538 1.403 . S
C536 C569 1.439 . S
C537 H522 0.930 . S
C537 N533 1.319 . S
C537 C535 1.397 . S
C538 C535 1.367 . S
C538 C536 1.403 . S
C538 H545 0.929 . S
N539 Eu504 2.562 . S
N539 C540 1.325 1_556 S
N539 C542 1.351 . S
C540 H526 0.929 . S
C540 N539 1.325 1_554 S
C540 C544 1.416 . S
C541 C542 1.430 1_554 S
C541 C543 1.404 . S
C541 C570 1.387 . S
C542 C534 1.448 . S
C542 N539 1.351 . S
C542 C541 1.430 1_556 S
C543 H532 0.930 . S
C543 C541 1.404 . S
C543 C544 1.366 . S
C544 H523 0.930 . S
C544 C540 1.416 . S
C544 C543 1.366 . S
H545 C538 0.929 . S
H546 C569 0.931 . S
H547 C570 0.931 . S
O548 Eu504 2.462 . S
O548 C568 1.252 . S
O549 Eu504 2.373 1_554 S
O549 C560 1.249 . S
O550 Eu515 2.335 . S
O550 C560 1.264 . S
O551 Eu504 2.432 . S
O551 C568 1.268 . S
O552 Eu504 2.291 1_554 S
O552 C567 1.255 . S
O553 Eu515 2.372 . S
O553 C567 1.257 . S
O554 Eu515 2.462 . S
O554 C579 1.252 . S
O555 Eu515 2.352 1_556 S
O555 C571 1.272 . S
O556 Eu504 2.335 . S
O556 C571 1.264 . S
O557 Eu515 2.432 . S
O557 C579 1.268 . S
O558 Eu515 2.291 . S
O558 C578 1.255 1_554 S
O559 Eu504 2.372 . S
O559 C578 1.257 . S
C560 O549 1.249 . S
C560 O550 1.264 . S
C561 C564 1.382 . S
C561 C566 1.390 . S
C561 C568 1.506 . S
C562 C563 1.398 . S
C562 C566 1.392 . S
C563 C562 1.398 . S
C563 C565 1.372 . S
C563 H580 0.931 . S
C564 C561 1.382 . S
C564 C565 1.390 . S
C564 H581 0.931 . S
C565 C563 1.372 . S
C565 C564 1.390 . S
C565 H582 0.929 . S
C566 C561 1.390 . S
C566 C562 1.392 . S
C566 H583 0.930 . S
C567 O552 1.255 . S
C567 O553 1.257 . S
C568 Eu504 2.787 . S
C568 O548 1.252 . S
C568 O551 1.268 . S
C568 C561 1.506 . S
C569 C536 1.439 . S
C569 H546 0.931 . S
C569 C570 1.374 1_556 S
C570 C541 1.387 . S
C570 H547 0.931 . S
C570 C569 1.374 1_554 S
C571 O555 1.272 . S
C571 O556 1.264 . S
C572 C575 1.382 . S
C572 C576 1.390 . S
C572 C579 1.506 . S
C573 C574 1.398 . S
C573 C576 1.392 . S
C574 C573 1.398 . S
C574 C577 1.372 . S
C574 H584 0.931 . S
C575 C572 1.382 . S
C575 C577 1.390 . S
C575 H585 0.931 . S
C576 C572 1.390 . S
C576 C573 1.392 . S
C576 H586 0.930 . S
C577 C574 1.372 . S
C577 C575 1.390 . S
C577 H587 0.929 . S
C578 O558 1.255 1_556 S
C578 O559 1.257 . S
C579 Eu515 2.787 . S
C579 O554 1.252 . S
C579 O557 1.268 . S
C579 C572 1.506 . S
H580 C563 0.931 . S
H581 C564 0.931 . S
H582 C565 0.929 . S
H583 C566 0.930 . S
H584 C574 0.931 . S
H585 C575 0.931 . S
H586 C576 0.930 . S
H587 C577 0.929 . S
Eu588 N617 2.600 . S
Eu588 N623 2.562 . S
Eu588 O632 2.462 . S
Eu588 O633 2.373 . S
Eu588 O635 2.432 . S
Eu588 O636 2.291 . S
Eu588 O640 2.335 . S
Eu588 O643 2.372 . S
Eu588 C652 2.787 . S
C589 N590 1.365 . S
C589 C592 1.405 . S
C589 C596 1.448 . S
N590 C589 1.365 . S
N590 C593 1.319 . S
N590 Eu599 2.600 . S
C591 C593 1.397 . S
C591 C594 1.367 . S
C591 H611 0.931 . S
C592 C589 1.405 . S
C592 C594 1.403 . S
C592 C598 1.439 . S
C593 N590 1.319 . S
C593 C591 1.397 . S
C593 H604 0.930 . S
C594 C591 1.367 . S
C594 C592 1.403 . S
C594 H615 0.929 . S
C595 C596 1.430 . S
C595 C597 1.387 . S
C595 C601 1.404 . S
C596 C589 1.448 . S
C596 C595 1.430 . S
C596 N600 1.351 . S
C597 C595 1.387 . S
C597 C598 1.374 . S
C597 H612 0.931 . S
C598 C592 1.439 . S
C598 C597 1.374 . S
C598 H613 0.931 . S
Eu599 N590 2.600 . S
Eu599 N600 2.562 . S
Eu599 O634 2.335 . S
Eu599 O637 2.372 . S
Eu599 O638 2.462 . S
Eu599 O639 2.373 . S
Eu599 O641 2.432 . S
Eu599 O642 2.291 . S
Eu599 C663 2.787 . S
N600 C596 1.351 . S
N600 Eu599 2.562 . S
N600 C602 1.325 . S
C601 C595 1.404 . S
C601 C603 1.366 . S
C601 H609 0.930 . S
C602 N600 1.325 . S
C602 C603 1.416 . S
C602 H608 0.929 . S
C603 C601 1.366 . S
C603 C602 1.416 . S
C603 H605 0.930 . S
H604 C593 0.930 . S
H605 C603 0.930 . S
H606 C621 0.930 . S
H607 C628 0.930 . S
H608 C602 0.929 . S
H609 C601 0.930 . S
H610 C624 0.929 . S
H611 C591 0.931 . S
H612 C597 0.931 . S
H613 C598 0.931 . S
H614 C619 0.931 . S
H615 C594 0.929 . S
H616 C627 0.930 . S
N617 Eu588 2.600 . S
N617 C618 1.365 . S
N617 C621 1.319 . S
C618 N617 1.365 . S
C618 C620 1.405 . S
C618 C626 1.448 . S
C619 H614 0.931 . S
C619 C621 1.397 . S
C619 C622 1.367 . S
C620 C618 1.405 . S
C620 C622 1.403 . S
C620 C653 1.439 . S
C621 H606 0.930 . S
C621 N617 1.319 . S
C621 C619 1.397 . S
C622 C619 1.367 . S
C622 C620 1.403 . S
C622 H629 0.929 . S
N623 Eu588 2.562 . S
N623 C624 1.325 . S
N623 C626 1.351 . S
C624 H610 0.929 . S
C624 N623 1.325 . S
C624 C628 1.416 . S
C625 C626 1.430 . S
C625 C627 1.404 . S
C625 C654 1.387 . S
C626 C618 1.448 . S
C626 N623 1.351 . S
C626 C625 1.430 . S
C627 H616 0.930 . S
C627 C625 1.404 . S
C627 C628 1.366 . S
C628 H607 0.930 . S
C628 C624 1.416 . S
C628 C627 1.366 . S
H629 C622 0.929 . S
H630 C653 0.931 . S
H631 C654 0.931 . S
O632 Eu588 2.462 . S
O632 C652 1.252 . S
O633 Eu588 2.373 . S
O633 C644 1.249 . S
O634 Eu599 2.335 . S
O634 C644 1.264 . S
O635 Eu588 2.432 . S
O635 C652 1.268 . S
O636 Eu588 2.291 . S
O636 C651 1.255 . S
O637 Eu599 2.372 . S
O637 C651 1.257 . S
O638 Eu599 2.462 . S
O638 C663 1.252 . S
O639 Eu599 2.373 . S
O639 C655 1.249 . S
O640 Eu588 2.335 . S
O640 C655 1.264 . S
O641 Eu599 2.432 . S
O641 C663 1.268 . S
O642 Eu599 2.291 . S
O642 C662 1.255 . S
O643 Eu588 2.372 . S
O643 C662 1.257 . S
C644 O633 1.249 . S
C644 O634 1.264 . S
C645 C648 1.382 . S
C645 C650 1.390 . S
C645 C652 1.506 . S
C646 C647 1.398 . S
C646 C650 1.392 . S
C647 C646 1.398 . S
C647 C649 1.372 . S
C647 H664 0.931 . S
C648 C645 1.382 . S
C648 C649 1.390 . S
C648 H665 0.931 . S
C649 C647 1.372 . S
C649 C648 1.390 . S
C649 H666 0.929 . S
C650 C645 1.390 . S
C650 C646 1.392 . S
C650 H667 0.930 . S
C651 O636 1.255 . S
C651 O637 1.257 . S
C652 Eu588 2.787 . S
C652 O632 1.252 . S
C652 O635 1.268 . S
C652 C645 1.506 . S
C653 C620 1.439 . S
C653 H630 0.931 . S
C653 C654 1.374 . S
C654 C625 1.387 . S
C654 H631 0.931 . S
C654 C653 1.374 . S
C655 O639 1.249 . S
C655 O640 1.264 . S
C656 C659 1.382 . S
C656 C660 1.390 . S
C656 C663 1.506 . S
C657 C658 1.398 . S
C657 C660 1.392 . S
C658 C657 1.398 . S
C658 C661 1.372 . S
C658 H668 0.931 . S
C659 C656 1.382 . S
C659 C661 1.390 . S
C659 H669 0.931 . S
C660 C656 1.390 . S
C660 C657 1.392 . S
C660 H670 0.930 . S
C661 C658 1.372 . S
C661 C659 1.390 . S
C661 H671 0.929 . S
C662 O642 1.255 . S
C662 O643 1.257 . S
C663 Eu599 2.787 . S
C663 O638 1.252 . S
C663 O641 1.268 . S
C663 C656 1.506 . S
H664 C647 0.931 . S
H665 C648 0.931 . S
H666 C649 0.929 . S
H667 C650 0.930 . S
H668 C658 0.931 . S
H669 C659 0.931 . S
H670 C660 0.930 . S
H671 C661 0.929 . S
Eu672 N701 2.600 . S
Eu672 N707 2.562 . S
Eu672 O716 2.462 . S
Eu672 O717 2.373 . S
Eu672 O719 2.432 . S
Eu672 O720 2.291 . S
Eu672 O724 2.335 . S
Eu672 O727 2.372 . S
Eu672 C736 2.787 . S
C673 N674 1.365 . S
C673 C676 1.405 . S
C673 C680 1.448 . S
N674 C673 1.365 . S
N674 C677 1.319 . S
N674 Eu683 2.600 . S
C675 C677 1.397 . S
C675 C678 1.367 . S
C675 H695 0.931 . S
C676 C673 1.405 . S
C676 C678 1.403 . S
C676 C682 1.439 . S
C677 N674 1.319 . S
C677 C675 1.397 . S
C677 H688 0.930 . S
C678 C675 1.367 . S
C678 C676 1.403 . S
C678 H699 0.929 . S
C679 C680 1.430 . S
C679 C681 1.387 . S
C679 C685 1.404 . S
C680 C673 1.448 . S
C680 C679 1.430 . S
C680 N684 1.351 . S
C681 C679 1.387 . S
C681 C682 1.374 . S
C681 H696 0.931 . S
C682 C676 1.439 . S
C682 C681 1.374 . S
C682 H697 0.931 . S
Eu683 N674 2.600 . S
Eu683 N684 2.562 . S
Eu683 O718 2.335 . S
Eu683 O721 2.372 . S
Eu683 O722 2.462 . S
Eu683 O723 2.373 . S
Eu683 O725 2.432 . S
Eu683 O726 2.291 . S
Eu683 C747 2.787 . S
N684 C680 1.351 . S
N684 Eu683 2.562 . S
N684 C686 1.325 . S
C685 C679 1.404 . S
C685 C687 1.366 . S
C685 H693 0.930 . S
C686 N684 1.325 . S
C686 C687 1.416 . S
C686 H692 0.929 . S
C687 C685 1.366 . S
C687 C686 1.416 . S
C687 H689 0.930 . S
H688 C677 0.930 . S
H689 C687 0.930 . S
H690 C705 0.930 . S
H691 C712 0.930 . S
H692 C686 0.929 . S
H693 C685 0.930 . S
H694 C708 0.929 . S
H695 C675 0.931 . S
H696 C681 0.931 . S
H697 C682 0.931 . S
H698 C703 0.931 1_556 S
H699 C678 0.929 . S
H700 C711 0.930 . S
N701 Eu672 2.600 . S
N701 C702 1.365 . S
N701 C705 1.319 . S
C702 N701 1.365 . S
C702 C704 1.405 . S
C702 C710 1.448 . S
C703 H698 0.931 1_554 S
C703 C705 1.397 . S
C703 C706 1.367 1_554 S
C704 C702 1.405 . S
C704 C706 1.403 1_554 S
C704 C737 1.439 1_554 S
C705 H690 0.930 . S
C705 N701 1.319 . S
C705 C703 1.397 . S
C706 C703 1.367 1_556 S
C706 C704 1.403 1_556 S
C706 H713 0.929 . S
N707 Eu672 2.562 . S
N707 C708 1.325 . S
N707 C710 1.351 . S
C708 H694 0.929 . S
C708 N707 1.325 . S
C708 C712 1.416 . S
C709 C710 1.430 . S
C709 C711 1.404 . S
C709 C738 1.387 . S
C710 C702 1.448 . S
C710 N707 1.351 . S
C710 C709 1.430 . S
C711 H700 0.930 . S
C711 C709 1.404 . S
C711 C712 1.366 . S
C712 H691 0.930 . S
C712 C708 1.416 . S
C712 C711 1.366 . S
H713 C706 0.929 . S
H714 C737 0.931 . S
H715 C738 0.931 . S
O716 Eu672 2.462 . S
O716 C736 1.252 . S
O717 Eu672 2.373 . S
O717 C728 1.249 . S
O718 Eu683 2.335 . S
O718 C728 1.264 . S
O719 Eu672 2.432 . S
O719 C736 1.268 . S
O720 Eu672 2.291 . S
O720 C735 1.255 . S
O721 Eu683 2.372 . S
O721 C735 1.257 . S
O722 Eu683 2.462 . S
O722 C747 1.252 . S
O723 Eu683 2.373 . S
O723 C739 1.249 . S
O724 Eu672 2.335 . S
O724 C739 1.264 . S
O725 Eu683 2.432 . S
O725 C747 1.268 . S
O726 Eu683 2.291 . S
O726 C746 1.255 . S
O727 Eu672 2.372 . S
O727 C746 1.257 . S
C728 O717 1.249 . S
C728 O718 1.264 . S
C729 C732 1.382 . S
C729 C734 1.390 . S
C729 C736 1.506 . S
C730 C731 1.398 . S
C730 C734 1.392 . S
C731 C730 1.398 . S
C731 C733 1.372 . S
C731 H748 0.931 . S
C732 C729 1.382 . S
C732 C733 1.390 . S
C732 H749 0.931 . S
C733 C731 1.372 . S
C733 C732 1.390 . S
C733 H750 0.929 . S
C734 C729 1.390 . S
C734 C730 1.392 . S
C734 H751 0.930 . S
C735 O720 1.255 . S
C735 O721 1.257 . S
C736 Eu672 2.787 . S
C736 O716 1.252 . S
C736 O719 1.268 . S
C736 C729 1.506 . S
C737 C704 1.439 1_556 S
C737 H714 0.931 . S
C737 C738 1.374 1_556 S
C738 C709 1.387 . S
C738 H715 0.931 . S
C738 C737 1.374 1_554 S
C739 O723 1.249 . S
C739 O724 1.264 . S
C740 C743 1.382 . S
C740 C744 1.390 . S
C740 C747 1.506 . S
C741 C742 1.398 . S
C741 C744 1.392 . S
C742 C741 1.398 . S
C742 C745 1.372 . S
C742 H752 0.931 . S
C743 C740 1.382 . S
C743 C745 1.390 . S
C743 H753 0.931 . S
C744 C740 1.390 . S
C744 C741 1.392 . S
C744 H754 0.930 . S
C745 C742 1.372 . S
C745 C743 1.390 . S
C745 H755 0.929 . S
C746 O726 1.255 . S
C746 O727 1.257 . S
C747 Eu683 2.787 . S
C747 O722 1.252 . S
C747 O725 1.268 . S
C747 C740 1.506 . S
H748 C731 0.931 . S
H749 C732 0.931 . S
H750 C733 0.929 . S
H751 C734 0.930 . S
H752 C742 0.931 . S
H753 C743 0.931 . S
H754 C744 0.930 . S
H755 C745 0.929 . S
Eu756 N785 2.600 . S
Eu756 N791 2.562 . S
Eu756 O800 2.462 . S
Eu756 O801 2.373 . S
Eu756 O803 2.432 . S
Eu756 O804 2.291 . S
Eu756 O808 2.335 . S
Eu756 O811 2.372 1_545 S
Eu756 C820 2.787 . S
C757 N758 1.365 . S
C757 C760 1.405 . S
C757 C764 1.448 . S
N758 C757 1.365 . S
N758 C761 1.319 . S
N758 Eu767 2.600 . S
C759 C761 1.397 . S
C759 C762 1.367 . S
C759 H779 0.931 1_565 S
C760 C757 1.405 . S
C760 C762 1.403 . S
C760 C766 1.439 . S
C761 N758 1.319 . S
C761 C759 1.397 . S
C761 H772 0.930 1_565 S
C762 C759 1.367 . S
C762 C760 1.403 . S
C762 H783 0.929 . S
C763 C764 1.430 . S
C763 C765 1.387 . S
C763 C769 1.404 . S
C764 C757 1.448 . S
C764 C763 1.430 . S
C764 N768 1.351 . S
C765 C763 1.387 . S
C765 C766 1.374 . S
C765 H780 0.931 . S
C766 C760 1.439 . S
C766 C765 1.374 . S
C766 H781 0.931 . S
Eu767 N758 2.600 . S
Eu767 N768 2.562 . S
Eu767 O802 2.335 1_565 S
Eu767 O805 2.372 1_565 S
Eu767 O806 2.462 . S
Eu767 O807 2.373 . S
Eu767 O809 2.432 . S
Eu767 O810 2.291 . S
Eu767 C831 2.787 . S
N768 C764 1.351 . S
N768 Eu767 2.562 . S
N768 C770 1.325 . S
C769 C763 1.404 . S
C769 C771 1.366 . S
C769 H777 0.930 . S
C770 N768 1.325 . S
C770 C771 1.416 . S
C770 H776 0.929 . S
C771 C769 1.366 . S
C771 C770 1.416 . S
C771 H773 0.930 . S
H772 C761 0.930 1_545 S
H773 C771 0.930 . S
H774 C789 0.930 . S
H775 C796 0.930 . S
H776 C770 0.929 . S
H777 C769 0.930 . S
H778 C792 0.929 . S
H779 C759 0.931 1_545 S
H780 C765 0.931 . S
H781 C766 0.931 . S
H782 C787 0.931 1_554 S
H783 C762 0.929 . S
H784 C795 0.930 . S
N785 Eu756 2.600 . S
N785 C786 1.365 . S
N785 C789 1.319 . S
C786 N785 1.365 . S
C786 C788 1.405 . S
C786 C794 1.448 . S
C787 H782 0.931 1_556 S
C787 C789 1.397 . S
C787 C790 1.367 1_556 S
C788 C786 1.405 . S
C788 C790 1.403 1_556 S
C788 C821 1.439 1_556 S
C789 H774 0.930 . S
C789 N785 1.319 . S
C789 C787 1.397 . S
C790 C787 1.367 1_554 S
C790 C788 1.403 1_554 S
C790 H797 0.929 . S
N791 Eu756 2.562 . S
N791 C792 1.325 . S
N791 C794 1.351 . S
C792 H778 0.929 . S
C792 N791 1.325 . S
C792 C796 1.416 . S
C793 C794 1.430 . S
C793 C795 1.404 . S
C793 C822 1.387 . S
C794 C786 1.448 . S
C794 N791 1.351 . S
C794 C793 1.430 . S
C795 H784 0.930 . S
C795 C793 1.404 . S
C795 C796 1.366 . S
C796 H775 0.930 . S
C796 C792 1.416 . S
C796 C795 1.366 . S
H797 C790 0.929 . S
H798 C821 0.931 . S
H799 C822 0.931 . S
O800 Eu756 2.462 . S
O800 C820 1.252 . S
O801 Eu756 2.373 . S
O801 C812 1.249 . S
O802 Eu767 2.335 1_545 S
O802 C812 1.264 . S
O803 Eu756 2.432 . S
O803 C820 1.268 . S
O804 Eu756 2.291 . S
O804 C819 1.255 . S
O805 Eu767 2.372 1_545 S
O805 C819 1.257 . S
O806 Eu767 2.462 . S
O806 C831 1.252 . S
O807 Eu767 2.373 . S
O807 C823 1.249 . S
O808 Eu756 2.335 . S
O808 C823 1.264 1_545 S
O809 Eu767 2.432 . S
O809 C831 1.268 . S
O810 Eu767 2.291 . S
O810 C830 1.255 . S
O811 Eu756 2.372 1_565 S
O811 C830 1.257 . S
C812 O801 1.249 . S
C812 O802 1.264 . S
C813 C816 1.382 . S
C813 C818 1.390 . S
C813 C820 1.506 . S
C814 C815 1.398 . S
C814 C818 1.392 . S
C815 C814 1.398 . S
C815 C817 1.372 . S
C815 H832 0.931 . S
C816 C813 1.382 . S
C816 C817 1.390 . S
C816 H833 0.931 . S
C817 C815 1.372 . S
C817 C816 1.390 . S
C817 H834 0.929 . S
C818 C813 1.390 . S
C818 C814 1.392 . S
C818 H835 0.930 . S
C819 O804 1.255 . S
C819 O805 1.257 . S
C820 Eu756 2.787 . S
C820 O800 1.252 . S
C820 O803 1.268 . S
C820 C813 1.506 . S
C821 C788 1.439 1_554 S
C821 H798 0.931 . S
C821 C822 1.374 1_554 S
C822 C793 1.387 . S
C822 H799 0.931 . S
C822 C821 1.374 1_556 S
C823 O807 1.249 . S
C823 O808 1.264 1_565 S
C824 C827 1.382 . S
C824 C828 1.390 . S
C824 C831 1.506 . S
C825 C826 1.398 . S
C825 C828 1.392 . S
C826 C825 1.398 . S
C826 C829 1.372 . S
C826 H836 0.931 . S
C827 C824 1.382 . S
C827 C829 1.390 . S
C827 H837 0.931 . S
C828 C824 1.390 . S
C828 C825 1.392 . S
C828 H838 0.930 . S
C829 C826 1.372 . S
C829 C827 1.390 . S
C829 H839 0.929 . S
C830 O810 1.255 . S
C830 O811 1.257 . S
C831 Eu767 2.787 . S
C831 O806 1.252 . S
C831 O809 1.268 . S
C831 C824 1.506 . S
H832 C815 0.931 . S
H833 C816 0.931 . S
H834 C817 0.929 . S
H835 C818 0.930 . S
H836 C826 0.931 . S
H837 C827 0.931 . S
H838 C828 0.930 . S
H839 C829 0.929 . S
Eu840 N869 2.600 . S
Eu840 N875 2.562 . S
Eu840 O884 2.462 . S
Eu840 O885 2.373 . S
Eu840 O887 2.432 . S
Eu840 O888 2.291 . S
Eu840 O892 2.335 . S
Eu840 O895 2.372 1_565 S
Eu840 C904 2.787 . S
C841 N842 1.365 . S
C841 C844 1.405 . S
C841 C848 1.448 . S
N842 C841 1.365 . S
N842 C845 1.319 . S
N842 Eu851 2.600 . S
C843 C845 1.397 . S
C843 C846 1.367 . S
C843 H863 0.931 1_545 S
C844 C841 1.405 . S
C844 C846 1.403 . S
C844 C850 1.439 . S
C845 N842 1.319 . S
C845 C843 1.397 . S
C845 H856 0.930 1_545 S
C846 C843 1.367 . S
C846 C844 1.403 . S
C846 H867 0.929 . S
C847 C848 1.430 . S
C847 C849 1.387 . S
C847 C853 1.404 . S
C848 C841 1.448 . S
C848 C847 1.430 . S
C848 N852 1.351 . S
C849 C847 1.387 . S
C849 C850 1.374 . S
C849 H864 0.931 . S
C850 C844 1.439 . S
C850 C849 1.374 . S
C850 H865 0.931 . S
Eu851 N842 2.600 . S
Eu851 N852 2.562 . S
Eu851 O886 2.335 1_545 S
Eu851 O889 2.372 1_545 S
Eu851 O890 2.462 . S
Eu851 O891 2.373 . S
Eu851 O893 2.432 . S
Eu851 O894 2.291 . S
Eu851 C915 2.787 . S
N852 C848 1.351 . S
N852 Eu851 2.562 . S
N852 C854 1.325 . S
C853 C847 1.404 . S
C853 C855 1.366 . S
C853 H861 0.930 . S
C854 N852 1.325 . S
C854 C855 1.416 . S
C854 H860 0.929 . S
C855 C853 1.366 . S
C855 C854 1.416 . S
C855 H857 0.930 . S
H856 C845 0.930 1_565 S
H857 C855 0.930 . S
H858 C873 0.930 . S
H859 C880 0.930 . S
H860 C854 0.929 . S
H861 C853 0.930 . S
H862 C876 0.929 . S
H863 C843 0.931 1_565 S
H864 C849 0.931 . S
H865 C850 0.931 . S
H866 C871 0.931 . S
H867 C846 0.929 . S
H868 C879 0.930 . S
N869 Eu840 2.600 . S
N869 C870 1.365 . S
N869 C873 1.319 . S
C870 N869 1.365 . S
C870 C872 1.405 . S
C870 C878 1.448 . S
C871 H866 0.931 . S
C871 C873 1.397 . S
C871 C874 1.367 . S
C872 C870 1.405 . S
C872 C874 1.403 . S
C872 C905 1.439 . S
C873 H858 0.930 . S
C873 N869 1.319 . S
C873 C871 1.397 . S
C874 C871 1.367 . S
C874 C872 1.403 . S
C874 H881 0.929 . S
N875 Eu840 2.562 . S
N875 C876 1.325 . S
N875 C878 1.351 . S
C876 H862 0.929 . S
C876 N875 1.325 . S
C876 C880 1.416 . S
C877 C878 1.430 . S
C877 C879 1.404 . S
C877 C906 1.387 . S
C878 C870 1.448 . S
C878 N875 1.351 . S
C878 C877 1.430 . S
C879 H868 0.930 . S
C879 C877 1.404 . S
C879 C880 1.366 . S
C880 H859 0.930 . S
C880 C876 1.416 . S
C880 C879 1.366 . S
H881 C874 0.929 . S
H882 C905 0.931 . S
H883 C906 0.931 . S
O884 Eu840 2.462 . S
O884 C904 1.252 . S
O885 Eu840 2.373 . S
O885 C896 1.249 . S
O886 Eu851 2.335 1_565 S
O886 C896 1.264 . S
O887 Eu840 2.432 . S
O887 C904 1.268 . S
O888 Eu840 2.291 . S
O888 C903 1.255 . S
O889 Eu851 2.372 1_565 S
O889 C903 1.257 . S
O890 Eu851 2.462 . S
O890 C915 1.252 . S
O891 Eu851 2.373 . S
O891 C907 1.249 . S
O892 Eu840 2.335 . S
O892 C907 1.264 1_565 S
O893 Eu851 2.432 . S
O893 C915 1.268 . S
O894 Eu851 2.291 . S
O894 C914 1.255 . S
O895 Eu840 2.372 1_545 S
O895 C914 1.257 . S
C896 O885 1.249 . S
C896 O886 1.264 . S
C897 C900 1.382 . S
C897 C902 1.390 . S
C897 C904 1.506 . S
C898 C899 1.398 . S
C898 C902 1.392 . S
C899 C898 1.398 . S
C899 C901 1.372 . S
C899 H916 0.931 . S
C900 C897 1.382 . S
C900 C901 1.390 . S
C900 H917 0.931 . S
C901 C899 1.372 . S
C901 C900 1.390 . S
C901 H918 0.929 . S
C902 C897 1.390 . S
C902 C898 1.392 . S
C902 H919 0.930 . S
C903 O888 1.255 . S
C903 O889 1.257 . S
C904 Eu840 2.787 . S
C904 O884 1.252 . S
C904 O887 1.268 . S
C904 C897 1.506 . S
C905 C872 1.439 . S
C905 H882 0.931 . S
C905 C906 1.374 . S
C906 C877 1.387 . S
C906 H883 0.931 . S
C906 C905 1.374 . S
C907 O891 1.249 . S
C907 O892 1.264 1_545 S
C908 C911 1.382 . S
C908 C912 1.390 . S
C908 C915 1.506 . S
C909 C910 1.398 . S
C909 C912 1.392 . S
C910 C909 1.398 . S
C910 C913 1.372 . S
C910 H920 0.931 . S
C911 C908 1.382 . S
C911 C913 1.390 . S
C911 H921 0.931 . S
C912 C908 1.390 . S
C912 C909 1.392 . S
C912 H922 0.930 . S
C913 C910 1.372 . S
C913 C911 1.390 . S
C913 H923 0.929 . S
C914 O894 1.255 . S
C914 O895 1.257 . S
C915 Eu851 2.787 . S
C915 O890 1.252 . S
C915 O893 1.268 . S
C915 C908 1.506 . S
H916 C899 0.931 . S
H917 C900 0.931 . S
H918 C901 0.929 . S
H919 C902 0.930 . S
H920 C910 0.931 . S
H921 C911 0.931 . S
H922 C912 0.930 . S
H923 C913 0.929 . S
Eu924 N953 2.600 . S
Eu924 N959 2.562 . S
Eu924 O968 2.462 . S
Eu924 O969 2.373 . S
Eu924 O971 2.432 . S
Eu924 O972 2.291 . S
Eu924 O976 2.335 . S
Eu924 O979 2.372 . S
Eu924 C988 2.787 . S
C925 N926 1.365 . S
C925 C928 1.405 . S
C925 C932 1.448 . S
N926 C925 1.365 . S
N926 C929 1.319 . S
N926 Eu935 2.600 . S
C927 C929 1.397 . S
C927 C930 1.367 . S
C927 H947 0.931 . S
C928 C925 1.405 . S
C928 C930 1.403 . S
C928 C934 1.439 . S
C929 N926 1.319 . S
C929 C927 1.397 . S
C929 H940 0.930 . S
C930 C927 1.367 . S
C930 C928 1.403 . S
C930 H951 0.929 . S
C931 C932 1.430 . S
C931 C933 1.387 . S
C931 C937 1.404 . S
C932 C925 1.448 . S
C932 C931 1.430 . S
C932 N936 1.351 . S
C933 C931 1.387 . S
C933 C934 1.374 . S
C933 H948 0.931 . S
C934 C928 1.439 . S
C934 C933 1.374 . S
C934 H949 0.931 . S
Eu935 N926 2.600 . S
Eu935 N936 2.562 . S
Eu935 O970 2.335 . S
Eu935 O973 2.372 . S
Eu935 O974 2.462 . S
Eu935 O975 2.373 . S
Eu935 O977 2.432 . S
Eu935 O978 2.291 . S
Eu935 C999 2.787 . S
N936 C932 1.351 . S
N936 Eu935 2.562 . S
N936 C938 1.325 . S
C937 C931 1.404 . S
C937 C939 1.366 . S
C937 H945 0.930 . S
C938 N936 1.325 . S
C938 C939 1.416 . S
C938 H944 0.929 . S
C939 C937 1.366 . S
C939 C938 1.416 . S
C939 H941 0.930 . S
H940 C929 0.930 . S
H941 C939 0.930 . S
H942 C957 0.930 . S
H943 C964 0.930 . S
H944 C938 0.929 . S
H945 C937 0.930 . S
H946 C960 0.929 . S
H947 C927 0.931 . S
H948 C933 0.931 . S
H949 C934 0.931 . S
H950 C955 0.931 . S
H951 C930 0.929 . S
H952 C963 0.930 . S
N953 Eu924 2.600 . S
N953 C954 1.365 . S
N953 C957 1.319 . S
C954 N953 1.365 . S
C954 C956 1.405 . S
C954 C962 1.448 . S
C955 H950 0.931 . S
C955 C957 1.397 . S
C955 C958 1.367 . S
C956 C954 1.405 . S
C956 C958 1.403 . S
C956 C989 1.439 . S
C957 H942 0.930 . S
C957 N953 1.319 . S
C957 C955 1.397 . S
C958 C955 1.367 . S
C958 C956 1.403 . S
C958 H965 0.929 . S
N959 Eu924 2.562 . S
N959 C960 1.325 . S
N959 C962 1.351 . S
C960 H946 0.929 . S
C960 N959 1.325 . S
C960 C964 1.416 . S
C961 C962 1.430 . S
C961 C963 1.404 . S
C961 C990 1.387 . S
C962 C954 1.448 . S
C962 N959 1.351 . S
C962 C961 1.430 . S
C963 H952 0.930 . S
C963 C961 1.404 . S
C963 C964 1.366 . S
C964 H943 0.930 . S
C964 C960 1.416 . S
C964 C963 1.366 . S
H965 C958 0.929 . S
H966 C989 0.931 . S
H967 C990 0.931 . S
O968 Eu924 2.462 . S
O968 C988 1.252 . S
O969 Eu924 2.373 . S
O969 C980 1.249 . S
O970 Eu935 2.335 . S
O970 C980 1.264 . S
O971 Eu924 2.432 . S
O971 C988 1.268 . S
O972 Eu924 2.291 . S
O972 C987 1.255 . S
O973 Eu935 2.372 . S
O973 C987 1.257 . S
O974 Eu935 2.462 . S
O974 C999 1.252 . S
O975 Eu935 2.373 . S
O975 C991 1.249 . S
O976 Eu924 2.335 . S
O976 C991 1.264 . S
O977 Eu935 2.432 . S
O977 C999 1.268 . S
O978 Eu935 2.291 . S
O978 C998 1.255 . S
O979 Eu924 2.372 . S
O979 C998 1.257 . S
C980 O969 1.249 . S
C980 O970 1.264 . S
C981 C984 1.382 . S
C981 C986 1.390 . S
C981 C988 1.506 . S
C982 C983 1.398 . S
C982 C986 1.392 . S
C983 C982 1.398 . S
C983 C985 1.372 . S
C983 H1000 0.931 . S
C984 C981 1.382 . S
C984 C985 1.390 . S
C984 H1001 0.931 . S
C985 C983 1.372 . S
C985 C984 1.390 . S
C985 H1002 0.929 . S
C986 C981 1.390 . S
C986 C982 1.392 . S
C986 H1003 0.930 . S
C987 O972 1.255 . S
C987 O973 1.257 . S
C988 Eu924 2.787 . S
C988 O968 1.252 . S
C988 O971 1.268 . S
C988 C981 1.506 . S
C989 C956 1.439 . S
C989 H966 0.931 . S
C989 C990 1.374 . S
C990 C961 1.387 . S
C990 H967 0.931 . S
C990 C989 1.374 . S
C991 O975 1.249 . S
C991 O976 1.264 . S
C992 C995 1.382 . S
C992 C996 1.390 . S
C992 C999 1.506 . S
C993 C994 1.398 . S
C993 C996 1.392 . S
C994 C993 1.398 . S
C994 C997 1.372 . S
C994 H1004 0.931 . S
C995 C992 1.382 . S
C995 C997 1.390 . S
C995 H1005 0.931 . S
C996 C992 1.390 . S
C996 C993 1.392 . S
C996 H1006 0.930 . S
C997 C994 1.372 . S
C997 C995 1.390 . S
C997 H1007 0.929 . S
C998 O978 1.255 . S
C998 O979 1.257 . S
C999 Eu935 2.787 . S
C999 O974 1.252 . S
C999 O977 1.268 . S
C999 C992 1.506 . S
H1000 C983 0.931 . S
H1001 C984 0.931 . S
H1002 C985 0.929 . S
H1003 C986 0.930 . S
H1004 C994 0.931 . S
H1005 C995 0.931 . S
H1006 C996 0.930 . S
H1007 C997 0.929 . S
C1008 C1009 1.391 . S
C1008 C1010 1.394 . S
C1008 H1024 0.931 . S
C1009 C1008 1.391 . S
C1009 C1013 1.376 . S
C1010 C1008 1.394 . S
C1010 C1011 1.369 . S
C1010 C1014 1.531 . S
C1011 C1010 1.369 . S
C1011 C1012 1.410 . S
C1011 C1019 1.503 . S
C1012 C1011 1.410 . S
C1012 C1013 1.392 . S
C1012 C1015 1.511 . S
C1013 C1009 1.376 . S
C1013 C1012 1.392 . S
C1013 H1025 0.929 . S
C1014 C1010 1.531 . S
C1014 H1026 0.960 . S
C1014 H1027 0.962 . S
C1014 H1028 0.960 . S
C1015 C1012 1.511 . S
C1015 H1029 0.961 . S
C1015 H1030 0.961 . S
C1015 H1031 0.961 . S
C1016 C1017 1.370 . S
C1016 C1018 1.363 . S
C1016 H1032 0.931 . S
C1017 C1016 1.370 . S
C1017 C1021 1.408 . S
C1018 C1016 1.363 . S
C1018 C1019 1.370 . S
C1018 C1022 1.524 . S
C1019 C1011 1.503 . S
C1019 C1018 1.370 . S
C1019 C1020 1.403 . S
C1020 C1019 1.403 . S
C1020 C1021 1.404 . S
C1020 C1023 1.539 . S
C1021 C1017 1.408 . S
C1021 C1020 1.404 . S
C1021 H1033 0.930 . S
C1022 C1018 1.524 . S
C1022 H1034 0.956 . S
C1022 H1035 0.961 . S
C1022 H1036 0.961 . S
C1023 C1020 1.539 . S
C1023 H1037 0.958 . S
C1023 H1038 0.961 . S
C1023 H1039 0.960 . S
H1024 C1008 0.931 . S
H1025 C1013 0.929 . S
H1026 C1014 0.960 . S
H1027 C1014 0.962 . S
H1028 C1014 0.960 . S
H1029 C1015 0.961 . S
H1030 C1015 0.961 . S
H1031 C1015 0.961 . S
H1032 C1016 0.931 . S
H1033 C1021 0.930 . S
H1034 C1022 0.956 . S
H1035 C1022 0.961 . S
H1036 C1022 0.961 . S
H1037 C1023 0.958 . S
H1038 C1023 0.961 . S
H1039 C1023 0.960 . S
C1040 C1041 1.391 . S
C1040 C1042 1.394 . S
C1040 H1056 0.931 . S
C1041 C1040 1.391 . S
C1041 C1045 1.376 . S
C1042 C1040 1.394 . S
C1042 C1043 1.369 . S
C1042 C1046 1.531 . S
C1043 C1042 1.369 . S
C1043 C1044 1.410 . S
C1043 C1051 1.503 . S
C1044 C1043 1.410 . S
C1044 C1045 1.392 . S
C1044 C1047 1.511 . S
C1045 C1041 1.376 . S
C1045 C1044 1.392 . S
C1045 H1057 0.929 . S
C1046 C1042 1.531 . S
C1046 H1058 0.960 . S
C1046 H1059 0.962 . S
C1046 H1060 0.960 . S
C1047 C1044 1.511 . S
C1047 H1061 0.961 . S
C1047 H1062 0.961 . S
C1047 H1063 0.961 . S
C1048 C1049 1.370 . S
C1048 C1050 1.363 . S
C1048 H1064 0.931 . S
C1049 C1048 1.370 . S
C1049 C1053 1.408 . S
C1050 C1048 1.363 . S
C1050 C1051 1.370 . S
C1050 C1054 1.524 . S
C1051 C1043 1.503 . S
C1051 C1050 1.370 . S
C1051 C1052 1.403 . S
C1052 C1051 1.403 . S
C1052 C1053 1.404 . S
C1052 C1055 1.539 1_565 S
C1053 C1049 1.408 . S
C1053 C1052 1.404 . S
C1053 H1065 0.930 . S
C1054 C1050 1.524 . S
C1054 H1066 0.956 . S
C1054 H1067 0.961 . S
C1054 H1068 0.961 . S
C1055 C1052 1.539 1_545 S
C1055 H1069 0.958 . S
C1055 H1070 0.961 . S
C1055 H1071 0.960 . S
H1056 C1040 0.931 . S
H1057 C1045 0.929 . S
H1058 C1046 0.960 . S
H1059 C1046 0.962 . S
H1060 C1046 0.960 . S
H1061 C1047 0.961 . S
H1062 C1047 0.961 . S
H1063 C1047 0.961 . S
H1064 C1048 0.931 . S
H1065 C1053 0.930 . S
H1066 C1054 0.956 . S
H1067 C1054 0.961 . S
H1068 C1054 0.961 . S
H1069 C1055 0.958 . S
H1070 C1055 0.961 . S
H1071 C1055 0.960 . S
C1072 C1073 1.391 . S
C1072 C1074 1.394 . S
C1072 H1088 0.931 . S
C1073 C1072 1.391 . S
C1073 C1077 1.376 . S
C1074 C1072 1.394 . S
C1074 C1075 1.369 . S
C1074 C1078 1.531 . S
C1075 C1074 1.369 . S
C1075 C1076 1.410 . S
C1075 C1083 1.503 . S
C1076 C1075 1.410 . S
C1076 C1077 1.392 . S
C1076 C1079 1.511 . S
C1077 C1073 1.376 . S
C1077 C1076 1.392 . S
C1077 H1089 0.929 . S
C1078 C1074 1.531 . S
C1078 H1090 0.960 . S
C1078 H1091 0.962 . S
C1078 H1092 0.960 . S
C1079 C1076 1.511 . S
C1079 H1093 0.961 . S
C1079 H1094 0.961 . S
C1079 H1095 0.961 . S
C1080 C1081 1.370 . S
C1080 C1082 1.363 . S
C1080 H1096 0.931 . S
C1081 C1080 1.370 . S
C1081 C1085 1.408 . S
C1082 C1080 1.363 . S
C1082 C1083 1.370 . S
C1082 C1086 1.545 . S
C1083 C1075 1.503 . S
C1083 C1082 1.370 . S
C1083 C1084 1.403 . S
C1084 C1083 1.403 . S
C1084 C1085 1.404 . S
C1084 C1087 1.539 . S
C1085 C1081 1.408 . S
C1085 C1084 1.404 . S
C1085 H1097 0.930 . S
C1086 C1082 1.545 . S
C1086 H1098 0.956 . S
C1086 H1099 0.952 1_554 S
C1086 H1100 0.949 1_554 S
C1087 C1084 1.539 . S
C1087 H1101 0.958 . S
C1087 H1102 0.961 . S
C1087 H1103 0.960 . S
H1088 C1072 0.931 . S
H1089 C1077 0.929 . S
H1090 C1078 0.960 . S
H1091 C1078 0.962 . S
H1092 C1078 0.960 . S
H1093 C1079 0.961 . S
H1094 C1079 0.961 . S
H1095 C1079 0.961 . S
H1096 C1080 0.931 . S
H1097 C1085 0.930 . S
H1098 C1086 0.956 . S
H1099 C1086 0.952 1_556 S
H1100 C1086 0.949 1_556 S
H1101 C1087 0.958 . S
H1102 C1087 0.961 . S
H1103 C1087 0.960 . S
C1104 C1105 1.391 . S
C1104 C1106 1.394 . S
C1104 H1120 0.931 . S
C1105 C1104 1.391 . S
C1105 C1109 1.376 . S
C1106 C1104 1.394 . S
C1106 C1107 1.369 . S
C1106 C1110 1.531 1_545 S
C1107 C1106 1.369 . S
C1107 C1108 1.410 . S
C1107 C1115 1.503 . S
C1108 C1107 1.410 . S
C1108 C1109 1.392 . S
C1108 C1111 1.511 . S
C1109 C1105 1.376 . S
C1109 C1108 1.392 . S
C1109 H1121 0.929 . S
C1110 C1106 1.531 1_565 S
C1110 H1122 0.960 . S
C1110 H1123 0.962 1_565 S
C1110 H1124 0.960 . S
C1111 C1108 1.511 . S
C1111 H1125 0.961 . S
C1111 H1126 0.961 . S
C1111 H1127 0.961 . S
C1112 C1113 1.370 . S
C1112 C1114 1.363 . S
C1112 H1128 0.931 . S
C1113 C1112 1.370 . S
C1113 C1117 1.408 . S
C1114 C1112 1.363 . S
C1114 C1115 1.370 . S
C1114 C1118 1.524 . S
C1115 C1107 1.503 . S
C1115 C1114 1.370 . S
C1115 C1116 1.403 . S
C1116 C1115 1.403 . S
C1116 C1117 1.404 . S
C1116 C1119 1.539 . S
C1117 C1113 1.408 . S
C1117 C1116 1.404 . S
C1117 H1129 0.930 1_545 S
C1118 C1114 1.524 . S
C1118 H1130 0.956 . S
C1118 H1131 0.961 . S
C1118 H1132 0.961 . S
C1119 C1116 1.539 . S
C1119 H1133 0.958 1_545 S
C1119 H1134 0.961 . S
C1119 H1135 0.960 . S
H1120 C1104 0.931 . S
H1121 C1109 0.929 . S
H1122 C1110 0.960 . S
H1123 C1110 0.962 1_545 S
H1124 C1110 0.960 . S
H1125 C1111 0.961 . S
H1126 C1111 0.961 . S
H1127 C1111 0.961 . S
H1128 C1112 0.931 . S
H1129 C1117 0.930 1_565 S
H1130 C1118 0.956 . S
H1131 C1118 0.961 . S
H1132 C1118 0.961 . S
H1133 C1119 0.958 1_565 S
H1134 C1119 0.961 . S
H1135 C1119 0.960 . S
C1136 C1137 1.391 . S
C1136 C1138 1.394 . S
C1136 H1152 0.931 . S
C1137 C1136 1.391 . S
C1137 C1141 1.376 . S
C1138 C1136 1.394 . S
C1138 C1139 1.369 . S
C1138 C1142 1.531 . S
C1139 C1138 1.369 . S
C1139 C1140 1.410 . S
C1139 C1147 1.503 . S
C1140 C1139 1.410 . S
C1140 C1141 1.392 . S
C1140 C1143 1.511 . S
C1141 C1137 1.376 . S
C1141 C1140 1.392 . S
C1141 H1153 0.929 . S
C1142 C1138 1.531 . S
C1142 H1154 0.960 . S
C1142 H1155 0.962 . S
C1142 H1156 0.960 . S
C1143 C1140 1.511 . S
C1143 H1157 0.961 . S
C1143 H1158 0.961 . S
C1143 H1159 0.961 . S
C1144 C1145 1.370 . S
C1144 C1146 1.363 . S
C1144 H1160 0.931 . S
C1145 C1144 1.370 . S
C1145 C1149 1.408 . S
C1146 C1144 1.363 . S
C1146 C1147 1.370 . S
C1146 C1150 1.524 . S
C1147 C1139 1.503 . S
C1147 C1146 1.370 . S
C1147 C1148 1.403 . S
C1148 C1147 1.403 . S
C1148 C1149 1.404 . S
C1148 C1151 1.539 . S
C1149 C1145 1.408 . S
C1149 C1148 1.404 . S
C1149 H1161 0.930 . S
C1150 C1146 1.524 . S
C1150 H1162 0.956 . S
C1150 H1163 0.961 . S
C1150 H1164 0.961 . S
C1151 C1148 1.539 . S
C1151 H1165 0.958 . S
C1151 H1166 0.961 . S
C1151 H1167 0.960 . S
H1152 C1136 0.931 . S
H1153 C1141 0.929 . S
H1154 C1142 0.960 . S
H1155 C1142 0.962 . S
H1156 C1142 0.960 . S
H1157 C1143 0.961 . S
H1158 C1143 0.961 . S
H1159 C1143 0.961 . S
H1160 C1144 0.931 . S
H1161 C1149 0.930 . S
H1162 C1150 0.956 . S
H1163 C1150 0.961 . S
H1164 C1150 0.961 . S
H1165 C1151 0.958 . S
H1166 C1151 0.961 . S
H1167 C1151 0.960 . S
C1168 C1169 1.391 . S
C1168 C1170 1.394 . S
C1168 H1184 0.931 . S
C1169 C1168 1.391 . S
C1169 C1173 1.376 . S
C1170 C1168 1.394 . S
C1170 C1171 1.369 . S
C1170 C1174 1.531 . S
C1171 C1170 1.369 . S
C1171 C1172 1.410 . S
C1171 C1179 1.503 . S
C1172 C1171 1.410 . S
C1172 C1173 1.392 . S
C1172 C1175 1.511 . S
C1173 C1169 1.376 . S
C1173 C1172 1.392 . S
C1173 H1185 0.929 . S
C1174 C1170 1.531 . S
C1174 H1186 0.960 . S
C1174 H1187 0.962 . S
C1174 H1188 0.960 . S
C1175 C1172 1.511 . S
C1175 H1189 0.961 . S
C1175 H1190 0.961 . S
C1175 H1191 0.961 . S
C1176 C1177 1.370 . S
C1176 C1178 1.363 . S
C1176 H1192 0.931 . S
C1177 C1176 1.370 . S
C1177 C1181 1.408 . S
C1178 C1176 1.363 . S
C1178 C1179 1.370 . S
C1178 C1182 1.524 . S
C1179 C1171 1.503 . S
C1179 C1178 1.370 . S
C1179 C1180 1.403 . S
C1180 C1179 1.403 . S
C1180 C1181 1.404 . S
C1180 C1183 1.539 . S
C1181 C1177 1.408 . S
C1181 C1180 1.404 . S
C1181 H1193 0.930 . S
C1182 C1178 1.524 . S
C1182 H1194 0.956 . S
C1182 H1195 0.961 . S
C1182 H1196 0.961 . S
C1183 C1180 1.539 . S
C1183 H1197 0.958 . S
C1183 H1198 0.961 . S
C1183 H1199 0.960 . S
H1184 C1168 0.931 . S
H1185 C1173 0.929 . S
H1186 C1174 0.960 . S
H1187 C1174 0.962 . S
H1188 C1174 0.960 . S
H1189 C1175 0.961 . S
H1190 C1175 0.961 . S
H1191 C1175 0.961 . S
H1192 C1176 0.931 . S
H1193 C1181 0.930 . S
H1194 C1182 0.956 . S
H1195 C1182 0.961 . S
H1196 C1182 0.961 . S
H1197 C1183 0.958 . S
H1198 C1183 0.961 . S
H1199 C1183 0.960 . S
C1200 C1201 1.391 . S
C1200 C1202 1.394 . S
C1200 H1216 0.931 . S
C1201 C1200 1.391 . S
C1201 C1205 1.376 . S
C1202 C1200 1.394 . S
C1202 C1203 1.369 . S
C1202 C1206 1.531 . S
C1203 C1202 1.369 . S
C1203 C1204 1.410 . S
C1203 C1211 1.503 . S
C1204 C1203 1.410 . S
C1204 C1205 1.392 . S
C1204 C1207 1.511 . S
C1205 C1201 1.376 . S
C1205 C1204 1.392 . S
C1205 H1217 0.929 . S
C1206 C1202 1.531 . S
C1206 H1218 0.960 . S
C1206 H1219 0.962 . S
C1206 H1220 0.960 . S
C1207 C1204 1.511 . S
C1207 H1221 0.961 . S
C1207 H1222 0.961 . S
C1207 H1223 0.961 1_556 S
C1208 C1209 1.370 . S
C1208 C1210 1.363 . S
C1208 H1224 0.931 . S
C1209 C1208 1.370 . S
C1209 C1213 1.408 1_556 S
C1210 C1208 1.363 . S
C1210 C1211 1.370 . S
C1210 C1214 1.524 . S
C1211 C1203 1.503 . S
C1211 C1210 1.370 . S
C1211 C1212 1.403 . S
C1212 C1211 1.403 . S
C1212 C1213 1.404 1_556 S
C1212 C1215 1.539 1_556 S
C1213 C1209 1.408 1_554 S
C1213 C1212 1.404 1_554 S
C1213 H1225 0.930 . S
C1214 C1210 1.524 . S
C1214 H1226 0.956 . S
C1214 H1227 0.961 . S
C1214 H1228 0.961 . S
C1215 C1212 1.539 1_554 S
C1215 H1229 0.958 . S
C1215 H1230 0.961 . S
C1215 H1231 0.960 . S
H1216 C1200 0.931 . S
H1217 C1205 0.929 . S
H1218 C1206 0.960 . S
H1219 C1206 0.962 . S
H1220 C1206 0.960 . S
H1221 C1207 0.961 . S
H1222 C1207 0.961 . S
H1223 C1207 0.961 1_554 S
H1224 C1208 0.931 . S
H1225 C1213 0.930 . S
H1226 C1214 0.956 . S
H1227 C1214 0.961 . S
H1228 C1214 0.961 . S
H1229 C1215 0.958 . S
H1230 C1215 0.961 . S
H1231 C1215 0.960 . S
C1232 C1233 1.391 . S
C1232 C1234 1.394 . S
C1232 H1248 0.931 . S
C1233 C1232 1.391 . S
C1233 C1237 1.376 . S
C1234 C1232 1.394 . S
C1234 C1235 1.369 . S
C1234 C1238 1.531 . S
C1235 C1234 1.369 . S
C1235 C1236 1.410 . S
C1235 C1243 1.503 . S
C1236 C1235 1.410 . S
C1236 C1237 1.392 . S
C1236 C1239 1.511 . S
C1237 C1233 1.376 . S
C1237 C1236 1.392 . S
C1237 H1249 0.929 . S
C1238 C1234 1.531 . S
C1238 H1250 0.960 . S
C1238 H1251 0.962 . S
C1238 H1252 0.960 . S
C1239 C1236 1.511 . S
C1239 H1253 0.961 . S
C1239 H1254 0.961 . S
C1239 H1255 0.961 . S
C1240 C1241 1.370 . S
C1240 C1242 1.363 . S
C1240 H1256 0.931 . S
C1241 C1240 1.370 . S
C1241 C1245 1.408 . S
C1242 C1240 1.363 . S
C1242 C1243 1.370 . S
C1242 C1246 1.524 . S
C1243 C1235 1.503 . S
C1243 C1242 1.370 . S
C1243 C1244 1.403 . S
C1244 C1243 1.403 . S
C1244 C1245 1.404 . S
C1244 C1247 1.539 . S
C1245 C1241 1.408 . S
C1245 C1244 1.404 . S
C1245 H1257 0.930 . S
C1246 C1242 1.524 . S
C1246 H1258 0.956 . S
C1246 H1259 0.961 . S
C1246 H1260 0.961 . S
C1247 C1244 1.539 . S
C1247 H1261 0.958 . S
C1247 H1262 0.961 . S
C1247 H1263 0.960 . S
H1248 C1232 0.931 . S
H1249 C1237 0.929 . S
H1250 C1238 0.960 . S
H1251 C1238 0.962 . S
H1252 C1238 0.960 . S
H1253 C1239 0.961 . S
H1254 C1239 0.961 . S
H1255 C1239 0.961 . S
H1256 C1240 0.931 . S
H1257 C1245 0.930 . S
H1258 C1246 0.956 . S
H1259 C1246 0.961 . S
H1260 C1246 0.961 . S
H1261 C1247 0.958 . S
H1262 C1247 0.961 . S
H1263 C1247 0.960 . S
C1264 C1265 1.391 . S
C1264 C1266 1.394 . S
C1264 H1280 0.931 . S
C1265 C1264 1.391 . S
C1265 C1269 1.376 . S
C1266 C1264 1.394 . S
C1266 C1267 1.369 . S
C1266 C1270 1.531 . S
C1267 C1266 1.369 . S
C1267 C1268 1.410 . S
C1267 C1275 1.503 . S
C1268 C1267 1.410 . S
C1268 C1269 1.392 . S
C1268 C1271 1.511 . S
C1269 C1265 1.376 . S
C1269 C1268 1.392 . S
C1269 H1281 0.929 . S
C1270 C1266 1.531 . S
C1270 H1282 0.960 . S
C1270 H1283 0.962 . S
C1270 H1284 0.960 . S
C1271 C1268 1.511 . S
C1271 H1285 0.961 . S
C1271 H1286 0.961 . S
C1271 H1287 0.961 . S
C1272 C1273 1.370 . S
C1272 C1274 1.363 . S
C1272 H1288 0.931 . S
C1273 C1272 1.370 . S
C1273 C1277 1.408 . S
C1274 C1272 1.363 . S
C1274 C1275 1.370 . S
C1274 C1278 1.524 . S
C1275 C1267 1.503 . S
C1275 C1274 1.370 . S
C1275 C1276 1.403 . S
C1276 C1275 1.403 . S
C1276 C1277 1.404 . S
C1276 C1279 1.539 . S
C1277 C1273 1.408 . S
C1277 C1276 1.404 . S
C1277 H1289 0.930 . S
C1278 C1274 1.524 . S
C1278 H1290 0.956 . S
C1278 H1291 0.961 . S
C1278 H1292 0.961 . S
C1279 C1276 1.539 . S
C1279 H1293 0.958 . S
C1279 H1294 0.961 . S
C1279 H1295 0.960 . S
H1280 C1264 0.931 . S
H1281 C1269 0.929 . S
H1282 C1270 0.960 . S
H1283 C1270 0.962 . S
H1284 C1270 0.960 . S
H1285 C1271 0.961 . S
H1286 C1271 0.961 . S
H1287 C1271 0.961 . S
H1288 C1272 0.931 . S
H1289 C1277 0.930 . S
H1290 C1278 0.956 . S
H1291 C1278 0.961 . S
H1292 C1278 0.961 . S
H1293 C1279 0.958 . S
H1294 C1279 0.961 . S
H1295 C1279 0.960 . S
C1296 C1297 1.391 . S
C1296 C1298 1.394 . S
C1296 H1312 0.931 . S
C1297 C1296 1.391 . S
C1297 C1301 1.376 . S
C1298 C1296 1.394 . S
C1298 C1299 1.369 . S
C1298 C1302 1.531 . S
C1299 C1298 1.369 . S
C1299 C1300 1.410 . S
C1299 C1307 1.503 . S
C1300 C1299 1.410 . S
C1300 C1301 1.392 . S
C1300 C1303 1.488 1_455 S
C1301 C1297 1.376 . S
C1301 C1300 1.392 . S
C1301 H1313 0.929 . S
C1302 C1298 1.531 . S
C1302 H1314 0.960 . S
C1302 H1315 0.962 . S
C1302 H1316 0.960 . S
C1303 C1300 1.488 1_655 S
C1303 H1317 0.963 . S
C1303 H1318 0.961 . S
C1303 H1319 0.983 . S
C1304 C1305 1.370 . S
C1304 C1306 1.363 . S
C1304 H1320 0.931 . S
C1305 C1304 1.370 . S
C1305 C1309 1.408 . S
C1306 C1304 1.363 . S
C1306 C1307 1.370 . S
C1306 C1310 1.524 . S
C1307 C1299 1.503 . S
C1307 C1306 1.370 . S
C1307 C1308 1.403 . S
C1308 C1307 1.403 . S
C1308 C1309 1.404 . S
C1308 C1311 1.539 1_455 S
C1309 C1305 1.408 . S
C1309 C1308 1.404 . S
C1309 H1321 0.930 1_455 S
C1310 C1306 1.524 . S
C1310 H1322 0.956 . S
C1310 H1323 0.961 . S
C1310 H1324 0.961 . S
C1311 C1308 1.539 1_655 S
C1311 H1325 0.958 1_655 S
C1311 H1326 0.961 . S
C1311 H1327 0.960 . S
H1312 C1296 0.931 . S
H1313 C1301 0.929 . S
H1314 C1302 0.960 . S
H1315 C1302 0.962 . S
H1316 C1302 0.960 . S
H1317 C1303 0.963 . S
H1318 C1303 0.961 . S
H1319 C1303 0.983 . S
H1320 C1304 0.931 . S
H1321 C1309 0.930 1_655 S
H1322 C1310 0.956 . S
H1323 C1310 0.961 . S
H1324 C1310 0.961 . S
H1325 C1311 0.958 1_455 S
H1326 C1311 0.961 . S
H1327 C1311 0.960 . S
C1328 C1329 1.391 . S
C1328 C1330 1.394 . S
C1328 H1344 0.931 . S
C1329 C1328 1.391 . S
C1329 C1333 1.364 1_655 S
C1330 C1328 1.394 . S
C1330 C1331 1.369 . S
C1330 C1334 1.531 . S
C1331 C1330 1.369 . S
C1331 C1332 1.410 . S
C1331 C1339 1.503 . S
C1332 C1331 1.410 . S
C1332 C1333 1.386 1_655 S
C1332 C1335 1.511 1_655 S
C1333 C1329 1.364 1_455 S
C1333 C1332 1.386 1_455 S
C1333 H1345 0.948 . S
C1334 C1330 1.531 . S
C1334 H1346 0.960 . S
C1334 H1347 0.962 . S
C1334 H1348 0.960 . S
C1335 C1332 1.511 1_455 S
C1335 H1349 0.961 . S
C1335 H1350 0.961 1_455 S
C1335 H1351 0.961 . S
C1336 C1337 1.370 . S
C1336 C1338 1.363 . S
C1336 H1352 0.931 . S
C1337 C1336 1.370 . S
C1337 C1341 1.408 . S
C1338 C1336 1.363 . S
C1338 C1339 1.370 . S
C1338 C1342 1.524 . S
C1339 C1331 1.503 . S
C1339 C1338 1.370 . S
C1339 C1340 1.403 . S
C1340 C1339 1.403 . S
C1340 C1341 1.404 . S
C1340 C1343 1.539 . S
C1341 C1337 1.408 . S
C1341 C1340 1.404 . S
C1341 H1353 0.930 . S
C1342 C1338 1.524 . S
C1342 H1354 0.956 . S
C1342 H1355 0.961 . S
C1342 H1356 0.961 . S
C1343 C1340 1.539 . S
C1343 H1357 0.958 . S
C1343 H1358 0.955 1_655 S
C1343 H1359 0.960 1_655 S
H1344 C1328 0.931 . S
H1345 C1333 0.948 . S
H1346 C1334 0.960 . S
H1347 C1334 0.962 . S
H1348 C1334 0.960 . S
H1349 C1335 0.961 . S
H1350 C1335 0.961 1_655 S
H1351 C1335 0.961 . S
H1352 C1336 0.931 . S
H1353 C1341 0.930 . S
H1354 C1342 0.956 . S
H1355 C1342 0.961 . S
H1356 C1342 0.961 . S
H1357 C1343 0.958 . S
H1358 C1343 0.955 1_455 S
H1359 C1343 0.960 1_455 S
C1360 C1361 1.391 . S
C1360 C1362 1.394 . S
C1360 H1376 0.931 . S
C1361 C1360 1.391 . S
C1361 C1365 1.376 . S
C1362 C1360 1.394 . S
C1362 C1363 1.369 . S
C1362 C1366 1.531 . S
C1363 C1362 1.369 . S
C1363 C1364 1.410 . S
C1363 C1371 1.503 . S
C1364 C1363 1.410 . S
C1364 C1365 1.392 . S
C1364 C1367 1.511 . S
C1365 C1361 1.376 . S
C1365 C1364 1.392 . S
C1365 H1377 0.929 . S
C1366 C1362 1.531 . S
C1366 H1378 0.960 . S
C1366 H1379 0.962 . S
C1366 H1380 0.960 . S
C1367 C1364 1.511 . S
C1367 H1381 0.961 . S
C1367 H1382 0.961 . S
C1367 H1383 0.961 . S
C1368 C1369 1.370 . S
C1368 C1370 1.363 . S
C1368 H1384 0.931 . S
C1369 C1368 1.370 . S
C1369 C1373 1.408 . S
C1370 C1368 1.363 . S
C1370 C1371 1.370 . S
C1370 C1374 1.524 . S
C1371 C1363 1.503 . S
C1371 C1370 1.370 . S
C1371 C1372 1.403 . S
C1372 C1371 1.403 . S
C1372 C1373 1.404 . S
C1372 C1375 1.539 . S
C1373 C1369 1.408 . S
C1373 C1372 1.404 . S
C1373 H1385 0.930 . S
C1374 C1370 1.524 . S
C1374 H1386 0.956 . S
C1374 H1387 0.961 . S
C1374 H1388 0.961 . S
C1375 C1372 1.539 . S
C1375 H1389 0.958 . S
C1375 H1390 0.961 . S
C1375 H1391 0.960 . S
H1376 C1360 0.931 . S
H1377 C1365 0.929 . S
H1378 C1366 0.960 . S
H1379 C1366 0.962 . S
H1380 C1366 0.960 . S
H1381 C1367 0.961 . S
H1382 C1367 0.961 . S
H1383 C1367 0.961 . S
H1384 C1368 0.931 . S
H1385 C1373 0.930 . S
H1386 C1374 0.956 . S
H1387 C1374 0.961 . S
H1388 C1374 0.961 . S
H1389 C1375 0.958 . S
H1390 C1375 0.961 . S
H1391 C1375 0.960 . S
C1392 C1393 1.391 . S
C1392 C1394 1.394 . S
C1392 H1408 0.931 . S
C1393 C1392 1.391 . S
C1393 C1397 1.376 . S
C1394 C1392 1.394 . S
C1394 C1395 1.369 . S
C1394 C1398 1.531 . S
C1395 C1394 1.369 . S
C1395 C1396 1.410 . S
C1395 C1403 1.503 . S
C1396 C1395 1.410 . S
C1396 C1397 1.392 . S
C1396 C1399 1.511 . S
C1397 C1393 1.376 . S
C1397 C1396 1.392 . S
C1397 H1409 0.929 . S
C1398 C1394 1.531 . S
C1398 H1410 0.960 . S
C1398 H1411 0.962 . S
C1398 H1412 0.960 . S
C1399 C1396 1.511 . S
C1399 H1413 0.961 . S
C1399 H1414 0.961 . S
C1399 H1415 0.961 . S
C1400 C1401 1.370 . S
C1400 C1402 1.363 . S
C1400 H1416 0.931 . S
C1401 C1400 1.370 . S
C1401 C1405 1.408 . S
C1402 C1400 1.363 . S
C1402 C1403 1.370 . S
C1402 C1406 1.524 . S
C1403 C1395 1.503 . S
C1403 C1402 1.370 . S
C1403 C1404 1.403 . S
C1404 C1403 1.403 . S
C1404 C1405 1.404 . S
C1404 C1407 1.539 . S
C1405 C1401 1.408 . S
C1405 C1404 1.404 . S
C1405 H1417 0.930 . S
C1406 C1402 1.524 . S
C1406 H1418 0.956 . S
C1406 H1419 0.961 . S
C1406 H1420 0.961 . S
C1407 C1404 1.539 . S
C1407 H1421 0.958 . S
C1407 H1422 0.961 . S
C1407 H1423 0.960 . S
H1408 C1392 0.931 . S
H1409 C1397 0.929 . S
H1410 C1398 0.960 . S
H1411 C1398 0.962 . S
H1412 C1398 0.960 . S
H1413 C1399 0.961 . S
H1414 C1399 0.961 . S
H1415 C1399 0.961 . S
H1416 C1400 0.931 . S
H1417 C1405 0.930 . S
H1418 C1406 0.956 . S
H1419 C1406 0.961 . S
H1420 C1406 0.961 . S
H1421 C1407 0.958 . S
H1422 C1407 0.961 . S
H1423 C1407 0.960 . S
C1424 C1425 1.391 . S
C1424 C1426 1.394 . S
C1424 H1440 0.931 . S
C1425 C1424 1.391 . S
C1425 C1429 1.376 . S
C1426 C1424 1.394 . S
C1426 C1427 1.369 . S
C1426 C1430 1.531 . S
C1427 C1426 1.369 . S
C1427 C1428 1.410 . S
C1427 C1435 1.503 . S
C1428 C1427 1.410 . S
C1428 C1429 1.392 . S
C1428 C1431 1.511 . S
C1429 C1425 1.376 . S
C1429 C1428 1.392 . S
C1429 H1441 0.929 . S
C1430 C1426 1.531 . S
C1430 H1442 0.960 . S
C1430 H1443 0.962 . S
C1430 H1444 0.960 . S
C1431 C1428 1.511 . S
C1431 H1445 0.961 . S
C1431 H1446 0.961 . S
C1431 H1447 0.961 . S
C1432 C1433 1.370 . S
C1432 C1434 1.363 . S
C1432 H1448 0.931 . S
C1433 C1432 1.370 . S
C1433 C1437 1.408 . S
C1434 C1432 1.363 . S
C1434 C1435 1.370 . S
C1434 C1438 1.524 . S
C1435 C1427 1.503 . S
C1435 C1434 1.370 . S
C1435 C1436 1.403 . S
C1436 C1435 1.403 . S
C1436 C1437 1.404 . S
C1436 C1439 1.519 1_565 S
C1437 C1433 1.408 . S
C1437 C1436 1.404 . S
C1437 H1449 0.939 . S
C1438 C1434 1.524 . S
C1438 H1450 0.956 . S
C1438 H1451 0.961 . S
C1438 H1452 0.961 . S
C1439 C1436 1.519 1_545 S
C1439 H1453 0.981 . S
C1439 H1454 0.974 . S
C1439 H1455 0.946 1_545 S
H1440 C1424 0.931 . S
H1441 C1429 0.929 . S
H1442 C1430 0.960 . S
H1443 C1430 0.962 . S
H1444 C1430 0.960 . S
H1445 C1431 0.961 . S
H1446 C1431 0.961 . S
H1447 C1431 0.961 . S
H1448 C1432 0.931 . S
H1449 C1437 0.939 . S
H1450 C1438 0.956 . S
H1451 C1438 0.961 . S
H1452 C1438 0.961 . S
H1453 C1439 0.981 . S
H1454 C1439 0.974 . S
H1455 C1439 0.946 1_565 S
C1456 C1457 1.391 . S
C1456 C1458 1.394 . S
C1456 H1472 0.931 . S
C1457 C1456 1.391 . S
C1457 C1461 1.376 . S
C1458 C1456 1.394 . S
C1458 C1459 1.369 . S
C1458 C1462 1.531 . S
C1459 C1458 1.369 . S
C1459 C1460 1.410 . S
C1459 C1467 1.503 . S
C1460 C1459 1.410 . S
C1460 C1461 1.392 . S
C1460 C1463 1.511 . S
C1461 C1457 1.376 . S
C1461 C1460 1.392 . S
C1461 H1473 0.929 . S
C1462 C1458 1.531 . S
C1462 H1474 0.960 . S
C1462 H1475 0.962 . S
C1462 H1476 0.960 . S
C1463 C1460 1.511 . S
C1463 H1477 0.961 . S
C1463 H1478 0.961 . S
C1463 H1479 0.961 . S
C1464 C1465 1.370 . S
C1464 C1466 1.363 . S
C1464 H1480 0.931 . S
C1465 C1464 1.370 . S
C1465 C1469 1.408 . S
C1466 C1464 1.363 . S
C1466 C1467 1.370 . S
C1466 C1470 1.524 . S
C1467 C1459 1.503 . S
C1467 C1466 1.370 . S
C1467 C1468 1.403 . S
C1468 C1467 1.403 . S
C1468 C1469 1.404 . S
C1468 C1471 1.539 . S
C1469 C1465 1.408 . S
C1469 C1468 1.404 . S
C1469 H1481 0.930 . S
C1470 C1466 1.524 . S
C1470 H1482 0.956 . S
C1470 H1483 0.961 . S
C1470 H1484 0.961 . S
C1471 C1468 1.539 . S
C1471 H1485 0.958 . S
C1471 H1486 0.961 . S
C1471 H1487 0.960 . S
H1472 C1456 0.931 . S
H1473 C1461 0.929 . S
H1474 C1462 0.960 . S
H1475 C1462 0.962 . S
H1476 C1462 0.960 . S
H1477 C1463 0.961 . S
H1478 C1463 0.961 . S
H1479 C1463 0.961 . S
H1480 C1464 0.931 . S
H1481 C1469 0.930 . S
H1482 C1470 0.956 . S
H1483 C1470 0.961 . S
H1484 C1470 0.961 . S
H1485 C1471 0.958 . S
H1486 C1471 0.961 . S
H1487 C1471 0.960 . S
C1488 C1489 1.391 . S
C1488 C1490 1.394 . S
C1488 H1504 0.931 . S
C1489 C1488 1.391 . S
C1489 C1493 1.376 . S
C1490 C1488 1.394 . S
C1490 C1491 1.369 . S
C1490 C1494 1.531 . S
C1491 C1490 1.369 . S
C1491 C1492 1.410 . S
C1491 C1499 1.503 1_554 S
C1492 C1491 1.410 . S
C1492 C1493 1.392 . S
C1492 C1495 1.511 . S
C1493 C1489 1.376 . S
C1493 C1492 1.392 . S
C1493 H1505 0.929 . S
C1494 C1490 1.531 . S
C1494 H1506 0.960 . S
C1494 H1507 0.962 . S
C1494 H1508 0.960 . S
C1495 C1492 1.511 . S
C1495 H1509 0.961 . S
C1495 H1510 0.961 1_554 S
C1495 H1511 0.961 . S
C1496 C1497 1.370 . S
C1496 C1498 1.363 . S
C1496 H1512 0.931 . S
C1497 C1496 1.370 . S
C1497 C1501 1.408 . S
C1498 C1496 1.363 . S
C1498 C1499 1.370 . S
C1498 C1502 1.525 . S
C1499 C1491 1.503 1_556 S
C1499 C1498 1.370 . S
C1499 C1500 1.403 . S
C1500 C1499 1.403 . S
C1500 C1501 1.404 . S
C1500 C1503 1.539 1_545 S
C1501 C1497 1.408 . S
C1501 C1500 1.404 . S
C1501 H1513 0.930 1_545 S
C1502 C1498 1.525 . S
C1502 H1514 0.955 1_556 S
C1502 H1515 0.960 1_556 S
C1502 H1516 0.962 . S
C1503 C1500 1.539 1_565 S
C1503 H1517 0.958 1_556 S
C1503 H1518 0.961 . S
C1503 H1519 0.960 1_566 S
H1504 C1488 0.931 . S
H1505 C1493 0.929 . S
H1506 C1494 0.960 . S
H1507 C1494 0.962 . S
H1508 C1494 0.960 . S
H1509 C1495 0.961 . S
H1510 C1495 0.961 1_556 S
H1511 C1495 0.961 . S
H1512 C1496 0.931 . S
H1513 C1501 0.930 1_565 S
H1514 C1502 0.955 1_554 S
H1515 C1502 0.960 1_554 S
H1516 C1502 0.962 . S
H1517 C1503 0.958 1_554 S
H1518 C1503 0.961 . S
H1519 C1503 0.960 1_544 S
C1520 C1521 1.391 . S
C1520 C1522 1.394 . S
C1520 H1536 0.931 . S
C1521 C1520 1.391 . S
C1521 C1525 1.376 . S
C1522 C1520 1.394 . S
C1522 C1523 1.369 . S
C1522 C1526 1.531 . S
C1523 C1522 1.369 . S
C1523 C1524 1.410 . S
C1523 C1531 1.503 . S
C1524 C1523 1.410 . S
C1524 C1525 1.392 . S
C1524 C1527 1.511 . S
C1525 C1521 1.376 . S
C1525 C1524 1.392 . S
C1525 H1537 0.929 . S
C1526 C1522 1.531 . S
C1526 H1538 0.960 . S
C1526 H1539 0.962 . S
C1526 H1540 0.960 . S
C1527 C1524 1.511 . S
C1527 H1541 0.961 . S
C1527 H1542 0.961 . S
C1527 H1543 0.961 . S
C1528 C1529 1.370 . S
C1528 C1530 1.363 . S
C1528 H1544 0.931 . S
C1529 C1528 1.370 . S
C1529 C1533 1.408 . S
C1530 C1528 1.363 . S
C1530 C1531 1.370 . S
C1530 C1534 1.524 . S
C1531 C1523 1.503 . S
C1531 C1530 1.370 . S
C1531 C1532 1.403 . S
C1532 C1531 1.403 . S
C1532 C1533 1.404 . S
C1532 C1535 1.539 . S
C1533 C1529 1.408 . S
C1533 C1532 1.404 . S
C1533 H1545 0.930 . S
C1534 C1530 1.524 . S
C1534 H1546 0.956 . S
C1534 H1547 0.961 . S
C1534 H1548 0.961 . S
C1535 C1532 1.539 . S
C1535 H1549 0.958 . S
C1535 H1550 0.961 . S
C1535 H1551 0.960 . S
H1536 C1520 0.931 . S
H1537 C1525 0.929 . S
H1538 C1526 0.960 . S
H1539 C1526 0.962 . S
H1540 C1526 0.960 . S
H1541 C1527 0.961 . S
H1542 C1527 0.961 . S
H1543 C1527 0.961 . S
H1544 C1528 0.931 . S
H1545 C1533 0.930 . S
H1546 C1534 0.956 . S
H1547 C1534 0.961 . S
H1548 C1534 0.961 . S
H1549 C1535 0.958 . S
H1550 C1535 0.961 . S
H1551 C1535 0.960 . S
C1552 C1553 1.391 . S
C1552 C1554 1.394 . S
C1552 H1568 0.931 . S
C1553 C1552 1.391 . S
C1553 C1557 1.376 . S
C1554 C1552 1.394 . S
C1554 C1555 1.357 1_554 S
C1554 C1558 1.531 . S
C1555 C1554 1.357 1_556 S
C1555 C1556 1.407 1_556 S
C1555 C1563 1.518 . S
C1556 C1555 1.407 1_554 S
C1556 C1557 1.392 . S
C1556 C1559 1.511 1_554 S
C1557 C1553 1.376 . S
C1557 C1556 1.392 . S
C1557 H1569 0.929 . S
C1558 C1554 1.531 . S
C1558 H1570 0.960 . S
C1558 H1571 0.962 . S
C1558 H1572 0.960 . S
C1559 C1556 1.511 1_556 S
C1559 H1573 0.961 . S
C1559 H1574 0.961 . S
C1559 H1575 0.961 . S
C1560 C1561 1.370 . S
C1560 C1562 1.363 . S
C1560 H1576 0.931 . S
C1561 C1560 1.370 . S
C1561 C1565 1.408 . S
C1562 C1560 1.363 . S
C1562 C1563 1.370 . S
C1562 C1566 1.524 . S
C1563 C1555 1.518 . S
C1563 C1562 1.370 . S
C1563 C1564 1.403 . S
C1564 C1563 1.403 . S
C1564 C1565 1.404 . S
C1564 C1567 1.539 . S
C1565 C1561 1.408 . S
C1565 C1564 1.404 . S
C1565 H1577 0.930 . S
C1566 C1562 1.524 . S
C1566 H1578 0.956 . S
C1566 H1579 0.961 . S
C1566 H1580 0.961 . S
C1567 C1564 1.539 . S
C1567 H1581 0.958 . S
C1567 H1582 0.961 . S
C1567 H1583 0.960 . S
H1568 C1552 0.931 . S
H1569 C1557 0.929 . S
H1570 C1558 0.960 . S
H1571 C1558 0.962 . S
H1572 C1558 0.960 . S
H1573 C1559 0.961 . S
H1574 C1559 0.961 . S
H1575 C1559 0.961 . S
H1576 C1560 0.931 . S
H1577 C1565 0.930 . S
H1578 C1566 0.956 . S
H1579 C1566 0.961 . S
H1580 C1566 0.961 . S
H1581 C1567 0.958 . S
H1582 C1567 0.961 . S
H1583 C1567 0.960 . S
C1584 C1585 1.391 . S
C1584 C1586 1.394 . S
C1584 H1600 0.931 . S
C1585 C1584 1.391 . S
C1585 C1589 1.376 . S
C1586 C1584 1.394 . S
C1586 C1587 1.369 . S
C1586 C1590 1.531 . S
C1587 C1586 1.369 . S
C1587 C1588 1.410 . S
C1587 C1595 1.503 . S
C1588 C1587 1.410 . S
C1588 C1589 1.392 . S
C1588 C1591 1.511 . S
C1589 C1585 1.376 . S
C1589 C1588 1.392 . S
C1589 H1601 0.929 . S
C1590 C1586 1.531 . S
C1590 H1602 0.960 . S
C1590 H1603 0.962 . S
C1590 H1604 0.960 . S
C1591 C1588 1.511 . S
C1591 H1605 0.961 . S
C1591 H1606 0.961 . S
C1591 H1607 0.961 . S
C1592 C1593 1.370 . S
C1592 C1594 1.363 . S
C1592 H1608 0.931 . S
C1593 C1592 1.370 . S
C1593 C1597 1.408 . S
C1594 C1592 1.363 . S
C1594 C1595 1.370 . S
C1594 C1598 1.524 . S
C1595 C1587 1.503 . S
C1595 C1594 1.370 . S
C1595 C1596 1.403 . S
C1596 C1595 1.403 . S
C1596 C1597 1.404 . S
C1596 C1599 1.539 . S
C1597 C1593 1.408 . S
C1597 C1596 1.404 . S
C1597 H1609 0.930 . S
C1598 C1594 1.524 . S
C1598 H1610 0.956 . S
C1598 H1611 0.961 . S
C1598 H1612 0.961 . S
C1599 C1596 1.539 . S
C1599 H1613 0.958 . S
C1599 H1614 0.961 . S
C1599 H1615 0.960 . S
H1600 C1584 0.931 . S
H1601 C1589 0.929 . S
H1602 C1590 0.960 . S
H1603 C1590 0.962 . S
H1604 C1590 0.960 . S
H1605 C1591 0.961 . S
H1606 C1591 0.961 . S
H1607 C1591 0.961 . S
H1608 C1592 0.931 . S
H1609 C1597 0.930 . S
H1610 C1598 0.956 . S
H1611 C1598 0.961 . S
H1612 C1598 0.961 . S
H1613 C1599 0.958 . S
H1614 C1599 0.961 . S
H1615 C1599 0.960 . S
C1616 C1617 1.391 . S
C1616 C1618 1.394 . S
C1616 H1632 0.931 . S
C1617 C1616 1.391 . S
C1617 C1621 1.376 . S
C1618 C1616 1.394 . S
C1618 C1619 1.369 . S
C1618 C1622 1.531 . S
C1619 C1618 1.369 . S
C1619 C1620 1.410 . S
C1619 C1627 1.503 . S
C1620 C1619 1.410 . S
C1620 C1621 1.392 . S
C1620 C1623 1.511 . S
C1621 C1617 1.376 . S
C1621 C1620 1.392 . S
C1621 H1633 0.929 . S
C1622 C1618 1.531 . S
C1622 H1634 0.960 . S
C1622 H1635 0.962 . S
C1622 H1636 0.960 . S
C1623 C1620 1.511 . S
C1623 H1637 0.961 . S
C1623 H1638 0.961 . S
C1623 H1639 0.961 . S
C1624 C1625 1.370 . S
C1624 C1626 1.363 . S
C1624 H1640 0.931 . S
C1625 C1624 1.370 . S
C1625 C1629 1.408 . S
C1626 C1624 1.363 . S
C1626 C1627 1.370 . S
C1626 C1630 1.524 . S
C1627 C1619 1.503 . S
C1627 C1626 1.370 . S
C1627 C1628 1.403 . S
C1628 C1627 1.403 . S
C1628 C1629 1.404 . S
C1628 C1631 1.539 . S
C1629 C1625 1.408 . S
C1629 C1628 1.404 . S
C1629 H1641 0.930 . S
C1630 C1626 1.524 . S
C1630 H1642 0.956 . S
C1630 H1643 0.961 . S
C1630 H1644 0.961 . S
C1631 C1628 1.539 . S
C1631 H1645 0.958 . S
C1631 H1646 0.961 . S
C1631 H1647 0.960 . S
H1632 C1616 0.931 . S
H1633 C1621 0.929 . S
H1634 C1622 0.960 . S
H1635 C1622 0.962 . S
H1636 C1622 0.960 . S
H1637 C1623 0.961 . S
H1638 C1623 0.961 . S
H1639 C1623 0.961 . S
H1640 C1624 0.931 . S
H1641 C1629 0.930 . S
H1642 C1630 0.956 . S
H1643 C1630 0.961 . S
H1644 C1630 0.961 . S
H1645 C1631 0.958 . S
H1646 C1631 0.961 . S
H1647 C1631 0.960 . S
C1648 C1649 1.391 . S
C1648 C1650 1.394 . S
C1648 H1664 0.931 . S
C1649 C1648 1.391 . S
C1649 C1653 1.376 . S
C1650 C1648 1.394 . S
C1650 C1651 1.369 . S
C1650 C1654 1.531 . S
C1651 C1650 1.369 . S
C1651 C1652 1.410 . S
C1651 C1659 1.503 . S
C1652 C1651 1.410 . S
C1652 C1653 1.392 . S
C1652 C1655 1.511 . S
C1653 C1649 1.376 . S
C1653 C1652 1.392 . S
C1653 H1665 0.929 . S
C1654 C1650 1.531 . S
C1654 H1666 0.960 . S
C1654 H1667 0.962 . S
C1654 H1668 0.960 . S
C1655 C1652 1.511 . S
C1655 H1669 0.961 . S
C1655 H1670 0.961 . S
C1655 H1671 0.961 . S
C1656 C1657 1.370 . S
C1656 C1658 1.363 . S
C1656 H1672 0.931 . S
C1657 C1656 1.370 . S
C1657 C1661 1.408 . S
C1658 C1656 1.363 . S
C1658 C1659 1.370 . S
C1658 C1662 1.524 . S
C1659 C1651 1.503 . S
C1659 C1658 1.370 . S
C1659 C1660 1.403 . S
C1660 C1659 1.403 . S
C1660 C1661 1.404 . S
C1660 C1663 1.539 . S
C1661 C1657 1.408 . S
C1661 C1660 1.404 . S
C1661 H1673 0.930 . S
C1662 C1658 1.524 . S
C1662 H1674 0.956 . S
C1662 H1675 0.961 . S
C1662 H1676 0.961 . S
C1663 C1660 1.539 . S
C1663 H1677 0.958 . S
C1663 H1678 0.961 . S
C1663 H1679 0.960 . S
H1664 C1648 0.931 . S
H1665 C1653 0.929 . S
H1666 C1654 0.960 . S
H1667 C1654 0.962 . S
H1668 C1654 0.960 . S
H1669 C1655 0.961 . S
H1670 C1655 0.961 . S
H1671 C1655 0.961 . S
H1672 C1656 0.931 . S
H1673 C1661 0.930 . S
H1674 C1662 0.956 . S
H1675 C1662 0.961 . S
H1676 C1662 0.961 . S
H1677 C1663 0.958 . S
H1678 C1663 0.961 . S
H1679 C1663 0.960 . S
C1680 C1681 1.391 . S
C1680 C1682 1.394 . S
C1680 H1696 0.931 . S
C1681 C1680 1.391 . S
C1681 C1685 1.376 . S
C1682 C1680 1.394 . S
C1682 C1683 1.369 . S
C1682 C1686 1.531 . S
C1683 C1682 1.369 . S
C1683 C1684 1.410 . S
C1683 C1691 1.503 1_545 S
C1684 C1683 1.410 . S
C1684 C1685 1.392 . S
C1684 C1687 1.511 . S
C1685 C1681 1.376 . S
C1685 C1684 1.392 . S
C1685 H1697 0.929 . S
C1686 C1682 1.531 . S
C1686 H1698 0.960 1_545 S
C1686 H1699 0.962 . S
C1686 H1700 0.960 . S
C1687 C1684 1.511 . S
C1687 H1701 0.961 . S
C1687 H1702 0.961 . S
C1687 H1703 0.961 . S
C1688 C1689 1.370 . S
C1688 C1690 1.363 . S
C1688 H1704 0.931 . S
C1689 C1688 1.370 . S
C1689 C1693 1.408 . S
C1690 C1688 1.363 . S
C1690 C1691 1.370 . S
C1690 C1694 1.524 1_565 S
C1691 C1683 1.503 1_565 S
C1691 C1690 1.370 . S
C1691 C1692 1.403 . S
C1692 C1691 1.403 . S
C1692 C1693 1.404 . S
C1692 C1695 1.539 . S
C1693 C1689 1.408 . S
C1693 C1692 1.404 . S
C1693 H1705 0.930 . S
C1694 C1690 1.524 1_545 S
C1694 H1706 0.956 . S
C1694 H1707 0.961 . S
C1694 H1708 0.961 1_455 S
C1695 C1692 1.539 . S
C1695 H1709 0.958 . S
C1695 H1710 0.961 . S
C1695 H1711 0.960 . S
H1696 C1680 0.931 . S
H1697 C1685 0.929 . S
H1698 C1686 0.960 1_565 S
H1699 C1686 0.962 . S
H1700 C1686 0.960 . S
H1701 C1687 0.961 . S
H1702 C1687 0.961 . S
H1703 C1687 0.961 . S
H1704 C1688 0.931 . S
H1705 C1693 0.930 . S
H1706 C1694 0.956 . S
H1707 C1694 0.961 . S
H1708 C1694 0.961 1_655 S
H1709 C1695 0.958 . S
H1710 C1695 0.961 . S
H1711 C1695 0.960 . S
C1712 C1713 1.391 . S
C1712 C1714 1.394 . S
C1712 H1728 0.931 . S
C1713 C1712 1.391 . S
C1713 C1717 1.376 . S
C1714 C1712 1.394 . S
C1714 C1715 1.369 . S
C1714 C1718 1.531 . S
C1715 C1714 1.369 . S
C1715 C1716 1.410 . S
C1715 C1723 1.503 . S
C1716 C1715 1.410 . S
C1716 C1717 1.392 . S
C1716 C1719 1.511 . S
C1717 C1713 1.376 . S
C1717 C1716 1.392 . S
C1717 H1729 0.929 . S
C1718 C1714 1.531 . S
C1718 H1730 0.960 . S
C1718 H1731 0.962 . S
C1718 H1732 0.960 . S
C1719 C1716 1.511 . S
C1719 H1733 0.961 . S
C1719 H1734 0.961 . S
C1719 H1735 0.961 . S
C1720 C1721 1.370 . S
C1720 C1722 1.363 . S
C1720 H1736 0.931 . S
C1721 C1720 1.370 . S
C1721 C1725 1.408 . S
C1722 C1720 1.363 . S
C1722 C1723 1.370 . S
C1722 C1726 1.524 . S
C1723 C1715 1.503 . S
C1723 C1722 1.370 . S
C1723 C1724 1.403 . S
C1724 C1723 1.403 . S
C1724 C1725 1.404 . S
C1724 C1727 1.539 . S
C1725 C1721 1.408 . S
C1725 C1724 1.404 . S
C1725 H1737 0.930 . S
C1726 C1722 1.524 . S
C1726 H1738 0.956 . S
C1726 H1739 0.961 . S
C1726 H1740 0.961 . S
C1727 C1724 1.539 . S
C1727 H1741 0.958 . S
C1727 H1742 0.961 . S
C1727 H1743 0.960 . S
H1728 C1712 0.931 . S
H1729 C1717 0.929 . S
H1730 C1718 0.960 . S
H1731 C1718 0.962 . S
H1732 C1718 0.960 . S
H1733 C1719 0.961 . S
H1734 C1719 0.961 . S
H1735 C1719 0.961 . S
H1736 C1720 0.931 . S
H1737 C1725 0.930 . S
H1738 C1726 0.956 . S
H1739 C1726 0.961 . S
H1740 C1726 0.961 . S
H1741 C1727 0.958 . S
H1742 C1727 0.961 . S
H1743 C1727 0.960 . S
C1744 C1745 1.391 . S
C1744 C1746 1.394 . S
C1744 H1760 0.931 . S
C1745 C1744 1.391 . S
C1745 C1749 1.376 . S
C1746 C1744 1.394 . S
C1746 C1747 1.369 . S
C1746 C1750 1.531 1_545 S
C1747 C1746 1.369 . S
C1747 C1748 1.410 . S
C1747 C1755 1.503 1_545 S
C1748 C1747 1.410 . S
C1748 C1749 1.392 . S
C1748 C1751 1.511 . S
C1749 C1745 1.376 . S
C1749 C1748 1.392 . S
C1749 H1761 0.929 . S
C1750 C1746 1.531 1_565 S
C1750 H1762 0.960 . S
C1750 H1763 0.962 . S
C1750 H1764 0.960 . S
C1751 C1748 1.511 . S
C1751 H1765 0.961 . S
C1751 H1766 0.961 1_545 S
C1751 H1767 0.961 . S
C1752 C1753 1.370 . S
C1752 C1754 1.363 . S
C1752 H1768 0.931 . S
C1753 C1752 1.370 . S
C1753 C1757 1.408 . S
C1754 C1752 1.363 . S
C1754 C1755 1.370 . S
C1754 C1758 1.524 . S
C1755 C1747 1.503 1_565 S
C1755 C1754 1.370 . S
C1755 C1756 1.403 . S
C1756 C1755 1.403 . S
C1756 C1757 1.404 . S
C1756 C1759 1.539 . S
C1757 C1753 1.408 . S
C1757 C1756 1.404 . S
C1757 H1769 0.930 . S
C1758 C1754 1.524 . S
C1758 H1770 0.956 . S
C1758 H1771 0.961 . S
C1758 H1772 0.961 . S
C1759 C1756 1.539 . S
C1759 H1773 0.958 . S
C1759 H1774 0.961 . S
C1759 H1775 0.960 1_565 S
H1760 C1744 0.931 . S
H1761 C1749 0.929 . S
H1762 C1750 0.960 . S
H1763 C1750 0.962 . S
H1764 C1750 0.960 . S
H1765 C1751 0.961 . S
H1766 C1751 0.961 1_565 S
H1767 C1751 0.961 . S
H1768 C1752 0.931 . S
H1769 C1757 0.930 . S
H1770 C1758 0.956 . S
H1771 C1758 0.961 . S
H1772 C1758 0.961 . S
H1773 C1759 0.958 . S
H1774 C1759 0.961 . S
H1775 C1759 0.960 1_545 S
C1776 C1777 1.391 . S
C1776 C1778 1.394 . S
C1776 H1792 0.931 . S
C1777 C1776 1.391 . S
C1777 C1781 1.376 . S
C1778 C1776 1.394 . S
C1778 C1779 1.369 . S
C1778 C1782 1.531 . S
C1779 C1778 1.369 . S
C1779 C1780 1.410 . S
C1779 C1787 1.503 . S
C1780 C1779 1.410 . S
C1780 C1781 1.392 . S
C1780 C1783 1.511 . S
C1781 C1777 1.376 . S
C1781 C1780 1.392 . S
C1781 H1793 0.929 . S
C1782 C1778 1.531 . S
C1782 H1794 0.960 . S
C1782 H1795 0.962 . S
C1782 H1796 0.960 . S
C1783 C1780 1.511 . S
C1783 H1797 0.961 . S
C1783 H1798 0.961 . S
C1783 H1799 0.961 . S
C1784 C1785 1.370 . S
C1784 C1786 1.363 . S
C1784 H1800 0.931 . S
C1785 C1784 1.370 . S
C1785 C1789 1.408 . S
C1786 C1784 1.363 . S
C1786 C1787 1.370 . S
C1786 C1790 1.524 . S
C1787 C1779 1.503 . S
C1787 C1786 1.370 . S
C1787 C1788 1.403 . S
C1788 C1787 1.403 . S
C1788 C1789 1.404 . S
C1788 C1791 1.539 . S
C1789 C1785 1.408 . S
C1789 C1788 1.404 . S
C1789 H1801 0.930 . S
C1790 C1786 1.524 . S
C1790 H1802 0.956 . S
C1790 H1803 0.961 . S
C1790 H1804 0.961 . S
C1791 C1788 1.539 . S
C1791 H1805 0.958 . S
C1791 H1806 0.961 . S
C1791 H1807 0.960 . S
H1792 C1776 0.931 . S
H1793 C1781 0.929 . S
H1794 C1782 0.960 . S
H1795 C1782 0.962 . S
H1796 C1782 0.960 . S
H1797 C1783 0.961 . S
H1798 C1783 0.961 . S
H1799 C1783 0.961 . S
H1800 C1784 0.931 . S
H1801 C1789 0.930 . S
H1802 C1790 0.956 . S
H1803 C1790 0.961 . S
H1804 C1790 0.961 . S
H1805 C1791 0.958 . S
H1806 C1791 0.961 . S
H1807 C1791 0.960 . S
C1808 C1809 1.391 . S
C1808 C1810 1.394 . S
C1808 H1824 0.931 . S
C1809 C1808 1.391 . S
C1809 C1813 1.376 . S
C1810 C1808 1.394 . S
C1810 C1811 1.369 . S
C1810 C1814 1.531 . S
C1811 C1810 1.369 . S
C1811 C1812 1.410 . S
C1811 C1819 1.503 . S
C1812 C1811 1.410 . S
C1812 C1813 1.392 . S
C1812 C1815 1.511 . S
C1813 C1809 1.376 . S
C1813 C1812 1.392 . S
C1813 H1825 0.929 . S
C1814 C1810 1.531 . S
C1814 H1826 0.960 . S
C1814 H1827 0.962 . S
C1814 H1828 0.960 . S
C1815 C1812 1.511 . S
C1815 H1829 0.961 1_655 S
C1815 H1830 0.961 . S
C1815 H1831 0.961 1_655 S
C1816 C1817 1.370 . S
C1816 C1818 1.363 . S
C1816 H1832 0.931 . S
C1817 C1816 1.370 . S
C1817 C1821 1.408 . S
C1818 C1816 1.363 . S
C1818 C1819 1.370 . S
C1818 C1822 1.524 . S
C1819 C1811 1.503 . S
C1819 C1818 1.370 . S
C1819 C1820 1.403 . S
C1820 C1819 1.403 . S
C1820 C1821 1.404 . S
C1820 C1823 1.539 . S
C1821 C1817 1.408 . S
C1821 C1820 1.404 . S
C1821 H1833 0.930 . S
C1822 C1818 1.524 . S
C1822 H1834 0.956 . S
C1822 H1835 0.961 . S
C1822 H1836 0.961 . S
C1823 C1820 1.539 . S
C1823 H1837 0.958 . S
C1823 H1838 0.961 . S
C1823 H1839 0.960 . S
H1824 C1808 0.931 . S
H1825 C1813 0.929 . S
H1826 C1814 0.960 . S
H1827 C1814 0.962 . S
H1828 C1814 0.960 . S
H1829 C1815 0.961 1_455 S
H1830 C1815 0.961 . S
H1831 C1815 0.961 1_455 S
H1832 C1816 0.931 . S
H1833 C1821 0.930 . S
H1834 C1822 0.956 . S
H1835 C1822 0.961 . S
H1836 C1822 0.961 . S
H1837 C1823 0.958 . S
H1838 C1823 0.961 . S
H1839 C1823 0.960 . S
C1840 C1841 1.391 . S
C1840 C1842 1.394 . S
C1840 H1856 0.931 . S
C1841 C1840 1.391 . S
C1841 C1845 1.376 . S
C1842 C1840 1.394 . S
C1842 C1843 1.369 . S
C1842 C1846 1.531 . S
C1843 C1842 1.369 . S
C1843 C1844 1.410 . S
C1843 C1851 1.503 . S
C1844 C1843 1.410 . S
C1844 C1845 1.392 . S
C1844 C1847 1.511 . S
C1845 C1841 1.376 . S
C1845 C1844 1.392 . S
C1845 H1857 0.929 . S
C1846 C1842 1.531 . S
C1846 H1858 0.960 . S
C1846 H1859 0.962 . S
C1846 H1860 0.960 . S
C1847 C1844 1.511 . S
C1847 H1861 0.961 . S
C1847 H1862 0.961 . S
C1847 H1863 0.961 . S
C1848 C1849 1.370 . S
C1848 C1850 1.363 . S
C1848 H1864 0.931 . S
C1849 C1848 1.370 . S
C1849 C1853 1.408 . S
C1850 C1848 1.363 . S
C1850 C1851 1.370 . S
C1850 C1854 1.524 . S
C1851 C1843 1.503 . S
C1851 C1850 1.370 . S
C1851 C1852 1.403 . S
C1852 C1851 1.403 . S
C1852 C1853 1.404 . S
C1852 C1855 1.539 . S
C1853 C1849 1.408 . S
C1853 C1852 1.404 . S
C1853 H1865 0.930 . S
C1854 C1850 1.524 . S
C1854 H1866 0.956 . S
C1854 H1867 0.961 . S
C1854 H1868 0.961 . S
C1855 C1852 1.539 . S
C1855 H1869 0.958 . S
C1855 H1870 0.961 . S
C1855 H1871 0.960 . S
H1856 C1840 0.931 . S
H1857 C1845 0.929 . S
H1858 C1846 0.960 . S
H1859 C1846 0.962 . S
H1860 C1846 0.960 . S
H1861 C1847 0.961 . S
H1862 C1847 0.961 . S
H1863 C1847 0.961 . S
H1864 C1848 0.931 . S
H1865 C1853 0.930 . S
H1866 C1854 0.956 . S
H1867 C1854 0.961 . S
H1868 C1854 0.961 . S
H1869 C1855 0.958 . S
H1870 C1855 0.961 . S
H1871 C1855 0.960 . S
C1872 C1873 1.391 . S
C1872 C1874 1.394 . S
C1872 H1888 0.931 . S
C1873 C1872 1.391 . S
C1873 C1877 1.376 . S
C1874 C1872 1.394 . S
C1874 C1875 1.369 . S
C1874 C1878 1.531 . S
C1875 C1874 1.369 . S
C1875 C1876 1.410 . S
C1875 C1883 1.503 . S
C1876 C1875 1.410 . S
C1876 C1877 1.392 . S
C1876 C1879 1.511 . S
C1877 C1873 1.376 . S
C1877 C1876 1.392 . S
C1877 H1889 0.929 . S
C1878 C1874 1.531 . S
C1878 H1890 0.960 . S
C1878 H1891 0.962 . S
C1878 H1892 0.960 . S
C1879 C1876 1.511 . S
C1879 H1893 0.961 . S
C1879 H1894 0.961 . S
C1879 H1895 0.961 . S
C1880 C1881 1.370 . S
C1880 C1882 1.363 . S
C1880 H1896 0.931 . S
C1881 C1880 1.370 . S
C1881 C1885 1.408 . S
C1882 C1880 1.363 . S
C1882 C1883 1.370 . S
C1882 C1886 1.524 . S
C1883 C1875 1.503 . S
C1883 C1882 1.370 . S
C1883 C1884 1.403 . S
C1884 C1883 1.403 . S
C1884 C1885 1.404 . S
C1884 C1887 1.539 . S
C1885 C1881 1.408 . S
C1885 C1884 1.404 . S
C1885 H1897 0.930 . S
C1886 C1882 1.524 . S
C1886 H1898 0.956 . S
C1886 H1899 0.961 . S
C1886 H1900 0.961 . S
C1887 C1884 1.539 . S
C1887 H1901 0.958 . S
C1887 H1902 0.961 . S
C1887 H1903 0.960 . S
H1888 C1872 0.931 . S
H1889 C1877 0.929 . S
H1890 C1878 0.960 . S
H1891 C1878 0.962 . S
H1892 C1878 0.960 . S
H1893 C1879 0.961 . S
H1894 C1879 0.961 . S
H1895 C1879 0.961 . S
H1896 C1880 0.931 . S
H1897 C1885 0.930 . S
H1898 C1886 0.956 . S
H1899 C1886 0.961 . S
H1900 C1886 0.961 . S
H1901 C1887 0.958 . S
H1902 C1887 0.961 . S
H1903 C1887 0.960 . S
C1904 C1905 1.391 . S
C1904 C1906 1.394 . S
C1904 H1920 0.931 . S
C1905 C1904 1.391 . S
C1905 C1909 1.376 . S
C1906 C1904 1.394 . S
C1906 C1907 1.369 . S
C1906 C1910 1.531 . S
C1907 C1906 1.369 . S
C1907 C1908 1.410 . S
C1907 C1915 1.503 . S
C1908 C1907 1.410 . S
C1908 C1909 1.392 . S
C1908 C1911 1.511 . S
C1909 C1905 1.376 . S
C1909 C1908 1.392 . S
C1909 H1921 0.929 . S
C1910 C1906 1.531 . S
C1910 H1922 0.960 . S
C1910 H1923 0.962 . S
C1910 H1924 0.960 . S
C1911 C1908 1.511 . S
C1911 H1925 0.961 . S
C1911 H1926 0.961 . S
C1911 H1927 0.961 . S
C1912 C1913 1.370 . S
C1912 C1914 1.363 . S
C1912 H1928 0.931 . S
C1913 C1912 1.370 . S
C1913 C1917 1.408 . S
C1914 C1912 1.363 . S
C1914 C1915 1.370 . S
C1914 C1918 1.524 . S
C1915 C1907 1.503 . S
C1915 C1914 1.370 . S
C1915 C1916 1.403 . S
C1916 C1915 1.403 . S
C1916 C1917 1.404 . S
C1916 C1919 1.539 . S
C1917 C1913 1.408 . S
C1917 C1916 1.404 . S
C1917 H1929 0.930 . S
C1918 C1914 1.524 . S
C1918 H1930 0.956 . S
C1918 H1931 0.961 . S
C1918 H1932 0.961 . S
C1919 C1916 1.539 . S
C1919 H1933 0.958 . S
C1919 H1934 0.961 . S
C1919 H1935 0.960 . S
H1920 C1904 0.931 . S
H1921 C1909 0.929 . S
H1922 C1910 0.960 . S
H1923 C1910 0.962 . S
H1924 C1910 0.960 . S
H1925 C1911 0.961 . S
H1926 C1911 0.961 . S
H1927 C1911 0.961 . S
H1928 C1912 0.931 . S
H1929 C1917 0.930 . S
H1930 C1918 0.956 . S
H1931 C1918 0.961 . S
H1932 C1918 0.961 . S
H1933 C1919 0.958 . S
H1934 C1919 0.961 . S
H1935 C1919 0.960 . S
C1936 C1937 1.391 . S
C1936 C1938 1.394 . S
C1936 H1952 0.931 . S
C1937 C1936 1.391 . S
C1937 C1941 1.376 . S
C1938 C1936 1.394 . S
C1938 C1939 1.369 . S
C1938 C1942 1.531 . S
C1939 C1938 1.369 . S
C1939 C1940 1.410 . S
C1939 C1947 1.503 . S
C1940 C1939 1.410 . S
C1940 C1941 1.392 . S
C1940 C1943 1.511 . S
C1941 C1937 1.376 . S
C1941 C1940 1.392 . S
C1941 H1953 0.929 . S
C1942 C1938 1.531 . S
C1942 H1954 0.960 . S
C1942 H1955 0.962 . S
C1942 H1956 0.960 . S
C1943 C1940 1.511 . S
C1943 H1957 0.961 . S
C1943 H1958 0.961 . S
C1943 H1959 0.961 . S
C1944 C1945 1.370 . S
C1944 C1946 1.363 . S
C1944 H1960 0.931 . S
C1945 C1944 1.370 . S
C1945 C1949 1.408 . S
C1946 C1944 1.363 . S
C1946 C1947 1.370 . S
C1946 C1950 1.524 . S
C1947 C1939 1.503 . S
C1947 C1946 1.370 . S
C1947 C1948 1.403 . S
C1948 C1947 1.403 . S
C1948 C1949 1.404 . S
C1948 C1951 1.539 . S
C1949 C1945 1.408 . S
C1949 C1948 1.404 . S
C1949 H1961 0.930 . S
C1950 C1946 1.524 . S
C1950 H1962 0.956 . S
C1950 H1963 0.961 . S
C1950 H1964 0.961 . S
C1951 C1948 1.539 . S
C1951 H1965 0.958 . S
C1951 H1966 0.961 . S
C1951 H1967 0.960 . S
H1952 C1936 0.931 . S
H1953 C1941 0.929 . S
H1954 C1942 0.960 . S
H1955 C1942 0.962 . S
H1956 C1942 0.960 . S
H1957 C1943 0.961 . S
H1958 C1943 0.961 . S
H1959 C1943 0.961 . S
H1960 C1944 0.931 . S
H1961 C1949 0.930 . S
H1962 C1950 0.956 . S
H1963 C1950 0.961 . S
H1964 C1950 0.961 . S
H1965 C1951 0.958 . S
H1966 C1951 0.961 . S
H1967 C1951 0.960 . S
C1968 C1969 1.391 . S
C1968 C1970 1.394 . S
C1968 H1984 0.931 . S
C1969 C1968 1.391 . S
C1969 C1973 1.376 . S
C1970 C1968 1.394 . S
C1970 C1971 1.369 . S
C1970 C1974 1.531 . S
C1971 C1970 1.369 . S
C1971 C1972 1.410 . S
C1971 C1979 1.503 1_455 S
C1972 C1971 1.410 . S
C1972 C1973 1.392 . S
C1972 C1975 1.511 . S
C1973 C1969 1.376 . S
C1973 C1972 1.392 . S
C1973 H1985 0.929 . S
C1974 C1970 1.531 . S
C1974 H1986 0.960 1_455 S
C1974 H1987 0.962 1_455 S
C1974 H1988 0.960 . S
C1975 C1972 1.511 . S
C1975 H1989 0.961 . S
C1975 H1990 0.961 . S
C1975 H1991 0.961 . S
C1976 C1977 1.370 . S
C1976 C1978 1.363 . S
C1976 H1992 0.931 . S
C1977 C1976 1.370 . S
C1977 C1981 1.408 . S
C1978 C1976 1.363 . S
C1978 C1979 1.370 . S
C1978 C1982 1.524 1_655 S
C1979 C1971 1.503 1_655 S
C1979 C1978 1.370 . S
C1979 C1980 1.403 . S
C1980 C1979 1.403 . S
C1980 C1981 1.404 . S
C1980 C1983 1.539 . S
C1981 C1977 1.408 . S
C1981 C1980 1.404 . S
C1981 H1993 0.930 . S
C1982 C1978 1.524 1_455 S
C1982 H1994 0.956 . S
C1982 H1995 0.961 . S
C1982 H1996 0.961 1_454 S
C1983 C1980 1.539 . S
C1983 H1997 0.958 . S
C1983 H1998 0.961 . S
C1983 H1999 0.960 1_655 S
H1984 C1968 0.931 . S
H1985 C1973 0.929 . S
H1986 C1974 0.960 1_655 S
H1987 C1974 0.962 1_655 S
H1988 C1974 0.960 . S
H1989 C1975 0.961 . S
H1990 C1975 0.961 . S
H1991 C1975 0.961 . S
H1992 C1976 0.931 . S
H1993 C1981 0.930 . S
H1994 C1982 0.956 . S
H1995 C1982 0.961 . S
H1996 C1982 0.961 1_656 S
H1997 C1983 0.958 . S
H1998 C1983 0.961 . S
H1999 C1983 0.960 1_455 S
C2000 C2001 1.391 . S
C2000 C2002 1.394 . S
C2000 H2016 0.931 . S
C2001 C2000 1.391 . S
C2001 C2005 1.376 . S
C2002 C2000 1.394 . S
C2002 C2003 1.369 . S
C2002 C2006 1.531 . S
C2003 C2002 1.369 . S
C2003 C2004 1.410 . S
C2003 C2011 1.503 . S
C2004 C2003 1.410 . S
C2004 C2005 1.392 . S
C2004 C2007 1.511 . S
C2005 C2001 1.376 . S
C2005 C2004 1.392 . S
C2005 H2017 0.929 . S
C2006 C2002 1.531 . S
C2006 H2018 0.960 . S
C2006 H2019 0.962 . S
C2006 H2020 0.960 . S
C2007 C2004 1.511 . S
C2007 H2021 0.961 . S
C2007 H2022 0.961 . S
C2007 H2023 0.961 . S
C2008 C2009 1.370 . S
C2008 C2010 1.363 . S
C2008 H2024 0.931 . S
C2009 C2008 1.370 . S
C2009 C2013 1.408 . S
C2010 C2008 1.363 . S
C2010 C2011 1.370 . S
C2010 C2014 1.524 . S
C2011 C2003 1.503 . S
C2011 C2010 1.370 . S
C2011 C2012 1.403 . S
C2012 C2011 1.403 . S
C2012 C2013 1.404 . S
C2012 C2015 1.539 . S
C2013 C2009 1.408 . S
C2013 C2012 1.404 . S
C2013 H2025 0.930 . S
C2014 C2010 1.524 . S
C2014 H2026 0.956 . S
C2014 H2027 0.961 . S
C2014 H2028 0.961 . S
C2015 C2012 1.539 . S
C2015 H2029 0.958 . S
C2015 H2030 0.961 . S
C2015 H2031 0.960 . S
H2016 C2000 0.931 . S
H2017 C2005 0.929 . S
H2018 C2006 0.960 . S
H2019 C2006 0.962 . S
H2020 C2006 0.960 . S
H2021 C2007 0.961 . S
H2022 C2007 0.961 . S
H2023 C2007 0.961 . S
H2024 C2008 0.931 . S
H2025 C2013 0.930 . S
H2026 C2014 0.956 . S
H2027 C2014 0.961 . S
H2028 C2014 0.961 . S
H2029 C2015 0.958 . S
H2030 C2015 0.961 . S
H2031 C2015 0.960 . S
C2032 C2033 1.391 . S
C2032 C2034 1.394 . S
C2032 H2048 0.931 . S
C2033 C2032 1.391 . S
C2033 C2037 1.376 . S
C2034 C2032 1.394 . S
C2034 C2035 1.369 . S
C2034 C2038 1.531 . S
C2035 C2034 1.369 . S
C2035 C2036 1.410 . S
C2035 C2043 1.503 . S
C2036 C2035 1.410 . S
C2036 C2037 1.392 . S
C2036 C2039 1.511 . S
C2037 C2033 1.376 . S
C2037 C2036 1.392 . S
C2037 H2049 0.929 . S
C2038 C2034 1.531 . S
C2038 H2050 0.960 . S
C2038 H2051 0.962 . S
C2038 H2052 0.960 . S
C2039 C2036 1.511 . S
C2039 H2053 0.961 . S
C2039 H2054 0.961 . S
C2039 H2055 0.961 . S
C2040 C2041 1.370 . S
C2040 C2042 1.363 . S
C2040 H2056 0.931 . S
C2041 C2040 1.370 . S
C2041 C2045 1.408 . S
C2042 C2040 1.363 . S
C2042 C2043 1.370 . S
C2042 C2046 1.524 . S
C2043 C2035 1.503 . S
C2043 C2042 1.370 . S
C2043 C2044 1.403 . S
C2044 C2043 1.403 . S
C2044 C2045 1.404 . S
C2044 C2047 1.539 . S
C2045 C2041 1.408 . S
C2045 C2044 1.404 . S
C2045 H2057 0.930 . S
C2046 C2042 1.524 . S
C2046 H2058 0.956 . S
C2046 H2059 0.961 . S
C2046 H2060 0.961 . S
C2047 C2044 1.539 . S
C2047 H2061 0.958 . S
C2047 H2062 0.961 . S
C2047 H2063 0.960 . S
H2048 C2032 0.931 . S
H2049 C2037 0.929 . S
H2050 C2038 0.960 . S
H2051 C2038 0.962 . S
H2052 C2038 0.960 . S
H2053 C2039 0.961 . S
H2054 C2039 0.961 . S
H2055 C2039 0.961 . S
H2056 C2040 0.931 . S
H2057 C2045 0.930 . S
H2058 C2046 0.956 . S
H2059 C2046 0.961 . S
H2060 C2046 0.961 . S
H2061 C2047 0.958 . S
H2062 C2047 0.961 . S
H2063 C2047 0.960 . S
C2064 C2065 1.391 . S
C2064 C2066 1.394 . S
C2064 H2080 0.931 . S
C2065 C2064 1.391 . S
C2065 C2069 1.376 . S
C2066 C2064 1.394 . S
C2066 C2067 1.369 . S
C2066 C2070 1.531 . S
C2067 C2066 1.369 . S
C2067 C2068 1.410 . S
C2067 C2075 1.503 . S
C2068 C2067 1.410 . S
C2068 C2069 1.392 . S
C2068 C2071 1.511 . S
C2069 C2065 1.376 . S
C2069 C2068 1.392 . S
C2069 H2081 0.929 . S
C2070 C2066 1.531 . S
C2070 H2082 0.960 . S
C2070 H2083 0.962 . S
C2070 H2084 0.960 . S
C2071 C2068 1.511 . S
C2071 H2085 0.961 . S
C2071 H2086 0.961 . S
C2071 H2087 0.961 . S
C2072 C2073 1.370 . S
C2072 C2074 1.363 . S
C2072 H2088 0.931 . S
C2073 C2072 1.370 . S
C2073 C2077 1.408 . S
C2074 C2072 1.363 . S
C2074 C2075 1.370 . S
C2074 C2078 1.524 . S
C2075 C2067 1.503 . S
C2075 C2074 1.370 . S
C2075 C2076 1.403 . S
C2076 C2075 1.403 . S
C2076 C2077 1.404 . S
C2076 C2079 1.539 . S
C2077 C2073 1.408 . S
C2077 C2076 1.404 . S
C2077 H2089 0.930 . S
C2078 C2074 1.524 . S
C2078 H2090 0.956 . S
C2078 H2091 0.961 . S
C2078 H2092 0.961 . S
C2079 C2076 1.539 . S
C2079 H2093 0.958 . S
C2079 H2094 0.961 . S
C2079 H2095 0.960 . S
H2080 C2064 0.931 . S
H2081 C2069 0.929 . S
H2082 C2070 0.960 . S
H2083 C2070 0.962 . S
H2084 C2070 0.960 . S
H2085 C2071 0.961 . S
H2086 C2071 0.961 . S
H2087 C2071 0.961 . S
H2088 C2072 0.931 . S
H2089 C2077 0.930 . S
H2090 C2078 0.956 . S
H2091 C2078 0.961 . S
H2092 C2078 0.961 . S
H2093 C2079 0.958 . S
H2094 C2079 0.961 . S
H2095 C2079 0.960 . S
C2096 C2097 1.391 . S
C2096 C2098 1.394 . S
C2096 H2112 0.931 . S
C2097 C2096 1.391 . S
C2097 C2101 1.376 . S
C2098 C2096 1.394 . S
C2098 C2099 1.369 . S
C2098 C2102 1.531 . S
C2099 C2098 1.369 . S
C2099 C2100 1.410 . S
C2099 C2107 1.503 . S
C2100 C2099 1.410 . S
C2100 C2101 1.392 . S
C2100 C2103 1.511 . S
C2101 C2097 1.376 . S
C2101 C2100 1.392 . S
C2101 H2113 0.929 . S
C2102 C2098 1.531 . S
C2102 H2114 0.960 . S
C2102 H2115 0.962 . S
C2102 H2116 0.960 . S
C2103 C2100 1.511 . S
C2103 H2117 0.961 . S
C2103 H2118 0.961 . S
C2103 H2119 0.961 . S
C2104 C2105 1.370 . S
C2104 C2106 1.363 . S
C2104 H2120 0.931 . S
C2105 C2104 1.370 . S
C2105 C2109 1.408 . S
C2106 C2104 1.363 . S
C2106 C2107 1.370 . S
C2106 C2110 1.524 . S
C2107 C2099 1.503 . S
C2107 C2106 1.370 . S
C2107 C2108 1.403 . S
C2108 C2107 1.403 . S
C2108 C2109 1.404 . S
C2108 C2111 1.539 . S
C2109 C2105 1.408 . S
C2109 C2108 1.404 . S
C2109 H2121 0.930 . S
C2110 C2106 1.524 . S
C2110 H2122 0.956 . S
C2110 H2123 0.961 . S
C2110 H2124 0.961 1_556 S
C2111 C2108 1.539 . S
C2111 H2125 0.958 . S
C2111 H2126 0.961 . S
C2111 H2127 0.960 . S
H2112 C2096 0.931 . S
H2113 C2101 0.929 . S
H2114 C2102 0.960 . S
H2115 C2102 0.962 . S
H2116 C2102 0.960 . S
H2117 C2103 0.961 . S
H2118 C2103 0.961 . S
H2119 C2103 0.961 . S
H2120 C2104 0.931 . S
H2121 C2109 0.930 . S
H2122 C2110 0.956 . S
H2123 C2110 0.961 . S
H2124 C2110 0.961 1_554 S
H2125 C2111 0.958 . S
H2126 C2111 0.961 . S
H2127 C2111 0.960 . S
C2128 C2129 1.391 . S
C2128 C2130 1.394 . S
C2128 H2144 0.931 . S
C2129 C2128 1.391 . S
C2129 C2133 1.376 . S
C2130 C2128 1.394 . S
C2130 C2131 1.369 . S
C2130 C2134 1.531 . S
C2131 C2130 1.369 . S
C2131 C2132 1.410 . S
C2131 C2139 1.516 . S
C2132 C2131 1.410 . S
C2132 C2133 1.392 . S
C2132 C2135 1.511 . S
C2133 C2129 1.376 . S
C2133 C2132 1.392 . S
C2133 H2145 0.929 . S
C2134 C2130 1.531 . S
C2134 H2146 0.960 . S
C2134 H2147 0.962 . S
C2134 H2148 0.960 . S
C2135 C2132 1.511 . S
C2135 H2149 0.961 . S
C2135 H2150 0.961 1_655 S
C2135 H2151 0.971 . S
C2136 C2137 1.370 . S
C2136 C2138 1.363 . S
C2136 H2152 0.931 . S
C2137 C2136 1.370 . S
C2137 C2141 1.408 . S
C2138 C2136 1.363 . S
C2138 C2139 1.366 1_455 S
C2138 C2142 1.524 1_455 S
C2139 C2131 1.516 . S
C2139 C2138 1.366 1_655 S
C2139 C2140 1.395 1_655 S
C2140 C2139 1.395 1_455 S
C2140 C2141 1.404 . S
C2140 C2143 1.539 . S
C2141 C2137 1.408 . S
C2141 C2140 1.404 . S
C2141 H2153 0.930 . S
C2142 C2138 1.524 1_655 S
C2142 H2154 0.956 . S
C2142 H2155 0.961 . S
C2142 H2156 0.961 1_655 S
C2143 C2140 1.539 . S
C2143 H2157 0.958 1_455 S
C2143 H2158 0.961 . S
C2143 H2159 0.960 1_455 S
H2144 C2128 0.931 . S
H2145 C2133 0.929 . S
H2146 C2134 0.960 . S
H2147 C2134 0.962 . S
H2148 C2134 0.960 . S
H2149 C2135 0.961 . S
H2150 C2135 0.961 1_455 S
H2151 C2135 0.971 . S
H2152 C2136 0.931 . S
H2153 C2141 0.930 . S
H2154 C2142 0.956 . S
H2155 C2142 0.961 . S
H2156 C2142 0.961 1_455 S
H2157 C2143 0.958 1_655 S
H2158 C2143 0.961 . S
H2159 C2143 0.960 1_655 S
C1009 C74 1.653 . S
C1017 C991 1.677 . S
C1041 C823 1.691 . S
C1049 C158 1.664 . S
C1073 C235 1.682 . S
C1081 C746 1.628 . S
C1105 C326 1.677 . S
C1113 C907 1.707 . S
C1137 C410 1.666 . S
C1145 C914 1.669 . S
C1169 C487 1.688 . S
C1177 C998 1.659 . S
C1201 C830 1.680 . S
C1209 C578 1.674 . S
C1233 C655 1.651 . S
C1241 C739 1.661 . S
C1265 C319 1.664 . S
C1273 C403 1.667 . S
C1297 C67 1.705 . S
C1305 C494 1.654 . S
C1329 C151 1.671 . S
C1337 C571 1.670 . S
C1361 C662 1.650 . S
C1369 C242 1.673 . S
C1393 C69 1.463 . S
C1401 C735 1.642 . S
C1425 C153 1.436 . S
C1433 C896 1.643 . S
C1457 C980 1.637 . S
C1465 C226 1.636 . S
C1489 C321 1.413 . S
C1497 C812 1.607 . S
C1521 C405 1.348 . S
C1529 C819 1.649 . S
C1553 C728 1.643 . S
C1561 C478 1.624 . S
C1585 C903 1.631 . S
C1593 C573 1.388 . S
C1617 C987 1.668 . S
C1625 C646 1.635 . S
C1649 C56 1.611 . S
C1657 C310 1.592 . S
C1681 C58 1.544 . S
C1689 C140 1.601 . S
C1713 C142 1.619 . S
C1721 C231 1.650 . S
C1745 C308 1.616 . S
C1753 C237 1.364 . S
C1777 C489 1.445 . S
C1785 C392 1.644 . S
C1809 C483 1.688 . S
C1817 C562 1.633 . S
C1841 C560 1.643 . S
C1849 C657 1.411 . S
C1873 C394 1.626 . S
C1881 C651 1.672 . S
C1905 C730 1.586 . S
C1913 C315 1.627 . S
C1937 C476 1.585 . S
C1945 C814 1.599 . S
C1969 C741 1.368 . S
C1977 C567 1.620 . S
C2001 C898 1.577 . S
C2009 C644 1.636 . S
C2033 C399 1.626 . S
C2041 C982 1.596 . S
C2065 C993 1.398 . S
C2073 C147 1.654 . S
C2097 C224 1.640 . S
C2105 C825 1.400 . S
C2129 C909 1.428 . S
C2137 C63 1.671 . S
