# Generated by pormake.
# Topology ukn, (4)-cn, num edge types: 1
# Building blocks:
#     Node 0, Type 0, BuildingBlock: CEKHIL_clean_sbu_0, # of connection points: 4
#     Node 1, Type 0, BuildingBlock: CEKHIL_clean_sbu_0, # of connection points: 4
#     Node 2, Type 0, BuildingBlock: CEKHIL_clean_sbu_0, # of connection points: 4
#     Node 3, Type 0, BuildingBlock: CEKHIL_clean_sbu_0, # of connection points: 4
#     Node 4, Type 0, BuildingBlock: CEKHIL_clean_sbu_0, # of connection points: 4
#     Node 5, Type 0, BuildingBlock: CEKHIL_clean_sbu_0, # of connection points: 4
#     Node 6, Type 0, BuildingBlock: CEKHIL_clean_sbu_0, # of connection points: 4
#     Node 7, Type 0, BuildingBlock: CEKHIL_clean_sbu_0, # of connection points: 4
#     Node 8, Type 0, BuildingBlock: CEKHIL_clean_sbu_0, # of connection points: 4
#     Node 9, Type 0, BuildingBlock: CEKHIL_clean_sbu_0, # of connection points: 4
#     Node 10, Type 0, BuildingBlock: CEKHIL_clean_sbu_0, # of connection points: 4
#     Node 11, Type 0, BuildingBlock: CEKHIL_clean_sbu_0, # of connection points: 4
#     Node 12, Type 0, BuildingBlock: CEKHIL_clean_sbu_0, # of connection points: 4
#     Node 13, Type 0, BuildingBlock: CEKHIL_clean_sbu_0, # of connection points: 4
#     Node 14, Type 0, BuildingBlock: CEKHIL_clean_sbu_0, # of connection points: 4
#     Node 15, Type 0, BuildingBlock: CEKHIL_clean_sbu_0, # of connection points: 4
#     Node 16, Type 0, BuildingBlock: CEKHIL_clean_sbu_0, # of connection points: 4
#     Node 17, Type 0, BuildingBlock: CEKHIL_clean_sbu_0, # of connection points: 4
#     Node 18, Type 0, BuildingBlock: CEKHIL_clean_sbu_0, # of connection points: 4
#     Node 19, Type 0, BuildingBlock: CEKHIL_clean_sbu_0, # of connection points: 4
#     Node 20, Type 0, BuildingBlock: CEKHIL_clean_sbu_0, # of connection points: 4
#     Node 21, Type 0, BuildingBlock: CEKHIL_clean_sbu_0, # of connection points: 4
#     Node 22, Type 0, BuildingBlock: CEKHIL_clean_sbu_0, # of connection points: 4
#     Node 23, Type 0, BuildingBlock: CEKHIL_clean_sbu_0, # of connection points: 4
#     Node 24, Type 0, BuildingBlock: CEKHIL_clean_sbu_0, # of connection points: 4
#     Node 25, Type 0, BuildingBlock: CEKHIL_clean_sbu_0, # of connection points: 4
#     Node 26, Type 0, BuildingBlock: CEKHIL_clean_sbu_0, # of connection points: 4
#     Node 27, Type 0, BuildingBlock: CEKHIL_clean_sbu_0, # of connection points: 4
#     Node 28, Type 0, BuildingBlock: CEKHIL_clean_sbu_0, # of connection points: 4
#     Node 29, Type 0, BuildingBlock: CEKHIL_clean_sbu_0, # of connection points: 4
#     Node 30, Type 0, BuildingBlock: CEKHIL_clean_sbu_0, # of connection points: 4
#     Node 31, Type 0, BuildingBlock: CEKHIL_clean_sbu_0, # of connection points: 4
#     Node 32, Type 0, BuildingBlock: CEKHIL_clean_sbu_0, # of connection points: 4
#     Node 33, Type 0, BuildingBlock: CEKHIL_clean_sbu_0, # of connection points: 4
#     Node 34, Type 0, BuildingBlock: CEKHIL_clean_sbu_0, # of connection points: 4
#     Node 35, Type 0, BuildingBlock: CEKHIL_clean_sbu_0, # of connection points: 4
#     Edge 36, Type (0, 0), BuildingBlock: AJUNOK_clean_linker_0, # of connection points: 2
#     Edge 37, Type (0, 0), BuildingBlock: AJUNOK_clean_linker_0, # of connection points: 2
#     Edge 38, Type (0, 0), BuildingBlock: AJUNOK_clean_linker_0, # of connection points: 2
#     Edge 39, Type (0, 0), BuildingBlock: AJUNOK_clean_linker_0, # of connection points: 2
#     Edge 40, Type (0, 0), BuildingBlock: AJUNOK_clean_linker_0, # of connection points: 2
#     Edge 41, Type (0, 0), BuildingBlock: AJUNOK_clean_linker_0, # of connection points: 2
#     Edge 42, Type (0, 0), BuildingBlock: AJUNOK_clean_linker_0, # of connection points: 2
#     Edge 43, Type (0, 0), BuildingBlock: AJUNOK_clean_linker_0, # of connection points: 2
#     Edge 44, Type (0, 0), BuildingBlock: AJUNOK_clean_linker_0, # of connection points: 2
#     Edge 45, Type (0, 0), BuildingBlock: AJUNOK_clean_linker_0, # of connection points: 2
#     Edge 46, Type (0, 0), BuildingBlock: AJUNOK_clean_linker_0, # of connection points: 2
#     Edge 47, Type (0, 0), BuildingBlock: AJUNOK_clean_linker_0, # of connection points: 2
#     Edge 48, Type (0, 0), BuildingBlock: AJUNOK_clean_linker_0, # of connection points: 2
#     Edge 49, Type (0, 0), BuildingBlock: AJUNOK_clean_linker_0, # of connection points: 2
#     Edge 50, Type (0, 0), BuildingBlock: AJUNOK_clean_linker_0, # of connection points: 2
#     Edge 51, Type (0, 0), BuildingBlock: AJUNOK_clean_linker_0, # of connection points: 2
#     Edge 52, Type (0, 0), BuildingBlock: AJUNOK_clean_linker_0, # of connection points: 2
#     Edge 53, Type (0, 0), BuildingBlock: AJUNOK_clean_linker_0, # of connection points: 2
#     Edge 54, Type (0, 0), BuildingBlock: AJUNOK_clean_linker_0, # of connection points: 2
#     Edge 55, Type (0, 0), BuildingBlock: AJUNOK_clean_linker_0, # of connection points: 2
#     Edge 56, Type (0, 0), BuildingBlock: AJUNOK_clean_linker_0, # of connection points: 2
#     Edge 57, Type (0, 0), BuildingBlock: AJUNOK_clean_linker_0, # of connection points: 2
#     Edge 58, Type (0, 0), BuildingBlock: AJUNOK_clean_linker_0, # of connection points: 2
#     Edge 59, Type (0, 0), BuildingBlock: AJUNOK_clean_linker_0, # of connection points: 2
#     Edge 60, Type (0, 0), BuildingBlock: AJUNOK_clean_linker_0, # of connection points: 2
#     Edge 61, Type (0, 0), BuildingBlock: AJUNOK_clean_linker_0, # of connection points: 2
#     Edge 62, Type (0, 0), BuildingBlock: AJUNOK_clean_linker_0, # of connection points: 2
#     Edge 63, Type (0, 0), BuildingBlock: AJUNOK_clean_linker_0, # of connection points: 2
#     Edge 64, Type (0, 0), BuildingBlock: AJUNOK_clean_linker_0, # of connection points: 2
#     Edge 65, Type (0, 0), BuildingBlock: AJUNOK_clean_linker_0, # of connection points: 2
#     Edge 66, Type (0, 0), BuildingBlock: AJUNOK_clean_linker_0, # of connection points: 2
#     Edge 67, Type (0, 0), BuildingBlock: AJUNOK_clean_linker_0, # of connection points: 2
#     Edge 68, Type (0, 0), BuildingBlock: AJUNOK_clean_linker_0, # of connection points: 2
#     Edge 69, Type (0, 0), BuildingBlock: AJUNOK_clean_linker_0, # of connection points: 2
#     Edge 70, Type (0, 0), BuildingBlock: AJUNOK_clean_linker_0, # of connection points: 2
#     Edge 71, Type (0, 0), BuildingBlock: AJUNOK_clean_linker_0, # of connection points: 2
#     Edge 72, Type (0, 0), BuildingBlock: AJUNOK_clean_linker_0, # of connection points: 2
#     Edge 73, Type (0, 0), BuildingBlock: AJUNOK_clean_linker_0, # of connection points: 2
#     Edge 74, Type (0, 0), BuildingBlock: AJUNOK_clean_linker_0, # of connection points: 2
#     Edge 75, Type (0, 0), BuildingBlock: AJUNOK_clean_linker_0, # of connection points: 2
#     Edge 76, Type (0, 0), BuildingBlock: AJUNOK_clean_linker_0, # of connection points: 2
#     Edge 77, Type (0, 0), BuildingBlock: AJUNOK_clean_linker_0, # of connection points: 2
#     Edge 78, Type (0, 0), BuildingBlock: AJUNOK_clean_linker_0, # of connection points: 2
#     Edge 79, Type (0, 0), BuildingBlock: AJUNOK_clean_linker_0, # of connection points: 2
#     Edge 80, Type (0, 0), BuildingBlock: AJUNOK_clean_linker_0, # of connection points: 2
#     Edge 81, Type (0, 0), BuildingBlock: AJUNOK_clean_linker_0, # of connection points: 2
#     Edge 82, Type (0, 0), BuildingBlock: AJUNOK_clean_linker_0, # of connection points: 2
#     Edge 83, Type (0, 0), BuildingBlock: AJUNOK_clean_linker_0, # of connection points: 2
#     Edge 84, Type (0, 0), BuildingBlock: AJUNOK_clean_linker_0, # of connection points: 2
#     Edge 85, Type (0, 0), BuildingBlock: AJUNOK_clean_linker_0, # of connection points: 2
#     Edge 86, Type (0, 0), BuildingBlock: AJUNOK_clean_linker_0, # of connection points: 2
#     Edge 87, Type (0, 0), BuildingBlock: AJUNOK_clean_linker_0, # of connection points: 2
#     Edge 88, Type (0, 0), BuildingBlock: AJUNOK_clean_linker_0, # of connection points: 2
#     Edge 89, Type (0, 0), BuildingBlock: AJUNOK_clean_linker_0, # of connection points: 2
#     Edge 90, Type (0, 0), BuildingBlock: AJUNOK_clean_linker_0, # of connection points: 2
#     Edge 91, Type (0, 0), BuildingBlock: AJUNOK_clean_linker_0, # of connection points: 2
#     Edge 92, Type (0, 0), BuildingBlock: AJUNOK_clean_linker_0, # of connection points: 2
#     Edge 93, Type (0, 0), BuildingBlock: AJUNOK_clean_linker_0, # of connection points: 2
#     Edge 94, Type (0, 0), BuildingBlock: AJUNOK_clean_linker_0, # of connection points: 2
#     Edge 95, Type (0, 0), BuildingBlock: AJUNOK_clean_linker_0, # of connection points: 2
#     Edge 96, Type (0, 0), BuildingBlock: AJUNOK_clean_linker_0, # of connection points: 2
#     Edge 97, Type (0, 0), BuildingBlock: AJUNOK_clean_linker_0, # of connection points: 2
#     Edge 98, Type (0, 0), BuildingBlock: AJUNOK_clean_linker_0, # of connection points: 2
#     Edge 99, Type (0, 0), BuildingBlock: AJUNOK_clean_linker_0, # of connection points: 2
#     Edge 100, Type (0, 0), BuildingBlock: AJUNOK_clean_linker_0, # of connection points: 2
#     Edge 101, Type (0, 0), BuildingBlock: AJUNOK_clean_linker_0, # of connection points: 2
#     Edge 102, Type (0, 0), BuildingBlock: AJUNOK_clean_linker_0, # of connection points: 2
#     Edge 103, Type (0, 0), BuildingBlock: AJUNOK_clean_linker_0, # of connection points: 2
#     Edge 104, Type (0, 0), BuildingBlock: AJUNOK_clean_linker_0, # of connection points: 2
#     Edge 105, Type (0, 0), BuildingBlock: AJUNOK_clean_linker_0, # of connection points: 2
#     Edge 106, Type (0, 0), BuildingBlock: AJUNOK_clean_linker_0, # of connection points: 2
#     Edge 107, Type (0, 0), BuildingBlock: AJUNOK_clean_linker_0, # of connection points: 2
# Relax obj value: 0.075
# Max RMSD: 0.097
# Mean RMSD: 0.097
data_MOF--net-ukn--node1-CEKHIL_clean_sbu_0--edge1-AJUNOK_clean_linker_0
_symmetry_space_group_name_H-M    P1
_symmetry_Int_Tables_number       1
_symmetry_cell_setting            triclinic
loop_
_symmetry_equiv_pos_as_xyz
'x, y, z'
_cell_length_a     75.782524
_cell_length_b     75.830662
_cell_length_c     19.540906
_cell_angle_alpha  89.974436
_cell_angle_beta   89.999359
_cell_angle_gamma 119.88457
loop_
_atom_site_label
_atom_site_type_symbol
_atom_site_fract_x
_atom_site_fract_y
_atom_site_fract_z
_atom_type_partial_charge
Co0 Co 0.10416 0.31744 0.08745 0.0
O1 O 0.07864 0.31621 0.07089 0.0
O2 O 0.08459 0.2911 0.04855 0.0
C3 C 0.10884 0.33115 0.19293 0.0
O4 O 0.1289 0.31355 0.09978 0.0
Co5 Co 0.14298 0.35985 0.1104 0.0
O6 O 0.154 0.34264 0.14499 0.0
C7 C 0.12577 0.34728 0.97186 0.0
C8 C 0.0719 0.29799 0.04739 0.0
C9 C 0.1465 0.324 0.12837 0.0
O10 O 0.11372 0.3291 -0.00657 0.0
O11 O 0.13737 0.36204 0.01129 0.0
O12 O 0.09754 0.3116 0.18477 0.0
O13 O 0.11529 0.34153 0.13733 0.0
Co14 Co 0.735 0.79673 0.09522 0.0
O15 O 0.73671 0.77278 0.07757 0.0
O16 O 0.76158 0.804 0.05671 0.0
C17 C 0.72101 0.78721 0.2001 0.0
O18 O 0.73831 0.82507 0.10901 0.0
Co19 Co 0.69204 0.79211 0.11543 0.0
O20 O 0.70855 0.82013 0.15178 0.0
C21 C 0.70564 0.78843 0.97764 0.0
C22 C 0.75491 0.7845 0.05424 0.0
C23 C 0.7273 0.83167 0.1372 0.0
O24 O 0.72367 0.79482 0.00099 0.0
O25 O 0.69049 0.78487 0.01592 0.0
O26 O 0.74062 0.79566 0.19239 0.0
O27 O 0.71074 0.78328 0.1442 0.0
Co28 Co 0.25729 0.94746 0.08424 0.0
O29 O 0.28184 0.97265 0.06838 0.0
O30 O 0.25112 0.9681 0.05064 0.0
C31 C 0.26705 0.94145 0.1866 0.0
O32 O 0.22845 0.92319 0.09748 0.0
Co33 Co 0.2597 0.90766 0.0985 0.0
O34 O 0.23212 0.8973 0.13751 0.0
C35 C 0.26373 0.92641 0.96277 0.0
C36 C 0.27076 0.98032 0.0489 0.0
C37 C 0.22122 0.90539 0.1247 0.0
O38 O 0.25837 0.93869 0.9881 0.0
O39 O 0.26671 0.9141 -0.00072 0.0
O40 O 0.25911 0.95319 0.18261 0.0
O41 O 0.27008 0.93523 0.12897 0.0
Co42 Co 0.32972 0.09373 0.88742 0.0
O43 O 0.32885 0.06853 0.90654 0.0
O44 O 0.30352 0.07429 0.92785 0.0
C45 C 0.3433 0.09791 0.78184 0.0
O46 O 0.32561 0.11825 0.87287 0.0
Co47 Co 0.37204 0.13253 0.86236 0.0
O48 O 0.35464 0.14316 0.82649 0.0
C49 C 0.35968 0.11618 0.00202 0.0
C50 C 0.3108 0.06195 0.93138 0.0
C51 C 0.336 0.1357 0.84325 0.0
O52 O 0.3415 0.10394 0.98083 0.0
O53 O 0.37437 0.12761 0.96203 0.0
O54 O 0.32376 0.08647 0.79046 0.0
O55 O 0.35373 0.1047 0.83715 0.0
Co56 Co 0.95822 0.24568 0.88748 0.0
O57 O 0.9837 0.26959 0.90702 0.0
O58 O 0.97726 0.2383 0.92765 0.0
C59 C 0.95465 0.25561 0.782 0.0
O60 O 0.93339 0.21736 0.87199 0.0
Co61 Co 0.91991 0.25006 0.86134 0.0
O62 O 0.90901 0.22218 0.82454 0.0
C63 C 0.93553 0.25314 0.00186 0.0
C64 C 0.99008 0.25778 0.93054 0.0
C65 C 0.91611 0.21068 0.84146 0.0
O66 O 0.94794 0.24735 0.98076 0.0
O67 O 0.92428 0.25657 0.96148 0.0
O68 O 0.9657 0.24704 0.79081 0.0
O69 O 0.94778 0.25926 0.83717 0.0
Co70 Co 0.80797 0.72396 0.89247 0.0
O71 O 0.78398 0.72564 0.9101 0.0
O72 O 0.81518 0.75041 0.93177 0.0
C73 C 0.79848 0.71031 0.78706 0.0
O74 O 0.83633 0.72726 0.87888 0.0
Co75 Co 0.80326 0.68101 0.86936 0.0
O76 O 0.83154 0.69766 0.83516 0.0
C77 C 0.79927 0.69395 0.00793 0.0
C78 C 0.79567 0.74379 0.9337 0.0
C79 C 0.84306 0.7163 0.85104 0.0
O80 O 0.80591 0.71222 0.98632 0.0
O81 O 0.79556 0.67901 0.96848 0.0
O82 O 0.80702 0.72989 0.79532 0.0
O83 O 0.79455 0.69991 0.84262 0.0
Co84 Co 0.95932 0.72279 0.89176 0.0
O85 O 0.98446 0.72337 0.90805 0.0
O86 O 0.97945 0.74895 0.93141 0.0
C87 C 0.95458 0.70921 0.78613 0.0
O88 O 0.93469 0.72692 0.87906 0.0
Co89 Co 0.92053 0.68018 0.86914 0.0
O90 O 0.90963 0.69752 0.83509 0.0
C91 C 0.93768 0.69296 0.00737 0.0
C92 C 0.99174 0.74155 0.9322 0.0
C93 C 0.917 0.7162 0.85107 0.0
O94 O 0.94961 0.71112 0.98558 0.0
O95 O 0.9262 0.67808 0.96817 0.0
O96 O 0.96609 0.72873 0.79455 0.0
O97 O 0.94805 0.69881 0.84161 0.0
Co98 Co 0.33066 0.2455 0.89044 0.0
O99 O 0.32943 0.26974 0.90814 0.0
O100 O 0.30381 0.23862 0.92485 0.0
C101 C 0.34628 0.25573 0.7879 0.0
O102 O 0.32651 0.21687 0.87609 0.0
Co103 Co 0.3729 0.24822 0.87477 0.0
O104 O 0.35604 0.22062 0.83563 0.0
C105 C 0.35851 0.2523 0.01109 0.0
C106 C 0.31085 0.25817 0.92852 0.0
C107 C 0.3371 0.20969 0.84864 0.0
O108 O 0.34072 0.24649 0.9863 0.0
O109 O 0.37374 0.25545 0.97398 0.0
O110 O 0.3266 0.24757 0.79225 0.0
O111 O 0.35561 0.25869 0.84537 0.0
Co112 Co 0.80814 0.09449 0.89545 0.0
O113 O 0.78428 0.06896 0.91424 0.0
O114 O 0.8156 0.07484 0.92976 0.0
C115 C 0.79731 0.09932 0.79346 0.0
O116 O 0.83639 0.11937 0.87911 0.0
Co117 Co 0.80362 0.13309 0.88001 0.0
O118 O 0.83101 0.14417 0.83869 0.0
C119 C 0.80157 0.11562 0.01658 0.0
C120 C 0.79609 0.06215 0.93396 0.0
C121 C 0.84267 0.13689 0.85072 0.0
O122 O 0.80741 0.10372 -0.00878 0.0
O123 O 0.7976 0.12722 0.97995 0.0
O124 O 0.80584 0.08811 0.79755 0.0
O125 O 0.79425 0.10557 0.85097 0.0
Co126 Co 0.73589 0.94851 0.09323 0.0
O127 O 0.73764 0.97416 0.07529 0.0
O128 O 0.7625 0.96766 0.05458 0.0
C129 C 0.72193 0.94423 0.19803 0.0
O130 O 0.73901 0.92336 0.10745 0.0
Co131 Co 0.69273 0.91057 0.11344 0.0
O132 O 0.70909 0.89886 0.15009 0.0
C133 C 0.70643 0.9278 0.97577 0.0
C134 C 0.75581 0.98051 0.05187 0.0
C135 C 0.72783 0.90583 0.13578 0.0
O136 O 0.72452 0.93912 -0.0009 0.0
O137 O 0.69122 0.91644 0.01406 0.0
O138 O 0.74155 0.95524 0.19032 0.0
O139 O 0.71165 0.93795 0.14216 0.0
Co140 Co 0.10575 0.79619 0.09289 0.0
O141 O 0.08063 0.77165 0.07645 0.0
O142 O 0.0857 0.8023 0.05296 0.0
C143 C 0.11066 0.78744 0.19866 0.0
O144 O 0.13012 0.82497 0.10498 0.0
Co145 Co 0.14499 0.79314 0.11592 0.0
O146 O 0.15564 0.82137 0.14934 0.0
C147 C 0.1275 0.78793 0.97773 0.0
C148 C 0.07353 0.78267 0.05132 0.0
C149 C 0.14784 0.83231 0.13298 0.0
O150 O 0.11549 0.79416 -0.00088 0.0
O151 O 0.13918 0.78485 0.01727 0.0
O152 O 0.09902 0.79536 0.19023 0.0
O153 O 0.11728 0.78366 0.14317 0.0
Co154 Co 0.2563 0.31843 0.08088 0.0
O155 O 0.28066 0.31742 0.06316 0.0
O156 O 0.24965 0.29173 0.04563 0.0
C157 C 0.26643 0.33374 0.18395 0.0
O158 O 0.2276 0.31418 0.09525 0.0
Co159 Co 0.25905 0.36069 0.09882 0.0
O160 O 0.23127 0.3436 0.13648 0.0
C161 C 0.2637 0.34689 0.96222 0.0
C162 C 0.26924 0.29889 0.04238 0.0
C163 C 0.22037 0.32472 0.1228 0.0
O164 O 0.25735 0.32882 0.98534 0.0
O165 O 0.26701 0.36198 0.00025 0.0
O166 O 0.25829 0.31409 0.17907 0.0
O167 O 0.26936 0.34318 0.12677 0.0
Co168 Co 0.77197 0.65283 0.42281 0.0
O169 O 0.74652 0.65146 0.40399 0.0
O170 O 0.75222 0.62591 0.38806 0.0
C171 C 0.7769 0.66839 0.52517 0.0
O172 O 0.7967 0.64907 0.43865 0.0
Co173 Co 0.81088 0.69552 0.43883 0.0
O174 O 0.82182 0.67893 0.47918 0.0
C175 C 0.7932 0.68063 0.30207 0.0
C176 C 0.73967 0.63292 0.38365 0.0
C177 C 0.81432 0.66003 0.46668 0.0
O178 O 0.78127 0.66288 0.3271 0.0
O179 O 0.80494 0.696 0.33907 0.0
O180 O 0.76557 0.64871 0.52084 0.0
O181 O 0.78326 0.67771 0.46772 0.0
Co182 Co 0.4007 0.13053 0.41703 0.0
O183 O 0.40133 0.10608 0.39798 0.0
O184 O 0.42742 0.137 0.38197 0.0
C185 C 0.38506 0.12021 0.51946 0.0
O186 O 0.40523 0.15926 0.43249 0.0
Co187 Co 0.35857 0.12813 0.43278 0.0
O188 O 0.37566 0.15568 0.47198 0.0
C189 C 0.37311 0.12458 0.29624 0.0
C190 C 0.41983 0.1174 0.37667 0.0
C191 C 0.39463 0.16652 0.45949 0.0
O192 O 0.39078 0.13006 0.32139 0.0
O193 O 0.35781 0.12133 0.33314 0.0
O194 O 0.4047 0.12806 0.51497 0.0
O195 O 0.37575 0.11752 0.46207 0.0
Co196 Co 0.92349 0.28165 0.41711 0.0
O197 O 0.94749 0.307 0.39757 0.0
O198 O 0.91624 0.3014 0.38237 0.0
C199 C 0.93435 0.27691 0.51937 0.0
O200 O 0.89513 0.25702 0.43367 0.0
Co201 Co 0.92754 0.24281 0.43349 0.0
O202 O 0.89996 0.2318 0.47329 0.0
C203 C 0.92936 0.25989 0.29643 0.0
C204 C 0.93577 0.3139 0.37761 0.0
C205 C 0.88851 0.2393 0.46085 0.0
O206 O 0.92391 0.27211 0.32155 0.0
O207 O 0.93332 0.2483 0.33319 0.0
O208 O 0.92598 0.28825 0.51491 0.0
O209 O 0.93723 0.27043 0.462 0.0
Co210 Co 0.99687 0.42832 0.22452 0.0
O211 O 0.99525 0.40271 0.24181 0.0
O212 O 0.96995 0.40869 0.25982 0.0
C213 C 1.01213 0.43322 0.12152 0.0
O214 O 0.99348 0.4533 0.21038 0.0
Co215 Co 0.03994 0.46685 0.20743 0.0
O216 O 1.02351 0.47843 0.17058 0.0
C217 C 1.0255 0.44838 0.3434 0.0
C218 C 0.97678 0.39596 0.2628 0.0
C219 C 1.00465 0.4711 0.1838 0.0
O220 O 1.00733 0.43733 0.32005 0.0
O221 O 0.04084 0.45975 0.30567 0.0
O222 O 0.99242 0.42214 0.12632 0.0
O223 O 1.02159 0.43939 0.17874 0.0
Co224 Co 0.62581 0.58036 0.22513 0.0
O225 O 0.65162 0.6041 0.24178 0.0
O226 O 0.6449 0.57285 0.2645 0.0
C227 C 0.62148 0.58961 0.11972 0.0
O228 O 0.60045 0.55224 0.21227 0.0
Co229 Co 0.58808 0.58613 0.20256 0.0
O230 O 0.57609 0.5578 0.16853 0.0
C231 C 0.60518 0.58994 0.34063 0.0
C232 C 0.65794 0.5923 0.26576 0.0
C233 C 0.58285 0.54593 0.18433 0.0
O234 O 0.61646 0.58287 0.31895 0.0
O235 O 0.59412 0.59396 0.30134 0.0
O236 O 0.63239 0.58087 0.12787 0.0
O237 O 0.61541 0.59398 0.17528 0.0
Co238 Co 0.47375 0.05593 0.22976 0.0
O239 O 0.44928 0.05685 0.24472 0.0
O240 O 0.48 0.08275 0.2635 0.0
C241 C 0.4641 0.04041 0.1269 0.0
O242 O 0.50249 0.06002 0.21734 0.0
Co243 Co 0.47043 1.01328 0.21542 0.0
O244 O 0.4984 0.03014 0.17904 0.0
C245 C 0.46557 0.02783 0.35009 0.0
C246 C 0.46037 0.07552 0.26432 0.0
C247 C 0.50954 0.04908 0.19161 0.0
O248 O 0.4723 0.04586 0.32598 0.0
O249 O 0.46203 1.01246 0.31318 0.0
O250 O 0.47225 0.06007 0.13121 0.0
O251 O 0.46083 0.03109 0.18446 0.0
Co252 Co 0.62619 0.05692 0.22943 0.0
O253 O 0.65145 0.05796 0.24875 0.0
O254 O 0.64604 0.08373 0.2648 0.0
C255 C 0.62129 0.04141 0.12696 0.0
O256 O 0.60156 0.06083 0.21376 0.0
Co257 Co 0.58723 1.01419 0.21322 0.0
O258 O 0.57602 0.03085 0.17548 0.0
C259 C 0.60455 0.02921 0.35004 0.0
C260 C 0.6583 0.07639 0.27021 0.0
C261 C 0.58363 0.04978 0.18795 0.0
O262 O 0.61668 0.04688 0.32491 0.0
O263 O 0.59292 1.01373 0.31327 0.0
O264 O 0.63273 0.06108 0.13148 0.0
O265 O 0.61483 0.03206 0.18431 0.0
Co266 Co 0.99614 0.57964 0.22112 0.0
O267 O 0.99421 0.60347 0.23848 0.0
O268 O 0.96963 0.57222 0.26062 0.0
C269 C 1.00973 0.58905 0.11563 0.0
O270 O 0.99313 0.55143 0.20783 0.0
Co271 Co 0.03932 0.58478 0.19775 0.0
O272 O 1.02279 0.55651 0.16358 0.0
C273 C 1.02622 0.58842 0.33649 0.0
C274 C 0.9761 0.59168 0.26232 0.0
C275 C 1.00419 0.54486 0.17979 0.0
O276 O 1.00795 0.58184 0.31488 0.0
O277 O 0.04119 0.5922 0.29703 0.0
O278 O 0.99012 0.58042 0.12394 0.0
O279 O 1.02015 0.59316 0.17115 0.0
Co280 Co 0.47428 0.4286 0.22179 0.0
O281 O 0.45054 0.40283 0.23914 0.0
O282 O 0.48189 0.40959 0.26103 0.0
C283 C 0.46477 0.43274 0.11638 0.0
O284 O 0.50239 0.45394 0.20853 0.0
Co285 Co 0.46845 0.46626 0.19939 0.0
O286 O 0.49689 0.47847 0.16611 0.0
C287 C 0.46482 0.44923 0.33749 0.0
C288 C 0.46242 0.39659 0.26292 0.0
C289 C 0.50874 0.47165 0.18154 0.0
O290 O 0.47196 0.43804 0.31567 0.0
O291 O 0.46064 0.4602 0.29831 0.0
O292 O 0.47357 0.4219 0.12461 0.0
O293 O 0.46055 0.43894 0.17198 0.0
Co294 Co 0.40219 0.28265 0.42061 0.0
O295 O 0.40364 0.30824 0.40375 0.0
O296 O 0.42864 0.30208 0.38177 0.0
C297 C 0.38839 0.27804 0.52604 0.0
O298 O 0.40588 0.25783 0.43347 0.0
Co299 Co 0.35956 0.24406 0.44327 0.0
O300 O 0.37661 0.23293 0.47853 0.0
C301 C 0.37236 0.26126 0.30483 0.0
C302 C 0.42187 0.31487 0.38038 0.0
C303 C 0.39529 0.2403 0.46233 0.0
O304 O 0.39058 0.27312 0.32649 0.0
O305 O 0.3575 0.2498 0.34419 0.0
O306 O 0.40797 0.28927 0.51797 0.0
O307 O 0.37805 0.27168 0.47035 0.0
Co308 Co 0.77263 0.12997 0.42584 0.0
O309 O 0.74731 0.10562 0.41005 0.0
O310 O 0.75267 0.13631 0.38634 0.0
C311 C 0.77719 0.12105 0.53164 0.0
O312 O 0.79732 0.15861 0.43805 0.0
Co313 Co 0.8115 0.12633 0.45019 0.0
O314 O 0.82211 0.15436 0.48512 0.0
C315 C 0.79469 0.12193 0.3109 0.0
C316 C 0.74012 0.11674 0.38683 0.0
C317 C 0.81482 0.16563 0.46748 0.0
O318 O 0.78228 0.12769 0.33218 0.0
O319 O 0.80642 0.11904 0.35078 0.0
O320 O 0.76588 0.12932 0.52298 0.0
O321 O 0.78379 0.11714 0.47635 0.0
Co322 Co 0.92265 0.65203 0.42192 0.0
O323 O 0.94668 0.65059 0.403 0.0
O324 O 0.91545 0.62511 0.38694 0.0
C325 C 0.9333 0.66751 0.52419 0.0
O326 O 0.89427 0.64848 0.43791 0.0
Co327 Co 0.92673 0.69491 0.43775 0.0
O328 O 0.89922 0.67849 0.47807 0.0
C329 C 0.9296 0.67993 0.30131 0.0
C330 C 0.93499 0.63209 0.38239 0.0
C331 C 0.88774 0.65959 0.46585 0.0
O332 O 0.92344 0.66212 0.32638 0.0
O333 O 0.93341 0.69539 0.33822 0.0
O334 O 0.92492 0.64783 0.51982 0.0
O335 O 0.9363 0.67688 0.46681 0.0
Co336 Co 0.43818 0.98475 0.76 0.0
O337 O 0.41259 0.98312 0.74147 0.0
O338 O 0.41918 0.95833 0.72022 0.0
C339 C 0.44242 0.99846 0.86516 0.0
O340 O 0.46327 0.98152 0.77404 0.0
Co341 Co 0.47618 0.02782 0.78132 0.0
O342 O 0.48799 1.01136 0.81627 0.0
C343 C 0.45908 1.01452 0.64341 0.0
C344 C 0.40648 0.96517 0.71656 0.0
C345 C 0.48095 0.99265 0.80142 0.0
O346 O 0.44778 0.99637 0.66621 0.0
O347 O 0.47037 0.02963 0.6821 0.0
O348 O 0.4313 0.97887 0.8571 0.0
O349 O 0.44874 1.00883 0.80947 0.0
Co350 Co 0.06797 0.46219 0.75471 0.0
O351 O 0.06964 0.4382 0.73782 0.0
O352 O 0.09451 0.46935 0.71608 0.0
C353 C 0.05407 0.45294 0.85969 0.0
O354 O 0.07122 0.49053 0.76763 0.0
Co355 Co 1.02491 0.45741 0.77493 0.0
O356 O 0.04141 0.48556 0.81016 0.0
C357 C 0.03859 0.4539 0.6371 0.0
C358 C 0.08781 0.44984 0.7142 0.0
C359 C 0.06011 0.49715 0.79502 0.0
O360 O 0.05659 0.46013 0.66055 0.0
O361 O 1.02344 0.45034 0.67534 0.0
O362 O 0.07368 0.46136 0.85195 0.0
O363 O 0.04377 0.44884 0.80384 0.0
Co364 Co 0.5892 0.61503 0.75573 0.0
O365 O 0.61364 0.64038 0.74089 0.0
O366 O 0.58286 0.63557 0.72212 0.0
C367 C 0.59882 0.60901 0.85833 0.0
O368 O 0.56046 0.59047 0.76808 0.0
Co369 Co 0.59226 0.57559 0.76939 0.0
O370 O 0.56462 0.56487 0.80809 0.0
C371 C 0.59665 0.59472 0.63429 0.0
C372 C 0.60248 0.64794 0.72137 0.0
C373 C 0.55347 0.57268 0.79525 0.0
O374 O 0.59072 0.60656 0.65956 0.0
O375 O 0.59976 0.58249 0.67078 0.0
O376 O 0.59069 0.62058 0.85415 0.0
O377 O 0.60213 0.60299 0.80074 0.0
Co378 Co 0.66384 0.76163 0.56513 0.0
O379 O 0.66196 0.736 0.58444 0.0
O380 O 0.63687 0.74246 0.60123 0.0
C381 C 0.67903 0.76604 0.46215 0.0
O382 O 0.66087 0.78681 0.54936 0.0
Co383 Co 0.70726 0.79965 0.54756 0.0
O384 O 0.69122 0.81166 0.51057 0.0
C385 C 0.69256 0.78173 0.68388 0.0
C386 C 0.64366 0.72974 0.6064 0.0
C387 C 0.67235 0.8046 0.52311 0.0
O388 O 0.67437 0.77099 0.66046 0.0
O389 O 0.70804 0.79267 0.64607 0.0
O390 O 0.65932 0.75508 0.46709 0.0
O391 O 0.68851 0.77225 0.51933 0.0
Co392 Co 0.29325 0.91203 0.55399 0.0
O393 O 0.31866 0.93645 0.56887 0.0
O394 O 0.31321 0.90574 0.5933 0.0
C395 C 0.28827 0.92059 0.44816 0.0
O396 O 0.26867 0.88331 0.54307 0.0
Co397 Co 0.25405 0.91507 0.53022 0.0
O398 O 0.24357 0.88699 0.49575 0.0
C399 C 0.27144 0.92032 0.66895 0.0
C400 C 0.3258 0.9253 0.59248 0.0
C401 C 0.25117 0.876 0.51355 0.0
O402 O 0.28384 0.91454 0.64777 0.0
O403 O 0.2595 0.92293 0.62917 0.0
O404 O 0.2997 0.91244 0.45662 0.0
O405 O 0.2818 0.9246 0.50354 0.0
Co406 Co 0.14081 0.38873 0.5571 0.0
O407 O 0.11668 0.39011 0.57528 0.0
O408 O 0.14788 0.41563 0.59151 0.0
C409 C 0.13039 0.37312 0.45475 0.0
O410 O 0.16934 0.39262 0.54209 0.0
Co411 Co 0.13763 0.34629 0.54142 0.0
O412 O 0.16513 0.36298 0.50116 0.0
C413 C 0.13414 0.36095 0.67792 0.0
C414 C 0.12834 0.40866 0.59556 0.0
C415 C 0.17627 0.38188 0.51408 0.0
O416 O 0.13992 0.3787 0.65293 0.0
O417 O 0.1308 0.34565 0.64092 0.0
O418 O 0.13865 0.3928 0.459 0.0
O419 O 0.12742 0.3638 0.51225 0.0
Co420 Co 0.29266 0.38977 0.5507 0.0
O421 O 0.31833 0.39149 0.56892 0.0
O422 O 0.31174 0.41632 0.58895 0.0
C423 C 0.28821 0.37572 0.44592 0.0
O424 O 0.26772 0.39321 0.53688 0.0
Co425 Co 0.25423 0.3471 0.53004 0.0
O426 O 0.24285 0.36376 0.49318 0.0
C427 C 0.2712 0.36056 0.66837 0.0
C428 C 0.32461 0.40968 0.59204 0.0
C429 C 0.25016 0.38247 0.50845 0.0
O430 O 0.28316 0.3785 0.64494 0.0
O431 O 0.25955 0.34551 0.62998 0.0
O432 O 0.29937 0.39532 0.45351 0.0
O433 O 0.28185 0.36547 0.50187 0.0
Co434 Co 0.66468 0.9137 0.56289 0.0
O435 O 0.66291 0.93764 0.57996 0.0
O436 O 0.63771 0.90642 0.59798 0.0
C437 C 0.67995 0.92398 0.45986 0.0
O438 O 0.66149 0.88541 0.54887 0.0
Co439 Co 0.7079 0.91837 0.54606 0.0
O440 O 0.6916 0.89043 0.50909 0.0
C441 C 0.69325 0.92206 0.68213 0.0
C442 C 0.64443 0.92593 0.60079 0.0
C443 C 0.67276 0.87885 0.52232 0.0
O444 O 0.67512 0.91513 0.65857 0.0
O445 O 0.70864 0.92607 0.64453 0.0
O446 O 0.66024 0.91538 0.46459 0.0
O447 O 0.6894 0.92734 0.51714 0.0
Co448 Co 0.14187 0.76079 0.56289 0.0
O449 O 0.11756 0.73545 0.58019 0.0
O450 O 0.1486 0.74064 0.59704 0.0
C451 C 0.13174 0.76637 0.46044 0.0
O452 O 0.17054 0.78518 0.54873 0.0
Co453 Co 0.13904 0.80029 0.54759 0.0
O454 O 0.16667 0.81094 0.50862 0.0
C455 C 0.13524 0.78187 0.68388 0.0
C456 C 0.12902 0.72827 0.6004 0.0
C457 C 0.17766 0.80295 0.52147 0.0
O458 O 0.14088 0.76977 0.65888 0.0
O459 O 0.13207 0.79398 0.64692 0.0
O460 O 0.13986 0.75479 0.46462 0.0
O461 O 0.12873 0.77265 0.51798 0.0
Co462 Co 0.06725 0.61361 0.75139 0.0
O463 O 0.06885 0.6392 0.73374 0.0
O464 O 0.09424 0.63328 0.71696 0.0
C465 C 0.05169 0.60856 0.85381 0.0
O466 O 0.07075 0.58869 0.76588 0.0
Co467 Co 1.02436 0.57493 0.7666 0.0
O468 O 0.0407 0.56344 0.80481 0.0
C469 C 0.03938 0.5931 0.63047 0.0
C470 C 0.08738 0.64597 0.71333 0.0
C471 C 0.0596 0.57085 0.79219 0.0
O472 O 0.05719 0.6047 0.6556 0.0
O473 O 1.02393 0.58138 0.66728 0.0
O474 O 0.07141 0.61971 0.84953 0.0
O475 O 0.04235 0.6024 0.79633 0.0
Co476 Co 0.43819 0.46363 0.75184 0.0
O477 O 0.41284 0.43939 0.73409 0.0
O478 O 0.41819 0.47045 0.71685 0.0
C479 C 0.44348 0.4534 0.85442 0.0
O480 O 0.46269 0.49221 0.76652 0.0
Co481 Co 0.47748 0.46038 0.76772 0.0
O482 O 0.4882 0.48797 0.80687 0.0
C483 C 0.45931 0.45683 0.63134 0.0
C484 C 0.40577 0.45089 0.71333 0.0
C485 C 0.48041 0.49913 0.7941 0.0
O486 O 0.44735 0.46267 0.65621 0.0
O487 O 0.47127 0.45347 0.66835 0.0
O488 O 0.43196 0.46158 0.84995 0.0
O489 O 0.44984 0.45038 0.79704 0.0
Co490 Co 0.59057 0.98618 0.75918 0.0
O491 O 0.61464 0.98474 0.7402 0.0
O492 O 0.58346 0.95982 0.71919 0.0
C493 C 0.6003 0.9997 0.86467 0.0
O494 O 0.56212 0.98256 0.77401 0.0
Co495 Co 0.59466 0.02874 0.78481 0.0
O496 O 0.56664 1.01173 0.82051 0.0
C497 C 0.59807 1.01622 0.64459 0.0
C498 C 0.60299 0.96659 0.71656 0.0
C499 C 0.55525 0.99317 0.80345 0.0
O500 O 0.5923 0.99806 0.66577 0.0
O501 O 0.60137 0.03086 0.68484 0.0
O502 O 0.59185 0.98014 0.85604 0.0
O503 O 0.60395 1.01016 0.80939 0.0
C504 C 0.16714 0.31062 0.07362 0.0
C505 C 0.16045 0.31574 0.13367 0.0
C506 C 0.18581 0.31079 0.07222 0.0
C507 C 0.1982 0.31607 0.13085 0.0
H508 H 0.15909 0.30868 0.0259 0.0
H509 H 0.19153 0.30898 0.02347 0.0
S510 S 0.18491 0.3255 0.30413 0.0
N511 N 0.16573 0.32241 0.25555 0.0
N512 N 0.20072 0.32274 0.2529 0.0
C513 C 0.19041 0.31869 0.19276 0.0
C514 C 0.17152 0.31852 0.19419 0.0
C515 C 0.74275 0.86689 0.08937 0.0
C516 C 0.7352 0.85373 0.14614 0.0
C517 C 0.74291 0.88556 0.08903 0.0
C518 C 0.73553 0.8915 0.14545 0.0
H519 H 0.7465 0.86182 0.04257 0.0
H520 H 0.74676 0.89426 0.04196 0.0
S521 S 0.7186 0.86456 0.31154 0.0
N522 N 0.72358 0.84957 0.26391 0.0
N523 N 0.7239 0.88449 0.26328 0.0
C524 C 0.73035 0.87961 0.20512 0.0
C525 C 0.73017 0.86073 0.20545 0.0
C526 C 0.16773 0.86646 0.07856 0.0
C527 C 0.16155 0.85452 0.13839 0.0
C528 C 0.1863 0.88498 0.07647 0.0
C529 C 0.19909 0.89201 0.13418 0.0
H530 H 0.15939 0.86042 0.03131 0.0
H531 H 0.19166 0.8926 0.02766 0.0
S532 S 0.18731 0.86879 0.30686 0.0
N533 N 0.1678 0.85284 0.25937 0.0
N534 N 0.20256 0.88753 0.25541 0.0
C535 C 0.19178 0.88146 0.19613 0.0
C536 C 0.17301 0.86271 0.19825 0.0
C537 C 0.32233 0.15622 0.89693 0.0
C538 C 0.32776 0.14965 0.83726 0.0
C539 C 0.32267 0.17496 0.89833 0.0
C540 C 0.32844 0.18755 0.84009 0.0
H541 H 0.32003 0.14802 0.94453 0.0
H542 H 0.3206 0.18056 0.94693 0.0
S543 S 0.33878 0.17466 0.66749 0.0
N544 N 0.33518 0.15526 0.71583 0.0
N545 N 0.33588 0.1904 0.71852 0.0
C546 C 0.33135 0.17989 0.77836 0.0
C547 C 0.33098 0.16092 0.77692 0.0
C548 C 0.8784 0.15705 0.89348 0.0
C549 C 0.86458 0.1509 0.83849 0.0
C550 C 0.89689 0.17567 0.89116 0.0
C551 C 0.90196 0.18857 0.83383 0.0
H552 H 0.87396 0.1486 0.94109 0.0
H553 H 0.90609 0.18093 0.93707 0.0
S554 S 0.87307 0.177 0.67128 0.0
N555 N 0.85888 0.15735 0.72117 0.0
N556 N 0.89347 0.19215 0.71673 0.0
C557 C 0.88943 0.18128 0.77571 0.0
C558 C 0.87075 0.16247 0.77808 0.0
C559 C 0.87198 0.71856 0.78473 0.0
C560 C 0.86518 0.72415 0.84338 0.0
C561 C 0.8905 0.71865 0.78462 0.0
C562 C 0.90291 0.72428 0.84324 0.0
H563 H 0.86207 0.71231 0.74068 0.0
H564 H 0.89419 0.71244 0.74052 0.0
S565 S 0.89351 0.74322 0.00619 0.0
N566 N 0.87349 0.73802 0.95845 0.0
N567 N 0.90839 0.73811 0.95835 0.0
C568 C 0.89744 0.73211 0.89945 0.0
C569 C 0.87849 0.73206 0.89951 0.0
C570 C 0.85222 0.64374 0.42088 0.0
C571 C 0.86573 0.65162 0.47661 0.0
C572 C 0.83367 0.64386 0.42108 0.0
C573 C 0.82824 0.65187 0.47701 0.0
H574 H 0.85694 0.63958 0.37416 0.0
H575 H 0.82474 0.63979 0.37452 0.0
S576 S 0.8562 0.66981 0.64095 0.0
N577 N 0.87071 0.66415 0.59333 0.0
N578 N 0.83605 0.66439 0.59371 0.0
C579 C 0.84044 0.65732 0.53598 0.0
C580 C 0.85917 0.65719 0.53578 0.0
C581 C 0.40907 0.20115 0.40922 0.0
C582 C 0.40331 0.18867 0.46773 0.0
C583 C 0.40916 0.21977 0.40984 0.0
C584 C 0.40347 0.22632 0.46898 0.0
H585 H 0.41131 0.19552 0.36093 0.0
H586 H 0.41149 0.22789 0.36203 0.0
S587 S 0.39228 0.20159 0.63925 0.0
N588 N 0.39556 0.18593 0.58904 0.0
N589 N 0.39576 0.22083 0.59026 0.0
C590 C 0.40023 0.21518 0.52963 0.0
C591 C 0.40013 0.19633 0.52899 0.0
C592 C 0.86017 0.21319 0.53016 0.0
C593 C 0.86647 0.22535 0.47097 0.0
C594 C 0.84171 0.1948 0.5318 0.0
C595 C 0.82889 0.1878 0.47416 0.0
H596 H 0.87044 0.21699 0.57326 0.0
H597 H 0.83838 0.18507 0.57621 0.0
S598 S 0.83692 0.21558 0.31063 0.0
N599 N 0.85725 0.23053 0.35673 0.0
N600 N 0.82247 0.19577 0.35962 0.0
C601 C 0.83386 0.20091 0.41759 0.0
C602 C 0.85273 0.21977 0.41602 0.0
C603 C 1.00264 0.51606 0.11494 0.0
C604 C 0.99657 0.52279 0.17263 0.0
C605 C 1.00272 0.49765 0.11589 0.0
C606 C 0.99671 0.48524 0.17452 0.0
H607 H 1.00912 0.52596 0.07096 0.0
H608 H 1.00929 0.49399 0.07266 0.0
S609 S 0.97645 0.49442 0.33491 0.0
N610 N 0.98188 0.5144 0.28667 0.0
N611 N 0.98203 0.47965 0.28841 0.0
C612 C 0.98841 0.49062 0.2296 0.0
C613 C 0.98833 0.50948 0.22866 0.0
C614 C 0.55569 0.51767 0.11754 0.0
C615 C 0.56832 0.52393 0.17566 0.0
C616 C 0.53729 0.49921 0.1168 0.0
C617 C 0.53078 0.48628 0.17414 0.0
H618 H 0.55921 0.52791 0.07448 0.0
H619 H 0.52726 0.49588 0.07323 0.0
S620 S 0.55969 0.49421 0.33505 0.0
N621 N 0.57429 0.51463 0.28873 0.0
N622 N 0.53956 0.47979 0.28733 0.0
C623 C 0.54426 0.49126 0.22965 0.0
C624 C 0.56311 0.51017 0.23041 0.0
C625 C 0.55681 0.05188 0.12222 0.0
C626 C 0.56954 0.05784 0.18005 0.0
C627 C 0.53824 0.05168 0.12326 0.0
C628 C 0.53167 0.05741 0.18217 0.0
H629 H 0.56032 0.04547 0.07821 0.0
H630 H 0.52807 0.04514 0.07996 0.0
S631 S 0.56083 0.0773 0.34307 0.0
N632 N 0.57557 0.07216 0.29453 0.0
N633 N 0.54051 0.07176 0.29648 0.0
C634 C 0.54528 0.06565 0.23739 0.0
C635 C 0.5643 0.06587 0.23632 0.0
C636 C 0.50765 0.99072 0.86855 0.0
C637 C 0.4953 0.98492 0.8098 0.0
C638 C 0.52617 0.99083 0.86908 0.0
C639 C 0.53309 0.98518 0.81082 0.0
H640 H 0.50384 0.99696 0.91231 0.0
H641 H 0.53601 0.99715 0.91325 0.0
S642 S 0.50493 0.9657 0.64788 0.0
N643 N 0.48996 0.97084 0.69509 0.0
N644 N 0.52493 0.97108 0.696 0.0
C645 C 0.51984 0.97713 0.75456 0.0
C646 C 0.50087 0.977 0.75406 0.0
C647 C 0.0615 0.54424 0.85983 0.0
C648 C 0.0676 0.55675 0.80147 0.0
C649 C 0.06162 0.52584 0.8605 0.0
C650 C 0.06782 0.51923 0.80278 0.0
H651 H 0.05483 0.54778 0.90299 0.0
H652 H 0.05506 0.51584 0.90421 0.0
S653 S 0.08822 0.54794 0.64125 0.0
N654 N 0.08252 0.56259 0.68789 0.0
N655 N 0.08272 0.52786 0.6891 0.0
C656 C 0.07615 0.53265 0.74709 0.0
C657 C 0.07604 0.5515 0.74644 0.0
C658 C 0.49984 0.53442 0.74727 0.0
C659 C 0.49404 0.52122 0.80397 0.0
C660 C 0.51831 0.55307 0.74759 0.0
C661 C 0.53137 0.55895 0.80465 0.0
H662 H 0.49129 0.52934 0.69997 0.0
H663 H 0.52339 0.56173 0.7005 0.0
S664 S 0.52073 0.53187 0.97064 0.0
N665 N 0.50098 0.51695 0.92221 0.0
N666 N 0.5355 0.55186 0.92288 0.0
C667 C 0.52439 0.54707 0.86426 0.0
C668 C 0.50574 0.5282 0.8639 0.0
C669 C 0.67171 0.85049 0.45611 0.0
C670 C 0.66501 0.8568 0.51329 0.0
C671 C 0.67161 0.83198 0.45629 0.0
C672 C 0.66479 0.81906 0.51364 0.0
H673 H 0.6788 0.86076 0.41337 0.0
H674 H 0.67863 0.82863 0.4137 0.0
S675 S 0.6427 0.82706 0.6718 0.0
N676 N 0.6489 0.84751 0.62509 0.0
N677 N 0.6487 0.81258 0.62541 0.0
C678 C 0.65589 0.82406 0.56789 0.0
C679 C 0.656 0.84302 0.56772 0.0
C680 C 0.21248 0.82344 0.57027 0.0
C681 C 0.19978 0.81641 0.51234 0.0
C682 C 0.23108 0.84192 0.56829 0.0
C683 C 0.23739 0.8538 0.50834 0.0
H684 H 0.20703 0.81585 0.61908 0.0
H685 H 0.23936 0.84797 0.61565 0.0
S686 S 0.21193 0.8394 0.33936 0.0
N687 N 0.19653 0.82075 0.39088 0.0
N688 N 0.23139 0.85536 0.38706 0.0
C689 C 0.22603 0.84557 0.44832 0.0
C690 C 0.2072 0.82688 0.45035 0.0
C691 C 0.22975 0.39639 0.56136 0.0
C692 C 0.23604 0.39049 0.5021 0.0
C693 C 0.21112 0.39628 0.56277 0.0
C694 C 0.19836 0.39028 0.50494 0.0
H695 H 0.23811 0.39895 0.60874 0.0
H696 H 0.20572 0.39874 0.6112 0.0
S697 S 0.21057 0.37872 0.3331 0.0
N698 N 0.23002 0.38234 0.38123 0.0
N699 N 0.1951 0.38213 0.3839 0.0
C700 C 0.20575 0.38687 0.44345 0.0
C701 C 0.22461 0.38698 0.44202 0.0
C702 C 0.04055 0.29723 0.00556 0.0
C703 C 0.051 0.28658 0.01823 0.0
C704 C 1.02101 0.28763 0.9775 0.0
C705 C 1.01076 0.2668 0.96116 0.0
H706 H 0.04756 0.31333 0.01676 0.0
H707 H 1.01387 0.29676 0.96886 0.0
S708 S 1.03107 0.23166 0.9851 0.0
N709 N 0.04956 0.25384 0.01258 0.0
N710 N 1.01246 0.23561 0.96035 0.0
C711 C 1.02083 0.25576 0.97408 0.0
C712 C 0.04103 0.26569 0.00229 0.0
C713 C 0.76548 0.74476 0.97844 0.0
C714 C 0.78646 0.75534 0.96409 0.0
C715 C 0.75576 0.75447 0.0075 0.0
C716 C 0.76643 0.77534 0.02328 0.0
H717 H 0.75633 0.72865 0.96771 0.0
H718 H 0.73957 0.74539 0.01724 0.0
S719 S 0.82161 0.81031 -0.00502 0.0
N720 N 0.81774 0.78804 0.96755 0.0
N721 N 0.79927 0.80649 0.02166 0.0
C722 C 0.78742 0.7863 0.00875 0.0
C723 C 0.79748 0.77626 0.97949 0.0
C724 C 0.26919 1.00951 -0.00846 0.0
C725 C 0.28055 1.00174 0.0239 0.0
C726 C 0.27882 0.0293 0.96338 0.0
C727 C 0.30012 0.04185 0.966 0.0
H728 H 0.25285 1.0001 0.98653 0.0
H729 H 0.26963 0.03453 0.93748 0.0
S730 S 0.33656 0.02987 0.05208 0.0
N731 N 0.3142 1.0092 0.06204 0.0
N732 N 0.332 0.04584 0.00876 0.0
C733 C 0.31147 0.03456 0.0005 0.0
C734 C 0.30177 1.01467 0.02952 0.0
C735 C 1.02192 0.77284 0.98335 0.0
C736 C 1.01279 0.75247 0.96099 0.0
C737 C 0.04174 0.78285 0.01152 0.0
C738 C 0.05298 0.77273 0.01917 0.0
H739 H 1.01371 0.78109 0.97923 0.0
H740 H 0.04813 0.79844 0.0285 0.0
S741 S 0.0365 0.71969 0.96592 0.0
N742 N 1.01711 0.7229 0.94676 0.0
N743 N 0.05379 0.74149 -0.00077 0.0
C744 C 0.0441 0.7525 -0.00389 0.0
C745 C 1.02418 0.74244 0.96721 0.0
C746 C 0.30969 0.28834 0.9725 0.0
C747 C 0.29916 0.26742 0.95742 0.0
C748 C 0.29976 0.29804 0.00015 0.0
C749 C 0.27873 0.28739 0.01373 0.0
H750 H 0.3259 0.29745 0.96333 0.0
H751 H 0.3088 0.31418 0.01045 0.0
S752 S 0.24391 0.2323 0.9838 0.0
N753 N 0.26639 0.23618 0.95858 0.0
N754 N 0.24757 0.25459 0.01006 0.0
C755 C 0.26787 0.26643 -0.0011 0.0
C756 C 0.27811 0.25641 0.97104 0.0
C757 C 0.7658 0.03009 0.97219 0.0
C758 C 0.78701 0.04118 0.96236 0.0
C759 C 0.7562 1.01062 0.0006 0.0
C760 C 0.76722 1.00105 0.02031 0.0
H761 H 0.75635 0.03654 0.95853 0.0
H762 H 0.73983 1.003 0.00697 0.0
S763 S 0.82308 0.02303 0.00424 0.0
N764 N 0.81887 0.04096 0.97388 0.0
N765 N 0.8006 1.00395 0.02686 0.0
C766 C 0.78843 1.01167 0.00985 0.0
C767 C 0.79836 0.03182 0.98118 0.0
C768 C 0.68933 0.62247 0.3085 0.0
C769 C 0.67872 0.6014 0.29579 0.0
C770 C 0.70881 0.63215 0.33693 0.0
C771 C 0.71887 0.62137 0.35374 0.0
H772 H 0.68252 0.63173 0.2969 0.0
H773 H 0.71607 0.64841 0.3453 0.0
S774 S 0.69806 0.56592 0.3302 0.0
N775 N 0.67976 0.56991 0.30214 0.0
N776 N 0.71678 0.58831 0.35511 0.0
C777 C 0.70861 0.60028 0.34102 0.0
C778 C 0.68846 0.59026 0.31236 0.0
C779 C 0.46171 0.10623 0.32125 0.0
C780 C 0.45054 0.08727 0.28808 0.0
C781 C 0.45195 0.11644 0.34826 0.0
C782 C 0.43069 0.1079 0.34358 0.0
H783 H 0.47801 0.11299 0.32779 0.0
H784 H 0.46099 0.13073 0.37481 0.0
S785 S 0.3948 0.06005 0.25423 0.0
N786 N 0.41716 0.06152 0.24672 0.0
N787 N 0.39912 0.08045 0.2977 0.0
C788 C 0.41955 0.08945 0.30811 0.0
C789 C 0.42939 0.07921 0.28033 0.0
C790 C 0.96585 0.34493 0.33241 0.0
C791 C 0.94496 0.33474 0.34818 0.0
C792 C 0.97562 0.36448 0.30468 0.0
C793 C 0.9651 0.37505 0.2916 0.0
H794 H 0.97492 0.33772 0.34117 0.0
H795 H 0.99174 0.37139 0.29395 0.0
S796 S 0.91012 0.35538 0.32335 0.0
N797 N 0.91386 0.33666 0.34821 0.0
N798 N 0.93243 0.37382 0.29646 0.0
C799 C 0.94416 0.36517 0.30706 0.0
C800 C 0.93405 0.34495 0.33507 0.0
C801 C 0.71122 0.11817 0.32623 0.0
C802 C 0.71873 0.10699 0.36132 0.0
C803 C 0.69136 0.10848 0.29839 0.0
C804 C 0.6785 0.08729 0.30416 0.0
H805 H 0.72085 0.1344 0.31898 0.0
H806 H 0.68631 0.1175 0.27041 0.0
S807 S 0.68975 0.05145 0.39804 0.0
N808 N 0.71069 0.07371 0.40522 0.0
N809 N 0.67397 0.05581 0.35274 0.0
C810 C 0.68555 0.07617 0.34136 0.0
C811 C 0.7055 0.08592 0.36995 0.0
C812 C 0.96497 0.63147 0.334 0.0
C813 C 0.94423 0.62061 0.35177 0.0
C814 C 0.97476 0.62184 0.305 0.0
C815 C 0.96443 0.60077 0.29265 0.0
H816 H 0.97388 0.64775 0.34209 0.0
H817 H 0.99077 0.63116 0.2927 0.0
S818 S 0.90988 0.5651 0.32936 0.0
N819 N 0.91346 0.58748 0.35431 0.0
N820 N 0.93208 0.56917 0.30024 0.0
C821 C 0.94364 0.58955 0.31007 0.0
C822 C 0.9335 0.59951 0.33932 0.0
C823 C 0.43279 0.36617 0.31307 0.0
C824 C 0.45341 0.37596 0.29381 0.0
C825 C 0.42311 0.34667 0.34132 0.0
C826 C 0.43345 0.33577 0.35129 0.0
H827 H 0.4239 0.37366 0.30662 0.0
H828 H 0.40719 0.34004 0.35482 0.0
S829 S 0.48772 0.35441 0.30968 0.0
N830 N 0.48408 0.37337 0.28722 0.0
N831 N 0.46569 0.33632 0.33979 0.0
C832 C 0.45414 0.3453 0.33248 0.0
C833 C 0.46417 0.36547 0.30408 0.0
C834 C 0.35415 0.92366 0.65572 0.0
C835 C 0.34706 0.93494 0.61899 0.0
C836 C 0.37374 0.93323 0.68548 0.0
C837 C 0.38672 0.9544 0.68014 0.0
H838 H 0.34436 0.90745 0.66295 0.0
H839 H 0.37845 0.92416 0.71481 0.0
S840 S 0.37672 0.99042 0.58207 0.0
N841 N 0.35574 0.96824 0.57349 0.0
N842 N 0.39196 0.98596 0.63009 0.0
C843 C 0.38015 0.96562 0.64119 0.0
C844 C 0.36048 0.95597 0.61047 0.0
C845 C 0.08867 0.41953 0.67035 0.0
C846 C 0.09928 0.44056 0.68371 0.0
C847 C 0.09832 0.40971 0.64161 0.0
C848 C 0.11915 0.42032 0.62515 0.0
H849 H 0.07259 0.41041 0.68176 0.0
H850 H 0.08923 0.39348 0.63283 0.0
S851 S 0.15411 0.47565 0.64966 0.0
N852 N 0.13191 0.47186 0.6778 0.0
N853 N 0.15025 0.45321 0.62429 0.0
C854 C 0.13011 0.44139 0.63824 0.0
C855 C 0.12013 0.45154 0.6672 0.0
C856 C 0.60137 0.67688 0.66018 0.0
C857 C 0.61224 0.66948 0.69775 0.0
C858 C 0.61128 0.69675 0.6325 0.0
C859 C 0.63237 0.70971 0.64103 0.0
H860 H 0.58528 0.6671 0.65037 0.0
H861 H 0.60258 0.70169 0.60218 0.0
S862 S 0.6672 0.69883 0.74285 0.0
N863 N 0.64495 0.67776 0.74766 0.0
N864 N 0.6633 0.71452 0.69524 0.0
C865 C 0.64311 0.7028 0.68106 0.0
C866 C 0.63313 0.68285 0.70951 0.0
C867 C 0.37358 0.42016 0.67811 0.0
C868 C 0.38485 0.44148 0.68428 0.0
C869 C 0.35424 0.41031 0.64856 0.0
C870 C 0.34502 0.42122 0.6242 0.0
H871 H 0.3798 0.41081 0.69556 0.0
H872 H 0.34642 0.39387 0.64507 0.0
S873 S 0.36765 0.47729 0.62858 0.0
N874 N 0.38521 0.47331 0.66367 0.0
N875 N 0.34846 0.4546 0.6088 0.0
C876 C 0.35583 0.44254 0.63089 0.0
C877 C 0.37582 0.4527 0.66061 0.0
C878 C 0.64295 0.95622 0.64142 0.0
C879 C 0.63261 0.93513 0.62916 0.0
C880 C 0.63307 0.96593 0.66927 0.0
C881 C 0.61225 0.95513 0.68589 0.0
H882 H 0.65902 0.96549 0.6301 0.0
H883 H 0.64198 0.98219 0.6776 0.0
S884 S 0.57783 0.89965 0.66298 0.0
N885 N 0.60015 0.90363 0.63538 0.0
N886 N 0.58138 0.92206 0.68727 0.0
C887 C 0.6015 0.93404 0.67326 0.0
C888 C 0.61172 0.924 0.6452 0.0
C889 C 0.0886 0.67729 0.66921 0.0
C890 C 0.09913 0.66687 0.68444 0.0
C891 C 0.09852 0.6969 0.64186 0.0
C892 C 0.11957 0.70727 0.62868 0.0
H893 H 0.07236 0.67023 0.67806 0.0
H894 H 0.08946 0.70402 0.63149 0.0
S895 S 0.15445 0.68694 0.65924 0.0
N896 N 0.13194 0.66835 0.68392 0.0
N897 N 0.15078 0.7056 0.63296 0.0
C898 C 0.13045 0.69715 0.64365 0.0
C899 C 0.1202 0.67688 0.67123 0.0
C900 C 0.12501 0.33853 0.78108 0.0
C901 C 0.13143 0.35793 0.75309 0.0
C902 C 0.12278 0.33517 0.85168 0.0
C903 C 0.12704 0.35109 0.89739 0.0
H904 H 0.12182 0.32574 0.7484 0.0
H905 H 0.11814 0.32003 0.87057 0.0
S906 S 0.14266 0.40438 0.85121 0.0
N907 N 0.14082 0.39309 0.77726 0.0
N908 N 0.13677 0.3867 0.91011 0.0
C909 C 0.133 0.37046 0.87045 0.0
C910 C 0.13514 0.3739 0.79835 0.0
C911 C 0.68375 0.78212 0.87427 0.0
C912 C 0.70231 0.78561 0.9027 0.0
C913 C 0.68051 0.78034 0.80349 0.0
C914 C 0.69576 0.78216 0.75841 0.0
H915 H 0.67168 0.78111 0.90668 0.0
H916 H 0.66616 0.77812 0.78391 0.0
S917 S 0.74612 0.78883 0.80622 0.0
N918 N 0.73549 0.78899 0.87976 0.0
N919 N 0.7294 0.78591 0.74677 0.0
C920 C 0.71411 0.78494 0.78593 0.0
C921 C 0.71738 0.78659 0.85802 0.0
C922 C 0.27575 0.91569 0.86035 0.0
C923 C 0.26631 0.9261 0.88769 0.0
C924 C 0.27775 0.91435 0.78976 0.0
C925 C 0.27026 0.92321 0.74337 0.0
H926 H 0.28158 0.90835 0.89365 0.0
H927 H 0.28485 0.90587 0.77157 0.0
S928 S 0.24539 0.9533 0.78815 0.0
N929 N 0.25018 0.94626 0.86254 0.0
N930 N 0.25394 0.94372 0.7297 0.0
C931 C 0.26122 0.93412 0.76983 0.0
C932 C 0.25927 0.93559 0.84193 0.0
C933 C 0.34731 0.11193 0.12249 0.0
C934 C 0.36356 0.1177 0.07657 0.0
C935 C 0.35058 0.11413 0.19313 0.0
C936 C 0.37023 0.12203 0.22102 0.0
H937 H 0.33192 0.10603 0.10378 0.0
H938 H 0.33751 0.10964 0.22598 0.0
S939 S 0.41783 0.13791 0.12265 0.0
N940 N 0.39992 0.13065 0.0638 0.0
N941 N 0.40613 0.13472 0.19666 0.0
C942 C 0.38659 0.12735 0.17564 0.0
C943 C 0.38325 0.12523 0.10351 0.0
C944 C 0.9433 0.25171 0.1932 0.0
C945 C 0.93097 0.25889 0.22129 0.0
C946 C 0.94483 0.25017 0.12243 0.0
C947 C 0.93397 0.25557 0.07663 0.0
H948 H 0.95194 0.2473 0.22613 0.0
H949 H 0.95453 0.2445 0.10374 0.0
S950 S 0.89938 0.27518 0.12452 0.0
N951 N 0.90765 0.27148 0.19821 0.0
N952 N 0.91043 0.26857 0.06508 0.0
C953 C 0.92162 0.2629 0.10415 0.0
C954 C 0.92017 0.26458 0.1764 0.0
C955 C 0.80717 0.70279 0.19866 0.0
C956 C 0.79377 0.68355 0.22681 0.0
C957 C 0.80852 0.70606 0.12801 0.0
C958 C 0.79667 0.6902 0.0824 0.0
H959 H 0.81691 0.71552 0.23126 0.0
H960 H 0.81931 0.72108 0.10901 0.0
S961 S 0.758 0.63732 0.12898 0.0
N962 N 0.76747 0.64861 0.2029 0.0
N963 N 0.77022 0.65482 0.06992 0.0
C964 C 0.78288 0.67098 0.10949 0.0
C965 C 0.78137 0.66764 0.18165 0.0
C966 C 0.94026 0.70524 0.127 0.0
C967 C 0.93642 0.68932 0.08183 0.0
C968 C 0.93811 0.70203 0.19765 0.0
C969 C 0.93218 0.6828 0.22615 0.0
H970 H 0.94452 0.72023 0.10764 0.0
H971 H 0.94096 0.71479 0.22995 0.0
S972 S 0.92219 0.63649 0.12949 0.0
N973 N 0.9276 0.65393 0.07008 0.0
N974 N 0.92372 0.64783 0.20308 0.0
C975 C 0.92887 0.66685 0.18141 0.0
C976 C 0.93093 0.67012 0.10927 0.0
C977 C 0.38091 0.26103 0.11422 0.0
C978 C 0.36164 0.25526 0.08617 0.0
C979 C 0.38433 0.26343 0.18477 0.0
C980 C 0.3686 0.25998 0.23036 0.0
H981 H 0.39351 0.26355 0.08163 0.0
H982 H 0.39932 0.26752 0.20378 0.0
S983 S 0.31585 0.24647 0.18391 0.0
N984 N 0.32691 0.24751 0.1101 0.0
N985 N 0.33341 0.25183 0.24287 0.0
C986 C 0.3494 0.25472 0.20333 0.0
C987 C 0.34591 0.25242 0.13128 0.0
C988 C 0.78919 0.12572 0.11957 0.0
C989 C 0.79951 0.11624 0.0918 0.0
C990 C 0.78742 0.12712 0.19026 0.0
C991 C 0.796 0.11924 0.23634 0.0
H992 H 0.78242 0.1322 0.08654 0.0
H993 H 0.77952 0.13479 0.20871 0.0
S994 S 0.82391 0.09218 0.19019 0.0
N995 N 0.81796 0.09828 0.11609 0.0
N996 N 0.81461 0.10089 0.24907 0.0
C997 C 0.80607 0.10939 0.20939 0.0
C998 C 0.80781 0.10787 0.13719 0.0
C999 C 0.68103 0.91169 0.80176 0.0
C1000 C 0.69647 0.92476 0.75666 0.0
C1001 C 0.68431 0.91296 0.8725 0.0
C1002 C 0.70311 0.92747 0.90087 0.0
H1003 H 0.66648 0.89998 0.78221 0.0
H1004 H 0.67207 0.9022 0.90494 0.0
S1005 S 0.74761 0.96695 0.8043 0.0
N1006 N 0.73062 0.95372 0.74493 0.0
N1007 N 0.73681 0.95638 0.87783 0.0
C1008 C 0.71841 0.9412 0.85616 0.0
C1009 C 0.71508 0.93977 0.78411 0.0
C1010 C 0.1261 0.79523 0.78678 0.0
C1011 C 0.1326 0.78226 0.75905 0.0
C1012 C 0.12407 0.79658 0.85736 0.0
C1013 C 0.12861 0.78516 0.90334 0.0
H1014 H 0.12269 0.80465 0.75391 0.0
H1015 H 0.11935 0.80705 0.87601 0.0
S1016 S 0.1445 0.74758 0.85793 0.0
N1017 N 0.14234 0.75674 0.78374 0.0
N1018 N 0.13865 0.75947 0.91662 0.0
C1019 C 0.13463 0.77173 0.87668 0.0
C1020 C 0.13656 0.77022 0.80456 0.0
C1021 C 0.25467 0.33473 0.84183 0.0
C1022 C 0.26674 0.3504 0.88778 0.0
C1023 C 0.25639 0.3381 0.7711 0.0
C1024 C 0.27041 0.35724 0.74347 0.0
H1025 H 0.2434 0.31988 0.86064 0.0
H1026 H 0.24641 0.32562 0.73803 0.0
S1027 S 0.30725 0.40265 0.84266 0.0
N1028 N 0.29423 0.38527 0.90122 0.0
N1029 N 0.29773 0.39166 0.76843 0.0
C1030 C 0.28314 0.37283 0.78912 0.0
C1031 C 0.28124 0.36941 0.86116 0.0
C1032 C 1.01642 0.44694 0.53415 0.0
C1033 C 0.03534 0.45138 0.56209 0.0
C1034 C 1.0132 0.44549 0.4634 0.0
C1035 C 1.02881 0.44858 0.41781 0.0
H1036 H 1.00402 0.44489 0.56697 0.0
H1037 H 0.99853 0.44247 0.44431 0.0
S1038 S 0.08043 0.45837 0.4639 0.0
N1039 N 0.06943 0.45723 0.53791 0.0
N1040 N 0.06333 0.4547 0.40499 0.0
C1041 C 0.04758 0.45237 0.44474 0.0
C1042 C 0.05085 0.45371 0.51681 0.0
C1043 C 0.60789 0.58042 0.46041 0.0
C1044 C 0.60406 0.5925 0.41507 0.0
C1045 C 0.60565 0.58145 0.53097 0.0
C1046 C 0.59963 0.59473 0.55929 0.0
H1047 H 0.61215 0.56965 0.44125 0.0
H1048 H 0.60845 0.5715 0.56333 0.0
S1049 S 0.5898 0.63116 0.46237 0.0
N1050 N 0.59532 0.61916 0.40311 0.0
N1051 N 0.59122 0.62129 0.53603 0.0
C1052 C 0.59644 0.60745 0.51449 0.0
C1053 C 0.5986 0.60627 0.44239 0.0
C1054 C 0.47458 0.03658 0.5404 0.0
C1055 C 0.45953 1.01801 0.56862 0.0
C1056 C 0.47603 0.0399 0.46965 0.0
C1057 C 0.46262 0.02473 0.42452 0.0
H1058 H 0.48564 0.04855 0.57293 0.0
H1059 H 0.48817 0.05421 0.4501 0.0
S1060 S 0.4189 0.9745 0.47182 0.0
N1061 N 0.42969 0.98498 0.54543 0.0
N1062 N 0.43271 0.99124 0.4125 0.0
C1063 C 0.44704 1.00642 0.45182 0.0
C1064 C 0.44542 1.00305 0.52385 0.0
C1065 C 0.59435 1.00387 0.52395 0.0
C1066 C 0.60055 1.02021 0.56986 0.0
C1067 C 0.59582 1.00698 0.45318 0.0
C1068 C 0.6037 0.02657 0.42521 0.0
H1069 H 0.58807 0.98843 0.54256 0.0
H1070 H 0.59076 0.99385 0.42019 0.0
S1071 S 0.62245 0.07469 0.52253 0.0
N1072 N 0.61522 0.0569 0.58179 0.0
N1073 N 0.61796 0.06266 0.44871 0.0
C1074 C 0.61024 0.04313 0.47028 0.0
C1075 C 0.60865 0.03997 0.54252 0.0
C1076 C 1.01394 0.57896 0.45634 0.0
C1077 C 1.02992 0.59077 0.41099 0.0
C1078 C 1.01717 0.57995 0.52696 0.0
C1079 C 0.0365 0.59293 0.55532 0.0
H1080 H 0.99885 0.56847 0.43715 0.0
H1081 H 1.00434 0.57026 0.55935 0.0
S1082 S 0.08309 0.62843 0.45836 0.0
N1083 N 0.06553 0.61675 0.39908 0.0
N1084 N 0.07167 0.61879 0.53201 0.0
C1085 C 0.05254 0.6053 0.51048 0.0
C1086 C 0.04923 0.60417 0.43834 0.0
C1087 C 0.47515 0.44753 0.45705 0.0
C1088 C 0.4623 0.45029 0.41193 0.0
C1089 C 0.47393 0.44954 0.52769 0.0
C1090 C 0.45968 0.45423 0.55623 0.0
H1091 H 0.48661 0.44427 0.43762 0.0
H1092 H 0.48447 0.44761 0.55994 0.0
S1093 S 0.42109 0.46088 0.45977 0.0
N1094 N 0.434 0.45664 0.40029 0.0
N1095 N 0.43145 0.46021 0.53332 0.0
C1096 C 0.44626 0.45639 0.51157 0.0
C1097 C 0.44764 0.45449 0.43942 0.0
C1098 C 0.12551 0.36263 0.26403 0.0
C1099 C 0.11452 0.34122 0.26057 0.0
C1100 C 0.13068 0.37282 0.32693 0.0
C1101 C 0.12515 0.36201 0.38889 0.0
H1102 H 0.13003 0.37169 0.21772 0.0
H1103 H 0.13902 0.3893 0.32685 0.0
S1104 S 0.09674 0.30573 0.40809 0.0
N1105 N 0.09863 0.30954 0.32461 0.0
N1106 N 0.10829 0.32859 0.44298 0.0
C1107 C 0.11438 0.34056 0.38626 0.0
C1108 C 0.10908 0.3302 0.32208 0.0
C1109 C 0.67925 0.76737 0.33423 0.0
C1110 C 0.69006 0.77182 0.39608 0.0
C1111 C 0.68945 0.77263 0.27124 0.0
C1112 C 0.71085 0.78247 0.26768 0.0
H1113 H 0.66277 0.75977 0.33432 0.0
H1114 H 0.68041 0.76879 0.22497 0.0
S1115 S 0.74632 0.79758 0.41495 0.0
N1116 N 0.72347 0.78672 0.4499 0.0
N1117 N 0.74252 0.79661 0.33157 0.0
C1118 C 0.72187 0.78712 0.32913 0.0
C1119 C 0.7115 0.78179 0.3933 0.0
C1120 C 0.26624 0.94028 0.3142 0.0
C1121 C 0.27207 0.9353 0.25229 0.0
C1122 C 0.27134 0.93516 0.37705 0.0
C1123 C 0.28256 0.92493 0.38049 0.0
H1124 H 0.25775 0.9483 0.3143 0.0
H1125 H 0.26661 0.93951 0.42334 0.0
S1126 S 0.30113 0.90799 0.233 0.0
N1127 N 0.28941 0.91918 0.19812 0.0
N1128 N 0.29896 0.9096 0.31649 0.0
C1129 C 0.28827 0.91961 0.31901 0.0
C1130 C 0.28303 0.92477 0.25486 0.0
C1131 C 0.38484 0.11968 0.64725 0.0
C1132 C 0.37397 0.11479 0.58545 0.0
C1133 C 0.37471 0.11426 0.71026 0.0
C1134 C 0.35329 0.10364 0.71403 0.0
H1135 H 0.40133 0.1277 0.64712 0.0
H1136 H 0.38382 0.1183 0.75641 0.0
S1137 S 0.31765 0.08762 0.56713 0.0
N1138 N 0.34048 0.09897 0.53189 0.0
N1139 N 0.32153 0.08882 0.65052 0.0
C1140 C 0.3422 0.09882 0.65272 0.0
C1141 C 0.35252 0.1044 0.58841 0.0
C1142 C 0.93809 0.27042 0.71011 0.0
C1143 C 0.94955 0.26046 0.71408 0.0
C1144 C 0.93323 0.27568 0.64702 0.0
C1145 C 0.93957 0.27109 0.58537 0.0
H1146 H 0.93287 0.27436 0.75617 0.0
H1147 H 0.92442 0.28336 0.64672 0.0
S1148 S 0.96991 0.24508 0.56742 0.0
N1149 N 0.96707 0.24615 0.65078 0.0
N1150 N 0.95799 0.25599 0.53202 0.0
C1151 C 0.95097 0.26102 0.58846 0.0
C1152 C 0.95595 0.25572 0.65284 0.0
C1153 C 0.78363 0.67884 0.71583 0.0
C1154 C 0.79369 0.70024 0.71937 0.0
C1155 C 0.77829 0.66865 0.65291 0.0
C1156 C 0.78288 0.67947 0.59104 0.0
H1157 H 0.77966 0.66978 0.76208 0.0
H1158 H 0.77051 0.65219 0.65291 0.0
S1159 S 0.80928 0.73571 0.57201 0.0
N1160 N 0.80821 0.73191 0.65543 0.0
N1161 N 0.7982 0.71287 0.53708 0.0
C1162 C 0.7931 0.7009 0.59373 0.0
C1163 C 0.7985 0.71126 0.6579 0.0
C1164 C 0.93241 0.66771 0.65184 0.0
C1165 C 0.93855 0.67856 0.59005 0.0
C1166 C 0.93748 0.67784 0.7148 0.0
C1167 C 0.94899 0.69922 0.71844 0.0
H1168 H 0.92363 0.65125 0.65173 0.0
H1169 H 0.93248 0.66875 0.76101 0.0
S1170 S 0.96863 0.7348 0.57132 0.0
N1171 N 0.95664 0.71198 0.53623 0.0
N1172 N 0.96613 0.73094 0.65475 0.0
C1173 C 0.95509 0.7103 0.65707 0.0
C1174 C 0.94988 0.69999 0.59283 0.0
C1175 C 0.34663 0.25583 0.66 0.0
C1176 C 0.35742 0.26113 0.72199 0.0
C1177 C 0.35685 0.26122 0.5971 0.0
C1178 C 0.37827 0.27221 0.59366 0.0
H1179 H 0.33014 0.24752 0.6599 0.0
H1180 H 0.3478 0.25687 0.55078 0.0
S1181 S 0.41373 0.28944 0.74124 0.0
N1182 N 0.39085 0.27777 0.77609 0.0
N1183 N 0.40995 0.28785 0.65776 0.0
C1184 C 0.38928 0.27743 0.6552 0.0
C1185 C 0.37888 0.27189 0.71936 0.0
C1186 C 0.79893 0.1012 0.66602 0.0
C1187 C 0.79227 0.10539 0.7277 0.0
C1188 C 0.79417 0.10662 0.60311 0.0
C1189 C 0.78249 0.11635 0.5994 0.0
H1190 H 0.80789 0.09367 0.66616 0.0
H1191 H 0.79958 0.10293 0.55698 0.0
S1192 S 0.76147 0.13089 0.74631 0.0
N1193 N 0.77347 0.12003 0.78143 0.0
N1194 N 0.76457 0.13018 0.66295 0.0
C1195 C 0.77587 0.1208 0.66069 0.0
C1196 C 0.78075 0.11532 0.7249 0.0
C1197 C 0.69037 0.92751 0.26909 0.0
C1198 C 0.71178 0.9389 0.26557 0.0
C1199 C 0.68017 0.92269 0.33204 0.0
C1200 C 0.69099 0.92901 0.39388 0.0
H1201 H 0.68133 0.92237 0.22281 0.0
H1202 H 0.66369 0.91397 0.33211 0.0
S1203 S 0.74726 0.95901 0.41283 0.0
N1204 N 0.74346 0.95617 0.32945 0.0
N1205 N 0.7244 0.94724 0.44775 0.0
C1206 C 0.71243 0.94027 0.39114 0.0
C1207 C 0.7228 0.94518 0.327 0.0
C1208 C 0.13266 0.76766 0.33268 0.0
C1209 C 0.12664 0.77243 0.39463 0.0
C1210 C 0.12763 0.77287 0.2698 0.0
C1211 C 0.11627 0.78296 0.26635 0.0
H1212 H 0.14129 0.75978 0.33258 0.0
H1213 H 0.13253 0.76871 0.22349 0.0
S1214 S 0.09709 0.79925 0.41392 0.0
N1215 N 0.10891 0.78815 0.44877 0.0
N1216 N 0.09948 0.79787 0.33044 0.0
C1217 C 0.11033 0.78803 0.32788 0.0
C1218 C 0.11551 0.78279 0.39203 0.0
C1219 C 0.26602 0.33396 0.31197 0.0
C1220 C 0.27176 0.34478 0.25 0.0
C1221 C 0.27126 0.34416 0.37493 0.0
C1222 C 0.28253 0.36556 0.37838 0.0
H1223 H 0.25745 0.31749 0.31198 0.0
H1224 H 0.26655 0.33512 0.42128 0.0
S1225 S 0.30112 0.40104 0.23079 0.0
N1226 N 0.28925 0.37819 0.19595 0.0
N1227 N 0.29902 0.39723 0.31426 0.0
C1228 C 0.28823 0.37658 0.31683 0.0
C1229 C 0.28286 0.36621 0.25267 0.0
C1230 C 1.02253 0.43841 0.93068 0.0
C1231 C 0.04394 0.44861 0.9272 0.0
C1232 C 1.01234 0.43358 -0.00636 0.0
C1233 C 1.02318 0.43883 0.05553 0.0
H1234 H 1.01347 0.43393 0.88438 0.0
H1235 H 0.99586 0.42562 -0.00634 0.0
S1236 S 0.07949 0.46598 0.07455 0.0
N1237 N 0.07566 0.46406 -0.00889 0.0
N1238 N 0.05663 0.45498 0.10948 0.0
C1239 C 0.04463 0.44922 0.05282 0.0
C1240 C 0.05499 0.4541 0.98865 0.0
C1241 C 0.6056 0.60525 0.04872 0.0
C1242 C 0.6155 0.59373 0.05226 0.0
C1243 C 0.60003 0.60989 0.98589 0.0
C1244 C 0.60409 0.60314 0.92414 0.0
H1245 H 0.60229 0.61098 0.09485 0.0
H1246 H 0.59265 0.61899 0.98586 0.0
S1247 S 0.62888 0.57166 0.90556 0.0
N1248 N 0.62853 0.57508 0.98883 0.0
N1249 N 0.61816 0.5838 0.87048 0.0
C1250 C 0.61368 0.59129 0.92694 0.0
C1251 C 0.61938 0.58659 -0.00893 0.0
C1252 C 0.46457 0.04012 -0.00087 0.0
C1253 C 0.45889 0.02931 0.06107 0.0
C1254 C 0.45932 0.02994 0.93622 0.0
C1255 C 0.4481 1.00854 0.93277 0.0
H1256 H 0.47307 0.05659 -0.00093 0.0
H1257 H 0.46396 0.039 0.88991 0.0
S1258 S 0.42976 0.97305 0.08031 0.0
N1259 N 0.44159 0.9959 0.11518 0.0
N1260 N 0.43177 0.97685 -0.00318 0.0
C1261 C 0.44249 0.99751 -0.00571 0.0
C1262 C 0.44788 1.00787 0.05845 0.0
C1263 C 0.61512 0.03109 0.93621 0.0
C1264 C 0.60506 1.00969 0.93249 0.0
C1265 C 0.62029 0.04122 -0.00079 0.0
C1266 C 0.61552 0.03036 0.06101 0.0
H1267 H 0.61921 0.04019 0.89003 0.0
H1268 H 0.62807 0.05769 -0.00067 0.0
S1269 S 0.58915 0.97411 0.07959 0.0
N1270 N 0.59044 0.97797 -0.00384 0.0
N1271 N 0.60011 0.99692 0.11472 0.0
C1272 C 0.60534 1.00893 0.05814 0.0
C1273 C 0.60013 0.99862 -0.00613 0.0
C1274 C 0.05139 0.60821 0.98156 0.0
C1275 C 0.04057 0.603 0.91965 0.0
C1276 C 0.0412 0.60346 0.04446 0.0
C1277 C 1.01978 0.59337 0.04796 0.0
H1278 H 0.06787 0.61606 0.98161 0.0
H1279 H 0.05027 0.6079 0.09073 0.0
S1280 S 0.98428 0.57623 0.90053 0.0
N1281 N 1.00714 0.58704 0.8656 0.0
N1282 N 0.98808 0.57813 0.98401 0.0
C1283 C 1.00875 0.58794 0.98649 0.0
C1284 C 1.01911 0.59274 0.9223 0.0
C1285 C 0.4499 0.44941 0.04511 0.0
C1286 C 0.46008 0.43814 0.04871 0.0
C1287 C 0.44466 0.45435 0.98216 0.0
C1288 C 0.44946 0.4483 0.92033 0.0
H1289 H 0.44576 0.45435 0.09135 0.0
H1290 H 0.43676 0.46296 0.98208 0.0
S1291 S 0.47626 0.41873 0.90147 0.0
N1292 N 0.47496 0.42126 0.9849 0.0
N1293 N 0.46513 0.43049 0.86646 0.0
C1294 C 0.45982 0.43718 0.92308 0.0
C1295 C 0.46512 0.43211 0.98729 0.0
loop_
_geom_bond_atom_site_label_1
_geom_bond_atom_site_label_2
_geom_bond_distance
_geom_bond_site_symmetry_2
_ccdc_geom_bond_type
Co0 O1 2.216 . S
Co0 O2 2.091 . S
Co0 O4 2.004 . S
Co0 O10 2.021 1_554 S
Co0 O12 2.137 . S
Co0 O13 2.244 . S
O1 Co0 2.216 . S
O1 C8 1.247 . S
O2 Co0 2.091 . S
O2 C8 1.261 . S
C3 O12 1.247 . S
C3 O13 1.272 . S
O4 Co0 2.004 . S
O4 C9 1.259 . S
Co5 O6 2.061 . S
Co5 O11 2.052 1_554 S
Co5 O13 2.135 . S
O6 Co5 2.061 . S
O6 C9 1.235 . S
C7 O10 1.238 . S
C7 O11 1.241 . S
C8 O1 1.247 . S
C8 O2 1.261 . S
C9 O4 1.259 . S
C9 O6 1.235 . S
O10 Co0 2.021 1_556 S
O10 C7 1.238 . S
O11 Co5 2.052 1_556 S
O11 C7 1.241 . S
O12 Co0 2.137 . S
O12 C3 1.247 . S
O13 Co0 2.244 . S
O13 C3 1.272 . S
O13 Co5 2.135 . S
Co14 O15 2.216 . S
Co14 O16 2.091 . S
Co14 O18 2.004 . S
Co14 O24 2.021 1_554 S
Co14 O26 2.137 . S
Co14 O27 2.244 . S
O15 Co14 2.216 . S
O15 C22 1.247 . S
O16 Co14 2.091 . S
O16 C22 1.261 . S
C17 O26 1.247 . S
C17 O27 1.272 . S
O18 Co14 2.004 . S
O18 C23 1.259 . S
Co19 O20 2.061 . S
Co19 O25 2.052 1_554 S
Co19 O27 2.135 . S
O20 Co19 2.061 . S
O20 C23 1.235 . S
C21 O24 1.238 . S
C21 O25 1.241 . S
C22 O15 1.247 . S
C22 O16 1.261 . S
C23 O18 1.259 . S
C23 O20 1.235 . S
O24 Co14 2.021 1_556 S
O24 C21 1.238 . S
O25 Co19 2.052 1_556 S
O25 C21 1.241 . S
O26 Co14 2.137 . S
O26 C17 1.247 . S
O27 Co14 2.244 . S
O27 C17 1.272 . S
O27 Co19 2.135 . S
Co28 O29 2.216 . S
Co28 O30 2.091 . S
Co28 O32 2.004 . S
Co28 O38 2.021 1_554 S
Co28 O40 2.137 . S
Co28 O41 2.244 . S
O29 Co28 2.216 . S
O29 C36 1.247 . S
O30 Co28 2.091 . S
O30 C36 1.261 . S
C31 O40 1.247 . S
C31 O41 1.272 . S
O32 Co28 2.004 . S
O32 C37 1.259 . S
Co33 O34 2.061 . S
Co33 O39 2.052 1_554 S
Co33 O41 2.135 . S
O34 Co33 2.061 . S
O34 C37 1.235 . S
C35 O38 1.238 . S
C35 O39 1.241 . S
C36 O29 1.247 . S
C36 O30 1.261 . S
C37 O32 1.259 . S
C37 O34 1.235 . S
O38 Co28 2.021 1_556 S
O38 C35 1.238 . S
O39 Co33 2.052 1_556 S
O39 C35 1.241 . S
O40 Co28 2.137 . S
O40 C31 1.247 . S
O41 Co28 2.244 . S
O41 C31 1.272 . S
O41 Co33 2.135 . S
Co42 O43 2.216 . S
Co42 O44 2.091 . S
Co42 O46 2.004 . S
Co42 O52 2.021 1_556 S
Co42 O54 2.137 . S
Co42 O55 2.244 . S
O43 Co42 2.216 . S
O43 C50 1.247 . S
O44 Co42 2.091 . S
O44 C50 1.261 . S
C45 O54 1.247 . S
C45 O55 1.272 . S
O46 Co42 2.004 . S
O46 C51 1.259 . S
Co47 O48 2.061 . S
Co47 O53 2.052 1_556 S
Co47 O55 2.135 . S
O48 Co47 2.061 . S
O48 C51 1.235 . S
C49 O52 1.238 . S
C49 O53 1.241 . S
C50 O43 1.247 . S
C50 O44 1.261 . S
C51 O46 1.259 . S
C51 O48 1.235 . S
O52 Co42 2.021 1_554 S
O52 C49 1.238 . S
O53 Co47 2.052 1_554 S
O53 C49 1.241 . S
O54 Co42 2.137 . S
O54 C45 1.247 . S
O55 Co42 2.244 . S
O55 C45 1.272 . S
O55 Co47 2.135 . S
Co56 O57 2.216 . S
Co56 O58 2.091 . S
Co56 O60 2.004 . S
Co56 O66 2.021 1_556 S
Co56 O68 2.137 . S
Co56 O69 2.244 . S
O57 Co56 2.216 . S
O57 C64 1.247 . S
O58 Co56 2.091 . S
O58 C64 1.261 . S
C59 O68 1.247 . S
C59 O69 1.272 . S
O60 Co56 2.004 . S
O60 C65 1.259 . S
Co61 O62 2.061 . S
Co61 O67 2.052 1_556 S
Co61 O69 2.135 . S
O62 Co61 2.061 . S
O62 C65 1.235 . S
C63 O66 1.238 . S
C63 O67 1.241 . S
C64 O57 1.247 . S
C64 O58 1.261 . S
C65 O60 1.259 . S
C65 O62 1.235 . S
O66 Co56 2.021 1_554 S
O66 C63 1.238 . S
O67 Co61 2.052 1_554 S
O67 C63 1.241 . S
O68 Co56 2.137 . S
O68 C59 1.247 . S
O69 Co56 2.244 . S
O69 C59 1.272 . S
O69 Co61 2.135 . S
Co70 O71 2.216 . S
Co70 O72 2.091 . S
Co70 O74 2.004 . S
Co70 O80 2.021 1_556 S
Co70 O82 2.137 . S
Co70 O83 2.244 . S
O71 Co70 2.216 . S
O71 C78 1.247 . S
O72 Co70 2.091 . S
O72 C78 1.261 . S
C73 O82 1.247 . S
C73 O83 1.272 . S
O74 Co70 2.004 . S
O74 C79 1.259 . S
Co75 O76 2.061 . S
Co75 O81 2.052 1_556 S
Co75 O83 2.135 . S
O76 Co75 2.061 . S
O76 C79 1.235 . S
C77 O80 1.238 . S
C77 O81 1.241 . S
C78 O71 1.247 . S
C78 O72 1.261 . S
C79 O74 1.259 . S
C79 O76 1.235 . S
O80 Co70 2.021 1_554 S
O80 C77 1.238 . S
O81 Co75 2.052 1_554 S
O81 C77 1.241 . S
O82 Co70 2.137 . S
O82 C73 1.247 . S
O83 Co70 2.244 . S
O83 C73 1.272 . S
O83 Co75 2.135 . S
Co84 O85 2.216 . S
Co84 O86 2.091 . S
Co84 O88 2.004 . S
Co84 O94 2.021 1_556 S
Co84 O96 2.137 . S
Co84 O97 2.244 . S
O85 Co84 2.216 . S
O85 C92 1.247 . S
O86 Co84 2.091 . S
O86 C92 1.261 . S
C87 O96 1.247 . S
C87 O97 1.272 . S
O88 Co84 2.004 . S
O88 C93 1.259 . S
Co89 O90 2.061 . S
Co89 O95 2.052 1_556 S
Co89 O97 2.135 . S
O90 Co89 2.061 . S
O90 C93 1.235 . S
C91 O94 1.238 . S
C91 O95 1.241 . S
C92 O85 1.247 . S
C92 O86 1.261 . S
C93 O88 1.259 . S
C93 O90 1.235 . S
O94 Co84 2.021 1_554 S
O94 C91 1.238 . S
O95 Co89 2.052 1_554 S
O95 C91 1.241 . S
O96 Co84 2.137 . S
O96 C87 1.247 . S
O97 Co84 2.244 . S
O97 C87 1.272 . S
O97 Co89 2.135 . S
Co98 O99 2.216 . S
Co98 O100 2.091 . S
Co98 O102 2.004 . S
Co98 O108 2.021 1_556 S
Co98 O110 2.137 . S
Co98 O111 2.244 . S
O99 Co98 2.216 . S
O99 C106 1.247 . S
O100 Co98 2.091 . S
O100 C106 1.261 . S
C101 O110 1.247 . S
C101 O111 1.272 . S
O102 Co98 2.004 . S
O102 C107 1.259 . S
Co103 O104 2.061 . S
Co103 O109 2.052 1_556 S
Co103 O111 2.135 . S
O104 Co103 2.061 . S
O104 C107 1.235 . S
C105 O108 1.238 . S
C105 O109 1.241 . S
C106 O99 1.247 . S
C106 O100 1.261 . S
C107 O102 1.259 . S
C107 O104 1.235 . S
O108 Co98 2.021 1_554 S
O108 C105 1.238 . S
O109 Co103 2.052 1_554 S
O109 C105 1.241 . S
O110 Co98 2.137 . S
O110 C101 1.247 . S
O111 Co98 2.244 . S
O111 C101 1.272 . S
O111 Co103 2.135 . S
Co112 O113 2.216 . S
Co112 O114 2.091 . S
Co112 O116 2.004 . S
Co112 O122 2.021 1_556 S
Co112 O124 2.137 . S
Co112 O125 2.244 . S
O113 Co112 2.216 . S
O113 C120 1.247 . S
O114 Co112 2.091 . S
O114 C120 1.261 . S
C115 O124 1.247 . S
C115 O125 1.272 . S
O116 Co112 2.004 . S
O116 C121 1.259 . S
Co117 O118 2.061 . S
Co117 O123 2.052 1_556 S
Co117 O125 2.135 . S
O118 Co117 2.061 . S
O118 C121 1.235 . S
C119 O122 1.238 . S
C119 O123 1.241 . S
C120 O113 1.247 . S
C120 O114 1.261 . S
C121 O116 1.259 . S
C121 O118 1.235 . S
O122 Co112 2.021 1_554 S
O122 C119 1.238 . S
O123 Co117 2.052 1_554 S
O123 C119 1.241 . S
O124 Co112 2.137 . S
O124 C115 1.247 . S
O125 Co112 2.244 . S
O125 C115 1.272 . S
O125 Co117 2.135 . S
Co126 O127 2.216 . S
Co126 O128 2.091 . S
Co126 O130 2.004 . S
Co126 O136 2.021 1_554 S
Co126 O138 2.137 . S
Co126 O139 2.244 . S
O127 Co126 2.216 . S
O127 C134 1.247 . S
O128 Co126 2.091 . S
O128 C134 1.261 . S
C129 O138 1.247 . S
C129 O139 1.272 . S
O130 Co126 2.004 . S
O130 C135 1.259 . S
Co131 O132 2.061 . S
Co131 O137 2.052 1_554 S
Co131 O139 2.135 . S
O132 Co131 2.061 . S
O132 C135 1.235 . S
C133 O136 1.238 . S
C133 O137 1.241 . S
C134 O127 1.247 . S
C134 O128 1.261 . S
C135 O130 1.259 . S
C135 O132 1.235 . S
O136 Co126 2.021 1_556 S
O136 C133 1.238 . S
O137 Co131 2.052 1_556 S
O137 C133 1.241 . S
O138 Co126 2.137 . S
O138 C129 1.247 . S
O139 Co126 2.244 . S
O139 C129 1.272 . S
O139 Co131 2.135 . S
Co140 O141 2.216 . S
Co140 O142 2.091 . S
Co140 O144 2.004 . S
Co140 O150 2.021 1_554 S
Co140 O152 2.137 . S
Co140 O153 2.244 . S
O141 Co140 2.216 . S
O141 C148 1.247 . S
O142 Co140 2.091 . S
O142 C148 1.261 . S
C143 O152 1.247 . S
C143 O153 1.272 . S
O144 Co140 2.004 . S
O144 C149 1.259 . S
Co145 O146 2.061 . S
Co145 O151 2.052 1_554 S
Co145 O153 2.135 . S
O146 Co145 2.061 . S
O146 C149 1.235 . S
C147 O150 1.238 . S
C147 O151 1.241 . S
C148 O141 1.247 . S
C148 O142 1.261 . S
C149 O144 1.259 . S
C149 O146 1.235 . S
O150 Co140 2.021 1_556 S
O150 C147 1.238 . S
O151 Co145 2.052 1_556 S
O151 C147 1.241 . S
O152 Co140 2.137 . S
O152 C143 1.247 . S
O153 Co140 2.244 . S
O153 C143 1.272 . S
O153 Co145 2.135 . S
Co154 O155 2.216 . S
Co154 O156 2.091 . S
Co154 O158 2.004 . S
Co154 O164 2.021 1_554 S
Co154 O166 2.137 . S
Co154 O167 2.244 . S
O155 Co154 2.216 . S
O155 C162 1.247 . S
O156 Co154 2.091 . S
O156 C162 1.261 . S
C157 O166 1.247 . S
C157 O167 1.272 . S
O158 Co154 2.004 . S
O158 C163 1.259 . S
Co159 O160 2.061 . S
Co159 O165 2.052 1_554 S
Co159 O167 2.135 . S
O160 Co159 2.061 . S
O160 C163 1.235 . S
C161 O164 1.238 . S
C161 O165 1.241 . S
C162 O155 1.247 . S
C162 O156 1.261 . S
C163 O158 1.259 . S
C163 O160 1.235 . S
O164 Co154 2.021 1_556 S
O164 C161 1.238 . S
O165 Co159 2.052 1_556 S
O165 C161 1.241 . S
O166 Co154 2.137 . S
O166 C157 1.247 . S
O167 Co154 2.244 . S
O167 C157 1.272 . S
O167 Co159 2.135 . S
Co168 O169 2.216 . S
Co168 O170 2.091 . S
Co168 O172 2.004 . S
Co168 O178 2.021 . S
Co168 O180 2.137 . S
Co168 O181 2.244 . S
O169 Co168 2.216 . S
O169 C176 1.247 . S
O170 Co168 2.091 . S
O170 C176 1.261 . S
C171 O180 1.247 . S
C171 O181 1.272 . S
O172 Co168 2.004 . S
O172 C177 1.259 . S
Co173 O174 2.061 . S
Co173 O179 2.052 . S
Co173 O181 2.135 . S
O174 Co173 2.061 . S
O174 C177 1.235 . S
C175 O178 1.238 . S
C175 O179 1.241 . S
C176 O169 1.247 . S
C176 O170 1.261 . S
C177 O172 1.259 . S
C177 O174 1.235 . S
O178 Co168 2.021 . S
O178 C175 1.238 . S
O179 Co173 2.052 . S
O179 C175 1.241 . S
O180 Co168 2.137 . S
O180 C171 1.247 . S
O181 Co168 2.244 . S
O181 C171 1.272 . S
O181 Co173 2.135 . S
Co182 O183 2.216 . S
Co182 O184 2.091 . S
Co182 O186 2.004 . S
Co182 O192 2.021 . S
Co182 O194 2.137 . S
Co182 O195 2.244 . S
O183 Co182 2.216 . S
O183 C190 1.247 . S
O184 Co182 2.091 . S
O184 C190 1.261 . S
C185 O194 1.247 . S
C185 O195 1.272 . S
O186 Co182 2.004 . S
O186 C191 1.259 . S
Co187 O188 2.061 . S
Co187 O193 2.052 . S
Co187 O195 2.135 . S
O188 Co187 2.061 . S
O188 C191 1.235 . S
C189 O192 1.238 . S
C189 O193 1.241 . S
C190 O183 1.247 . S
C190 O184 1.261 . S
C191 O186 1.259 . S
C191 O188 1.235 . S
O192 Co182 2.021 . S
O192 C189 1.238 . S
O193 Co187 2.052 . S
O193 C189 1.241 . S
O194 Co182 2.137 . S
O194 C185 1.247 . S
O195 Co182 2.244 . S
O195 C185 1.272 . S
O195 Co187 2.135 . S
Co196 O197 2.216 . S
Co196 O198 2.091 . S
Co196 O200 2.004 . S
Co196 O206 2.021 . S
Co196 O208 2.137 . S
Co196 O209 2.244 . S
O197 Co196 2.216 . S
O197 C204 1.247 . S
O198 Co196 2.091 . S
O198 C204 1.261 . S
C199 O208 1.247 . S
C199 O209 1.272 . S
O200 Co196 2.004 . S
O200 C205 1.259 . S
Co201 O202 2.061 . S
Co201 O207 2.052 . S
Co201 O209 2.135 . S
O202 Co201 2.061 . S
O202 C205 1.235 . S
C203 O206 1.238 . S
C203 O207 1.241 . S
C204 O197 1.247 . S
C204 O198 1.261 . S
C205 O200 1.259 . S
C205 O202 1.235 . S
O206 Co196 2.021 . S
O206 C203 1.238 . S
O207 Co201 2.052 . S
O207 C203 1.241 . S
O208 Co196 2.137 . S
O208 C199 1.247 . S
O209 Co196 2.244 . S
O209 C199 1.272 . S
O209 Co201 2.135 . S
Co210 O211 2.216 . S
Co210 O212 2.091 . S
Co210 O214 2.004 . S
Co210 O220 2.021 . S
Co210 O222 2.137 . S
Co210 O223 2.244 . S
O211 Co210 2.216 . S
O211 C218 1.247 . S
O212 Co210 2.091 . S
O212 C218 1.261 . S
C213 O222 1.247 . S
C213 O223 1.272 . S
O214 Co210 2.004 . S
O214 C219 1.259 . S
Co215 O216 2.061 1_455 S
Co215 O221 2.045 . S
Co215 O223 2.135 1_455 S
O216 Co215 2.061 1_655 S
O216 C219 1.235 . S
C217 O220 1.238 . S
C217 O221 1.219 1_655 S
C218 O211 1.247 . S
C218 O212 1.261 . S
C219 O214 1.259 . S
C219 O216 1.235 . S
O220 Co210 2.021 . S
O220 C217 1.238 . S
O221 Co215 2.045 . S
O221 C217 1.219 1_455 S
O222 Co210 2.137 . S
O222 C213 1.247 . S
O223 Co210 2.244 . S
O223 C213 1.272 . S
O223 Co215 2.135 1_655 S
Co224 O225 2.216 . S
Co224 O226 2.091 . S
Co224 O228 2.004 . S
Co224 O234 2.021 . S
Co224 O236 2.137 . S
Co224 O237 2.244 . S
O225 Co224 2.216 . S
O225 C232 1.247 . S
O226 Co224 2.091 . S
O226 C232 1.261 . S
C227 O236 1.247 . S
C227 O237 1.272 . S
O228 Co224 2.004 . S
O228 C233 1.259 . S
Co229 O230 2.061 . S
Co229 O235 2.052 . S
Co229 O237 2.135 . S
O230 Co229 2.061 . S
O230 C233 1.235 . S
C231 O234 1.238 . S
C231 O235 1.241 . S
C232 O225 1.247 . S
C232 O226 1.261 . S
C233 O228 1.259 . S
C233 O230 1.235 . S
O234 Co224 2.021 . S
O234 C231 1.238 . S
O235 Co229 2.052 . S
O235 C231 1.241 . S
O236 Co224 2.137 . S
O236 C227 1.247 . S
O237 Co224 2.244 . S
O237 C227 1.272 . S
O237 Co229 2.135 . S
Co238 O239 2.216 . S
Co238 O240 2.091 . S
Co238 O242 2.004 . S
Co238 O248 2.021 . S
Co238 O250 2.137 . S
Co238 O251 2.244 . S
O239 Co238 2.216 . S
O239 C246 1.247 . S
O240 Co238 2.091 . S
O240 C246 1.261 . S
C241 O250 1.247 . S
C241 O251 1.272 . S
O242 Co238 2.004 . S
O242 C247 1.259 . S
Co243 O244 2.061 1_565 S
Co243 O249 2.068 . S
Co243 O251 2.135 1_565 S
O244 Co243 2.061 1_545 S
O244 C247 1.235 . S
C245 O248 1.238 . S
C245 O249 1.206 1_545 S
C246 O239 1.247 . S
C246 O240 1.261 . S
C247 O242 1.259 . S
C247 O244 1.235 . S
O248 Co238 2.021 . S
O248 C245 1.238 . S
O249 Co243 2.068 . S
O249 C245 1.206 1_565 S
O250 Co238 2.137 . S
O250 C241 1.247 . S
O251 Co238 2.244 . S
O251 C241 1.272 . S
O251 Co243 2.135 1_545 S
Co252 O253 2.216 . S
Co252 O254 2.091 . S
Co252 O256 2.004 . S
Co252 O262 2.021 . S
Co252 O264 2.137 . S
Co252 O265 2.244 . S
O253 Co252 2.216 . S
O253 C260 1.247 . S
O254 Co252 2.091 . S
O254 C260 1.261 . S
C255 O264 1.247 . S
C255 O265 1.272 . S
O256 Co252 2.004 . S
O256 C261 1.259 . S
Co257 O258 2.061 1_565 S
Co257 O263 2.045 . S
Co257 O265 2.135 1_565 S
O258 Co257 2.061 1_545 S
O258 C261 1.235 . S
C259 O262 1.238 . S
C259 O263 1.219 1_545 S
C260 O253 1.247 . S
C260 O254 1.261 . S
C261 O256 1.259 . S
C261 O258 1.235 . S
O262 Co252 2.021 . S
O262 C259 1.238 . S
O263 Co257 2.045 . S
O263 C259 1.219 1_565 S
O264 Co252 2.137 . S
O264 C255 1.247 . S
O265 Co252 2.244 . S
O265 C255 1.272 . S
O265 Co257 2.135 1_545 S
Co266 O267 2.216 . S
Co266 O268 2.091 . S
Co266 O270 2.004 . S
Co266 O276 2.021 . S
Co266 O278 2.137 . S
Co266 O279 2.244 . S
O267 Co266 2.216 . S
O267 C274 1.247 . S
O268 Co266 2.091 . S
O268 C274 1.261 . S
C269 O278 1.247 . S
C269 O279 1.272 . S
O270 Co266 2.004 . S
O270 C275 1.259 . S
Co271 O272 2.061 1_455 S
Co271 O277 2.068 . S
Co271 O279 2.135 1_455 S
O272 Co271 2.061 1_655 S
O272 C275 1.235 . S
C273 O276 1.238 . S
C273 O277 1.206 1_655 S
C274 O267 1.247 . S
C274 O268 1.261 . S
C275 O270 1.259 . S
C275 O272 1.235 . S
O276 Co266 2.021 . S
O276 C273 1.238 . S
O277 Co271 2.068 . S
O277 C273 1.206 1_455 S
O278 Co266 2.137 . S
O278 C269 1.247 . S
O279 Co266 2.244 . S
O279 C269 1.272 . S
O279 Co271 2.135 1_655 S
Co280 O281 2.216 . S
Co280 O282 2.091 . S
Co280 O284 2.004 . S
Co280 O290 2.021 . S
Co280 O292 2.137 . S
Co280 O293 2.244 . S
O281 Co280 2.216 . S
O281 C288 1.247 . S
O282 Co280 2.091 . S
O282 C288 1.261 . S
C283 O292 1.247 . S
C283 O293 1.272 . S
O284 Co280 2.004 . S
O284 C289 1.259 . S
Co285 O286 2.061 . S
Co285 O291 2.052 . S
Co285 O293 2.135 . S
O286 Co285 2.061 . S
O286 C289 1.235 . S
C287 O290 1.238 . S
C287 O291 1.241 . S
C288 O281 1.247 . S
C288 O282 1.261 . S
C289 O284 1.259 . S
C289 O286 1.235 . S
O290 Co280 2.021 . S
O290 C287 1.238 . S
O291 Co285 2.052 . S
O291 C287 1.241 . S
O292 Co280 2.137 . S
O292 C283 1.247 . S
O293 Co280 2.244 . S
O293 C283 1.272 . S
O293 Co285 2.135 . S
Co294 O295 2.216 . S
Co294 O296 2.091 . S
Co294 O298 2.004 . S
Co294 O304 2.021 . S
Co294 O306 2.137 . S
Co294 O307 2.244 . S
O295 Co294 2.216 . S
O295 C302 1.247 . S
O296 Co294 2.091 . S
O296 C302 1.261 . S
C297 O306 1.247 . S
C297 O307 1.272 . S
O298 Co294 2.004 . S
O298 C303 1.259 . S
Co299 O300 2.061 . S
Co299 O305 2.052 . S
Co299 O307 2.135 . S
O300 Co299 2.061 . S
O300 C303 1.235 . S
C301 O304 1.238 . S
C301 O305 1.241 . S
C302 O295 1.247 . S
C302 O296 1.261 . S
C303 O298 1.259 . S
C303 O300 1.235 . S
O304 Co294 2.021 . S
O304 C301 1.238 . S
O305 Co299 2.052 . S
O305 C301 1.241 . S
O306 Co294 2.137 . S
O306 C297 1.247 . S
O307 Co294 2.244 . S
O307 C297 1.272 . S
O307 Co299 2.135 . S
Co308 O309 2.216 . S
Co308 O310 2.091 . S
Co308 O312 2.004 . S
Co308 O318 2.021 . S
Co308 O320 2.137 . S
Co308 O321 2.244 . S
O309 Co308 2.216 . S
O309 C316 1.247 . S
O310 Co308 2.091 . S
O310 C316 1.261 . S
C311 O320 1.247 . S
C311 O321 1.272 . S
O312 Co308 2.004 . S
O312 C317 1.259 . S
Co313 O314 2.061 . S
Co313 O319 2.052 . S
Co313 O321 2.135 . S
O314 Co313 2.061 . S
O314 C317 1.235 . S
C315 O318 1.238 . S
C315 O319 1.241 . S
C316 O309 1.247 . S
C316 O310 1.261 . S
C317 O312 1.259 . S
C317 O314 1.235 . S
O318 Co308 2.021 . S
O318 C315 1.238 . S
O319 Co313 2.052 . S
O319 C315 1.241 . S
O320 Co308 2.137 . S
O320 C311 1.247 . S
O321 Co308 2.244 . S
O321 C311 1.272 . S
O321 Co313 2.135 . S
Co322 O323 2.216 . S
Co322 O324 2.091 . S
Co322 O326 2.004 . S
Co322 O332 2.021 . S
Co322 O334 2.137 . S
Co322 O335 2.244 . S
O323 Co322 2.216 . S
O323 C330 1.247 . S
O324 Co322 2.091 . S
O324 C330 1.261 . S
C325 O334 1.247 . S
C325 O335 1.272 . S
O326 Co322 2.004 . S
O326 C331 1.259 . S
Co327 O328 2.061 . S
Co327 O333 2.052 . S
Co327 O335 2.135 . S
O328 Co327 2.061 . S
O328 C331 1.235 . S
C329 O332 1.238 . S
C329 O333 1.241 . S
C330 O323 1.247 . S
C330 O324 1.261 . S
C331 O326 1.259 . S
C331 O328 1.235 . S
O332 Co322 2.021 . S
O332 C329 1.238 . S
O333 Co327 2.052 . S
O333 C329 1.241 . S
O334 Co322 2.137 . S
O334 C325 1.247 . S
O335 Co322 2.244 . S
O335 C325 1.272 . S
O335 Co327 2.135 . S
Co336 O337 2.216 . S
Co336 O338 2.091 . S
Co336 O340 2.004 . S
Co336 O346 2.021 . S
Co336 O348 2.137 . S
Co336 O349 2.244 . S
O337 Co336 2.216 . S
O337 C344 1.247 . S
O338 Co336 2.091 . S
O338 C344 1.261 . S
C339 O348 1.247 . S
C339 O349 1.272 . S
O340 Co336 2.004 . S
O340 C345 1.259 . S
Co341 O342 2.061 1_545 S
Co341 O347 2.045 . S
Co341 O349 2.135 1_545 S
O342 Co341 2.061 1_565 S
O342 C345 1.235 . S
C343 O346 1.238 . S
C343 O347 1.219 1_565 S
C344 O337 1.247 . S
C344 O338 1.261 . S
C345 O340 1.259 . S
C345 O342 1.235 . S
O346 Co336 2.021 . S
O346 C343 1.238 . S
O347 Co341 2.045 . S
O347 C343 1.219 1_545 S
O348 Co336 2.137 . S
O348 C339 1.247 . S
O349 Co336 2.244 . S
O349 C339 1.272 . S
O349 Co341 2.135 1_565 S
Co350 O351 2.216 . S
Co350 O352 2.091 . S
Co350 O354 2.004 . S
Co350 O360 2.021 . S
Co350 O362 2.137 . S
Co350 O363 2.244 . S
O351 Co350 2.216 . S
O351 C358 1.247 . S
O352 Co350 2.091 . S
O352 C358 1.261 . S
C353 O362 1.247 . S
C353 O363 1.272 . S
O354 Co350 2.004 . S
O354 C359 1.259 . S
Co355 O356 2.061 1_655 S
Co355 O361 2.068 . S
Co355 O363 2.135 1_655 S
O356 Co355 2.061 1_455 S
O356 C359 1.235 . S
C357 O360 1.238 . S
C357 O361 1.206 1_455 S
C358 O351 1.247 . S
C358 O352 1.261 . S
C359 O354 1.259 . S
C359 O356 1.235 . S
O360 Co350 2.021 . S
O360 C357 1.238 . S
O361 Co355 2.068 . S
O361 C357 1.206 1_655 S
O362 Co350 2.137 . S
O362 C353 1.247 . S
O363 Co350 2.244 . S
O363 C353 1.272 . S
O363 Co355 2.135 1_455 S
Co364 O365 2.216 . S
Co364 O366 2.091 . S
Co364 O368 2.004 . S
Co364 O374 2.021 . S
Co364 O376 2.137 . S
Co364 O377 2.244 . S
O365 Co364 2.216 . S
O365 C372 1.247 . S
O366 Co364 2.091 . S
O366 C372 1.261 . S
C367 O376 1.247 . S
C367 O377 1.272 . S
O368 Co364 2.004 . S
O368 C373 1.259 . S
Co369 O370 2.061 . S
Co369 O375 2.052 . S
Co369 O377 2.135 . S
O370 Co369 2.061 . S
O370 C373 1.235 . S
C371 O374 1.238 . S
C371 O375 1.241 . S
C372 O365 1.247 . S
C372 O366 1.261 . S
C373 O368 1.259 . S
C373 O370 1.235 . S
O374 Co364 2.021 . S
O374 C371 1.238 . S
O375 Co369 2.052 . S
O375 C371 1.241 . S
O376 Co364 2.137 . S
O376 C367 1.247 . S
O377 Co364 2.244 . S
O377 C367 1.272 . S
O377 Co369 2.135 . S
Co378 O379 2.216 . S
Co378 O380 2.091 . S
Co378 O382 2.004 . S
Co378 O388 2.021 . S
Co378 O390 2.137 . S
Co378 O391 2.244 . S
O379 Co378 2.216 . S
O379 C386 1.247 . S
O380 Co378 2.091 . S
O380 C386 1.261 . S
C381 O390 1.247 . S
C381 O391 1.272 . S
O382 Co378 2.004 . S
O382 C387 1.259 . S
Co383 O384 2.061 . S
Co383 O389 2.052 . S
Co383 O391 2.135 . S
O384 Co383 2.061 . S
O384 C387 1.235 . S
C385 O388 1.238 . S
C385 O389 1.241 . S
C386 O379 1.247 . S
C386 O380 1.261 . S
C387 O382 1.259 . S
C387 O384 1.235 . S
O388 Co378 2.021 . S
O388 C385 1.238 . S
O389 Co383 2.052 . S
O389 C385 1.241 . S
O390 Co378 2.137 . S
O390 C381 1.247 . S
O391 Co378 2.244 . S
O391 C381 1.272 . S
O391 Co383 2.135 . S
Co392 O393 2.216 . S
Co392 O394 2.091 . S
Co392 O396 2.004 . S
Co392 O402 2.021 . S
Co392 O404 2.137 . S
Co392 O405 2.244 . S
O393 Co392 2.216 . S
O393 C400 1.247 . S
O394 Co392 2.091 . S
O394 C400 1.261 . S
C395 O404 1.247 . S
C395 O405 1.272 . S
O396 Co392 2.004 . S
O396 C401 1.259 . S
Co397 O398 2.061 . S
Co397 O403 2.052 . S
Co397 O405 2.135 . S
O398 Co397 2.061 . S
O398 C401 1.235 . S
C399 O402 1.238 . S
C399 O403 1.241 . S
C400 O393 1.247 . S
C400 O394 1.261 . S
C401 O396 1.259 . S
C401 O398 1.235 . S
O402 Co392 2.021 . S
O402 C399 1.238 . S
O403 Co397 2.052 . S
O403 C399 1.241 . S
O404 Co392 2.137 . S
O404 C395 1.247 . S
O405 Co392 2.244 . S
O405 C395 1.272 . S
O405 Co397 2.135 . S
Co406 O407 2.216 . S
Co406 O408 2.091 . S
Co406 O410 2.004 . S
Co406 O416 2.021 . S
Co406 O418 2.137 . S
Co406 O419 2.244 . S
O407 Co406 2.216 . S
O407 C414 1.247 . S
O408 Co406 2.091 . S
O408 C414 1.261 . S
C409 O418 1.247 . S
C409 O419 1.272 . S
O410 Co406 2.004 . S
O410 C415 1.259 . S
Co411 O412 2.061 . S
Co411 O417 2.052 . S
Co411 O419 2.135 . S
O412 Co411 2.061 . S
O412 C415 1.235 . S
C413 O416 1.238 . S
C413 O417 1.241 . S
C414 O407 1.247 . S
C414 O408 1.261 . S
C415 O410 1.259 . S
C415 O412 1.235 . S
O416 Co406 2.021 . S
O416 C413 1.238 . S
O417 Co411 2.052 . S
O417 C413 1.241 . S
O418 Co406 2.137 . S
O418 C409 1.247 . S
O419 Co406 2.244 . S
O419 C409 1.272 . S
O419 Co411 2.135 . S
Co420 O421 2.216 . S
Co420 O422 2.091 . S
Co420 O424 2.004 . S
Co420 O430 2.021 . S
Co420 O432 2.137 . S
Co420 O433 2.244 . S
O421 Co420 2.216 . S
O421 C428 1.247 . S
O422 Co420 2.091 . S
O422 C428 1.261 . S
C423 O432 1.247 . S
C423 O433 1.272 . S
O424 Co420 2.004 . S
O424 C429 1.259 . S
Co425 O426 2.061 . S
Co425 O431 2.052 . S
Co425 O433 2.135 . S
O426 Co425 2.061 . S
O426 C429 1.235 . S
C427 O430 1.238 . S
C427 O431 1.241 . S
C428 O421 1.247 . S
C428 O422 1.261 . S
C429 O424 1.259 . S
C429 O426 1.235 . S
O430 Co420 2.021 . S
O430 C427 1.238 . S
O431 Co425 2.052 . S
O431 C427 1.241 . S
O432 Co420 2.137 . S
O432 C423 1.247 . S
O433 Co420 2.244 . S
O433 C423 1.272 . S
O433 Co425 2.135 . S
Co434 O435 2.216 . S
Co434 O436 2.091 . S
Co434 O438 2.004 . S
Co434 O444 2.021 . S
Co434 O446 2.137 . S
Co434 O447 2.244 . S
O435 Co434 2.216 . S
O435 C442 1.247 . S
O436 Co434 2.091 . S
O436 C442 1.261 . S
C437 O446 1.247 . S
C437 O447 1.272 . S
O438 Co434 2.004 . S
O438 C443 1.259 . S
Co439 O440 2.061 . S
Co439 O445 2.052 . S
Co439 O447 2.135 . S
O440 Co439 2.061 . S
O440 C443 1.235 . S
C441 O444 1.238 . S
C441 O445 1.241 . S
C442 O435 1.247 . S
C442 O436 1.261 . S
C443 O438 1.259 . S
C443 O440 1.235 . S
O444 Co434 2.021 . S
O444 C441 1.238 . S
O445 Co439 2.052 . S
O445 C441 1.241 . S
O446 Co434 2.137 . S
O446 C437 1.247 . S
O447 Co434 2.244 . S
O447 C437 1.272 . S
O447 Co439 2.135 . S
Co448 O449 2.216 . S
Co448 O450 2.091 . S
Co448 O452 2.004 . S
Co448 O458 2.021 . S
Co448 O460 2.137 . S
Co448 O461 2.244 . S
O449 Co448 2.216 . S
O449 C456 1.247 . S
O450 Co448 2.091 . S
O450 C456 1.261 . S
C451 O460 1.247 . S
C451 O461 1.272 . S
O452 Co448 2.004 . S
O452 C457 1.259 . S
Co453 O454 2.061 . S
Co453 O459 2.052 . S
Co453 O461 2.135 . S
O454 Co453 2.061 . S
O454 C457 1.235 . S
C455 O458 1.238 . S
C455 O459 1.241 . S
C456 O449 1.247 . S
C456 O450 1.261 . S
C457 O452 1.259 . S
C457 O454 1.235 . S
O458 Co448 2.021 . S
O458 C455 1.238 . S
O459 Co453 2.052 . S
O459 C455 1.241 . S
O460 Co448 2.137 . S
O460 C451 1.247 . S
O461 Co448 2.244 . S
O461 C451 1.272 . S
O461 Co453 2.135 . S
Co462 O463 2.216 . S
Co462 O464 2.091 . S
Co462 O466 2.004 . S
Co462 O472 2.021 . S
Co462 O474 2.137 . S
Co462 O475 2.244 . S
O463 Co462 2.216 . S
O463 C470 1.247 . S
O464 Co462 2.091 . S
O464 C470 1.261 . S
C465 O474 1.247 . S
C465 O475 1.272 . S
O466 Co462 2.004 . S
O466 C471 1.259 . S
Co467 O468 2.061 1_655 S
Co467 O473 2.045 . S
Co467 O475 2.135 1_655 S
O468 Co467 2.061 1_455 S
O468 C471 1.235 . S
C469 O472 1.238 . S
C469 O473 1.219 1_455 S
C470 O463 1.247 . S
C470 O464 1.261 . S
C471 O466 1.259 . S
C471 O468 1.235 . S
O472 Co462 2.021 . S
O472 C469 1.238 . S
O473 Co467 2.045 . S
O473 C469 1.219 1_655 S
O474 Co462 2.137 . S
O474 C465 1.247 . S
O475 Co462 2.244 . S
O475 C465 1.272 . S
O475 Co467 2.135 1_455 S
Co476 O477 2.216 . S
Co476 O478 2.091 . S
Co476 O480 2.004 . S
Co476 O486 2.021 . S
Co476 O488 2.137 . S
Co476 O489 2.244 . S
O477 Co476 2.216 . S
O477 C484 1.247 . S
O478 Co476 2.091 . S
O478 C484 1.261 . S
C479 O488 1.247 . S
C479 O489 1.272 . S
O480 Co476 2.004 . S
O480 C485 1.259 . S
Co481 O482 2.061 . S
Co481 O487 2.052 . S
Co481 O489 2.135 . S
O482 Co481 2.061 . S
O482 C485 1.235 . S
C483 O486 1.238 . S
C483 O487 1.241 . S
C484 O477 1.247 . S
C484 O478 1.261 . S
C485 O480 1.259 . S
C485 O482 1.235 . S
O486 Co476 2.021 . S
O486 C483 1.238 . S
O487 Co481 2.052 . S
O487 C483 1.241 . S
O488 Co476 2.137 . S
O488 C479 1.247 . S
O489 Co476 2.244 . S
O489 C479 1.272 . S
O489 Co481 2.135 . S
Co490 O491 2.216 . S
Co490 O492 2.091 . S
Co490 O494 2.004 . S
Co490 O500 2.021 . S
Co490 O502 2.137 . S
Co490 O503 2.244 . S
O491 Co490 2.216 . S
O491 C498 1.247 . S
O492 Co490 2.091 . S
O492 C498 1.261 . S
C493 O502 1.247 . S
C493 O503 1.272 . S
O494 Co490 2.004 . S
O494 C499 1.259 . S
Co495 O496 2.061 1_545 S
Co495 O501 2.068 . S
Co495 O503 2.135 1_545 S
O496 Co495 2.061 1_565 S
O496 C499 1.235 . S
C497 O500 1.238 . S
C497 O501 1.206 1_565 S
C498 O491 1.247 . S
C498 O492 1.261 . S
C499 O494 1.259 . S
C499 O496 1.235 . S
O500 Co490 2.021 . S
O500 C497 1.238 . S
O501 Co495 2.068 . S
O501 C497 1.206 1_545 S
O502 Co490 2.137 . S
O502 C493 1.247 . S
O503 Co490 2.244 . S
O503 C493 1.272 . S
O503 Co495 2.135 1_565 S
C504 C505 1.369 . S
C504 C506 1.419 . S
C504 H508 0.930 1_554 S
C505 C504 1.369 . S
C505 C514 1.429 . S
C506 C504 1.419 . S
C506 C507 1.363 . S
C506 H509 0.929 1_554 S
C507 C506 1.363 . S
C507 C513 1.428 . S
H508 C504 0.930 1_556 S
H509 C506 0.929 1_556 S
S510 N511 1.613 . S
S510 N512 1.610 . S
N511 S510 1.613 . S
N511 C514 1.350 . S
N512 S510 1.610 . S
N512 C513 1.351 . S
C513 C507 1.428 . S
C513 N512 1.351 . S
C513 C514 1.434 . S
C514 C505 1.429 . S
C514 N511 1.350 . S
C514 C513 1.434 . S
C515 C516 1.369 . S
C515 C517 1.419 . S
C515 H519 0.930 1_554 S
C516 C515 1.369 . S
C516 C525 1.429 . S
C517 C515 1.419 . S
C517 C518 1.363 . S
C517 H520 0.929 1_554 S
C518 C517 1.363 . S
C518 C524 1.428 . S
H519 C515 0.930 1_556 S
H520 C517 0.929 1_556 S
S521 N522 1.613 . S
S521 N523 1.610 . S
N522 S521 1.613 . S
N522 C525 1.350 . S
N523 S521 1.610 . S
N523 C524 1.351 . S
C524 C518 1.428 . S
C524 N523 1.351 . S
C524 C525 1.434 . S
C525 C516 1.429 . S
C525 N522 1.350 . S
C525 C524 1.434 . S
C526 C527 1.369 . S
C526 C528 1.419 . S
C526 H530 0.930 1_554 S
C527 C526 1.369 . S
C527 C536 1.429 . S
C528 C526 1.419 . S
C528 C529 1.363 . S
C528 H531 0.929 1_554 S
C529 C528 1.363 . S
C529 C535 1.428 . S
H530 C526 0.930 1_556 S
H531 C528 0.929 1_556 S
S532 N533 1.613 . S
S532 N534 1.610 . S
N533 S532 1.613 . S
N533 C536 1.350 . S
N534 S532 1.610 . S
N534 C535 1.351 . S
C535 C529 1.428 . S
C535 N534 1.351 . S
C535 C536 1.434 . S
C536 C527 1.429 . S
C536 N533 1.350 . S
C536 C535 1.434 . S
C537 C538 1.369 . S
C537 C539 1.419 . S
C537 H541 0.930 . S
C538 C537 1.369 . S
C538 C547 1.429 . S
C539 C537 1.419 . S
C539 C540 1.363 . S
C539 H542 0.929 . S
C540 C539 1.363 . S
C540 C546 1.428 . S
H541 C537 0.930 . S
H542 C539 0.929 . S
S543 N544 1.613 . S
S543 N545 1.610 . S
N544 S543 1.613 . S
N544 C547 1.350 . S
N545 S543 1.610 . S
N545 C546 1.351 . S
C546 C540 1.428 . S
C546 N545 1.351 . S
C546 C547 1.434 . S
C547 C538 1.429 . S
C547 N544 1.350 . S
C547 C546 1.434 . S
C548 C549 1.369 . S
C548 C550 1.419 . S
C548 H552 0.930 . S
C549 C548 1.369 . S
C549 C558 1.429 . S
C550 C548 1.419 . S
C550 C551 1.363 . S
C550 H553 0.929 . S
C551 C550 1.363 . S
C551 C557 1.428 . S
H552 C548 0.930 . S
H553 C550 0.929 . S
S554 N555 1.613 . S
S554 N556 1.610 . S
N555 S554 1.613 . S
N555 C558 1.350 . S
N556 S554 1.610 . S
N556 C557 1.351 . S
C557 C551 1.428 . S
C557 N556 1.351 . S
C557 C558 1.434 . S
C558 C549 1.429 . S
C558 N555 1.350 . S
C558 C557 1.434 . S
C559 C560 1.369 . S
C559 C561 1.419 . S
C559 H563 0.930 . S
C560 C559 1.369 . S
C560 C569 1.429 . S
C561 C559 1.419 . S
C561 C562 1.363 . S
C561 H564 0.929 . S
C562 C561 1.363 . S
C562 C568 1.428 . S
H563 C559 0.930 . S
H564 C561 0.929 . S
S565 N566 1.613 . S
S565 N567 1.610 . S
N566 S565 1.613 . S
N566 C569 1.350 1_554 S
N567 S565 1.610 . S
N567 C568 1.351 1_554 S
C568 C562 1.428 . S
C568 N567 1.351 1_556 S
C568 C569 1.434 . S
C569 C560 1.429 . S
C569 N566 1.350 1_556 S
C569 C568 1.434 . S
C570 C571 1.369 . S
C570 C572 1.419 . S
C570 H574 0.930 . S
C571 C570 1.369 . S
C571 C580 1.429 . S
C572 C570 1.419 . S
C572 C573 1.363 . S
C572 H575 0.929 . S
C573 C572 1.363 . S
C573 C579 1.428 . S
H574 C570 0.930 . S
H575 C572 0.929 . S
S576 N577 1.613 . S
S576 N578 1.610 . S
N577 S576 1.613 . S
N577 C580 1.350 . S
N578 S576 1.610 . S
N578 C579 1.351 . S
C579 C573 1.428 . S
C579 N578 1.351 . S
C579 C580 1.434 . S
C580 C571 1.429 . S
C580 N577 1.350 . S
C580 C579 1.434 . S
C581 C582 1.369 . S
C581 C583 1.419 . S
C581 H585 0.930 . S
C582 C581 1.369 . S
C582 C591 1.429 . S
C583 C581 1.419 . S
C583 C584 1.363 . S
C583 H586 0.929 . S
C584 C583 1.363 . S
C584 C590 1.428 . S
H585 C581 0.930 . S
H586 C583 0.929 . S
S587 N588 1.613 . S
S587 N589 1.610 . S
N588 S587 1.613 . S
N588 C591 1.350 . S
N589 S587 1.610 . S
N589 C590 1.351 . S
C590 C584 1.428 . S
C590 N589 1.351 . S
C590 C591 1.434 . S
C591 C582 1.429 . S
C591 N588 1.350 . S
C591 C590 1.434 . S
C592 C593 1.369 . S
C592 C594 1.419 . S
C592 H596 0.930 . S
C593 C592 1.369 . S
C593 C602 1.429 . S
C594 C592 1.419 . S
C594 C595 1.363 . S
C594 H597 0.929 . S
C595 C594 1.363 . S
C595 C601 1.428 . S
H596 C592 0.930 . S
H597 C594 0.929 . S
S598 N599 1.613 . S
S598 N600 1.610 . S
N599 S598 1.613 . S
N599 C602 1.350 . S
N600 S598 1.610 . S
N600 C601 1.351 . S
C601 C595 1.428 . S
C601 N600 1.351 . S
C601 C602 1.434 . S
C602 C593 1.429 . S
C602 N599 1.350 . S
C602 C601 1.434 . S
C603 C604 1.369 . S
C603 C605 1.419 . S
C603 H607 0.930 . S
C604 C603 1.369 . S
C604 C613 1.429 . S
C605 C603 1.419 . S
C605 C606 1.363 . S
C605 H608 0.929 . S
C606 C605 1.363 . S
C606 C612 1.428 . S
H607 C603 0.930 . S
H608 C605 0.929 . S
S609 N610 1.613 1_455 S
S609 N611 1.610 1_455 S
N610 S609 1.613 1_655 S
N610 C613 1.350 . S
N611 S609 1.610 1_655 S
N611 C612 1.351 . S
C612 C606 1.428 . S
C612 N611 1.351 . S
C612 C613 1.434 . S
C613 C604 1.429 . S
C613 N610 1.350 . S
C613 C612 1.434 . S
C614 C615 1.369 . S
C614 C616 1.419 . S
C614 H618 0.930 . S
C615 C614 1.369 . S
C615 C624 1.429 . S
C616 C614 1.419 . S
C616 C617 1.363 . S
C616 H619 0.929 . S
C617 C616 1.363 . S
C617 C623 1.428 . S
H618 C614 0.930 . S
H619 C616 0.929 . S
S620 N621 1.613 . S
S620 N622 1.610 . S
N621 S620 1.613 . S
N621 C624 1.350 . S
N622 S620 1.610 . S
N622 C623 1.351 . S
C623 C617 1.428 . S
C623 N622 1.351 . S
C623 C624 1.434 . S
C624 C615 1.429 . S
C624 N621 1.350 . S
C624 C623 1.434 . S
C625 C626 1.369 . S
C625 C627 1.419 . S
C625 H629 0.930 . S
C626 C625 1.369 . S
C626 C635 1.429 . S
C627 C625 1.419 . S
C627 C628 1.363 . S
C627 H630 0.929 . S
C628 C627 1.363 . S
C628 C634 1.428 . S
H629 C625 0.930 . S
H630 C627 0.929 . S
S631 N632 1.613 . S
S631 N633 1.610 . S
N632 S631 1.613 . S
N632 C635 1.350 . S
N633 S631 1.610 . S
N633 C634 1.351 . S
C634 C628 1.428 . S
C634 N633 1.351 . S
C634 C635 1.434 . S
C635 C626 1.429 . S
C635 N632 1.350 . S
C635 C634 1.434 . S
C636 C637 1.369 . S
C636 C638 1.419 . S
C636 H640 0.930 . S
C637 C636 1.369 . S
C637 C646 1.429 . S
C638 C636 1.419 . S
C638 C639 1.363 . S
C638 H641 0.929 . S
C639 C638 1.363 . S
C639 C645 1.428 . S
H640 C636 0.930 . S
H641 C638 0.929 . S
S642 N643 1.613 . S
S642 N644 1.610 . S
N643 S642 1.613 . S
N643 C646 1.350 . S
N644 S642 1.610 . S
N644 C645 1.351 . S
C645 C639 1.428 . S
C645 N644 1.351 . S
C645 C646 1.434 . S
C646 C637 1.429 . S
C646 N643 1.350 . S
C646 C645 1.434 . S
C647 C648 1.369 . S
C647 C649 1.419 . S
C647 H651 0.930 . S
C648 C647 1.369 . S
C648 C657 1.429 . S
C649 C647 1.419 . S
C649 C650 1.363 . S
C649 H652 0.929 . S
C650 C649 1.363 . S
C650 C656 1.428 . S
H651 C647 0.930 . S
H652 C649 0.929 . S
S653 N654 1.613 . S
S653 N655 1.610 . S
N654 S653 1.613 . S
N654 C657 1.350 . S
N655 S653 1.610 . S
N655 C656 1.351 . S
C656 C650 1.428 . S
C656 N655 1.351 . S
C656 C657 1.434 . S
C657 C648 1.429 . S
C657 N654 1.350 . S
C657 C656 1.434 . S
C658 C659 1.369 . S
C658 C660 1.419 . S
C658 H662 0.930 . S
C659 C658 1.369 . S
C659 C668 1.429 . S
C660 C658 1.419 . S
C660 C661 1.363 . S
C660 H663 0.929 . S
C661 C660 1.363 . S
C661 C667 1.428 . S
H662 C658 0.930 . S
H663 C660 0.929 . S
S664 N665 1.613 . S
S664 N666 1.610 . S
N665 S664 1.613 . S
N665 C668 1.350 . S
N666 S664 1.610 . S
N666 C667 1.351 . S
C667 C661 1.428 . S
C667 N666 1.351 . S
C667 C668 1.434 . S
C668 C659 1.429 . S
C668 N665 1.350 . S
C668 C667 1.434 . S
C669 C670 1.369 . S
C669 C671 1.419 . S
C669 H673 0.930 . S
C670 C669 1.369 . S
C670 C679 1.429 . S
C671 C669 1.419 . S
C671 C672 1.363 . S
C671 H674 0.929 . S
C672 C671 1.363 . S
C672 C678 1.428 . S
H673 C669 0.930 . S
H674 C671 0.929 . S
S675 N676 1.613 . S
S675 N677 1.610 . S
N676 S675 1.613 . S
N676 C679 1.350 . S
N677 S675 1.610 . S
N677 C678 1.351 . S
C678 C672 1.428 . S
C678 N677 1.351 . S
C678 C679 1.434 . S
C679 C670 1.429 . S
C679 N676 1.350 . S
C679 C678 1.434 . S
C680 C681 1.369 . S
C680 C682 1.419 . S
C680 H684 0.930 . S
C681 C680 1.369 . S
C681 C690 1.429 . S
C682 C680 1.419 . S
C682 C683 1.363 . S
C682 H685 0.929 . S
C683 C682 1.363 . S
C683 C689 1.428 . S
H684 C680 0.930 . S
H685 C682 0.929 . S
S686 N687 1.613 . S
S686 N688 1.610 . S
N687 S686 1.613 . S
N687 C690 1.350 . S
N688 S686 1.610 . S
N688 C689 1.351 . S
C689 C683 1.428 . S
C689 N688 1.351 . S
C689 C690 1.434 . S
C690 C681 1.429 . S
C690 N687 1.350 . S
C690 C689 1.434 . S
C691 C692 1.369 . S
C691 C693 1.419 . S
C691 H695 0.930 . S
C692 C691 1.369 . S
C692 C701 1.429 . S
C693 C691 1.419 . S
C693 C694 1.363 . S
C693 H696 0.929 . S
C694 C693 1.363 . S
C694 C700 1.428 . S
H695 C691 0.930 . S
H696 C693 0.929 . S
S697 N698 1.613 . S
S697 N699 1.610 . S
N698 S697 1.613 . S
N698 C701 1.350 . S
N699 S697 1.610 . S
N699 C700 1.351 . S
C700 C694 1.428 . S
C700 N699 1.351 . S
C700 C701 1.434 . S
C701 C692 1.429 . S
C701 N698 1.350 . S
C701 C700 1.434 . S
C702 C703 1.369 . S
C702 C704 1.419 1_454 S
C702 H706 0.930 . S
C703 C702 1.369 . S
C703 C712 1.429 . S
C704 C702 1.419 1_656 S
C704 C705 1.363 . S
C704 H707 0.929 . S
C705 C704 1.363 . S
C705 C711 1.428 . S
H706 C702 0.930 . S
H707 C704 0.929 . S
S708 N709 1.613 1_655 S
S708 N710 1.610 1_554 S
N709 S708 1.613 1_455 S
N709 C712 1.350 . S
N710 S708 1.610 1_556 S
N710 C711 1.351 . S
C711 C705 1.428 . S
C711 N710 1.351 . S
C711 C712 1.434 1_656 S
C712 C703 1.429 . S
C712 N709 1.350 . S
C712 C711 1.434 1_454 S
C713 C714 1.369 1_554 S
C713 C715 1.419 . S
C713 H717 0.930 . S
C714 C713 1.369 1_556 S
C714 C723 1.429 . S
C715 C713 1.419 . S
C715 C716 1.363 . S
C715 H718 0.929 . S
C716 C715 1.363 . S
C716 C722 1.428 1_554 S
H717 C713 0.930 . S
H718 C715 0.929 . S
S719 N720 1.613 . S
S719 N721 1.610 . S
N720 S719 1.613 . S
N720 C723 1.350 . S
N721 S719 1.610 . S
N721 C722 1.351 . S
C722 C716 1.428 1_556 S
C722 N721 1.351 . S
C722 C723 1.434 . S
C723 C714 1.429 . S
C723 N720 1.350 . S
C723 C722 1.434 . S
C724 C725 1.369 1_556 S
C724 C726 1.419 1_565 S
C724 H728 0.930 . S
C725 C724 1.369 1_554 S
C725 C734 1.429 . S
C726 C724 1.419 1_545 S
C726 C727 1.363 . S
C726 H729 0.929 . S
C727 C726 1.363 . S
C727 C733 1.428 1_556 S
H728 C724 0.930 . S
H729 C726 0.929 . S
S730 N731 1.568 1_545 S
S730 N732 1.610 . S
N731 S730 1.568 1_565 S
N731 C734 1.343 . S
N732 S730 1.610 . S
N732 C733 1.351 . S
C733 C727 1.428 1_554 S
C733 N732 1.351 . S
C733 C734 1.434 1_545 S
C734 C725 1.429 . S
C734 N731 1.343 . S
C734 C733 1.434 1_565 S
C735 C736 1.367 1_554 S
C735 C737 1.420 1_655 S
C735 H739 0.930 . S
C736 C735 1.367 1_556 S
C736 C745 1.429 . S
C737 C735 1.420 1_455 S
C737 C738 1.363 . S
C737 H740 0.929 . S
C738 C737 1.363 . S
C738 C744 1.424 1_554 S
H739 C735 0.930 . S
H740 C737 0.929 . S
S741 N742 1.613 1_455 S
S741 N743 1.610 . S
N742 S741 1.613 1_655 S
N742 C745 1.350 . S
N743 S741 1.610 . S
N743 C744 1.351 . S
C744 C738 1.424 1_556 S
C744 N743 1.351 . S
C744 C745 1.438 1_455 S
C745 C736 1.429 . S
C745 N742 1.350 . S
C745 C744 1.438 1_655 S
C746 C747 1.369 1_554 S
C746 C748 1.419 . S
C746 H750 0.930 . S
C747 C746 1.369 1_556 S
C747 C756 1.429 . S
C748 C746 1.419 . S
C748 C749 1.363 . S
C748 H751 0.929 . S
C749 C748 1.363 . S
C749 C755 1.428 1_554 S
H750 C746 0.930 . S
H751 C748 0.929 . S
S752 N753 1.613 . S
S752 N754 1.610 . S
N753 S752 1.613 . S
N753 C756 1.350 . S
N754 S752 1.610 . S
N754 C755 1.351 . S
C755 C749 1.428 1_556 S
C755 N754 1.351 . S
C755 C756 1.434 . S
C756 C747 1.429 . S
C756 N753 1.350 . S
C756 C755 1.434 . S
C757 C758 1.369 . S
C757 C759 1.419 1_545 S
C757 H761 0.930 . S
C758 C757 1.369 . S
C758 C767 1.429 1_556 S
C759 C757 1.419 1_565 S
C759 C760 1.363 1_556 S
C759 H762 0.929 . S
C760 C759 1.363 1_554 S
C760 C766 1.428 . S
H761 C757 0.930 . S
H762 C759 0.929 . S
S763 N764 1.613 . S
S763 N765 1.614 1_545 S
N764 S763 1.613 . S
N764 C767 1.350 . S
N765 S763 1.614 1_565 S
N765 C766 1.351 . S
C766 C760 1.428 . S
C766 N765 1.351 . S
C766 C767 1.434 1_565 S
C767 C758 1.429 1_554 S
C767 N764 1.350 . S
C767 C766 1.434 1_545 S
C768 C769 1.369 . S
C768 C770 1.419 . S
C768 H772 0.930 . S
C769 C768 1.369 . S
C769 C778 1.429 . S
C770 C768 1.419 . S
C770 C771 1.363 . S
C770 H773 0.929 . S
C771 C770 1.363 . S
C771 C777 1.428 . S
H772 C768 0.930 . S
H773 C770 0.929 . S
S774 N775 1.613 . S
S774 N776 1.610 . S
N775 S774 1.613 . S
N775 C778 1.350 . S
N776 S774 1.610 . S
N776 C777 1.351 . S
C777 C771 1.428 . S
C777 N776 1.351 . S
C777 C778 1.434 . S
C778 C769 1.429 . S
C778 N775 1.350 . S
C778 C777 1.434 . S
C779 C780 1.369 . S
C779 C781 1.419 . S
C779 H783 0.930 . S
C780 C779 1.369 . S
C780 C789 1.429 . S
C781 C779 1.419 . S
C781 C782 1.363 . S
C781 H784 0.929 . S
C782 C781 1.363 . S
C782 C788 1.428 . S
H783 C779 0.930 . S
H784 C781 0.929 . S
S785 N786 1.613 . S
S785 N787 1.610 . S
N786 S785 1.613 . S
N786 C789 1.350 . S
N787 S785 1.610 . S
N787 C788 1.351 . S
C788 C782 1.428 . S
C788 N787 1.351 . S
C788 C789 1.434 . S
C789 C780 1.429 . S
C789 N786 1.350 . S
C789 C788 1.434 . S
C790 C791 1.369 . S
C790 C792 1.419 . S
C790 H794 0.930 . S
C791 C790 1.369 . S
C791 C800 1.429 . S
C792 C790 1.419 . S
C792 C793 1.363 . S
C792 H795 0.929 . S
C793 C792 1.363 . S
C793 C799 1.428 . S
H794 C790 0.930 . S
H795 C792 0.929 . S
S796 N797 1.613 . S
S796 N798 1.610 . S
N797 S796 1.613 . S
N797 C800 1.350 . S
N798 S796 1.610 . S
N798 C799 1.351 . S
C799 C793 1.428 . S
C799 N798 1.351 . S
C799 C800 1.434 . S
C800 C791 1.429 . S
C800 N797 1.350 . S
C800 C799 1.434 . S
C801 C802 1.369 . S
C801 C803 1.419 . S
C801 H805 0.930 . S
C802 C801 1.369 . S
C802 C811 1.429 . S
C803 C801 1.419 . S
C803 C804 1.363 . S
C803 H806 0.929 . S
C804 C803 1.363 . S
C804 C810 1.428 . S
H805 C801 0.930 . S
H806 C803 0.929 . S
S807 N808 1.613 . S
S807 N809 1.610 . S
N808 S807 1.613 . S
N808 C811 1.350 . S
N809 S807 1.610 . S
N809 C810 1.351 . S
C810 C804 1.428 . S
C810 N809 1.351 . S
C810 C811 1.434 . S
C811 C802 1.429 . S
C811 N808 1.350 . S
C811 C810 1.434 . S
C812 C813 1.369 . S
C812 C814 1.419 . S
C812 H816 0.930 . S
C813 C812 1.369 . S
C813 C822 1.429 . S
C814 C812 1.419 . S
C814 C815 1.363 . S
C814 H817 0.929 . S
C815 C814 1.363 . S
C815 C821 1.428 . S
H816 C812 0.930 . S
H817 C814 0.929 . S
S818 N819 1.613 . S
S818 N820 1.610 . S
N819 S818 1.613 . S
N819 C822 1.350 . S
N820 S818 1.610 . S
N820 C821 1.351 . S
C821 C815 1.428 . S
C821 N820 1.351 . S
C821 C822 1.434 . S
C822 C813 1.429 . S
C822 N819 1.350 . S
C822 C821 1.434 . S
C823 C824 1.369 . S
C823 C825 1.419 . S
C823 H827 0.930 . S
C824 C823 1.369 . S
C824 C833 1.429 . S
C825 C823 1.419 . S
C825 C826 1.363 . S
C825 H828 0.929 . S
C826 C825 1.363 . S
C826 C832 1.428 . S
H827 C823 0.930 . S
H828 C825 0.929 . S
S829 N830 1.613 . S
S829 N831 1.610 . S
N830 S829 1.613 . S
N830 C833 1.350 . S
N831 S829 1.610 . S
N831 C832 1.351 . S
C832 C826 1.428 . S
C832 N831 1.351 . S
C832 C833 1.434 . S
C833 C824 1.429 . S
C833 N830 1.350 . S
C833 C832 1.434 . S
C834 C835 1.369 . S
C834 C836 1.419 . S
C834 H838 0.930 . S
C835 C834 1.369 . S
C835 C844 1.429 . S
C836 C834 1.419 . S
C836 C837 1.363 . S
C836 H839 0.929 . S
C837 C836 1.363 . S
C837 C843 1.428 . S
H838 C834 0.930 . S
H839 C836 0.929 . S
S840 N841 1.613 . S
S840 N842 1.610 . S
N841 S840 1.613 . S
N841 C844 1.350 . S
N842 S840 1.610 . S
N842 C843 1.351 . S
C843 C837 1.428 . S
C843 N842 1.351 . S
C843 C844 1.434 . S
C844 C835 1.429 . S
C844 N841 1.350 . S
C844 C843 1.434 . S
C845 C846 1.369 . S
C845 C847 1.419 . S
C845 H849 0.930 . S
C846 C845 1.369 . S
C846 C855 1.429 . S
C847 C845 1.419 . S
C847 C848 1.363 . S
C847 H850 0.929 . S
C848 C847 1.363 . S
C848 C854 1.428 . S
H849 C845 0.930 . S
H850 C847 0.929 . S
S851 N852 1.613 . S
S851 N853 1.610 . S
N852 S851 1.613 . S
N852 C855 1.350 . S
N853 S851 1.610 . S
N853 C854 1.351 . S
C854 C848 1.428 . S
C854 N853 1.351 . S
C854 C855 1.434 . S
C855 C846 1.429 . S
C855 N852 1.350 . S
C855 C854 1.434 . S
C856 C857 1.369 . S
C856 C858 1.419 . S
C856 H860 0.930 . S
C857 C856 1.369 . S
C857 C866 1.429 . S
C858 C856 1.419 . S
C858 C859 1.363 . S
C858 H861 0.929 . S
C859 C858 1.363 . S
C859 C865 1.428 . S
H860 C856 0.930 . S
H861 C858 0.929 . S
S862 N863 1.613 . S
S862 N864 1.610 . S
N863 S862 1.613 . S
N863 C866 1.350 . S
N864 S862 1.610 . S
N864 C865 1.351 . S
C865 C859 1.428 . S
C865 N864 1.351 . S
C865 C866 1.434 . S
C866 C857 1.429 . S
C866 N863 1.350 . S
C866 C865 1.434 . S
C867 C868 1.369 . S
C867 C869 1.419 . S
C867 H871 0.930 . S
C868 C867 1.369 . S
C868 C877 1.429 . S
C869 C867 1.419 . S
C869 C870 1.363 . S
C869 H872 0.929 . S
C870 C869 1.363 . S
C870 C876 1.428 . S
H871 C867 0.930 . S
H872 C869 0.929 . S
S873 N874 1.613 . S
S873 N875 1.610 . S
N874 S873 1.613 . S
N874 C877 1.350 . S
N875 S873 1.610 . S
N875 C876 1.351 . S
C876 C870 1.428 . S
C876 N875 1.351 . S
C876 C877 1.434 . S
C877 C868 1.429 . S
C877 N874 1.350 . S
C877 C876 1.434 . S
C878 C879 1.369 . S
C878 C880 1.419 . S
C878 H882 0.930 . S
C879 C878 1.369 . S
C879 C888 1.429 . S
C880 C878 1.419 . S
C880 C881 1.363 . S
C880 H883 0.929 . S
C881 C880 1.363 . S
C881 C887 1.428 . S
H882 C878 0.930 . S
H883 C880 0.929 . S
S884 N885 1.613 . S
S884 N886 1.610 . S
N885 S884 1.613 . S
N885 C888 1.350 . S
N886 S884 1.610 . S
N886 C887 1.351 . S
C887 C881 1.428 . S
C887 N886 1.351 . S
C887 C888 1.434 . S
C888 C879 1.429 . S
C888 N885 1.350 . S
C888 C887 1.434 . S
C889 C890 1.369 . S
C889 C891 1.419 . S
C889 H893 0.930 . S
C890 C889 1.369 . S
C890 C899 1.429 . S
C891 C889 1.419 . S
C891 C892 1.363 . S
C891 H894 0.929 . S
C892 C891 1.363 . S
C892 C898 1.428 . S
H893 C889 0.930 . S
H894 C891 0.929 . S
S895 N896 1.613 . S
S895 N897 1.610 . S
N896 S895 1.613 . S
N896 C899 1.350 . S
N897 S895 1.610 . S
N897 C898 1.351 . S
C898 C892 1.428 . S
C898 N897 1.351 . S
C898 C899 1.434 . S
C899 C890 1.429 . S
C899 N896 1.350 . S
C899 C898 1.434 . S
C900 C901 1.369 . S
C900 C902 1.419 . S
C900 H904 0.930 . S
C901 C900 1.369 . S
C901 C910 1.429 . S
C902 C900 1.419 . S
C902 C903 1.363 . S
C902 H905 0.929 . S
C903 C902 1.363 . S
C903 C909 1.428 . S
H904 C900 0.930 . S
H905 C902 0.929 . S
S906 N907 1.613 . S
S906 N908 1.610 . S
N907 S906 1.613 . S
N907 C910 1.350 . S
N908 S906 1.610 . S
N908 C909 1.351 . S
C909 C903 1.428 . S
C909 N908 1.351 . S
C909 C910 1.434 . S
C910 C901 1.429 . S
C910 N907 1.350 . S
C910 C909 1.434 . S
C911 C912 1.369 . S
C911 C913 1.419 . S
C911 H915 0.930 . S
C912 C911 1.369 . S
C912 C921 1.429 . S
C913 C911 1.419 . S
C913 C914 1.363 . S
C913 H916 0.929 . S
C914 C913 1.363 . S
C914 C920 1.428 . S
H915 C911 0.930 . S
H916 C913 0.929 . S
S917 N918 1.613 . S
S917 N919 1.610 . S
N918 S917 1.613 . S
N918 C921 1.350 . S
N919 S917 1.610 . S
N919 C920 1.351 . S
C920 C914 1.428 . S
C920 N919 1.351 . S
C920 C921 1.434 . S
C921 C912 1.429 . S
C921 N918 1.350 . S
C921 C920 1.434 . S
C922 C923 1.369 . S
C922 C924 1.419 . S
C922 H926 0.930 . S
C923 C922 1.369 . S
C923 C932 1.429 . S
C924 C922 1.419 . S
C924 C925 1.363 . S
C924 H927 0.929 . S
C925 C924 1.363 . S
C925 C931 1.428 . S
H926 C922 0.930 . S
H927 C924 0.929 . S
S928 N929 1.613 . S
S928 N930 1.610 . S
N929 S928 1.613 . S
N929 C932 1.350 . S
N930 S928 1.610 . S
N930 C931 1.351 . S
C931 C925 1.428 . S
C931 N930 1.351 . S
C931 C932 1.434 . S
C932 C923 1.429 . S
C932 N929 1.350 . S
C932 C931 1.434 . S
C933 C934 1.369 . S
C933 C935 1.419 . S
C933 H937 0.930 . S
C934 C933 1.369 . S
C934 C943 1.429 . S
C935 C933 1.419 . S
C935 C936 1.363 . S
C935 H938 0.929 . S
C936 C935 1.363 . S
C936 C942 1.428 . S
H937 C933 0.930 . S
H938 C935 0.929 . S
S939 N940 1.613 . S
S939 N941 1.610 . S
N940 S939 1.613 . S
N940 C943 1.350 . S
N941 S939 1.610 . S
N941 C942 1.351 . S
C942 C936 1.428 . S
C942 N941 1.351 . S
C942 C943 1.434 . S
C943 C934 1.429 . S
C943 N940 1.350 . S
C943 C942 1.434 . S
C944 C945 1.369 . S
C944 C946 1.419 . S
C944 H948 0.930 . S
C945 C944 1.369 . S
C945 C954 1.429 . S
C946 C944 1.419 . S
C946 C947 1.363 . S
C946 H949 0.929 . S
C947 C946 1.363 . S
C947 C953 1.428 . S
H948 C944 0.930 . S
H949 C946 0.929 . S
S950 N951 1.613 . S
S950 N952 1.610 . S
N951 S950 1.613 . S
N951 C954 1.350 . S
N952 S950 1.610 . S
N952 C953 1.351 . S
C953 C947 1.428 . S
C953 N952 1.351 . S
C953 C954 1.434 . S
C954 C945 1.429 . S
C954 N951 1.350 . S
C954 C953 1.434 . S
C955 C956 1.369 . S
C955 C957 1.419 . S
C955 H959 0.930 . S
C956 C955 1.369 . S
C956 C965 1.429 . S
C957 C955 1.419 . S
C957 C958 1.363 . S
C957 H960 0.929 . S
C958 C957 1.363 . S
C958 C964 1.428 . S
H959 C955 0.930 . S
H960 C957 0.929 . S
S961 N962 1.613 . S
S961 N963 1.610 . S
N962 S961 1.613 . S
N962 C965 1.350 . S
N963 S961 1.610 . S
N963 C964 1.351 . S
C964 C958 1.428 . S
C964 N963 1.351 . S
C964 C965 1.434 . S
C965 C956 1.429 . S
C965 N962 1.350 . S
C965 C964 1.434 . S
C966 C967 1.369 . S
C966 C968 1.419 . S
C966 H970 0.930 . S
C967 C966 1.369 . S
C967 C976 1.429 . S
C968 C966 1.419 . S
C968 C969 1.363 . S
C968 H971 0.929 . S
C969 C968 1.363 . S
C969 C975 1.428 . S
H970 C966 0.930 . S
H971 C968 0.929 . S
S972 N973 1.613 . S
S972 N974 1.610 . S
N973 S972 1.613 . S
N973 C976 1.350 . S
N974 S972 1.610 . S
N974 C975 1.351 . S
C975 C969 1.428 . S
C975 N974 1.351 . S
C975 C976 1.434 . S
C976 C967 1.429 . S
C976 N973 1.350 . S
C976 C975 1.434 . S
C977 C978 1.369 . S
C977 C979 1.419 . S
C977 H981 0.930 . S
C978 C977 1.369 . S
C978 C987 1.429 . S
C979 C977 1.419 . S
C979 C980 1.363 . S
C979 H982 0.929 . S
C980 C979 1.363 . S
C980 C986 1.428 . S
H981 C977 0.930 . S
H982 C979 0.929 . S
S983 N984 1.613 . S
S983 N985 1.610 . S
N984 S983 1.613 . S
N984 C987 1.350 . S
N985 S983 1.610 . S
N985 C986 1.351 . S
C986 C980 1.428 . S
C986 N985 1.351 . S
C986 C987 1.434 . S
C987 C978 1.429 . S
C987 N984 1.350 . S
C987 C986 1.434 . S
C988 C989 1.369 . S
C988 C990 1.419 . S
C988 H992 0.930 . S
C989 C988 1.369 . S
C989 C998 1.429 . S
C990 C988 1.419 . S
C990 C991 1.363 . S
C990 H993 0.929 . S
C991 C990 1.363 . S
C991 C997 1.428 . S
H992 C988 0.930 . S
H993 C990 0.929 . S
S994 N995 1.613 . S
S994 N996 1.610 . S
N995 S994 1.613 . S
N995 C998 1.350 . S
N996 S994 1.610 . S
N996 C997 1.351 . S
C997 C991 1.428 . S
C997 N996 1.351 . S
C997 C998 1.434 . S
C998 C989 1.429 . S
C998 N995 1.350 . S
C998 C997 1.434 . S
C999 C1000 1.369 . S
C999 C1001 1.419 . S
C999 H1003 0.930 . S
C1000 C999 1.369 . S
C1000 C1009 1.429 . S
C1001 C999 1.419 . S
C1001 C1002 1.363 . S
C1001 H1004 0.929 . S
C1002 C1001 1.363 . S
C1002 C1008 1.428 . S
H1003 C999 0.930 . S
H1004 C1001 0.929 . S
S1005 N1006 1.613 . S
S1005 N1007 1.610 . S
N1006 S1005 1.613 . S
N1006 C1009 1.350 . S
N1007 S1005 1.610 . S
N1007 C1008 1.351 . S
C1008 C1002 1.428 . S
C1008 N1007 1.351 . S
C1008 C1009 1.434 . S
C1009 C1000 1.429 . S
C1009 N1006 1.350 . S
C1009 C1008 1.434 . S
C1010 C1011 1.369 . S
C1010 C1012 1.419 . S
C1010 H1014 0.930 . S
C1011 C1010 1.369 . S
C1011 C1020 1.429 . S
C1012 C1010 1.419 . S
C1012 C1013 1.363 . S
C1012 H1015 0.929 . S
C1013 C1012 1.363 . S
C1013 C1019 1.428 . S
H1014 C1010 0.930 . S
H1015 C1012 0.929 . S
S1016 N1017 1.613 . S
S1016 N1018 1.610 . S
N1017 S1016 1.613 . S
N1017 C1020 1.350 . S
N1018 S1016 1.610 . S
N1018 C1019 1.351 . S
C1019 C1013 1.428 . S
C1019 N1018 1.351 . S
C1019 C1020 1.434 . S
C1020 C1011 1.429 . S
C1020 N1017 1.350 . S
C1020 C1019 1.434 . S
C1021 C1022 1.369 . S
C1021 C1023 1.419 . S
C1021 H1025 0.930 . S
C1022 C1021 1.369 . S
C1022 C1031 1.429 . S
C1023 C1021 1.419 . S
C1023 C1024 1.363 . S
C1023 H1026 0.929 . S
C1024 C1023 1.363 . S
C1024 C1030 1.428 . S
H1025 C1021 0.930 . S
H1026 C1023 0.929 . S
S1027 N1028 1.613 . S
S1027 N1029 1.610 . S
N1028 S1027 1.613 . S
N1028 C1031 1.350 . S
N1029 S1027 1.610 . S
N1029 C1030 1.351 . S
C1030 C1024 1.428 . S
C1030 N1029 1.351 . S
C1030 C1031 1.434 . S
C1031 C1022 1.429 . S
C1031 N1028 1.350 . S
C1031 C1030 1.434 . S
C1032 C1033 1.369 1_655 S
C1032 C1034 1.419 . S
C1032 H1036 0.930 . S
C1033 C1032 1.369 1_455 S
C1033 C1042 1.429 . S
C1034 C1032 1.419 . S
C1034 C1035 1.363 . S
C1034 H1037 0.929 . S
C1035 C1034 1.363 . S
C1035 C1041 1.428 1_655 S
H1036 C1032 0.930 . S
H1037 C1034 0.929 . S
S1038 N1039 1.613 . S
S1038 N1040 1.610 . S
N1039 S1038 1.613 . S
N1039 C1042 1.350 . S
N1040 S1038 1.610 . S
N1040 C1041 1.351 . S
C1041 C1035 1.428 1_455 S
C1041 N1040 1.351 . S
C1041 C1042 1.434 . S
C1042 C1033 1.429 . S
C1042 N1039 1.350 . S
C1042 C1041 1.434 . S
C1043 C1044 1.369 . S
C1043 C1045 1.419 . S
C1043 H1047 0.930 . S
C1044 C1043 1.369 . S
C1044 C1053 1.429 . S
C1045 C1043 1.419 . S
C1045 C1046 1.363 . S
C1045 H1048 0.929 . S
C1046 C1045 1.363 . S
C1046 C1052 1.428 . S
H1047 C1043 0.930 . S
H1048 C1045 0.929 . S
S1049 N1050 1.613 . S
S1049 N1051 1.610 . S
N1050 S1049 1.613 . S
N1050 C1053 1.350 . S
N1051 S1049 1.610 . S
N1051 C1052 1.351 . S
C1052 C1046 1.428 . S
C1052 N1051 1.351 . S
C1052 C1053 1.434 . S
C1053 C1044 1.429 . S
C1053 N1050 1.350 . S
C1053 C1052 1.434 . S
C1054 C1055 1.369 1_545 S
C1054 C1056 1.419 . S
C1054 H1058 0.930 . S
C1055 C1054 1.369 1_565 S
C1055 C1064 1.429 . S
C1056 C1054 1.419 . S
C1056 C1057 1.363 . S
C1056 H1059 0.929 . S
C1057 C1056 1.363 . S
C1057 C1063 1.428 1_545 S
H1058 C1054 0.930 . S
H1059 C1056 0.929 . S
S1060 N1061 1.613 . S
S1060 N1062 1.610 . S
N1061 S1060 1.613 . S
N1061 C1064 1.350 . S
N1062 S1060 1.610 . S
N1062 C1063 1.351 . S
C1063 C1057 1.428 1_565 S
C1063 N1062 1.351 . S
C1063 C1064 1.434 . S
C1064 C1055 1.429 . S
C1064 N1061 1.350 . S
C1064 C1063 1.434 . S
C1065 C1066 1.369 . S
C1065 C1067 1.419 . S
C1065 H1069 0.930 . S
C1066 C1065 1.369 . S
C1066 C1075 1.429 1_565 S
C1067 C1065 1.419 . S
C1067 C1068 1.363 1_565 S
C1067 H1070 0.929 . S
C1068 C1067 1.363 1_545 S
C1068 C1074 1.428 . S
H1069 C1065 0.930 . S
H1070 C1067 0.929 . S
S1071 N1072 1.613 . S
S1071 N1073 1.610 . S
N1072 S1071 1.613 . S
N1072 C1075 1.350 . S
N1073 S1071 1.610 . S
N1073 C1074 1.351 . S
C1074 C1068 1.428 . S
C1074 N1073 1.351 . S
C1074 C1075 1.434 . S
C1075 C1066 1.429 1_545 S
C1075 N1072 1.350 . S
C1075 C1074 1.434 . S
C1076 C1077 1.369 . S
C1076 C1078 1.419 . S
C1076 H1080 0.930 . S
C1077 C1076 1.369 . S
C1077 C1086 1.429 1_655 S
C1078 C1076 1.419 . S
C1078 C1079 1.363 1_655 S
C1078 H1081 0.929 . S
C1079 C1078 1.363 1_455 S
C1079 C1085 1.428 . S
H1080 C1076 0.930 . S
H1081 C1078 0.929 . S
S1082 N1083 1.613 . S
S1082 N1084 1.610 . S
N1083 S1082 1.613 . S
N1083 C1086 1.350 . S
N1084 S1082 1.610 . S
N1084 C1085 1.351 . S
C1085 C1079 1.428 . S
C1085 N1084 1.351 . S
C1085 C1086 1.434 . S
C1086 C1077 1.429 1_455 S
C1086 N1083 1.350 . S
C1086 C1085 1.434 . S
C1087 C1088 1.369 . S
C1087 C1089 1.419 . S
C1087 H1091 0.930 . S
C1088 C1087 1.369 . S
C1088 C1097 1.429 . S
C1089 C1087 1.419 . S
C1089 C1090 1.363 . S
C1089 H1092 0.929 . S
C1090 C1089 1.363 . S
C1090 C1096 1.428 . S
H1091 C1087 0.930 . S
H1092 C1089 0.929 . S
S1093 N1094 1.613 . S
S1093 N1095 1.610 . S
N1094 S1093 1.613 . S
N1094 C1097 1.350 . S
N1095 S1093 1.610 . S
N1095 C1096 1.351 . S
C1096 C1090 1.428 . S
C1096 N1095 1.351 . S
C1096 C1097 1.434 . S
C1097 C1088 1.429 . S
C1097 N1094 1.350 . S
C1097 C1096 1.434 . S
C1098 C1099 1.369 . S
C1098 C1100 1.419 . S
C1098 H1102 0.930 . S
C1099 C1098 1.369 . S
C1099 C1108 1.429 . S
C1100 C1098 1.419 . S
C1100 C1101 1.363 . S
C1100 H1103 0.929 . S
C1101 C1100 1.363 . S
C1101 C1107 1.428 . S
H1102 C1098 0.930 . S
H1103 C1100 0.929 . S
S1104 N1105 1.613 . S
S1104 N1106 1.610 . S
N1105 S1104 1.613 . S
N1105 C1108 1.350 . S
N1106 S1104 1.610 . S
N1106 C1107 1.351 . S
C1107 C1101 1.428 . S
C1107 N1106 1.351 . S
C1107 C1108 1.434 . S
C1108 C1099 1.429 . S
C1108 N1105 1.350 . S
C1108 C1107 1.434 . S
C1109 C1110 1.369 . S
C1109 C1111 1.419 . S
C1109 H1113 0.930 . S
C1110 C1109 1.369 . S
C1110 C1119 1.429 . S
C1111 C1109 1.419 . S
C1111 C1112 1.363 . S
C1111 H1114 0.929 . S
C1112 C1111 1.363 . S
C1112 C1118 1.428 . S
H1113 C1109 0.930 . S
H1114 C1111 0.929 . S
S1115 N1116 1.613 . S
S1115 N1117 1.610 . S
N1116 S1115 1.613 . S
N1116 C1119 1.350 . S
N1117 S1115 1.610 . S
N1117 C1118 1.351 . S
C1118 C1112 1.428 . S
C1118 N1117 1.351 . S
C1118 C1119 1.434 . S
C1119 C1110 1.429 . S
C1119 N1116 1.350 . S
C1119 C1118 1.434 . S
C1120 C1121 1.369 . S
C1120 C1122 1.419 . S
C1120 H1124 0.930 . S
C1121 C1120 1.369 . S
C1121 C1130 1.429 . S
C1122 C1120 1.419 . S
C1122 C1123 1.363 . S
C1122 H1125 0.929 . S
C1123 C1122 1.363 . S
C1123 C1129 1.428 . S
H1124 C1120 0.930 . S
H1125 C1122 0.929 . S
S1126 N1127 1.613 . S
S1126 N1128 1.610 . S
N1127 S1126 1.613 . S
N1127 C1130 1.350 . S
N1128 S1126 1.610 . S
N1128 C1129 1.351 . S
C1129 C1123 1.428 . S
C1129 N1128 1.351 . S
C1129 C1130 1.434 . S
C1130 C1121 1.429 . S
C1130 N1127 1.350 . S
C1130 C1129 1.434 . S
C1131 C1132 1.369 . S
C1131 C1133 1.419 . S
C1131 H1135 0.930 . S
C1132 C1131 1.369 . S
C1132 C1141 1.429 . S
C1133 C1131 1.419 . S
C1133 C1134 1.363 . S
C1133 H1136 0.929 . S
C1134 C1133 1.363 . S
C1134 C1140 1.428 . S
H1135 C1131 0.930 . S
H1136 C1133 0.929 . S
S1137 N1138 1.613 . S
S1137 N1139 1.610 . S
N1138 S1137 1.613 . S
N1138 C1141 1.350 . S
N1139 S1137 1.610 . S
N1139 C1140 1.351 . S
C1140 C1134 1.428 . S
C1140 N1139 1.351 . S
C1140 C1141 1.434 . S
C1141 C1132 1.429 . S
C1141 N1138 1.350 . S
C1141 C1140 1.434 . S
C1142 C1143 1.369 . S
C1142 C1144 1.419 . S
C1142 H1146 0.930 . S
C1143 C1142 1.369 . S
C1143 C1152 1.429 . S
C1144 C1142 1.419 . S
C1144 C1145 1.363 . S
C1144 H1147 0.929 . S
C1145 C1144 1.363 . S
C1145 C1151 1.428 . S
H1146 C1142 0.930 . S
H1147 C1144 0.929 . S
S1148 N1149 1.613 . S
S1148 N1150 1.610 . S
N1149 S1148 1.613 . S
N1149 C1152 1.350 . S
N1150 S1148 1.610 . S
N1150 C1151 1.351 . S
C1151 C1145 1.428 . S
C1151 N1150 1.351 . S
C1151 C1152 1.434 . S
C1152 C1143 1.429 . S
C1152 N1149 1.350 . S
C1152 C1151 1.434 . S
C1153 C1154 1.369 . S
C1153 C1155 1.419 . S
C1153 H1157 0.930 . S
C1154 C1153 1.369 . S
C1154 C1163 1.429 . S
C1155 C1153 1.419 . S
C1155 C1156 1.363 . S
C1155 H1158 0.929 . S
C1156 C1155 1.363 . S
C1156 C1162 1.428 . S
H1157 C1153 0.930 . S
H1158 C1155 0.929 . S
S1159 N1160 1.613 . S
S1159 N1161 1.610 . S
N1160 S1159 1.613 . S
N1160 C1163 1.350 . S
N1161 S1159 1.610 . S
N1161 C1162 1.351 . S
C1162 C1156 1.428 . S
C1162 N1161 1.351 . S
C1162 C1163 1.434 . S
C1163 C1154 1.429 . S
C1163 N1160 1.350 . S
C1163 C1162 1.434 . S
C1164 C1165 1.369 . S
C1164 C1166 1.419 . S
C1164 H1168 0.930 . S
C1165 C1164 1.369 . S
C1165 C1174 1.429 . S
C1166 C1164 1.419 . S
C1166 C1167 1.363 . S
C1166 H1169 0.929 . S
C1167 C1166 1.363 . S
C1167 C1173 1.428 . S
H1168 C1164 0.930 . S
H1169 C1166 0.929 . S
S1170 N1171 1.613 . S
S1170 N1172 1.610 . S
N1171 S1170 1.613 . S
N1171 C1174 1.350 . S
N1172 S1170 1.610 . S
N1172 C1173 1.351 . S
C1173 C1167 1.428 . S
C1173 N1172 1.351 . S
C1173 C1174 1.434 . S
C1174 C1165 1.429 . S
C1174 N1171 1.350 . S
C1174 C1173 1.434 . S
C1175 C1176 1.369 . S
C1175 C1177 1.419 . S
C1175 H1179 0.930 . S
C1176 C1175 1.369 . S
C1176 C1185 1.429 . S
C1177 C1175 1.419 . S
C1177 C1178 1.363 . S
C1177 H1180 0.929 . S
C1178 C1177 1.363 . S
C1178 C1184 1.428 . S
H1179 C1175 0.930 . S
H1180 C1177 0.929 . S
S1181 N1182 1.613 . S
S1181 N1183 1.610 . S
N1182 S1181 1.613 . S
N1182 C1185 1.350 . S
N1183 S1181 1.610 . S
N1183 C1184 1.351 . S
C1184 C1178 1.428 . S
C1184 N1183 1.351 . S
C1184 C1185 1.434 . S
C1185 C1176 1.429 . S
C1185 N1182 1.350 . S
C1185 C1184 1.434 . S
C1186 C1187 1.369 . S
C1186 C1188 1.419 . S
C1186 H1190 0.930 . S
C1187 C1186 1.369 . S
C1187 C1196 1.429 . S
C1188 C1186 1.419 . S
C1188 C1189 1.363 . S
C1188 H1191 0.929 . S
C1189 C1188 1.363 . S
C1189 C1195 1.428 . S
H1190 C1186 0.930 . S
H1191 C1188 0.929 . S
S1192 N1193 1.613 . S
S1192 N1194 1.610 . S
N1193 S1192 1.613 . S
N1193 C1196 1.350 . S
N1194 S1192 1.610 . S
N1194 C1195 1.351 . S
C1195 C1189 1.428 . S
C1195 N1194 1.351 . S
C1195 C1196 1.434 . S
C1196 C1187 1.429 . S
C1196 N1193 1.350 . S
C1196 C1195 1.434 . S
C1197 C1198 1.369 . S
C1197 C1199 1.419 . S
C1197 H1201 0.930 . S
C1198 C1197 1.369 . S
C1198 C1207 1.429 . S
C1199 C1197 1.419 . S
C1199 C1200 1.363 . S
C1199 H1202 0.929 . S
C1200 C1199 1.363 . S
C1200 C1206 1.428 . S
H1201 C1197 0.930 . S
H1202 C1199 0.929 . S
S1203 N1204 1.613 . S
S1203 N1205 1.610 . S
N1204 S1203 1.613 . S
N1204 C1207 1.350 . S
N1205 S1203 1.610 . S
N1205 C1206 1.351 . S
C1206 C1200 1.428 . S
C1206 N1205 1.351 . S
C1206 C1207 1.434 . S
C1207 C1198 1.429 . S
C1207 N1204 1.350 . S
C1207 C1206 1.434 . S
C1208 C1209 1.369 . S
C1208 C1210 1.419 . S
C1208 H1212 0.930 . S
C1209 C1208 1.369 . S
C1209 C1218 1.429 . S
C1210 C1208 1.419 . S
C1210 C1211 1.363 . S
C1210 H1213 0.929 . S
C1211 C1210 1.363 . S
C1211 C1217 1.428 . S
H1212 C1208 0.930 . S
H1213 C1210 0.929 . S
S1214 N1215 1.613 . S
S1214 N1216 1.610 . S
N1215 S1214 1.613 . S
N1215 C1218 1.350 . S
N1216 S1214 1.610 . S
N1216 C1217 1.351 . S
C1217 C1211 1.428 . S
C1217 N1216 1.351 . S
C1217 C1218 1.434 . S
C1218 C1209 1.429 . S
C1218 N1215 1.350 . S
C1218 C1217 1.434 . S
C1219 C1220 1.369 . S
C1219 C1221 1.419 . S
C1219 H1223 0.930 . S
C1220 C1219 1.369 . S
C1220 C1229 1.429 . S
C1221 C1219 1.419 . S
C1221 C1222 1.363 . S
C1221 H1224 0.929 . S
C1222 C1221 1.363 . S
C1222 C1228 1.428 . S
H1223 C1219 0.930 . S
H1224 C1221 0.929 . S
S1225 N1226 1.613 . S
S1225 N1227 1.610 . S
N1226 S1225 1.613 . S
N1226 C1229 1.350 . S
N1227 S1225 1.610 . S
N1227 C1228 1.351 . S
C1228 C1222 1.428 . S
C1228 N1227 1.351 . S
C1228 C1229 1.434 . S
C1229 C1220 1.429 . S
C1229 N1226 1.350 . S
C1229 C1228 1.434 . S
C1230 C1231 1.369 . S
C1230 C1232 1.419 1_456 S
C1230 H1234 0.930 . S
C1231 C1230 1.369 . S
C1231 C1240 1.429 . S
C1232 C1230 1.419 1_654 S
C1232 C1233 1.363 . S
C1232 H1235 0.929 . S
C1233 C1232 1.363 . S
C1233 C1239 1.428 . S
H1234 C1230 0.930 . S
H1235 C1232 0.929 . S
S1236 N1237 1.613 1_554 S
S1236 N1238 1.610 1_455 S
N1237 S1236 1.613 1_556 S
N1237 C1240 1.350 . S
N1238 S1236 1.610 1_655 S
N1238 C1239 1.351 . S
C1239 C1233 1.428 . S
C1239 N1238 1.351 . S
C1239 C1240 1.434 1_654 S
C1240 C1231 1.429 . S
C1240 N1237 1.350 . S
C1240 C1239 1.434 1_456 S
C1241 C1242 1.369 . S
C1241 C1243 1.419 1_554 S
C1241 H1245 0.930 . S
C1242 C1241 1.369 . S
C1242 C1251 1.429 . S
C1243 C1241 1.419 1_556 S
C1243 C1244 1.363 . S
C1243 H1246 0.929 . S
C1244 C1243 1.363 . S
C1244 C1250 1.428 . S
H1245 C1241 0.930 . S
H1246 C1243 0.929 . S
S1247 N1248 1.613 . S
S1247 N1249 1.610 1_554 S
N1248 S1247 1.613 . S
N1248 C1251 1.350 . S
N1249 S1247 1.610 1_556 S
N1249 C1250 1.351 . S
C1250 C1244 1.428 . S
C1250 N1249 1.351 . S
C1250 C1251 1.434 1_556 S
C1251 C1242 1.429 . S
C1251 N1248 1.350 . S
C1251 C1250 1.434 1_554 S
C1252 C1253 1.369 . S
C1252 C1254 1.419 1_554 S
C1252 H1256 0.930 . S
C1253 C1252 1.369 . S
C1253 C1262 1.429 1_545 S
C1254 C1252 1.419 1_556 S
C1254 C1255 1.363 1_545 S
C1254 H1257 0.929 . S
C1255 C1254 1.363 1_565 S
C1255 C1261 1.428 . S
H1256 C1252 0.930 . S
H1257 C1254 0.929 . S
S1258 N1259 1.613 . S
S1258 N1260 1.610 . S
N1259 S1258 1.613 . S
N1259 C1262 1.350 . S
N1260 S1258 1.610 . S
N1260 C1261 1.351 1_554 S
C1261 C1255 1.428 . S
C1261 N1260 1.351 1_556 S
C1261 C1262 1.434 1_556 S
C1262 C1253 1.429 1_565 S
C1262 N1259 1.350 . S
C1262 C1261 1.434 1_554 S
C1263 C1264 1.369 1_545 S
C1263 C1265 1.419 1_556 S
C1263 H1267 0.930 . S
C1264 C1263 1.369 1_565 S
C1264 C1273 1.429 . S
C1265 C1263 1.419 1_554 S
C1265 C1266 1.363 . S
C1265 H1268 0.929 . S
C1266 C1265 1.363 . S
C1266 C1272 1.428 1_545 S
H1267 C1263 0.930 . S
H1268 C1265 0.929 . S
S1269 N1270 1.613 1_554 S
S1269 N1271 1.610 . S
N1270 S1269 1.613 1_556 S
N1270 C1273 1.350 . S
N1271 S1269 1.610 . S
N1271 C1272 1.351 . S
C1272 C1266 1.428 1_565 S
C1272 N1271 1.351 . S
C1272 C1273 1.434 1_554 S
C1273 C1264 1.429 . S
C1273 N1270 1.350 . S
C1273 C1272 1.434 1_556 S
C1274 C1275 1.369 . S
C1274 C1276 1.419 1_556 S
C1274 H1278 0.930 . S
C1275 C1274 1.369 . S
C1275 C1284 1.429 1_455 S
C1276 C1274 1.419 1_554 S
C1276 C1277 1.363 1_455 S
C1276 H1279 0.929 . S
C1277 C1276 1.363 1_655 S
C1277 C1283 1.428 . S
H1278 C1274 0.930 . S
H1279 C1276 0.929 . S
S1280 N1281 1.613 . S
S1280 N1282 1.610 . S
N1281 S1280 1.613 . S
N1281 C1284 1.350 . S
N1282 S1280 1.610 . S
N1282 C1283 1.351 1_556 S
C1283 C1277 1.428 . S
C1283 N1282 1.351 1_554 S
C1283 C1284 1.434 1_554 S
C1284 C1275 1.429 1_655 S
C1284 N1281 1.350 . S
C1284 C1283 1.434 1_556 S
C1285 C1286 1.369 . S
C1285 C1287 1.419 1_554 S
C1285 H1289 0.930 . S
C1286 C1285 1.369 . S
C1286 C1295 1.442 . S
C1287 C1285 1.419 1_556 S
C1287 C1288 1.363 . S
C1287 H1290 0.929 . S
C1288 C1287 1.363 . S
C1288 C1294 1.428 . S
H1289 C1285 0.930 . S
H1290 C1287 0.929 . S
S1291 N1292 1.613 . S
S1291 N1293 1.610 . S
N1292 S1291 1.613 . S
N1292 C1295 1.348 1_556 S
N1293 S1291 1.610 . S
N1293 C1294 1.351 . S
C1294 C1288 1.428 . S
C1294 N1293 1.351 . S
C1294 C1295 1.421 1_556 S
C1295 C1286 1.442 . S
C1295 N1292 1.348 1_554 S
C1295 C1294 1.421 1_554 S
C505 C9 1.378 . S
C507 C163 1.379 . S
C516 C23 1.379 . S
C518 C135 1.380 . S
C527 C149 1.383 . S
C529 C37 1.382 . S
C538 C51 1.384 . S
C540 C107 1.383 . S
C549 C121 1.377 . S
C551 C65 1.378 . S
C560 C79 1.383 . S
C562 C93 1.382 . S
C571 C331 1.380 . S
C573 C177 1.380 . S
C582 C191 1.384 . S
C584 C303 1.383 . S
C593 C205 1.385 . S
C595 C317 1.384 . S
C604 C275 1.377 . S
C606 C219 1.378 . S
C615 C233 1.380 . S
C617 C289 1.380 . S
C626 C261 1.377 . S
C628 C247 1.378 . S
C637 C345 1.384 . S
C639 C499 1.383 . S
C648 C471 1.377 . S
C650 C359 1.378 . S
C659 C485 1.381 . S
C661 C373 1.380 . S
C670 C443 1.377 . S
C672 C387 1.378 . S
C681 C457 1.385 . S
C683 C401 1.384 . S
C692 C429 1.378 . S
C694 C415 1.378 . S
C703 C8 1.442 . S
C705 C64 1.443 . S
C714 C78 1.443 . S
C716 C22 1.442 . S
C725 C36 1.445 . S
C727 C50 1.440 . S
C736 C92 1.441 . S
C738 C148 1.442 . S
C747 C106 1.445 . S
C749 C162 1.440 . S
C758 C120 1.440 . S
C760 C134 1.444 . S
C769 C232 1.442 . S
C771 C176 1.443 . S
C780 C246 1.445 . S
C782 C190 1.440 . S
C791 C204 1.441 . S
C793 C218 1.444 . S
C802 C316 1.444 . S
C804 C260 1.440 . S
C813 C330 1.445 . S
C815 C274 1.441 . S
C824 C288 1.445 . S
C826 C302 1.440 . S
C835 C400 1.445 . S
C837 C344 1.440 . S
C846 C358 1.441 . S
C848 C414 1.444 . S
C857 C372 1.445 . S
C859 C386 1.440 . S
C868 C484 1.439 . S
C870 C428 1.444 . S
C879 C442 1.440 . S
C881 C498 1.445 . S
C890 C470 1.445 . S
C892 C456 1.440 . S
C901 C413 1.150 . S
C903 C7 1.145 . S
C912 C21 1.151 . S
C914 C385 1.149 . S
C923 C35 1.145 . S
C925 C399 1.144 . S
C934 C49 1.143 . S
C936 C189 1.148 . S
C945 C203 1.143 . S
C947 C63 1.144 . S
C956 C175 1.151 . S
C958 C77 1.147 . S
C967 C91 1.144 . S
C969 C329 1.149 . S
C978 C105 1.149 . S
C980 C301 1.150 . S
C989 C119 1.147 . S
C991 C315 1.144 . S
C1000 C441 1.146 . S
C1002 C133 1.150 . S
C1011 C455 1.151 . S
C1013 C147 1.148 . S
C1022 C161 1.143 . S
C1024 C427 1.147 . S
C1033 C357 1.147 . S
C1035 C217 1.144 . S
C1044 C231 1.147 . S
C1046 C371 1.150 . S
C1055 C343 1.151 . S
C1057 C245 1.147 . S
C1066 C497 1.143 . S
C1068 C259 1.145 . S
C1077 C273 1.143 . S
C1079 C469 1.148 . S
C1088 C287 1.147 . S
C1090 C483 1.150 . S
C1099 C3 1.650 . S
C1101 C409 1.650 . S
C1110 C381 1.650 . S
C1112 C17 1.650 . S
C1121 C31 1.650 . S
C1123 C395 1.650 . S
C1132 C185 1.650 . S
C1134 C45 1.650 . S
C1143 C59 1.651 . S
C1145 C199 1.651 . S
C1154 C73 1.650 . S
C1156 C171 1.650 . S
C1165 C325 1.650 . S
C1167 C87 1.650 . S
C1176 C101 1.650 . S
C1178 C297 1.650 . S
C1187 C115 1.651 . S
C1189 C311 1.651 . S
C1198 C129 1.650 . S
C1200 C437 1.650 . S
C1209 C451 1.650 . S
C1211 C143 1.651 . S
C1220 C157 1.651 . S
C1222 C423 1.651 . S
C1231 C353 1.650 . S
C1233 C213 1.650 . S
C1242 C227 1.649 . S
C1244 C367 1.650 . S
C1253 C241 1.650 . S
C1255 C339 1.650 . S
C1264 C493 1.650 . S
C1266 C255 1.650 . S
C1275 C465 1.651 . S
C1277 C269 1.651 . S
C1286 C283 1.650 . S
C1288 C479 1.650 . S
