# Generated by pormake.
# Topology umj, (4)-cn, num edge types: 1
# Building blocks:
#     Node 0, Type 0, BuildingBlock: NAWXER_clean_sbu_0, # of connection points: 4
#     Node 1, Type 0, BuildingBlock: NAWXER_clean_sbu_0, # of connection points: 4
#     Node 2, Type 0, BuildingBlock: NAWXER_clean_sbu_0, # of connection points: 4
#     Node 3, Type 0, BuildingBlock: NAWXER_clean_sbu_0, # of connection points: 4
#     Node 4, Type 0, BuildingBlock: NAWXER_clean_sbu_0, # of connection points: 4
#     Node 5, Type 0, BuildingBlock: NAWXER_clean_sbu_0, # of connection points: 4
#     Node 6, Type 0, BuildingBlock: NAWXER_clean_sbu_0, # of connection points: 4
#     Node 7, Type 0, BuildingBlock: NAWXER_clean_sbu_0, # of connection points: 4
#     Node 8, Type 0, BuildingBlock: NAWXER_clean_sbu_0, # of connection points: 4
#     Node 9, Type 0, BuildingBlock: NAWXER_clean_sbu_0, # of connection points: 4
#     Node 10, Type 0, BuildingBlock: NAWXER_clean_sbu_0, # of connection points: 4
#     Node 11, Type 0, BuildingBlock: NAWXER_clean_sbu_0, # of connection points: 4
#     Edge 12, Type (0, 0), BuildingBlock: UVAHIK_clean_linker_0, # of connection points: 2
#     Edge 13, Type (0, 0), BuildingBlock: UVAHIK_clean_linker_0, # of connection points: 2
#     Edge 14, Type (0, 0), BuildingBlock: UVAHIK_clean_linker_0, # of connection points: 2
#     Edge 15, Type (0, 0), BuildingBlock: UVAHIK_clean_linker_0, # of connection points: 2
#     Edge 16, Type (0, 0), BuildingBlock: UVAHIK_clean_linker_0, # of connection points: 2
#     Edge 17, Type (0, 0), BuildingBlock: UVAHIK_clean_linker_0, # of connection points: 2
#     Edge 18, Type (0, 0), BuildingBlock: UVAHIK_clean_linker_0, # of connection points: 2
#     Edge 19, Type (0, 0), BuildingBlock: UVAHIK_clean_linker_0, # of connection points: 2
#     Edge 20, Type (0, 0), BuildingBlock: UVAHIK_clean_linker_0, # of connection points: 2
#     Edge 21, Type (0, 0), BuildingBlock: UVAHIK_clean_linker_0, # of connection points: 2
#     Edge 22, Type (0, 0), BuildingBlock: UVAHIK_clean_linker_0, # of connection points: 2
#     Edge 23, Type (0, 0), BuildingBlock: UVAHIK_clean_linker_0, # of connection points: 2
#     Edge 24, Type (0, 0), BuildingBlock: UVAHIK_clean_linker_0, # of connection points: 2
#     Edge 25, Type (0, 0), BuildingBlock: UVAHIK_clean_linker_0, # of connection points: 2
#     Edge 26, Type (0, 0), BuildingBlock: UVAHIK_clean_linker_0, # of connection points: 2
#     Edge 27, Type (0, 0), BuildingBlock: UVAHIK_clean_linker_0, # of connection points: 2
#     Edge 28, Type (0, 0), BuildingBlock: UVAHIK_clean_linker_0, # of connection points: 2
#     Edge 29, Type (0, 0), BuildingBlock: UVAHIK_clean_linker_0, # of connection points: 2
#     Edge 30, Type (0, 0), BuildingBlock: UVAHIK_clean_linker_0, # of connection points: 2
#     Edge 31, Type (0, 0), BuildingBlock: UVAHIK_clean_linker_0, # of connection points: 2
#     Edge 32, Type (0, 0), BuildingBlock: UVAHIK_clean_linker_0, # of connection points: 2
#     Edge 33, Type (0, 0), BuildingBlock: UVAHIK_clean_linker_0, # of connection points: 2
#     Edge 34, Type (0, 0), BuildingBlock: UVAHIK_clean_linker_0, # of connection points: 2
#     Edge 35, Type (0, 0), BuildingBlock: UVAHIK_clean_linker_0, # of connection points: 2
# Relax obj value: 0.019
# Max RMSD: 0.124
# Mean RMSD: 0.123
data_MOF--net-umj--node1-NAWXER_clean_sbu_0--edge1-UVAHIK_clean_linker_0
_symmetry_space_group_name_H-M    P1
_symmetry_Int_Tables_number       1
_symmetry_cell_setting            triclinic
loop_
_symmetry_equiv_pos_as_xyz
'x, y, z'
_cell_length_a     37.779877
_cell_length_b     37.740374
_cell_length_c     109.1117
_cell_angle_alpha  90.005068
_cell_angle_beta   90.168474
_cell_angle_gamma 120.14177
loop_
_atom_site_label
_atom_site_type_symbol
_atom_site_fract_x
_atom_site_fract_y
_atom_site_fract_z
_atom_type_partial_charge
C0 C 0.99718 0.24434 0.11728 0.0
C1 C 0.01416 0.24039 0.07252 0.0
O2 O 0.03311 0.26809 0.11312 0.0
Zn3 Zn 0.06652 0.28484 0.09658 0.0
O4 O 0.96824 0.22134 0.10996 0.0
Zn5 Zn 1.00093 0.24023 0.0948 0.0
O6 O 0.03846 0.21477 0.0977 0.0
O7 O 0.10361 0.26261 0.09932 0.0
O8 O 0.9805 0.219 0.07818 0.0
O9 O 0.04638 0.2653 0.07847 0.0
O10 O 0.08354 0.34321 0.09583 0.0
O11 O 0.01662 0.30304 0.09405 0.0
C12 C 0.07581 0.22492 0.09931 0.0
C13 C 0.04808 0.33912 0.09461 0.0
C14 C 0.83459 0.13628 0.40932 0.0
C15 C 0.8043 0.11264 0.45283 0.0
O16 O 0.84002 0.16145 0.41782 0.0
Zn17 Zn 0.81435 0.1227 0.43084 0.0
O18 O 0.81407 0.09768 0.4116 0.0
Zn19 Zn 0.78462 0.06026 0.42773 0.0
O20 O 0.72735 0.03007 0.42419 0.0
O21 O 0.74866 0.09514 0.42755 0.0
O22 O 0.78883 0.0786 0.4469 0.0
O23 O 0.82167 0.1461 0.44693 0.0
O24 O 0.85226 0.09354 0.43189 0.0
O25 O 0.80998 0.02774 0.42843 0.0
C26 C 0.71935 0.05873 0.42515 0.0
C27 C 0.84585 0.05682 0.43077 0.0
C28 C 0.76254 0.76428 0.78085 0.0
C29 C 0.76718 0.80332 0.7383 0.0
O30 O 0.74925 0.78539 0.77566 0.0
Zn31 Zn 0.76344 0.77978 0.75941 0.0
O32 O 0.77878 0.74785 0.77428 0.0
Zn33 Zn 0.79092 0.74677 0.75451 0.0
O34 O 0.8487 0.76844 0.7544 0.0
O35 O 0.83075 0.81281 0.76056 0.0
O36 O 0.78251 0.77977 0.73931 0.0
O37 O 0.75183 0.81013 0.74767 0.0
O38 O 0.72053 0.71484 0.75574 0.0
O39 O 0.7597 0.68992 0.75032 0.0
C40 C 0.85885 0.80395 0.75831 0.0
C41 C 0.72427 0.68419 0.75242 0.0
C42 C 0.98407 0.68696 0.09494 0.0
C43 C 0.97004 0.81017 0.09906 0.0
O44 O 0.01572 0.7212 0.09225 0.0
Zn45 Zn 0.03588 0.78423 0.09106 0.0
O46 O 0.95121 0.68637 0.09797 0.0
Zn47 Zn 0.97194 0.74608 0.09709 0.0
O48 O 0.97958 0.75945 0.07816 0.0
O49 O 0.04509 0.7955 0.0733 0.0
O50 O 0.94141 0.774 0.10164 0.0
O51 O 1.00448 0.81611 0.09518 0.0
O52 O 0.07854 0.807 0.10394 0.0
O53 O 0.01581 0.7691 0.11121 0.0
C54 C 1.00752 0.77819 0.07013 0.0
C55 C 0.05428 0.79144 0.11301 0.0
C56 C 0.17135 0.96333 0.4286 0.0
C57 C 0.29617 0.95866 0.42288 0.0
O58 O 0.20761 0.99198 0.42658 0.0
Zn59 Zn 0.23177 0.95844 0.42534 0.0
O60 O 0.16388 0.92614 0.42921 0.0
Zn61 Zn 0.20019 0.89557 0.42769 0.0
O62 O 0.19135 0.87013 0.44354 0.0
O63 O 0.22732 0.93759 0.44423 0.0
O64 O 0.26621 0.92225 0.42488 0.0
O65 O 0.28896 0.98791 0.42211 0.0
O66 O 0.20301 0.92361 0.40874 0.0
O67 O 0.17442 0.85882 0.41408 0.0
C68 C 0.21045 0.90286 0.44977 0.0
C69 C 0.18166 0.88547 0.4059 0.0
C70 C 0.27432 0.19527 0.73992 0.0
C71 C 0.28366 0.2382 0.78314 0.0
O72 O 0.29862 0.18936 0.74666 0.0
Zn73 Zn 0.32283 0.2005 0.76465 0.0
O74 O 0.25808 0.21517 0.74421 0.0
Zn75 Zn 0.28048 0.22256 0.76104 0.0
O76 O 0.34298 0.26796 0.75923 0.0
O77 O 0.38146 0.24042 0.76266 0.0
O78 O 0.26345 0.24414 0.77481 0.0
O79 O 0.30619 0.22306 0.78023 0.0
O80 O 0.3013 0.14315 0.76963 0.0
O81 O 0.25387 0.16047 0.76683 0.0
C82 C 0.37853 0.27175 0.76006 0.0
C83 C 0.26379 0.13375 0.76976 0.0
C84 C 0.68053 0.98086 0.60012 0.0
C85 C 0.80287 0.96868 0.59352 0.0
O86 O 0.71452 0.01243 0.60314 0.0
Zn87 Zn 0.77791 0.03289 0.60397 0.0
O88 O 0.68029 0.94873 0.59641 0.0
Zn89 Zn 0.73966 0.97043 0.59687 0.0
O90 O 0.75386 0.97411 0.61579 0.0
O91 O 0.78992 0.03869 0.62173 0.0
O92 O 0.76661 0.94093 0.59068 0.0
O93 O 0.80931 1.00229 0.59836 0.0
O94 O 0.79994 0.07858 0.592 0.0
O95 O 0.76043 0.01766 0.58376 0.0
C96 C 0.77293 1.00061 0.62422 0.0
C97 C 0.78248 0.05651 0.58258 0.0
C98 C 0.80862 0.76082 0.95544 0.0
C99 C 0.7685 0.75678 0.91298 0.0
O100 O 0.81483 0.74503 0.94605 0.0
Zn101 Zn 0.78452 0.75717 0.9344 0.0
O102 O 0.78548 0.77662 0.95448 0.0
Zn103 Zn 0.75228 0.78543 0.93944 0.0
O104 O 0.69562 0.75461 0.94374 0.0
O105 O 0.71981 0.71485 0.93822 0.0
O106 O 0.75268 0.77336 0.91967 0.0
O107 O 0.78932 0.74294 0.91805 0.0
O108 O 0.81821 0.82455 0.93348 0.0
O109 O 0.77466 0.8434 0.93975 0.0
C110 C 0.68953 0.71897 0.94164 0.0
C111 C 0.80998 0.85304 0.93587 0.0
C112 C 1.00753 0.76718 0.28554 0.0
C113 C 0.99175 0.74466 0.24083 0.0
O114 O 0.04053 0.77775 0.27964 0.0
Zn115 Zn 0.06127 0.77761 0.26171 0.0
O116 O 0.97329 0.75041 0.27991 0.0
Zn117 Zn 0.9949 0.75253 0.26331 0.0
O118 O 0.01399 0.70874 0.26435 0.0
O119 O 0.08112 0.73844 0.26273 0.0
O120 O 0.96223 0.73644 0.2481 0.0
O121 O 0.02809 0.75925 0.24502 0.0
O122 O 0.09603 0.83713 0.25904 0.0
O123 O 0.02991 0.81615 0.26027 0.0
C124 C 0.0464 0.70603 0.26402 0.0
C125 C 0.06683 0.84487 0.25876 0.0
C126 C 0.23168 0.01278 0.62093 0.0
C127 C 0.22764 0.96039 0.57908 0.0
O128 O 0.25272 0.04017 0.61294 0.0
Zn129 Zn 0.26945 0.04524 0.59422 0.0
O130 O 0.21373 0.97508 0.61789 0.0
Zn131 Zn 0.22878 0.98274 0.6004 0.0
O132 O 0.29206 1.00159 0.60072 0.0
O133 O 0.32851 0.06589 0.59472 0.0
O134 O 0.20816 0.93797 0.58821 0.0
O135 O 0.25022 0.99913 0.58057 0.0
O136 O 0.24572 0.07722 0.58785 0.0
O137 O 0.19959 0.01502 0.59408 0.0
C138 C 0.32688 0.03302 0.59835 0.0
C139 C 0.2085 0.04976 0.58953 0.0
C140 C 0.23745 0.28002 0.91302 0.0
C141 C 0.20174 0.27415 0.95681 0.0
O142 O 0.22361 0.30347 0.9162 0.0
Zn143 Zn 0.2036 0.32129 0.93214 0.0
O144 O 0.24323 0.25922 0.92118 0.0
Zn145 Zn 0.22372 0.27716 0.93521 0.0
O146 O 0.1617 0.25231 0.92997 0.0
O147 O 0.14571 0.30093 0.9279 0.0
O148 O 0.21667 0.25399 0.95185 0.0
O149 O 0.19681 0.29969 0.95037 0.0
O150 O 0.24455 0.37953 0.93368 0.0
O151 O 0.27071 0.33965 0.93697 0.0
C152 C 0.13543 0.26319 0.9275 0.0
C153 C 0.27542 0.37565 0.93613 0.0
C154 C 0.04832 0.25515 0.2463 0.0
C155 C 0.01575 0.25303 0.29016 0.0
O156 O 1.01042 0.23889 0.24894 0.0
Zn157 Zn 0.97097 0.22615 0.26395 0.0
O158 O 0.07539 0.27061 0.25473 0.0
Zn159 Zn 0.03676 0.2569 0.26848 0.0
O160 O 1.0062 0.19238 0.26817 0.0
O161 O 0.94097 0.16576 0.2631 0.0
O162 O 0.0519 0.26763 0.28596 0.0
O163 O 0.9852 0.23767 0.28279 0.0
O164 O 0.94759 0.2616 0.26052 0.0
O165 O 0.01376 0.29639 0.26469 0.0
C166 C 0.97108 0.16109 0.26605 0.0
C167 C 0.98067 0.29583 0.26177 0.0
C168 C 0.07693 0.29147 0.22655 0.0
C169 C 0.05823 0.25492 0.23328 0.0
C170 C 0.073 0.29041 0.21374 0.0
C171 C 0.03784 0.22101 0.18641 0.0
H172 H 1.00529 0.29701 0.17426 0.0
C173 C 0.97355 0.20685 0.13727 0.0
C174 C 0.99198 0.24374 0.13069 0.0
C175 C 0.97892 0.20724 0.15003 0.0
C176 C 0.01451 0.27569 0.17748 0.0
H177 H 0.02294 0.18881 0.23203 0.0
H178 H 0.0168 0.18677 0.2098 0.0
H179 H 0.02721 0.3016 0.1955 0.0
H180 H 0.02812 0.30981 0.13223 0.0
H181 H 0.03681 0.31062 0.15431 0.0
H182 H 0.025 0.19507 0.16835 0.0
C183 C 0.03468 0.21627 0.21424 0.0
C184 C 0.02745 0.27855 0.18965 0.0
C185 C 0.03837 0.21738 0.22699 0.0
C186 C 0.01331 0.28093 0.13712 0.0
C187 C 0.01831 0.28137 0.1498 0.0
C188 C 0.02488 0.21815 0.17423 0.0
C189 C 0.05036 0.25277 0.20749 0.0
C190 C 0.03937 0.25132 0.19428 0.0
C191 C 1.00241 0.24454 0.15638 0.0
C192 C 0.01314 0.24552 0.16959 0.0
H193 H 0.09155 0.32078 0.23123 0.0
H194 H 0.08598 0.3191 0.20879 0.0
H195 H 0.047 0.19966 0.18965 0.0
H196 H 0.95751 0.17778 0.1325 0.0
H197 H 0.96584 0.17834 0.15487 0.0
C198 C 0.78396 0.07598 0.47299 0.0
C199 C 0.80383 0.11292 0.46644 0.0
C200 C 0.78559 0.07598 0.4858 0.0
C201 C 0.80733 0.14139 0.51342 0.0
H202 H 0.81543 0.05295 0.52868 0.0
C203 C 0.81975 0.11231 0.56668 0.0
C204 C 0.78739 0.07341 0.57001 0.0
C205 C 0.82613 0.12417 0.55426 0.0
C206 C 0.81357 0.07806 0.52454 0.0
H207 H 0.84041 0.17904 0.46826 0.0
H208 H 0.8436 0.17897 0.49061 0.0
H209 H 0.81809 0.05915 0.50645 0.0
H210 H 0.73476 0.01793 0.56299 0.0
H211 H 0.74637 0.03833 0.5417 0.0
H212 H 0.80238 0.15971 0.53174 0.0
C213 C 0.82642 0.14998 0.48585 0.0
C214 C 0.81462 0.08138 0.51179 0.0
C215 C 0.82469 0.14998 0.47302 0.0
C216 C 0.76046 0.04783 0.56081 0.0
C217 C 0.76699 0.05943 0.54857 0.0
C218 C 0.80659 0.13819 0.52625 0.0
C219 C 0.80734 0.11292 0.4924 0.0
C220 C 0.81027 0.11231 0.50603 0.0
C221 C 0.80037 0.09713 0.54512 0.0
C222 C 0.80863 0.10582 0.53187 0.0
H223 H 0.7674 0.04689 0.46824 0.0
H224 H 0.76969 0.04688 0.49052 0.0
H225 H 0.80382 0.16555 0.5093 0.0
H226 H 0.84096 0.13269 0.57355 0.0
H227 H 0.85204 0.15354 0.55177 0.0
C228 C 0.74068 0.77696 0.80122 0.0
C229 C 0.75999 0.75989 0.79438 0.0
C230 C 0.7394 0.77463 0.81399 0.0
C231 C 0.74996 0.71879 0.84029 0.0
H232 H 0.76994 0.8155 0.85847 0.0
C233 C 0.78047 0.73531 0.89243 0.0
C234 C 0.76373 0.75455 0.89946 0.0
C235 C 0.77768 0.7343 0.87966 0.0
C236 C 0.76371 0.78803 0.85355 0.0
H237 H 0.79261 0.72639 0.79565 0.0
H238 H 0.79066 0.72258 0.81804 0.0
H239 H 0.77025 0.81679 0.83616 0.0
H240 H 0.73032 0.78733 0.89852 0.0
H241 H 0.72517 0.78532 0.87615 0.0
H242 H 0.7437 0.69015 0.85772 0.0
C243 C 0.77616 0.73747 0.81347 0.0
C244 C 0.76395 0.78877 0.84074 0.0
C245 C 0.77744 0.7398 0.80064 0.0
C246 C 0.74361 0.77233 0.89339 0.0
C247 C 0.74088 0.77138 0.88057 0.0
C248 C 0.74972 0.71805 0.85312 0.0
C249 C 0.75743 0.75522 0.8203 0.0
C250 C 0.75713 0.75419 0.83394 0.0
C251 C 0.7581 0.75253 0.87355 0.0
C252 C 0.75673 0.75271 0.8599 0.0
H253 H 0.72665 0.79244 0.79672 0.0
H254 H 0.72407 0.78796 0.81893 0.0
H255 H 0.744 0.69144 0.83535 0.0
H256 H 0.79625 0.72132 0.89677 0.0
H257 H 0.79177 0.72003 0.87455 0.0
C258 C 0.05714 0.82526 0.13252 0.0
C259 C 0.06768 0.80013 0.12585 0.0
C260 C 0.05234 0.82128 0.14524 0.0
C261 C 0.02447 0.74086 0.16868 0.0
H262 H 0.03921 0.82685 0.19115 0.0
C263 C 1.00403 0.72013 0.22117 0.0
C264 C 0.98664 0.74017 0.22743 0.0
C265 C 1.01085 0.72525 0.20856 0.0
C266 C 0.03437 0.80242 0.18493 0.0
H267 H 0.08356 0.75268 0.12721 0.0
H268 H 0.07736 0.74702 0.14954 0.0
H269 H 0.06495 0.84436 0.17024 0.0
H270 H 0.96172 0.78042 0.22544 0.0
H271 H 0.97356 0.78948 0.20323 0.0
H272 H 0.99446 0.69906 0.18347 0.0
C273 C 0.07199 0.76935 0.14496 0.0
C274 C 0.04933 0.81247 0.17295 0.0
C275 C 0.07656 0.77323 0.1322 0.0
C276 C 0.97425 0.76386 0.22075 0.0
C277 C 0.98168 0.76956 0.2081 0.0
C278 C 1.00984 0.73089 0.18069 0.0
C279 C 0.0578 0.79186 0.15157 0.0
C280 C 0.04455 0.78181 0.16463 0.0
C281 C 1.00119 0.75124 0.20194 0.0
C282 C 0.01451 0.76151 0.18895 0.0
H283 H 0.04879 0.84524 0.12777 0.0
H284 H 0.04105 0.83893 0.14991 0.0
H285 H 0.01917 0.7162 0.16251 0.0
H286 H 0.01459 0.70238 0.22619 0.0
H287 H 0.02617 0.71096 0.20414 0.0
C288 C 0.25525 0.96843 0.55799 0.0
C289 C 0.22545 0.94361 0.56661 0.0
C290 C 0.25284 0.95577 0.54589 0.0
C291 C 0.17985 0.88907 0.52245 0.0
H292 H 0.27998 0.92355 0.50423 0.0
C293 C 0.18479 0.8653 0.46972 0.0
C294 C 0.21218 0.90109 0.46333 0.0
C295 C 0.18536 0.86427 0.48256 0.0
C296 C 0.25175 0.91369 0.50919 0.0
H297 H 0.17011 0.88519 0.56929 0.0
H298 H 0.16587 0.8626 0.54788 0.0
H299 H 0.28268 0.93012 0.52647 0.0
H300 H 0.26205 0.96359 0.46542 0.0
H301 H 0.26359 0.96149 0.48777 0.0
H302 H 0.14912 0.87291 0.50502 0.0
C303 C 0.19103 0.89222 0.55061 0.0
C304 C 0.25324 0.91747 0.52194 0.0
C305 C 0.19357 0.90497 0.56287 0.0
C306 C 0.24055 0.93556 0.47005 0.0
C307 C 0.24157 0.9343 0.48285 0.0
C308 C 0.17832 0.88484 0.50966 0.0
C309 C 0.2206 0.91771 0.54196 0.0
C310 C 0.21755 0.90658 0.52872 0.0
C311 C 0.21383 0.89875 0.48925 0.0
C312 C 0.21446 0.89831 0.50288 0.0
H313 H 0.2804 0.99834 0.56051 0.0
H314 H 0.27574 0.97666 0.53952 0.0
H315 H 0.15181 0.8806 0.52735 0.0
H316 H 0.16241 0.83827 0.46482 0.0
H317 H 0.16374 0.83644 0.48725 0.0
C318 C 0.25684 0.26319 0.80038 0.0
C319 C 0.28009 0.2458 0.79634 0.0
C320 C 0.25272 0.26807 0.81298 0.0
C321 C 0.25832 0.2263 0.84309 0.0
H322 H 0.27234 0.32779 0.85634 0.0
C323 C 0.2632 0.25488 0.89557 0.0
C324 C 0.24435 0.27657 0.89977 0.0
C325 C 0.26852 0.25175 0.88295 0.0
C326 C 0.26777 0.29897 0.85281 0.0
H327 H 0.31758 0.22039 0.80246 0.0
H328 H 0.31019 0.22872 0.82414 0.0
H329 H 0.27765 0.32098 0.83429 0.0
H330 H 0.21584 0.31147 0.89393 0.0
H331 H 0.2241 0.30515 0.87222 0.0
H332 H 0.24776 0.20389 0.86151 0.0
C333 C 0.29491 0.23834 0.81766 0.0
C334 C 0.27085 0.29516 0.84015 0.0
C335 C 0.29934 0.23385 0.80516 0.0
C336 C 0.23091 0.29485 0.89108 0.0
C337 C 0.2359 0.29146 0.87856 0.0
C338 C 0.25486 0.22994 0.85574 0.0
C339 C 0.27134 0.25517 0.82175 0.0
C340 C 0.26635 0.25884 0.83514 0.0
C341 C 0.25485 0.26999 0.87427 0.0
C342 C 0.25958 0.26636 0.8608 0.0
H343 H 0.24159 0.27267 0.79385 0.0
H344 H 0.23425 0.28108 0.81587 0.0
H345 H 0.25423 0.19771 0.83951 0.0
H346 H 0.27393 0.24048 0.902 0.0
H347 H 0.28368 0.23533 0.88002 0.0
C348 C 1.00925 0.19829 0.05411 0.0
C349 C 0.01862 0.23619 0.05924 0.0
C350 C 0.02374 0.19656 0.0424 0.0
C351 C 0.06707 0.25656 0.01391 0.0
H352 H 0.12957 0.20085 1.01157 0.0
C353 C 0.18428 0.29818 0.97584 0.0
C354 C 0.18611 0.26665 0.96956 0.0
C355 C 0.16232 0.29031 0.98672 0.0
C356 C 0.1118 0.2161 1.012 0.0
H357 H 0.04889 0.30153 0.05608 0.0
H358 H 0.07271 0.2985 0.0356 0.0
H359 H 0.0892 0.19272 0.03 0.0
H360 H 0.16791 0.20236 0.97012 0.0
H361 H 0.12901 0.18833 0.98927 0.0
H362 H 0.08968 0.28034 0.99608 0.0
C363 C 0.05438 0.27009 0.04051 0.0
C364 C 0.08855 0.21133 0.02255 0.0
C365 C 0.04063 0.27186 0.05224 0.0
C366 C 0.16735 0.22736 0.97482 0.0
C367 C 0.14491 0.21933 0.98575 0.0
C368 C 0.09004 0.26117 1.0034 0.0
C369 C 0.0472 0.23263 0.03557 0.0
C370 C 0.06675 0.23238 0.02374 0.0
C371 C 0.14101 0.2505 0.99161 0.0
C372 C 0.11369 0.24199 1.00243 0.0
H373 H 0.99316 0.17047 0.05946 0.0
H374 H 0.01758 0.16722 0.03882 0.0
H375 H 0.0501 0.27264 0.01444 0.0
H376 H 0.19872 0.32888 0.97209 0.0
H377 H 0.1612 0.3154 0.99116 0.0
C378 C 0.87874 0.19395 0.39509 0.0
C379 C 0.85475 0.15158 0.39726 0.0
C380 C 0.90044 0.20868 0.38414 0.0
C381 C 0.94173 0.17809 0.35788 0.0
H382 H 0.9455 0.27192 0.34209 0.0
C383 C 0.03027 0.24612 0.31238 0.0
C384 C 1.00705 0.25217 0.30342 0.0
C385 C 0.01688 0.23852 0.32461 0.0
C386 C 0.94486 0.24574 0.34639 0.0
H387 H 0.8345 0.0915 0.38947 0.0
H388 H 0.87177 0.11722 0.37025 0.0
H389 H 0.90954 0.24722 0.36145 0.0
H390 H 0.95308 0.25731 0.30033 0.0
H391 H 0.93023 0.24463 0.32143 0.0
H392 H 0.97585 0.17583 0.34252 0.0
C393 C 0.87433 0.13908 0.37713 0.0
C394 C 0.92447 0.23173 0.35756 0.0
C395 C 0.85258 0.12431 0.3881 0.0
C396 C 0.97161 0.25266 0.30702 0.0
C397 C 0.95859 0.2456 0.31916 0.0
C398 C 0.96222 0.19217 0.34669 0.0
C399 C 0.89877 0.18148 0.37504 0.0
C400 C 0.92209 0.19735 0.36338 0.0
C401 C 0.98047 0.23754 0.32809 0.0
C402 C 0.96342 0.22575 0.3407 0.0
H403 H 0.88139 0.2159 0.40195 0.0
H404 H 0.91924 0.24149 0.38292 0.0
H405 H 0.94109 0.15193 0.36219 0.0
H406 H 0.05753 0.24529 0.30984 0.0
H407 H 0.03459 0.23272 0.33131 0.0
C408 C 0.76144 0.85723 0.72652 0.0
C409 C 0.76893 0.82424 0.72658 0.0
C410 C 0.76394 0.87805 0.71567 0.0
C411 C 0.7549 0.86532 0.68241 0.0
H412 H 0.81402 0.98415 0.68136 0.0
C413 C 0.77883 0.94894 0.63674 0.0
C414 C 0.77729 0.98535 0.63633 0.0
C415 C 0.77998 0.93155 0.64789 0.0
C416 C 0.79687 0.95099 0.68151 0.0
H417 H 0.7848 0.78727 0.71519 0.0
H418 H 0.78825 0.82317 0.69611 0.0
H419 H 0.8116 0.94893 0.70042 0.0
H420 H 0.77699 0.03287 0.64733 0.0
H421 H 0.77753 1.00162 0.66705 0.0
H422 H 0.73886 0.86686 0.66373 0.0
C423 C 0.78065 0.83295 0.70454 0.0
C424 C 0.79568 0.93081 0.69243 0.0
C425 C 0.77877 0.81244 0.71547 0.0
C426 C 0.77816 1.00478 0.64739 0.0
C427 C 0.77859 0.98685 0.65867 0.0
C428 C 0.75558 0.8854 0.67156 0.0
C429 C 0.77342 0.8661 0.70454 0.0
C430 C 0.77495 0.88773 0.69297 0.0
C431 C 0.7788 0.94953 0.65905 0.0
C432 C 0.77697 0.92855 0.67088 0.0
H433 H 0.75397 0.86734 0.73491 0.0
H434 H 0.7578 0.90316 0.71595 0.0
H435 H 0.738 0.83214 0.68259 0.0
H436 H 0.77908 0.93364 0.62836 0.0
H437 H 0.78166 0.90375 0.64771 0.0
C438 C 1.01158 0.77792 0.04697 0.0
C439 C 0.99423 0.78272 0.05775 0.0
C440 C 0.99387 0.77695 0.03551 0.0
C441 C 0.89425 0.75797 0.02247 0.0
H442 H 0.9557 0.80218 0.99252 0.0
C443 C 0.82028 0.77566 0.97808 0.0
C444 C 0.82984 0.76274 0.96713 0.0
C445 C 0.84139 0.77835 0.98895 0.0
C446 C 0.93813 0.78948 1.00081 0.0
H447 H 0.947 0.79333 0.06501 0.0
H448 H 0.91764 0.79353 0.04528 0.0
H449 H 0.99204 0.80752 1.01166 0.0
H450 H 0.86944 0.74284 0.95904 0.0
H451 H 0.90623 0.74784 0.97794 0.0
H452 H 0.84048 0.74056 1.0117 0.0
C453 C 0.94349 0.78857 0.04551 0.0
C454 C 0.95896 0.7924 1.01178 0.0
C455 C 0.9606 0.78885 0.05685 0.0
C456 C 0.8611 0.75275 0.96731 0.0
C457 C 0.88248 0.75592 0.97812 0.0
C458 C 0.87358 0.75547 1.01157 0.0
C459 C 0.9589 0.78129 0.03468 0.0
C460 C 0.93729 0.77703 0.02279 0.0
C461 C 0.87287 0.76869 0.98908 0.0
C462 C 0.89522 0.77136 1.00063 0.0
H463 H 0.03745 0.77302 0.04744 0.0
H464 H 1.00662 0.77129 0.02737 0.0
H465 H 0.87627 0.74466 0.03065 0.0
H466 H 0.79651 0.78372 0.97826 0.0
H467 H 0.83345 0.78857 0.99723 0.0
C468 C 0.03616 0.81942 0.3019 0.0
C469 C 1.0116 0.77806 0.29864 0.0
C470 C 0.05016 0.83059 0.31391 0.0
C471 C 0.04027 0.79318 0.34604 0.0
H472 H 0.15461 0.87804 0.34771 0.0
C473 C 0.1364 0.83095 0.39078 0.0
C474 C 0.16307 0.87261 0.39349 0.0
C475 C 0.11658 0.81896 0.37939 0.0
C476 C 0.12256 0.85465 0.34746 0.0
H477 H 0.98134 0.71584 0.30539 0.0
H478 H 1.00602 0.7352 0.32654 0.0
H479 H 0.12023 0.85809 0.32796 0.0
H480 H 0.18999 0.93425 0.38623 0.0
H481 H 0.15556 0.91338 0.36641 0.0
H482 H 0.04302 0.78958 0.36561 0.0
C483 C 0.01386 0.75917 0.31985 0.0
C484 C 0.1027 0.84322 0.3361 0.0
C485 C 0.99948 0.748 0.30776 0.0
C486 C 0.16987 0.90191 0.38445 0.0
C487 C 0.15016 0.88989 0.37305 0.0
C488 C 0.06024 0.8046 0.35744 0.0
C489 C 0.04064 0.80058 0.32296 0.0
C490 C 0.0612 0.81251 0.33521 0.0
C491 C 0.12301 0.84828 0.3704 0.0
C492 C 0.10163 0.83562 0.35829 0.0
H493 H 0.04627 0.8431 0.29497 0.0
H494 H 0.06982 0.86279 0.316 0.0
H495 H 1.00828 0.76963 0.34573 0.0
H496 H 0.13035 0.80751 0.39751 0.0
H497 H 0.09636 0.78663 0.37761 0.0
C498 C 0.23255 0.06564 0.63484 0.0
C499 C 0.22792 0.02647 0.63336 0.0
C500 C 0.23186 0.08075 0.64646 0.0
C501 C 0.2561 0.07373 0.67828 0.0
H502 H 0.19747 0.13127 0.68533 0.0
C503 C 0.26186 0.13708 0.72646 0.0
C504 C 0.2628 0.17459 0.72781 0.0
C505 C 0.25345 0.1173 0.71515 0.0
C506 C 0.2145 0.11582 0.68349 0.0
H507 H 0.21802 0.97206 0.64297 0.0
H508 H 0.21783 0.99905 0.66349 0.0
H509 H 0.18928 0.09855 0.66536 0.0
H510 H 0.25451 0.22029 0.71836 0.0
H511 H 0.24138 0.18651 0.69826 0.0
H512 H 0.2829 0.09225 0.69604 0.0
C513 C 0.22173 0.01783 0.65554 0.0
C514 C 0.20953 0.09678 0.67207 0.0
C515 C 0.22165 1.00231 0.64382 0.0
C516 C 0.25403 0.19144 0.71757 0.0
C517 C 0.24634 0.17189 0.70608 0.0
C518 C 0.26157 0.09323 0.6896 0.0
C519 C 0.22714 0.05739 0.65697 0.0
C520 C 0.23025 0.07547 0.66934 0.0
C521 C 0.24656 0.13476 0.70468 0.0
C522 C 0.24074 0.11446 0.69244 0.0
H523 H 0.2371 0.08494 0.62696 0.0
H524 H 0.23643 0.11139 0.64724 0.0
H525 H 0.27316 0.05833 0.67637 0.0
H526 H 0.26759 0.12278 0.73424 0.0
H527 H 0.25248 0.08817 0.71465 0.0
C528 C 0.95394 0.60986 0.09629 0.0
C529 C 0.98779 0.64947 0.09481 0.0
C530 C 0.95906 0.57539 0.09606 0.0
C531 C 0.03397 0.54343 0.08629 0.0
H532 H 0.97276 0.45199 0.10822 0.0
C533 C 0.07484 0.41553 0.09397 0.0
C534 C 0.04181 0.37506 0.09431 0.0
C535 C 0.06785 0.44876 0.09389 0.0
C536 C 0.98992 0.47717 0.10197 0.0
H537 H 0.05372 0.68364 0.09223 0.0
H538 H 0.06251 0.62457 0.09212 0.0
H539 H 0.95988 0.50925 0.10818 0.0
H540 H 0.97545 0.33808 0.09486 0.0
H541 H 0.96357 0.39561 0.09475 0.0
H542 H 0.0644 0.5116 0.08021 0.0
C543 C 0.03181 0.61958 0.0931 0.0
C544 C 0.98238 0.50997 0.1019 0.0
C545 C 0.02671 0.65369 0.09325 0.0
C546 C 1.00176 0.36875 0.09458 0.0
C547 C 0.99484 0.40181 0.09461 0.0
C548 C 0.0417 0.51083 0.08642 0.0
C549 C 0.99815 0.57984 0.0944 0.0
C550 C 1.00448 0.54372 0.09411 0.0
C551 C 0.02772 0.44226 0.09428 0.0
C552 C 0.01987 0.47731 0.09428 0.0
H553 H 0.92356 0.60547 0.09752 0.0
H554 H 0.93231 0.54525 0.09702 0.0
H555 H 0.05105 0.56836 0.07995 0.0
H556 H 0.10604 0.42154 0.09377 0.0
H557 H 0.09391 0.47959 0.09372 0.0
C558 C 0.64442 1.00838 0.42283 0.0
C559 C 0.67625 0.04931 0.42397 0.0
C560 C 0.60357 0.99869 0.4222 0.0
C561 C 0.5357 0.04079 0.42932 0.0
H562 H 0.45788 0.95003 0.40918 0.0
C563 C 0.3713 1.00839 0.42111 0.0
C564 C 0.33917 0.96754 0.42207 0.0
C565 C 0.41207 0.01778 0.421 0.0
C566 C 0.47917 0.9752 0.41494 0.0
H567 H 0.68985 0.11224 0.42513 0.0
H568 H 0.61849 0.09546 0.42373 0.0
H569 H 0.52981 0.96873 0.40926 0.0
H570 H 0.32499 0.90444 0.4234 0.0
H571 H 0.39659 0.92093 0.42309 0.0
H572 H 0.48504 0.04752 0.43486 0.0
C573 C 0.62512 0.0707 0.42358 0.0
C574 C 0.52047 0.98597 0.41501 0.0
C575 C 0.66613 0.0804 0.42429 0.0
C576 C 0.34894 0.93619 0.42265 0.0
C577 C 0.38994 0.94564 0.42243 0.0
C578 C 0.4945 0.03022 0.42918 0.0
C579 C 0.59323 0.02964 0.4226 0.0
C580 C 0.54934 0.01887 0.42223 0.0
C581 C 0.42199 0.98663 0.42176 0.0
C582 C 0.4657 0.99729 0.42199 0.0
H583 H 0.65094 0.98353 0.42263 0.0
H584 H 0.58003 0.96671 0.42167 0.0
H585 H 0.55669 0.06572 0.43519 0.0
H586 H 0.36508 0.03341 0.42062 0.0
H587 H 0.43593 0.04959 0.42028 0.0
C588 C 0.45502 0.31909 0.75788 0.0
C589 C 0.41521 0.31311 0.75844 0.0
C590 C 0.48898 0.35868 0.75651 0.0
C591 C 0.51664 0.46556 0.74759 0.0
H592 H 0.61792 0.49559 0.7647 0.0
C593 C 0.64826 0.63428 0.75362 0.0
C594 C 0.68835 0.6419 0.75185 0.0
C595 C 0.61506 0.59397 0.7538 0.0
C596 C 0.58994 0.48759 0.75978 0.0
H597 H 0.38018 0.34442 0.75818 0.0
H598 H 0.43871 0.4126 0.75617 0.0
H599 H 0.56059 0.4256 0.76614 0.0
H600 H 0.72469 0.61286 0.74873 0.0
H601 H 0.66708 0.54305 0.74911 0.0
H602 H 0.54586 0.52795 0.74148 0.0
C603 C 0.44403 0.38696 0.7564 0.0
C604 C 0.55705 0.44733 0.76056 0.0
C605 C 0.41028 0.34761 0.75765 0.0
C606 C 0.6943 0.60828 0.75012 0.0
C607 C 0.66127 0.56813 0.75042 0.0
C608 C 0.54937 0.50589 0.74692 0.0
C609 C 0.48393 0.39322 0.75576 0.0
C610 C 0.51979 0.43572 0.75452 0.0
C611 C 0.62128 0.56041 0.75235 0.0
C612 C 0.5864 0.51744 0.75302 0.0
H613 H 0.45994 0.29323 0.75843 0.0
H614 H 0.51915 0.36211 0.75592 0.0
H615 H 0.48887 0.45778 0.74259 0.0
H616 H 0.64255 0.65939 0.75502 0.0
H617 H 0.58462 0.58905 0.75537 0.0
C618 C 0.35947 0.98992 0.60059 0.0
C619 C 0.36398 0.02902 0.59913 0.0
C620 C 0.39349 0.98471 0.60083 0.0
C621 C 0.50355 0.03618 0.59242 0.0
H622 H 0.502 0.95125 0.61285 0.0
C623 C 0.6467 0.02299 0.60146 0.0
C624 C 0.64293 0.98407 0.60027 0.0
C625 C 0.6123 0.02753 0.6012 0.0
C626 C 0.50265 0.97477 0.607 0.0
H627 H 0.40817 0.09351 0.59691 0.0
H628 H 0.46807 0.08468 0.59773 0.0
H629 H 0.44416 0.96299 0.61324 0.0
H630 H 0.59967 0.91929 0.598 0.0
H631 H 0.53891 0.92723 0.59781 0.0
H632 H 0.56273 0.04859 0.58649 0.0
C633 C 0.43792 0.05781 0.59842 0.0
C634 C 0.46949 0.98156 0.6072 0.0
C635 C 0.40363 0.06299 0.59804 0.0
C636 C 0.60361 0.94963 0.59895 0.0
C637 C 0.5689 0.95417 0.59887 0.0
C638 C 0.53691 0.02971 0.59235 0.0
C639 C 0.43326 0.0185 0.59977 0.0
C640 C 0.46935 0.01227 0.59987 0.0
C641 C 0.57303 0.99329 0.59988 0.0
C642 C 0.5368 0.99891 0.59963 0.0
H643 H 0.32942 0.96289 0.60132 0.0
H644 H 0.38838 0.95388 0.60159 0.0
H645 H 0.50437 0.05954 0.58647 0.0
H646 H 0.67645 0.05031 0.60244 0.0
H647 H 0.61644 0.05797 0.60214 0.0
C648 C 0.35125 0.40615 0.93817 0.0
C649 C 0.31721 0.41183 0.93757 0.0
C650 C 0.39094 0.43955 0.93921 0.0
C651 C 0.4522 0.5524 0.93464 0.0
H652 H 0.53364 0.54118 0.95328 0.0
C653 C 0.61395 0.68944 0.9443 0.0
C654 C 0.64726 0.6832 0.94238 0.0
C655 C 0.57377 0.6565 0.9442 0.0
C656 C 0.51134 0.54468 0.94796 0.0
H657 H 0.29847 0.45746 0.93772 0.0
H658 H 0.36787 0.516 0.93986 0.0
H659 H 0.46323 0.48449 0.95254 0.0
H660 H 0.6642 0.637 0.93912 0.0
H661 H 0.5938 0.57923 0.93911 0.0
H662 H 0.50042 0.61293 0.93025 0.0
C663 C 0.36385 0.48556 0.93928 0.0
C664 C 0.47088 0.51212 0.9475 0.0
C665 C 0.32396 0.45197 0.93813 0.0
C666 C 0.63933 0.64293 0.94064 0.0
C667 C 0.599 0.60982 0.94067 0.0
C668 C 0.49257 0.58509 0.93521 0.0
C669 C 0.39796 0.4798 0.9398 0.0
C670 C 0.44073 0.51533 0.94075 0.0
C671 C 0.56572 0.61632 0.94229 0.0
C672 C 0.52269 0.58156 0.94181 0.0
H673 H 0.3474 0.37574 0.93766 0.0
H674 H 0.41621 0.4337 0.9393 0.0
H675 H 0.43022 0.55594 0.92917 0.0
H676 H 0.61878 0.71999 0.94568 0.0
H677 H 0.54891 0.66253 0.94564 0.0
C678 C 1.00335 0.63091 0.26772 0.0
C679 C 0.04166 0.66454 0.26457 0.0
C680 C 0.99642 0.59101 0.26723 0.0
C681 C 0.03416 0.52828 0.25261 0.0
H682 H 0.96601 0.44791 0.27691 0.0
C683 C 0.02069 0.37002 0.25684 0.0
C684 C 0.98283 0.33577 0.25997 0.0
C685 C 0.02565 0.40916 0.25651 0.0
C686 C 0.98451 0.4698 0.26993 0.0
H687 H 0.10315 0.68244 0.25873 0.0
H688 H 0.09119 0.61225 0.25802 0.0
H689 H 0.98198 0.51876 0.27899 0.0
H690 H 0.91996 0.31558 0.26476 0.0
H691 H 0.92862 0.38468 0.2642 0.0
H692 H 0.03703 0.47932 0.24364 0.0
C693 C 0.06633 0.61702 0.26072 0.0
C694 C 0.99388 0.51052 0.27115 0.0
C695 C 0.07335 0.65726 0.26123 0.0
C696 C 0.94943 0.34138 0.26229 0.0
C697 C 0.95454 0.38093 0.26207 0.0
C698 C 0.02486 0.48757 0.25141 0.0
C699 C 0.02758 0.58338 0.2636 0.0
C700 C 0.01889 0.54033 0.26252 0.0
C701 C 0.99295 0.41533 0.25935 0.0
C702 C 1.00007 0.45785 0.26008 0.0
H703 H 0.97815 0.63523 0.27036 0.0
H704 H 0.96609 0.56601 0.26936 0.0
H705 H 0.0528 0.55017 0.24566 0.0
H706 H 0.04703 0.36674 0.25492 0.0
H707 H 0.05571 0.43484 0.25449 0.0
C708 C 0.07517 0.1707 0.11216 0.0
C709 C 0.08414 0.19109 0.10084 0.0
C710 C 0.0648 0.12948 0.11279 0.0
C711 C 0.01362 0.03854 0.09329 0.0
H712 H 0.04182 0.98449 0.11848 0.0
C713 C 0.97181 0.86997 0.08941 0.0
C714 C 0.96557 0.84663 0.10003 0.0
C715 C 0.98214 0.91098 0.0902 0.0
C716 C 0.03296 0.99898 0.11151 0.0
H717 H 0.09111 0.18516 0.08142 0.0
H718 H 0.07413 0.1136 0.08251 0.0
H719 H 0.07433 0.05922 0.1185 0.0
H720 H 0.96405 0.84734 0.11982 0.0
H721 H 0.98077 0.91905 0.1213 0.0
H722 H 0.97185 0.97874 0.08637 0.0
C723 C 0.07498 0.1293 0.09091 0.0
C724 C 0.05195 0.04189 0.11147 0.0
C725 C 0.08558 0.17053 0.09031 0.0
C726 C 0.96752 0.86439 0.11149 0.0
C727 C 0.97799 0.9057 0.11231 0.0
C728 C 0.99439 0.99577 0.0934 0.0
C729 C 0.06255 0.10776 0.10207 0.0
C730 C 0.04297 0.0622 0.10223 0.0
C731 C 0.98685 0.92994 0.10167 0.0
C732 C 1.00417 0.97531 0.10239 0.0
H733 H 0.07241 0.18546 0.12033 0.0
H734 H 0.05522 0.1138 0.12151 0.0
H735 H 1.00508 0.0531 0.08625 0.0
H736 H 0.97167 0.85728 0.08048 0.0
H737 H 0.98922 0.92848 0.0818 0.0
C738 C 0.9207 0.0803 0.43285 0.0
C739 C 0.87992 0.04824 0.43188 0.0
C740 C 0.95277 0.07186 0.43337 0.0
C741 C 0.97588 0.98947 0.44006 0.0
H742 H 0.07067 0.05325 0.41953 0.0
C743 C 0.09697 0.94169 0.43071 0.0
C744 C 0.13812 0.973 0.43001 0.0
C745 C 0.06575 0.95125 0.4316 0.0
C746 C 0.04471 0.03549 0.42546 0.0
H747 H 0.84085 0.98214 0.43093 0.0
H748 H 0.89665 0.96757 0.43181 0.0
H749 H 0.01624 0.06995 0.42017 0.0
H750 H 0.17877 0.03893 0.43001 0.0
H751 H 0.12458 0.05549 0.43177 0.0
H752 H 1.00431 0.95496 0.44534 0.0
C753 C 0.90387 0.99919 0.43225 0.0
C754 C 0.01351 0.04509 0.42582 0.0
C755 C 0.8719 1.0076 0.43167 0.0
C756 C 0.14738 0.01402 0.43043 0.0
C757 C 0.11626 0.02355 0.43137 0.0
C758 C 1.00718 0.97995 0.43974 0.0
C759 C 0.94469 0.0312 0.43301 0.0
C760 C 0.97864 0.02206 0.43307 0.0
C761 C 0.07502 0.99234 0.43185 0.0
C762 C 0.04191 1.00273 0.43239 0.0
H763 H 0.92793 0.11193 0.43305 0.0
H764 H 0.9839 0.09718 0.43407 0.0
H765 H 0.94961 0.97146 0.44585 0.0
H766 H 0.08879 0.90978 0.43038 0.0
H767 H 0.03429 0.92643 0.43182 0.0
C768 C 0.19652 0.08885 0.77926 0.0
C769 C 0.23009 0.09232 0.77275 0.0
C770 C 0.15952 0.05193 0.77954 0.0
C771 C 0.10051 0.9612 0.76025 0.0
H772 H 0.02198 0.92995 0.78667 0.0
C773 C 0.93332 0.82633 0.75633 0.0
C774 C 0.90271 0.83422 0.76049 0.0
C775 C 0.97468 0.85415 0.75861 0.0
C776 C 0.04353 0.9384 0.7792 0.0
H777 H 0.25226 0.05934 0.762 0.0
H778 H 0.18725 0.99392 0.76259 0.0
H779 H 0.09327 0.98216 0.79023 0.0
H780 H 0.89172 0.87765 0.77035 0.0
H781 H 0.96404 0.92622 0.77436 0.0
H782 H 0.05051 0.91765 0.74919 0.0
C783 C 0.18955 0.02008 0.76741 0.0
C784 C 0.08444 0.96826 0.78123 0.0
C785 C 0.22693 0.05728 0.76721 0.0
C786 C 0.91449 0.87066 0.76699 0.0
C787 C 0.9559 0.89832 0.76938 0.0
C788 C 0.05963 0.93107 0.75824 0.0
C789 C 0.15497 0.01741 0.77323 0.0
C790 C 0.11329 0.98085 0.7717 0.0
C791 C 0.98646 0.89036 0.76522 0.0
C792 C 0.03049 0.92003 0.76761 0.0
H793 H 0.19814 0.11553 0.78356 0.0
H794 H 0.1337 0.05142 0.784 0.0
H795 H 0.1216 0.97047 0.75263 0.0
H796 H 0.92536 0.79856 0.7513 0.0
H797 H 0.99744 0.84701 0.75534 0.0
C798 C 0.86596 0.97355 0.60161 0.0
C799 C 0.83885 0.96398 0.59171 0.0
C800 C 0.90607 0.98263 0.59968 0.0
C801 C 0.9794 0.97882 0.57871 0.0
H802 H 0.05562 0.08094 0.59484 0.0
C803 C 0.15398 0.04443 0.57562 0.0
C804 C 0.1744 0.05673 0.58693 0.0
C805 C 0.11426 0.03805 0.57436 0.0
C806 C 0.03487 0.05232 0.59031 0.0
H807 H 0.83136 0.95394 0.57212 0.0
H808 H 0.90213 0.96934 0.5687 0.0
H809 H 0.98234 0.05448 0.5965 0.0
H810 H 0.17031 0.07272 0.60567 0.0
H811 H 0.10146 0.06204 0.60355 0.0
H812 H 0.03198 0.97587 0.57289 0.0
C813 C 0.89206 0.96965 0.57796 0.0
C814 C 0.99284 0.03714 0.59127 0.0
C815 C 0.85156 0.96045 0.57992 0.0
C816 C 0.15556 0.06455 0.59676 0.0
C817 C 0.11597 0.05817 0.59553 0.0
C818 C 0.02163 0.99386 0.57783 0.0
C819 C 0.92012 0.98266 0.58778 0.0
C820 C 0.96463 0.99977 0.58573 0.0
C821 C 0.09423 0.04347 0.58443 0.0
C822 C 0.04986 0.03037 0.58387 0.0
H823 H 0.85685 0.97669 0.61078 0.0
H824 H 0.92676 0.99168 0.60745 0.0
H825 H 0.95832 0.95 0.57433 0.0
H826 H 0.16762 0.03714 0.56803 0.0
H827 H 0.09865 0.02723 0.56565 0.0
C828 C 0.83542 0.92779 0.93918 0.0
C829 C 0.84097 0.8968 0.934 0.0
C830 C 0.86434 0.96914 0.93738 0.0
C831 C 0.97247 0.03712 0.92785 0.0
H832 H 0.93959 0.11917 0.92537 0.0
C833 C 0.08994 0.20091 0.91575 0.0
C834 C 0.09385 0.23028 0.92437 0.0
C835 C 0.05486 0.16229 0.91543 0.0
C836 C 0.94912 0.09654 0.92607 0.0
H837 H 0.88091 0.88501 0.92265 0.0
H838 H 0.9307 0.95698 0.91916 0.0
H839 H 0.88751 0.0469 0.92782 0.0
H840 H 0.06324 0.24357 0.93885 0.0
H841 H 1.00105 0.17559 0.93821 0.0
H842 H 0.03391 0.08657 0.92593 0.0
C843 C 0.90461 0.9495 0.92493 0.0
C844 C 0.91938 0.05513 0.92754 0.0
C845 C 0.87594 0.90812 0.92688 0.0
C846 C 0.06053 0.22167 0.93195 0.0
C847 C 0.02517 0.1827 0.93165 0.0
C848 C 1.00198 0.07825 0.92622 0.0
C849 C 0.89936 0.98065 0.93022 0.0
C850 C 0.93068 0.02482 0.92846 0.0
C851 C 0.023 0.15205 0.92379 0.0
C852 C 0.99071 0.10843 0.92528 0.0
H853 H 0.80888 0.92011 0.94477 0.0
H854 H 0.85947 0.99203 0.94179 0.0
H855 H 0.98265 0.01509 0.92884 0.0
H856 H 0.11542 0.20679 0.90988 0.0
H857 H 0.05374 0.13953 0.90913 0.0
C858 C 0.08775 0.91427 0.26676 0.0
C859 C 0.07315 0.88625 0.25701 0.0
C860 C 0.07885 0.94613 0.26722 0.0
C861 C 0.0357 1.0006 0.24956 0.0
H862 H 0.99295 1.00692 0.28124 0.0
C863 C 0.95419 0.09431 0.2563 0.0
C864 C 0.96844 0.12079 0.26644 0.0
C865 C 0.96354 0.06283 0.25519 0.0
C866 C 1.00497 1.00575 0.27235 0.0
H867 H 0.04 0.87051 0.23982 0.0
H868 H 0.02537 0.92643 0.24042 0.0
H869 H 0.02338 0.9638 0.27871 0.0
H870 H 1.00119 0.13385 0.28367 0.0
H871 H 0.01677 0.07898 0.28191 0.0
H872 H 0.01734 0.04273 0.24322 0.0
C873 C 0.04384 0.92434 0.24768 0.0
C874 C 0.02275 0.98125 0.27092 0.0
C875 C 0.05248 0.89245 0.24728 0.0
C876 C 0.98942 0.11348 0.27583 0.0
C877 C 0.99842 0.08201 0.27479 0.0
C878 C 0.01797 0.02523 0.251 0.0
C879 C 0.05519 0.95037 0.25794 0.0
C880 C 0.03853 0.97849 0.25952 0.0
C881 C 0.98697 0.05722 0.26425 0.0
C882 C 1.00254 0.02827 0.26243 0.0
H883 H 0.10275 0.90941 0.27452 0.0
H884 H 0.08857 0.96606 0.27517 0.0
H885 H 0.04763 0.99926 0.24067 0.0
H886 H 0.93862 0.09984 0.24883 0.0
H887 H 0.9538 0.0439 0.24703 0.0
loop_
_geom_bond_atom_site_label_1
_geom_bond_atom_site_label_2
_geom_bond_distance
_geom_bond_site_symmetry_2
_ccdc_geom_bond_type
C0 O2 1.247 . S
C0 O4 1.258 1_455 S
C1 O8 1.247 . S
C1 O9 1.258 . S
O2 C0 1.247 . S
O2 Zn3 2.028 . S
Zn3 O2 2.028 . S
Zn3 O7 2.035 . S
Zn3 O9 2.035 . S
Zn3 O10 2.028 . S
O4 C0 1.258 1_655 S
O4 Zn5 2.035 1_655 S
Zn5 O4 2.035 1_455 S
Zn5 O6 2.028 . S
Zn5 O8 2.028 . S
Zn5 O11 2.035 . S
O6 Zn5 2.028 . S
O6 C12 1.247 . S
O7 Zn3 2.035 . S
O7 C12 1.258 . S
O8 C1 1.247 . S
O8 Zn5 2.028 . S
O9 C1 1.258 . S
O9 Zn3 2.035 . S
O10 Zn3 2.028 . S
O10 C13 1.247 . S
O11 Zn5 2.035 . S
O11 C13 1.258 . S
C12 O6 1.247 . S
C12 O7 1.258 . S
C13 O10 1.247 . S
C13 O11 1.258 . S
C14 O16 1.247 . S
C14 O18 1.258 . S
C15 O22 1.247 1_545 S
C15 O23 1.258 . S
O16 C14 1.247 . S
O16 Zn17 2.028 . S
Zn17 O16 2.028 . S
Zn17 O21 2.035 . S
Zn17 O23 2.035 . S
Zn17 O24 2.028 . S
O18 C14 1.258 . S
O18 Zn19 2.043 . S
Zn19 O18 2.043 . S
Zn19 O20 2.044 . S
Zn19 O22 2.027 1_545 S
Zn19 O25 2.027 . S
O20 Zn19 2.044 . S
O20 C26 1.247 . S
O21 Zn17 2.035 . S
O21 C26 1.258 . S
O22 C15 1.247 1_565 S
O22 Zn19 2.027 1_565 S
O23 C15 1.258 . S
O23 Zn17 2.035 . S
O24 Zn17 2.028 . S
O24 C27 1.247 . S
O25 Zn19 2.027 . S
O25 C27 1.258 . S
C26 O20 1.247 . S
C26 O21 1.258 . S
C27 O24 1.247 . S
C27 O25 1.258 . S
C28 O30 1.247 . S
C28 O32 1.258 . S
C29 O36 1.247 . S
C29 O37 1.258 . S
O30 C28 1.247 . S
O30 Zn31 2.028 . S
Zn31 O30 2.028 . S
Zn31 O35 2.035 . S
Zn31 O37 2.035 . S
Zn31 O38 2.028 . S
O32 C28 1.258 . S
O32 Zn33 2.035 . S
Zn33 O32 2.035 . S
Zn33 O34 2.028 . S
Zn33 O36 2.028 . S
Zn33 O39 2.035 . S
O34 Zn33 2.028 . S
O34 C40 1.247 . S
O35 Zn31 2.035 . S
O35 C40 1.258 . S
O36 C29 1.247 . S
O36 Zn33 2.028 . S
O37 C29 1.258 . S
O37 Zn31 2.035 . S
O38 Zn31 2.028 . S
O38 C41 1.247 . S
O39 Zn33 2.035 . S
O39 C41 1.258 . S
C40 O34 1.247 . S
C40 O35 1.258 . S
C41 O38 1.247 . S
C41 O39 1.258 . S
C42 O44 1.247 . S
C42 O46 1.258 . S
C43 O50 1.247 . S
C43 O51 1.258 . S
O44 C42 1.247 . S
O44 Zn45 2.022 . S
Zn45 O44 2.022 . S
Zn45 O49 2.043 . S
Zn45 O51 2.048 . S
Zn45 O52 2.027 1_655 S
O46 C42 1.258 . S
O46 Zn47 2.035 . S
Zn47 O46 2.035 . S
Zn47 O48 2.028 . S
Zn47 O50 2.028 . S
Zn47 O53 2.035 . S
O48 Zn47 2.028 . S
O48 C54 1.247 . S
O49 Zn45 2.043 . S
O49 C54 1.258 . S
O50 C43 1.247 . S
O50 Zn47 2.028 . S
O51 C43 1.258 . S
O51 Zn45 2.048 . S
O52 Zn45 2.027 1_455 S
O52 C55 1.247 1_455 S
O53 Zn47 2.035 . S
O53 C55 1.258 . S
C54 O48 1.247 . S
C54 O49 1.258 . S
C55 O52 1.247 1_655 S
C55 O53 1.258 . S
C56 O58 1.247 . S
C56 O60 1.258 . S
C57 O64 1.247 . S
C57 O65 1.258 . S
O58 C56 1.247 . S
O58 Zn59 2.028 . S
Zn59 O58 2.028 . S
Zn59 O63 2.035 1_565 S
Zn59 O65 2.035 . S
Zn59 O66 2.028 . S
O60 C56 1.258 . S
O60 Zn61 2.035 . S
Zn61 O60 2.035 . S
Zn61 O62 2.028 . S
Zn61 O64 2.028 . S
Zn61 O67 2.035 . S
O62 Zn61 2.028 . S
O62 C68 1.247 . S
O63 Zn59 2.035 1_545 S
O63 C68 1.258 1_545 S
O64 C57 1.247 . S
O64 Zn61 2.028 . S
O65 C57 1.258 . S
O65 Zn59 2.035 . S
O66 Zn59 2.028 . S
O66 C69 1.247 . S
O67 Zn61 2.035 . S
O67 C69 1.258 . S
C68 O62 1.247 . S
C68 O63 1.258 1_565 S
C69 O66 1.247 . S
C69 O67 1.258 . S
C70 O72 1.247 . S
C70 O74 1.258 . S
C71 O78 1.247 . S
C71 O79 1.258 . S
O72 C70 1.247 . S
O72 Zn73 2.028 . S
Zn73 O72 2.028 . S
Zn73 O77 2.035 . S
Zn73 O79 2.035 . S
Zn73 O80 2.028 . S
O74 C70 1.258 . S
O74 Zn75 2.035 . S
Zn75 O74 2.035 . S
Zn75 O76 2.028 . S
Zn75 O78 2.028 . S
Zn75 O81 2.035 . S
O76 Zn75 2.028 . S
O76 C82 1.247 . S
O77 Zn73 2.035 . S
O77 C82 1.258 . S
O78 C71 1.247 . S
O78 Zn75 2.028 . S
O79 C71 1.258 . S
O79 Zn73 2.035 . S
O80 Zn73 2.028 . S
O80 C83 1.247 . S
O81 Zn75 2.035 . S
O81 C83 1.258 . S
C82 O76 1.247 . S
C82 O77 1.258 . S
C83 O80 1.247 . S
C83 O81 1.258 . S
C84 O86 1.247 . S
C84 O88 1.258 . S
C85 O92 1.247 . S
C85 O93 1.258 . S
O86 C84 1.247 . S
O86 Zn87 2.020 . S
Zn87 O86 2.020 . S
Zn87 O91 2.044 . S
Zn87 O93 2.050 . S
Zn87 O94 2.026 1_565 S
O88 C84 1.258 . S
O88 Zn89 2.035 . S
Zn89 O88 2.035 . S
Zn89 O90 2.028 . S
Zn89 O92 2.028 . S
Zn89 O95 2.035 . S
O90 Zn89 2.028 . S
O90 C96 1.247 . S
O91 Zn87 2.044 . S
O91 C96 1.258 . S
O92 C85 1.247 . S
O92 Zn89 2.028 . S
O93 C85 1.258 . S
O93 Zn87 2.050 . S
O94 Zn87 2.026 1_545 S
O94 C97 1.247 1_545 S
O95 Zn89 2.035 . S
O95 C97 1.258 . S
C96 O90 1.247 . S
C96 O91 1.258 . S
C97 O94 1.247 1_565 S
C97 O95 1.258 . S
C98 O100 1.247 . S
C98 O102 1.258 . S
C99 O106 1.247 . S
C99 O107 1.258 . S
O100 C98 1.247 . S
O100 Zn101 2.028 . S
Zn101 O100 2.028 . S
Zn101 O105 2.035 . S
Zn101 O107 2.035 . S
Zn101 O108 2.028 . S
O102 C98 1.258 . S
O102 Zn103 2.035 . S
Zn103 O102 2.035 . S
Zn103 O104 2.028 . S
Zn103 O106 2.028 . S
Zn103 O109 2.035 . S
O104 Zn103 2.028 . S
O104 C110 1.247 . S
O105 Zn101 2.035 . S
O105 C110 1.258 . S
O106 C99 1.247 . S
O106 Zn103 2.028 . S
O107 C99 1.258 . S
O107 Zn101 2.035 . S
O108 Zn101 2.028 . S
O108 C111 1.247 . S
O109 Zn103 2.035 . S
O109 C111 1.258 . S
C110 O104 1.247 . S
C110 O105 1.258 . S
C111 O108 1.247 . S
C111 O109 1.258 . S
C112 O114 1.247 . S
C112 O116 1.258 . S
C113 O120 1.247 1_455 S
C113 O121 1.258 . S
O114 C112 1.247 . S
O114 Zn115 2.028 . S
Zn115 O114 2.028 . S
Zn115 O119 2.035 . S
Zn115 O121 2.035 . S
Zn115 O122 2.028 . S
O116 C112 1.258 . S
O116 Zn117 2.042 . S
Zn117 O116 2.042 . S
Zn117 O118 2.042 . S
Zn117 O120 2.027 1_455 S
Zn117 O123 2.027 . S
O118 Zn117 2.042 . S
O118 C124 1.247 . S
O119 Zn115 2.035 . S
O119 C124 1.258 . S
O120 C113 1.247 1_655 S
O120 Zn117 2.027 1_655 S
O121 C113 1.258 . S
O121 Zn115 2.035 . S
O122 Zn115 2.028 . S
O122 C125 1.247 . S
O123 Zn117 2.027 . S
O123 C125 1.258 . S
C124 O118 1.247 . S
C124 O119 1.258 . S
C125 O122 1.247 . S
C125 O123 1.258 . S
C126 O128 1.247 . S
C126 O130 1.258 . S
C127 O134 1.247 1_545 S
C127 O135 1.258 . S
O128 C126 1.247 . S
O128 Zn129 2.028 . S
Zn129 O128 2.028 . S
Zn129 O133 2.035 . S
Zn129 O135 2.035 . S
Zn129 O136 2.028 . S
O130 C126 1.258 . S
O130 Zn131 2.047 . S
Zn131 O130 2.047 . S
Zn131 O132 2.018 . S
Zn131 O134 2.026 1_545 S
Zn131 O137 2.055 . S
O132 Zn131 2.018 . S
O132 C138 1.247 . S
O133 Zn129 2.035 . S
O133 C138 1.258 . S
O134 C127 1.247 1_565 S
O134 Zn131 2.026 1_565 S
O135 C127 1.258 . S
O135 Zn129 2.035 . S
O136 Zn129 2.028 . S
O136 C139 1.247 . S
O137 Zn131 2.055 . S
O137 C139 1.258 . S
C138 O132 1.247 . S
C138 O133 1.258 . S
C139 O136 1.247 . S
C139 O137 1.258 . S
C140 O142 1.247 . S
C140 O144 1.258 . S
C141 O148 1.247 . S
C141 O149 1.258 . S
O142 C140 1.247 . S
O142 Zn143 2.028 . S
Zn143 O142 2.028 . S
Zn143 O147 2.035 . S
Zn143 O149 2.035 . S
Zn143 O150 2.028 . S
O144 C140 1.258 . S
O144 Zn145 2.035 . S
Zn145 O144 2.035 . S
Zn145 O146 2.028 . S
Zn145 O148 2.028 . S
Zn145 O151 2.035 . S
O146 Zn145 2.028 . S
O146 C152 1.247 . S
O147 Zn143 2.035 . S
O147 C152 1.258 . S
O148 C141 1.247 . S
O148 Zn145 2.028 . S
O149 C141 1.258 . S
O149 Zn143 2.035 . S
O150 Zn143 2.028 . S
O150 C153 1.247 . S
O151 Zn145 2.035 . S
O151 C153 1.258 . S
C152 O146 1.247 . S
C152 O147 1.258 . S
C153 O150 1.247 . S
C153 O151 1.258 . S
C154 O156 1.247 . S
C154 O158 1.258 1_655 S
C155 O162 1.247 . S
C155 O163 1.258 . S
O156 C154 1.247 . S
O156 Zn157 2.028 . S
Zn157 O156 2.028 . S
Zn157 O161 2.035 . S
Zn157 O163 2.035 . S
Zn157 O164 2.028 . S
O158 C154 1.258 1_455 S
O158 Zn159 2.035 1_455 S
Zn159 O158 2.035 1_655 S
Zn159 O160 2.028 . S
Zn159 O162 2.028 . S
Zn159 O165 2.035 . S
O160 Zn159 2.028 . S
O160 C166 1.247 . S
O161 Zn157 2.035 . S
O161 C166 1.258 . S
O162 C155 1.247 . S
O162 Zn159 2.028 . S
O163 C155 1.258 . S
O163 Zn157 2.035 . S
O164 Zn157 2.028 . S
O164 C167 1.247 . S
O165 Zn159 2.035 . S
O165 C167 1.258 . S
C166 O160 1.247 . S
C166 O161 1.258 . S
C167 O164 1.247 . S
C167 O165 1.258 . S
C168 C169 1.349 1_455 S
C168 C170 1.327 . S
C168 H193 0.950 . S
C169 C168 1.349 1_655 S
C169 C185 1.349 . S
C170 C168 1.327 . S
C170 C189 1.429 1_455 S
C170 H194 0.950 . S
C171 C188 1.574 . S
C171 C190 1.368 . S
C171 H195 0.949 . S
H172 C176 0.949 . S
C173 C174 1.349 1_655 S
C173 C175 1.327 . S
C173 H196 0.950 . S
C174 C173 1.349 1_455 S
C174 C186 1.349 . S
C175 C173 1.327 . S
C175 C191 1.429 1_655 S
C175 H197 0.950 . S
C176 H172 0.949 . S
C176 C184 1.574 . S
C176 C192 1.368 . S
H177 C185 0.950 . S
H178 C183 0.950 . S
H179 C184 0.949 . S
H180 C186 0.950 . S
H181 C187 0.950 . S
H182 C188 0.949 . S
C183 H178 0.950 . S
C183 C185 1.327 . S
C183 C189 1.429 . S
C184 C176 1.574 . S
C184 H179 0.949 . S
C184 C190 1.368 1_455 S
C185 C169 1.349 . S
C185 H177 0.950 . S
C185 C183 1.327 . S
C186 C174 1.349 . S
C186 H180 0.950 . S
C186 C187 1.327 . S
C187 H181 0.950 . S
C187 C186 1.327 . S
C187 C191 1.429 . S
C188 C171 1.574 . S
C188 H182 0.949 . S
C188 C192 1.368 1_655 S
C189 C170 1.429 1_655 S
C189 C183 1.429 . S
C189 C190 1.523 . S
C190 C171 1.368 . S
C190 C184 1.368 1_655 S
C190 C189 1.523 . S
C191 C175 1.429 1_455 S
C191 C187 1.429 . S
C191 C192 1.523 . S
C192 C176 1.368 . S
C192 C188 1.368 1_455 S
C192 C191 1.523 . S
H193 C168 0.950 . S
H194 C170 0.950 . S
H195 C171 0.949 . S
H196 C173 0.950 . S
H197 C175 0.950 . S
C198 C199 1.349 1_565 S
C198 C200 1.327 . S
C198 H223 0.950 . S
C199 C198 1.349 1_545 S
C199 C215 1.349 . S
C200 C198 1.327 . S
C200 C219 1.429 1_565 S
C200 H224 0.950 . S
C201 C218 1.574 . S
C201 C220 1.368 . S
C201 H225 0.949 . S
H202 C206 0.949 . S
C203 C204 1.349 1_545 S
C203 C205 1.327 . S
C203 H226 0.950 . S
C204 C203 1.349 1_565 S
C204 C216 1.349 . S
C205 C203 1.327 . S
C205 C221 1.429 1_545 S
C205 H227 0.950 . S
C206 H202 0.949 . S
C206 C214 1.574 . S
C206 C222 1.368 . S
H207 C215 0.950 . S
H208 C213 0.950 . S
H209 C214 0.949 . S
H210 C216 0.950 . S
H211 C217 0.950 . S
H212 C218 0.949 . S
C213 H208 0.950 . S
C213 C215 1.327 . S
C213 C219 1.429 . S
C214 C206 1.574 . S
C214 H209 0.949 . S
C214 C220 1.368 1_565 S
C215 C199 1.349 . S
C215 H207 0.950 . S
C215 C213 1.327 . S
C216 C204 1.349 . S
C216 H210 0.950 . S
C216 C217 1.327 . S
C217 H211 0.950 . S
C217 C216 1.327 . S
C217 C221 1.429 . S
C218 C201 1.574 . S
C218 H212 0.949 . S
C218 C222 1.368 1_545 S
C219 C200 1.429 1_545 S
C219 C213 1.429 . S
C219 C220 1.523 . S
C220 C201 1.368 . S
C220 C214 1.368 1_545 S
C220 C219 1.523 . S
C221 C205 1.429 1_565 S
C221 C217 1.429 . S
C221 C222 1.523 . S
C222 C206 1.368 . S
C222 C218 1.368 1_565 S
C222 C221 1.523 . S
H223 C198 0.950 . S
H224 C200 0.950 . S
H225 C201 0.949 . S
H226 C203 0.950 . S
H227 C205 0.950 . S
C228 C229 1.349 . S
C228 C230 1.327 . S
C228 H253 0.950 . S
C229 C228 1.349 . S
C229 C245 1.349 . S
C230 C228 1.327 . S
C230 C249 1.429 . S
C230 H254 0.950 . S
C231 C248 1.574 . S
C231 C250 1.368 . S
C231 H255 0.949 . S
H232 C236 0.949 . S
C233 C234 1.349 . S
C233 C235 1.327 . S
C233 H256 0.950 . S
C234 C233 1.349 . S
C234 C246 1.349 . S
C235 C233 1.327 . S
C235 C251 1.429 . S
C235 H257 0.950 . S
C236 H232 0.949 . S
C236 C244 1.574 . S
C236 C252 1.368 . S
H237 C245 0.950 . S
H238 C243 0.950 . S
H239 C244 0.949 . S
H240 C246 0.950 . S
H241 C247 0.950 . S
H242 C248 0.949 . S
C243 H238 0.950 . S
C243 C245 1.327 . S
C243 C249 1.429 . S
C244 C236 1.574 . S
C244 H239 0.949 . S
C244 C250 1.368 . S
C245 C229 1.349 . S
C245 H237 0.950 . S
C245 C243 1.327 . S
C246 C234 1.349 . S
C246 H240 0.950 . S
C246 C247 1.327 . S
C247 H241 0.950 . S
C247 C246 1.327 . S
C247 C251 1.429 . S
C248 C231 1.574 . S
C248 H242 0.949 . S
C248 C252 1.368 . S
C249 C230 1.429 . S
C249 C243 1.429 . S
C249 C250 1.523 . S
C250 C231 1.368 . S
C250 C244 1.368 . S
C250 C249 1.523 . S
C251 C235 1.429 . S
C251 C247 1.429 . S
C251 C252 1.523 . S
C252 C236 1.368 . S
C252 C248 1.368 . S
C252 C251 1.523 . S
H253 C228 0.950 . S
H254 C230 0.950 . S
H255 C231 0.949 . S
H256 C233 0.950 . S
H257 C235 0.950 . S
C258 C259 1.349 . S
C258 C260 1.327 . S
C258 H283 0.950 . S
C259 C258 1.349 . S
C259 C275 1.349 . S
C260 C258 1.327 . S
C260 C279 1.429 . S
C260 H284 0.950 . S
C261 C278 1.574 . S
C261 C280 1.368 1_455 S
C261 H285 0.949 . S
H262 C266 0.949 . S
C263 C264 1.349 . S
C263 C265 1.327 . S
C263 H286 0.950 . S
C264 C263 1.349 . S
C264 C276 1.349 . S
C265 C263 1.327 . S
C265 C281 1.429 . S
C265 H287 0.950 . S
C266 H262 0.949 . S
C266 C274 1.574 . S
C266 C282 1.368 1_655 S
H267 C275 0.950 . S
H268 C273 0.950 . S
H269 C274 0.949 . S
H270 C276 0.950 . S
H271 C277 0.950 . S
H272 C278 0.949 . S
C273 H268 0.950 . S
C273 C275 1.327 . S
C273 C279 1.429 . S
C274 C266 1.574 . S
C274 H269 0.949 . S
C274 C280 1.368 . S
C275 C259 1.349 . S
C275 H267 0.950 . S
C275 C273 1.327 . S
C276 C264 1.349 . S
C276 H270 0.950 . S
C276 C277 1.327 . S
C277 H271 0.950 . S
C277 C276 1.327 . S
C277 C281 1.429 . S
C278 C261 1.574 . S
C278 H272 0.949 . S
C278 C282 1.368 . S
C279 C260 1.429 . S
C279 C273 1.429 . S
C279 C280 1.523 . S
C280 C261 1.368 1_655 S
C280 C274 1.368 . S
C280 C279 1.523 . S
C281 C265 1.429 . S
C281 C277 1.429 . S
C281 C282 1.523 . S
C282 C266 1.368 1_455 S
C282 C278 1.368 . S
C282 C281 1.523 . S
H283 C258 0.950 . S
H284 C260 0.950 . S
H285 C261 0.949 . S
H286 C263 0.950 . S
H287 C265 0.950 . S
C288 C289 1.349 . S
C288 C290 1.327 . S
C288 H313 0.950 . S
C289 C288 1.349 . S
C289 C305 1.349 1_545 S
C290 C288 1.327 . S
C290 C309 1.429 . S
C290 H314 0.950 . S
C291 C308 1.574 . S
C291 C310 1.368 1_565 S
C291 H315 0.949 . S
H292 C296 0.949 . S
C293 C294 1.349 . S
C293 C295 1.327 . S
C293 H316 0.950 . S
C294 C293 1.349 . S
C294 C306 1.349 1_565 S
C295 C293 1.327 . S
C295 C311 1.429 . S
C295 H317 0.950 . S
C296 H292 0.949 . S
C296 C304 1.574 . S
C296 C312 1.368 1_545 S
H297 C305 0.950 . S
H298 C303 0.950 . S
H299 C304 0.949 . S
H300 C306 0.950 . S
H301 C307 0.950 . S
H302 C308 0.949 . S
C303 H298 0.950 . S
C303 C305 1.327 . S
C303 C309 1.429 1_565 S
C304 C296 1.574 . S
C304 H299 0.949 . S
C304 C310 1.368 . S
C305 C289 1.349 1_565 S
C305 H297 0.950 . S
C305 C303 1.327 . S
C306 C294 1.349 1_545 S
C306 H300 0.950 . S
C306 C307 1.327 . S
C307 H301 0.950 . S
C307 C306 1.327 . S
C307 C311 1.429 1_545 S
C308 C291 1.574 . S
C308 H302 0.949 . S
C308 C312 1.368 . S
C309 C290 1.429 . S
C309 C303 1.429 1_545 S
C309 C310 1.523 . S
C310 C291 1.368 1_545 S
C310 C304 1.368 . S
C310 C309 1.523 . S
C311 C295 1.429 . S
C311 C307 1.429 1_565 S
C311 C312 1.523 . S
C312 C296 1.368 1_565 S
C312 C308 1.368 . S
C312 C311 1.523 . S
H313 C288 0.950 . S
H314 C290 0.950 . S
H315 C291 0.949 . S
H316 C293 0.950 . S
H317 C295 0.950 . S
C318 C319 1.349 . S
C318 C320 1.327 . S
C318 H343 0.950 . S
C319 C318 1.349 . S
C319 C335 1.349 . S
C320 C318 1.327 . S
C320 C339 1.429 . S
C320 H344 0.950 . S
C321 C338 1.574 . S
C321 C340 1.368 . S
C321 H345 0.949 . S
H322 C326 0.949 . S
C323 C324 1.349 . S
C323 C325 1.327 . S
C323 H346 0.950 . S
C324 C323 1.349 . S
C324 C336 1.349 . S
C325 C323 1.327 . S
C325 C341 1.429 . S
C325 H347 0.950 . S
C326 H322 0.949 . S
C326 C334 1.574 . S
C326 C342 1.368 . S
H327 C335 0.950 . S
H328 C333 0.950 . S
H329 C334 0.949 . S
H330 C336 0.950 . S
H331 C337 0.950 . S
H332 C338 0.949 . S
C333 H328 0.950 . S
C333 C335 1.327 . S
C333 C339 1.429 . S
C334 C326 1.574 . S
C334 H329 0.949 . S
C334 C340 1.368 . S
C335 C319 1.349 . S
C335 H327 0.950 . S
C335 C333 1.327 . S
C336 C324 1.349 . S
C336 H330 0.950 . S
C336 C337 1.327 . S
C337 H331 0.950 . S
C337 C336 1.327 . S
C337 C341 1.429 . S
C338 C321 1.574 . S
C338 H332 0.949 . S
C338 C342 1.368 . S
C339 C320 1.429 . S
C339 C333 1.429 . S
C339 C340 1.523 . S
C340 C321 1.368 . S
C340 C334 1.368 . S
C340 C339 1.523 . S
C341 C325 1.429 . S
C341 C337 1.429 . S
C341 C342 1.523 . S
C342 C326 1.368 . S
C342 C338 1.368 . S
C342 C341 1.523 . S
H343 C318 0.950 . S
H344 C320 0.950 . S
H345 C321 0.949 . S
H346 C323 0.950 . S
H347 C325 0.950 . S
C348 C349 1.349 . S
C348 C350 1.327 . S
C348 H373 0.950 . S
C349 C348 1.349 . S
C349 C365 1.349 . S
C350 C348 1.327 . S
C350 C369 1.429 . S
C350 H374 0.950 . S
C351 C368 1.574 1_554 S
C351 C370 1.368 . S
C351 H375 0.949 . S
H352 C356 0.949 . S
C353 C354 1.349 . S
C353 C355 1.327 . S
C353 H376 0.950 . S
C354 C353 1.349 . S
C354 C366 1.349 . S
C355 C353 1.327 . S
C355 C371 1.429 . S
C355 H377 0.950 . S
C356 H352 0.949 . S
C356 C364 1.574 1_556 S
C356 C372 1.368 . S
H357 C365 0.950 . S
H358 C363 0.950 . S
H359 C364 0.949 . S
H360 C366 0.950 . S
H361 C367 0.950 . S
H362 C368 0.949 . S
C363 H358 0.950 . S
C363 C365 1.327 . S
C363 C369 1.429 . S
C364 C356 1.574 1_554 S
C364 H359 0.949 . S
C364 C370 1.368 . S
C365 C349 1.349 . S
C365 H357 0.950 . S
C365 C363 1.327 . S
C366 C354 1.349 . S
C366 H360 0.950 . S
C366 C367 1.327 . S
C367 H361 0.950 . S
C367 C366 1.327 . S
C367 C371 1.429 . S
C368 C351 1.574 1_556 S
C368 H362 0.949 . S
C368 C372 1.368 . S
C369 C350 1.429 . S
C369 C363 1.429 . S
C369 C370 1.523 . S
C370 C351 1.368 . S
C370 C364 1.368 . S
C370 C369 1.523 . S
C371 C355 1.429 . S
C371 C367 1.429 . S
C371 C372 1.523 . S
C372 C356 1.368 . S
C372 C368 1.368 . S
C372 C371 1.523 . S
H373 C348 0.950 . S
H374 C350 0.950 . S
H375 C351 0.949 . S
H376 C353 0.950 . S
H377 C355 0.950 . S
C378 C379 1.349 . S
C378 C380 1.327 . S
C378 H403 0.950 . S
C379 C378 1.349 . S
C379 C395 1.349 . S
C380 C378 1.327 . S
C380 C399 1.429 . S
C380 H404 0.950 . S
C381 C398 1.574 . S
C381 C400 1.368 . S
C381 H405 0.949 . S
H382 C386 0.949 . S
C383 C384 1.349 . S
C383 C385 1.327 . S
C383 H406 0.950 . S
C384 C383 1.349 . S
C384 C396 1.349 . S
C385 C383 1.327 . S
C385 C401 1.429 . S
C385 H407 0.950 . S
C386 H382 0.949 . S
C386 C394 1.574 . S
C386 C402 1.368 . S
H387 C395 0.950 . S
H388 C393 0.950 . S
H389 C394 0.949 . S
H390 C396 0.950 . S
H391 C397 0.950 . S
H392 C398 0.949 . S
C393 H388 0.950 . S
C393 C395 1.327 . S
C393 C399 1.429 . S
C394 C386 1.574 . S
C394 H389 0.949 . S
C394 C400 1.368 . S
C395 C379 1.349 . S
C395 H387 0.950 . S
C395 C393 1.327 . S
C396 C384 1.349 . S
C396 H390 0.950 . S
C396 C397 1.327 . S
C397 H391 0.950 . S
C397 C396 1.327 . S
C397 C401 1.429 . S
C398 C381 1.574 . S
C398 H392 0.949 . S
C398 C402 1.368 . S
C399 C380 1.429 . S
C399 C393 1.429 . S
C399 C400 1.523 . S
C400 C381 1.368 . S
C400 C394 1.368 . S
C400 C399 1.523 . S
C401 C385 1.429 . S
C401 C397 1.429 . S
C401 C402 1.523 . S
C402 C386 1.368 . S
C402 C398 1.368 . S
C402 C401 1.523 . S
H403 C378 0.950 . S
H404 C380 0.950 . S
H405 C381 0.949 . S
H406 C383 0.950 . S
H407 C385 0.950 . S
C408 C409 1.349 . S
C408 C410 1.327 . S
C408 H433 0.950 . S
C409 C408 1.349 . S
C409 C425 1.349 . S
C410 C408 1.327 . S
C410 C429 1.429 . S
C410 H434 0.950 . S
C411 C428 1.574 . S
C411 C430 1.368 . S
C411 H435 0.949 . S
H412 C416 0.949 . S
C413 C414 1.349 . S
C413 C415 1.327 . S
C413 H436 0.950 . S
C414 C413 1.349 . S
C414 C426 1.349 . S
C415 C413 1.327 . S
C415 C431 1.429 . S
C415 H437 0.950 . S
C416 H412 0.949 . S
C416 C424 1.574 . S
C416 C432 1.368 . S
H417 C425 0.950 . S
H418 C423 0.950 . S
H419 C424 0.949 . S
H420 C426 0.950 . S
H421 C427 0.950 . S
H422 C428 0.949 . S
C423 H418 0.950 . S
C423 C425 1.327 . S
C423 C429 1.429 . S
C424 C416 1.574 . S
C424 H419 0.949 . S
C424 C430 1.368 . S
C425 C409 1.349 . S
C425 H417 0.950 . S
C425 C423 1.327 . S
C426 C414 1.349 . S
C426 H420 0.950 . S
C426 C427 1.327 . S
C427 H421 0.950 . S
C427 C426 1.327 . S
C427 C431 1.429 . S
C428 C411 1.574 . S
C428 H422 0.949 . S
C428 C432 1.368 . S
C429 C410 1.429 . S
C429 C423 1.429 . S
C429 C430 1.523 . S
C430 C411 1.368 . S
C430 C424 1.368 . S
C430 C429 1.523 . S
C431 C415 1.429 . S
C431 C427 1.429 . S
C431 C432 1.523 . S
C432 C416 1.368 . S
C432 C428 1.368 . S
C432 C431 1.523 . S
H433 C408 0.950 . S
H434 C410 0.950 . S
H435 C411 0.949 . S
H436 C413 0.950 . S
H437 C415 0.950 . S
C438 C439 1.349 . S
C438 C440 1.327 . S
C438 H463 0.950 . S
C439 C438 1.349 . S
C439 C455 1.349 . S
C440 C438 1.327 . S
C440 C459 1.429 . S
C440 H464 0.950 . S
C441 C458 1.574 1_554 S
C441 C460 1.368 . S
C441 H465 0.949 . S
H442 C446 0.949 . S
C443 C444 1.349 . S
C443 C445 1.327 . S
C443 H466 0.950 . S
C444 C443 1.349 . S
C444 C456 1.349 . S
C445 C443 1.327 . S
C445 C461 1.429 . S
C445 H467 0.950 . S
C446 H442 0.949 . S
C446 C454 1.574 1_556 S
C446 C462 1.368 . S
H447 C455 0.950 . S
H448 C453 0.950 . S
H449 C454 0.949 . S
H450 C456 0.950 . S
H451 C457 0.950 . S
H452 C458 0.949 . S
C453 H448 0.950 . S
C453 C455 1.327 . S
C453 C459 1.429 . S
C454 C446 1.574 1_554 S
C454 H449 0.949 . S
C454 C460 1.368 . S
C455 C439 1.349 . S
C455 H447 0.950 . S
C455 C453 1.327 . S
C456 C444 1.349 . S
C456 H450 0.950 . S
C456 C457 1.327 . S
C457 H451 0.950 . S
C457 C456 1.327 . S
C457 C461 1.429 . S
C458 C441 1.574 1_556 S
C458 H452 0.949 . S
C458 C462 1.368 . S
C459 C440 1.429 . S
C459 C453 1.429 . S
C459 C460 1.523 . S
C460 C441 1.368 . S
C460 C454 1.368 . S
C460 C459 1.523 . S
C461 C445 1.429 . S
C461 C457 1.429 . S
C461 C462 1.523 . S
C462 C446 1.368 . S
C462 C458 1.368 . S
C462 C461 1.523 . S
H463 C438 0.950 . S
H464 C440 0.950 . S
H465 C441 0.949 . S
H466 C443 0.950 . S
H467 C445 0.950 . S
C468 C469 1.349 . S
C468 C470 1.327 . S
C468 H493 0.950 . S
C469 C468 1.349 . S
C469 C485 1.349 . S
C470 C468 1.327 . S
C470 C489 1.429 . S
C470 H494 0.950 . S
C471 C488 1.574 . S
C471 C490 1.368 . S
C471 H495 0.949 . S
H472 C476 0.949 . S
C473 C474 1.349 . S
C473 C475 1.327 . S
C473 H496 0.950 . S
C474 C473 1.349 . S
C474 C486 1.349 . S
C475 C473 1.327 . S
C475 C491 1.429 . S
C475 H497 0.950 . S
C476 H472 0.949 . S
C476 C484 1.574 . S
C476 C492 1.368 . S
H477 C485 0.950 . S
H478 C483 0.950 . S
H479 C484 0.949 . S
H480 C486 0.950 . S
H481 C487 0.950 . S
H482 C488 0.949 . S
C483 H478 0.950 . S
C483 C485 1.327 . S
C483 C489 1.429 . S
C484 C476 1.574 . S
C484 H479 0.949 . S
C484 C490 1.368 . S
C485 C469 1.349 . S
C485 H477 0.950 . S
C485 C483 1.327 . S
C486 C474 1.349 . S
C486 H480 0.950 . S
C486 C487 1.327 . S
C487 H481 0.950 . S
C487 C486 1.327 . S
C487 C491 1.429 . S
C488 C471 1.574 . S
C488 H482 0.949 . S
C488 C492 1.368 . S
C489 C470 1.429 . S
C489 C483 1.429 . S
C489 C490 1.523 . S
C490 C471 1.368 . S
C490 C484 1.368 . S
C490 C489 1.523 . S
C491 C475 1.429 . S
C491 C487 1.429 . S
C491 C492 1.523 . S
C492 C476 1.368 . S
C492 C488 1.368 . S
C492 C491 1.523 . S
H493 C468 0.950 . S
H494 C470 0.950 . S
H495 C471 0.949 . S
H496 C473 0.950 . S
H497 C475 0.950 . S
C498 C499 1.349 . S
C498 C500 1.327 . S
C498 H523 0.950 . S
C499 C498 1.349 . S
C499 C515 1.349 . S
C500 C498 1.327 . S
C500 C519 1.429 . S
C500 H524 0.950 . S
C501 C518 1.574 . S
C501 C520 1.368 . S
C501 H525 0.949 . S
H502 C506 0.949 . S
C503 C504 1.349 . S
C503 C505 1.327 . S
C503 H526 0.950 . S
C504 C503 1.349 . S
C504 C516 1.349 . S
C505 C503 1.327 . S
C505 C521 1.429 . S
C505 H527 0.950 . S
C506 H502 0.949 . S
C506 C514 1.574 . S
C506 C522 1.368 . S
H507 C515 0.950 . S
H508 C513 0.950 . S
H509 C514 0.949 . S
H510 C516 0.950 . S
H511 C517 0.950 . S
H512 C518 0.949 . S
C513 H508 0.950 . S
C513 C515 1.327 . S
C513 C519 1.429 . S
C514 C506 1.574 . S
C514 H509 0.949 . S
C514 C520 1.368 . S
C515 C499 1.349 . S
C515 H507 0.950 . S
C515 C513 1.327 . S
C516 C504 1.349 . S
C516 H510 0.950 . S
C516 C517 1.327 . S
C517 H511 0.950 . S
C517 C516 1.327 . S
C517 C521 1.429 . S
C518 C501 1.574 . S
C518 H512 0.949 . S
C518 C522 1.368 . S
C519 C500 1.429 . S
C519 C513 1.429 . S
C519 C520 1.523 . S
C520 C501 1.368 . S
C520 C514 1.368 . S
C520 C519 1.523 . S
C521 C505 1.429 . S
C521 C517 1.429 . S
C521 C522 1.523 . S
C522 C506 1.368 . S
C522 C518 1.368 . S
C522 C521 1.523 . S
H523 C498 0.950 . S
H524 C500 0.950 . S
H525 C501 0.949 . S
H526 C503 0.950 . S
H527 C505 0.950 . S
C528 C529 1.349 . S
C528 C530 1.327 . S
C528 H553 0.950 . S
C529 C528 1.349 . S
C529 C545 1.349 . S
C530 C528 1.327 . S
C530 C549 1.429 . S
C530 H554 0.950 . S
C531 C548 1.574 . S
C531 C550 1.368 1_455 S
C531 H555 0.949 . S
H532 C536 0.949 . S
C533 C534 1.349 . S
C533 C535 1.327 . S
C533 H556 0.950 . S
C534 C533 1.349 . S
C534 C546 1.349 . S
C535 C533 1.327 . S
C535 C551 1.429 . S
C535 H557 0.950 . S
C536 H532 0.949 . S
C536 C544 1.574 . S
C536 C552 1.368 1_655 S
H537 C545 0.950 . S
H538 C543 0.950 1_455 S
H539 C544 0.949 . S
H540 C546 0.950 . S
H541 C547 0.950 1_655 S
H542 C548 0.949 . S
C543 H538 0.950 1_655 S
C543 C545 1.327 . S
C543 C549 1.429 . S
C544 C536 1.574 . S
C544 H539 0.949 . S
C544 C550 1.368 . S
C545 C529 1.349 . S
C545 H537 0.950 . S
C545 C543 1.327 . S
C546 C534 1.349 . S
C546 H540 0.950 . S
C546 C547 1.327 . S
C547 H541 0.950 1_455 S
C547 C546 1.327 . S
C547 C551 1.429 . S
C548 C531 1.574 . S
C548 H542 0.949 . S
C548 C552 1.368 . S
C549 C530 1.429 . S
C549 C543 1.429 . S
C549 C550 1.523 . S
C550 C531 1.368 1_655 S
C550 C544 1.368 . S
C550 C549 1.523 . S
C551 C535 1.429 . S
C551 C547 1.429 . S
C551 C552 1.523 . S
C552 C536 1.368 1_455 S
C552 C548 1.368 . S
C552 C551 1.523 . S
H553 C528 0.950 . S
H554 C530 0.950 . S
H555 C531 0.949 . S
H556 C533 0.950 . S
H557 C535 0.950 . S
C558 C559 1.349 . S
C558 C560 1.327 . S
C558 H583 0.950 . S
C559 C558 1.349 . S
C559 C575 1.349 . S
C560 C558 1.327 . S
C560 C579 1.429 . S
C560 H584 0.950 1_545 S
C561 C578 1.574 . S
C561 C580 1.368 . S
C561 H585 0.949 . S
H562 C566 0.949 . S
C563 C564 1.349 . S
C563 C565 1.327 . S
C563 H586 0.950 . S
C564 C563 1.349 . S
C564 C576 1.349 . S
C565 C563 1.327 . S
C565 C581 1.429 . S
C565 H587 0.950 1_565 S
C566 H562 0.949 . S
C566 C574 1.574 . S
C566 C582 1.368 . S
H567 C575 0.950 . S
H568 C573 0.950 . S
H569 C574 0.949 . S
H570 C576 0.950 . S
H571 C577 0.950 . S
H572 C578 0.949 . S
C573 H568 0.950 . S
C573 C575 1.327 . S
C573 C579 1.429 . S
C574 C566 1.574 . S
C574 H569 0.949 . S
C574 C580 1.368 1_565 S
C575 C559 1.349 . S
C575 H567 0.950 . S
C575 C573 1.327 . S
C576 C564 1.349 . S
C576 H570 0.950 . S
C576 C577 1.327 . S
C577 H571 0.950 . S
C577 C576 1.327 . S
C577 C581 1.429 . S
C578 C561 1.574 . S
C578 H572 0.949 . S
C578 C582 1.368 1_545 S
C579 C560 1.429 . S
C579 C573 1.429 . S
C579 C580 1.523 . S
C580 C561 1.368 . S
C580 C574 1.368 1_545 S
C580 C579 1.523 . S
C581 C565 1.429 . S
C581 C577 1.429 . S
C581 C582 1.523 . S
C582 C566 1.368 . S
C582 C578 1.368 1_565 S
C582 C581 1.523 . S
H583 C558 0.950 . S
H584 C560 0.950 1_565 S
H585 C561 0.949 . S
H586 C563 0.950 . S
H587 C565 0.950 1_545 S
C588 C589 1.349 . S
C588 C590 1.327 . S
C588 H613 0.950 . S
C589 C588 1.349 . S
C589 C605 1.349 . S
C590 C588 1.327 . S
C590 C609 1.429 . S
C590 H614 0.950 . S
C591 C608 1.574 . S
C591 C610 1.368 . S
C591 H615 0.949 . S
H592 C596 0.949 . S
C593 C594 1.349 . S
C593 C595 1.327 . S
C593 H616 0.950 . S
C594 C593 1.349 . S
C594 C606 1.349 . S
C595 C593 1.327 . S
C595 C611 1.429 . S
C595 H617 0.950 . S
C596 H592 0.949 . S
C596 C604 1.574 . S
C596 C612 1.368 . S
H597 C605 0.950 . S
H598 C603 0.950 . S
H599 C604 0.949 . S
H600 C606 0.950 . S
H601 C607 0.950 . S
H602 C608 0.949 . S
C603 H598 0.950 . S
C603 C605 1.327 . S
C603 C609 1.429 . S
C604 C596 1.574 . S
C604 H599 0.949 . S
C604 C610 1.368 . S
C605 C589 1.349 . S
C605 H597 0.950 . S
C605 C603 1.327 . S
C606 C594 1.349 . S
C606 H600 0.950 . S
C606 C607 1.327 . S
C607 H601 0.950 . S
C607 C606 1.327 . S
C607 C611 1.429 . S
C608 C591 1.574 . S
C608 H602 0.949 . S
C608 C612 1.368 . S
C609 C590 1.429 . S
C609 C603 1.429 . S
C609 C610 1.523 . S
C610 C591 1.368 . S
C610 C604 1.368 . S
C610 C609 1.523 . S
C611 C595 1.429 . S
C611 C607 1.429 . S
C611 C612 1.523 . S
C612 C596 1.368 . S
C612 C608 1.368 . S
C612 C611 1.523 . S
H613 C588 0.950 . S
H614 C590 0.950 . S
H615 C591 0.949 . S
H616 C593 0.950 . S
H617 C595 0.950 . S
C618 C619 1.349 . S
C618 C620 1.327 . S
C618 H643 0.950 . S
C619 C618 1.349 . S
C619 C635 1.349 . S
C620 C618 1.327 . S
C620 C639 1.429 . S
C620 H644 0.950 1_545 S
C621 C638 1.574 . S
C621 C640 1.368 . S
C621 H645 0.949 . S
H622 C626 0.949 . S
C623 C624 1.349 . S
C623 C625 1.327 . S
C623 H646 0.950 . S
C624 C623 1.349 . S
C624 C636 1.349 . S
C625 C623 1.327 . S
C625 C641 1.429 . S
C625 H647 0.950 1_565 S
C626 H622 0.949 . S
C626 C634 1.574 . S
C626 C642 1.368 . S
H627 C635 0.950 . S
H628 C633 0.950 . S
H629 C634 0.949 . S
H630 C636 0.950 . S
H631 C637 0.950 . S
H632 C638 0.949 . S
C633 H628 0.950 . S
C633 C635 1.327 . S
C633 C639 1.429 . S
C634 C626 1.574 . S
C634 H629 0.949 . S
C634 C640 1.368 1_565 S
C635 C619 1.349 . S
C635 H627 0.950 . S
C635 C633 1.327 . S
C636 C624 1.349 . S
C636 H630 0.950 . S
C636 C637 1.327 . S
C637 H631 0.950 . S
C637 C636 1.327 . S
C637 C641 1.429 . S
C638 C621 1.574 . S
C638 H632 0.949 . S
C638 C642 1.368 1_545 S
C639 C620 1.429 . S
C639 C633 1.429 . S
C639 C640 1.523 . S
C640 C621 1.368 . S
C640 C634 1.368 1_545 S
C640 C639 1.523 . S
C641 C625 1.429 . S
C641 C637 1.429 . S
C641 C642 1.523 . S
C642 C626 1.368 . S
C642 C638 1.368 1_565 S
C642 C641 1.523 . S
H643 C618 0.950 . S
H644 C620 0.950 1_565 S
H645 C621 0.949 . S
H646 C623 0.950 . S
H647 C625 0.950 1_545 S
C648 C649 1.349 . S
C648 C650 1.327 . S
C648 H673 0.950 . S
C649 C648 1.349 . S
C649 C665 1.349 . S
C650 C648 1.327 . S
C650 C669 1.429 . S
C650 H674 0.950 . S
C651 C668 1.574 . S
C651 C670 1.368 . S
C651 H675 0.949 . S
H652 C656 0.949 . S
C653 C654 1.349 . S
C653 C655 1.327 . S
C653 H676 0.950 . S
C654 C653 1.349 . S
C654 C666 1.349 . S
C655 C653 1.327 . S
C655 C671 1.429 . S
C655 H677 0.950 . S
C656 H652 0.949 . S
C656 C664 1.574 . S
C656 C672 1.368 . S
H657 C665 0.950 . S
H658 C663 0.950 . S
H659 C664 0.949 . S
H660 C666 0.950 . S
H661 C667 0.950 . S
H662 C668 0.949 . S
C663 H658 0.950 . S
C663 C665 1.327 . S
C663 C669 1.429 . S
C664 C656 1.574 . S
C664 H659 0.949 . S
C664 C670 1.368 . S
C665 C649 1.349 . S
C665 H657 0.950 . S
C665 C663 1.327 . S
C666 C654 1.349 . S
C666 H660 0.950 . S
C666 C667 1.327 . S
C667 H661 0.950 . S
C667 C666 1.327 . S
C667 C671 1.429 . S
C668 C651 1.574 . S
C668 H662 0.949 . S
C668 C672 1.368 . S
C669 C650 1.429 . S
C669 C663 1.429 . S
C669 C670 1.523 . S
C670 C651 1.368 . S
C670 C664 1.368 . S
C670 C669 1.523 . S
C671 C655 1.429 . S
C671 C667 1.429 . S
C671 C672 1.523 . S
C672 C656 1.368 . S
C672 C668 1.368 . S
C672 C671 1.523 . S
H673 C648 0.950 . S
H674 C650 0.950 . S
H675 C651 0.949 . S
H676 C653 0.950 . S
H677 C655 0.950 . S
C678 C679 1.349 . S
C678 C680 1.327 . S
C678 H703 0.950 . S
C679 C678 1.349 . S
C679 C695 1.349 . S
C680 C678 1.327 . S
C680 C699 1.429 . S
C680 H704 0.950 1_455 S
C681 C698 1.574 . S
C681 C700 1.368 . S
C681 H705 0.949 . S
H682 C686 0.949 . S
C683 C684 1.349 . S
C683 C685 1.327 . S
C683 H706 0.950 . S
C684 C683 1.349 . S
C684 C696 1.349 . S
C685 C683 1.327 . S
C685 C701 1.429 . S
C685 H707 0.950 1_655 S
C686 H682 0.949 . S
C686 C694 1.574 . S
C686 C702 1.368 . S
H687 C695 0.950 . S
H688 C693 0.950 . S
H689 C694 0.949 . S
H690 C696 0.950 . S
H691 C697 0.950 . S
H692 C698 0.949 . S
C693 H688 0.950 . S
C693 C695 1.327 . S
C693 C699 1.429 . S
C694 C686 1.574 . S
C694 H689 0.949 . S
C694 C700 1.368 1_655 S
C695 C679 1.349 . S
C695 H687 0.950 . S
C695 C693 1.327 . S
C696 C684 1.349 . S
C696 H690 0.950 . S
C696 C697 1.327 . S
C697 H691 0.950 . S
C697 C696 1.327 . S
C697 C701 1.429 . S
C698 C681 1.574 . S
C698 H692 0.949 . S
C698 C702 1.368 1_455 S
C699 C680 1.429 . S
C699 C693 1.429 . S
C699 C700 1.523 . S
C700 C681 1.368 . S
C700 C694 1.368 1_455 S
C700 C699 1.523 . S
C701 C685 1.429 . S
C701 C697 1.429 . S
C701 C702 1.523 . S
C702 C686 1.368 . S
C702 C698 1.368 1_655 S
C702 C701 1.523 . S
H703 C678 0.950 . S
H704 C680 0.950 1_655 S
H705 C681 0.949 . S
H706 C683 0.950 . S
H707 C685 0.950 1_455 S
C708 C709 1.349 . S
C708 C710 1.327 . S
C708 H733 0.950 . S
C709 C708 1.349 . S
C709 C725 1.349 . S
C710 C708 1.327 . S
C710 C729 1.429 . S
C710 H734 0.950 1_455 S
C711 C728 1.574 1_545 S
C711 C730 1.368 . S
C711 H735 0.949 . S
H712 C716 0.949 . S
C713 C714 1.349 . S
C713 C715 1.327 . S
C713 H736 0.950 . S
C714 C713 1.349 . S
C714 C726 1.349 . S
C715 C713 1.327 . S
C715 C731 1.429 . S
C715 H737 0.950 1_655 S
C716 H712 0.949 . S
C716 C724 1.574 1_565 S
C716 C732 1.368 . S
H717 C725 0.950 . S
H718 C723 0.950 . S
H719 C724 0.949 . S
H720 C726 0.950 . S
H721 C727 0.950 . S
H722 C728 0.949 . S
C723 H718 0.950 . S
C723 C725 1.327 . S
C723 C729 1.429 . S
C724 C716 1.574 1_545 S
C724 H719 0.949 . S
C724 C730 1.368 1_655 S
C725 C709 1.349 . S
C725 H717 0.950 . S
C725 C723 1.327 . S
C726 C714 1.349 . S
C726 H720 0.950 . S
C726 C727 1.327 . S
C727 H721 0.950 . S
C727 C726 1.327 . S
C727 C731 1.429 . S
C728 C711 1.574 1_565 S
C728 H722 0.949 . S
C728 C732 1.368 1_455 S
C729 C710 1.429 . S
C729 C723 1.429 . S
C729 C730 1.523 . S
C730 C711 1.368 . S
C730 C724 1.368 1_455 S
C730 C729 1.523 . S
C731 C715 1.429 . S
C731 C727 1.429 . S
C731 C732 1.523 . S
C732 C716 1.368 . S
C732 C728 1.368 1_655 S
C732 C731 1.523 . S
H733 C708 0.950 . S
H734 C710 0.950 1_655 S
H735 C711 0.949 . S
H736 C713 0.950 . S
H737 C715 0.950 1_455 S
C738 C739 1.349 . S
C738 C740 1.327 . S
C738 H763 0.950 . S
C739 C738 1.349 . S
C739 C755 1.349 . S
C740 C738 1.327 . S
C740 C759 1.429 . S
C740 H764 0.950 . S
C741 C758 1.574 1_655 S
C741 C760 1.368 1_565 S
C741 H765 0.949 . S
H742 C746 0.949 . S
C743 C744 1.349 . S
C743 C745 1.327 . S
C743 H766 0.950 . S
C744 C743 1.349 . S
C744 C756 1.349 . S
C745 C743 1.327 . S
C745 C761 1.429 . S
C745 H767 0.950 . S
C746 H742 0.949 . S
C746 C754 1.574 1_455 S
C746 C762 1.368 1_545 S
H747 C755 0.950 . S
H748 C753 0.950 1_565 S
H749 C754 0.949 . S
H750 C756 0.950 . S
H751 C757 0.950 1_545 S
H752 C758 0.949 . S
C753 H748 0.950 1_545 S
C753 C755 1.327 . S
C753 C759 1.429 . S
C754 C746 1.574 1_655 S
C754 H749 0.949 . S
C754 C760 1.368 . S
C755 C739 1.349 . S
C755 H747 0.950 . S
C755 C753 1.327 . S
C756 C744 1.349 . S
C756 H750 0.950 . S
C756 C757 1.327 . S
C757 H751 0.950 1_565 S
C757 C756 1.327 . S
C757 C761 1.429 . S
C758 C741 1.574 1_455 S
C758 H752 0.949 . S
C758 C762 1.368 . S
C759 C740 1.429 . S
C759 C753 1.429 . S
C759 C760 1.523 . S
C760 C741 1.368 1_545 S
C760 C754 1.368 . S
C760 C759 1.523 . S
C761 C745 1.429 . S
C761 C757 1.429 . S
C761 C762 1.523 . S
C762 C746 1.368 1_565 S
C762 C758 1.368 . S
C762 C761 1.523 . S
H763 C738 0.950 . S
H764 C740 0.950 . S
H765 C741 0.949 . S
H766 C743 0.950 . S
H767 C745 0.950 . S
C768 C769 1.349 . S
C768 C770 1.327 . S
C768 H793 0.950 . S
C769 C768 1.349 . S
C769 C785 1.349 . S
C770 C768 1.327 . S
C770 C789 1.429 . S
C770 H794 0.950 . S
C771 C788 1.574 1_445 S
C771 C790 1.368 . S
C771 H795 0.949 . S
H772 C776 0.949 . S
C773 C774 1.349 . S
C773 C775 1.327 . S
C773 H796 0.950 . S
C774 C773 1.349 . S
C774 C786 1.349 . S
C775 C773 1.327 . S
C775 C791 1.429 . S
C775 H797 0.950 . S
C776 H772 0.949 . S
C776 C784 1.574 1_665 S
C776 C792 1.368 . S
H777 C785 0.950 . S
H778 C783 0.950 . S
H779 C784 0.949 . S
H780 C786 0.950 . S
H781 C787 0.950 . S
H782 C788 0.949 . S
C783 H778 0.950 . S
C783 C785 1.327 . S
C783 C789 1.429 . S
C784 C776 1.574 1_445 S
C784 H779 0.949 . S
C784 C790 1.368 . S
C785 C769 1.349 . S
C785 H777 0.950 . S
C785 C783 1.327 . S
C786 C774 1.349 . S
C786 H780 0.950 . S
C786 C787 1.327 . S
C787 H781 0.950 . S
C787 C786 1.327 . S
C787 C791 1.429 . S
C788 C771 1.574 1_665 S
C788 H782 0.949 . S
C788 C792 1.368 . S
C789 C770 1.429 . S
C789 C783 1.429 . S
C789 C790 1.523 . S
C790 C771 1.368 . S
C790 C784 1.368 . S
C790 C789 1.523 . S
C791 C775 1.429 . S
C791 C787 1.429 . S
C791 C792 1.523 . S
C792 C776 1.368 . S
C792 C788 1.368 . S
C792 C791 1.523 . S
H793 C768 0.950 . S
H794 C770 0.950 . S
H795 C771 0.949 . S
H796 C773 0.950 . S
H797 C775 0.950 . S
C798 C799 1.349 . S
C798 C800 1.327 . S
C798 H823 0.950 . S
C799 C798 1.349 . S
C799 C815 1.349 . S
C800 C798 1.327 . S
C800 C819 1.429 . S
C800 H824 0.950 . S
C801 C818 1.574 1_655 S
C801 C820 1.368 1_545 S
C801 H825 0.949 . S
H802 C806 0.949 . S
C803 C804 1.349 . S
C803 C805 1.327 . S
C803 H826 0.950 . S
C804 C803 1.349 . S
C804 C816 1.349 . S
C805 C803 1.327 . S
C805 C821 1.429 . S
C805 H827 0.950 . S
C806 H802 0.949 . S
C806 C814 1.574 1_455 S
C806 C822 1.368 1_565 S
H807 C815 0.950 . S
H808 C813 0.950 1_545 S
H809 C814 0.949 . S
H810 C816 0.950 . S
H811 C817 0.950 1_565 S
H812 C818 0.949 . S
C813 H808 0.950 1_565 S
C813 C815 1.327 . S
C813 C819 1.429 . S
C814 C806 1.574 1_655 S
C814 H809 0.949 . S
C814 C820 1.368 . S
C815 C799 1.349 . S
C815 H807 0.950 . S
C815 C813 1.327 . S
C816 C804 1.349 . S
C816 H810 0.950 . S
C816 C817 1.327 . S
C817 H811 0.950 1_545 S
C817 C816 1.327 . S
C817 C821 1.429 . S
C818 C801 1.574 1_455 S
C818 H812 0.949 . S
C818 C822 1.368 . S
C819 C800 1.429 . S
C819 C813 1.429 . S
C819 C820 1.523 . S
C820 C801 1.368 1_565 S
C820 C814 1.368 . S
C820 C819 1.523 . S
C821 C805 1.429 . S
C821 C817 1.429 . S
C821 C822 1.523 . S
C822 C806 1.368 1_545 S
C822 C818 1.368 . S
C822 C821 1.523 . S
H823 C798 0.950 . S
H824 C800 0.950 . S
H825 C801 0.949 . S
H826 C803 0.950 . S
H827 C805 0.950 . S
C828 C829 1.349 . S
C828 C830 1.327 . S
C828 H853 0.950 . S
C829 C828 1.349 . S
C829 C845 1.349 . S
C830 C828 1.327 . S
C830 C849 1.429 . S
C830 H854 0.950 . S
C831 C848 1.574 1_665 S
C831 C850 1.368 . S
C831 H855 0.949 . S
H832 C836 0.949 . S
C833 C834 1.349 . S
C833 C835 1.327 . S
C833 H856 0.950 . S
C834 C833 1.349 . S
C834 C846 1.349 . S
C835 C833 1.327 . S
C835 C851 1.429 . S
C835 H857 0.950 . S
C836 H832 0.949 . S
C836 C844 1.574 1_445 S
C836 C852 1.368 . S
H837 C845 0.950 . S
H838 C843 0.950 . S
H839 C844 0.949 . S
H840 C846 0.950 . S
H841 C847 0.950 . S
H842 C848 0.949 . S
C843 H838 0.950 . S
C843 C845 1.327 . S
C843 C849 1.429 . S
C844 C836 1.574 1_665 S
C844 H839 0.949 . S
C844 C850 1.368 . S
C845 C829 1.349 . S
C845 H837 0.950 . S
C845 C843 1.327 . S
C846 C834 1.349 . S
C846 H840 0.950 . S
C846 C847 1.327 . S
C847 H841 0.950 . S
C847 C846 1.327 . S
C847 C851 1.429 . S
C848 C831 1.574 1_445 S
C848 H842 0.949 . S
C848 C852 1.368 . S
C849 C830 1.429 . S
C849 C843 1.429 . S
C849 C850 1.523 . S
C850 C831 1.368 . S
C850 C844 1.368 . S
C850 C849 1.523 . S
C851 C835 1.429 . S
C851 C847 1.429 . S
C851 C852 1.523 . S
C852 C836 1.368 . S
C852 C848 1.368 . S
C852 C851 1.523 . S
H853 C828 0.950 . S
H854 C830 0.950 . S
H855 C831 0.949 . S
H856 C833 0.950 . S
H857 C835 0.950 . S
C858 C859 1.349 . S
C858 C860 1.327 . S
C858 H883 0.950 . S
C859 C858 1.349 . S
C859 C875 1.349 . S
C860 C858 1.327 . S
C860 C879 1.429 . S
C860 H884 0.950 . S
C861 C878 1.574 1_565 S
C861 C880 1.368 1_655 S
C861 H885 0.949 . S
H862 C866 0.949 . S
C863 C864 1.349 . S
C863 C865 1.327 . S
C863 H886 0.950 . S
C864 C863 1.349 . S
C864 C876 1.349 . S
C865 C863 1.327 . S
C865 C881 1.429 . S
C865 H887 0.950 . S
C866 H862 0.949 . S
C866 C874 1.574 1_545 S
C866 C882 1.368 1_455 S
H867 C875 0.950 . S
H868 C873 0.950 1_655 S
H869 C874 0.949 . S
H870 C876 0.950 . S
H871 C877 0.950 1_455 S
H872 C878 0.949 . S
C873 H868 0.950 1_455 S
C873 C875 1.327 . S
C873 C879 1.429 . S
C874 C866 1.574 1_565 S
C874 H869 0.949 . S
C874 C880 1.368 . S
C875 C859 1.349 . S
C875 H867 0.950 . S
C875 C873 1.327 . S
C876 C864 1.349 . S
C876 H870 0.950 . S
C876 C877 1.327 . S
C877 H871 0.950 1_655 S
C877 C876 1.327 . S
C877 C881 1.429 . S
C878 C861 1.574 1_545 S
C878 H872 0.949 . S
C878 C882 1.368 . S
C879 C860 1.429 . S
C879 C873 1.429 . S
C879 C880 1.523 . S
C880 C861 1.368 1_455 S
C880 C874 1.368 . S
C880 C879 1.523 . S
C881 C865 1.429 . S
C881 C877 1.429 . S
C881 C882 1.523 . S
C882 C866 1.368 1_655 S
C882 C878 1.368 . S
C882 C881 1.523 . S
H883 C858 0.950 . S
H884 C860 0.950 . S
H885 C861 0.949 . S
H886 C863 0.950 . S
H887 C865 0.950 . S
C169 C154 1.575 . S
C174 C0 1.575 . S
C199 C15 1.576 . S
C204 C97 1.576 . S
C229 C28 1.575 . S
C234 C99 1.576 . S
C259 C55 1.575 . S
C264 C113 1.575 . S
C289 C127 1.575 . S
C294 C68 1.574 . S
C319 C71 1.575 . S
C324 C140 1.574 . S
C349 C1 1.582 . S
C354 C141 1.582 . S
C379 C14 1.581 . S
C384 C155 1.582 . S
C409 C29 1.582 . S
C414 C96 1.581 . S
C439 C54 1.581 . S
C444 C98 1.581 . S
C469 C112 1.581 . S
C474 C69 1.582 . S
C499 C126 1.582 . S
C504 C70 1.582 . S
C529 C42 1.598 . S
C534 C13 1.599 . S
C559 C26 1.598 . S
C564 C57 1.599 . S
C589 C82 1.598 . S
C594 C41 1.599 . S
C619 C138 1.598 . S
C624 C84 1.598 . S
C649 C153 1.599 . S
C654 C110 1.598 . S
C679 C124 1.598 . S
C684 C167 1.599 . S
C709 C12 1.558 . S
C714 C43 1.559 . S
C739 C27 1.559 . S
C744 C56 1.558 . S
C769 C83 1.558 . S
C774 C40 1.557 . S
C799 C85 1.559 . S
C804 C139 1.559 . S
C829 C111 1.558 . S
C834 C152 1.557 . S
C859 C125 1.559 . S
C864 C166 1.558 . S
