# Generated by pormake.
# Topology vby, (6)-cn, num edge types: 1
# Building blocks:
#     Node 0, Type 0, BuildingBlock: PAMTUU_clean_sbu_0, # of connection points: 6
#     Node 1, Type 0, BuildingBlock: PAMTUU_clean_sbu_0, # of connection points: 6
#     Node 2, Type 0, BuildingBlock: PAMTUU_clean_sbu_0, # of connection points: 6
#     Node 3, Type 0, BuildingBlock: PAMTUU_clean_sbu_0, # of connection points: 6
#     Node 4, Type 0, BuildingBlock: PAMTUU_clean_sbu_0, # of connection points: 6
#     Node 5, Type 0, BuildingBlock: PAMTUU_clean_sbu_0, # of connection points: 6
#     Node 6, Type 0, BuildingBlock: PAMTUU_clean_sbu_0, # of connection points: 6
#     Node 7, Type 0, BuildingBlock: PAMTUU_clean_sbu_0, # of connection points: 6
#     Edge 8, Type (0, 0), BuildingBlock: ZUJKAS_clean_linker_0, # of connection points: 2
#     Edge 9, Type (0, 0), BuildingBlock: ZUJKAS_clean_linker_0, # of connection points: 2
#     Edge 10, Type (0, 0), BuildingBlock: ZUJKAS_clean_linker_0, # of connection points: 2
#     Edge 11, Type (0, 0), BuildingBlock: ZUJKAS_clean_linker_0, # of connection points: 2
#     Edge 12, Type (0, 0), BuildingBlock: ZUJKAS_clean_linker_0, # of connection points: 2
#     Edge 13, Type (0, 0), BuildingBlock: ZUJKAS_clean_linker_0, # of connection points: 2
#     Edge 14, Type (0, 0), BuildingBlock: ZUJKAS_clean_linker_0, # of connection points: 2
#     Edge 15, Type (0, 0), BuildingBlock: ZUJKAS_clean_linker_0, # of connection points: 2
#     Edge 16, Type (0, 0), BuildingBlock: ZUJKAS_clean_linker_0, # of connection points: 2
#     Edge 17, Type (0, 0), BuildingBlock: ZUJKAS_clean_linker_0, # of connection points: 2
#     Edge 18, Type (0, 0), BuildingBlock: ZUJKAS_clean_linker_0, # of connection points: 2
#     Edge 19, Type (0, 0), BuildingBlock: ZUJKAS_clean_linker_0, # of connection points: 2
#     Edge 20, Type (0, 0), BuildingBlock: ZUJKAS_clean_linker_0, # of connection points: 2
#     Edge 21, Type (0, 0), BuildingBlock: ZUJKAS_clean_linker_0, # of connection points: 2
#     Edge 22, Type (0, 0), BuildingBlock: ZUJKAS_clean_linker_0, # of connection points: 2
#     Edge 23, Type (0, 0), BuildingBlock: ZUJKAS_clean_linker_0, # of connection points: 2
#     Edge 24, Type (0, 0), BuildingBlock: ZUJKAS_clean_linker_0, # of connection points: 2
#     Edge 25, Type (0, 0), BuildingBlock: ZUJKAS_clean_linker_0, # of connection points: 2
#     Edge 26, Type (0, 0), BuildingBlock: ZUJKAS_clean_linker_0, # of connection points: 2
#     Edge 27, Type (0, 0), BuildingBlock: ZUJKAS_clean_linker_0, # of connection points: 2
#     Edge 28, Type (0, 0), BuildingBlock: ZUJKAS_clean_linker_0, # of connection points: 2
#     Edge 29, Type (0, 0), BuildingBlock: ZUJKAS_clean_linker_0, # of connection points: 2
#     Edge 30, Type (0, 0), BuildingBlock: ZUJKAS_clean_linker_0, # of connection points: 2
#     Edge 31, Type (0, 0), BuildingBlock: ZUJKAS_clean_linker_0, # of connection points: 2
# Relax obj value: 0.137
# Max RMSD: 0.177
# Mean RMSD: 0.177
data_MOF--net-vby--node1-PAMTUU_clean_sbu_0--edge1-ZUJKAS_clean_linker_0
_symmetry_space_group_name_H-M    P1
_symmetry_Int_Tables_number       1
_symmetry_cell_setting            triclinic
loop_
_symmetry_equiv_pos_as_xyz
'x, y, z'
_cell_length_a     19.787927
_cell_length_b     121.78448
_cell_length_c     38.730604
_cell_angle_alpha  90.044023
_cell_angle_beta   81.578696
_cell_angle_gamma 90.143871
loop_
_atom_site_label
_atom_site_type_symbol
_atom_site_fract_x
_atom_site_fract_y
_atom_site_fract_z
_atom_type_partial_charge
Tb0 Tb 0.09505 0.37236 0.008 0.0
Tb1 Tb 0.101 0.39976 0.00288 0.0
C2 C 0.09767 0.38501 0.93832 0.0
C3 C 0.1279 0.34151 0.01696 0.0
C4 C 0.1816 0.32051 0.02885 0.0
C5 C 0.17956 0.32429 0.99471 0.0
C6 C 0.15294 0.33463 0.98888 0.0
C7 C 0.1317 0.33792 0.05112 0.0
C8 C 0.15844 0.32754 0.05699 0.0
C9 C 0.09028 0.3516 0.01001 0.0
O10 O 0.20297 0.37625 0.99377 0.0
O11 O 0.20282 0.39449 0.00982 0.0
O12 O 0.06226 0.39538 0.05654 0.0
O13 O 0.11645 0.37877 0.05762 0.0
O14 O 0.08491 0.4142 0.9753 0.0
O15 O 0.13307 0.41474 0.02196 0.0
O16 O 0.99406 0.39575 0.00165 0.0
O17 O 0.98935 0.37766 0.02038 0.0
O18 O 0.06602 0.37747 0.9587 0.0
O19 O 0.13201 0.39286 0.95119 0.0
C20 C 0.23501 0.38527 0.00089 0.0
O21 O 0.06627 0.35791 0.0362 0.0
O22 O 0.114 0.35727 0.98229 0.0
C23 C 0.08586 0.3873 0.07382 0.0
C24 C 0.08105 0.43139 0.00574 0.0
C25 C 0.0503 0.45394 0.01698 0.0
C26 C 0.06293 0.44717 0.04479 0.0
C27 C 0.07848 0.43602 0.0392 0.0
C28 C 0.06481 0.43802 0.97847 0.0
C29 C 0.04949 0.44914 0.98401 0.0
C30 C 0.11153 0.42043 -0.00279 0.0
C31 C 0.95969 0.38678 0.01217 0.0
H32 H 0.19578 0.31907 0.97239 0.0
H33 H 0.14953 0.33707 0.96229 0.0
H34 H 0.11228 0.34296 0.07339 0.0
H35 H 0.15997 0.32496 0.08361 0.0
H36 H 0.06436 0.45062 0.07046 0.0
H37 H 0.09152 0.43119 0.06072 0.0
H38 H 0.06711 0.43472 0.95233 0.0
H39 H 0.03891 0.45406 0.96216 0.0
Tb40 Tb 0.95349 0.62609 0.0267 0.0
Tb41 Tb 0.95991 0.6534 0.02949 0.0
C42 C 0.97324 0.64048 0.96064 0.0
C43 C 0.97225 0.59445 0.02639 0.0
C44 C 1.00431 0.57195 0.03343 0.0
C45 C 1.0073 0.57678 0.00025 0.0
C46 C 0.99142 0.58787 0.99682 0.0
C47 C 0.97167 0.58979 0.05964 0.0
C48 C 0.98776 0.57866 0.0631 0.0
C49 C 0.94306 0.60545 0.02162 0.0
O50 O 0.06259 0.62994 0.01769 0.0
O51 O 0.0618 0.64806 0.03607 0.0
O52 O 0.9274 0.64738 0.08226 0.0
O53 O 0.98008 0.63056 0.07723 0.0
O54 O 0.95743 0.66819 0.0022 0.0
O55 O 0.97367 0.66821 0.05616 0.0
O56 O 0.85588 0.64941 0.02173 0.0
O57 O 0.84958 0.63174 0.04296 0.0
O58 O 0.93434 0.63289 0.97726 0.0
O59 O 1.00366 0.64773 0.97802 0.0
C60 C 0.09409 0.63884 0.02669 0.0
O61 O 0.91728 0.61107 0.04909 0.0
O62 O 0.97395 0.61172 -0.00313 0.0
C63 C 0.95544 0.63899 0.09619 0.0
C64 C 0.92667 0.6845 0.03466 0.0
C65 C 0.86979 0.70585 0.0362 0.0
C66 C 0.92288 0.70339 0.05545 0.0
C67 C 0.95101 0.69286 0.05459 0.0
C68 C 0.87139 0.68676 0.01673 0.0
C69 C 0.84326 0.69732 0.01751 0.0
C70 C 0.96613 0.67419 0.02907 0.0
C71 C 0.82038 0.64065 0.0331 0.0
H72 H 1.01867 0.57189 0.97677 0.0
H73 H 0.99103 0.59117 0.97087 0.0
H74 H 0.95653 0.5946 0.08299 0.0
H75 H 0.98585 0.57528 0.08907 0.0
H76 H 0.94515 0.70975 0.06981 0.0
H77 H 0.99409 0.69136 0.06829 0.0
H78 H 0.85151 0.68049 0.00109 0.0
H79 H 0.8017 0.69888 0.00284 0.0
Tb80 Tb 0.09953 0.62782 0.51904 0.0
Tb81 Tb 0.09348 0.65512 0.51652 0.0
C82 C 0.08114 0.64209 0.58538 0.0
C83 C 0.08147 0.59625 0.517 0.0
C84 C 0.04788 0.57371 0.51318 0.0
C85 C 1.01203 0.5805 0.53898 0.0
C86 C 0.02874 0.59164 0.54095 0.0
C87 C 0.11484 0.58959 0.49016 0.0
C88 C 0.09811 0.57847 0.48818 0.0
C89 C 0.11025 0.6072 0.52326 0.0
O90 O 0.99039 0.63153 0.52812 0.0
O91 O 0.99038 0.64986 0.51192 0.0
O92 O 0.12361 0.64913 0.46343 0.0
O93 O 0.07114 0.63226 0.469 0.0
O94 O 0.09718 0.66991 0.5437 0.0
O95 O 0.07939 0.66991 0.48998 0.0
O96 O 0.19788 0.65121 0.52346 0.0
O97 O 0.20337 0.63351 0.50251 0.0
O98 O 0.11945 0.63452 0.56847 0.0
O99 O 0.05123 0.64947 0.56834 0.0
C100 C 0.95849 0.64054 0.52069 0.0
O101 O 0.13755 0.61296 0.49637 0.0
O102 O 0.07822 0.61335 0.548 0.0
C103 C 0.09541 0.64067 0.4498 0.0
C104 C 0.12889 0.68612 0.51085 0.0
C105 C 0.18675 0.70744 0.50818 0.0
C106 C 0.13701 0.70467 0.48715 0.0
C107 C 0.10828 0.69414 0.48859 0.0
C108 C 0.18119 0.68868 0.53054 0.0
C109 C 0.20976 0.69923 0.52921 0.0
C110 C 0.0883 0.6759 0.51687 0.0
C111 C 0.23295 0.64243 0.51219 0.0
H112 H 0.97236 0.57714 0.55834 0.0
H113 H 1.00238 0.5965 0.56217 0.0
H114 H 0.15653 0.59284 0.47171 0.0
H115 H 0.12734 0.57348 0.4682 0.0
H116 H 0.11762 0.71079 0.4709 0.0
H117 H 0.06753 0.69242 0.47347 0.0
H118 H 0.19821 0.68268 0.548 0.0
H119 H 0.24873 0.70105 0.54533 0.0
Tb120 Tb 0.95973 0.3741 0.51801 0.0
Tb121 Tb 0.9535 0.40141 0.51549 0.0
C122 C 0.95732 0.38859 0.58482 0.0
C123 C 0.92561 0.34305 0.52487 0.0
C124 C 0.86799 0.3217 0.52925 0.0
C125 C 0.92254 0.32436 0.54732 0.0
C126 C 0.95107 0.3349 0.54506 0.0
C127 C 0.86887 0.3406 0.50819 0.0
C128 C 0.84039 0.33003 0.51036 0.0
C129 C 0.96519 0.35332 0.51768 0.0
O130 O 0.85501 0.378 0.51161 0.0
O131 O 0.84971 0.39575 0.53219 0.0
O132 O 0.93325 0.39467 0.46618 0.0
O133 O 1.00174 0.37975 0.46613 0.0
O134 O 0.91527 0.41628 0.53801 0.0
O135 O 0.97495 0.41588 0.48648 0.0
O136 O 0.06269 0.39775 0.5066 0.0
O137 O 0.06294 0.37938 0.52222 0.0
O138 O 0.92977 0.38007 0.57116 0.0
O139 O 0.98145 0.39701 0.56565 0.0
C140 C 0.82003 0.3868 0.52281 0.0
O141 O 0.95302 0.35927 0.49133 0.0
O142 O 0.97685 0.35935 0.54404 0.0
C143 C 0.97175 0.38714 0.44915 0.0
C144 C 0.97157 0.43298 0.51747 0.0
C145 C 1.00528 0.45551 0.52146 0.0
C146 C 0.04109 0.44873 0.4956 0.0
C147 C 1.02431 0.43759 0.49356 0.0
C148 C 0.93824 0.43962 0.54436 0.0
C149 C 0.95503 0.45074 0.54643 0.0
C150 C 0.94276 0.42204 0.51114 0.0
C151 C 0.09469 0.38872 0.51376 0.0
H152 H 0.94559 0.31815 0.56181 0.0
H153 H 0.99525 0.33654 0.55783 0.0
H154 H 0.84807 0.34671 0.49239 0.0
H155 H 0.79772 0.32831 0.49657 0.0
H156 H 0.08077 0.4521 0.47626 0.0
H157 H 0.05063 0.43275 0.47229 0.0
H158 H 0.89655 0.43636 0.5628 0.0
H159 H 0.92584 0.45572 0.56645 0.0
Tb160 Tb 0.59604 0.87234 0.01644 0.0
Tb161 Tb 0.60169 0.89971 0.01984 0.0
C162 C 0.59814 0.88699 0.95007 0.0
C163 C 0.63028 0.84127 0.01034 0.0
C164 C 0.68719 0.81992 0.00806 0.0
C165 C 0.63352 0.82241 0.98924 0.0
C166 C 0.60535 0.83296 0.99046 0.0
C167 C 0.68621 0.83898 0.02775 0.0
C168 C 0.71434 0.82841 0.02661 0.0
C169 C 0.59069 0.85156 0.01655 0.0
O170 O 0.70054 0.87637 0.02316 0.0
O171 O 0.70566 0.8942 0.00318 0.0
O172 O 0.62187 0.89283 0.06894 0.0
O173 O 0.55346 0.87787 0.06832 0.0
O174 O 0.63899 0.91474 -0.00192 0.0
O175 O 0.57968 0.91402 0.04966 0.0
O176 O 0.49264 0.89584 0.02837 0.0
O177 O 0.49307 0.87754 0.01169 0.0
O178 O 0.62578 0.87846 0.96349 0.0
O179 O 0.57438 0.8954 0.9694 0.0
C180 C 0.73539 0.88524 0.01231 0.0
O181 O 0.60058 0.85752 0.0433 0.0
O182 O 0.58152 0.85756 0.98977 0.0
C183 C 0.58357 0.88519 0.08562 0.0
C184 C 0.58271 0.93134 0.02001 0.0
C185 C 0.55273 0.95401 0.01576 0.0
C186 C 0.52861 0.94795 0.046 0.0
C187 C 0.54363 0.93677 0.04814 0.0
C188 C 0.60388 0.93725 0.98912 0.0
C189 C 0.58885 0.94844 0.98698 0.0
C190 C 0.6116 0.92034 0.02532 0.0
C191 C 0.46101 0.88682 0.02052 0.0
H192 H 0.6108 0.81608 0.97498 0.0
H193 H 0.56178 0.83447 0.97715 0.0
H194 H 0.70656 0.84522 0.04334 0.0
H195 H 0.75637 0.82683 0.04094 0.0
H196 H 0.50134 0.95197 0.06881 0.0
H197 H 0.52762 0.93254 0.07256 0.0
H198 H 0.63481 0.93337 0.9671 0.0
H199 H 0.60733 0.9528 0.96309 0.0
Tb200 Tb 0.4543 0.12658 0.02785 0.0
Tb201 Tb 0.45997 0.15392 0.03079 0.0
C202 C 0.47293 0.14099 0.96183 0.0
C203 C 0.47338 0.09493 0.02794 0.0
C204 C 0.50323 0.07225 0.03207 0.0
C205 C 0.52757 0.07833 0.00191 0.0
C206 C 0.51263 0.08951 -0.00017 0.0
C207 C 0.45201 0.089 0.05876 0.0
C208 C 0.46697 0.07781 0.06084 0.0
C209 C 0.44448 0.10593 0.02266 0.0
O210 O 0.56328 0.13048 0.01915 0.0
O211 O 0.56279 0.14876 0.03608 0.0
O212 O 0.42977 0.14789 0.08375 0.0
O213 O 0.48143 0.13098 0.07831 0.0
O214 O 0.45768 0.16866 0.00318 0.0
O215 O 0.47195 0.16878 0.05737 0.0
O216 O 0.35569 0.14987 0.02371 0.0
O217 O 0.35026 0.1321 0.04419 0.0
O218 O 0.43458 0.13335 0.97848 0.0
O219 O 0.50305 0.14829 0.97915 0.0
C220 C 0.59491 0.13949 0.02711 0.0
O221 O 0.41736 0.11155 0.0499 0.0
O222 O 0.47616 0.11223 -0.0018 0.0
C223 C 0.4576 0.13943 0.0974 0.0
C224 C 0.42366 0.18497 0.03511 0.0
C225 C 0.36889 0.20648 0.0407 0.0
C226 C 0.38687 0.20111 0.07019 0.0
C227 C 0.41438 0.19049 0.06737 0.0
C228 C 0.40263 0.19016 0.00607 0.0
C229 C 0.37548 0.20076 0.00885 0.0
C230 C 0.46456 0.17473 0.03017 0.0
C231 C 0.32068 0.14104 0.03478 0.0
H232 H 0.55495 0.07433 0.97909 0.0
H233 H 0.5288 0.09377 0.97546 0.0
H234 H 0.42094 0.09286 0.08077 0.0
H235 H 0.44833 0.07343 0.08468 0.0
H236 H 0.3829 0.20531 0.09505 0.0
H237 H 0.43105 0.1868 0.09013 0.0
H238 H 0.40975 0.18623 0.98071 0.0
H239 H 0.36124 0.2046 0.98576 0.0
Tb240 Tb 0.60127 0.12752 0.52049 0.0
Tb241 Tb 0.59622 0.15485 0.51751 0.0
C242 C 0.58294 0.14193 0.58656 0.0
C243 C 0.58211 0.09592 0.51954 0.0
C244 C 0.54875 0.07333 0.51676 0.0
C245 C 0.51414 0.08016 0.54284 0.0
C246 C 0.53075 0.09132 0.54428 0.0
C247 C 0.61416 0.08922 0.49244 0.0
C248 C 0.59753 0.07807 0.49098 0.0
C249 C 0.61119 0.10689 0.52523 0.0
O250 O 0.49226 0.13132 0.52921 0.0
O251 O 0.49307 0.14964 0.51285 0.0
O252 O 0.62671 0.14878 0.46456 0.0
O253 O 0.57363 0.13195 0.47026 0.0
O254 O 0.60228 0.16968 0.54423 0.0
O255 O 0.5807 0.16961 0.49112 0.0
O256 O 0.70053 0.15085 0.52441 0.0
O257 O 0.70537 0.13308 0.50401 0.0
O258 O 0.62113 0.13431 0.56982 0.0
O259 O 0.55335 0.1493 0.56933 0.0
C260 C 0.4608 0.14035 0.52158 0.0
O261 O 0.63831 0.11256 0.49809 0.0
O262 O 0.57965 0.11314 0.54986 0.0
C263 C 0.59831 0.14032 0.45099 0.0
C264 C 0.63111 0.1859 0.5109 0.0
C265 C 0.68885 0.20724 0.50736 0.0
C266 C 0.63478 0.20464 0.48888 0.0
C267 C 0.60621 0.19411 0.49072 0.0
C268 C 0.68737 0.18829 0.52802 0.0
C269 C 0.71591 0.19886 0.52626 0.0
C270 C 0.59132 0.17563 0.51766 0.0
C271 C 0.73525 0.14201 0.51342 0.0
H272 H 0.47558 0.07681 0.56281 0.0
H273 H 0.50546 0.0962 0.56574 0.0
H274 H 0.65483 0.09246 0.47336 0.0
H275 H 0.62576 0.07306 0.47073 0.0
H276 H 0.61212 0.2109 0.47437 0.0
H277 H 0.56238 0.19251 0.47763 0.0
H278 H 0.70772 0.18214 0.54383 0.0
H279 H 0.7582 0.20053 0.54036 0.0
Tb280 Tb 0.46418 0.87369 0.53037 0.0
Tb281 Tb 0.45578 0.90083 0.52643 0.0
C282 C 0.45775 0.88841 0.5964 0.0
C283 C 0.43115 0.84267 0.53552 0.0
C284 C 0.37231 0.82146 0.53586 0.0
C285 C 0.41984 0.82404 0.55834 0.0
C286 C 0.44899 0.83451 0.55808 0.0
C287 C 0.38129 0.84029 0.51417 0.0
C288 C 0.35221 0.82979 0.51434 0.0
C289 C 0.47172 0.85292 0.53155 0.0
O290 O 0.36093 0.87729 0.52059 0.0
O291 O 0.35227 0.89483 0.54275 0.0
O292 O 0.43732 0.89384 0.47713 0.0
O293 O 0.50749 0.87918 0.47854 0.0
O294 O 0.41759 0.91577 0.54858 0.0
O295 O 0.47532 0.91518 0.49664 0.0
O296 O 0.56511 0.89714 0.51652 0.0
O297 O 0.56467 0.87944 0.5384 0.0
O298 O 0.42957 0.87998 0.58265 0.0
O299 O 0.48301 0.89673 0.57707 0.0
C300 C 0.3243 0.88588 0.53213 0.0
O301 O 0.46972 0.85872 0.50348 0.0
O302 O 0.47255 0.8591 0.55895 0.0
C303 C 0.47672 0.88627 0.46083 0.0
C304 C 0.47237 0.93246 0.52655 0.0
C305 C 0.50529 0.95508 0.52884 0.0
C306 C 0.5399 0.94822 0.50285 0.0
C307 C 0.52353 0.93704 0.50165 0.0
C308 C 0.44023 0.9392 0.55352 0.0
C309 C 0.45665 0.95036 0.55474 0.0
C310 C 0.44374 0.92143 0.52122 0.0
C311 C 0.59675 0.88854 0.52731 0.0
H312 H 0.4371 0.81781 0.57498 0.0
H313 H 0.48781 0.83611 0.5745 0.0
H314 H 0.36645 0.84642 0.49647 0.0
H315 H 0.31499 0.82813 0.49709 0.0
H316 H 0.57836 0.95155 0.48279 0.0
H317 H 0.54887 0.93213 0.48029 0.0
H318 H 0.39972 0.93597 0.57271 0.0
H319 H 0.42841 0.9554 0.57492 0.0
H320 H 0.32075 0.40281 0.00255 0.0
H321 H 0.44355 0.40263 0.00381 0.0
H322 H 0.44281 0.36723 0.00021 0.0
H323 H 0.31974 0.36733 -0.00194 0.0
H324 H 0.51241 0.39407 0.05221 0.0
H325 H 0.59928 0.37427 0.92442 0.0
H326 H 0.51352 0.37938 0.93632 0.0
H327 H 0.53743 0.3663 0.95239 0.0
C328 C 0.34661 0.39496 0.00172 0.0
C329 C 0.31025 0.38507 8e-05 0.0
C330 C 0.41696 0.39489 0.00249 0.0
C331 C 0.45273 0.38494 0.00167 0.0
C332 C 0.4167 0.37503 3e-05 0.0
H333 H 0.87305 0.36913 0.022 0.0
H334 H 0.75001 0.3688 0.02065 0.0
C335 C 0.34621 0.3751 -0.00104 0.0
C336 C 0.52714 0.385 0.0039 0.0
H337 H 0.68288 0.37676 0.96199 0.0
C338 C 0.54965 0.39032 0.03239 0.0
C339 C 0.57585 0.38012 0.97802 0.0
C340 C 0.55551 0.37479 0.94589 0.0
C341 C 0.61927 0.3908 0.03586 0.0
C342 C 0.66772 0.38588 0.0101 0.0
C343 C 0.64542 0.38051 0.98173 0.0
C344 C 0.74193 0.38625 0.01207 0.0
C345 C 0.6406 0.39642 0.06727 0.0
C346 C 0.77815 0.39619 0.00769 0.0
C347 C 0.84871 0.39643 0.00829 0.0
C348 C 0.88431 0.38671 0.0134 0.0
C349 C 0.84745 0.37679 0.0182 0.0
C350 C 0.77708 0.37656 0.01732 0.0
H351 H 0.59648 0.39796 0.08795 0.0
H352 H 0.67895 0.39141 0.07842 0.0
H353 H 0.66461 0.40444 0.05919 0.0
H354 H 0.75197 0.40375 0.00324 0.0
H355 H 0.87536 0.40421 0.00443 0.0
H356 H 0.18499 0.62239 0.00372 0.0
H357 H 0.30851 0.62216 0.00535 0.0
H358 H 0.29606 0.65436 0.05208 0.0
H359 H 0.17339 0.6547 0.05071 0.0
H360 H 0.41046 0.63793 0.97445 0.0
H361 H 0.39418 0.63532 0.11858 0.0
H362 H 0.32317 0.63198 0.09598 0.0
H363 H 0.34398 0.64607 0.10332 0.0
C364 C 0.20848 0.62942 0.01442 0.0
C365 C 0.16901 0.63855 0.02716 0.0
C366 C 0.27906 0.62927 0.01527 0.0
C367 C 0.31118 0.63819 0.02924 0.0
C368 C 0.2721 0.64733 0.04169 0.0
H369 H 0.74056 0.65636 0.00816 0.0
H370 H 0.61719 0.65565 0.00697 0.0
C371 C 0.20187 0.64751 0.04069 0.0
C372 C 0.38575 0.63809 0.03044 0.0
H373 H 0.50363 0.63912 0.0866 0.0
C374 C 0.43094 0.63813 -0.00106 0.0
C375 C 0.41223 0.63828 0.06245 0.0
C376 C 0.36602 0.63781 0.09706 0.0
C377 C 0.50203 0.6386 -0.00141 0.0
C378 C 0.52842 0.63914 0.0306 0.0
C379 C 0.48323 0.63884 0.0621 0.0
C380 C 0.60291 0.63975 0.03196 0.0
C381 C 0.54839 0.6384 0.96401 0.0
C382 C 0.63544 0.6312 0.04724 0.0
C383 C 0.70579 0.63159 0.04805 0.0
C384 C 0.74511 0.64059 0.03384 0.0
C385 C 0.712 0.64929 0.01927 0.0
C386 C 0.64155 0.64886 0.01835 0.0
H387 H 0.52128 0.63549 0.94254 0.0
H388 H 0.56758 0.64683 0.95752 0.0
H389 H 0.59317 0.63302 0.96531 0.0
H390 H 0.60648 0.62413 0.05809 0.0
H391 H 0.72935 0.62476 0.0596 0.0
H392 H 0.87284 0.65806 0.52054 0.0
H393 H 0.74994 0.6579 0.51989 0.0
H394 H 0.75036 0.62248 0.52056 0.0
H395 H 0.87371 0.62256 0.52213 0.0
H396 H 0.67965 0.64981 0.4715 0.0
H397 H 0.59563 0.62889 0.59775 0.0
H398 H 0.68138 0.63405 0.58572 0.0
H399 H 0.65654 0.62115 0.5686 0.0
C400 C 0.84693 0.65021 0.52079 0.0
C401 C 0.88328 0.64031 0.52149 0.0
C402 C 0.7765 0.65014 0.5204 0.0
C403 C 0.74058 0.64019 0.52061 0.0
C404 C 0.77661 0.63027 0.52123 0.0
H405 H 0.31941 0.62491 0.50035 0.0
H406 H 0.44244 0.62452 0.50158 0.0
C407 C 0.84723 0.63033 0.52195 0.0
C408 C 0.66597 0.64031 0.51894 0.0
H409 H 0.51079 0.63186 0.56124 0.0
C410 C 0.64277 0.64592 0.49123 0.0
C411 C 0.61774 0.63524 0.5447 0.0
C412 C 0.63887 0.62958 0.57606 0.0
C413 C 0.57291 0.64652 0.48842 0.0
C414 C 0.52494 0.64142 0.51405 0.0
C415 C 0.5479 0.63575 0.54163 0.0
C416 C 0.45057 0.64184 0.51258 0.0
C417 C 0.55078 0.65248 0.45784 0.0
C418 C 0.41437 0.65172 0.51843 0.0
C419 C 0.34376 0.65199 0.51792 0.0
C420 C 0.3082 0.64236 0.51139 0.0
C421 C 0.34502 0.6325 0.50526 0.0
C422 C 0.41538 0.63224 0.50606 0.0
H423 H 0.5945 0.65428 0.43716 0.0
H424 H 0.51232 0.64756 0.44634 0.0
H425 H 0.5266 0.66038 0.46697 0.0
H426 H 0.44064 0.65921 0.52384 0.0
H427 H 0.31708 0.65972 0.52283 0.0
H428 H 0.73363 0.40432 0.53477 0.0
H429 H 0.61058 0.40472 0.53367 0.0
H430 H 0.61212 0.37003 0.5116 0.0
H431 H 0.7357 0.36951 0.51249 0.0
H432 H 0.5424 0.39748 0.47418 0.0
H433 H 0.45791 0.37492 0.59791 0.0
H434 H 0.54028 0.38158 0.58883 0.0
H435 H 0.5257 0.36879 0.56809 0.0
C436 C 0.70796 0.39673 0.52995 0.0
C437 C 0.74473 0.38686 0.5238 0.0
C438 C 0.63758 0.397 0.52922 0.0
C439 C 0.6023 0.3874 0.52277 0.0
C440 C 0.63843 0.37751 0.51696 0.0
H441 H 0.18051 0.37122 0.5136 0.0
H442 H 0.3033 0.37139 0.51455 0.0
C443 C 0.70907 0.37724 0.5174 0.0
C444 C 0.52796 0.38784 0.52122 0.0
H445 H 0.37303 0.3794 0.56339 0.0
C446 C 0.50518 0.39356 0.49369 0.0
C447 C 0.47984 0.3827 0.54671 0.0
C448 C 0.50173 0.3767 0.57726 0.0
C449 C 0.4354 0.39408 0.49051 0.0
C450 C 0.38702 0.38898 0.51611 0.0
C451 C 0.41003 0.38332 0.54379 0.0
C452 C 0.31247 0.38909 0.51426 0.0
C453 C 0.41448 0.3998 0.4592 0.0
C454 C 0.27639 0.39901 0.51378 0.0
C455 C 0.20581 0.39895 0.51289 0.0
C456 C 0.16989 0.38897 0.51304 0.0
C457 C 0.20631 0.37907 0.51358 0.0
C458 C 0.27669 0.37914 0.51415 0.0
H459 H 0.45787 0.40055 0.4376 0.0
H460 H 0.37214 0.39534 0.44934 0.0
H461 H 0.39663 0.40821 0.46679 0.0
H462 H 0.30254 0.4068 0.51469 0.0
H463 H 0.17927 0.40672 0.51284 0.0
H464 H 0.81991 0.86798 0.02193 0.0
H465 H 0.94351 0.8686 0.02294 0.0
H466 H 0.94461 0.90337 0.0023 0.0
H467 H 0.82161 0.90287 0.00103 0.0
H468 H 0.05137 0.87779 0.96592 0.0
H469 H 0.03494 0.89887 0.09447 0.0
H470 H 0.96425 0.89122 0.08165 0.0
H471 H 0.9855 0.90452 0.06328 0.0
C472 C 0.84641 0.87575 0.01749 0.0
C473 C 0.81065 0.88538 0.01146 0.0
C474 C 0.917 0.87609 0.01808 0.0
C475 C 0.95284 0.88605 0.01307 0.0
C476 C 0.91764 0.89563 0.00659 0.0
H477 H 0.376 0.90475 0.0234 0.0
H478 H 0.25296 0.9048 0.02061 0.0
C479 C 0.84731 0.8953 0.00571 0.0
C480 C 1.0272 0.88648 0.0145 0.0
H481 H 0.14525 0.89583 0.06366 0.0
C482 C 0.07205 0.8817 0.98729 0.0
C483 C 0.05377 0.8917 0.04223 0.0
C484 C 1.00736 0.89683 0.07227 0.0
C485 C 0.14311 0.88208 0.98693 0.0
C486 C 0.16983 0.8871 0.01508 0.0
C487 C 0.1248 0.89197 0.04214 0.0
C488 C 0.24416 0.88712 0.01736 0.0
C489 C 0.18886 0.8773 0.95598 0.0
C490 C 0.27976 0.87717 0.01731 0.0
C491 C 0.34986 0.87712 0.01867 0.0
C492 C 0.38597 0.88702 0.02066 0.0
C493 C 0.34985 0.89698 0.02184 0.0
C494 C 0.27955 0.89702 0.0202 0.0
H495 H 0.16271 0.87696 0.93249 0.0
H496 H 0.23659 0.88216 0.94959 0.0
H497 H 0.2028 0.86878 0.96219 0.0
H498 H 0.25327 0.86942 0.01621 0.0
H499 H 0.37568 0.86928 0.01819 0.0
H500 H 0.23637 0.15836 0.02563 0.0
H501 H 0.11269 0.15786 0.02542 0.0
H502 H 0.11167 0.12295 0.04407 0.0
H503 H 0.23442 0.1234 0.04527 0.0
H504 H 0.04029 0.14699 0.98227 0.0
H505 H 0.95892 0.13262 0.11774 0.0
H506 H 0.04444 0.13746 0.10278 0.0
H507 H 1.01999 0.12365 0.09333 0.0
C508 C 0.20972 0.15059 0.03004 0.0
C509 C 0.2454 0.14094 0.03573 0.0
C510 C 0.13901 0.15032 0.02986 0.0
C511 C 0.10257 0.1404 0.03534 0.0
C512 C 0.13818 0.13075 0.04076 0.0
H513 H 0.68002 0.12158 0.02351 0.0
H514 H 0.80386 0.12155 0.02431 0.0
C515 C 0.20864 0.13103 0.04124 0.0
C516 C 1.02788 0.14005 0.03398 0.0
H517 H 0.87424 0.13231 0.07986 0.0
C518 C 1.00401 0.14383 0.00371 0.0
C519 C 0.98042 0.13591 0.06193 0.0
C520 C 1.00209 0.13228 0.0959 0.0
C521 C 0.93425 0.14347 0.00048 0.0
C522 C 0.88712 0.13926 0.02828 0.0
C523 C 0.91075 0.13544 0.05848 0.0
C524 C 0.81264 0.13922 0.02707 0.0
C525 C 0.91132 0.14751 0.96726 0.0
C526 C 0.77679 0.14916 0.02859 0.0
C527 C 0.70629 0.14921 0.02836 0.0
C528 C 0.67008 0.13931 0.02649 0.0
C529 C 0.7063 0.12935 0.02478 0.0
C530 C 0.77697 0.12931 0.02532 0.0
H531 H 0.9548 0.14844 0.9458 0.0
H532 H 0.87331 0.14177 0.95868 0.0
H533 H 0.88641 0.15563 0.97211 0.0
H534 H 0.80333 0.15689 0.03032 0.0
H535 H 0.68024 0.15704 0.02967 0.0
H536 H 0.37528 0.12242 0.52406 0.0
H537 H 0.25218 0.1224 0.52139 0.0
H538 H 0.25347 0.15779 0.518 0.0
H539 H 0.37592 0.1579 0.51987 0.0
H540 H 0.14474 0.13128 0.56474 0.0
H541 H 0.16267 0.15047 0.43408 0.0
H542 H 0.23641 0.14521 0.45102 0.0
H543 H 0.20303 0.15856 0.46399 0.0
C544 C 0.34933 0.1302 0.52276 0.0
C545 C 0.38573 0.14015 0.52182 0.0
C546 C 0.279 0.13017 0.52118 0.0
C547 C 0.24388 0.14009 0.51865 0.0
C548 C 0.27975 0.15002 0.51885 0.0
H549 H 0.8201 0.15926 0.52355 0.0
H550 H 0.94366 0.15863 0.52466 0.0
C551 C 0.34987 0.15006 0.52016 0.0
C552 C 0.16955 0.14012 0.51639 0.0
H553 H 0.05133 0.14957 0.46749 0.0
C554 C 0.12439 0.1352 0.54333 0.0
C555 C 0.14296 0.14522 0.48838 0.0
C556 C 0.18883 0.15006 0.45755 0.0
C557 C 0.05336 0.13547 0.54344 0.0
C558 C 1.02693 0.14077 0.51585 0.0
C559 C 0.0719 0.14561 0.48876 0.0
C560 C 0.95259 0.1412 0.51441 0.0
C561 C 1.00682 0.13029 0.57335 0.0
C562 C 0.91719 0.13164 0.50768 0.0
C563 C 0.8469 0.13197 0.50675 0.0
C564 C 0.81047 0.14188 0.51267 0.0
C565 C 0.84643 0.15149 0.51896 0.0
C566 C 0.91699 0.15115 0.51961 0.0
H567 H 0.03433 0.12821 0.59551 0.0
H568 H 0.96382 0.13588 0.58286 0.0
H569 H 0.98479 0.12262 0.56418 0.0
H570 H 0.94398 0.1239 0.50324 0.0
H571 H 0.82104 0.1244 0.50187 0.0
H572 H 0.69332 0.89989 0.48313 0.0
H573 H 0.81777 0.89931 0.48152 0.0
H574 H 0.79195 0.87818 0.57192 0.0
H575 H 0.66854 0.87827 0.57241 0.0
H576 H 0.90172 0.90541 0.52306 0.0
H577 H 0.92584 0.86041 0.50997 0.0
H578 H 0.84712 0.86744 0.50645 0.0
H579 H 0.86894 0.86392 0.54869 0.0
C580 C 0.71443 0.89512 0.50258 0.0
C581 C 0.67141 0.889 0.52756 0.0
C582 C 0.78551 0.89477 0.50164 0.0
C583 C 0.81471 0.88842 0.52596 0.0
C584 C 0.77124 0.88277 0.55196 0.0
H585 H 0.22703 0.89749 0.57413 0.0
H586 H 0.10427 0.89799 0.57205 0.0
C587 C 0.70054 0.88291 0.55242 0.0
C588 C 0.89033 0.88782 0.5246 0.0
H589 H 1.02191 0.86986 0.52719 0.0
C590 C 0.92805 0.89763 0.52362 0.0
C591 C 0.92536 0.87767 0.52449 0.0
C592 C 0.88976 0.86678 0.52204 0.0
C593 C 0.99914 0.89759 0.52351 0.0
C594 C 0.03336 0.88746 0.52595 0.0
C595 C 0.99589 0.87765 0.52596 0.0
C596 C 0.10788 0.88682 0.52826 0.0
C597 C 0.03671 0.90842 0.51994 0.0
C598 C 0.15074 0.87987 0.50577 0.0
C599 C 0.22075 0.87929 0.50774 0.0
C600 C 0.24951 0.88575 0.53194 0.0
C601 C 0.20648 0.89252 0.55489 0.0
C602 C 0.1363 0.89291 0.55345 0.0
H603 H 1.00877 0.9146 0.50639 0.0
H604 H 0.04084 0.91169 0.5463 0.0
H605 H 0.08891 0.90751 0.50521 0.0
H606 H 0.13023 0.87501 0.48626 0.0
H607 H 0.25265 0.87402 0.48962 0.0
H608 H 0.93393 0.55777 0.08093 0.0
H609 H 0.94415 0.53779 0.08348 0.0
H610 H 0.1031 0.5386 0.99456 0.0
H611 H 0.09564 0.55859 0.99286 0.0
H612 H 0.92054 0.52302 0.03497 0.0
H613 H 0.18818 0.51873 0.05879 0.0
H614 H 0.14339 0.53166 0.06365 0.0
H615 H 0.18143 0.52698 0.02112 0.0
C616 C 0.97239 0.55375 0.06247 0.0
C617 C 1.01414 0.55985 0.03676 0.0
C618 C 0.97769 0.54229 0.06377 0.0
C619 C 1.02499 0.53666 0.03951 0.0
C620 C 0.06723 0.54274 0.01407 0.0
H621 H 0.10816 0.47003 0.9731 0.0
H622 H 0.09894 0.48992 0.9807 0.0
C623 C 0.06224 0.55419 0.01285 0.0
C624 C 1.02744 0.52443 0.03947 0.0
H625 H 0.13567 0.50258 0.03922 0.0
C626 C 0.96741 0.51855 0.03636 0.0
C627 C 0.08855 0.51857 0.04131 0.0
C628 C 0.15384 0.52431 0.04676 0.0
C629 C 0.96739 0.50703 0.03382 0.0
C630 C 0.02889 0.50122 0.03467 0.0
C631 C 0.08861 0.50706 0.03842 0.0
C632 C 0.03296 0.4891 0.03033 0.0
C633 C 0.90216 0.50116 0.02907 0.0
C634 C 0.99909 0.48202 0.05583 0.0
C635 C 1.00416 0.4706 0.05154 0.0
C636 C 0.04295 0.46606 0.02157 0.0
C637 C 0.0768 0.47322 0.99617 0.0
C638 C 0.07207 0.4846 0.00059 0.0
H639 H 0.86223 0.50692 0.02283 0.0
H640 H 0.91195 0.49496 0.00787 0.0
H641 H 0.88202 0.49676 0.05353 0.0
H642 H 0.96924 0.48532 0.07918 0.0
H643 H 0.97741 0.46532 0.07156 0.0
H644 H 1.02374 0.46904 0.46446 0.0
H645 H 0.03315 0.48905 0.46337 0.0
H646 H 1.01643 0.48957 0.5756 0.0
H647 H 1.00908 0.4695 0.5769 0.0
H648 H 0.93588 0.50384 0.49489 0.0
H649 H 0.18226 0.50928 0.54542 0.0
H650 H 0.1557 0.49626 0.5295 0.0
H651 H 0.12104 0.50093 0.57248 0.0
C652 C 1.02367 0.47337 0.48889 0.0
C653 C 1.01611 0.46763 0.52077 0.0
C654 C 0.02842 0.48483 0.48822 0.0
C655 C 1.02617 0.4908 0.51935 0.0
C656 C 1.01941 0.48512 0.55121 0.0
H657 H 0.02948 0.56021 0.57026 0.0
H658 H 1.02008 0.5402 0.57147 0.0
C659 C 1.01459 0.47365 0.55192 0.0
C660 C 1.0277 0.503 0.51851 0.0
H661 H 0.11727 0.52538 0.54003 0.0
C662 C 0.97571 0.50856 0.5046 0.0
C663 C 0.07958 0.50913 0.53129 0.0
C664 C 0.1382 0.50362 0.54524 0.0
C665 C 0.97356 0.52008 0.50364 0.0
C666 C 1.02546 0.52622 0.5164 0.0
C667 C 0.07744 0.52066 0.53032 0.0
C668 C 1.02705 0.53841 0.5155 0.0
C669 C 0.91493 0.5256 0.48969 0.0
C670 C 0.0338 0.54408 0.48361 0.0
C671 C 0.03862 0.55555 0.48283 0.0
C672 C 0.03709 0.56159 0.51394 0.0
C673 C 0.02955 0.55586 0.54585 0.0
C674 C 1.02481 0.54441 0.54659 0.0
H675 H 0.87084 0.51994 0.48955 0.0
H676 H 0.89749 0.53296 0.50541 0.0
H677 H 0.93207 0.52828 0.46243 0.0
H678 H 0.03678 0.53962 0.45924 0.0
H679 H 0.04412 0.55969 0.45783 0.0
H680 H 0.64713 0.96933 0.98826 0.0
H681 H 0.63767 0.98932 0.99117 0.0
H682 H 0.43235 0.98639 0.04577 0.0
H683 H 0.4411 0.96635 0.04276 0.0
H684 H 0.54568 1.00367 0.96645 0.0
H685 H 0.5259 1.00598 0.11077 0.0
H686 H 0.55271 0.99369 0.0865 0.0
H687 H 0.46367 0.99721 0.09529 0.0
C688 C 0.5995 0.97291 0.00044 0.0
C689 C 0.54489 0.96619 0.01536 0.0
C690 C 0.59439 0.98436 0.00229 0.0
C691 C 0.53481 0.98936 0.01924 0.0
C692 C 0.47945 0.98271 0.03328 0.0
H693 H 0.40865 0.05693 0.05936 0.0
H694 H 0.41804 0.03694 0.05637 0.0
C695 C 0.4845 0.97125 0.03148 0.0
C696 C 0.53087 1.00152 0.0222 0.0
H697 H 0.51009 0.02259 0.08116 0.0
C698 C 0.53815 1.00782 0.99152 0.0
C699 C 0.52112 1.00692 0.05494 0.0
C700 C 0.516 1.00063 0.08879 0.0
C701 C 0.53466 0.01934 0.99268 0.0
C702 C 0.5249 0.02474 0.02542 0.0
C703 C 0.51762 0.01844 0.0561 0.0
C704 C 0.52097 0.0369 0.02838 0.0
C705 C 0.53981 0.02563 0.95883 0.0
C706 C 0.57638 0.04355 0.01441 0.0
C707 C 0.57139 0.05501 0.01627 0.0
C708 C 0.51098 0.06007 0.03238 0.0
C709 C 0.4563 0.05335 0.04721 0.0
C710 C 0.46136 0.0419 0.04531 0.0
H711 H 0.52998 0.02029 0.93684 0.0
H712 H 0.50306 0.03256 0.96111 0.0
H713 H 0.59212 0.02907 0.95236 0.0
H714 H 0.62349 0.03987 0.00195 0.0
H715 H 0.61484 0.05991 0.00506 0.0
H716 H 0.54177 0.05914 0.46211 0.0
H717 H 0.53322 0.03907 0.46426 0.0
H718 H 0.5254 0.03997 0.57605 0.0
H719 H 0.53422 0.05997 0.57416 0.0
H720 H 0.62308 0.02445 0.4887 0.0
H721 H 0.3639 0.02018 0.5645 0.0
H722 H 0.39489 0.03295 0.54432 0.0
H723 H 0.42019 0.02877 0.58507 0.0
C724 C 0.53789 0.05507 0.48718 0.0
C725 C 0.53821 0.06119 0.51799 0.0
C726 C 0.53285 0.0436 0.48836 0.0
C727 C 0.52771 0.03802 0.52036 0.0
C728 C 0.52761 0.0441 0.55115 0.0
H729 H 0.51243 0.96934 0.58329 0.0
H730 H 0.52094 0.9894 0.5809 0.0
C731 C 0.53254 0.05556 0.55001 0.0
C732 C 0.52567 0.02582 0.52143 0.0
H733 H 0.4308 1.00396 0.55632 0.0
C734 C 0.58085 0.01996 0.5033 0.0
C735 C 0.47072 0.01997 0.54065 0.0
C736 C 0.40874 0.02577 0.55949 0.0
C737 C 0.58314 1.00843 0.50436 0.0
C738 C 0.52822 1.00258 0.52361 0.0
C739 C 0.47302 1.00844 0.54171 0.0
C740 C 0.52627 0.99038 0.52479 0.0
C741 C 0.6451 1.00263 0.48551 0.0
C742 C 0.5263 0.98426 0.49408 0.0
C743 C 0.52138 0.97281 0.49536 0.0
C744 C 0.51579 0.96721 0.52745 0.0
C745 C 0.51622 0.97337 0.55818 0.0
C746 C 0.52125 0.98484 0.55685 0.0
H747 H 0.6899 1.00822 0.48039 0.0
H748 H 0.65907 0.99547 0.50074 0.0
H749 H 0.63355 0.99959 0.45999 0.0
H750 H 0.52844 0.98836 0.46914 0.0
H751 H 0.51964 0.96837 0.47127 0.0
H752 H 0.28721 0.30902 0.99149 0.0
H753 H 0.31659 0.28971 -0.00221 0.0
H754 H 0.15853 0.2868 0.08662 0.0
H755 H 0.12678 0.30597 0.07961 0.0
H756 H 0.3596 0.27829 0.05139 0.0
H757 H 0.11007 0.26196 0.02477 0.0
H758 H 0.13498 0.2761 0.01692 0.0
H759 H 0.10377 0.2715 0.06046 0.0
C760 C 0.25831 0.30427 0.01225 0.0
C761 C 0.2041 0.30906 0.03481 0.0
C762 C 0.2755 0.29324 0.01596 0.0
C763 C 0.23889 0.28673 0.04223 0.0
C764 C 0.18652 0.29158 0.06565 0.0
H765 H 0.27944 0.21686 0.09133 0.0
H766 H 0.24779 0.23638 0.09401 0.0
C767 C 0.16909 0.30261 0.0619 0.0
C768 C 0.25543 0.27487 0.0448 0.0
H769 H 0.18893 0.24902 0.04078 0.0
C770 C 0.32223 0.2719 0.04911 0.0
C771 C 0.20666 0.26651 0.04179 0.0
C772 C 0.13502 0.26914 0.03541 0.0
C773 C 0.34154 0.26083 0.05049 0.0
C774 C 0.29298 0.2525 0.04718 0.0
C775 C 0.22593 0.25544 0.04347 0.0
C776 C 0.31183 0.2407 0.04577 0.0
C777 C 0.41376 0.25811 0.05558 0.0
C778 C 0.35751 0.23665 0.01755 0.0
C779 C 0.37536 0.22555 0.01587 0.0
C780 C 0.34791 0.21823 0.04241 0.0
C781 C 0.30182 0.2223 0.07062 0.0
C782 C 0.28353 0.23343 0.07213 0.0
H783 H 0.43974 0.26523 0.06595 0.0
H784 H 0.41456 0.25107 0.07371 0.0
H785 H 0.4434 0.25577 0.03008 0.0
H786 H 0.3793 0.2421 0.99672 0.0
H787 H 0.41163 0.22273 0.994 0.0
H788 H 0.7087 0.8045 0.95573 0.0
H789 H 0.73841 0.78512 0.96087 0.0
H790 H 0.75058 0.7898 0.07012 0.0
H791 H 0.71905 0.80907 0.0655 0.0
H792 H 0.8538 0.7753 0.98265 0.0
H793 H 0.61645 0.76404 0.07054 0.0
H794 H 0.62542 0.77678 0.04647 0.0
H795 H 0.66292 0.7753 0.08577 0.0
C796 C 0.71744 0.8014 0.98089 0.0
C797 C 0.7111 0.80836 0.01023 0.0
C798 C 0.73473 0.79033 0.98374 0.0
C799 C 0.7455 0.78595 0.01601 0.0
C800 C 0.74123 0.79294 0.0451 0.0
H801 H 0.84712 0.7213 0.08836 0.0
H802 H 0.81728 0.74067 0.08294 0.0
C803 C 0.72407 0.80401 0.04228 0.0
C804 C 0.76116 0.77409 0.01925 0.0
H805 H 0.70268 0.75043 0.06093 0.0
C806 C 0.82064 0.76985 -0.00037 0.0
C807 C 0.71783 0.76698 0.04146 0.0
C808 C 0.65174 0.77096 0.06205 0.0
C809 C 0.83867 0.75875 0.00212 0.0
C810 C 0.79535 0.75164 0.02434 0.0
C811 C 0.73584 0.75588 0.04394 0.0
C812 C 0.81113 0.73978 0.0277 0.0
C813 C 0.90482 0.75478 0.98156 0.0
C814 C 0.81599 0.73278 -0.00135 0.0
C815 C 0.83328 0.72172 0.00162 0.0
C816 C 0.84578 0.7174 0.0338 0.0
C817 C 0.8388 0.72438 0.0631 0.0
C818 C 0.82143 0.73544 0.06009 0.0
H819 H 0.94011 0.7617 0.97314 0.0
H820 H 0.9311 0.74895 -0.00285 0.0
H821 H 0.89374 0.75045 0.95781 0.0
H822 H 0.80697 0.73589 0.97354 0.0
H823 H 0.83877 0.71663 0.97844 0.0
H824 H 0.20642 0.71909 0.56633 0.0
H825 H 0.23749 0.73845 0.57008 0.0
H826 H 0.25133 0.74144 0.45834 0.0
H827 H 0.22011 0.72205 0.45435 0.0
H828 H 0.35176 0.74996 0.54071 0.0
H829 H 0.12021 0.76612 0.49299 0.0
H830 H 0.12756 0.75199 0.50594 0.0
H831 H 0.1683 0.75657 0.46384 0.0
C832 C 0.21691 0.72382 0.54246 0.0
C833 C 0.21056 0.71901 0.51002 0.0
C834 C 0.23426 0.73491 0.54469 0.0
C835 C 0.24543 0.74146 0.51459 0.0
C836 C 0.24119 0.73662 0.48203 0.0
H837 H 0.35527 0.81 0.47682 0.0
H838 H 0.32338 0.7907 0.47217 0.0
C839 C 0.22358 0.72553 0.47978 0.0
C840 C 0.26171 0.75332 0.5174 0.0
H841 H 0.20605 0.7791 0.50107 0.0
C842 C 0.31978 0.75633 0.53216 0.0
C843 C 0.2199 0.76164 0.50625 0.0
C844 C 0.15515 0.75896 0.49166 0.0
C845 C 0.33782 0.76741 0.53555 0.0
C846 C 0.29598 0.77572 0.52443 0.0
C847 C 0.23802 0.77272 0.50959 0.0
C848 C 0.31196 0.78757 0.52769 0.0
C849 C 0.40234 0.77011 0.55033 0.0
C850 C 0.31433 0.79232 0.56054 0.0
C851 C 0.33223 0.80338 0.56332 0.0
C852 C 0.34764 0.80995 0.5333 0.0
C853 C 0.34299 0.80524 0.50052 0.0
C854 C 0.32518 0.79418 0.49777 0.0
H855 H 0.4372 0.76294 0.54926 0.0
H856 H 0.43013 0.77704 0.53598 0.0
H857 H 0.38887 0.77257 0.57807 0.0
H858 H 0.30269 0.78745 0.58405 0.0
H859 H 0.33421 0.80678 0.589 0.0
H860 H 0.83501 0.31037 0.47292 0.0
H861 H 0.80275 0.29104 0.46997 0.0
H862 H 0.81708 0.28728 0.57933 0.0
H863 H 0.84755 0.3067 0.58277 0.0
H864 H 0.88096 0.27297 0.48443 0.0
H865 H 0.63135 0.27339 0.57112 0.0
H866 H 0.67281 0.28577 0.55317 0.0
H867 H 0.70078 0.27922 0.59015 0.0
C868 C 0.82984 0.30551 0.49656 0.0
C869 C 0.84353 0.31013 0.52815 0.0
C870 C 0.81197 0.29442 0.49473 0.0
C871 C 0.80684 0.28773 0.52448 0.0
C872 C 0.81965 0.29232 0.55615 0.0
H873 H 0.72098 0.21845 0.56413 0.0
H874 H 0.75352 0.23776 0.56756 0.0
C875 C 0.83768 0.30341 0.558 0.0
C876 C 0.79114 0.27583 0.52192 0.0
H877 H 0.67654 0.25591 0.55332 0.0
C878 C 0.8361 0.26925 0.49936 0.0
C879 C 0.73274 0.27098 0.54152 0.0
C880 C 0.68124 0.2777 0.56514 0.0
C881 C 0.82482 0.25791 0.49627 0.0
C882 C 0.76634 0.25305 0.51581 0.0
C883 C 0.72143 0.25964 0.53841 0.0
C884 C 0.75038 0.24118 0.51303 0.0
C885 C 0.8764 0.25119 0.47268 0.0
C886 C 0.73798 0.23665 0.48119 0.0
C887 C 0.71984 0.22558 0.47906 0.0
C888 C 0.71339 0.2188 0.5088 0.0
C889 C 0.72661 0.22335 0.54057 0.0
C890 C 0.74464 0.23443 0.54267 0.0
H891 H 0.92644 0.25547 0.46698 0.0
H892 H 0.88441 0.24308 0.48451 0.0
H893 H 0.85724 0.24975 0.44752 0.0
H894 H 0.741 0.24173 0.45808 0.0
H895 H 0.71036 0.22234 0.45416 0.0
H896 H 1.01993 0.40296 0.11704 0.0
H897 H 1.00239 0.40318 0.18091 0.0
H898 H 0.11206 0.37267 0.18192 0.0
H899 H 0.13035 0.37237 0.11818 0.0
H900 H 0.93529 0.38681 0.22606 0.0
H901 H 0.20482 0.39283 0.24674 0.0
H902 H 0.17602 0.3955 0.20541 0.0
H903 H 0.19128 0.38165 0.2182 0.0
C904 C 0.04078 0.39633 0.1308 0.0
C905 C 0.07675 0.38766 0.11245 0.0
C906 C 0.0306 0.39647 0.16729 0.0
C907 C 0.05666 0.38802 0.18606 0.0
C908 C 0.0926 0.37937 0.16788 0.0
H909 H 0.04406 0.37234 0.40517 0.0
H910 H 0.06238 0.37251 0.34132 0.0
C911 C 0.10269 0.3792 0.13143 0.0
C912 C 0.04419 0.38803 0.2247 0.0
H913 H 0.12475 0.38865 0.29681 0.0
C914 C 0.9766 0.38727 0.24159 0.0
C915 C 0.0983 0.38858 0.24477 0.0
C916 C 0.1717 0.38978 0.22795 0.0
C917 C 0.96168 0.38685 0.27813 0.0
C918 C 1.0158 0.38741 0.29823 0.0
C919 C 0.0834 0.38819 0.28131 0.0
C920 C 1.00343 0.38725 0.3369 0.0
C921 C 0.88828 0.38552 0.29483 0.0
C922 C 0.96471 0.39554 0.35555 0.0
C923 C 0.95392 0.39545 0.39202 0.0
C924 C 0.98221 0.38712 0.41052 0.0
C925 C 1.02142 0.37887 0.39174 0.0
C926 C 0.03203 0.37895 0.35525 0.0
H927 H 0.85574 0.38227 0.27606 0.0
H928 H 0.88416 0.37992 0.31764 0.0
H929 H 0.86775 0.39365 0.30406 0.0
H930 H 0.94343 0.40215 0.3419 0.0
H931 H 0.92392 0.40198 0.40565 0.0
H932 H 0.92137 0.6557 0.14306 0.0
H933 H 0.94699 0.65697 0.20291 0.0
H934 H 0.03652 0.62467 0.19342 0.0
H935 H 1.01178 0.62333 0.13365 0.0
H936 H 0.90724 0.64329 0.26114 0.0
H937 H 0.18882 0.64393 0.22369 0.0
H938 H 0.13051 0.6463 0.19271 0.0
H939 H 0.14745 0.63255 0.2059 0.0
C940 C 0.9461 0.64883 0.15375 0.0
C941 C 0.96486 0.63944 0.13343 0.0
C942 C 0.96084 0.64959 0.18793 0.0
C943 C 0.9949 0.64101 0.20229 0.0
C944 C 1.01161 0.63149 0.18252 0.0
H945 H 0.03162 0.62532 0.41444 0.0
H946 H 1.00853 0.62618 0.35437 0.0
C947 C 0.99691 0.63071 0.14842 0.0
C948 C 1.01267 0.64194 0.23803 0.0
H949 H 0.14721 0.64135 0.28414 0.0
C950 C 0.9597 0.64295 0.26618 0.0
C951 C 0.08125 0.64166 0.24446 0.0
C952 C 0.14039 0.64116 0.2151 0.0
C953 C 0.97337 0.64327 0.30072 0.0
C954 C 0.04169 0.64246 0.30721 0.0
C955 C 0.09485 0.64186 0.27904 0.0
C956 C 0.05854 0.64185 0.34316 0.0
C957 C 0.91461 0.64445 0.33005 0.0
C958 C 0.09626 0.65023 0.35639 0.0
C959 C 0.10976 0.64977 0.39086 0.0
C960 C 0.08626 0.64086 0.4125 0.0
C961 C 0.05036 0.63233 0.39864 0.0
C962 C 0.03669 0.63282 0.36433 0.0
H963 H 0.86814 0.64769 0.32062 0.0
H964 H 0.90198 0.63629 0.342 0.0
H965 H 0.92844 0.65002 0.35067 0.0
H966 H 0.11398 0.65723 0.34028 0.0
H967 H 0.13763 0.65648 0.40066 0.0
H968 H 0.04067 0.65613 0.91817 0.0
H969 H 0.05695 0.65676 0.85444 0.0
H970 H 0.94606 0.62631 0.85199 0.0
H971 H 0.92836 0.62569 0.91577 0.0
H972 H 0.12248 0.64213 0.8076 0.0
H973 H 0.85062 0.64598 0.7895 0.0
H974 H 0.87913 0.64797 0.83125 0.0
H975 H 0.86732 0.63433 0.81531 0.0
C976 C 1.01942 0.64958 0.90412 0.0
C977 C 0.98292 0.64088 0.92206 0.0
C978 C 0.02882 0.64996 0.86769 0.0
C979 C 1.00184 0.64167 0.84851 0.0
C980 C 0.96596 0.63292 0.86631 0.0
H981 H 0.12517 0.62697 0.62919 0.0
H982 H 0.10663 0.62705 0.69295 0.0
C983 C 0.95624 0.63255 0.90277 0.0
C984 C 1.01309 0.64205 0.80986 0.0
H985 H 0.93028 0.64244 0.7385 0.0
C986 C 0.08049 0.64224 0.79246 0.0
C987 C 0.95819 0.64234 0.79023 0.0
C988 C 0.88474 0.64275 0.80748 0.0
C989 C 0.09455 0.64255 0.7559 0.0
C990 C 0.03967 0.64243 0.73625 0.0
C991 C 0.97225 0.64242 0.75365 0.0
C992 C 0.05105 0.64239 0.69758 0.0
C993 C 0.16801 0.64318 0.73872 0.0
C994 C 1.02443 0.65084 0.67903 0.0
C995 C 0.03436 0.65077 0.64256 0.0
C996 C 0.07101 0.64222 0.62399 0.0
C997 C 0.09724 0.63372 0.64268 0.0
C998 C 0.087 0.63378 0.67914 0.0
H999 H 0.20201 0.64627 0.75702 0.0
H1000 H 0.18567 0.63485 0.73009 0.0
H1001 H 0.17351 0.64862 0.71547 0.0
H1002 H 0.99623 0.65753 0.6928 0.0
H1003 H 1.01339 0.65743 0.62897 0.0
H1004 H 0.92481 0.37206 0.63261 0.0
H1005 H 0.94683 0.37159 0.69321 0.0
H1006 H 0.03247 0.4042 0.68186 0.0
H1007 H 1.00992 0.40484 0.62171 0.0
H1008 H 0.07399 0.37348 0.71578 0.0
H1009 H 0.90006 0.40657 0.77267 0.0
H1010 H 0.89319 0.40031 0.73105 0.0
H1011 H 0.95679 0.41068 0.73436 0.0
C1012 C 0.94741 0.3792 0.64315 0.0
C1013 C 0.96536 0.3885 0.62227 0.0
C1014 C 0.96015 0.37889 0.67775 0.0
C1015 C 0.99053 0.38791 0.69216 0.0
C1016 C 1.00773 0.39724 0.67153 0.0
H1017 H 0.13554 0.40111 0.88973 0.0
H1018 H 0.11335 0.40161 0.82911 0.0
C1019 C 0.99506 0.39756 0.63701 0.0
C1020 C 1.00766 0.38737 0.72812 0.0
H1021 H 0.98121 0.40011 0.80752 0.0
C1022 C 0.05337 0.37925 0.73592 0.0
C1023 C 0.98099 0.39495 0.75427 0.0
C1024 C 0.92955 0.40356 0.74785 0.0
C1025 C 0.07398 0.37863 0.76905 0.0
C1026 C 0.04746 0.38623 0.79513 0.0
C1027 C 1.00178 0.39434 0.78736 0.0
C1028 C 0.06452 0.38567 0.83107 0.0
C1029 C 0.12491 0.36996 0.77569 0.0
C1030 C 0.04447 0.37653 0.85214 0.0
C1031 C 0.05695 0.37622 0.88668 0.0
C1032 C 0.08962 0.38506 0.9009 0.0
C1033 C 0.11066 0.39414 0.87954 0.0
C1034 C 0.09782 0.39446 0.84496 0.0
H1035 H 0.15319 0.36667 0.75096 0.0
H1036 H 0.1623 0.3733 0.79177 0.0
H1037 H 0.09743 0.36304 0.79017 0.0
H1038 H 1.0177 0.36974 0.84211 0.0
H1039 H 0.03991 0.36911 0.90239 0.0
H1040 H 0.62777 0.90017 0.13 0.0
H1041 H 0.60996 0.89979 0.19375 0.0
H1042 H 0.50037 0.86917 0.1924 0.0
H1043 H 0.51676 0.86958 0.12859 0.0
H1044 H 0.43424 0.88391 0.23878 0.0
H1045 H 0.70619 0.88055 0.25698 0.0
H1046 H 0.68937 0.89206 0.2306 0.0
H1047 H 0.67775 0.87833 0.21532 0.0
C1048 C 0.60018 0.89332 0.14322 0.0
C1049 C 0.5739 0.88488 0.1242 0.0
C1050 C 0.59039 0.89309 0.17968 0.0
C1051 C 0.55487 0.88436 0.19778 0.0
C1052 C 0.52826 0.87596 0.1789 0.0
H1053 H 0.54545 0.87067 0.41873 0.0
H1054 H 0.56204 0.8699 0.35497 0.0
C1055 C 0.53773 0.8762 0.14244 0.0
C1056 C 0.54365 0.88416 0.23645 0.0
H1057 H 0.62665 0.88454 0.30774 0.0
C1058 C 0.47628 0.88399 0.25389 0.0
C1059 C 0.5986 0.88411 0.25607 0.0
C1060 C 0.67205 0.88366 0.23882 0.0
C1061 C 0.4623 0.88399 0.29047 0.0
C1062 C 0.51723 0.88439 0.31007 0.0
C1063 C 0.58461 0.88434 0.29264 0.0
C1064 C 0.50599 0.88483 0.34872 0.0
C1065 C 0.3889 0.88339 0.30775 0.0
C1066 C 0.46955 0.89354 0.36634 0.0
C1067 C 0.45965 0.89398 0.40278 0.0
C1068 C 0.48673 0.88577 0.42226 0.0
C1069 C 0.52387 0.87712 0.40452 0.0
C1070 C 0.53344 0.87666 0.36808 0.0
H1071 H 0.35506 0.88002 0.28979 0.0
H1072 H 0.38369 0.87821 0.33157 0.0
H1073 H 0.37079 0.89178 0.31545 0.0
H1074 H 0.44932 0.90006 0.35189 0.0
H1075 H 0.4313 0.9008 0.41562 0.0
H1076 H 0.42717 0.15624 0.14431 0.0
H1077 H 0.45306 0.15726 0.20415 0.0
H1078 H 0.53565 0.12449 0.19459 0.0
H1079 H 0.5107 0.1234 0.13482 0.0
H1080 H 0.41059 0.1438 0.26238 0.0
H1081 H 0.69207 0.14273 0.2248 0.0
H1082 H 0.63432 0.14544 0.19379 0.0
H1083 H 0.64802 0.13159 0.20725 0.0
C1084 C 0.45043 0.14921 0.15498 0.0
C1085 C 0.46722 0.13976 0.13463 0.0
C1086 C 0.46533 0.14983 0.18916 0.0
C1087 C 0.49756 0.14104 0.2035 0.0
C1088 C 0.51223 0.13146 0.18371 0.0
H1089 H 0.53245 0.12516 0.41592 0.0
H1090 H 0.50942 0.12606 0.35583 0.0
C1091 C 0.49743 0.13084 0.1496 0.0
C1092 C 0.51558 0.14182 0.23924 0.0
H1093 H 0.65 0.14042 0.28529 0.0
C1094 C 0.46294 0.14314 0.2674 0.0
C1095 C 0.58407 0.14111 0.24564 0.0
C1096 C 0.64301 0.14024 0.21628 0.0
C1097 C 0.47676 0.14338 0.30192 0.0
C1098 C 0.54487 0.14218 0.30838 0.0
C1099 C 0.59778 0.14124 0.28021 0.0
C1100 C 0.56167 0.14153 0.34432 0.0
C1101 C 0.41842 0.14491 0.33128 0.0
C1102 C 0.60053 0.14979 0.35739 0.0
C1103 C 0.61396 0.14932 0.39187 0.0
C1104 C 0.58924 0.14051 0.41368 0.0
C1105 C 0.55218 0.13209 0.39998 0.0
C1106 C 0.53856 0.1326 0.36567 0.0
H1107 H 0.37239 0.1483 0.3218 0.0
H1108 H 0.40454 0.13685 0.34367 0.0
H1109 H 0.4334 0.15049 0.35157 0.0
H1110 H 0.61921 0.15671 0.34115 0.0
H1111 H 0.64273 0.15593 0.40155 0.0
H1112 H 0.54012 0.15663 0.91922 0.0
H1113 H 0.55679 0.15717 0.85547 0.0
H1114 H 0.44657 0.12664 0.85329 0.0
H1115 H 0.42849 0.12612 0.91708 0.0
H1116 H 0.62294 0.14245 0.80897 0.0
H1117 H 0.35134 0.14618 0.79026 0.0
H1118 H 0.37953 0.14828 0.83204 0.0
H1119 H 0.36792 0.1346 0.81638 0.0
C1120 C 0.51908 0.15005 0.90522 0.0
C1121 C 0.48268 0.14135 0.92324 0.0
C1122 C 0.52871 0.15038 0.86878 0.0
C1123 C 0.50206 0.14204 0.84968 0.0
C1124 C 0.46623 0.13329 0.86755 0.0
H1125 H 0.62672 0.1269 0.63076 0.0
H1126 H 0.60788 0.12711 0.69452 0.0
C1127 C 0.45629 0.13298 0.90402 0.0
C1128 C 0.51359 0.14234 0.81102 0.0
H1129 H 0.43135 0.14257 0.73946 0.0
C1130 C 0.58108 0.14252 0.79374 0.0
C1131 C 0.45887 0.14258 0.79127 0.0
C1132 C 0.38533 0.14301 0.80839 0.0
C1133 C 0.5954 0.14276 0.75718 0.0
C1134 C 0.54069 0.14258 0.73742 0.0
C1135 C 0.47319 0.14259 0.7547 0.0
C1136 C 0.55234 0.14246 0.69876 0.0
C1137 C 0.66894 0.14336 0.74011 0.0
C1138 C 0.52587 0.15087 0.67998 0.0
C1139 C 0.53598 0.15073 0.64351 0.0
C1140 C 0.57265 0.14214 0.62516 0.0
C1141 C 0.59875 0.13368 0.64407 0.0
C1142 C 0.58835 0.13382 0.68054 0.0
H1143 H 0.7028 0.14649 0.75843 0.0
H1144 H 0.68664 0.13502 0.73166 0.0
H1145 H 0.67459 0.14876 0.71676 0.0
H1146 H 0.49763 0.15759 0.69357 0.0
H1147 H 0.5151 0.15736 0.62975 0.0
H1148 H 0.52466 0.90335 0.63186 0.0
H1149 H 0.54822 0.90214 0.69185 0.0
H1150 H 0.43648 0.87164 0.70557 0.0
H1151 H 0.41233 0.87276 0.64539 0.0
H1152 H 0.40692 0.88722 0.76202 0.0
H1153 H 0.68486 0.87989 0.72475 0.0
H1154 H 0.65269 0.89162 0.70423 0.0
H1155 H 0.62411 0.87809 0.69463 0.0
C1156 C 0.50457 0.8964 0.64761 0.0
C1157 C 0.46678 0.88812 0.63371 0.0
C1158 C 0.51856 0.8957 0.68185 0.0
C1159 C 0.49512 0.88671 0.70288 0.0
C1160 C 0.45546 0.8786 0.68959 0.0
H1161 H 0.62916 0.87044 0.90216 0.0
H1162 H 0.60395 0.86982 0.8421 0.0
C1163 C 0.44165 0.87927 0.65523 0.0
C1164 C 0.51218 0.88583 0.73874 0.0
H1165 H 0.64658 0.8839 0.78458 0.0
C1166 C 0.45922 0.88642 0.76701 0.0
C1167 C 0.58039 0.88462 0.74508 0.0
C1168 C 0.63885 0.88342 0.71561 0.0
C1169 C 0.47293 0.88621 0.80156 0.0
C1170 C 0.54145 0.88552 0.80789 0.0
C1171 C 0.59419 0.88454 0.77963 0.0
C1172 C 0.55934 0.88605 0.84369 0.0
C1173 C 0.41394 0.88672 0.83101 0.0
C1174 C 0.54437 0.89549 0.86407 0.0
C1175 C 0.55881 0.89589 0.89827 0.0
C1176 C 0.58888 0.88686 0.91277 0.0
C1177 C 0.60597 0.87754 0.89186 0.0
C1178 C 0.59148 0.87715 0.85756 0.0
H1179 H 0.36504 0.88428 0.82223 0.0
H1180 H 0.423 0.8813 0.85292 0.0
H1181 H 0.40838 0.89526 0.84097 0.0
H1182 H 0.52096 0.90253 0.85358 0.0
H1183 H 0.54532 0.90324 0.91347 0.0
loop_
_geom_bond_atom_site_label_1
_geom_bond_atom_site_label_2
_geom_bond_distance
_geom_bond_site_symmetry_2
_ccdc_geom_bond_type
Tb0 C9 2.764 . S
Tb0 O10 2.325 . S
Tb0 O13 2.303 . S
Tb0 O17 2.322 1_455 S
Tb0 O18 2.349 1_554 S
Tb0 O21 2.415 . S
Tb0 O22 2.399 1_554 S
Tb1 O11 2.322 . S
Tb1 O12 2.349 . S
Tb1 O14 2.415 1_554 S
Tb1 O15 2.399 . S
Tb1 O16 2.325 1_455 S
Tb1 O19 2.303 1_554 S
Tb1 C30 2.764 . S
C2 O18 1.261 . S
C2 O19 1.257 . S
C3 C6 1.358 . S
C3 C7 1.332 . S
C3 C9 1.504 . S
C4 C5 1.373 . S
C4 C8 1.308 . S
C5 C4 1.373 . S
C5 C6 1.429 . S
C5 H32 0.932 1_554 S
C6 C3 1.358 . S
C6 C5 1.429 . S
C6 H33 0.930 1_554 S
C7 C3 1.332 . S
C7 C8 1.394 . S
C7 H34 0.932 . S
C8 C4 1.308 . S
C8 C7 1.394 . S
C8 H35 0.929 . S
C9 Tb0 2.764 . S
C9 C3 1.504 . S
C9 O21 1.239 . S
C9 O22 1.263 1_554 S
O10 Tb0 2.325 . S
O10 C20 1.236 . S
O11 Tb1 2.322 . S
O11 C20 1.257 . S
O12 Tb1 2.349 . S
O12 C23 1.261 . S
O13 Tb0 2.303 . S
O13 C23 1.257 . S
O14 Tb1 2.415 1_556 S
O14 C30 1.239 1_556 S
O15 Tb1 2.399 . S
O15 C30 1.263 . S
O16 Tb1 2.325 1_655 S
O16 C31 1.236 . S
O17 Tb0 2.322 1_655 S
O17 C31 1.257 . S
O18 Tb0 2.349 1_556 S
O18 C2 1.261 . S
O19 Tb1 2.303 1_556 S
O19 C2 1.257 . S
C20 O10 1.236 . S
C20 O11 1.257 . S
O21 Tb0 2.415 . S
O21 C9 1.239 . S
O22 Tb0 2.399 1_556 S
O22 C9 1.263 1_556 S
C23 O12 1.261 . S
C23 O13 1.257 . S
C24 C27 1.358 . S
C24 C28 1.332 1_554 S
C24 C30 1.504 1_655 S
C25 C26 1.373 . S
C25 C29 1.308 1_554 S
C26 C25 1.373 . S
C26 C27 1.429 . S
C26 H36 0.932 . S
C27 C24 1.358 . S
C27 C26 1.429 . S
C27 H37 0.930 . S
C28 C24 1.332 1_556 S
C28 C29 1.394 . S
C28 H38 0.932 . S
C29 C25 1.308 1_556 S
C29 C28 1.394 . S
C29 H39 0.929 . S
C30 Tb1 2.764 . S
C30 O14 1.239 1_554 S
C30 O15 1.263 . S
C30 C24 1.504 1_455 S
C31 O16 1.236 . S
C31 O17 1.257 . S
H32 C5 0.932 1_556 S
H33 C6 0.930 1_556 S
H34 C7 0.932 . S
H35 C8 0.929 . S
H36 C26 0.932 . S
H37 C27 0.930 . S
H38 C28 0.932 . S
H39 C29 0.929 . S
Tb40 C49 2.764 . S
Tb40 O50 2.325 1_655 S
Tb40 O53 2.303 . S
Tb40 O57 2.322 . S
Tb40 O58 2.349 1_554 S
Tb40 O61 2.415 . S
Tb40 O62 2.399 1_554 S
Tb41 O51 2.322 1_655 S
Tb41 O52 2.349 . S
Tb41 O54 2.415 1_554 S
Tb41 O55 2.399 . S
Tb41 O56 2.325 . S
Tb41 O59 2.303 1_554 S
Tb41 C70 2.764 . S
C42 O58 1.261 . S
C42 O59 1.257 . S
C43 C46 1.358 . S
C43 C47 1.332 . S
C43 C49 1.504 1_455 S
C44 C45 1.373 . S
C44 C48 1.308 . S
C45 C44 1.373 . S
C45 C46 1.429 . S
C45 H72 0.932 1_554 S
C46 C43 1.358 . S
C46 C45 1.429 . S
C46 H73 0.930 1_554 S
C47 C43 1.332 . S
C47 C48 1.394 . S
C47 H74 0.932 . S
C48 C44 1.308 . S
C48 C47 1.394 . S
C48 H75 0.929 . S
C49 Tb40 2.764 . S
C49 C43 1.504 1_655 S
C49 O61 1.239 . S
C49 O62 1.263 1_554 S
O50 Tb40 2.325 1_455 S
O50 C60 1.236 . S
O51 Tb41 2.322 1_455 S
O51 C60 1.257 . S
O52 Tb41 2.349 . S
O52 C63 1.261 . S
O53 Tb40 2.303 . S
O53 C63 1.257 . S
O54 Tb41 2.415 1_556 S
O54 C70 1.239 1_556 S
O55 Tb41 2.399 . S
O55 C70 1.263 . S
O56 Tb41 2.325 . S
O56 C71 1.236 . S
O57 Tb40 2.322 . S
O57 C71 1.257 . S
O58 Tb40 2.349 1_556 S
O58 C42 1.261 . S
O59 Tb41 2.303 1_556 S
O59 C42 1.257 . S
C60 O50 1.236 . S
C60 O51 1.257 . S
O61 Tb40 2.415 . S
O61 C49 1.239 . S
O62 Tb40 2.399 1_556 S
O62 C49 1.263 1_556 S
C63 O52 1.261 . S
C63 O53 1.257 . S
C64 C67 1.358 . S
C64 C68 1.332 1_554 S
C64 C70 1.504 . S
C65 C66 1.373 . S
C65 C69 1.308 1_554 S
C66 C65 1.373 . S
C66 C67 1.429 . S
C66 H76 0.932 . S
C67 C64 1.358 . S
C67 C66 1.429 . S
C67 H77 0.930 . S
C68 C64 1.332 1_556 S
C68 C69 1.394 . S
C68 H78 0.932 . S
C69 C65 1.308 1_556 S
C69 C68 1.394 . S
C69 H79 0.929 . S
C70 Tb41 2.764 . S
C70 O54 1.239 1_554 S
C70 O55 1.263 . S
C70 C64 1.504 . S
C71 O56 1.236 . S
C71 O57 1.257 . S
H72 C45 0.932 1_556 S
H73 C46 0.930 1_556 S
H74 C47 0.932 . S
H75 C48 0.929 . S
H76 C66 0.932 . S
H77 C67 0.930 . S
H78 C68 0.932 . S
H79 C69 0.929 . S
Tb80 C89 2.764 . S
Tb80 O90 2.325 1_455 S
Tb80 O93 2.303 . S
Tb80 O97 2.322 . S
Tb80 O98 2.349 . S
Tb80 O101 2.415 . S
Tb80 O102 2.399 . S
Tb81 O91 2.322 1_455 S
Tb81 O92 2.349 . S
Tb81 O94 2.415 . S
Tb81 O95 2.399 . S
Tb81 O96 2.325 . S
Tb81 O99 2.303 . S
Tb81 C110 2.764 . S
C82 O98 1.261 . S
C82 O99 1.257 . S
C83 C86 1.358 . S
C83 C87 1.332 . S
C83 C89 1.504 1_655 S
C84 C85 1.373 . S
C84 C88 1.308 . S
C85 C84 1.373 . S
C85 C86 1.429 . S
C85 H112 0.932 . S
C86 C83 1.358 . S
C86 C85 1.429 . S
C86 H113 0.930 . S
C87 C83 1.332 . S
C87 C88 1.394 . S
C87 H114 0.932 . S
C88 C84 1.308 . S
C88 C87 1.394 . S
C88 H115 0.929 . S
C89 Tb80 2.764 . S
C89 C83 1.504 1_455 S
C89 O101 1.239 . S
C89 O102 1.263 . S
O90 Tb80 2.325 1_655 S
O90 C100 1.236 . S
O91 Tb81 2.322 1_655 S
O91 C100 1.257 . S
O92 Tb81 2.349 . S
O92 C103 1.261 . S
O93 Tb80 2.303 . S
O93 C103 1.257 . S
O94 Tb81 2.415 . S
O94 C110 1.239 . S
O95 Tb81 2.399 . S
O95 C110 1.263 . S
O96 Tb81 2.325 . S
O96 C111 1.236 . S
O97 Tb80 2.322 . S
O97 C111 1.257 . S
O98 Tb80 2.349 . S
O98 C82 1.261 . S
O99 Tb81 2.303 . S
O99 C82 1.257 . S
C100 O90 1.236 . S
C100 O91 1.257 . S
O101 Tb80 2.415 . S
O101 C89 1.239 . S
O102 Tb80 2.399 . S
O102 C89 1.263 . S
C103 O92 1.261 . S
C103 O93 1.257 . S
C104 C107 1.358 . S
C104 C108 1.332 . S
C104 C110 1.504 . S
C105 C106 1.373 . S
C105 C109 1.308 . S
C106 C105 1.373 . S
C106 C107 1.429 . S
C106 H116 0.932 . S
C107 C104 1.358 . S
C107 C106 1.429 . S
C107 H117 0.930 . S
C108 C104 1.332 . S
C108 C109 1.394 . S
C108 H118 0.932 . S
C109 C105 1.308 . S
C109 C108 1.394 . S
C109 H119 0.929 . S
C110 Tb81 2.764 . S
C110 O94 1.239 . S
C110 O95 1.263 . S
C110 C104 1.504 . S
C111 O96 1.236 . S
C111 O97 1.257 . S
H112 C85 0.932 . S
H113 C86 0.930 . S
H114 C87 0.932 . S
H115 C88 0.929 . S
H116 C106 0.932 . S
H117 C107 0.930 . S
H118 C108 0.932 . S
H119 C109 0.929 . S
Tb120 C129 2.764 . S
Tb120 O130 2.325 . S
Tb120 O133 2.303 . S
Tb120 O137 2.322 1_655 S
Tb120 O138 2.349 . S
Tb120 O141 2.415 . S
Tb120 O142 2.399 . S
Tb121 O131 2.322 . S
Tb121 O132 2.349 . S
Tb121 O134 2.415 . S
Tb121 O135 2.399 . S
Tb121 O136 2.325 1_655 S
Tb121 O139 2.303 . S
Tb121 C150 2.764 . S
C122 O138 1.261 . S
C122 O139 1.257 . S
C123 C126 1.358 . S
C123 C127 1.332 . S
C123 C129 1.504 . S
C124 C125 1.373 . S
C124 C128 1.308 . S
C125 C124 1.373 . S
C125 C126 1.429 . S
C125 H152 0.932 . S
C126 C123 1.358 . S
C126 C125 1.429 . S
C126 H153 0.930 . S
C127 C123 1.332 . S
C127 C128 1.394 . S
C127 H154 0.932 . S
C128 C124 1.308 . S
C128 C127 1.394 . S
C128 H155 0.929 . S
C129 Tb120 2.764 . S
C129 C123 1.504 . S
C129 O141 1.239 . S
C129 O142 1.263 . S
O130 Tb120 2.325 . S
O130 C140 1.236 . S
O131 Tb121 2.322 . S
O131 C140 1.257 . S
O132 Tb121 2.349 . S
O132 C143 1.261 . S
O133 Tb120 2.303 . S
O133 C143 1.257 . S
O134 Tb121 2.415 . S
O134 C150 1.239 . S
O135 Tb121 2.399 . S
O135 C150 1.263 . S
O136 Tb121 2.325 1_455 S
O136 C151 1.236 . S
O137 Tb120 2.322 1_455 S
O137 C151 1.257 . S
O138 Tb120 2.349 . S
O138 C122 1.261 . S
O139 Tb121 2.303 . S
O139 C122 1.257 . S
C140 O130 1.236 . S
C140 O131 1.257 . S
O141 Tb120 2.415 . S
O141 C129 1.239 . S
O142 Tb120 2.399 . S
O142 C129 1.263 . S
C143 O132 1.261 . S
C143 O133 1.257 . S
C144 C147 1.358 . S
C144 C148 1.332 . S
C144 C150 1.504 1_455 S
C145 C146 1.373 . S
C145 C149 1.308 . S
C146 C145 1.373 . S
C146 C147 1.429 . S
C146 H156 0.932 . S
C147 C144 1.358 . S
C147 C146 1.429 . S
C147 H157 0.930 . S
C148 C144 1.332 . S
C148 C149 1.394 . S
C148 H158 0.932 . S
C149 C145 1.308 . S
C149 C148 1.394 . S
C149 H159 0.929 . S
C150 Tb121 2.764 . S
C150 O134 1.239 . S
C150 O135 1.263 . S
C150 C144 1.504 1_655 S
C151 O136 1.236 . S
C151 O137 1.257 . S
H152 C125 0.932 . S
H153 C126 0.930 . S
H154 C127 0.932 . S
H155 C128 0.929 . S
H156 C146 0.932 . S
H157 C147 0.930 . S
H158 C148 0.932 . S
H159 C149 0.929 . S
Tb160 C169 2.764 . S
Tb160 O170 2.325 . S
Tb160 O173 2.303 . S
Tb160 O177 2.322 . S
Tb160 O178 2.349 1_554 S
Tb160 O181 2.415 . S
Tb160 O182 2.399 1_554 S
Tb161 O171 2.322 . S
Tb161 O172 2.349 . S
Tb161 O174 2.415 1_554 S
Tb161 O175 2.399 . S
Tb161 O176 2.325 . S
Tb161 O179 2.303 1_554 S
Tb161 C190 2.764 . S
C162 O178 1.261 . S
C162 O179 1.257 . S
C163 C166 1.358 . S
C163 C167 1.332 . S
C163 C169 1.504 . S
C164 C165 1.373 . S
C164 C168 1.308 . S
C165 C164 1.373 . S
C165 C166 1.429 . S
C165 H192 0.932 1_554 S
C166 C163 1.358 . S
C166 C165 1.429 . S
C166 H193 0.930 1_554 S
C167 C163 1.332 . S
C167 C168 1.394 . S
C167 H194 0.932 . S
C168 C164 1.308 . S
C168 C167 1.394 . S
C168 H195 0.929 . S
C169 Tb160 2.764 . S
C169 C163 1.504 . S
C169 O181 1.239 . S
C169 O182 1.263 1_554 S
O170 Tb160 2.325 . S
O170 C180 1.236 . S
O171 Tb161 2.322 . S
O171 C180 1.257 . S
O172 Tb161 2.349 . S
O172 C183 1.261 . S
O173 Tb160 2.303 . S
O173 C183 1.257 . S
O174 Tb161 2.415 1_556 S
O174 C190 1.239 1_556 S
O175 Tb161 2.399 . S
O175 C190 1.263 . S
O176 Tb161 2.325 . S
O176 C191 1.236 . S
O177 Tb160 2.322 . S
O177 C191 1.257 . S
O178 Tb160 2.349 1_556 S
O178 C162 1.261 . S
O179 Tb161 2.303 1_556 S
O179 C162 1.257 . S
C180 O170 1.236 . S
C180 O171 1.257 . S
O181 Tb160 2.415 . S
O181 C169 1.239 . S
O182 Tb160 2.399 1_556 S
O182 C169 1.263 1_556 S
C183 O172 1.261 . S
C183 O173 1.257 . S
C184 C187 1.358 . S
C184 C188 1.332 1_554 S
C184 C190 1.504 . S
C185 C186 1.373 . S
C185 C189 1.308 1_554 S
C186 C185 1.373 . S
C186 C187 1.429 . S
C186 H196 0.932 . S
C187 C184 1.358 . S
C187 C186 1.429 . S
C187 H197 0.930 . S
C188 C184 1.332 1_556 S
C188 C189 1.394 . S
C188 H198 0.932 . S
C189 C185 1.308 1_556 S
C189 C188 1.394 . S
C189 H199 0.929 . S
C190 Tb161 2.764 . S
C190 O174 1.239 1_554 S
C190 O175 1.263 . S
C190 C184 1.504 . S
C191 O176 1.236 . S
C191 O177 1.257 . S
H192 C165 0.932 1_556 S
H193 C166 0.930 1_556 S
H194 C167 0.932 . S
H195 C168 0.929 . S
H196 C186 0.932 . S
H197 C187 0.930 . S
H198 C188 0.932 . S
H199 C189 0.929 . S
Tb200 C209 2.764 . S
Tb200 O210 2.325 . S
Tb200 O213 2.303 . S
Tb200 O217 2.322 . S
Tb200 O218 2.349 1_554 S
Tb200 O221 2.415 . S
Tb200 O222 2.389 1_554 S
Tb201 O211 2.322 . S
Tb201 O212 2.349 . S
Tb201 O214 2.413 . S
Tb201 O215 2.399 . S
Tb201 O216 2.325 . S
Tb201 O219 2.303 1_554 S
Tb201 C230 2.764 . S
C202 O218 1.261 . S
C202 O219 1.257 . S
C203 C206 1.358 . S
C203 C207 1.332 . S
C203 C209 1.504 . S
C204 C205 1.373 . S
C204 C208 1.308 . S
C205 C204 1.373 . S
C205 C206 1.429 . S
C205 H232 0.932 1_554 S
C206 C203 1.358 . S
C206 C205 1.429 . S
C206 H233 0.930 1_554 S
C207 C203 1.332 . S
C207 C208 1.394 . S
C207 H234 0.932 . S
C208 C204 1.308 . S
C208 C207 1.394 . S
C208 H235 0.929 . S
C209 Tb200 2.764 . S
C209 C203 1.504 . S
C209 O221 1.239 . S
C209 O222 1.232 1_554 S
O210 Tb200 2.325 . S
O210 C220 1.236 . S
O211 Tb201 2.322 . S
O211 C220 1.257 . S
O212 Tb201 2.349 . S
O212 C223 1.261 . S
O213 Tb200 2.303 . S
O213 C223 1.257 . S
O214 Tb201 2.413 . S
O214 C230 1.236 . S
O215 Tb201 2.399 . S
O215 C230 1.263 . S
O216 Tb201 2.325 . S
O216 C231 1.236 . S
O217 Tb200 2.322 . S
O217 C231 1.257 . S
O218 Tb200 2.349 1_556 S
O218 C202 1.261 . S
O219 Tb201 2.303 1_556 S
O219 C202 1.257 . S
C220 O210 1.236 . S
C220 O211 1.257 . S
O221 Tb200 2.415 . S
O221 C209 1.239 . S
O222 Tb200 2.389 1_556 S
O222 C209 1.232 1_556 S
C223 O212 1.261 . S
C223 O213 1.257 . S
C224 C227 1.358 . S
C224 C228 1.332 1_554 S
C224 C230 1.504 . S
C225 C226 1.373 . S
C225 C229 1.308 1_554 S
C226 C225 1.373 . S
C226 C227 1.429 . S
C226 H236 0.932 . S
C227 C224 1.358 . S
C227 C226 1.429 . S
C227 H237 0.930 . S
C228 C224 1.332 1_556 S
C228 C229 1.394 . S
C228 H238 0.932 . S
C229 C225 1.308 1_556 S
C229 C228 1.394 . S
C229 H239 0.929 . S
C230 Tb201 2.764 . S
C230 O214 1.236 . S
C230 O215 1.263 . S
C230 C224 1.504 . S
C231 O216 1.236 . S
C231 O217 1.257 . S
H232 C205 0.932 1_556 S
H233 C206 0.930 1_556 S
H234 C207 0.932 . S
H235 C208 0.929 . S
H236 C226 0.932 . S
H237 C227 0.930 . S
H238 C228 0.932 . S
H239 C229 0.929 . S
Tb240 C249 2.764 . S
Tb240 O250 2.325 . S
Tb240 O253 2.303 . S
Tb240 O257 2.322 . S
Tb240 O258 2.349 . S
Tb240 O261 2.415 . S
Tb240 O262 2.399 . S
Tb241 O251 2.322 . S
Tb241 O252 2.349 . S
Tb241 O254 2.415 . S
Tb241 O255 2.399 . S
Tb241 O256 2.325 . S
Tb241 O259 2.303 . S
Tb241 C270 2.764 . S
C242 O258 1.261 . S
C242 O259 1.257 . S
C243 C246 1.358 . S
C243 C247 1.332 . S
C243 C249 1.504 . S
C244 C245 1.373 . S
C244 C248 1.308 . S
C245 C244 1.373 . S
C245 C246 1.429 . S
C245 H272 0.932 . S
C246 C243 1.358 . S
C246 C245 1.429 . S
C246 H273 0.930 . S
C247 C243 1.332 . S
C247 C248 1.394 . S
C247 H274 0.932 . S
C248 C244 1.308 . S
C248 C247 1.394 . S
C248 H275 0.929 . S
C249 Tb240 2.764 . S
C249 C243 1.504 . S
C249 O261 1.239 . S
C249 O262 1.263 . S
O250 Tb240 2.325 . S
O250 C260 1.236 . S
O251 Tb241 2.322 . S
O251 C260 1.257 . S
O252 Tb241 2.349 . S
O252 C263 1.261 . S
O253 Tb240 2.303 . S
O253 C263 1.257 . S
O254 Tb241 2.415 . S
O254 C270 1.239 . S
O255 Tb241 2.399 . S
O255 C270 1.263 . S
O256 Tb241 2.325 . S
O256 C271 1.236 . S
O257 Tb240 2.322 . S
O257 C271 1.257 . S
O258 Tb240 2.349 . S
O258 C242 1.261 . S
O259 Tb241 2.303 . S
O259 C242 1.257 . S
C260 O250 1.236 . S
C260 O251 1.257 . S
O261 Tb240 2.415 . S
O261 C249 1.239 . S
O262 Tb240 2.399 . S
O262 C249 1.263 . S
C263 O252 1.261 . S
C263 O253 1.257 . S
C264 C267 1.358 . S
C264 C268 1.332 . S
C264 C270 1.504 . S
C265 C266 1.373 . S
C265 C269 1.308 . S
C266 C265 1.373 . S
C266 C267 1.429 . S
C266 H276 0.932 . S
C267 C264 1.358 . S
C267 C266 1.429 . S
C267 H277 0.930 . S
C268 C264 1.332 . S
C268 C269 1.394 . S
C268 H278 0.932 . S
C269 C265 1.308 . S
C269 C268 1.394 . S
C269 H279 0.929 . S
C270 Tb241 2.764 . S
C270 O254 1.239 . S
C270 O255 1.263 . S
C270 C264 1.504 . S
C271 O256 1.236 . S
C271 O257 1.257 . S
H272 C245 0.932 . S
H273 C246 0.930 . S
H274 C247 0.932 . S
H275 C248 0.929 . S
H276 C266 0.932 . S
H277 C267 0.930 . S
H278 C268 0.932 . S
H279 C269 0.929 . S
Tb280 C289 2.764 . S
Tb280 O290 2.325 . S
Tb280 O293 2.303 . S
Tb280 O297 2.322 . S
Tb280 O298 2.349 . S
Tb280 O301 2.415 . S
Tb280 O302 2.399 . S
Tb281 O291 2.322 . S
Tb281 O292 2.349 . S
Tb281 O294 2.415 . S
Tb281 O295 2.399 . S
Tb281 O296 2.325 . S
Tb281 O299 2.303 . S
Tb281 C310 2.764 . S
C282 O298 1.261 . S
C282 O299 1.257 . S
C283 C286 1.358 . S
C283 C287 1.332 . S
C283 C289 1.504 . S
C284 C285 1.373 . S
C284 C288 1.308 . S
C285 C284 1.373 . S
C285 C286 1.429 . S
C285 H312 0.932 . S
C286 C283 1.358 . S
C286 C285 1.429 . S
C286 H313 0.930 . S
C287 C283 1.332 . S
C287 C288 1.394 . S
C287 H314 0.932 . S
C288 C284 1.308 . S
C288 C287 1.394 . S
C288 H315 0.929 . S
C289 Tb280 2.764 . S
C289 C283 1.504 . S
C289 O301 1.239 . S
C289 O302 1.263 . S
O290 Tb280 2.325 . S
O290 C300 1.236 . S
O291 Tb281 2.322 . S
O291 C300 1.257 . S
O292 Tb281 2.349 . S
O292 C303 1.261 . S
O293 Tb280 2.303 . S
O293 C303 1.257 . S
O294 Tb281 2.415 . S
O294 C310 1.239 . S
O295 Tb281 2.399 . S
O295 C310 1.263 . S
O296 Tb281 2.325 . S
O296 C311 1.236 . S
O297 Tb280 2.322 . S
O297 C311 1.257 . S
O298 Tb280 2.349 . S
O298 C282 1.261 . S
O299 Tb281 2.303 . S
O299 C282 1.257 . S
C300 O290 1.236 . S
C300 O291 1.257 . S
O301 Tb280 2.415 . S
O301 C289 1.239 . S
O302 Tb280 2.399 . S
O302 C289 1.263 . S
C303 O292 1.261 . S
C303 O293 1.257 . S
C304 C307 1.358 . S
C304 C308 1.332 . S
C304 C310 1.504 . S
C305 C306 1.373 . S
C305 C309 1.308 . S
C306 C305 1.373 . S
C306 C307 1.429 . S
C306 H316 0.932 . S
C307 C304 1.358 . S
C307 C306 1.429 . S
C307 H317 0.930 . S
C308 C304 1.332 . S
C308 C309 1.394 . S
C308 H318 0.932 . S
C309 C305 1.308 . S
C309 C308 1.394 . S
C309 H319 0.929 . S
C310 Tb281 2.764 . S
C310 O294 1.239 . S
C310 O295 1.263 . S
C310 C304 1.504 . S
C311 O296 1.236 . S
C311 O297 1.257 . S
H312 C285 0.932 . S
H313 C286 0.930 . S
H314 C287 0.932 . S
H315 C288 0.929 . S
H316 C306 0.932 . S
H317 C307 0.930 . S
H318 C308 0.932 . S
H319 C309 0.929 . S
H320 C328 0.929 . S
H321 C330 0.930 . S
H322 C332 0.930 1_556 S
H323 C335 0.929 1_556 S
H324 C338 0.930 . S
H325 C340 0.960 . S
H326 C340 0.960 . S
H327 C340 0.960 . S
C328 H320 0.929 . S
C328 C329 1.377 . S
C328 C330 1.384 . S
C329 C328 1.377 . S
C329 C335 1.390 . S
C330 H321 0.930 . S
C330 C328 1.384 . S
C330 C331 1.372 . S
C331 C330 1.372 . S
C331 C332 1.400 . S
C331 C336 1.490 . S
C332 H322 0.930 1_554 S
C332 C331 1.400 . S
C332 C335 1.386 . S
H333 C349 0.930 . S
H334 C350 0.931 . S
C335 H323 0.929 1_554 S
C335 C329 1.390 . S
C335 C332 1.386 . S
C336 C331 1.490 . S
C336 C338 1.395 . S
C336 C339 1.403 1_554 S
H337 C343 0.930 . S
C338 H324 0.930 . S
C338 C336 1.395 . S
C338 C341 1.403 . S
C339 C336 1.403 1_556 S
C339 C340 1.524 . S
C339 C343 1.400 . S
C340 H325 0.960 . S
C340 H326 0.960 . S
C340 H327 0.960 . S
C340 C339 1.524 . S
C341 C338 1.403 . S
C341 C342 1.392 . S
C341 C345 1.495 . S
C342 C341 1.392 . S
C342 C343 1.385 1_554 S
C342 C344 1.478 . S
C343 H337 0.930 . S
C343 C339 1.400 . S
C343 C342 1.385 1_556 S
C344 C342 1.478 . S
C344 C346 1.381 . S
C344 C350 1.383 . S
C345 C341 1.495 . S
C345 H351 0.959 . S
C345 H352 0.961 . S
C345 H353 0.960 . S
C346 C344 1.381 . S
C346 C347 1.394 . S
C346 H354 0.930 . S
C347 C346 1.394 . S
C347 C348 1.383 . S
C347 H355 0.929 . S
C348 C347 1.383 . S
C348 C349 1.377 . S
C349 H333 0.930 . S
C349 C348 1.377 . S
C349 C350 1.379 . S
C350 H334 0.931 . S
C350 C344 1.383 . S
C350 C349 1.379 . S
H351 C345 0.959 . S
H352 C345 0.961 . S
H353 C345 0.960 . S
H354 C346 0.930 . S
H355 C347 0.929 . S
H356 C364 0.929 . S
H357 C366 0.930 . S
H358 C368 0.930 . S
H359 C371 0.929 . S
H360 C374 0.930 . S
H361 C376 0.960 . S
H362 C376 0.960 . S
H363 C376 0.960 . S
C364 H356 0.929 . S
C364 C365 1.377 1_556 S
C364 C366 1.384 . S
C365 C364 1.377 1_554 S
C365 C371 1.390 . S
C366 H357 0.930 . S
C366 C364 1.384 . S
C366 C367 1.372 1_556 S
C367 C366 1.372 1_554 S
C367 C368 1.400 . S
C367 C372 1.490 . S
C368 H358 0.930 . S
C368 C367 1.400 . S
C368 C371 1.386 . S
H369 C385 0.930 . S
H370 C386 0.931 . S
C371 H359 0.929 . S
C371 C365 1.390 . S
C371 C368 1.386 . S
C372 C367 1.490 . S
C372 C374 1.395 1_554 S
C372 C375 1.403 . S
H373 C379 0.930 . S
C374 H360 0.930 . S
C374 C372 1.395 1_556 S
C374 C377 1.403 . S
C375 C372 1.403 . S
C375 C376 1.524 . S
C375 C379 1.400 . S
C376 H361 0.960 . S
C376 H362 0.960 . S
C376 H363 0.960 . S
C376 C375 1.524 . S
C377 C374 1.403 . S
C377 C378 1.392 1_556 S
C377 C381 1.495 . S
C378 C377 1.392 1_554 S
C378 C379 1.385 . S
C378 C380 1.478 . S
C379 H373 0.930 . S
C379 C375 1.400 . S
C379 C378 1.385 . S
C380 C378 1.478 . S
C380 C382 1.381 1_554 S
C380 C386 1.383 . S
C381 C377 1.495 . S
C381 H387 0.959 . S
C381 H388 0.961 . S
C381 H389 0.960 . S
C382 C380 1.381 1_556 S
C382 C383 1.395 1_556 S
C382 H390 0.930 . S
C383 C382 1.395 1_554 S
C383 C384 1.381 . S
C383 H391 0.931 1_554 S
C384 C383 1.381 . S
C384 C385 1.377 . S
C385 H369 0.930 . S
C385 C384 1.377 . S
C385 C386 1.379 . S
C386 H370 0.931 . S
C386 C380 1.383 . S
C386 C385 1.379 . S
H387 C381 0.959 . S
H388 C381 0.961 . S
H389 C381 0.960 . S
H390 C382 0.930 . S
H391 C383 0.931 1_556 S
H392 C400 0.929 . S
H393 C402 0.930 . S
H394 C404 0.930 . S
H395 C407 0.929 . S
H396 C410 0.930 . S
H397 C412 0.960 . S
H398 C412 0.960 . S
H399 C412 0.960 . S
C400 H392 0.929 . S
C400 C401 1.377 . S
C400 C402 1.384 . S
C401 C400 1.377 . S
C401 C407 1.390 . S
C402 H393 0.930 . S
C402 C400 1.384 . S
C402 C403 1.372 . S
C403 C402 1.372 . S
C403 C404 1.400 . S
C403 C408 1.490 . S
C404 H394 0.930 . S
C404 C403 1.400 . S
C404 C407 1.386 . S
H405 C421 0.930 . S
H406 C422 0.931 . S
C407 H395 0.929 . S
C407 C401 1.390 . S
C407 C404 1.386 . S
C408 C403 1.490 . S
C408 C410 1.395 . S
C408 C411 1.403 . S
H409 C415 0.930 . S
C410 H396 0.930 . S
C410 C408 1.395 . S
C410 C413 1.403 . S
C411 C408 1.403 . S
C411 C412 1.524 . S
C411 C415 1.400 . S
C412 H397 0.960 . S
C412 H398 0.960 . S
C412 H399 0.960 . S
C412 C411 1.524 . S
C413 C410 1.403 . S
C413 C414 1.392 . S
C413 C417 1.495 . S
C414 C413 1.392 . S
C414 C415 1.385 . S
C414 C416 1.478 . S
C415 H409 0.930 . S
C415 C411 1.400 . S
C415 C414 1.385 . S
C416 C414 1.478 . S
C416 C418 1.381 . S
C416 C422 1.383 . S
C417 C413 1.495 . S
C417 H423 0.959 . S
C417 H424 0.961 . S
C417 H425 0.960 . S
C418 C416 1.381 . S
C418 C419 1.394 . S
C418 H426 0.930 . S
C419 C418 1.394 . S
C419 C420 1.383 . S
C419 H427 0.929 . S
C420 C419 1.383 . S
C420 C421 1.377 . S
C421 H405 0.930 . S
C421 C420 1.377 . S
C421 C422 1.379 . S
C422 H406 0.931 . S
C422 C416 1.383 . S
C422 C421 1.379 . S
H423 C417 0.959 . S
H424 C417 0.961 . S
H425 C417 0.960 . S
H426 C418 0.930 . S
H427 C419 0.929 . S
H428 C436 0.929 . S
H429 C438 0.930 . S
H430 C440 0.930 . S
H431 C443 0.929 . S
H432 C446 0.930 . S
H433 C448 0.960 . S
H434 C448 0.960 . S
H435 C448 0.960 . S
C436 H428 0.929 . S
C436 C437 1.377 . S
C436 C438 1.384 . S
C437 C436 1.377 . S
C437 C443 1.390 . S
C438 H429 0.930 . S
C438 C436 1.384 . S
C438 C439 1.372 . S
C439 C438 1.372 . S
C439 C440 1.400 . S
C439 C444 1.490 . S
C440 H430 0.930 . S
C440 C439 1.400 . S
C440 C443 1.386 . S
H441 C457 0.930 . S
H442 C458 0.931 . S
C443 H431 0.929 . S
C443 C437 1.390 . S
C443 C440 1.386 . S
C444 C439 1.490 . S
C444 C446 1.395 . S
C444 C447 1.403 . S
H445 C451 0.930 . S
C446 H432 0.930 . S
C446 C444 1.395 . S
C446 C449 1.403 . S
C447 C444 1.403 . S
C447 C448 1.524 . S
C447 C451 1.400 . S
C448 H433 0.960 . S
C448 H434 0.960 . S
C448 H435 0.960 . S
C448 C447 1.524 . S
C449 C446 1.403 . S
C449 C450 1.392 . S
C449 C453 1.495 . S
C450 C449 1.392 . S
C450 C451 1.385 . S
C450 C452 1.478 . S
C451 H445 0.930 . S
C451 C447 1.400 . S
C451 C450 1.385 . S
C452 C450 1.478 . S
C452 C454 1.381 . S
C452 C458 1.383 . S
C453 C449 1.495 . S
C453 H459 0.959 . S
C453 H460 0.961 . S
C453 H461 0.960 . S
C454 C452 1.381 . S
C454 C455 1.394 . S
C454 H462 0.930 . S
C455 C454 1.394 . S
C455 C456 1.383 . S
C455 H463 0.929 . S
C456 C455 1.383 . S
C456 C457 1.377 . S
C457 H441 0.930 . S
C457 C456 1.377 . S
C457 C458 1.379 . S
C458 H442 0.931 . S
C458 C452 1.383 . S
C458 C457 1.379 . S
H459 C453 0.959 . S
H460 C453 0.961 . S
H461 C453 0.960 . S
H462 C454 0.930 . S
H463 C455 0.929 . S
H464 C472 0.929 . S
H465 C474 0.930 . S
H466 C476 0.930 . S
H467 C479 0.929 . S
H468 C482 0.930 . S
H469 C484 0.960 1_455 S
H470 C484 0.960 . S
H471 C484 0.960 . S
C472 H464 0.929 . S
C472 C473 1.377 . S
C472 C474 1.384 . S
C473 C472 1.377 . S
C473 C479 1.390 . S
C474 H465 0.930 . S
C474 C472 1.384 . S
C474 C475 1.372 . S
C475 C474 1.372 . S
C475 C476 1.400 . S
C475 C480 1.490 . S
C476 H466 0.930 . S
C476 C475 1.400 . S
C476 C479 1.386 . S
H477 C493 0.930 . S
H478 C494 0.931 . S
C479 H467 0.929 . S
C479 C473 1.390 . S
C479 C476 1.386 . S
C480 C475 1.490 . S
C480 C482 1.395 1_654 S
C480 C483 1.403 1_655 S
H481 C487 0.930 . S
C482 H468 0.930 . S
C482 C480 1.395 1_456 S
C482 C485 1.403 . S
C483 C480 1.403 1_455 S
C483 C484 1.524 1_455 S
C483 C487 1.400 . S
C484 H469 0.960 1_655 S
C484 H470 0.960 . S
C484 H471 0.960 . S
C484 C483 1.524 1_655 S
C485 C482 1.403 . S
C485 C486 1.392 1_556 S
C485 C489 1.495 . S
C486 C485 1.392 1_554 S
C486 C487 1.385 . S
C486 C488 1.478 . S
C487 H481 0.930 . S
C487 C483 1.400 . S
C487 C486 1.385 . S
C488 C486 1.478 . S
C488 C490 1.381 . S
C488 C494 1.383 . S
C489 C485 1.495 . S
C489 H495 0.959 . S
C489 H496 0.961 . S
C489 H497 0.960 . S
C490 C488 1.381 . S
C490 C491 1.394 . S
C490 H498 0.930 . S
C491 C490 1.394 . S
C491 C492 1.383 . S
C491 H499 0.929 . S
C492 C491 1.383 . S
C492 C493 1.377 . S
C493 H477 0.930 . S
C493 C492 1.377 . S
C493 C494 1.379 . S
C494 H478 0.931 . S
C494 C488 1.383 . S
C494 C493 1.379 . S
H495 C489 0.959 . S
H496 C489 0.961 . S
H497 C489 0.960 . S
H498 C490 0.930 . S
H499 C491 0.929 . S
H500 C508 0.929 1_556 S
H501 C510 0.930 1_556 S
H502 C512 0.930 . S
H503 C515 0.929 . S
H504 C518 0.930 1_455 S
H505 C520 0.960 . S
H506 C520 0.960 . S
H507 C520 0.959 1_455 S
C508 H500 0.929 1_554 S
C508 C509 1.377 . S
C508 C510 1.384 . S
C509 C508 1.377 . S
C509 C515 1.390 . S
C510 H501 0.930 1_554 S
C510 C508 1.384 . S
C510 C511 1.372 . S
C511 C510 1.372 . S
C511 C512 1.400 . S
C511 C516 1.490 . S
C512 H502 0.930 . S
C512 C511 1.400 . S
C512 C515 1.386 . S
H513 C529 0.930 . S
H514 C530 0.931 . S
C515 H503 0.929 . S
C515 C509 1.390 . S
C515 C512 1.386 . S
C516 C511 1.490 . S
C516 C518 1.395 1_454 S
C516 C519 1.403 1_455 S
H517 C523 0.930 . S
C518 H504 0.930 1_655 S
C518 C516 1.395 1_656 S
C518 C521 1.403 . S
C519 C516 1.403 1_655 S
C519 C520 1.524 . S
C519 C523 1.400 . S
C520 H505 0.960 . S
C520 H506 0.960 . S
C520 H507 0.959 1_655 S
C520 C519 1.524 . S
C521 C518 1.403 . S
C521 C522 1.392 1_556 S
C521 C525 1.495 . S
C522 C521 1.392 1_554 S
C522 C523 1.385 . S
C522 C524 1.478 . S
C523 H517 0.930 . S
C523 C519 1.400 . S
C523 C522 1.385 . S
C524 C522 1.478 . S
C524 C526 1.381 1_554 S
C524 C530 1.383 . S
C525 C521 1.495 . S
C525 H531 0.959 . S
C525 H532 0.961 . S
C525 H533 0.960 . S
C526 C524 1.381 1_556 S
C526 C527 1.395 1_556 S
C526 H534 0.930 . S
C527 C526 1.395 1_554 S
C527 C528 1.387 . S
C527 H535 0.925 1_554 S
C528 C527 1.387 . S
C528 C529 1.377 . S
C529 H513 0.930 . S
C529 C528 1.377 . S
C529 C530 1.379 . S
C530 H514 0.931 . S
C530 C524 1.383 . S
C530 C529 1.379 . S
H531 C525 0.959 . S
H532 C525 0.961 . S
H533 C525 0.960 . S
H534 C526 0.930 . S
H535 C527 0.925 1_556 S
H536 C544 0.929 . S
H537 C546 0.930 . S
H538 C548 0.930 . S
H539 C551 0.929 . S
H540 C554 0.930 . S
H541 C556 0.960 . S
H542 C556 0.960 . S
H543 C556 0.960 . S
C544 H536 0.929 . S
C544 C545 1.377 . S
C544 C546 1.384 . S
C545 C544 1.377 . S
C545 C551 1.390 . S
C546 H537 0.930 . S
C546 C544 1.384 . S
C546 C547 1.372 . S
C547 C546 1.372 . S
C547 C548 1.400 . S
C547 C552 1.490 . S
C548 H538 0.930 . S
C548 C547 1.400 . S
C548 C551 1.386 . S
H549 C565 0.930 . S
H550 C566 0.931 . S
C551 H539 0.929 . S
C551 C545 1.390 . S
C551 C548 1.386 . S
C552 C547 1.490 . S
C552 C554 1.395 . S
C552 C555 1.403 . S
H553 C559 0.930 . S
C554 H540 0.930 . S
C554 C552 1.395 . S
C554 C557 1.403 . S
C555 C552 1.403 . S
C555 C556 1.524 . S
C555 C559 1.400 . S
C556 H541 0.960 . S
C556 H542 0.960 . S
C556 H543 0.960 . S
C556 C555 1.524 . S
C557 C554 1.403 . S
C557 C558 1.392 1_455 S
C557 C561 1.495 1_455 S
C558 C557 1.392 1_655 S
C558 C559 1.385 1_655 S
C558 C560 1.478 . S
C559 H553 0.930 . S
C559 C555 1.400 . S
C559 C558 1.385 1_455 S
C560 C558 1.478 . S
C560 C562 1.381 . S
C560 C566 1.383 . S
C561 C557 1.495 1_655 S
C561 H567 0.959 1_655 S
C561 H568 0.961 . S
C561 H569 0.960 . S
C562 C560 1.381 . S
C562 C563 1.394 . S
C562 H570 0.930 . S
C563 C562 1.394 . S
C563 C564 1.383 . S
C563 H571 0.929 . S
C564 C563 1.383 . S
C564 C565 1.377 . S
C565 H549 0.930 . S
C565 C564 1.377 . S
C565 C566 1.379 . S
C566 H550 0.931 . S
C566 C560 1.383 . S
C566 C565 1.379 . S
H567 C561 0.959 1_455 S
H568 C561 0.961 . S
H569 C561 0.960 . S
H570 C562 0.930 . S
H571 C563 0.929 . S
H572 C580 0.929 . S
H573 C582 0.930 . S
H574 C584 0.930 . S
H575 C587 0.929 . S
H576 C590 0.930 . S
H577 C592 0.960 . S
H578 C592 0.960 . S
H579 C592 0.960 . S
C580 H572 0.929 . S
C580 C581 1.377 . S
C580 C582 1.384 . S
C581 C580 1.377 . S
C581 C587 1.390 . S
C582 H573 0.930 . S
C582 C580 1.384 . S
C582 C583 1.372 . S
C583 C582 1.372 . S
C583 C584 1.400 . S
C583 C588 1.490 . S
C584 H574 0.930 . S
C584 C583 1.400 . S
C584 C587 1.386 . S
H585 C601 0.930 . S
H586 C602 0.931 . S
C587 H575 0.929 . S
C587 C581 1.390 . S
C587 C584 1.386 . S
C588 C583 1.490 . S
C588 C590 1.395 . S
C588 C591 1.403 . S
H589 C595 0.930 . S
C590 H576 0.930 . S
C590 C588 1.395 . S
C590 C593 1.403 . S
C591 C588 1.403 . S
C591 C592 1.524 . S
C591 C595 1.400 . S
C592 H577 0.960 . S
C592 H578 0.960 . S
C592 H579 0.960 . S
C592 C591 1.524 . S
C593 C590 1.403 . S
C593 C594 1.392 1_655 S
C593 C597 1.495 1_655 S
C594 C593 1.392 1_455 S
C594 C595 1.385 1_455 S
C594 C596 1.478 . S
C595 H589 0.930 . S
C595 C591 1.400 . S
C595 C594 1.385 1_655 S
C596 C594 1.478 . S
C596 C598 1.381 . S
C596 C602 1.383 . S
C597 C593 1.495 1_455 S
C597 H603 0.959 1_455 S
C597 H604 0.961 . S
C597 H605 0.960 . S
C598 C596 1.381 . S
C598 C599 1.394 . S
C598 H606 0.930 . S
C599 C598 1.394 . S
C599 C600 1.383 . S
C599 H607 0.929 . S
C600 C599 1.383 . S
C600 C601 1.377 . S
C601 H585 0.930 . S
C601 C600 1.377 . S
C601 C602 1.379 . S
C602 H586 0.931 . S
C602 C596 1.383 . S
C602 C601 1.379 . S
H603 C597 0.959 1_655 S
H604 C597 0.961 . S
H605 C597 0.960 . S
H606 C598 0.930 . S
H607 C599 0.929 . S
H608 C616 0.929 . S
H609 C618 0.930 1_655 S
H610 C620 0.930 1_556 S
H611 C623 0.929 1_556 S
H612 C626 0.930 . S
H613 C628 0.960 . S
H614 C628 0.960 . S
H615 C628 0.960 1_556 S
C616 H608 0.929 . S
C616 C617 1.377 . S
C616 C618 1.384 . S
C617 C616 1.377 . S
C617 C623 1.390 . S
C618 H609 0.930 1_455 S
C618 C616 1.384 . S
C618 C619 1.372 . S
C619 C618 1.372 . S
C619 C620 1.400 . S
C619 C624 1.490 . S
C620 H610 0.930 1_554 S
C620 C619 1.400 . S
C620 C623 1.386 . S
H621 C637 0.930 . S
H622 C638 0.931 . S
C623 H611 0.929 1_554 S
C623 C617 1.390 . S
C623 C620 1.386 . S
C624 C619 1.490 . S
C624 C626 1.395 1_455 S
C624 C627 1.403 . S
H625 C631 0.930 . S
C626 H612 0.930 . S
C626 C624 1.395 1_655 S
C626 C629 1.403 . S
C627 C624 1.403 . S
C627 C628 1.524 . S
C627 C631 1.400 . S
C628 H613 0.960 . S
C628 H614 0.960 . S
C628 H615 0.960 1_554 S
C628 C627 1.524 . S
C629 C626 1.403 . S
C629 C630 1.392 . S
C629 C633 1.495 . S
C630 C629 1.392 . S
C630 C631 1.385 1_655 S
C630 C632 1.478 . S
C631 H625 0.930 . S
C631 C627 1.400 . S
C631 C630 1.385 1_455 S
C632 C630 1.478 . S
C632 C634 1.381 . S
C632 C638 1.383 1_554 S
C633 C629 1.495 . S
C633 H639 0.959 . S
C633 H640 0.961 . S
C633 H641 0.960 . S
C634 C632 1.381 . S
C634 C635 1.394 . S
C634 H642 0.930 . S
C635 C634 1.394 . S
C635 C636 1.383 . S
C635 H643 0.929 . S
C636 C635 1.383 . S
C636 C637 1.377 1_554 S
C637 H621 0.930 . S
C637 C636 1.377 1_556 S
C637 C638 1.379 . S
C638 H622 0.931 . S
C638 C632 1.383 1_556 S
C638 C637 1.379 . S
H639 C633 0.959 . S
H640 C633 0.961 . S
H641 C633 0.960 . S
H642 C634 0.930 . S
H643 C635 0.929 . S
H644 C652 0.929 . S
H645 C654 0.930 1_655 S
H646 C656 0.930 . S
H647 C659 0.929 . S
H648 C662 0.930 . S
H649 C664 0.960 . S
H650 C664 0.960 . S
H651 C664 0.960 . S
C652 H644 0.929 . S
C652 C653 1.377 . S
C652 C654 1.384 . S
C653 C652 1.377 . S
C653 C659 1.390 . S
C654 H645 0.930 1_455 S
C654 C652 1.384 . S
C654 C655 1.372 . S
C655 C654 1.372 . S
C655 C656 1.400 . S
C655 C660 1.490 . S
C656 H646 0.930 . S
C656 C655 1.400 . S
C656 C659 1.386 . S
H657 C673 0.930 . S
H658 C674 0.931 . S
C659 H647 0.929 . S
C659 C653 1.390 . S
C659 C656 1.386 . S
C660 C655 1.490 . S
C660 C662 1.395 1_455 S
C660 C663 1.403 . S
H661 C667 0.930 . S
C662 H648 0.930 . S
C662 C660 1.395 1_655 S
C662 C665 1.403 . S
C663 C660 1.403 . S
C663 C664 1.524 . S
C663 C667 1.400 . S
C664 H649 0.960 . S
C664 H650 0.960 . S
C664 H651 0.960 . S
C664 C663 1.524 . S
C665 C662 1.403 . S
C665 C666 1.392 . S
C665 C669 1.495 . S
C666 C665 1.392 . S
C666 C667 1.385 1_655 S
C666 C668 1.478 . S
C667 H661 0.930 . S
C667 C663 1.400 . S
C667 C666 1.385 1_455 S
C668 C666 1.478 . S
C668 C670 1.381 . S
C668 C674 1.383 . S
C669 C665 1.495 . S
C669 H675 0.959 . S
C669 H676 0.961 . S
C669 H677 0.960 . S
C670 C668 1.381 . S
C670 C671 1.394 . S
C670 H678 0.930 . S
C671 C670 1.394 . S
C671 C672 1.383 . S
C671 H679 0.929 . S
C672 C671 1.383 . S
C672 C673 1.377 . S
C673 H657 0.930 . S
C673 C672 1.377 . S
C673 C674 1.379 . S
C674 H658 0.931 . S
C674 C668 1.383 . S
C674 C673 1.379 . S
H675 C669 0.959 . S
H676 C669 0.961 . S
H677 C669 0.960 . S
H678 C670 0.930 . S
H679 C671 0.929 . S
H680 C688 0.929 . S
H681 C690 0.930 . S
H682 C692 0.930 . S
H683 C695 0.929 . S
H684 C698 0.930 1_556 S
H685 C700 0.960 . S
H686 C700 0.960 . S
H687 C700 0.960 . S
C688 H680 0.929 . S
C688 C689 1.377 1_556 S
C688 C690 1.384 . S
C689 C688 1.377 1_554 S
C689 C695 1.390 . S
C690 H681 0.930 . S
C690 C688 1.384 . S
C690 C691 1.372 1_556 S
C691 C690 1.372 1_554 S
C691 C692 1.400 . S
C691 C696 1.490 . S
C692 H682 0.930 . S
C692 C691 1.400 . S
C692 C695 1.386 . S
H693 C709 0.930 . S
H694 C710 0.931 . S
C695 H683 0.929 . S
C695 C689 1.390 . S
C695 C692 1.386 . S
C696 C691 1.490 . S
C696 C698 1.395 . S
C696 C699 1.403 . S
H697 C703 0.930 . S
C698 H684 0.930 1_554 S
C698 C696 1.395 . S
C698 C701 1.403 1_565 S
C699 C696 1.403 . S
C699 C700 1.524 . S
C699 C703 1.400 1_565 S
C700 H685 0.960 . S
C700 H686 0.960 . S
C700 H687 0.960 . S
C700 C699 1.524 . S
C701 C698 1.403 1_545 S
C701 C702 1.392 . S
C701 C705 1.495 1_554 S
C702 C701 1.392 . S
C702 C703 1.385 . S
C702 C704 1.478 . S
C703 H697 0.930 . S
C703 C699 1.400 1_545 S
C703 C702 1.385 . S
C704 C702 1.478 . S
C704 C706 1.370 1_554 S
C704 C710 1.383 . S
C705 C701 1.495 1_556 S
C705 H711 0.959 . S
C705 H712 0.961 1_556 S
C705 H713 0.960 . S
C706 C704 1.370 1_556 S
C706 C707 1.392 1_556 S
C706 H714 0.944 . S
C707 C706 1.392 1_554 S
C707 C708 1.383 . S
C707 H715 0.929 1_554 S
C708 C707 1.383 . S
C708 C709 1.377 . S
C709 H693 0.930 . S
C709 C708 1.377 . S
C709 C710 1.379 . S
C710 H694 0.931 . S
C710 C704 1.383 . S
C710 C709 1.379 . S
H711 C705 0.959 . S
H712 C705 0.961 1_554 S
H713 C705 0.960 . S
H714 C706 0.944 . S
H715 C707 0.929 1_556 S
H716 C724 0.929 . S
H717 C726 0.930 . S
H718 C728 0.930 . S
H719 C731 0.929 . S
H720 C734 0.930 . S
H721 C736 0.960 . S
H722 C736 0.960 . S
H723 C736 0.960 . S
C724 H716 0.929 . S
C724 C725 1.377 . S
C724 C726 1.384 . S
C725 C724 1.377 . S
C725 C731 1.390 . S
C726 H717 0.930 . S
C726 C724 1.384 . S
C726 C727 1.372 . S
C727 C726 1.372 . S
C727 C728 1.400 . S
C727 C732 1.490 . S
C728 H718 0.930 . S
C728 C727 1.400 . S
C728 C731 1.386 . S
H729 C745 0.930 . S
H730 C746 0.931 . S
C731 H719 0.929 . S
C731 C725 1.390 . S
C731 C728 1.386 . S
C732 C727 1.490 . S
C732 C734 1.395 . S
C732 C735 1.403 . S
H733 C739 0.930 . S
C734 H720 0.930 . S
C734 C732 1.395 . S
C734 C737 1.403 1_545 S
C735 C732 1.403 . S
C735 C736 1.524 . S
C735 C739 1.400 1_545 S
C736 H721 0.960 . S
C736 H722 0.960 . S
C736 H723 0.960 . S
C736 C735 1.524 . S
C737 C734 1.403 1_565 S
C737 C738 1.392 . S
C737 C741 1.495 . S
C738 C737 1.392 . S
C738 C739 1.385 . S
C738 C740 1.478 . S
C739 H733 0.930 . S
C739 C735 1.400 1_565 S
C739 C738 1.385 . S
C740 C738 1.478 . S
C740 C742 1.381 . S
C740 C746 1.383 . S
C741 C737 1.495 . S
C741 H747 0.959 . S
C741 H748 0.961 . S
C741 H749 0.960 . S
C742 C740 1.381 . S
C742 C743 1.394 . S
C742 H750 0.930 . S
C743 C742 1.394 . S
C743 C744 1.383 . S
C743 H751 0.929 . S
C744 C743 1.383 . S
C744 C745 1.377 . S
C745 H729 0.930 . S
C745 C744 1.377 . S
C745 C746 1.379 . S
C746 H730 0.931 . S
C746 C740 1.383 . S
C746 C745 1.379 . S
H747 C741 0.959 . S
H748 C741 0.961 . S
H749 C741 0.960 . S
H750 C742 0.930 . S
H751 C743 0.929 . S
H752 C760 0.929 . S
H753 C762 0.930 . S
H754 C764 0.930 . S
H755 C767 0.929 . S
H756 C770 0.930 . S
H757 C772 0.960 . S
H758 C772 0.960 . S
H759 C772 0.960 1_554 S
C760 H752 0.929 . S
C760 C761 1.377 . S
C760 C762 1.384 . S
C761 C760 1.377 . S
C761 C767 1.390 . S
C762 H753 0.930 . S
C762 C760 1.384 . S
C762 C763 1.372 . S
C763 C762 1.372 . S
C763 C764 1.400 . S
C763 C768 1.490 . S
C764 H754 0.930 . S
C764 C763 1.400 . S
C764 C767 1.386 . S
H765 C781 0.930 . S
H766 C782 0.931 . S
C767 H755 0.929 . S
C767 C761 1.390 . S
C767 C764 1.386 . S
C768 C763 1.490 . S
C768 C770 1.395 . S
C768 C771 1.403 . S
H769 C775 0.923 1_556 S
C770 H756 0.930 . S
C770 C768 1.395 . S
C770 C773 1.403 . S
C771 C768 1.403 . S
C771 C772 1.524 1_554 S
C771 C775 1.400 . S
C772 H757 0.960 . S
C772 H758 0.960 . S
C772 H759 0.960 1_556 S
C772 C771 1.524 1_556 S
C773 C770 1.403 . S
C773 C774 1.392 . S
C773 C777 1.495 . S
C774 C773 1.392 . S
C774 C775 1.385 . S
C774 C776 1.478 . S
C775 H769 0.923 1_554 S
C775 C771 1.400 . S
C775 C774 1.385 . S
C776 C774 1.478 . S
C776 C778 1.381 . S
C776 C782 1.383 . S
C777 C773 1.495 . S
C777 H783 0.959 . S
C777 H784 0.961 . S
C777 H785 0.960 . S
C778 C776 1.381 . S
C778 C779 1.392 1_554 S
C778 H786 0.930 1_554 S
C779 C778 1.392 1_556 S
C779 C780 1.374 1_556 S
C779 H787 0.942 . S
C780 C779 1.374 1_554 S
C780 C781 1.377 . S
C781 H765 0.930 . S
C781 C780 1.377 . S
C781 C782 1.379 . S
C782 H766 0.931 . S
C782 C776 1.383 . S
C782 C781 1.379 . S
H783 C777 0.959 . S
H784 C777 0.961 . S
H785 C777 0.960 . S
H786 C778 0.930 1_556 S
H787 C779 0.942 . S
H788 C796 0.929 1_556 S
H789 C798 0.930 1_556 S
H790 C800 0.930 . S
H791 C803 0.929 . S
H792 C806 0.930 1_556 S
H793 C808 0.960 . S
H794 C808 0.960 . S
H795 C808 0.960 . S
C796 H788 0.929 1_554 S
C796 C797 1.377 . S
C796 C798 1.384 . S
C797 C796 1.377 . S
C797 C803 1.390 . S
C798 H789 0.930 1_554 S
C798 C796 1.384 . S
C798 C799 1.372 . S
C799 C798 1.372 . S
C799 C800 1.400 . S
C799 C804 1.490 . S
C800 H790 0.930 . S
C800 C799 1.400 . S
C800 C803 1.386 . S
H801 C817 0.930 . S
H802 C818 0.931 . S
C803 H791 0.929 . S
C803 C797 1.390 . S
C803 C800 1.386 . S
C804 C799 1.490 . S
C804 C806 1.395 . S
C804 C807 1.403 . S
H805 C811 0.930 . S
C806 H792 0.930 1_554 S
C806 C804 1.395 . S
C806 C809 1.404 . S
C807 C804 1.403 . S
C807 C808 1.524 . S
C807 C811 1.400 . S
C808 H793 0.960 . S
C808 H794 0.960 . S
C808 H795 0.960 . S
C808 C807 1.524 . S
C809 C806 1.404 . S
C809 C810 1.396 . S
C809 C813 1.491 1_554 S
C810 C809 1.396 . S
C810 C811 1.385 . S
C810 C812 1.478 . S
C811 H805 0.930 . S
C811 C807 1.400 . S
C811 C810 1.385 . S
C812 C810 1.478 . S
C812 C814 1.381 1_554 S
C812 C818 1.383 . S
C813 C809 1.491 1_556 S
C813 H819 0.959 . S
C813 H820 0.961 . S
C813 H821 0.960 . S
C814 C812 1.381 1_556 S
C814 C815 1.394 . S
C814 H822 0.930 . S
C815 C814 1.394 . S
C815 C816 1.383 1_556 S
C815 H823 0.929 . S
C816 C815 1.383 1_554 S
C816 C817 1.377 . S
C817 H801 0.930 . S
C817 C816 1.377 . S
C817 C818 1.379 . S
C818 H802 0.931 . S
C818 C812 1.383 . S
C818 C817 1.379 . S
H819 C813 0.959 . S
H820 C813 0.961 . S
H821 C813 0.960 . S
H822 C814 0.930 . S
H823 C815 0.929 . S
H824 C832 0.929 . S
H825 C834 0.930 . S
H826 C836 0.930 . S
H827 C839 0.929 . S
H828 C842 0.930 . S
H829 C844 0.960 . S
H830 C844 0.960 . S
H831 C844 0.960 . S
C832 H824 0.929 . S
C832 C833 1.377 . S
C832 C834 1.384 . S
C833 C832 1.377 . S
C833 C839 1.390 . S
C834 H825 0.930 . S
C834 C832 1.384 . S
C834 C835 1.372 . S
C835 C834 1.372 . S
C835 C836 1.400 . S
C835 C840 1.490 . S
C836 H826 0.930 . S
C836 C835 1.400 . S
C836 C839 1.386 . S
H837 C853 0.930 . S
H838 C854 0.931 . S
C839 H827 0.929 . S
C839 C833 1.390 . S
C839 C836 1.386 . S
C840 C835 1.490 . S
C840 C842 1.395 . S
C840 C843 1.403 . S
H841 C847 0.930 . S
C842 H828 0.930 . S
C842 C840 1.395 . S
C842 C845 1.403 . S
C843 C840 1.403 . S
C843 C844 1.524 . S
C843 C847 1.400 . S
C844 H829 0.960 . S
C844 H830 0.960 . S
C844 H831 0.960 . S
C844 C843 1.524 . S
C845 C842 1.403 . S
C845 C846 1.392 . S
C845 C849 1.495 . S
C846 C845 1.392 . S
C846 C847 1.385 . S
C846 C848 1.478 . S
C847 H841 0.930 . S
C847 C843 1.400 . S
C847 C846 1.385 . S
C848 C846 1.478 . S
C848 C850 1.381 . S
C848 C854 1.383 . S
C849 C845 1.495 . S
C849 H855 0.959 . S
C849 H856 0.961 . S
C849 H857 0.960 . S
C850 C848 1.381 . S
C850 C851 1.394 . S
C850 H858 0.930 . S
C851 C850 1.394 . S
C851 C852 1.383 . S
C851 H859 0.929 . S
C852 C851 1.383 . S
C852 C853 1.377 . S
C853 H837 0.930 . S
C853 C852 1.377 . S
C853 C854 1.379 . S
C854 H838 0.931 . S
C854 C848 1.383 . S
C854 C853 1.379 . S
H855 C849 0.959 . S
H856 C849 0.961 . S
H857 C849 0.960 . S
H858 C850 0.930 . S
H859 C851 0.929 . S
H860 C868 0.929 . S
H861 C870 0.930 . S
H862 C872 0.930 . S
H863 C875 0.929 . S
H864 C878 0.930 . S
H865 C880 0.960 . S
H866 C880 0.960 . S
H867 C880 0.960 . S
C868 H860 0.929 . S
C868 C869 1.377 . S
C868 C870 1.384 . S
C869 C868 1.377 . S
C869 C875 1.390 . S
C870 H861 0.930 . S
C870 C868 1.384 . S
C870 C871 1.372 . S
C871 C870 1.372 . S
C871 C872 1.400 . S
C871 C876 1.490 . S
C872 H862 0.930 . S
C872 C871 1.400 . S
C872 C875 1.386 . S
H873 C889 0.930 . S
H874 C890 0.931 . S
C875 H863 0.929 . S
C875 C869 1.390 . S
C875 C872 1.386 . S
C876 C871 1.490 . S
C876 C878 1.395 . S
C876 C879 1.403 . S
H877 C883 0.930 . S
C878 H864 0.930 . S
C878 C876 1.395 . S
C878 C881 1.403 . S
C879 C876 1.403 . S
C879 C880 1.524 . S
C879 C883 1.400 . S
C880 H865 0.960 . S
C880 H866 0.960 . S
C880 H867 0.960 . S
C880 C879 1.524 . S
C881 C878 1.403 . S
C881 C882 1.392 . S
C881 C885 1.495 . S
C882 C881 1.392 . S
C882 C883 1.385 . S
C882 C884 1.478 . S
C883 H877 0.930 . S
C883 C879 1.400 . S
C883 C882 1.385 . S
C884 C882 1.478 . S
C884 C886 1.381 . S
C884 C890 1.383 . S
C885 C881 1.495 . S
C885 H891 0.959 . S
C885 H892 0.961 . S
C885 H893 0.960 . S
C886 C884 1.381 . S
C886 C887 1.394 . S
C886 H894 0.930 . S
C887 C886 1.394 . S
C887 C888 1.383 . S
C887 H895 0.929 . S
C888 C887 1.383 . S
C888 C889 1.377 . S
C889 H873 0.930 . S
C889 C888 1.377 . S
C889 C890 1.379 . S
C890 H874 0.931 . S
C890 C884 1.383 . S
C890 C889 1.379 . S
H891 C885 0.959 . S
H892 C885 0.961 . S
H893 C885 0.960 . S
H894 C886 0.930 . S
H895 C887 0.929 . S
H896 C904 0.929 1_655 S
H897 C906 0.930 . S
H898 C908 0.930 . S
H899 C911 0.929 . S
H900 C914 0.930 . S
H901 C916 0.960 . S
H902 C916 0.960 . S
H903 C916 0.960 . S
C904 H896 0.929 1_455 S
C904 C905 1.377 . S
C904 C906 1.384 1_455 S
C905 C904 1.377 . S
C905 C911 1.390 . S
C906 H897 0.930 . S
C906 C904 1.384 1_655 S
C906 C907 1.372 1_655 S
C907 C906 1.372 1_455 S
C907 C908 1.400 . S
C907 C912 1.490 . S
C908 H898 0.930 . S
C908 C907 1.400 . S
C908 C911 1.386 . S
H909 C925 0.930 1_455 S
H910 C926 0.931 1_455 S
C911 H899 0.929 . S
C911 C905 1.390 . S
C911 C908 1.386 . S
C912 C907 1.490 . S
C912 C914 1.395 1_455 S
C912 C915 1.403 . S
H913 C919 0.930 . S
C914 H900 0.930 . S
C914 C912 1.395 1_655 S
C914 C917 1.403 . S
C915 C912 1.403 . S
C915 C916 1.524 . S
C915 C919 1.400 . S
C916 H901 0.960 . S
C916 H902 0.960 . S
C916 H903 0.960 . S
C916 C915 1.524 . S
C917 C914 1.403 . S
C917 C918 1.392 . S
C917 C921 1.495 . S
C918 C917 1.392 . S
C918 C919 1.385 1_655 S
C918 C920 1.478 . S
C919 H913 0.930 . S
C919 C915 1.400 . S
C919 C918 1.385 1_455 S
C920 C918 1.478 . S
C920 C922 1.381 . S
C920 C926 1.383 . S
C921 C917 1.495 . S
C921 H927 0.959 . S
C921 H928 0.961 . S
C921 H929 0.960 . S
C922 C920 1.381 . S
C922 C923 1.394 . S
C922 H930 0.930 . S
C923 C922 1.394 . S
C923 C924 1.383 . S
C923 H931 0.929 . S
C924 C923 1.383 . S
C924 C925 1.377 . S
C925 H909 0.930 1_655 S
C925 C924 1.377 . S
C925 C926 1.379 . S
C926 H910 0.931 1_655 S
C926 C920 1.383 . S
C926 C925 1.379 . S
H927 C921 0.959 . S
H928 C921 0.961 . S
H929 C921 0.960 . S
H930 C922 0.930 . S
H931 C923 0.929 . S
H932 C940 0.929 . S
H933 C942 0.930 . S
H934 C944 0.930 . S
H935 C947 0.929 . S
H936 C950 0.930 . S
H937 C952 0.960 . S
H938 C952 0.960 . S
H939 C952 0.960 . S
C940 H932 0.929 . S
C940 C941 1.377 . S
C940 C942 1.384 . S
C941 C940 1.377 . S
C941 C947 1.390 . S
C942 H933 0.930 . S
C942 C940 1.384 . S
C942 C943 1.372 . S
C943 C942 1.372 . S
C943 C944 1.400 . S
C943 C948 1.490 . S
C944 H934 0.930 . S
C944 C943 1.400 . S
C944 C947 1.386 . S
H945 C961 0.930 . S
H946 C962 0.931 . S
C947 H935 0.929 . S
C947 C941 1.390 . S
C947 C944 1.386 . S
C948 C943 1.490 . S
C948 C950 1.395 . S
C948 C951 1.403 1_655 S
H949 C955 0.930 . S
C950 H936 0.930 . S
C950 C948 1.395 . S
C950 C953 1.403 . S
C951 C948 1.403 1_455 S
C951 C952 1.524 . S
C951 C955 1.400 . S
C952 H937 0.960 . S
C952 H938 0.960 . S
C952 H939 0.960 . S
C952 C951 1.524 . S
C953 C950 1.403 . S
C953 C954 1.392 1_655 S
C953 C957 1.495 . S
C954 C953 1.392 1_455 S
C954 C955 1.385 . S
C954 C956 1.478 . S
C955 H949 0.930 . S
C955 C951 1.400 . S
C955 C954 1.385 . S
C956 C954 1.478 . S
C956 C958 1.381 . S
C956 C962 1.383 . S
C957 C953 1.495 . S
C957 H963 0.959 . S
C957 H964 0.961 . S
C957 H965 0.960 . S
C958 C956 1.381 . S
C958 C959 1.394 . S
C958 H966 0.930 . S
C959 C958 1.394 . S
C959 C960 1.383 . S
C959 H967 0.929 . S
C960 C959 1.383 . S
C960 C961 1.377 . S
C961 H945 0.930 . S
C961 C960 1.377 . S
C961 C962 1.379 . S
C962 H946 0.931 . S
C962 C956 1.383 . S
C962 C961 1.379 . S
H963 C957 0.959 . S
H964 C957 0.961 . S
H965 C957 0.960 . S
H966 C958 0.930 . S
H967 C959 0.929 . S
H968 C976 0.929 . S
H969 C978 0.930 . S
H970 C980 0.930 . S
H971 C983 0.929 . S
H972 C986 0.930 . S
H973 C988 0.960 . S
H974 C988 0.960 . S
H975 C988 0.960 . S
C976 H968 0.929 . S
C976 C977 1.377 . S
C976 C978 1.384 . S
C977 C976 1.377 . S
C977 C983 1.390 . S
C978 H969 0.930 . S
C978 C976 1.384 . S
C978 C979 1.372 . S
C979 C978 1.372 . S
C979 C980 1.400 . S
C979 C984 1.490 . S
C980 H970 0.930 . S
C980 C979 1.400 . S
C980 C983 1.386 . S
H981 C997 0.930 . S
H982 C998 0.931 . S
C983 H971 0.929 . S
C983 C977 1.390 . S
C983 C980 1.386 . S
C984 C979 1.490 . S
C984 C986 1.395 1_655 S
C984 C987 1.403 . S
H985 C991 0.930 . S
C986 H972 0.930 . S
C986 C984 1.395 1_455 S
C986 C989 1.403 . S
C987 C984 1.403 . S
C987 C988 1.524 . S
C987 C991 1.400 . S
C988 H973 0.960 . S
C988 H974 0.960 . S
C988 H975 0.960 . S
C988 C987 1.524 . S
C989 C986 1.403 . S
C989 C990 1.392 . S
C989 C993 1.495 . S
C990 C989 1.392 . S
C990 C991 1.385 1_455 S
C990 C992 1.478 . S
C991 H985 0.930 . S
C991 C987 1.400 . S
C991 C990 1.385 1_655 S
C992 C990 1.478 . S
C992 C994 1.381 . S
C992 C998 1.383 . S
C993 C989 1.495 . S
C993 H999 0.959 . S
C993 H1000 0.961 . S
C993 H1001 0.960 . S
C994 C992 1.381 . S
C994 C995 1.394 . S
C994 H1002 0.930 . S
C995 C994 1.394 . S
C995 C996 1.383 . S
C995 H1003 0.929 . S
C996 C995 1.383 . S
C996 C997 1.377 . S
C997 H981 0.930 . S
C997 C996 1.377 . S
C997 C998 1.379 . S
C998 H982 0.931 . S
C998 C992 1.383 . S
C998 C997 1.379 . S
H999 C993 0.959 . S
H1000 C993 0.961 . S
H1001 C993 0.960 . S
H1002 C994 0.930 . S
H1003 C995 0.929 . S
H1004 C1012 0.929 . S
H1005 C1014 0.930 1_455 S
H1006 C1016 0.930 . S
H1007 C1019 0.929 . S
H1008 C1022 0.930 . S
H1009 C1024 0.960 . S
H1010 C1024 0.960 . S
H1011 C1024 0.960 . S
C1012 H1004 0.929 . S
C1012 C1013 1.377 . S
C1012 C1014 1.384 . S
C1013 C1012 1.377 . S
C1013 C1019 1.390 . S
C1014 H1005 0.930 1_655 S
C1014 C1012 1.384 . S
C1014 C1015 1.372 . S
C1015 C1014 1.372 . S
C1015 C1016 1.400 . S
C1015 C1020 1.490 . S
C1016 H1006 0.930 . S
C1016 C1015 1.400 . S
C1016 C1019 1.386 . S
H1017 C1033 0.930 . S
H1018 C1034 0.931 . S
C1019 H1007 0.929 . S
C1019 C1013 1.390 . S
C1019 C1016 1.386 . S
C1020 C1015 1.490 . S
C1020 C1022 1.395 1_655 S
C1020 C1023 1.403 . S
H1021 C1027 0.930 . S
C1022 H1008 0.930 . S
C1022 C1020 1.395 1_455 S
C1022 C1025 1.403 . S
C1023 C1020 1.403 . S
C1023 C1024 1.524 . S
C1023 C1027 1.400 . S
C1024 H1009 0.960 . S
C1024 H1010 0.960 . S
C1024 H1011 0.960 . S
C1024 C1023 1.524 . S
C1025 C1022 1.403 . S
C1025 C1026 1.392 . S
C1025 C1029 1.495 . S
C1026 C1025 1.392 . S
C1026 C1027 1.385 1_455 S
C1026 C1028 1.478 . S
C1027 H1021 0.930 . S
C1027 C1023 1.400 . S
C1027 C1026 1.385 1_655 S
C1028 C1026 1.478 . S
C1028 C1030 1.381 . S
C1028 C1034 1.383 . S
C1029 C1025 1.495 . S
C1029 H1035 0.959 . S
C1029 H1036 0.961 . S
C1029 H1037 0.960 . S
C1030 C1028 1.381 . S
C1030 C1031 1.394 . S
C1030 H1038 0.930 . S
C1031 C1030 1.394 . S
C1031 C1032 1.383 . S
C1031 H1039 0.929 . S
C1032 C1031 1.383 . S
C1032 C1033 1.377 . S
C1033 H1017 0.930 . S
C1033 C1032 1.377 . S
C1033 C1034 1.379 . S
C1034 H1018 0.931 . S
C1034 C1028 1.383 . S
C1034 C1033 1.379 . S
H1035 C1029 0.959 . S
H1036 C1029 0.961 . S
H1037 C1029 0.960 . S
H1038 C1030 0.930 . S
H1039 C1031 0.929 . S
H1040 C1048 0.929 . S
H1041 C1050 0.930 . S
H1042 C1052 0.930 . S
H1043 C1055 0.929 . S
H1044 C1058 0.930 . S
H1045 C1060 0.960 . S
H1046 C1060 0.960 . S
H1047 C1060 0.960 . S
C1048 H1040 0.929 . S
C1048 C1049 1.377 . S
C1048 C1050 1.384 . S
C1049 C1048 1.377 . S
C1049 C1055 1.390 . S
C1050 H1041 0.930 . S
C1050 C1048 1.384 . S
C1050 C1051 1.372 . S
C1051 C1050 1.372 . S
C1051 C1052 1.400 . S
C1051 C1056 1.490 . S
C1052 H1042 0.930 . S
C1052 C1051 1.400 . S
C1052 C1055 1.386 . S
H1053 C1069 0.930 . S
H1054 C1070 0.931 . S
C1055 H1043 0.929 . S
C1055 C1049 1.390 . S
C1055 C1052 1.386 . S
C1056 C1051 1.490 . S
C1056 C1058 1.395 . S
C1056 C1059 1.403 . S
H1057 C1063 0.930 . S
C1058 H1044 0.930 . S
C1058 C1056 1.395 . S
C1058 C1061 1.403 . S
C1059 C1056 1.403 . S
C1059 C1060 1.524 . S
C1059 C1063 1.400 . S
C1060 H1045 0.960 . S
C1060 H1046 0.960 . S
C1060 H1047 0.960 . S
C1060 C1059 1.524 . S
C1061 C1058 1.403 . S
C1061 C1062 1.392 . S
C1061 C1065 1.495 . S
C1062 C1061 1.392 . S
C1062 C1063 1.385 . S
C1062 C1064 1.478 . S
C1063 H1057 0.930 . S
C1063 C1059 1.400 . S
C1063 C1062 1.385 . S
C1064 C1062 1.478 . S
C1064 C1066 1.381 . S
C1064 C1070 1.383 . S
C1065 C1061 1.495 . S
C1065 H1071 0.959 . S
C1065 H1072 0.961 . S
C1065 H1073 0.960 . S
C1066 C1064 1.381 . S
C1066 C1067 1.394 . S
C1066 H1074 0.930 . S
C1067 C1066 1.394 . S
C1067 C1068 1.383 . S
C1067 H1075 0.929 . S
C1068 C1067 1.383 . S
C1068 C1069 1.377 . S
C1069 H1053 0.930 . S
C1069 C1068 1.377 . S
C1069 C1070 1.379 . S
C1070 H1054 0.931 . S
C1070 C1064 1.383 . S
C1070 C1069 1.379 . S
H1071 C1065 0.959 . S
H1072 C1065 0.961 . S
H1073 C1065 0.960 . S
H1074 C1066 0.930 . S
H1075 C1067 0.929 . S
H1076 C1084 0.929 . S
H1077 C1086 0.930 . S
H1078 C1088 0.930 . S
H1079 C1091 0.929 . S
H1080 C1094 0.930 . S
H1081 C1096 0.960 . S
H1082 C1096 0.960 . S
H1083 C1096 0.960 . S
C1084 H1076 0.929 . S
C1084 C1085 1.377 . S
C1084 C1086 1.384 . S
C1085 C1084 1.377 . S
C1085 C1091 1.390 . S
C1086 H1077 0.930 . S
C1086 C1084 1.384 . S
C1086 C1087 1.372 . S
C1087 C1086 1.372 . S
C1087 C1088 1.400 . S
C1087 C1092 1.490 . S
C1088 H1078 0.930 . S
C1088 C1087 1.400 . S
C1088 C1091 1.386 . S
H1089 C1105 0.930 . S
H1090 C1106 0.931 . S
C1091 H1079 0.929 . S
C1091 C1085 1.390 . S
C1091 C1088 1.386 . S
C1092 C1087 1.490 . S
C1092 C1094 1.395 . S
C1092 C1095 1.403 . S
H1093 C1099 0.930 . S
C1094 H1080 0.930 . S
C1094 C1092 1.395 . S
C1094 C1097 1.403 . S
C1095 C1092 1.403 . S
C1095 C1096 1.524 . S
C1095 C1099 1.400 . S
C1096 H1081 0.960 . S
C1096 H1082 0.960 . S
C1096 H1083 0.960 . S
C1096 C1095 1.524 . S
C1097 C1094 1.403 . S
C1097 C1098 1.392 . S
C1097 C1101 1.495 . S
C1098 C1097 1.392 . S
C1098 C1099 1.385 . S
C1098 C1100 1.478 . S
C1099 H1093 0.930 . S
C1099 C1095 1.400 . S
C1099 C1098 1.385 . S
C1100 C1098 1.478 . S
C1100 C1102 1.381 . S
C1100 C1106 1.383 . S
C1101 C1097 1.495 . S
C1101 H1107 0.959 . S
C1101 H1108 0.961 . S
C1101 H1109 0.960 . S
C1102 C1100 1.381 . S
C1102 C1103 1.394 . S
C1102 H1110 0.930 . S
C1103 C1102 1.394 . S
C1103 C1104 1.383 . S
C1103 H1111 0.929 . S
C1104 C1103 1.383 . S
C1104 C1105 1.377 . S
C1105 H1089 0.930 . S
C1105 C1104 1.377 . S
C1105 C1106 1.379 . S
C1106 H1090 0.931 . S
C1106 C1100 1.383 . S
C1106 C1105 1.379 . S
H1107 C1101 0.959 . S
H1108 C1101 0.961 . S
H1109 C1101 0.960 . S
H1110 C1102 0.930 . S
H1111 C1103 0.929 . S
H1112 C1120 0.929 . S
H1113 C1122 0.930 . S
H1114 C1124 0.930 . S
H1115 C1127 0.929 . S
H1116 C1130 0.930 . S
H1117 C1132 0.960 . S
H1118 C1132 0.960 . S
H1119 C1132 0.960 . S
C1120 H1112 0.929 . S
C1120 C1121 1.377 . S
C1120 C1122 1.384 . S
C1121 C1120 1.377 . S
C1121 C1127 1.390 . S
C1122 H1113 0.930 . S
C1122 C1120 1.384 . S
C1122 C1123 1.372 . S
C1123 C1122 1.372 . S
C1123 C1124 1.400 . S
C1123 C1128 1.490 . S
C1124 H1114 0.930 . S
C1124 C1123 1.400 . S
C1124 C1127 1.386 . S
H1125 C1141 0.930 . S
H1126 C1142 0.931 . S
C1127 H1115 0.929 . S
C1127 C1121 1.390 . S
C1127 C1124 1.386 . S
C1128 C1123 1.490 . S
C1128 C1130 1.395 . S
C1128 C1131 1.403 . S
H1129 C1135 0.930 . S
C1130 H1116 0.930 . S
C1130 C1128 1.395 . S
C1130 C1133 1.403 . S
C1131 C1128 1.403 . S
C1131 C1132 1.524 . S
C1131 C1135 1.400 . S
C1132 H1117 0.960 . S
C1132 H1118 0.960 . S
C1132 H1119 0.960 . S
C1132 C1131 1.524 . S
C1133 C1130 1.403 . S
C1133 C1134 1.392 . S
C1133 C1137 1.495 . S
C1134 C1133 1.392 . S
C1134 C1135 1.385 . S
C1134 C1136 1.478 . S
C1135 H1129 0.930 . S
C1135 C1131 1.400 . S
C1135 C1134 1.385 . S
C1136 C1134 1.478 . S
C1136 C1138 1.381 . S
C1136 C1142 1.383 . S
C1137 C1133 1.495 . S
C1137 H1143 0.959 . S
C1137 H1144 0.961 . S
C1137 H1145 0.960 . S
C1138 C1136 1.381 . S
C1138 C1139 1.394 . S
C1138 H1146 0.930 . S
C1139 C1138 1.394 . S
C1139 C1140 1.383 . S
C1139 H1147 0.929 . S
C1140 C1139 1.383 . S
C1140 C1141 1.377 . S
C1141 H1125 0.930 . S
C1141 C1140 1.377 . S
C1141 C1142 1.379 . S
C1142 H1126 0.931 . S
C1142 C1136 1.383 . S
C1142 C1141 1.379 . S
H1143 C1137 0.959 . S
H1144 C1137 0.961 . S
H1145 C1137 0.960 . S
H1146 C1138 0.930 . S
H1147 C1139 0.929 . S
H1148 C1156 0.929 . S
H1149 C1158 0.930 . S
H1150 C1160 0.930 . S
H1151 C1163 0.929 . S
H1152 C1166 0.930 . S
H1153 C1168 0.960 . S
H1154 C1168 0.960 . S
H1155 C1168 0.960 . S
C1156 H1148 0.929 . S
C1156 C1157 1.377 . S
C1156 C1158 1.384 . S
C1157 C1156 1.377 . S
C1157 C1163 1.390 . S
C1158 H1149 0.930 . S
C1158 C1156 1.384 . S
C1158 C1159 1.372 . S
C1159 C1158 1.372 . S
C1159 C1160 1.400 . S
C1159 C1164 1.490 . S
C1160 H1150 0.930 . S
C1160 C1159 1.400 . S
C1160 C1163 1.386 . S
H1161 C1177 0.930 . S
H1162 C1178 0.931 . S
C1163 H1151 0.929 . S
C1163 C1157 1.390 . S
C1163 C1160 1.386 . S
C1164 C1159 1.490 . S
C1164 C1166 1.395 . S
C1164 C1167 1.403 . S
H1165 C1171 0.930 . S
C1166 H1152 0.930 . S
C1166 C1164 1.395 . S
C1166 C1169 1.403 . S
C1167 C1164 1.403 . S
C1167 C1168 1.524 . S
C1167 C1171 1.400 . S
C1168 H1153 0.960 . S
C1168 H1154 0.960 . S
C1168 H1155 0.960 . S
C1168 C1167 1.524 . S
C1169 C1166 1.403 . S
C1169 C1170 1.392 . S
C1169 C1173 1.495 . S
C1170 C1169 1.392 . S
C1170 C1171 1.385 . S
C1170 C1172 1.478 . S
C1171 H1165 0.930 . S
C1171 C1167 1.400 . S
C1171 C1170 1.385 . S
C1172 C1170 1.478 . S
C1172 C1174 1.381 . S
C1172 C1178 1.383 . S
C1173 C1169 1.495 . S
C1173 H1179 0.959 . S
C1173 H1180 0.961 . S
C1173 H1181 0.960 . S
C1174 C1172 1.381 . S
C1174 C1175 1.394 . S
C1174 H1182 0.930 . S
C1175 C1174 1.394 . S
C1175 C1176 1.383 . S
C1175 H1183 0.929 . S
C1176 C1175 1.383 . S
C1176 C1177 1.377 . S
C1177 H1161 0.930 . S
C1177 C1176 1.377 . S
C1177 C1178 1.379 . S
C1178 H1162 0.931 . S
C1178 C1172 1.383 . S
C1178 C1177 1.379 . S
H1179 C1173 0.959 . S
H1180 C1173 0.961 . S
H1181 C1173 0.960 . S
H1182 C1174 0.930 . S
H1183 C1175 0.929 . S
C329 C20 2.137 . S
C348 C31 2.132 . S
C365 C60 2.141 . S
C384 C71 2.143 . S
C401 C100 2.138 . S
C420 C111 2.138 . S
C437 C140 2.137 . S
C456 C151 2.135 . S
C473 C180 2.141 . S
C492 C191 2.135 . S
C509 C231 2.141 . S
C528 C220 2.137 . S
C545 C260 2.140 . S
C564 C271 2.129 . S
C581 C311 2.137 . S
C600 C300 2.127 . S
C617 C44 2.268 . S
C636 C25 2.278 . S
C653 C145 2.264 . S
C672 C84 2.276 . S
C689 C185 2.262 . S
C708 C204 2.242 . S
C725 C244 2.268 . S
C744 C305 2.259 . S
C761 C4 1.667 . S
C780 C225 1.654 . S
C797 C164 1.666 . S
C816 C65 1.659 . S
C833 C105 1.666 . S
C852 C284 1.655 . S
C869 C124 1.670 . S
C888 C265 1.671 . S
C905 C23 1.394 . S
C924 C143 1.415 . S
C941 C63 1.694 . S
C960 C103 1.684 . S
C977 C42 1.402 . S
C996 C82 1.417 . S
C1013 C122 1.694 . S
C1032 C2 1.700 . S
C1049 C183 1.398 . S
C1068 C303 1.391 . S
C1085 C223 1.693 . S
C1104 C263 1.685 . S
C1121 C202 1.404 . S
C1140 C242 1.404 . S
C1157 C282 1.699 . S
C1176 C162 1.695 . S
