# Generated by pormake.
# Topology wjx, (5)-cn, num edge types: 1
# Building blocks:
#     Node 0, Type 0, BuildingBlock: XOMCOT_clean_sbu_0, # of connection points: 5
#     Node 1, Type 0, BuildingBlock: XOMCOT_clean_sbu_0, # of connection points: 5
#     Node 2, Type 0, BuildingBlock: XOMCOT_clean_sbu_0, # of connection points: 5
#     Node 3, Type 0, BuildingBlock: XOMCOT_clean_sbu_0, # of connection points: 5
#     Node 4, Type 0, BuildingBlock: XOMCOT_clean_sbu_0, # of connection points: 5
#     Node 5, Type 0, BuildingBlock: XOMCOT_clean_sbu_0, # of connection points: 5
#     Node 6, Type 0, BuildingBlock: XOMCOT_clean_sbu_0, # of connection points: 5
#     Node 7, Type 0, BuildingBlock: XOMCOT_clean_sbu_0, # of connection points: 5
#     Node 8, Type 0, BuildingBlock: XOMCOT_clean_sbu_0, # of connection points: 5
#     Node 9, Type 0, BuildingBlock: XOMCOT_clean_sbu_0, # of connection points: 5
#     Node 10, Type 0, BuildingBlock: XOMCOT_clean_sbu_0, # of connection points: 5
#     Node 11, Type 0, BuildingBlock: XOMCOT_clean_sbu_0, # of connection points: 5
#     Edge 12, Type (0, 0), BuildingBlock: TEMPAE_clean_linker_10, # of connection points: 2
#     Edge 13, Type (0, 0), BuildingBlock: TEMPAE_clean_linker_10, # of connection points: 2
#     Edge 14, Type (0, 0), BuildingBlock: TEMPAE_clean_linker_10, # of connection points: 2
#     Edge 15, Type (0, 0), BuildingBlock: TEMPAE_clean_linker_10, # of connection points: 2
#     Edge 16, Type (0, 0), BuildingBlock: TEMPAE_clean_linker_10, # of connection points: 2
#     Edge 17, Type (0, 0), BuildingBlock: TEMPAE_clean_linker_10, # of connection points: 2
#     Edge 18, Type (0, 0), BuildingBlock: TEMPAE_clean_linker_10, # of connection points: 2
#     Edge 19, Type (0, 0), BuildingBlock: TEMPAE_clean_linker_10, # of connection points: 2
#     Edge 20, Type (0, 0), BuildingBlock: TEMPAE_clean_linker_10, # of connection points: 2
#     Edge 21, Type (0, 0), BuildingBlock: TEMPAE_clean_linker_10, # of connection points: 2
#     Edge 22, Type (0, 0), BuildingBlock: TEMPAE_clean_linker_10, # of connection points: 2
#     Edge 23, Type (0, 0), BuildingBlock: TEMPAE_clean_linker_10, # of connection points: 2
#     Edge 24, Type (0, 0), BuildingBlock: TEMPAE_clean_linker_10, # of connection points: 2
#     Edge 25, Type (0, 0), BuildingBlock: TEMPAE_clean_linker_10, # of connection points: 2
#     Edge 26, Type (0, 0), BuildingBlock: TEMPAE_clean_linker_10, # of connection points: 2
#     Edge 27, Type (0, 0), BuildingBlock: TEMPAE_clean_linker_10, # of connection points: 2
#     Edge 28, Type (0, 0), BuildingBlock: TEMPAE_clean_linker_10, # of connection points: 2
#     Edge 29, Type (0, 0), BuildingBlock: TEMPAE_clean_linker_10, # of connection points: 2
#     Edge 30, Type (0, 0), BuildingBlock: TEMPAE_clean_linker_10, # of connection points: 2
#     Edge 31, Type (0, 0), BuildingBlock: TEMPAE_clean_linker_10, # of connection points: 2
#     Edge 32, Type (0, 0), BuildingBlock: TEMPAE_clean_linker_10, # of connection points: 2
#     Edge 33, Type (0, 0), BuildingBlock: TEMPAE_clean_linker_10, # of connection points: 2
#     Edge 34, Type (0, 0), BuildingBlock: TEMPAE_clean_linker_10, # of connection points: 2
#     Edge 35, Type (0, 0), BuildingBlock: TEMPAE_clean_linker_10, # of connection points: 2
#     Edge 36, Type (0, 0), BuildingBlock: TEMPAE_clean_linker_10, # of connection points: 2
#     Edge 37, Type (0, 0), BuildingBlock: TEMPAE_clean_linker_10, # of connection points: 2
#     Edge 38, Type (0, 0), BuildingBlock: TEMPAE_clean_linker_10, # of connection points: 2
#     Edge 39, Type (0, 0), BuildingBlock: TEMPAE_clean_linker_10, # of connection points: 2
#     Edge 40, Type (0, 0), BuildingBlock: TEMPAE_clean_linker_10, # of connection points: 2
#     Edge 41, Type (0, 0), BuildingBlock: TEMPAE_clean_linker_10, # of connection points: 2
# Relax obj value: 0.154
# Max RMSD: 0.142
# Mean RMSD: 0.142
data_MOF--net-wjx--node1-XOMCOT_clean_sbu_0--edge1-TEMPAE_clean_linker_10
_symmetry_space_group_name_H-M    P1
_symmetry_Int_Tables_number       1
_symmetry_cell_setting            triclinic
loop_
_symmetry_equiv_pos_as_xyz
'x, y, z'
_cell_length_a     72.804326
_cell_length_b     72.7993
_cell_length_c     17.850549
_cell_angle_alpha  90.052577
_cell_angle_beta   90.028225
_cell_angle_gamma 120.01397
loop_
_atom_site_label
_atom_site_type_symbol
_atom_site_fract_x
_atom_site_fract_y
_atom_site_fract_z
_atom_type_partial_charge
Co0 Co 0.11372 0.42914 0.16191 0.0
C1 C 0.11762 0.42937 0.33042 0.0
C2 C 0.12401 0.40694 0.27595 0.0
C3 C 0.12486 0.40465 0.35218 0.0
N4 N 0.11967 0.42258 0.26188 0.0
N5 N 0.12086 0.41879 0.38631 0.0
H6 H 0.11282 0.44093 0.34048 0.0
H7 H 0.1259 0.39743 0.23337 0.0
C8 C 0.15819 0.43769 0.15314 0.0
O9 O 0.16165 0.44795 0.21693 0.0
N10 N 0.10751 0.43482 0.0621 0.0
C11 C 0.09672 0.44478 0.04418 0.0
C12 C 0.09533 0.44524 0.96729 0.0
C13 C 0.11262 0.42943 0.99618 0.0
N14 N 0.10537 0.43563 0.93724 0.0
C15 C 0.12026 0.46788 0.22752 0.0
C16 C 0.15439 0.49524 0.14024 0.0
C17 C 0.14579 0.50373 0.19054 0.0
C18 C 0.12861 0.48969 0.23488 0.0
C19 C 0.14564 0.47321 0.13519 0.0
N20 N 0.12913 0.45974 0.1802 0.0
H21 H 0.10571 0.4576 0.25653 0.0
H22 H 0.15144 0.46708 0.09185 0.0
H23 H 0.09033 0.45125 0.08426 0.0
H24 H 0.12114 0.42084 0.99138 0.0
O25 O 0.08608 0.42311 0.19501 0.0
O26 O 0.09313 0.39918 0.14785 0.0
O27 O 0.13987 0.42935 0.12244 0.0
C28 C 0.07919 0.40354 0.17564 0.0
H29 H 0.12794 0.3933 0.38031 0.0
H30 H 0.08777 0.45236 0.93588 0.0
H31 H 0.16727 0.50547 0.10324 0.0
H32 H 0.12071 0.49542 0.27158 0.0
Co33 Co 0.68341 0.11363 0.46376 0.0
C34 C 0.68548 0.1176 0.62952 0.0
C35 C 0.71633 0.13185 0.57881 0.0
C36 C 0.71879 0.13301 0.65532 0.0
N37 N 0.69549 0.12225 0.56267 0.0
N38 N 0.69941 0.12396 0.68723 0.0
H39 H 0.6684 0.10884 0.63569 0.0
H40 H 0.72886 0.13686 0.53783 0.0
C41 C 0.70899 0.15494 0.37996 0.0
O42 O 0.69143 0.15266 0.35041 0.0
N43 N 0.67162 0.10442 0.36291 0.0
C44 C 0.65236 0.08784 0.34506 0.0
C45 C 0.65071 0.08534 0.2686 0.0
C46 C 0.68173 0.11095 0.29623 0.0
N47 N 0.66914 0.09999 0.23789 0.0
C48 C 0.64505 0.11481 0.47467 0.0
C49 C 0.66219 0.15746 0.50592 0.0
C50 C 0.6403 0.14505 0.49236 0.0
C51 C 0.63178 0.12332 0.47951 0.0
C52 C 0.67504 0.14813 0.50053 0.0
N53 N 0.66651 0.12731 0.47986 0.0
H54 H 0.63786 0.09797 0.46735 0.0
H55 H 0.69185 0.15774 0.5115 0.0
H56 H 0.64043 0.07744 0.3844 0.0
H57 H 0.69826 0.12278 0.29 0.0
O58 O 0.66346 0.08616 0.50291 0.0
O59 O 0.695 0.09463 0.45712 0.0
O60 O 0.70835 0.1406 0.4231 0.0
C61 C 0.67718 0.08032 0.48707 0.0
H62 H 0.73371 0.13962 0.68518 0.0
H63 H 0.63701 0.07355 0.23802 0.0
H64 H 0.66932 0.17418 0.51894 0.0
H65 H 0.61483 0.11285 0.47347 0.0
Co66 Co 0.57261 0.68506 0.81439 0.0
C67 C 0.57439 0.68789 0.98262 0.0
C68 C 0.59508 0.71758 0.92934 0.0
C69 C 0.59705 0.72058 1.00574 0.0
N70 N 0.58046 0.69721 0.91457 0.0
N71 N 0.58409 0.70188 0.03896 0.0
H72 H 0.56329 0.67133 0.99178 0.0
H73 H 0.60375 0.72948 0.8872 0.0
C74 C 0.56441 0.72148 0.81235 0.0
O75 O 0.55523 0.71508 0.87801 0.0
N76 N 0.56545 0.67339 0.71433 0.0
C77 C 0.55145 0.65318 0.69541 0.0
C78 C 0.55005 0.65168 0.61847 0.0
C79 C 0.57271 0.68384 0.64888 0.0
N80 N 0.56344 0.67093 0.58947 0.0
C81 C 0.53525 0.65164 0.88139 0.0
C82 C 0.50595 0.65986 0.81463 0.0
C83 C 0.49843 0.64122 0.85753 0.0
C84 C 0.51372 0.63739 0.89063 0.0
C85 C 0.52782 0.67329 0.80397 0.0
N86 N 0.54232 0.66954 0.8392 0.0
H87 H 0.54618 0.64727 0.90447 0.0
H88 H 0.53282 0.68603 0.76416 0.0
H89 H 0.54267 0.64045 0.73472 0.0
H90 H 0.58413 0.70062 0.64483 0.0
O91 O 0.5793 0.66354 0.84205 0.0
O92 O 0.60243 0.6947 0.79433 0.0
O93 O 0.57174 0.711 0.77852 0.0
C94 C 0.59857 0.6764 0.82052 0.0
H95 H 0.60751 0.73524 0.03472 0.0
H96 H 0.54006 0.63751 0.58621 0.0
H97 H 0.49525 0.6639 0.78698 0.0
H98 H 0.50946 0.62291 0.9205 0.0
Co99 Co 0.88928 0.57185 0.13426 0.0
C100 C 0.88495 0.5709 0.3026 0.0
C101 C 0.87749 0.59266 0.24884 0.0
C102 C 0.87654 0.59478 0.32508 0.0
N103 N 0.88256 0.57754 0.2343 0.0
N104 N 0.88123 0.58109 0.3588 0.0
H105 H 0.8904 0.55983 0.31219 0.0
H106 H 0.87527 0.60201 0.20658 0.0
C107 C 0.84451 0.5622 0.12392 0.0
O108 O 0.8411 0.5516 0.1868 0.0
N109 N 0.8963 0.56704 0.03446 0.0
C110 C 0.90788 0.55791 0.01667 0.0
C111 C 0.9094 0.55756 0.93983 0.0
C112 C 0.89085 0.57205 0.96848 0.0
N113 N 0.89865 0.5664 0.90966 0.0
C114 C 0.88387 0.5332 0.19583 0.0
C115 C 0.851 0.50578 0.10354 0.0
C116 C 0.86056 0.49758 0.15057 0.0
C117 C 0.87689 0.51157 0.19817 0.0
C118 C 0.85852 0.52766 0.10288 0.0
N119 N 0.87456 0.54115 0.14974 0.0
H120 H 0.89789 0.54363 0.22732 0.0
H121 H 0.85236 0.53377 0.06076 0.0
H122 H 0.91466 0.55185 0.0568 0.0
H123 H 0.88162 0.57991 0.96355 0.0
O124 O 0.91697 0.57845 0.16897 0.0
O125 O 0.90933 0.60208 0.12305 0.0
O126 O 0.86292 0.57106 0.0939 0.0
C127 C 0.92344 0.59804 0.15137 0.0
H128 H 0.873 0.60578 0.35352 0.0
H129 H 0.91749 0.55097 0.90853 0.0
H130 H 0.83879 0.4956 0.06416 0.0
H131 H 0.88494 0.50596 0.23465 0.0
Co132 Co 0.31602 0.88856 0.49303 0.0
C133 C 0.31256 0.88415 0.66137 0.0
C134 C 0.28304 0.87536 0.60712 0.0
C135 C 0.27989 0.87428 0.68336 0.0
N136 N 0.30348 0.88133 0.59287 0.0
N137 N 0.29847 0.8798 0.71738 0.0
H138 H 0.3292 0.89037 0.67131 0.0
H139 H 0.27133 0.87261 0.56468 0.0
C140 C 0.28177 0.8433 0.48 0.0
O141 O 0.28895 0.8398 0.54276 0.0
N142 N 0.3279 0.89599 0.39335 0.0
C143 C 0.34855 0.90817 0.37561 0.0
C144 C 0.35039 0.90976 0.29873 0.0
C145 C 0.31745 0.89026 0.3273 0.0
N146 N 0.33084 0.89845 0.26849 0.0
C147 C 0.34978 0.88432 0.55589 0.0
C148 C 0.34583 0.85203 0.46375 0.0
C149 C 0.36336 0.862 0.5119 0.0
C150 C 0.36491 0.87799 0.55944 0.0
C151 C 0.33091 0.85886 0.46207 0.0
N152 N 0.33274 0.87462 0.50887 0.0
H153 H 0.35288 0.8982 0.58725 0.0
H154 H 0.31878 0.85241 0.41939 0.0
H155 H 0.36138 0.9153 0.41577 0.0
H156 H 0.3004 0.88056 0.32227 0.0
O157 O 0.33654 0.91633 0.52852 0.0
O158 O 0.30515 0.9081 0.48211 0.0
O159 O 0.29095 0.86192 0.45154 0.0
C160 C 0.32314 0.92243 0.511 0.0
H161 H 0.26515 0.87009 0.71158 0.0
H162 H 0.36503 0.91827 0.26745 0.0
H163 H 0.34441 0.84006 0.42437 0.0
H164 H 0.37835 0.88635 0.59673 0.0
Co165 Co 0.42848 0.31463 0.84085 0.0
C166 C 0.42937 0.31182 1.00923 0.0
C167 C 0.41115 0.28164 0.95554 0.0
C168 C 0.40909 0.2786 0.03176 0.0
N169 N 0.42415 0.30244 0.94096 0.0
N170 N 0.42057 0.29759 0.0654 0.0
H171 H 0.43813 0.32866 0.01876 0.0
H172 H 0.40304 0.26954 0.91336 0.0
C173 C 0.44158 0.28215 0.82753 0.0
O174 O 0.45377 0.2912 0.88607 0.0
N175 N 0.43192 0.32616 0.74096 0.0
C176 C 0.43929 0.34666 0.72322 0.0
C177 C 0.43912 0.34842 0.64645 0.0
C178 C 0.42747 0.31571 0.67496 0.0
N179 N 0.43175 0.32897 0.61627 0.0
C180 C 0.46683 0.34873 0.90179 0.0
C181 C 0.49444 0.34591 0.8026 0.0
C182 C 0.5023 0.36308 0.85239 0.0
C183 C 0.48824 0.36414 0.90321 0.0
C184 C 0.47278 0.33079 0.80288 0.0
N185 N 0.45923 0.33196 0.85339 0.0
H186 H 0.45623 0.35144 0.93566 0.0
H187 H 0.46677 0.31891 0.75927 0.0
H188 H 0.44454 0.35947 0.76333 0.0
H189 H 0.42102 0.29877 0.66989 0.0
O190 O 0.42104 0.33491 0.87716 0.0
O191 O 0.39793 0.30316 0.83278 0.0
O192 O 0.43039 0.28961 0.80018 0.0
C193 C 0.4015 0.32117 0.86128 0.0
H194 H 0.39956 0.26363 0.06021 0.0
H195 H 0.44439 0.36293 0.61515 0.0
H196 H 0.50466 0.34492 0.76065 0.0
H197 H 0.49356 0.37739 0.94156 0.0
Co198 Co 0.57268 0.88872 0.53441 0.0
C199 C 0.57492 0.8879 0.36613 0.0
C200 C 0.58961 0.87213 0.41887 0.0
C201 C 0.5915 0.87107 0.34249 0.0
N202 N 0.57842 0.88192 0.43411 0.0
N203 N 0.58227 0.88102 0.30951 0.0
H204 H 0.56784 0.89764 0.35734 0.0
H205 H 0.59643 0.8665 0.46043 0.0
C206 C 0.56203 0.84359 0.55099 0.0
O207 O 0.55034 0.8394 0.49035 0.0
N208 N 0.56775 0.89583 0.63406 0.0
C209 C 0.55554 0.90426 0.65198 0.0
C210 C 0.55465 0.90528 0.72885 0.0
C211 C 0.57444 0.89216 0.70002 0.0
N212 N 0.56654 0.89768 0.75889 0.0
C213 C 0.53375 0.88104 0.46599 0.0
C214 C 0.50656 0.84986 0.56366 0.0
C215 C 0.498 0.85728 0.50909 0.0
C216 C 0.51196 0.87295 0.45949 0.0
C217 C 0.52856 0.85835 0.56794 0.0
N218 N 0.54195 0.87345 0.51822 0.0
H219 H 0.54398 0.89462 0.43266 0.0
H220 H 0.53482 0.85354 0.61399 0.0
H221 H 0.54741 0.90882 0.61191 0.0
H222 H 0.58429 0.88496 0.70493 0.0
O223 O 0.57873 0.91618 0.49944 0.0
O224 O 0.60278 0.90909 0.54543 0.0
O225 O 0.57215 0.86258 0.57645 0.0
C226 C 0.5984 0.92298 0.51715 0.0
H227 H 0.59962 0.86413 0.31344 0.0
H228 H 0.54586 0.91106 0.76033 0.0
H229 H 0.49644 0.83812 0.60438 0.0
H230 H 0.50624 0.88 0.419 0.0
Co231 Co 0.68626 0.57216 0.84833 0.0
C232 C 0.68914 0.57388 0.68007 0.0
C233 C 0.71964 0.58915 0.73275 0.0
C234 C 0.72254 0.59092 0.65637 0.0
N235 N 0.69869 0.57771 0.74803 0.0
N236 N 0.70334 0.58134 0.62346 0.0
H237 H 0.67228 0.56649 0.67125 0.0
H238 H 0.73209 0.59622 0.77432 0.0
C239 C 0.7206 0.56139 0.86381 0.0
O240 O 0.71289 0.54973 0.80316 0.0
N241 N 0.67431 0.56742 0.94801 0.0
C242 C 0.65363 0.55547 0.96579 0.0
C243 C 0.65171 0.55456 0.04262 0.0
C244 C 0.6847 0.57394 0.01403 0.0
N245 N 0.67123 0.56617 0.07278 0.0
C246 C 0.65446 0.53316 0.78192 0.0
C247 C 0.65859 0.50619 0.88032 0.0
C248 C 0.64208 0.49756 0.82763 0.0
C249 C 0.64034 0.5114 0.77746 0.0
C250 C 0.67243 0.52814 0.88282 0.0
N251 N 0.67061 0.54142 0.83289 0.0
H252 H 0.65112 0.54337 0.74836 0.0
H253 H 0.68379 0.53448 0.92804 0.0
H254 H 0.6409 0.54751 0.92564 0.0
H255 H 0.70176 0.58355 0.01907 0.0
O256 O 0.66493 0.57832 0.81326 0.0
O257 O 0.69619 0.6023 0.8589 0.0
O258 O 0.71185 0.57152 0.89006 0.0
C259 C 0.67792 0.59798 0.83068 0.0
H260 H 0.73757 0.59921 0.62724 0.0
H261 H 0.63711 0.54594 0.074 0.0
H262 H 0.66034 0.4962 0.92126 0.0
H263 H 0.62724 0.50568 0.73829 0.0
Co264 Co 0.11475 0.68544 0.19722 0.0
C265 C 0.11903 0.6889 0.02883 0.0
C266 C 0.12808 0.71846 0.08317 0.0
C267 C 0.12911 0.72161 1.00693 0.0
N268 N 0.122 0.698 0.09737 0.0
N269 N 0.12343 0.70301 0.97286 0.0
H270 H 0.11263 0.67224 0.01882 0.0
H271 H 0.13091 0.73021 0.12563 0.0
C272 C 0.15988 0.71994 0.21106 0.0
O273 O 0.16361 0.71272 0.1488 0.0
N274 N 0.10729 0.67355 0.29689 0.0
C275 C 0.09515 0.6529 0.31463 0.0
C276 C 0.09351 0.65106 0.3915 0.0
C277 C 0.11294 0.68401 0.36295 0.0
N278 N 0.10475 0.67062 0.42174 0.0
C279 C 0.11965 0.65206 0.13434 0.0
C280 C 0.15151 0.65601 0.22868 0.0
C281 C 0.14187 0.63856 0.18003 0.0
C282 C 0.12614 0.63706 0.13121 0.0
C283 C 0.14459 0.67087 0.22963 0.0
N284 N 0.129 0.66901 0.18189 0.0
H285 H 0.10584 0.64887 0.1024 0.0
H286 H 0.15077 0.68293 0.27257 0.0
H287 H 0.08808 0.64006 0.27446 0.0
H288 H 0.12261 0.70107 0.36801 0.0
O289 O 0.08711 0.6647 0.16137 0.0
O290 O 0.09498 0.69601 0.20774 0.0
O291 O 0.1412 0.71069 0.23897 0.0
C292 C 0.0808 0.67794 0.17884 0.0
H293 H 0.13336 0.73637 0.97875 0.0
H294 H 0.085 0.63643 0.42279 0.0
H295 H 0.16327 0.65742 0.269 0.0
H296 H 0.11806 0.62372 0.09333 0.0
Co297 Co 0.4305 0.1123 0.56426 0.0
C298 C 0.4298 0.11404 0.39819 0.0
C299 C 0.41977 0.13436 0.44859 0.0
C300 C 0.41892 0.13582 0.37185 0.0
N301 N 0.42673 0.12082 0.46512 0.0
N302 N 0.42513 0.12298 0.34021 0.0
H303 H 0.43538 0.10285 0.39201 0.0
H304 H 0.41527 0.14241 0.48921 0.0
C305 C 0.44375 0.15105 0.66145 0.0
O306 O 0.45726 0.14728 0.69741 0.0
N307 N 0.43387 0.1033 0.66413 0.0
C308 C 0.44478 0.09346 0.6825 0.0
C309 C 0.44445 0.09111 0.75892 0.0
C310 C 0.42597 0.10561 0.73007 0.0
N311 N 0.43286 0.09899 0.78903 0.0
C312 C 0.46897 0.11288 0.52762 0.0
C313 C 0.49662 0.15592 0.54108 0.0
C314 C 0.50492 0.14228 0.53332 0.0
C315 C 0.49067 0.12065 0.52252 0.0
C316 C 0.47453 0.14738 0.54495 0.0
N317 N 0.46108 0.12587 0.54506 0.0
H318 H 0.45861 0.0961 0.51987 0.0
H319 H 0.4685 0.15818 0.54837 0.0
H320 H 0.45257 0.08822 0.64389 0.0
H321 H 0.4164 0.1131 0.73526 0.0
O322 O 0.42221 0.08448 0.52619 0.0
O323 O 0.39986 0.09363 0.57333 0.0
O324 O 0.43273 0.13919 0.60702 0.0
C325 C 0.40285 0.07902 0.54319 0.0
H326 H 0.41359 0.14519 0.34162 0.0
H327 H 0.45236 0.08432 0.79016 0.0
H328 H 0.50701 0.1729 0.54599 0.0
H329 H 0.49623 0.10962 0.51137 0.0
Co330 Co 0.31768 0.429 0.88869 0.0
C331 C 0.31496 0.42772 0.72057 0.0
C332 C 0.28508 0.40738 0.77332 0.0
C333 C 0.28215 0.40562 0.69689 0.0
N334 N 0.30553 0.42166 0.78844 0.0
N335 N 0.30097 0.41835 0.66401 0.0
H336 H 0.33161 0.43852 0.71174 0.0
H337 H 0.27308 0.39874 0.81523 0.0
C338 C 0.28156 0.43763 0.89264 0.0
O339 O 0.28813 0.44723 0.82773 0.0
N340 N 0.32939 0.43568 0.98872 0.0
C341 C 0.34974 0.44925 1.00742 0.0
C342 C 0.35132 0.45067 0.08431 0.0
C343 C 0.31892 0.42871 0.05428 0.0
N344 N 0.33197 0.43774 0.11353 0.0
C345 C 0.35126 0.4666 0.8232 0.0
C346 C 0.34311 0.49567 0.89223 0.0
C347 C 0.36171 0.50337 0.84895 0.0
C348 C 0.36552 0.48817 0.8148 0.0
C349 C 0.32972 0.47378 0.90215 0.0
N350 N 0.33339 0.4594 0.86561 0.0
H351 H 0.35559 0.45572 0.79927 0.0
H352 H 0.31705 0.46866 0.94232 0.0
H353 H 0.3625 0.45775 0.96794 0.0
H354 H 0.30205 0.41771 0.05854 0.0
O355 O 0.33902 0.42215 0.85984 0.0
O356 O 0.30776 0.39904 0.90683 0.0
O357 O 0.29184 0.42992 0.92544 0.0
C358 C 0.326 0.40281 0.88035 0.0
H359 H 0.26746 0.3954 0.66765 0.0
H360 H 0.3656 0.4604 0.11641 0.0
H361 H 0.33904 0.50624 0.92072 0.0
H362 H 0.37998 0.49252 0.78462 0.0
Co363 Co 0.88811 0.3184 0.21484 0.0
C364 C 0.88438 0.3161 0.04905 0.0
C365 C 0.87039 0.28531 0.1001 0.0
C366 C 0.86909 0.28277 0.02361 0.0
N367 N 0.8799 0.30616 0.11598 0.0
N368 N 0.87797 0.30212 0.99149 0.0
H369 H 0.89292 0.33318 0.04275 0.0
H370 H 0.8654 0.27282 0.14123 0.0
C371 C 0.84628 0.2928 0.2947 0.0
O372 O 0.84806 0.31046 0.32132 0.0
N373 N 0.89696 0.3303 0.31584 0.0
C374 C 0.91414 0.34914 0.33383 0.0
C375 C 0.91644 0.35084 0.4103 0.0
C376 C 0.88982 0.32043 0.38265 0.0
N377 N 0.90107 0.33281 0.44101 0.0
C378 C 0.88578 0.35631 0.20788 0.0
C379 C 0.84439 0.33862 0.15827 0.0
C380 C 0.85585 0.36031 0.17554 0.0
C381 C 0.87686 0.36915 0.19914 0.0
C382 C 0.85393 0.32614 0.1691 0.0
N383 N 0.87411 0.33492 0.1972 0.0
H384 H 0.90229 0.36379 0.22199 0.0
H385 H 0.84505 0.30943 0.15564 0.0
H386 H 0.92505 0.36072 0.2945 0.0
H387 H 0.87745 0.30412 0.38904 0.0
O388 O 0.91558 0.33855 0.17628 0.0
O389 O 0.90731 0.30713 0.22294 0.0
O390 O 0.86116 0.29335 0.25489 0.0
C391 C 0.92156 0.32499 0.19301 0.0
H392 H 0.8624 0.26781 0.99394 0.0
H393 H 0.92866 0.36426 0.44085 0.0
H394 H 0.82825 0.33141 0.13771 0.0
H395 H 0.88648 0.38603 0.20977 0.0
C396 C 0.04711 0.36884 0.14037 0.0
C397 C 0.05639 0.38757 0.18285 0.0
C398 C 0.02498 0.35505 0.14084 0.0
C399 C 0.01196 0.36008 0.18539 0.0
C400 C 0.02148 0.37835 0.23158 0.0
C401 C 0.04351 0.3919 0.22937 0.0
C402 C 0.01545 0.33577 0.0907 0.0
C403 C 0.0083 0.38424 0.28064 0.0
C404 C 0.95638 0.34648 0.13036 0.0
C405 C 0.94397 0.33076 0.18261 0.0
C406 C 0.9784 0.35501 0.12708 0.0
C407 C 0.98838 0.34788 0.17811 0.0
C408 C 0.97578 0.33107 0.228 0.0
C409 C 0.95363 0.32259 0.22939 0.0
C410 C 0.99111 0.37268 0.07221 0.0
C411 C 0.98579 0.32304 0.28333 0.0
H412 H 0.05701 0.36543 0.1043 0.0
H413 H 0.05062 0.40622 0.26306 0.0
H414 H 0.0035 0.32159 0.12163 0.0
H415 H 0.00715 0.33833 0.04319 0.0
H416 H 0.02768 0.33247 0.06769 0.0
H417 H 0.01823 0.39778 0.3184 0.0
H418 H 0.99863 0.38866 0.24497 0.0
H419 H 0.99718 0.37049 0.31529 0.0
H420 H 0.94893 0.35268 0.09349 0.0
H421 H 0.94408 0.31049 0.27003 0.0
H422 H 0.00258 0.36962 0.04169 0.0
H423 H 1.00036 0.38785 0.10311 0.0
H424 H 0.98085 0.37463 0.03067 0.0
H425 H 0.99807 0.32063 0.25571 0.0
H426 H 0.97386 0.30789 0.3097 0.0
H427 H 0.99375 0.33503 0.32819 0.0
C428 C 0.67959 0.04812 0.45242 0.0
C429 C 0.67162 0.05802 0.49897 0.0
C430 C 0.67114 0.02598 0.45524 0.0
C431 C 0.65455 0.01363 0.50629 0.0
C432 C 0.64767 0.02389 0.55709 0.0
C433 C 0.65617 0.04589 0.55242 0.0
C434 C 0.67893 0.01568 0.4002 0.0
C435 C 0.63025 0.01148 0.61315 0.0
C436 C 0.61011 0.95828 0.45991 0.0
C437 C 0.61452 0.94565 0.50744 0.0
C438 C 0.62378 0.98026 0.45559 0.0
C439 C 0.64229 0.99001 0.5006 0.0
C440 C 0.64742 0.97721 0.54596 0.0
C441 C 0.63349 0.95511 0.54859 0.0
C442 C 0.61777 0.99319 0.40574 0.0
C443 C 0.66695 0.98697 0.59481 0.0
H444 H 0.69149 0.05746 0.41086 0.0
H445 H 0.65014 0.05354 0.58911 0.0
H446 H 0.68136 0.00347 0.42829 0.0
H447 H 0.6668 0.00757 0.35589 0.0
H448 H 0.69401 0.02745 0.37307 0.0
H449 H 0.62847 0.02197 0.65418 0.0
H450 H 0.61495 0.00205 0.58321 0.0
H451 H 0.63346 1.00019 0.64422 0.0
H452 H 0.59561 0.95102 0.42718 0.0
H453 H 0.63697 0.94541 0.58539 0.0
H454 H 0.63139 0.00407 0.37015 0.0
H455 H 0.61352 0.0031 0.44083 0.0
H456 H 0.60408 0.98306 0.36884 0.0
H457 H 0.68098 0.99875 0.56277 0.0
H458 H 0.67035 0.97483 0.61814 0.0
H459 H 0.66465 0.99551 0.64212 0.0
C460 C 0.68047 0.6327 0.86445 0.0
C461 C 0.67142 0.61412 0.82124 0.0
C462 C 0.672 0.64638 0.86304 0.0
C463 C 0.65427 0.64139 0.81676 0.0
C464 C 0.64609 0.62341 0.76927 0.0
C465 C 0.65467 0.60995 0.77248 0.0
C466 C 0.68116 0.66536 0.91455 0.0
C467 C 0.62738 0.61758 0.71835 0.0
C468 C 0.61143 0.65348 0.87467 0.0
C469 C 0.61477 0.66985 0.82542 0.0
C470 C 0.625 0.64504 0.87542 0.0
C471 C 0.64228 0.65295 0.82492 0.0
C472 C 0.64638 0.67021 0.77746 0.0
C473 C 0.6326 0.67857 0.77856 0.0
C474 C 0.62013 0.62685 0.92772 0.0
C475 C 0.6646 0.67906 0.72276 0.0
H476 H 0.69343 0.63599 0.9022 0.0
H477 H 0.6478 0.59575 0.73815 0.0
H478 H 0.68311 0.67958 0.88466 0.0
H479 H 0.67007 0.66222 0.96178 0.0
H480 H 0.69675 0.66893 0.93794 0.0
H481 H 0.62454 0.60461 0.67884 0.0
H482 H 0.61288 0.61231 0.75261 0.0
H483 H 0.62988 0.63157 0.6855 0.0
H484 H 0.59783 0.64687 0.9118 0.0
H485 H 0.63523 0.69124 0.74041 0.0
H486 H 0.63455 0.63004 0.95939 0.0
H487 H 0.61498 0.61214 0.89468 0.0
H488 H 0.6074 0.62393 0.96836 0.0
H489 H 0.67936 0.68173 0.75066 0.0
H490 H 0.66745 0.69421 0.69757 0.0
H491 H 0.66106 0.66742 0.67701 0.0
C492 C 0.04851 0.68009 0.21422 0.0
C493 C 0.0583 0.67184 0.16844 0.0
C494 C 0.02635 0.67155 0.21189 0.0
C495 C 0.01389 0.65461 0.16208 0.0
C496 C 0.02401 0.64737 0.11215 0.0
C497 C 0.04602 0.65596 0.11633 0.0
C498 C 0.01618 0.67972 0.26601 0.0
C499 C 0.01146 0.62955 0.05741 0.0
C500 C 0.95869 0.61037 0.20995 0.0
C501 C 0.94601 0.6144 0.16132 0.0
C502 C 0.98064 0.62417 0.21433 0.0
C503 C 0.99029 0.64242 0.16818 0.0
C504 C 0.97742 0.64721 0.12182 0.0
C505 C 0.95535 0.63316 0.1192 0.0
C506 C 0.99365 0.61853 0.26531 0.0
C507 C 0.98708 0.66647 0.07174 0.0
H508 H 0.05796 0.69235 0.25463 0.0
H509 H 0.05358 0.64973 0.08012 0.0
H510 H 0.00393 0.68199 0.23741 0.0
H511 H 0.00813 0.66787 0.3111 0.0
H512 H 0.02801 0.69496 0.29221 0.0
H513 H 0.02184 0.62742 0.01697 0.0
H514 H 0.00204 0.61448 0.08853 0.0
H515 H 1.00016 0.63259 0.02559 0.0
H516 H 0.95151 0.59603 0.24344 0.0
H517 H 0.94558 0.63635 0.08156 0.0
H518 H 0.0046 0.63241 0.29989 0.0
H519 H 0.00348 0.614 0.23105 0.0
H520 H 0.98358 0.60512 0.30321 0.0
H521 H 0.99895 0.68067 0.10292 0.0
H522 H 0.97489 0.66974 0.04802 0.0
H523 H 0.99549 0.66387 0.02471 0.0
C524 C 0.3674 0.04756 0.57542 0.0
C525 C 0.38569 0.0569 0.53087 0.0
C526 C 0.35307 0.02554 0.57184 0.0
C527 C 0.35717 0.01277 0.52227 0.0
C528 C 0.37476 0.02252 0.47319 0.0
C529 C 0.38881 0.0444 0.47838 0.0
C530 C 0.33443 0.0158 0.62467 0.0
C531 C 0.37968 0.00965 0.41882 0.0
C532 C 0.34535 0.95744 0.57179 0.0
C533 C 0.32896 0.94487 0.52173 0.0
C534 C 0.35357 0.97939 0.57621 0.0
C535 C 0.34537 0.98917 0.52883 0.0
C536 C 0.3279 0.97639 0.48142 0.0
C537 C 0.31982 0.9543 0.47859 0.0
C538 C 0.37203 0.99228 0.62821 0.0
C539 C 0.31863 0.98617 0.43034 0.0
H540 H 0.36491 0.05719 0.616 0.0
H541 H 0.40278 0.05162 0.44297 0.0
H542 H 0.31994 0.00364 0.59551 0.0
H543 H 0.33779 0.00775 0.67098 0.0
H544 H 0.33121 0.02792 0.64932 0.0
H545 H 0.39242 0.01983 0.37877 0.0
H546 H 0.38489 0.99991 0.45034 0.0
H547 H 0.36531 0.99862 0.38655 0.0
H548 H 0.35227 0.95018 0.60612 0.0
H549 H 0.30712 0.94462 0.43988 0.0
H550 H 0.36908 0.00331 0.66214 0.0
H551 H 0.38659 0.00201 0.59474 0.0
H552 H 0.37507 0.98212 0.66678 0.0
H553 H 0.31672 0.99846 0.46041 0.0
H554 H 0.30301 0.9741 0.40728 0.0
H555 H 0.32962 0.99408 0.38284 0.0
C556 C 0.34984 0.39049 0.83008 0.0
C557 C 0.33223 0.38636 0.87404 0.0
C558 C 0.35756 0.37631 0.82778 0.0
C559 C 0.34755 0.35752 0.87104 0.0
C560 C 0.32914 0.35273 0.91291 0.0
C561 C 0.32162 0.36721 0.91374 0.0
C562 C 0.37711 0.38203 0.78175 0.0
C563 C 0.31801 0.33286 0.95964 0.0
C564 C 0.36747 0.31951 0.82351 0.0
C565 C 0.38479 0.32678 0.87245 0.0
C566 C 0.35407 0.3283 0.82554 0.0
C567 C 0.35803 0.34447 0.8783 0.0
C568 C 0.37445 0.35047 0.9317 0.0
C569 C 0.38771 0.34169 0.92767 0.0
C570 C 0.33675 0.32145 0.76768 0.0
C571 C 0.37911 0.3674 0.98965 0.0
H572 H 0.35795 0.40512 0.79838 0.0
H573 H 0.30796 0.36392 0.94764 0.0
H574 H 0.39053 0.38533 0.81953 0.0
H575 H 0.37435 0.36858 0.74506 0.0
H576 H 0.38186 0.39623 0.74621 0.0
H577 H 0.30237 0.32992 0.98018 0.0
H578 H 0.31565 0.31887 0.92695 0.0
H579 H 0.32801 0.33436 1.00878 0.0
H580 H 0.36523 0.30802 0.78062 0.0
H581 H 0.40096 0.34715 0.9662 0.0
H582 H 0.34175 0.33395 0.72425 0.0
H583 H 0.32196 0.31937 0.79342 0.0
H584 H 0.33328 0.3064 0.73976 0.0
H585 H 0.38599 0.38308 0.96174 0.0
H586 H 0.39049 0.36824 0.03288 0.0
H587 H 0.3643 0.3644 0.01788 0.0
C588 C 0.09177 0.42946 0.80753 0.0
C589 C 0.10779 0.43275 0.85857 0.0
C590 C 0.09397 0.42699 0.73058 0.0
C591 C 0.11282 0.42814 0.70363 0.0
C592 C 0.12908 0.43147 0.75492 0.0
C593 C 0.12629 0.43356 0.83183 0.0
C594 C 0.07609 0.42307 0.67813 0.0
C595 C 0.14953 0.43308 0.72845 0.0
C596 C 0.11111 0.40354 0.51348 0.0
C597 C 0.11914 0.4212 0.46587 0.0
C598 C 0.10904 0.40557 0.59088 0.0
C599 C 0.11543 0.42582 0.62177 0.0
C600 C 0.12381 0.44377 0.57408 0.0
C601 C 0.1254 0.44121 0.49667 0.0
C602 C 0.09968 0.38598 0.63942 0.0
C603 C 0.13109 0.46568 0.60482 0.0
H604 H 0.07734 0.42855 0.82805 0.0
H605 H 0.1388 0.43632 0.87096 0.0
H606 H 0.08172 0.43596 0.63605 0.0
H607 H 0.07069 0.40801 0.64708 0.0
H608 H 0.0623 0.42216 0.70817 0.0
H609 H 0.16062 0.43573 0.77539 0.0
H610 H 0.14616 0.41835 0.69857 0.0
H611 H 0.15751 0.44636 0.68807 0.0
H612 H 0.106 0.388 0.48986 0.0
H613 H 0.13183 0.45493 0.4602 0.0
H614 H 0.08509 0.38381 0.66714 0.0
H615 H 0.11102 0.38784 0.68432 0.0
H616 H 0.09563 0.37142 0.60687 0.0
H617 H 0.11755 0.46617 0.63121 0.0
H618 H 0.13791 0.47808 0.56074 0.0
H619 H 0.14322 0.46958 0.649 0.0
C620 C 0.67711 0.1204 0.7969 0.0
C621 C 0.6948 0.12035 0.76622 0.0
C622 C 0.67283 0.11735 0.87417 0.0
C623 C 0.68641 0.11388 0.92165 0.0
C624 C 0.70415 0.11357 0.89073 0.0
C625 C 0.70816 0.11689 0.81361 0.0
C626 C 0.65386 0.11797 0.9051 0.0
C627 C 0.71885 0.1096 0.93907 0.0
C628 C 0.68732 0.12393 0.13146 0.0
C629 C 0.67405 0.1034 0.15906 0.0
C630 C 0.69131 0.12762 0.05429 0.0
C631 C 0.68201 0.11032 1.00356 0.0
C632 C 0.66883 0.08953 0.03127 0.0
C633 C 0.66493 0.08635 0.10856 0.0
C634 C 0.70532 0.15004 0.027 0.0
C635 C 0.6589 0.07061 0.97929 0.0
H636 H 0.66685 0.12323 0.76061 0.0
H637 H 0.72164 0.11644 0.79011 0.0
H638 H 0.64288 0.10265 0.93244 0.0
H639 H 0.65905 0.13051 0.94859 0.0
H640 H 0.64501 0.12111 0.86096 0.0
H641 H 0.7319 0.10977 0.90628 0.0
H642 H 0.72591 0.12186 0.98355 0.0
H643 H 0.70979 0.094 0.96732 0.0
H644 H 0.69418 0.13718 0.17014 0.0
H645 H 0.65487 0.07043 0.12967 0.0
H646 H 0.69645 0.1543 0.98668 0.0
H647 H 0.71922 0.15129 0.99683 0.0
H648 H 0.71112 0.16176 0.07355 0.0
H649 H 0.64874 0.07257 0.93747 0.0
H650 H 0.64911 0.05548 1.00977 0.0
H651 H 0.67146 0.0695 0.9479 0.0
C652 C 0.54932 0.66825 0.46205 0.0
C653 C 0.56666 0.67639 0.51117 0.0
C654 C 0.55215 0.6729 0.38515 0.0
C655 C 0.5729 0.68553 0.35625 0.0
C656 C 0.5905 0.69378 0.40574 0.0
C657 C 0.58713 0.68934 0.48283 0.0
C658 C 0.53291 0.66429 0.33485 0.0
C659 C 0.61291 0.7069 0.37703 0.0
C660 C 0.58003 0.67935 0.148 0.0
C661 C 0.58135 0.69778 0.11828 0.0
C662 C 0.57774 0.67539 0.2255 0.0
C663 C 0.57614 0.68993 0.27417 0.0
C664 C 0.57722 0.70845 0.24414 0.0
C665 C 0.58011 0.71228 0.16669 0.0
C666 C 0.57717 0.65571 0.25533 0.0
C667 C 0.57499 0.72405 0.29363 0.0
H668 H 0.53348 0.65841 0.48422 0.0
H669 H 0.60053 0.69545 0.52083 0.0
H670 H 0.53284 0.67746 0.30388 0.0
H671 H 0.53349 0.65341 0.29261 0.0
H672 H 0.51783 0.65554 0.36662 0.0
H673 H 0.62486 0.71193 0.42265 0.0
H674 H 0.61621 0.69762 0.33524 0.0
H675 H 0.61486 0.72125 0.34819 0.0
H676 H 0.58123 0.66827 0.11058 0.0
H677 H 0.58093 0.72643 0.14349 0.0
H678 H 0.5617 0.64531 0.28278 0.0
H679 H 0.58968 0.66014 0.29848 0.0
H680 H 0.57955 0.64651 0.21053 0.0
H681 H 0.55956 0.71589 0.32344 0.0
H682 H 0.57591 0.73754 0.2614 0.0
H683 H 0.58764 0.73045 0.33687 0.0
C684 C 0.91213 0.57276 0.77991 0.0
C685 C 0.89597 0.56894 0.83096 0.0
C686 C 0.90967 0.57487 0.7029 0.0
C687 C 0.89043 0.57282 0.67593 0.0
C688 C 0.87402 0.56896 0.72722 0.0
C689 C 0.87706 0.56723 0.80417 0.0
C690 C 0.92771 0.57938 0.65042 0.0
C691 C 0.85318 0.56641 0.70072 0.0
C692 C 0.89086 0.59663 0.48571 0.0
C693 C 0.88332 0.57893 0.43826 0.0
C694 C 0.89319 0.59486 0.56306 0.0
C695 C 0.88758 0.57483 0.59408 0.0
C696 C 0.87974 0.55684 0.54657 0.0
C697 C 0.87788 0.55915 0.46917 0.0
C698 C 0.90196 0.61449 0.61142 0.0
C699 C 0.87333 0.53516 0.57752 0.0
H700 H 0.92687 0.57438 0.80046 0.0
H701 H 0.86444 0.56405 0.8433 0.0
H702 H 0.92246 0.56646 0.60847 0.0
H703 H 0.93254 0.59429 0.61922 0.0
H704 H 0.94177 0.5809 0.68046 0.0
H705 H 0.84202 0.56343 0.74768 0.0
H706 H 0.85593 0.58089 0.67057 0.0
H707 H 0.84556 0.55299 0.66058 0.0
H708 H 0.89537 0.612 0.46199 0.0
H709 H 0.87185 0.54541 0.43282 0.0
H710 H 0.91678 0.61727 0.63917 0.0
H711 H 0.89049 0.61226 0.6563 0.0
H712 H 0.90545 0.62886 0.57872 0.0
H713 H 0.8872 0.53534 0.60402 0.0
H714 H 0.8669 0.52268 0.53354 0.0
H715 H 0.86112 0.53087 0.62166 0.0
C716 C 0.30884 0.87632 0.16298 0.0
C717 C 0.32556 0.89558 0.18976 0.0
C718 C 0.30404 0.87313 0.08604 0.0
C719 C 0.31604 0.88973 0.0347 0.0
C720 C 0.33274 0.90932 0.06167 0.0
C721 C 0.33739 0.91193 0.13867 0.0
C722 C 0.2863 0.85191 0.05959 0.0
C723 C 0.34567 0.92756 1.00918 0.0
C724 C 0.31768 0.87748 0.82789 0.0
C725 C 0.3027 0.88203 0.79691 0.0
C726 C 0.32191 0.87955 0.90529 0.0
C727 C 0.31116 0.88669 0.9528 0.0
C728 C 0.29608 0.89139 0.92171 0.0
C729 C 0.29193 0.88886 0.84434 0.0
C730 C 0.33788 0.87408 0.93624 0.0
C731 C 0.28454 0.89941 0.97002 0.0
H732 H 0.29981 0.86356 0.20213 0.0
H733 H 0.35015 0.92693 0.1592 0.0
H734 H 0.27415 0.85402 0.02947 0.0
H735 H 0.29259 0.84477 0.01943 0.0
H736 H 0.2785 0.84064 0.10657 0.0
H737 H 0.35782 0.9419 0.03921 0.0
H738 H 0.35379 0.92284 0.96725 0.0
H739 H 0.33509 0.93174 0.97795 0.0
H740 H 0.32587 0.87199 0.79157 0.0
H741 H 0.28055 0.89268 0.8206 0.0
H742 H 0.33042 0.86182 0.98047 0.0
H743 H 0.35124 0.88829 0.96262 0.0
H744 H 0.34437 0.86809 0.89228 0.0
H745 H 0.27567 0.8878 0.01494 0.0
H746 H 0.27322 0.90226 0.93731 0.0
H747 H 0.29616 0.91446 0.99773 0.0
C748 C 0.40459 0.28992 0.19164 0.0
C749 C 0.42201 0.30192 0.14472 0.0
C750 C 0.40573 0.29395 0.26897 0.0
C751 C 0.42489 0.31018 0.30045 0.0
C752 C 0.44259 0.32225 0.25339 0.0
C753 C 0.44087 0.31809 0.17601 0.0
C754 C 0.38637 0.28098 0.31687 0.0
C755 C 0.46338 0.33949 0.28484 0.0
C756 C 0.42344 0.33462 0.48729 0.0
C757 C 0.42943 0.32376 0.5376 0.0
C758 C 0.42165 0.33017 0.41019 0.0
C759 C 0.4263 0.31472 0.38244 0.0
C760 C 0.43234 0.30367 0.43302 0.0
C761 C 0.43364 0.3082 0.51008 0.0
C762 C 0.41475 0.342 0.35844 0.0
C763 C 0.43772 0.28731 0.40559 0.0
H764 H 0.38989 0.2776 0.16753 0.0
H765 H 0.45442 0.32723 0.13998 0.0
H766 H 0.39004 0.27264 0.36123 0.0
H767 H 0.3817 0.29159 0.34529 0.0
H768 H 0.37266 0.26903 0.2837 0.0
H769 H 0.47578 0.34708 0.24103 0.0
H770 H 0.46106 0.35189 0.31198 0.0
H771 H 0.4692 0.33281 0.32857 0.0
H772 H 0.41993 0.34647 0.50853 0.0
H773 H 0.43851 0.29997 0.54873 0.0
H774 H 0.4004 0.33059 0.3268 0.0
H775 H 0.42738 0.35115 0.31682 0.0
H776 H 0.41118 0.35313 0.38914 0.0
H777 H 0.42397 0.27444 0.37541 0.0
H778 H 0.44221 0.28019 0.45207 0.0
H779 H 0.45108 0.29469 0.36526 0.0
C780 C 0.55213 0.88869 0.88704 0.0
C781 C 0.5692 0.8951 0.83753 0.0
C782 C 0.55441 0.88627 0.96397 0.0
C783 C 0.57441 0.89083 0.99256 0.0
C784 C 0.59177 0.89742 0.94279 0.0
C785 C 0.58888 0.89922 0.86571 0.0
C786 C 0.53536 0.87868 0.01457 0.0
C787 C 0.61344 0.90284 0.97111 0.0
C788 C 0.58338 0.90283 0.20169 0.0
C789 C 0.58069 0.88371 0.23017 0.0
C790 C 0.58189 0.90556 0.12433 0.0
C791 C 0.57706 0.88855 0.07445 0.0
C792 C 0.57421 0.86916 0.10316 0.0
C793 C 0.57631 0.86707 0.1805 0.0
C794 C 0.5855 0.92664 0.09595 0.0
C795 C 0.56853 0.85046 0.05238 0.0
H796 H 0.53683 0.88523 0.86519 0.0
H797 H 0.60212 0.90434 0.82756 0.0
H798 H 0.53239 0.86406 0.0443 0.0
H799 H 0.53846 0.89085 0.05783 0.0
H800 H 0.52079 0.87526 0.98325 0.0
H801 H 0.62538 0.90815 0.92547 0.0
H802 H 0.61893 0.91561 0.01381 0.0
H803 H 0.61265 0.88882 0.99878 0.0
H804 H 0.58699 0.91577 0.23996 0.0
H805 H 0.57401 0.85221 0.20261 0.0
H806 H 0.57085 0.92454 0.0689 0.0
H807 H 0.59816 0.93295 0.0528 0.0
H808 H 0.5901 0.93856 0.14151 0.0
H809 H 0.55339 0.84585 0.02298 0.0
H810 H 0.5668 0.83647 0.08353 0.0
H811 H 0.58089 0.85485 1.00885 0.0
C812 C 0.71122 0.57519 0.4947 0.0
C813 C 0.69904 0.57969 0.54418 0.0
C814 C 0.70706 0.57313 0.41734 0.0
C815 C 0.69065 0.57617 0.38847 0.0
C816 C 0.67853 0.5811 0.4382 0.0
C817 C 0.6827 0.58252 0.51559 0.0
C818 C 0.71998 0.56731 0.36671 0.0
C819 C 0.66122 0.58493 0.40963 0.0
C820 C 0.69213 0.58827 0.17992 0.0
C821 C 0.67645 0.56869 0.15143 0.0
C822 C 0.69676 0.59104 0.25706 0.0
C823 C 0.6858 0.57365 0.30654 0.0
C824 C 0.67023 0.55374 0.27763 0.0
C825 C 0.66559 0.55158 0.20065 0.0
C826 C 0.71315 0.61262 0.28577 0.0
C827 C 0.65857 0.53466 0.32794 0.0
H828 H 0.72371 0.5728 0.51698 0.0
H829 H 0.67344 0.58623 0.5538 0.0
H830 H 0.70935 0.55225 0.33696 0.0
H831 H 0.72813 0.57972 0.32345 0.0
H832 H 0.73208 0.56536 0.39803 0.0
H833 H 0.65393 0.58957 0.45513 0.0
H834 H 0.66771 0.59764 0.36669 0.0
H835 H 0.6486 0.57037 0.38226 0.0
H836 H 0.70039 0.60153 0.14197 0.0
H837 H 0.65366 0.53637 0.17853 0.0
H838 H 0.72626 0.61165 0.3136 0.0
H839 H 0.70592 0.61817 0.32841 0.0
H840 H 0.71993 0.62461 0.2403 0.0
H841 H 0.67009 0.53152 0.35784 0.0
H842 H 0.64736 0.52016 0.29635 0.0
H843 H 0.64953 0.53782 0.37106 0.0
C844 C 0.09117 0.66414 0.55143 0.0
C845 C 0.10757 0.67591 0.50046 0.0
C846 C 0.09375 0.6688 0.62844 0.0
C847 C 0.11335 0.68543 0.65552 0.0
C848 C 0.13 0.69738 0.60428 0.0
C849 C 0.12684 0.69259 0.52733 0.0
C850 C 0.07545 0.65594 0.68081 0.0
C851 C 0.15125 0.71504 0.63086 0.0
C852 C 0.11439 0.70961 0.84598 0.0
C853 C 0.12113 0.69875 0.89334 0.0
C854 C 0.11181 0.70545 0.76861 0.0
C855 C 0.11638 0.69028 0.73745 0.0
C856 C 0.12343 0.67944 0.7849 0.0
C857 C 0.12554 0.68368 0.86229 0.0
C858 C 0.10389 0.71708 0.72036 0.0
C859 C 0.12877 0.66338 0.75388 0.0
H860 H 0.07616 0.65142 0.53079 0.0
H861 H 0.13964 0.70157 0.48826 0.0
H862 H 0.08006 0.64773 0.72269 0.0
H863 H 0.07135 0.66657 0.7121 0.0
H864 H 0.06109 0.64387 0.65067 0.0
H865 H 0.16255 0.72282 0.58394 0.0
H866 H 0.1492 0.72724 0.66098 0.0
H867 H 0.15831 0.70869 0.67105 0.0
H868 H 0.11068 0.72106 0.86978 0.0
H869 H 0.13097 0.67543 0.89856 0.0
H870 H 0.08884 0.70553 0.69257 0.0
H871 H 0.11554 0.72594 0.67551 0.0
H872 H 0.1011 0.72844 0.75314 0.0
H873 H 0.11451 0.65009 0.72741 0.0
H874 H 0.13467 0.65681 0.79781 0.0
H875 H 0.14105 0.67079 0.7097 0.0
C876 C 0.43152 0.13582 0.20948 0.0
C877 C 0.42589 0.1193 0.261 0.0
C878 C 0.43209 0.13251 0.13207 0.0
C879 C 0.42652 0.11206 0.1051 0.0
C880 C 0.42056 0.09524 0.15684 0.0
C881 C 0.42052 0.09911 0.23414 0.0
C882 C 0.439 0.15101 0.07925 0.0
C883 C 0.41422 0.07314 0.1305 0.0
C884 C 0.41231 0.10034 0.89753 0.0
C885 C 0.43101 0.10225 0.86791 0.0
C886 C 0.41046 0.10319 0.97476 0.0
C887 C 0.4279 0.10854 0.02316 0.0
C888 C 0.44692 0.11082 0.99308 0.0
C889 C 0.44817 0.1075 0.9162 0.0
C890 C 0.38981 0.10032 1.00469 0.0
C891 C 0.46608 0.11699 0.04201 0.0
H892 H 0.43588 0.15149 0.23 0.0
H893 H 0.41588 0.08623 0.27361 0.0
H894 H 0.4534 0.15382 0.04832 0.0
H895 H 0.42644 0.14738 0.03706 0.0
H896 H 0.44257 0.16585 0.10901 0.0
H897 H 0.40902 0.06159 0.1774 0.0
H898 H 0.40111 0.06762 0.08917 0.0
H899 H 0.42778 0.07324 0.1018 0.0
H900 H 0.39901 0.09622 0.86046 0.0
H901 H 0.46281 0.10941 0.89343 0.0
H902 H 0.39246 0.11527 0.03093 0.0
H903 H 0.38358 0.08796 0.04889 0.0
H904 H 0.37759 0.09567 0.96019 0.0
H905 H 0.47097 0.13239 0.0699 0.0
H906 H 0.47978 0.11842 1.00975 0.0
H907 H 0.46208 0.10501 0.08675 0.0
C908 C 0.32336 0.42185 0.55521 0.0
C909 C 0.30517 0.42108 0.58478 0.0
C910 C 0.32735 0.42401 0.47773 0.0
C911 C 0.31309 0.42604 0.42895 0.0
C912 C 0.29483 0.42556 0.45886 0.0
C913 C 0.29095 0.42279 0.53629 0.0
C914 C 0.34673 0.42395 0.44801 0.0
C915 C 0.27956 0.42827 0.40924 0.0
C916 C 0.33515 0.45224 0.24057 0.0
C917 C 0.32656 0.43479 0.19186 0.0
C918 C 0.33055 0.44967 0.31752 0.0
C919 C 0.31748 0.42904 0.34686 0.0
C920 C 0.30877 0.41133 0.29778 0.0
C921 C 0.31318 0.41447 0.22063 0.0
C922 C 0.33966 0.46902 0.36738 0.0
C923 C 0.29517 0.38906 0.32699 0.0
H924 H 0.33421 0.4203 0.59271 0.0
H925 H 0.277 0.42238 0.55941 0.0
H926 H 0.34198 0.4113 0.4052 0.0
H927 H 0.35741 0.43928 0.42018 0.0
H928 H 0.35575 0.42136 0.49294 0.0
H929 H 0.26631 0.42788 0.44143 0.0
H930 H 0.28809 0.44362 0.37903 0.0
H931 H 0.2728 0.41554 0.36632 0.0
H932 H 0.34532 0.46797 0.21804 0.0
H933 H 0.30672 0.40099 0.18293 0.0
H934 H 0.35036 0.46816 0.40969 0.0
H935 H 0.32672 0.46957 0.39827 0.0
H936 H 0.34873 0.484 0.33527 0.0
H937 H 0.30421 0.38549 0.36894 0.0
H938 H 0.28982 0.37699 0.28166 0.0
H939 H 0.281 0.38758 0.35577 0.0
C940 C 0.9147 0.33646 0.57011 0.0
C941 C 0.89758 0.3279 0.51982 0.0
C942 C 0.91152 0.33247 0.64731 0.0
C943 C 0.89067 0.31973 0.67516 0.0
C944 C 0.8733 0.311 0.62469 0.0
C945 C 0.87698 0.3151 0.54759 0.0
C946 C 0.93049 0.34181 0.69904 0.0
C947 C 0.85082 0.29744 0.65221 0.0
C948 C 0.88402 0.29309 0.86403 0.0
C949 C 0.88118 0.30668 0.91237 0.0
C950 C 0.88704 0.29712 0.78686 0.0
C951 C 0.88713 0.31515 0.75693 0.0
C952 C 0.88425 0.32895 0.80531 0.0
C953 C 0.88141 0.3246 0.88255 0.0
C954 C 0.89033 0.28215 0.73745 0.0
C955 C 0.88412 0.34828 0.77545 0.0
H956 H 0.93067 0.34613 0.54891 0.0
H957 H 0.86369 0.30868 0.50909 0.0
H958 H 0.9289 0.35203 0.74166 0.0
H959 H 0.93125 0.32893 0.7295 0.0
H960 H 0.94566 0.35142 0.6685 0.0
H961 H 0.83906 0.29207 0.60587 0.0
H962 H 0.84916 0.28328 0.68166 0.0
H963 H 0.84698 0.30649 0.69321 0.0
H964 H 0.88424 0.27942 0.88677 0.0
H965 H 0.87903 0.33504 0.91951 0.0
H966 H 0.90596 0.29088 0.70916 0.0
H967 H 0.87803 0.27558 0.693 0.0
H968 H 0.88968 0.26875 0.76942 0.0
H969 H 0.8995 0.35905 0.74808 0.0
H970 H 0.88132 0.35721 0.82019 0.0
H971 H 0.87158 0.34348 0.73219 0.0
C972 C 0.15507 0.5375 0.12334 0.0
C973 C 0.15262 0.52671 0.19097 0.0
C974 C 0.15721 0.55778 0.12256 0.0
C975 C 0.15688 0.56747 0.19101 0.0
C976 C 0.15621 0.55741 0.25961 0.0
C977 C 0.15406 0.53713 0.25875 0.0
C978 C 0.15797 0.56798 0.04817 0.0
C979 C 0.15602 0.56724 0.33387 0.0
C980 C 0.16702 0.62426 0.18907 0.0
C981 C 0.14624 0.62071 0.18515 0.0
C982 C 0.17088 0.60714 0.19151 0.0
C983 C 0.15354 0.58607 0.19043 0.0
C984 C 0.13256 0.58248 0.18806 0.0
C985 C 0.1292 0.59979 0.18567 0.0
C986 C 0.19344 0.61154 0.19417 0.0
C987 C 0.11358 0.5603 0.18755 0.0
H988 H 0.15385 0.52953 0.0707 0.0
H989 H 0.15251 0.529 0.31124 0.0
H990 H 0.14241 0.56682 0.03733 0.0
H991 H 0.17016 0.58506 0.04894 0.0
H992 H 0.16145 0.56017 1.00117 0.0
H993 H 0.15897 0.55925 0.38153 0.0
H994 H 0.16815 0.58434 0.3349 0.0
H995 H 0.14032 0.56597 0.34214 0.0
H996 H 0.18023 0.6404 0.18873 0.0
H997 H 0.11309 0.59693 0.18455 0.0
H998 H 0.1969 0.60514 0.14304 0.0
H999 H 0.19565 0.60338 0.24285 0.0
H1000 H 0.20511 0.62878 0.19814 0.0
H1001 H 0.11427 0.55146 0.13799 0.0
H1002 H 0.09831 0.56028 0.18609 0.0
H1003 H 0.11376 0.55156 0.23815 0.0
C1004 C 0.62565 0.1665 0.55154 0.0
C1005 C 0.62575 0.15384 0.49247 0.0
C1006 C 0.60879 0.17064 0.55962 0.0
C1007 C 0.59163 0.16157 0.50823 0.0
C1008 C 0.59283 0.15059 0.44465 0.0
C1009 C 0.60997 0.14709 0.43722 0.0
C1010 C 0.60859 0.18327 0.62627 0.0
C1011 C 0.57499 0.14063 0.38821 0.0
C1012 C 0.535 0.13746 0.57429 0.0
C1013 C 0.52808 0.14987 0.53693 0.0
C1014 C 0.55602 0.14196 0.56917 0.0
C1015 C 0.57083 0.15974 0.52724 0.0
C1016 C 0.5645 0.17354 0.49531 0.0
C1017 C 0.54309 0.16833 0.4999 0.0
C1018 C 0.56193 0.12672 0.60418 0.0
C1019 C 0.57995 0.1931 0.45264 0.0
H1020 H 0.63792 0.17198 0.59402 0.0
H1021 H 0.61033 0.1378 0.39028 0.0
H1022 H 0.60172 0.19337 0.61115 0.0
H1023 H 0.59862 0.17227 0.67115 0.0
H1024 H 0.62481 0.1935 0.64914 0.0
H1025 H 0.57924 0.13432 0.33857 0.0
H1026 H 0.56079 0.12736 0.41499 0.0
H1027 H 0.57053 0.15234 0.36884 0.0
H1028 H 0.52366 0.12359 0.60535 0.0
H1029 H 0.53797 0.17816 0.47152 0.0
H1030 H 0.57605 0.13538 0.64067 0.0
H1031 H 0.56608 0.1188 0.55953 0.0
H1032 H 0.54883 0.11428 0.63814 0.0
H1033 H 0.59595 0.2007 0.47865 0.0
H1034 H 0.5745 0.20486 0.44988 0.0
H1035 H 0.58142 0.18861 0.39448 0.0
C1036 C 0.46779 0.60938 0.91943 0.0
C1037 C 0.4752 0.62479 0.86243 0.0
C1038 C 0.44758 0.59127 0.91618 0.0
C1039 C 0.43332 0.58934 0.85863 0.0
C1040 C 0.43956 0.60617 0.80682 0.0
C1041 C 0.46056 0.62323 0.80761 0.0
C1042 C 0.44209 0.57393 0.97324 0.0
C1043 C 0.42458 0.60622 0.74844 0.0
C1044 C 0.39358 0.53426 0.78793 0.0
C1045 C 0.37804 0.52666 0.84454 0.0
C1046 C 0.41148 0.55462 0.79133 0.0
C1047 C 0.41305 0.56883 0.84858 0.0
C1048 C 0.39612 0.56234 0.90009 0.0
C1049 C 0.3793 0.54123 0.89921 0.0
C1050 C 0.42897 0.56038 0.73469 0.0
C1051 C 0.39569 0.5772 0.9582 0.0
H1052 H 0.478 0.61085 0.96583 0.0
H1053 H 0.46537 0.63484 0.76327 0.0
H1054 H 0.43238 0.5753 0.01833 0.0
H1055 H 0.43288 0.55793 0.94772 0.0
H1056 H 0.45651 0.57523 0.99967 0.0
H1057 H 0.42576 0.62203 0.74708 0.0
H1058 H 0.42942 0.60364 0.69226 0.0
H1059 H 0.40779 0.59402 0.75858 0.0
H1060 H 0.39238 0.52414 0.7416 0.0
H1061 H 0.36762 0.53629 0.94333 0.0
H1062 H 0.44491 0.56982 0.7605 0.0
H1063 H 0.42748 0.56994 0.68935 0.0
H1064 H 0.42799 0.54606 0.70853 0.0
H1065 H 0.39828 0.57247 0.01455 0.0
H1066 H 0.37976 0.57575 0.95911 0.0
H1067 H 0.40771 0.59406 0.94816 0.0
C1068 C 0.84595 0.38527 0.23175 0.0
C1069 C 0.84684 0.37445 0.16823 0.0
C1070 C 0.84354 0.40313 0.22499 0.0
C1071 C 0.84224 0.41046 0.15279 0.0
C1072 C 0.84111 0.39835 0.08883 0.0
C1073 C 0.84345 0.38042 0.09734 0.0
C1074 C 0.84463 0.41537 0.29478 0.0
C1075 C 0.83953 0.40548 1.01096 0.0
C1076 C 0.83419 0.45836 0.14632 0.0
C1077 C 0.85528 0.47508 0.14528 0.0
C1078 C 0.82949 0.43709 0.14606 0.0
C1079 C 0.84628 0.43254 0.14429 0.0
C1080 C 0.86752 0.44942 0.13999 0.0
C1081 C 0.87172 0.4704 0.14053 0.0
C1082 C 0.80667 0.41954 0.15046 0.0
C1083 C 0.88595 0.44537 0.13725 0.0
H1084 H 0.84865 0.38062 0.28653 0.0
H1085 H 0.84433 0.37212 0.04822 0.0
H1086 H 0.86043 0.42996 0.2981 0.0
H1087 H 0.83251 0.42034 0.29305 0.0
H1088 H 0.84225 0.40593 0.34643 0.0
H1089 H 0.83453 0.39245 0.96941 0.0
H1090 H 0.82815 0.4114 1.00936 0.0
H1091 H 0.85527 0.41873 0.99393 0.0
H1092 H 0.82144 0.46193 0.14972 0.0
H1093 H 0.88802 0.48327 0.13783 0.0
H1094 H 0.80358 0.41196 0.20644 0.0
H1095 H 0.80341 0.40708 0.10823 0.0
H1096 H 0.79545 0.4255 0.14156 0.0
H1097 H 0.88655 0.43758 0.18987 0.0
H1098 H 0.90142 0.46021 0.13009 0.0
H1099 H 0.88385 0.43448 0.09034 0.0
C1100 C 0.46474 0.85 0.57615 0.0
C1101 C 0.47511 0.85093 0.50882 0.0
C1102 C 0.44456 0.84807 0.57601 0.0
C1103 C 0.43453 0.84712 0.50693 0.0
C1104 C 0.44419 0.84637 0.43907 0.0
C1105 C 0.46435 0.84827 0.44084 0.0
C1106 C 0.43476 0.8488 0.64968 0.0
C1107 C 0.43401 0.84523 0.36421 0.0
C1108 C 0.3777 0.83686 0.5082 0.0
C1109 C 0.38121 0.85764 0.50762 0.0
C1110 C 0.39486 0.83303 0.50742 0.0
C1111 C 0.4159 0.85041 0.5053 0.0
C1112 C 0.41941 0.87136 0.50277 0.0
C1113 C 0.40207 0.87469 0.50394 0.0
C1114 C 0.39051 0.8105 0.51026 0.0
C1115 C 0.44156 0.89036 0.49956 0.0
H1116 H 0.47295 0.85218 0.62895 0.0
H1117 H 0.47211 0.84859 0.38864 0.0
H1118 H 0.43592 0.86451 0.6561 0.0
H1119 H 0.41769 0.83659 0.65114 0.0
H1120 H 0.44284 0.8463 0.69815 0.0
H1121 H 0.4418 0.84147 0.31793 0.0
H1122 H 0.41692 0.83308 0.3651 0.0
H1123 H 0.43521 0.86074 0.35208 0.0
H1124 H 0.36159 0.82365 0.51103 0.0
H1125 H 0.40485 0.89077 0.5018 0.0
H1126 H 0.3971 0.80798 0.56279 0.0
H1127 H 0.39854 0.80746 0.46302 0.0
H1128 H 0.37328 0.79874 0.50783 0.0
H1129 H 0.45064 0.89072 0.54999 0.0
H1130 H 0.44152 0.90559 0.49648 0.0
H1131 H 0.45009 0.88919 0.44996 0.0
C1132 C 0.61579 0.4637 0.76382 0.0
C1133 C 0.62513 0.47483 0.83024 0.0
C1134 C 0.5973 0.44371 0.7654 0.0
C1135 C 0.58798 0.43454 0.83513 0.0
C1136 C 0.59824 0.44493 0.90242 0.0
C1137 C 0.61663 0.46498 0.8992 0.0
C1138 C 0.58691 0.43316 0.69233 0.0
C1139 C 0.58893 0.43563 0.97796 0.0
C1140 C 0.528 0.40187 0.84409 0.0
C1141 C 0.52437 0.38106 0.84639 0.0
C1142 C 0.54859 0.41928 0.83959 0.0
C1143 C 0.56611 0.41588 0.83771 0.0
C1144 C 0.56259 0.3949 0.83915 0.0
C1145 C 0.5417 0.37768 0.84297 0.0
C1146 C 0.55158 0.44136 0.83715 0.0
C1147 C 0.58089 0.39069 0.83777 0.0
H1148 H 0.62248 0.47102 0.71031 0.0
H1149 H 0.62357 0.47346 0.9509 0.0
H1150 H 0.58208 0.41609 0.69327 0.0
H1151 H 0.57234 0.43418 0.68417 0.0
H1152 H 0.59755 0.44076 0.64364 0.0
H1153 H 0.6003 0.44397 0.02432 0.0
H1154 H 0.57454 0.43689 0.98758 0.0
H1155 H 0.58403 0.41855 0.97991 0.0
H1156 H 0.51462 0.40453 0.84518 0.0
H1157 H 0.53891 0.3616 0.8448 0.0
H1158 H 0.56046 0.44972 0.78598 0.0
H1159 H 0.56108 0.45067 0.8861 0.0
H1160 H 0.53625 0.44123 0.83753 0.0
H1161 H 0.59095 0.39823 0.78787 0.0
H1162 H 0.57547 0.37346 0.83687 0.0
H1163 H 0.59102 0.39788 0.88789 0.0
C1164 C 0.2551 0.44988 0.90472 0.0
C1165 C 0.26297 0.43688 0.92981 0.0
C1166 C 0.2378 0.44973 0.94026 0.0
C1167 C 0.22789 0.43598 1.0017 0.0
C1168 C 0.23555 0.42256 0.02658 0.0
C1169 C 0.2531 0.4233 0.99076 0.0
C1170 C 0.23036 0.46454 0.91279 0.0
C1171 C 0.22524 0.40747 0.0912 0.0
C1172 C 0.19684 0.44982 0.13969 0.0
C1173 C 0.17589 0.43694 0.11481 0.0
C1174 C 0.21386 0.44966 0.10335 0.0
C1175 C 0.20988 0.43608 0.04115 0.0
C1176 C 0.18875 0.42288 0.01616 0.0
C1177 C 0.17203 0.42358 0.05294 0.0
C1178 C 0.23617 0.46424 0.13102 0.0
C1179 C 0.18382 0.40801 0.95057 0.0
H1180 H 0.26268 0.4605 0.85794 0.0
H1181 H 0.25901 0.41312 1.01025 0.0
H1182 H 0.21343 0.45534 0.89616 0.0
H1183 H 0.23161 0.47541 0.95865 0.0
H1184 H 0.23973 0.4742 0.8642 0.0
H1185 H 0.23257 0.39752 0.10188 0.0
H1186 H 0.22653 0.41652 0.14289 0.0
H1187 H 0.20809 0.39691 0.07969 0.0
H1188 H 0.20001 0.46029 0.18715 0.0
H1189 H 0.1559 0.41354 0.03342 0.0
H1190 H 0.24591 0.47507 0.08534 0.0
H1191 H 0.2437 0.45484 0.14752 0.0
H1192 H 0.23661 0.47395 0.17976 0.0
H1193 H 0.19173 0.4172 0.89939 0.0
H1194 H 0.16651 0.39833 0.93947 0.0
H1195 H 0.19012 0.39718 0.96128 0.0
C1196 C 0.82295 0.2538 0.27062 0.0
C1197 C 0.82671 0.27218 0.30918 0.0
C1198 C 0.80407 0.2344 0.2811 0.0
C1199 C 0.7886 0.23325 0.33189 0.0
C1200 C 0.79243 0.25166 0.37191 0.0
C1201 C 0.81137 0.2709 0.35986 0.0
C1202 C 0.80057 0.2152 0.23704 0.0
C1203 C 0.77644 0.25107 0.42713 0.0
C1204 C 0.73115 0.18904 0.3105 0.0
C1205 C 0.72955 0.17457 0.36559 0.0
C1206 C 0.75031 0.20805 0.29833 0.0
C1207 C 0.76831 0.21285 0.34274 0.0
C1208 C 0.76685 0.19823 0.39803 0.0
C1209 C 0.74755 0.17926 0.40852 0.0
C1210 C 0.75126 0.22309 0.23826 0.0
C1211 C 0.7856 0.20278 0.44688 0.0
H1212 H 0.83462 0.25459 0.23117 0.0
H1213 H 0.81413 0.28496 0.39017 0.0
H1214 H 0.79793 0.2022 0.27579 0.0
H1215 H 0.78612 0.2093 0.20192 0.0
H1216 H 0.81421 0.21868 0.20009 0.0
H1217 H 0.78203 0.26661 0.45516 0.0
H1218 H 0.76129 0.24649 0.39798 0.0
H1219 H 0.77304 0.23891 0.47065 0.0
H1220 H 0.71739 0.18554 0.27679 0.0
H1221 H 0.7465 0.16826 0.45142 0.0
H1222 H 0.76407 0.22624 0.19778 0.0
H1223 H 0.75512 0.23851 0.26379 0.0
H1224 H 0.73607 0.21677 0.20712 0.0
H1225 H 0.79919 0.20528 0.41158 0.0
H1226 H 0.78193 0.18971 0.48693 0.0
H1227 H 0.79073 0.2176 0.47913 0.0
C1228 C 0.54906 0.80497 0.57061 0.0
C1229 C 0.5631 0.82617 0.59019 0.0
C1230 C 0.54964 0.78821 0.60724 0.0
C1231 C 0.56482 0.7927 0.66436 0.0
C1232 C 0.57916 0.81407 0.6841 0.0
C1233 C 0.57804 0.83054 0.64714 0.0
C1234 C 0.53387 0.76565 0.58519 0.0
C1235 C 0.59572 0.81952 0.74417 0.0
C1236 C 0.55332 0.74894 0.80484 0.0
C1237 C 0.56504 0.74007 0.77553 0.0
C1238 C 0.55326 0.76616 0.76963 0.0
C1239 C 0.56543 0.77496 0.70394 0.0
C1240 C 0.5776 0.76633 0.67476 0.0
C1241 C 0.57716 0.74892 0.7106 0.0
C1242 C 0.53985 0.7747 0.80201 0.0
C1243 C 0.59096 0.77539 0.6053 0.0
H1244 H 0.53738 0.8014 0.527 0.0
H1245 H 0.589 0.84687 0.66251 0.0
H1246 H 0.54235 0.75743 0.56568 0.0
H1247 H 0.52426 0.75682 0.63456 0.0
H1248 H 0.52298 0.76483 0.54004 0.0
H1249 H 0.60597 0.83692 0.75189 0.0
H1250 H 0.58792 0.81244 0.7983 0.0
H1251 H 0.60589 0.8127 0.72963 0.0
H1252 H 0.54385 0.7422 0.85482 0.0
H1253 H 0.58635 0.74225 0.68771 0.0
H1254 H 0.52782 0.77308 0.7603 0.0
H1255 H 0.54988 0.79185 0.81475 0.0
H1256 H 0.53154 0.76631 0.85405 0.0
H1257 H 0.58066 0.77362 0.55683 0.0
H1258 H 0.60022 0.76747 0.59159 0.0
H1259 H 0.60214 0.79261 0.61291 0.0
C1260 C 0.83025 0.57544 0.02214 0.0
C1261 C 0.82672 0.56302 0.08643 0.0
C1262 C 0.81343 0.57612 0.986 0.0
C1263 C 0.79255 0.56395 0.0144 0.0
C1264 C 0.78891 0.55145 0.07937 0.0
C1265 C 0.80602 0.55121 0.11472 0.0
C1266 C 0.81799 0.58974 0.91712 0.0
C1267 C 0.76686 0.53804 0.11095 0.0
C1268 C 0.74985 0.57711 0.95945 0.0
C1269 C 0.73915 0.56233 0.90216 0.0
C1270 C 0.76746 0.57805 0.99574 0.0
C1271 C 0.77436 0.5637 0.97492 0.0
C1272 C 0.76358 0.54872 0.9173 0.0
C1273 C 0.74622 0.5483 0.88139 0.0
C1274 C 0.77866 0.59439 0.05642 0.0
C1275 C 0.77024 0.53294 0.89411 0.0
H1276 H 0.84618 0.58466 0.99993 0.0
H1277 H 0.8031 0.54153 0.16424 0.0
H1278 H 0.80943 0.57965 0.86821 0.0
H1279 H 0.81213 0.60105 0.92523 0.0
H1280 H 0.83518 0.59887 0.90378 0.0
H1281 H 0.76673 0.52941 0.16241 0.0
H1282 H 0.7599 0.54816 0.12446 0.0
H1283 H 0.75644 0.52629 0.0685 0.0
H1284 H 0.74454 0.58805 0.9757 0.0
H1285 H 0.73801 0.53675 0.83747 0.0
H1286 H 0.7957 0.60445 0.04225 0.0
H1287 H 0.77779 0.58638 0.11022 0.0
H1288 H 0.7717 0.60478 0.06462 0.0
H1289 H 0.787 0.54141 0.87521 0.0
H1290 H 0.76022 0.52234 0.84821 0.0
H1291 H 0.76925 0.52302 0.94279 0.0
C1292 C 0.25563 0.80451 0.46534 0.0
C1293 C 0.2636 0.82545 0.44071 0.0
C1294 C 0.23865 0.78739 0.42833 0.0
C1295 C 0.22918 0.79127 0.36554 0.0
C1296 C 0.23702 0.81238 0.3407 0.0
C1297 C 0.25419 0.82919 0.37829 0.0
C1298 C 0.23098 0.76512 0.45601 0.0
C1299 C 0.22726 0.8172 0.27437 0.0
C1300 C 0.19858 0.74619 0.22719 0.0
C1301 C 0.17752 0.73832 0.25028 0.0
C1302 C 0.2155 0.76339 0.26413 0.0
C1303 C 0.2113 0.77317 0.32522 0.0
C1304 C 0.19007 0.76542 0.34844 0.0
C1305 C 0.17346 0.74802 0.31103 0.0
C1306 C 0.23791 0.77095 0.23827 0.0
C1307 C 0.1849 0.77551 0.41286 0.0
H1308 H 0.26282 0.80142 0.51327 0.0
H1309 H 0.26018 0.8453 0.35887 0.0
H1310 H 0.21397 0.75746 0.47152 0.0
H1311 H 0.23236 0.75545 0.41066 0.0
H1312 H 0.24009 0.76477 0.5054 0.0
H1313 H 0.23483 0.83449 0.26326 0.0
H1314 H 0.22879 0.80931 0.22348 0.0
H1315 H 0.21007 0.81079 0.28419 0.0
H1316 H 0.20191 0.73877 0.18057 0.0
H1317 H 0.15725 0.7421 0.3292 0.0
H1318 H 0.24736 0.76981 0.28496 0.0
H1319 H 0.24564 0.78788 0.22162 0.0
H1320 H 0.23851 0.7616 0.19008 0.0
H1321 H 0.19253 0.77426 0.46491 0.0
H1322 H 0.16756 0.76799 0.42272 0.0
H1323 H 0.19135 0.79265 0.40166 0.0
C1324 C 0.42188 0.24545 0.77472 0.0
C1325 C 0.44115 0.26344 0.79379 0.0
C1326 C 0.42127 0.22674 0.75049 0.0
C1327 C 0.44046 0.22637 0.74264 0.0
C1328 C 0.46003 0.24493 0.75846 0.0
C1329 C 0.46009 0.26309 0.7853 0.0
C1330 C 0.40005 0.20714 0.73651 0.0
C1331 C 0.4809 0.2455 0.74831 0.0
C1332 C 0.44207 0.17507 0.75723 0.0
C1333 C 0.44207 0.16981 0.68179 0.0
C1334 C 0.4407 0.19297 0.77774 0.0
C1335 C 0.44016 0.2064 0.72132 0.0
C1336 C 0.44026 0.20115 0.64488 0.0
C1337 C 0.44081 0.18267 0.62605 0.0
C1338 C 0.43992 0.19757 0.85983 0.0
C1339 C 0.44049 0.2154 0.58308 0.0
H1340 H 0.40723 0.24571 0.78211 0.0
H1341 H 0.47501 0.2771 0.79965 0.0
H1342 H 0.39949 0.20094 0.67928 0.0
H1343 H 0.39782 0.19452 0.77648 0.0
H1344 H 0.38665 0.21021 0.74299 0.0
H1345 H 0.49471 0.2617 0.75603 0.0
H1346 H 0.48218 0.23477 0.7894 0.0
H1347 H 0.48175 0.23975 0.69153 0.0
H1348 H 0.44285 0.16497 0.80027 0.0
H1349 H 0.44099 0.17865 0.56764 0.0
H1350 H 0.4262 0.19986 0.87097 0.0
H1351 H 0.45448 0.21249 0.87563 0.0
H1352 H 0.43862 0.18462 0.89636 0.0
H1353 H 0.4266 0.21772 0.58819 0.0
H1354 H 0.44028 0.20892 0.52651 0.0
H1355 H 0.45492 0.23127 0.58817 0.0
loop_
_geom_bond_atom_site_label_1
_geom_bond_atom_site_label_2
_geom_bond_distance
_geom_bond_site_symmetry_2
_ccdc_geom_bond_type
Co0 N4 2.148 . S
Co0 N10 2.128 . S
Co0 N20 2.194 . S
Co0 O25 2.351 . S
Co0 O26 2.155 . S
Co0 O27 2.096 . S
C1 N4 1.301 . S
C1 N5 1.328 . S
C1 H6 0.930 . S
C2 C3 1.333 . S
C2 N4 1.317 . S
C2 H7 0.930 . S
C3 C2 1.333 . S
C3 N5 1.350 . S
C3 H29 0.931 . S
N4 Co0 2.148 . S
N4 C1 1.301 . S
N4 C2 1.317 . S
N5 C1 1.328 . S
N5 C3 1.350 . S
H6 C1 0.930 . S
H7 C2 0.930 . S
C8 O9 1.224 . S
C8 O27 1.247 . S
O9 C8 1.224 . S
N10 Co0 2.128 . S
N10 C11 1.355 1_554 S
N10 C13 1.311 1_554 S
C11 N10 1.355 1_556 S
C11 C12 1.363 . S
C11 H23 0.929 1_556 S
C12 C11 1.363 . S
C12 N14 1.375 . S
C12 H30 0.931 . S
C13 N10 1.311 1_556 S
C13 N14 1.347 . S
C13 H24 0.929 . S
N14 C12 1.375 . S
N14 C13 1.347 . S
C15 C18 1.365 . S
C15 N20 1.328 . S
C15 H21 0.929 . S
C16 C17 1.362 . S
C16 C19 1.378 . S
C16 H31 0.929 . S
C17 C16 1.362 . S
C17 C18 1.366 . S
C18 C15 1.365 . S
C18 C17 1.366 . S
C18 H32 0.930 . S
C19 C16 1.378 . S
C19 N20 1.315 . S
C19 H22 0.930 . S
N20 Co0 2.194 . S
N20 C15 1.328 . S
N20 C19 1.315 . S
H21 C15 0.929 . S
H22 C19 0.930 . S
H23 C11 0.929 1_554 S
H24 C13 0.929 . S
O25 Co0 2.351 . S
O25 C28 1.244 . S
O26 Co0 2.155 . S
O26 C28 1.240 . S
O27 Co0 2.096 . S
O27 C8 1.247 . S
C28 O25 1.244 . S
C28 O26 1.240 . S
H29 C3 0.931 . S
H30 C12 0.931 . S
H31 C16 0.929 . S
H32 C18 0.930 . S
Co33 N37 2.148 . S
Co33 N43 2.128 . S
Co33 N53 2.194 . S
Co33 O58 2.351 . S
Co33 O59 2.155 . S
Co33 O60 2.096 . S
C34 N37 1.301 . S
C34 N38 1.328 . S
C34 H39 0.930 . S
C35 C36 1.333 . S
C35 N37 1.317 . S
C35 H40 0.930 . S
C36 C35 1.333 . S
C36 N38 1.350 . S
C36 H62 0.931 . S
N37 Co33 2.148 . S
N37 C34 1.301 . S
N37 C35 1.317 . S
N38 C34 1.328 . S
N38 C36 1.350 . S
H39 C34 0.930 . S
H40 C35 0.930 . S
C41 O42 1.224 . S
C41 O60 1.247 . S
O42 C41 1.224 . S
N43 Co33 2.128 . S
N43 C44 1.355 . S
N43 C46 1.311 . S
C44 N43 1.355 . S
C44 C45 1.363 . S
C44 H56 0.929 . S
C45 C44 1.363 . S
C45 N47 1.375 . S
C45 H63 0.931 . S
C46 N43 1.311 . S
C46 N47 1.347 . S
C46 H57 0.929 . S
N47 C45 1.375 . S
N47 C46 1.347 . S
C48 C51 1.365 . S
C48 N53 1.328 . S
C48 H54 0.929 . S
C49 C50 1.362 . S
C49 C52 1.378 . S
C49 H64 0.929 . S
C50 C49 1.362 . S
C50 C51 1.366 . S
C51 C48 1.365 . S
C51 C50 1.366 . S
C51 H65 0.930 . S
C52 C49 1.378 . S
C52 N53 1.315 . S
C52 H55 0.930 . S
N53 Co33 2.194 . S
N53 C48 1.328 . S
N53 C52 1.315 . S
H54 C48 0.929 . S
H55 C52 0.930 . S
H56 C44 0.929 . S
H57 C46 0.929 . S
O58 Co33 2.351 . S
O58 C61 1.244 . S
O59 Co33 2.155 . S
O59 C61 1.240 . S
O60 Co33 2.096 . S
O60 C41 1.247 . S
C61 O58 1.244 . S
C61 O59 1.240 . S
H62 C36 0.931 . S
H63 C45 0.931 . S
H64 C49 0.929 . S
H65 C51 0.930 . S
Co66 N70 2.148 . S
Co66 N76 2.128 . S
Co66 N86 2.194 . S
Co66 O91 2.351 . S
Co66 O92 2.155 . S
Co66 O93 2.096 . S
C67 N70 1.301 . S
C67 N71 1.328 1_556 S
C67 H72 0.930 . S
C68 C69 1.333 1_556 S
C68 N70 1.317 . S
C68 H73 0.930 . S
C69 C68 1.333 1_554 S
C69 N71 1.350 . S
C69 H95 0.931 . S
N70 Co66 2.148 . S
N70 C67 1.301 . S
N70 C68 1.317 . S
N71 C67 1.328 1_554 S
N71 C69 1.350 . S
H72 C67 0.930 . S
H73 C68 0.930 . S
C74 O75 1.224 . S
C74 O93 1.247 . S
O75 C74 1.224 . S
N76 Co66 2.128 . S
N76 C77 1.355 . S
N76 C79 1.311 . S
C77 N76 1.355 . S
C77 C78 1.363 . S
C77 H89 0.929 . S
C78 C77 1.363 . S
C78 N80 1.375 . S
C78 H96 0.931 . S
C79 N76 1.311 . S
C79 N80 1.347 . S
C79 H90 0.929 . S
N80 C78 1.375 . S
N80 C79 1.347 . S
C81 C84 1.365 . S
C81 N86 1.328 . S
C81 H87 0.929 . S
C82 C83 1.362 . S
C82 C85 1.378 . S
C82 H97 0.929 . S
C83 C82 1.362 . S
C83 C84 1.366 . S
C84 C81 1.365 . S
C84 C83 1.366 . S
C84 H98 0.930 . S
C85 C82 1.378 . S
C85 N86 1.315 . S
C85 H88 0.930 . S
N86 Co66 2.194 . S
N86 C81 1.328 . S
N86 C85 1.315 . S
H87 C81 0.929 . S
H88 C85 0.930 . S
H89 C77 0.929 . S
H90 C79 0.929 . S
O91 Co66 2.351 . S
O91 C94 1.244 . S
O92 Co66 2.155 . S
O92 C94 1.240 . S
O93 Co66 2.096 . S
O93 C74 1.247 . S
C94 O91 1.244 . S
C94 O92 1.240 . S
H95 C69 0.931 . S
H96 C78 0.931 . S
H97 C82 0.929 . S
H98 C84 0.930 . S
Co99 N103 2.148 . S
Co99 N109 2.128 . S
Co99 N119 2.194 . S
Co99 O124 2.351 . S
Co99 O125 2.155 . S
Co99 O126 2.096 . S
C100 N103 1.301 . S
C100 N104 1.328 . S
C100 H105 0.930 . S
C101 C102 1.333 . S
C101 N103 1.317 . S
C101 H106 0.930 . S
C102 C101 1.333 . S
C102 N104 1.350 . S
C102 H128 0.931 . S
N103 Co99 2.148 . S
N103 C100 1.301 . S
N103 C101 1.317 . S
N104 C100 1.328 . S
N104 C102 1.350 . S
H105 C100 0.930 . S
H106 C101 0.930 . S
C107 O108 1.224 . S
C107 O126 1.247 . S
O108 C107 1.224 . S
N109 Co99 2.128 . S
N109 C110 1.355 1_554 S
N109 C112 1.311 1_554 S
C110 N109 1.355 1_556 S
C110 C111 1.363 . S
C110 H122 0.929 1_556 S
C111 C110 1.363 . S
C111 N113 1.375 . S
C111 H129 0.931 . S
C112 N109 1.311 1_556 S
C112 N113 1.347 . S
C112 H123 0.929 . S
N113 C111 1.375 . S
N113 C112 1.347 . S
C114 C117 1.365 . S
C114 N119 1.328 . S
C114 H120 0.929 . S
C115 C116 1.362 . S
C115 C118 1.378 . S
C115 H130 0.929 . S
C116 C115 1.362 . S
C116 C117 1.366 . S
C117 C114 1.365 . S
C117 C116 1.366 . S
C117 H131 0.930 . S
C118 C115 1.378 . S
C118 N119 1.315 . S
C118 H121 0.930 . S
N119 Co99 2.194 . S
N119 C114 1.328 . S
N119 C118 1.315 . S
H120 C114 0.929 . S
H121 C118 0.930 . S
H122 C110 0.929 1_554 S
H123 C112 0.929 . S
O124 Co99 2.351 . S
O124 C127 1.244 . S
O125 Co99 2.155 . S
O125 C127 1.240 . S
O126 Co99 2.096 . S
O126 C107 1.247 . S
C127 O124 1.244 . S
C127 O125 1.240 . S
H128 C102 0.931 . S
H129 C111 0.931 . S
H130 C115 0.929 . S
H131 C117 0.930 . S
Co132 N136 2.148 . S
Co132 N142 2.128 . S
Co132 N152 2.194 . S
Co132 O157 2.351 . S
Co132 O158 2.155 . S
Co132 O159 2.096 . S
C133 N136 1.301 . S
C133 N137 1.328 . S
C133 H138 0.930 . S
C134 C135 1.333 . S
C134 N136 1.317 . S
C134 H139 0.930 . S
C135 C134 1.333 . S
C135 N137 1.350 . S
C135 H161 0.931 . S
N136 Co132 2.148 . S
N136 C133 1.301 . S
N136 C134 1.317 . S
N137 C133 1.328 . S
N137 C135 1.350 . S
H138 C133 0.930 . S
H139 C134 0.930 . S
C140 O141 1.224 . S
C140 O159 1.247 . S
O141 C140 1.224 . S
N142 Co132 2.128 . S
N142 C143 1.355 . S
N142 C145 1.311 . S
C143 N142 1.355 . S
C143 C144 1.363 . S
C143 H155 0.929 . S
C144 C143 1.363 . S
C144 N146 1.375 . S
C144 H162 0.931 . S
C145 N142 1.311 . S
C145 N146 1.347 . S
C145 H156 0.929 . S
N146 C144 1.375 . S
N146 C145 1.347 . S
C147 C150 1.365 . S
C147 N152 1.328 . S
C147 H153 0.929 . S
C148 C149 1.362 . S
C148 C151 1.378 . S
C148 H163 0.929 . S
C149 C148 1.362 . S
C149 C150 1.366 . S
C150 C147 1.365 . S
C150 C149 1.366 . S
C150 H164 0.930 . S
C151 C148 1.378 . S
C151 N152 1.315 . S
C151 H154 0.930 . S
N152 Co132 2.194 . S
N152 C147 1.328 . S
N152 C151 1.315 . S
H153 C147 0.929 . S
H154 C151 0.930 . S
H155 C143 0.929 . S
H156 C145 0.929 . S
O157 Co132 2.351 . S
O157 C160 1.244 . S
O158 Co132 2.155 . S
O158 C160 1.240 . S
O159 Co132 2.096 . S
O159 C140 1.247 . S
C160 O157 1.244 . S
C160 O158 1.240 . S
H161 C135 0.931 . S
H162 C144 0.931 . S
H163 C148 0.929 . S
H164 C150 0.930 . S
Co165 N169 2.148 . S
Co165 N175 2.128 . S
Co165 N185 2.194 . S
Co165 O190 2.351 . S
Co165 O191 2.155 . S
Co165 O192 2.096 . S
C166 N169 1.301 . S
C166 N170 1.328 1_556 S
C166 H171 0.930 . S
C167 C168 1.333 1_556 S
C167 N169 1.317 . S
C167 H172 0.930 . S
C168 C167 1.333 1_554 S
C168 N170 1.350 . S
C168 H194 0.931 . S
N169 Co165 2.148 . S
N169 C166 1.301 . S
N169 C167 1.317 . S
N170 C166 1.328 1_554 S
N170 C168 1.350 . S
H171 C166 0.930 . S
H172 C167 0.930 . S
C173 O174 1.224 . S
C173 O192 1.247 . S
O174 C173 1.224 . S
N175 Co165 2.128 . S
N175 C176 1.355 . S
N175 C178 1.311 . S
C176 N175 1.355 . S
C176 C177 1.363 . S
C176 H188 0.929 . S
C177 C176 1.363 . S
C177 N179 1.375 . S
C177 H195 0.931 . S
C178 N175 1.311 . S
C178 N179 1.347 . S
C178 H189 0.929 . S
N179 C177 1.375 . S
N179 C178 1.347 . S
C180 C183 1.365 . S
C180 N185 1.328 . S
C180 H186 0.929 . S
C181 C182 1.362 . S
C181 C184 1.378 . S
C181 H196 0.929 . S
C182 C181 1.362 . S
C182 C183 1.366 . S
C183 C180 1.365 . S
C183 C182 1.366 . S
C183 H197 0.930 . S
C184 C181 1.378 . S
C184 N185 1.315 . S
C184 H187 0.930 . S
N185 Co165 2.194 . S
N185 C180 1.328 . S
N185 C184 1.315 . S
H186 C180 0.929 . S
H187 C184 0.930 . S
H188 C176 0.929 . S
H189 C178 0.929 . S
O190 Co165 2.351 . S
O190 C193 1.244 . S
O191 Co165 2.155 . S
O191 C193 1.240 . S
O192 Co165 2.096 . S
O192 C173 1.247 . S
C193 O190 1.244 . S
C193 O191 1.240 . S
H194 C168 0.931 . S
H195 C177 0.931 . S
H196 C181 0.929 . S
H197 C183 0.930 . S
Co198 N202 2.148 . S
Co198 N208 2.128 . S
Co198 N218 2.194 . S
Co198 O223 2.351 . S
Co198 O224 2.155 . S
Co198 O225 2.096 . S
C199 N202 1.301 . S
C199 N203 1.328 . S
C199 H204 0.930 . S
C200 C201 1.333 . S
C200 N202 1.317 . S
C200 H205 0.930 . S
C201 C200 1.333 . S
C201 N203 1.350 . S
C201 H227 0.931 . S
N202 Co198 2.148 . S
N202 C199 1.301 . S
N202 C200 1.317 . S
N203 C199 1.328 . S
N203 C201 1.350 . S
H204 C199 0.930 . S
H205 C200 0.930 . S
C206 O207 1.224 . S
C206 O225 1.247 . S
O207 C206 1.224 . S
N208 Co198 2.128 . S
N208 C209 1.355 . S
N208 C211 1.311 . S
C209 N208 1.355 . S
C209 C210 1.363 . S
C209 H221 0.929 . S
C210 C209 1.363 . S
C210 N212 1.375 . S
C210 H228 0.931 . S
C211 N208 1.311 . S
C211 N212 1.347 . S
C211 H222 0.929 . S
N212 C210 1.375 . S
N212 C211 1.347 . S
C213 C216 1.365 . S
C213 N218 1.328 . S
C213 H219 0.929 . S
C214 C215 1.362 . S
C214 C217 1.378 . S
C214 H229 0.929 . S
C215 C214 1.362 . S
C215 C216 1.366 . S
C216 C213 1.365 . S
C216 C215 1.366 . S
C216 H230 0.930 . S
C217 C214 1.378 . S
C217 N218 1.315 . S
C217 H220 0.930 . S
N218 Co198 2.194 . S
N218 C213 1.328 . S
N218 C217 1.315 . S
H219 C213 0.929 . S
H220 C217 0.930 . S
H221 C209 0.929 . S
H222 C211 0.929 . S
O223 Co198 2.351 . S
O223 C226 1.244 . S
O224 Co198 2.155 . S
O224 C226 1.240 . S
O225 Co198 2.096 . S
O225 C206 1.247 . S
C226 O223 1.244 . S
C226 O224 1.240 . S
H227 C201 0.931 . S
H228 C210 0.931 . S
H229 C214 0.929 . S
H230 C216 0.930 . S
Co231 N235 2.148 . S
Co231 N241 2.128 . S
Co231 N251 2.194 . S
Co231 O256 2.351 . S
Co231 O257 2.155 . S
Co231 O258 2.096 . S
C232 N235 1.301 . S
C232 N236 1.328 . S
C232 H237 0.930 . S
C233 C234 1.333 . S
C233 N235 1.317 . S
C233 H238 0.930 . S
C234 C233 1.333 . S
C234 N236 1.350 . S
C234 H260 0.931 . S
N235 Co231 2.148 . S
N235 C232 1.301 . S
N235 C233 1.317 . S
N236 C232 1.328 . S
N236 C234 1.350 . S
H237 C232 0.930 . S
H238 C233 0.930 . S
C239 O240 1.224 . S
C239 O258 1.247 . S
O240 C239 1.224 . S
N241 Co231 2.128 . S
N241 C242 1.355 1_556 S
N241 C244 1.311 1_556 S
C242 N241 1.355 1_554 S
C242 C243 1.363 . S
C242 H254 0.929 1_554 S
C243 C242 1.363 . S
C243 N245 1.375 . S
C243 H261 0.931 . S
C244 N241 1.311 1_554 S
C244 N245 1.347 . S
C244 H255 0.929 . S
N245 C243 1.375 . S
N245 C244 1.347 . S
C246 C249 1.365 . S
C246 N251 1.328 . S
C246 H252 0.929 . S
C247 C248 1.362 . S
C247 C250 1.378 . S
C247 H262 0.929 . S
C248 C247 1.362 . S
C248 C249 1.366 . S
C249 C246 1.365 . S
C249 C248 1.366 . S
C249 H263 0.930 . S
C250 C247 1.378 . S
C250 N251 1.315 . S
C250 H253 0.930 . S
N251 Co231 2.194 . S
N251 C246 1.328 . S
N251 C250 1.315 . S
H252 C246 0.929 . S
H253 C250 0.930 . S
H254 C242 0.929 1_556 S
H255 C244 0.929 . S
O256 Co231 2.351 . S
O256 C259 1.244 . S
O257 Co231 2.155 . S
O257 C259 1.240 . S
O258 Co231 2.096 . S
O258 C239 1.247 . S
C259 O256 1.244 . S
C259 O257 1.240 . S
H260 C234 0.931 . S
H261 C243 0.931 . S
H262 C247 0.929 . S
H263 C249 0.930 . S
Co264 N268 2.148 . S
Co264 N274 2.128 . S
Co264 N284 2.194 . S
Co264 O289 2.351 . S
Co264 O290 2.155 . S
Co264 O291 2.096 . S
C265 N268 1.301 . S
C265 N269 1.328 1_554 S
C265 H270 0.930 . S
C266 C267 1.333 1_554 S
C266 N268 1.317 . S
C266 H271 0.930 . S
C267 C266 1.333 1_556 S
C267 N269 1.350 . S
C267 H293 0.931 . S
N268 Co264 2.148 . S
N268 C265 1.301 . S
N268 C266 1.317 . S
N269 C265 1.328 1_556 S
N269 C267 1.350 . S
H270 C265 0.930 . S
H271 C266 0.930 . S
C272 O273 1.224 . S
C272 O291 1.247 . S
O273 C272 1.224 . S
N274 Co264 2.128 . S
N274 C275 1.355 . S
N274 C277 1.311 . S
C275 N274 1.355 . S
C275 C276 1.363 . S
C275 H287 0.929 . S
C276 C275 1.363 . S
C276 N278 1.375 . S
C276 H294 0.931 . S
C277 N274 1.311 . S
C277 N278 1.347 . S
C277 H288 0.929 . S
N278 C276 1.375 . S
N278 C277 1.347 . S
C279 C282 1.365 . S
C279 N284 1.328 . S
C279 H285 0.929 . S
C280 C281 1.362 . S
C280 C283 1.378 . S
C280 H295 0.929 . S
C281 C280 1.362 . S
C281 C282 1.366 . S
C282 C279 1.365 . S
C282 C281 1.366 . S
C282 H296 0.930 . S
C283 C280 1.378 . S
C283 N284 1.315 . S
C283 H286 0.930 . S
N284 Co264 2.194 . S
N284 C279 1.328 . S
N284 C283 1.315 . S
H285 C279 0.929 . S
H286 C283 0.930 . S
H287 C275 0.929 . S
H288 C277 0.929 . S
O289 Co264 2.351 . S
O289 C292 1.244 . S
O290 Co264 2.155 . S
O290 C292 1.240 . S
O291 Co264 2.096 . S
O291 C272 1.247 . S
C292 O289 1.244 . S
C292 O290 1.240 . S
H293 C267 0.931 . S
H294 C276 0.931 . S
H295 C280 0.929 . S
H296 C282 0.930 . S
Co297 N301 2.148 . S
Co297 N307 2.128 . S
Co297 N317 2.194 . S
Co297 O322 2.351 . S
Co297 O323 2.155 . S
Co297 O324 2.096 . S
C298 N301 1.301 . S
C298 N302 1.328 . S
C298 H303 0.930 . S
C299 C300 1.333 . S
C299 N301 1.317 . S
C299 H304 0.930 . S
C300 C299 1.333 . S
C300 N302 1.350 . S
C300 H326 0.931 . S
N301 Co297 2.148 . S
N301 C298 1.301 . S
N301 C299 1.317 . S
N302 C298 1.328 . S
N302 C300 1.350 . S
H303 C298 0.930 . S
H304 C299 0.930 . S
C305 O306 1.224 . S
C305 O324 1.247 . S
O306 C305 1.224 . S
N307 Co297 2.128 . S
N307 C308 1.355 . S
N307 C310 1.311 . S
C308 N307 1.355 . S
C308 C309 1.363 . S
C308 H320 0.929 . S
C309 C308 1.363 . S
C309 N311 1.375 . S
C309 H327 0.931 . S
C310 N307 1.311 . S
C310 N311 1.347 . S
C310 H321 0.929 . S
N311 C309 1.375 . S
N311 C310 1.347 . S
C312 C315 1.365 . S
C312 N317 1.328 . S
C312 H318 0.929 . S
C313 C314 1.362 . S
C313 C316 1.378 . S
C313 H328 0.929 . S
C314 C313 1.362 . S
C314 C315 1.366 . S
C315 C312 1.365 . S
C315 C314 1.366 . S
C315 H329 0.930 . S
C316 C313 1.378 . S
C316 N317 1.315 . S
C316 H319 0.930 . S
N317 Co297 2.194 . S
N317 C312 1.328 . S
N317 C316 1.315 . S
H318 C312 0.929 . S
H319 C316 0.930 . S
H320 C308 0.929 . S
H321 C310 0.929 . S
O322 Co297 2.351 . S
O322 C325 1.244 . S
O323 Co297 2.155 . S
O323 C325 1.240 . S
O324 Co297 2.096 . S
O324 C305 1.247 . S
C325 O322 1.244 . S
C325 O323 1.240 . S
H326 C300 0.931 . S
H327 C309 0.931 . S
H328 C313 0.929 . S
H329 C315 0.930 . S
Co330 N334 2.148 . S
Co330 N340 2.128 . S
Co330 N350 2.194 . S
Co330 O355 2.351 . S
Co330 O356 2.155 . S
Co330 O357 2.096 . S
C331 N334 1.301 . S
C331 N335 1.328 . S
C331 H336 0.930 . S
C332 C333 1.333 . S
C332 N334 1.317 . S
C332 H337 0.930 . S
C333 C332 1.333 . S
C333 N335 1.350 . S
C333 H359 0.931 . S
N334 Co330 2.148 . S
N334 C331 1.301 . S
N334 C332 1.317 . S
N335 C331 1.328 . S
N335 C333 1.350 . S
H336 C331 0.930 . S
H337 C332 0.930 . S
C338 O339 1.224 . S
C338 O357 1.247 . S
O339 C338 1.224 . S
N340 Co330 2.128 . S
N340 C341 1.355 1_556 S
N340 C343 1.311 1_556 S
C341 N340 1.355 1_554 S
C341 C342 1.363 . S
C341 H353 0.929 1_554 S
C342 C341 1.363 . S
C342 N344 1.375 . S
C342 H360 0.931 . S
C343 N340 1.311 1_554 S
C343 N344 1.347 . S
C343 H354 0.929 . S
N344 C342 1.375 . S
N344 C343 1.347 . S
C345 C348 1.365 . S
C345 N350 1.328 . S
C345 H351 0.929 . S
C346 C347 1.362 . S
C346 C349 1.378 . S
C346 H361 0.929 . S
C347 C346 1.362 . S
C347 C348 1.366 . S
C348 C345 1.365 . S
C348 C347 1.366 . S
C348 H362 0.930 . S
C349 C346 1.378 . S
C349 N350 1.315 . S
C349 H352 0.930 . S
N350 Co330 2.194 . S
N350 C345 1.328 . S
N350 C349 1.315 . S
H351 C345 0.929 . S
H352 C349 0.930 . S
H353 C341 0.929 1_556 S
H354 C343 0.929 . S
O355 Co330 2.351 . S
O355 C358 1.244 . S
O356 Co330 2.155 . S
O356 C358 1.240 . S
O357 Co330 2.096 . S
O357 C338 1.247 . S
C358 O355 1.244 . S
C358 O356 1.240 . S
H359 C333 0.931 . S
H360 C342 0.931 . S
H361 C346 0.929 . S
H362 C348 0.930 . S
Co363 N367 2.148 . S
Co363 N373 2.128 . S
Co363 N383 2.194 . S
Co363 O388 2.351 . S
Co363 O389 2.155 . S
Co363 O390 2.096 . S
C364 N367 1.301 . S
C364 N368 1.328 1_554 S
C364 H369 0.930 . S
C365 C366 1.333 1_554 S
C365 N367 1.317 . S
C365 H370 0.930 . S
C366 C365 1.333 1_556 S
C366 N368 1.350 . S
C366 H392 0.931 . S
N367 Co363 2.148 . S
N367 C364 1.301 . S
N367 C365 1.317 . S
N368 C364 1.328 1_556 S
N368 C366 1.350 . S
H369 C364 0.930 . S
H370 C365 0.930 . S
C371 O372 1.224 . S
C371 O390 1.247 . S
O372 C371 1.224 . S
N373 Co363 2.128 . S
N373 C374 1.355 . S
N373 C376 1.311 . S
C374 N373 1.355 . S
C374 C375 1.363 . S
C374 H386 0.929 . S
C375 C374 1.363 . S
C375 N377 1.375 . S
C375 H393 0.931 . S
C376 N373 1.311 . S
C376 N377 1.347 . S
C376 H387 0.929 . S
N377 C375 1.375 . S
N377 C376 1.347 . S
C378 C381 1.365 . S
C378 N383 1.328 . S
C378 H384 0.929 . S
C379 C380 1.362 . S
C379 C382 1.378 . S
C379 H394 0.929 . S
C380 C379 1.362 . S
C380 C381 1.366 . S
C381 C378 1.365 . S
C381 C380 1.366 . S
C381 H395 0.930 . S
C382 C379 1.378 . S
C382 N383 1.315 . S
C382 H385 0.930 . S
N383 Co363 2.194 . S
N383 C378 1.328 . S
N383 C382 1.315 . S
H384 C378 0.929 . S
H385 C382 0.930 . S
H386 C374 0.929 . S
H387 C376 0.929 . S
O388 Co363 2.351 . S
O388 C391 1.244 . S
O389 Co363 2.155 . S
O389 C391 1.240 . S
O390 Co363 2.096 . S
O390 C371 1.247 . S
C391 O388 1.244 . S
C391 O389 1.240 . S
H392 C366 0.931 . S
H393 C375 0.931 . S
H394 C379 0.929 . S
H395 C381 0.930 . S
C396 C397 1.391 . S
C396 C398 1.394 . S
C396 H412 0.931 . S
C397 C396 1.391 . S
C397 C401 1.376 . S
C398 C396 1.394 . S
C398 C399 1.369 . S
C398 C402 1.531 . S
C399 C398 1.369 . S
C399 C400 1.410 . S
C399 C407 1.503 1_455 S
C400 C399 1.410 . S
C400 C401 1.392 . S
C400 C403 1.511 . S
C401 C397 1.376 . S
C401 C400 1.392 . S
C401 H413 0.929 . S
C402 C398 1.531 . S
C402 H414 0.960 1_455 S
C402 H415 0.962 . S
C402 H416 0.960 . S
C403 C400 1.511 . S
C403 H417 0.961 . S
C403 H418 0.961 1_455 S
C403 H419 0.961 . S
C404 C405 1.370 . S
C404 C406 1.363 . S
C404 H420 0.931 . S
C405 C404 1.370 . S
C405 C409 1.408 . S
C406 C404 1.363 . S
C406 C407 1.370 . S
C406 C410 1.524 . S
C407 C399 1.503 1_655 S
C407 C406 1.370 . S
C407 C408 1.403 . S
C408 C407 1.403 . S
C408 C409 1.404 . S
C408 C411 1.539 . S
C409 C405 1.408 . S
C409 C408 1.404 . S
C409 H421 0.930 . S
C410 C406 1.524 . S
C410 H422 0.956 . S
C410 H423 0.960 . S
C410 H424 0.961 . S
C411 C408 1.539 . S
C411 H425 0.958 . S
C411 H426 0.961 . S
C411 H427 0.960 1_655 S
H412 C396 0.931 . S
H413 C401 0.929 . S
H414 C402 0.960 1_655 S
H415 C402 0.962 . S
H416 C402 0.960 . S
H417 C403 0.961 . S
H418 C403 0.961 1_655 S
H419 C403 0.961 . S
H420 C404 0.931 . S
H421 C409 0.930 . S
H422 C410 0.956 . S
H423 C410 0.960 . S
H424 C410 0.961 . S
H425 C411 0.958 . S
H426 C411 0.961 . S
H427 C411 0.960 1_455 S
C428 C429 1.391 . S
C428 C430 1.394 . S
C428 H444 0.931 . S
C429 C428 1.391 . S
C429 C433 1.376 . S
C430 C428 1.394 . S
C430 C431 1.369 . S
C430 C434 1.531 . S
C431 C430 1.369 . S
C431 C432 1.410 . S
C431 C439 1.503 1_545 S
C432 C431 1.410 . S
C432 C433 1.392 . S
C432 C435 1.511 . S
C433 C429 1.376 . S
C433 C432 1.392 . S
C433 H445 0.929 . S
C434 C430 1.531 . S
C434 H446 0.960 1_545 S
C434 H447 0.962 . S
C434 H448 0.960 . S
C435 C432 1.511 . S
C435 H449 0.961 . S
C435 H450 0.961 1_545 S
C435 H451 0.961 . S
C436 C437 1.370 . S
C436 C438 1.363 . S
C436 H452 0.931 . S
C437 C436 1.370 . S
C437 C441 1.408 . S
C438 C436 1.363 . S
C438 C439 1.370 . S
C438 C442 1.524 . S
C439 C431 1.503 1_565 S
C439 C438 1.370 . S
C439 C440 1.403 . S
C440 C439 1.403 . S
C440 C441 1.404 . S
C440 C443 1.539 . S
C441 C437 1.408 . S
C441 C440 1.404 . S
C441 H453 0.930 . S
C442 C438 1.524 . S
C442 H454 0.956 . S
C442 H455 1.006 . S
C442 H456 0.961 . S
C443 C440 1.539 . S
C443 H457 0.958 . S
C443 H458 0.961 . S
C443 H459 0.960 1_565 S
H444 C428 0.931 . S
H445 C433 0.929 . S
H446 C434 0.960 1_565 S
H447 C434 0.962 . S
H448 C434 0.960 . S
H449 C435 0.961 . S
H450 C435 0.961 1_565 S
H451 C435 0.961 . S
H452 C436 0.931 . S
H453 C441 0.930 . S
H454 C442 0.956 . S
H455 C442 1.006 . S
H456 C442 0.961 . S
H457 C443 0.958 . S
H458 C443 0.961 . S
H459 C443 0.960 1_545 S
C460 C461 1.391 . S
C460 C462 1.394 . S
C460 H476 0.931 . S
C461 C460 1.391 . S
C461 C465 1.376 . S
C462 C460 1.394 . S
C462 C463 1.369 . S
C462 C466 1.531 . S
C463 C462 1.369 . S
C463 C464 1.410 . S
C463 C471 1.503 . S
C464 C463 1.410 . S
C464 C465 1.392 . S
C464 C467 1.511 . S
C465 C461 1.376 . S
C465 C464 1.392 . S
C465 H477 0.929 . S
C466 C462 1.531 . S
C466 H478 0.960 . S
C466 H479 0.962 . S
C466 H480 0.960 . S
C467 C464 1.511 . S
C467 H481 0.961 . S
C467 H482 0.961 . S
C467 H483 0.961 . S
C468 C469 1.370 . S
C468 C470 1.363 . S
C468 H484 0.931 . S
C469 C468 1.370 . S
C469 C473 1.408 . S
C470 C468 1.363 . S
C470 C471 1.370 . S
C470 C474 1.524 . S
C471 C463 1.503 . S
C471 C470 1.370 . S
C471 C472 1.403 . S
C472 C471 1.403 . S
C472 C473 1.404 . S
C472 C475 1.539 . S
C473 C469 1.408 . S
C473 C472 1.404 . S
C473 H485 0.930 . S
C474 C470 1.524 . S
C474 H486 0.956 . S
C474 H487 0.961 . S
C474 H488 0.961 . S
C475 C472 1.539 . S
C475 H489 0.958 . S
C475 H490 0.961 . S
C475 H491 0.960 . S
H476 C460 0.931 . S
H477 C465 0.929 . S
H478 C466 0.960 . S
H479 C466 0.962 . S
H480 C466 0.960 . S
H481 C467 0.961 . S
H482 C467 0.961 . S
H483 C467 0.961 . S
H484 C468 0.931 . S
H485 C473 0.930 . S
H486 C474 0.956 . S
H487 C474 0.961 . S
H488 C474 0.961 . S
H489 C475 0.958 . S
H490 C475 0.961 . S
H491 C475 0.960 . S
C492 C493 1.391 . S
C492 C494 1.394 . S
C492 H508 0.931 . S
C493 C492 1.391 . S
C493 C497 1.376 . S
C494 C492 1.394 . S
C494 C495 1.369 . S
C494 C498 1.531 . S
C495 C494 1.369 . S
C495 C496 1.410 . S
C495 C503 1.503 1_455 S
C496 C495 1.410 . S
C496 C497 1.392 . S
C496 C499 1.511 . S
C497 C493 1.376 . S
C497 C496 1.392 . S
C497 H509 0.929 . S
C498 C494 1.531 . S
C498 H510 0.960 1_455 S
C498 H511 0.962 . S
C498 H512 0.960 . S
C499 C496 1.511 . S
C499 H513 0.961 . S
C499 H514 0.961 1_455 S
C499 H515 0.961 . S
C500 C501 1.370 . S
C500 C502 1.363 . S
C500 H516 0.931 . S
C501 C500 1.370 . S
C501 C505 1.408 . S
C502 C500 1.363 . S
C502 C503 1.370 . S
C502 C506 1.524 . S
C503 C495 1.503 1_655 S
C503 C502 1.370 . S
C503 C504 1.403 . S
C504 C503 1.403 . S
C504 C505 1.404 . S
C504 C507 1.539 . S
C505 C501 1.408 . S
C505 C504 1.404 . S
C505 H517 0.930 . S
C506 C502 1.524 . S
C506 H518 0.956 . S
C506 H519 0.964 . S
C506 H520 0.961 . S
C507 C504 1.539 . S
C507 H521 0.958 . S
C507 H522 0.961 1_554 S
C507 H523 0.960 1_655 S
H508 C492 0.931 . S
H509 C497 0.929 . S
H510 C498 0.960 1_655 S
H511 C498 0.962 . S
H512 C498 0.960 . S
H513 C499 0.961 . S
H514 C499 0.961 1_655 S
H515 C499 0.961 . S
H516 C500 0.931 . S
H517 C505 0.930 . S
H518 C506 0.956 . S
H519 C506 0.964 . S
H520 C506 0.961 . S
H521 C507 0.958 . S
H522 C507 0.961 1_556 S
H523 C507 0.960 1_455 S
C524 C525 1.391 . S
C524 C526 1.394 . S
C524 H540 0.931 . S
C525 C524 1.391 . S
C525 C529 1.376 . S
C526 C524 1.394 . S
C526 C527 1.369 . S
C526 C530 1.531 . S
C527 C526 1.369 . S
C527 C528 1.410 . S
C527 C535 1.503 1_545 S
C528 C527 1.410 . S
C528 C529 1.392 . S
C528 C531 1.511 . S
C529 C525 1.376 . S
C529 C528 1.392 . S
C529 H541 0.929 . S
C530 C526 1.531 . S
C530 H542 0.932 1_545 S
C530 H543 0.962 . S
C530 H544 0.960 . S
C531 C528 1.511 . S
C531 H545 0.961 . S
C531 H546 0.961 1_545 S
C531 H547 0.961 . S
C532 C533 1.370 . S
C532 C534 1.363 . S
C532 H548 0.931 . S
C533 C532 1.370 . S
C533 C537 1.408 . S
C534 C532 1.363 . S
C534 C535 1.370 . S
C534 C538 1.524 . S
C535 C527 1.503 1_565 S
C535 C534 1.370 . S
C535 C536 1.403 . S
C536 C535 1.403 . S
C536 C537 1.404 . S
C536 C539 1.539 . S
C537 C533 1.408 . S
C537 C536 1.404 . S
C537 H549 0.930 . S
C538 C534 1.524 . S
C538 H550 0.956 . S
C538 H551 0.971 . S
C538 H552 0.961 . S
C539 C536 1.539 . S
C539 H553 0.958 . S
C539 H554 0.961 . S
C539 H555 0.960 1_565 S
H540 C524 0.931 . S
H541 C529 0.929 . S
H542 C530 0.932 1_565 S
H543 C530 0.962 . S
H544 C530 0.960 . S
H545 C531 0.961 . S
H546 C531 0.961 1_565 S
H547 C531 0.961 . S
H548 C532 0.931 . S
H549 C537 0.930 . S
H550 C538 0.956 . S
H551 C538 0.971 . S
H552 C538 0.961 . S
H553 C539 0.958 . S
H554 C539 0.961 . S
H555 C539 0.960 1_545 S
C556 C557 1.391 . S
C556 C558 1.394 . S
C556 H572 0.931 . S
C557 C556 1.391 . S
C557 C561 1.376 . S
C558 C556 1.394 . S
C558 C559 1.369 . S
C558 C562 1.531 . S
C559 C558 1.369 . S
C559 C560 1.410 . S
C559 C567 1.503 . S
C560 C559 1.410 . S
C560 C561 1.392 . S
C560 C563 1.511 . S
C561 C557 1.376 . S
C561 C560 1.392 . S
C561 H573 0.929 . S
C562 C558 1.531 . S
C562 H574 0.960 . S
C562 H575 0.962 . S
C562 H576 0.960 . S
C563 C560 1.511 . S
C563 H577 0.961 . S
C563 H578 0.961 . S
C563 H579 0.961 . S
C564 C565 1.370 . S
C564 C566 1.363 . S
C564 H580 0.931 . S
C565 C564 1.370 . S
C565 C569 1.408 . S
C566 C564 1.363 . S
C566 C567 1.370 . S
C566 C570 1.524 . S
C567 C559 1.503 . S
C567 C566 1.370 . S
C567 C568 1.403 . S
C568 C567 1.403 . S
C568 C569 1.404 . S
C568 C571 1.539 . S
C569 C565 1.408 . S
C569 C568 1.404 . S
C569 H581 0.930 . S
C570 C566 1.524 . S
C570 H582 0.956 . S
C570 H583 0.961 . S
C570 H584 0.961 . S
C571 C568 1.539 . S
C571 H585 0.958 1_556 S
C571 H586 0.961 . S
C571 H587 0.960 . S
H572 C556 0.931 . S
H573 C561 0.929 . S
H574 C562 0.960 . S
H575 C562 0.962 . S
H576 C562 0.960 . S
H577 C563 0.961 . S
H578 C563 0.961 . S
H579 C563 0.961 . S
H580 C564 0.931 . S
H581 C569 0.930 . S
H582 C570 0.956 . S
H583 C570 0.961 . S
H584 C570 0.961 . S
H585 C571 0.958 1_554 S
H586 C571 0.961 . S
H587 C571 0.960 . S
C588 C589 1.391 . S
C588 C590 1.394 . S
C588 H604 0.931 . S
C589 C588 1.391 . S
C589 C593 1.376 . S
C590 C588 1.394 . S
C590 C591 1.369 . S
C590 C594 1.531 . S
C591 C590 1.369 . S
C591 C592 1.410 . S
C591 C599 1.503 . S
C592 C591 1.410 . S
C592 C593 1.392 . S
C592 C595 1.511 . S
C593 C589 1.376 . S
C593 C592 1.392 . S
C593 H605 0.929 . S
C594 C590 1.531 . S
C594 H606 0.960 . S
C594 H607 0.962 . S
C594 H608 0.960 . S
C595 C592 1.511 . S
C595 H609 0.961 . S
C595 H610 0.961 . S
C595 H611 0.961 . S
C596 C597 1.370 . S
C596 C598 1.363 . S
C596 H612 0.931 . S
C597 C596 1.370 . S
C597 C601 1.408 . S
C598 C596 1.363 . S
C598 C599 1.370 . S
C598 C602 1.524 . S
C599 C591 1.503 . S
C599 C598 1.370 . S
C599 C600 1.403 . S
C600 C599 1.403 . S
C600 C601 1.404 . S
C600 C603 1.539 . S
C601 C597 1.408 . S
C601 C600 1.404 . S
C601 H613 0.930 . S
C602 C598 1.524 . S
C602 H614 0.956 . S
C602 H615 0.961 . S
C602 H616 0.961 . S
C603 C600 1.539 . S
C603 H617 0.958 . S
C603 H618 0.961 . S
C603 H619 0.960 . S
H604 C588 0.931 . S
H605 C593 0.929 . S
H606 C594 0.960 . S
H607 C594 0.962 . S
H608 C594 0.960 . S
H609 C595 0.961 . S
H610 C595 0.961 . S
H611 C595 0.961 . S
H612 C596 0.931 . S
H613 C601 0.930 . S
H614 C602 0.956 . S
H615 C602 0.961 . S
H616 C602 0.961 . S
H617 C603 0.958 . S
H618 C603 0.961 . S
H619 C603 0.960 . S
C620 C621 1.391 . S
C620 C622 1.394 . S
C620 H636 0.931 . S
C621 C620 1.391 . S
C621 C625 1.376 . S
C622 C620 1.394 . S
C622 C623 1.369 . S
C622 C626 1.531 . S
C623 C622 1.369 . S
C623 C624 1.410 . S
C623 C631 1.500 1_556 S
C624 C623 1.410 . S
C624 C625 1.392 . S
C624 C627 1.511 . S
C625 C621 1.376 . S
C625 C624 1.392 . S
C625 H637 0.929 . S
C626 C622 1.531 . S
C626 H638 0.960 . S
C626 H639 0.962 . S
C626 H640 0.960 . S
C627 C624 1.511 . S
C627 H641 0.961 . S
C627 H642 0.961 . S
C627 H643 0.961 . S
C628 C629 1.370 . S
C628 C630 1.363 . S
C628 H644 0.931 . S
C629 C628 1.370 . S
C629 C633 1.408 . S
C630 C628 1.363 . S
C630 C631 1.372 . S
C630 C634 1.524 1_554 S
C631 C623 1.500 1_554 S
C631 C630 1.372 . S
C631 C632 1.404 . S
C632 C631 1.404 . S
C632 C633 1.404 . S
C632 C635 1.539 . S
C633 C629 1.408 . S
C633 C632 1.404 . S
C633 H645 0.930 . S
C634 C630 1.524 1_556 S
C634 H646 0.956 . S
C634 H647 0.961 . S
C634 H648 0.961 1_556 S
C635 C632 1.539 . S
C635 H649 0.959 . S
C635 H650 0.961 . S
C635 H651 0.960 1_554 S
H636 C620 0.931 . S
H637 C625 0.929 . S
H638 C626 0.960 . S
H639 C626 0.962 . S
H640 C626 0.960 . S
H641 C627 0.961 . S
H642 C627 0.961 . S
H643 C627 0.961 . S
H644 C628 0.931 . S
H645 C633 0.930 . S
H646 C634 0.956 . S
H647 C634 0.961 . S
H648 C634 0.961 1_554 S
H649 C635 0.959 . S
H650 C635 0.961 . S
H651 C635 0.960 1_556 S
C652 C653 1.391 . S
C652 C654 1.394 . S
C652 H668 0.931 . S
C653 C652 1.391 . S
C653 C657 1.376 . S
C654 C652 1.394 . S
C654 C655 1.369 . S
C654 C658 1.531 . S
C655 C654 1.369 . S
C655 C656 1.410 . S
C655 C663 1.503 . S
C656 C655 1.410 . S
C656 C657 1.392 . S
C656 C659 1.511 . S
C657 C653 1.376 . S
C657 C656 1.392 . S
C657 H669 0.929 . S
C658 C654 1.531 . S
C658 H670 0.960 . S
C658 H671 0.962 . S
C658 H672 0.960 . S
C659 C656 1.511 . S
C659 H673 0.961 . S
C659 H674 0.961 . S
C659 H675 0.961 . S
C660 C661 1.370 . S
C660 C662 1.363 . S
C660 H676 0.931 . S
C661 C660 1.370 . S
C661 C665 1.408 . S
C662 C660 1.363 . S
C662 C663 1.370 . S
C662 C666 1.524 . S
C663 C655 1.503 . S
C663 C662 1.370 . S
C663 C664 1.403 . S
C664 C663 1.403 . S
C664 C665 1.404 . S
C664 C667 1.539 . S
C665 C661 1.408 . S
C665 C664 1.404 . S
C665 H677 0.930 . S
C666 C662 1.524 . S
C666 H678 0.956 . S
C666 H679 0.961 . S
C666 H680 0.961 . S
C667 C664 1.539 . S
C667 H681 0.958 . S
C667 H682 0.961 . S
C667 H683 0.960 . S
H668 C652 0.931 . S
H669 C657 0.929 . S
H670 C658 0.960 . S
H671 C658 0.962 . S
H672 C658 0.960 . S
H673 C659 0.961 . S
H674 C659 0.961 . S
H675 C659 0.961 . S
H676 C660 0.931 . S
H677 C665 0.930 . S
H678 C666 0.956 . S
H679 C666 0.961 . S
H680 C666 0.961 . S
H681 C667 0.958 . S
H682 C667 0.961 . S
H683 C667 0.960 . S
C684 C685 1.391 . S
C684 C686 1.394 . S
C684 H700 0.931 . S
C685 C684 1.391 . S
C685 C689 1.376 . S
C686 C684 1.394 . S
C686 C687 1.369 . S
C686 C690 1.531 . S
C687 C686 1.369 . S
C687 C688 1.410 . S
C687 C695 1.503 . S
C688 C687 1.410 . S
C688 C689 1.392 . S
C688 C691 1.511 . S
C689 C685 1.376 . S
C689 C688 1.392 . S
C689 H701 0.929 . S
C690 C686 1.531 . S
C690 H702 0.960 . S
C690 H703 0.962 . S
C690 H704 0.960 . S
C691 C688 1.511 . S
C691 H705 0.961 . S
C691 H706 0.961 . S
C691 H707 0.961 . S
C692 C693 1.370 . S
C692 C694 1.363 . S
C692 H708 0.931 . S
C693 C692 1.370 . S
C693 C697 1.408 . S
C694 C692 1.363 . S
C694 C695 1.370 . S
C694 C698 1.524 . S
C695 C687 1.503 . S
C695 C694 1.370 . S
C695 C696 1.403 . S
C696 C695 1.403 . S
C696 C697 1.404 . S
C696 C699 1.539 . S
C697 C693 1.408 . S
C697 C696 1.404 . S
C697 H709 0.930 . S
C698 C694 1.524 . S
C698 H710 0.956 . S
C698 H711 0.961 . S
C698 H712 0.961 . S
C699 C696 1.539 . S
C699 H713 0.958 . S
C699 H714 0.961 . S
C699 H715 0.960 . S
H700 C684 0.931 . S
H701 C689 0.929 . S
H702 C690 0.960 . S
H703 C690 0.962 . S
H704 C690 0.960 . S
H705 C691 0.961 . S
H706 C691 0.961 . S
H707 C691 0.961 . S
H708 C692 0.931 . S
H709 C697 0.930 . S
H710 C698 0.956 . S
H711 C698 0.961 . S
H712 C698 0.961 . S
H713 C699 0.958 . S
H714 C699 0.961 . S
H715 C699 0.960 . S
C716 C717 1.391 . S
C716 C718 1.394 . S
C716 H732 0.931 . S
C717 C716 1.391 . S
C717 C721 1.376 . S
C718 C716 1.394 . S
C718 C719 1.377 . S
C718 C722 1.530 1_554 S
C719 C718 1.377 . S
C719 C720 1.417 . S
C719 C727 1.488 1_554 S
C720 C719 1.417 . S
C720 C721 1.392 . S
C720 C723 1.511 1_554 S
C721 C717 1.376 . S
C721 C720 1.392 . S
C721 H733 0.929 . S
C722 C718 1.530 1_556 S
C722 H734 0.961 . S
C722 H735 0.962 . S
C722 H736 0.960 1_556 S
C723 C720 1.511 1_556 S
C723 H737 0.961 1_556 S
C723 H738 0.961 . S
C723 H739 0.961 . S
C724 C725 1.370 . S
C724 C726 1.363 . S
C724 H740 0.931 . S
C725 C724 1.370 . S
C725 C729 1.408 . S
C726 C724 1.363 . S
C726 C727 1.370 . S
C726 C730 1.524 . S
C727 C719 1.488 1_556 S
C727 C726 1.370 . S
C727 C728 1.403 . S
C728 C727 1.403 . S
C728 C729 1.404 . S
C728 C731 1.539 . S
C729 C725 1.408 . S
C729 C728 1.404 . S
C729 H741 0.930 . S
C730 C726 1.524 . S
C730 H742 0.956 . S
C730 H743 0.961 . S
C730 H744 0.961 . S
C731 C728 1.539 . S
C731 H745 0.958 . S
C731 H746 0.961 . S
C731 H747 0.960 . S
H732 C716 0.931 . S
H733 C721 0.929 . S
H734 C722 0.961 . S
H735 C722 0.962 . S
H736 C722 0.960 1_554 S
H737 C723 0.961 1_554 S
H738 C723 0.961 . S
H739 C723 0.961 . S
H740 C724 0.931 . S
H741 C729 0.930 . S
H742 C730 0.956 . S
H743 C730 0.961 . S
H744 C730 0.961 . S
H745 C731 0.958 . S
H746 C731 0.961 . S
H747 C731 0.960 . S
C748 C749 1.391 . S
C748 C750 1.394 . S
C748 H764 0.931 . S
C749 C748 1.391 . S
C749 C753 1.376 . S
C750 C748 1.394 . S
C750 C751 1.369 . S
C750 C754 1.531 . S
C751 C750 1.369 . S
C751 C752 1.410 . S
C751 C759 1.503 . S
C752 C751 1.410 . S
C752 C753 1.392 . S
C752 C755 1.511 . S
C753 C749 1.376 . S
C753 C752 1.392 . S
C753 H765 0.929 . S
C754 C750 1.531 . S
C754 H766 0.960 . S
C754 H767 0.962 . S
C754 H768 0.960 . S
C755 C752 1.511 . S
C755 H769 0.961 . S
C755 H770 0.961 . S
C755 H771 0.961 . S
C756 C757 1.370 . S
C756 C758 1.363 . S
C756 H772 0.931 . S
C757 C756 1.370 . S
C757 C761 1.408 . S
C758 C756 1.363 . S
C758 C759 1.370 . S
C758 C762 1.524 . S
C759 C751 1.503 . S
C759 C758 1.370 . S
C759 C760 1.403 . S
C760 C759 1.403 . S
C760 C761 1.404 . S
C760 C763 1.539 . S
C761 C757 1.408 . S
C761 C760 1.404 . S
C761 H773 0.930 . S
C762 C758 1.524 . S
C762 H774 0.956 . S
C762 H775 0.961 . S
C762 H776 0.961 . S
C763 C760 1.539 . S
C763 H777 0.958 . S
C763 H778 0.961 . S
C763 H779 0.960 . S
H764 C748 0.931 . S
H765 C753 0.929 . S
H766 C754 0.960 . S
H767 C754 0.962 . S
H768 C754 0.960 . S
H769 C755 0.961 . S
H770 C755 0.961 . S
H771 C755 0.961 . S
H772 C756 0.931 . S
H773 C761 0.930 . S
H774 C762 0.956 . S
H775 C762 0.961 . S
H776 C762 0.961 . S
H777 C763 0.958 . S
H778 C763 0.961 . S
H779 C763 0.960 . S
C780 C781 1.391 . S
C780 C782 1.394 . S
C780 H796 0.931 . S
C781 C780 1.391 . S
C781 C785 1.376 . S
C782 C780 1.394 . S
C782 C783 1.368 . S
C782 C786 1.531 1_556 S
C783 C782 1.368 . S
C783 C784 1.409 . S
C783 C791 1.505 1_556 S
C784 C783 1.409 . S
C784 C785 1.392 . S
C784 C787 1.511 . S
C785 C781 1.376 . S
C785 C784 1.392 . S
C785 H797 0.929 . S
C786 C782 1.531 1_554 S
C786 H798 0.960 . S
C786 H799 0.962 . S
C786 H800 0.960 1_554 S
C787 C784 1.511 . S
C787 H801 0.961 . S
C787 H802 0.961 1_556 S
C787 H803 0.961 1_556 S
C788 C789 1.370 . S
C788 C790 1.363 . S
C788 H804 0.931 . S
C789 C788 1.370 . S
C789 C793 1.408 . S
C790 C788 1.363 . S
C790 C791 1.370 . S
C790 C794 1.524 . S
C791 C783 1.505 1_554 S
C791 C790 1.370 . S
C791 C792 1.403 . S
C792 C791 1.403 . S
C792 C793 1.404 . S
C792 C795 1.539 . S
C793 C789 1.408 . S
C793 C792 1.404 . S
C793 H805 0.930 . S
C794 C790 1.524 . S
C794 H806 0.956 . S
C794 H807 0.961 . S
C794 H808 0.961 . S
C795 C792 1.539 . S
C795 H809 0.958 . S
C795 H810 0.961 . S
C795 H811 0.960 . S
H796 C780 0.931 . S
H797 C785 0.929 . S
H798 C786 0.960 . S
H799 C786 0.962 . S
H800 C786 0.960 1_556 S
H801 C787 0.961 . S
H802 C787 0.961 1_554 S
H803 C787 0.961 1_554 S
H804 C788 0.931 . S
H805 C793 0.930 . S
H806 C794 0.956 . S
H807 C794 0.961 . S
H808 C794 0.961 . S
H809 C795 0.958 . S
H810 C795 0.961 . S
H811 C795 0.960 . S
C812 C813 1.391 . S
C812 C814 1.394 . S
C812 H828 0.931 . S
C813 C812 1.391 . S
C813 C817 1.376 . S
C814 C812 1.394 . S
C814 C815 1.369 . S
C814 C818 1.531 . S
C815 C814 1.369 . S
C815 C816 1.410 . S
C815 C823 1.503 . S
C816 C815 1.410 . S
C816 C817 1.392 . S
C816 C819 1.511 . S
C817 C813 1.376 . S
C817 C816 1.392 . S
C817 H829 0.929 . S
C818 C814 1.531 . S
C818 H830 0.960 . S
C818 H831 0.962 . S
C818 H832 0.960 . S
C819 C816 1.511 . S
C819 H833 0.961 . S
C819 H834 0.961 . S
C819 H835 0.961 . S
C820 C821 1.370 . S
C820 C822 1.363 . S
C820 H836 0.931 . S
C821 C820 1.370 . S
C821 C825 1.408 . S
C822 C820 1.363 . S
C822 C823 1.370 . S
C822 C826 1.524 . S
C823 C815 1.503 . S
C823 C822 1.370 . S
C823 C824 1.403 . S
C824 C823 1.403 . S
C824 C825 1.404 . S
C824 C827 1.539 . S
C825 C821 1.408 . S
C825 C824 1.404 . S
C825 H837 0.930 . S
C826 C822 1.524 . S
C826 H838 0.956 . S
C826 H839 0.961 . S
C826 H840 0.961 . S
C827 C824 1.539 . S
C827 H841 0.958 . S
C827 H842 0.961 . S
C827 H843 0.960 . S
H828 C812 0.931 . S
H829 C817 0.929 . S
H830 C818 0.960 . S
H831 C818 0.962 . S
H832 C818 0.960 . S
H833 C819 0.961 . S
H834 C819 0.961 . S
H835 C819 0.961 . S
H836 C820 0.931 . S
H837 C825 0.930 . S
H838 C826 0.956 . S
H839 C826 0.961 . S
H840 C826 0.961 . S
H841 C827 0.958 . S
H842 C827 0.961 . S
H843 C827 0.960 . S
C844 C845 1.391 . S
C844 C846 1.394 . S
C844 H860 0.931 . S
C845 C844 1.391 . S
C845 C849 1.376 . S
C846 C844 1.394 . S
C846 C847 1.369 . S
C846 C850 1.531 . S
C847 C846 1.369 . S
C847 C848 1.410 . S
C847 C855 1.503 . S
C848 C847 1.410 . S
C848 C849 1.392 . S
C848 C851 1.511 . S
C849 C845 1.376 . S
C849 C848 1.392 . S
C849 H861 0.929 . S
C850 C846 1.531 . S
C850 H862 0.960 . S
C850 H863 0.962 . S
C850 H864 0.960 . S
C851 C848 1.511 . S
C851 H865 0.961 . S
C851 H866 0.961 . S
C851 H867 0.961 . S
C852 C853 1.370 . S
C852 C854 1.363 . S
C852 H868 0.931 . S
C853 C852 1.370 . S
C853 C857 1.408 . S
C854 C852 1.363 . S
C854 C855 1.370 . S
C854 C858 1.524 . S
C855 C847 1.503 . S
C855 C854 1.370 . S
C855 C856 1.403 . S
C856 C855 1.403 . S
C856 C857 1.404 . S
C856 C859 1.539 . S
C857 C853 1.408 . S
C857 C856 1.404 . S
C857 H869 0.930 . S
C858 C854 1.524 . S
C858 H870 0.956 . S
C858 H871 0.961 . S
C858 H872 0.961 . S
C859 C856 1.539 . S
C859 H873 0.958 . S
C859 H874 0.961 . S
C859 H875 0.960 . S
H860 C844 0.931 . S
H861 C849 0.929 . S
H862 C850 0.960 . S
H863 C850 0.962 . S
H864 C850 0.960 . S
H865 C851 0.961 . S
H866 C851 0.961 . S
H867 C851 0.961 . S
H868 C852 0.931 . S
H869 C857 0.930 . S
H870 C858 0.956 . S
H871 C858 0.961 . S
H872 C858 0.961 . S
H873 C859 0.958 . S
H874 C859 0.961 . S
H875 C859 0.960 . S
C876 C877 1.391 . S
C876 C878 1.394 . S
C876 H892 0.931 . S
C877 C876 1.391 . S
C877 C881 1.376 . S
C878 C876 1.394 . S
C878 C879 1.369 . S
C878 C882 1.531 . S
C879 C878 1.369 . S
C879 C880 1.410 . S
C879 C887 1.504 . S
C880 C879 1.410 . S
C880 C881 1.392 . S
C880 C883 1.511 . S
C881 C877 1.376 . S
C881 C880 1.392 . S
C881 H893 0.929 . S
C882 C878 1.531 . S
C882 H894 0.960 . S
C882 H895 0.962 . S
C882 H896 0.960 . S
C883 C880 1.511 . S
C883 H897 0.961 . S
C883 H898 0.961 . S
C883 H899 0.961 . S
C884 C885 1.370 . S
C884 C886 1.363 . S
C884 H900 0.931 . S
C885 C884 1.370 . S
C885 C889 1.408 . S
C886 C884 1.363 . S
C886 C887 1.370 1_556 S
C886 C890 1.524 1_556 S
C887 C879 1.504 . S
C887 C886 1.370 1_554 S
C887 C888 1.402 1_554 S
C888 C887 1.402 1_556 S
C888 C889 1.404 . S
C888 C891 1.539 . S
C889 C885 1.408 . S
C889 C888 1.404 . S
C889 H901 0.930 . S
C890 C886 1.524 1_554 S
C890 H902 0.956 . S
C890 H903 0.961 . S
C890 H904 0.961 1_554 S
C891 C888 1.539 . S
C891 H905 0.958 1_556 S
C891 H906 0.961 . S
C891 H907 0.960 1_556 S
H892 C876 0.931 . S
H893 C881 0.929 . S
H894 C882 0.960 . S
H895 C882 0.962 . S
H896 C882 0.960 . S
H897 C883 0.961 . S
H898 C883 0.961 . S
H899 C883 0.961 . S
H900 C884 0.931 . S
H901 C889 0.930 . S
H902 C890 0.956 . S
H903 C890 0.961 . S
H904 C890 0.961 1_556 S
H905 C891 0.958 1_554 S
H906 C891 0.961 . S
H907 C891 0.960 1_554 S
C908 C909 1.391 . S
C908 C910 1.394 . S
C908 H924 0.931 . S
C909 C908 1.391 . S
C909 C913 1.376 . S
C910 C908 1.394 . S
C910 C911 1.369 . S
C910 C914 1.531 . S
C911 C910 1.369 . S
C911 C912 1.410 . S
C911 C919 1.503 . S
C912 C911 1.410 . S
C912 C913 1.392 . S
C912 C915 1.511 . S
C913 C909 1.376 . S
C913 C912 1.392 . S
C913 H925 0.929 . S
C914 C910 1.531 . S
C914 H926 0.960 . S
C914 H927 0.962 . S
C914 H928 0.960 . S
C915 C912 1.511 . S
C915 H929 0.961 . S
C915 H930 0.961 . S
C915 H931 0.961 . S
C916 C917 1.370 . S
C916 C918 1.363 . S
C916 H932 0.931 . S
C917 C916 1.370 . S
C917 C921 1.408 . S
C918 C916 1.363 . S
C918 C919 1.370 . S
C918 C922 1.524 . S
C919 C911 1.503 . S
C919 C918 1.370 . S
C919 C920 1.403 . S
C920 C919 1.403 . S
C920 C921 1.404 . S
C920 C923 1.539 . S
C921 C917 1.408 . S
C921 C920 1.404 . S
C921 H933 0.930 . S
C922 C918 1.524 . S
C922 H934 0.956 . S
C922 H935 0.961 . S
C922 H936 0.961 . S
C923 C920 1.539 . S
C923 H937 0.958 . S
C923 H938 0.961 . S
C923 H939 0.960 . S
H924 C908 0.931 . S
H925 C913 0.929 . S
H926 C914 0.960 . S
H927 C914 0.962 . S
H928 C914 0.960 . S
H929 C915 0.961 . S
H930 C915 0.961 . S
H931 C915 0.961 . S
H932 C916 0.931 . S
H933 C921 0.930 . S
H934 C922 0.956 . S
H935 C922 0.961 . S
H936 C922 0.961 . S
H937 C923 0.958 . S
H938 C923 0.961 . S
H939 C923 0.960 . S
C940 C941 1.391 . S
C940 C942 1.394 . S
C940 H956 0.931 . S
C941 C940 1.391 . S
C941 C945 1.376 . S
C942 C940 1.394 . S
C942 C943 1.369 . S
C942 C946 1.531 . S
C943 C942 1.369 . S
C943 C944 1.410 . S
C943 C951 1.503 . S
C944 C943 1.410 . S
C944 C945 1.392 . S
C944 C947 1.511 . S
C945 C941 1.376 . S
C945 C944 1.392 . S
C945 H957 0.929 . S
C946 C942 1.531 . S
C946 H958 0.960 . S
C946 H959 0.962 . S
C946 H960 0.960 . S
C947 C944 1.511 . S
C947 H961 0.961 . S
C947 H962 0.961 . S
C947 H963 0.961 . S
C948 C949 1.370 . S
C948 C950 1.363 . S
C948 H964 0.931 . S
C949 C948 1.370 . S
C949 C953 1.408 . S
C950 C948 1.363 . S
C950 C951 1.370 . S
C950 C954 1.524 . S
C951 C943 1.503 . S
C951 C950 1.370 . S
C951 C952 1.403 . S
C952 C951 1.403 . S
C952 C953 1.404 . S
C952 C955 1.539 . S
C953 C949 1.408 . S
C953 C952 1.404 . S
C953 H965 0.930 . S
C954 C950 1.524 . S
C954 H966 0.956 . S
C954 H967 0.961 . S
C954 H968 0.961 . S
C955 C952 1.539 . S
C955 H969 0.958 . S
C955 H970 0.961 . S
C955 H971 0.960 . S
H956 C940 0.931 . S
H957 C945 0.929 . S
H958 C946 0.960 . S
H959 C946 0.962 . S
H960 C946 0.960 . S
H961 C947 0.961 . S
H962 C947 0.961 . S
H963 C947 0.961 . S
H964 C948 0.931 . S
H965 C953 0.930 . S
H966 C954 0.956 . S
H967 C954 0.961 . S
H968 C954 0.961 . S
H969 C955 0.958 . S
H970 C955 0.961 . S
H971 C955 0.960 . S
C972 C973 1.391 . S
C972 C974 1.394 . S
C972 H988 0.931 . S
C973 C972 1.391 . S
C973 C977 1.376 . S
C974 C972 1.394 . S
C974 C975 1.369 . S
C974 C978 1.531 . S
C975 C974 1.369 . S
C975 C976 1.410 . S
C975 C983 1.503 . S
C976 C975 1.410 . S
C976 C977 1.392 . S
C976 C979 1.511 . S
C977 C973 1.376 . S
C977 C976 1.392 . S
C977 H989 0.929 . S
C978 C974 1.531 . S
C978 H990 0.960 . S
C978 H991 0.962 . S
C978 H992 0.960 1_554 S
C979 C976 1.511 . S
C979 H993 0.961 . S
C979 H994 0.961 . S
C979 H995 0.961 . S
C980 C981 1.370 . S
C980 C982 1.363 . S
C980 H996 0.931 . S
C981 C980 1.370 . S
C981 C985 1.408 . S
C982 C980 1.363 . S
C982 C983 1.370 . S
C982 C986 1.524 . S
C983 C975 1.503 . S
C983 C982 1.370 . S
C983 C984 1.403 . S
C984 C983 1.403 . S
C984 C985 1.404 . S
C984 C987 1.539 . S
C985 C981 1.408 . S
C985 C984 1.404 . S
C985 H997 0.930 . S
C986 C982 1.524 . S
C986 H998 0.956 . S
C986 H999 0.961 . S
C986 H1000 0.961 . S
C987 C984 1.539 . S
C987 H1001 0.958 . S
C987 H1002 0.961 . S
C987 H1003 0.960 . S
H988 C972 0.931 . S
H989 C977 0.929 . S
H990 C978 0.960 . S
H991 C978 0.962 . S
H992 C978 0.960 1_556 S
H993 C979 0.961 . S
H994 C979 0.961 . S
H995 C979 0.961 . S
H996 C980 0.931 . S
H997 C985 0.930 . S
H998 C986 0.956 . S
H999 C986 0.961 . S
H1000 C986 0.961 . S
H1001 C987 0.958 . S
H1002 C987 0.961 . S
H1003 C987 0.960 . S
C1004 C1005 1.391 . S
C1004 C1006 1.394 . S
C1004 H1020 0.931 . S
C1005 C1004 1.391 . S
C1005 C1009 1.376 . S
C1006 C1004 1.394 . S
C1006 C1007 1.369 . S
C1006 C1010 1.531 . S
C1007 C1006 1.369 . S
C1007 C1008 1.410 . S
C1007 C1015 1.503 . S
C1008 C1007 1.410 . S
C1008 C1009 1.392 . S
C1008 C1011 1.511 . S
C1009 C1005 1.376 . S
C1009 C1008 1.392 . S
C1009 H1021 0.929 . S
C1010 C1006 1.531 . S
C1010 H1022 0.960 . S
C1010 H1023 0.962 . S
C1010 H1024 0.960 . S
C1011 C1008 1.511 . S
C1011 H1025 0.961 . S
C1011 H1026 0.961 . S
C1011 H1027 0.961 . S
C1012 C1013 1.370 . S
C1012 C1014 1.363 . S
C1012 H1028 0.931 . S
C1013 C1012 1.370 . S
C1013 C1017 1.408 . S
C1014 C1012 1.363 . S
C1014 C1015 1.370 . S
C1014 C1018 1.524 . S
C1015 C1007 1.503 . S
C1015 C1014 1.370 . S
C1015 C1016 1.403 . S
C1016 C1015 1.403 . S
C1016 C1017 1.404 . S
C1016 C1019 1.539 . S
C1017 C1013 1.408 . S
C1017 C1016 1.404 . S
C1017 H1029 0.930 . S
C1018 C1014 1.524 . S
C1018 H1030 0.956 . S
C1018 H1031 0.961 . S
C1018 H1032 0.961 . S
C1019 C1016 1.539 . S
C1019 H1033 0.958 . S
C1019 H1034 0.961 . S
C1019 H1035 0.960 . S
H1020 C1004 0.931 . S
H1021 C1009 0.929 . S
H1022 C1010 0.960 . S
H1023 C1010 0.962 . S
H1024 C1010 0.960 . S
H1025 C1011 0.961 . S
H1026 C1011 0.961 . S
H1027 C1011 0.961 . S
H1028 C1012 0.931 . S
H1029 C1017 0.930 . S
H1030 C1018 0.956 . S
H1031 C1018 0.961 . S
H1032 C1018 0.961 . S
H1033 C1019 0.958 . S
H1034 C1019 0.961 . S
H1035 C1019 0.960 . S
C1036 C1037 1.391 . S
C1036 C1038 1.394 . S
C1036 H1052 0.931 . S
C1037 C1036 1.391 . S
C1037 C1041 1.376 . S
C1038 C1036 1.394 . S
C1038 C1039 1.369 . S
C1038 C1042 1.531 . S
C1039 C1038 1.369 . S
C1039 C1040 1.410 . S
C1039 C1047 1.503 . S
C1040 C1039 1.410 . S
C1040 C1041 1.392 . S
C1040 C1043 1.511 . S
C1041 C1037 1.376 . S
C1041 C1040 1.392 . S
C1041 H1053 0.929 . S
C1042 C1038 1.531 . S
C1042 H1054 0.960 . S
C1042 H1055 0.962 . S
C1042 H1056 0.960 . S
C1043 C1040 1.511 . S
C1043 H1057 0.961 . S
C1043 H1058 0.961 . S
C1043 H1059 0.961 . S
C1044 C1045 1.370 . S
C1044 C1046 1.363 . S
C1044 H1060 0.931 . S
C1045 C1044 1.370 . S
C1045 C1049 1.408 . S
C1046 C1044 1.363 . S
C1046 C1047 1.370 . S
C1046 C1050 1.524 . S
C1047 C1039 1.503 . S
C1047 C1046 1.370 . S
C1047 C1048 1.403 . S
C1048 C1047 1.403 . S
C1048 C1049 1.404 . S
C1048 C1051 1.539 . S
C1049 C1045 1.408 . S
C1049 C1048 1.404 . S
C1049 H1061 0.930 . S
C1050 C1046 1.524 . S
C1050 H1062 0.956 . S
C1050 H1063 0.961 . S
C1050 H1064 0.961 . S
C1051 C1048 1.539 . S
C1051 H1065 0.964 . S
C1051 H1066 0.961 . S
C1051 H1067 0.960 . S
H1052 C1036 0.931 . S
H1053 C1041 0.929 . S
H1054 C1042 0.960 . S
H1055 C1042 0.962 . S
H1056 C1042 0.960 . S
H1057 C1043 0.961 . S
H1058 C1043 0.961 . S
H1059 C1043 0.961 . S
H1060 C1044 0.931 . S
H1061 C1049 0.930 . S
H1062 C1050 0.956 . S
H1063 C1050 0.961 . S
H1064 C1050 0.961 . S
H1065 C1051 0.964 . S
H1066 C1051 0.961 . S
H1067 C1051 0.960 . S
C1068 C1069 1.391 . S
C1068 C1070 1.394 . S
C1068 H1084 0.931 . S
C1069 C1068 1.391 . S
C1069 C1073 1.376 . S
C1070 C1068 1.394 . S
C1070 C1071 1.369 . S
C1070 C1074 1.531 . S
C1071 C1070 1.369 . S
C1071 C1072 1.410 . S
C1071 C1079 1.503 . S
C1072 C1071 1.410 . S
C1072 C1073 1.392 . S
C1072 C1075 1.511 . S
C1073 C1069 1.376 . S
C1073 C1072 1.392 . S
C1073 H1085 0.929 . S
C1074 C1070 1.531 . S
C1074 H1086 0.960 . S
C1074 H1087 0.962 . S
C1074 H1088 0.960 . S
C1075 C1072 1.511 . S
C1075 H1089 0.961 . S
C1075 H1090 0.961 . S
C1075 H1091 0.961 . S
C1076 C1077 1.370 . S
C1076 C1078 1.363 . S
C1076 H1092 0.931 . S
C1077 C1076 1.370 . S
C1077 C1081 1.408 . S
C1078 C1076 1.363 . S
C1078 C1079 1.370 . S
C1078 C1082 1.524 . S
C1079 C1071 1.503 . S
C1079 C1078 1.370 . S
C1079 C1080 1.403 . S
C1080 C1079 1.403 . S
C1080 C1081 1.404 . S
C1080 C1083 1.539 . S
C1081 C1077 1.408 . S
C1081 C1080 1.404 . S
C1081 H1093 0.930 . S
C1082 C1078 1.524 . S
C1082 H1094 0.956 . S
C1082 H1095 0.961 . S
C1082 H1096 0.961 . S
C1083 C1080 1.539 . S
C1083 H1097 0.958 . S
C1083 H1098 0.961 . S
C1083 H1099 0.960 . S
H1084 C1068 0.931 . S
H1085 C1073 0.929 . S
H1086 C1074 0.960 . S
H1087 C1074 0.962 . S
H1088 C1074 0.960 . S
H1089 C1075 0.961 . S
H1090 C1075 0.961 . S
H1091 C1075 0.961 . S
H1092 C1076 0.931 . S
H1093 C1081 0.930 . S
H1094 C1082 0.956 . S
H1095 C1082 0.961 . S
H1096 C1082 0.961 . S
H1097 C1083 0.958 . S
H1098 C1083 0.961 . S
H1099 C1083 0.960 . S
C1100 C1101 1.391 . S
C1100 C1102 1.394 . S
C1100 H1116 0.931 . S
C1101 C1100 1.391 . S
C1101 C1105 1.376 . S
C1102 C1100 1.394 . S
C1102 C1103 1.369 . S
C1102 C1106 1.531 . S
C1103 C1102 1.369 . S
C1103 C1104 1.410 . S
C1103 C1111 1.503 . S
C1104 C1103 1.410 . S
C1104 C1105 1.392 . S
C1104 C1107 1.511 . S
C1105 C1101 1.376 . S
C1105 C1104 1.392 . S
C1105 H1117 0.929 . S
C1106 C1102 1.531 . S
C1106 H1118 0.960 . S
C1106 H1119 0.962 . S
C1106 H1120 0.960 . S
C1107 C1104 1.511 . S
C1107 H1121 0.961 . S
C1107 H1122 0.961 . S
C1107 H1123 0.961 . S
C1108 C1109 1.370 . S
C1108 C1110 1.363 . S
C1108 H1124 0.931 . S
C1109 C1108 1.370 . S
C1109 C1113 1.408 . S
C1110 C1108 1.363 . S
C1110 C1111 1.370 . S
C1110 C1114 1.524 . S
C1111 C1103 1.503 . S
C1111 C1110 1.370 . S
C1111 C1112 1.403 . S
C1112 C1111 1.403 . S
C1112 C1113 1.404 . S
C1112 C1115 1.539 . S
C1113 C1109 1.408 . S
C1113 C1112 1.404 . S
C1113 H1125 0.930 . S
C1114 C1110 1.524 . S
C1114 H1126 0.956 . S
C1114 H1127 0.961 . S
C1114 H1128 0.961 . S
C1115 C1112 1.539 . S
C1115 H1129 0.958 . S
C1115 H1130 0.961 . S
C1115 H1131 0.960 . S
H1116 C1100 0.931 . S
H1117 C1105 0.929 . S
H1118 C1106 0.960 . S
H1119 C1106 0.962 . S
H1120 C1106 0.960 . S
H1121 C1107 0.961 . S
H1122 C1107 0.961 . S
H1123 C1107 0.961 . S
H1124 C1108 0.931 . S
H1125 C1113 0.930 . S
H1126 C1114 0.956 . S
H1127 C1114 0.961 . S
H1128 C1114 0.961 . S
H1129 C1115 0.958 . S
H1130 C1115 0.961 . S
H1131 C1115 0.960 . S
C1132 C1133 1.391 . S
C1132 C1134 1.394 . S
C1132 H1148 0.931 . S
C1133 C1132 1.391 . S
C1133 C1137 1.376 . S
C1134 C1132 1.394 . S
C1134 C1135 1.369 . S
C1134 C1138 1.531 . S
C1135 C1134 1.369 . S
C1135 C1136 1.410 . S
C1135 C1143 1.503 . S
C1136 C1135 1.410 . S
C1136 C1137 1.392 . S
C1136 C1139 1.511 . S
C1137 C1133 1.376 . S
C1137 C1136 1.392 . S
C1137 H1149 0.929 . S
C1138 C1134 1.531 . S
C1138 H1150 0.960 . S
C1138 H1151 0.962 . S
C1138 H1152 0.960 . S
C1139 C1136 1.511 . S
C1139 H1153 0.961 1_556 S
C1139 H1154 0.961 . S
C1139 H1155 0.961 . S
C1140 C1141 1.370 . S
C1140 C1142 1.363 . S
C1140 H1156 0.931 . S
C1141 C1140 1.370 . S
C1141 C1145 1.408 . S
C1142 C1140 1.363 . S
C1142 C1143 1.370 . S
C1142 C1146 1.524 . S
C1143 C1135 1.503 . S
C1143 C1142 1.370 . S
C1143 C1144 1.403 . S
C1144 C1143 1.403 . S
C1144 C1145 1.404 . S
C1144 C1147 1.539 . S
C1145 C1141 1.408 . S
C1145 C1144 1.404 . S
C1145 H1157 0.930 . S
C1146 C1142 1.524 . S
C1146 H1158 0.956 . S
C1146 H1159 0.961 . S
C1146 H1160 0.961 . S
C1147 C1144 1.539 . S
C1147 H1161 0.958 . S
C1147 H1162 0.961 . S
C1147 H1163 0.960 . S
H1148 C1132 0.931 . S
H1149 C1137 0.929 . S
H1150 C1138 0.960 . S
H1151 C1138 0.962 . S
H1152 C1138 0.960 . S
H1153 C1139 0.961 1_554 S
H1154 C1139 0.961 . S
H1155 C1139 0.961 . S
H1156 C1140 0.931 . S
H1157 C1145 0.930 . S
H1158 C1146 0.956 . S
H1159 C1146 0.961 . S
H1160 C1146 0.961 . S
H1161 C1147 0.958 . S
H1162 C1147 0.961 . S
H1163 C1147 0.960 . S
C1164 C1165 1.391 . S
C1164 C1166 1.394 . S
C1164 H1180 0.931 . S
C1165 C1164 1.391 . S
C1165 C1169 1.376 . S
C1166 C1164 1.394 . S
C1166 C1167 1.369 . S
C1166 C1170 1.531 1_556 S
C1167 C1166 1.369 . S
C1167 C1168 1.410 . S
C1167 C1175 1.503 1_556 S
C1168 C1167 1.410 . S
C1168 C1169 1.392 . S
C1168 C1171 1.511 . S
C1169 C1165 1.376 . S
C1169 C1168 1.392 . S
C1169 H1181 0.929 . S
C1170 C1166 1.531 1_554 S
C1170 H1182 0.960 . S
C1170 H1183 0.962 . S
C1170 H1184 0.960 . S
C1171 C1168 1.511 . S
C1171 H1185 0.961 . S
C1171 H1186 0.961 . S
C1171 H1187 0.961 . S
C1172 C1173 1.370 . S
C1172 C1174 1.363 . S
C1172 H1188 0.931 . S
C1173 C1172 1.370 . S
C1173 C1177 1.408 . S
C1174 C1172 1.363 . S
C1174 C1175 1.370 . S
C1174 C1178 1.524 . S
C1175 C1167 1.503 1_554 S
C1175 C1174 1.370 . S
C1175 C1176 1.403 1_554 S
C1176 C1175 1.403 1_556 S
C1176 C1177 1.404 1_556 S
C1176 C1179 1.539 . S
C1177 C1173 1.408 . S
C1177 C1176 1.404 1_554 S
C1177 H1189 0.930 1_554 S
C1178 C1174 1.524 . S
C1178 H1190 0.956 . S
C1178 H1191 0.961 . S
C1178 H1192 0.961 . S
C1179 C1176 1.539 . S
C1179 H1193 0.958 . S
C1179 H1194 0.961 . S
C1179 H1195 0.960 . S
H1180 C1164 0.931 . S
H1181 C1169 0.929 . S
H1182 C1170 0.960 . S
H1183 C1170 0.962 . S
H1184 C1170 0.960 . S
H1185 C1171 0.961 . S
H1186 C1171 0.961 . S
H1187 C1171 0.961 . S
H1188 C1172 0.931 . S
H1189 C1177 0.930 1_556 S
H1190 C1178 0.956 . S
H1191 C1178 0.961 . S
H1192 C1178 0.961 . S
H1193 C1179 0.958 . S
H1194 C1179 0.961 . S
H1195 C1179 0.960 . S
C1196 C1197 1.391 . S
C1196 C1198 1.394 . S
C1196 H1212 0.931 . S
C1197 C1196 1.391 . S
C1197 C1201 1.376 . S
C1198 C1196 1.394 . S
C1198 C1199 1.369 . S
C1198 C1202 1.531 . S
C1199 C1198 1.369 . S
C1199 C1200 1.410 . S
C1199 C1207 1.503 . S
C1200 C1199 1.410 . S
C1200 C1201 1.392 . S
C1200 C1203 1.511 . S
C1201 C1197 1.376 . S
C1201 C1200 1.392 . S
C1201 H1213 0.929 . S
C1202 C1198 1.531 . S
C1202 H1214 0.960 . S
C1202 H1215 0.962 . S
C1202 H1216 0.960 . S
C1203 C1200 1.511 . S
C1203 H1217 0.961 . S
C1203 H1218 0.961 . S
C1203 H1219 0.961 . S
C1204 C1205 1.370 . S
C1204 C1206 1.363 . S
C1204 H1220 0.931 . S
C1205 C1204 1.370 . S
C1205 C1209 1.408 . S
C1206 C1204 1.363 . S
C1206 C1207 1.370 . S
C1206 C1210 1.524 . S
C1207 C1199 1.503 . S
C1207 C1206 1.370 . S
C1207 C1208 1.403 . S
C1208 C1207 1.403 . S
C1208 C1209 1.404 . S
C1208 C1211 1.539 . S
C1209 C1205 1.408 . S
C1209 C1208 1.404 . S
C1209 H1221 0.930 . S
C1210 C1206 1.524 . S
C1210 H1222 0.956 . S
C1210 H1223 0.961 . S
C1210 H1224 0.961 . S
C1211 C1208 1.539 . S
C1211 H1225 0.958 . S
C1211 H1226 0.961 . S
C1211 H1227 0.960 . S
H1212 C1196 0.931 . S
H1213 C1201 0.929 . S
H1214 C1202 0.960 . S
H1215 C1202 0.962 . S
H1216 C1202 0.960 . S
H1217 C1203 0.961 . S
H1218 C1203 0.961 . S
H1219 C1203 0.961 . S
H1220 C1204 0.931 . S
H1221 C1209 0.930 . S
H1222 C1210 0.956 . S
H1223 C1210 0.961 . S
H1224 C1210 0.961 . S
H1225 C1211 0.958 . S
H1226 C1211 0.961 . S
H1227 C1211 0.960 . S
C1228 C1229 1.391 . S
C1228 C1230 1.394 . S
C1228 H1244 0.931 . S
C1229 C1228 1.391 . S
C1229 C1233 1.376 . S
C1230 C1228 1.394 . S
C1230 C1231 1.369 . S
C1230 C1234 1.531 . S
C1231 C1230 1.369 . S
C1231 C1232 1.410 . S
C1231 C1239 1.503 . S
C1232 C1231 1.410 . S
C1232 C1233 1.392 . S
C1232 C1235 1.511 . S
C1233 C1229 1.376 . S
C1233 C1232 1.392 . S
C1233 H1245 0.929 . S
C1234 C1230 1.531 . S
C1234 H1246 0.960 . S
C1234 H1247 0.962 . S
C1234 H1248 0.960 . S
C1235 C1232 1.511 . S
C1235 H1249 0.961 . S
C1235 H1250 0.961 . S
C1235 H1251 0.961 . S
C1236 C1237 1.370 . S
C1236 C1238 1.363 . S
C1236 H1252 0.931 . S
C1237 C1236 1.370 . S
C1237 C1241 1.408 . S
C1238 C1236 1.363 . S
C1238 C1239 1.370 . S
C1238 C1242 1.524 . S
C1239 C1231 1.503 . S
C1239 C1238 1.370 . S
C1239 C1240 1.403 . S
C1240 C1239 1.403 . S
C1240 C1241 1.404 . S
C1240 C1243 1.539 . S
C1241 C1237 1.408 . S
C1241 C1240 1.404 . S
C1241 H1253 0.930 . S
C1242 C1238 1.524 . S
C1242 H1254 0.956 . S
C1242 H1255 0.961 . S
C1242 H1256 0.961 . S
C1243 C1240 1.539 . S
C1243 H1257 0.958 . S
C1243 H1258 0.961 . S
C1243 H1259 0.960 . S
H1244 C1228 0.931 . S
H1245 C1233 0.929 . S
H1246 C1234 0.960 . S
H1247 C1234 0.962 . S
H1248 C1234 0.960 . S
H1249 C1235 0.961 . S
H1250 C1235 0.961 . S
H1251 C1235 0.961 . S
H1252 C1236 0.931 . S
H1253 C1241 0.930 . S
H1254 C1242 0.956 . S
H1255 C1242 0.961 . S
H1256 C1242 0.961 . S
H1257 C1243 0.958 . S
H1258 C1243 0.961 . S
H1259 C1243 0.960 . S
C1260 C1261 1.391 . S
C1260 C1262 1.394 1_554 S
C1260 H1276 0.934 . S
C1261 C1260 1.391 . S
C1261 C1265 1.376 . S
C1262 C1260 1.394 1_556 S
C1262 C1263 1.369 1_556 S
C1262 C1266 1.531 . S
C1263 C1262 1.369 1_554 S
C1263 C1264 1.410 . S
C1263 C1271 1.503 1_554 S
C1264 C1263 1.410 . S
C1264 C1265 1.392 . S
C1264 C1267 1.511 . S
C1265 C1261 1.376 . S
C1265 C1264 1.392 . S
C1265 H1277 0.929 . S
C1266 C1262 1.531 . S
C1266 H1278 0.960 . S
C1266 H1279 0.962 . S
C1266 H1280 0.960 . S
C1267 C1264 1.511 . S
C1267 H1281 0.961 . S
C1267 H1282 0.961 . S
C1267 H1283 0.961 . S
C1268 C1269 1.370 . S
C1268 C1270 1.363 . S
C1268 H1284 0.931 . S
C1269 C1268 1.370 . S
C1269 C1273 1.408 . S
C1270 C1268 1.363 . S
C1270 C1271 1.370 . S
C1270 C1274 1.524 . S
C1271 C1263 1.503 1_556 S
C1271 C1270 1.370 . S
C1271 C1272 1.403 1_556 S
C1272 C1271 1.403 1_554 S
C1272 C1273 1.404 1_554 S
C1272 C1275 1.539 . S
C1273 C1269 1.408 . S
C1273 C1272 1.404 1_556 S
C1273 H1285 0.929 1_556 S
C1274 C1270 1.524 . S
C1274 H1286 0.956 . S
C1274 H1287 0.961 . S
C1274 H1288 0.961 . S
C1275 C1272 1.539 . S
C1275 H1289 0.958 . S
C1275 H1290 0.961 . S
C1275 H1291 0.960 . S
H1276 C1260 0.934 . S
H1277 C1265 0.929 . S
H1278 C1266 0.960 . S
H1279 C1266 0.962 . S
H1280 C1266 0.960 . S
H1281 C1267 0.961 . S
H1282 C1267 0.961 . S
H1283 C1267 0.961 . S
H1284 C1268 0.931 . S
H1285 C1273 0.929 1_554 S
H1286 C1274 0.956 . S
H1287 C1274 0.961 . S
H1288 C1274 0.961 . S
H1289 C1275 0.958 . S
H1290 C1275 0.961 . S
H1291 C1275 0.960 . S
C1292 C1293 1.391 . S
C1292 C1294 1.394 . S
C1292 H1308 0.931 . S
C1293 C1292 1.391 . S
C1293 C1297 1.376 . S
C1294 C1292 1.394 . S
C1294 C1295 1.369 . S
C1294 C1298 1.531 . S
C1295 C1294 1.369 . S
C1295 C1296 1.410 . S
C1295 C1303 1.503 . S
C1296 C1295 1.410 . S
C1296 C1297 1.392 . S
C1296 C1299 1.511 . S
C1297 C1293 1.376 . S
C1297 C1296 1.392 . S
C1297 H1309 0.929 . S
C1298 C1294 1.531 . S
C1298 H1310 0.960 . S
C1298 H1311 0.962 . S
C1298 H1312 0.960 . S
C1299 C1296 1.511 . S
C1299 H1313 0.961 . S
C1299 H1314 0.961 . S
C1299 H1315 0.961 . S
C1300 C1301 1.370 . S
C1300 C1302 1.363 . S
C1300 H1316 0.931 . S
C1301 C1300 1.370 . S
C1301 C1305 1.408 . S
C1302 C1300 1.363 . S
C1302 C1303 1.370 . S
C1302 C1306 1.524 . S
C1303 C1295 1.503 . S
C1303 C1302 1.370 . S
C1303 C1304 1.403 . S
C1304 C1303 1.403 . S
C1304 C1305 1.404 . S
C1304 C1307 1.539 . S
C1305 C1301 1.408 . S
C1305 C1304 1.404 . S
C1305 H1317 0.930 . S
C1306 C1302 1.524 . S
C1306 H1318 0.956 . S
C1306 H1319 0.961 . S
C1306 H1320 0.961 . S
C1307 C1304 1.539 . S
C1307 H1321 0.958 . S
C1307 H1322 0.961 . S
C1307 H1323 0.960 . S
H1308 C1292 0.931 . S
H1309 C1297 0.929 . S
H1310 C1298 0.960 . S
H1311 C1298 0.962 . S
H1312 C1298 0.960 . S
H1313 C1299 0.961 . S
H1314 C1299 0.961 . S
H1315 C1299 0.961 . S
H1316 C1300 0.931 . S
H1317 C1305 0.930 . S
H1318 C1306 0.956 . S
H1319 C1306 0.961 . S
H1320 C1306 0.961 . S
H1321 C1307 0.958 . S
H1322 C1307 0.961 . S
H1323 C1307 0.960 . S
C1324 C1325 1.391 . S
C1324 C1326 1.394 . S
C1324 H1340 0.931 . S
C1325 C1324 1.391 . S
C1325 C1329 1.376 . S
C1326 C1324 1.394 . S
C1326 C1327 1.369 . S
C1326 C1330 1.531 . S
C1327 C1326 1.369 . S
C1327 C1328 1.410 . S
C1327 C1335 1.503 . S
C1328 C1327 1.410 . S
C1328 C1329 1.392 . S
C1328 C1331 1.511 . S
C1329 C1325 1.376 . S
C1329 C1328 1.392 . S
C1329 H1341 0.929 . S
C1330 C1326 1.531 . S
C1330 H1342 0.960 . S
C1330 H1343 0.962 . S
C1330 H1344 0.960 . S
C1331 C1328 1.511 . S
C1331 H1345 0.961 . S
C1331 H1346 0.961 . S
C1331 H1347 0.961 . S
C1332 C1333 1.370 . S
C1332 C1334 1.363 . S
C1332 H1348 0.931 . S
C1333 C1332 1.370 . S
C1333 C1337 1.408 . S
C1334 C1332 1.363 . S
C1334 C1335 1.370 . S
C1334 C1338 1.524 . S
C1335 C1327 1.503 . S
C1335 C1334 1.370 . S
C1335 C1336 1.403 . S
C1336 C1335 1.403 . S
C1336 C1337 1.404 . S
C1336 C1339 1.539 . S
C1337 C1333 1.408 . S
C1337 C1336 1.404 . S
C1337 H1349 0.930 . S
C1338 C1334 1.524 . S
C1338 H1350 0.956 . S
C1338 H1351 0.961 . S
C1338 H1352 0.961 . S
C1339 C1336 1.539 . S
C1339 H1353 0.958 . S
C1339 H1354 0.961 . S
C1339 H1355 0.960 . S
H1340 C1324 0.931 . S
H1341 C1329 0.929 . S
H1342 C1330 0.960 . S
H1343 C1330 0.962 . S
H1344 C1330 0.960 . S
H1345 C1331 0.961 . S
H1346 C1331 0.961 . S
H1347 C1331 0.961 . S
H1348 C1332 0.931 . S
H1349 C1337 0.930 . S
H1350 C1338 0.956 . S
H1351 C1338 0.961 . S
H1352 C1338 0.961 . S
H1353 C1339 0.958 . S
H1354 C1339 0.961 . S
H1355 C1339 0.960 . S
C397 C28 1.299 . S
C405 C391 1.281 . S
C429 C61 1.289 . S
C437 C226 1.276 . S
C461 C259 1.295 . S
C469 C94 1.278 . S
C493 C292 1.298 . S
C501 C127 1.281 . S
C525 C325 1.283 . S
C533 C160 1.274 . S
C557 C358 1.279 . S
C565 C193 1.290 . S
C589 N14 1.431 . S
C597 N5 1.419 . S
C621 N38 1.444 . S
C629 N47 1.413 . S
C653 N80 1.441 . S
C661 N71 1.418 . S
C685 N113 1.431 . S
C693 N104 1.419 . S
C717 N146 1.411 . S
C725 N137 1.431 . S
C749 N170 1.399 . S
C757 N179 1.431 . S
C781 N212 1.439 . S
C789 N203 1.417 . S
C813 N236 1.438 . S
C821 N245 1.413 . S
C845 N278 1.405 . S
C853 N269 1.428 . S
C877 N302 1.408 . S
C885 N311 1.425 . S
C909 N335 1.415 . S
C917 N344 1.428 . S
C941 N377 1.396 . S
C949 N368 1.433 . S
C973 C17 1.596 . S
C981 C281 1.600 . S
C1005 C50 1.614 . S
C1013 C314 1.604 . S
C1037 C83 1.601 . S
C1045 C347 1.611 . S
C1069 C380 1.595 . S
C1077 C116 1.601 . S
C1101 C215 1.590 . S
C1109 C149 1.602 . S
C1133 C248 1.611 . S
C1141 C182 1.609 . S
C1165 C338 1.084 . S
C1173 C8 1.075 . S
C1197 C371 1.061 . S
C1205 C41 1.086 . S
C1229 C206 1.098 . S
C1237 C74 1.092 . S
C1261 C107 1.080 . S
C1269 C239 1.074 . S
C1293 C140 1.098 . S
C1301 C272 1.093 . S
C1325 C173 1.063 . S
C1333 C305 1.088 . S
