# Generated by pormake.
# Topology yfa, (5)-cn, num edge types: 1
# Building blocks:
#     Node 0, Type 0, BuildingBlock: BEQFEK_clean_sbu_0, # of connection points: 5
#     Node 1, Type 0, BuildingBlock: BEQFEK_clean_sbu_0, # of connection points: 5
#     Node 2, Type 0, BuildingBlock: BEQFEK_clean_sbu_0, # of connection points: 5
#     Node 3, Type 0, BuildingBlock: BEQFEK_clean_sbu_0, # of connection points: 5
#     Node 4, Type 0, BuildingBlock: BEQFEK_clean_sbu_0, # of connection points: 5
#     Node 5, Type 0, BuildingBlock: BEQFEK_clean_sbu_0, # of connection points: 5
#     Node 6, Type 0, BuildingBlock: BEQFEK_clean_sbu_0, # of connection points: 5
#     Node 7, Type 0, BuildingBlock: BEQFEK_clean_sbu_0, # of connection points: 5
#     Node 8, Type 0, BuildingBlock: BEQFEK_clean_sbu_0, # of connection points: 5
#     Node 9, Type 0, BuildingBlock: BEQFEK_clean_sbu_0, # of connection points: 5
#     Node 10, Type 0, BuildingBlock: BEQFEK_clean_sbu_0, # of connection points: 5
#     Node 11, Type 0, BuildingBlock: BEQFEK_clean_sbu_0, # of connection points: 5
#     Node 12, Type 0, BuildingBlock: BEQFEK_clean_sbu_0, # of connection points: 5
#     Node 13, Type 0, BuildingBlock: BEQFEK_clean_sbu_0, # of connection points: 5
#     Node 14, Type 0, BuildingBlock: BEQFEK_clean_sbu_0, # of connection points: 5
#     Node 15, Type 0, BuildingBlock: BEQFEK_clean_sbu_0, # of connection points: 5
#     Edge 16, Type (0, 0), BuildingBlock: KIFKEQ_clean_linker_1, # of connection points: 2
#     Edge 17, Type (0, 0), BuildingBlock: KIFKEQ_clean_linker_1, # of connection points: 2
#     Edge 18, Type (0, 0), BuildingBlock: KIFKEQ_clean_linker_1, # of connection points: 2
#     Edge 19, Type (0, 0), BuildingBlock: KIFKEQ_clean_linker_1, # of connection points: 2
#     Edge 20, Type (0, 0), BuildingBlock: KIFKEQ_clean_linker_1, # of connection points: 2
#     Edge 21, Type (0, 0), BuildingBlock: KIFKEQ_clean_linker_1, # of connection points: 2
#     Edge 22, Type (0, 0), BuildingBlock: KIFKEQ_clean_linker_1, # of connection points: 2
#     Edge 23, Type (0, 0), BuildingBlock: KIFKEQ_clean_linker_1, # of connection points: 2
#     Edge 24, Type (0, 0), BuildingBlock: KIFKEQ_clean_linker_1, # of connection points: 2
#     Edge 25, Type (0, 0), BuildingBlock: KIFKEQ_clean_linker_1, # of connection points: 2
#     Edge 26, Type (0, 0), BuildingBlock: KIFKEQ_clean_linker_1, # of connection points: 2
#     Edge 27, Type (0, 0), BuildingBlock: KIFKEQ_clean_linker_1, # of connection points: 2
#     Edge 28, Type (0, 0), BuildingBlock: KIFKEQ_clean_linker_1, # of connection points: 2
#     Edge 29, Type (0, 0), BuildingBlock: KIFKEQ_clean_linker_1, # of connection points: 2
#     Edge 30, Type (0, 0), BuildingBlock: KIFKEQ_clean_linker_1, # of connection points: 2
#     Edge 31, Type (0, 0), BuildingBlock: KIFKEQ_clean_linker_1, # of connection points: 2
#     Edge 32, Type (0, 0), BuildingBlock: KIFKEQ_clean_linker_1, # of connection points: 2
#     Edge 33, Type (0, 0), BuildingBlock: KIFKEQ_clean_linker_1, # of connection points: 2
#     Edge 34, Type (0, 0), BuildingBlock: KIFKEQ_clean_linker_1, # of connection points: 2
#     Edge 35, Type (0, 0), BuildingBlock: KIFKEQ_clean_linker_1, # of connection points: 2
#     Edge 36, Type (0, 0), BuildingBlock: KIFKEQ_clean_linker_1, # of connection points: 2
#     Edge 37, Type (0, 0), BuildingBlock: KIFKEQ_clean_linker_1, # of connection points: 2
#     Edge 38, Type (0, 0), BuildingBlock: KIFKEQ_clean_linker_1, # of connection points: 2
#     Edge 39, Type (0, 0), BuildingBlock: KIFKEQ_clean_linker_1, # of connection points: 2
#     Edge 40, Type (0, 0), BuildingBlock: KIFKEQ_clean_linker_1, # of connection points: 2
#     Edge 41, Type (0, 0), BuildingBlock: KIFKEQ_clean_linker_1, # of connection points: 2
#     Edge 42, Type (0, 0), BuildingBlock: KIFKEQ_clean_linker_1, # of connection points: 2
#     Edge 43, Type (0, 0), BuildingBlock: KIFKEQ_clean_linker_1, # of connection points: 2
#     Edge 44, Type (0, 0), BuildingBlock: KIFKEQ_clean_linker_1, # of connection points: 2
#     Edge 45, Type (0, 0), BuildingBlock: KIFKEQ_clean_linker_1, # of connection points: 2
#     Edge 46, Type (0, 0), BuildingBlock: KIFKEQ_clean_linker_1, # of connection points: 2
#     Edge 47, Type (0, 0), BuildingBlock: KIFKEQ_clean_linker_1, # of connection points: 2
#     Edge 48, Type (0, 0), BuildingBlock: KIFKEQ_clean_linker_1, # of connection points: 2
#     Edge 49, Type (0, 0), BuildingBlock: KIFKEQ_clean_linker_1, # of connection points: 2
#     Edge 50, Type (0, 0), BuildingBlock: KIFKEQ_clean_linker_1, # of connection points: 2
#     Edge 51, Type (0, 0), BuildingBlock: KIFKEQ_clean_linker_1, # of connection points: 2
#     Edge 52, Type (0, 0), BuildingBlock: KIFKEQ_clean_linker_1, # of connection points: 2
#     Edge 53, Type (0, 0), BuildingBlock: KIFKEQ_clean_linker_1, # of connection points: 2
#     Edge 54, Type (0, 0), BuildingBlock: KIFKEQ_clean_linker_1, # of connection points: 2
#     Edge 55, Type (0, 0), BuildingBlock: KIFKEQ_clean_linker_1, # of connection points: 2
# Relax obj value: 0.787
# Max RMSD: 0.296
# Mean RMSD: 0.296
data_MOF--net-yfa--node1-BEQFEK_clean_sbu_0--edge1-KIFKEQ_clean_linker_1
_symmetry_space_group_name_H-M    P1
_symmetry_Int_Tables_number       1
_symmetry_cell_setting            triclinic
loop_
_symmetry_equiv_pos_as_xyz
'x, y, z'
_cell_length_a     50.421888
_cell_length_b     50.454141
_cell_length_c     30.574527
_cell_angle_alpha  89.957443
_cell_angle_beta   89.879181
_cell_angle_gamma 90.03966
loop_
_atom_site_label
_atom_site_type_symbol
_atom_site_fract_x
_atom_site_fract_y
_atom_site_fract_z
_atom_type_partial_charge
Co0 Co 0.63864 0.02582 0.12034 0.0
Co1 Co 0.64716 0.081 0.07656 0.0
C2 C 0.69129 0.04748 0.1169 0.0
O3 O 0.67711 0.02687 0.12185 0.0
O4 O 0.68184 0.06846 0.09972 0.0
C5 C 0.63871 0.97363 0.16234 0.0
O6 O 0.66462 0.97569 0.16526 0.0
C7 C 0.65894 0.10773 0.995 0.0
C8 C 0.64454 0.14818 0.0083 0.0
C9 C 0.6532 0.13167 0.97489 0.0
N10 N 0.65317 0.1098 0.03775 0.0
N11 N 0.64554 0.13434 0.04588 0.0
C12 C 0.66585 0.08215 0.97293 0.0
H13 H 0.66832 0.06601 -0.00276 0.0
H14 H 0.65025 0.07673 0.94902 0.0
H15 H 0.68466 0.08462 0.95449 0.0
C16 C 0.60611 0.01704 0.04352 0.0
N17 N 0.62494 0.03106 0.06422 0.0
N18 N 0.62562 0.05522 0.04835 0.0
C19 C 0.60598 0.05782 0.01874 0.0
C20 C 0.59323 0.03355 0.01427 0.0
C21 C 0.59667 0.99034 0.05823 0.0
H22 H 0.5842 0.99268 0.08793 0.0
H23 H 0.61389 0.97759 0.06631 0.0
H24 H 0.58463 0.98057 0.0325 0.0
O25 O 0.62581 0.05403 0.16089 0.0
O26 O 0.6287 0.09354 0.12897 0.0
H27 H 0.60112 0.10005 0.02531 0.0
H28 H 0.57434 0.08361 -0.00312 0.0
C29 C 0.5961 0.08396 0.00208 0.0
H30 H 0.60553 0.08828 0.9701 0.0
H31 H 0.6387 0.1409 0.07621 0.0
O32 O 0.62543 0.99216 0.14476 0.0
C33 C 0.62252 0.07911 0.16162 0.0
Co34 Co 0.47123 0.64324 0.13046 0.0
Co35 Co 0.41801 0.64698 0.08195 0.0
C36 C 0.45114 0.69151 0.11515 0.0
O37 O 0.4709 0.67791 0.10371 0.0
O38 O 0.42829 0.68328 0.10411 0.0
C39 C 0.5277 0.64338 0.14687 0.0
O40 O 0.53032 0.6526 0.1069 0.0
C41 C 0.39272 0.65753 -0.00131 0.0
C42 C 0.35293 0.64014 0.00821 0.0
C43 C 0.36936 0.65132 0.9767 0.0
N44 N 0.3903 0.64957 0.04038 0.0
N45 N 0.36629 0.63974 0.04622 0.0
C46 C 0.41717 0.67073 0.98134 0.0
H47 H 0.4269 0.68226 0.00775 0.0
H48 H 0.4315 0.65548 0.97023 0.0
H49 H 0.4123 0.68404 0.95358 0.0
C50 C 0.48081 0.59894 0.07088 0.0
N51 N 0.46692 0.62007 0.08449 0.0
N52 N 0.44482 0.62218 0.06196 0.0
C53 C 0.44367 0.60163 0.03366 0.0
C54 C 0.46666 0.58661 0.03799 0.0
C55 C 0.50515 0.58866 0.09322 0.0
H56 H 0.52257 0.6003 0.08211 0.0
H57 H 0.50875 0.56747 0.08566 0.0
H58 H 0.50315 0.59097 0.12912 0.0
O59 O 0.44157 0.63731 0.17318 0.0
O60 O 0.40386 0.63218 0.13616 0.0
H61 H 0.40169 0.59647 0.02667 0.0
H62 H 0.42136 0.57469 0.99246 0.0
C63 C 0.41993 0.59489 0.00651 0.0
H64 H 0.41837 0.60918 0.97912 0.0
H65 H 0.35954 0.6315 0.07551 0.0
O66 O 0.50479 0.63805 0.16177 0.0
C67 C 0.41679 0.63192 0.17193 0.0
Co68 Co 0.85347 0.4693 0.13834 0.0
Co69 Co 0.84648 0.42131 0.07946 0.0
C70 C 0.80395 0.45686 0.11632 0.0
O71 O 0.81969 0.47599 0.11105 0.0
O72 O 0.81147 0.43398 0.1042 0.0
C73 C 0.85637 0.5231 0.16571 0.0
O74 O 0.84624 0.52794 0.12698 0.0
C75 C 0.83211 0.41021 0.99071 0.0
C76 C 0.84434 0.36864 0.98118 0.0
C77 C 0.83506 0.39076 0.95886 0.0
N78 N 0.84003 0.40027 0.02921 0.0
N79 N 0.84679 0.37523 0.02368 0.0
C80 C 0.82245 0.43808 0.98548 0.0
H81 H 0.83966 0.45153 0.98102 0.0
H82 H 0.80902 0.43984 0.95692 0.0
H83 H 0.81188 0.44446 0.01553 0.0
C84 C 0.89917 0.48053 0.08142 0.0
N85 N 0.87753 0.46667 0.09309 0.0
N86 N 0.87405 0.44671 0.06613 0.0
C87 C 0.89413 0.44683 0.03676 0.0
C88 C 0.91033 0.46855 0.04516 0.0
C89 C 0.91022 0.50337 0.10677 0.0
H90 H 0.90853 0.49942 0.14234 0.0
H91 H 0.89864 0.52145 0.09905 0.0
H92 H 0.93133 0.50709 0.0984 0.0
O93 O 0.85347 0.43549 0.17359 0.0
O94 O 0.85883 0.40052 0.12961 0.0
H95 H 0.89423 0.406 0.01733 0.0
H96 H 0.91936 0.42612 0.99077 0.0
C97 C 0.89868 0.42576 0.00318 0.0
H98 H 0.88516 0.42912 0.97518 0.0
H99 H 0.85448 0.36315 0.04827 0.0
O100 O 0.86124 0.49935 0.17695 0.0
C101 C 0.85708 0.41061 0.16781 0.0
Co102 Co 0.02452 0.85986 0.14565 0.0
Co103 Co 0.0704 0.85246 0.07763 0.0
C104 C 0.04534 0.80704 0.12683 0.0
O105 O 0.02727 0.82163 0.14262 0.0
O106 O 0.06321 0.81647 0.10183 0.0
C107 C 0.97162 0.85603 0.17697 0.0
O108 O 0.96916 0.83977 0.14368 0.0
C109 C 0.08423 0.83717 0.98919 0.0
C110 C 0.12347 0.85565 0.97937 0.0
C111 C 0.10354 0.84199 0.95764 0.0
N112 N 0.09205 0.84816 0.02703 0.0
N113 N 0.11579 0.85868 0.0213 0.0
C114 C 0.05848 0.82272 0.98398 0.0
H115 H 0.05348 0.81205 0.01465 0.0
H116 H 0.04235 0.83714 0.97769 0.0
H117 H 0.05952 0.80845 0.95642 0.0
C118 C 0.00361 0.89468 0.07782 0.0
N119 N 0.02041 0.8755 0.09069 0.0
N120 N 0.03996 0.87343 0.06238 0.0
C121 C 0.03637 0.89177 0.03069 0.0
C122 C 0.01303 0.90556 0.03919 0.0
C123 C 0.98241 0.90612 0.10665 0.0
H124 H 0.99036 0.90931 0.14 0.0
H125 H 0.96562 0.89198 0.10862 0.0
H126 H 0.97477 0.92529 0.09429 0.0
O127 O 0.05726 0.87359 0.17369 0.0
O128 O 0.09025 0.87016 0.12525 0.0
H129 H 0.07666 0.89949 0.01176 0.0
H130 H 0.05232 0.91775 0.98035 0.0
C131 C 0.05669 0.89863 -0.00333 0.0
H132 H 0.05682 0.88311 0.97113 0.0
H133 H 0.12615 0.86903 0.04535 0.0
O134 O 0.99384 0.86714 0.18396 0.0
C135 C 0.08158 0.87667 0.163 0.0
Co136 Co 0.63039 0.46981 0.3562 0.0
Co137 Co 0.64348 0.42138 0.41615 0.0
C138 C 0.68571 0.45447 0.37262 0.0
O139 O 0.66845 0.47018 0.3575 0.0
O140 O 0.67908 0.43451 0.39575 0.0
C141 C 0.6314 0.52339 0.32614 0.0
O142 O 0.64925 0.52671 0.3569 0.0
C143 C 0.65719 0.40254 0.50319 0.0
C144 C 0.64756 0.35995 0.49946 0.0
C145 C 0.65554 0.37955 0.5286 0.0
N146 N 0.64988 0.39665 0.46208 0.0
N147 N 0.64474 0.37106 0.45976 0.0
C148 C 0.66389 0.43018 0.51718 0.0
H149 H 0.66096 0.44438 0.48992 0.0
H150 H 0.65147 0.43622 0.54544 0.0
H151 H 0.68504 0.43105 0.52695 0.0
C152 C 0.5967 0.4849 0.42946 0.0
N153 N 0.61591 0.46969 0.41224 0.0
N154 N 0.61912 0.4483 0.43629 0.0
C155 C 0.60088 0.44874 0.46877 0.0
C156 C 0.58662 0.47226 0.46603 0.0
C157 C 0.58511 0.50857 0.40692 0.0
H158 H 0.5784 0.50284 0.37371 0.0
H159 H 0.60062 0.52401 0.40345 0.0
H160 H 0.56811 0.51703 0.42523 0.0
O161 O 0.61865 0.43797 0.32386 0.0
O162 O 0.62768 0.40285 0.36533 0.0
H163 H 0.57302 0.42541 0.50649 0.0
H164 H 0.60585 0.42699 0.52822 0.0
C165 C 0.59434 0.42556 0.49749 0.0
H166 H 0.59936 0.40671 0.48083 0.0
H167 H 0.6381 0.36144 0.43159 0.0
O168 O 0.62013 0.50102 0.3217 0.0
C169 C 0.61866 0.41298 0.33016 0.0
Co170 Co 0.02992 0.63687 0.3747 0.0
Co171 Co 0.08188 0.64334 0.42787 0.0
C172 C 0.05395 0.68828 0.37904 0.0
O173 O 0.03328 0.6748 0.37115 0.0
O174 O 0.07359 0.67835 0.39957 0.0
C175 C 0.97922 0.63897 0.32771 0.0
O176 O 0.98091 0.66496 0.32749 0.0
C177 C 0.10302 0.65716 0.5129 0.0
C178 C 0.14455 0.64362 0.50861 0.0
C179 C 0.12598 0.654 0.53749 0.0
N180 N 0.10774 0.6485 0.47212 0.0
N181 N 0.13272 0.64084 0.46946 0.0
C182 C 0.07689 0.66838 0.52699 0.0
H183 H 0.06681 0.67779 0.49871 0.0
H184 H 0.06393 0.65217 0.53901 0.0
H185 H 0.07961 0.68313 0.55354 0.0
C186 C 0.01339 0.60705 0.45035 0.0
N187 N 0.02977 0.62505 0.43246 0.0
N188 N 0.05275 0.62429 0.4524 0.0
C189 C 0.05231 0.60422 0.4816 0.0
C190 C 0.02727 0.59256 0.4812 0.0
C191 C 0.98722 0.59936 0.4311 0.0
H192 H 0.97637 0.61728 0.42016 0.0
H193 H 0.97494 0.58852 0.45543 0.0
H194 H 0.99063 0.58614 0.40268 0.0
O195 O 0.05988 0.62056 0.34118 0.0
O196 O 0.09696 0.62232 0.38031 0.0
H197 H 0.0938 0.59463 0.47919 0.0
H198 H 0.07391 0.57184 0.51153 0.0
C199 C 0.07677 0.59289 0.50206 0.0
H200 H 0.08154 0.60433 0.53199 0.0
H201 H 0.14135 0.63268 0.4415 0.0
O202 O -0.00252 0.62525 0.3451 0.0
C203 C 0.08456 0.61562 0.34583 0.0
Co204 Co 0.84785 0.02294 0.34602 0.0
Co205 Co 0.85554 0.07448 0.39902 0.0
C206 C 0.80332 0.04655 0.38108 0.0
O207 O 0.81449 0.02415 0.37795 0.0
O208 O 0.81714 0.06685 0.39058 0.0
C209 C 0.84324 0.96765 0.32752 0.0
O210 O 0.83491 0.96633 0.36822 0.0
C211 C 0.85287 0.0968 0.48582 0.0
C212 C 0.87636 0.13355 0.4796 0.0
C213 C 0.86376 0.11741 0.51004 0.0
N214 N 0.85957 0.10021 0.4437 0.0
N215 N 0.8731 0.12251 0.43991 0.0
C216 C 0.83679 0.07375 0.5017 0.0
H217 H 0.82251 0.06752 0.47619 0.0
H218 H 0.8501 0.0567 0.50817 0.0
H219 H 0.82584 0.07887 0.53207 0.0
C220 C 0.89692 0.00773 0.39232 0.0
N221 N 0.87613 0.02391 0.38546 0.0
N222 N 0.8786 0.04521 0.40985 0.0
C223 C 0.90124 0.04326 0.43312 0.0
C224 C 0.9134 0.01937 0.42291 0.0
C225 C 0.90283 0.98346 0.36586 0.0
H226 H 0.89761 0.98687 0.33113 0.0
H227 H 0.89089 0.96669 0.37864 0.0
H228 H 0.92409 0.97794 0.36764 0.0
O229 O 0.84978 0.05383 0.30536 0.0
O230 O 0.86446 0.08943 0.34126 0.0
H231 H 0.91279 0.08352 0.44451 0.0
H232 H 0.93153 0.05955 0.47588 0.0
C233 C 0.91171 0.06449 0.46261 0.0
H234 H 0.89801 0.06703 0.49062 0.0
H235 H 0.88127 0.12943 0.41068 0.0
O236 O 0.84895 0.9901 0.3112 0.0
C237 C 0.85739 0.07799 0.30594 0.0
Co238 Co 0.47099 0.84276 0.35705 0.0
Co239 Co 0.42173 0.83704 0.41707 0.0
C240 C 0.45667 0.79118 0.38704 0.0
O241 O 0.47537 0.80645 0.37534 0.0
O242 O 0.43507 0.80059 0.40222 0.0
C243 C 0.52515 0.84661 0.32607 0.0
O244 O 0.53164 0.83425 0.36234 0.0
C245 C 0.40322 0.82758 0.50555 0.0
C246 C 0.36231 0.84305 0.50355 0.0
C247 C 0.38152 0.83348 0.53195 0.0
N248 N 0.39732 0.83425 0.46419 0.0
N249 N 0.37262 0.84288 0.46294 0.0
C250 C 0.42936 0.816 0.51866 0.0
H251 H 0.43715 0.80327 0.49201 0.0
H252 H 0.44396 0.83213 0.52393 0.0
H253 H 0.4274 0.80419 0.54914 0.0
C254 C 0.48332 0.88648 0.41686 0.0
N255 N 0.46891 0.86519 0.40536 0.0
N256 N 0.44808 0.86313 0.43109 0.0
C257 C 0.4483 0.88367 0.45947 0.0
C258 C 0.4709 0.89876 0.45176 0.0
C259 C 0.50616 0.89712 0.39076 0.0
H260 H 0.5237 0.88425 0.3959 0.0
H261 H 0.51143 0.91765 0.40028 0.0
H262 H 0.50111 0.89702 0.35551 0.0
O263 O 0.43849 0.84556 0.32079 0.0
O264 O 0.4029 0.84836 0.36374 0.0
H265 H 0.40682 0.88714 0.47423 0.0
H266 H 0.42754 0.91071 0.50283 0.0
C267 C 0.42621 0.89011 0.49052 0.0
H268 H 0.42731 0.87673 0.51915 0.0
H269 H 0.36335 0.85004 0.43485 0.0
O270 O 0.50098 0.85195 0.31849 0.0
C271 C 0.41357 0.84853 0.32595 0.0
Co272 Co 0.34848 0.97024 0.85812 0.0
Co273 Co 0.35217 0.92043 0.91638 0.0
C274 C 0.30129 0.94637 0.88456 0.0
O275 O 0.31214 0.96879 0.87919 0.0
O276 O 0.31482 0.92689 0.89859 0.0
C277 C 0.34552 0.02517 0.8308 0.0
O278 O 0.33483 0.0297 0.8693 0.0
C279 C 0.34292 0.89868 0.00309 0.0
C280 C 0.36233 0.85953 -0.00102 0.0
C281 C 0.34922 0.87638 0.02764 0.0
N282 N 0.35236 0.89528 0.96239 0.0
N283 N 0.36358 0.87169 0.95987 0.0
C284 C 0.32793 0.9228 0.01722 0.0
H285 H 0.31694 0.9313 0.98911 0.0
H286 H 0.34208 0.9381 0.0288 0.0
H287 H 0.31393 0.91795 0.04413 0.0
C288 C 0.39271 0.98759 0.91408 0.0
N289 N 0.37237 0.97126 0.90493 0.0
N290 N 0.37327 0.95052 0.93094 0.0
C291 C 0.39443 0.95295 0.95757 0.0
C292 C 0.4073 0.97664 0.94794 0.0
C293 C 0.40088 0.01041 0.88562 0.0
H294 H 0.39864 0.005 0.85072 0.0
H295 H 0.38794 0.02764 0.89276 0.0
H296 H 0.42176 0.01637 0.89116 0.0
O297 O 0.35545 0.93853 0.82069 0.0
O298 O 0.36676 0.90438 0.86292 0.0
H299 H 0.40621 0.91282 0.96956 0.0
H300 H 0.42269 0.93692 0.00417 0.0
C301 C 0.40379 0.93162 0.98794 0.0
H302 H 0.38869 0.92833 0.01369 0.0
H303 H 0.37273 0.86423 0.93183 0.0
O304 O 0.35218 0.00172 0.82043 0.0
C305 C 0.36339 0.91465 0.82525 0.0
Co306 Co 0.5298 0.35536 0.84647 0.0
Co307 Co 0.57513 0.34545 0.91385 0.0
C308 C 0.54508 0.30142 0.86835 0.0
O309 O 0.52866 0.31726 0.85107 0.0
O310 O 0.56382 0.30975 0.89263 0.0
C311 C 0.47988 0.3535 0.80023 0.0
O312 O 0.47776 0.32911 0.81485 0.0
C313 C 0.58632 0.33356 0.00404 0.0
C314 C 0.62779 0.34659 0.01209 0.0
C315 C 0.60585 0.33763 0.03534 0.0
N316 N 0.59603 0.34057 0.9648 0.0
N317 N 0.62104 0.34778 0.96954 0.0
C318 C 0.55864 0.32352 0.01058 0.0
H319 H 0.54486 0.3405 0.01413 0.0
H320 H 0.55734 0.31088 0.04024 0.0
H321 H 0.55225 0.31205 0.98149 0.0
C322 C 0.51104 0.39143 0.91334 0.0
N323 N 0.52697 0.37151 0.90084 0.0
N324 N 0.5471 0.36967 0.92783 0.0
C325 C 0.54515 0.38942 0.95754 0.0
C326 C 0.5221 0.40368 0.94936 0.0
C327 C 0.48765 0.40096 0.88769 0.0
H328 H 0.47497 0.38386 0.87872 0.0
H329 H 0.47562 0.41532 0.90675 0.0
H330 H 0.49467 0.4107 0.85725 0.0
O331 O 0.56365 0.36587 0.8176 0.0
O332 O 0.59661 0.35973 0.86513 0.0
H333 H 0.56606 0.4191 0.99516 0.0
H334 H 0.56543 0.3865 0.0186 0.0
C335 C 0.56714 0.39763 0.98746 0.0
H336 H 0.58665 0.39314 0.9724 0.0
H337 H 0.63297 0.35493 0.94423 0.0
O338 O 0.50047 0.367 0.80902 0.0
C339 C 0.58821 0.36672 0.82755 0.0
Co340 Co 0.15108 0.53071 0.85888 0.0
Co341 Co 0.15605 0.57581 0.92452 0.0
C342 C 0.20055 0.53916 0.8945 0.0
O343 O 0.18408 0.52098 0.88623 0.0
O344 O 0.19222 0.56157 0.90784 0.0
C345 C 0.14958 0.47976 0.81735 0.0
O346 O 0.16429 0.47194 0.85033 0.0
C347 C 0.16261 0.58318 0.01672 0.0
C348 C 0.15445 0.62569 0.02683 0.0
C349 C 0.15913 0.60214 0.04903 0.0
N350 N 0.15944 0.5948 0.97763 0.0
N351 N 0.15506 0.62034 0.98366 0.0
C352 C 0.16866 0.55431 0.02217 0.0
H353 H 0.14993 0.54277 0.02195 0.0
H354 H 0.17916 0.55062 0.05346 0.0
H355 H 0.18094 0.54724 0.99438 0.0
C356 C 0.10264 0.51845 0.90787 0.0
N357 N 0.12521 0.53209 0.90161 0.0
N358 N 0.12716 0.55108 0.93073 0.0
C359 C 0.10519 0.55052 0.95618 0.0
C360 C 0.08915 0.52967 0.94263 0.0
C361 C 0.0941 0.49542 0.88044 0.0
H362 H 0.10975 0.48002 0.88114 0.0
H363 H 0.07531 0.48652 0.89237 0.0
H364 H 0.0916 0.50198 0.84605 0.0
O365 O 0.15367 0.56556 0.82778 0.0
O366 O 0.14795 0.599 0.87455 0.0
H367 H 0.10601 0.5909 0.97851 0.0
H368 H 0.07606 0.5729 0.99247 0.0
C369 C 0.09792 0.57142 0.98875 0.0
H370 H 0.10638 0.56615 0.02102 0.0
H371 H 0.15117 0.63378 0.95855 0.0
O372 O 0.14219 0.50378 0.81511 0.0
C373 C 0.15088 0.59027 0.83569 0.0
Co374 Co 0.973 0.14381 0.8748 0.0
Co375 Co 0.91614 0.1507 0.90961 0.0
C376 C 0.95428 0.19507 0.88174 0.0
O377 O 0.97477 0.18108 0.88799 0.0
O378 O 0.93134 0.18546 0.8894 0.0
C379 C 0.01637 0.13899 0.81569 0.0
O380 O 0.00225 0.15521 0.79148 0.0
C381 C 0.88674 0.16139 0.98873 0.0
C382 C 0.84615 0.14948 0.97053 0.0
C383 C 0.86176 0.15656 0.006 0.0
N384 N 0.88602 0.15678 0.94552 0.0
N385 N 0.86149 0.15056 0.93449 0.0
C386 C 0.91184 0.16611 0.01366 0.0
H387 H 0.92906 0.16775 0.99118 0.0
H388 H 0.91515 0.14979 0.03738 0.0
H389 H 0.91004 0.18478 0.03256 0.0
C390 C 0.97595 0.10404 0.94348 0.0
N391 N 0.96385 0.12472 0.92446 0.0
N392 N 0.93916 0.12606 0.93783 0.0
C393 C 0.9343 0.10517 0.96428 0.0
C394 C 0.95763 0.09082 0.96926 0.0
C395 C 0.00291 0.09429 0.93064 0.0
H396 H 0.00186 0.08533 0.89756 0.0
H397 H 0.01697 0.1112 0.92941 0.0
H398 H 0.01041 0.0792 0.95394 0.0
O399 O 0.94655 0.13783 0.82668 0.0
O400 O 0.90563 0.13502 0.85398 0.0
H401 H 0.89215 0.10304 0.95403 0.0
H402 H 0.90605 0.07478 0.98252 0.0
C403 C 0.90713 0.0966 0.97831 0.0
H404 H 0.90233 0.10582 0.01025 0.0
H405 H 0.85577 0.14478 0.90314 0.0
O406 O 0.00767 0.13213 0.853 0.0
C407 C 0.9217 0.13377 0.82183 0.0
Co408 Co 0.34174 0.52333 0.64487 0.0
Co409 Co 0.33813 0.57309 0.58739 0.0
C410 C 0.29495 0.53662 0.6139 0.0
O411 O 0.31151 0.51843 0.60707 0.0
O412 O 0.30111 0.5596 0.60031 0.0
C413 C 0.34311 0.46828 0.66876 0.0
O414 O 0.33243 0.46427 0.63016 0.0
C415 C 0.33473 0.58839 0.4974 0.0
C416 C 0.34273 0.6314 0.49823 0.0
C417 C 0.33899 0.61004 0.47034 0.0
N418 N 0.33655 0.59642 0.53903 0.0
N419 N 0.34081 0.62225 0.53955 0.0
C420 C 0.32915 0.56029 0.48458 0.0
H421 H 0.31575 0.55095 0.50897 0.0
H422 H 0.34788 0.5488 0.4844 0.0
H423 H 0.32009 0.55935 0.45156 0.0
C424 C 0.3929 0.51623 0.60082 0.0
N425 N 0.36954 0.52851 0.60658 0.0
N426 N 0.36768 0.5489 0.57994 0.0
C427 C 0.39058 0.55066 0.55699 0.0
C428 C 0.40707 0.52989 0.56926 0.0
C429 C 0.40117 0.49177 0.625 0.0
H430 H 0.38757 0.47535 0.61633 0.0
H431 H 0.42164 0.48555 0.61673 0.0
H432 H 0.39958 0.49525 0.66074 0.0
O433 O 0.3388 0.5557 0.68328 0.0
O434 O 0.34523 0.59181 0.64209 0.0
H435 H 0.38939 0.59223 0.5417 0.0
H436 H 0.42013 0.57593 0.52722 0.0
C437 C 0.39825 0.57371 0.52883 0.0
H438 H 0.39088 0.57039 0.49518 0.0
H439 H 0.3437 0.63335 0.56792 0.0
O440 O 0.34789 0.49183 0.68118 0.0
C441 C 0.34195 0.5808 0.67933 0.0
Co442 Co 0.96112 0.36788 0.63515 0.0
Co443 Co 0.91315 0.35131 0.57698 0.0
C444 C 0.94771 0.31172 0.62391 0.0
O445 O 0.96261 0.33009 0.63766 0.0
O446 O 0.92753 0.31668 0.60016 0.0
C447 C 0.01382 0.36939 0.6712 0.0
O448 O 0.01615 0.34508 0.65635 0.0
C449 C 0.89435 0.33466 0.49174 0.0
C450 C 0.85296 0.34881 0.49197 0.0
C451 C 0.87232 0.33806 0.46491 0.0
N452 N 0.88842 0.34386 0.53179 0.0
N453 N 0.86345 0.35167 0.5321 0.0
C454 C 0.92082 0.32314 0.48028 0.0
H455 H 0.92932 0.31292 0.50917 0.0
H456 H 0.93472 0.33925 0.47104 0.0
H457 H 0.91907 0.30897 0.45269 0.0
C458 C 0.97555 0.39884 0.5594 0.0
N459 N 0.96067 0.3798 0.57778 0.0
N460 N 0.93938 0.37554 0.55414 0.0
C461 C 0.93944 0.39308 0.52061 0.0
C462 C 0.96265 0.40806 0.52251 0.0
C463 C -0.00127 0.41153 0.58187 0.0
H464 H 0.01337 0.39605 0.59062 0.0
H465 H 0.00878 0.42658 0.56136 0.0
H466 H 0.9918 0.42129 0.61232 0.0
O467 O 0.92915 0.37989 0.66672 0.0
O468 O 0.89427 0.36814 0.62674 0.0
H469 H 0.89742 0.39563 0.50988 0.0
H470 H 0.91692 0.41838 0.47707 0.0
C471 C 0.91619 0.39819 0.4914 0.0
H472 H 0.91647 0.38384 0.46401 0.0
H473 H 0.8541 0.36044 0.55889 0.0
O474 O 0.99215 0.38183 0.66612 0.0
C475 C 0.90416 0.37876 0.66083 0.0
Co476 Co 0.13401 0.95612 0.63285 0.0
Co477 Co 0.14675 0.90769 0.57292 0.0
C478 C 0.18829 0.93813 0.6242 0.0
O479 O 0.17223 0.9562 0.63541 0.0
O480 O 0.18082 0.91848 0.60117 0.0
C481 C 0.1325 0.00895 0.66752 0.0
O482 O 0.15329 0.0131 0.64247 0.0
C483 C 0.16484 0.89591 0.48623 0.0
C484 C 0.14908 0.85589 0.47371 0.0
C485 C 0.16073 0.87753 0.45305 0.0
N486 N 0.1551 0.88605 0.52377 0.0
N487 N 0.14641 0.86176 0.51649 0.0
C488 C 0.17679 0.92301 0.48278 0.0
H489 H 0.16083 0.93798 0.47941 0.0
H490 H 0.19031 0.92437 0.45417 0.0
H491 H 0.18786 0.92772 0.51311 0.0
C492 C 0.10296 0.97288 0.55787 0.0
N493 N 0.12166 0.95736 0.57578 0.0
N494 N 0.12475 0.93596 0.55189 0.0
C495 C 0.10712 0.93676 0.51872 0.0
C496 C 0.0931 0.96037 0.52111 0.0
C497 C 0.09137 -0.00323 0.57975 0.0
H498 H 0.08167 0.99074 0.61081 0.0
H499 H 0.10745 0.01099 0.5874 0.0
H500 H 0.07658 0.0068 0.55862 0.0
O501 O 0.12069 0.92342 0.66179 0.0
O502 O 0.12766 0.88809 0.61952 0.0
H503 H 0.07907 0.91455 0.47963 0.0
H504 H 0.11289 0.91296 0.46184 0.0
C505 C 0.09991 0.91336 0.49108 0.0
H506 H 0.10268 0.89474 0.50977 0.0
H507 H 0.13674 0.85011 0.53975 0.0
O508 O 0.12131 0.98638 0.66746 0.0
C509 C 0.11887 0.89855 0.65468 0.0
Co510 Co 0.52456 0.13705 0.62839 0.0
Co511 Co 0.57859 0.13914 0.58018 0.0
C512 C 0.54506 0.18681 0.61049 0.0
O513 O 0.52326 0.17431 0.61318 0.0
O514 O 0.56608 0.17502 0.59788 0.0
C515 C 0.47355 0.13967 0.67537 0.0
O516 O 0.47464 0.16565 0.67299 0.0
C517 C 0.60017 0.1483 0.49445 0.0
C518 C 0.64132 0.13396 0.50048 0.0
C519 C 0.62271 0.14254 0.47019 0.0
N520 N 0.6051 0.14287 0.53661 0.0
N521 N 0.62998 0.13506 0.54034 0.0
C522 C 0.57312 0.1549 0.47743 0.0
H523 H 0.5584 0.15567 0.50438 0.0
H524 H 0.56691 0.14004 0.45273 0.0
H525 H 0.57365 0.17458 0.46129 0.0
C526 C 0.51367 0.09641 0.56268 0.0
N527 N 0.52878 0.11603 0.57875 0.0
N528 N 0.55219 0.1154 0.56001 0.0
C529 C 0.55313 0.0945 0.5326 0.0
C530 C 0.52858 0.08206 0.53299 0.0
C531 C 0.48701 0.08893 0.58036 0.0
H532 H 0.47496 0.107 0.58598 0.0
H533 H 0.47637 0.07553 0.55757 0.0
H534 H 0.48966 0.07854 0.61203 0.0
O535 O 0.5549 0.13276 0.66979 0.0
O536 O 0.5933 0.12589 0.63541 0.0
H537 H 0.59545 0.08929 0.53199 0.0
H538 H 0.57699 0.06259 0.50653 0.0
C539 C 0.57797 0.08435 0.5116 0.0
H540 H 0.58043 0.09387 0.47914 0.0
H541 H 0.63852 0.12854 0.56946 0.0
O542 O 0.49221 0.1258 0.65938 0.0
C543 C 0.57975 0.12788 0.67048 0.0
H544 H 0.65946 0.9309 0.20646 0.0
H545 H 0.58559 0.96466 0.16147 0.0
H546 H 0.63484 0.89473 0.24137 0.0
H547 H 0.56128 0.92941 0.19698 0.0
H548 H 0.52079 0.85762 0.23963 0.0
H549 H 0.55124 0.88348 0.19481 0.0
H550 H 0.60549 0.8889 0.30376 0.0
H551 H 0.57539 0.86193 0.34798 0.0
C552 C 0.63804 0.93053 0.20379 0.0
C553 C 0.62449 0.9507 0.18133 0.0
C554 C 0.62396 0.9099 0.22392 0.0
C555 C 0.59609 0.90908 0.22183 0.0
C556 C 0.58273 0.92901 0.19852 0.0
C557 C 0.59672 0.94946 0.17844 0.0
C558 C 0.5395 0.86388 0.25365 0.0
C559 C 0.54563 0.85811 0.29736 0.0
C560 C 0.55687 0.87882 0.22811 0.0
C561 C 0.58053 0.88878 0.246 0.0
C562 C 0.5875 0.88145 0.28888 0.0
C563 C 0.57024 0.86608 0.31429 0.0
H564 H 0.63329 0.57647 0.34387 0.0
H565 H 0.61229 0.51994 0.2437 0.0
H566 H 0.61557 0.61245 0.29842 0.0
H567 H 0.59518 0.55569 0.19832 0.0
H568 H 0.57452 0.62398 0.1157 0.0
H569 H 0.60766 0.59951 0.15807 0.0
H570 H 0.56568 0.61856 0.27719 0.0
H571 H 0.5325 0.64261 0.23498 0.0
C572 C 0.62542 0.57185 0.31182 0.0
C573 C 0.62376 0.54548 0.29742 0.0
C574 C 0.61539 0.59237 0.2859 0.0
C575 C 0.60421 0.58679 0.24487 0.0
C576 C 0.60405 0.56058 0.22954 0.0
C577 C 0.61353 0.54009 0.25572 0.0
C578 C 0.57295 0.62368 0.15104 0.0
C579 C 0.55088 0.63479 0.17218 0.0
C580 C 0.59182 0.60966 0.17519 0.0
C581 C 0.58904 0.60707 0.22075 0.0
C582 C 0.56837 0.62044 0.24216 0.0
C583 C 0.54931 0.63401 0.21801 0.0
H584 H 0.86242 0.52253 0.25371 0.0
H585 H 0.87231 0.57244 0.14003 0.0
H586 H 0.88646 0.55469 0.29787 0.0
H587 H 0.8973 0.60426 0.18388 0.0
H588 H 0.93766 0.66023 0.28106 0.0
H589 H 0.90128 0.63589 0.24605 0.0
H590 H 0.93378 0.5623 0.29451 0.0
H591 H 0.96936 0.58617 0.32931 0.0
C592 C 0.8694 0.54062 0.23839 0.0
C593 C 0.866 0.54484 0.19342 0.0
C594 C 0.88319 0.55899 0.26358 0.0
C595 C 0.89429 0.58167 0.24408 0.0
C596 C 0.88893 0.587 0.19984 0.0
C597 C 0.87473 0.56873 0.17469 0.0
C598 C 0.93677 0.63888 0.2845 0.0
C599 C 0.95641 0.62514 0.3079 0.0
C600 C 0.91601 0.62499 0.26446 0.0
C601 C 0.91451 0.59723 0.26795 0.0
C602 C 0.93394 0.58372 0.29204 0.0
C603 C 0.95457 0.59746 0.31172 0.0
H604 H 0.97055 0.87658 0.25906 0.0
H605 H 0.91986 0.85508 0.15101 0.0
H606 H 0.93276 0.89651 0.29654 0.0
H607 H 0.88203 0.87552 0.18839 0.0
H608 H 0.85027 0.96078 0.24007 0.0
H609 H 0.87663 0.92627 0.20492 0.0
H610 H 0.88569 0.88666 0.32916 0.0
H611 H 0.85891 0.92097 0.36436 0.0
C612 C 0.95122 0.87571 0.24373 0.0
C613 C 0.94813 0.86448 0.20207 0.0
C614 C 0.92957 0.88689 0.26532 0.0
C615 C 0.90453 0.88746 0.24531 0.0
C616 C 0.90115 0.87523 0.20446 0.0
C617 C 0.92275 0.86354 0.18319 0.0
C618 C 0.85712 0.94422 0.25958 0.0
C619 C 0.85281 0.94367 0.30496 0.0
C620 C 0.8721 0.92443 0.23944 0.0
C621 C 0.88333 0.904 0.2645 0.0
C622 C 0.87729 0.9023 0.30927 0.0
C623 C 0.86187 0.92186 0.32929 0.0
H624 H 0.3591 0.07528 0.85671 0.0
H625 H 0.35472 0.02433 0.7435 0.0
H626 H 0.38605 0.10682 0.81503 0.0
H627 H 0.38094 0.05604 0.70168 0.0
H628 H 0.46546 0.08661 0.68077 0.0
H629 H 0.42873 0.06329 0.71381 0.0
H630 H 0.39259 0.13776 0.74981 0.0
H631 H 0.42996 0.1616 0.7162 0.0
C632 C 0.36306 0.07131 0.8225 0.0
C633 C 0.35531 0.04718 0.80347 0.0
C634 C 0.37845 0.08938 0.79864 0.0
C635 C 0.38605 0.08355 0.75545 0.0
C636 C 0.37587 0.06072 0.73526 0.0
C637 C 0.3608 0.04262 0.75911 0.0
C638 C 0.44967 0.0982 0.69525 0.0
C639 C 0.45064 0.12602 0.69562 0.0
C640 C 0.42844 0.08476 0.71396 0.0
C641 C 0.40755 0.0987 0.73377 0.0
C642 C 0.40841 0.12655 0.73455 0.0
C643 C 0.42975 0.14014 0.71534 0.0
H644 H 0.36159 0.46938 0.75204 0.0
H645 H 0.35242 0.41757 0.64049 0.0
H646 H 0.39163 0.43757 0.78543 0.0
H647 H 0.38264 0.38563 0.67439 0.0
H648 H 0.43166 0.33212 0.77727 0.0
H649 H 0.393 0.35612 0.74856 0.0
H650 H 0.43841 0.42865 0.74815 0.0
H651 H 0.47674 0.40513 0.77588 0.0
C652 C 0.36543 0.4509 0.73517 0.0
C653 C 0.35516 0.44621 0.69322 0.0
C654 C 0.38259 0.43273 0.7543 0.0
C655 C 0.3897 0.40953 0.73196 0.0
C656 C 0.37739 0.40347 0.69209 0.0
C657 C 0.36016 0.42175 0.67277 0.0
C658 C 0.43338 0.35314 0.77064 0.0
C659 C 0.45718 0.36677 0.77917 0.0
C660 C 0.41131 0.36678 0.75436 0.0
C661 C 0.41275 0.3942 0.74714 0.0
C662 C 0.43672 0.40757 0.7544 0.0
C663 C 0.45871 0.39401 0.77001 0.0
H664 H 0.06319 0.34944 0.68993 0.0
H665 H 0.01636 0.42119 0.69459 0.0
H666 H 0.10133 0.3739 0.71905 0.0
H667 H 0.05399 0.44518 0.72357 0.0
H668 H 0.1275 0.48934 0.73814 0.0
H669 H 0.09822 0.46003 0.69747 0.0
H670 H 0.11325 0.39727 0.79031 0.0
H671 H 0.1431 0.42653 0.83074 0.0
C672 C 0.06103 0.37034 0.69716 0.0
C673 C 0.0368 0.38339 0.68996 0.0
C674 C 0.08281 0.38427 0.71376 0.0
C675 C 0.08068 0.41147 0.72285 0.0
C676 C 0.05639 0.42435 0.71587 0.0
C677 C 0.03472 0.4105 0.69968 0.0
C678 C 0.12506 0.4691 0.7493 0.0
C679 C 0.13712 0.46033 0.78801 0.0
C680 C 0.10826 0.45237 0.72611 0.0
C681 C 0.10304 0.42664 0.7414 0.0
C682 C 0.11695 0.41704 0.77787 0.0
C683 C 0.13397 0.4338 0.80102 0.0
H684 H 0.0977 0.0044 0.73482 0.0
H685 H 0.14049 0.0624 0.65809 0.0
H686 H 0.07509 0.03974 0.77372 0.0
H687 H 0.11763 0.09807 0.69744 0.0
H688 H 0.03588 0.14186 0.73218 0.0
H689 H 0.0694 0.11308 0.69945 0.0
H690 H 0.08357 0.07705 0.82541 0.0
H691 H 0.05001 0.10551 0.85811 0.0
C692 C 0.10248 0.02474 0.72659 0.0
C693 C 0.12074 0.03065 0.69327 0.0
C694 C 0.0897 0.04499 0.74916 0.0
C695 C 0.09472 0.07164 0.73871 0.0
C696 C 0.11341 0.07766 0.70603 0.0
C697 C 0.12651 0.0573 0.6837 0.0
C698 C 0.04656 0.12821 0.75306 0.0
C699 C 0.03992 0.12555 0.79751 0.0
C700 C 0.06584 0.11184 0.73435 0.0
C701 C 0.07874 0.09261 0.75983 0.0
C702 C 0.07357 0.09144 0.80492 0.0
C703 C 0.05437 0.10776 0.8236 0.0
H704 H 0.76521 0.01094 0.35666 0.0
H705 H 0.79134 0.0916 0.33603 0.0
H706 H 0.74009 0.01292 0.28882 0.0
H707 H 0.76842 0.09287 0.26722 0.0
H708 H 0.70917 0.09241 0.15541 0.0
H709 H 0.73225 0.09422 0.22423 0.0
H710 H 0.74919 0.01031 0.21482 0.0
H711 H 0.72388 0.00823 0.14718 0.0
C712 C 0.76501 0.0293 0.33827 0.0
C713 C 0.78055 0.05092 0.35161 0.0
C714 C 0.75123 0.03024 0.2987 0.0
C715 C 0.75312 0.05264 0.27129 0.0
C716 C 0.76642 0.07519 0.287 0.0
C717 C 0.77956 0.07449 0.32701 0.0
C718 C 0.71856 0.07446 0.16715 0.0
C719 C 0.71439 0.05007 0.14605 0.0
C720 C 0.73173 0.07546 0.20715 0.0
C721 C 0.74186 0.05222 0.22626 0.0
C722 C 0.74054 0.02841 0.20229 0.0
C723 C 0.72668 0.02729 0.16282 0.0
H724 H 0.41422 0.72308 0.15595 0.0
H725 H 0.4921 0.68898 0.17308 0.0
H726 H 0.41545 0.7392 0.23106 0.0
H727 H 0.49212 0.70211 0.24852 0.0
H728 H 0.49935 0.76336 0.35802 0.0
H729 H 0.49805 0.73638 0.29337 0.0
H730 H 0.41267 0.73021 0.30502 0.0
H731 H 0.41402 0.75934 0.36829 0.0
C732 C 0.43155 0.71901 0.1757 0.0
C733 C 0.45305 0.70486 0.15821 0.0
C734 C 0.43205 0.72766 0.21921 0.0
C735 C 0.45376 0.7217 0.24661 0.0
C736 C 0.47521 0.7076 0.22877 0.0
C737 C 0.47514 0.6999 0.18509 0.0
C738 C 0.48035 0.75545 0.34782 0.0
C739 C 0.45674 0.76453 0.36706 0.0
C740 C 0.47952 0.73988 0.31027 0.0
C741 C 0.45504 0.73208 0.29226 0.0
C742 C 0.43178 0.73707 0.31648 0.0
C743 C 0.4326 0.75323 0.35361 0.0
H744 H 0.76881 0.41931 0.14634 0.0
H745 H 0.79964 0.49741 0.17475 0.0
H746 H 0.74627 0.41897 0.21699 0.0
H747 H 0.7793 0.49614 0.24596 0.0
H748 H 0.71024 0.49871 0.34334 0.0
H749 H 0.74019 0.49977 0.28184 0.0
H750 H 0.75155 0.41501 0.29294 0.0
H751 H 0.71978 0.41391 0.35324 0.0
C752 C 0.77059 0.43646 0.16741 0.0
C753 C 0.7859 0.4584 0.15453 0.0
C754 C 0.75822 0.43604 0.20843 0.0
C755 C 0.76127 0.45735 0.23782 0.0
C756 C 0.77611 0.47948 0.22434 0.0
C757 C 0.78781 0.4802 0.1831 0.0
C758 C 0.7199 0.48043 0.33372 0.0
C759 C 0.71219 0.45618 0.35238 0.0
C760 C 0.73713 0.48097 0.29813 0.0
C761 C 0.74765 0.45729 0.28112 0.0
C762 C 0.74294 0.43348 0.30399 0.0
C763 C 0.72526 0.43291 0.33936 0.0
H764 H 0.09791 0.70009 0.3323 0.0
H765 H 0.01825 0.72674 0.35921 0.0
H766 H 0.09798 0.72471 0.26401 0.0
H767 H 0.01877 0.75292 0.2923 0.0
H768 H 0.00921 0.77043 0.15361 0.0
H769 H 0.01452 0.74256 0.21805 0.0
H770 H 0.09762 0.76368 0.22344 0.0
H771 H 0.0925 0.78991 0.15746 0.0
C772 C 0.08095 0.71245 0.32476 0.0
C773 C 0.05803 0.71153 0.35094 0.0
C774 C 0.08083 0.72632 0.2852 0.0
C775 C 0.05798 0.73999 0.27168 0.0
C776 C 0.03628 0.7416 0.30065 0.0
C777 C 0.03619 0.72725 0.33964 0.0
C778 C 0.02884 0.76791 0.16735 0.0
C779 C 0.05039 0.78231 0.15068 0.0
C780 C 0.0318 0.75259 0.20501 0.0
C781 C 0.05623 0.7519 0.22724 0.0
C782 C 0.07845 0.76389 0.20758 0.0
C783 C 0.07559 0.7787 0.16928 0.0
H784 H 0.20729 0.89379 0.66224 0.0
H785 H 0.22131 0.97783 0.6497 0.0
H786 H 0.23174 0.89322 0.73035 0.0
H787 H 0.24755 0.97713 0.71647 0.0
H788 H 0.26149 0.97951 0.8587 0.0
H789 H 0.23672 0.97524 0.79075 0.0
H790 H 0.26937 0.89675 0.77219 0.0
H791 H 0.29226 0.90031 0.84117 0.0
C792 C 0.21695 0.91188 0.67278 0.0
C793 C 0.21231 0.93591 0.65093 0.0
C794 C 0.23076 0.91165 0.71228 0.0
C795 C 0.24077 0.93536 0.72997 0.0
C796 C 0.23903 0.95872 0.70492 0.0
C797 C 0.22467 0.95905 0.666 0.0
C798 C 0.26232 0.96093 0.841 0.0
C799 C 0.27891 0.94038 0.85525 0.0
C800 C 0.24875 0.95869 0.80143 0.0
C801 C 0.25194 0.93607 0.77492 0.0
C802 C 0.26646 0.91453 0.7914 0.0
C803 C 0.27946 0.91651 0.83145 0.0
H804 H 0.58971 0.19927 0.65542 0.0
H805 H 0.50792 0.22263 0.63851 0.0
H806 H 0.59077 0.2206 0.72548 0.0
H807 H 0.50972 0.2467 0.7074 0.0
H808 H 0.50609 0.26661 0.84592 0.0
H809 H 0.50812 0.23878 0.78097 0.0
H810 H 0.59209 0.25572 0.76953 0.0
H811 H 0.59022 0.28097 0.83627 0.0
C812 C 0.57227 0.21021 0.66556 0.0
C813 C 0.54856 0.20897 0.64142 0.0
C814 C 0.57284 0.22242 0.70635 0.0
C815 C 0.55006 0.23477 0.7233 0.0
C816 C 0.5273 0.23627 0.69664 0.0
C817 C 0.52644 0.22318 0.6564 0.0
C818 C 0.52518 0.26291 0.83078 0.0
C819 C 0.54795 0.27594 0.84592 0.0
C820 C 0.52628 0.24773 0.79268 0.0
C821 C 0.55 0.24602 0.76838 0.0
C822 C 0.57335 0.2565 0.78674 0.0
C823 C 0.57239 0.27085 0.82564 0.0
H824 H 0.23315 0.58004 0.86853 0.0
H825 H 0.2247 0.49492 0.86346 0.0
H826 H 0.26001 0.57882 0.80238 0.0
H827 H 0.24891 0.49379 0.79588 0.0
H828 H 0.2932 0.49521 0.67121 0.0
H829 H 0.28117 0.49654 0.74719 0.0
H830 H 0.24981 0.57572 0.72962 0.0
H831 H 0.2653 0.57548 0.65426 0.0
C832 C 0.23772 0.56095 0.85416 0.0
C833 C 0.22595 0.53765 0.87035 0.0
C834 C 0.25252 0.56031 0.81539 0.0
C835 C 0.25546 0.53644 0.79196 0.0
C836 C 0.24703 0.51274 0.81204 0.0
C837 C 0.23301 0.51333 0.8513 0.0
C838 C 0.28394 0.51304 0.68347 0.0
C839 C 0.28086 0.53546 0.65659 0.0
C840 C 0.27673 0.51374 0.72742 0.0
C841 C 0.2647 0.53637 0.74548 0.0
C842 C 0.25992 0.55823 0.71776 0.0
C843 C 0.26819 0.5579 0.67403 0.0
H844 H -0.00303 0.20655 0.83043 0.0
H845 H 0.91573 0.22978 0.85452 0.0
H846 H 0.99561 0.22729 0.75983 0.0
H847 H 0.9152 0.2533 0.78498 0.0
H848 H 0.90895 0.27634 0.64718 0.0
H849 H 0.91199 0.24703 0.71043 0.0
H850 H 0.99613 0.2636 0.71869 0.0
H851 H 0.99327 0.29041 0.65385 0.0
C852 C 0.97906 0.21706 0.82148 0.0
C853 C 0.95628 0.21608 0.8481 0.0
C854 C 0.97826 0.22904 0.78049 0.0
C855 C 0.95505 0.24156 0.76567 0.0
C856 C 0.93309 0.24289 0.79422 0.0
C857 C 0.93359 0.23004 0.83477 0.0
C858 C 0.92828 0.2724 0.66117 0.0
C859 C 0.95079 0.28605 0.64622 0.0
C860 C 0.92995 0.25627 0.69833 0.0
C861 C 0.95407 0.25386 0.7213 0.0
C862 C 0.97709 0.26487 0.70261 0.0
C863 C 0.97552 0.28032 0.66502 0.0
H864 H 0.68326 0.12197 0.90157 0.0
H865 H 0.60571 0.14714 0.94445 0.0
H866 H 0.66803 0.12267 0.82542 0.0
H867 H 0.59009 0.14662 0.86985 0.0
H868 H 0.57026 0.16358 0.73335 0.0
H869 H 0.59162 0.16804 0.80371 0.0
H870 H 0.64067 0.09985 0.77484 0.0
H871 H 0.62035 0.09692 0.70209 0.0
C872 C 0.66305 0.1278 0.89456 0.0
C873 C 0.64573 0.13482 0.92861 0.0
C874 C 0.65423 0.12798 0.85112 0.0
C875 C 0.62782 0.13482 0.84123 0.0
C876 C 0.61075 0.142 0.8757 0.0
C877 C 0.61967 0.14228 0.91869 0.0
C878 C 0.58565 0.14957 0.74204 0.0
C879 C 0.59333 0.12955 0.71286 0.0
C880 C 0.59786 0.15202 0.78253 0.0
C881 C 0.61748 0.13391 0.79567 0.0
C882 C 0.62574 0.11424 0.76583 0.0
C883 C 0.61397 0.11232 0.72441 0.0
H884 H 0.40507 0.64486 0.90892 0.0
H885 H 0.32131 0.65268 0.93665 0.0
H886 H 0.39515 0.63478 0.83348 0.0
H887 H 0.31143 0.64107 0.86078 0.0
H888 H 0.31689 0.57056 0.75624 0.0
H889 H 0.32087 0.59495 0.82476 0.0
H890 H 0.37225 0.65187 0.76161 0.0
H891 H 0.36785 0.62768 0.69248 0.0
C892 C 0.38461 0.64569 0.89884 0.0
C893 C 0.36403 0.6502 0.92906 0.0
C894 C 0.37892 0.63957 0.85537 0.0
C895 C 0.35255 0.63717 0.84141 0.0
C896 C 0.33195 0.64281 0.87086 0.0
C897 C 0.33764 0.64943 0.91421 0.0
C898 C 0.32871 0.5885 0.75682 0.0
C899 C 0.34231 0.59711 0.71927 0.0
C900 C 0.33078 0.60258 0.79589 0.0
C901 C 0.34687 0.62526 0.79832 0.0
C902 C 0.35973 0.63442 0.76042 0.0
C903 C 0.35721 0.62062 0.72101 0.0
H904 H 0.82542 0.35251 0.89825 0.0
H905 H 0.84752 0.43497 0.90988 0.0
H906 H 0.83551 0.35425 0.82024 0.0
H907 H 0.85547 0.43718 0.83223 0.0
H908 H 0.91657 0.41259 0.72656 0.0
H909 H 0.89255 0.41923 0.79421 0.0
H910 H 0.8282 0.37084 0.74582 0.0
H911 H 0.85281 0.3637 0.67769 0.0
C912 C 0.8314 0.37125 0.88399 0.0
C913 C 0.83529 0.39363 0.91057 0.0
C914 C 0.83694 0.37232 0.83917 0.0
C915 C 0.84651 0.39583 0.82005 0.0
C916 C 0.84841 0.41869 0.84602 0.0
C917 C 0.84325 0.41752 0.89079 0.0
C918 C 0.89705 0.40381 0.72986 0.0
C919 C 0.88675 0.38735 0.69704 0.0
C920 C 0.88311 0.4078 0.76863 0.0
C921 C 0.85847 0.39542 0.77561 0.0
C922 C 0.84728 0.38039 0.74157 0.0
C923 C 0.86126 0.3765 0.70246 0.0
H924 H 0.08234 0.91165 0.71591 0.0
H925 H 0.1347 0.84834 0.6764 0.0
H926 H 0.07486 0.88982 0.78558 0.0
H927 H 0.12709 0.82614 0.74671 0.0
H928 H 0.14373 0.83336 0.89997 0.0
H929 H 0.14258 0.83943 0.82079 0.0
H930 H 0.05801 0.85236 0.82716 0.0
H931 H 0.05934 0.84761 0.90596 0.0
C932 C 0.0916 0.89259 0.72168 0.0
C933 C 0.10924 0.88178 0.69094 0.0
C934 C 0.08721 0.87996 0.76158 0.0
C935 C 0.10056 0.85632 0.77187 0.0
C936 C 0.11672 0.84446 0.73981 0.0
C937 C 0.12087 0.85702 0.69946 0.0
C938 C 0.1248 0.8368 0.88426 0.0
C939 C 0.10163 0.83969 0.90941 0.0
C940 C 0.12409 0.84006 0.83884 0.0
C941 C 0.1002 0.84649 0.8177 0.0
C942 C 0.07675 0.84755 0.84252 0.0
C943 C 0.07747 0.84438 0.88787 0.0
H944 H 0.58641 0.40714 0.76909 0.0
H945 H 0.6314 0.33778 0.80511 0.0
H946 H 0.61157 0.41039 0.70064 0.0
H947 H 0.65579 0.34039 0.7356 0.0
H948 H 0.6331 0.3395 0.57557 0.0
H949 H 0.62498 0.33772 0.65386 0.0
H950 H 0.6682 0.41062 0.67117 0.0
H951 H 0.67846 0.41155 0.59341 0.0
C952 C 0.60225 0.39313 0.76287 0.0
C953 C 0.60722 0.37238 0.79228 0.0
C954 C 0.61661 0.39499 0.7239 0.0
C955 C 0.63557 0.37568 0.71326 0.0
C956 C 0.64144 0.35563 0.74354 0.0
C957 C 0.62761 0.35423 0.7832 0.0
C958 C 0.64156 0.35492 0.59583 0.0
C959 C 0.65526 0.37652 0.57716 0.0
C960 C 0.63689 0.35377 0.64079 0.0
C961 C 0.64564 0.37426 0.66807 0.0
C962 C 0.66096 0.39482 0.65039 0.0
C963 C 0.66626 0.39561 0.60546 0.0
H964 H 0.11923 0.6336 0.82215 0.0
H965 H 0.18221 0.58742 0.76434 0.0
H966 H 0.11431 0.65821 0.75318 0.0
H967 H 0.1777 0.61204 0.69629 0.0
H968 H 0.17169 0.66426 0.58128 0.0
H969 H 0.18032 0.65719 0.65908 0.0
H970 H 0.09763 0.63892 0.67978 0.0
H971 H 0.08916 0.64491 0.6026 0.0
C972 C 0.13247 0.62929 0.79514 0.0
C973 C 0.15087 0.60851 0.79814 0.0
C974 C 0.12964 0.64326 0.7558 0.0
C975 C 0.14563 0.63701 0.71947 0.0
C976 C 0.16531 0.61752 0.72383 0.0
C977 C 0.16774 0.60327 0.76263 0.0
C978 C 0.15523 0.65942 0.60267 0.0
C979 C 0.12967 0.65551 0.58553 0.0
C980 C 0.16017 0.65544 0.64715 0.0
C981 C 0.13962 0.64758 0.67541 0.0
C982 C 0.11375 0.64551 0.65894 0.0
C983 C 0.10886 0.64917 0.61441 0.0
H984 H 0.86725 0.07759 0.57178 0.0
H985 H 0.86973 0.16278 0.55677 0.0
H986 H 0.87731 0.08214 0.6489 0.0
H987 H 0.88152 0.16703 0.63405 0.0
H988 H 0.94405 0.15091 0.74617 0.0
H989 H 0.92589 0.148 0.67248 0.0
H990 H 0.85754 0.10623 0.72251 0.0
H991 H 0.87541 0.10965 0.79698 0.0
C992 C 0.86881 0.09735 0.58498 0.0
C993 C 0.86677 0.11991 0.55807 0.0
C994 C 0.87499 0.09987 0.62925 0.0
C995 C 0.88004 0.12489 0.64719 0.0
C996 C 0.87762 0.14751 0.62077 0.0
C997 C 0.8709 0.14505 0.57666 0.0
C998 C 0.92522 0.14096 0.74152 0.0
C999 C 0.91121 0.13031 0.77723 0.0
C1000 C 0.91473 0.13959 0.69946 0.0
C1001 C 0.89029 0.12711 0.69217 0.0
C1002 C 0.87641 0.11603 0.72759 0.0
C1003 C 0.88663 0.11793 0.76998 0.0
H1004 H 0.42171 0.84582 0.58963 0.0
H1005 H 0.33759 0.82972 0.58302 0.0
H1006 H 0.41695 0.85935 0.66526 0.0
H1007 H 0.33281 0.84446 0.65874 0.0
H1008 H 0.33663 0.92001 0.74925 0.0
H1009 H 0.34079 0.89347 0.68321 0.0
H1010 H 0.40069 0.8454 0.74531 0.0
H1011 H 0.39617 0.87188 0.81247 0.0
C1012 C 0.4024 0.84392 0.60461 0.0
C1013 C 0.38006 0.83621 0.58017 0.0
C1014 C 0.39968 0.85198 0.64808 0.0
C1015 C 0.37453 0.85303 0.66764 0.0
C1016 C 0.35243 0.84389 0.64423 0.0
C1017 C 0.35519 0.83547 0.60096 0.0
C1018 C 0.3507 0.90378 0.74893 0.0
C1019 C 0.36635 0.89818 0.78575 0.0
C1020 C 0.35281 0.88839 0.71132 0.0
C1021 C 0.37089 0.8673 0.70941 0.0
C1022 C 0.38653 0.86153 0.7462 0.0
C1023 C 0.384 0.87665 0.7844 0.0
H1024 H 0.3684 0.87804 0.31381 0.0
H1025 H 0.42166 0.82354 0.24934 0.0
H1026 H 0.34404 0.8839 0.2447 0.0
H1027 H 0.3973 0.82889 0.18142 0.0
H1028 H 0.34299 0.82966 0.07029 0.0
H1029 H 0.35112 0.82103 0.14773 0.0
H1030 H 0.36126 0.90483 0.17028 0.0
H1031 H 0.35396 0.91346 0.09312 0.0
C1032 C 0.37455 0.86703 0.28513 0.0
C1033 C 0.39703 0.85062 0.28653 0.0
C1034 C 0.36068 0.87035 0.24581 0.0
C1035 C 0.36872 0.85668 0.20797 0.0
C1036 C 0.39044 0.83937 0.21022 0.0
C1037 C 0.40455 0.83654 0.24895 0.0
C1038 C 0.34619 0.8463 0.09202 0.0
C1039 C 0.34765 0.87224 0.07547 0.0
C1040 C 0.35077 0.84136 0.13628 0.0
C1041 C 0.35686 0.86228 0.16479 0.0
C1042 C 0.35618 0.8884 0.14908 0.0
C1043 C 0.35182 0.89334 0.10471 0.0
H1044 H 0.58763 0.42639 0.26119 0.0
H1045 H 0.63153 0.36083 0.31606 0.0
H1046 H 0.58074 0.40143 0.19451 0.0
H1047 H 0.62429 0.33546 0.24883 0.0
H1048 H 0.64391 0.32876 0.09652 0.0
H1049 H 0.64249 0.34116 0.17368 0.0
H1050 H 0.56026 0.36345 0.15995 0.0
H1051 H 0.56204 0.3526 0.08308 0.0
C1052 C 0.59531 0.40637 0.25936 0.0
C1053 C 0.61035 0.39569 0.29369 0.0
C1054 C 0.59118 0.39193 0.22119 0.0
C1055 C 0.60206 0.36646 0.2163 0.0
C1056 C 0.61586 0.35513 0.25158 0.0
C1057 C 0.61983 0.36957 0.29012 0.0
C1058 C 0.62536 0.33569 0.11031 0.0
C1059 C 0.60305 0.33935 0.08351 0.0
C1060 C 0.62448 0.3426 0.15459 0.0
C1061 C 0.60128 0.35345 0.17282 0.0
C1062 C 0.57847 0.35532 0.14676 0.0
C1063 C 0.5794 0.34859 0.10256 0.0
H1064 H 0.17226 0.6357 0.11502 0.0
H1065 H 0.13449 0.56039 0.08982 0.0
H1066 H 0.15832 0.63294 0.19149 0.0
H1067 H 0.12156 0.55718 0.16603 0.0
H1068 H 0.06464 0.59129 0.27349 0.0
H1069 H 0.08765 0.58299 0.20497 0.0
H1070 H 0.1613 0.60883 0.26298 0.0
H1071 H 0.13817 0.61737 0.33186 0.0
C1072 C 0.16173 0.6182 0.12609 0.0
C1073 C 0.15488 0.59812 0.09644 0.0
C1074 C 0.15392 0.61651 0.1699 0.0
C1075 C 0.13885 0.59481 0.18471 0.0
C1076 C 0.13312 0.57415 0.15552 0.0
C1077 C 0.14093 0.57583 0.11182 0.0
C1078 C 0.08585 0.59464 0.27201 0.0
C1079 C 0.09951 0.60527 0.30793 0.0
C1080 C 0.09909 0.58974 0.23277 0.0
C1081 C 0.12625 0.59549 0.22852 0.0
C1082 C 0.1403 0.6045 0.26526 0.0
C1083 C 0.12707 0.60919 0.30474 0.0
H1084 H 0.81979 0.07309 0.24407 0.0
H1085 H 0.8903 0.11745 0.27624 0.0
H1086 H 0.81644 0.09637 0.17496 0.0
H1087 H 0.88828 0.13962 0.20504 0.0
H1088 H 0.8713 0.18526 0.08057 0.0
H1089 H 0.86755 0.16946 0.15613 0.0
H1090 H 0.83785 0.09437 0.10843 0.0
H1091 H 0.84061 0.11059 0.03415 0.0
C1092 C 0.83474 0.08775 0.23602 0.0
C1093 C 0.85555 0.09322 0.26503 0.0
C1094 C 0.83293 0.10103 0.19625 0.0
C1095 C 0.85241 0.11952 0.18376 0.0
C1096 C 0.8728 0.12567 0.21359 0.0
C1097 C 0.87415 0.11283 0.25418 0.0
C1098 C 0.86358 0.16557 0.08666 0.0
C1099 C 0.85616 0.14915 0.05174 0.0
C1100 C 0.8616 0.15642 0.12981 0.0
C1101 C 0.85244 0.13058 0.13861 0.0
C1102 C 0.84438 0.11458 0.10335 0.0
C1103 C 0.84599 0.12385 0.06055 0.0
H1104 H 0.36343 0.63425 0.18833 0.0
H1105 H 0.43879 0.61677 0.2491 0.0
H1106 H 0.34101 0.62695 0.25854 0.0
H1107 H 0.41639 0.60934 0.31863 0.0
H1108 H 0.3672 0.57312 0.42452 0.0
H1109 H 0.38281 0.57617 0.34962 0.0
H1110 H 0.34272 0.65119 0.33483 0.0
H1111 H 0.32652 0.64796 0.41039 0.0
C1112 C 0.37514 0.62858 0.21649 0.0
C1113 C 0.40286 0.62605 0.21327 0.0
C1114 C 0.36233 0.62457 0.25657 0.0
C1115 C 0.377 0.61749 0.29374 0.0
C1116 C 0.4046 0.6145 0.29028 0.0
C1117 C 0.41742 0.61888 0.25054 0.0
C1118 C 0.3608 0.5898 0.40506 0.0
C1119 C 0.34517 0.61009 0.42313 0.0
C1120 C 0.37009 0.5917 0.36226 0.0
C1121 C 0.364 0.61392 0.33665 0.0
C1122 C 0.34746 0.63373 0.35391 0.0
C1123 C 0.33832 0.63194 0.39703 0.0
H1124 H 0.88664 0.3657 0.18121 0.0
H1125 H 0.82858 0.4168 0.24188 0.0
H1126 H 0.88965 0.33983 0.24933 0.0
H1127 H 0.83111 0.39081 0.3089 0.0
H1128 H 0.82801 0.33161 0.41567 0.0
H1129 H 0.82264 0.34272 0.3384 0.0
H1130 H 0.90683 0.3563 0.32728 0.0
H1131 H 0.91219 0.34654 0.40416 0.0
C1132 C 0.87426 0.37107 0.20881 0.0
C1133 C 0.85767 0.39338 0.20669 0.0
C1134 C 0.87596 0.35632 0.24758 0.0
C1135 C 0.86047 0.36327 0.28411 0.0
C1136 C 0.843 0.38483 0.28105 0.0
C1137 C 0.84179 0.39987 0.2429 0.0
C1138 C 0.8455 0.33624 0.39648 0.0
C1139 C 0.87056 0.33789 0.41644 0.0
C1140 C 0.84239 0.34255 0.35229 0.0
C1141 C 0.86434 0.35036 0.32705 0.0
C1142 C 0.88966 0.34991 0.34589 0.0
C1143 C 0.89273 0.34403 0.39023 0.0
H1144 H 0.13372 0.8626 0.17124 0.0
H1145 H 0.0713 0.90727 0.23393 0.0
H1146 H 0.16095 0.8668 0.23719 0.0
H1147 H 0.09827 0.91147 0.29929 0.0
H1148 H 0.14993 0.92401 0.40895 0.0
H1149 H 0.13881 0.92896 0.3328 0.0
H1150 H 0.15449 0.84588 0.31154 0.0
H1151 H 0.16704 0.84102 0.38828 0.0
C1152 C 0.12618 0.87404 0.19853 0.0
C1153 C 0.10034 0.8845 0.19764 0.0
C1154 C 0.14166 0.87622 0.23635 0.0
C1155 C 0.13171 0.88931 0.27348 0.0
C1156 C 0.10667 0.90149 0.27113 0.0
C1157 C 0.09113 0.89899 0.23374 0.0
C1158 C 0.15254 0.90699 0.3881 0.0
C1159 C 0.15983 0.8821 0.40507 0.0
C1160 C 0.14565 0.90982 0.34421 0.0
C1161 C 0.14547 0.88779 0.31626 0.0
C1162 C 0.15464 0.86331 0.33219 0.0
C1163 C 0.16167 0.86049 0.37623 0.0
H1164 H 0.62754 0.13142 0.18445 0.0
H1165 H 0.60274 0.05514 0.23458 0.0
H1166 H 0.62673 0.14941 0.25861 0.0
H1167 H 0.60169 0.07324 0.30825 0.0
H1168 H 0.64387 0.09948 0.43091 0.0
H1169 H 0.64007 0.08652 0.35462 0.0
H1170 H 0.59912 0.15964 0.32591 0.0
H1171 H 0.6037 0.17307 0.40256 0.0
C1172 C 0.62119 0.1187 0.21103 0.0
C1173 C 0.61565 0.09172 0.20375 0.0
C1174 C 0.62079 0.12902 0.25349 0.0
C1175 C 0.61482 0.11251 0.28918 0.0
C1176 C 0.60707 0.0862 0.28138 0.0
C1177 C 0.60748 0.0759 0.23913 0.0
C1178 C 0.63447 0.11303 0.40824 0.0
C1179 C 0.62366 0.13708 0.42279 0.0
C1180 C 0.63193 0.10543 0.36469 0.0
C1181 C 0.61866 0.12177 0.33465 0.0
C1182 C 0.60916 0.14654 0.34855 0.0
C1183 C 0.61162 0.15413 0.39238 0.0
H1184 H 0.57611 0.00681 0.94265 0.0
H1185 H 0.54911 0.04937 0.05645 0.0
H1186 H 0.53034 0.99387 0.9263 0.0
H1187 H 0.50355 0.03587 0.04153 0.0
H1188 H 0.42162 0.0243 0.98107 0.0
H1189 H 0.46659 0.04067 0.99362 0.0
H1190 H 0.49801 0.96419 0.95625 0.0
H1191 H 0.4531 0.94852 0.9417 0.0
C1192 C 0.5602 0.01373 0.96357 0.0
C1193 C 0.56573 0.02935 0.00021 0.0
C1194 C 0.53412 0.00608 0.95473 0.0
C1195 C 0.5133 0.01365 0.98286 0.0
C1196 C 0.51899 0.02998 0.01888 0.0
C1197 C 0.545 0.03775 0.02744 0.0
C1198 C 0.43824 0.01102 0.97614 0.0
C1199 C 0.43407 0.9851 0.9612 0.0
C1200 C 0.46394 0.02032 0.98326 0.0
C1201 C 0.48593 0.00378 0.97571 0.0
C1202 C 0.48157 0.9776 0.96165 0.0
C1203 C 0.45588 0.96842 0.95417 0.0
H1204 H 0.5259 0.44798 0.90049 0.0
H1205 H 0.50435 0.42011 0.0291 0.0
H1206 H 0.51135 0.49261 0.91967 0.0
H1207 H 0.49003 0.4651 0.04899 0.0
H1208 H 0.43921 0.54072 0.04902 0.0
H1209 H 0.45358 0.49609 0.02801 0.0
H1210 H 0.52384 0.52934 0.96803 0.0
H1211 H 0.50912 0.5738 0.98856 0.0
C1212 C 0.51828 0.45164 0.9331 0.0
C1213 C 0.51604 0.43088 0.96342 0.0
C1214 C 0.51003 0.47711 0.94411 0.0
C1215 C 0.49938 0.48228 0.98569 0.0
C1216 C 0.49779 0.46155 0.01646 0.0
C1217 C 0.50618 0.43598 0.0054 0.0
C1218 C 0.45734 0.53837 0.03034 0.0
C1219 C 0.47288 0.56047 0.01948 0.0
C1220 C 0.46579 0.51291 0.01899 0.0
C1221 C 0.48991 0.50925 -0.00335 0.0
C1222 C 0.50505 0.53156 0.98488 0.0
C1223 C 0.49665 0.55695 0.9964 0.0
H1224 H 0.07457 0.51242 0.02333 0.0
H1225 H 0.04378 0.53103 0.8955 0.0
H1226 H 0.03053 0.49666 0.04607 0.0
H1227 H -0.00024 0.51555 0.91805 0.0
H1228 H 0.92057 0.51293 -0.00135 0.0
H1229 H 0.96394 0.5288 0.97337 0.0
H1230 H 0.00046 0.45755 0.02333 0.0
H1231 H 0.95691 0.4417 0.0482 0.0
C1232 C 0.05824 0.51336 0.00041 0.0
C1233 C 0.0623 0.52274 0.95779 0.0
C1234 C 0.03322 0.50418 0.01316 0.0
C1235 C 0.01187 0.50469 0.98362 0.0
C1236 C 0.01586 0.51497 0.94143 0.0
C1237 C 0.04093 0.52379 0.92856 0.0
C1238 C 0.93787 0.50052 0.00324 0.0
C1239 C 0.93562 0.47601 0.02454 0.0
C1240 C 0.9626 0.50958 0.98902 0.0
C1241 C 0.98551 0.49445 -0.00332 0.0
C1242 C 0.98311 0.46968 0.01741 0.0
C1243 C 0.95829 0.46047 0.03109 0.0
H1244 H 0.96571 0.91872 0.00318 0.0
H1245 H 0.04163 0.95103 0.03995 0.0
H1246 H 0.94925 0.96347 0.98828 0.0
H1247 H 0.02582 0.99559 0.02348 0.0
H1248 H 0.98306 0.07263 0.04106 0.0
H1249 H 0.99566 0.0267 0.05613 0.0
H1250 H 0.95349 0.00139 0.94039 0.0
H1251 H 0.94036 0.04729 0.92653 0.0
C1252 C 0.97905 0.93542 0.00671 0.0
C1253 C 0.00498 0.9316 0.02192 0.0
C1254 C 0.96967 0.96099 -0.0016 0.0
C1255 C 0.98612 0.98312 0.00526 0.0
C1256 C 0.01246 0.97903 0.01877 0.0
C1257 C 0.02172 0.95352 0.02732 0.0
C1258 C 0.97592 0.05702 0.01978 0.0
C1259 C 0.96048 0.06312 0.98318 0.0
C1260 C 0.98344 0.03085 0.02786 0.0
C1261 C 0.97592 0.01044 -0.00097 0.0
C1262 C 0.95945 0.01658 0.96338 0.0
C1263 C 0.95183 0.04275 0.95551 0.0
H1264 H 0.45141 0.52775 0.61925 0.0
H1265 H 0.42372 0.51952 0.48662 0.0
H1266 H 0.49572 0.51327 0.59674 0.0
H1267 H 0.46811 0.50522 0.4637 0.0
H1268 H 0.539 0.4491 0.45212 0.0
H1269 H 0.49567 0.46472 0.47759 0.0
H1270 H 0.53409 0.5274 0.54999 0.0
H1271 H 0.57741 0.51151 0.52446 0.0
C1272 C 0.45502 0.52308 0.58517 0.0
C1273 C 0.43435 0.52437 0.55461 0.0
C1274 C 0.48029 0.51489 0.57228 0.0
C1275 C 0.48523 0.50778 0.52861 0.0
C1276 C 0.4647 0.51012 0.49774 0.0
C1277 C 0.43946 0.51851 0.51064 0.0
C1278 C 0.53806 0.4658 0.47433 0.0
C1279 C 0.56128 0.47888 0.48722 0.0
C1280 C 0.51336 0.47498 0.48835 0.0
C1281 C 0.51153 0.49741 0.51545 0.0
C1282 C 0.53494 0.50998 0.52936 0.0
C1283 C 0.55964 0.50088 0.51503 0.0
H1284 H 0.03978 0.55204 0.42822 0.0
H1285 H -0.00025 0.57067 0.54893 0.0
H1286 H 0.02143 0.50741 0.42985 0.0
H1287 H 0.98247 0.52537 0.5526 0.0
H1288 H 0.93419 0.45323 0.53193 0.0
H1289 H 0.95055 0.49814 0.51974 0.0
H1290 H 0.02225 0.46601 0.46265 0.0
H1291 H 0.00483 0.42138 0.47242 0.0
C1292 C 0.02778 0.54607 0.45599 0.0
C1293 C 0.02144 0.56438 0.48888 0.0
C1294 C 0.01714 0.52057 0.4569 0.0
C1295 C 0.00016 0.51274 0.49109 0.0
C1296 C 0.99488 0.53088 0.52513 0.0
C1297 C 0.0052 0.5566 0.52372 0.0
C1298 C 0.95284 0.45598 0.51484 0.0
C1299 C 0.9682 0.43406 0.50261 0.0
C1300 C 0.96258 0.48164 0.50889 0.0
C1301 C 0.98811 0.48579 0.49139 0.0
C1302 C 0.0025 0.46374 0.47608 0.0
C1303 C 0.9925 0.43813 0.48133 0.0
H1304 H 0.04604 0.95102 0.55954 0.0
H1305 H 0.08165 0.98175 0.44165 0.0
H1306 H 0.00226 0.9642 0.53364 0.0
H1307 H 0.03761 0.99465 0.41476 0.0
H1308 H 0.96072 0.04477 0.41418 0.0
H1309 H 0.00454 0.02822 0.43475 0.0
H1310 H 0.96892 0.95487 0.47867 0.0
H1311 H 0.92509 0.97199 0.45946 0.0
C1312 C 0.04424 0.96021 0.52763 0.0
C1313 C 0.06684 0.9655 0.50238 0.0
C1314 C 0.01928 0.96766 0.51271 0.0
C1315 C 0.01652 0.98054 0.47222 0.0
C1316 C 0.03921 0.98505 0.44633 0.0
C1317 C 0.06427 0.97753 0.46137 0.0
C1318 C 0.96237 0.02529 0.42885 0.0
C1319 C 0.93972 0.00979 0.43626 0.0
C1320 C 0.9874 0.01563 0.43992 0.0
C1321 C 0.99015 0.99024 0.4583 0.0
C1322 C 0.96739 0.97464 0.46507 0.0
C1323 C 0.94238 0.98435 0.4541 0.0
H1324 H 0.51648 0.91191 0.49252 0.0
H1325 H 0.44206 0.94419 0.44831 0.0
H1326 H 0.53182 0.95638 0.5114 0.0
H1327 H 0.45674 0.98866 0.46881 0.0
H1328 H 0.50263 0.06615 0.46003 0.0
H1329 H 0.48819 0.021 0.44247 0.0
H1330 H 0.52508 0.99251 0.56116 0.0
H1331 H 0.54006 0.0375 0.57745 0.0
C1332 C 0.5032 0.92857 0.48805 0.0
C1333 C 0.47803 0.92482 0.46975 0.0
C1334 C 0.51192 0.95398 0.49877 0.0
C1335 C 0.49555 0.97607 0.49136 0.0
C1336 C 0.46997 0.97209 0.47427 0.0
C1337 C 0.46135 0.94666 0.46331 0.0
C1338 C 0.50796 0.05 0.48165 0.0
C1339 C 0.52266 0.05483 0.51955 0.0
C1340 C 0.49946 0.02431 0.47209 0.0
C1341 C 0.50533 0.0032 0.50063 0.0
C1342 C 0.5205 0.00823 0.53825 0.0
C1343 C 0.52909 0.03386 0.5476 0.0
loop_
_geom_bond_atom_site_label_1
_geom_bond_atom_site_label_2
_geom_bond_distance
_geom_bond_site_symmetry_2
_ccdc_geom_bond_type
Co0 O3 1.970 . S
Co0 N17 1.989 . S
Co0 O25 1.967 . S
Co0 O32 1.920 . S
Co1 O4 1.966 . S
Co1 N10 2.022 . S
Co1 N18 1.993 . S
Co1 O26 1.941 . S
C2 O3 1.258 . S
C2 O4 1.263 . S
O3 Co0 1.970 . S
O3 C2 1.258 . S
O4 Co1 1.966 . S
O4 C2 1.263 . S
C5 O6 1.235 . S
C5 O32 1.289 1_565 S
O6 C5 1.235 . S
C7 C9 1.400 1_554 S
C7 N10 1.351 . S
C7 C12 1.501 . S
C8 C9 1.387 . S
C8 N11 1.341 1_556 S
C9 C7 1.400 1_556 S
C9 C8 1.387 . S
N10 Co1 2.022 . S
N10 C7 1.351 . S
N10 N11 1.365 . S
N11 C8 1.341 1_554 S
N11 N10 1.365 . S
N11 H31 0.862 . S
C12 C7 1.501 . S
C12 H13 0.961 . S
C12 H14 0.961 1_554 S
C12 H15 0.960 . S
H13 C12 0.961 . S
H14 C12 0.961 1_556 S
H15 C12 0.960 . S
C16 N17 1.342 . S
C16 C20 1.401 . S
C16 C21 1.499 1_545 S
N17 Co0 1.989 . S
N17 C16 1.342 . S
N17 N18 1.388 . S
N18 Co1 1.993 . S
N18 N17 1.388 . S
N18 C19 1.346 . S
C19 N18 1.346 . S
C19 C20 1.396 . S
C19 C29 1.510 1_554 S
C20 C16 1.401 . S
C20 C19 1.396 . S
C21 C16 1.499 1_565 S
C21 H22 0.959 . S
C21 H23 0.960 . S
C21 H24 0.961 1_565 S
H22 C21 0.959 . S
H23 C21 0.960 . S
H24 C21 0.961 1_545 S
O25 Co0 1.967 . S
O25 C33 1.258 . S
O26 Co1 1.941 . S
O26 C33 1.266 . S
H27 C29 0.959 . S
H28 C29 0.961 . S
C29 C19 1.510 1_556 S
C29 H27 0.959 . S
C29 H28 0.961 . S
C29 H30 0.960 . S
H30 C29 0.960 . S
H31 N11 0.862 . S
O32 Co0 1.920 . S
O32 C5 1.289 1_545 S
C33 O25 1.258 . S
C33 O26 1.266 . S
Co34 O37 1.970 . S
Co34 N51 1.989 . S
Co34 O59 1.967 . S
Co34 O66 1.920 . S
Co35 O38 1.966 . S
Co35 N44 2.022 . S
Co35 N52 1.993 . S
Co35 O60 1.941 . S
C36 O37 1.258 . S
C36 O38 1.263 . S
O37 Co34 1.970 . S
O37 C36 1.258 . S
O38 Co35 1.966 . S
O38 C36 1.263 . S
C39 O40 1.235 . S
C39 O66 1.289 . S
O40 C39 1.235 . S
C41 C43 1.400 1_554 S
C41 N44 1.351 . S
C41 C46 1.501 . S
C42 C43 1.387 . S
C42 N45 1.341 1_556 S
C43 C41 1.400 1_556 S
C43 C42 1.387 . S
N44 Co35 2.022 . S
N44 C41 1.351 . S
N44 N45 1.365 . S
N45 C42 1.341 1_554 S
N45 N44 1.365 . S
N45 H65 0.862 . S
C46 C41 1.501 . S
C46 H47 0.961 . S
C46 H48 0.961 1_554 S
C46 H49 0.960 . S
H47 C46 0.961 . S
H48 C46 0.961 1_556 S
H49 C46 0.960 . S
C50 N51 1.342 . S
C50 C54 1.401 . S
C50 C55 1.499 . S
N51 Co34 1.989 . S
N51 C50 1.342 . S
N51 N52 1.388 . S
N52 Co35 1.993 . S
N52 N51 1.388 . S
N52 C53 1.346 . S
C53 N52 1.346 . S
C53 C54 1.396 . S
C53 C63 1.510 1_554 S
C54 C50 1.401 . S
C54 C53 1.396 . S
C55 C50 1.499 . S
C55 H56 0.959 . S
C55 H57 0.960 . S
C55 H58 0.961 . S
H56 C55 0.959 . S
H57 C55 0.960 . S
H58 C55 0.961 . S
O59 Co34 1.967 . S
O59 C67 1.258 . S
O60 Co35 1.941 . S
O60 C67 1.266 . S
H61 C63 0.959 . S
H62 C63 0.961 . S
C63 C53 1.510 1_556 S
C63 H61 0.959 . S
C63 H62 0.961 . S
C63 H64 0.960 . S
H64 C63 0.960 . S
H65 N45 0.862 . S
O66 Co34 1.920 . S
O66 C39 1.289 . S
C67 O59 1.258 . S
C67 O60 1.266 . S
Co68 O71 1.970 . S
Co68 N85 1.989 . S
Co68 O93 1.967 . S
Co68 O100 1.920 . S
Co69 O72 1.966 . S
Co69 N78 2.022 . S
Co69 N86 1.993 . S
Co69 O94 1.941 . S
C70 O71 1.258 . S
C70 O72 1.263 . S
O71 Co68 1.970 . S
O71 C70 1.258 . S
O72 Co69 1.966 . S
O72 C70 1.263 . S
C73 O74 1.235 . S
C73 O100 1.289 . S
O74 C73 1.235 . S
C75 C77 1.400 1_554 S
C75 N78 1.351 . S
C75 C80 1.501 . S
C76 C77 1.387 . S
C76 N79 1.341 1_556 S
C77 C75 1.400 1_556 S
C77 C76 1.387 . S
N78 Co69 2.022 . S
N78 C75 1.351 . S
N78 N79 1.365 . S
N79 C76 1.341 1_554 S
N79 N78 1.365 . S
N79 H99 0.862 . S
C80 C75 1.501 . S
C80 H81 0.961 . S
C80 H82 0.961 1_554 S
C80 H83 0.960 . S
H81 C80 0.961 . S
H82 C80 0.961 1_556 S
H83 C80 0.960 . S
C84 N85 1.342 . S
C84 C88 1.401 . S
C84 C89 1.499 . S
N85 Co68 1.989 . S
N85 C84 1.342 . S
N85 N86 1.388 . S
N86 Co69 1.993 . S
N86 N85 1.388 . S
N86 C87 1.346 . S
C87 N86 1.346 . S
C87 C88 1.396 . S
C87 C97 1.510 1_554 S
C88 C84 1.401 . S
C88 C87 1.396 . S
C89 C84 1.499 . S
C89 H90 0.959 . S
C89 H91 0.960 . S
C89 H92 0.961 . S
H90 C89 0.959 . S
H91 C89 0.960 . S
H92 C89 0.961 . S
O93 Co68 1.967 . S
O93 C101 1.258 . S
O94 Co69 1.941 . S
O94 C101 1.266 . S
H95 C97 0.959 . S
H96 C97 0.961 . S
C97 C87 1.510 1_556 S
C97 H95 0.959 . S
C97 H96 0.961 . S
C97 H98 0.960 . S
H98 C97 0.960 . S
H99 N79 0.862 . S
O100 Co68 1.920 . S
O100 C73 1.289 . S
C101 O93 1.258 . S
C101 O94 1.266 . S
Co102 O105 1.970 . S
Co102 N119 1.989 . S
Co102 O127 1.967 . S
Co102 O134 1.920 . S
Co103 O106 1.966 . S
Co103 N112 2.022 . S
Co103 N120 1.993 . S
Co103 O128 1.941 . S
C104 O105 1.258 . S
C104 O106 1.263 . S
O105 Co102 1.970 . S
O105 C104 1.258 . S
O106 Co103 1.966 . S
O106 C104 1.263 . S
C107 O108 1.235 . S
C107 O134 1.289 1_655 S
O108 C107 1.235 . S
C109 C111 1.400 1_554 S
C109 N112 1.351 . S
C109 C114 1.501 . S
C110 C111 1.387 . S
C110 N113 1.341 1_556 S
C111 C109 1.400 1_556 S
C111 C110 1.387 . S
N112 Co103 2.022 . S
N112 C109 1.351 . S
N112 N113 1.365 . S
N113 C110 1.341 1_554 S
N113 N112 1.365 . S
N113 H133 0.862 . S
C114 C109 1.501 . S
C114 H115 0.961 . S
C114 H116 0.961 1_554 S
C114 H117 0.960 . S
H115 C114 0.961 . S
H116 C114 0.961 1_556 S
H117 C114 0.960 . S
C118 N119 1.342 . S
C118 C122 1.401 . S
C118 C123 1.499 1_455 S
N119 Co102 1.989 . S
N119 C118 1.342 . S
N119 N120 1.388 . S
N120 Co103 1.993 . S
N120 N119 1.388 . S
N120 C121 1.346 . S
C121 N120 1.346 . S
C121 C122 1.396 . S
C121 C131 1.510 1_554 S
C122 C118 1.401 . S
C122 C121 1.396 . S
C123 C118 1.499 1_655 S
C123 H124 0.959 . S
C123 H125 0.960 . S
C123 H126 0.961 1_655 S
H124 C123 0.959 . S
H125 C123 0.960 . S
H126 C123 0.961 1_455 S
O127 Co102 1.967 . S
O127 C135 1.258 . S
O128 Co103 1.941 . S
O128 C135 1.266 . S
H129 C131 0.959 . S
H130 C131 0.961 . S
C131 C121 1.510 1_556 S
C131 H129 0.959 . S
C131 H130 0.961 . S
C131 H132 0.960 . S
H132 C131 0.960 . S
H133 N113 0.862 . S
O134 Co102 1.920 . S
O134 C107 1.289 1_455 S
C135 O127 1.258 . S
C135 O128 1.266 . S
Co136 O139 1.970 . S
Co136 N153 1.989 . S
Co136 O161 1.967 . S
Co136 O168 1.920 . S
Co137 O140 1.966 . S
Co137 N146 2.022 . S
Co137 N154 1.993 . S
Co137 O162 1.941 . S
C138 O139 1.258 . S
C138 O140 1.263 . S
O139 Co136 1.970 . S
O139 C138 1.258 . S
O140 Co137 1.966 . S
O140 C138 1.263 . S
C141 O142 1.235 . S
C141 O168 1.289 . S
O142 C141 1.235 . S
C143 C145 1.400 . S
C143 N146 1.351 . S
C143 C148 1.501 . S
C144 C145 1.387 . S
C144 N147 1.341 . S
C145 C143 1.400 . S
C145 C144 1.387 . S
N146 Co137 2.022 . S
N146 C143 1.351 . S
N146 N147 1.365 . S
N147 C144 1.341 . S
N147 N146 1.365 . S
N147 H167 0.862 . S
C148 C143 1.501 . S
C148 H149 0.961 . S
C148 H150 0.961 . S
C148 H151 0.960 . S
H149 C148 0.961 . S
H150 C148 0.961 . S
H151 C148 0.960 . S
C152 N153 1.342 . S
C152 C156 1.401 . S
C152 C157 1.499 . S
N153 Co136 1.989 . S
N153 C152 1.342 . S
N153 N154 1.388 . S
N154 Co137 1.993 . S
N154 N153 1.388 . S
N154 C155 1.346 . S
C155 N154 1.346 . S
C155 C156 1.396 . S
C155 C165 1.510 . S
C156 C152 1.401 . S
C156 C155 1.396 . S
C157 C152 1.499 . S
C157 H158 0.959 . S
C157 H159 0.960 . S
C157 H160 0.961 . S
H158 C157 0.959 . S
H159 C157 0.960 . S
H160 C157 0.961 . S
O161 Co136 1.967 . S
O161 C169 1.258 . S
O162 Co137 1.941 . S
O162 C169 1.266 . S
H163 C165 0.959 . S
H164 C165 0.961 . S
C165 C155 1.510 . S
C165 H163 0.959 . S
C165 H164 0.961 . S
C165 H166 0.960 . S
H166 C165 0.960 . S
H167 N147 0.862 . S
O168 Co136 1.920 . S
O168 C141 1.289 . S
C169 O161 1.258 . S
C169 O162 1.266 . S
Co170 O173 1.970 . S
Co170 N187 1.989 . S
Co170 O195 1.967 . S
Co170 O202 1.920 . S
Co171 O174 1.966 . S
Co171 N180 2.022 . S
Co171 N188 1.993 . S
Co171 O196 1.941 . S
C172 O173 1.258 . S
C172 O174 1.263 . S
O173 Co170 1.970 . S
O173 C172 1.258 . S
O174 Co171 1.966 . S
O174 C172 1.263 . S
C175 O176 1.235 . S
C175 O202 1.289 1_655 S
O176 C175 1.235 . S
C177 C179 1.400 . S
C177 N180 1.351 . S
C177 C182 1.501 . S
C178 C179 1.387 . S
C178 N181 1.341 . S
C179 C177 1.400 . S
C179 C178 1.387 . S
N180 Co171 2.022 . S
N180 C177 1.351 . S
N180 N181 1.365 . S
N181 C178 1.341 . S
N181 N180 1.365 . S
N181 H201 0.862 . S
C182 C177 1.501 . S
C182 H183 0.961 . S
C182 H184 0.961 . S
C182 H185 0.960 . S
H183 C182 0.961 . S
H184 C182 0.961 . S
H185 C182 0.960 . S
C186 N187 1.342 . S
C186 C190 1.401 . S
C186 C191 1.499 1_455 S
N187 Co170 1.989 . S
N187 C186 1.342 . S
N187 N188 1.388 . S
N188 Co171 1.993 . S
N188 N187 1.388 . S
N188 C189 1.346 . S
C189 N188 1.346 . S
C189 C190 1.396 . S
C189 C199 1.510 . S
C190 C186 1.401 . S
C190 C189 1.396 . S
C191 C186 1.499 1_655 S
C191 H192 0.959 . S
C191 H193 0.960 . S
C191 H194 0.961 1_655 S
H192 C191 0.959 . S
H193 C191 0.960 . S
H194 C191 0.961 1_455 S
O195 Co170 1.967 . S
O195 C203 1.258 . S
O196 Co171 1.941 . S
O196 C203 1.266 . S
H197 C199 0.959 . S
H198 C199 0.961 . S
C199 C189 1.510 . S
C199 H197 0.959 . S
C199 H198 0.961 . S
C199 H200 0.960 . S
H200 C199 0.960 . S
H201 N181 0.862 . S
O202 Co170 1.920 . S
O202 C175 1.289 1_455 S
C203 O195 1.258 . S
C203 O196 1.266 . S
Co204 O207 1.970 . S
Co204 N221 1.989 . S
Co204 O229 1.967 . S
Co204 O236 1.920 . S
Co205 O208 1.966 . S
Co205 N214 2.022 . S
Co205 N222 1.993 . S
Co205 O230 1.941 . S
C206 O207 1.258 . S
C206 O208 1.263 . S
O207 Co204 1.970 . S
O207 C206 1.258 . S
O208 Co205 1.966 . S
O208 C206 1.263 . S
C209 O210 1.235 . S
C209 O236 1.289 1_565 S
O210 C209 1.235 . S
C211 C213 1.400 . S
C211 N214 1.351 . S
C211 C216 1.501 . S
C212 C213 1.387 . S
C212 N215 1.341 . S
C213 C211 1.400 . S
C213 C212 1.387 . S
N214 Co205 2.022 . S
N214 C211 1.351 . S
N214 N215 1.365 . S
N215 C212 1.341 . S
N215 N214 1.365 . S
N215 H235 0.862 . S
C216 C211 1.501 . S
C216 H217 0.961 . S
C216 H218 0.961 . S
C216 H219 0.960 . S
H217 C216 0.961 . S
H218 C216 0.961 . S
H219 C216 0.960 . S
C220 N221 1.342 . S
C220 C224 1.401 . S
C220 C225 1.499 1_545 S
N221 Co204 1.989 . S
N221 C220 1.342 . S
N221 N222 1.388 . S
N222 Co205 1.993 . S
N222 N221 1.388 . S
N222 C223 1.346 . S
C223 N222 1.346 . S
C223 C224 1.396 . S
C223 C233 1.510 . S
C224 C220 1.401 . S
C224 C223 1.396 . S
C225 C220 1.499 1_565 S
C225 H226 0.959 . S
C225 H227 0.960 . S
C225 H228 0.961 1_565 S
H226 C225 0.959 . S
H227 C225 0.960 . S
H228 C225 0.961 1_545 S
O229 Co204 1.967 . S
O229 C237 1.258 . S
O230 Co205 1.941 . S
O230 C237 1.266 . S
H231 C233 0.959 . S
H232 C233 0.961 . S
C233 C223 1.510 . S
C233 H231 0.959 . S
C233 H232 0.961 . S
C233 H234 0.960 . S
H234 C233 0.960 . S
H235 N215 0.862 . S
O236 Co204 1.920 . S
O236 C209 1.289 1_545 S
C237 O229 1.258 . S
C237 O230 1.266 . S
Co238 O241 1.970 . S
Co238 N255 1.989 . S
Co238 O263 1.967 . S
Co238 O270 1.920 . S
Co239 O242 1.966 . S
Co239 N248 2.022 . S
Co239 N256 1.993 . S
Co239 O264 1.941 . S
C240 O241 1.258 . S
C240 O242 1.263 . S
O241 Co238 1.970 . S
O241 C240 1.258 . S
O242 Co239 1.966 . S
O242 C240 1.263 . S
C243 O244 1.235 . S
C243 O270 1.289 . S
O244 C243 1.235 . S
C245 C247 1.400 . S
C245 N248 1.351 . S
C245 C250 1.501 . S
C246 C247 1.387 . S
C246 N249 1.341 . S
C247 C245 1.400 . S
C247 C246 1.387 . S
N248 Co239 2.022 . S
N248 C245 1.351 . S
N248 N249 1.365 . S
N249 C246 1.341 . S
N249 N248 1.365 . S
N249 H269 0.862 . S
C250 C245 1.501 . S
C250 H251 0.961 . S
C250 H252 0.961 . S
C250 H253 0.960 . S
H251 C250 0.961 . S
H252 C250 0.961 . S
H253 C250 0.960 . S
C254 N255 1.342 . S
C254 C258 1.401 . S
C254 C259 1.499 . S
N255 Co238 1.989 . S
N255 C254 1.342 . S
N255 N256 1.388 . S
N256 Co239 1.993 . S
N256 N255 1.388 . S
N256 C257 1.346 . S
C257 N256 1.346 . S
C257 C258 1.396 . S
C257 C267 1.510 . S
C258 C254 1.401 . S
C258 C257 1.396 . S
C259 C254 1.499 . S
C259 H260 0.959 . S
C259 H261 0.960 . S
C259 H262 0.961 . S
H260 C259 0.959 . S
H261 C259 0.960 . S
H262 C259 0.961 . S
O263 Co238 1.967 . S
O263 C271 1.258 . S
O264 Co239 1.941 . S
O264 C271 1.266 . S
H265 C267 0.959 . S
H266 C267 0.961 . S
C267 C257 1.510 . S
C267 H265 0.959 . S
C267 H266 0.961 . S
C267 H268 0.960 . S
H268 C267 0.960 . S
H269 N249 0.862 . S
O270 Co238 1.920 . S
O270 C243 1.289 . S
C271 O263 1.258 . S
C271 O264 1.266 . S
Co272 O275 1.970 . S
Co272 N289 1.989 . S
Co272 O297 1.967 . S
Co272 O304 1.920 . S
Co273 O276 1.966 . S
Co273 N282 2.022 . S
Co273 N290 1.993 . S
Co273 O298 1.941 . S
C274 O275 1.258 . S
C274 O276 1.263 . S
O275 Co272 1.970 . S
O275 C274 1.258 . S
O276 Co273 1.966 . S
O276 C274 1.263 . S
C277 O278 1.235 . S
C277 O304 1.289 1_545 S
O278 C277 1.235 . S
C279 C281 1.400 1_556 S
C279 N282 1.351 . S
C279 C284 1.501 . S
C280 C281 1.387 . S
C280 N283 1.341 1_554 S
C281 C279 1.400 1_554 S
C281 C280 1.387 . S
N282 Co273 2.022 . S
N282 C279 1.351 . S
N282 N283 1.365 . S
N283 C280 1.341 1_556 S
N283 N282 1.365 . S
N283 H303 0.862 . S
C284 C279 1.501 . S
C284 H285 0.961 . S
C284 H286 0.961 1_556 S
C284 H287 0.960 . S
H285 C284 0.961 . S
H286 C284 0.961 1_554 S
H287 C284 0.960 . S
C288 N289 1.342 . S
C288 C292 1.401 . S
C288 C293 1.499 1_565 S
N289 Co272 1.989 . S
N289 C288 1.342 . S
N289 N290 1.388 . S
N290 Co273 1.993 . S
N290 N289 1.388 . S
N290 C291 1.346 . S
C291 N290 1.346 . S
C291 C292 1.396 . S
C291 C301 1.510 1_556 S
C292 C288 1.401 . S
C292 C291 1.396 . S
C293 C288 1.499 1_545 S
C293 H294 0.959 . S
C293 H295 0.960 . S
C293 H296 0.961 1_545 S
H294 C293 0.959 . S
H295 C293 0.960 . S
H296 C293 0.961 1_565 S
O297 Co272 1.967 . S
O297 C305 1.258 . S
O298 Co273 1.941 . S
O298 C305 1.266 . S
H299 C301 0.959 . S
H300 C301 0.961 . S
C301 C291 1.510 1_554 S
C301 H299 0.959 . S
C301 H300 0.961 . S
C301 H302 0.960 . S
H302 C301 0.960 . S
H303 N283 0.862 . S
O304 Co272 1.920 . S
O304 C277 1.289 1_565 S
C305 O297 1.258 . S
C305 O298 1.266 . S
Co306 O309 1.970 . S
Co306 N323 1.989 . S
Co306 O331 1.967 . S
Co306 O338 1.920 . S
Co307 O310 1.966 . S
Co307 N316 2.022 . S
Co307 N324 1.993 . S
Co307 O332 1.941 . S
C308 O309 1.258 . S
C308 O310 1.263 . S
O309 Co306 1.970 . S
O309 C308 1.258 . S
O310 Co307 1.966 . S
O310 C308 1.263 . S
C311 O312 1.235 . S
C311 O338 1.289 . S
O312 C311 1.235 . S
C313 C315 1.400 1_556 S
C313 N316 1.351 . S
C313 C318 1.501 . S
C314 C315 1.387 . S
C314 N317 1.341 1_554 S
C315 C313 1.400 1_554 S
C315 C314 1.387 . S
N316 Co307 2.022 . S
N316 C313 1.351 . S
N316 N317 1.365 . S
N317 C314 1.341 1_556 S
N317 N316 1.365 . S
N317 H337 0.862 . S
C318 C313 1.501 . S
C318 H319 0.961 . S
C318 H320 0.961 1_556 S
C318 H321 0.960 . S
H319 C318 0.961 . S
H320 C318 0.961 1_554 S
H321 C318 0.960 . S
C322 N323 1.342 . S
C322 C326 1.401 . S
C322 C327 1.499 . S
N323 Co306 1.989 . S
N323 C322 1.342 . S
N323 N324 1.388 . S
N324 Co307 1.993 . S
N324 N323 1.388 . S
N324 C325 1.346 . S
C325 N324 1.346 . S
C325 C326 1.396 . S
C325 C335 1.510 1_556 S
C326 C322 1.401 . S
C326 C325 1.396 . S
C327 C322 1.499 . S
C327 H328 0.959 . S
C327 H329 0.960 . S
C327 H330 0.961 . S
H328 C327 0.959 . S
H329 C327 0.960 . S
H330 C327 0.961 . S
O331 Co306 1.967 . S
O331 C339 1.258 . S
O332 Co307 1.941 . S
O332 C339 1.266 . S
H333 C335 0.959 . S
H334 C335 0.961 . S
C335 C325 1.510 1_554 S
C335 H333 0.959 . S
C335 H334 0.961 . S
C335 H336 0.960 . S
H336 C335 0.960 . S
H337 N317 0.862 . S
O338 Co306 1.920 . S
O338 C311 1.289 . S
C339 O331 1.258 . S
C339 O332 1.266 . S
Co340 O343 1.970 . S
Co340 N357 1.989 . S
Co340 O365 1.967 . S
Co340 O372 1.920 . S
Co341 O344 1.966 . S
Co341 N350 2.022 . S
Co341 N358 1.993 . S
Co341 O366 1.941 . S
C342 O343 1.258 . S
C342 O344 1.263 . S
O343 Co340 1.970 . S
O343 C342 1.258 . S
O344 Co341 1.966 . S
O344 C342 1.263 . S
C345 O346 1.235 . S
C345 O372 1.289 . S
O346 C345 1.235 . S
C347 C349 1.400 1_556 S
C347 N350 1.351 . S
C347 C352 1.501 . S
C348 C349 1.387 . S
C348 N351 1.341 1_554 S
C349 C347 1.400 1_554 S
C349 C348 1.387 . S
N350 Co341 2.022 . S
N350 C347 1.351 . S
N350 N351 1.365 . S
N351 C348 1.341 1_556 S
N351 N350 1.365 . S
N351 H371 0.862 . S
C352 C347 1.501 . S
C352 H353 0.961 . S
C352 H354 0.961 1_556 S
C352 H355 0.960 . S
H353 C352 0.961 . S
H354 C352 0.961 1_554 S
H355 C352 0.960 . S
C356 N357 1.342 . S
C356 C360 1.401 . S
C356 C361 1.499 . S
N357 Co340 1.989 . S
N357 C356 1.342 . S
N357 N358 1.388 . S
N358 Co341 1.993 . S
N358 N357 1.388 . S
N358 C359 1.346 . S
C359 N358 1.346 . S
C359 C360 1.396 . S
C359 C369 1.510 1_556 S
C360 C356 1.401 . S
C360 C359 1.396 . S
C361 C356 1.499 . S
C361 H362 0.959 . S
C361 H363 0.960 . S
C361 H364 0.961 . S
H362 C361 0.959 . S
H363 C361 0.960 . S
H364 C361 0.961 . S
O365 Co340 1.967 . S
O365 C373 1.258 . S
O366 Co341 1.941 . S
O366 C373 1.266 . S
H367 C369 0.959 . S
H368 C369 0.961 . S
C369 C359 1.510 1_554 S
C369 H367 0.959 . S
C369 H368 0.961 . S
C369 H370 0.960 . S
H370 C369 0.960 . S
H371 N351 0.862 . S
O372 Co340 1.920 . S
O372 C345 1.289 . S
C373 O365 1.258 . S
C373 O366 1.266 . S
Co374 O377 1.970 . S
Co374 N391 1.989 . S
Co374 O399 1.967 . S
Co374 O406 1.920 . S
Co375 O378 1.966 . S
Co375 N384 2.022 . S
Co375 N392 1.993 . S
Co375 O400 1.941 . S
C376 O377 1.258 . S
C376 O378 1.263 . S
O377 Co374 1.970 . S
O377 C376 1.258 . S
O378 Co375 1.966 . S
O378 C376 1.263 . S
C379 O380 1.235 . S
C379 O406 1.289 1_455 S
O380 C379 1.235 . S
C381 C383 1.400 1_556 S
C381 N384 1.351 . S
C381 C386 1.501 . S
C382 C383 1.387 . S
C382 N385 1.341 1_554 S
C383 C381 1.400 1_554 S
C383 C382 1.387 . S
N384 Co375 2.022 . S
N384 C381 1.351 . S
N384 N385 1.365 . S
N385 C382 1.341 1_556 S
N385 N384 1.365 . S
N385 H405 0.862 . S
C386 C381 1.501 . S
C386 H387 0.961 . S
C386 H388 0.961 1_556 S
C386 H389 0.960 . S
H387 C386 0.961 . S
H388 C386 0.961 1_554 S
H389 C386 0.960 . S
C390 N391 1.342 . S
C390 C394 1.401 . S
C390 C395 1.499 1_655 S
N391 Co374 1.989 . S
N391 C390 1.342 . S
N391 N392 1.388 . S
N392 Co375 1.993 . S
N392 N391 1.388 . S
N392 C393 1.346 . S
C393 N392 1.346 . S
C393 C394 1.396 . S
C393 C403 1.510 1_556 S
C394 C390 1.401 . S
C394 C393 1.396 . S
C395 C390 1.499 1_455 S
C395 H396 0.959 . S
C395 H397 0.960 . S
C395 H398 0.961 1_455 S
H396 C395 0.959 . S
H397 C395 0.960 . S
H398 C395 0.961 1_655 S
O399 Co374 1.967 . S
O399 C407 1.258 . S
O400 Co375 1.941 . S
O400 C407 1.266 . S
H401 C403 0.959 . S
H402 C403 0.961 . S
C403 C393 1.510 1_554 S
C403 H401 0.959 . S
C403 H402 0.961 . S
C403 H404 0.960 . S
H404 C403 0.960 . S
H405 N385 0.862 . S
O406 Co374 1.920 . S
O406 C379 1.289 1_655 S
C407 O399 1.258 . S
C407 O400 1.266 . S
Co408 O411 1.970 . S
Co408 N425 1.989 . S
Co408 O433 1.967 . S
Co408 O440 1.920 . S
Co409 O412 1.966 . S
Co409 N418 2.022 . S
Co409 N426 1.993 . S
Co409 O434 1.941 . S
C410 O411 1.258 . S
C410 O412 1.263 . S
O411 Co408 1.970 . S
O411 C410 1.258 . S
O412 Co409 1.966 . S
O412 C410 1.263 . S
C413 O414 1.235 . S
C413 O440 1.289 . S
O414 C413 1.235 . S
C415 C417 1.400 . S
C415 N418 1.351 . S
C415 C420 1.501 . S
C416 C417 1.387 . S
C416 N419 1.341 . S
C417 C415 1.400 . S
C417 C416 1.387 . S
N418 Co409 2.022 . S
N418 C415 1.351 . S
N418 N419 1.365 . S
N419 C416 1.341 . S
N419 N418 1.365 . S
N419 H439 0.862 . S
C420 C415 1.501 . S
C420 H421 0.961 . S
C420 H422 0.961 . S
C420 H423 0.960 . S
H421 C420 0.961 . S
H422 C420 0.961 . S
H423 C420 0.960 . S
C424 N425 1.342 . S
C424 C428 1.401 . S
C424 C429 1.499 . S
N425 Co408 1.989 . S
N425 C424 1.342 . S
N425 N426 1.388 . S
N426 Co409 1.993 . S
N426 N425 1.388 . S
N426 C427 1.346 . S
C427 N426 1.346 . S
C427 C428 1.396 . S
C427 C437 1.510 . S
C428 C424 1.401 . S
C428 C427 1.396 . S
C429 C424 1.499 . S
C429 H430 0.959 . S
C429 H431 0.960 . S
C429 H432 0.961 . S
H430 C429 0.959 . S
H431 C429 0.960 . S
H432 C429 0.961 . S
O433 Co408 1.967 . S
O433 C441 1.258 . S
O434 Co409 1.941 . S
O434 C441 1.266 . S
H435 C437 0.959 . S
H436 C437 0.961 . S
C437 C427 1.510 . S
C437 H435 0.959 . S
C437 H436 0.961 . S
C437 H438 0.960 . S
H438 C437 0.960 . S
H439 N419 0.862 . S
O440 Co408 1.920 . S
O440 C413 1.289 . S
C441 O433 1.258 . S
C441 O434 1.266 . S
Co442 O445 1.970 . S
Co442 N459 1.989 . S
Co442 O467 1.967 . S
Co442 O474 1.920 . S
Co443 O446 1.966 . S
Co443 N452 2.022 . S
Co443 N460 1.993 . S
Co443 O468 1.941 . S
C444 O445 1.258 . S
C444 O446 1.263 . S
O445 Co442 1.970 . S
O445 C444 1.258 . S
O446 Co443 1.966 . S
O446 C444 1.263 . S
C447 O448 1.235 . S
C447 O474 1.289 1_455 S
O448 C447 1.235 . S
C449 C451 1.400 . S
C449 N452 1.351 . S
C449 C454 1.501 . S
C450 C451 1.387 . S
C450 N453 1.341 . S
C451 C449 1.400 . S
C451 C450 1.387 . S
N452 Co443 2.022 . S
N452 C449 1.351 . S
N452 N453 1.365 . S
N453 C450 1.341 . S
N453 N452 1.365 . S
N453 H473 0.862 . S
C454 C449 1.501 . S
C454 H455 0.961 . S
C454 H456 0.961 . S
C454 H457 0.960 . S
H455 C454 0.961 . S
H456 C454 0.961 . S
H457 C454 0.960 . S
C458 N459 1.342 . S
C458 C462 1.401 . S
C458 C463 1.499 1_655 S
N459 Co442 1.989 . S
N459 C458 1.342 . S
N459 N460 1.388 . S
N460 Co443 1.993 . S
N460 N459 1.388 . S
N460 C461 1.346 . S
C461 N460 1.346 . S
C461 C462 1.396 . S
C461 C471 1.510 . S
C462 C458 1.401 . S
C462 C461 1.396 . S
C463 C458 1.499 1_455 S
C463 H464 0.959 . S
C463 H465 0.960 . S
C463 H466 0.961 1_455 S
H464 C463 0.959 . S
H465 C463 0.960 . S
H466 C463 0.961 1_655 S
O467 Co442 1.967 . S
O467 C475 1.258 . S
O468 Co443 1.941 . S
O468 C475 1.266 . S
H469 C471 0.959 . S
H470 C471 0.961 . S
C471 C461 1.510 . S
C471 H469 0.959 . S
C471 H470 0.961 . S
C471 H472 0.960 . S
H472 C471 0.960 . S
H473 N453 0.862 . S
O474 Co442 1.920 . S
O474 C447 1.289 1_655 S
C475 O467 1.258 . S
C475 O468 1.266 . S
Co476 O479 1.970 . S
Co476 N493 1.989 . S
Co476 O501 1.967 . S
Co476 O508 1.920 . S
Co477 O480 1.966 . S
Co477 N486 2.022 . S
Co477 N494 1.993 . S
Co477 O502 1.941 . S
C478 O479 1.258 . S
C478 O480 1.263 . S
O479 Co476 1.970 . S
O479 C478 1.258 . S
O480 Co477 1.966 . S
O480 C478 1.263 . S
C481 O482 1.235 . S
C481 O508 1.289 1_545 S
O482 C481 1.235 . S
C483 C485 1.400 . S
C483 N486 1.351 . S
C483 C488 1.501 . S
C484 C485 1.387 . S
C484 N487 1.341 . S
C485 C483 1.400 . S
C485 C484 1.387 . S
N486 Co477 2.022 . S
N486 C483 1.351 . S
N486 N487 1.365 . S
N487 C484 1.341 . S
N487 N486 1.365 . S
N487 H507 0.862 . S
C488 C483 1.501 . S
C488 H489 0.961 . S
C488 H490 0.961 . S
C488 H491 0.960 . S
H489 C488 0.961 . S
H490 C488 0.961 . S
H491 C488 0.960 . S
C492 N493 1.342 . S
C492 C496 1.401 . S
C492 C497 1.499 1_565 S
N493 Co476 1.989 . S
N493 C492 1.342 . S
N493 N494 1.388 . S
N494 Co477 1.993 . S
N494 N493 1.388 . S
N494 C495 1.346 . S
C495 N494 1.346 . S
C495 C496 1.396 . S
C495 C505 1.510 . S
C496 C492 1.401 . S
C496 C495 1.396 . S
C497 C492 1.499 1_545 S
C497 H498 0.959 . S
C497 H499 0.960 . S
C497 H500 0.961 1_545 S
H498 C497 0.959 . S
H499 C497 0.960 . S
H500 C497 0.961 1_565 S
O501 Co476 1.967 . S
O501 C509 1.258 . S
O502 Co477 1.941 . S
O502 C509 1.266 . S
H503 C505 0.959 . S
H504 C505 0.961 . S
C505 C495 1.510 . S
C505 H503 0.959 . S
C505 H504 0.961 . S
C505 H506 0.960 . S
H506 C505 0.960 . S
H507 N487 0.862 . S
O508 Co476 1.920 . S
O508 C481 1.289 1_565 S
C509 O501 1.258 . S
C509 O502 1.266 . S
Co510 O513 1.970 . S
Co510 N527 1.989 . S
Co510 O535 1.967 . S
Co510 O542 1.920 . S
Co511 O514 1.966 . S
Co511 N520 2.022 . S
Co511 N528 1.993 . S
Co511 O536 1.941 . S
C512 O513 1.258 . S
C512 O514 1.263 . S
O513 Co510 1.970 . S
O513 C512 1.258 . S
O514 Co511 1.966 . S
O514 C512 1.263 . S
C515 O516 1.235 . S
C515 O542 1.289 . S
O516 C515 1.235 . S
C517 C519 1.400 . S
C517 N520 1.351 . S
C517 C522 1.501 . S
C518 C519 1.387 . S
C518 N521 1.341 . S
C519 C517 1.400 . S
C519 C518 1.387 . S
N520 Co511 2.022 . S
N520 C517 1.351 . S
N520 N521 1.365 . S
N521 C518 1.341 . S
N521 N520 1.365 . S
N521 H541 0.862 . S
C522 C517 1.501 . S
C522 H523 0.961 . S
C522 H524 0.961 . S
C522 H525 0.960 . S
H523 C522 0.961 . S
H524 C522 0.961 . S
H525 C522 0.960 . S
C526 N527 1.342 . S
C526 C530 1.401 . S
C526 C531 1.499 . S
N527 Co510 1.989 . S
N527 C526 1.342 . S
N527 N528 1.388 . S
N528 Co511 1.993 . S
N528 N527 1.388 . S
N528 C529 1.346 . S
C529 N528 1.346 . S
C529 C530 1.396 . S
C529 C539 1.510 . S
C530 C526 1.401 . S
C530 C529 1.396 . S
C531 C526 1.499 . S
C531 H532 0.959 . S
C531 H533 0.960 . S
C531 H534 0.961 . S
H532 C531 0.959 . S
H533 C531 0.960 . S
H534 C531 0.961 . S
O535 Co510 1.967 . S
O535 C543 1.258 . S
O536 Co511 1.941 . S
O536 C543 1.266 . S
H537 C539 0.959 . S
H538 C539 0.961 . S
C539 C529 1.510 . S
C539 H537 0.959 . S
C539 H538 0.961 . S
C539 H540 0.960 . S
H540 C539 0.960 . S
H541 N521 0.862 . S
O542 Co510 1.920 . S
O542 C515 1.289 . S
C543 O535 1.258 . S
C543 O536 1.266 . S
H544 C552 0.950 . S
H545 C557 0.950 . S
H546 C554 0.950 . S
H547 C556 0.950 . S
H548 C558 0.950 . S
H549 C560 0.950 . S
H550 C562 0.950 . S
H551 C563 0.950 . S
C552 H544 0.950 . S
C552 C553 1.386 . S
C552 C554 1.391 . S
C553 C552 1.386 . S
C553 C557 1.393 . S
C554 H546 0.950 . S
C554 C552 1.391 . S
C554 C555 1.400 . S
C555 C554 1.400 . S
C555 C556 1.398 . S
C555 C561 1.491 . S
C556 H547 0.950 . S
C556 C555 1.398 . S
C556 C557 1.391 . S
C557 H545 0.950 . S
C557 C553 1.393 . S
C557 C556 1.391 . S
C558 H548 0.950 . S
C558 C559 1.386 . S
C558 C560 1.391 . S
C559 C558 1.386 . S
C559 C563 1.393 . S
C560 H549 0.950 . S
C560 C558 1.391 . S
C560 C561 1.400 . S
C561 C555 1.491 . S
C561 C560 1.400 . S
C561 C562 1.398 . S
C562 H550 0.950 . S
C562 C561 1.398 . S
C562 C563 1.391 . S
C563 H551 0.950 . S
C563 C559 1.393 . S
C563 C562 1.391 . S
H564 C572 0.950 . S
H565 C577 0.950 . S
H566 C574 0.950 . S
H567 C576 0.950 . S
H568 C578 0.950 . S
H569 C580 0.950 . S
H570 C582 0.950 . S
H571 C583 0.950 . S
C572 H564 0.950 . S
C572 C573 1.386 . S
C572 C574 1.391 . S
C573 C572 1.386 . S
C573 C577 1.393 . S
C574 H566 0.950 . S
C574 C572 1.391 . S
C574 C575 1.400 . S
C575 C574 1.400 . S
C575 C576 1.398 . S
C575 C581 1.491 . S
C576 H567 0.950 . S
C576 C575 1.398 . S
C576 C577 1.391 . S
C577 H565 0.950 . S
C577 C573 1.393 . S
C577 C576 1.391 . S
C578 H568 0.950 . S
C578 C579 1.386 . S
C578 C580 1.391 . S
C579 C578 1.386 . S
C579 C583 1.393 . S
C580 H569 0.950 . S
C580 C578 1.391 . S
C580 C581 1.400 . S
C581 C575 1.491 . S
C581 C580 1.400 . S
C581 C582 1.398 . S
C582 H570 0.950 . S
C582 C581 1.398 . S
C582 C583 1.391 . S
C583 H571 0.950 . S
C583 C579 1.393 . S
C583 C582 1.391 . S
H584 C592 0.950 . S
H585 C597 0.950 . S
H586 C594 0.950 . S
H587 C596 0.950 . S
H588 C598 0.950 . S
H589 C600 0.950 . S
H590 C602 0.950 . S
H591 C603 0.950 . S
C592 H584 0.950 . S
C592 C593 1.386 . S
C592 C594 1.391 . S
C593 C592 1.386 . S
C593 C597 1.393 . S
C594 H586 0.950 . S
C594 C592 1.391 . S
C594 C595 1.400 . S
C595 C594 1.400 . S
C595 C596 1.398 . S
C595 C601 1.491 . S
C596 H587 0.950 . S
C596 C595 1.398 . S
C596 C597 1.391 . S
C597 H585 0.950 . S
C597 C593 1.393 . S
C597 C596 1.391 . S
C598 H588 0.950 . S
C598 C599 1.386 . S
C598 C600 1.391 . S
C599 C598 1.386 . S
C599 C603 1.393 . S
C600 H589 0.950 . S
C600 C598 1.391 . S
C600 C601 1.400 . S
C601 C595 1.491 . S
C601 C600 1.400 . S
C601 C602 1.398 . S
C602 H590 0.950 . S
C602 C601 1.398 . S
C602 C603 1.391 . S
C603 H591 0.950 . S
C603 C599 1.393 . S
C603 C602 1.391 . S
H604 C612 0.950 . S
H605 C617 0.950 . S
H606 C614 0.950 . S
H607 C616 0.950 . S
H608 C618 0.950 . S
H609 C620 0.950 . S
H610 C622 0.950 . S
H611 C623 0.950 . S
C612 H604 0.950 . S
C612 C613 1.386 . S
C612 C614 1.391 . S
C613 C612 1.386 . S
C613 C617 1.393 . S
C614 H606 0.950 . S
C614 C612 1.391 . S
C614 C615 1.400 . S
C615 C614 1.400 . S
C615 C616 1.398 . S
C615 C621 1.491 . S
C616 H607 0.950 . S
C616 C615 1.398 . S
C616 C617 1.391 . S
C617 H605 0.950 . S
C617 C613 1.393 . S
C617 C616 1.391 . S
C618 H608 0.950 . S
C618 C619 1.386 . S
C618 C620 1.391 . S
C619 C618 1.386 . S
C619 C623 1.393 . S
C620 H609 0.950 . S
C620 C618 1.391 . S
C620 C621 1.400 . S
C621 C615 1.491 . S
C621 C620 1.400 . S
C621 C622 1.398 . S
C622 H610 0.950 . S
C622 C621 1.398 . S
C622 C623 1.391 . S
C623 H611 0.950 . S
C623 C619 1.393 . S
C623 C622 1.391 . S
H624 C632 0.950 . S
H625 C637 0.951 1_565 S
H626 C634 0.950 . S
H627 C636 0.950 . S
H628 C638 0.950 . S
H629 C640 0.950 . S
H630 C642 0.950 . S
H631 C643 0.950 . S
C632 H624 0.950 . S
C632 C633 1.386 . S
C632 C634 1.391 . S
C633 C632 1.386 . S
C633 C637 1.393 . S
C634 H626 0.950 . S
C634 C632 1.391 . S
C634 C635 1.400 . S
C635 C634 1.400 . S
C635 C636 1.398 . S
C635 C641 1.491 . S
C636 H627 0.950 . S
C636 C635 1.398 . S
C636 C637 1.391 . S
C637 H625 0.951 1_545 S
C637 C633 1.393 . S
C637 C636 1.391 . S
C638 H628 0.950 . S
C638 C639 1.386 . S
C638 C640 1.391 . S
C639 C638 1.386 . S
C639 C643 1.393 . S
C640 H629 0.950 . S
C640 C638 1.391 . S
C640 C641 1.400 . S
C641 C635 1.491 . S
C641 C640 1.400 . S
C641 C642 1.398 . S
C642 H630 0.950 . S
C642 C641 1.398 . S
C642 C643 1.391 . S
C643 H631 0.950 . S
C643 C639 1.393 . S
C643 C642 1.391 . S
H644 C652 0.950 . S
H645 C657 0.950 . S
H646 C654 0.950 . S
H647 C656 0.950 . S
H648 C658 0.950 . S
H649 C660 0.950 . S
H650 C662 0.950 . S
H651 C663 0.950 . S
C652 H644 0.950 . S
C652 C653 1.386 . S
C652 C654 1.391 . S
C653 C652 1.386 . S
C653 C657 1.393 . S
C654 H646 0.950 . S
C654 C652 1.391 . S
C654 C655 1.400 . S
C655 C654 1.400 . S
C655 C656 1.398 . S
C655 C661 1.491 . S
C656 H647 0.950 . S
C656 C655 1.398 . S
C656 C657 1.391 . S
C657 H645 0.950 . S
C657 C653 1.393 . S
C657 C656 1.391 . S
C658 H648 0.950 . S
C658 C659 1.386 . S
C658 C660 1.391 . S
C659 C658 1.386 . S
C659 C663 1.393 . S
C660 H649 0.950 . S
C660 C658 1.391 . S
C660 C661 1.400 . S
C661 C655 1.491 . S
C661 C660 1.400 . S
C661 C662 1.398 . S
C662 H650 0.950 . S
C662 C661 1.398 . S
C662 C663 1.391 . S
C663 H651 0.950 . S
C663 C659 1.393 . S
C663 C662 1.391 . S
H664 C672 0.950 . S
H665 C677 0.950 . S
H666 C674 0.950 . S
H667 C676 0.950 . S
H668 C678 0.950 . S
H669 C680 0.950 . S
H670 C682 0.950 . S
H671 C683 0.950 . S
C672 H664 0.950 . S
C672 C673 1.386 . S
C672 C674 1.391 . S
C673 C672 1.386 . S
C673 C677 1.393 . S
C674 H666 0.950 . S
C674 C672 1.391 . S
C674 C675 1.400 . S
C675 C674 1.400 . S
C675 C676 1.398 . S
C675 C681 1.491 . S
C676 H667 0.950 . S
C676 C675 1.398 . S
C676 C677 1.391 . S
C677 H665 0.950 . S
C677 C673 1.393 . S
C677 C676 1.391 . S
C678 H668 0.950 . S
C678 C679 1.386 . S
C678 C680 1.391 . S
C679 C678 1.386 . S
C679 C683 1.393 . S
C680 H669 0.950 . S
C680 C678 1.391 . S
C680 C681 1.400 . S
C681 C675 1.491 . S
C681 C680 1.400 . S
C681 C682 1.398 . S
C682 H670 0.950 . S
C682 C681 1.398 . S
C682 C683 1.391 . S
C683 H671 0.950 . S
C683 C679 1.393 . S
C683 C682 1.391 . S
H684 C692 0.950 . S
H685 C697 0.950 . S
H686 C694 0.950 . S
H687 C696 0.950 . S
H688 C698 0.950 . S
H689 C700 0.950 . S
H690 C702 0.950 . S
H691 C703 0.950 . S
C692 H684 0.950 . S
C692 C693 1.386 . S
C692 C694 1.391 . S
C693 C692 1.386 . S
C693 C697 1.393 . S
C694 H686 0.950 . S
C694 C692 1.391 . S
C694 C695 1.400 . S
C695 C694 1.400 . S
C695 C696 1.398 . S
C695 C701 1.491 . S
C696 H687 0.950 . S
C696 C695 1.398 . S
C696 C697 1.391 . S
C697 H685 0.950 . S
C697 C693 1.393 . S
C697 C696 1.391 . S
C698 H688 0.950 . S
C698 C699 1.386 . S
C698 C700 1.391 . S
C699 C698 1.386 . S
C699 C703 1.393 . S
C700 H689 0.950 . S
C700 C698 1.391 . S
C700 C701 1.400 . S
C701 C695 1.491 . S
C701 C700 1.400 . S
C701 C702 1.398 . S
C702 H690 0.950 . S
C702 C701 1.398 . S
C702 C703 1.391 . S
C703 H691 0.950 . S
C703 C699 1.393 . S
C703 C702 1.391 . S
H704 C712 0.950 . S
H705 C717 0.950 . S
H706 C714 0.950 . S
H707 C716 0.950 . S
H708 C718 0.950 . S
H709 C720 0.950 . S
H710 C722 0.950 . S
H711 C723 0.950 . S
C712 H704 0.950 . S
C712 C713 1.386 . S
C712 C714 1.391 . S
C713 C712 1.386 . S
C713 C717 1.393 . S
C714 H706 0.950 . S
C714 C712 1.391 . S
C714 C715 1.400 . S
C715 C714 1.400 . S
C715 C716 1.398 . S
C715 C721 1.491 . S
C716 H707 0.950 . S
C716 C715 1.398 . S
C716 C717 1.391 . S
C717 H705 0.950 . S
C717 C713 1.393 . S
C717 C716 1.391 . S
C718 H708 0.950 . S
C718 C719 1.386 . S
C718 C720 1.391 . S
C719 C718 1.386 . S
C719 C723 1.393 . S
C720 H709 0.950 . S
C720 C718 1.391 . S
C720 C721 1.400 . S
C721 C715 1.491 . S
C721 C720 1.400 . S
C721 C722 1.398 . S
C722 H710 0.950 . S
C722 C721 1.398 . S
C722 C723 1.391 . S
C723 H711 0.950 . S
C723 C719 1.393 . S
C723 C722 1.391 . S
H724 C732 0.950 . S
H725 C737 0.950 . S
H726 C734 0.950 . S
H727 C736 0.950 . S
H728 C738 0.950 . S
H729 C740 0.950 . S
H730 C742 0.950 . S
H731 C743 0.950 . S
C732 H724 0.950 . S
C732 C733 1.386 . S
C732 C734 1.391 . S
C733 C732 1.386 . S
C733 C737 1.393 . S
C734 H726 0.950 . S
C734 C732 1.391 . S
C734 C735 1.400 . S
C735 C734 1.400 . S
C735 C736 1.398 . S
C735 C741 1.491 . S
C736 H727 0.950 . S
C736 C735 1.398 . S
C736 C737 1.391 . S
C737 H725 0.950 . S
C737 C733 1.393 . S
C737 C736 1.391 . S
C738 H728 0.950 . S
C738 C739 1.386 . S
C738 C740 1.391 . S
C739 C738 1.386 . S
C739 C743 1.393 . S
C740 H729 0.950 . S
C740 C738 1.391 . S
C740 C741 1.400 . S
C741 C735 1.491 . S
C741 C740 1.400 . S
C741 C742 1.398 . S
C742 H730 0.950 . S
C742 C741 1.398 . S
C742 C743 1.391 . S
C743 H731 0.950 . S
C743 C739 1.393 . S
C743 C742 1.391 . S
H744 C752 0.950 . S
H745 C757 0.950 . S
H746 C754 0.950 . S
H747 C756 0.950 . S
H748 C758 0.950 . S
H749 C760 0.950 . S
H750 C762 0.950 . S
H751 C763 0.950 . S
C752 H744 0.950 . S
C752 C753 1.386 . S
C752 C754 1.391 . S
C753 C752 1.386 . S
C753 C757 1.393 . S
C754 H746 0.950 . S
C754 C752 1.391 . S
C754 C755 1.400 . S
C755 C754 1.400 . S
C755 C756 1.398 . S
C755 C761 1.491 . S
C756 H747 0.950 . S
C756 C755 1.398 . S
C756 C757 1.391 . S
C757 H745 0.950 . S
C757 C753 1.393 . S
C757 C756 1.391 . S
C758 H748 0.950 . S
C758 C759 1.386 . S
C758 C760 1.391 . S
C759 C758 1.386 . S
C759 C763 1.393 . S
C760 H749 0.950 . S
C760 C758 1.391 . S
C760 C761 1.400 . S
C761 C755 1.491 . S
C761 C760 1.400 . S
C761 C762 1.398 . S
C762 H750 0.950 . S
C762 C761 1.398 . S
C762 C763 1.391 . S
C763 H751 0.950 . S
C763 C759 1.393 . S
C763 C762 1.391 . S
H764 C772 0.950 . S
H765 C777 0.950 . S
H766 C774 0.950 . S
H767 C776 0.950 . S
H768 C778 0.950 . S
H769 C780 0.950 . S
H770 C782 0.950 . S
H771 C783 0.950 . S
C772 H764 0.950 . S
C772 C773 1.386 . S
C772 C774 1.391 . S
C773 C772 1.386 . S
C773 C777 1.393 . S
C774 H766 0.950 . S
C774 C772 1.391 . S
C774 C775 1.400 . S
C775 C774 1.400 . S
C775 C776 1.398 . S
C775 C781 1.491 . S
C776 H767 0.950 . S
C776 C775 1.398 . S
C776 C777 1.391 . S
C777 H765 0.950 . S
C777 C773 1.393 . S
C777 C776 1.391 . S
C778 H768 0.950 . S
C778 C779 1.386 . S
C778 C780 1.391 . S
C779 C778 1.386 . S
C779 C783 1.393 . S
C780 H769 0.950 . S
C780 C778 1.391 . S
C780 C781 1.400 . S
C781 C775 1.491 . S
C781 C780 1.400 . S
C781 C782 1.398 . S
C782 H770 0.950 . S
C782 C781 1.398 . S
C782 C783 1.391 . S
C783 H771 0.950 . S
C783 C779 1.393 . S
C783 C782 1.391 . S
H784 C792 0.950 . S
H785 C797 0.950 . S
H786 C794 0.950 . S
H787 C796 0.950 . S
H788 C798 0.950 . S
H789 C800 0.950 . S
H790 C802 0.950 . S
H791 C803 0.950 . S
C792 H784 0.950 . S
C792 C793 1.386 . S
C792 C794 1.391 . S
C793 C792 1.386 . S
C793 C797 1.393 . S
C794 H786 0.950 . S
C794 C792 1.391 . S
C794 C795 1.400 . S
C795 C794 1.400 . S
C795 C796 1.398 . S
C795 C801 1.491 . S
C796 H787 0.950 . S
C796 C795 1.398 . S
C796 C797 1.391 . S
C797 H785 0.950 . S
C797 C793 1.393 . S
C797 C796 1.391 . S
C798 H788 0.950 . S
C798 C799 1.386 . S
C798 C800 1.391 . S
C799 C798 1.386 . S
C799 C803 1.393 . S
C800 H789 0.950 . S
C800 C798 1.391 . S
C800 C801 1.400 . S
C801 C795 1.491 . S
C801 C800 1.400 . S
C801 C802 1.398 . S
C802 H790 0.950 . S
C802 C801 1.398 . S
C802 C803 1.391 . S
C803 H791 0.950 . S
C803 C799 1.393 . S
C803 C802 1.391 . S
H804 C812 0.950 . S
H805 C817 0.950 . S
H806 C814 0.950 . S
H807 C816 0.950 . S
H808 C818 0.950 . S
H809 C820 0.950 . S
H810 C822 0.950 . S
H811 C823 0.950 . S
C812 H804 0.950 . S
C812 C813 1.386 . S
C812 C814 1.391 . S
C813 C812 1.386 . S
C813 C817 1.393 . S
C814 H806 0.950 . S
C814 C812 1.391 . S
C814 C815 1.400 . S
C815 C814 1.400 . S
C815 C816 1.398 . S
C815 C821 1.491 . S
C816 H807 0.950 . S
C816 C815 1.398 . S
C816 C817 1.391 . S
C817 H805 0.950 . S
C817 C813 1.393 . S
C817 C816 1.391 . S
C818 H808 0.950 . S
C818 C819 1.386 . S
C818 C820 1.391 . S
C819 C818 1.386 . S
C819 C823 1.393 . S
C820 H809 0.950 . S
C820 C818 1.391 . S
C820 C821 1.400 . S
C821 C815 1.491 . S
C821 C820 1.400 . S
C821 C822 1.398 . S
C822 H810 0.950 . S
C822 C821 1.398 . S
C822 C823 1.391 . S
C823 H811 0.950 . S
C823 C819 1.393 . S
C823 C822 1.391 . S
H824 C832 0.950 . S
H825 C837 0.950 . S
H826 C834 0.950 . S
H827 C836 0.950 . S
H828 C838 0.950 . S
H829 C840 0.950 . S
H830 C842 0.950 . S
H831 C843 0.950 . S
C832 H824 0.950 . S
C832 C833 1.386 . S
C832 C834 1.391 . S
C833 C832 1.386 . S
C833 C837 1.393 . S
C834 H826 0.950 . S
C834 C832 1.391 . S
C834 C835 1.400 . S
C835 C834 1.400 . S
C835 C836 1.398 . S
C835 C841 1.491 . S
C836 H827 0.950 . S
C836 C835 1.398 . S
C836 C837 1.391 . S
C837 H825 0.950 . S
C837 C833 1.393 . S
C837 C836 1.391 . S
C838 H828 0.950 . S
C838 C839 1.386 . S
C838 C840 1.391 . S
C839 C838 1.386 . S
C839 C843 1.393 . S
C840 H829 0.950 . S
C840 C838 1.391 . S
C840 C841 1.400 . S
C841 C835 1.491 . S
C841 C840 1.400 . S
C841 C842 1.398 . S
C842 H830 0.950 . S
C842 C841 1.398 . S
C842 C843 1.391 . S
C843 H831 0.950 . S
C843 C839 1.393 . S
C843 C842 1.391 . S
H844 C852 0.950 . S
H845 C857 0.950 . S
H846 C854 0.950 . S
H847 C856 0.950 . S
H848 C858 0.950 . S
H849 C860 0.950 . S
H850 C862 0.950 . S
H851 C863 0.950 . S
C852 H844 0.950 . S
C852 C853 1.386 . S
C852 C854 1.391 . S
C853 C852 1.386 . S
C853 C857 1.393 . S
C854 H846 0.950 . S
C854 C852 1.391 . S
C854 C855 1.400 . S
C855 C854 1.400 . S
C855 C856 1.398 . S
C855 C861 1.491 . S
C856 H847 0.950 . S
C856 C855 1.398 . S
C856 C857 1.391 . S
C857 H845 0.950 . S
C857 C853 1.393 . S
C857 C856 1.391 . S
C858 H848 0.950 . S
C858 C859 1.386 . S
C858 C860 1.391 . S
C859 C858 1.386 . S
C859 C863 1.393 . S
C860 H849 0.950 . S
C860 C858 1.391 . S
C860 C861 1.400 . S
C861 C855 1.491 . S
C861 C860 1.400 . S
C861 C862 1.398 . S
C862 H850 0.950 . S
C862 C861 1.398 . S
C862 C863 1.391 . S
C863 H851 0.950 . S
C863 C859 1.393 . S
C863 C862 1.391 . S
H864 C872 0.950 . S
H865 C877 0.950 . S
H866 C874 0.950 . S
H867 C876 0.950 . S
H868 C878 0.950 . S
H869 C880 0.950 . S
H870 C882 0.950 . S
H871 C883 0.950 . S
C872 H864 0.950 . S
C872 C873 1.386 . S
C872 C874 1.391 . S
C873 C872 1.386 . S
C873 C877 1.393 . S
C874 H866 0.950 . S
C874 C872 1.391 . S
C874 C875 1.400 . S
C875 C874 1.400 . S
C875 C876 1.398 . S
C875 C881 1.491 . S
C876 H867 0.950 . S
C876 C875 1.398 . S
C876 C877 1.391 . S
C877 H865 0.950 . S
C877 C873 1.393 . S
C877 C876 1.391 . S
C878 H868 0.950 . S
C878 C879 1.386 . S
C878 C880 1.391 . S
C879 C878 1.386 . S
C879 C883 1.393 . S
C880 H869 0.950 . S
C880 C878 1.391 . S
C880 C881 1.400 . S
C881 C875 1.491 . S
C881 C880 1.400 . S
C881 C882 1.398 . S
C882 H870 0.950 . S
C882 C881 1.398 . S
C882 C883 1.391 . S
C883 H871 0.950 . S
C883 C879 1.393 . S
C883 C882 1.391 . S
H884 C892 0.950 . S
H885 C897 0.950 . S
H886 C894 0.950 . S
H887 C896 0.950 . S
H888 C898 0.950 . S
H889 C900 0.950 . S
H890 C902 0.950 . S
H891 C903 0.950 . S
C892 H884 0.950 . S
C892 C893 1.386 . S
C892 C894 1.391 . S
C893 C892 1.386 . S
C893 C897 1.393 . S
C894 H886 0.950 . S
C894 C892 1.391 . S
C894 C895 1.400 . S
C895 C894 1.400 . S
C895 C896 1.398 . S
C895 C901 1.491 . S
C896 H887 0.950 . S
C896 C895 1.398 . S
C896 C897 1.391 . S
C897 H885 0.950 . S
C897 C893 1.393 . S
C897 C896 1.391 . S
C898 H888 0.950 . S
C898 C899 1.386 . S
C898 C900 1.391 . S
C899 C898 1.386 . S
C899 C903 1.393 . S
C900 H889 0.950 . S
C900 C898 1.391 . S
C900 C901 1.400 . S
C901 C895 1.491 . S
C901 C900 1.400 . S
C901 C902 1.398 . S
C902 H890 0.950 . S
C902 C901 1.398 . S
C902 C903 1.391 . S
C903 H891 0.950 . S
C903 C899 1.393 . S
C903 C902 1.391 . S
H904 C912 0.950 . S
H905 C917 0.950 . S
H906 C914 0.950 . S
H907 C916 0.950 . S
H908 C918 0.950 . S
H909 C920 0.950 . S
H910 C922 0.950 . S
H911 C923 0.950 . S
C912 H904 0.950 . S
C912 C913 1.386 . S
C912 C914 1.391 . S
C913 C912 1.386 . S
C913 C917 1.393 . S
C914 H906 0.950 . S
C914 C912 1.391 . S
C914 C915 1.400 . S
C915 C914 1.400 . S
C915 C916 1.398 . S
C915 C921 1.491 . S
C916 H907 0.950 . S
C916 C915 1.398 . S
C916 C917 1.391 . S
C917 H905 0.950 . S
C917 C913 1.393 . S
C917 C916 1.391 . S
C918 H908 0.950 . S
C918 C919 1.386 . S
C918 C920 1.391 . S
C919 C918 1.386 . S
C919 C923 1.393 . S
C920 H909 0.950 . S
C920 C918 1.391 . S
C920 C921 1.400 . S
C921 C915 1.491 . S
C921 C920 1.400 . S
C921 C922 1.398 . S
C922 H910 0.950 . S
C922 C921 1.398 . S
C922 C923 1.391 . S
C923 H911 0.950 . S
C923 C919 1.393 . S
C923 C922 1.391 . S
H924 C932 0.950 . S
H925 C937 0.950 . S
H926 C934 0.950 . S
H927 C936 0.950 . S
H928 C938 0.950 . S
H929 C940 0.950 . S
H930 C942 0.950 . S
H931 C943 0.950 . S
C932 H924 0.950 . S
C932 C933 1.386 . S
C932 C934 1.391 . S
C933 C932 1.386 . S
C933 C937 1.393 . S
C934 H926 0.950 . S
C934 C932 1.391 . S
C934 C935 1.400 . S
C935 C934 1.400 . S
C935 C936 1.398 . S
C935 C941 1.491 . S
C936 H927 0.950 . S
C936 C935 1.398 . S
C936 C937 1.391 . S
C937 H925 0.950 . S
C937 C933 1.393 . S
C937 C936 1.391 . S
C938 H928 0.950 . S
C938 C939 1.386 . S
C938 C940 1.391 . S
C939 C938 1.386 . S
C939 C943 1.393 . S
C940 H929 0.950 . S
C940 C938 1.391 . S
C940 C941 1.400 . S
C941 C935 1.491 . S
C941 C940 1.400 . S
C941 C942 1.398 . S
C942 H930 0.950 . S
C942 C941 1.398 . S
C942 C943 1.391 . S
C943 H931 0.950 . S
C943 C939 1.393 . S
C943 C942 1.391 . S
H944 C952 0.950 . S
H945 C957 0.950 . S
H946 C954 0.950 . S
H947 C956 0.950 . S
H948 C958 0.950 . S
H949 C960 0.950 . S
H950 C962 0.950 . S
H951 C963 0.950 . S
C952 H944 0.950 . S
C952 C953 1.386 . S
C952 C954 1.391 . S
C953 C952 1.386 . S
C953 C957 1.393 . S
C954 H946 0.950 . S
C954 C952 1.391 . S
C954 C955 1.400 . S
C955 C954 1.400 . S
C955 C956 1.398 . S
C955 C961 1.491 . S
C956 H947 0.950 . S
C956 C955 1.398 . S
C956 C957 1.391 . S
C957 H945 0.950 . S
C957 C953 1.393 . S
C957 C956 1.391 . S
C958 H948 0.950 . S
C958 C959 1.386 . S
C958 C960 1.391 . S
C959 C958 1.386 . S
C959 C963 1.393 . S
C960 H949 0.950 . S
C960 C958 1.391 . S
C960 C961 1.400 . S
C961 C955 1.491 . S
C961 C960 1.400 . S
C961 C962 1.398 . S
C962 H950 0.950 . S
C962 C961 1.398 . S
C962 C963 1.391 . S
C963 H951 0.950 . S
C963 C959 1.393 . S
C963 C962 1.391 . S
H964 C972 0.950 . S
H965 C977 0.950 . S
H966 C974 0.950 . S
H967 C976 0.950 . S
H968 C978 0.950 . S
H969 C980 0.950 . S
H970 C982 0.950 . S
H971 C983 0.950 . S
C972 H964 0.950 . S
C972 C973 1.386 . S
C972 C974 1.391 . S
C973 C972 1.386 . S
C973 C977 1.393 . S
C974 H966 0.950 . S
C974 C972 1.391 . S
C974 C975 1.400 . S
C975 C974 1.400 . S
C975 C976 1.398 . S
C975 C981 1.491 . S
C976 H967 0.950 . S
C976 C975 1.398 . S
C976 C977 1.391 . S
C977 H965 0.950 . S
C977 C973 1.393 . S
C977 C976 1.391 . S
C978 H968 0.950 . S
C978 C979 1.386 . S
C978 C980 1.391 . S
C979 C978 1.386 . S
C979 C983 1.393 . S
C980 H969 0.950 . S
C980 C978 1.391 . S
C980 C981 1.400 . S
C981 C975 1.491 . S
C981 C980 1.400 . S
C981 C982 1.398 . S
C982 H970 0.950 . S
C982 C981 1.398 . S
C982 C983 1.391 . S
C983 H971 0.950 . S
C983 C979 1.393 . S
C983 C982 1.391 . S
H984 C992 0.950 . S
H985 C997 0.950 . S
H986 C994 0.950 . S
H987 C996 0.950 . S
H988 C998 0.950 . S
H989 C1000 0.950 . S
H990 C1002 0.950 . S
H991 C1003 0.950 . S
C992 H984 0.950 . S
C992 C993 1.386 . S
C992 C994 1.391 . S
C993 C992 1.386 . S
C993 C997 1.393 . S
C994 H986 0.950 . S
C994 C992 1.391 . S
C994 C995 1.400 . S
C995 C994 1.400 . S
C995 C996 1.398 . S
C995 C1001 1.491 . S
C996 H987 0.950 . S
C996 C995 1.398 . S
C996 C997 1.391 . S
C997 H985 0.950 . S
C997 C993 1.393 . S
C997 C996 1.391 . S
C998 H988 0.950 . S
C998 C999 1.386 . S
C998 C1000 1.391 . S
C999 C998 1.386 . S
C999 C1003 1.393 . S
C1000 H989 0.950 . S
C1000 C998 1.391 . S
C1000 C1001 1.400 . S
C1001 C995 1.491 . S
C1001 C1000 1.400 . S
C1001 C1002 1.398 . S
C1002 H990 0.950 . S
C1002 C1001 1.398 . S
C1002 C1003 1.391 . S
C1003 H991 0.950 . S
C1003 C999 1.393 . S
C1003 C1002 1.391 . S
H1004 C1012 0.950 . S
H1005 C1017 0.950 . S
H1006 C1014 0.950 . S
H1007 C1016 0.950 . S
H1008 C1018 0.950 . S
H1009 C1020 0.950 . S
H1010 C1022 0.950 . S
H1011 C1023 0.950 . S
C1012 H1004 0.950 . S
C1012 C1013 1.386 . S
C1012 C1014 1.391 . S
C1013 C1012 1.386 . S
C1013 C1017 1.393 . S
C1014 H1006 0.950 . S
C1014 C1012 1.391 . S
C1014 C1015 1.400 . S
C1015 C1014 1.400 . S
C1015 C1016 1.398 . S
C1015 C1021 1.491 . S
C1016 H1007 0.950 . S
C1016 C1015 1.398 . S
C1016 C1017 1.391 . S
C1017 H1005 0.950 . S
C1017 C1013 1.393 . S
C1017 C1016 1.391 . S
C1018 H1008 0.950 . S
C1018 C1019 1.386 . S
C1018 C1020 1.391 . S
C1019 C1018 1.386 . S
C1019 C1023 1.393 . S
C1020 H1009 0.950 . S
C1020 C1018 1.391 . S
C1020 C1021 1.400 . S
C1021 C1015 1.491 . S
C1021 C1020 1.400 . S
C1021 C1022 1.398 . S
C1022 H1010 0.950 . S
C1022 C1021 1.398 . S
C1022 C1023 1.391 . S
C1023 H1011 0.950 . S
C1023 C1019 1.393 . S
C1023 C1022 1.391 . S
H1024 C1032 0.950 . S
H1025 C1037 0.950 . S
H1026 C1034 0.950 . S
H1027 C1036 0.950 . S
H1028 C1038 0.950 . S
H1029 C1040 0.950 . S
H1030 C1042 0.950 . S
H1031 C1043 0.950 . S
C1032 H1024 0.950 . S
C1032 C1033 1.386 . S
C1032 C1034 1.391 . S
C1033 C1032 1.386 . S
C1033 C1037 1.393 . S
C1034 H1026 0.950 . S
C1034 C1032 1.391 . S
C1034 C1035 1.400 . S
C1035 C1034 1.400 . S
C1035 C1036 1.398 . S
C1035 C1041 1.491 . S
C1036 H1027 0.950 . S
C1036 C1035 1.398 . S
C1036 C1037 1.391 . S
C1037 H1025 0.950 . S
C1037 C1033 1.393 . S
C1037 C1036 1.391 . S
C1038 H1028 0.950 . S
C1038 C1039 1.386 . S
C1038 C1040 1.391 . S
C1039 C1038 1.386 . S
C1039 C1043 1.393 . S
C1040 H1029 0.950 . S
C1040 C1038 1.391 . S
C1040 C1041 1.400 . S
C1041 C1035 1.491 . S
C1041 C1040 1.400 . S
C1041 C1042 1.398 . S
C1042 H1030 0.950 . S
C1042 C1041 1.398 . S
C1042 C1043 1.391 . S
C1043 H1031 0.950 . S
C1043 C1039 1.393 . S
C1043 C1042 1.391 . S
H1044 C1052 0.950 . S
H1045 C1057 0.950 . S
H1046 C1054 0.950 . S
H1047 C1056 0.950 . S
H1048 C1058 0.950 . S
H1049 C1060 0.950 . S
H1050 C1062 0.950 . S
H1051 C1063 0.950 . S
C1052 H1044 0.950 . S
C1052 C1053 1.386 . S
C1052 C1054 1.391 . S
C1053 C1052 1.386 . S
C1053 C1057 1.393 . S
C1054 H1046 0.950 . S
C1054 C1052 1.391 . S
C1054 C1055 1.400 . S
C1055 C1054 1.400 . S
C1055 C1056 1.398 . S
C1055 C1061 1.491 . S
C1056 H1047 0.950 . S
C1056 C1055 1.398 . S
C1056 C1057 1.391 . S
C1057 H1045 0.950 . S
C1057 C1053 1.393 . S
C1057 C1056 1.391 . S
C1058 H1048 0.950 . S
C1058 C1059 1.386 . S
C1058 C1060 1.391 . S
C1059 C1058 1.386 . S
C1059 C1063 1.393 . S
C1060 H1049 0.950 . S
C1060 C1058 1.391 . S
C1060 C1061 1.400 . S
C1061 C1055 1.491 . S
C1061 C1060 1.400 . S
C1061 C1062 1.398 . S
C1062 H1050 0.950 . S
C1062 C1061 1.398 . S
C1062 C1063 1.391 . S
C1063 H1051 0.950 . S
C1063 C1059 1.393 . S
C1063 C1062 1.391 . S
H1064 C1072 0.950 . S
H1065 C1077 0.950 . S
H1066 C1074 0.950 . S
H1067 C1076 0.950 . S
H1068 C1078 0.950 . S
H1069 C1080 0.950 . S
H1070 C1082 0.950 . S
H1071 C1083 0.950 . S
C1072 H1064 0.950 . S
C1072 C1073 1.386 . S
C1072 C1074 1.391 . S
C1073 C1072 1.386 . S
C1073 C1077 1.393 . S
C1074 H1066 0.950 . S
C1074 C1072 1.391 . S
C1074 C1075 1.400 . S
C1075 C1074 1.400 . S
C1075 C1076 1.398 . S
C1075 C1081 1.491 . S
C1076 H1067 0.950 . S
C1076 C1075 1.398 . S
C1076 C1077 1.391 . S
C1077 H1065 0.950 . S
C1077 C1073 1.393 . S
C1077 C1076 1.391 . S
C1078 H1068 0.950 . S
C1078 C1079 1.386 . S
C1078 C1080 1.391 . S
C1079 C1078 1.386 . S
C1079 C1083 1.393 . S
C1080 H1069 0.950 . S
C1080 C1078 1.391 . S
C1080 C1081 1.400 . S
C1081 C1075 1.491 . S
C1081 C1080 1.400 . S
C1081 C1082 1.398 . S
C1082 H1070 0.950 . S
C1082 C1081 1.398 . S
C1082 C1083 1.391 . S
C1083 H1071 0.950 . S
C1083 C1079 1.393 . S
C1083 C1082 1.391 . S
H1084 C1092 0.950 . S
H1085 C1097 0.950 . S
H1086 C1094 0.950 . S
H1087 C1096 0.950 . S
H1088 C1098 0.950 . S
H1089 C1100 0.950 . S
H1090 C1102 0.950 . S
H1091 C1103 0.950 . S
C1092 H1084 0.950 . S
C1092 C1093 1.386 . S
C1092 C1094 1.391 . S
C1093 C1092 1.386 . S
C1093 C1097 1.393 . S
C1094 H1086 0.950 . S
C1094 C1092 1.391 . S
C1094 C1095 1.400 . S
C1095 C1094 1.400 . S
C1095 C1096 1.398 . S
C1095 C1101 1.491 . S
C1096 H1087 0.950 . S
C1096 C1095 1.398 . S
C1096 C1097 1.391 . S
C1097 H1085 0.950 . S
C1097 C1093 1.393 . S
C1097 C1096 1.391 . S
C1098 H1088 0.950 . S
C1098 C1099 1.386 . S
C1098 C1100 1.391 . S
C1099 C1098 1.386 . S
C1099 C1103 1.393 . S
C1100 H1089 0.950 . S
C1100 C1098 1.391 . S
C1100 C1101 1.400 . S
C1101 C1095 1.491 . S
C1101 C1100 1.400 . S
C1101 C1102 1.398 . S
C1102 H1090 0.950 . S
C1102 C1101 1.398 . S
C1102 C1103 1.391 . S
C1103 H1091 0.950 . S
C1103 C1099 1.393 . S
C1103 C1102 1.391 . S
H1104 C1112 0.950 . S
H1105 C1117 0.950 . S
H1106 C1114 0.950 . S
H1107 C1116 0.950 . S
H1108 C1118 0.950 . S
H1109 C1120 0.950 . S
H1110 C1122 0.950 . S
H1111 C1123 0.950 . S
C1112 H1104 0.950 . S
C1112 C1113 1.386 . S
C1112 C1114 1.391 . S
C1113 C1112 1.386 . S
C1113 C1117 1.393 . S
C1114 H1106 0.950 . S
C1114 C1112 1.391 . S
C1114 C1115 1.400 . S
C1115 C1114 1.400 . S
C1115 C1116 1.398 . S
C1115 C1121 1.491 . S
C1116 H1107 0.950 . S
C1116 C1115 1.398 . S
C1116 C1117 1.391 . S
C1117 H1105 0.950 . S
C1117 C1113 1.393 . S
C1117 C1116 1.391 . S
C1118 H1108 0.950 . S
C1118 C1119 1.386 . S
C1118 C1120 1.391 . S
C1119 C1118 1.386 . S
C1119 C1123 1.393 . S
C1120 H1109 0.950 . S
C1120 C1118 1.391 . S
C1120 C1121 1.400 . S
C1121 C1115 1.491 . S
C1121 C1120 1.400 . S
C1121 C1122 1.398 . S
C1122 H1110 0.950 . S
C1122 C1121 1.398 . S
C1122 C1123 1.391 . S
C1123 H1111 0.950 . S
C1123 C1119 1.393 . S
C1123 C1122 1.391 . S
H1124 C1132 0.950 . S
H1125 C1137 0.950 . S
H1126 C1134 0.950 . S
H1127 C1136 0.950 . S
H1128 C1138 0.950 . S
H1129 C1140 0.950 . S
H1130 C1142 0.950 . S
H1131 C1143 0.950 . S
C1132 H1124 0.950 . S
C1132 C1133 1.386 . S
C1132 C1134 1.391 . S
C1133 C1132 1.386 . S
C1133 C1137 1.393 . S
C1134 H1126 0.950 . S
C1134 C1132 1.391 . S
C1134 C1135 1.400 . S
C1135 C1134 1.400 . S
C1135 C1136 1.398 . S
C1135 C1141 1.491 . S
C1136 H1127 0.950 . S
C1136 C1135 1.398 . S
C1136 C1137 1.391 . S
C1137 H1125 0.950 . S
C1137 C1133 1.393 . S
C1137 C1136 1.391 . S
C1138 H1128 0.950 . S
C1138 C1139 1.386 . S
C1138 C1140 1.391 . S
C1139 C1138 1.386 . S
C1139 C1143 1.393 . S
C1140 H1129 0.950 . S
C1140 C1138 1.391 . S
C1140 C1141 1.400 . S
C1141 C1135 1.491 . S
C1141 C1140 1.400 . S
C1141 C1142 1.398 . S
C1142 H1130 0.950 . S
C1142 C1141 1.398 . S
C1142 C1143 1.391 . S
C1143 H1131 0.950 . S
C1143 C1139 1.393 . S
C1143 C1142 1.391 . S
H1144 C1152 0.950 . S
H1145 C1157 0.950 . S
H1146 C1154 0.950 . S
H1147 C1156 0.950 . S
H1148 C1158 0.950 . S
H1149 C1160 0.950 . S
H1150 C1162 0.950 . S
H1151 C1163 0.950 . S
C1152 H1144 0.950 . S
C1152 C1153 1.386 . S
C1152 C1154 1.391 . S
C1153 C1152 1.386 . S
C1153 C1157 1.393 . S
C1154 H1146 0.950 . S
C1154 C1152 1.391 . S
C1154 C1155 1.400 . S
C1155 C1154 1.400 . S
C1155 C1156 1.398 . S
C1155 C1161 1.491 . S
C1156 H1147 0.950 . S
C1156 C1155 1.398 . S
C1156 C1157 1.391 . S
C1157 H1145 0.950 . S
C1157 C1153 1.393 . S
C1157 C1156 1.391 . S
C1158 H1148 0.950 . S
C1158 C1159 1.386 . S
C1158 C1160 1.391 . S
C1159 C1158 1.386 . S
C1159 C1163 1.393 . S
C1160 H1149 0.950 . S
C1160 C1158 1.391 . S
C1160 C1161 1.400 . S
C1161 C1155 1.491 . S
C1161 C1160 1.400 . S
C1161 C1162 1.398 . S
C1162 H1150 0.950 . S
C1162 C1161 1.398 . S
C1162 C1163 1.391 . S
C1163 H1151 0.950 . S
C1163 C1159 1.393 . S
C1163 C1162 1.391 . S
H1164 C1172 0.950 . S
H1165 C1177 0.950 . S
H1166 C1174 0.950 . S
H1167 C1176 0.950 . S
H1168 C1178 0.950 . S
H1169 C1180 0.950 . S
H1170 C1182 0.950 . S
H1171 C1183 0.950 . S
C1172 H1164 0.950 . S
C1172 C1173 1.386 . S
C1172 C1174 1.391 . S
C1173 C1172 1.386 . S
C1173 C1177 1.393 . S
C1174 H1166 0.950 . S
C1174 C1172 1.391 . S
C1174 C1175 1.400 . S
C1175 C1174 1.400 . S
C1175 C1176 1.398 . S
C1175 C1181 1.491 . S
C1176 H1167 0.950 . S
C1176 C1175 1.398 . S
C1176 C1177 1.391 . S
C1177 H1165 0.950 . S
C1177 C1173 1.393 . S
C1177 C1176 1.391 . S
C1178 H1168 0.950 . S
C1178 C1179 1.386 . S
C1178 C1180 1.391 . S
C1179 C1178 1.386 . S
C1179 C1183 1.393 . S
C1180 H1169 0.950 . S
C1180 C1178 1.391 . S
C1180 C1181 1.400 . S
C1181 C1175 1.491 . S
C1181 C1180 1.400 . S
C1181 C1182 1.398 . S
C1182 H1170 0.950 . S
C1182 C1181 1.398 . S
C1182 C1183 1.391 . S
C1183 H1171 0.950 . S
C1183 C1179 1.393 . S
C1183 C1182 1.391 . S
H1184 C1192 0.950 . S
H1185 C1197 0.950 1_556 S
H1186 C1194 0.950 . S
H1187 C1196 0.950 . S
H1188 C1198 0.950 . S
H1189 C1200 0.950 . S
H1190 C1202 0.950 . S
H1191 C1203 0.950 1_554 S
C1192 H1184 0.950 . S
C1192 C1193 1.386 1_565 S
C1192 C1194 1.391 . S
C1193 C1192 1.386 1_545 S
C1193 C1197 1.393 . S
C1194 H1186 0.950 . S
C1194 C1192 1.391 . S
C1194 C1195 1.400 1_565 S
C1195 C1194 1.400 1_545 S
C1195 C1196 1.398 1_554 S
C1195 C1201 1.491 1_544 S
C1196 H1187 0.950 . S
C1196 C1195 1.398 1_556 S
C1196 C1197 1.391 1_556 S
C1197 H1185 0.950 1_554 S
C1197 C1193 1.393 . S
C1197 C1196 1.391 1_554 S
C1198 H1188 0.950 . S
C1198 C1199 1.386 1_545 S
C1198 C1200 1.391 . S
C1199 C1198 1.386 1_565 S
C1199 C1203 1.393 . S
C1200 H1189 0.950 . S
C1200 C1198 1.391 . S
C1200 C1201 1.400 1_545 S
C1201 C1195 1.491 1_566 S
C1201 C1200 1.400 1_565 S
C1201 C1202 1.398 1_556 S
C1202 H1190 0.950 . S
C1202 C1201 1.398 1_554 S
C1202 C1203 1.391 1_554 S
C1203 H1191 0.950 1_556 S
C1203 C1199 1.393 . S
C1203 C1202 1.391 1_556 S
H1204 C1212 0.950 . S
H1205 C1217 0.950 . S
H1206 C1214 0.950 . S
H1207 C1216 0.950 . S
H1208 C1218 0.950 . S
H1209 C1220 0.950 . S
H1210 C1222 0.950 . S
H1211 C1223 0.950 . S
C1212 H1204 0.950 . S
C1212 C1213 1.386 . S
C1212 C1214 1.391 . S
C1213 C1212 1.386 . S
C1213 C1217 1.393 1_556 S
C1214 H1206 0.950 . S
C1214 C1212 1.391 . S
C1214 C1215 1.400 . S
C1215 C1214 1.400 . S
C1215 C1216 1.398 1_556 S
C1215 C1221 1.491 1_556 S
C1216 H1207 0.950 . S
C1216 C1215 1.398 1_554 S
C1216 C1217 1.391 . S
C1217 H1205 0.950 . S
C1217 C1213 1.393 1_554 S
C1217 C1216 1.391 . S
C1218 H1208 0.950 . S
C1218 C1219 1.386 . S
C1218 C1220 1.391 . S
C1219 C1218 1.386 . S
C1219 C1223 1.393 1_554 S
C1220 H1209 0.950 . S
C1220 C1218 1.391 . S
C1220 C1221 1.400 . S
C1221 C1215 1.491 1_554 S
C1221 C1220 1.400 . S
C1221 C1222 1.398 1_554 S
C1222 H1210 0.950 . S
C1222 C1221 1.398 1_556 S
C1222 C1223 1.391 . S
C1223 H1211 0.950 . S
C1223 C1219 1.393 1_556 S
C1223 C1222 1.391 . S
H1224 C1232 0.950 . S
H1225 C1237 0.950 . S
H1226 C1234 0.950 . S
H1227 C1236 0.950 . S
H1228 C1238 0.950 . S
H1229 C1240 0.950 . S
H1230 C1242 0.950 . S
H1231 C1243 0.950 . S
C1232 H1224 0.950 . S
C1232 C1233 1.386 1_554 S
C1232 C1234 1.391 . S
C1233 C1232 1.386 1_556 S
C1233 C1237 1.393 . S
C1234 H1226 0.950 . S
C1234 C1232 1.391 . S
C1234 C1235 1.400 1_554 S
C1235 C1234 1.400 1_556 S
C1235 C1236 1.398 . S
C1235 C1241 1.491 1_456 S
C1236 H1227 0.950 . S
C1236 C1235 1.398 . S
C1236 C1237 1.391 . S
C1237 H1225 0.950 . S
C1237 C1233 1.393 . S
C1237 C1236 1.391 . S
C1238 H1228 0.950 . S
C1238 C1239 1.386 1_556 S
C1238 C1240 1.391 . S
C1239 C1238 1.386 1_554 S
C1239 C1243 1.393 . S
C1240 H1229 0.950 . S
C1240 C1238 1.391 . S
C1240 C1241 1.400 1_556 S
C1241 C1235 1.491 1_654 S
C1241 C1240 1.400 1_554 S
C1241 C1242 1.398 . S
C1242 H1230 0.950 . S
C1242 C1241 1.398 . S
C1242 C1243 1.391 . S
C1243 H1231 0.950 . S
C1243 C1239 1.393 . S
C1243 C1242 1.391 . S
H1244 C1252 0.931 1_655 S
H1245 C1257 0.950 . S
H1246 C1254 0.950 . S
H1247 C1256 0.950 . S
H1248 C1258 0.931 1_455 S
H1249 C1260 0.950 . S
H1250 C1262 0.950 . S
H1251 C1263 0.950 . S
C1252 H1244 0.931 1_455 S
C1252 C1253 1.418 . S
C1252 C1254 1.379 1_455 S
C1253 C1252 1.418 . S
C1253 C1257 1.393 1_554 S
C1254 H1246 0.950 . S
C1254 C1252 1.379 1_655 S
C1254 C1255 1.400 1_655 S
C1255 C1254 1.400 1_455 S
C1255 C1256 1.398 1_554 S
C1255 C1261 1.491 1_464 S
C1256 H1247 0.950 . S
C1256 C1255 1.398 1_556 S
C1256 C1257 1.391 . S
C1257 H1245 0.950 . S
C1257 C1253 1.393 1_556 S
C1257 C1256 1.391 . S
C1258 H1248 0.931 1_655 S
C1258 C1259 1.418 . S
C1258 C1260 1.379 1_655 S
C1259 C1258 1.418 . S
C1259 C1263 1.393 1_556 S
C1260 H1249 0.950 . S
C1260 C1258 1.379 1_455 S
C1260 C1261 1.400 1_455 S
C1261 C1255 1.491 1_646 S
C1261 C1260 1.400 1_655 S
C1261 C1262 1.398 1_556 S
C1262 H1250 0.950 . S
C1262 C1261 1.398 1_554 S
C1262 C1263 1.391 . S
C1263 H1251 0.950 . S
C1263 C1259 1.393 1_554 S
C1263 C1262 1.391 . S
H1264 C1272 0.950 . S
H1265 C1277 0.950 . S
H1266 C1274 0.950 . S
H1267 C1276 0.950 . S
H1268 C1278 0.950 . S
H1269 C1280 0.950 . S
H1270 C1282 0.950 . S
H1271 C1283 0.950 . S
C1272 H1264 0.950 . S
C1272 C1273 1.386 . S
C1272 C1274 1.391 . S
C1273 C1272 1.386 . S
C1273 C1277 1.393 . S
C1274 H1266 0.950 . S
C1274 C1272 1.391 . S
C1274 C1275 1.400 . S
C1275 C1274 1.400 . S
C1275 C1276 1.398 . S
C1275 C1281 1.491 . S
C1276 H1267 0.950 . S
C1276 C1275 1.398 . S
C1276 C1277 1.391 . S
C1277 H1265 0.950 . S
C1277 C1273 1.393 . S
C1277 C1276 1.391 . S
C1278 H1268 0.950 . S
C1278 C1279 1.386 . S
C1278 C1280 1.391 . S
C1279 C1278 1.386 . S
C1279 C1283 1.393 . S
C1280 H1269 0.950 . S
C1280 C1278 1.391 . S
C1280 C1281 1.400 . S
C1281 C1275 1.491 . S
C1281 C1280 1.400 . S
C1281 C1282 1.398 . S
C1282 H1270 0.950 . S
C1282 C1281 1.398 . S
C1282 C1283 1.391 . S
C1283 H1271 0.950 . S
C1283 C1279 1.393 . S
C1283 C1282 1.391 . S
H1284 C1292 0.950 . S
H1285 C1297 0.950 1_655 S
H1286 C1294 0.950 . S
H1287 C1296 0.950 . S
H1288 C1298 0.950 . S
H1289 C1300 0.950 . S
H1290 C1302 0.950 . S
H1291 C1303 0.950 1_455 S
C1292 H1284 0.950 . S
C1292 C1293 1.386 . S
C1292 C1294 1.391 . S
C1293 C1292 1.386 . S
C1293 C1297 1.393 . S
C1294 H1286 0.950 . S
C1294 C1292 1.391 . S
C1294 C1295 1.400 . S
C1295 C1294 1.400 . S
C1295 C1296 1.398 1_455 S
C1295 C1301 1.491 1_455 S
C1296 H1287 0.950 . S
C1296 C1295 1.398 1_655 S
C1296 C1297 1.391 1_655 S
C1297 H1285 0.950 1_455 S
C1297 C1293 1.393 . S
C1297 C1296 1.391 1_455 S
C1298 H1288 0.950 . S
C1298 C1299 1.386 . S
C1298 C1300 1.391 . S
C1299 C1298 1.386 . S
C1299 C1303 1.393 . S
C1300 H1289 0.950 . S
C1300 C1298 1.391 . S
C1300 C1301 1.400 . S
C1301 C1295 1.491 1_655 S
C1301 C1300 1.400 . S
C1301 C1302 1.398 1_655 S
C1302 H1290 0.950 . S
C1302 C1301 1.398 1_455 S
C1302 C1303 1.391 1_455 S
C1303 H1291 0.950 1_655 S
C1303 C1299 1.393 . S
C1303 C1302 1.391 1_655 S
H1304 C1312 0.950 . S
H1305 C1317 0.950 . S
H1306 C1314 0.950 . S
H1307 C1316 0.950 . S
H1308 C1318 0.950 . S
H1309 C1320 0.950 . S
H1310 C1322 0.950 . S
H1311 C1323 0.950 . S
C1312 H1304 0.950 . S
C1312 C1313 1.386 . S
C1312 C1314 1.391 . S
C1313 C1312 1.386 . S
C1313 C1317 1.393 1_565 S
C1314 H1306 0.950 . S
C1314 C1312 1.391 . S
C1314 C1315 1.400 . S
C1315 C1314 1.400 . S
C1315 C1316 1.398 1_565 S
C1315 C1321 1.491 1_465 S
C1316 H1307 0.950 . S
C1316 C1315 1.398 1_545 S
C1316 C1317 1.391 . S
C1317 H1305 0.950 . S
C1317 C1313 1.393 1_545 S
C1317 C1316 1.391 . S
C1318 H1308 0.950 . S
C1318 C1319 1.386 . S
C1318 C1320 1.391 . S
C1319 C1318 1.386 . S
C1319 C1323 1.393 1_545 S
C1320 H1309 0.950 . S
C1320 C1318 1.391 . S
C1320 C1321 1.400 . S
C1321 C1315 1.491 1_645 S
C1321 C1320 1.400 . S
C1321 C1322 1.398 1_545 S
C1322 H1310 0.950 . S
C1322 C1321 1.398 1_565 S
C1322 C1323 1.391 . S
C1323 H1311 0.950 . S
C1323 C1319 1.393 1_565 S
C1323 C1322 1.391 . S
H1324 C1332 0.950 . S
H1325 C1337 0.950 . S
H1326 C1334 0.950 . S
H1327 C1336 0.950 . S
H1328 C1338 0.950 . S
H1329 C1340 0.950 . S
H1330 C1342 0.950 . S
H1331 C1343 0.950 . S
C1332 H1324 0.950 . S
C1332 C1333 1.386 . S
C1332 C1334 1.391 . S
C1333 C1332 1.386 . S
C1333 C1337 1.393 . S
C1334 H1326 0.950 . S
C1334 C1332 1.391 . S
C1334 C1335 1.400 . S
C1335 C1334 1.400 . S
C1335 C1336 1.398 . S
C1335 C1341 1.491 1_565 S
C1336 H1327 0.950 . S
C1336 C1335 1.398 . S
C1336 C1337 1.391 . S
C1337 H1325 0.950 . S
C1337 C1333 1.393 . S
C1337 C1336 1.391 . S
C1338 H1328 0.950 . S
C1338 C1339 1.386 . S
C1338 C1340 1.391 . S
C1339 C1338 1.386 . S
C1339 C1343 1.393 . S
C1340 H1329 0.950 . S
C1340 C1338 1.391 . S
C1340 C1341 1.400 . S
C1341 C1335 1.491 1_545 S
C1341 C1340 1.400 . S
C1341 C1342 1.398 . S
C1342 H1330 0.950 . S
C1342 C1341 1.398 . S
C1342 C1343 1.391 . S
C1343 H1331 0.950 . S
C1343 C1339 1.393 . S
C1343 C1342 1.391 . S
C553 C5 0.747 . S
C559 C243 0.759 . S
C573 C141 0.736 . S
C579 C39 0.720 . S
C593 C73 0.709 . S
C599 C175 0.719 . S
C613 C107 0.712 . S
C619 C209 0.725 . S
C633 C277 0.710 . S
C639 C515 0.720 . S
C653 C413 0.759 . S
C659 C311 0.747 . S
C673 C447 0.709 . S
C679 C345 0.710 . S
C693 C481 0.756 . S
C699 C379 0.741 . S
C713 C206 1.327 . S
C719 C2 1.322 . S
C733 C36 1.303 . S
C739 C240 1.306 . S
C753 C70 1.304 . S
C759 C138 1.308 . S
C773 C172 1.301 . S
C779 C104 1.304 . S
C793 C478 1.333 . S
C799 C274 1.336 . S
C813 C512 1.338 . S
C819 C308 1.340 . S
C833 C342 1.340 . S
C839 C410 1.339 . S
C853 C376 1.298 . S
C859 C444 1.299 . S
C873 C9 1.284 . S
C879 C543 1.455 . S
C893 C43 1.273 . S
C899 C441 1.459 . S
C913 C77 1.309 . S
C919 C475 1.449 . S
C933 C509 1.463 . S
C939 C111 1.293 . S
C953 C339 1.453 . S
C959 C145 1.288 . S
C973 C373 1.456 . S
C979 C179 1.279 . S
C993 C213 1.269 . S
C999 C407 1.463 . S
C1013 C247 1.269 . S
C1019 C305 1.463 . S
C1033 C271 1.452 . S
C1039 C281 1.317 . S
C1053 C169 1.451 . S
C1059 C315 1.296 . S
C1073 C349 1.269 . S
C1079 C203 1.464 . S
C1093 C237 1.456 . S
C1099 C383 1.279 . S
C1113 C67 1.461 . S
C1119 C417 1.298 . S
C1133 C101 1.451 . S
C1139 C451 1.317 . S
C1153 C135 1.464 . S
C1159 C485 1.286 . S
C1173 C33 1.463 . S
C1179 C519 1.291 . S
C1193 C20 1.178 . S
C1199 C292 1.178 . S
C1213 C326 1.187 . S
C1219 C54 1.187 . S
C1233 C360 1.190 . S
C1239 C88 1.190 . S
C1253 C122 1.181 . S
C1259 C394 1.181 . S
C1273 C428 1.182 . S
C1279 C156 1.182 . S
C1293 C190 1.198 . S
C1299 C462 1.198 . S
C1313 C496 1.177 . S
C1319 C224 1.177 . S
C1333 C258 1.182 . S
C1339 C530 1.182 . S
