# Generated by pormake.
# Topology sxc, (6)-cn, num edge types: 1
# Building blocks:
#     Node 0, Type 0, BuildingBlock: KUMBUR_clean_sbu_1, # of connection points: 6
#     Node 1, Type 0, BuildingBlock: KUMBUR_clean_sbu_1, # of connection points: 6
#     Node 2, Type 0, BuildingBlock: KUMBUR_clean_sbu_1, # of connection points: 6
#     Edge 3, Type (0, 0), BuildingBlock: FUNLAD_clean_linker_0, # of connection points: 2
#     Edge 4, Type (0, 0), BuildingBlock: FUNLAD_clean_linker_0, # of connection points: 2
#     Edge 5, Type (0, 0), BuildingBlock: FUNLAD_clean_linker_0, # of connection points: 2
#     Edge 6, Type (0, 0), BuildingBlock: FUNLAD_clean_linker_0, # of connection points: 2
#     Edge 7, Type (0, 0), BuildingBlock: FUNLAD_clean_linker_0, # of connection points: 2
#     Edge 8, Type (0, 0), BuildingBlock: FUNLAD_clean_linker_0, # of connection points: 2
#     Edge 9, Type (0, 0), BuildingBlock: FUNLAD_clean_linker_0, # of connection points: 2
#     Edge 10, Type (0, 0), BuildingBlock: FUNLAD_clean_linker_0, # of connection points: 2
#     Edge 11, Type (0, 0), BuildingBlock: FUNLAD_clean_linker_0, # of connection points: 2
# Relax obj value: 0.209
# Max RMSD: 0.152
# Mean RMSD: 0.110
data_MOF--net-sxc--node1-KUMBUR_clean_sbu_1--edge1-FUNLAD_clean_linker_0
_symmetry_space_group_name_H-M    P1
_symmetry_Int_Tables_number       1
_symmetry_cell_setting            triclinic
loop_
_symmetry_equiv_pos_as_xyz
'x, y, z'
_cell_length_a     18.434369
_cell_length_b     20.357984
_cell_length_c     52.030103
_cell_angle_alpha  109.24519
_cell_angle_beta   97.099199
_cell_angle_gamma 102.53938
loop_
_atom_site_label
_atom_site_type_symbol
_atom_site_fract_x
_atom_site_fract_y
_atom_site_fract_z
_atom_type_partial_charge
Tb0 Tb 0.95036 0.11847 0.99426 0.0
C1 C 0.26948 0.09592 0.02452 0.0
N2 N 0.21759 0.12089 0.03862 0.0
C3 C 0.25094 0.07122 0.07284 0.0
C4 C 0.31162 0.05434 0.03337 0.0
C5 C 0.21047 0.11225 0.06325 0.0
C6 C 0.30117 1.0415 0.05769 0.0
C7 C 0.33494 0.08906 0.9865 0.0
C8 C 0.28099 0.11342 0.00145 0.0
C9 C 0.37472 1.04491 0.99449 0.0
C10 C 0.36331 1.02783 0.01793 0.0
Tb11 Tb 0.15992 0.1925 0.02269 0.0
N12 N 0.24315 0.15814 0.99485 0.0
C13 C 0.34944 0.11198 0.96463 0.0
C14 C 0.26211 0.18526 0.97498 0.0
C15 C 0.3137 0.16114 0.95914 0.0
H16 H 0.17273 0.1362 0.07521 0.0
H17 H 0.32715 0.18178 0.9431 0.0
H18 H 0.94579 0.17207 0.9408 0.0
H19 H 0.77611 0.13926 0.07199 0.0
H20 H 0.2393 0.22695 0.97155 0.0
H21 H 0.39036 0.09438 0.95261 0.0
H22 H 0.86485 0.09018 0.04497 0.0
H23 H 0.24377 0.06295 0.09198 0.0
H24 H 0.41599 1.02535 0.98313 0.0
H25 H 0.39568 0.99512 0.02422 0.0
H26 H 0.87963 0.24547 0.92226 0.0
H27 H 0.33249 1.00979 0.06518 0.0
H28 H 0.71606 0.22592 0.06021 0.0
N29 N 0.89697 0.18982 0.97654 0.0
C30 C 0.84372 0.21596 0.98948 0.0
C31 C 0.86965 0.23825 0.94135 0.0
C32 C 0.8039 0.25745 0.97949 0.0
C33 C 0.90769 0.19733 0.95201 0.0
C34 C 0.8181 0.26907 0.95529 0.0
N35 N 0.86574 0.15672 0.02071 0.0
C36 C 0.84424 0.13208 0.04088 0.0
C37 C 0.77472 0.22711 0.02673 0.0
C38 C 0.82945 0.20076 0.01278 0.0
C39 C 0.75768 0.20678 0.04895 0.0
C40 C 0.79173 0.15816 0.05575 0.0
H41 H 0.78872 0.30074 0.94697 0.0
H42 H 0.72057 0.31828 0.98669 0.0
H43 H 0.69501 0.29177 0.02806 0.0
O44 O 0.83999 1.04826 0.98285 0.0
O45 O 0.99395 0.2469 0.00469 0.0
O46 O 0.12452 0.28649 0.01295 0.0
O47 O 0.90944 1.04754 0.95257 0.0
O48 O 0.98668 0.11161 0.03476 0.0
O49 O 0.0812 0.21398 0.05058 0.0
O50 O 0.27001 0.26363 0.03458 0.0
O51 O 0.11691 0.0644 0.01274 0.0
O52 O 0.98615 1.02494 0.00431 0.0
O53 O 0.19944 0.26308 0.06443 0.0
O54 O 0.1195 0.19821 0.98239 0.0
O55 O 1.02991 0.09304 0.96701 0.0
C56 C 0.05742 0.30257 0.00928 0.0
C57 C 0.83226 0.9345 0.94929 0.0
C58 C 0.76594 0.82243 0.95376 0.0
C59 C 0.8085 0.78516 0.9366 0.0
C60 C 0.87361 0.89606 0.93183 0.0
C61 C 0.86159 0.82183 0.92556 0.0
C62 C 0.77774 0.89692 0.95978 0.0
C63 C 1.03527 0.16367 0.05568 0.0
C64 C 0.84797 1.01394 0.95789 0.0
C65 C 0.75121 0.28565 0.99387 0.0
C66 C 0.73686 0.27074 0.01749 0.0
C67 C 0.05328 1.00891 0.00816 0.0
C68 C 0.2758 0.37687 0.06818 0.0
C69 C 0.34169 0.48995 0.06434 0.0
C70 C 0.29819 0.52626 0.08133 0.0
C71 C 0.23351 0.41439 0.08549 0.0
C72 C 0.33051 0.41541 0.05806 0.0
C73 C 0.24482 0.48862 0.09198 0.0
C74 C 0.07578 0.14249 0.96156 0.0
C75 C 0.26101 0.29746 0.05944 0.0
H76 H 0.80028 0.72765 0.93157 0.0
H77 H 0.91592 0.92333 0.92331 0.0
H78 H 0.89399 0.79273 0.91227 0.0
H79 H 0.74613 0.92622 0.97347 0.0
H80 H 0.3059 0.58377 0.08655 0.0
H81 H 0.19101 0.3864 0.09374 0.0
H82 H 0.36284 0.38683 0.0445 0.0
H83 H 0.21169 0.51698 0.10515 0.0
Tb84 Tb 0.0633 0.06842 0.32856 0.0
C85 C 0.27928 0.37014 0.37998 0.0
N86 N 0.23647 0.3186 0.3874 0.0
C87 C 0.34196 0.33439 0.42289 0.0
C88 C 0.35651 0.4034 0.39296 0.0
C89 C 0.26553 0.30277 0.40936 0.0
C90 C 0.38788 0.38431 0.41446 0.0
C91 C 0.28828 0.44048 0.35025 0.0
C92 C 0.24549 0.38831 0.35884 0.0
C93 C 0.3657 0.4729 0.36281 0.0
C94 C 0.39969 0.45446 0.38411 0.0
Tb95 Tb 0.11248 0.27324 0.36433 0.0
N96 N 0.17024 0.35628 0.34728 0.0
C97 C 0.25171 0.4592 0.32957 0.0
C98 C 0.13371 0.37614 0.32774 0.0
C99 C 0.17402 0.42728 0.31843 0.0
H100 H 0.23021 0.26563 0.4164 0.0
H101 H 0.14498 0.4426 0.30287 0.0
H102 H 0.95438 0.08448 0.27607 0.0
H103 H 1.00614 0.90309 0.39065 0.0
H104 H 0.07315 0.35381 0.31967 0.0
H105 H 0.28261 0.49911 0.32241 0.0
H106 H 0.08734 0.98795 0.37463 0.0
H107 H 0.3653 0.32056 0.43991 0.0
H108 H 0.3996 0.51287 0.35639 0.0
H109 H 0.4593 0.48032 0.39372 0.0
H110 H 0.82012 1.03718 0.25158 0.0
H111 H 0.44708 0.40857 0.42495 0.0
H112 H 0.86914 0.85183 0.36897 0.0
N113 N 0.94037 1.03033 0.30449 0.0
C114 C 0.89291 0.97997 0.31117 0.0
C115 C 0.8397 1.0213 0.26852 0.0
C116 C 0.81575 0.95086 0.29752 0.0
C117 C 0.91578 1.0489 0.28271 0.0
C118 C 0.78927 0.97263 0.27613 0.0
N119 N 0.99636 0.98903 0.34531 0.0
C120 C 1.02718 0.96836 0.36567 0.0
C121 C 0.87338 0.90986 0.34075 0.0
C122 C 0.92148 0.95982 0.33259 0.0
C123 C 0.90424 0.89011 0.36212 0.0
C124 C 0.98151 0.91916 0.37449 0.0
H125 H 0.73033 0.95157 0.26514 0.0
H126 H 0.70803 0.87871 0.29558 0.0
H127 H 0.75843 0.84276 0.33335 0.0
O128 O 0.07073 0.9618 0.31495 0.0
O129 O 0.96918 0.11576 0.3446 0.0
O130 O 0.99045 0.22938 0.34297 0.0
O131 O 0.08726 1.02439 0.28884 0.0
O132 O 0.12582 0.10579 0.37171 0.0
O133 O 0.08261 0.20504 0.38875 0.0
O134 O 0.1069 0.38004 0.38099 0.0
O135 O 0.21061 0.22902 0.35085 0.0
O136 O 0.1871 0.11054 0.34793 0.0
O137 O 0.07558 0.30706 0.40218 0.0
O138 O 0.05356 0.23318 0.32057 0.0
O139 O 0.1019 0.1371 0.30522 0.0
C140 C 0.94342 0.17184 0.34422 0.0
C141 C 0.15978 0.94022 0.2874 0.0
C142 C 0.22533 0.8497 0.28911 0.0
C143 C 0.29356 0.89546 0.28857 0.0
C144 C 0.22786 0.98562 0.28641 0.0
C145 C 0.29421 0.96254 0.28651 0.0
C146 C 0.15859 0.87166 0.28753 0.0
C147 C 0.10981 0.15375 0.39253 0.0
C148 C 0.09166 0.96478 0.29234 0.0
C149 C 0.76759 0.90146 0.30575 0.0
C150 C 0.7963 0.88106 0.3273 0.0
C151 C 0.23488 0.17075 0.34893 0.0
C152 C 1.00629 0.3939 0.40359 0.0
C153 C 0.93875 0.47933 0.39699 0.0
C154 C 0.8707 0.43482 0.39828 0.0
C155 C 0.93837 0.3501 0.4055 0.0
C156 C 1.00631 0.45967 0.40073 0.0
C157 C 0.87112 0.37135 0.40332 0.0
C158 C 0.07623 0.18841 0.30083 0.0
C159 C 0.07593 0.37005 0.40099 0.0
H160 H 0.34616 0.88025 0.29051 0.0
H161 H 0.23051 1.03944 0.28657 0.0
H162 H 0.34695 0.9981 0.28629 0.0
H163 H 0.10638 0.83791 0.28923 0.0
H164 H 0.81754 0.4482 0.39476 0.0
H165 H 0.93655 0.29872 0.4077 0.0
H166 H 0.0585 0.49263 0.39868 0.0
H167 H 0.81858 0.33685 0.40423 0.0
Tb168 Tb 0.14919 0.206 0.69665 0.0
C169 C 0.199 0.91902 0.63961 0.0
N170 N 0.16265 0.95717 0.62809 0.0
C171 C 0.22596 0.92982 0.58979 0.0
C172 C 0.25439 0.88889 0.62758 0.0
C173 C 0.1725 0.95998 0.60275 0.0
C174 C 0.26827 0.89548 0.60256 0.0
C175 C 0.21222 0.86561 0.67458 0.0
C176 C 0.17772 0.90741 0.66273 0.0
C177 C 0.27118 0.83968 0.66387 0.0
C178 C 0.292 0.85103 0.64034 0.0
Tb179 Tb 0.0733 1.00027 0.65003 0.0
N180 N 0.11877 0.93135 0.67196 0.0
C181 C 0.18385 0.84789 0.69586 0.0
C182 C 0.08577 0.90697 0.69052 0.0
C183 C 0.11926 0.86727 0.70341 0.0
H184 H 0.14074 0.98758 0.59307 0.0
H185 H 0.09424 0.85036 0.71875 0.0
H186 H 0.19025 0.21576 0.76252 0.0
H187 H 0.97609 0.33097 0.64721 0.0
H188 H 1.03311 0.9173 0.69545 0.0
H189 H 0.20883 0.81602 0.70553 0.0
H190 H 0.06458 0.25667 0.64933 0.0
H191 H 0.23509 0.93378 0.57013 0.0
H192 H 0.29887 0.80821 0.67292 0.0
H193 H 0.33555 0.82837 0.63167 0.0
H194 H 0.147 0.26641 0.80596 0.0
H195 H 0.31007 0.87268 0.59258 0.0
H196 H 0.92814 0.38829 0.68903 0.0
N197 N 0.11607 0.25121 0.7386 0.0
C198 C 0.06693 0.29257 0.73926 0.0
C199 C 0.12347 0.27359 0.78727 0.0
C200 C 1.04265 0.32469 0.76388 0.0
C201 C 0.14665 0.2436 0.76242 0.0
C202 C 0.07074 0.31379 0.78796 0.0
N203 N 0.06396 0.26919 0.69152 0.0
C204 C 1.04317 0.28051 0.66755 0.0
C205 C 0.99112 0.34638 0.71491 0.0
C206 C 1.04151 0.30345 0.71514 0.0
C207 C 0.96686 0.35565 0.69007 0.0
C208 C 0.99351 0.32306 0.66637 0.0
H209 H 0.05328 0.33734 0.80729 0.0
H210 H 0.97236 0.39205 0.78246 0.0
H211 H 0.92727 0.41101 0.73959 0.0
O212 O 0.21951 0.28114 0.68448 0.0
O213 O 1.01977 0.16361 0.68542 0.0
O214 O 0.97508 1.03795 0.66449 0.0
O215 O 0.22741 0.29678 0.72784 0.0
O216 O 0.15574 0.17722 0.65228 0.0
O217 O 0.05132 0.0815 0.63383 0.0
O218 O 1.00016 0.8942 0.63397 0.0
O219 O 0.19577 0.06013 0.65339 0.0
O220 O 0.23541 0.1443 0.69753 0.0
O221 O 1.01431 0.95816 0.60849 0.0
O222 O 0.0554 1.0331 0.69323 0.0
O223 O 0.16292 0.1258 0.71491 0.0
C224 C 0.9627 0.10254 0.67534 0.0
C225 C 0.34044 0.33484 0.71356 0.0
C226 C 0.45521 0.39567 0.70307 0.0
C227 C 0.49752 0.36166 0.71624 0.0
C228 C 0.38315 0.30179 0.72709 0.0
C229 C 0.4615 0.3153 0.72839 0.0
C230 C 0.37677 0.38177 0.70182 0.0
C231 C 0.10432 0.13011 0.63056 0.0
C232 C 0.25755 0.31886 0.70987 0.0
C233 C 0.99184 0.36709 0.76375 0.0
C234 C 0.96628 0.37804 0.73935 0.0
C235 C 0.25189 0.1005 0.67532 0.0
C236 C 0.89295 0.87839 0.60005 0.0
C237 C 0.76868 0.79653 0.59363 0.0
C238 C 0.73421 0.83841 0.58207 0.0
C239 C 0.85778 0.91944 0.5881 0.0
C240 C 0.84803 0.81653 0.60232 0.0
C241 C 0.77881 0.8993 0.57914 0.0
C242 C 0.10525 0.07716 0.71601 0.0
C243 C 0.97598 0.89894 0.61025 0.0
H244 H 0.55817 0.37143 0.71732 0.0
H245 H 0.356 0.26511 0.73632 0.0
H246 H 0.49423 0.28938 0.73865 0.0
H247 H 0.34323 0.40609 0.69095 0.0
H248 H 0.67297 0.82412 0.5754 0.0
H249 H 0.89091 0.96735 0.58586 0.0
H250 H 0.87483 0.7852 0.61178 0.0
H251 H 0.75209 0.93142 0.57018 0.0
C252 C 0.11815 0.44483 0.01146 0.0
C253 C 0.05394 0.38512 0.00918 0.0
C254 C 0.11435 0.51748 0.01119 0.0
C255 C 1.04545 0.54076 0.00867 0.0
C256 C 0.98217 0.48103 0.00663 0.0
C257 C 0.986 0.40918 0.00695 0.0
C258 C 1.03216 0.62037 0.008 0.0
C259 C 0.07844 0.69117 0.00951 0.0
C260 C 0.06516 0.7708 0.00885 0.0
C261 C 0.12851 0.83073 0.01112 0.0
C262 C 0.1247 0.90259 0.01081 0.0
C263 C 0.05668 0.92641 0.00831 0.0
H264 H 0.94312 0.75526 0.00403 0.0
C265 C 0.99239 0.8665 0.00581 0.0
C266 C 0.99618 0.79386 0.00609 0.0
H267 H 0.93657 0.87545 0.00354 0.0
H268 H 0.17391 0.4357 0.01352 0.0
H269 H 0.16735 0.55591 0.01305 0.0
H270 H 0.92624 0.48982 0.00477 0.0
H271 H 0.93318 0.37169 0.00567 0.0
H272 H 0.97234 0.61834 0.00583 0.0
H273 H 0.13826 0.69323 0.0117 0.0
H274 H 0.18451 0.82213 0.01319 0.0
H275 H 0.17762 0.94033 0.01233 0.0
C276 C 0.35364 0.11964 0.35049 0.0
C277 C 0.31972 0.17451 0.34824 0.0
C278 C 0.43216 0.1243 0.34967 0.0
C279 C 0.48109 0.18424 0.34649 0.0
C280 C 0.44654 0.23838 0.34409 0.0
C281 C 0.36867 0.23363 0.34483 0.0
C282 C 0.56683 0.19402 0.34526 0.0
C283 C 0.61157 0.14918 0.34786 0.0
C284 C 0.69738 0.15905 0.34675 0.0
C285 C 0.73303 0.10715 0.35091 0.0
C286 C 0.81091 0.11186 0.35023 0.0
C287 C 0.85872 0.16851 0.34503 0.0
H288 H 0.72239 0.25851 0.33849 0.0
C289 C 0.82366 0.22106 0.34094 0.0
C290 C 0.74517 0.21658 0.34179 0.0
H291 H 0.85702 0.2662 0.33704 0.0
H292 H 0.31935 0.0725 0.35291 0.0
H293 H 0.45398 0.08045 0.35146 0.0
H294 H 0.48022 0.28547 0.34144 0.0
H295 H 0.3466 0.27672 0.34233 0.0
H296 H 0.59463 0.24259 0.34208 0.0
H297 H 0.58389 0.10087 0.35123 0.0
H298 H 0.70023 0.0619 0.3549 0.0
H299 H 0.83382 0.07056 0.35408 0.0
C300 C 0.66382 0.74527 0.61326 0.0
C301 C 0.72268 0.73548 0.59901 0.0
C302 C 0.62914 0.69278 0.62293 0.0
C303 C 0.65212 0.6288 0.61816 0.0
C304 C 0.70841 0.61769 0.60264 0.0
C305 C 0.74339 0.67049 0.59314 0.0
C306 C 0.62453 0.57608 0.63122 0.0
C307 C 0.56203 0.57359 0.64212 0.0
C308 C 0.54045 0.52851 0.65865 0.0
C309 C 0.49614 0.55092 0.67812 0.0
C310 C 0.47187 0.50943 0.69358 0.0
C311 C 0.49069 0.4441 0.68965 0.0
H312 H 0.59391 0.44407 0.63996 0.0
C313 C 0.53671 0.42226 0.67073 0.0
C314 C 0.56124 0.46399 0.65522 0.0
H315 H 0.55082 0.37142 0.66703 0.0
H316 H 0.64782 0.79551 0.61846 0.0
H317 H 0.58766 0.70511 0.63538 0.0
H318 H 0.72726 0.5691 0.59867 0.0
H319 H 0.78855 0.66167 0.58204 0.0
H320 H 0.65957 0.54068 0.63307 0.0
H321 H 0.5265 0.60846 0.64023 0.0
H322 H 0.47972 0.60053 0.68126 0.0
H323 H 0.43682 0.52764 0.70822 0.0
C324 C 0.81481 1.05279 0.65828 0.0
C325 C 0.87996 0.1063 0.67711 0.0
C326 C 0.73864 0.0568 0.66006 0.0
C327 C 0.72333 0.11402 0.68116 0.0
C328 C 0.78859 0.16654 0.70009 0.0
C329 C 0.8642 0.16305 0.69805 0.0
C330 C 0.64247 0.12055 0.68548 0.0
C331 C 0.57382 0.08657 0.66654 0.0
C332 C 0.49317 0.09473 0.67042 0.0
C333 C 0.43384 0.07162 0.64659 0.0
C334 C 0.35815 0.07504 0.64836 0.0
C335 C 0.33567 0.09984 0.67407 0.0
H336 H 0.51362 0.13955 0.71552 0.0
C337 C 0.39489 0.12353 0.69811 0.0
C338 C 0.47165 0.12146 0.69638 0.0
H339 H 0.38178 0.143 0.71853 0.0
H340 H 0.82259 1.0074 0.64187 0.0
H341 H 0.69184 1.014 0.64508 0.0
H342 H 0.78125 0.21127 0.71695 0.0
H343 H 0.91057 0.20439 0.71365 0.0
H344 H 0.64054 0.15848 0.70556 0.0
H345 H 0.57637 1.05165 0.64597 0.0
H346 H 0.44612 1.05092 0.62608 0.0
H347 H 0.31704 0.05886 0.62922 0.0
C348 C 0.73091 0.73795 0.97877 0.0
C349 C 0.71094 0.78477 0.96625 0.0
C350 C 0.68069 0.70574 0.99199 0.0
C351 C 0.60901 0.71924 0.99269 0.0
C352 C 0.58924 0.76595 0.9801 0.0
C353 C 0.63949 0.79821 0.96694 0.0
C354 C 0.55434 0.68798 0.00711 0.0
C355 C 0.5547 0.62743 0.01227 0.0
C356 C 0.49986 0.59586 0.02655 0.0
C357 C 0.5195 0.54887 0.03902 0.0
C358 C 0.46888 0.51582 0.05184 0.0
C359 C 0.39714 0.5287 0.05231 0.0
H360 H 0.40937 0.64289 0.01699 0.0
C361 C 0.37737 0.57599 0.04 0.0
C362 C 0.428 0.60903 0.02712 0.0
H363 H 0.32178 0.58566 0.03955 0.0
H364 H 0.78634 0.72795 0.97908 0.0
H365 H 0.69949 0.67218 0.00224 0.0
H366 H 0.53464 0.77758 0.98042 0.0
H367 H 0.62244 0.83381 0.95732 0.0
H368 H 0.51191 0.71601 0.01333 0.0
H369 H 0.59711 0.59939 0.00604 0.0
H370 H 0.57425 0.53753 0.03881 0.0
H371 H 0.48582 0.47995 0.06134 0.0
C372 C 0.99836 0.6032 0.3996 0.0
C373 C 0.94082 0.53789 0.38615 0.0
C374 C 1.02872 0.64283 0.38424 0.0
C375 C 1.00082 0.61814 0.35538 0.0
C376 C 0.93531 0.55975 0.34295 0.0
C377 C 0.90554 0.51941 0.35825 0.0
C378 C 1.04299 0.64818 0.33758 0.0
C379 C 0.11958 0.66521 0.34204 0.0
C380 C 0.16232 0.69791 0.32501 0.0
C381 C 0.22912 0.75446 0.33824 0.0
C382 C 0.2592 0.79896 0.32445 0.0
C383 C 0.22283 0.78663 0.29727 0.0
H384 H 0.084 0.63345 0.28543 0.0
C385 C 0.16403 0.72286 0.28262 0.0
C386 C 0.13349 0.67893 0.29648 0.0
H387 H 0.13554 0.71213 0.26156 0.0
H388 H 1.02604 0.61862 0.42117 0.0
H389 H 0.07727 0.68974 0.39456 0.0
H390 H 0.91186 0.54102 0.32082 0.0
H391 H 0.86133 0.46911 0.34741 0.0
H392 H 1.01017 0.65287 0.31976 0.0
H393 H 0.15202 0.66032 0.35991 0.0
H394 H 0.25332 0.76885 0.36007 0.0
H395 H 0.30446 0.84791 0.33619 0.0
C396 C 1.01923 0.21453 0.25954 0.0
C397 C 0.07853 0.1975 0.27358 0.0
C398 C 1.01985 0.21664 0.23272 0.0
C399 C 0.08096 0.20389 0.21975 0.0
C400 C 0.14121 0.18948 0.23433 0.0
C401 C 0.13937 0.18498 0.26058 0.0
C402 C 0.08515 0.20733 0.19156 0.0
C403 C 1.02511 0.17892 0.1697 0.0
C404 C 1.03068 0.17593 0.14076 0.0
C405 C 0.98436 0.11625 0.11775 0.0
C406 C 0.98696 0.11181 0.09037 0.0
C407 C 1.03393 0.16826 0.08505 0.0
H408 H 0.1149 0.27921 0.15275 0.0
C409 C 0.08025 0.2283 0.10813 0.0
C410 C 0.07912 0.23186 0.13559 0.0
H411 H 0.11736 0.27288 0.10504 0.0
H412 H 0.97143 0.22413 0.26896 0.0
H413 H 0.97306 0.22911 0.2223 0.0
H414 H 0.18934 0.18006 0.22508 0.0
H415 H 0.18606 0.17199 0.27084 0.0
H416 H 0.14109 0.22801 0.18809 0.0
H417 H 0.97082 0.15164 0.17254 0.0
H418 H 0.94666 0.07213 0.12095 0.0
H419 H 0.95214 0.06364 0.07337 0.0
C420 C 0.0756 0.18169 0.43971 0.0
C421 C 0.11625 0.14758 0.4206 0.0
C422 C 0.08227 0.17809 0.46638 0.0
C423 C 0.13045 0.14074 0.47494 0.0
C424 C 0.17166 0.10721 0.45593 0.0
C425 C 0.16414 0.10993 0.42905 0.0
C426 C 0.14117 0.13848 0.50379 0.0
C427 C 0.08657 0.14128 0.51903 0.0
C428 C 0.09467 0.13771 0.54762 0.0
C429 C 1.0291 0.10871 0.55584 0.0
C430 C 1.03272 0.10635 0.58259 0.0
C431 C 0.10182 0.13465 0.60234 0.0
H432 H 0.21584 0.1898 0.56197 0.0
C433 C 0.16764 0.16476 0.59441 0.0
C434 C 0.16429 0.16573 0.56728 0.0
H435 H 0.22188 0.18673 0.60905 0.0
H436 H 1.03831 0.21145 0.43409 0.0
H437 H 0.05089 0.20623 0.48045 0.0
H438 H 0.20978 0.07854 0.46187 0.0
H439 H 0.19697 0.08371 0.41508 0.0
H440 H 0.19437 0.13079 0.5121 0.0
H441 H 1.03105 0.14213 0.50955 0.0
H442 H 0.97451 0.08727 0.54139 0.0
H443 H 0.9808 0.08308 0.58791 0.0
C444 C 1.03563 0.08105 0.755 0.0
C445 C 0.0989 0.07014 0.74329 0.0
C446 C 1.03419 0.08315 0.78227 0.0
C447 C 0.09502 0.07208 0.79807 0.0
C448 C 0.15681 0.05853 0.78583 0.0
C449 C 0.15947 0.05908 0.75904 0.0
C450 C 0.09452 0.07194 0.82687 0.0
C451 C 0.07319 0.12193 0.84662 0.0
C452 C 0.07719 0.1252 0.87605 0.0
C453 C 0.09804 0.19298 0.898 0.0
C454 C 0.09973 0.1983 0.9257 0.0
C455 C 0.07806 0.13595 0.93218 0.0
H456 H 1.03924 1.0095 0.86613 0.0
C457 C 0.05633 0.06798 0.91021 0.0
C458 C 0.05687 0.06258 0.88253 0.0
H459 H 1.03902 1.01887 0.91444 0.0
H460 H 0.98862 0.0907 0.74344 0.0
H461 H 0.98525 0.09274 0.7909 0.0
H462 H 0.20419 1.04927 0.79734 0.0
H463 H 0.20906 1.05093 0.75058 0.0
H464 H 0.1182 1.03301 0.83259 0.0
H465 H 0.05707 0.16529 0.84162 0.0
H466 H 0.11339 0.24222 0.89372 0.0
H467 H 0.11599 0.25151 0.94201 0.0
loop_
_geom_bond_atom_site_label_1
_geom_bond_atom_site_label_2
_geom_bond_distance
_geom_bond_site_symmetry_2
_ccdc_geom_bond_type
Tb0 N29 2.617 . S
Tb0 N35 2.572 1_556 S
Tb0 O44 2.465 1_546 S
Tb0 O45 2.387 1_556 S
Tb0 O47 2.428 1_545 S
Tb0 O48 2.308 1_556 S
Tb0 O52 2.349 1_546 S
Tb0 O55 2.393 . S
Tb0 C64 2.802 1_545 S
C1 N2 1.379 . S
C1 C4 1.416 . S
C1 C8 1.424 . S
N2 C1 1.379 . S
N2 C5 1.334 . S
N2 Tb11 2.617 . S
C3 C5 1.390 . S
C3 C6 1.339 . S
C3 H23 0.930 . S
C4 C1 1.416 . S
C4 C6 1.416 . S
C4 C10 1.448 . S
C5 N2 1.334 . S
C5 C3 1.390 . S
C5 H16 0.930 . S
C6 C3 1.339 . S
C6 C4 1.416 . S
C6 H27 0.930 . S
C7 C8 1.413 . S
C7 C9 1.427 . S
C7 C13 1.416 1_554 S
C8 C1 1.424 . S
C8 C7 1.413 . S
C8 N12 1.361 . S
C9 C7 1.427 . S
C9 C10 1.328 . S
C9 H24 0.929 . S
C10 C4 1.448 . S
C10 C9 1.328 . S
C10 H25 0.930 . S
Tb11 N2 2.617 . S
Tb11 N12 2.572 . S
Tb11 O46 2.349 . S
Tb11 O49 2.393 . S
Tb11 O50 2.465 . S
Tb11 O51 2.387 . S
Tb11 O53 2.428 . S
Tb11 O54 2.308 1_554 S
Tb11 C75 2.802 . S
N12 C8 1.361 . S
N12 Tb11 2.572 . S
N12 C14 1.340 1_554 S
C13 C7 1.416 1_556 S
C13 C15 1.332 . S
C13 H21 0.931 . S
C14 N12 1.340 1_556 S
C14 C15 1.407 . S
C14 H20 0.930 . S
C15 C13 1.332 . S
C15 C14 1.407 . S
C15 H17 0.929 . S
H16 C5 0.930 . S
H17 C15 0.929 . S
H18 C33 0.930 . S
H19 C40 0.929 . S
H20 C14 0.930 . S
H21 C13 0.931 . S
H22 C36 0.930 . S
H23 C3 0.930 . S
H24 C9 0.929 . S
H25 C10 0.930 . S
H26 C31 0.930 . S
H27 C6 0.930 . S
H28 C39 0.931 . S
N29 Tb0 2.617 . S
N29 C30 1.379 . S
N29 C33 1.334 . S
C30 N29 1.379 . S
C30 C32 1.416 . S
C30 C38 1.424 . S
C31 H26 0.930 . S
C31 C33 1.390 . S
C31 C34 1.339 . S
C32 C30 1.416 . S
C32 C34 1.416 . S
C32 C65 1.448 . S
C33 H18 0.930 . S
C33 N29 1.334 . S
C33 C31 1.390 . S
C34 C31 1.339 . S
C34 C32 1.416 . S
C34 H41 0.930 . S
N35 Tb0 2.572 1_554 S
N35 C36 1.340 . S
N35 C38 1.361 1_554 S
C36 H22 0.930 . S
C36 N35 1.340 . S
C36 C40 1.407 . S
C37 C38 1.413 1_554 S
C37 C39 1.416 . S
C37 C66 1.427 1_554 S
C38 C30 1.424 . S
C38 N35 1.361 1_556 S
C38 C37 1.413 1_556 S
C39 H28 0.931 . S
C39 C37 1.416 . S
C39 C40 1.332 . S
C40 H19 0.929 . S
C40 C36 1.407 . S
C40 C39 1.332 . S
H41 C34 0.930 . S
H42 C65 0.930 . S
H43 C66 0.929 . S
O44 Tb0 2.465 1_564 S
O44 C64 1.264 1_554 S
O45 Tb0 2.387 1_554 S
O45 C56 1.264 . S
O46 Tb11 2.349 . S
O46 C56 1.243 1_455 S
O47 Tb0 2.428 1_565 S
O47 C64 1.256 . S
O48 Tb0 2.308 1_554 S
O48 C63 1.266 1_655 S
O49 Tb11 2.393 . S
O49 C63 1.248 . S
O50 Tb11 2.465 . S
O50 C75 1.264 . S
O51 Tb11 2.387 . S
O51 C67 1.264 1_545 S
O52 Tb0 2.349 1_564 S
O52 C67 1.243 1_655 S
O53 Tb11 2.428 . S
O53 C75 1.256 . S
O54 Tb11 2.308 1_556 S
O54 C74 1.266 . S
O55 Tb0 2.393 . S
O55 C74 1.248 1_655 S
C56 O45 1.264 . S
C56 O46 1.243 1_655 S
C57 C60 1.399 . S
C57 C62 1.383 1_556 S
C57 C64 1.496 . S
C58 C59 1.399 1_554 S
C58 C62 1.389 . S
C59 C58 1.399 1_556 S
C59 C61 1.380 . S
C59 H76 0.929 . S
C60 C57 1.399 . S
C60 C61 1.392 . S
C60 H77 0.929 . S
C61 C59 1.380 . S
C61 C60 1.392 . S
C61 H78 0.929 . S
C62 C57 1.383 1_554 S
C62 C58 1.389 . S
C62 H79 0.931 . S
C63 O48 1.266 1_455 S
C63 O49 1.248 . S
C64 Tb0 2.802 1_565 S
C64 O44 1.264 1_556 S
C64 O47 1.256 . S
C64 C57 1.496 . S
C65 C32 1.448 . S
C65 H42 0.930 . S
C65 C66 1.328 . S
C66 C37 1.427 1_556 S
C66 H43 0.929 . S
C66 C65 1.328 . S
C67 O51 1.264 1_565 S
C67 O52 1.243 1_455 S
C68 C71 1.399 . S
C68 C72 1.383 . S
C68 C75 1.496 . S
C69 C70 1.399 . S
C69 C72 1.389 . S
C70 C69 1.399 . S
C70 C73 1.380 . S
C70 H80 0.929 . S
C71 C68 1.399 . S
C71 C73 1.392 . S
C71 H81 0.929 . S
C72 C68 1.383 . S
C72 C69 1.389 . S
C72 H82 0.931 1_554 S
C73 C70 1.380 . S
C73 C71 1.392 . S
C73 H83 0.929 . S
C74 O54 1.266 . S
C74 O55 1.248 1_455 S
C75 Tb11 2.802 . S
C75 O50 1.264 . S
C75 O53 1.256 . S
C75 C68 1.496 . S
H76 C59 0.929 . S
H77 C60 0.929 . S
H78 C61 0.929 . S
H79 C62 0.931 . S
H80 C70 0.929 . S
H81 C71 0.929 . S
H82 C72 0.931 1_556 S
H83 C73 0.929 . S
Tb84 N113 2.617 1_545 S
Tb84 N119 2.572 1_545 S
Tb84 O128 2.465 1_645 S
Tb84 O129 2.387 . S
Tb84 O131 2.428 1_645 S
Tb84 O132 2.308 1_655 S
Tb84 O136 2.349 1_655 S
Tb84 O139 2.393 1_655 S
Tb84 C148 2.802 1_645 S
C85 N86 1.379 . S
C85 C88 1.416 . S
C85 C92 1.424 . S
N86 C85 1.379 . S
N86 C89 1.334 . S
N86 Tb95 2.617 . S
C87 C89 1.390 . S
C87 C90 1.339 . S
C87 H107 0.930 . S
C88 C85 1.416 . S
C88 C90 1.416 . S
C88 C94 1.448 . S
C89 N86 1.334 . S
C89 C87 1.390 . S
C89 H100 0.930 . S
C90 C87 1.339 . S
C90 C88 1.416 . S
C90 H111 0.930 . S
C91 C92 1.413 . S
C91 C93 1.427 . S
C91 C97 1.416 . S
C92 C85 1.424 . S
C92 C91 1.413 . S
C92 N96 1.361 . S
C93 C91 1.427 . S
C93 C94 1.328 . S
C93 H108 0.929 . S
C94 C88 1.448 . S
C94 C93 1.328 . S
C94 H109 0.930 . S
Tb95 N86 2.617 . S
Tb95 N96 2.572 . S
Tb95 O130 2.349 1_455 S
Tb95 O133 2.393 . S
Tb95 O134 2.465 . S
Tb95 O135 2.387 . S
Tb95 O137 2.428 . S
Tb95 O138 2.308 . S
Tb95 C159 2.802 . S
N96 C92 1.361 . S
N96 Tb95 2.572 . S
N96 C98 1.340 . S
C97 C91 1.416 . S
C97 C99 1.332 . S
C97 H105 0.931 . S
C98 N96 1.340 . S
C98 C99 1.407 . S
C98 H104 0.930 . S
C99 C97 1.332 . S
C99 C98 1.407 . S
C99 H101 0.929 . S
H100 C89 0.930 . S
H101 C99 0.929 . S
H102 C117 0.930 . S
H103 C124 0.929 . S
H104 C98 0.930 . S
H105 C97 0.931 . S
H106 C120 0.930 . S
H107 C87 0.930 . S
H108 C93 0.929 . S
H109 C94 0.930 . S
H110 C115 0.930 . S
H111 C90 0.930 . S
H112 C123 0.931 . S
N113 Tb84 2.617 1_565 S
N113 C114 1.379 . S
N113 C117 1.334 . S
C114 N113 1.379 . S
C114 C116 1.416 . S
C114 C122 1.424 . S
C115 H110 0.930 . S
C115 C117 1.390 . S
C115 C118 1.339 . S
C116 C114 1.416 . S
C116 C118 1.416 . S
C116 C149 1.448 . S
C117 H102 0.930 . S
C117 N113 1.334 . S
C117 C115 1.390 . S
C118 C115 1.339 . S
C118 C116 1.416 . S
C118 H125 0.930 . S
N119 Tb84 2.572 1_565 S
N119 C120 1.340 . S
N119 C122 1.361 . S
C120 H106 0.930 . S
C120 N119 1.340 . S
C120 C124 1.407 . S
C121 C122 1.413 . S
C121 C123 1.416 . S
C121 C150 1.427 . S
C122 C114 1.424 . S
C122 N119 1.361 . S
C122 C121 1.413 . S
C123 H112 0.931 . S
C123 C121 1.416 . S
C123 C124 1.332 . S
C124 H103 0.929 . S
C124 C120 1.407 . S
C124 C123 1.332 . S
H125 C118 0.930 . S
H126 C149 0.930 . S
H127 C150 0.929 . S
O128 Tb84 2.465 1_465 S
O128 C148 1.264 . S
O129 Tb84 2.387 . S
O129 C140 1.264 . S
O130 Tb95 2.349 1_655 S
O130 C140 1.243 . S
O131 Tb84 2.428 1_465 S
O131 C148 1.256 . S
O132 Tb84 2.308 1_455 S
O132 C147 1.266 . S
O133 Tb95 2.393 . S
O133 C147 1.248 . S
O134 Tb95 2.465 . S
O134 C159 1.264 . S
O135 Tb95 2.387 . S
O135 C151 1.264 . S
O136 Tb84 2.349 1_455 S
O136 C151 1.243 . S
O137 Tb95 2.428 . S
O137 C159 1.256 . S
O138 Tb95 2.308 . S
O138 C158 1.266 . S
O139 Tb84 2.393 1_455 S
O139 C158 1.248 . S
C140 O129 1.264 . S
C140 O130 1.243 . S
C141 C144 1.399 . S
C141 C146 1.383 . S
C141 C148 1.496 . S
C142 C143 1.399 . S
C142 C146 1.389 . S
C143 C142 1.399 . S
C143 C145 1.380 . S
C143 H160 0.929 . S
C144 C141 1.399 . S
C144 C145 1.392 . S
C144 H161 0.929 . S
C145 C143 1.380 . S
C145 C144 1.392 . S
C145 H162 0.929 . S
C146 C141 1.383 . S
C146 C142 1.389 . S
C146 H163 0.931 . S
C147 O132 1.266 . S
C147 O133 1.248 . S
C148 Tb84 2.802 1_465 S
C148 O128 1.264 . S
C148 O131 1.256 . S
C148 C141 1.496 . S
C149 C116 1.448 . S
C149 H126 0.930 . S
C149 C150 1.328 . S
C150 C121 1.427 . S
C150 H127 0.929 . S
C150 C149 1.328 . S
C151 O135 1.264 . S
C151 O136 1.243 . S
C152 C155 1.399 . S
C152 C156 1.383 . S
C152 C159 1.496 . S
C153 C154 1.399 . S
C153 C156 1.389 1_655 S
C154 C153 1.399 . S
C154 C157 1.380 1_655 S
C154 H164 0.929 . S
C155 C152 1.399 . S
C155 C157 1.392 . S
C155 H165 0.929 . S
C156 C152 1.383 . S
C156 C153 1.389 1_455 S
C156 H166 0.931 . S
C157 C154 1.380 1_455 S
C157 C155 1.392 . S
C157 H167 0.929 . S
C158 O138 1.266 . S
C158 O139 1.248 . S
C159 Tb95 2.802 . S
C159 O134 1.264 . S
C159 O137 1.256 . S
C159 C152 1.496 . S
H160 C143 0.929 . S
H161 C144 0.929 . S
H162 C145 0.929 . S
H163 C146 0.931 . S
H164 C154 0.929 . S
H165 C155 0.929 . S
H166 C156 0.931 . S
H167 C157 0.929 . S
Tb168 N197 2.617 . S
Tb168 N203 2.572 . S
Tb168 O212 2.465 . S
Tb168 O213 2.387 1_455 S
Tb168 O215 2.428 . S
Tb168 O216 2.308 . S
Tb168 O220 2.349 . S
Tb168 O223 2.393 . S
Tb168 C232 2.802 . S
C169 N170 1.379 . S
C169 C172 1.416 . S
C169 C176 1.424 . S
N170 C169 1.379 . S
N170 C173 1.334 . S
N170 Tb179 2.617 . S
C171 C173 1.390 . S
C171 C174 1.339 . S
C171 H191 0.930 . S
C172 C169 1.416 . S
C172 C174 1.416 . S
C172 C178 1.448 . S
C173 N170 1.334 . S
C173 C171 1.390 . S
C173 H184 0.930 . S
C174 C171 1.339 . S
C174 C172 1.416 . S
C174 H195 0.930 . S
C175 C176 1.413 . S
C175 C177 1.427 . S
C175 C181 1.416 . S
C176 C169 1.424 . S
C176 C175 1.413 . S
C176 N180 1.361 . S
C177 C175 1.427 . S
C177 C178 1.328 . S
C177 H192 0.929 . S
C178 C172 1.448 . S
C178 C177 1.328 . S
C178 H193 0.930 . S
Tb179 N170 2.617 . S
Tb179 N180 2.572 . S
Tb179 O214 2.349 1_455 S
Tb179 O217 2.393 . S
Tb179 O218 2.465 1_455 S
Tb179 O219 2.387 . S
Tb179 O221 2.428 1_455 S
Tb179 O222 2.308 . S
Tb179 C243 2.802 1_455 S
N180 C176 1.361 . S
N180 Tb179 2.572 . S
N180 C182 1.340 . S
C181 C175 1.416 . S
C181 C183 1.332 . S
C181 H189 0.931 . S
C182 N180 1.340 . S
C182 C183 1.407 . S
C182 H188 0.930 . S
C183 C181 1.332 . S
C183 C182 1.407 . S
C183 H185 0.929 . S
H184 C173 0.930 . S
H185 C183 0.929 . S
H186 C201 0.930 . S
H187 C208 0.929 . S
H188 C182 0.930 . S
H189 C181 0.931 . S
H190 C204 0.930 . S
H191 C171 0.930 . S
H192 C177 0.929 . S
H193 C178 0.930 . S
H194 C199 0.930 . S
H195 C174 0.930 . S
H196 C207 0.931 . S
N197 Tb168 2.617 . S
N197 C198 1.379 . S
N197 C201 1.334 . S
C198 N197 1.379 . S
C198 C200 1.416 . S
C198 C206 1.424 . S
C199 H194 0.930 . S
C199 C201 1.390 . S
C199 C202 1.339 . S
C200 C198 1.416 . S
C200 C202 1.416 . S
C200 C233 1.448 1_455 S
C201 H186 0.930 . S
C201 N197 1.334 . S
C201 C199 1.390 . S
C202 C199 1.339 . S
C202 C200 1.416 . S
C202 H209 0.930 . S
N203 Tb168 2.572 . S
N203 C204 1.340 . S
N203 C206 1.361 . S
C204 H190 0.930 . S
C204 N203 1.340 . S
C204 C208 1.407 1_455 S
C205 C206 1.413 1_655 S
C205 C207 1.416 . S
C205 C234 1.427 . S
C206 C198 1.424 . S
C206 N203 1.361 . S
C206 C205 1.413 1_455 S
C207 H196 0.931 . S
C207 C205 1.416 . S
C207 C208 1.332 . S
C208 H187 0.929 . S
C208 C204 1.407 1_655 S
C208 C207 1.332 . S
H209 C202 0.930 . S
H210 C233 0.930 . S
H211 C234 0.929 . S
O212 Tb168 2.465 . S
O212 C232 1.264 . S
O213 Tb168 2.387 1_655 S
O213 C224 1.264 . S
O214 Tb179 2.349 1_655 S
O214 C224 1.243 1_565 S
O215 Tb168 2.428 . S
O215 C232 1.256 . S
O216 Tb168 2.308 . S
O216 C231 1.266 . S
O217 Tb179 2.393 . S
O217 C231 1.248 1_565 S
O218 Tb179 2.465 1_655 S
O218 C243 1.264 . S
O219 Tb179 2.387 . S
O219 C235 1.264 1_565 S
O220 Tb168 2.349 . S
O220 C235 1.243 . S
O221 Tb179 2.428 1_655 S
O221 C243 1.256 . S
O222 Tb179 2.308 . S
O222 C242 1.266 1_565 S
O223 Tb168 2.393 . S
O223 C242 1.248 . S
C224 O213 1.264 . S
C224 O214 1.243 1_545 S
C225 C228 1.399 . S
C225 C230 1.383 . S
C225 C232 1.496 . S
C226 C227 1.399 . S
C226 C230 1.389 . S
C227 C226 1.399 . S
C227 C229 1.380 . S
C227 H244 0.929 . S
C228 C225 1.399 . S
C228 C229 1.392 . S
C228 H245 0.929 . S
C229 C227 1.380 . S
C229 C228 1.392 . S
C229 H246 0.929 . S
C230 C225 1.383 . S
C230 C226 1.389 . S
C230 H247 0.931 . S
C231 O216 1.266 . S
C231 O217 1.248 1_545 S
C232 Tb168 2.802 . S
C232 O212 1.264 . S
C232 O215 1.256 . S
C232 C225 1.496 . S
C233 C200 1.448 1_655 S
C233 H210 0.930 . S
C233 C234 1.328 . S
C234 C205 1.427 . S
C234 H211 0.929 . S
C234 C233 1.328 . S
C235 O219 1.264 1_545 S
C235 O220 1.243 . S
C236 C239 1.399 . S
C236 C240 1.383 . S
C236 C243 1.496 . S
C237 C238 1.399 . S
C237 C240 1.389 . S
C238 C237 1.399 . S
C238 C241 1.380 . S
C238 H248 0.929 . S
C239 C236 1.399 . S
C239 C241 1.392 . S
C239 H249 0.929 . S
C240 C236 1.383 . S
C240 C237 1.389 . S
C240 H250 0.931 . S
C241 C238 1.380 . S
C241 C239 1.392 . S
C241 H251 0.929 . S
C242 O222 1.266 1_545 S
C242 O223 1.248 . S
C243 Tb179 2.802 1_655 S
C243 O218 1.264 . S
C243 O221 1.256 . S
C243 C236 1.496 . S
H244 C227 0.929 . S
H245 C228 0.929 . S
H246 C229 0.929 . S
H247 C230 0.931 . S
H248 C238 0.929 . S
H249 C239 0.929 . S
H250 C240 0.931 . S
H251 C241 0.929 . S
C252 C253 1.386 1_455 S
C252 C254 1.383 . S
C252 H268 0.951 . S
C253 C252 1.386 1_655 S
C253 C257 1.383 1_554 S
C254 C252 1.383 . S
C254 C255 1.402 1_455 S
C254 H269 0.951 . S
C255 C254 1.402 1_655 S
C255 C256 1.375 1_554 S
C255 C258 1.463 1_554 S
C256 C255 1.375 1_556 S
C256 C257 1.367 . S
C256 H270 0.951 . S
C257 C253 1.383 1_556 S
C257 C256 1.367 . S
C257 H271 0.950 . S
C258 C255 1.463 1_556 S
C258 C259 1.295 1_656 S
C258 H272 0.972 . S
C259 C258 1.295 1_454 S
C259 C260 1.479 . S
C259 H273 0.950 . S
C260 C259 1.479 . S
C260 C261 1.375 . S
C260 C266 1.404 1_454 S
C261 C260 1.375 . S
C261 C262 1.369 . S
C261 H274 0.950 . S
C262 C261 1.369 . S
C262 C263 1.392 . S
C262 H275 0.951 . S
C263 C262 1.392 . S
C263 C265 1.384 1_454 S
H264 C266 0.949 . S
C265 C263 1.384 1_656 S
C265 C266 1.385 . S
C265 H267 0.950 . S
C266 C260 1.404 1_656 S
C266 H264 0.949 . S
C266 C265 1.385 . S
H267 C265 0.950 . S
H268 C252 0.951 . S
H269 C254 0.951 . S
H270 C256 0.951 . S
H271 C257 0.950 . S
H272 C258 0.972 . S
H273 C259 0.950 . S
H274 C261 0.950 . S
H275 C262 0.951 . S
C276 C277 1.386 . S
C276 C278 1.383 . S
C276 H292 0.951 . S
C277 C276 1.386 . S
C277 C281 1.383 . S
C278 C276 1.383 . S
C278 C279 1.402 . S
C278 H293 0.951 . S
C279 C278 1.402 . S
C279 C280 1.375 . S
C279 C282 1.481 . S
C280 C279 1.375 . S
C280 C281 1.367 . S
C280 H294 0.951 . S
C281 C277 1.383 . S
C281 C280 1.367 . S
C281 H295 0.950 . S
C282 C279 1.481 . S
C282 C283 1.297 . S
C282 H296 0.950 . S
C283 C282 1.297 . S
C283 C284 1.479 . S
C283 H297 0.950 . S
C284 C283 1.479 . S
C284 C285 1.375 . S
C284 C290 1.404 . S
C285 C284 1.375 . S
C285 C286 1.369 . S
C285 H298 0.950 . S
C286 C285 1.369 . S
C286 C287 1.392 . S
C286 H299 0.951 . S
C287 C286 1.392 . S
C287 C289 1.384 . S
H288 C290 0.949 . S
C289 C287 1.384 . S
C289 C290 1.385 . S
C289 H291 0.950 . S
C290 C284 1.404 . S
C290 H288 0.949 . S
C290 C289 1.385 . S
H291 C289 0.950 . S
H292 C276 0.951 . S
H293 C278 0.951 . S
H294 C280 0.951 . S
H295 C281 0.950 . S
H296 C282 0.950 . S
H297 C283 0.950 . S
H298 C285 0.950 . S
H299 C286 0.951 . S
C300 C301 1.386 . S
C300 C302 1.383 . S
C300 H316 0.951 . S
C301 C300 1.386 . S
C301 C305 1.383 . S
C302 C300 1.383 . S
C302 C303 1.402 . S
C302 H317 0.951 . S
C303 C302 1.402 . S
C303 C304 1.375 . S
C303 C306 1.481 . S
C304 C303 1.375 . S
C304 C305 1.367 . S
C304 H318 0.951 . S
C305 C301 1.383 . S
C305 C304 1.367 . S
C305 H319 0.950 . S
C306 C303 1.481 . S
C306 C307 1.297 . S
C306 H320 0.950 . S
C307 C306 1.297 . S
C307 C308 1.479 . S
C307 H321 0.950 . S
C308 C307 1.479 . S
C308 C309 1.375 . S
C308 C314 1.404 . S
C309 C308 1.375 . S
C309 C310 1.369 . S
C309 H322 0.950 . S
C310 C309 1.369 . S
C310 C311 1.392 . S
C310 H323 0.951 . S
C311 C310 1.392 . S
C311 C313 1.384 . S
H312 C314 0.949 . S
C313 C311 1.384 . S
C313 C314 1.385 . S
C313 H315 0.950 . S
C314 C308 1.404 . S
C314 H312 0.949 . S
C314 C313 1.385 . S
H315 C313 0.950 . S
H316 C300 0.951 . S
H317 C302 0.951 . S
H318 C304 0.951 . S
H319 C305 0.950 . S
H320 C306 0.950 . S
H321 C307 0.950 . S
H322 C309 0.950 . S
H323 C310 0.951 . S
C324 C325 1.386 1_565 S
C324 C326 1.383 . S
C324 H340 0.951 . S
C325 C324 1.386 1_545 S
C325 C329 1.383 . S
C326 C324 1.383 . S
C326 C327 1.402 1_565 S
C326 H341 0.951 . S
C327 C326 1.402 1_545 S
C327 C328 1.375 . S
C327 C330 1.481 . S
C328 C327 1.375 . S
C328 C329 1.367 . S
C328 H342 0.951 . S
C329 C325 1.383 . S
C329 C328 1.367 . S
C329 H343 0.950 . S
C330 C327 1.481 . S
C330 C331 1.297 1_545 S
C330 H344 0.950 . S
C331 C330 1.297 1_565 S
C331 C332 1.479 . S
C331 H345 0.950 . S
C332 C331 1.479 . S
C332 C333 1.375 . S
C332 C338 1.404 1_565 S
C333 C332 1.375 . S
C333 C334 1.369 . S
C333 H346 0.950 . S
C334 C333 1.369 . S
C334 C335 1.392 1_565 S
C334 H347 0.951 . S
C335 C334 1.392 1_545 S
C335 C337 1.384 . S
H336 C338 0.949 . S
C337 C335 1.384 . S
C337 C338 1.385 . S
C337 H339 0.950 . S
C338 C332 1.404 1_545 S
C338 H336 0.949 . S
C338 C337 1.385 . S
H339 C337 0.950 . S
H340 C324 0.951 . S
H341 C326 0.951 . S
H342 C328 0.951 . S
H343 C329 0.950 . S
H344 C330 0.950 . S
H345 C331 0.950 . S
H346 C333 0.950 . S
H347 C334 0.951 . S
C348 C349 1.386 . S
C348 C350 1.383 . S
C348 H364 0.951 . S
C349 C348 1.386 . S
C349 C353 1.383 . S
C350 C348 1.383 . S
C350 C351 1.402 . S
C350 H365 0.951 . S
C351 C350 1.402 . S
C351 C352 1.375 . S
C351 C354 1.481 . S
C352 C351 1.375 . S
C352 C353 1.367 . S
C352 H366 0.951 . S
C353 C349 1.383 . S
C353 C352 1.367 . S
C353 H367 0.950 . S
C354 C351 1.481 . S
C354 C355 1.297 . S
C354 H368 0.950 . S
C355 C354 1.297 . S
C355 C356 1.479 . S
C355 H369 0.950 . S
C356 C355 1.479 . S
C356 C357 1.375 . S
C356 C362 1.404 . S
C357 C356 1.375 . S
C357 C358 1.369 . S
C357 H370 0.950 . S
C358 C357 1.369 . S
C358 C359 1.392 . S
C358 H371 0.951 . S
C359 C358 1.392 . S
C359 C361 1.384 . S
H360 C362 0.949 . S
C361 C359 1.384 . S
C361 C362 1.385 . S
C361 H363 0.949 1_554 S
C362 C356 1.404 . S
C362 H360 0.949 . S
C362 C361 1.385 . S
H363 C361 0.949 1_556 S
H364 C348 0.951 . S
H365 C350 0.951 . S
H366 C352 0.951 . S
H367 C353 0.950 . S
H368 C354 0.950 . S
H369 C355 0.950 . S
H370 C357 0.950 . S
H371 C358 0.951 . S
C372 C373 1.386 1_455 S
C372 C374 1.383 . S
C372 H388 0.951 . S
C373 C372 1.386 1_655 S
C373 C377 1.383 . S
C374 C372 1.383 . S
C374 C375 1.402 1_455 S
C374 H389 0.951 . S
C375 C374 1.402 1_655 S
C375 C376 1.375 . S
C375 C378 1.481 . S
C376 C375 1.375 . S
C376 C377 1.367 . S
C376 H390 0.951 . S
C377 C373 1.383 . S
C377 C376 1.367 . S
C377 H391 0.950 . S
C378 C375 1.481 . S
C378 C379 1.297 1_655 S
C378 H392 0.950 . S
C379 C378 1.297 1_455 S
C379 C380 1.479 . S
C379 H393 0.950 . S
C380 C379 1.479 . S
C380 C381 1.375 . S
C380 C386 1.404 . S
C381 C380 1.375 . S
C381 C382 1.369 . S
C381 H394 0.950 . S
C382 C381 1.369 . S
C382 C383 1.392 . S
C382 H395 0.951 . S
C383 C382 1.392 . S
C383 C385 1.384 . S
H384 C386 0.949 1_655 S
C385 C383 1.384 . S
C385 C386 1.385 . S
C385 H387 0.950 1_455 S
C386 C380 1.404 . S
C386 H384 0.949 1_455 S
C386 C385 1.385 . S
H387 C385 0.950 1_655 S
H388 C372 0.951 . S
H389 C374 0.951 . S
H390 C376 0.951 . S
H391 C377 0.950 . S
H392 C378 0.950 . S
H393 C379 0.950 . S
H394 C381 0.950 . S
H395 C382 0.951 . S
C396 C397 1.386 1_655 S
C396 C398 1.383 . S
C396 H412 0.951 . S
C397 C396 1.386 1_455 S
C397 C401 1.383 . S
C398 C396 1.383 . S
C398 C399 1.402 1_655 S
C398 H413 0.951 . S
C399 C398 1.402 1_455 S
C399 C400 1.375 . S
C399 C402 1.481 . S
C400 C399 1.375 . S
C400 C401 1.367 . S
C400 H414 0.951 . S
C401 C397 1.383 . S
C401 C400 1.367 . S
C401 H415 0.950 . S
C402 C399 1.481 . S
C402 C403 1.297 1_455 S
C402 H416 0.950 . S
C403 C402 1.297 1_655 S
C403 C404 1.479 . S
C403 H417 0.950 . S
C404 C403 1.479 . S
C404 C405 1.375 . S
C404 C410 1.404 1_655 S
C405 C404 1.375 . S
C405 C406 1.369 . S
C405 H418 0.950 . S
C406 C405 1.369 . S
C406 C407 1.392 . S
C406 H419 0.951 . S
C407 C406 1.392 . S
C407 C409 1.384 1_655 S
H408 C410 0.949 . S
C409 C407 1.384 1_455 S
C409 C410 1.385 . S
C409 H411 0.950 . S
C410 C404 1.404 1_455 S
C410 H408 0.949 . S
C410 C409 1.385 . S
H411 C409 0.950 . S
H412 C396 0.951 . S
H413 C398 0.951 . S
H414 C400 0.951 . S
H415 C401 0.950 . S
H416 C402 0.950 . S
H417 C403 0.950 . S
H418 C405 0.950 . S
H419 C406 0.951 . S
C420 C421 1.386 1_655 S
C420 C422 1.383 . S
C420 H436 0.951 . S
C421 C420 1.386 1_455 S
C421 C425 1.383 . S
C422 C420 1.383 . S
C422 C423 1.400 1_655 S
C422 H437 0.952 . S
C423 C422 1.400 1_455 S
C423 C424 1.375 . S
C423 C426 1.481 . S
C424 C423 1.375 . S
C424 C425 1.367 . S
C424 H438 0.951 . S
C425 C421 1.383 . S
C425 C424 1.367 . S
C425 H439 0.950 . S
C426 C423 1.481 . S
C426 C427 1.297 . S
C426 H440 0.950 . S
C427 C426 1.297 . S
C427 C428 1.479 . S
C427 H441 0.950 1_455 S
C428 C427 1.479 . S
C428 C429 1.375 1_455 S
C428 C434 1.404 . S
C429 C428 1.375 1_655 S
C429 C430 1.369 1_655 S
C429 H442 0.950 . S
C430 C429 1.369 1_455 S
C430 C431 1.392 . S
C430 H443 0.951 1_455 S
C431 C430 1.392 . S
C431 C433 1.384 . S
H432 C434 0.949 . S
C433 C431 1.384 . S
C433 C434 1.385 . S
C433 H435 0.950 . S
C434 C428 1.404 . S
C434 H432 0.949 . S
C434 C433 1.385 . S
H435 C433 0.950 . S
H436 C420 0.951 . S
H437 C422 0.952 . S
H438 C424 0.951 . S
H439 C425 0.950 . S
H440 C426 0.950 . S
H441 C427 0.950 1_655 S
H442 C429 0.950 . S
H443 C430 0.951 1_655 S
C444 C445 1.386 . S
C444 C446 1.383 . S
C444 H460 0.951 . S
C445 C444 1.386 . S
C445 C449 1.383 1_545 S
C446 C444 1.383 . S
C446 C447 1.402 . S
C446 H461 0.951 . S
C447 C446 1.402 . S
C447 C448 1.375 1_545 S
C447 C450 1.481 . S
C448 C447 1.375 1_565 S
C448 C449 1.367 . S
C448 H462 0.951 . S
C449 C445 1.383 1_565 S
C449 C448 1.367 . S
C449 H463 0.950 . S
C450 C447 1.481 . S
C450 C451 1.297 . S
C450 H464 0.950 1_545 S
C451 C450 1.297 . S
C451 C452 1.479 . S
C451 H465 0.950 1_455 S
C452 C451 1.479 . S
C452 C453 1.375 1_455 S
C452 C458 1.404 . S
C453 C452 1.375 1_655 S
C453 C454 1.369 . S
C453 H466 0.950 . S
C454 C453 1.369 . S
C454 C455 1.392 1_655 S
C454 H467 0.951 . S
C455 C454 1.392 1_455 S
C455 C457 1.384 . S
H456 C458 0.949 1_565 S
C457 C455 1.384 . S
C457 C458 1.385 . S
C457 H459 0.950 . S
C458 C452 1.404 . S
C458 H456 0.949 1_545 S
C458 C457 1.385 . S
H459 C457 0.950 . S
H460 C444 0.951 . S
H461 C446 0.951 . S
H462 C448 0.951 . S
H463 C449 0.950 . S
H464 C450 0.950 1_565 S
H465 C451 0.950 1_655 S
H466 C453 0.950 . S
H467 C454 0.951 . S
C253 C56 4.242 . S
C263 C67 4.248 . S
C277 C151 2.577 . S
C287 C140 2.557 . S
C301 C237 0.559 . S
C311 C226 0.800 . S
C325 C224 2.541 . S
C335 C235 2.547 . S
C349 C58 0.785 . S
C359 C69 0.560 . S
C373 C153 1.358 . S
C383 C142 1.270 . S
C397 C158 1.522 . S
C407 C63 1.511 1_655 S
C421 C147 1.601 . S
C431 C231 1.562 . S
C445 C242 1.580 . S
C455 C74 1.538 . S
