# Generated by pormake.
# Topology wjf, (4)-cn, num edge types: 1
# Building blocks:
#     Node 0, Type 0, BuildingBlock: GALJAG_clean_sbu_0, # of connection points: 4
#     Node 1, Type 0, BuildingBlock: GALJAG_clean_sbu_0, # of connection points: 4
#     Node 2, Type 0, BuildingBlock: GALJAG_clean_sbu_0, # of connection points: 4
#     Node 3, Type 0, BuildingBlock: GALJAG_clean_sbu_0, # of connection points: 4
#     Node 4, Type 0, BuildingBlock: GALJAG_clean_sbu_0, # of connection points: 4
#     Node 5, Type 0, BuildingBlock: GALJAG_clean_sbu_0, # of connection points: 4
#     Node 6, Type 0, BuildingBlock: GALJAG_clean_sbu_0, # of connection points: 4
#     Node 7, Type 0, BuildingBlock: GALJAG_clean_sbu_0, # of connection points: 4
#     Node 8, Type 0, BuildingBlock: GALJAG_clean_sbu_0, # of connection points: 4
#     Node 9, Type 0, BuildingBlock: GALJAG_clean_sbu_0, # of connection points: 4
#     Node 10, Type 0, BuildingBlock: GALJAG_clean_sbu_0, # of connection points: 4
#     Node 11, Type 0, BuildingBlock: GALJAG_clean_sbu_0, # of connection points: 4
#     Edge 12, Type (0, 0), BuildingBlock: EZIPEK_clean_linker_0, # of connection points: 2
#     Edge 13, Type (0, 0), BuildingBlock: EZIPEK_clean_linker_0, # of connection points: 2
#     Edge 14, Type (0, 0), BuildingBlock: EZIPEK_clean_linker_0, # of connection points: 2
#     Edge 15, Type (0, 0), BuildingBlock: EZIPEK_clean_linker_0, # of connection points: 2
#     Edge 16, Type (0, 0), BuildingBlock: EZIPEK_clean_linker_0, # of connection points: 2
#     Edge 17, Type (0, 0), BuildingBlock: EZIPEK_clean_linker_0, # of connection points: 2
#     Edge 18, Type (0, 0), BuildingBlock: EZIPEK_clean_linker_0, # of connection points: 2
#     Edge 19, Type (0, 0), BuildingBlock: EZIPEK_clean_linker_0, # of connection points: 2
#     Edge 20, Type (0, 0), BuildingBlock: EZIPEK_clean_linker_0, # of connection points: 2
#     Edge 21, Type (0, 0), BuildingBlock: EZIPEK_clean_linker_0, # of connection points: 2
#     Edge 22, Type (0, 0), BuildingBlock: EZIPEK_clean_linker_0, # of connection points: 2
#     Edge 23, Type (0, 0), BuildingBlock: EZIPEK_clean_linker_0, # of connection points: 2
#     Edge 24, Type (0, 0), BuildingBlock: EZIPEK_clean_linker_0, # of connection points: 2
#     Edge 25, Type (0, 0), BuildingBlock: EZIPEK_clean_linker_0, # of connection points: 2
#     Edge 26, Type (0, 0), BuildingBlock: EZIPEK_clean_linker_0, # of connection points: 2
#     Edge 27, Type (0, 0), BuildingBlock: EZIPEK_clean_linker_0, # of connection points: 2
#     Edge 28, Type (0, 0), BuildingBlock: EZIPEK_clean_linker_0, # of connection points: 2
#     Edge 29, Type (0, 0), BuildingBlock: EZIPEK_clean_linker_0, # of connection points: 2
#     Edge 30, Type (0, 0), BuildingBlock: EZIPEK_clean_linker_0, # of connection points: 2
#     Edge 31, Type (0, 0), BuildingBlock: EZIPEK_clean_linker_0, # of connection points: 2
#     Edge 32, Type (0, 0), BuildingBlock: EZIPEK_clean_linker_0, # of connection points: 2
#     Edge 33, Type (0, 0), BuildingBlock: EZIPEK_clean_linker_0, # of connection points: 2
#     Edge 34, Type (0, 0), BuildingBlock: EZIPEK_clean_linker_0, # of connection points: 2
#     Edge 35, Type (0, 0), BuildingBlock: EZIPEK_clean_linker_0, # of connection points: 2
# Relax obj value: 0.086
# Max RMSD: 0.104
# Mean RMSD: 0.104
data_MOF--net-wjf--node1-GALJAG_clean_sbu_0--edge1-EZIPEK_clean_linker_0
_symmetry_space_group_name_H-M    P1
_symmetry_Int_Tables_number       1
_symmetry_cell_setting            triclinic
loop_
_symmetry_equiv_pos_as_xyz
'x, y, z'
_cell_length_a     36.633591
_cell_length_b     36.603136
_cell_length_c     20.843672
_cell_angle_alpha  89.968677
_cell_angle_beta   90.14846
_cell_angle_gamma 120.02034
loop_
_atom_site_label
_atom_site_type_symbol
_atom_site_fract_x
_atom_site_fract_y
_atom_site_fract_z
_atom_type_partial_charge
In0 In 0.32842 0.37362 0.06855 0.0
O1 O 0.29623 0.41279 0.07288 0.0
O2 O 0.25906 0.34696 0.05013 0.0
C3 C 0.41108 0.42879 0.08018 0.0
C4 C 0.33058 0.35782 0.94342 0.0
C5 C 0.31577 0.33335 0.18079 0.0
O6 O 0.38381 0.44033 0.08209 0.0
O7 O 0.39655 0.38967 0.07396 0.0
O8 O 0.31317 0.315 0.12805 0.0
O9 O 0.32261 0.37061 0.1762 0.0
C10 C 0.26092 0.38225 0.05563 0.0
O11 O 0.32765 0.33166 0.98595 0.0
O12 O 0.33204 0.39071 0.96462 0.0
In13 In 0.94236 0.32784 0.43547 0.0
O14 O 0.98747 0.32762 0.35955 0.0
O15 O 0.93792 0.33906 0.3311 0.0
C16 C 0.96687 0.3145 0.55047 0.0
C17 C 0.86855 0.25878 0.41062 0.0
C18 C 0.96483 0.4091 0.44768 0.0
O19 O 0.98262 0.31046 0.49885 0.0
O20 O 0.93789 0.32325 0.54331 0.0
O21 O 0.92673 0.37996 0.45136 0.0
O22 O 0.99142 0.39716 0.43975 0.0
C23 C 0.96865 0.33488 0.31446 0.0
O24 O 0.87071 0.29305 0.42716 0.0
O25 O 0.90293 0.25867 0.4118 0.0
In26 In 0.60512 0.9342 0.76996 0.0
O27 O 0.56992 0.86395 0.74772 0.0
O28 O 0.63633 0.89517 0.7565 0.0
C29 C 0.54464 0.95516 0.76709 0.0
C30 C 0.64062 0.96631 0.6566 0.0
C31 C 0.63003 0.95208 0.89316 0.0
O32 O 0.53598 0.9171 0.76798 0.0
O33 O 0.5834 0.98224 0.76879 0.0
O34 O 0.65143 0.97616 0.84772 0.0
O35 O 0.59724 0.91861 0.87614 0.0
C36 C 0.60291 0.86119 0.74348 0.0
O37 O 0.66131 0.9803 0.70832 0.0
O38 O 0.60283 0.93755 0.66283 0.0
In39 In 0.664 0.62316 0.07105 0.0
O40 O 0.67141 0.67739 0.0062 0.0
O41 O 0.64139 0.61441 0.96975 0.0
C42 C 0.68015 0.65479 0.19095 0.0
C43 C 0.72886 0.61654 0.028 0.0
C44 C 0.58613 0.55781 0.08933 0.0
O45 O 0.6629 0.66635 0.14935 0.0
O46 O 0.69209 0.63005 0.17059 0.0
O47 O 0.61802 0.55315 0.08685 0.0
O48 O 0.59361 0.59524 0.08408 0.0
C49 C 0.65424 0.65278 0.95899 0.0
O50 O 0.69463 0.58469 0.04512 0.0
O51 O 0.73118 0.65189 0.03573 0.0
In52 In 0.0434 0.66842 0.41682 0.0
O53 O 0.11325 0.69457 0.39773 0.0
O54 O 0.08699 0.73455 0.38171 0.0
C55 C 0.02153 0.58723 0.43485 0.0
C56 C 0.00578 0.6646 0.30445 0.0
C57 C 0.0306 0.68675 0.53689 0.0
O58 O 0.05885 0.61518 0.42133 0.0
O59 O -0.00431 0.60032 0.43996 0.0
O60 O 0.00189 0.67286 0.49478 0.0
O61 O 0.06617 0.69422 0.51704 0.0
C62 C 0.11878 0.7298 0.37878 0.0
O63 O 0.00315 0.68525 0.35114 0.0
O64 O 0.02523 0.6451 0.31588 0.0
In65 In 0.37087 0.04253 0.73845 0.0
O66 O 0.31433 0.00708 0.67074 0.0
O67 O 0.37638 0.03711 0.63161 0.0
C68 C 0.33695 0.01944 0.85614 0.0
C69 C 0.38808 0.12162 0.71761 0.0
C70 C 0.42583 0.01441 0.74554 0.0
O71 O 0.31762 -0.00069 0.80638 0.0
O72 O 0.37209 0.05205 0.84622 0.0
O73 O 0.43768 0.05326 0.74412 0.0
O74 O 0.38652 0.98977 0.74278 0.0
C75 C 0.33726 0.01627 0.62136 0.0
O76 O 0.41681 0.11313 0.72973 0.0
O77 O 0.35092 0.09099 0.72141 0.0
In78 In 0.61558 0.67053 0.56579 0.0
O79 O 0.57832 0.70474 0.56751 0.0
O80 O 0.64495 0.74052 0.57748 0.0
C81 C 0.56248 0.58739 0.5552 0.0
C82 C 0.63038 0.67037 0.69152 0.0
C83 C 0.65466 0.68246 0.45333 0.0
O84 O 0.54986 0.61379 0.54979 0.0
O85 O 0.60152 0.60309 0.56454 0.0
O86 O 0.67346 0.68522 0.50581 0.0
O87 O 0.61737 0.67552 0.4582 0.0
C88 C 0.61046 0.74062 0.57792 0.0
O89 O 0.65692 0.6728 0.65018 0.0
O90 O 0.59745 0.66822 0.66885 0.0
In91 In 0.94827 0.62429 0.91142 0.0
O92 O 0.87714 0.58498 0.90269 0.0
O93 O 0.90496 0.65065 0.92573 0.0
C94 C 0.97179 0.56561 0.90755 0.0
C95 C 0.96625 0.64424 0.03622 0.0
C96 C 0.97686 0.66365 0.79863 0.0
O97 O 0.9335 0.55588 0.90595 0.0
O98 O -0.00214 0.60458 0.91032 0.0
O99 O 0.99155 0.68277 0.85124 0.0
O100 O 0.94751 0.62594 0.80349 0.0
C101 C 0.87177 0.61525 0.9191 0.0
O102 O 0.99234 0.66589 0.99276 0.0
O103 O 0.93207 0.61411 0.01595 0.0
In104 In 0.32351 0.95014 0.24301 0.0
O105 O 0.29915 0.88029 0.25823 0.0
O106 O 0.25536 0.90286 0.26269 0.0
C107 C 0.40513 0.97249 0.23953 0.0
C108 C 0.31587 0.97888 0.3575 0.0
C109 C 0.31342 0.96973 0.12199 0.0
O110 O 0.37615 0.93456 0.23364 0.0
O111 O 0.39309 -0.00097 0.24637 0.0
O112 O 0.32812 -0.0029 0.16602 0.0
O113 O 0.30141 0.93259 0.14012 0.0
C114 C 0.26193 0.8723 0.2692 0.0
O115 O 0.30219 0.98729 0.30701 0.0
O116 O 0.33377 0.95753 0.34936 0.0
In117 In 0.38111 0.32886 0.56199 0.0
O118 O 0.42147 0.29934 0.58411 0.0
O119 O 0.35476 0.26225 0.59851 0.0
C120 C 0.44266 0.40892 0.54442 0.0
C121 C 0.35193 0.33661 0.67553 0.0
C122 C 0.34838 0.31127 0.44259 0.0
O123 O 0.45025 0.37887 0.54792 0.0
O124 O 0.40432 0.39848 0.54816 0.0
O125 O 0.33555 0.32689 0.48487 0.0
O126 O 0.37513 0.3017 0.46207 0.0
C127 C 0.39047 0.26506 0.60332 0.0
O128 O 0.32697 0.31902 0.62879 0.0
O129 O 0.39036 0.3508 0.66366 0.0
In130 In 0.04125 0.37828 0.9279 0.0
O131 O 0.99324 0.3314 -0.00027 0.0
O132 O 0.04115 0.39207 0.0323 0.0
C133 C 0.01878 0.34116 0.81195 0.0
C134 C 0.1146 0.38291 0.95692 0.0
C135 C 0.02201 0.43921 0.91227 0.0
O136 O 0.0028 0.32092 0.86315 0.0
O137 O 0.0471 0.37912 0.81997 0.0
O138 O 0.05974 0.44694 0.9131 0.0
O139 O -0.00591 0.40086 0.91799 0.0
C140 C 0.01014 0.35666 0.0463 0.0
O141 O 0.11241 0.41517 0.94169 0.0
O142 O 0.08047 0.34827 0.9532 0.0
In143 In 0.65955 0.03642 0.27384 0.0
O144 O 0.68971 0.10488 0.30514 0.0
O145 O 0.73022 0.08209 0.27482 0.0
C146 C 0.58027 0.0203 0.261 0.0
C147 C 0.66139 0.00813 0.392 0.0
C148 C 0.6631 0.00695 0.15717 0.0
O149 O 0.61144 0.05683 0.25163 0.0
O150 O 0.5892 0.99243 0.27723 0.0
O151 O 0.65888 0.98597 0.20765 0.0
O152 O 0.66711 0.04286 0.16599 0.0
C153 C 0.72693 0.11186 0.29917 0.0
O154 O 0.63984 0.02494 0.37717 0.0
O155 O 0.68077 0.00295 0.34583 0.0
C156 C 0.28743 0.30127 0.28875 0.0
C157 C 0.32056 0.31727 0.24338 0.0
C158 C 0.37145 0.32884 0.32793 0.0
C159 C 0.33815 0.31065 0.37347 0.0
N160 N 0.26343 0.27115 0.39463 0.0
N161 N 0.39146 0.33493 0.21634 0.0
C162 C 0.29571 0.29423 0.35309 0.0
C163 C 0.36156 0.32679 0.26187 0.0
N164 N 0.24843 0.29382 0.27065 0.0
N165 N 0.4126 0.3515 0.34752 0.0
H166 H 0.38535 0.33382 0.16731 0.0
H167 H 0.42075 0.33821 0.22709 0.0
H168 H 0.42192 0.35721 0.3954 0.0
H169 H 0.43743 0.3691 0.31618 0.0
H170 H 0.22417 0.28679 0.30299 0.0
H171 H 0.24113 0.29682 0.22319 0.0
H172 H 0.23183 0.2553 0.38096 0.0
H173 H 0.26846 0.26455 0.44146 0.0
C174 C 0.95057 0.29 0.66363 0.0
C175 C 0.98144 0.31107 0.6156 0.0
C176 C 0.03617 0.33497 0.69836 0.0
C177 C 0.00497 0.32341 0.74645 0.0
N178 N 0.93079 0.29215 0.77314 0.0
N179 N 0.05504 0.35714 0.58858 0.0
C180 C 0.96159 0.30072 0.72904 0.0
C181 C 0.0248 0.33388 0.63292 0.0
N182 N 0.91066 0.25981 0.64657 0.0
N183 N 0.07668 0.34694 0.71532 0.0
H184 H 0.04875 0.35855 0.54025 0.0
H185 H 0.08629 0.37807 0.60102 0.0
H186 H 0.0856 0.34668 0.76286 0.0
H187 H 0.09996 0.35229 0.68191 0.0
H188 H 0.88782 0.24086 0.67993 0.0
H189 H 0.90209 0.25054 0.59897 0.0
H190 H 0.89926 0.28005 0.76049 0.0
H191 H 0.93661 0.30034 0.82135 0.0
C192 C 0.67903 0.97596 0.9891 0.0
C193 C 0.63917 0.96457 0.96165 0.0
C194 C 0.61355 0.97151 0.0667 0.0
C195 C 0.65467 0.98804 0.09229 0.0
N196 N 0.72785 0.00961 0.07785 0.0
N197 N 0.57196 0.96156 0.97158 0.0
C198 C 0.68787 0.99124 0.05351 0.0
C199 C 0.60723 0.96481 -0.00024 0.0
N200 N 0.7078 0.97088 0.95446 0.0
N201 N 0.58035 0.96187 0.10648 0.0
H202 H 0.56726 0.95959 0.92209 0.0
H203 H 0.54976 0.96584 0.9965 0.0
H204 H 0.58372 0.96596 0.15604 0.0
H205 H 0.54906 0.94593 0.09112 0.0
H206 H 0.73576 0.97475 0.9738 0.0
H207 H 0.70213 0.95932 0.90759 0.0
H208 H 0.7543 0.0172 0.05007 0.0
H209 H 0.73482 0.01954 0.12549 0.0
C210 C 0.69523 0.70566 0.28204 0.0
C211 C 0.67982 0.66366 0.26028 0.0
C212 C 0.66198 0.63803 0.37074 0.0
C213 C 0.67089 0.67864 0.39048 0.0
N214 N 0.69426 0.75125 0.36597 0.0
N215 N 0.64037 0.58862 0.28306 0.0
C216 C 0.6873 0.71265 0.34647 0.0
C217 C 0.66152 0.62946 0.30443 0.0
N218 N 0.71819 0.73873 0.24161 0.0
N219 N 0.6531 0.60731 0.41532 0.0
H220 H 0.63643 0.58016 0.2348 0.0
H221 H 0.62244 0.56299 0.31298 0.0
H222 H 0.6528 0.61236 0.46448 0.0
H223 H 0.65041 0.57833 0.40401 0.0
H224 H 0.73345 0.77015 0.25624 0.0
H225 H 0.72519 0.7346 0.19461 0.0
H226 H 0.70155 0.77613 0.33462 0.0
H227 H 0.69062 0.75764 0.4136 0.0
C228 C 0.02665 0.66671 0.71643 0.0
C229 C -0.00195 0.67967 0.73643 0.0
C230 C -0.00119 0.7065 0.62838 0.0
C231 C 0.02159 0.68697 0.60624 0.0
N232 N 0.04915 0.64022 0.62849 0.0
N233 N 0.95501 0.71045 0.71251 0.0
C234 C 0.03395 0.66533 0.65012 0.0
C235 C 0.98378 0.6995 0.69279 0.0
N236 N 0.04621 0.65487 0.7609 0.0
N237 N 0.99236 0.73232 0.58837 0.0
H238 H 0.945 0.70727 0.76008 0.0
H239 H 0.93965 0.72062 0.68136 0.0
H240 H 0.00369 0.73866 0.54144 0.0
H241 H 0.97919 0.75034 0.60333 0.0
H242 H 0.07033 0.64879 0.74933 0.0
H243 H 0.04152 0.65559 0.8101 0.0
H244 H 0.05428 0.62039 0.65837 0.0
H245 H 0.05193 0.63505 0.58013 0.0
C246 C 0.33329 0.96378 0.00922 0.0
C247 C 0.31598 0.98079 0.05298 0.0
C248 C 0.31005 0.02262 0.96569 0.0
C249 C 0.32379 0.00252 0.92164 0.0
N250 N 0.33768 0.94585 0.89927 0.0
N251 N 0.28019 0.02019 0.07051 0.0
C252 C 0.33145 0.97017 0.94263 0.0
C253 C 0.30212 0.00852 0.03061 0.0
N254 N 0.35476 0.94454 0.03102 0.0
N255 N 0.30501 0.05537 0.94563 0.0
H256 H 0.27281 0.00951 0.11767 0.0
H257 H 0.26596 0.03718 0.05517 0.0
H258 H 0.30847 0.06491 0.89776 0.0
H259 H 0.29974 0.07443 0.9769 0.0
H260 H 0.37159 0.93564 0.00083 0.0
H261 H 0.36048 0.94224 0.07942 0.0
H262 H 0.33922 0.91917 0.91244 0.0
H263 H 0.33744 0.94983 0.84983 0.0
C264 C 0.15184 0.36971 0.04685 0.0
C265 C 0.15316 0.38579 0.98427 0.0
C266 C 0.22826 0.40892 0.97666 0.0
C267 C 0.22539 0.38775 0.03528 0.0
N268 N 0.18429 0.3454 0.12455 0.0
N269 N 0.19072 0.41597 0.8859 0.0
C270 C 0.18708 0.36734 0.06989 0.0
C271 C 0.19098 0.40456 0.94835 0.0
N272 N 0.1177 0.35855 0.08543 0.0
N273 N 0.26646 0.43294 0.94765 0.0
H274 H 0.16386 0.41268 0.86311 0.0
H275 H 0.21603 0.42519 0.8548 0.0
H276 H 0.2945 0.43615 0.96537 0.0
H277 H 0.27105 0.45271 0.90886 0.0
H278 H 0.11667 0.35062 0.13363 0.0
H279 H 0.09182 0.36115 0.07127 0.0
H280 H 0.15588 0.32536 0.14731 0.0
H281 H 0.21023 0.3454 0.14537 0.0
C282 C 0.81619 0.18201 0.41244 0.0
C283 C 0.82972 0.22223 0.38547 0.0
C284 C 0.7738 0.19042 0.30413 0.0
C285 C 0.76333 0.14983 0.32692 0.0
N286 N 0.77846 0.10646 0.39787 0.0
N287 N 0.8263 0.26456 0.29901 0.0
C288 C 0.7858 0.14543 0.37941 0.0
C289 C 0.80963 0.22657 0.32987 0.0
N290 N 0.83117 0.1789 0.47117 0.0
N291 N 0.74988 0.1945 0.25727 0.0
H292 H 0.85274 0.2919 0.31529 0.0
H293 H 0.81611 0.26835 0.25412 0.0
H294 H 0.72553 0.16881 0.23334 0.0
H295 H 0.7526 0.2233 0.24466 0.0
H296 H 0.81911 0.15079 0.4968 0.0
H297 H 0.85273 0.2052 0.49748 0.0
H298 H 0.79768 0.10205 0.43009 0.0
H299 H 0.75484 0.07829 0.37846 0.0
C300 C 0.56599 0.79204 0.68308 0.0
C301 C 0.60376 0.82569 0.70913 0.0
C302 C 0.64494 0.81087 0.63221 0.0
C303 C 0.60759 0.77626 0.60774 0.0
N304 N 0.53282 0.74576 0.59214 0.0
N305 N 0.67829 0.85312 0.72579 0.0
C306 C 0.56801 0.77015 0.62803 0.0
C307 C 0.6431 0.83118 0.68873 0.0
N308 N 0.52861 0.7787 0.71398 0.0
N309 N 0.68194 0.82582 0.59954 0.0
H310 H 0.67697 0.86311 0.77214 0.0
H311 H 0.70711 0.8554 0.71475 0.0
H312 H 0.68323 0.81432 0.55427 0.0
H313 H 0.7095 0.85316 0.61296 0.0
H314 H 0.50052 0.75215 0.70013 0.0
H315 H 0.52696 0.79041 0.75884 0.0
H316 H 0.50355 0.74277 0.60166 0.0
H317 H 0.53438 0.73362 0.54762 0.0
C318 C 0.77593 0.62849 0.9342 0.0
C319 C 0.76287 0.61254 0.99719 0.0
C320 C 0.81342 0.58747 -0.00074 0.0
C321 C 0.83071 0.60903 0.94055 0.0
N322 N 0.83042 0.65198 0.85313 0.0
N323 N 0.77216 0.58145 0.0934 0.0
C324 C 0.81249 0.6301 0.90825 0.0
C325 C 0.78204 0.5928 0.03052 0.0
N326 N 0.75235 0.6404 0.89827 0.0
N327 N 0.8271 0.56222 0.02567 0.0
H328 H 0.74978 0.58541 0.11848 0.0
H329 H 0.78875 0.57167 0.1226 0.0
H330 H 0.85071 0.55794 0.0058 0.0
H331 H 0.81234 0.54227 0.06442 0.0
H332 H 0.75802 0.64859 0.84999 0.0
H333 H 0.72448 0.63814 0.91488 0.0
H334 H 0.82183 0.67231 0.83172 0.0
H335 H 0.85551 0.65144 0.83044 0.0
C336 C 0.15788 0.7701 0.28221 0.0
C337 C 0.15822 0.76184 0.34862 0.0
C338 C 0.23136 0.81907 0.35726 0.0
C339 C 0.22871 0.83117 0.29335 0.0
N340 N 0.19014 0.8195 0.1945 0.0
N341 N 0.19348 0.77863 0.45105 0.0
C342 C 0.19221 0.80688 0.25552 0.0
C343 C 0.19471 0.7859 0.38649 0.0
N344 N 0.12519 0.74205 0.24452 0.0
N345 N 0.2686 0.83967 0.39031 0.0
H346 H 0.16737 0.75411 0.47381 0.0
H347 H 0.21709 0.79838 0.4829 0.0
H348 H 0.29564 0.86551 0.37207 0.0
H349 H 0.27372 0.82948 0.43429 0.0
H350 H 0.12471 0.74412 0.19475 0.0
H351 H 0.09995 0.71431 0.26249 0.0
H352 H 0.16257 0.80642 0.16732 0.0
H353 H 0.2158 0.84463 0.17185 0.0
C354 C 0.41402 0.17625 0.63108 0.0
C355 C 0.39654 0.16301 0.69337 0.0
C356 C 0.38418 0.22266 0.70064 0.0
C357 C 0.39573 0.23199 0.63519 0.0
N358 N 0.41872 0.21653 0.53587 0.0
N359 N 0.36408 0.17226 0.78766 0.0
C360 C 0.41054 0.20895 0.6 0.0
C361 C 0.3815 0.18596 0.72833 0.0
N362 N 0.43325 0.15717 0.60105 0.0
N363 N 0.37719 0.24973 0.7368 0.0
H364 H 0.36448 0.14737 0.81146 0.0
H365 H 0.34755 0.1842 0.81208 0.0
H366 H 0.38001 0.27751 0.71844 0.0
H367 H 0.37247 0.2469 0.78619 0.0
H368 H 0.45069 0.1686 0.55908 0.0
H369 H 0.43448 0.1315 0.62001 0.0
H370 H 0.42441 0.19734 0.50558 0.0
H371 H 0.41669 0.24035 0.51148 0.0
C372 C 0.31179 0.30624 0.77826 0.0
C373 C 0.33891 0.34173 0.74028 0.0
C374 C 0.36235 0.38644 0.83558 0.0
C375 C 0.33318 0.35175 0.87353 0.0
N376 N 0.272 0.2817 0.87685 0.0
N377 N 0.38007 0.41726 0.72961 0.0
C378 C 0.30542 0.31245 0.84375 0.0
C379 C 0.3608 0.38238 0.76804 0.0
N380 N 0.29369 0.26649 0.75308 0.0
N381 N 0.39334 0.4225 0.86361 0.0
H382 H 0.37871 0.41532 0.6796 0.0
H383 H 0.39323 0.44796 0.74715 0.0
H384 H 0.39759 0.42673 0.91297 0.0
H385 H 0.41789 0.4466 0.83774 0.0
H386 H 0.2779 0.23934 0.78097 0.0
H387 H 0.29715 0.26048 0.70528 0.0
H388 H 0.24867 0.25411 0.85535 0.0
H389 H 0.26497 0.28558 0.9239 0.0
C390 C 0.98694 0.37625 0.21364 0.0
C391 C 0.98172 0.34011 0.24663 0.0
C392 C -0.00523 0.31321 0.14684 0.0
C393 C -0.00478 0.34715 0.11313 0.0
N394 N 0.98099 0.40474 0.11217 0.0
N395 N 0.97285 0.27014 0.24282 0.0
C396 C 0.988 0.37678 0.14591 0.0
C397 C 0.98351 0.30737 0.21287 0.0
N398 N 0.99259 0.41083 0.24711 0.0
N399 N 0.00676 0.2877 0.11691 0.0
H400 H 0.96413 0.26446 0.29094 0.0
H401 H 0.96923 0.24366 0.21849 0.0
H402 H 0.01515 0.2908 0.06863 0.0
H403 H 0.01164 0.26564 0.1413 0.0
H404 H 0.00015 0.43937 0.22527 0.0
H405 H -0.00543 0.41255 0.29706 0.0
H406 H 0.97196 0.42466 0.13374 0.0
H407 H 0.97956 0.40462 0.06215 0.0
C408 C 0.65717 0.95146 0.54764 0.0
C409 C 0.65824 0.98127 0.59212 0.0
C410 C 0.67594 0.03241 0.50577 0.0
C411 C 0.66639 -0.0001 0.46013 0.0
N412 N 0.64625 0.9275 0.4373 0.0
N413 N 0.66699 0.04981 0.61446 0.0
C414 C 0.65742 0.95931 0.4808 0.0
C415 C 0.66803 0.02201 0.57174 0.0
N416 N 0.65578 0.91562 0.56973 0.0
N417 N 0.69286 0.07334 0.48606 0.0
H418 H 0.66215 0.04374 0.66349 0.0
H419 H 0.66823 0.07777 0.60076 0.0
H420 H 0.69897 0.08236 0.43811 0.0
H421 H 0.70462 0.09883 0.5176 0.0
H422 H 0.65857 0.89421 0.54021 0.0
H423 H 0.65611 0.90958 0.61862 0.0
H424 H 0.63463 0.89613 0.45029 0.0
H425 H 0.64563 0.93171 0.38797 0.0
C426 C 0.67548 0.69903 0.79075 0.0
C427 C 0.63646 0.66967 0.76179 0.0
C428 C 0.60706 0.64298 0.86815 0.0
C429 C 0.64787 0.66599 0.89504 0.0
N430 N 0.72239 0.71427 0.88146 0.0
N431 N 0.56624 0.60894 0.77372 0.0
C432 C 0.68254 0.694 0.85649 0.0
C433 C 0.60232 0.6406 0.80069 0.0
N434 N 0.70509 0.73262 0.75648 0.0
N435 N 0.57272 0.62332 0.90744 0.0
H436 H 0.5613 0.60431 0.72454 0.0
H437 H 0.5427 0.58438 0.80035 0.0
H438 H 0.5753 0.62526 0.95739 0.0
H439 H 0.54179 0.60926 0.89067 0.0
H440 H 0.73234 0.75703 0.77712 0.0
H441 H 0.70038 0.73858 0.70915 0.0
H442 H 0.74927 0.7308 0.85332 0.0
H443 H 0.72889 0.71222 0.92959 0.0
C444 C 0.00566 0.69834 0.19908 0.0
C445 C 0.9882 0.66256 0.2399 0.0
C446 C 0.9598 0.61591 0.14765 0.0
C447 C 0.97466 0.65143 0.10618 0.0
N448 N 0.00165 0.72653 0.09581 0.0
N449 N 0.93656 0.58959 0.25488 0.0
C450 C -0.00534 0.69281 0.13276 0.0
C451 C 0.96108 0.62213 0.2146 0.0
N452 N 0.03387 0.73722 0.2228 0.0
N453 N 0.94718 0.57651 0.12394 0.0
H454 H 0.93599 0.59406 0.30428 0.0
H455 H 0.91363 0.55993 0.2385 0.0
H456 H 0.94924 0.57042 0.0757 0.0
H457 H 0.93967 0.55068 0.15341 0.0
H458 H 0.05146 0.76337 0.19361 0.0
H459 H 0.04165 0.74268 0.27134 0.0
H460 H 0.01267 0.75666 0.11454 0.0
H461 H 0.99227 0.72368 0.04798 0.0
C462 C 0.33167 0.03224 0.44434 0.0
C463 C 0.30948 0.98988 0.42299 0.0
C464 C 0.29644 0.96435 0.53381 0.0
C465 C 0.32051 0.00664 0.55519 0.0
N466 N 0.34821 0.08052 0.53367 0.0
N467 N 0.259 0.91728 0.44519 0.0
C468 C 0.33385 0.04055 0.51118 0.0
C469 C 0.28778 0.95647 0.46727 0.0
N470 N 0.3527 0.06421 0.40134 0.0
N471 N 0.28428 0.93177 0.57613 0.0
H472 H 0.25163 0.91126 0.39653 0.0
H473 H 0.23958 0.89219 0.47504 0.0
H474 H 0.28973 0.93626 0.62536 0.0
H475 H 0.2711 0.90038 0.56201 0.0
H476 H 0.37369 0.09522 0.41481 0.0
H477 H 0.35082 0.05927 0.35189 0.0
H478 H 0.35535 0.10621 0.50416 0.0
H479 H 0.34874 0.08703 0.5825 0.0
C480 C 0.48411 0.46242 0.03445 0.0
C481 C 0.45683 0.459 0.08535 0.0
C482 C 0.51609 0.51668 0.1433 0.0
C483 C 0.5426 0.52184 0.09045 0.0
N484 N 0.55156 0.50426 0.9822 0.0
N485 N 0.44752 0.47543 0.19386 0.0
C486 C 0.52674 0.49554 0.03549 0.0
C487 C 0.47297 0.48425 0.14136 0.0
N488 N 0.46953 0.43375 0.98531 0.0
N489 N 0.53211 0.54353 0.19459 0.0
H490 H 0.41625 0.45096 0.19475 0.0
H491 H 0.45775 0.48985 0.23838 0.0
H492 H 0.56399 0.56602 0.19904 0.0
H493 H 0.514 0.54501 0.23172 0.0
H494 H 0.48902 0.43113 0.95164 0.0
H495 H 0.43821 0.41015 0.98027 0.0
H496 H 0.54028 0.49032 0.9376 0.0
H497 H 0.58307 0.528 0.98053 0.0
C498 C 0.02304 0.52608 0.48722 0.0
C499 C 0.00773 0.5417 0.4379 0.0
C500 C 0.96436 0.47011 0.39468 0.0
C501 C 0.9775 0.45424 0.44652 0.0
N502 N 0.01416 0.46516 0.54699 0.0
N503 N 0.96276 0.52929 0.34597 0.0
C504 C 0.00559 0.48173 0.49404 0.0
C505 C 0.97784 0.51382 0.39232 0.0
N506 N 0.05445 0.55363 0.52719 0.0
N507 N 0.94104 0.44382 0.34562 0.0
H508 H 0.97576 0.56139 0.33706 0.0
H509 H 0.93647 0.5105 0.31767 0.0
H510 H 0.93003 0.4115 0.3454 0.0
H511 H 0.93501 0.45421 0.30253 0.0
H512 H 0.07028 0.54468 0.55943 0.0
H513 H 0.06696 0.58618 0.52525 0.0
H514 H 0.03082 0.48291 0.58675 0.0
H515 H 0.00153 0.4328 0.55376 0.0
C516 C 0.5116 0.98909 0.70335 0.0
C517 C 0.51221 0.96767 0.75993 0.0
C518 C 0.45824 0.97965 0.80838 0.0
C519 C 0.45582 -0.00127 0.75053 0.0
N520 N 0.47485 0.01624 0.63959 0.0
N521 N 0.48155 0.93607 0.86191 0.0
C522 C 0.48113 0.0021 0.69706 0.0
C523 C 0.48391 0.96072 0.81098 0.0
N524 N 0.54021 -0.00296 0.65563 0.0
N525 N 0.43765 0.98159 0.86178 0.0
H526 H 0.50053 0.92248 0.86638 0.0
H527 H 0.45849 0.92624 0.89723 0.0
H528 H 0.41967 -0.00356 0.86199 0.0
H529 H 0.44143 0.9721 0.90722 0.0
H530 H 0.54514 0.01721 0.61728 0.0
H531 H 0.5607 0.98502 0.65564 0.0
H532 H 0.48882 0.01504 0.59683 0.0
H533 H 0.45304 0.02637 0.63338 0.0
C534 C 0.51045 0.52353 0.49334 0.0
C535 C 0.5337 0.5412 0.55073 0.0
C536 C 0.50044 0.47117 0.6009 0.0
C537 C 0.47622 0.45369 0.54433 0.0
N538 N 0.45517 0.46202 0.43827 0.0
N539 N 0.55738 0.53144 0.65448 0.0
C540 C 0.48051 0.47955 0.49083 0.0
C541 C 0.53075 0.51488 0.60301 0.0
N542 N 0.51904 0.54842 0.4401 0.0
N543 N 0.49225 0.44656 0.65443 0.0
H544 H 0.57843 0.56349 0.66054 0.0
H545 H 0.56091 0.51322 0.68961 0.0
H546 H 0.47093 0.41425 0.65511 0.0
H547 H 0.50412 0.45841 0.69984 0.0
H548 H 0.50648 0.53714 0.39481 0.0
H549 H 0.54164 0.58043 0.43961 0.0
H550 H 0.45274 0.47935 0.40062 0.0
H551 H 0.43472 0.42964 0.43337 0.0
C552 C 0.97579 0.5061 0.85473 0.0
C553 C 0.9854 0.53376 0.90793 0.0
C554 C 0.01943 0.4995 0.96352 0.0
C555 C 0.0111 0.4729 0.9095 0.0
N556 N 0.98704 0.45369 0.80063 0.0
N557 N 0.02026 0.56054 0.00996 0.0
C558 C 0.99064 0.47682 0.85429 0.0
C559 C 0.00858 0.53171 0.96127 0.0
N560 N 0.9527 0.50805 0.80451 0.0
N561 N 0.03584 0.49259 0.01823 0.0
H562 H 0.0102 0.58251 0.01344 0.0
H563 H 0.04189 0.56442 0.04555 0.0
H564 H 0.04533 0.47015 0.02143 0.0
H565 H 0.03746 0.50689 0.0621 0.0
H566 H 0.94016 0.48569 0.76802 0.0
H567 H 0.94434 0.53132 0.80031 0.0
H568 H 0.97638 0.45781 0.7564 0.0
H569 H -0.00231 0.43207 0.7988 0.0
C570 C 0.52008 0.01517 0.19592 0.0
C571 C 0.5361 0.01056 0.25562 0.0
C572 C 0.46546 0.97779 0.30253 0.0
C573 C 0.44994 0.98477 0.24418 0.0
N574 N 0.46227 0.0148 0.13807 0.0
N575 N 0.52647 0.99591 0.36909 0.0
C576 C 0.47725 0.00505 0.1917 0.0
C577 C 0.50943 0.99407 0.30987 0.0
N578 N 0.54516 0.0273 0.14265 0.0
N579 N 0.43814 0.95544 0.3509 0.0
H580 H 0.55875 0.00885 0.37677 0.0
H581 H 0.50935 0.98853 0.41157 0.0
H582 H 0.40587 0.94461 0.34872 0.0
H583 H 0.44689 0.94498 0.39143 0.0
H584 H 0.53399 0.02636 0.09636 0.0
H585 H 0.57678 0.0354 0.14379 0.0
H586 H 0.48151 0.03376 0.10114 0.0
H587 H 0.43066 0.00614 0.13219 0.0
loop_
_geom_bond_atom_site_label_1
_geom_bond_atom_site_label_2
_geom_bond_distance
_geom_bond_site_symmetry_2
_ccdc_geom_bond_type
In0 O1 2.294 . S
In0 O2 2.326 . S
In0 O6 2.266 . S
In0 O7 2.326 . S
In0 O8 2.266 . S
In0 O9 2.326 . S
In0 O11 2.294 . S
In0 O12 2.326 1_554 S
O1 In0 2.294 . S
O1 C10 1.240 . S
O2 In0 2.326 . S
O2 C10 1.252 . S
C3 O6 1.252 . S
C3 O7 1.260 . S
C4 O11 1.240 1_556 S
C4 O12 1.252 . S
C5 O8 1.252 . S
C5 O9 1.260 . S
O6 In0 2.266 . S
O6 C3 1.252 . S
O7 In0 2.326 . S
O7 C3 1.260 . S
O8 In0 2.266 . S
O8 C5 1.252 . S
O9 In0 2.326 . S
O9 C5 1.260 . S
C10 O1 1.240 . S
C10 O2 1.252 . S
O11 In0 2.294 . S
O11 C4 1.240 1_554 S
O12 In0 2.326 1_556 S
O12 C4 1.252 . S
In13 O14 2.294 1_655 S
In13 O15 2.326 . S
In13 O19 2.266 1_655 S
In13 O20 2.326 . S
In13 O21 2.266 . S
In13 O22 2.326 1_655 S
In13 O24 2.294 . S
In13 O25 2.326 . S
O14 In13 2.294 1_455 S
O14 C23 1.240 1_455 S
O15 In13 2.326 . S
O15 C23 1.252 . S
C16 O19 1.252 1_655 S
C16 O20 1.260 . S
C17 O24 1.240 . S
C17 O25 1.252 . S
C18 O21 1.252 . S
C18 O22 1.260 1_655 S
O19 In13 2.266 1_455 S
O19 C16 1.252 1_455 S
O20 In13 2.326 . S
O20 C16 1.260 . S
O21 In13 2.266 . S
O21 C18 1.252 . S
O22 In13 2.326 1_455 S
O22 C18 1.260 1_455 S
C23 O14 1.240 1_655 S
C23 O15 1.252 . S
O24 In13 2.294 . S
O24 C17 1.240 . S
O25 In13 2.326 . S
O25 C17 1.252 . S
In26 O27 2.294 . S
In26 O28 2.326 . S
In26 O32 2.266 . S
In26 O33 2.326 1_565 S
In26 O34 2.266 1_565 S
In26 O35 2.326 . S
In26 O37 2.294 1_565 S
In26 O38 2.326 . S
O27 In26 2.294 . S
O27 C36 1.240 . S
O28 In26 2.326 . S
O28 C36 1.252 . S
C29 O32 1.252 . S
C29 O33 1.260 1_565 S
C30 O37 1.240 1_565 S
C30 O38 1.252 . S
C31 O34 1.252 1_565 S
C31 O35 1.260 . S
O32 In26 2.266 . S
O32 C29 1.252 . S
O33 In26 2.326 1_545 S
O33 C29 1.260 1_545 S
O34 In26 2.266 1_545 S
O34 C31 1.252 1_545 S
O35 In26 2.326 . S
O35 C31 1.260 . S
C36 O27 1.240 . S
C36 O28 1.252 . S
O37 In26 2.294 1_545 S
O37 C30 1.240 1_545 S
O38 In26 2.326 . S
O38 C30 1.252 . S
In39 O40 2.294 . S
In39 O41 2.326 1_554 S
In39 O45 2.266 . S
In39 O46 2.326 . S
In39 O47 2.266 . S
In39 O48 2.326 . S
In39 O50 2.294 . S
In39 O51 2.326 . S
O40 In39 2.294 . S
O40 C49 1.240 1_554 S
O41 In39 2.326 1_556 S
O41 C49 1.252 . S
C42 O45 1.252 . S
C42 O46 1.260 . S
C43 O50 1.240 . S
C43 O51 1.252 . S
C44 O47 1.252 . S
C44 O48 1.260 . S
O45 In39 2.266 . S
O45 C42 1.252 . S
O46 In39 2.326 . S
O46 C42 1.260 . S
O47 In39 2.266 . S
O47 C44 1.252 . S
O48 In39 2.326 . S
O48 C44 1.260 . S
C49 O40 1.240 1_556 S
C49 O41 1.252 . S
O50 In39 2.294 . S
O50 C43 1.240 . S
O51 In39 2.326 . S
O51 C43 1.252 . S
In52 O53 2.294 . S
In52 O54 2.326 . S
In52 O58 2.266 . S
In52 O59 2.326 1_455 S
In52 O60 2.266 1_455 S
In52 O61 2.326 . S
In52 O63 2.294 1_455 S
In52 O64 2.326 . S
O53 In52 2.294 . S
O53 C62 1.240 . S
O54 In52 2.326 . S
O54 C62 1.252 . S
C55 O58 1.252 . S
C55 O59 1.260 1_455 S
C56 O63 1.240 1_455 S
C56 O64 1.252 . S
C57 O60 1.252 1_455 S
C57 O61 1.260 . S
O58 In52 2.266 . S
O58 C55 1.252 . S
O59 In52 2.326 1_655 S
O59 C55 1.260 1_655 S
O60 In52 2.266 1_655 S
O60 C57 1.252 1_655 S
O61 In52 2.326 . S
O61 C57 1.260 . S
C62 O53 1.240 . S
C62 O54 1.252 . S
O63 In52 2.294 1_655 S
O63 C56 1.240 1_655 S
O64 In52 2.326 . S
O64 C56 1.252 . S
In65 O66 2.294 1_545 S
In65 O67 2.326 . S
In65 O71 2.266 1_545 S
In65 O72 2.326 . S
In65 O73 2.266 . S
In65 O74 2.326 1_545 S
In65 O76 2.294 . S
In65 O77 2.326 . S
O66 In65 2.294 1_565 S
O66 C75 1.240 1_565 S
O67 In65 2.326 . S
O67 C75 1.252 . S
C68 O71 1.252 1_545 S
C68 O72 1.260 . S
C69 O76 1.240 . S
C69 O77 1.252 . S
C70 O73 1.252 . S
C70 O74 1.260 1_545 S
O71 In65 2.266 1_565 S
O71 C68 1.252 1_565 S
O72 In65 2.326 . S
O72 C68 1.260 . S
O73 In65 2.266 . S
O73 C70 1.252 . S
O74 In65 2.326 1_565 S
O74 C70 1.260 1_565 S
C75 O66 1.240 1_545 S
C75 O67 1.252 . S
O76 In65 2.294 . S
O76 C69 1.240 . S
O77 In65 2.326 . S
O77 C69 1.252 . S
In78 O79 2.294 . S
In78 O80 2.326 . S
In78 O84 2.266 . S
In78 O85 2.326 . S
In78 O86 2.266 . S
In78 O87 2.326 . S
In78 O89 2.294 . S
In78 O90 2.326 . S
O79 In78 2.294 . S
O79 C88 1.240 . S
O80 In78 2.326 . S
O80 C88 1.252 . S
C81 O84 1.252 . S
C81 O85 1.260 . S
C82 O89 1.240 . S
C82 O90 1.252 . S
C83 O86 1.252 . S
C83 O87 1.260 . S
O84 In78 2.266 . S
O84 C81 1.252 . S
O85 In78 2.326 . S
O85 C81 1.260 . S
O86 In78 2.266 . S
O86 C83 1.252 . S
O87 In78 2.326 . S
O87 C83 1.260 . S
C88 O79 1.240 . S
C88 O80 1.252 . S
O89 In78 2.294 . S
O89 C82 1.240 . S
O90 In78 2.326 . S
O90 C82 1.252 . S
In91 O92 2.294 . S
In91 O93 2.326 . S
In91 O97 2.266 . S
In91 O98 2.326 1_655 S
In91 O99 2.266 1_655 S
In91 O100 2.326 . S
In91 O102 2.294 1_655 S
In91 O103 2.326 1_556 S
O92 In91 2.294 . S
O92 C101 1.240 . S
O93 In91 2.326 . S
O93 C101 1.252 . S
C94 O97 1.252 . S
C94 O98 1.260 1_655 S
C95 O102 1.240 1_654 S
C95 O103 1.252 . S
C96 O99 1.252 1_655 S
C96 O100 1.260 . S
O97 In91 2.266 . S
O97 C94 1.252 . S
O98 In91 2.326 1_455 S
O98 C94 1.260 1_455 S
O99 In91 2.266 1_455 S
O99 C96 1.252 1_455 S
O100 In91 2.326 . S
O100 C96 1.260 . S
C101 O92 1.240 . S
C101 O93 1.252 . S
O102 In91 2.294 1_455 S
O102 C95 1.240 1_456 S
O103 In91 2.326 1_554 S
O103 C95 1.252 . S
In104 O105 2.294 . S
In104 O106 2.326 . S
In104 O110 2.266 . S
In104 O111 2.326 1_565 S
In104 O112 2.266 1_565 S
In104 O113 2.326 . S
In104 O115 2.294 1_565 S
In104 O116 2.326 . S
O105 In104 2.294 . S
O105 C114 1.240 . S
O106 In104 2.326 . S
O106 C114 1.252 . S
C107 O110 1.252 . S
C107 O111 1.260 1_565 S
C108 O115 1.240 1_565 S
C108 O116 1.252 . S
C109 O112 1.252 1_565 S
C109 O113 1.260 . S
O110 In104 2.266 . S
O110 C107 1.252 . S
O111 In104 2.326 1_545 S
O111 C107 1.260 1_545 S
O112 In104 2.266 1_545 S
O112 C109 1.252 1_545 S
O113 In104 2.326 . S
O113 C109 1.260 . S
C114 O105 1.240 . S
C114 O106 1.252 . S
O115 In104 2.294 1_545 S
O115 C108 1.240 1_545 S
O116 In104 2.326 . S
O116 C108 1.252 . S
In117 O118 2.294 . S
In117 O119 2.326 . S
In117 O123 2.266 . S
In117 O124 2.326 . S
In117 O125 2.266 . S
In117 O126 2.326 . S
In117 O128 2.294 . S
In117 O129 2.326 . S
O118 In117 2.294 . S
O118 C127 1.240 . S
O119 In117 2.326 . S
O119 C127 1.252 . S
C120 O123 1.252 . S
C120 O124 1.260 . S
C121 O128 1.240 . S
C121 O129 1.252 . S
C122 O125 1.252 . S
C122 O126 1.260 . S
O123 In117 2.266 . S
O123 C120 1.252 . S
O124 In117 2.326 . S
O124 C120 1.260 . S
O125 In117 2.266 . S
O125 C122 1.252 . S
O126 In117 2.326 . S
O126 C122 1.260 . S
C127 O118 1.240 . S
C127 O119 1.252 . S
O128 In117 2.294 . S
O128 C121 1.240 . S
O129 In117 2.326 . S
O129 C121 1.252 . S
In130 O131 2.294 1_455 S
In130 O132 2.326 1_556 S
In130 O136 2.266 1_455 S
In130 O137 2.326 . S
In130 O138 2.266 . S
In130 O139 2.326 1_455 S
In130 O141 2.294 . S
In130 O142 2.326 . S
O131 In130 2.294 1_655 S
O131 C140 1.240 1_656 S
O132 In130 2.326 1_554 S
O132 C140 1.252 . S
C133 O136 1.252 1_455 S
C133 O137 1.260 . S
C134 O141 1.240 . S
C134 O142 1.252 . S
C135 O138 1.252 . S
C135 O139 1.260 1_455 S
O136 In130 2.266 1_655 S
O136 C133 1.252 1_655 S
O137 In130 2.326 . S
O137 C133 1.260 . S
O138 In130 2.266 . S
O138 C135 1.252 . S
O139 In130 2.326 1_655 S
O139 C135 1.260 1_655 S
C140 O131 1.240 1_454 S
C140 O132 1.252 . S
O141 In130 2.294 . S
O141 C134 1.240 . S
O142 In130 2.326 . S
O142 C134 1.252 . S
In143 O144 2.294 . S
In143 O145 2.326 . S
In143 O149 2.266 . S
In143 O150 2.326 1_545 S
In143 O151 2.266 1_545 S
In143 O152 2.326 . S
In143 O154 2.294 1_545 S
In143 O155 2.326 . S
O144 In143 2.294 . S
O144 C153 1.240 . S
O145 In143 2.326 . S
O145 C153 1.252 . S
C146 O149 1.252 . S
C146 O150 1.260 1_545 S
C147 O154 1.240 1_545 S
C147 O155 1.252 . S
C148 O151 1.252 1_545 S
C148 O152 1.260 . S
O149 In143 2.266 . S
O149 C146 1.252 . S
O150 In143 2.326 1_565 S
O150 C146 1.260 1_565 S
O151 In143 2.266 1_565 S
O151 C148 1.252 1_565 S
O152 In143 2.326 . S
O152 C148 1.260 . S
C153 O144 1.240 . S
C153 O145 1.252 . S
O154 In143 2.294 1_565 S
O154 C147 1.240 1_565 S
O155 In143 2.326 . S
O155 C147 1.252 . S
C156 C157 1.363 . S
C156 C162 1.379 . S
C156 N164 1.356 . S
C157 C156 1.363 . S
C157 C163 1.363 . S
C158 C159 1.363 . S
C158 C163 1.379 . S
C158 N165 1.356 . S
C159 C158 1.363 . S
C159 C162 1.363 . S
N160 C162 1.356 . S
N160 H172 0.984 . S
N160 H173 0.985 . S
N161 C163 1.356 . S
N161 H166 0.984 . S
N161 H167 0.985 . S
C162 C156 1.379 . S
C162 C159 1.363 . S
C162 N160 1.356 . S
C163 C157 1.363 . S
C163 C158 1.379 . S
C163 N161 1.356 . S
N164 C156 1.356 . S
N164 H170 0.984 . S
N164 H171 0.984 . S
N165 C158 1.356 . S
N165 H168 0.984 . S
N165 H169 0.985 . S
H166 N161 0.984 . S
H167 N161 0.985 . S
H168 N165 0.984 . S
H169 N165 0.985 . S
H170 N164 0.984 . S
H171 N164 0.984 . S
H172 N160 0.984 . S
H173 N160 0.985 . S
C174 C175 1.363 . S
C174 C180 1.379 . S
C174 N182 1.356 . S
C175 C174 1.363 . S
C175 C181 1.363 1_655 S
C176 C177 1.363 . S
C176 C181 1.379 . S
C176 N183 1.356 . S
C177 C176 1.363 . S
C177 C180 1.363 1_455 S
N178 C180 1.356 . S
N178 H190 0.984 . S
N178 H191 0.985 . S
N179 C181 1.356 . S
N179 H184 0.984 . S
N179 H185 0.985 . S
C180 C174 1.379 . S
C180 C177 1.363 1_655 S
C180 N178 1.356 . S
C181 C175 1.363 1_455 S
C181 C176 1.379 . S
C181 N179 1.356 . S
N182 C174 1.356 . S
N182 H188 0.984 . S
N182 H189 0.984 . S
N183 C176 1.356 . S
N183 H186 0.984 . S
N183 H187 0.985 . S
H184 N179 0.984 . S
H185 N179 0.985 . S
H186 N183 0.984 . S
H187 N183 0.985 . S
H188 N182 0.984 . S
H189 N182 0.984 . S
H190 N178 0.984 . S
H191 N178 0.985 . S
C192 C193 1.363 1_545 S
C192 C198 1.379 1_556 S
C192 N200 1.356 . S
C193 C192 1.363 1_565 S
C193 C199 1.363 . S
C194 C195 1.363 1_565 S
C194 C199 1.379 1_554 S
C194 N201 1.356 . S
C195 C194 1.363 1_545 S
C195 C198 1.363 . S
N196 C198 1.356 . S
N196 H208 0.984 . S
N196 H209 0.985 . S
N197 C199 1.356 . S
N197 H202 0.984 . S
N197 H203 0.985 . S
C198 C192 1.379 1_554 S
C198 C195 1.363 . S
C198 N196 1.356 . S
C199 C193 1.363 . S
C199 C194 1.379 1_556 S
C199 N197 1.356 . S
N200 C192 1.356 . S
N200 H206 0.984 . S
N200 H207 0.984 . S
N201 C194 1.356 . S
N201 H204 0.984 . S
N201 H205 0.985 . S
H202 N197 0.984 . S
H203 N197 0.985 . S
H204 N201 0.984 . S
H205 N201 0.985 . S
H206 N200 0.984 . S
H207 N200 0.984 . S
H208 N196 0.984 . S
H209 N196 0.985 . S
C210 C211 1.363 . S
C210 C216 1.379 . S
C210 N218 1.356 . S
C211 C210 1.363 . S
C211 C217 1.363 . S
C212 C213 1.363 . S
C212 C217 1.379 . S
C212 N219 1.356 . S
C213 C212 1.363 . S
C213 C216 1.363 . S
N214 C216 1.356 . S
N214 H226 0.984 . S
N214 H227 0.985 . S
N215 C217 1.356 . S
N215 H220 0.984 . S
N215 H221 0.985 . S
C216 C210 1.379 . S
C216 C213 1.363 . S
C216 N214 1.356 . S
C217 C211 1.363 . S
C217 C212 1.379 . S
C217 N215 1.356 . S
N218 C210 1.356 . S
N218 H224 0.984 . S
N218 H225 0.984 . S
N219 C212 1.356 . S
N219 H222 0.984 . S
N219 H223 0.985 . S
H220 N215 0.984 . S
H221 N215 0.985 . S
H222 N219 0.984 . S
H223 N219 0.985 . S
H224 N218 0.984 . S
H225 N218 0.984 . S
H226 N214 0.984 . S
H227 N214 0.985 . S
C228 C229 1.363 1_455 S
C228 C234 1.379 . S
C228 N236 1.356 . S
C229 C228 1.363 1_655 S
C229 C235 1.363 . S
C230 C231 1.363 1_655 S
C230 C235 1.379 . S
C230 N237 1.356 . S
C231 C230 1.363 1_455 S
C231 C234 1.363 . S
N232 C234 1.356 . S
N232 H244 0.984 . S
N232 H245 0.985 . S
N233 C235 1.356 . S
N233 H238 0.984 . S
N233 H239 0.985 . S
C234 C228 1.379 . S
C234 C231 1.363 . S
C234 N232 1.356 . S
C235 C229 1.363 . S
C235 C230 1.379 . S
C235 N233 1.356 . S
N236 C228 1.356 . S
N236 H242 0.984 . S
N236 H243 0.984 . S
N237 C230 1.356 . S
N237 H240 0.984 . S
N237 H241 0.985 . S
H238 N233 0.984 . S
H239 N233 0.985 . S
H240 N237 0.984 . S
H241 N237 0.985 . S
H242 N236 0.984 . S
H243 N236 0.984 . S
H244 N232 0.984 . S
H245 N232 0.985 . S
C246 C247 1.363 . S
C246 C252 1.379 1_554 S
C246 N254 1.356 . S
C247 C246 1.363 . S
C247 C253 1.363 1_565 S
C248 C249 1.363 . S
C248 C253 1.379 1_556 S
C248 N255 1.356 . S
C249 C248 1.363 . S
C249 C252 1.363 1_545 S
N250 C252 1.356 . S
N250 H262 0.984 . S
N250 H263 0.985 . S
N251 C253 1.356 . S
N251 H256 0.984 . S
N251 H257 0.985 . S
C252 C246 1.379 1_556 S
C252 C249 1.363 1_565 S
C252 N250 1.356 . S
C253 C247 1.363 1_545 S
C253 C248 1.379 1_554 S
C253 N251 1.356 . S
N254 C246 1.356 . S
N254 H260 0.984 . S
N254 H261 0.984 . S
N255 C248 1.356 . S
N255 H258 0.984 . S
N255 H259 0.985 . S
H256 N251 0.984 . S
H257 N251 0.985 . S
H258 N255 0.984 . S
H259 N255 0.985 . S
H260 N254 0.984 . S
H261 N254 0.984 . S
H262 N250 0.984 . S
H263 N250 0.985 . S
C264 C265 1.363 1_554 S
C264 C270 1.379 . S
C264 N272 1.356 . S
C265 C264 1.363 1_556 S
C265 C271 1.363 . S
C266 C267 1.363 1_556 S
C266 C271 1.379 . S
C266 N273 1.356 . S
C267 C266 1.363 1_554 S
C267 C270 1.363 . S
N268 C270 1.356 . S
N268 H280 0.984 . S
N268 H281 0.985 . S
N269 C271 1.356 . S
N269 H274 0.984 . S
N269 H275 0.985 . S
C270 C264 1.379 . S
C270 C267 1.363 . S
C270 N268 1.356 . S
C271 C265 1.363 . S
C271 C266 1.379 . S
C271 N269 1.356 . S
N272 C264 1.356 . S
N272 H278 0.984 . S
N272 H279 0.984 1_554 S
N273 C266 1.356 . S
N273 H276 0.984 1_556 S
N273 H277 0.985 . S
H274 N269 0.984 . S
H275 N269 0.985 . S
H276 N273 0.984 1_554 S
H277 N273 0.985 . S
H278 N272 0.984 . S
H279 N272 0.984 1_556 S
H280 N268 0.984 . S
H281 N268 0.985 . S
C282 C283 1.363 . S
C282 C288 1.379 . S
C282 N290 1.356 . S
C283 C282 1.363 . S
C283 C289 1.363 . S
C284 C285 1.363 . S
C284 C289 1.379 . S
C284 N291 1.356 . S
C285 C284 1.363 . S
C285 C288 1.363 . S
N286 C288 1.356 . S
N286 H298 0.984 . S
N286 H299 0.985 . S
N287 C289 1.356 . S
N287 H292 0.984 . S
N287 H293 0.985 . S
C288 C282 1.379 . S
C288 C285 1.363 . S
C288 N286 1.356 . S
C289 C283 1.363 . S
C289 C284 1.379 . S
C289 N287 1.356 . S
N290 C282 1.356 . S
N290 H296 0.984 . S
N290 H297 0.984 . S
N291 C284 1.356 . S
N291 H294 0.984 . S
N291 H295 0.985 . S
H292 N287 0.984 . S
H293 N287 0.985 . S
H294 N291 0.984 . S
H295 N291 0.985 . S
H296 N290 0.984 . S
H297 N290 0.984 . S
H298 N286 0.984 . S
H299 N286 0.985 . S
C300 C301 1.363 . S
C300 C306 1.379 . S
C300 N308 1.356 . S
C301 C300 1.363 . S
C301 C307 1.363 . S
C302 C303 1.363 . S
C302 C307 1.379 . S
C302 N309 1.356 . S
C303 C302 1.363 . S
C303 C306 1.363 . S
N304 C306 1.356 . S
N304 H316 0.984 . S
N304 H317 0.985 . S
N305 C307 1.356 . S
N305 H310 0.984 . S
N305 H311 0.985 . S
C306 C300 1.379 . S
C306 C303 1.363 . S
C306 N304 1.356 . S
C307 C301 1.363 . S
C307 C302 1.379 . S
C307 N305 1.356 . S
N308 C300 1.356 . S
N308 H314 0.984 . S
N308 H315 0.984 . S
N309 C302 1.356 . S
N309 H312 0.984 . S
N309 H313 0.985 . S
H310 N305 0.984 . S
H311 N305 0.985 . S
H312 N309 0.984 . S
H313 N309 0.985 . S
H314 N308 0.984 . S
H315 N308 0.984 . S
H316 N304 0.984 . S
H317 N304 0.985 . S
C318 C319 1.363 1_556 S
C318 C324 1.379 . S
C318 N326 1.356 . S
C319 C318 1.363 1_554 S
C319 C325 1.363 . S
C320 C321 1.363 1_554 S
C320 C325 1.379 . S
C320 N327 1.356 . S
C321 C320 1.363 1_556 S
C321 C324 1.363 . S
N322 C324 1.356 . S
N322 H334 0.984 . S
N322 H335 0.985 . S
N323 C325 1.356 . S
N323 H328 0.984 . S
N323 H329 0.985 . S
C324 C318 1.379 . S
C324 C321 1.363 . S
C324 N322 1.356 . S
C325 C319 1.363 . S
C325 C320 1.379 . S
C325 N323 1.356 . S
N326 C318 1.356 . S
N326 H332 0.984 . S
N326 H333 0.984 1_556 S
N327 C320 1.356 . S
N327 H330 0.984 1_554 S
N327 H331 0.985 . S
H328 N323 0.984 . S
H329 N323 0.985 . S
H330 N327 0.984 1_556 S
H331 N327 0.985 . S
H332 N326 0.984 . S
H333 N326 0.984 1_554 S
H334 N322 0.984 . S
H335 N322 0.985 . S
C336 C337 1.363 . S
C336 C342 1.379 . S
C336 N344 1.356 . S
C337 C336 1.363 . S
C337 C343 1.363 . S
C338 C339 1.363 . S
C338 C343 1.379 . S
C338 N345 1.356 . S
C339 C338 1.363 . S
C339 C342 1.363 . S
N340 C342 1.356 . S
N340 H352 0.984 . S
N340 H353 0.985 . S
N341 C343 1.356 . S
N341 H346 0.984 . S
N341 H347 0.985 . S
C342 C336 1.379 . S
C342 C339 1.363 . S
C342 N340 1.356 . S
C343 C337 1.363 . S
C343 C338 1.379 . S
C343 N341 1.356 . S
N344 C336 1.356 . S
N344 H350 0.984 . S
N344 H351 0.984 . S
N345 C338 1.356 . S
N345 H348 0.984 . S
N345 H349 0.985 . S
H346 N341 0.984 . S
H347 N341 0.985 . S
H348 N345 0.984 . S
H349 N345 0.985 . S
H350 N344 0.984 . S
H351 N344 0.984 . S
H352 N340 0.984 . S
H353 N340 0.985 . S
C354 C355 1.363 . S
C354 C360 1.379 . S
C354 N362 1.356 . S
C355 C354 1.363 . S
C355 C361 1.363 . S
C356 C357 1.363 . S
C356 C361 1.379 . S
C356 N363 1.356 . S
C357 C356 1.363 . S
C357 C360 1.363 . S
N358 C360 1.356 . S
N358 H370 0.984 . S
N358 H371 0.985 . S
N359 C361 1.356 . S
N359 H364 0.984 . S
N359 H365 0.985 . S
C360 C354 1.379 . S
C360 C357 1.363 . S
C360 N358 1.356 . S
C361 C355 1.363 . S
C361 C356 1.379 . S
C361 N359 1.356 . S
N362 C354 1.356 . S
N362 H368 0.984 . S
N362 H369 0.984 . S
N363 C356 1.356 . S
N363 H366 0.984 . S
N363 H367 0.985 . S
H364 N359 0.984 . S
H365 N359 0.985 . S
H366 N363 0.984 . S
H367 N363 0.985 . S
H368 N362 0.984 . S
H369 N362 0.984 . S
H370 N358 0.984 . S
H371 N358 0.985 . S
C372 C373 1.363 . S
C372 C378 1.379 . S
C372 N380 1.356 . S
C373 C372 1.363 . S
C373 C379 1.363 . S
C374 C375 1.363 . S
C374 C379 1.379 . S
C374 N381 1.356 . S
C375 C374 1.363 . S
C375 C378 1.363 . S
N376 C378 1.356 . S
N376 H388 0.984 . S
N376 H389 0.985 . S
N377 C379 1.356 . S
N377 H382 0.984 . S
N377 H383 0.985 . S
C378 C372 1.379 . S
C378 C375 1.363 . S
C378 N376 1.356 . S
C379 C373 1.363 . S
C379 C374 1.379 . S
C379 N377 1.356 . S
N380 C372 1.356 . S
N380 H386 0.984 . S
N380 H387 0.984 . S
N381 C374 1.356 . S
N381 H384 0.984 . S
N381 H385 0.985 . S
H382 N377 0.984 . S
H383 N377 0.985 . S
H384 N381 0.984 . S
H385 N381 0.985 . S
H386 N380 0.984 . S
H387 N380 0.984 . S
H388 N376 0.984 . S
H389 N376 0.985 . S
C390 C391 1.363 1_655 S
C390 C396 1.379 . S
C390 N398 1.356 . S
C391 C390 1.363 1_455 S
C391 C397 1.363 . S
C392 C393 1.363 1_455 S
C392 C397 1.379 . S
C392 N399 1.356 . S
C393 C392 1.363 1_655 S
C393 C396 1.363 . S
N394 C396 1.356 . S
N394 H406 0.984 . S
N394 H407 0.985 . S
N395 C397 1.356 . S
N395 H400 0.984 . S
N395 H401 0.985 . S
C396 C390 1.379 . S
C396 C393 1.363 . S
C396 N394 1.356 . S
C397 C391 1.363 . S
C397 C392 1.379 . S
C397 N395 1.356 . S
N398 C390 1.356 . S
N398 H404 0.984 . S
N398 H405 0.986 . S
N399 C392 1.356 . S
N399 H402 0.986 . S
N399 H403 0.985 . S
H400 N395 0.984 . S
H401 N395 0.985 . S
H402 N399 0.986 . S
H403 N399 0.985 . S
H404 N398 0.984 . S
H405 N398 0.986 . S
H406 N394 0.984 . S
H407 N394 0.985 . S
C408 C409 1.363 1_565 S
C408 C414 1.379 . S
C408 N416 1.356 . S
C409 C408 1.363 1_545 S
C409 C415 1.363 . S
C410 C411 1.363 1_545 S
C410 C415 1.379 . S
C410 N417 1.356 . S
C411 C410 1.363 1_565 S
C411 C414 1.363 . S
N412 C414 1.356 . S
N412 H424 0.984 . S
N412 H425 0.985 . S
N413 C415 1.356 . S
N413 H418 0.984 . S
N413 H419 0.985 . S
C414 C408 1.379 . S
C414 C411 1.363 . S
C414 N412 1.356 . S
C415 C409 1.363 . S
C415 C410 1.379 . S
C415 N413 1.356 . S
N416 C408 1.356 . S
N416 H422 0.984 . S
N416 H423 0.984 . S
N417 C410 1.356 . S
N417 H420 0.984 . S
N417 H421 0.985 . S
H418 N413 0.984 . S
H419 N413 0.985 . S
H420 N417 0.984 . S
H421 N417 0.985 . S
H422 N416 0.984 . S
H423 N416 0.984 . S
H424 N412 0.984 . S
H425 N412 0.985 . S
C426 C427 1.363 . S
C426 C432 1.379 . S
C426 N434 1.356 . S
C427 C426 1.363 . S
C427 C433 1.363 . S
C428 C429 1.363 . S
C428 C433 1.379 . S
C428 N435 1.356 . S
C429 C428 1.363 . S
C429 C432 1.363 . S
N430 C432 1.356 . S
N430 H442 0.984 . S
N430 H443 0.985 . S
N431 C433 1.356 . S
N431 H436 0.984 . S
N431 H437 0.985 . S
C432 C426 1.379 . S
C432 C429 1.363 . S
C432 N430 1.356 . S
C433 C427 1.363 . S
C433 C428 1.379 . S
C433 N431 1.356 . S
N434 C426 1.356 . S
N434 H440 0.984 . S
N434 H441 0.984 . S
N435 C428 1.356 . S
N435 H438 0.984 . S
N435 H439 0.985 . S
H436 N431 0.984 . S
H437 N431 0.985 . S
H438 N435 0.984 . S
H439 N435 0.985 . S
H440 N434 0.984 . S
H441 N434 0.984 . S
H442 N430 0.984 . S
H443 N430 0.985 . S
C444 C445 1.363 . S
C444 C450 1.379 . S
C444 N452 1.356 . S
C445 C444 1.363 . S
C445 C451 1.363 1_655 S
C446 C447 1.363 . S
C446 C451 1.379 . S
C446 N453 1.356 . S
C447 C446 1.363 . S
C447 C450 1.363 1_455 S
N448 C450 1.356 . S
N448 H460 0.984 . S
N448 H461 0.985 . S
N449 C451 1.356 . S
N449 H454 0.984 . S
N449 H455 0.985 . S
C450 C444 1.379 . S
C450 C447 1.363 1_655 S
C450 N448 1.356 . S
C451 C445 1.363 1_455 S
C451 C446 1.379 . S
C451 N449 1.356 . S
N452 C444 1.356 . S
N452 H458 0.984 . S
N452 H459 0.984 . S
N453 C446 1.356 . S
N453 H456 0.984 . S
N453 H457 0.985 . S
H454 N449 0.984 . S
H455 N449 0.985 . S
H456 N453 0.984 . S
H457 N453 0.985 . S
H458 N452 0.984 . S
H459 N452 0.984 . S
H460 N448 0.984 . S
H461 N448 0.985 . S
C462 C463 1.363 . S
C462 C468 1.379 . S
C462 N470 1.356 . S
C463 C462 1.363 . S
C463 C469 1.363 1_545 S
C464 C465 1.363 . S
C464 C469 1.379 . S
C464 N471 1.356 . S
C465 C464 1.363 . S
C465 C468 1.363 1_565 S
N466 C468 1.356 . S
N466 H478 0.984 . S
N466 H479 0.985 . S
N467 C469 1.356 . S
N467 H472 0.984 . S
N467 H473 0.985 . S
C468 C462 1.379 . S
C468 C465 1.363 1_545 S
C468 N466 1.356 . S
C469 C463 1.363 1_565 S
C469 C464 1.379 . S
C469 N467 1.356 . S
N470 C462 1.356 . S
N470 H476 0.984 . S
N470 H477 0.984 . S
N471 C464 1.356 . S
N471 H474 0.984 . S
N471 H475 0.985 . S
H472 N467 0.984 . S
H473 N467 0.985 . S
H474 N471 0.984 . S
H475 N471 0.985 . S
H476 N470 0.984 . S
H477 N470 0.984 . S
H478 N466 0.984 . S
H479 N466 0.985 . S
C480 C481 1.363 . S
C480 C486 1.379 . S
C480 N488 1.356 . S
C481 C480 1.363 . S
C481 C487 1.363 . S
C482 C483 1.363 . S
C482 C487 1.379 . S
C482 N489 1.356 . S
C483 C482 1.363 . S
C483 C486 1.363 . S
N484 C486 1.356 . S
N484 H496 0.984 1_554 S
N484 H497 0.985 . S
N485 C487 1.356 . S
N485 H490 0.984 . S
N485 H491 0.985 . S
C486 C480 1.379 . S
C486 C483 1.363 . S
C486 N484 1.356 . S
C487 C481 1.363 . S
C487 C482 1.379 . S
C487 N485 1.356 . S
N488 C480 1.356 . S
N488 H494 0.984 1_554 S
N488 H495 0.984 . S
N489 C482 1.356 . S
N489 H492 0.984 . S
N489 H493 0.985 . S
H490 N485 0.984 . S
H491 N485 0.985 . S
H492 N489 0.984 . S
H493 N489 0.985 . S
H494 N488 0.984 1_556 S
H495 N488 0.984 . S
H496 N484 0.984 1_556 S
H497 N484 0.985 . S
C498 C499 1.363 . S
C498 C504 1.379 . S
C498 N506 1.356 . S
C499 C498 1.363 . S
C499 C505 1.363 1_455 S
C500 C501 1.363 . S
C500 C505 1.379 . S
C500 N507 1.356 . S
C501 C500 1.363 . S
C501 C504 1.363 1_655 S
N502 C504 1.356 . S
N502 H514 0.984 . S
N502 H515 0.985 . S
N503 C505 1.356 . S
N503 H508 0.984 . S
N503 H509 0.985 . S
C504 C498 1.379 . S
C504 C501 1.363 1_455 S
C504 N502 1.356 . S
C505 C499 1.363 1_655 S
C505 C500 1.379 . S
C505 N503 1.356 . S
N506 C498 1.356 . S
N506 H512 0.984 . S
N506 H513 0.984 . S
N507 C500 1.356 . S
N507 H510 0.984 . S
N507 H511 0.985 . S
H508 N503 0.984 . S
H509 N503 0.985 . S
H510 N507 0.984 . S
H511 N507 0.985 . S
H512 N506 0.984 . S
H513 N506 0.984 . S
H514 N502 0.984 . S
H515 N502 0.985 . S
C516 C517 1.363 1_545 S
C516 C522 1.379 . S
C516 N524 1.356 . S
C517 C516 1.363 1_565 S
C517 C523 1.363 . S
C518 C519 1.363 1_565 S
C518 C523 1.379 . S
C518 N525 1.356 . S
C519 C518 1.363 1_545 S
C519 C522 1.363 . S
N520 C522 1.356 . S
N520 H532 0.984 . S
N520 H533 0.985 . S
N521 C523 1.356 . S
N521 H526 0.984 . S
N521 H527 0.985 . S
C522 C516 1.379 . S
C522 C519 1.363 . S
C522 N520 1.356 . S
C523 C517 1.363 . S
C523 C518 1.379 . S
C523 N521 1.356 . S
N524 C516 1.356 . S
N524 H530 0.984 . S
N524 H531 0.984 . S
N525 C518 1.356 . S
N525 H528 0.984 . S
N525 H529 0.985 . S
H526 N521 0.984 . S
H527 N521 0.985 . S
H528 N525 0.984 . S
H529 N525 0.985 . S
H530 N524 0.984 . S
H531 N524 0.984 . S
H532 N520 0.984 . S
H533 N520 0.985 . S
C534 C535 1.363 . S
C534 C540 1.379 . S
C534 N542 1.356 . S
C535 C534 1.363 . S
C535 C541 1.363 . S
C536 C537 1.363 . S
C536 C541 1.379 . S
C536 N543 1.356 . S
C537 C536 1.363 . S
C537 C540 1.363 . S
N538 C540 1.356 . S
N538 H550 0.984 . S
N538 H551 0.985 . S
N539 C541 1.356 . S
N539 H544 0.984 . S
N539 H545 0.985 . S
C540 C534 1.379 . S
C540 C537 1.363 . S
C540 N538 1.356 . S
C541 C535 1.363 . S
C541 C536 1.379 . S
C541 N539 1.356 . S
N542 C534 1.356 . S
N542 H548 0.984 . S
N542 H549 0.984 . S
N543 C536 1.356 . S
N543 H546 0.984 . S
N543 H547 0.985 . S
H544 N539 0.984 . S
H545 N539 0.985 . S
H546 N543 0.984 . S
H547 N543 0.985 . S
H548 N542 0.984 . S
H549 N542 0.984 . S
H550 N538 0.984 . S
H551 N538 0.985 . S
C552 C553 1.363 . S
C552 C558 1.379 . S
C552 N560 1.356 . S
C553 C552 1.363 . S
C553 C559 1.363 1_655 S
C554 C555 1.363 . S
C554 C559 1.379 . S
C554 N561 1.356 . S
C555 C554 1.363 . S
C555 C558 1.363 1_455 S
N556 C558 1.356 . S
N556 H568 0.984 . S
N556 H569 0.985 . S
N557 C559 1.356 . S
N557 H562 0.984 . S
N557 H563 0.985 1_556 S
C558 C552 1.379 . S
C558 C555 1.363 1_655 S
C558 N556 1.356 . S
C559 C553 1.363 1_455 S
C559 C554 1.379 . S
C559 N557 1.356 . S
N560 C552 1.356 . S
N560 H566 0.984 . S
N560 H567 0.984 . S
N561 C554 1.356 . S
N561 H564 0.984 . S
N561 H565 0.985 1_556 S
H562 N557 0.984 . S
H563 N557 0.985 1_554 S
H564 N561 0.984 . S
H565 N561 0.985 1_554 S
H566 N560 0.984 . S
H567 N560 0.984 . S
H568 N556 0.984 . S
H569 N556 0.985 . S
C570 C571 1.363 . S
C570 C576 1.379 . S
C570 N578 1.356 . S
C571 C570 1.363 . S
C571 C577 1.363 1_545 S
C572 C573 1.363 . S
C572 C577 1.379 . S
C572 N579 1.356 . S
C573 C572 1.363 . S
C573 C576 1.363 1_565 S
N574 C576 1.356 . S
N574 H586 0.984 . S
N574 H587 0.985 . S
N575 C577 1.356 . S
N575 H580 0.984 . S
N575 H581 0.985 . S
C576 C570 1.379 . S
C576 C573 1.363 1_545 S
C576 N574 1.356 . S
C577 C571 1.363 1_565 S
C577 C572 1.379 . S
C577 N575 1.356 . S
N578 C570 1.356 . S
N578 H584 0.984 . S
N578 H585 0.984 . S
N579 C572 1.356 . S
N579 H582 0.984 . S
N579 H583 0.985 . S
H580 N575 0.984 . S
H581 N575 0.985 . S
H582 N579 0.984 . S
H583 N579 0.985 . S
H584 N578 0.984 . S
H585 N578 0.984 . S
H586 N574 0.984 . S
H587 N574 0.985 . S
C157 C5 1.455 . S
C159 C122 1.455 . S
C175 C16 1.455 . S
C177 C133 1.455 . S
C193 C31 1.455 . S
C195 C148 1.455 . S
C211 C42 1.455 . S
C213 C83 1.455 . S
C229 C96 1.455 . S
C231 C57 1.455 . S
C247 C109 1.455 . S
C249 C68 1.455 . S
C265 C134 1.598 . S
C267 C10 1.598 . S
C283 C17 1.598 . S
C285 C153 1.598 . S
C301 C36 1.598 . S
C303 C88 1.598 . S
C319 C43 1.598 . S
C321 C101 1.598 . S
C337 C62 1.598 . S
C339 C114 1.598 . S
C355 C69 1.598 . S
C357 C127 1.598 . S
C373 C121 1.261 . S
C375 C4 1.261 . S
C391 C23 1.261 1_455 S
C393 C140 1.261 1_655 S
C409 C30 1.261 1_545 S
C411 C147 1.261 1_565 S
C427 C82 1.261 . S
C429 C49 1.261 . S
C445 C56 1.261 1_655 S
C447 C95 1.261 1_455 S
C463 C108 1.261 1_545 S
C465 C75 1.261 1_565 S
C481 C3 1.590 . S
C483 C44 1.590 . S
C499 C55 1.590 . S
C501 C18 1.590 . S
C517 C29 1.590 . S
C519 C70 1.590 . S
C535 C81 1.590 . S
C537 C120 1.590 . S
C553 C94 1.590 . S
C555 C135 1.590 . S
C571 C146 1.590 . S
C573 C107 1.590 . S
