# Generated by pormake.
# Topology bcu-f, (3)-cn, num edge types: 1
# Building blocks:
#     Node 0, Type 0, BuildingBlock: OLANEW_clean_sbu_2, # of connection points: 3
#     Node 1, Type 0, BuildingBlock: OLANEW_clean_sbu_2, # of connection points: 3
#     Node 2, Type 0, BuildingBlock: OLANEW_clean_sbu_2, # of connection points: 3
#     Node 3, Type 0, BuildingBlock: OLANEW_clean_sbu_2, # of connection points: 3
#     Node 4, Type 0, BuildingBlock: OLANEW_clean_sbu_2, # of connection points: 3
#     Node 5, Type 0, BuildingBlock: OLANEW_clean_sbu_2, # of connection points: 3
#     Node 6, Type 0, BuildingBlock: OLANEW_clean_sbu_2, # of connection points: 3
#     Node 7, Type 0, BuildingBlock: OLANEW_clean_sbu_2, # of connection points: 3
#     Node 8, Type 0, BuildingBlock: OLANEW_clean_sbu_2, # of connection points: 3
#     Node 9, Type 0, BuildingBlock: OLANEW_clean_sbu_2, # of connection points: 3
#     Node 10, Type 0, BuildingBlock: OLANEW_clean_sbu_2, # of connection points: 3
#     Node 11, Type 0, BuildingBlock: OLANEW_clean_sbu_2, # of connection points: 3
#     Node 12, Type 0, BuildingBlock: OLANEW_clean_sbu_2, # of connection points: 3
#     Node 13, Type 0, BuildingBlock: OLANEW_clean_sbu_2, # of connection points: 3
#     Node 14, Type 0, BuildingBlock: OLANEW_clean_sbu_2, # of connection points: 3
#     Node 15, Type 0, BuildingBlock: OLANEW_clean_sbu_2, # of connection points: 3
#     Edge 16, Type (0, 0), BuildingBlock: TEMPAE_clean_linker_10, # of connection points: 2
#     Edge 17, Type (0, 0), BuildingBlock: TEMPAE_clean_linker_10, # of connection points: 2
#     Edge 18, Type (0, 0), BuildingBlock: TEMPAE_clean_linker_10, # of connection points: 2
#     Edge 19, Type (0, 0), BuildingBlock: TEMPAE_clean_linker_10, # of connection points: 2
#     Edge 20, Type (0, 0), BuildingBlock: TEMPAE_clean_linker_10, # of connection points: 2
#     Edge 21, Type (0, 0), BuildingBlock: TEMPAE_clean_linker_10, # of connection points: 2
#     Edge 22, Type (0, 0), BuildingBlock: TEMPAE_clean_linker_10, # of connection points: 2
#     Edge 23, Type (0, 0), BuildingBlock: TEMPAE_clean_linker_10, # of connection points: 2
#     Edge 24, Type (0, 0), BuildingBlock: TEMPAE_clean_linker_10, # of connection points: 2
#     Edge 25, Type (0, 0), BuildingBlock: TEMPAE_clean_linker_10, # of connection points: 2
#     Edge 26, Type (0, 0), BuildingBlock: TEMPAE_clean_linker_10, # of connection points: 2
#     Edge 27, Type (0, 0), BuildingBlock: TEMPAE_clean_linker_10, # of connection points: 2
#     Edge 28, Type (0, 0), BuildingBlock: TEMPAE_clean_linker_10, # of connection points: 2
#     Edge 29, Type (0, 0), BuildingBlock: TEMPAE_clean_linker_10, # of connection points: 2
#     Edge 30, Type (0, 0), BuildingBlock: TEMPAE_clean_linker_10, # of connection points: 2
#     Edge 31, Type (0, 0), BuildingBlock: TEMPAE_clean_linker_10, # of connection points: 2
#     Edge 32, Type (0, 0), BuildingBlock: TEMPAE_clean_linker_10, # of connection points: 2
#     Edge 33, Type (0, 0), BuildingBlock: TEMPAE_clean_linker_10, # of connection points: 2
#     Edge 34, Type (0, 0), BuildingBlock: TEMPAE_clean_linker_10, # of connection points: 2
#     Edge 35, Type (0, 0), BuildingBlock: TEMPAE_clean_linker_10, # of connection points: 2
#     Edge 36, Type (0, 0), BuildingBlock: TEMPAE_clean_linker_10, # of connection points: 2
#     Edge 37, Type (0, 0), BuildingBlock: TEMPAE_clean_linker_10, # of connection points: 2
#     Edge 38, Type (0, 0), BuildingBlock: TEMPAE_clean_linker_10, # of connection points: 2
#     Edge 39, Type (0, 0), BuildingBlock: TEMPAE_clean_linker_10, # of connection points: 2
# Relax obj value: 0.001
# Max RMSD: 0.051
# Mean RMSD: 0.051
data_MOF--net-bcu-f--node1-OLANEW_clean_sbu_2--edge1-TEMPAE_clean_linker_10
_symmetry_space_group_name_H-M    P1
_symmetry_Int_Tables_number       1
_symmetry_cell_setting            triclinic
loop_
_symmetry_equiv_pos_as_xyz
'x, y, z'
_cell_length_a     76.20585
_cell_length_b     76.052981
_cell_length_c     22.859379
_cell_angle_alpha  90.016351
_cell_angle_beta   89.941854
_cell_angle_gamma 90.147049
loop_
_atom_site_label
_atom_site_type_symbol
_atom_site_fract_x
_atom_site_fract_y
_atom_site_fract_z
_atom_type_partial_charge
O0 O 0.18266 0.08761 0.16053 0.0
Cd1 Cd 0.19725 0.06085 0.19345 0.0
O2 O 0.20843 0.1003 0.16284 0.0
Cd3 Cd 0.2273 0.12203 0.15931 0.0
O4 O 0.24777 0.14182 0.17206 0.0
C5 C 0.25806 0.13995 0.21534 0.0
O6 O 0.256 0.12624 0.24968 0.0
C7 C 0.19206 0.10119 0.15225 0.0
C8 C 0.19438 0.03447 0.10939 0.0
O9 O 0.18341 0.03547 0.15183 0.0
O10 O 0.20677 0.04588 0.10705 0.0
O11 O 0.89693 0.20179 0.05289 0.0
Cd12 Cd 0.91802 0.22175 0.09889 0.0
O13 O 0.8784 0.2237 0.05461 0.0
Cd14 Cd 0.8528 0.23653 0.05049 0.0
O15 O 0.83216 0.25399 0.08257 0.0
C16 C 0.83093 0.25534 0.13785 0.0
O17 O 0.84154 0.246 0.17069 0.0
C18 C 0.88168 0.20774 0.04241 0.0
C19 C 0.95135 0.22178 0.04821 0.0
O20 O 0.9474 0.21099 0.08929 0.0
O21 O 0.93941 0.23234 0.03039 0.0
O22 O 0.80697 0.88042 0.12784 0.0
Cd23 Cd 0.78866 0.90383 0.16853 0.0
O24 O 0.78376 0.86338 0.12581 0.0
Cd25 Cd 0.76978 0.8384 0.11524 0.0
O26 O 0.75182 0.81604 0.12233 0.0
C27 C 0.75312 0.80557 0.16545 0.0
O28 O 0.7657 0.80813 0.20381 0.0
C29 C 0.80004 0.86562 0.11608 0.0
C30 C 0.79 0.935 0.10396 0.0
O31 O 0.80063 0.93228 0.1464 0.0
O32 O 0.77884 0.9229 0.09178 0.0
O33 O 0.12346 0.77148 0.03523 0.0
Cd34 Cd 0.10973 0.74761 0.09018 0.0
O35 O 0.13459 0.75402 0.96818 0.0
Cd36 Cd 0.1298 0.73041 0.02037 0.0
O37 O 0.13676 0.70878 0.07888 0.0
C38 C 0.13906 0.71209 0.13283 0.0
O39 O 0.13617 0.72813 0.15186 0.0
C40 C 0.13155 0.76945 0.98701 0.0
C41 C 0.07401 0.74762 0.06383 0.0
O42 O 0.08 0.75641 0.10732 0.0
O43 O 0.08487 0.73845 0.03384 0.0
O44 O 0.16302 0.88916 0.75848 0.0
Cd45 Cd 0.17451 0.91582 0.71286 0.0
O46 O 0.18959 0.87847 0.75162 0.0
Cd47 Cd 0.2093 0.8577 0.75839 0.0
O48 O 0.22879 0.83674 0.76056 0.0
C49 C 0.22593 0.82247 0.73322 0.0
O50 O 0.21109 0.82058 0.70464 0.0
C51 C 0.17372 0.87671 0.76798 0.0
C52 C 0.17955 0.94196 0.79669 0.0
O53 O 0.16535 0.94121 0.76676 0.0
O54 O 0.19142 0.93044 0.78654 0.0
O55 O 0.12753 0.20743 0.92916 0.0
Cd56 Cd 0.11237 0.23146 0.8796 0.0
O57 O 0.13614 0.22377 0.00319 0.0
Cd58 Cd 0.12869 0.24821 0.95966 0.0
O59 O 0.13383 0.27191 0.90828 0.0
C60 C 0.14283 0.2698 0.86197 0.0
O61 O 0.14745 0.25377 0.84704 0.0
C62 C 0.13499 0.20879 0.97871 0.0
C63 C 0.07681 0.23062 0.90899 0.0
O64 O 0.08261 0.22216 0.86453 0.0
O65 O 0.08779 0.23969 0.93895 0.0
O66 O 0.80541 0.10465 0.85631 0.0
Cd67 Cd 0.78703 0.08097 0.81718 0.0
O68 O 0.78222 0.12161 0.85751 0.0
Cd69 Cd 0.76841 0.14668 0.86604 0.0
O70 O 0.75049 0.16875 0.85332 0.0
C71 C 0.75026 0.17645 0.80396 0.0
O72 O 0.76124 0.17127 0.76314 0.0
C73 C 0.7985 0.11949 0.86715 0.0
C74 C 0.78897 0.04981 0.88155 0.0
O75 O 0.79934 0.05267 0.83837 0.0
O76 O 0.77781 0.06177 0.89459 0.0
O77 O 0.89697 0.78475 0.91522 0.0
Cd78 Cd 0.91719 0.76488 0.86511 0.0
O79 O 0.87894 0.7624 0.9204 0.0
Cd80 Cd 0.85387 0.74884 0.93218 0.0
O81 O 0.83346 0.7302 0.9062 0.0
C82 C 0.83849 0.71723 0.8754 0.0
O83 O 0.85529 0.71569 0.86347 0.0
C84 C 0.88215 0.77853 0.93034 0.0
C85 C 0.95007 0.76211 0.9177 0.0
O86 O 0.94701 0.7739 0.87898 0.0
O87 O 0.93746 0.75179 0.9322 0.0
O88 O 0.70055 0.60055 0.50792 0.0
Cd89 Cd 0.7239 0.5853 0.56074 0.0
O90 O 0.70177 0.62457 0.56159 0.0
Cd91 Cd 0.72414 0.61766 0.61638 0.0
O92 O 0.74524 0.62823 0.67078 0.0
C93 C 0.75047 0.64347 0.65582 0.0
O94 O 0.74339 0.65085 0.60956 0.0
C95 C 0.69486 0.61582 0.52014 0.0
C96 C 0.72446 0.54965 0.53047 0.0
O97 O 0.71495 0.55522 0.57286 0.0
O98 O 0.73383 0.56092 0.50272 0.0
O99 O 0.38489 0.66493 0.72504 0.0
Cd100 Cd 0.41108 0.68015 0.7604 0.0
O101 O 0.37293 0.69087 0.71606 0.0
Cd102 Cd 0.35353 0.71086 0.69239 0.0
O103 O 0.33233 0.73004 0.6867 0.0
C104 C 0.31996 0.72919 0.72396 0.0
O105 O 0.32034 0.71674 0.76376 0.0
C106 C 0.37175 0.67423 0.71071 0.0
C107 C 0.4366 0.68222 0.67311 0.0
O108 O 0.43657 0.66959 0.71026 0.0
O109 O 0.4246 0.69392 0.67747 0.0
O110 O 0.26632 0.39232 0.55223 0.0
Cd111 Cd 0.24162 0.40765 0.59726 0.0
O112 O 0.2492 0.37487 0.50084 0.0
Cd113 Cd 0.2251 0.38169 0.54727 0.0
O114 O 0.20408 0.37102 0.60199 0.0
C115 C 0.20855 0.36506 0.65171 0.0
O116 O 0.22492 0.367 0.66859 0.0
C117 C 0.26449 0.38036 0.51386 0.0
C118 C 0.24069 0.44257 0.55972 0.0
O119 O 0.2495 0.43807 0.60504 0.0
O120 O 0.23217 0.43054 0.53244 0.0
O121 O 0.57581 0.31161 0.66561 0.0
Cd122 Cd 0.55066 0.29571 0.7061 0.0
O123 O 0.59132 0.28771 0.67855 0.0
Cd124 Cd 0.61569 0.27254 0.68039 0.0
O125 O 0.63854 0.25566 0.69282 0.0
C126 C 0.65308 0.26189 0.7106 0.0
O127 O 0.65441 0.27888 0.7203 0.0
C128 C 0.59035 0.30358 0.66128 0.0
C129 C 0.5232 0.29222 0.62617 0.0
O130 O 0.52398 0.30535 0.66125 0.0
O131 O 0.5355 0.28077 0.62869 0.0
O132 O 0.69254 0.37261 0.42885 0.0
Cd133 Cd 0.71686 0.38657 0.37633 0.0
O134 O 0.70984 0.35749 0.48695 0.0
Cd135 Cd 0.73285 0.36167 0.4317 0.0
O136 O 0.75164 0.34974 0.37132 0.0
C137 C 0.74647 0.33552 0.34754 0.0
O138 O 0.73058 0.32978 0.35938 0.0
C139 C 0.69453 0.36245 0.47252 0.0
C140 C 0.71985 0.42198 0.40803 0.0
O141 O 0.70998 0.41717 0.36552 0.0
O142 O 0.72843 0.41005 0.43528 0.0
O143 O 0.57945 0.66665 0.30686 0.0
Cd144 Cd 0.55454 0.6833 0.26923 0.0
O145 O 0.59692 0.68816 0.28079 0.0
Cd146 Cd 0.62143 0.70328 0.27731 0.0
O147 O 0.64403 0.72078 0.26736 0.0
C148 C 0.65735 0.71615 0.23764 0.0
O149 O 0.65754 0.70046 0.21359 0.0
C150 C 0.59481 0.67316 0.30449 0.0
C151 C 0.52798 0.68473 0.35319 0.0
O152 O 0.52806 0.67274 0.31379 0.0
O153 O 0.54036 0.69617 0.3524 0.0
O154 O 0.2668 0.6191 0.45521 0.0
Cd155 Cd 0.24346 0.60493 0.3985 0.0
O156 O 0.25194 0.61878 0.53782 0.0
Cd157 Cd 0.22751 0.61504 0.48958 0.0
O158 O 0.20769 0.62458 0.42836 0.0
C159 C 0.21314 0.63616 0.39256 0.0
O160 O 0.22976 0.64081 0.39441 0.0
C161 C 0.26619 0.62154 0.51024 0.0
C162 C 0.24134 0.56926 0.42732 0.0
O163 O 0.25166 0.57465 0.38678 0.0
O164 O 0.23186 0.58069 0.45362 0.0
O165 O 0.36876 0.3031 0.32475 0.0
Cd166 Cd 0.38844 0.28008 0.28933 0.0
O167 O 0.35997 0.28639 0.39761 0.0
Cd168 Cd 0.36901 0.26189 0.35839 0.0
O169 O 0.35663 0.23808 0.32427 0.0
C170 C 0.34016 0.23781 0.33317 0.0
O171 O 0.33298 0.25115 0.36075 0.0
C172 C 0.36016 0.30124 0.37207 0.0
C173 C 0.41911 0.28024 0.35617 0.0
O174 O 0.418 0.28925 0.30895 0.0
O175 O 0.40581 0.27092 0.37119 0.0
C176 C 0.19564 0.95403 0.88323 0.0
C177 C 0.18209 0.9556 0.8421 0.0
C178 C 0.19794 0.96666 0.92737 0.0
C179 C 0.18659 0.98134 0.92985 0.0
C180 C 0.17301 0.98311 0.88804 0.0
C181 C 0.17084 0.97015 0.84492 0.0
C182 C 0.21242 0.9642 0.97167 0.0
C183 C 0.16079 -0.00129 0.88882 0.0
C184 C 0.18142 0.0063 0.07274 0.0
C185 C 0.19264 0.02071 0.06398 0.0
C186 C 0.17951 -0.00674 0.02974 0.0
C187 C 0.18883 -0.00518 0.97639 0.0
C188 C 0.20017 0.00934 0.96727 0.0
C189 C 0.20204 0.02205 0.01137 0.0
C190 C 0.16749 0.97784 0.04137 0.0
C191 C 0.21016 0.01156 0.91066 0.0
H192 H 0.20432 0.94277 0.88149 0.0
H193 H 0.16039 0.97148 0.8131 0.0
H194 H 0.22155 0.97558 0.97031 0.0
H195 H 0.20677 0.96367 0.0164 0.0
H196 H 0.22004 0.95199 0.96391 0.0
H197 H 0.15116 -0.00167 0.8524 0.0
H198 H 0.15351 -0.00089 0.93082 0.0
H199 H 0.16847 0.01109 0.88562 0.0
H200 H 0.17419 0.00515 0.11342 0.0
H201 H 0.21067 0.03319 0.00422 0.0
H202 H 0.17486 0.96535 0.03687 0.0
H203 H 0.15677 0.97757 0.00858 0.0
H204 H 0.16156 0.97833 0.08575 0.0
H205 H 0.21874 2e-05 0.9031 0.0
H206 H 0.21841 0.02362 0.91042 0.0
H207 H 0.20084 0.01223 0.87347 0.0
C208 C 0.98226 0.21078 0.04351 0.0
C209 C 0.96933 0.22242 0.02352 0.0
C210 C -0.00042 0.21183 0.02281 0.0
C211 C 0.0041 0.22486 0.98118 0.0
C212 C -0.00895 0.23643 0.95996 0.0
C213 C 0.97382 0.23506 0.98134 0.0
C214 C 0.01311 0.19921 0.04631 0.0
C215 C -0.00463 0.25049 0.91554 0.0
C216 C 0.05189 0.23905 0.97463 0.0
C217 C 0.05806 0.22961 0.92609 0.0
C218 C 0.03432 0.23776 -0.00741 0.0
C219 C 0.02262 0.22674 0.96135 0.0
C220 C 0.02869 0.21732 0.91193 0.0
C221 C 0.04634 0.21888 0.89485 0.0
C222 C 0.02832 0.24806 0.04543 0.0
C223 C 0.01661 0.20544 0.87756 0.0
H224 H 0.97891 0.20094 0.07599 0.0
H225 H 0.96392 0.2441 0.9656 0.0
H226 H 0.01951 0.19208 0.00973 0.0
H227 H 0.02353 0.20661 0.0697 0.0
H228 H 0.00734 0.18942 0.07687 0.0
H229 H 0.98359 0.25802 0.90186 0.0
H230 H 0.0051 0.25981 0.93416 0.0
H231 H 0.00142 0.24449 0.87617 0.0
H232 H 0.06084 0.24738 -0.00102 0.0
H233 H 0.05099 0.21153 0.85731 0.0
H234 H 0.02358 0.2389 0.0798 0.0
H235 H 0.01716 0.25668 0.03349 0.0
H236 H 0.03895 0.25633 0.06414 0.0
H237 H 0.01152 0.19483 0.90628 0.0
H238 H 0.02327 0.19932 0.83942 0.0
H239 H 0.00512 0.21297 0.86161 0.0
C240 C 0.77868 0.03041 0.96328 0.0
C241 C 0.78967 0.03308 0.91479 0.0
C242 C 0.77895 0.01451 -0.00555 0.0
C243 C 0.79043 0.00091 0.97661 0.0
C244 C 0.80162 0.00355 0.92791 0.0
C245 C 0.80113 0.01961 0.89766 0.0
C246 C 0.76685 0.01221 0.04629 0.0
C247 C 0.81401 0.98935 0.90748 0.0
C248 C 0.80184 0.96534 0.08694 0.0
C249 C 0.7904 0.95171 0.0706 0.0
C250 C 0.80205 0.98139 0.05659 0.0
C251 C 0.79059 0.98386 0.0086 0.0
C252 C 0.77913 0.97011 0.99153 0.0
C253 C 0.77915 0.95422 0.02279 0.0
C254 C 0.81442 -0.00424 0.07619 0.0
C255 C 0.76676 0.97222 0.94044 0.0
H256 H 0.7698 0.04074 0.97689 0.0
H257 H 0.80966 0.02155 0.86021 0.0
H258 H 0.75782 0.001 0.0385 0.0
H259 H 0.77461 0.00908 0.08599 0.0
H260 H 0.75891 0.02415 0.05508 0.0
H261 H 0.82197 -0.00647 0.86917 0.0
H262 H 0.82303 0.98563 0.94347 0.0
H263 H 0.80647 0.97739 0.89538 0.0
H264 H 0.81056 0.96353 0.12385 0.0
H265 H 0.77028 0.94376 0.00978 0.0
H266 H 0.80684 0.00761 0.08879 0.0
H267 H 0.82321 -0.0004 0.03961 0.0
H268 H 0.82262 -0.0083 0.11396 0.0
H269 H 0.75766 0.9833 0.94879 0.0
H270 H 0.75889 0.96016 0.93214 0.0
H271 H 0.77428 0.97546 0.90027 0.0
C272 C 0.0491 0.73969 -0.00249 0.0
C273 C 0.05526 0.74866 0.04709 0.0
C274 C 0.03167 0.74151 0.97875 0.0
C275 C 0.02011 0.75254 0.01034 0.0
C276 C 0.0261 0.76128 0.06124 0.0
C277 C 0.04362 0.75924 0.079 0.0
C278 C 0.02575 0.73196 0.92428 0.0
C279 C 0.01414 0.77311 0.09615 0.0
C280 C 0.98148 0.77138 0.92654 0.0
C281 C 0.96778 0.76014 0.94358 0.0
C282 C -0.00149 0.76919 0.94862 0.0
C283 C 0.00193 0.75544 0.98872 0.0
C284 C 0.98811 0.74424 0.00688 0.0
C285 C 0.97119 0.74672 0.9841 0.0
C286 C 0.01292 0.78144 0.9283 0.0
C287 C -0.00875 0.72945 0.04965 0.0
H288 H 0.058 0.73148 0.97262 0.0
H289 H 0.04825 0.7662 0.11741 0.0
H290 H 0.014 0.72382 0.93396 0.0
H291 H 0.02194 0.74162 0.89026 0.0
H292 H 0.03615 0.72331 0.90608 0.0
H293 H 0.02057 0.77828 0.13624 0.0
H294 H 0.00998 0.7844 0.06878 0.0
H295 H 0.00209 0.76587 0.10907 0.0
H296 H 0.97897 0.7818 0.89534 0.0
H297 H 0.96067 0.73799 -0.00245 0.0
H298 H 0.02325 0.77383 0.90539 0.0
H299 H 0.01918 0.78792 0.96646 0.0
H300 H 0.00799 0.79177 0.89819 0.0
H301 H 0.00074 0.71997 0.03082 0.0
H302 H 0.97899 0.72228 0.06087 0.0
H303 H -0.00288 0.73468 0.09052 0.0
C304 C 0.71304 0.5189 0.54123 0.0
C305 C 0.72441 0.53082 0.51353 0.0
C306 C 0.71252 0.50113 0.52461 0.0
C307 C 0.72369 0.49509 0.47936 0.0
C308 C 0.73534 0.50701 0.45167 0.0
C309 C 0.73553 0.52473 0.46898 0.0
C310 C 0.69987 0.48884 0.55507 0.0
C311 C 0.74751 0.50105 0.40345 0.0
C312 C 0.73264 0.44598 0.47013 0.0
C313 C 0.7211 0.44073 0.42556 0.0
C314 C 0.73373 0.46365 0.48776 0.0
C315 C 0.72297 0.47636 0.46038 0.0
C316 C 0.71135 0.47116 0.41522 0.0
C317 C 0.71059 0.45343 0.39827 0.0
C318 C 0.74633 0.46869 0.53588 0.0
C319 C 0.69962 0.48432 0.38511 0.0
H320 H 0.70439 0.52348 0.57565 0.0
H321 H 0.74438 0.53383 0.4474 0.0
H322 H 0.69057 0.48319 0.52279 0.0
H323 H 0.70713 0.47771 0.57493 0.0
H324 H 0.69223 0.49555 0.58991 0.0
H325 H 0.75606 0.51186 0.38727 0.0
H326 H 0.75595 0.49019 0.41931 0.0
H327 H 0.73975 0.49587 0.36618 0.0
H328 H 0.74083 0.43627 0.49139 0.0
H329 H 0.70163 0.4495 0.36387 0.0
H330 H 0.73901 0.47445 0.57319 0.0
H331 H 0.75559 0.4789 0.51992 0.0
H332 H 0.75401 0.45729 0.552 0.0
H333 H 0.69084 0.49063 0.41763 0.0
H334 H 0.69141 0.47818 0.35051 0.0
H335 H 0.70767 0.49489 0.36501 0.0
C336 C 0.49953 0.67405 0.39502 0.0
C337 C 0.51422 0.68514 0.39895 0.0
C338 C 0.48663 0.67395 0.43889 0.0
C339 C 0.48855 0.68507 0.48817 0.0
C340 C 0.50328 0.69639 0.4922 0.0
C341 C 0.51589 0.69635 0.44738 0.0
C342 C 0.471 0.66184 0.43275 0.0
C343 C 0.50586 0.70833 0.54431 0.0
C344 C 0.44829 0.69525 0.5803 0.0
C345 C 0.45002 0.68316 0.62628 0.0
C346 C 0.46073 0.69602 0.53502 0.0
C347 C 0.47534 0.68457 0.5361 0.0
C348 C 0.47726 0.67248 0.58273 0.0
C349 C 0.46453 0.67186 0.62709 0.0
C350 C 0.45816 0.70898 0.48574 0.0
C351 C 0.49276 0.66018 0.58572 0.0
H352 H 0.4981 0.66541 0.35762 0.0
H353 H 0.52723 0.70493 0.45082 0.0
H354 H 0.47081 0.65225 0.46932 0.0
H355 H 0.45866 0.66951 0.43533 0.0
H356 H 0.47115 0.65446 0.39081 0.0
H357 H 0.51789 0.71652 0.5404 0.0
H358 H 0.49439 0.71715 0.54935 0.0
H359 H 0.50679 0.70036 0.58483 0.0
H360 H 0.43708 0.70399 0.57927 0.0
H361 H 0.46599 0.66253 0.66259 0.0
H362 H 0.45727 0.70186 0.44346 0.0
H363 H 0.46962 0.71796 0.48285 0.0
H364 H 0.44612 0.717 0.49144 0.0
H365 H 0.49289 0.65148 0.54674 0.0
H366 H 0.49253 0.65183 0.62559 0.0
H367 H 0.50517 0.66783 0.58525 0.0
C368 C 0.25228 0.53832 0.41918 0.0
C369 C 0.24066 0.55046 0.44425 0.0
C370 C 0.25221 0.5206 0.43651 0.0
C371 C 0.24017 0.51488 0.47974 0.0
C372 C 0.22822 0.527 0.50455 0.0
C373 C 0.22864 0.54465 0.48662 0.0
C374 C 0.26519 0.50807 0.40919 0.0
C375 C 0.21512 0.52137 0.55055 0.0
C376 C 0.23002 0.46603 0.49163 0.0
C377 C 0.24048 0.46106 0.53929 0.0
C378 C 0.22979 0.4835 0.47174 0.0
C379 C 0.24032 0.49628 0.50002 0.0
C380 C 0.25094 0.49134 0.54802 0.0
C381 C 0.25087 0.47381 0.56716 0.0
C382 C 0.21824 0.48829 0.42055 0.0
C383 C 0.26242 0.50458 0.57916 0.0
H384 H 0.26163 0.5427 0.38647 0.0
H385 H 0.21958 0.55393 0.50613 0.0
H386 H 0.27392 0.50262 0.44347 0.0
H387 H 0.25816 0.49683 0.3889 0.0
H388 H 0.27344 0.51452 0.37528 0.0
H389 H 0.20639 0.5323 0.56424 0.0
H390 H 0.2069 0.51044 0.5337 0.0
H391 H 0.22214 0.5164 0.58967 0.0
H392 H 0.22196 0.45627 0.46985 0.0
H393 H 0.25903 0.47008 0.6039 0.0
H394 H 0.22634 0.49385 0.38466 0.0
H395 H 0.20874 0.49858 0.43384 0.0
H396 H 0.21083 0.47681 0.40337 0.0
H397 H 0.27174 0.51064 0.54774 0.0
H398 H 0.27003 0.49859 0.61543 0.0
H399 H 0.25422 0.51532 0.5973 0.0
C400 C 0.50816 0.27631 0.54425 0.0
C401 C 0.50843 0.29024 0.58451 0.0
C402 C 0.49409 0.27414 0.50523 0.0
C403 C 0.47993 0.28615 0.50671 0.0
C404 C 0.48017 0.30028 0.54704 0.0
C405 C 0.49443 0.30217 0.58534 0.0
C406 C 0.49433 0.25896 0.46264 0.0
C407 C 0.46529 0.31332 0.55007 0.0
C408 C 0.44972 0.29081 0.37547 0.0
C409 C 0.43504 0.28099 0.39322 0.0
C410 C 0.46457 0.29231 0.41145 0.0
C411 C 0.46472 0.28386 0.46662 0.0
C412 C 0.45007 0.27368 0.48435 0.0
C413 C 0.43543 0.27234 0.4474 0.0
C414 C 0.47999 0.30319 0.39088 0.0
C415 C 0.44972 0.2645 0.54292 0.0
H416 H 0.51894 0.26704 0.54322 0.0
H417 H 0.49453 0.31296 0.61632 0.0
H418 H 0.48285 0.25028 0.47052 0.0
H419 H 0.49325 0.26394 0.41717 0.0
H420 H 0.50647 0.25099 0.46629 0.0
H421 H 0.46754 0.32365 0.58362 0.0
H422 H 0.46353 0.31977 0.50696 0.0
H423 H 0.45285 0.30638 0.5605 0.0
H424 H 0.44956 0.2975 0.3336 0.0
H425 H 0.42415 0.26472 0.46148 0.0
H426 H 0.49216 0.29522 0.39196 0.0
H427 H 0.48198 0.31451 0.42081 0.0
H428 H 0.47813 0.3083 0.34579 0.0
H429 H 0.4612 0.25565 0.54706 0.0
H430 H 0.43756 0.25663 0.54939 0.0
H431 H 0.45066 0.27435 0.57859 0.0
C432 C 0.16634 0.12128 0.1441 0.0
C433 C 0.18391 0.11759 0.13076 0.0
C434 C 0.15807 0.13632 0.12181 0.0
C435 C 0.16757 0.14785 0.08482 0.0
C436 C 0.18534 0.14423 0.07144 0.0
C437 C 0.19328 0.1291 0.09441 0.0
C438 C 0.1391 0.13974 0.13716 0.0
C439 C 0.19587 0.15613 0.03174 0.0
C440 C 0.14227 0.17668 0.97881 0.0
C441 C 0.14278 0.19307 0.00695 0.0
C442 C 0.15017 0.16184 0.00391 0.0
C443 C 0.15876 0.1634 0.05855 0.0
C444 C 0.15914 0.17983 0.08759 0.0
C445 C 0.15116 0.19448 0.06144 0.0
C446 C 0.14948 0.14452 0.9716 0.0
C447 C 0.16813 0.18198 0.14599 0.0
H448 H 0.15902 0.11235 0.172 0.0
H449 H 0.20663 0.12597 0.0821 0.0
H450 H 0.13774 0.15298 0.15705 0.0
H451 H 0.131 0.13959 0.09687 0.0
H452 H 0.13376 0.12983 0.16813 0.0
H453 H 0.20976 0.15189 0.02773 0.0
H454 H 0.18991 0.15628 0.98748 0.0
H455 H 0.19561 0.16982 0.04851 0.0
H456 H 0.13584 0.17544 0.93674 0.0
H457 H 0.15162 0.20707 0.08358 0.0
H458 H 0.14323 0.13433 -0.00055 0.0
H459 H 0.16299 0.13999 0.96172 0.0
H460 H 0.14206 0.14545 0.92991 0.0
H461 H 0.16245 0.17267 0.17825 0.0
H462 H 0.16692 0.19555 0.1635 0.0
H463 H 0.18227 0.17878 0.14165 0.0
C464 C 0.80312 0.1448 0.93502 0.0
C465 C 0.8094 0.13399 0.89006 0.0
C466 C 0.81393 0.1577 0.9604 0.0
C467 C 0.83125 0.16008 0.93918 0.0
C468 C 0.83738 0.1496 0.8922 0.0
C469 C 0.82647 0.13646 0.86889 0.0
C470 C 0.80709 0.16825 0.01147 0.0
C471 C 0.85558 0.15203 0.86725 0.0
C472 C 0.85624 0.20204 0.976 0.0
C473 C 0.86802 0.19599 0.01844 0.0
C474 C 0.84406 0.19054 0.95001 0.0
C475 C 0.84337 0.17274 0.96818 0.0
C476 C 0.85486 0.16678 0.01256 0.0
C477 C 0.86725 0.17841 0.03643 0.0
C478 C 0.83237 0.19727 0.90172 0.0
C479 C 0.85424 0.14803 0.03433 0.0
H480 H 0.79 0.14267 0.95201 0.0
H481 H 0.83128 0.12813 0.83391 0.0
H482 H 0.81492 0.16522 0.0511 0.0
H483 H 0.80856 0.18252 0.00282 0.0
H484 H 0.79307 0.16539 0.02091 0.0
H485 H 0.85774 0.14395 0.8274 0.0
H486 H 0.85786 0.16605 0.85614 0.0
H487 H 0.86551 0.14828 0.90039 0.0
H488 H 0.85703 0.21559 0.96151 0.0
H489 H 0.8763 0.17377 0.06954 0.0
H490 H 0.8184 0.19466 0.91231 0.0
H491 H 0.83536 0.19018 0.86047 0.0
H492 H 0.83409 0.2116 0.8941 0.0
H493 H 0.84066 0.1445 0.04742 0.0
H494 H 0.86308 0.14588 0.07226 0.0
H495 H 0.85816 0.13894 -0.00127 0.0
C496 C 0.82819 0.84913 0.11135 0.0
C497 C 0.81092 0.85133 0.09192 0.0
C498 C 0.83907 0.83621 0.08683 0.0
C499 C 0.83265 0.82561 0.04056 0.0
C500 C 0.81513 0.82769 0.02112 0.0
C501 C 0.80441 0.84044 0.04748 0.0
C502 C 0.85753 0.83414 0.10971 0.0
C503 C 0.80795 0.81695 0.97098 0.0
C504 C 0.86766 0.80771 0.93865 0.0
C505 C 0.86883 0.79016 0.95671 0.0
C506 C 0.85552 0.81921 0.96431 0.0
C507 C 0.84464 0.81313 0.01035 0.0
C508 C 0.84574 0.79537 0.0287 0.0
C509 C 0.85772 0.78402 0.00115 0.0
C510 C 0.85448 0.83793 0.94252 0.0
C511 C 0.83468 0.78852 0.07857 0.0
H512 H 0.8332 0.85753 0.14587 0.0
H513 H 0.79115 0.84238 0.03164 0.0
H514 H 0.86007 0.82018 0.1209 0.0
H515 H 0.86709 0.83796 0.07533 0.0
H516 H 0.85999 0.84235 0.14908 0.0
H517 H 0.79381 0.81954 0.96307 0.0
H518 H 0.81536 0.82006 0.93046 0.0
H519 H 0.80968 0.80272 0.97967 0.0
H520 H 0.8762 0.81244 0.90406 0.0
H521 H 0.85883 0.77052 0.01581 0.0
H522 H 0.85853 0.84712 0.97772 0.0
H523 H 0.84075 0.84119 0.93068 0.0
H524 H 0.86299 0.84023 0.90378 0.0
H525 H 0.83796 0.79577 0.11925 0.0
H526 H 0.8367 0.77425 0.08633 0.0
H527 H 0.82057 0.79081 0.06958 0.0
C528 C 0.14564 0.78295 0.89854 0.0
C529 C 0.13752 0.78501 0.95326 0.0
C530 C 0.15153 0.79758 0.86654 0.0
C531 C 0.1493 0.81467 0.8899 0.0
C532 C 0.14108 0.81685 0.94497 0.0
C533 C 0.13525 0.80201 0.9759 0.0
C534 C 0.1602 0.79476 0.80786 0.0
C535 C 0.13855 0.83487 0.97144 0.0
C536 C 0.17878 0.85164 0.83638 0.0
C537 C 0.16769 0.86053 0.79758 0.0
C538 C 0.17305 0.83654 0.86607 0.0
C539 C 0.15574 0.83029 0.85711 0.0
C540 C 0.14447 0.83924 0.81801 0.0
C541 C 0.15055 0.85433 0.78894 0.0
C542 C 0.18541 0.82747 0.90786 0.0
C543 C 0.12594 0.83294 0.8072 0.0
H544 H 0.14743 0.76988 0.88061 0.0
H545 H 0.12902 0.80375 0.01814 0.0
H546 H 0.15299 0.80206 0.77346 0.0
H547 H 0.17379 0.80002 0.80873 0.0
H548 H 0.16069 0.78065 0.79542 0.0
H549 H 0.13183 0.83432 0.01456 0.0
H550 H 0.15146 0.84142 0.97721 0.0
H551 H 0.13069 0.84321 0.94155 0.0
H552 H 0.19178 0.8568 0.84502 0.0
H553 H 0.14193 0.86126 0.75919 0.0
H554 H 0.18683 0.81342 0.89571 0.0
H555 H 0.17993 0.82789 0.95283 0.0
H556 H 0.19864 0.83364 0.90832 0.0
H557 H 0.12608 0.81911 0.7918 0.0
H558 H 0.11901 0.8411 0.77426 0.0
H559 H 0.11836 0.83324 0.84864 0.0
C560 C 0.67224 0.61426 0.44044 0.0
C561 C 0.68029 0.62365 0.48602 0.0
C562 C 0.65844 0.62166 0.40806 0.0
C563 C 0.65257 0.63884 0.4216 0.0
C564 C 0.66069 0.6484 0.4673 0.0
C565 C 0.67442 0.6407 0.49893 0.0
C566 C 0.65008 0.61108 0.3596 0.0
C567 C 0.6548 0.66676 0.48306 0.0
C568 C 0.62673 0.66548 0.31071 0.0
C569 C 0.60959 0.66378 0.33225 0.0
C570 C 0.64085 0.65715 0.33866 0.0
C571 C 0.63768 0.64676 0.38901 0.0
C572 C 0.62031 0.64454 0.40978 0.0
C573 C 0.60647 0.65304 0.38103 0.0
C574 C 0.65918 0.65973 0.31499 0.0
C575 C 0.61639 0.63354 0.46325 0.0
H576 H 0.67669 0.6011 0.43007 0.0
H577 H 0.68055 0.6481 0.53394 0.0
H578 H 0.63595 0.60902 0.36916 0.0
H579 H 0.65094 0.61839 0.31771 0.0
H580 H 0.65638 0.59803 0.35382 0.0
H581 H 0.66266 0.67252 0.51924 0.0
H582 H 0.65588 0.67549 0.44435 0.0
H583 H 0.6408 0.66654 0.49643 0.0
H584 H 0.62912 0.67315 0.27162 0.0
H585 H 0.59322 0.65161 0.39764 0.0
H586 H 0.66564 0.64683 0.30818 0.0
H587 H 0.66718 0.66713 0.34724 0.0
H588 H 0.65927 0.66705 0.27297 0.0
H589 H 0.62179 0.62011 0.45772 0.0
H590 H 0.60209 0.63248 0.47213 0.0
H591 H 0.62285 0.63943 0.5021 0.0
C592 C 0.29428 0.63843 0.5116 0.0
C593 C 0.28179 0.62826 0.54149 0.0
C594 C 0.30876 0.64565 0.54095 0.0
C595 C 0.31106 0.64221 0.60131 0.0
C596 C 0.29872 0.6316 0.63145 0.0
C597 C 0.28407 0.62496 0.60132 0.0
C598 C 0.3214 0.65724 0.50759 0.0
C599 C 0.30101 0.62723 0.69542 0.0
C600 C 0.35727 0.64915 0.65904 0.0
C601 C 0.3559 0.66569 0.68587 0.0
C602 C 0.34265 0.64109 0.63297 0.0
C603 C 0.32633 0.64991 0.6328 0.0
C604 C 0.32474 0.6664 0.66108 0.0
C605 C 0.33946 0.67388 0.68842 0.0
C606 C 0.34476 0.62327 0.6047 0.0
C607 C 0.30759 0.67631 0.66149 0.0
H608 H 0.29247 0.64115 0.46544 0.0
H609 H 0.27449 0.617 0.62445 0.0
H610 H 0.32204 0.67043 0.52827 0.0
H611 H 0.3348 0.65159 0.50925 0.0
H612 H 0.31758 0.65884 0.46102 0.0
H613 H 0.29065 0.61817 0.71176 0.0
H614 H 0.314 0.62105 0.7026 0.0
H615 H 0.30067 0.63944 0.7219 0.0
H616 H 0.36988 0.64259 0.65758 0.0
H617 H 0.33796 0.68602 0.71227 0.0
H618 H 0.34273 0.62438 0.5568 0.0
H619 H 0.33469 0.61402 0.62169 0.0
H620 H 0.35795 0.61756 0.61257 0.0
H621 H 0.30312 0.6786 0.61593 0.0
H622 H 0.30867 0.68921 0.68399 0.0
H623 H 0.29731 0.66839 0.68365 0.0
C624 C 0.27792 0.3581 0.44705 0.0
C625 C 0.28009 0.37181 0.48751 0.0
C626 C 0.29233 0.34845 0.42669 0.0
C627 C 0.30937 0.35262 0.44709 0.0
C628 C 0.31179 0.36698 0.48565 0.0
C629 C 0.29711 0.37641 0.5055 0.0
C630 C 0.2892 0.33324 0.38543 0.0
C631 C 0.32978 0.3719 0.50798 0.0
C632 C 0.34001 0.31352 0.44794 0.0
C633 C 0.3491 0.31569 0.395 0.0
C634 C 0.32767 0.32592 0.46675 0.0
C635 C 0.3243 0.3409 0.43184 0.0
C636 C 0.3341 0.3437 0.38002 0.0
C637 C 0.34641 0.33105 0.36217 0.0
C638 C 0.31757 0.32249 0.52252 0.0
C639 C 0.33096 0.35958 0.34191 0.0
H640 H 0.26486 0.3545 0.43255 0.0
H641 H 0.29894 0.38703 0.53654 0.0
H642 H 0.29782 0.3344 0.3465 0.0
H643 H 0.29252 0.32071 0.40764 0.0
H644 H 0.27535 0.3325 0.37047 0.0
H645 H 0.32971 0.38457 0.53215 0.0
H646 H 0.33461 0.36147 0.5378 0.0
H647 H 0.33925 0.37288 0.4712 0.0
H648 H 0.34211 0.30179 0.47392 0.0
H649 H 0.35341 0.33288 0.32132 0.0
H650 H 0.30357 0.31997 0.51198 0.0
H651 H 0.31805 0.3342 0.55144 0.0
H652 H 0.32274 0.31101 0.547 0.0
H653 H 0.31792 0.35843 0.32073 0.0
H654 H 0.34108 0.36096 0.30718 0.0
H655 H 0.33085 0.37175 0.3687 0.0
C656 C 0.68101 0.3473 0.55882 0.0
C657 C 0.67904 0.35549 0.50423 0.0
C658 C 0.66664 0.33952 0.58734 0.0
C659 C 0.64996 0.33966 0.56014 0.0
C660 C 0.64782 0.34817 0.50554 0.0
C661 C 0.66235 0.35612 0.47849 0.0
C662 C 0.66936 0.33083 0.64603 0.0
C663 C 0.63029 0.34838 0.47475 0.0
C664 C 0.61755 0.30364 0.6005 0.0
C665 C 0.60584 0.31267 0.6369 0.0
C666 C 0.63202 0.31226 0.57547 0.0
C667 C 0.6349 0.33031 0.58758 0.0
C668 C 0.62318 0.33944 0.6248 0.0
C669 C 0.60866 0.33054 0.6485 0.0
C670 C 0.64404 0.30213 0.5352 0.0
C671 C 0.62598 0.3586 0.63948 0.0
H672 H 0.69385 0.34685 0.57913 0.0
H673 H 0.66073 0.36233 0.43617 0.0
H674 H 0.65988 0.3361 0.67842 0.0
H675 H 0.66689 0.31649 0.64232 0.0
H676 H 0.68287 0.33285 0.66301 0.0
H677 H 0.63071 0.35595 0.43321 0.0
H678 H 0.62612 0.33471 0.46483 0.0
H679 H 0.62013 0.3542 0.50357 0.0
H680 H 0.6151 0.28996 0.59012 0.0
H681 H 0.59957 0.33752 0.67665 0.0
H682 H 0.65768 0.30257 0.55198 0.0
H683 H 0.64412 0.30831 0.49122 0.0
H684 H 0.64002 0.28815 0.53056 0.0
H685 H 0.63922 0.36053 0.65861 0.0
H686 H 0.61604 0.36361 0.67088 0.0
H687 H 0.62536 0.36664 0.59906 0.0
C688 C 0.33622 0.20901 0.28076 0.0
C689 C 0.32908 0.22293 0.31324 0.0
C690 C 0.32562 0.19495 0.26186 0.0
C691 C 0.30753 0.19481 0.27604 0.0
C692 C 0.30028 0.20883 0.30873 0.0
C693 C 0.31112 0.2227 0.3268 0.0
C694 C 0.33377 0.18025 0.22685 0.0
C695 C 0.28106 0.20913 0.32498 0.0
C696 C 0.27444 0.16761 0.19069 0.0
C697 C 0.27162 0.15337 0.22859 0.0
C698 C 0.2866 0.18088 0.2045 0.0
C699 C 0.29607 0.17994 0.25766 0.0
C700 C 0.29364 0.16536 0.29531 0.0
C701 C 0.28148 0.15224 0.28025 0.0
C702 C 0.28892 0.19617 0.16306 0.0
C703 C 0.30342 0.16393 0.35252 0.0
H704 H 0.35007 0.20911 0.26999 0.0
H705 H 0.30548 0.23338 0.35189 0.0
H706 H 0.33213 0.16759 0.25038 0.0
H707 H 0.32698 0.17891 0.18417 0.0
H708 H 0.34798 0.18245 0.21866 0.0
H709 H 0.27747 0.22104 0.35042 0.0
H710 H 0.27288 0.20868 0.28489 0.0
H711 H 0.27773 0.19734 0.35137 0.0
H712 H 0.26696 0.16854 0.1505 0.0
H713 H 0.27944 0.14127 0.30975 0.0
H714 H 0.30302 0.19808 0.15269 0.0
H715 H 0.28422 0.20842 0.18419 0.0
H716 H 0.2816 0.19427 0.12152 0.0
H717 H 0.31775 0.16524 0.34501 0.0
H718 H 0.30086 0.15125 0.37512 0.0
H719 H 0.29944 0.17481 0.382 0.0
C720 C 0.7529 0.30844 0.28947 0.0
C721 C 0.75841 0.32487 0.3106 0.0
C722 C 0.76436 0.29754 0.25802 0.0
C723 C 0.78174 0.30324 0.2471 0.0
C724 C 0.78723 0.32006 0.26657 0.0
C725 C 0.77551 0.33067 0.29824 0.0
C726 C 0.75801 0.27968 0.23816 0.0
C727 C 0.80564 0.32663 0.25539 0.0
C728 C 0.81633 0.26797 0.22625 0.0
C729 C 0.81819 0.26755 0.16521 0.0
C730 C 0.80457 0.27957 0.25332 0.0
C731 C 0.79446 0.29113 0.21857 0.0
C732 C 0.79628 0.29083 0.15693 0.0
C733 C 0.8081 0.279 0.13093 0.0
C734 C 0.80293 0.27939 0.31919 0.0
C735 C 0.78575 0.30301 0.1185 0.0
H736 H 0.73971 0.30385 0.29862 0.0
H737 H 0.77986 0.34338 0.31415 0.0
H738 H 0.7603 0.27803 0.19055 0.0
H739 H 0.76556 0.26926 0.26087 0.0
H740 H 0.74383 0.27762 0.24725 0.0
H741 H 0.80748 0.34047 0.26974 0.0
H742 H 0.81517 0.31826 0.27914 0.0
H743 H 0.80882 0.32569 0.20812 0.0
H744 H 0.82405 0.25916 0.25313 0.0
H745 H 0.8095 0.27881 0.08374 0.0
H746 H 0.78922 0.27623 0.3319 0.0
H747 H 0.80601 0.2926 0.33707 0.0
H748 H 0.8118 0.26964 0.33991 0.0
H749 H 0.77152 0.30055 0.12495 0.0
H750 H 0.78889 0.30134 0.07136 0.0
H751 H 0.78831 0.31688 0.13098 0.0
C752 C 0.74126 0.78008 0.22268 0.0
C753 C 0.74 0.79137 0.17434 0.0
C754 C 0.72842 0.76719 0.23341 0.0
C755 C 0.71397 0.76557 0.19493 0.0
C756 C 0.7128 0.77669 0.14544 0.0
C757 C 0.72583 0.78944 0.1357 0.0
C758 C 0.73016 0.75553 0.28654 0.0
C759 C 0.69758 0.77537 0.10339 0.0
C760 C 0.68676 0.72358 0.19488 0.0
C761 C 0.67215 0.72856 0.22837 0.0
C762 C 0.70057 0.73542 0.18416 0.0
C763 C 0.69975 0.75265 0.20743 0.0
C764 C 0.68515 0.75768 0.24188 0.0
C765 C 0.67154 0.74558 0.25196 0.0
C766 C 0.71596 0.72956 0.14739 0.0
C767 C 0.6838 0.77594 0.2675 0.0
H768 H 0.75218 0.78143 0.25271 0.0
H769 H 0.72475 0.79809 0.0982 0.0
H770 H 0.71896 0.7578 0.31664 0.0
H771 H 0.72971 0.74149 0.27335 0.0
H772 H 0.74256 0.75796 0.31079 0.0
H773 H 0.6989 0.78458 0.06594 0.0
H774 H 0.6965 0.76177 0.08611 0.0
H775 H 0.68514 0.7783 0.12666 0.0
H776 H 0.68737 0.71045 0.17657 0.0
H777 H 0.66033 0.74956 0.27795 0.0
H778 H 0.72836 0.73129 0.17214 0.0
H779 H 0.71693 0.73785 0.10758 0.0
H780 H 0.71483 0.71558 0.13378 0.0
H781 H 0.69538 0.77873 0.29538 0.0
H782 H 0.67174 0.77768 0.29423 0.0
H783 H 0.68375 0.78584 0.23185 0.0
C784 C 0.20741 0.65794 0.31324 0.0
C785 C 0.20096 0.64514 0.35191 0.0
C786 C 0.19608 0.66747 0.27696 0.0
C787 C 0.17781 0.66414 0.27923 0.0
C788 C 0.17122 0.6509 0.31692 0.0
C789 C 0.18289 0.64154 0.35289 0.0
C790 C 0.20365 0.68145 0.23725 0.0
C791 C 0.15183 0.64693 0.32029 0.0
C792 C 0.15019 0.70288 0.23099 0.0
C793 C 0.1469 0.69876 0.17218 0.0
C794 C 0.1595 0.6913 0.26716 0.0
C795 C 0.16568 0.67519 0.24402 0.0
C796 C 0.16163 0.67054 0.18561 0.0
C797 C 0.15228 0.68238 0.15034 0.0
C798 C 0.16348 0.69672 0.32933 0.0
C799 C 0.16792 0.65344 0.15945 0.0
H800 H 0.22135 0.66076 0.31191 0.0
H801 H 0.1778 0.63164 0.38253 0.0
H802 H 0.19957 0.67902 0.19137 0.0
H803 H 0.19849 0.69453 0.25003 0.0
H804 H 0.21821 0.68193 0.23895 0.0
H805 H 0.14894 0.63545 0.34879 0.0
H806 H 0.14476 0.65854 0.33778 0.0
H807 H 0.14653 0.64428 0.27596 0.0
H808 H 0.14597 0.71543 0.24842 0.0
H809 H 0.14972 0.67904 0.10505 0.0
H810 H 0.17779 0.69906 0.33412 0.0
H811 H 0.15984 0.68606 0.36016 0.0
H812 H 0.15643 0.70889 0.34221 0.0
H813 H 0.1824 0.65384 0.15458 0.0
H814 H 0.16203 0.65088 0.11582 0.0
H815 H 0.16472 0.64228 0.18884 0.0
C816 C 0.23667 0.79313 0.69888 0.0
C817 C 0.23932 0.80838 0.73231 0.0
C818 C 0.24943 0.77986 0.69658 0.0
C819 C 0.26519 0.78186 0.72863 0.0
C820 C 0.26789 0.79715 0.76286 0.0
C821 C 0.25494 0.81023 0.76424 0.0
C822 C 0.2461 0.76375 0.65955 0.0
C823 C 0.2845 0.79972 0.79783 0.0
C824 C 0.29218 0.74145 0.76563 0.0
C825 C 0.30565 0.74236 0.72385 0.0
C826 C 0.27882 0.75411 0.7673 0.0
C827 C 0.27894 0.76802 0.7262 0.0
C828 C 0.29236 0.76891 0.68344 0.0
C829 C 0.30556 0.75606 0.68277 0.0
C830 C 0.26471 0.75272 0.81351 0.0
C831 C 0.2929 0.78354 0.63882 0.0
H832 H 0.22465 0.79158 0.67406 0.0
H833 H 0.25709 0.82194 0.79029 0.0
H834 H 0.25643 0.76257 0.62556 0.0
H835 H 0.24676 0.75175 0.68704 0.0
H836 H 0.2331 0.76413 0.63764 0.0
H837 H 0.2845 0.81227 0.82272 0.0
H838 H 0.28617 0.7887 0.8291 0.0
H839 H 0.29604 0.79964 0.76819 0.0
H840 H 0.29211 0.73089 0.79747 0.0
H841 H 0.3159 0.75686 0.65028 0.0
H842 H 0.25158 0.75222 0.79261 0.0
H843 H 0.265 0.76456 0.8419 0.0
H844 H 0.26628 0.74089 0.84145 0.0
H845 H 0.28046 0.7838 0.61367 0.0
H846 H 0.304 0.78211 0.60764 0.0
H847 H 0.29416 0.79641 0.66132 0.0
C848 C 0.17959 0.34973 0.66486 0.0
C849 C 0.19633 0.35396 0.68633 0.0
C850 C 0.16888 0.33739 0.69367 0.0
C851 C 0.1751 0.32906 0.74499 0.0
C852 C 0.19158 0.33396 0.76848 0.0
C853 C 0.20197 0.34637 0.73895 0.0
C854 C 0.15131 0.33263 0.6676 0.0
C855 C 0.19868 0.32543 0.82321 0.0
C856 C 0.14554 0.30237 0.84579 0.0
C857 C 0.14956 0.28512 0.82859 0.0
C858 C 0.15321 0.3169 0.81751 0.0
C859 C 0.16525 0.31409 0.77125 0.0
C860 C 0.16885 0.29673 0.75237 0.0
C861 C 0.16093 0.28249 0.78111 0.0
C862 C 0.14891 0.33522 0.83845 0.0
C863 C 0.18161 0.29315 0.7032 0.0
H864 H 0.17507 0.3556 0.6244 0.0
H865 H 0.21482 0.34963 0.75615 0.0
H866 H 0.15184 0.31909 0.64966 0.0
H867 H 0.14095 0.3328 0.70174 0.0
H868 H 0.14747 0.34173 0.63183 0.0
H869 H 0.21106 0.33168 0.83832 0.0
H870 H 0.18888 0.32617 0.85903 0.0
H871 H 0.20125 0.31131 0.81466 0.0
H872 H 0.1367 0.30454 0.88225 0.0
H873 H 0.16407 0.26923 0.76729 0.0
H874 H 0.14521 0.3437 0.80098 0.0
H875 H 0.16068 0.34119 0.85905 0.0
H876 H 0.13804 0.33526 0.87086 0.0
H877 H 0.17783 0.30066 0.66359 0.0
H878 H 0.18226 0.27897 0.69173 0.0
H879 H 0.19494 0.29763 0.71606 0.0
C880 C 0.68383 0.2567 0.74537 0.0
C881 C 0.66807 0.25003 0.72257 0.0
C882 C 0.69789 0.24548 0.75881 0.0
C883 C 0.69614 0.22717 0.74914 0.0
C884 C 0.68036 0.22039 0.72545 0.0
C885 C 0.66652 0.23189 0.71248 0.0
C886 C 0.71453 0.25319 0.78394 0.0
C887 C 0.67801 0.20095 0.71433 0.0
C888 C 0.73657 0.19829 0.73605 0.0
C889 C 0.73708 0.19025 0.79127 0.0
C890 C 0.72354 0.21062 0.72214 0.0
C891 C 0.7107 0.21501 0.76444 0.0
C892 C 0.71138 0.20725 0.8207 0.0
C893 C 0.72456 0.19497 0.83345 0.0
C894 C 0.72328 0.21864 0.66172 0.0
C895 C 0.69793 0.21162 0.86701 0.0
H896 H 0.68516 0.27069 0.75329 0.0
H897 H 0.65442 0.22661 0.69477 0.0
H898 H 0.71698 0.24759 0.82798 0.0
H899 H 0.7259 0.24966 0.75601 0.0
H900 H 0.71393 0.26774 0.78773 0.0
H901 H 0.66503 0.19782 0.6948 0.0
H902 H 0.68842 0.19616 0.68441 0.0
H903 H 0.67932 0.19358 0.75597 0.0
H904 H 0.74621 0.19477 0.70321 0.0
H905 H 0.72487 0.18886 0.87626 0.0
H906 H 0.72334 0.2332 0.66485 0.0
H907 H 0.71104 0.21477 0.63879 0.0
H908 H 0.73466 0.21446 0.63475 0.0
H909 H 0.69753 0.22603 0.87438 0.0
H910 H 0.70072 0.20502 0.90933 0.0
H911 H 0.6847 0.20753 0.85197 0.0
C912 C 0.76982 0.64651 0.74417 0.0
C913 C 0.76373 0.65316 0.69067 0.0
C914 C 0.78196 0.65601 0.77809 0.0
C915 C 0.7882 0.67247 0.75781 0.0
C916 C 0.78221 0.67916 0.70365 0.0
C917 C 0.77004 0.66945 0.67086 0.0
C918 C 0.78804 0.6485 0.83572 0.0
C919 C 0.78863 0.69661 0.68029 0.0
C920 C 0.80763 0.70658 0.86067 0.0
C921 C 0.82564 0.70481 0.84953 0.0
C922 C 0.7953 0.69568 0.83277 0.0
C923 C 0.80113 0.68276 0.79264 0.0
C924 C 0.81932 0.68052 0.7827 0.0
C925 C 0.83135 0.69154 0.81135 0.0
C926 C 0.776 0.69839 0.84474 0.0
C927 C 0.82606 0.66692 0.74013 0.0
H928 H 0.76498 0.63396 0.75987 0.0
H929 H 0.76544 0.67469 0.62954 0.0
H930 H 0.8025 0.64692 0.83538 0.0
H931 H 0.7848 0.65772 0.87175 0.0
H932 H 0.78192 0.63555 0.84534 0.0
H933 H 0.78273 0.69991 0.63727 0.0
H934 H 0.78543 0.70725 0.71171 0.0
H935 H 0.80312 0.69637 0.67539 0.0
H936 H 0.8031 0.71673 0.89032 0.0
H937 H 0.84524 0.69001 0.80259 0.0
H938 H 0.7697 0.68574 0.85679 0.0
H939 H 0.76944 0.70321 0.80455 0.0
H940 H 0.77369 0.70803 0.88043 0.0
H941 H 0.82055 0.65379 0.75077 0.0
H942 H 0.84061 0.66605 0.74028 0.0
H943 H 0.82169 0.67028 0.69522 0.0
loop_
_geom_bond_atom_site_label_1
_geom_bond_atom_site_label_2
_geom_bond_distance
_geom_bond_site_symmetry_2
_ccdc_geom_bond_type
O0 Cd1 2.300 . S
O0 C7 1.275 . S
Cd1 O0 2.300 . S
Cd1 O9 2.381 . S
Cd1 O10 2.378 . S
O2 Cd3 2.385 . S
O2 C7 1.255 . S
Cd3 O2 2.385 . S
Cd3 O4 2.317 . S
O4 Cd3 2.317 . S
O4 C5 1.232 . S
C5 O4 1.232 . S
C5 O6 1.218 . S
O6 C5 1.218 . S
C7 O0 1.275 . S
C7 O2 1.255 . S
C8 O9 1.258 . S
C8 O10 1.256 . S
O9 Cd1 2.381 . S
O9 C8 1.258 . S
O10 Cd1 2.378 . S
O10 C8 1.256 . S
O11 Cd12 2.300 . S
O11 C18 1.275 . S
Cd12 O11 2.300 . S
Cd12 O20 2.381 . S
Cd12 O21 2.378 . S
O13 Cd14 2.385 . S
O13 C18 1.255 . S
Cd14 O13 2.385 . S
Cd14 O15 2.317 . S
O15 Cd14 2.317 . S
O15 C16 1.232 . S
C16 O15 1.232 . S
C16 O17 1.218 . S
O17 C16 1.218 . S
C18 O11 1.275 . S
C18 O13 1.255 . S
C19 O20 1.258 . S
C19 O21 1.256 . S
O20 Cd12 2.381 . S
O20 C19 1.258 . S
O21 Cd12 2.378 . S
O21 C19 1.256 . S
O22 Cd23 2.300 . S
O22 C29 1.275 . S
Cd23 O22 2.300 . S
Cd23 O31 2.381 . S
Cd23 O32 2.378 . S
O24 Cd25 2.385 . S
O24 C29 1.255 . S
Cd25 O24 2.385 . S
Cd25 O26 2.317 . S
O26 Cd25 2.317 . S
O26 C27 1.232 . S
C27 O26 1.232 . S
C27 O28 1.218 . S
O28 C27 1.218 . S
C29 O22 1.275 . S
C29 O24 1.255 . S
C30 O31 1.258 . S
C30 O32 1.256 . S
O31 Cd23 2.381 . S
O31 C30 1.258 . S
O32 Cd23 2.378 . S
O32 C30 1.256 . S
O33 Cd34 2.300 . S
O33 C40 1.275 . S
Cd34 O33 2.300 . S
Cd34 O42 2.381 . S
Cd34 O43 2.378 . S
O35 Cd36 2.385 . S
O35 C40 1.255 . S
Cd36 O35 2.385 . S
Cd36 O37 2.317 . S
O37 Cd36 2.317 . S
O37 C38 1.232 . S
C38 O37 1.232 . S
C38 O39 1.218 . S
O39 C38 1.218 . S
C40 O33 1.275 . S
C40 O35 1.255 . S
C41 O42 1.258 . S
C41 O43 1.256 . S
O42 Cd34 2.381 . S
O42 C41 1.258 . S
O43 Cd34 2.378 . S
O43 C41 1.256 . S
O44 Cd45 2.300 . S
O44 C51 1.275 . S
Cd45 O44 2.300 . S
Cd45 O53 2.381 . S
Cd45 O54 2.378 . S
O46 Cd47 2.385 . S
O46 C51 1.255 . S
Cd47 O46 2.385 . S
Cd47 O48 2.317 . S
O48 Cd47 2.317 . S
O48 C49 1.232 . S
C49 O48 1.232 . S
C49 O50 1.218 . S
O50 C49 1.218 . S
C51 O44 1.275 . S
C51 O46 1.255 . S
C52 O53 1.258 . S
C52 O54 1.256 . S
O53 Cd45 2.381 . S
O53 C52 1.258 . S
O54 Cd45 2.378 . S
O54 C52 1.256 . S
O55 Cd56 2.300 . S
O55 C62 1.275 . S
Cd56 O55 2.300 . S
Cd56 O64 2.381 . S
Cd56 O65 2.378 . S
O57 Cd58 2.385 . S
O57 C62 1.255 . S
Cd58 O57 2.385 . S
Cd58 O59 2.317 . S
O59 Cd58 2.317 . S
O59 C60 1.232 . S
C60 O59 1.232 . S
C60 O61 1.218 . S
O61 C60 1.218 . S
C62 O55 1.275 . S
C62 O57 1.255 . S
C63 O64 1.258 . S
C63 O65 1.256 . S
O64 Cd56 2.381 . S
O64 C63 1.258 . S
O65 Cd56 2.378 . S
O65 C63 1.256 . S
O66 Cd67 2.300 . S
O66 C73 1.275 . S
Cd67 O66 2.300 . S
Cd67 O75 2.381 . S
Cd67 O76 2.378 . S
O68 Cd69 2.385 . S
O68 C73 1.255 . S
Cd69 O68 2.385 . S
Cd69 O70 2.317 . S
O70 Cd69 2.317 . S
O70 C71 1.232 . S
C71 O70 1.232 . S
C71 O72 1.218 . S
O72 C71 1.218 . S
C73 O66 1.275 . S
C73 O68 1.255 . S
C74 O75 1.258 . S
C74 O76 1.256 . S
O75 Cd67 2.381 . S
O75 C74 1.258 . S
O76 Cd67 2.378 . S
O76 C74 1.256 . S
O77 Cd78 2.300 . S
O77 C84 1.275 . S
Cd78 O77 2.300 . S
Cd78 O86 2.381 . S
Cd78 O87 2.378 . S
O79 Cd80 2.385 . S
O79 C84 1.255 . S
Cd80 O79 2.385 . S
Cd80 O81 2.317 . S
O81 Cd80 2.317 . S
O81 C82 1.232 . S
C82 O81 1.232 . S
C82 O83 1.218 . S
O83 C82 1.218 . S
C84 O77 1.275 . S
C84 O79 1.255 . S
C85 O86 1.258 . S
C85 O87 1.256 . S
O86 Cd78 2.381 . S
O86 C85 1.258 . S
O87 Cd78 2.378 . S
O87 C85 1.256 . S
O88 Cd89 2.300 . S
O88 C95 1.275 . S
Cd89 O88 2.300 . S
Cd89 O97 2.381 . S
Cd89 O98 2.378 . S
O90 Cd91 2.385 . S
O90 C95 1.255 . S
Cd91 O90 2.385 . S
Cd91 O92 2.317 . S
O92 Cd91 2.317 . S
O92 C93 1.232 . S
C93 O92 1.232 . S
C93 O94 1.218 . S
O94 C93 1.218 . S
C95 O88 1.275 . S
C95 O90 1.255 . S
C96 O97 1.258 . S
C96 O98 1.256 . S
O97 Cd89 2.381 . S
O97 C96 1.258 . S
O98 Cd89 2.378 . S
O98 C96 1.256 . S
O99 Cd100 2.300 . S
O99 C106 1.275 . S
Cd100 O99 2.300 . S
Cd100 O108 2.381 . S
Cd100 O109 2.378 . S
O101 Cd102 2.385 . S
O101 C106 1.255 . S
Cd102 O101 2.385 . S
Cd102 O103 2.317 . S
O103 Cd102 2.317 . S
O103 C104 1.232 . S
C104 O103 1.232 . S
C104 O105 1.218 . S
O105 C104 1.218 . S
C106 O99 1.275 . S
C106 O101 1.255 . S
C107 O108 1.258 . S
C107 O109 1.256 . S
O108 Cd100 2.381 . S
O108 C107 1.258 . S
O109 Cd100 2.378 . S
O109 C107 1.256 . S
O110 Cd111 2.300 . S
O110 C117 1.275 . S
Cd111 O110 2.300 . S
Cd111 O119 2.381 . S
Cd111 O120 2.378 . S
O112 Cd113 2.385 . S
O112 C117 1.255 . S
Cd113 O112 2.385 . S
Cd113 O114 2.317 . S
O114 Cd113 2.317 . S
O114 C115 1.232 . S
C115 O114 1.232 . S
C115 O116 1.218 . S
O116 C115 1.218 . S
C117 O110 1.275 . S
C117 O112 1.255 . S
C118 O119 1.258 . S
C118 O120 1.256 . S
O119 Cd111 2.381 . S
O119 C118 1.258 . S
O120 Cd111 2.378 . S
O120 C118 1.256 . S
O121 Cd122 2.300 . S
O121 C128 1.275 . S
Cd122 O121 2.300 . S
Cd122 O130 2.381 . S
Cd122 O131 2.378 . S
O123 Cd124 2.385 . S
O123 C128 1.255 . S
Cd124 O123 2.385 . S
Cd124 O125 2.317 . S
O125 Cd124 2.317 . S
O125 C126 1.232 . S
C126 O125 1.232 . S
C126 O127 1.218 . S
O127 C126 1.218 . S
C128 O121 1.275 . S
C128 O123 1.255 . S
C129 O130 1.258 . S
C129 O131 1.256 . S
O130 Cd122 2.381 . S
O130 C129 1.258 . S
O131 Cd122 2.378 . S
O131 C129 1.256 . S
O132 Cd133 2.300 . S
O132 C139 1.275 . S
Cd133 O132 2.300 . S
Cd133 O141 2.381 . S
Cd133 O142 2.378 . S
O134 Cd135 2.385 . S
O134 C139 1.255 . S
Cd135 O134 2.385 . S
Cd135 O136 2.317 . S
O136 Cd135 2.317 . S
O136 C137 1.232 . S
C137 O136 1.232 . S
C137 O138 1.218 . S
O138 C137 1.218 . S
C139 O132 1.275 . S
C139 O134 1.255 . S
C140 O141 1.258 . S
C140 O142 1.256 . S
O141 Cd133 2.381 . S
O141 C140 1.258 . S
O142 Cd133 2.378 . S
O142 C140 1.256 . S
O143 Cd144 2.300 . S
O143 C150 1.275 . S
Cd144 O143 2.300 . S
Cd144 O152 2.381 . S
Cd144 O153 2.378 . S
O145 Cd146 2.385 . S
O145 C150 1.255 . S
Cd146 O145 2.385 . S
Cd146 O147 2.317 . S
O147 Cd146 2.317 . S
O147 C148 1.232 . S
C148 O147 1.232 . S
C148 O149 1.218 . S
O149 C148 1.218 . S
C150 O143 1.275 . S
C150 O145 1.255 . S
C151 O152 1.258 . S
C151 O153 1.256 . S
O152 Cd144 2.381 . S
O152 C151 1.258 . S
O153 Cd144 2.378 . S
O153 C151 1.256 . S
O154 Cd155 2.300 . S
O154 C161 1.275 . S
Cd155 O154 2.300 . S
Cd155 O163 2.381 . S
Cd155 O164 2.378 . S
O156 Cd157 2.385 . S
O156 C161 1.255 . S
Cd157 O156 2.385 . S
Cd157 O158 2.317 . S
O158 Cd157 2.317 . S
O158 C159 1.232 . S
C159 O158 1.232 . S
C159 O160 1.218 . S
O160 C159 1.218 . S
C161 O154 1.275 . S
C161 O156 1.255 . S
C162 O163 1.258 . S
C162 O164 1.256 . S
O163 Cd155 2.381 . S
O163 C162 1.258 . S
O164 Cd155 2.378 . S
O164 C162 1.256 . S
O165 Cd166 2.300 . S
O165 C172 1.275 . S
Cd166 O165 2.300 . S
Cd166 O174 2.381 . S
Cd166 O175 2.378 . S
O167 Cd168 2.385 . S
O167 C172 1.255 . S
Cd168 O167 2.385 . S
Cd168 O169 2.317 . S
O169 Cd168 2.317 . S
O169 C170 1.232 . S
C170 O169 1.232 . S
C170 O171 1.218 . S
O171 C170 1.218 . S
C172 O165 1.275 . S
C172 O167 1.255 . S
C173 O174 1.258 . S
C173 O175 1.256 . S
O174 Cd166 2.381 . S
O174 C173 1.258 . S
O175 Cd166 2.378 . S
O175 C173 1.256 . S
C176 C177 1.391 . S
C176 C178 1.394 . S
C176 H192 0.931 . S
C177 C176 1.391 . S
C177 C181 1.376 . S
C178 C176 1.394 . S
C178 C179 1.369 . S
C178 C182 1.531 . S
C179 C178 1.369 . S
C179 C180 1.410 . S
C179 C187 1.503 1_566 S
C180 C179 1.410 . S
C180 C181 1.392 . S
C180 C183 1.511 1_556 S
C181 C177 1.376 . S
C181 C180 1.392 . S
C181 H193 0.929 . S
C182 C178 1.531 . S
C182 H194 0.960 1_565 S
C182 H195 0.962 . S
C182 H196 0.960 . S
C183 C180 1.511 1_554 S
C183 H197 0.961 . S
C183 H198 0.961 . S
C183 H199 0.961 1_554 S
C184 C185 1.370 . S
C184 C186 1.363 . S
C184 H200 0.931 . S
C185 C184 1.370 . S
C185 C189 1.408 . S
C186 C184 1.363 . S
C186 C187 1.370 . S
C186 C190 1.524 1_545 S
C187 C179 1.503 1_544 S
C187 C186 1.370 . S
C187 C188 1.403 1_554 S
C188 C187 1.403 1_556 S
C188 C189 1.404 1_556 S
C188 C191 1.539 . S
C189 C185 1.408 . S
C189 C188 1.404 1_554 S
C189 H201 0.930 1_554 S
C190 C186 1.524 1_565 S
C190 H202 0.956 . S
C190 H203 0.961 . S
C190 H204 0.963 . S
C191 C188 1.539 . S
C191 H205 0.958 . S
C191 H206 0.961 . S
C191 H207 0.960 . S
H192 C176 0.931 . S
H193 C181 0.929 . S
H194 C182 0.960 1_545 S
H195 C182 0.962 . S
H196 C182 0.960 . S
H197 C183 0.961 . S
H198 C183 0.961 . S
H199 C183 0.961 1_556 S
H200 C184 0.931 . S
H201 C189 0.930 1_556 S
H202 C190 0.956 . S
H203 C190 0.961 . S
H204 C190 0.963 . S
H205 C191 0.958 . S
H206 C191 0.961 . S
H207 C191 0.960 . S
C208 C209 1.391 . S
C208 C210 1.394 . S
C208 H224 0.931 . S
C209 C208 1.391 . S
C209 C213 1.376 1_554 S
C210 C208 1.394 . S
C210 C211 1.369 . S
C210 C214 1.531 1_655 S
C211 C210 1.369 . S
C211 C212 1.410 1_554 S
C211 C219 1.503 1_654 S
C212 C211 1.410 1_556 S
C212 C213 1.392 . S
C212 C215 1.511 . S
C213 C209 1.376 1_556 S
C213 C212 1.392 . S
C213 H225 0.929 . S
C214 C210 1.531 1_455 S
C214 H226 0.960 . S
C214 H227 0.962 . S
C214 H228 0.969 . S
C215 C212 1.511 . S
C215 H229 0.961 . S
C215 H230 0.961 . S
C215 H231 0.961 . S
C216 C217 1.370 . S
C216 C218 1.363 . S
C216 H232 0.931 . S
C217 C216 1.370 . S
C217 C221 1.408 . S
C218 C216 1.363 . S
C218 C219 1.370 . S
C218 C222 1.525 . S
C219 C211 1.503 1_456 S
C219 C218 1.370 . S
C219 C220 1.403 . S
C220 C219 1.403 . S
C220 C221 1.404 . S
C220 C223 1.539 . S
C221 C217 1.408 . S
C221 C220 1.404 . S
C221 H233 0.930 . S
C222 C218 1.525 . S
C222 H234 0.953 1_556 S
C222 H235 0.962 1_455 S
C222 H236 0.961 . S
C223 C220 1.539 . S
C223 H237 0.958 1_556 S
C223 H238 0.961 . S
C223 H239 0.960 1_455 S
H224 C208 0.931 . S
H225 C213 0.929 . S
H226 C214 0.960 . S
H227 C214 0.962 . S
H228 C214 0.969 . S
H229 C215 0.961 . S
H230 C215 0.961 . S
H231 C215 0.961 . S
H232 C216 0.931 . S
H233 C221 0.930 . S
H234 C222 0.953 1_554 S
H235 C222 0.962 1_655 S
H236 C222 0.961 . S
H237 C223 0.958 1_554 S
H238 C223 0.961 . S
H239 C223 0.960 1_655 S
C240 C241 1.391 . S
C240 C242 1.394 . S
C240 H256 0.931 . S
C241 C240 1.391 . S
C241 C245 1.376 . S
C242 C240 1.394 . S
C242 C243 1.369 . S
C242 C246 1.531 . S
C243 C242 1.369 . S
C243 C244 1.410 . S
C243 C251 1.503 1_546 S
C244 C243 1.410 . S
C244 C245 1.392 . S
C244 C247 1.511 . S
C245 C241 1.376 . S
C245 C244 1.392 . S
C245 H257 0.929 . S
C246 C242 1.531 . S
C246 H258 0.960 1_545 S
C246 H259 0.962 1_556 S
C246 H260 0.960 . S
C247 C244 1.511 . S
C247 H261 0.961 . S
C247 H262 0.961 1_545 S
C247 H263 0.961 1_545 S
C248 C249 1.370 . S
C248 C250 1.363 . S
C248 H264 0.931 . S
C249 C248 1.370 . S
C249 C253 1.408 1_554 S
C250 C248 1.363 . S
C250 C251 1.370 . S
C250 C254 1.524 1_565 S
C251 C243 1.503 1_564 S
C251 C250 1.370 . S
C251 C252 1.403 1_554 S
C252 C251 1.403 1_556 S
C252 C253 1.404 . S
C252 C255 1.539 . S
C253 C249 1.408 1_556 S
C253 C252 1.404 . S
C253 H265 0.930 . S
C254 C250 1.524 1_545 S
C254 H266 0.956 . S
C254 H267 0.961 . S
C254 H268 0.961 . S
C255 C252 1.539 . S
C255 H269 0.958 . S
C255 H270 0.961 . S
C255 H271 0.960 . S
H256 C240 0.931 . S
H257 C245 0.929 . S
H258 C246 0.960 1_565 S
H259 C246 0.962 1_554 S
H260 C246 0.960 . S
H261 C247 0.961 . S
H262 C247 0.961 1_565 S
H263 C247 0.961 1_565 S
H264 C248 0.931 . S
H265 C253 0.930 . S
H266 C254 0.956 . S
H267 C254 0.961 . S
H268 C254 0.961 . S
H269 C255 0.958 . S
H270 C255 0.961 . S
H271 C255 0.960 . S
C272 C273 1.391 . S
C272 C274 1.394 1_554 S
C272 H288 0.931 1_554 S
C273 C272 1.391 . S
C273 C277 1.376 . S
C274 C272 1.394 1_556 S
C274 C275 1.369 1_556 S
C274 C278 1.531 . S
C275 C274 1.369 1_554 S
C275 C276 1.410 . S
C275 C283 1.503 1_454 S
C276 C275 1.410 . S
C276 C277 1.392 . S
C276 C279 1.553 . S
C277 C273 1.376 . S
C277 C276 1.392 . S
C277 H289 0.929 . S
C278 C274 1.531 . S
C278 H290 0.960 . S
C278 H291 0.962 . S
C278 H292 0.960 . S
C279 C276 1.553 . S
C279 H293 0.974 . S
C279 H294 0.905 1_455 S
C279 H295 0.967 . S
C280 C281 1.370 . S
C280 C282 1.363 1_556 S
C280 H296 0.929 1_556 S
C281 C280 1.370 . S
C281 C285 1.408 . S
C282 C280 1.363 1_554 S
C282 C283 1.370 1_554 S
C282 C286 1.524 . S
C283 C275 1.503 1_656 S
C283 C282 1.370 1_556 S
C283 C284 1.403 . S
C284 C283 1.403 . S
C284 C285 1.404 . S
C284 C287 1.573 . S
C285 C281 1.408 . S
C285 C284 1.404 . S
C285 H297 0.930 . S
C286 C282 1.524 . S
C286 H298 0.956 . S
C286 H299 0.961 . S
C286 H300 0.961 . S
C287 C284 1.573 . S
C287 H301 0.934 1_655 S
C287 H302 0.991 . S
C287 H303 0.924 1_655 S
H288 C272 0.931 1_556 S
H289 C277 0.929 . S
H290 C278 0.960 . S
H291 C278 0.962 . S
H292 C278 0.960 . S
H293 C279 0.974 . S
H294 C279 0.905 1_655 S
H295 C279 0.967 . S
H296 C280 0.929 1_554 S
H297 C285 0.930 . S
H298 C286 0.956 . S
H299 C286 0.961 . S
H300 C286 0.961 . S
H301 C287 0.934 1_455 S
H302 C287 0.991 . S
H303 C287 0.924 1_455 S
C304 C305 1.391 . S
C304 C306 1.394 . S
C304 H320 0.931 . S
C305 C304 1.391 . S
C305 C309 1.376 . S
C306 C304 1.394 . S
C306 C307 1.369 . S
C306 C310 1.531 . S
C307 C306 1.369 . S
C307 C308 1.410 . S
C307 C315 1.503 . S
C308 C307 1.410 . S
C308 C309 1.392 . S
C308 C311 1.511 . S
C309 C305 1.376 . S
C309 C308 1.392 . S
C309 H321 0.929 . S
C310 C306 1.531 . S
C310 H322 0.960 . S
C310 H323 0.962 . S
C310 H324 0.960 . S
C311 C308 1.511 . S
C311 H325 0.961 . S
C311 H326 0.961 . S
C311 H327 0.961 . S
C312 C313 1.370 . S
C312 C314 1.363 . S
C312 H328 0.931 . S
C313 C312 1.370 . S
C313 C317 1.408 . S
C314 C312 1.363 . S
C314 C315 1.370 . S
C314 C318 1.524 . S
C315 C307 1.503 . S
C315 C314 1.370 . S
C315 C316 1.403 . S
C316 C315 1.403 . S
C316 C317 1.404 . S
C316 C319 1.539 . S
C317 C313 1.408 . S
C317 C316 1.404 . S
C317 H329 0.930 . S
C318 C314 1.524 . S
C318 H330 0.956 . S
C318 H331 0.961 . S
C318 H332 0.961 . S
C319 C316 1.539 . S
C319 H333 0.958 . S
C319 H334 0.961 . S
C319 H335 0.960 . S
H320 C304 0.931 . S
H321 C309 0.929 . S
H322 C310 0.960 . S
H323 C310 0.962 . S
H324 C310 0.960 . S
H325 C311 0.961 . S
H326 C311 0.961 . S
H327 C311 0.961 . S
H328 C312 0.931 . S
H329 C317 0.930 . S
H330 C318 0.956 . S
H331 C318 0.961 . S
H332 C318 0.961 . S
H333 C319 0.958 . S
H334 C319 0.961 . S
H335 C319 0.960 . S
C336 C337 1.391 . S
C336 C338 1.394 . S
C336 H352 0.931 . S
C337 C336 1.391 . S
C337 C341 1.376 . S
C338 C336 1.394 . S
C338 C339 1.369 . S
C338 C342 1.531 . S
C339 C338 1.369 . S
C339 C340 1.410 . S
C339 C347 1.503 . S
C340 C339 1.410 . S
C340 C341 1.392 . S
C340 C343 1.511 . S
C341 C337 1.376 . S
C341 C340 1.392 . S
C341 H353 0.929 . S
C342 C338 1.531 . S
C342 H354 0.960 . S
C342 H355 0.962 . S
C342 H356 0.960 . S
C343 C340 1.511 . S
C343 H357 0.961 . S
C343 H358 0.961 . S
C343 H359 0.961 . S
C344 C345 1.370 . S
C344 C346 1.363 . S
C344 H360 0.931 . S
C345 C344 1.370 . S
C345 C349 1.408 . S
C346 C344 1.363 . S
C346 C347 1.370 . S
C346 C350 1.524 . S
C347 C339 1.503 . S
C347 C346 1.370 . S
C347 C348 1.403 . S
C348 C347 1.403 . S
C348 C349 1.404 . S
C348 C351 1.539 . S
C349 C345 1.408 . S
C349 C348 1.404 . S
C349 H361 0.930 . S
C350 C346 1.524 . S
C350 H362 0.956 . S
C350 H363 0.961 . S
C350 H364 0.961 . S
C351 C348 1.539 . S
C351 H365 0.958 . S
C351 H366 0.961 . S
C351 H367 0.960 . S
H352 C336 0.931 . S
H353 C341 0.929 . S
H354 C342 0.960 . S
H355 C342 0.962 . S
H356 C342 0.960 . S
H357 C343 0.961 . S
H358 C343 0.961 . S
H359 C343 0.961 . S
H360 C344 0.931 . S
H361 C349 0.930 . S
H362 C350 0.956 . S
H363 C350 0.961 . S
H364 C350 0.961 . S
H365 C351 0.958 . S
H366 C351 0.961 . S
H367 C351 0.960 . S
C368 C369 1.391 . S
C368 C370 1.394 . S
C368 H384 0.931 . S
C369 C368 1.391 . S
C369 C373 1.376 . S
C370 C368 1.394 . S
C370 C371 1.369 . S
C370 C374 1.531 . S
C371 C370 1.369 . S
C371 C372 1.410 . S
C371 C379 1.503 . S
C372 C371 1.410 . S
C372 C373 1.392 . S
C372 C375 1.511 . S
C373 C369 1.376 . S
C373 C372 1.392 . S
C373 H385 0.929 . S
C374 C370 1.531 . S
C374 H386 0.960 . S
C374 H387 0.962 . S
C374 H388 0.960 . S
C375 C372 1.511 . S
C375 H389 0.961 . S
C375 H390 0.961 . S
C375 H391 0.961 . S
C376 C377 1.370 . S
C376 C378 1.363 . S
C376 H392 0.931 . S
C377 C376 1.370 . S
C377 C381 1.408 . S
C378 C376 1.363 . S
C378 C379 1.370 . S
C378 C382 1.524 . S
C379 C371 1.503 . S
C379 C378 1.370 . S
C379 C380 1.403 . S
C380 C379 1.403 . S
C380 C381 1.404 . S
C380 C383 1.539 . S
C381 C377 1.408 . S
C381 C380 1.404 . S
C381 H393 0.930 . S
C382 C378 1.524 . S
C382 H394 0.956 . S
C382 H395 0.961 . S
C382 H396 0.961 . S
C383 C380 1.539 . S
C383 H397 0.958 . S
C383 H398 0.961 . S
C383 H399 0.960 . S
H384 C368 0.931 . S
H385 C373 0.929 . S
H386 C374 0.960 . S
H387 C374 0.962 . S
H388 C374 0.960 . S
H389 C375 0.961 . S
H390 C375 0.961 . S
H391 C375 0.961 . S
H392 C376 0.931 . S
H393 C381 0.930 . S
H394 C382 0.956 . S
H395 C382 0.961 . S
H396 C382 0.961 . S
H397 C383 0.958 . S
H398 C383 0.961 . S
H399 C383 0.960 . S
C400 C401 1.391 . S
C400 C402 1.394 . S
C400 H416 0.931 . S
C401 C400 1.391 . S
C401 C405 1.376 . S
C402 C400 1.394 . S
C402 C403 1.369 . S
C402 C406 1.531 . S
C403 C402 1.369 . S
C403 C404 1.410 . S
C403 C411 1.503 . S
C404 C403 1.410 . S
C404 C405 1.392 . S
C404 C407 1.511 . S
C405 C401 1.376 . S
C405 C404 1.392 . S
C405 H417 0.929 . S
C406 C402 1.531 . S
C406 H418 0.960 . S
C406 H419 0.962 . S
C406 H420 0.960 . S
C407 C404 1.511 . S
C407 H421 0.961 . S
C407 H422 0.961 . S
C407 H423 0.961 . S
C408 C409 1.370 . S
C408 C410 1.363 . S
C408 H424 0.931 . S
C409 C408 1.370 . S
C409 C413 1.408 . S
C410 C408 1.363 . S
C410 C411 1.370 . S
C410 C414 1.524 . S
C411 C403 1.503 . S
C411 C410 1.370 . S
C411 C412 1.403 . S
C412 C411 1.403 . S
C412 C413 1.404 . S
C412 C415 1.539 . S
C413 C409 1.408 . S
C413 C412 1.404 . S
C413 H425 0.930 . S
C414 C410 1.524 . S
C414 H426 0.956 . S
C414 H427 0.961 . S
C414 H428 0.961 . S
C415 C412 1.539 . S
C415 H429 0.958 . S
C415 H430 0.961 . S
C415 H431 0.960 . S
H416 C400 0.931 . S
H417 C405 0.929 . S
H418 C406 0.960 . S
H419 C406 0.962 . S
H420 C406 0.960 . S
H421 C407 0.961 . S
H422 C407 0.961 . S
H423 C407 0.961 . S
H424 C408 0.931 . S
H425 C413 0.930 . S
H426 C414 0.956 . S
H427 C414 0.961 . S
H428 C414 0.961 . S
H429 C415 0.958 . S
H430 C415 0.961 . S
H431 C415 0.960 . S
C432 C433 1.391 . S
C432 C434 1.394 . S
C432 H448 0.931 . S
C433 C432 1.391 . S
C433 C437 1.376 . S
C434 C432 1.394 . S
C434 C435 1.369 . S
C434 C438 1.531 . S
C435 C434 1.369 . S
C435 C436 1.410 . S
C435 C443 1.503 1_554 S
C436 C435 1.410 . S
C436 C437 1.392 . S
C436 C439 1.511 1_554 S
C437 C433 1.376 . S
C437 C436 1.392 . S
C437 H449 0.929 . S
C438 C434 1.531 . S
C438 H450 0.960 . S
C438 H451 0.962 . S
C438 H452 0.960 . S
C439 C436 1.511 1_556 S
C439 H453 0.961 . S
C439 H454 0.961 . S
C439 H455 0.961 1_556 S
C440 C441 1.370 . S
C440 C442 1.363 . S
C440 H456 0.931 . S
C441 C440 1.370 . S
C441 C445 1.408 . S
C442 C440 1.363 . S
C442 C443 1.370 . S
C442 C446 1.524 . S
C443 C435 1.503 1_556 S
C443 C442 1.370 . S
C443 C444 1.403 1_556 S
C444 C443 1.403 1_554 S
C444 C445 1.404 1_554 S
C444 C447 1.539 . S
C445 C441 1.408 . S
C445 C444 1.404 1_556 S
C445 H457 0.930 1_556 S
C446 C442 1.524 . S
C446 H458 0.956 . S
C446 H459 0.961 . S
C446 H460 0.961 . S
C447 C444 1.539 . S
C447 H461 0.958 . S
C447 H462 0.961 . S
C447 H463 0.960 . S
H448 C432 0.931 . S
H449 C437 0.929 . S
H450 C438 0.960 . S
H451 C438 0.962 . S
H452 C438 0.960 . S
H453 C439 0.961 . S
H454 C439 0.961 . S
H455 C439 0.961 1_554 S
H456 C440 0.931 . S
H457 C445 0.930 1_554 S
H458 C446 0.956 . S
H459 C446 0.961 . S
H460 C446 0.961 . S
H461 C447 0.958 . S
H462 C447 0.961 . S
H463 C447 0.960 . S
C464 C465 1.391 . S
C464 C466 1.394 1_556 S
C464 H480 0.931 1_556 S
C465 C464 1.391 . S
C465 C469 1.376 . S
C466 C464 1.394 1_554 S
C466 C467 1.369 1_554 S
C466 C470 1.531 . S
C467 C466 1.369 1_556 S
C467 C468 1.410 . S
C467 C475 1.503 1_556 S
C468 C467 1.410 . S
C468 C469 1.392 . S
C468 C471 1.511 . S
C469 C465 1.376 . S
C469 C468 1.392 . S
C469 H481 0.929 . S
C470 C466 1.531 . S
C470 H482 0.960 . S
C470 H483 0.962 . S
C470 H484 0.960 . S
C471 C468 1.511 . S
C471 H485 0.961 . S
C471 H486 0.961 . S
C471 H487 0.961 . S
C472 C473 1.370 . S
C472 C474 1.363 . S
C472 H488 0.931 . S
C473 C472 1.370 . S
C473 C477 1.408 . S
C474 C472 1.363 . S
C474 C475 1.370 . S
C474 C478 1.524 . S
C475 C467 1.503 1_554 S
C475 C474 1.370 . S
C475 C476 1.403 . S
C476 C475 1.403 . S
C476 C477 1.404 . S
C476 C479 1.539 1_554 S
C477 C473 1.408 . S
C477 C476 1.404 . S
C477 H489 0.930 . S
C478 C474 1.524 . S
C478 H490 0.956 . S
C478 H491 0.961 1_554 S
C478 H492 0.961 . S
C479 C476 1.539 1_556 S
C479 H493 0.958 1_556 S
C479 H494 0.961 . S
C479 H495 0.960 . S
H480 C464 0.931 1_554 S
H481 C469 0.929 . S
H482 C470 0.960 . S
H483 C470 0.962 . S
H484 C470 0.960 . S
H485 C471 0.961 . S
H486 C471 0.961 . S
H487 C471 0.961 . S
H488 C472 0.931 . S
H489 C477 0.930 . S
H490 C478 0.956 . S
H491 C478 0.961 1_556 S
H492 C478 0.961 . S
H493 C479 0.958 1_554 S
H494 C479 0.961 . S
H495 C479 0.960 . S
C496 C497 1.391 . S
C496 C498 1.394 . S
C496 H512 0.931 . S
C497 C496 1.391 . S
C497 C501 1.376 . S
C498 C496 1.394 . S
C498 C499 1.369 . S
C498 C502 1.531 . S
C499 C498 1.369 . S
C499 C500 1.410 . S
C499 C507 1.503 1_554 S
C500 C499 1.410 . S
C500 C501 1.392 . S
C500 C503 1.511 . S
C501 C497 1.376 . S
C501 C500 1.392 . S
C501 H513 0.929 . S
C502 C498 1.531 . S
C502 H514 0.960 . S
C502 H515 0.962 1_554 S
C502 H516 0.960 . S
C503 C500 1.511 . S
C503 H517 0.961 . S
C503 H518 0.961 1_554 S
C503 H519 0.961 . S
C504 C505 1.370 . S
C504 C506 1.363 . S
C504 H520 0.931 . S
C505 C504 1.370 . S
C505 C509 1.408 . S
C506 C504 1.363 . S
C506 C507 1.370 . S
C506 C510 1.524 . S
C507 C499 1.503 1_556 S
C507 C506 1.370 . S
C507 C508 1.403 1_556 S
C508 C507 1.403 1_554 S
C508 C509 1.404 1_554 S
C508 C511 1.539 . S
C509 C505 1.408 . S
C509 C508 1.404 1_556 S
C509 H521 0.930 1_556 S
C510 C506 1.524 . S
C510 H522 0.956 . S
C510 H523 0.961 . S
C510 H524 0.961 . S
C511 C508 1.539 . S
C511 H525 0.958 . S
C511 H526 0.961 . S
C511 H527 0.960 . S
H512 C496 0.931 . S
H513 C501 0.929 . S
H514 C502 0.960 . S
H515 C502 0.962 1_556 S
H516 C502 0.960 . S
H517 C503 0.961 . S
H518 C503 0.961 1_556 S
H519 C503 0.961 . S
H520 C504 0.931 . S
H521 C509 0.930 1_554 S
H522 C510 0.956 . S
H523 C510 0.961 . S
H524 C510 0.961 . S
H525 C511 0.958 . S
H526 C511 0.961 . S
H527 C511 0.960 . S
C528 C529 1.391 . S
C528 C530 1.394 . S
C528 H544 0.931 . S
C529 C528 1.391 . S
C529 C533 1.376 . S
C530 C528 1.394 . S
C530 C531 1.369 . S
C530 C534 1.531 . S
C531 C530 1.369 . S
C531 C532 1.410 . S
C531 C539 1.503 1_554 S
C532 C531 1.410 . S
C532 C533 1.392 . S
C532 C535 1.511 1_554 S
C533 C529 1.376 . S
C533 C532 1.392 . S
C533 H545 0.929 . S
C534 C530 1.531 . S
C534 H546 0.960 1_554 S
C534 H547 0.962 . S
C534 H548 0.960 1_554 S
C535 C532 1.511 1_556 S
C535 H549 0.961 1_556 S
C535 H550 0.961 . S
C535 H551 0.961 . S
C536 C537 1.370 . S
C536 C538 1.363 1_556 S
C536 H552 0.931 1_556 S
C537 C536 1.370 . S
C537 C541 1.408 . S
C538 C536 1.363 1_554 S
C538 C539 1.370 1_554 S
C538 C542 1.524 . S
C539 C531 1.503 1_556 S
C539 C538 1.370 1_556 S
C539 C540 1.403 . S
C540 C539 1.403 . S
C540 C541 1.404 . S
C540 C543 1.539 . S
C541 C537 1.408 . S
C541 C540 1.404 . S
C541 H553 0.930 . S
C542 C538 1.524 . S
C542 H554 0.956 . S
C542 H555 0.961 . S
C542 H556 0.961 . S
C543 C540 1.539 . S
C543 H557 0.958 . S
C543 H558 0.961 . S
C543 H559 0.960 . S
H544 C528 0.931 . S
H545 C533 0.929 . S
H546 C534 0.960 1_556 S
H547 C534 0.962 . S
H548 C534 0.960 1_556 S
H549 C535 0.961 1_554 S
H550 C535 0.961 . S
H551 C535 0.961 . S
H552 C536 0.931 1_554 S
H553 C541 0.930 . S
H554 C542 0.956 . S
H555 C542 0.961 . S
H556 C542 0.961 . S
H557 C543 0.958 . S
H558 C543 0.961 . S
H559 C543 0.960 . S
C560 C561 1.391 . S
C560 C562 1.394 . S
C560 H576 0.931 . S
C561 C560 1.391 . S
C561 C565 1.376 . S
C562 C560 1.394 . S
C562 C563 1.369 . S
C562 C566 1.531 . S
C563 C562 1.369 . S
C563 C564 1.410 . S
C563 C571 1.503 . S
C564 C563 1.410 . S
C564 C565 1.392 . S
C564 C567 1.511 . S
C565 C561 1.376 . S
C565 C564 1.392 . S
C565 H577 0.929 . S
C566 C562 1.531 . S
C566 H578 0.960 . S
C566 H579 0.962 . S
C566 H580 0.960 . S
C567 C564 1.511 . S
C567 H581 0.961 . S
C567 H582 0.961 . S
C567 H583 0.961 . S
C568 C569 1.370 . S
C568 C570 1.363 . S
C568 H584 0.931 . S
C569 C568 1.370 . S
C569 C573 1.408 . S
C570 C568 1.363 . S
C570 C571 1.370 . S
C570 C574 1.524 . S
C571 C563 1.503 . S
C571 C570 1.370 . S
C571 C572 1.403 . S
C572 C571 1.403 . S
C572 C573 1.404 . S
C572 C575 1.539 . S
C573 C569 1.408 . S
C573 C572 1.404 . S
C573 H585 0.930 . S
C574 C570 1.524 . S
C574 H586 0.956 . S
C574 H587 0.961 . S
C574 H588 0.961 . S
C575 C572 1.539 . S
C575 H589 0.958 . S
C575 H590 0.961 . S
C575 H591 0.960 . S
H576 C560 0.931 . S
H577 C565 0.929 . S
H578 C566 0.960 . S
H579 C566 0.962 . S
H580 C566 0.960 . S
H581 C567 0.961 . S
H582 C567 0.961 . S
H583 C567 0.961 . S
H584 C568 0.931 . S
H585 C573 0.930 . S
H586 C574 0.956 . S
H587 C574 0.961 . S
H588 C574 0.961 . S
H589 C575 0.958 . S
H590 C575 0.961 . S
H591 C575 0.960 . S
C592 C593 1.391 . S
C592 C594 1.394 . S
C592 H608 0.931 . S
C593 C592 1.391 . S
C593 C597 1.376 . S
C594 C592 1.394 . S
C594 C595 1.369 . S
C594 C598 1.531 . S
C595 C594 1.369 . S
C595 C596 1.410 . S
C595 C603 1.503 . S
C596 C595 1.410 . S
C596 C597 1.392 . S
C596 C599 1.511 . S
C597 C593 1.376 . S
C597 C596 1.392 . S
C597 H609 0.929 . S
C598 C594 1.531 . S
C598 H610 0.960 . S
C598 H611 0.962 . S
C598 H612 0.960 . S
C599 C596 1.511 . S
C599 H613 0.961 . S
C599 H614 0.961 . S
C599 H615 0.961 . S
C600 C601 1.370 . S
C600 C602 1.363 . S
C600 H616 0.931 . S
C601 C600 1.370 . S
C601 C605 1.408 . S
C602 C600 1.363 . S
C602 C603 1.370 . S
C602 C606 1.524 . S
C603 C595 1.503 . S
C603 C602 1.370 . S
C603 C604 1.403 . S
C604 C603 1.403 . S
C604 C605 1.404 . S
C604 C607 1.539 . S
C605 C601 1.408 . S
C605 C604 1.404 . S
C605 H617 0.930 . S
C606 C602 1.524 . S
C606 H618 0.956 . S
C606 H619 0.961 . S
C606 H620 0.961 . S
C607 C604 1.539 . S
C607 H621 0.958 . S
C607 H622 0.961 . S
C607 H623 0.960 . S
H608 C592 0.931 . S
H609 C597 0.929 . S
H610 C598 0.960 . S
H611 C598 0.962 . S
H612 C598 0.960 . S
H613 C599 0.961 . S
H614 C599 0.961 . S
H615 C599 0.961 . S
H616 C600 0.931 . S
H617 C605 0.930 . S
H618 C606 0.956 . S
H619 C606 0.961 . S
H620 C606 0.961 . S
H621 C607 0.958 . S
H622 C607 0.961 . S
H623 C607 0.960 . S
C624 C625 1.391 . S
C624 C626 1.394 . S
C624 H640 0.931 . S
C625 C624 1.391 . S
C625 C629 1.376 . S
C626 C624 1.394 . S
C626 C627 1.369 . S
C626 C630 1.531 . S
C627 C626 1.369 . S
C627 C628 1.410 . S
C627 C635 1.503 . S
C628 C627 1.410 . S
C628 C629 1.392 . S
C628 C631 1.511 . S
C629 C625 1.376 . S
C629 C628 1.392 . S
C629 H641 0.929 . S
C630 C626 1.531 . S
C630 H642 0.960 . S
C630 H643 0.962 . S
C630 H644 0.960 . S
C631 C628 1.511 . S
C631 H645 0.961 . S
C631 H646 0.961 . S
C631 H647 0.961 . S
C632 C633 1.370 . S
C632 C634 1.363 . S
C632 H648 0.931 . S
C633 C632 1.370 . S
C633 C637 1.408 . S
C634 C632 1.363 . S
C634 C635 1.370 . S
C634 C638 1.524 . S
C635 C627 1.503 . S
C635 C634 1.370 . S
C635 C636 1.403 . S
C636 C635 1.403 . S
C636 C637 1.404 . S
C636 C639 1.539 . S
C637 C633 1.408 . S
C637 C636 1.404 . S
C637 H649 0.930 . S
C638 C634 1.524 . S
C638 H650 0.956 . S
C638 H651 0.961 . S
C638 H652 0.961 . S
C639 C636 1.539 . S
C639 H653 0.958 . S
C639 H654 0.961 . S
C639 H655 0.960 . S
H640 C624 0.931 . S
H641 C629 0.929 . S
H642 C630 0.960 . S
H643 C630 0.962 . S
H644 C630 0.960 . S
H645 C631 0.961 . S
H646 C631 0.961 . S
H647 C631 0.961 . S
H648 C632 0.931 . S
H649 C637 0.930 . S
H650 C638 0.956 . S
H651 C638 0.961 . S
H652 C638 0.961 . S
H653 C639 0.958 . S
H654 C639 0.961 . S
H655 C639 0.960 . S
C656 C657 1.391 . S
C656 C658 1.394 . S
C656 H672 0.931 . S
C657 C656 1.391 . S
C657 C661 1.376 . S
C658 C656 1.394 . S
C658 C659 1.369 . S
C658 C662 1.531 . S
C659 C658 1.369 . S
C659 C660 1.410 . S
C659 C667 1.503 . S
C660 C659 1.410 . S
C660 C661 1.392 . S
C660 C663 1.511 . S
C661 C657 1.376 . S
C661 C660 1.392 . S
C661 H673 0.929 . S
C662 C658 1.531 . S
C662 H674 0.960 . S
C662 H675 0.962 . S
C662 H676 0.960 . S
C663 C660 1.511 . S
C663 H677 0.961 . S
C663 H678 0.961 . S
C663 H679 0.961 . S
C664 C665 1.370 . S
C664 C666 1.363 . S
C664 H680 0.931 . S
C665 C664 1.370 . S
C665 C669 1.408 . S
C666 C664 1.363 . S
C666 C667 1.370 . S
C666 C670 1.524 . S
C667 C659 1.503 . S
C667 C666 1.370 . S
C667 C668 1.403 . S
C668 C667 1.403 . S
C668 C669 1.404 . S
C668 C671 1.539 . S
C669 C665 1.408 . S
C669 C668 1.404 . S
C669 H681 0.930 . S
C670 C666 1.524 . S
C670 H682 0.956 . S
C670 H683 0.961 . S
C670 H684 0.961 . S
C671 C668 1.539 . S
C671 H685 0.958 . S
C671 H686 0.961 . S
C671 H687 0.960 . S
H672 C656 0.931 . S
H673 C661 0.929 . S
H674 C662 0.960 . S
H675 C662 0.962 . S
H676 C662 0.960 . S
H677 C663 0.961 . S
H678 C663 0.961 . S
H679 C663 0.961 . S
H680 C664 0.931 . S
H681 C669 0.930 . S
H682 C670 0.956 . S
H683 C670 0.961 . S
H684 C670 0.961 . S
H685 C671 0.958 . S
H686 C671 0.961 . S
H687 C671 0.960 . S
C688 C689 1.391 . S
C688 C690 1.394 . S
C688 H704 0.931 . S
C689 C688 1.391 . S
C689 C693 1.376 . S
C690 C688 1.394 . S
C690 C691 1.369 . S
C690 C694 1.531 . S
C691 C690 1.369 . S
C691 C692 1.410 . S
C691 C699 1.503 . S
C692 C691 1.410 . S
C692 C693 1.392 . S
C692 C695 1.511 . S
C693 C689 1.376 . S
C693 C692 1.392 . S
C693 H705 0.929 . S
C694 C690 1.531 . S
C694 H706 0.960 . S
C694 H707 0.962 . S
C694 H708 0.960 . S
C695 C692 1.511 . S
C695 H709 0.961 . S
C695 H710 0.961 . S
C695 H711 0.961 . S
C696 C697 1.370 . S
C696 C698 1.363 . S
C696 H712 0.931 . S
C697 C696 1.370 . S
C697 C701 1.408 . S
C698 C696 1.363 . S
C698 C699 1.370 . S
C698 C702 1.524 . S
C699 C691 1.503 . S
C699 C698 1.370 . S
C699 C700 1.403 . S
C700 C699 1.403 . S
C700 C701 1.404 . S
C700 C703 1.539 . S
C701 C697 1.408 . S
C701 C700 1.404 . S
C701 H713 0.930 . S
C702 C698 1.524 . S
C702 H714 0.956 . S
C702 H715 0.961 . S
C702 H716 0.961 . S
C703 C700 1.539 . S
C703 H717 0.958 . S
C703 H718 0.961 . S
C703 H719 0.960 . S
H704 C688 0.931 . S
H705 C693 0.929 . S
H706 C694 0.960 . S
H707 C694 0.962 . S
H708 C694 0.960 . S
H709 C695 0.961 . S
H710 C695 0.961 . S
H711 C695 0.961 . S
H712 C696 0.931 . S
H713 C701 0.930 . S
H714 C702 0.956 . S
H715 C702 0.961 . S
H716 C702 0.961 . S
H717 C703 0.958 . S
H718 C703 0.961 . S
H719 C703 0.960 . S
C720 C721 1.391 . S
C720 C722 1.394 . S
C720 H736 0.931 . S
C721 C720 1.391 . S
C721 C725 1.376 . S
C722 C720 1.394 . S
C722 C723 1.369 . S
C722 C726 1.531 . S
C723 C722 1.369 . S
C723 C724 1.410 . S
C723 C731 1.503 . S
C724 C723 1.410 . S
C724 C725 1.392 . S
C724 C727 1.511 . S
C725 C721 1.376 . S
C725 C724 1.392 . S
C725 H737 0.929 . S
C726 C722 1.531 . S
C726 H738 0.960 . S
C726 H739 0.962 . S
C726 H740 0.960 . S
C727 C724 1.511 . S
C727 H741 0.961 . S
C727 H742 0.961 . S
C727 H743 0.961 . S
C728 C729 1.370 . S
C728 C730 1.363 . S
C728 H744 0.931 . S
C729 C728 1.370 . S
C729 C733 1.408 . S
C730 C728 1.363 . S
C730 C731 1.370 . S
C730 C734 1.524 . S
C731 C723 1.503 . S
C731 C730 1.370 . S
C731 C732 1.403 . S
C732 C731 1.403 . S
C732 C733 1.404 . S
C732 C735 1.539 . S
C733 C729 1.408 . S
C733 C732 1.404 . S
C733 H745 0.930 . S
C734 C730 1.524 . S
C734 H746 0.956 . S
C734 H747 0.961 . S
C734 H748 0.961 . S
C735 C732 1.539 . S
C735 H749 0.958 . S
C735 H750 0.961 . S
C735 H751 0.960 . S
H736 C720 0.931 . S
H737 C725 0.929 . S
H738 C726 0.960 . S
H739 C726 0.962 . S
H740 C726 0.960 . S
H741 C727 0.961 . S
H742 C727 0.961 . S
H743 C727 0.961 . S
H744 C728 0.931 . S
H745 C733 0.930 . S
H746 C734 0.956 . S
H747 C734 0.961 . S
H748 C734 0.961 . S
H749 C735 0.958 . S
H750 C735 0.961 . S
H751 C735 0.960 . S
C752 C753 1.391 . S
C752 C754 1.394 . S
C752 H768 0.931 . S
C753 C752 1.391 . S
C753 C757 1.376 . S
C754 C752 1.394 . S
C754 C755 1.369 . S
C754 C758 1.531 . S
C755 C754 1.369 . S
C755 C756 1.410 . S
C755 C763 1.503 . S
C756 C755 1.410 . S
C756 C757 1.392 . S
C756 C759 1.511 . S
C757 C753 1.376 . S
C757 C756 1.392 . S
C757 H769 0.929 . S
C758 C754 1.531 . S
C758 H770 0.960 . S
C758 H771 0.962 . S
C758 H772 0.960 . S
C759 C756 1.511 . S
C759 H773 0.961 . S
C759 H774 0.961 . S
C759 H775 0.961 . S
C760 C761 1.370 . S
C760 C762 1.363 . S
C760 H776 0.931 . S
C761 C760 1.370 . S
C761 C765 1.408 . S
C762 C760 1.363 . S
C762 C763 1.370 . S
C762 C766 1.524 . S
C763 C755 1.503 . S
C763 C762 1.370 . S
C763 C764 1.403 . S
C764 C763 1.403 . S
C764 C765 1.404 . S
C764 C767 1.539 . S
C765 C761 1.408 . S
C765 C764 1.404 . S
C765 H777 0.930 . S
C766 C762 1.524 . S
C766 H778 0.956 . S
C766 H779 0.961 . S
C766 H780 0.961 . S
C767 C764 1.539 . S
C767 H781 0.958 . S
C767 H782 0.961 . S
C767 H783 0.960 . S
H768 C752 0.931 . S
H769 C757 0.929 . S
H770 C758 0.960 . S
H771 C758 0.962 . S
H772 C758 0.960 . S
H773 C759 0.961 . S
H774 C759 0.961 . S
H775 C759 0.961 . S
H776 C760 0.931 . S
H777 C765 0.930 . S
H778 C766 0.956 . S
H779 C766 0.961 . S
H780 C766 0.961 . S
H781 C767 0.958 . S
H782 C767 0.961 . S
H783 C767 0.960 . S
C784 C785 1.391 . S
C784 C786 1.394 . S
C784 H800 0.931 . S
C785 C784 1.391 . S
C785 C789 1.376 . S
C786 C784 1.394 . S
C786 C787 1.369 . S
C786 C790 1.531 . S
C787 C786 1.369 . S
C787 C788 1.410 . S
C787 C795 1.503 . S
C788 C787 1.410 . S
C788 C789 1.392 . S
C788 C791 1.511 . S
C789 C785 1.376 . S
C789 C788 1.392 . S
C789 H801 0.929 . S
C790 C786 1.531 . S
C790 H802 0.960 . S
C790 H803 0.962 . S
C790 H804 0.960 . S
C791 C788 1.511 . S
C791 H805 0.961 . S
C791 H806 0.961 . S
C791 H807 0.961 . S
C792 C793 1.370 . S
C792 C794 1.363 . S
C792 H808 0.931 . S
C793 C792 1.370 . S
C793 C797 1.408 . S
C794 C792 1.363 . S
C794 C795 1.370 . S
C794 C798 1.524 . S
C795 C787 1.503 . S
C795 C794 1.370 . S
C795 C796 1.403 . S
C796 C795 1.403 . S
C796 C797 1.404 . S
C796 C799 1.539 . S
C797 C793 1.408 . S
C797 C796 1.404 . S
C797 H809 0.930 . S
C798 C794 1.524 . S
C798 H810 0.956 . S
C798 H811 0.961 . S
C798 H812 0.961 . S
C799 C796 1.539 . S
C799 H813 0.958 . S
C799 H814 0.961 . S
C799 H815 0.960 . S
H800 C784 0.931 . S
H801 C789 0.929 . S
H802 C790 0.960 . S
H803 C790 0.962 . S
H804 C790 0.960 . S
H805 C791 0.961 . S
H806 C791 0.961 . S
H807 C791 0.961 . S
H808 C792 0.931 . S
H809 C797 0.930 . S
H810 C798 0.956 . S
H811 C798 0.961 . S
H812 C798 0.961 . S
H813 C799 0.958 . S
H814 C799 0.961 . S
H815 C799 0.960 . S
C816 C817 1.391 . S
C816 C818 1.394 . S
C816 H832 0.931 . S
C817 C816 1.391 . S
C817 C821 1.376 . S
C818 C816 1.394 . S
C818 C819 1.369 . S
C818 C822 1.531 . S
C819 C818 1.369 . S
C819 C820 1.410 . S
C819 C827 1.503 . S
C820 C819 1.410 . S
C820 C821 1.392 . S
C820 C823 1.511 . S
C821 C817 1.376 . S
C821 C820 1.392 . S
C821 H833 0.929 . S
C822 C818 1.531 . S
C822 H834 0.960 . S
C822 H835 0.962 . S
C822 H836 0.960 . S
C823 C820 1.511 . S
C823 H837 0.961 . S
C823 H838 0.961 . S
C823 H839 0.961 . S
C824 C825 1.370 . S
C824 C826 1.363 . S
C824 H840 0.931 . S
C825 C824 1.370 . S
C825 C829 1.408 . S
C826 C824 1.363 . S
C826 C827 1.370 . S
C826 C830 1.524 . S
C827 C819 1.503 . S
C827 C826 1.370 . S
C827 C828 1.403 . S
C828 C827 1.403 . S
C828 C829 1.404 . S
C828 C831 1.539 . S
C829 C825 1.408 . S
C829 C828 1.404 . S
C829 H841 0.930 . S
C830 C826 1.524 . S
C830 H842 0.956 . S
C830 H843 0.961 . S
C830 H844 0.961 . S
C831 C828 1.539 . S
C831 H845 0.958 . S
C831 H846 0.961 . S
C831 H847 0.960 . S
H832 C816 0.931 . S
H833 C821 0.929 . S
H834 C822 0.960 . S
H835 C822 0.962 . S
H836 C822 0.960 . S
H837 C823 0.961 . S
H838 C823 0.961 . S
H839 C823 0.961 . S
H840 C824 0.931 . S
H841 C829 0.930 . S
H842 C830 0.956 . S
H843 C830 0.961 . S
H844 C830 0.961 . S
H845 C831 0.958 . S
H846 C831 0.961 . S
H847 C831 0.960 . S
C848 C849 1.391 . S
C848 C850 1.394 . S
C848 H864 0.931 . S
C849 C848 1.391 . S
C849 C853 1.376 . S
C850 C848 1.394 . S
C850 C851 1.369 . S
C850 C854 1.531 . S
C851 C850 1.369 . S
C851 C852 1.410 . S
C851 C859 1.503 . S
C852 C851 1.410 . S
C852 C853 1.392 . S
C852 C855 1.511 . S
C853 C849 1.376 . S
C853 C852 1.392 . S
C853 H865 0.929 . S
C854 C850 1.531 . S
C854 H866 0.960 . S
C854 H867 0.962 . S
C854 H868 0.960 . S
C855 C852 1.511 . S
C855 H869 0.961 . S
C855 H870 0.961 . S
C855 H871 0.961 . S
C856 C857 1.370 . S
C856 C858 1.363 . S
C856 H872 0.931 . S
C857 C856 1.370 . S
C857 C861 1.408 . S
C858 C856 1.363 . S
C858 C859 1.370 . S
C858 C862 1.524 . S
C859 C851 1.503 . S
C859 C858 1.370 . S
C859 C860 1.403 . S
C860 C859 1.403 . S
C860 C861 1.404 . S
C860 C863 1.539 . S
C861 C857 1.408 . S
C861 C860 1.404 . S
C861 H873 0.930 . S
C862 C858 1.524 . S
C862 H874 0.956 . S
C862 H875 0.961 . S
C862 H876 0.961 . S
C863 C860 1.539 . S
C863 H877 0.958 . S
C863 H878 0.961 . S
C863 H879 0.960 . S
H864 C848 0.931 . S
H865 C853 0.929 . S
H866 C854 0.960 . S
H867 C854 0.962 . S
H868 C854 0.960 . S
H869 C855 0.961 . S
H870 C855 0.961 . S
H871 C855 0.961 . S
H872 C856 0.931 . S
H873 C861 0.930 . S
H874 C862 0.956 . S
H875 C862 0.961 . S
H876 C862 0.961 . S
H877 C863 0.958 . S
H878 C863 0.961 . S
H879 C863 0.960 . S
C880 C881 1.391 . S
C880 C882 1.394 . S
C880 H896 0.931 . S
C881 C880 1.391 . S
C881 C885 1.376 . S
C882 C880 1.394 . S
C882 C883 1.369 . S
C882 C886 1.531 . S
C883 C882 1.369 . S
C883 C884 1.410 . S
C883 C891 1.503 . S
C884 C883 1.410 . S
C884 C885 1.392 . S
C884 C887 1.511 . S
C885 C881 1.376 . S
C885 C884 1.392 . S
C885 H897 0.929 . S
C886 C882 1.531 . S
C886 H898 0.960 . S
C886 H899 0.962 . S
C886 H900 0.960 . S
C887 C884 1.511 . S
C887 H901 0.961 . S
C887 H902 0.961 . S
C887 H903 0.961 . S
C888 C889 1.370 . S
C888 C890 1.363 . S
C888 H904 0.931 . S
C889 C888 1.370 . S
C889 C893 1.408 . S
C890 C888 1.363 . S
C890 C891 1.370 . S
C890 C894 1.524 . S
C891 C883 1.503 . S
C891 C890 1.370 . S
C891 C892 1.403 . S
C892 C891 1.403 . S
C892 C893 1.404 . S
C892 C895 1.539 . S
C893 C889 1.408 . S
C893 C892 1.404 . S
C893 H905 0.930 . S
C894 C890 1.524 . S
C894 H906 0.956 . S
C894 H907 0.961 . S
C894 H908 0.961 . S
C895 C892 1.539 . S
C895 H909 0.958 . S
C895 H910 0.961 . S
C895 H911 0.960 . S
H896 C880 0.931 . S
H897 C885 0.929 . S
H898 C886 0.960 . S
H899 C886 0.962 . S
H900 C886 0.960 . S
H901 C887 0.961 . S
H902 C887 0.961 . S
H903 C887 0.961 . S
H904 C888 0.931 . S
H905 C893 0.930 . S
H906 C894 0.956 . S
H907 C894 0.961 . S
H908 C894 0.961 . S
H909 C895 0.958 . S
H910 C895 0.961 . S
H911 C895 0.960 . S
C912 C913 1.391 . S
C912 C914 1.394 . S
C912 H928 0.931 . S
C913 C912 1.391 . S
C913 C917 1.376 . S
C914 C912 1.394 . S
C914 C915 1.369 . S
C914 C918 1.531 . S
C915 C914 1.369 . S
C915 C916 1.410 . S
C915 C923 1.503 . S
C916 C915 1.410 . S
C916 C917 1.392 . S
C916 C919 1.511 . S
C917 C913 1.376 . S
C917 C916 1.392 . S
C917 H929 0.929 . S
C918 C914 1.531 . S
C918 H930 0.960 . S
C918 H931 0.962 . S
C918 H932 0.960 . S
C919 C916 1.511 . S
C919 H933 0.961 . S
C919 H934 0.961 . S
C919 H935 0.961 . S
C920 C921 1.370 . S
C920 C922 1.363 . S
C920 H936 0.931 . S
C921 C920 1.370 . S
C921 C925 1.408 . S
C922 C920 1.363 . S
C922 C923 1.370 . S
C922 C926 1.524 . S
C923 C915 1.503 . S
C923 C922 1.370 . S
C923 C924 1.403 . S
C924 C923 1.403 . S
C924 C925 1.404 . S
C924 C927 1.539 . S
C925 C921 1.408 . S
C925 C924 1.404 . S
C925 H937 0.930 . S
C926 C922 1.524 . S
C926 H938 0.956 . S
C926 H939 0.961 . S
C926 H940 0.961 . S
C927 C924 1.539 . S
C927 H941 0.958 . S
C927 H942 0.961 . S
C927 H943 0.960 . S
H928 C912 0.931 . S
H929 C917 0.929 . S
H930 C918 0.960 . S
H931 C918 0.962 . S
H932 C918 0.960 . S
H933 C919 0.961 . S
H934 C919 0.961 . S
H935 C919 0.961 . S
H936 C920 0.931 . S
H937 C925 0.930 . S
H938 C926 0.956 . S
H939 C926 0.961 . S
H940 C926 0.961 . S
H941 C927 0.958 . S
H942 C927 0.961 . S
H943 C927 0.960 . S
C177 C52 1.575 . S
C185 C8 1.551 . S
C209 C19 1.556 . S
C217 C63 1.562 . S
C241 C74 1.574 . S
C249 C30 1.548 . S
C273 C41 1.534 . S
C281 C85 1.561 . S
C305 C96 1.531 . S
C313 C140 1.564 . S
C337 C151 1.540 . S
C345 C107 1.566 . S
C369 C162 1.530 . S
C377 C118 1.564 . S
C401 C129 1.554 . S
C409 C173 1.551 . S
C433 C7 1.495 . S
C441 C62 1.450 . S
C465 C73 1.461 . S
C473 C18 1.457 . S
C497 C29 1.496 . S
C505 C84 1.449 . S
C529 C40 1.423 . S
C537 C51 1.477 . S
C561 C95 1.484 . S
C569 C150 1.449 . S
C593 C161 1.463 . S
C601 C106 1.469 . S
C625 C117 1.430 . S
C633 C172 1.478 . S
C657 C139 1.431 . S
C665 C128 1.469 . S
C689 C170 1.241 . S
C697 C5 1.332 . S
C721 C137 1.366 . S
C729 C16 1.280 . S
C753 C27 1.361 . S
C761 C148 1.287 . S
C785 C159 1.360 . S
C793 C38 1.278 . S
C817 C49 1.346 . S
C825 C104 1.296 . S
C849 C115 1.319 . S
C857 C60 1.290 . S
C881 C126 1.366 . S
C889 C71 1.283 . S
C913 C93 1.252 . S
C921 C82 1.331 . S
