# Generated by pormake.
# Topology umx, (4)-cn, num edge types: 1
# Building blocks:
#     Node 0, Type 0, BuildingBlock: ESEHIV_clean_sbu_0, # of connection points: 4
#     Node 1, Type 0, BuildingBlock: ESEHIV_clean_sbu_0, # of connection points: 4
#     Node 2, Type 0, BuildingBlock: ESEHIV_clean_sbu_0, # of connection points: 4
#     Node 3, Type 0, BuildingBlock: ESEHIV_clean_sbu_0, # of connection points: 4
#     Node 4, Type 0, BuildingBlock: ESEHIV_clean_sbu_0, # of connection points: 4
#     Node 5, Type 0, BuildingBlock: ESEHIV_clean_sbu_0, # of connection points: 4
#     Node 6, Type 0, BuildingBlock: ESEHIV_clean_sbu_0, # of connection points: 4
#     Node 7, Type 0, BuildingBlock: ESEHIV_clean_sbu_0, # of connection points: 4
#     Edge 8, Type (0, 0), BuildingBlock: CIFDUS_clean_linker_0, # of connection points: 2
#     Edge 9, Type (0, 0), BuildingBlock: CIFDUS_clean_linker_0, # of connection points: 2
#     Edge 10, Type (0, 0), BuildingBlock: CIFDUS_clean_linker_0, # of connection points: 2
#     Edge 11, Type (0, 0), BuildingBlock: CIFDUS_clean_linker_0, # of connection points: 2
#     Edge 12, Type (0, 0), BuildingBlock: CIFDUS_clean_linker_0, # of connection points: 2
#     Edge 13, Type (0, 0), BuildingBlock: CIFDUS_clean_linker_0, # of connection points: 2
#     Edge 14, Type (0, 0), BuildingBlock: CIFDUS_clean_linker_0, # of connection points: 2
#     Edge 15, Type (0, 0), BuildingBlock: CIFDUS_clean_linker_0, # of connection points: 2
#     Edge 16, Type (0, 0), BuildingBlock: CIFDUS_clean_linker_0, # of connection points: 2
#     Edge 17, Type (0, 0), BuildingBlock: CIFDUS_clean_linker_0, # of connection points: 2
#     Edge 18, Type (0, 0), BuildingBlock: CIFDUS_clean_linker_0, # of connection points: 2
#     Edge 19, Type (0, 0), BuildingBlock: CIFDUS_clean_linker_0, # of connection points: 2
#     Edge 20, Type (0, 0), BuildingBlock: CIFDUS_clean_linker_0, # of connection points: 2
#     Edge 21, Type (0, 0), BuildingBlock: CIFDUS_clean_linker_0, # of connection points: 2
#     Edge 22, Type (0, 0), BuildingBlock: CIFDUS_clean_linker_0, # of connection points: 2
#     Edge 23, Type (0, 0), BuildingBlock: CIFDUS_clean_linker_0, # of connection points: 2
# Relax obj value: 0.122
# Max RMSD: 0.186
# Mean RMSD: 0.174
data_MOF--net-umx--node1-ESEHIV_clean_sbu_0--edge1-CIFDUS_clean_linker_0
_symmetry_space_group_name_H-M    P1
_symmetry_Int_Tables_number       1
_symmetry_cell_setting            triclinic
loop_
_symmetry_equiv_pos_as_xyz
'x, y, z'
_cell_length_a     33.426943
_cell_length_b     41.179475
_cell_length_c     26.316331
_cell_angle_alpha  87.543117
_cell_angle_beta   90.084251
_cell_angle_gamma 90.634118
loop_
_atom_site_label
_atom_site_type_symbol
_atom_site_fract_x
_atom_site_fract_y
_atom_site_fract_z
_atom_type_partial_charge
Cu0 Cu 0.15283 0.38164 0.09268 0.0
N1 N 0.18047 0.41332 1.05436 0.0
N2 N 0.20715 0.44009 0.98703 0.0
C3 C 0.18817 0.41274 1.00434 0.0
C4 C 0.21155 0.45857 1.02786 0.0
C5 C 0.19511 0.4419 0.06946 0.0
O6 O 0.16683 0.34087 0.06348 0.0
C7 C 0.0704 0.39238 0.12085 0.0
O8 O 0.07845 0.37832 0.16538 0.0
H9 H 0.17874 0.39311 0.98084 0.0
H10 H 0.19335 0.45024 0.10779 0.0
N11 N 0.17206 0.38382 0.15885 0.0
N12 N 0.18779 0.40553 0.23254 0.0
C13 C 0.16251 0.40616 0.19251 0.0
C14 C 0.20465 0.36878 0.17805 0.0
C15 C 0.21423 0.38192 0.22372 0.0
C16 C 0.17262 0.31412 0.08822 0.0
O17 O 0.16138 0.31096 0.136 0.0
H18 H 0.1396 0.42422 0.18575 0.0
H19 H 0.22188 0.35105 0.15862 0.0
O20 O 0.0969 0.3933 0.08614 0.0
H21 H 0.2254 0.48246 1.02762 0.0
H22 H 0.23969 0.3756 0.24745 0.0
Cu23 Cu 0.5815 0.17699 0.5354 0.0
N24 N 0.59111 0.13239 0.54284 0.0
N25 N 0.58035 0.07869 0.54958 0.0
C26 C 0.56411 0.10807 0.53853 0.0
C27 C 0.61887 0.08483 0.56156 0.0
C28 C 0.6253 0.11791 0.55784 0.0
O29 O 0.55364 0.18839 0.59785 0.0
C30 C 0.56833 0.18018 0.4293 0.0
O31 O 0.60531 0.16981 0.42999 0.0
H32 H 0.53313 0.1119 0.52808 0.0
H33 H 0.65267 0.13053 0.56719 0.0
N34 N 0.63028 0.20001 0.53007 0.0
N35 N 0.67623 0.23994 0.53138 0.0
C36 C 0.63834 0.23068 0.54351 0.0
C37 C 0.66428 0.18964 0.50904 0.0
C38 C 0.69255 0.2141 0.50978 0.0
C39 C 0.5728 0.1867 0.64 0.0
O40 O 0.611 0.17955 0.63927 0.0
H41 H 0.61655 0.24613 0.56054 0.0
H42 H 0.66812 0.16606 0.49329 0.0
O43 O 0.55111 0.185 0.47171 0.0
H44 H 0.64044 0.06676 0.57407 0.0
H45 H 0.72283 0.21293 0.4955 0.0
Cu46 Cu 0.86969 0.58612 0.07945 0.0
N47 N 0.87381 0.60579 1.01462 0.0
N48 N 0.87068 0.60763 0.93005 0.0
C49 C 0.87901 0.58936 0.97221 0.0
C50 C 0.85954 0.63678 0.94627 0.0
C51 C 0.86187 0.63568 0.99873 0.0
O52 O 0.81464 0.58837 0.10209 0.0
C53 C 0.92689 0.54045 0.063 0.0
O54 O 0.94541 0.56713 1.04639 0.0
H55 H 0.88455 0.5635 0.97239 0.0
H56 H 0.85183 0.6542 1.02355 0.0
N57 N 0.89781 0.60875 0.12746 0.0
N58 N 0.90747 0.61701 0.20986 0.0
C59 C 0.90385 0.5949 0.17381 0.0
C60 C 0.89873 0.641 0.13372 0.0
C61 C 0.90473 0.64619 0.18472 0.0
C62 C 0.78511 0.59469 0.07287 0.0
O63 O 0.78905 0.59144 1.0237 0.0
H64 H 0.89868 0.56919 0.18203 0.0
H65 H 0.89017 0.65916 0.10498 0.0
O66 O 0.89139 0.54239 0.07996 0.0
H67 H 0.84795 0.65651 0.92224 0.0
H68 H 0.90253 0.66931 0.20253 0.0
Cu69 Cu 0.46404 0.82108 0.61953 0.0
N70 N 0.44678 0.86386 0.61075 0.0
N71 N 0.45125 0.91771 0.59618 0.0
C72 C 0.47145 0.88965 0.60356 0.0
C73 C 0.41217 0.90904 0.59914 0.0
C74 C 0.40952 0.87576 0.60802 0.0
O75 O 0.49716 0.81855 0.68145 0.0
C76 C 0.4732 0.81449 0.51425 0.0
O77 O 0.43608 0.82453 0.51485 0.0
H78 H 0.50369 0.88768 0.6041 0.0
H79 H 0.38241 0.86126 0.61162 0.0
N80 N 0.42146 0.79174 0.63155 0.0
N81 N 0.36606 0.76113 0.62577 0.0
C82 C 0.38794 0.78599 0.60449 0.0
C83 C 0.42066 0.76961 0.67069 0.0
C84 C 0.38664 0.75092 0.66743 0.0
C85 C 0.48004 0.82542 0.72305 0.0
O86 O 0.44283 0.83537 0.72118 0.0
H87 H 0.37994 0.79929 0.56973 0.0
H88 H 0.44399 0.76647 0.69889 0.0
O89 O 0.4919 0.81073 0.55651 0.0
H90 H 0.38721 0.92539 0.59429 0.0
H91 H 0.37875 0.73024 0.69234 0.0
Cu92 Cu 0.19315 0.55967 0.58002 0.0
N93 N 0.21757 0.53369 0.63003 0.0
N94 N 0.23304 0.51162 0.70625 0.0
C95 C 0.21219 0.53488 0.68049 0.0
C96 C 0.25241 0.49528 0.6705 0.0
C97 C 0.24285 0.50904 0.62345 0.0
O98 O 0.20038 0.60445 0.59823 0.0
C99 C 0.11234 0.55088 0.61011 0.0
O100 O 0.12281 0.56867 0.6483 0.0
H101 H 0.19232 0.55178 0.69779 0.0
H102 H 0.25308 0.50132 0.58695 0.0
N103 N 0.2187 0.55246 0.5191 0.0
N104 N 0.23397 0.5289 0.4471 0.0
C105 C 0.20661 0.53156 0.48428 0.0
C106 C 0.25496 0.56341 0.50374 0.0
C107 C 0.26446 0.54895 0.45913 0.0
C108 C 0.20581 0.62812 0.56622 0.0
O109 O 0.20172 0.62339 0.51743 0.0
H110 H 0.17924 0.51735 0.48769 0.0
H111 H 0.27362 0.57994 0.52442 0.0
O112 O 0.13774 0.54577 0.57554 0.0
H113 H 0.27183 0.47474 0.67776 0.0
H114 H 0.29192 0.55248 0.43778 0.0
Cu115 Cu 0.4816 0.18193 1.03401 0.0
N116 N 0.4683 0.13791 1.03908 0.0
N117 N 0.47825 0.08446 1.04758 0.0
C118 C 0.49552 0.11415 1.04243 0.0
C119 C 0.43847 0.08974 1.04744 0.0
C120 C 0.43239 0.12283 1.04193 0.0
O121 O 0.51353 0.18834 0.97142 0.0
C122 C 0.49124 0.18751 0.13988 0.0
O123 O 0.45343 0.17859 0.13912 0.0
H124 H 0.52748 0.1187 1.04225 0.0
H125 H 0.40386 0.13491 1.04029 0.0
N126 N 0.43621 0.20797 1.02604 0.0
N127 N 0.37504 0.22907 1.03084 0.0
C128 C 0.40002 0.20562 1.04871 0.0
C129 C 0.43399 0.23392 0.99335 0.0
C130 C 0.3964 0.24689 0.99606 0.0
C131 C 0.49594 0.1831 0.92926 0.0
O132 O 0.45824 0.17369 0.93042 0.0
H133 H 0.39199 0.18709 0.07735 0.0
H134 H 0.45822 0.24285 0.96921 0.0
O135 O 0.50984 0.19153 0.09755 0.0
H136 H 0.41547 0.07106 1.05065 0.0
H137 H 0.38594 0.26831 0.97501 0.0
Cu138 Cu 0.82443 0.46232 0.57889 0.0
N139 N 0.79888 0.48242 0.63117 0.0
N140 N 0.79093 0.5154 0.69526 0.0
C141 C 0.81675 0.50346 0.66168 0.0
C142 C 0.75523 0.50137 0.68515 0.0
C143 C 0.76026 0.48097 0.64538 0.0
O144 O 0.80206 0.41894 0.57157 0.0
C145 C 0.9088 0.45185 0.56829 0.0
O146 O 0.89931 0.43365 0.53021 0.0
H147 H 0.84806 0.51022 0.65859 0.0
H148 H 0.73748 0.46625 0.62797 0.0
N149 N 0.81713 0.4884 0.52033 0.0
N150 N 0.832 0.52106 0.45314 0.0
C151 C 0.84617 0.49979 0.48888 0.0
C152 C 0.78336 0.503 0.5041 0.0
C153 C 0.79245 0.52322 0.46245 0.0
C154 C 0.8028 0.40498 0.52938 0.0
O155 O 0.82046 0.41971 0.49008 0.0
H156 H 0.87734 0.49356 0.49308 0.0
H157 H 0.75443 0.49974 0.52207 0.0
O158 O 0.88113 0.46346 0.59494 0.0
H159 H 0.72767 0.50513 0.7055 0.0
H160 H 0.77166 0.53825 0.44068 0.0
Cu161 Cu 0.55915 0.81085 0.11963 0.0
N162 N 0.57304 0.85477 0.11542 0.0
N163 N 0.56376 0.9084 0.10761 0.0
C164 C 0.54641 0.87895 0.11647 0.0
C165 C 0.603 0.90238 0.10077 0.0
C166 C 0.60861 0.86923 0.10547 0.0
O167 O 0.53062 0.80324 1.0559 0.0
C168 C 0.54562 0.81053 0.2244 0.0
O169 O 0.58235 0.82209 0.22223 0.0
H170 H 0.51461 0.87475 0.12131 0.0
H171 H 0.63638 0.85659 0.10028 0.0
N172 N 0.60464 0.78474 0.12378 0.0
N173 N 0.64463 0.74196 0.11829 0.0
C174 C 0.60906 0.75503 0.10497 0.0
C175 C 0.63876 0.79067 0.1492 0.0
C176 C 0.66338 0.76429 0.14606 0.0
C177 C 0.55062 0.80665 1.01455 0.0
O178 O 0.58923 0.81262 1.01742 0.0
H179 H 0.58641 0.74301 0.08287 0.0
H180 H 0.64531 0.81257 0.16897 0.0
O181 O 0.52816 0.80363 0.18285 0.0
H182 H 0.62596 0.92052 0.09224 0.0
H183 H 0.69302 0.76185 0.16232 0.0
H184 H 0.25411 0.42846 0.27705 0.0
H185 H 0.12547 0.43465 0.27616 0.0
H186 H 0.12841 0.47457 0.34238 0.0
H187 H 0.16775 0.50735 0.40059 0.0
H188 H 0.29646 0.50075 0.40149 0.0
H189 H 0.29341 0.4615 0.33468 0.0
C190 C 0.22673 0.43825 0.29181 0.0
C191 C 0.18959 0.42844 0.27219 0.0
C192 C 0.22872 0.46126 0.32947 0.0
C193 C 0.15437 0.44195 0.29069 0.0
C194 C 0.15605 0.46468 0.32853 0.0
C195 C 0.19509 0.49717 0.38636 0.0
C196 C 0.23224 0.50689 0.40611 0.0
C197 C 0.19308 0.47448 0.3482 0.0
C198 C 0.2675 0.49397 0.38658 0.0
C199 C 0.26577 0.47133 0.34865 0.0
H200 H 0.60714 0.19068 0.73382 0.0
H201 H 0.49218 0.18891 0.65902 0.0
H202 H 0.45871 0.1886 0.74164 0.0
H203 H 0.46198 0.18614 0.83515 0.0
H204 H 0.5767 0.18876 0.91032 0.0
H205 H 0.61032 0.19154 0.82751 0.0
C206 C 0.57473 0.19045 0.73545 0.0
C207 C 0.55227 0.18962 0.68994 0.0
C208 C 0.55563 0.19025 0.78324 0.0
C209 C 0.5103 0.18957 0.69312 0.0
C210 C 0.49112 0.18927 0.74048 0.0
C211 C 0.49438 0.18741 0.83357 0.0
C212 C 0.51676 0.18694 0.87918 0.0
C213 C 0.51347 0.18915 0.78579 0.0
C214 C 0.55868 0.18903 0.87606 0.0
C215 C 0.57792 0.19055 0.82863 0.0
H216 H 0.81964 0.58123 0.41247 0.0
H217 H 0.89571 0.49773 0.4044 0.0
H218 H 0.93158 0.52353 0.33252 0.0
H219 H 0.93587 0.56688 0.26587 0.0
H220 H 0.85813 0.64938 0.2713 0.0
H221 H 0.82928 0.62763 0.35108 0.0
C222 C 0.84415 0.56882 0.39497 0.0
C223 C 0.85465 0.53747 0.41315 0.0
C224 C 0.86456 0.58378 0.35349 0.0
C225 C 0.88708 0.52188 0.39105 0.0
C226 C 0.90755 0.53658 0.3499 0.0
C227 C 0.91333 0.58041 0.28537 0.0
C228 C 0.899 0.60949 0.26265 0.0
C229 C 0.8959 0.56716 0.33009 0.0
C230 C 0.86996 0.62707 0.2882 0.0
C231 C 0.85299 0.61437 0.33343 0.0
H232 H 0.58657 0.80631 0.92157 0.0
H233 H 0.47037 0.80858 0.99257 0.0
H234 H 0.43876 0.81443 0.90882 0.0
H235 H 0.4442 0.82099 0.81576 0.0
H236 H 0.56003 0.81741 0.74421 0.0
H237 H 0.59171 0.81005 0.82794 0.0
C238 C 0.55428 0.80788 0.91884 0.0
C239 C 0.53093 0.80714 0.96362 0.0
C240 C 0.53628 0.81125 0.87043 0.0
C241 C 0.48912 0.80899 0.95902 0.0
C242 C 0.47103 0.81251 0.91104 0.0
C243 C 0.47643 0.81865 0.81833 0.0
C244 C 0.49974 0.82012 0.77355 0.0
C245 C 0.49433 0.81406 0.86656 0.0
C246 C 0.54137 0.8165 0.77786 0.0
C247 C 0.55948 0.8123 0.8258 0.0
H248 H 0.86199 0.52231 0.7416 0.0
H249 H 0.74108 0.55787 0.7383 0.0
H250 H 0.75679 0.59342 0.80796 0.0
H251 H 0.80397 0.61138 0.87378 0.0
H252 H 0.92341 0.57346 0.87872 0.0
H253 H 0.90983 0.54252 0.80302 0.0
C254 C 0.83922 0.53825 0.75534 0.0
C255 C 0.80039 0.53738 0.73478 0.0
C256 C 0.84841 0.55837 0.79538 0.0
C257 C 0.77104 0.55775 0.75394 0.0
C258 C 0.78009 0.57823 0.7935 0.0
C259 C 0.82718 0.59702 0.85716 0.0
C260 C 0.86477 0.59483 0.88086 0.0
C261 C 0.81854 0.57841 0.81496 0.0
C262 C 0.89448 0.57554 0.86035 0.0
C263 C 0.88658 0.55775 0.81753 0.0
H264 H 0.58093 0.80843 0.31742 0.0
H265 H 0.4651 0.80523 0.24517 0.0
H266 H 0.4327 0.80483 0.32874 0.0
H267 H 0.43739 0.80847 0.42198 0.0
H268 H 0.55345 0.81045 0.49394 0.0
H269 H 0.58566 0.80805 0.41073 0.0
C270 C 0.54855 0.80747 0.31984 0.0
C271 C 0.52546 0.80717 0.27486 0.0
C272 C 0.53021 0.80713 0.368 0.0
C273 C 0.4836 0.80549 0.27898 0.0
C274 C 0.46508 0.80539 0.32681 0.0
C275 C 0.46977 0.80818 0.41958 0.0
C276 C 0.49296 0.80992 0.46435 0.0
C277 C 0.48809 0.80668 0.37153 0.0
C278 C 0.53484 0.80914 0.46034 0.0
C279 C 0.55328 0.80788 0.41268 0.0
H280 H 0.20894 0.50009 0.94228 0.0
H281 H 0.22804 0.39897 0.91463 0.0
H282 H 0.24007 0.41255 0.82466 0.0
H283 H 0.24117 0.45275 0.75323 0.0
H284 H 0.22161 0.55384 0.78063 0.0
H285 H 0.21393 0.54075 0.87152 0.0
C286 C 0.2164 0.48112 0.91674 0.0
C287 C 0.21738 0.44856 0.93502 0.0
C288 C 0.22291 0.48908 0.86502 0.0
C289 C 0.22652 0.42416 0.90128 0.0
C290 C 0.23355 0.43192 0.84991 0.0
C291 C 0.23593 0.47198 0.77917 0.0
C292 C 0.23177 0.50418 0.76016 0.0
C293 C 0.23123 0.46423 0.83125 0.0
C294 C 0.22435 0.52879 0.79424 0.0
C295 C 0.22011 0.52134 0.84621 0.0
H296 H 0.60228 0.18499 0.33531 0.0
H297 H 0.48768 0.18619 0.4104 0.0
H298 H 0.45405 0.18995 0.32755 0.0
H299 H 0.45713 0.19014 0.23376 0.0
H300 H 0.57196 0.19007 0.15902 0.0
H301 H 0.60553 0.18886 0.24178 0.0
C302 C 0.56991 0.1862 0.33371 0.0
C303 C 0.54755 0.185 0.37931 0.0
C304 C 0.55082 0.18852 0.2859 0.0
C305 C 0.50568 0.18702 0.37617 0.0
C306 C 0.48643 0.18908 0.32871 0.0
C307 C 0.48954 0.19008 0.23545 0.0
C308 C 0.51194 0.18998 0.18992 0.0
C309 C 0.50868 0.18944 0.28331 0.0
C310 C 0.55391 0.19019 0.19315 0.0
C311 C 0.57313 0.18936 0.24058 0.0
H312 H 0.92839 0.49131 0.1361 0.0
H313 H 0.97413 0.52072 0.9879 0.0
H314 H 0.01867 0.47416 0.98978 0.0
H315 H 0.05029 0.42946 1.03731 0.0
H316 H 1.00962 0.40192 0.18882 0.0
H317 H 0.95714 0.44287 0.18167 0.0
C318 C 0.94751 0.48696 0.10389 0.0
C319 C 0.94814 0.50931 0.06192 0.0
C320 C 0.97426 0.46069 0.10607 0.0
C321 C 0.97337 0.50385 1.02065 0.0
C322 C 0.99887 0.47729 1.02174 0.0
C323 C 0.02962 0.43195 0.0686 0.0
C324 C 0.03426 0.41279 0.11374 0.0
C325 C 1.00048 0.45619 0.06488 0.0
C326 C 1.00693 0.4164 0.15367 0.0
C327 C 0.97699 0.43995 0.1497 0.0
H328 H 0.52451 0.93291 0.55825 0.0
H329 H 0.41628 0.9756 0.61297 0.0
H330 H 0.44587 0.02981 0.60012 0.0
H331 H 0.50403 0.06507 0.5774 0.0
H332 H 0.61277 0.02162 0.52639 0.0
H333 H 0.58169 0.96771 0.53454 0.0
C334 C 0.50738 0.95393 0.56791 0.0
C335 C 0.46821 0.94991 0.58701 0.0
C336 C 0.52481 0.985 0.56126 0.0
C337 C 0.44633 0.97777 0.59791 0.0
C338 C 0.46334 0.00886 0.59083 0.0
C339 C 0.52066 0.04381 0.56749 0.0
C340 C 0.56071 0.04732 0.55145 0.0
C341 C 0.50271 0.01276 0.57294 0.0
C342 C 0.5821 0.0195 0.53936 0.0
C343 C 0.5643 0.9887 0.54389 0.0
H344 H 0.08708 0.50305 0.54885 0.0
H345 H 0.04794 0.56243 0.67018 0.0
H346 H 0.98253 0.53541 0.67031 0.0
H347 H 0.93597 0.496 0.63469 0.0
H348 H 0.97491 0.43653 0.5133 0.0
H349 H 0.0411 0.46218 0.51519 0.0
C350 C 0.06421 0.51019 0.57521 0.0
C351 C 0.07235 0.53495 0.60918 0.0
C352 C 0.02674 0.49433 0.57543 0.0
C353 C 0.04248 0.54358 0.64348 0.0
C354 C 1.00507 0.52807 0.64368 0.0
C355 C 0.95901 0.48833 0.60897 0.0
C356 C 0.95033 0.46434 0.57383 0.0
C357 C 0.99685 0.50348 0.60976 0.0
C358 C 0.98067 0.45485 0.54079 0.0
C359 C 0.01851 0.46965 0.54164 0.0
H360 H 0.58823 0.96197 1.05289 0.0
H361 H 0.49366 0.92448 0.15105 0.0
H362 H 0.4579 0.97556 0.13967 0.0
H363 H 0.45357 0.03119 0.10217 0.0
H364 H 0.54882 0.06898 1.0057 0.0
H365 H 0.5845 0.01771 1.01668 0.0
C366 C 0.56007 0.96504 0.07234 0.0
C367 C 0.5437 0.93924 0.10264 0.0
C368 C 0.53973 0.9946 0.0659 0.0
C369 C 0.50677 0.94366 0.12689 0.0
C370 C 0.48633 0.97296 0.12059 0.0
C371 C 0.48195 0.02804 0.08324 0.0
C372 C 0.49851 0.05382 1.05317 0.0
C373 C 0.50242 0.99855 0.08999 0.0
C374 C 0.53565 0.04961 1.02947 0.0
C375 C 0.556 0.02027 1.03559 0.0
H376 H 0.21939 0.27055 0.14093 0.0
H377 H 0.19272 0.30782 0.98898 0.0
H378 H 0.25178 0.28128 0.95662 0.0
H379 H 0.31559 0.25408 0.97337 0.0
H380 H 0.34434 0.21892 0.12548 0.0
H381 H 0.27967 0.23753 0.15582 0.0
C382 C 0.22585 0.2721 0.10052 0.0
C383 C 0.20185 0.29141 0.06749 0.0
C384 C 0.26062 0.25757 0.08235 0.0
C385 C 0.21083 0.29329 1.01526 0.0
C386 C 0.24475 0.27828 0.99675 0.0
C387 C 0.30753 0.2503 1.01308 0.0
C388 C 0.33496 0.23568 1.04729 0.0
C389 C 0.27067 0.26152 1.03027 0.0
C390 C 0.32376 0.23014 0.09841 0.0
C391 C 0.28687 0.24096 0.1158 0.0
H392 H 0.74681 0.3753 0.59166 0.0
H393 H 0.81391 0.36287 0.45395 0.0
H394 H 0.78059 0.31069 0.44258 0.0
H395 H 0.73199 0.26887 0.4709 0.0
H396 H 0.66323 0.28121 0.60699 0.0
H397 H 0.69711 0.33335 0.6195 0.0
C398 C 0.75428 0.36107 0.55934 0.0
C399 C 0.78298 0.37294 0.52383 0.0
C400 C 0.73449 0.3312 0.55254 0.0
C401 C 0.79195 0.35437 0.48182 0.0
C402 C 0.7729 0.3245 0.47527 0.0
C403 C 0.72464 0.28282 0.50354 0.0
C404 C 0.69532 0.27106 0.53816 0.0
C405 C 0.74409 0.31272 0.51028 0.0
C406 C 0.6855 0.28983 0.57963 0.0
C407 C 0.70503 0.31954 0.58693 0.0
H408 H 0.72488 0.62419 1.01859 0.0
H409 H 0.77197 0.61092 0.17095 0.0
H410 H 0.72948 0.65416 0.19952 0.0
H411 H 0.68605 0.70064 0.17877 0.0
H412 H 0.63874 0.71442 1.02727 0.0
H413 H 0.67391 0.666 1.0008 0.0
C414 C 0.72519 0.63019 1.05831 0.0
C415 C 0.7522 0.61463 0.09227 0.0
C416 C 0.70109 0.65557 0.07446 0.0
C417 C 0.75185 0.62263 0.14374 0.0
C418 C 0.72771 0.64755 0.16014 0.0
C419 C 0.6832 0.69273 0.14015 0.0
C420 C 0.66051 0.71119 0.10473 0.0
C421 C 0.70348 0.66501 0.12541 0.0
C422 C 0.65617 0.70051 1.05505 0.0
C423 C 0.67641 0.67296 1.03994 0.0
H424 H 0.30736 0.73114 0.67948 0.0
H425 H 0.34706 0.75464 0.52646 0.0
H426 H 0.29545 0.71866 0.49316 0.0
H427 H 0.24604 0.67449 0.50886 0.0
H428 H 0.20962 0.649 0.66293 0.0
H429 H 0.25272 0.69185 0.69448 0.0
C430 C 0.30439 0.72862 0.63881 0.0
C431 C 0.33138 0.74507 0.60556 0.0
C432 C 0.27546 0.70728 0.62019 0.0
C433 C 0.32665 0.74226 0.55286 0.0
C434 C 0.29735 0.72146 0.53386 0.0
C435 C 0.2468 0.67881 0.54922 0.0
C436 C 0.22502 0.65827 0.58355 0.0
C437 C 0.27255 0.70296 0.56732 0.0
C438 C 0.22639 0.66421 0.63573 0.0
C439 C 0.25113 0.68866 0.65385 0.0
loop_
_geom_bond_atom_site_label_1
_geom_bond_atom_site_label_2
_geom_bond_distance
_geom_bond_site_symmetry_2
_ccdc_geom_bond_type
Cu0 N1 1.999 1_554 S
Cu0 O6 1.974 . S
Cu0 N11 1.985 . S
Cu0 O20 1.959 . S
N1 Cu0 1.999 1_556 S
N1 C3 1.263 . S
N1 C5 1.389 . S
N2 C3 1.358 . S
N2 C4 1.400 . S
C3 N1 1.263 . S
C3 N2 1.358 . S
C3 H9 0.930 . S
C4 N2 1.400 . S
C4 C5 1.351 . S
C4 H21 0.930 . S
C5 N1 1.389 . S
C5 C4 1.351 . S
C5 H10 0.930 . S
O6 Cu0 1.974 . S
O6 C16 1.282 . S
C7 O8 1.261 . S
C7 O20 1.251 . S
O8 C7 1.261 . S
H9 C3 0.930 . S
H10 C5 0.930 . S
N11 Cu0 1.985 . S
N11 C13 1.335 . S
N11 C14 1.390 . S
N12 C13 1.345 . S
N12 C15 1.336 . S
C13 N11 1.335 . S
C13 N12 1.345 . S
C13 H18 0.930 . S
C14 N11 1.390 . S
C14 C15 1.346 . S
C14 H19 0.930 . S
C15 N12 1.336 . S
C15 C14 1.346 . S
C15 H22 0.929 . S
C16 O6 1.282 . S
C16 O17 1.216 . S
O17 C16 1.216 . S
H18 C13 0.930 . S
H19 C14 0.930 . S
O20 Cu0 1.959 . S
O20 C7 1.251 . S
H21 C4 0.930 . S
H22 C15 0.929 . S
Cu23 N24 1.999 . S
Cu23 O29 1.974 . S
Cu23 N34 1.985 . S
Cu23 O43 1.959 . S
N24 Cu23 1.999 . S
N24 C26 1.263 . S
N24 C28 1.389 . S
N25 C26 1.358 . S
N25 C27 1.400 . S
C26 N24 1.263 . S
C26 N25 1.358 . S
C26 H32 0.930 . S
C27 N25 1.400 . S
C27 C28 1.351 . S
C27 H44 0.930 . S
C28 N24 1.389 . S
C28 C27 1.351 . S
C28 H33 0.930 . S
O29 Cu23 1.974 . S
O29 C39 1.282 . S
C30 O31 1.261 . S
C30 O43 1.251 . S
O31 C30 1.261 . S
H32 C26 0.930 . S
H33 C28 0.930 . S
N34 Cu23 1.985 . S
N34 C36 1.335 . S
N34 C37 1.390 . S
N35 C36 1.345 . S
N35 C38 1.336 . S
C36 N34 1.335 . S
C36 N35 1.345 . S
C36 H41 0.930 . S
C37 N34 1.390 . S
C37 C38 1.346 . S
C37 H42 0.930 . S
C38 N35 1.336 . S
C38 C37 1.346 . S
C38 H45 0.929 . S
C39 O29 1.282 . S
C39 O40 1.216 . S
O40 C39 1.216 . S
H41 C36 0.930 . S
H42 C37 0.930 . S
O43 Cu23 1.959 . S
O43 C30 1.251 . S
H44 C27 0.930 . S
H45 C38 0.929 . S
Cu46 N47 1.999 1_554 S
Cu46 O52 1.974 . S
Cu46 N57 1.985 . S
Cu46 O66 1.959 . S
N47 Cu46 1.999 1_556 S
N47 C49 1.263 . S
N47 C51 1.389 . S
N48 C49 1.358 . S
N48 C50 1.400 . S
C49 N47 1.263 . S
C49 N48 1.358 . S
C49 H55 0.930 . S
C50 N48 1.400 . S
C50 C51 1.351 . S
C50 H67 0.930 . S
C51 N47 1.389 . S
C51 C50 1.351 . S
C51 H56 0.930 . S
O52 Cu46 1.974 . S
O52 C62 1.282 . S
C53 O54 1.261 . S
C53 O66 1.251 . S
O54 C53 1.261 . S
H55 C49 0.930 . S
H56 C51 0.930 . S
N57 Cu46 1.985 . S
N57 C59 1.335 . S
N57 C60 1.390 . S
N58 C59 1.345 . S
N58 C61 1.336 . S
C59 N57 1.335 . S
C59 N58 1.345 . S
C59 H64 0.930 . S
C60 N57 1.390 . S
C60 C61 1.346 . S
C60 H65 0.930 . S
C61 N58 1.336 . S
C61 C60 1.346 . S
C61 H68 0.929 . S
C62 O52 1.282 . S
C62 O63 1.216 . S
O63 C62 1.216 . S
H64 C59 0.930 . S
H65 C60 0.930 . S
O66 Cu46 1.959 . S
O66 C53 1.251 . S
H67 C50 0.930 . S
H68 C61 0.929 . S
Cu69 N70 1.999 . S
Cu69 O75 1.974 . S
Cu69 N80 1.985 . S
Cu69 O89 1.959 . S
N70 Cu69 1.999 . S
N70 C72 1.263 . S
N70 C74 1.389 . S
N71 C72 1.358 . S
N71 C73 1.400 . S
C72 N70 1.263 . S
C72 N71 1.358 . S
C72 H78 0.930 . S
C73 N71 1.400 . S
C73 C74 1.351 . S
C73 H90 0.930 . S
C74 N70 1.389 . S
C74 C73 1.351 . S
C74 H79 0.930 . S
O75 Cu69 1.974 . S
O75 C85 1.282 . S
C76 O77 1.261 . S
C76 O89 1.251 . S
O77 C76 1.261 . S
H78 C72 0.930 . S
H79 C74 0.930 . S
N80 Cu69 1.985 . S
N80 C82 1.335 . S
N80 C83 1.390 . S
N81 C82 1.345 . S
N81 C84 1.336 . S
C82 N80 1.335 . S
C82 N81 1.345 . S
C82 H87 0.930 . S
C83 N80 1.390 . S
C83 C84 1.346 . S
C83 H88 0.930 . S
C84 N81 1.336 . S
C84 C83 1.346 . S
C84 H91 0.929 . S
C85 O75 1.282 . S
C85 O86 1.216 . S
O86 C85 1.216 . S
H87 C82 0.930 . S
H88 C83 0.930 . S
O89 Cu69 1.959 . S
O89 C76 1.251 . S
H90 C73 0.930 . S
H91 C84 0.929 . S
Cu92 N93 1.999 . S
Cu92 O98 1.974 . S
Cu92 N103 1.985 . S
Cu92 O112 1.959 . S
N93 Cu92 1.999 . S
N93 C95 1.263 . S
N93 C97 1.389 . S
N94 C95 1.358 . S
N94 C96 1.400 . S
C95 N93 1.263 . S
C95 N94 1.358 . S
C95 H101 0.930 . S
C96 N94 1.400 . S
C96 C97 1.351 . S
C96 H113 0.930 . S
C97 N93 1.389 . S
C97 C96 1.351 . S
C97 H102 0.930 . S
O98 Cu92 1.974 . S
O98 C108 1.282 . S
C99 O100 1.261 . S
C99 O112 1.251 . S
O100 C99 1.261 . S
H101 C95 0.930 . S
H102 C97 0.930 . S
N103 Cu92 1.985 . S
N103 C105 1.335 . S
N103 C106 1.390 . S
N104 C105 1.345 . S
N104 C107 1.336 . S
C105 N103 1.335 . S
C105 N104 1.345 . S
C105 H110 0.930 . S
C106 N103 1.390 . S
C106 C107 1.346 . S
C106 H111 0.930 . S
C107 N104 1.336 . S
C107 C106 1.346 . S
C107 H114 0.929 . S
C108 O98 1.282 . S
C108 O109 1.216 . S
O109 C108 1.216 . S
H110 C105 0.930 . S
H111 C106 0.930 . S
O112 Cu92 1.959 . S
O112 C99 1.251 . S
H113 C96 0.930 . S
H114 C107 0.929 . S
Cu115 N116 1.999 . S
Cu115 O121 1.974 1_554 S
Cu115 N126 1.985 . S
Cu115 O135 1.959 . S
N116 Cu115 1.999 . S
N116 C118 1.263 1_554 S
N116 C120 1.389 . S
N117 C118 1.358 . S
N117 C119 1.400 1_556 S
C118 N116 1.263 1_556 S
C118 N117 1.358 . S
C118 H124 0.930 . S
C119 N117 1.400 1_554 S
C119 C120 1.351 . S
C119 H136 0.930 . S
C120 N116 1.389 . S
C120 C119 1.351 . S
C120 H125 0.930 . S
O121 Cu115 1.974 1_556 S
O121 C131 1.282 . S
C122 O123 1.261 . S
C122 O135 1.251 . S
O123 C122 1.261 . S
H124 C118 0.930 . S
H125 C120 0.930 . S
N126 Cu115 1.985 . S
N126 C128 1.335 . S
N126 C129 1.390 1_554 S
N127 C128 1.345 . S
N127 C130 1.336 1_554 S
C128 N126 1.335 . S
C128 N127 1.345 . S
C128 H133 0.930 . S
C129 N126 1.390 1_556 S
C129 C130 1.346 . S
C129 H134 0.930 . S
C130 N127 1.336 1_556 S
C130 C129 1.346 . S
C130 H137 0.929 . S
C131 O121 1.282 . S
C131 O132 1.216 . S
O132 C131 1.216 . S
H133 C128 0.930 . S
H134 C129 0.930 . S
O135 Cu115 1.959 . S
O135 C122 1.251 . S
H136 C119 0.930 . S
H137 C130 0.929 . S
Cu138 N139 1.999 . S
Cu138 O144 1.974 . S
Cu138 N149 1.985 . S
Cu138 O158 1.959 . S
N139 Cu138 1.999 . S
N139 C141 1.263 . S
N139 C143 1.389 . S
N140 C141 1.358 . S
N140 C142 1.400 . S
C141 N139 1.263 . S
C141 N140 1.358 . S
C141 H147 0.930 . S
C142 N140 1.400 . S
C142 C143 1.351 . S
C142 H159 0.930 . S
C143 N139 1.389 . S
C143 C142 1.351 . S
C143 H148 0.930 . S
O144 Cu138 1.974 . S
O144 C154 1.282 . S
C145 O146 1.261 . S
C145 O158 1.251 . S
O146 C145 1.261 . S
H147 C141 0.930 . S
H148 C143 0.930 . S
N149 Cu138 1.985 . S
N149 C151 1.335 . S
N149 C152 1.390 . S
N150 C151 1.345 . S
N150 C153 1.336 . S
C151 N149 1.335 . S
C151 N150 1.345 . S
C151 H156 0.930 . S
C152 N149 1.390 . S
C152 C153 1.346 . S
C152 H157 0.930 . S
C153 N150 1.336 . S
C153 C152 1.346 . S
C153 H160 0.929 . S
C154 O144 1.282 . S
C154 O155 1.216 . S
O155 C154 1.216 . S
H156 C151 0.930 . S
H157 C152 0.930 . S
O158 Cu138 1.959 . S
O158 C145 1.251 . S
H159 C142 0.930 . S
H160 C153 0.929 . S
Cu161 N162 1.999 . S
Cu161 O167 1.974 1_554 S
Cu161 N172 1.985 . S
Cu161 O181 1.959 . S
N162 Cu161 1.999 . S
N162 C164 1.263 1_554 S
N162 C166 1.389 . S
N163 C164 1.358 . S
N163 C165 1.400 1_556 S
C164 N162 1.263 1_556 S
C164 N163 1.358 . S
C164 H170 0.930 . S
C165 N163 1.400 1_554 S
C165 C166 1.351 . S
C165 H182 0.930 . S
C166 N162 1.389 . S
C166 C165 1.351 . S
C166 H171 0.930 . S
O167 Cu161 1.974 1_556 S
O167 C177 1.282 . S
C168 O169 1.261 . S
C168 O181 1.251 . S
O169 C168 1.261 . S
H170 C164 0.930 . S
H171 C166 0.930 . S
N172 Cu161 1.985 . S
N172 C174 1.335 . S
N172 C175 1.390 1_554 S
N173 C174 1.345 . S
N173 C176 1.336 1_554 S
C174 N172 1.335 . S
C174 N173 1.345 . S
C174 H179 0.930 . S
C175 N172 1.390 1_556 S
C175 C176 1.346 . S
C175 H180 0.930 . S
C176 N173 1.336 1_556 S
C176 C175 1.346 . S
C176 H183 0.929 . S
C177 O167 1.282 . S
C177 O178 1.216 . S
O178 C177 1.216 . S
H179 C174 0.930 . S
H180 C175 0.930 . S
O181 Cu161 1.959 . S
O181 C168 1.251 . S
H182 C165 0.930 . S
H183 C176 0.929 . S
H184 C190 0.930 . S
H185 C193 0.930 . S
H186 C194 0.930 . S
H187 C195 0.930 . S
H188 C198 0.930 . S
H189 C199 0.930 . S
C190 H184 0.930 . S
C190 C191 1.355 . S
C190 C192 1.415 . S
C191 C190 1.355 . S
C191 C193 1.419 . S
C192 C190 1.415 . S
C192 C197 1.425 . S
C192 C199 1.409 . S
C193 H185 0.930 . S
C193 C191 1.419 . S
C193 C194 1.362 . S
C194 H186 0.930 . S
C194 C193 1.362 . S
C194 C197 1.409 . S
C195 H187 0.930 . S
C195 C196 1.355 . S
C195 C197 1.415 . S
C196 C195 1.355 . S
C196 C198 1.419 . S
C197 C192 1.425 . S
C197 C194 1.409 . S
C197 C195 1.415 . S
C198 H188 0.930 . S
C198 C196 1.419 . S
C198 C199 1.362 . S
C199 H189 0.930 . S
C199 C192 1.409 . S
C199 C198 1.362 . S
H200 C206 0.930 . S
H201 C209 0.930 . S
H202 C210 0.930 . S
H203 C211 0.930 . S
H204 C214 0.930 . S
H205 C215 0.930 . S
C206 H200 0.930 . S
C206 C207 1.355 . S
C206 C208 1.415 . S
C207 C206 1.355 . S
C207 C209 1.419 . S
C208 C206 1.415 . S
C208 C213 1.425 . S
C208 C215 1.409 . S
C209 H201 0.930 . S
C209 C207 1.419 . S
C209 C210 1.362 . S
C210 H202 0.930 . S
C210 C209 1.362 . S
C210 C213 1.409 . S
C211 H203 0.930 . S
C211 C212 1.355 . S
C211 C213 1.415 . S
C212 C211 1.355 . S
C212 C214 1.419 . S
C213 C208 1.425 . S
C213 C210 1.409 . S
C213 C211 1.415 . S
C214 H204 0.930 . S
C214 C212 1.419 . S
C214 C215 1.362 . S
C215 H205 0.930 . S
C215 C208 1.409 . S
C215 C214 1.362 . S
H216 C222 0.930 . S
H217 C225 0.930 . S
H218 C226 0.930 . S
H219 C227 0.930 . S
H220 C230 0.930 . S
H221 C231 0.930 . S
C222 H216 0.930 . S
C222 C223 1.355 . S
C222 C224 1.415 . S
C223 C222 1.355 . S
C223 C225 1.419 . S
C224 C222 1.415 . S
C224 C229 1.425 . S
C224 C231 1.409 . S
C225 H217 0.930 . S
C225 C223 1.419 . S
C225 C226 1.362 . S
C226 H218 0.930 . S
C226 C225 1.362 . S
C226 C229 1.409 . S
C227 H219 0.930 . S
C227 C228 1.355 . S
C227 C229 1.415 . S
C228 C227 1.355 . S
C228 C230 1.419 . S
C229 C224 1.425 . S
C229 C226 1.409 . S
C229 C227 1.415 . S
C230 H220 0.930 . S
C230 C228 1.419 . S
C230 C231 1.362 . S
C231 H221 0.930 . S
C231 C224 1.409 . S
C231 C230 1.362 . S
H232 C238 0.930 . S
H233 C241 0.930 . S
H234 C242 0.930 . S
H235 C243 0.930 . S
H236 C246 0.930 . S
H237 C247 0.930 . S
C238 H232 0.930 . S
C238 C239 1.355 . S
C238 C240 1.415 . S
C239 C238 1.355 . S
C239 C241 1.419 . S
C240 C238 1.415 . S
C240 C245 1.425 . S
C240 C247 1.409 . S
C241 H233 0.930 . S
C241 C239 1.419 . S
C241 C242 1.362 . S
C242 H234 0.930 . S
C242 C241 1.362 . S
C242 C245 1.409 . S
C243 H235 0.930 . S
C243 C244 1.355 . S
C243 C245 1.415 . S
C244 C243 1.355 . S
C244 C246 1.419 . S
C245 C240 1.425 . S
C245 C242 1.409 . S
C245 C243 1.415 . S
C246 H236 0.930 . S
C246 C244 1.419 . S
C246 C247 1.362 . S
C247 H237 0.930 . S
C247 C240 1.409 . S
C247 C246 1.362 . S
H248 C254 0.930 . S
H249 C257 0.930 . S
H250 C258 0.930 . S
H251 C259 0.930 . S
H252 C262 0.930 . S
H253 C263 0.930 . S
C254 H248 0.930 . S
C254 C255 1.355 . S
C254 C256 1.415 . S
C255 C254 1.355 . S
C255 C257 1.419 . S
C256 C254 1.415 . S
C256 C261 1.425 . S
C256 C263 1.409 . S
C257 H249 0.930 . S
C257 C255 1.419 . S
C257 C258 1.362 . S
C258 H250 0.930 . S
C258 C257 1.362 . S
C258 C261 1.409 . S
C259 H251 0.930 . S
C259 C260 1.355 . S
C259 C261 1.415 . S
C260 C259 1.355 . S
C260 C262 1.419 . S
C261 C256 1.425 . S
C261 C258 1.409 . S
C261 C259 1.415 . S
C262 H252 0.930 . S
C262 C260 1.419 . S
C262 C263 1.362 . S
C263 H253 0.930 . S
C263 C256 1.409 . S
C263 C262 1.362 . S
H264 C270 0.930 . S
H265 C273 0.930 . S
H266 C274 0.930 . S
H267 C275 0.930 . S
H268 C278 0.930 . S
H269 C279 0.930 . S
C270 H264 0.930 . S
C270 C271 1.355 . S
C270 C272 1.415 . S
C271 C270 1.355 . S
C271 C273 1.419 . S
C272 C270 1.415 . S
C272 C277 1.425 . S
C272 C279 1.409 . S
C273 H265 0.930 . S
C273 C271 1.419 . S
C273 C274 1.362 . S
C274 H266 0.930 . S
C274 C273 1.362 . S
C274 C277 1.409 . S
C275 H267 0.930 . S
C275 C276 1.355 . S
C275 C277 1.415 . S
C276 C275 1.355 . S
C276 C278 1.419 . S
C277 C272 1.425 . S
C277 C274 1.409 . S
C277 C275 1.415 . S
C278 H268 0.930 . S
C278 C276 1.419 . S
C278 C279 1.362 . S
C279 H269 0.930 . S
C279 C272 1.409 . S
C279 C278 1.362 . S
H280 C286 0.930 . S
H281 C289 0.930 . S
H282 C290 0.930 . S
H283 C291 0.930 . S
H284 C294 0.930 . S
H285 C295 0.930 . S
C286 H280 0.930 . S
C286 C287 1.355 . S
C286 C288 1.415 . S
C287 C286 1.355 . S
C287 C289 1.419 . S
C288 C286 1.415 . S
C288 C293 1.425 . S
C288 C295 1.409 . S
C289 H281 0.930 . S
C289 C287 1.419 . S
C289 C290 1.362 . S
C290 H282 0.930 . S
C290 C289 1.362 . S
C290 C293 1.409 . S
C291 H283 0.930 . S
C291 C292 1.355 . S
C291 C293 1.415 . S
C292 C291 1.355 . S
C292 C294 1.419 . S
C293 C288 1.425 . S
C293 C290 1.409 . S
C293 C291 1.415 . S
C294 H284 0.930 . S
C294 C292 1.419 . S
C294 C295 1.362 . S
C295 H285 0.930 . S
C295 C288 1.409 . S
C295 C294 1.362 . S
H296 C302 0.930 . S
H297 C305 0.930 . S
H298 C306 0.930 . S
H299 C307 0.930 . S
H300 C310 0.930 . S
H301 C311 0.930 . S
C302 H296 0.930 . S
C302 C303 1.355 . S
C302 C304 1.415 . S
C303 C302 1.355 . S
C303 C305 1.419 . S
C304 C302 1.415 . S
C304 C309 1.425 . S
C304 C311 1.409 . S
C305 H297 0.930 . S
C305 C303 1.419 . S
C305 C306 1.362 . S
C306 H298 0.930 . S
C306 C305 1.362 . S
C306 C309 1.409 . S
C307 H299 0.930 . S
C307 C308 1.355 . S
C307 C309 1.415 . S
C308 C307 1.355 . S
C308 C310 1.419 . S
C309 C304 1.425 . S
C309 C306 1.409 . S
C309 C307 1.415 . S
C310 H300 0.930 . S
C310 C308 1.419 . S
C310 C311 1.362 . S
C311 H301 0.930 . S
C311 C304 1.409 . S
C311 C310 1.362 . S
H312 C318 0.930 . S
H313 C321 0.930 1_556 S
H314 C322 0.930 . S
H315 C323 0.930 1_556 S
H316 C326 0.930 . S
H317 C327 0.930 . S
C318 H312 0.930 . S
C318 C319 1.355 . S
C318 C320 1.415 . S
C319 C318 1.355 . S
C319 C321 1.419 . S
C320 C318 1.415 . S
C320 C325 1.425 1_655 S
C320 C327 1.409 1_655 S
C321 H313 0.930 1_554 S
C321 C319 1.419 . S
C321 C322 1.362 1_554 S
C322 H314 0.930 . S
C322 C321 1.362 1_556 S
C322 C325 1.409 1_656 S
C323 H315 0.930 1_554 S
C323 C324 1.355 . S
C323 C325 1.415 . S
C324 C323 1.355 . S
C324 C326 1.419 . S
C325 C320 1.425 1_455 S
C325 C322 1.409 1_454 S
C325 C323 1.415 . S
C326 H316 0.930 . S
C326 C324 1.419 . S
C326 C327 1.362 . S
C327 H317 0.930 . S
C327 C320 1.409 1_455 S
C327 C326 1.362 . S
H328 C334 0.930 . S
H329 C337 0.930 . S
H330 C338 0.930 . S
H331 C339 0.930 . S
H332 C342 0.930 . S
H333 C343 0.930 . S
C334 H328 0.930 . S
C334 C335 1.355 . S
C334 C336 1.415 . S
C335 C334 1.355 . S
C335 C337 1.419 . S
C336 C334 1.415 . S
C336 C341 1.425 1_565 S
C336 C343 1.409 1_565 S
C337 H329 0.930 . S
C337 C335 1.419 . S
C337 C338 1.362 . S
C338 H330 0.930 . S
C338 C337 1.362 . S
C338 C341 1.409 1_565 S
C339 H331 0.930 . S
C339 C340 1.355 . S
C339 C341 1.415 . S
C340 C339 1.355 . S
C340 C342 1.419 . S
C341 C336 1.425 1_545 S
C341 C338 1.409 1_545 S
C341 C339 1.415 . S
C342 H332 0.930 . S
C342 C340 1.419 . S
C342 C343 1.362 . S
C343 H333 0.930 . S
C343 C336 1.409 1_545 S
C343 C342 1.362 . S
H344 C350 0.930 . S
H345 C353 0.930 . S
H346 C354 0.930 . S
H347 C355 0.930 . S
H348 C358 0.930 . S
H349 C359 0.930 . S
C350 H344 0.930 . S
C350 C351 1.355 . S
C350 C352 1.415 . S
C351 C350 1.355 . S
C351 C353 1.419 . S
C352 C350 1.415 . S
C352 C357 1.425 1_455 S
C352 C359 1.409 1_455 S
C353 H345 0.930 . S
C353 C351 1.419 . S
C353 C354 1.362 . S
C354 H346 0.930 . S
C354 C353 1.362 . S
C354 C357 1.409 1_455 S
C355 H347 0.930 . S
C355 C356 1.355 . S
C355 C357 1.415 . S
C356 C355 1.355 . S
C356 C358 1.419 . S
C357 C352 1.425 1_655 S
C357 C354 1.409 1_655 S
C357 C355 1.415 . S
C358 H348 0.930 . S
C358 C356 1.419 . S
C358 C359 1.362 . S
C359 H349 0.930 . S
C359 C352 1.409 1_655 S
C359 C358 1.362 . S
H360 C366 0.930 . S
H361 C369 0.930 . S
H362 C370 0.930 . S
H363 C371 0.930 . S
H364 C374 0.930 . S
H365 C375 0.930 . S
C366 H360 0.930 . S
C366 C367 1.355 . S
C366 C368 1.415 . S
C367 C366 1.355 . S
C367 C369 1.419 1_556 S
C368 C366 1.415 . S
C368 C373 1.425 1_566 S
C368 C375 1.409 1_565 S
C369 H361 0.930 . S
C369 C367 1.419 1_554 S
C369 C370 1.362 . S
C370 H362 0.930 . S
C370 C369 1.362 . S
C370 C373 1.409 1_565 S
C371 H363 0.930 . S
C371 C372 1.355 1_554 S
C371 C373 1.415 . S
C372 C371 1.355 1_556 S
C372 C374 1.419 . S
C373 C368 1.425 1_544 S
C373 C370 1.409 1_545 S
C373 C371 1.415 . S
C374 H364 0.930 . S
C374 C372 1.419 . S
C374 C375 1.362 . S
C375 H365 0.930 . S
C375 C368 1.409 1_545 S
C375 C374 1.362 . S
H376 C382 0.930 . S
H377 C385 0.930 . S
H378 C386 0.930 . S
H379 C387 0.930 1_556 S
H380 C390 0.930 . S
H381 C391 0.930 . S
C382 H376 0.930 . S
C382 C383 1.355 . S
C382 C384 1.415 . S
C383 C382 1.355 . S
C383 C385 1.419 1_554 S
C384 C382 1.415 . S
C384 C389 1.425 . S
C384 C391 1.409 . S
C385 H377 0.930 . S
C385 C383 1.419 1_556 S
C385 C386 1.362 . S
C386 H378 0.930 . S
C386 C385 1.362 . S
C386 C389 1.409 1_556 S
C387 H379 0.930 1_554 S
C387 C388 1.355 . S
C387 C389 1.415 . S
C388 C387 1.355 . S
C388 C390 1.419 . S
C389 C384 1.425 . S
C389 C386 1.409 1_554 S
C389 C387 1.415 . S
C390 H380 0.930 . S
C390 C388 1.419 . S
C390 C391 1.362 . S
C391 H381 0.930 . S
C391 C384 1.409 . S
C391 C390 1.362 . S
H392 C398 0.930 . S
H393 C401 0.930 . S
H394 C402 0.930 . S
H395 C403 0.930 . S
H396 C406 0.930 . S
H397 C407 0.930 . S
C398 H392 0.930 . S
C398 C399 1.355 . S
C398 C400 1.415 . S
C399 C398 1.355 . S
C399 C401 1.419 . S
C400 C398 1.415 . S
C400 C405 1.425 . S
C400 C407 1.409 . S
C401 H393 0.930 . S
C401 C399 1.419 . S
C401 C402 1.362 . S
C402 H394 0.930 . S
C402 C401 1.362 . S
C402 C405 1.409 . S
C403 H395 0.930 . S
C403 C404 1.355 . S
C403 C405 1.415 . S
C404 C403 1.355 . S
C404 C406 1.419 . S
C405 C400 1.425 . S
C405 C402 1.409 . S
C405 C403 1.415 . S
C406 H396 0.930 . S
C406 C404 1.419 . S
C406 C407 1.362 . S
C407 H397 0.930 . S
C407 C400 1.409 . S
C407 C406 1.362 . S
H408 C414 0.930 . S
H409 C417 0.930 . S
H410 C418 0.930 . S
H411 C419 0.930 . S
H412 C422 0.930 . S
H413 C423 0.930 . S
C414 H408 0.930 . S
C414 C415 1.355 1_556 S
C414 C416 1.415 1_556 S
C415 C414 1.355 1_554 S
C415 C417 1.419 . S
C416 C414 1.415 1_554 S
C416 C421 1.425 . S
C416 C423 1.409 1_554 S
C417 H409 0.930 . S
C417 C415 1.419 . S
C417 C418 1.362 . S
C418 H410 0.930 . S
C418 C417 1.362 . S
C418 C421 1.409 . S
C419 H411 0.930 . S
C419 C420 1.355 . S
C419 C421 1.415 . S
C420 C419 1.355 . S
C420 C422 1.419 1_554 S
C421 C416 1.425 . S
C421 C418 1.409 . S
C421 C419 1.415 . S
C422 H412 0.930 . S
C422 C420 1.419 1_556 S
C422 C423 1.362 . S
C423 H413 0.930 . S
C423 C416 1.409 1_556 S
C423 C422 1.362 . S
H424 C430 0.930 . S
H425 C433 0.930 . S
H426 C434 0.930 . S
H427 C435 0.930 . S
H428 C438 0.930 . S
H429 C439 0.930 . S
C430 H424 0.930 . S
C430 C431 1.355 . S
C430 C432 1.415 . S
C431 C430 1.355 . S
C431 C433 1.419 . S
C432 C430 1.415 . S
C432 C437 1.425 . S
C432 C439 1.409 . S
C433 H425 0.930 . S
C433 C431 1.419 . S
C433 C434 1.362 . S
C434 H426 0.930 . S
C434 C433 1.362 . S
C434 C437 1.409 . S
C435 H427 0.930 . S
C435 C436 1.355 . S
C435 C437 1.415 . S
C436 C435 1.355 . S
C436 C438 1.419 . S
C437 C432 1.425 . S
C437 C434 1.409 . S
C437 C435 1.415 . S
C438 H428 0.930 . S
C438 C436 1.419 . S
C438 C439 1.362 . S
C439 H429 0.930 . S
C439 C432 1.409 . S
C439 C438 1.362 . S
C191 N12 0.493 . S
C196 N104 0.452 . S
C207 C39 1.853 . S
C212 C131 1.824 . S
C223 N150 0.544 . S
C228 N58 0.424 . S
C239 C177 1.826 . S
C244 C85 1.836 . S
C255 N140 1.223 . S
C260 N48 1.210 . S
C271 C168 2.632 . S
C276 C76 2.618 . S
C287 N2 1.305 . S
C292 N94 1.324 . S
C303 C30 2.616 . S
C308 C122 2.620 . S
C319 C53 1.823 . S
C324 C7 1.837 . S
C335 N71 1.736 . S
C340 N25 1.710 . S
C351 C99 1.826 . S
C356 C145 1.822 . S
C367 N163 1.729 . S
C372 N117 1.778 . S
C383 C16 1.816 . S
C388 N127 1.763 . S
C399 C154 1.758 . S
C404 N35 1.748 . S
C415 C62 1.756 . S
C420 N173 1.760 . S
C431 N81 1.802 . S
C436 C108 1.791 . S
