# Generated by pormake.
# Topology dei, (4)-cn, num edge types: 1
# Building blocks:
#     Node 0, Type 0, BuildingBlock: CEKHIL_clean_sbu_0, # of connection points: 4
#     Node 1, Type 0, BuildingBlock: CEKHIL_clean_sbu_0, # of connection points: 4
#     Node 2, Type 0, BuildingBlock: CEKHIL_clean_sbu_0, # of connection points: 4
#     Node 3, Type 0, BuildingBlock: CEKHIL_clean_sbu_0, # of connection points: 4
#     Node 4, Type 0, BuildingBlock: CEKHIL_clean_sbu_0, # of connection points: 4
#     Node 5, Type 0, BuildingBlock: CEKHIL_clean_sbu_0, # of connection points: 4
#     Node 6, Type 0, BuildingBlock: CEKHIL_clean_sbu_0, # of connection points: 4
#     Node 7, Type 0, BuildingBlock: CEKHIL_clean_sbu_0, # of connection points: 4
#     Node 8, Type 0, BuildingBlock: CEKHIL_clean_sbu_0, # of connection points: 4
#     Node 9, Type 0, BuildingBlock: CEKHIL_clean_sbu_0, # of connection points: 4
#     Node 10, Type 0, BuildingBlock: CEKHIL_clean_sbu_0, # of connection points: 4
#     Node 11, Type 0, BuildingBlock: CEKHIL_clean_sbu_0, # of connection points: 4
#     Node 12, Type 0, BuildingBlock: CEKHIL_clean_sbu_0, # of connection points: 4
#     Node 13, Type 0, BuildingBlock: CEKHIL_clean_sbu_0, # of connection points: 4
#     Node 14, Type 0, BuildingBlock: CEKHIL_clean_sbu_0, # of connection points: 4
#     Node 15, Type 0, BuildingBlock: CEKHIL_clean_sbu_0, # of connection points: 4
#     Node 16, Type 0, BuildingBlock: CEKHIL_clean_sbu_0, # of connection points: 4
#     Node 17, Type 0, BuildingBlock: CEKHIL_clean_sbu_0, # of connection points: 4
#     Node 18, Type 0, BuildingBlock: CEKHIL_clean_sbu_0, # of connection points: 4
#     Node 19, Type 0, BuildingBlock: CEKHIL_clean_sbu_0, # of connection points: 4
#     Node 20, Type 0, BuildingBlock: CEKHIL_clean_sbu_0, # of connection points: 4
#     Node 21, Type 0, BuildingBlock: CEKHIL_clean_sbu_0, # of connection points: 4
#     Node 22, Type 0, BuildingBlock: CEKHIL_clean_sbu_0, # of connection points: 4
#     Node 23, Type 0, BuildingBlock: CEKHIL_clean_sbu_0, # of connection points: 4
#     Node 24, Type 0, BuildingBlock: CEKHIL_clean_sbu_0, # of connection points: 4
#     Node 25, Type 0, BuildingBlock: CEKHIL_clean_sbu_0, # of connection points: 4
#     Node 26, Type 0, BuildingBlock: CEKHIL_clean_sbu_0, # of connection points: 4
#     Node 27, Type 0, BuildingBlock: CEKHIL_clean_sbu_0, # of connection points: 4
#     Node 28, Type 0, BuildingBlock: CEKHIL_clean_sbu_0, # of connection points: 4
#     Node 29, Type 0, BuildingBlock: CEKHIL_clean_sbu_0, # of connection points: 4
#     Node 30, Type 0, BuildingBlock: CEKHIL_clean_sbu_0, # of connection points: 4
#     Node 31, Type 0, BuildingBlock: CEKHIL_clean_sbu_0, # of connection points: 4
#     Edge 32, Type (0, 0), BuildingBlock: CIFDUS_clean_linker_0, # of connection points: 2
#     Edge 33, Type (0, 0), BuildingBlock: CIFDUS_clean_linker_0, # of connection points: 2
#     Edge 34, Type (0, 0), BuildingBlock: CIFDUS_clean_linker_0, # of connection points: 2
#     Edge 35, Type (0, 0), BuildingBlock: CIFDUS_clean_linker_0, # of connection points: 2
#     Edge 36, Type (0, 0), BuildingBlock: CIFDUS_clean_linker_0, # of connection points: 2
#     Edge 37, Type (0, 0), BuildingBlock: CIFDUS_clean_linker_0, # of connection points: 2
#     Edge 38, Type (0, 0), BuildingBlock: CIFDUS_clean_linker_0, # of connection points: 2
#     Edge 39, Type (0, 0), BuildingBlock: CIFDUS_clean_linker_0, # of connection points: 2
#     Edge 40, Type (0, 0), BuildingBlock: CIFDUS_clean_linker_0, # of connection points: 2
#     Edge 41, Type (0, 0), BuildingBlock: CIFDUS_clean_linker_0, # of connection points: 2
#     Edge 42, Type (0, 0), BuildingBlock: CIFDUS_clean_linker_0, # of connection points: 2
#     Edge 43, Type (0, 0), BuildingBlock: CIFDUS_clean_linker_0, # of connection points: 2
#     Edge 44, Type (0, 0), BuildingBlock: CIFDUS_clean_linker_0, # of connection points: 2
#     Edge 45, Type (0, 0), BuildingBlock: CIFDUS_clean_linker_0, # of connection points: 2
#     Edge 46, Type (0, 0), BuildingBlock: CIFDUS_clean_linker_0, # of connection points: 2
#     Edge 47, Type (0, 0), BuildingBlock: CIFDUS_clean_linker_0, # of connection points: 2
#     Edge 48, Type (0, 0), BuildingBlock: CIFDUS_clean_linker_0, # of connection points: 2
#     Edge 49, Type (0, 0), BuildingBlock: CIFDUS_clean_linker_0, # of connection points: 2
#     Edge 50, Type (0, 0), BuildingBlock: CIFDUS_clean_linker_0, # of connection points: 2
#     Edge 51, Type (0, 0), BuildingBlock: CIFDUS_clean_linker_0, # of connection points: 2
#     Edge 52, Type (0, 0), BuildingBlock: CIFDUS_clean_linker_0, # of connection points: 2
#     Edge 53, Type (0, 0), BuildingBlock: CIFDUS_clean_linker_0, # of connection points: 2
#     Edge 54, Type (0, 0), BuildingBlock: CIFDUS_clean_linker_0, # of connection points: 2
#     Edge 55, Type (0, 0), BuildingBlock: CIFDUS_clean_linker_0, # of connection points: 2
#     Edge 56, Type (0, 0), BuildingBlock: CIFDUS_clean_linker_0, # of connection points: 2
#     Edge 57, Type (0, 0), BuildingBlock: CIFDUS_clean_linker_0, # of connection points: 2
#     Edge 58, Type (0, 0), BuildingBlock: CIFDUS_clean_linker_0, # of connection points: 2
#     Edge 59, Type (0, 0), BuildingBlock: CIFDUS_clean_linker_0, # of connection points: 2
#     Edge 60, Type (0, 0), BuildingBlock: CIFDUS_clean_linker_0, # of connection points: 2
#     Edge 61, Type (0, 0), BuildingBlock: CIFDUS_clean_linker_0, # of connection points: 2
#     Edge 62, Type (0, 0), BuildingBlock: CIFDUS_clean_linker_0, # of connection points: 2
#     Edge 63, Type (0, 0), BuildingBlock: CIFDUS_clean_linker_0, # of connection points: 2
#     Edge 64, Type (0, 0), BuildingBlock: CIFDUS_clean_linker_0, # of connection points: 2
#     Edge 65, Type (0, 0), BuildingBlock: CIFDUS_clean_linker_0, # of connection points: 2
#     Edge 66, Type (0, 0), BuildingBlock: CIFDUS_clean_linker_0, # of connection points: 2
#     Edge 67, Type (0, 0), BuildingBlock: CIFDUS_clean_linker_0, # of connection points: 2
#     Edge 68, Type (0, 0), BuildingBlock: CIFDUS_clean_linker_0, # of connection points: 2
#     Edge 69, Type (0, 0), BuildingBlock: CIFDUS_clean_linker_0, # of connection points: 2
#     Edge 70, Type (0, 0), BuildingBlock: CIFDUS_clean_linker_0, # of connection points: 2
#     Edge 71, Type (0, 0), BuildingBlock: CIFDUS_clean_linker_0, # of connection points: 2
#     Edge 72, Type (0, 0), BuildingBlock: CIFDUS_clean_linker_0, # of connection points: 2
#     Edge 73, Type (0, 0), BuildingBlock: CIFDUS_clean_linker_0, # of connection points: 2
#     Edge 74, Type (0, 0), BuildingBlock: CIFDUS_clean_linker_0, # of connection points: 2
#     Edge 75, Type (0, 0), BuildingBlock: CIFDUS_clean_linker_0, # of connection points: 2
#     Edge 76, Type (0, 0), BuildingBlock: CIFDUS_clean_linker_0, # of connection points: 2
#     Edge 77, Type (0, 0), BuildingBlock: CIFDUS_clean_linker_0, # of connection points: 2
#     Edge 78, Type (0, 0), BuildingBlock: CIFDUS_clean_linker_0, # of connection points: 2
#     Edge 79, Type (0, 0), BuildingBlock: CIFDUS_clean_linker_0, # of connection points: 2
#     Edge 80, Type (0, 0), BuildingBlock: CIFDUS_clean_linker_0, # of connection points: 2
#     Edge 81, Type (0, 0), BuildingBlock: CIFDUS_clean_linker_0, # of connection points: 2
#     Edge 82, Type (0, 0), BuildingBlock: CIFDUS_clean_linker_0, # of connection points: 2
#     Edge 83, Type (0, 0), BuildingBlock: CIFDUS_clean_linker_0, # of connection points: 2
#     Edge 84, Type (0, 0), BuildingBlock: CIFDUS_clean_linker_0, # of connection points: 2
#     Edge 85, Type (0, 0), BuildingBlock: CIFDUS_clean_linker_0, # of connection points: 2
#     Edge 86, Type (0, 0), BuildingBlock: CIFDUS_clean_linker_0, # of connection points: 2
#     Edge 87, Type (0, 0), BuildingBlock: CIFDUS_clean_linker_0, # of connection points: 2
#     Edge 88, Type (0, 0), BuildingBlock: CIFDUS_clean_linker_0, # of connection points: 2
#     Edge 89, Type (0, 0), BuildingBlock: CIFDUS_clean_linker_0, # of connection points: 2
#     Edge 90, Type (0, 0), BuildingBlock: CIFDUS_clean_linker_0, # of connection points: 2
#     Edge 91, Type (0, 0), BuildingBlock: CIFDUS_clean_linker_0, # of connection points: 2
#     Edge 92, Type (0, 0), BuildingBlock: CIFDUS_clean_linker_0, # of connection points: 2
#     Edge 93, Type (0, 0), BuildingBlock: CIFDUS_clean_linker_0, # of connection points: 2
#     Edge 94, Type (0, 0), BuildingBlock: CIFDUS_clean_linker_0, # of connection points: 2
#     Edge 95, Type (0, 0), BuildingBlock: CIFDUS_clean_linker_0, # of connection points: 2
# Relax obj value: 0.242
# Max RMSD: 0.067
# Mean RMSD: 0.067
data_MOF--net-dei--node1-CEKHIL_clean_sbu_0--edge1-CIFDUS_clean_linker_0
_symmetry_space_group_name_H-M    P1
_symmetry_Int_Tables_number       1
_symmetry_cell_setting            triclinic
loop_
_symmetry_equiv_pos_as_xyz
'x, y, z'
_cell_length_a     50.857295
_cell_length_b     50.790333
_cell_length_c     65.405935
_cell_angle_alpha  89.996268
_cell_angle_beta   89.99121
_cell_angle_gamma 90.010135
loop_
_atom_site_label
_atom_site_type_symbol
_atom_site_fract_x
_atom_site_fract_y
_atom_site_fract_z
_atom_type_partial_charge
Co0 Co 0.12373 0.60778 0.03247 0.0
O1 O 0.11566 0.57111 0.03636 0.0
O2 O 0.14311 0.58591 0.01289 0.0
C3 C 0.12898 0.61544 0.0662 0.0
O4 O 0.13759 0.6452 0.02524 0.0
Co5 Co 0.08715 0.65025 0.0524 0.0
O6 O 0.11563 0.67457 0.04485 0.0
C7 C 0.07038 0.62196 0.01501 0.0
C8 C 0.13195 0.56581 0.02176 0.0
C9 C 0.13364 0.66886 0.03211 0.0
O10 O 0.09306 0.61105 0.01286 0.0
O11 O 0.06402 0.63639 0.03025 0.0
O12 O 0.14831 0.60584 0.05557 0.0
O13 O 0.10718 0.61851 0.05653 0.0
Co14 Co 0.6384 0.88505 0.27742 0.0
O15 O 0.67609 0.88289 0.27982 0.0
O16 O 0.65541 0.90129 0.2538 0.0
C17 C 0.633 0.89759 0.31012 0.0
O18 O 0.59908 0.89154 0.27045 0.0
Co19 Co 0.60189 0.85072 0.3046 0.0
O20 O 0.57509 0.87715 0.29711 0.0
C21 C 0.62891 0.82739 0.26866 0.0
C22 C 0.67763 0.895 0.26247 0.0
C23 C 0.57713 0.88993 0.28046 0.0
O24 O 0.63796 0.8499 0.26307 0.0
O25 O 0.61548 0.82367 0.28496 0.0
O26 O 0.6384 0.91512 0.29627 0.0
O27 O 0.63215 0.87353 0.30407 0.0
Co28 Co 0.3764 0.38887 0.52752 0.0
O29 O 0.38055 0.42651 0.52821 0.0
O30 O 0.35821 0.40541 0.5044 0.0
C31 C 0.36715 0.38689 0.56123 0.0
O32 O 0.367 0.3493 0.5232 0.0
Co33 Co 0.41317 0.354 0.5539 0.0
O34 O 0.38757 0.326 0.54787 0.0
C35 C 0.43308 0.37847 0.51595 0.0
C36 C 0.36641 0.42779 0.51186 0.0
C37 C 0.37128 0.3276 0.53317 0.0
O38 O 0.40985 0.38606 0.51092 0.0
O39 O 0.43851 0.36705 0.53286 0.0
O40 O 0.34855 0.39152 0.54808 0.0
O41 O 0.39044 0.38446 0.5537 0.0
Co42 Co 0.86938 0.12503 0.78134 0.0
O43 O 0.83186 0.12934 0.78332 0.0
O44 O 0.85177 0.10661 0.75902 0.0
C45 C 0.87342 0.11677 0.81511 0.0
O46 O 0.90832 0.1159 0.77507 0.0
Co47 Co 0.90791 0.16012 0.80619 0.0
O48 O 0.93272 0.13094 0.80122 0.0
C49 C 0.8826 0.18049 0.7683 0.0
C50 C 0.82985 0.11497 0.76707 0.0
C51 C 0.93022 0.11708 0.78515 0.0
O52 O 0.87178 0.15816 0.76441 0.0
O53 O 0.89639 0.18515 0.78428 0.0
O54 O 0.86751 0.09773 0.80263 0.0
O55 O 0.87611 0.13961 0.8069 0.0
Co56 Co 0.12673 0.37917 0.96408 0.0
O57 O 0.11877 0.41594 0.96074 0.0
O58 O 0.14585 0.40045 0.98421 0.0
C59 C 0.13249 0.37254 0.93027 0.0
O60 O 0.1403 0.34148 0.97072 0.0
Co61 Co 0.09022 0.33756 0.94309 0.0
O62 O 0.11911 0.31326 0.94964 0.0
C63 C 0.07338 0.36412 0.98122 0.0
C64 C 0.13482 0.4208 0.97558 0.0
C65 C 0.13673 0.31826 0.96288 0.0
O66 O 0.09588 0.37536 0.98341 0.0
O67 O 0.0671 0.34999 0.96578 0.0
O68 O 0.15166 0.38173 0.94128 0.0
O69 O 0.11049 0.36928 0.93965 0.0
Co70 Co 0.8681 0.88273 0.21685 0.0
O71 O 0.83051 0.87888 0.21487 0.0
O72 O 0.85055 0.90293 0.23829 0.0
C73 C 0.87334 0.8888 0.18296 0.0
O74 O 0.90733 0.89171 0.22269 0.0
Co75 Co 0.90511 0.84359 0.19388 0.0
O76 O 0.93188 0.87095 0.19891 0.0
C77 C 0.87802 0.82741 0.23207 0.0
C78 C 0.82856 0.89426 0.23056 0.0
C79 C 0.92946 0.88758 0.21333 0.0
O80 O 0.86955 0.85088 0.2353 0.0
O81 O 0.89087 0.82053 0.21611 0.0
O82 O 0.86696 0.90862 0.19451 0.0
O83 O 0.87494 0.86634 0.19195 0.0
Co84 Co 0.37546 0.61939 0.4666 0.0
O85 O 0.37978 0.58177 0.46411 0.0
O86 O 0.35785 0.60112 0.48905 0.0
C87 C 0.36598 0.62426 0.43307 0.0
O88 O 0.3664 0.65834 0.47349 0.0
Co89 Co 0.40976 0.65851 0.44168 0.0
O90 O 0.38082 0.68332 0.44743 0.0
C91 C 0.43133 0.63231 0.47875 0.0
C92 C 0.36599 0.57933 0.48061 0.0
C93 C 0.3673 0.68048 0.46363 0.0
O94 O 0.40909 0.6215 0.48291 0.0
O95 O 0.43556 0.64644 0.46287 0.0
O96 O 0.3475 0.61789 0.4459 0.0
O97 O 0.38913 0.62674 0.44077 0.0
Co98 Co 0.64031 0.1282 0.72105 0.0
O99 O 0.67783 0.13271 0.72048 0.0
O100 O 0.65682 0.10826 0.74315 0.0
C101 C 0.63804 0.12175 0.68691 0.0
O102 O 0.60108 0.11809 0.72513 0.0
Co103 Co 0.60464 0.16664 0.69646 0.0
O104 O 0.5772 0.14013 0.70159 0.0
C105 C 0.62919 0.18371 0.73531 0.0
C106 C 0.67909 0.11714 0.73607 0.0
C107 C 0.57926 0.12283 0.71556 0.0
O108 O 0.63718 0.16023 0.73925 0.0
O109 O 0.61764 0.19027 0.71869 0.0
O110 O 0.6433 0.10217 0.69905 0.0
O111 O 0.6353 0.14428 0.69569 0.0
Co112 Co 0.88119 0.39931 0.96166 0.0
O113 O 0.88816 0.43576 0.95582 0.0
O114 O 0.86284 0.42229 0.98112 0.0
C115 C 0.87384 0.38953 0.92855 0.0
O116 O 0.86934 0.36207 0.97133 0.0
Co117 Co 0.91582 0.35542 0.9419 0.0
O118 O 0.8851 0.33318 0.94826 0.0
C119 C 0.93511 0.38543 0.97799 0.0
C120 C 0.87296 0.44191 0.97091 0.0
C121 C 0.87022 0.33871 0.96327 0.0
O122 O 0.91324 0.39792 0.97989 0.0
O123 O 0.94 0.36906 0.96359 0.0
O124 O 0.85494 0.39918 0.93962 0.0
O125 O 0.89627 0.38727 0.93743 0.0
Co126 Co 0.36873 0.12506 0.71823 0.0
O127 O 0.33108 0.12782 0.71626 0.0
O128 O 0.35203 0.11078 0.74273 0.0
C129 C 0.37292 0.11029 0.68601 0.0
O130 O 0.40806 0.11837 0.7249 0.0
Co131 Co 0.40527 0.15652 0.68896 0.0
O132 O 0.43162 0.13002 0.69723 0.0
C133 C 0.38005 0.18287 0.72451 0.0
C134 C 0.32974 0.11691 0.73409 0.0
C135 C 0.42978 0.11875 0.71454 0.0
O136 O 0.37032 0.1611 0.73108 0.0
O137 O 0.39319 0.18506 0.70789 0.0
O138 O 0.36766 0.09374 0.70061 0.0
O139 O 0.37448 0.13466 0.6911 0.0
Co140 Co 0.62816 0.62846 0.46849 0.0
O141 O 0.62071 0.59125 0.46729 0.0
O142 O 0.64548 0.60974 0.49096 0.0
C143 C 0.63685 0.63158 0.43481 0.0
O144 O 0.64087 0.66701 0.47329 0.0
Co145 Co 0.59323 0.66709 0.44263 0.0
O146 O 0.62025 0.69306 0.45023 0.0
C147 C 0.57319 0.64458 0.48138 0.0
C148 C 0.63536 0.58832 0.48327 0.0
C149 C 0.63709 0.68956 0.46436 0.0
O150 O 0.59561 0.63426 0.48578 0.0
O151 O 0.56817 0.65642 0.46457 0.0
O152 O 0.65512 0.62366 0.44724 0.0
O153 O 0.61411 0.63552 0.44281 0.0
Co154 Co 0.13783 0.88069 0.21187 0.0
O155 O 0.17498 0.8736 0.21225 0.0
O156 O 0.15483 0.89865 0.2349 0.0
C157 C 0.1385 0.88862 0.17787 0.0
O158 O 0.099 0.89292 0.21511 0.0
Co159 Co 0.10119 0.84658 0.18449 0.0
O160 O 0.07608 0.87556 0.18884 0.0
C161 C 0.11952 0.82648 0.2247 0.0
C162 C 0.17678 0.88867 0.22806 0.0
C163 C 0.07787 0.89099 0.2041 0.0
O164 O 0.13103 0.84833 0.22909 0.0
O165 O 0.10812 0.82183 0.20763 0.0
O166 O 0.14379 0.90743 0.19069 0.0
O167 O 0.13358 0.86603 0.18591 0.0
Co168 Co 0.87806 0.62911 0.02733 0.0
O169 O 0.88506 0.59211 0.03004 0.0
O170 O 0.85951 0.60893 0.00612 0.0
C171 C 0.87041 0.63387 0.06117 0.0
O172 O 0.8657 0.66742 0.02138 0.0
Co173 Co 0.91415 0.66852 0.05069 0.0
O174 O 0.88599 0.69376 0.04435 0.0
C175 C 0.93256 0.64382 0.01227 0.0
C176 C 0.86958 0.58807 0.01474 0.0
C177 C 0.86911 0.69001 0.03029 0.0
O178 O 0.91003 0.63302 0.00915 0.0
O179 O 0.93827 0.65715 0.02827 0.0
O180 O 0.85172 0.62626 0.049 0.0
O181 O 0.89307 0.6371 0.0527 0.0
Co182 Co 0.13934 0.13068 0.7804 0.0
O183 O 0.17673 0.13663 0.7816 0.0
O184 O 0.15734 0.10995 0.75958 0.0
C185 C 0.13484 0.12633 0.81449 0.0
O186 O 0.10076 0.11868 0.77578 0.0
Co187 Co 0.10099 0.16977 0.80213 0.0
O188 O 0.07496 0.14173 0.79748 0.0
C189 C 0.12665 0.18465 0.76322 0.0
C190 C 0.17904 0.12014 0.76663 0.0
C191 C 0.07836 0.12334 0.78455 0.0
O192 O 0.13581 0.16125 0.76073 0.0
O193 O 0.11399 0.19205 0.77911 0.0
O194 O 0.14234 0.10633 0.80355 0.0
O195 O 0.13205 0.14822 0.80482 0.0
Co196 Co 0.63005 0.39543 0.5272 0.0
O197 O 0.62189 0.43249 0.52804 0.0
O198 O 0.64636 0.41401 0.50419 0.0
C199 C 0.63983 0.39362 0.56091 0.0
O200 O 0.64332 0.35712 0.52263 0.0
Co201 Co 0.59735 0.35659 0.55435 0.0
O202 O 0.62622 0.33208 0.54794 0.0
C203 C 0.57558 0.37649 0.51522 0.0
C204 C 0.63609 0.4354 0.51183 0.0
C205 C 0.64159 0.3352 0.53277 0.0
O206 O 0.59716 0.38836 0.51059 0.0
O207 O 0.57162 0.36451 0.53215 0.0
O208 O 0.65755 0.40121 0.54786 0.0
O209 O 0.61697 0.38891 0.55333 0.0
Co210 Co 0.36755 0.87955 0.2738 0.0
O211 O 0.33034 0.87265 0.27393 0.0
O212 O 0.35017 0.89776 0.25111 0.0
C213 C 0.36884 0.88762 0.30775 0.0
O214 O 0.40633 0.89162 0.27026 0.0
Co215 Co 0.40411 0.84369 0.30036 0.0
O216 O 0.43 0.87178 0.29515 0.0
C217 C 0.38418 0.82489 0.26036 0.0
C218 C 0.32831 0.88786 0.2582 0.0
C219 C 0.42787 0.88828 0.28059 0.0
O220 O 0.3738 0.84736 0.25618 0.0
O221 O 0.39527 0.81936 0.27738 0.0
O222 O 0.36229 0.90622 0.29511 0.0
O223 O 0.37282 0.86489 0.29962 0.0
Co224 Co 0.63229 0.12719 0.53373 0.0
O225 O 0.62684 0.09046 0.53959 0.0
O226 O 0.64982 0.10494 0.51333 0.0
C227 C 0.64163 0.13697 0.56651 0.0
O228 O 0.64241 0.16485 0.52382 0.0
Co229 Co 0.59762 0.16976 0.55494 0.0
O230 O 0.62706 0.19311 0.54752 0.0
C231 C 0.57659 0.13857 0.52017 0.0
C232 C 0.64093 0.08492 0.52374 0.0
C233 C 0.64131 0.1881 0.53204 0.0
O234 O 0.59897 0.12753 0.517 0.0
O235 O 0.57208 0.15465 0.53483 0.0
O236 O 0.65999 0.12797 0.55459 0.0
O237 O 0.61852 0.13855 0.55864 0.0
Co238 Co 0.14024 0.37786 0.77516 0.0
O239 O 0.1773 0.37009 0.77522 0.0
O240 O 0.15809 0.39623 0.7528 0.0
C241 C 0.13908 0.38489 0.8093 0.0
O242 O 0.10185 0.3911 0.77155 0.0
Co243 Co 0.10208 0.34287 0.80095 0.0
O244 O 0.07735 0.37211 0.79631 0.0
C245 C 0.12188 0.32418 0.76082 0.0
C246 C 0.1797 0.38562 0.75969 0.0
C247 C 0.08016 0.3886 0.78183 0.0
O248 O 0.13337 0.34624 0.75707 0.0
O249 O 0.11011 0.31884 0.77761 0.0
O250 O 0.14607 0.40374 0.797 0.0
O251 O 0.13437 0.36259 0.80071 0.0
Co252 Co 0.87726 0.89886 0.02859 0.0
O253 O 0.88327 0.93624 0.03088 0.0
O254 O 0.86188 0.91754 0.00536 0.0
C255 C 0.86577 0.89522 0.06186 0.0
O256 O 0.86687 0.86026 0.02171 0.0
Co257 Co 0.90772 0.85845 0.05542 0.0
O258 O 0.87807 0.83498 0.04854 0.0
C259 C 0.93281 0.8824 0.01866 0.0
C260 C 0.87054 0.93905 0.01391 0.0
C261 C 0.86611 0.83817 0.03165 0.0
O262 O 0.91165 0.89462 0.01354 0.0
O263 O 0.93514 0.86843 0.03486 0.0
O264 O 0.84825 0.90216 0.0484 0.0
O265 O 0.88906 0.89135 0.05486 0.0
Co266 Co 0.37339 0.63113 0.27798 0.0
O267 O 0.33603 0.63739 0.27969 0.0
O268 O 0.35459 0.61033 0.25756 0.0
C269 C 0.37852 0.62729 0.31207 0.0
O270 O 0.41189 0.61879 0.27288 0.0
Co271 Co 0.41256 0.67021 0.29877 0.0
O272 O 0.4388 0.64273 0.29316 0.0
C273 C 0.38539 0.685 0.26048 0.0
C274 C 0.33315 0.62082 0.26485 0.0
C275 C 0.4348 0.62395 0.28068 0.0
O276 O 0.37656 0.66146 0.25807 0.0
O277 O 0.39836 0.69251 0.27619 0.0
O278 O 0.37072 0.60716 0.30141 0.0
O279 O 0.38136 0.64898 0.30213 0.0
Co280 Co 0.6327 0.89942 0.46424 0.0
O281 O 0.62869 0.93669 0.4602 0.0
O282 O 0.6508 0.9193 0.48585 0.0
C283 C 0.64196 0.89328 0.43077 0.0
O284 O 0.64126 0.86069 0.47237 0.0
Co285 Co 0.59788 0.85984 0.44062 0.0
O286 O 0.62635 0.83479 0.44703 0.0
C287 C 0.57689 0.8879 0.47708 0.0
C288 C 0.6428 0.94041 0.47633 0.0
C289 C 0.63996 0.83811 0.46312 0.0
O290 O 0.59924 0.89873 0.48076 0.0
O291 O 0.57239 0.87304 0.46165 0.0
O292 O 0.66061 0.89923 0.44354 0.0
O293 O 0.61877 0.89133 0.43853 0.0
Co294 Co 0.37147 0.38365 0.71378 0.0
O295 O 0.33419 0.37732 0.71179 0.0
O296 O 0.35318 0.39746 0.73779 0.0
C297 C 0.37441 0.3975 0.68121 0.0
O298 O 0.41003 0.39403 0.72036 0.0
Co299 Co 0.41108 0.35501 0.68509 0.0
O300 O 0.43441 0.38451 0.69267 0.0
C301 C 0.39037 0.32834 0.72235 0.0
C302 C 0.33159 0.38914 0.72917 0.0
C303 C 0.43173 0.39547 0.71002 0.0
O304 O 0.37678 0.34857 0.72766 0.0
O305 O 0.4041 0.32702 0.70597 0.0
O306 O 0.36753 0.41399 0.69541 0.0
O307 O 0.37825 0.37358 0.68686 0.0
Co308 Co 0.88153 0.1314 0.96973 0.0
O309 O 0.88921 0.09423 0.96898 0.0
O310 O 0.8626 0.11284 0.99139 0.0
C311 C 0.87562 0.13421 0.93564 0.0
O312 O 0.8681 0.16973 0.97402 0.0
Co313 Co 0.91742 0.17085 0.94568 0.0
O314 O 0.88874 0.19587 0.9511 0.0
C315 C 0.93522 0.14806 0.98504 0.0
C316 C 0.87338 0.09142 0.9843 0.0
C317 C 0.87142 0.19215 0.96483 0.0
O318 O 0.91273 0.13726 0.9884 0.0
O319 O 0.94107 0.16044 0.96862 0.0
O320 O 0.85641 0.12633 0.94722 0.0
O321 O 0.8976 0.13858 0.94474 0.0
Co322 Co 0.14127 0.62642 0.22046 0.0
O323 O 0.17878 0.63094 0.21801 0.0
O324 O 0.15938 0.61097 0.24392 0.0
C325 C 0.13681 0.61409 0.18747 0.0
O326 O 0.10239 0.61752 0.22747 0.0
Co327 Co 0.10216 0.65819 0.19356 0.0
O328 O 0.07794 0.62906 0.2003 0.0
C329 C 0.12747 0.68308 0.22973 0.0
C330 C 0.18114 0.61865 0.23522 0.0
C331 C 0.08055 0.61708 0.21725 0.0
O332 O 0.13859 0.66137 0.23499 0.0
O333 O 0.11343 0.68579 0.21361 0.0
O334 O 0.14328 0.59674 0.20121 0.0
O335 O 0.13407 0.63782 0.19398 0.0
Co336 Co 0.38434 0.88816 0.46243 0.0
O337 O 0.39388 0.92446 0.45848 0.0
O338 O 0.366 0.91107 0.48206 0.0
C339 C 0.37818 0.88085 0.42877 0.0
O340 O 0.36936 0.85108 0.46955 0.0
Co341 Co 0.41943 0.84486 0.44179 0.0
O342 O 0.38964 0.82187 0.44868 0.0
C343 C 0.43699 0.87119 0.47985 0.0
C344 C 0.37788 0.93066 0.47302 0.0
C345 C 0.3722 0.82762 0.4619 0.0
O346 O 0.41503 0.88354 0.48182 0.0
O347 O 0.44273 0.85656 0.46456 0.0
O348 O 0.35946 0.89112 0.43965 0.0
O349 O 0.40009 0.87706 0.43815 0.0
Co350 Co 0.87391 0.63887 0.2161 0.0
O351 O 0.83789 0.64928 0.21218 0.0
O352 O 0.85036 0.61941 0.23457 0.0
C353 C 0.88159 0.63513 0.18225 0.0
O354 O 0.91044 0.62266 0.22303 0.0
Co355 Co 0.91836 0.67428 0.19754 0.0
O356 O 0.94058 0.64359 0.20342 0.0
C357 C 0.89182 0.68966 0.23613 0.0
C358 C 0.83116 0.6322 0.22583 0.0
C359 C 0.93411 0.62546 0.21586 0.0
O360 O 0.87867 0.66802 0.2369 0.0
O361 O 0.907 0.69604 0.22133 0.0
O362 O 0.87096 0.61577 0.19224 0.0
O363 O 0.88571 0.65626 0.19263 0.0
Co364 Co 0.13047 0.11021 0.9688 0.0
O365 O 0.12505 0.07282 0.96606 0.0
O366 O 0.14704 0.09122 0.99139 0.0
C367 C 0.14106 0.11518 0.9355 0.0
O368 O 0.1404 0.14888 0.9758 0.0
Co369 Co 0.09744 0.15001 0.94338 0.0
O370 O 0.12709 0.17389 0.94938 0.0
C371 C 0.07489 0.1251 0.98062 0.0
C372 C 0.13846 0.06978 0.98267 0.0
C373 C 0.14021 0.17092 0.96577 0.0
O374 O 0.09663 0.11334 0.98477 0.0
O375 O 0.07123 0.13933 0.96471 0.0
O376 O 0.15894 0.10805 0.94859 0.0
O377 O 0.11772 0.11804 0.94277 0.0
Co378 Co 0.63952 0.37519 0.71611 0.0
O379 O 0.67641 0.36651 0.71513 0.0
O380 O 0.65889 0.39441 0.73715 0.0
C381 C 0.63591 0.38032 0.68196 0.0
O382 O 0.60176 0.38973 0.72046 0.0
Co383 Co 0.59906 0.3391 0.69326 0.0
O384 O 0.57487 0.36864 0.69833 0.0
C385 C 0.6209 0.32285 0.73332 0.0
C386 C 0.67988 0.38285 0.73004 0.0
C387 C 0.57919 0.38648 0.71157 0.0
O388 O 0.63298 0.34493 0.73566 0.0
O389 O 0.60809 0.31654 0.71722 0.0
O390 O 0.64469 0.39955 0.69312 0.0
O391 O 0.63145 0.35858 0.69145 0.0
Co392 Co 0.37859 0.11708 0.53275 0.0
O393 O 0.38526 0.07995 0.53528 0.0
O394 O 0.36299 0.09744 0.50978 0.0
C395 C 0.36707 0.1194 0.56608 0.0
O396 O 0.36781 0.15569 0.526 0.0
Co397 Co 0.40817 0.15726 0.55988 0.0
O398 O 0.37835 0.18057 0.55318 0.0
C399 C 0.43289 0.1361 0.52187 0.0
C400 C 0.3719 0.07631 0.51878 0.0
C401 C 0.36688 0.1777 0.53607 0.0
O402 O 0.41258 0.12216 0.51738 0.0
O403 O 0.43493 0.15015 0.53806 0.0
O404 O 0.34962 0.11339 0.55235 0.0
O405 O 0.39042 0.1239 0.55933 0.0
Co406 Co 0.6427 0.62966 0.28047 0.0
O407 O 0.67952 0.63738 0.28359 0.0
O408 O 0.66339 0.61345 0.25841 0.0
C409 C 0.63899 0.61987 0.31406 0.0
O410 O 0.6047 0.61755 0.2733 0.0
Co411 Co 0.60047 0.65955 0.30583 0.0
O412 O 0.57932 0.62777 0.30024 0.0
C413 C 0.62299 0.68322 0.26785 0.0
C414 C 0.68396 0.62331 0.26754 0.0
C415 C 0.58274 0.61592 0.28333 0.0
O416 O 0.6374 0.66294 0.26411 0.0
O417 O 0.60824 0.68557 0.28362 0.0
O418 O 0.64646 0.60185 0.3012 0.0
O419 O 0.63418 0.6426 0.30626 0.0
Co420 Co 0.13246 0.87681 0.02604 0.0
O421 O 0.12699 0.91422 0.02838 0.0
O422 O 0.14625 0.89519 0.00201 0.0
C423 C 0.14689 0.8732 0.0584 0.0
O424 O 0.14186 0.83796 0.01919 0.0
Co425 Co 0.10311 0.83773 0.05469 0.0
O426 O 0.13195 0.81374 0.04692 0.0
C427 C 0.07631 0.85997 0.01811 0.0
C428 C 0.13858 0.91685 0.01093 0.0
C429 C 0.14292 0.8162 0.02955 0.0
O430 O 0.09702 0.87262 0.01254 0.0
O431 O 0.07478 0.84615 0.03445 0.0
O432 O 0.16318 0.87998 0.04404 0.0
O433 O 0.1228 0.86997 0.05303 0.0
Co434 Co 0.87202 0.37847 0.77407 0.0
O435 O 0.83491 0.3711 0.77525 0.0
O436 O 0.85394 0.39322 0.75025 0.0
C437 C 0.87311 0.3904 0.80733 0.0
O438 O 0.91053 0.39017 0.76854 0.0
Co439 Co 0.91159 0.34956 0.80253 0.0
O440 O 0.93402 0.38035 0.79661 0.0
C441 C 0.89209 0.32392 0.76441 0.0
C442 C 0.83239 0.38397 0.75833 0.0
C443 C 0.93176 0.39187 0.77944 0.0
O444 O 0.87853 0.34424 0.75922 0.0
O445 O 0.90531 0.32219 0.78103 0.0
O446 O 0.86656 0.40753 0.79347 0.0
O447 O 0.87822 0.36711 0.80071 0.0
H448 H 0.11485 0.6446 0.15863 0.0
H449 H 0.15714 0.57175 0.16667 0.0
H450 H 0.1604 0.56669 0.12943 0.0
H451 H 0.15184 0.58385 0.09451 0.0
H452 H 0.10756 0.65563 0.08733 0.0
H453 H 0.10502 0.66071 0.12442 0.0
C454 C 0.12462 0.62748 0.15227 0.0
C455 C 0.13578 0.60858 0.16533 0.0
C456 C 0.1265 0.62486 0.13103 0.0
C457 C 0.14822 0.58644 0.15688 0.0
C458 C 0.15031 0.58371 0.13562 0.0
C459 C 0.14204 0.60076 0.10118 0.0
C460 C 0.13031 0.61964 0.08838 0.0
C461 C 0.13982 0.603 0.12254 0.0
C462 C 0.11696 0.64109 0.097 0.0
C463 C 0.11535 0.64388 0.11815 0.0
H464 H 0.60442 0.90297 0.40277 0.0
H465 H 0.68735 0.88685 0.40871 0.0
H466 H 0.69238 0.88956 0.37144 0.0
H467 H 0.67243 0.89442 0.33713 0.0
H468 H 0.58976 0.91132 0.33169 0.0
H469 H 0.5853 0.91099 0.36903 0.0
C470 C 0.62361 0.89993 0.39593 0.0
C471 C 0.64545 0.89425 0.40839 0.0
C472 C 0.62637 0.90211 0.37469 0.0
C473 C 0.67026 0.89096 0.39936 0.0
C474 C 0.67312 0.89263 0.37811 0.0
C475 C 0.65366 0.89875 0.34426 0.0
C476 C 0.63151 0.90344 0.33197 0.0
C477 C 0.65128 0.89807 0.36564 0.0
C478 C 0.60707 0.9083 0.34106 0.0
C479 C 0.60452 0.90778 0.36231 0.0
H480 H 0.33533 0.39099 0.65436 0.0
H481 H 0.41599 0.41581 0.6597 0.0
H482 H 0.42081 0.41459 0.62241 0.0
H483 H 0.40309 0.40257 0.58884 0.0
H484 H 0.32216 0.3783 0.58311 0.0
H485 H 0.31625 0.38298 0.62018 0.0
C486 C 0.35363 0.39696 0.6472 0.0
C487 C 0.37517 0.40399 0.65946 0.0
C488 C 0.3563 0.39564 0.62588 0.0
C489 C 0.39909 0.41095 0.65035 0.0
C490 C 0.40189 0.4099 0.62912 0.0
C491 C 0.38417 0.39825 0.59572 0.0
C492 C 0.36319 0.38959 0.58343 0.0
C493 C 0.38085 0.40153 0.61683 0.0
C494 C 0.33861 0.3847 0.59239 0.0
C495 C 0.33524 0.38748 0.61351 0.0
H496 H 0.8557 0.09763 0.90966 0.0
H497 H 0.89378 0.17341 0.91191 0.0
H498 H 0.89758 0.17387 0.87472 0.0
H499 H 0.89125 0.15246 0.84193 0.0
H500 H 0.85485 0.07587 0.83866 0.0
H501 H 0.84992 0.07548 0.87603 0.0
C502 C 0.86431 0.11439 0.90186 0.0
C503 C 0.874 0.13573 0.91329 0.0
C504 C 0.86733 0.11403 0.88047 0.0
C505 C 0.8859 0.15701 0.90328 0.0
C506 C 0.88827 0.15716 0.88208 0.0
C507 C 0.88236 0.13555 0.84935 0.0
C508 C 0.87343 0.11421 0.83759 0.0
C509 C 0.87938 0.13566 0.87059 0.0
C510 C 0.8621 0.09242 0.84744 0.0
C511 C 0.85903 0.09234 0.86875 0.0
H512 H 0.15598 0.40574 0.90359 0.0
H513 H 0.11094 0.33401 0.90727 0.0
H514 H 0.10863 0.33181 0.86996 0.0
H515 H 0.11835 0.35088 0.83652 0.0
H516 H 0.16081 0.42422 0.8324 0.0
H517 H 0.16475 0.42562 0.86973 0.0
C518 C 0.14609 0.38944 0.89612 0.0
C519 C 0.13405 0.36978 0.90796 0.0
C520 C 0.14394 0.38893 0.8747 0.0
C521 C 0.12058 0.34914 0.89832 0.0
C522 C 0.11911 0.348 0.87705 0.0
C523 C 0.12837 0.36726 0.84378 0.0
C524 C 0.13929 0.38742 0.83176 0.0
C525 C 0.13045 0.36793 0.86512 0.0
C526 C 0.15208 0.40857 0.84137 0.0
C527 C 0.15452 0.40926 0.86268 0.0
H528 H 0.89702 0.87314 0.08998 0.0
H529 H 0.82492 0.91705 0.08372 0.0
H530 H 0.82199 0.92118 0.12111 0.0
H531 H 0.84084 0.91265 0.15565 0.0
H532 H 0.91204 0.86704 0.16066 0.0
H533 H 0.91496 0.86392 0.12355 0.0
C534 C 0.88052 0.88349 0.09674 0.0
C535 C 0.86121 0.89479 0.08414 0.0
C536 C 0.87921 0.88598 0.11799 0.0
C537 C 0.83989 0.90798 0.09315 0.0
C538 C 0.8384 0.91058 0.11448 0.0
C539 C 0.8572 0.90253 0.14848 0.0
C540 C 0.87656 0.89058 0.16071 0.0
C541 C 0.85817 0.89993 0.12705 0.0
C542 C 0.89722 0.87672 0.15146 0.0
C543 C 0.89875 0.87473 0.13028 0.0
H544 H 0.39891 0.64554 0.40552 0.0
H545 H 0.32569 0.60318 0.41046 0.0
H546 H 0.32412 0.59841 0.37314 0.0
H547 H 0.3445 0.60548 0.33911 0.0
H548 H 0.4165 0.64993 0.3348 0.0
H549 H 0.41808 0.65413 0.37201 0.0
C550 C 0.38246 0.63545 0.39844 0.0
C551 C 0.36246 0.62469 0.41068 0.0
C552 C 0.38183 0.63269 0.37716 0.0
C553 C 0.3412 0.61182 0.40131 0.0
C554 C 0.34046 0.60885 0.38002 0.0
C555 C 0.3607 0.61568 0.34645 0.0
C556 C 0.38069 0.62693 0.33445 0.0
C557 C 0.36089 0.61888 0.36781 0.0
C558 C 0.40116 0.64085 0.34388 0.0
C559 C 0.40195 0.64341 0.36509 0.0
H560 H 0.62835 0.16037 0.65964 0.0
H561 H 0.65248 0.0791 0.66385 0.0
H562 H 0.65925 0.07776 0.62678 0.0
H563 H 0.65724 0.09964 0.59303 0.0
H564 H 0.63045 0.17992 0.58913 0.0
H565 H 0.62659 0.1821 0.62638 0.0
C566 C 0.63499 0.1423 0.65247 0.0
C567 C 0.63982 0.11983 0.66444 0.0
C568 C 0.63892 0.14174 0.63128 0.0
C569 C 0.64842 0.09659 0.65492 0.0
C570 C 0.65251 0.09589 0.63377 0.0
C571 C 0.65129 0.11776 0.6005 0.0
C572 C 0.64482 0.13986 0.58862 0.0
C573 C 0.64792 0.11839 0.62181 0.0
C574 C 0.63609 0.16296 0.59816 0.0
C575 C 0.63359 0.16407 0.61937 0.0
H576 H 0.88962 0.35806 0.83712 0.0
H577 H 0.85281 0.43353 0.82732 0.0
H578 H 0.84692 0.43871 0.86438 0.0
H579 H 0.85287 0.42155 0.89967 0.0
H580 H 0.89175 0.34698 0.90841 0.0
H581 H 0.89544 0.34118 0.87151 0.0
C582 C 0.88038 0.37575 0.84303 0.0
C583 C 0.87172 0.39543 0.82953 0.0
C584 C 0.87693 0.37841 0.86412 0.0
C585 C 0.85986 0.41821 0.83746 0.0
C586 C 0.85627 0.42104 0.8586 0.0
C587 C 0.86155 0.40381 0.89336 0.0
C588 C 0.87154 0.3844 0.90657 0.0
C589 C 0.8646 0.40116 0.87208 0.0
C590 C 0.88356 0.36189 0.89844 0.0
C591 C 0.88591 0.35871 0.87739 0.0
H592 H 0.33383 0.11466 0.65888 0.0
H593 H 0.41523 0.09273 0.66502 0.0
H594 H 0.42035 0.09328 0.62774 0.0
H595 H 0.40271 0.10442 0.59401 0.0
H596 H 0.32111 0.12581 0.58737 0.0
H597 H 0.31479 0.12117 0.62444 0.0
C598 C 0.35239 0.10913 0.6519 0.0
C599 C 0.37405 0.10314 0.66439 0.0
C600 C 0.3552 0.11006 0.63057 0.0
C601 C 0.39825 0.09673 0.65551 0.0
C602 C 0.40121 0.09743 0.63429 0.0
C603 C 0.38352 0.10807 0.60068 0.0
C604 C 0.36248 0.11602 0.58816 0.0
C605 C 0.38004 0.10486 0.62177 0.0
C606 C 0.33759 0.11999 0.59683 0.0
C607 C 0.33401 0.11726 0.61795 0.0
H608 H 0.65249 0.59392 0.40816 0.0
H609 H 0.62743 0.67479 0.41232 0.0
H610 H 0.62543 0.67786 0.37513 0.0
H611 H 0.62835 0.65711 0.3419 0.0
H612 H 0.65208 0.57585 0.33652 0.0
H613 H 0.6564 0.57299 0.37388 0.0
C614 C 0.64722 0.6123 0.40078 0.0
C615 C 0.64055 0.6343 0.41274 0.0
C616 C 0.64518 0.61357 0.37935 0.0
C617 C 0.63295 0.65782 0.40327 0.0
C618 C 0.63158 0.65948 0.38207 0.0
C619 C 0.63438 0.63866 0.34881 0.0
C620 C 0.63973 0.61665 0.33648 0.0
C621 C 0.63712 0.63735 0.37003 0.0
C622 C 0.64764 0.59299 0.34574 0.0
C623 C 0.6503 0.59144 0.36705 0.0
H624 H 0.14898 0.8495 0.1515 0.0
H625 H 0.13713 0.93349 0.15458 0.0
H626 H 0.14267 0.93665 0.11735 0.0
H627 H 0.14734 0.91461 0.08377 0.0
H628 H 0.15888 0.83067 0.08131 0.0
H629 H 0.15771 0.82831 0.11869 0.0
C630 C 0.14759 0.86853 0.14403 0.0
C631 C 0.14214 0.8912 0.15562 0.0
C632 C 0.15116 0.87015 0.12286 0.0
C633 C 0.14101 0.91577 0.14587 0.0
C634 C 0.14427 0.91756 0.12465 0.0
C635 C 0.15049 0.89601 0.09157 0.0
C636 C 0.15371 0.87287 0.08009 0.0
C637 C 0.14904 0.89481 0.11298 0.0
C638 C 0.15693 0.84869 0.09003 0.0
C639 C 0.15593 0.84735 0.11132 0.0
H640 H 0.90462 0.65335 0.08895 0.0
H641 H 0.8301 0.61333 0.08359 0.0
H642 H 0.82814 0.60812 0.12072 0.0
H643 H 0.84799 0.61447 0.15472 0.0
H644 H 0.9209 0.65715 0.16015 0.0
H645 H 0.92351 0.66132 0.1229 0.0
C646 C 0.88785 0.64367 0.09594 0.0
C647 C 0.86756 0.6337 0.08359 0.0
C648 C 0.88685 0.64081 0.11724 0.0
C649 C 0.84589 0.62132 0.0928 0.0
C650 C 0.84487 0.61813 0.11401 0.0
C651 C 0.86461 0.62429 0.14764 0.0
C652 C 0.88451 0.63506 0.15994 0.0
C653 C 0.86538 0.62754 0.12634 0.0
C654 C 0.90557 0.64847 0.15082 0.0
C655 C 0.90696 0.65099 0.1296 0.0
H656 H 0.16656 0.10154 0.84165 0.0
H657 H 0.09722 0.14998 0.83703 0.0
H658 H 0.09382 0.15178 0.87426 0.0
H659 H 0.11054 0.13974 0.90792 0.0
H660 H 0.18135 0.09357 0.9133 0.0
H661 H 0.18474 0.09126 0.87592 0.0
C662 C 0.15057 0.11215 0.8489 0.0
C663 C 0.13184 0.1252 0.83679 0.0
C664 C 0.14935 0.11392 0.87034 0.0
C665 C 0.11162 0.13957 0.84616 0.0
C666 C 0.10978 0.14072 0.8674 0.0
C667 C 0.12686 0.12934 0.90093 0.0
C668 C 0.14563 0.11677 0.91328 0.0
C669 C 0.1286 0.12811 0.8796 0.0
C670 C 0.16677 0.10356 0.90405 0.0
C671 C 0.16855 0.10202 0.88271 0.0
H672 H 0.60906 0.36979 0.58875 0.0
H673 H 0.68017 0.41545 0.58295 0.0
H674 H 0.68432 0.41713 0.62031 0.0
H675 H 0.6671 0.40582 0.6547 0.0
H676 H 0.59739 0.35789 0.65956 0.0
H677 H 0.59294 0.35731 0.62243 0.0
C678 C 0.62557 0.38001 0.59563 0.0
C679 C 0.64426 0.39252 0.58317 0.0
C680 C 0.6278 0.3808 0.61694 0.0
C681 C 0.66563 0.40553 0.59228 0.0
C682 C 0.66787 0.40666 0.6136 0.0
C683 C 0.6508 0.39558 0.64754 0.0
C684 C 0.63236 0.38223 0.65972 0.0
C685 C 0.64892 0.39455 0.6261 0.0
C686 C 0.61167 0.36844 0.65042 0.0
C687 C 0.6092 0.36801 0.62922 0.0
H688 H 0.38956 0.85442 0.33555 0.0
H689 H 0.34829 0.92827 0.33 0.0
H690 H 0.34536 0.93151 0.36731 0.0
H691 H 0.35469 0.91314 0.40153 0.0
H692 H 0.39869 0.84091 0.40662 0.0
H693 H 0.39994 0.83684 0.36937 0.0
C694 C 0.38002 0.8713 0.3425 0.0
C695 C 0.36914 0.89107 0.33011 0.0
C696 C 0.37857 0.87305 0.36383 0.0
C697 C 0.35697 0.91289 0.33928 0.0
C698 C 0.35512 0.91464 0.36057 0.0
C699 C 0.36414 0.89634 0.39439 0.0
C700 C 0.3762 0.87709 0.4066 0.0
C701 C 0.36569 0.89474 0.37299 0.0
C702 C 0.38908 0.85577 0.39738 0.0
C703 C 0.38992 0.85354 0.37614 0.0
H704 H 0.04589 0.65635 0.99056 0.0
H705 H 0.04579 0.57523 0.00938 0.0
H706 H 0.99843 0.57253 0.00337 0.0
H707 H 0.95701 0.59785 0.00462 0.0
H708 H 0.95785 0.68041 0.98979 0.0
H709 H 1.00455 0.67801 0.98154 0.0
C710 C 0.03567 0.63769 0.99208 0.0
C711 C 0.04896 0.61617 0.00069 0.0
C712 C 0.00827 0.63688 0.98981 0.0
C713 C 0.03581 0.59203 0.00274 0.0
C714 C 0.00861 0.59067 -0.00033 0.0
C715 C 0.96718 0.61485 -0.00159 0.0
C716 C 0.95434 0.63932 -0.00201 0.0
C717 C 0.99444 0.61361 0.99495 0.0
C718 C 0.96753 0.66141 0.99021 0.0
C719 C 0.99432 0.66009 0.98577 0.0
H720 H 0.66509 0.71412 0.26039 0.0
H721 H 0.58265 0.70487 0.24724 0.0
H722 H 0.5787 0.75186 0.24025 0.0
H723 H 0.59561 0.7957 0.24865 0.0
H724 H 0.67716 0.80561 0.26433 0.0
H725 H 0.68494 0.7585 0.25916 0.0
C726 C 0.6467 0.72227 0.25485 0.0
C727 C 0.62412 0.70638 0.25451 0.0
C728 C 0.64432 0.74959 0.25192 0.0
C729 C 0.60022 0.71695 0.2476 0.0
C730 C 0.5979 0.74386 0.24387 0.0
C731 C 0.61532 0.78765 0.24987 0.0
C732 C 0.63574 0.80371 0.25702 0.0
C733 C 0.61932 0.76052 0.24758 0.0
C734 C 0.66123 0.79341 0.25874 0.0
C735 C 0.66557 0.76643 0.25604 0.0
H736 H 0.46495 0.34521 0.49587 0.0
H737 H 0.4526 0.42718 0.50931 0.0
H738 H 0.49932 0.43619 0.50383 0.0
H739 H 0.54414 0.41763 0.50606 0.0
H740 H 0.55596 0.33497 0.49483 0.0
H741 H 0.50925 0.32934 0.48765 0.0
C742 C 0.47233 0.36525 0.49642 0.0
C743 C 0.4557 0.38547 0.50315 0.0
C744 C 0.49932 0.37 0.49397 0.0
C745 C 0.46521 0.41138 0.50404 0.0
C746 C 0.492 0.41644 0.5012 0.0
C747 C 0.53664 0.3988 0.50082 0.0
C748 C 0.55318 0.37667 0.50112 0.0
C749 C 0.50947 0.39551 0.49771 0.0
C750 C 0.54342 0.35222 0.49462 0.0
C751 C 0.51664 0.34894 0.49083 0.0
H752 H 0.85003 0.29363 0.75538 0.0
H753 H 0.93371 0.30034 0.74683 0.0
H754 H 0.93696 0.25311 0.74063 0.0
H755 H 0.91815 0.21003 0.74868 0.0
H756 H 0.83522 0.20267 0.76034 0.0
H757 H 0.82913 0.24972 0.75375 0.0
C758 C 0.86866 0.28485 0.75104 0.0
C759 C 0.89166 0.30011 0.75174 0.0
C760 C 0.87052 0.2574 0.74859 0.0
C761 C 0.91583 0.28874 0.74637 0.0
C762 C 0.91771 0.26171 0.74308 0.0
C763 C 0.89858 0.21857 0.74867 0.0
C764 C 0.87722 0.20329 0.7552 0.0
C765 C 0.89554 0.24572 0.74577 0.0
C766 C 0.8519 0.21424 0.75527 0.0
C767 C 0.84851 0.24122 0.75181 0.0
H768 H 0.96055 0.352 0.00272 0.0
H769 H 0.96032 0.43219 0.98157 0.0
H770 H 0.00762 0.43549 0.98781 0.0
H771 H 0.0492 0.41044 0.98777 0.0
H772 H 0.04875 0.32877 0.00531 0.0
H773 H 1.0019 0.33123 0.013 0.0
C774 C 0.97069 0.37062 0.00065 0.0
C775 C 0.95736 0.39166 0.99142 0.0
C776 C 0.99801 0.37181 0.00328 0.0
C777 C 0.97037 0.41576 0.98869 0.0
C778 C 0.9975 0.41747 0.99195 0.0
C779 C 0.03908 0.39373 0.99448 0.0
C780 C 0.05206 0.36938 0.99574 0.0
C781 C 0.01175 0.39492 -0.00243 0.0
C782 C 0.03894 0.34766 0.00422 0.0
C783 C 0.01207 0.34898 0.0083 0.0
H784 H 0.91033 0.80079 0.25703 0.0
H785 H 0.83011 0.80525 0.23653 0.0
H786 H 0.82405 0.75838 0.24355 0.0
H787 H 0.84665 0.71547 0.24364 0.0
H788 H 0.92815 0.71141 0.26102 0.0
H789 H 0.92848 0.75847 0.26829 0.0
C790 C 0.89112 0.79173 0.25533 0.0
C791 C 0.87081 0.80604 0.24604 0.0
C792 C 0.88825 0.76459 0.25853 0.0
C793 C 0.84597 0.79442 0.24371 0.0
C794 C 0.84265 0.76751 0.24744 0.0
C795 C 0.86391 0.72466 0.2503 0.0
C796 C 0.8875 0.71037 0.25139 0.0
C797 C 0.86434 0.75209 0.25315 0.0
C798 C 0.90985 0.72226 0.25995 0.0
C799 C 0.91015 0.74927 0.26375 0.0
H800 H 0.46052 0.66687 0.49988 0.0
H801 H 0.45453 0.58487 0.48406 0.0
H802 H 0.50163 0.57904 0.49021 0.0
H803 H 0.54501 0.60088 0.48937 0.0
H804 H 0.55047 0.68366 0.50275 0.0
H805 H 0.5033 0.68556 0.50928 0.0
C806 C 0.46937 0.64747 0.4989 0.0
C807 C 0.45445 0.6264 0.49134 0.0
C808 C 0.49654 0.64458 0.50176 0.0
C809 C 0.46582 0.60131 0.48994 0.0
C810 C 0.49282 0.59808 0.49319 0.0
C811 C 0.53602 0.61887 0.49496 0.0
C812 C 0.5509 0.64216 0.49544 0.0
C813 C 0.50861 0.62005 0.49759 0.0
C814 C 0.53923 0.66554 0.50238 0.0
C815 C 0.51219 0.66669 0.50577 0.0
H816 H 0.59569 0.21315 0.75724 0.0
H817 H 0.67746 0.20409 0.74204 0.0
H818 H 0.68468 0.25122 0.74704 0.0
H819 H 0.66391 0.29494 0.74373 0.0
H820 H 0.5812 0.30336 0.75597 0.0
H821 H 0.57817 0.25694 0.76512 0.0
C822 C 0.61537 0.22134 0.75631 0.0
C823 C 0.63593 0.20553 0.74901 0.0
C824 C 0.61899 0.2486 0.75825 0.0
C825 C 0.66139 0.21606 0.74769 0.0
C826 C 0.66539 0.24311 0.75021 0.0
C827 C 0.64568 0.28688 0.74966 0.0
C828 C 0.62272 0.3022 0.74892 0.0
C829 C 0.64384 0.25976 0.75374 0.0
C830 C 0.59906 0.29174 0.75641 0.0
C831 C 0.59726 0.26509 0.76133 0.0
H832 H 0.34824 0.29799 0.73134 0.0
H833 H 0.43194 0.30476 0.73986 0.0
H834 H 0.43496 0.25786 0.74755 0.0
H835 H 0.41583 0.21437 0.74167 0.0
H836 H 0.33289 0.20666 0.73025 0.0
H837 H 0.32713 0.25426 0.73435 0.0
C838 C 0.36683 0.28932 0.73591 0.0
C839 C 0.38989 0.30445 0.73489 0.0
C840 C 0.36856 0.26204 0.73929 0.0
C841 C 0.41402 0.29323 0.74054 0.0
C842 C 0.41577 0.26641 0.74473 0.0
C843 C 0.39635 0.22308 0.74111 0.0
C844 C 0.37486 0.20743 0.73551 0.0
C845 C 0.3935 0.25042 0.74265 0.0
C846 C 0.34964 0.21855 0.73466 0.0
C847 C 0.34645 0.24579 0.73672 0.0
H848 H 0.09217 0.7152 0.24719 0.0
H849 H 0.17502 0.70569 0.23611 0.0
H850 H 0.18169 0.75317 0.23986 0.0
H851 H 0.16134 0.79705 0.23566 0.0
H852 H 0.07785 0.80572 0.24419 0.0
H853 H 0.07398 0.75921 0.25297 0.0
C854 C 0.11184 0.72347 0.24669 0.0
C855 C 0.13302 0.70733 0.24113 0.0
C856 C 0.11526 0.75079 0.2481 0.0
C857 C 0.15848 0.71793 0.24043 0.0
C858 C 0.16221 0.74512 0.24229 0.0
C859 C 0.14264 0.78897 0.24062 0.0
C860 C 0.11986 0.80447 0.23918 0.0
C861 C 0.14041 0.76185 0.2446 0.0
C862 C 0.09559 0.79397 0.24529 0.0
C863 C 0.09333 0.7673 0.25001 0.0
H864 H 0.09343 0.21389 0.74082 0.0
H865 H 0.17529 0.20349 0.75524 0.0
H866 H 0.18355 0.25015 0.74872 0.0
H867 H 0.16393 0.29454 0.75093 0.0
H868 H 0.08122 0.30446 0.7394 0.0
H869 H 0.07683 0.25767 0.73182 0.0
C870 C 0.11333 0.22162 0.74127 0.0
C871 C 0.13364 0.20566 0.74881 0.0
C872 C 0.11757 0.24865 0.73844 0.0
C873 C 0.15938 0.21557 0.74945 0.0
C874 C 0.16399 0.24238 0.74606 0.0
C875 C 0.14538 0.28665 0.74549 0.0
C876 C 0.12284 0.3026 0.74595 0.0
C877 C 0.14278 0.25939 0.74229 0.0
C878 C 0.09877 0.29236 0.73913 0.0
C879 C 0.0962 0.26552 0.73511 0.0
H880 H 0.41685 0.71631 0.23815 0.0
H881 H 0.33585 0.70185 0.2534 0.0
H882 H 0.32547 0.74831 0.24803 0.0
H883 H 0.34323 0.79344 0.25092 0.0
H884 H 0.42506 0.80741 0.23815 0.0
H885 H 0.43131 0.76106 0.22974 0.0
C886 C 0.39666 0.72314 0.23902 0.0
C887 C 0.37723 0.70606 0.2465 0.0
C888 C 0.39119 0.75004 0.2368 0.0
C889 C 0.3511 0.7148 0.24766 0.0
C890 C 0.34527 0.74149 0.24494 0.0
C891 C 0.36196 0.78653 0.24504 0.0
C892 C 0.38376 0.80349 0.24534 0.0
C893 C 0.36564 0.75953 0.24125 0.0
C894 C 0.40807 0.79453 0.23797 0.0
C895 C 0.41172 0.76794 0.23347 0.0
H896 H 0.46609 0.09574 0.51426 0.0
H897 H 0.45168 0.17749 0.50093 0.0
H898 H 0.49796 0.18398 0.49257 0.0
H899 H 0.54289 0.16964 0.49987 0.0
H900 H 0.55806 0.08885 0.51578 0.0
H901 H 0.5114 0.07831 0.51173 0.0
C902 C 0.47295 0.11452 0.50843 0.0
C903 C 0.45586 0.13621 0.50836 0.0
C904 C 0.4999 0.11837 0.50462 0.0
C905 C 0.46473 0.16062 0.50107 0.0
C906 C 0.49122 0.16438 0.49653 0.0
C907 C 0.53608 0.14948 0.50137 0.0
C908 C 0.5535 0.13013 0.50842 0.0
C909 C 0.50918 0.14392 0.49983 0.0
C910 C 0.54481 0.10402 0.51034 0.0
C911 C 0.51807 0.0981 0.50832 0.0
H912 H 0.96008 0.84399 0.00061 0.0
H913 H 0.95987 0.92754 0.0114 0.0
H914 H 0.00758 0.92913 0.00636 0.0
H915 H 0.04935 0.90435 0.00904 0.0
H916 H 0.04856 0.82007 0.00179 0.0
H917 H 1.00151 0.821 0.99458 0.0
C918 C 0.97042 0.8627 0.00079 0.0
C919 C 0.95684 0.88554 0.00653 0.0
C920 C 0.99783 0.86312 -0.00109 0.0
C921 C 0.9701 0.90976 0.00688 0.0
C922 C 0.99742 0.91056 0.00432 0.0
C923 C 0.03899 0.88646 0.00488 0.0
C924 C 0.05206 0.86215 0.0061 0.0
C925 C 0.01163 0.88705 0.00183 0.0
C926 C 0.03865 0.83893 0.00098 0.0
C927 C 0.01175 0.83946 0.99704 0.0
H928 H 0.46288 0.91655 0.48663 0.0
H929 H 0.46025 0.83477 0.50375 0.0
H930 H 0.50729 0.83522 0.51093 0.0
H931 H 0.54939 0.8545 0.50052 0.0
H932 H 0.55259 0.93507 0.4804 0.0
H933 H 0.50539 0.93994 0.48658 0.0
C934 C 0.4724 0.89937 0.49316 0.0
C935 C 0.45846 0.87556 0.4944 0.0
C936 C 0.4998 0.89942 0.49601 0.0
C937 C 0.4708 0.85326 0.50267 0.0
C938 C 0.49778 0.85342 0.50644 0.0
C939 C 0.53991 0.87349 0.49862 0.0
C940 C 0.55404 0.89429 0.4898 0.0
C941 C 0.51268 0.8757 0.50141 0.0
C942 C 0.54189 0.91885 0.48724 0.0
C943 C 0.51484 0.92149 0.49051 0.0
H944 H 0.04915 0.16168 0.0023 0.0
H945 H 0.04826 0.07952 0.98634 0.0
H946 H 1.0011 0.07728 0.99357 0.0
H947 H 0.95957 0.10238 0.99351 0.0
H948 H 0.96097 0.18547 0.00636 0.0
H949 H 0.00825 0.18365 0.0124 0.0
C950 C 0.03879 0.14302 0.00151 0.0
C951 C 0.05177 0.12089 0.99361 0.0
C952 C 0.0116 0.14224 0.00491 0.0
C953 C 0.03847 0.09675 0.99247 0.0
C954 C 0.01145 0.09558 0.99635 0.0
C955 C 0.97006 0.11966 -0.00111 0.0
C956 C 0.95712 0.14408 -0.00073 0.0
C957 C 0.99755 0.1187 0.00104 0.0
C958 C 0.97072 0.1665 0.006 0.0
C959 C 0.99782 0.16553 0.00909 0.0
H960 H 0.13869 0.44194 0.01397 0.0
H961 H 0.1416 0.46189 0.95001 0.0
H962 H 0.14418 0.50869 0.95842 0.0
H963 H 0.14133 0.54449 0.98394 0.0
H964 H 0.13385 0.5245 0.0477 0.0
H965 H 0.13752 0.47773 0.03957 0.0
C966 C 0.14044 0.45656 0.00196 0.0
C967 C 0.14013 0.44849 0.98143 0.0
C968 C 0.14083 0.48364 0.0069 0.0
C969 C 0.14184 0.46766 0.96596 0.0
C970 C 0.14324 0.49446 0.97074 0.0
C971 C 0.14098 0.52987 0.99602 0.0
C972 C 0.13737 0.53795 0.01637 0.0
C973 C 0.14213 0.50279 0.99115 0.0
C974 C 0.13652 0.51876 0.03188 0.0
C975 C 0.1386 0.49196 0.02725 0.0
H976 H 0.78204 0.89671 0.2105 0.0
H977 H 0.81622 0.90417 0.27053 0.0
H978 H 0.77216 0.90669 0.28565 0.0
H979 H 0.724 0.90268 0.28194 0.0
H980 H 0.68979 0.8975 0.22177 0.0
H981 H 0.73379 0.89847 0.20646 0.0
C982 C 0.77982 0.89926 0.22687 0.0
C983 C 0.80234 0.89999 0.23944 0.0
C984 C 0.75445 0.90095 0.23538 0.0
C985 C 0.79922 0.90361 0.26057 0.0
C986 C 0.77403 0.90489 0.2692 0.0
C987 C 0.72619 0.90213 0.26545 0.0
C988 C 0.70369 0.89975 0.25298 0.0
C989 C 0.75152 0.90297 0.25679 0.0
C990 C 0.70677 0.89938 0.23166 0.0
C991 C 0.73194 0.89977 0.22293 0.0
H992 H 0.35978 0.47402 0.53155 0.0
H993 H 0.36179 0.44011 0.47117 0.0
H994 H 0.36053 0.48437 0.45607 0.0
H995 H 0.36287 0.53277 0.46031 0.0
H996 H 0.3585 0.56639 0.52076 0.0
H997 H 0.35646 0.52215 0.53564 0.0
C998 C 0.35954 0.47632 0.51506 0.0
C999 C 0.36109 0.45384 0.50245 0.0
C1000 C 0.35859 0.50176 0.50657 0.0
C1001 C 0.3605 0.45707 0.48116 0.0
C1002 C 0.35998 0.48239 0.47256 0.0
C1003 C 0.36116 0.53039 0.47674 0.0
C1004 C 0.36113 0.55284 0.48946 0.0
C1005 C 0.35964 0.50488 0.48514 0.0
C1006 C 0.35854 0.54948 0.51066 0.0
C1007 C 0.35751 0.52418 0.51916 0.0
H1008 H 0.78365 0.1101 0.78727 0.0
H1009 H 0.81727 0.10869 0.72676 0.0
H1010 H 0.77308 0.10731 0.7118 0.0
H1011 H 0.72503 0.11097 0.71603 0.0
H1012 H 0.69125 0.11004 0.77647 0.0
H1013 H 0.73542 0.10752 0.79148 0.0
C1014 C 0.78127 0.1091 0.7708 0.0
C1015 C 0.80364 0.1098 0.75808 0.0
C1016 C 0.75584 0.10802 0.76238 0.0
C1017 C 0.80036 0.10814 0.73682 0.0
C1018 C 0.7751 0.10751 0.7283 0.0
C1019 C 0.72736 0.10979 0.73249 0.0
C1020 C 0.705 0.11096 0.74519 0.0
C1021 C 0.75273 0.1081 0.74092 0.0
C1022 C 0.70817 0.10911 0.76644 0.0
C1023 C 0.73342 0.10785 0.77499 0.0
H1024 H 0.86906 0.56622 0.9764 0.0
H1025 H 0.85775 0.54812 0.04012 0.0
H1026 H 0.85484 0.5012 0.03226 0.0
H1027 H 0.86004 0.46464 0.00767 0.0
H1028 H 0.87507 0.48268 0.94434 0.0
H1029 H 0.87186 0.52969 0.95149 0.0
C1030 C 0.86533 0.552 0.98842 0.0
C1031 C 0.86343 0.56061 0.00876 0.0
C1032 C 0.86471 0.52479 0.98388 0.0
C1033 C 0.8592 0.54192 0.02431 0.0
C1034 C 0.85764 0.51505 0.01985 0.0
C1035 C 0.86218 0.47888 0.99543 0.0
C1036 C 0.86789 0.47011 0.97555 0.0
C1037 C 0.86106 0.50612 -0.00025 0.0
C1038 C 0.87087 0.48887 0.95985 0.0
C1039 C 0.86902 0.51584 0.9639 0.0
H1040 H 0.22577 0.12038 0.78651 0.0
H1041 H 0.1912 0.10716 0.7272 0.0
H1042 H 0.23515 0.1034 0.71207 0.0
H1043 H 0.28329 0.10757 0.71535 0.0
H1044 H 0.31799 0.11831 0.7749 0.0
H1045 H 0.27408 0.11901 0.79043 0.0
C1046 C 0.22789 0.11638 0.7703 0.0
C1047 C 0.2053 0.11435 0.75791 0.0
C1048 C 0.2532 0.11387 0.76181 0.0
C1049 C 0.20828 0.10879 0.73702 0.0
C1050 C 0.2334 0.10677 0.72837 0.0
C1051 C 0.28122 0.10971 0.73178 0.0
C1052 C 0.30381 0.11314 0.74398 0.0
C1053 C 0.25597 0.10981 0.74055 0.0
C1054 C 0.30092 0.11557 0.76523 0.0
C1055 C 0.27581 0.11614 0.77407 0.0
H1056 H 0.63988 0.48135 0.53256 0.0
H1057 H 0.64087 0.44941 0.47151 0.0
H1058 H 0.64169 0.49416 0.45731 0.0
H1059 H 0.63891 0.54238 0.46239 0.0
H1060 H 0.64118 0.57426 0.52344 0.0
H1061 H 0.64253 0.52952 0.5376 0.0
C1062 C 0.64054 0.48421 0.51613 0.0
C1063 C 0.64002 0.4621 0.50306 0.0
C1064 C 0.64149 0.50996 0.50815 0.0
C1065 C 0.64128 0.46606 0.48186 0.0
C1066 C 0.64161 0.49166 0.47376 0.0
C1067 C 0.63998 0.5395 0.4788 0.0
C1068 C 0.63967 0.5616 0.4919 0.0
C1069 C 0.64123 0.51374 0.48677 0.0
C1070 C 0.64144 0.55762 0.51308 0.0
C1071 C 0.64207 0.53203 0.52115 0.0
H1072 H 0.22271 0.89426 0.20788 0.0
H1073 H 0.18969 0.89391 0.26857 0.0
H1074 H 0.23412 0.89507 0.28326 0.0
H1075 H 0.2823 0.89212 0.27862 0.0
H1076 H 0.31525 0.89509 0.21794 0.0
H1077 H 0.27084 0.89723 0.20334 0.0
C1078 C 0.22526 0.89481 0.22434 0.0
C1079 C 0.20299 0.89373 0.23718 0.0
C1080 C 0.2508 0.89579 0.23259 0.0
C1081 C 0.2065 0.8948 0.25843 0.0
C1082 C 0.23191 0.89528 0.26679 0.0
C1083 C 0.27973 0.89357 0.26219 0.0
C1084 C 0.302 0.89314 0.24931 0.0
C1085 C 0.25418 0.89516 0.254 0.0
C1086 C 0.29846 0.89541 0.22812 0.0
C1087 C 0.27306 0.89649 0.21981 0.0
H1088 H 0.65215 0.06365 0.48611 0.0
H1089 H 0.64015 0.04305 0.54937 0.0
H1090 H 0.64302 0.99636 0.54098 0.0
H1091 H 0.64474 0.96086 0.51514 0.0
H1092 H 0.65331 0.98156 0.45161 0.0
H1093 H 0.65636 0.02813 0.46053 0.0
C1094 C 0.65061 0.04893 0.49806 0.0
C1095 C 0.64585 0.0569 0.51831 0.0
C1096 C 0.65155 0.02188 0.49305 0.0
C1097 C 0.64362 0.0375 0.53361 0.0
C1098 C 0.64527 0.01071 0.52884 0.0
C1099 C 0.64787 0.97556 0.50336 0.0
C1100 C 0.64891 0.96775 0.48277 0.0
C1101 C 0.64865 1.00257 0.50855 0.0
C1102 C 0.65245 0.98709 0.4676 0.0
C1103 C 0.65411 0.01377 0.47267 0.0
H1104 H 0.22596 0.38754 0.77997 0.0
H1105 H 0.19267 0.39465 0.71961 0.0
H1106 H 0.23702 0.39736 0.70492 0.0
H1107 H 0.28526 0.39455 0.70918 0.0
H1108 H 0.31844 0.3904 0.76975 0.0
H1109 H 0.2741 0.38992 0.78453 0.0
C1110 C 0.22844 0.38994 0.7636 0.0
C1111 C 0.20609 0.3906 0.75083 0.0
C1112 C 0.25394 0.39191 0.75536 0.0
C1113 C 0.20954 0.39411 0.72972 0.0
C1114 C 0.23489 0.39552 0.72134 0.0
C1115 C 0.28276 0.3938 0.72564 0.0
C1116 C 0.30509 0.39221 0.73838 0.0
C1117 C 0.25723 0.39397 0.73399 0.0
C1118 C 0.3016 0.39164 0.75965 0.0
C1119 C 0.27625 0.39124 0.76807 0.0
H1120 H 0.86503 0.98523 0.03421 0.0
H1121 H 0.86871 0.95254 0.97346 0.0
H1122 H 0.869 0.99705 0.95889 0.0
H1123 H 0.87147 0.04525 0.96369 0.0
H1124 H 0.86457 0.078 0.02424 0.0
H1125 H 0.86205 0.03348 0.03872 0.0
C1126 C 0.8656 0.98788 0.01776 0.0
C1127 C 0.86711 0.96564 0.0049 0.0
C1128 C 0.86531 0.01351 0.00953 0.0
C1129 C 0.86749 0.96932 0.98364 0.0
C1130 C 0.8678 0.99477 0.97534 0.0
C1131 C 0.86914 0.04261 0.98004 0.0
C1132 C 0.86849 0.06485 0.99294 0.0
C1133 C 0.86722 0.01699 0.98816 0.0
C1134 C 0.86509 0.06121 0.01404 0.0
C1135 C 0.86378 0.03575 0.0223 0.0
H1136 H 0.28701 0.6201 0.2856 0.0
H1137 H 0.31968 0.60972 0.22532 0.0
H1138 H 0.27525 0.6069 0.21091 0.0
H1139 H 0.22714 0.61094 0.21523 0.0
H1140 H 0.19439 0.61828 0.27574 0.0
H1141 H 0.2388 0.61846 0.2904 0.0
C1142 C 0.28436 0.6169 0.26933 0.0
C1143 C 0.30658 0.61538 0.25648 0.0
C1144 C 0.25877 0.61486 0.26125 0.0
C1145 C 0.30292 0.6109 0.2355 0.0
C1146 C 0.27751 0.60943 0.22726 0.0
C1147 C 0.22975 0.61224 0.23166 0.0
C1148 C 0.20754 0.61485 0.2444 0.0
C1149 C 0.25531 0.61191 0.23994 0.0
C1150 C 0.21115 0.61619 0.26565 0.0
C1151 C 0.23655 0.61645 0.27399 0.0
H1152 H 0.37609 0.0551 0.48029 0.0
H1153 H 0.35683 0.03588 0.54264 0.0
H1154 H 0.3544 0.98915 0.53401 0.0
H1155 H 0.36174 0.95296 0.50934 0.0
H1156 H 0.38451 0.97215 0.44762 0.0
H1157 H 0.38149 0.019 0.45524 0.0
C1158 C 0.37079 0.04069 0.4918 0.0
C1159 C 0.36643 0.04895 0.51201 0.0
C1160 C 0.37041 0.01356 0.48689 0.0
C1161 C 0.36017 0.02998 0.52693 0.0
C1162 C 0.35889 1.0032 0.52204 0.0
C1163 C 0.36568 0.96742 0.49754 0.0
C1164 C 0.37345 0.95895 0.47798 0.0
C1165 C 0.36459 0.99461 0.50217 0.0
C1166 C 0.37871 0.97804 0.46289 0.0
C1167 C 0.37696 1.00495 0.4672 0.0
H1168 H 0.70672 0.62951 0.22988 0.0
H1169 H 0.72327 0.60704 0.29203 0.0
H1170 H 0.77033 0.60518 0.28453 0.0
H1171 H 0.8075 0.61396 0.26103 0.0
H1172 H 0.7908 0.6402 0.1997 0.0
H1173 H 0.74374 0.63652 0.20601 0.0
C1174 C 0.72064 0.62361 0.24158 0.0
C1175 C 0.71154 0.61812 0.26139 0.0
C1176 C 0.74791 0.62364 0.23737 0.0
C1177 C 0.72984 0.61118 0.2766 0.0
C1178 C 0.75679 0.61024 0.27236 0.0
C1179 C 0.79353 0.61852 0.24901 0.0
C1180 C 0.80275 0.62746 0.22997 0.0
C1181 C 0.7662 0.61706 0.25292 0.0
C1182 C 0.78431 0.63351 0.2146 0.0
C1183 C 0.75729 0.63137 0.21815 0.0
H1184 H 0.14417 0.96267 0.03158 0.0
H1185 H 0.14106 0.93093 0.97049 0.0
H1186 H 0.14184 0.97569 0.95636 0.0
H1187 H 0.14031 0.02385 0.9616 0.0
H1188 H 0.14591 0.05548 0.02263 0.0
H1189 H 0.1475 0.01071 0.03663 0.0
C1190 C 0.1439 0.96555 0.01515 0.0
C1191 C 0.14226 0.94352 0.00207 0.0
C1192 C 0.14471 0.9913 0.00719 0.0
C1193 C 0.14232 0.94753 0.98085 0.0
C1194 C 0.14264 0.97313 0.97279 0.0
C1195 C 0.14213 0.02093 0.97797 0.0
C1196 C 0.14272 0.04297 0.99111 0.0
C1197 C 0.14337 0.99515 0.98584 0.0
C1198 C 0.14544 0.03889 0.01222 0.0
C1199 C 0.14622 0.01329 0.02021 0.0
H1200 H 0.78679 0.39147 0.77866 0.0
H1201 H 0.81857 0.38414 0.71784 0.0
H1202 H 0.77387 0.38397 0.70363 0.0
H1203 H 0.7257 0.38268 0.70893 0.0
H1204 H 0.69412 0.39325 0.76954 0.0
H1205 H 0.73882 0.3956 0.7835 0.0
C1206 C 0.7839 0.39014 0.76226 0.0
C1207 C 0.8059 0.38755 0.74928 0.0
C1208 C 0.75822 0.39051 0.75425 0.0
C1209 C 0.80196 0.3862 0.72808 0.0
C1210 C 0.77641 0.38595 0.72 0.0
C1211 C 0.72865 0.38576 0.72518 0.0
C1212 C 0.70666 0.38749 0.73826 0.0
C1213 C 0.7544 0.38759 0.73299 0.0
C1214 C 0.7107 0.39187 0.7592 0.0
C1215 C 0.73626 0.39309 0.76717 0.0
H1216 H 0.17641 0.77962 0.04478 0.0
H1217 H 0.12492 0.79526 0.99399 0.0
H1218 H 0.122 0.74807 0.98675 0.0
H1219 H 0.12526 0.70264 0.00059 0.0
H1220 H 0.17639 0.68743 0.05165 0.0
H1221 H 0.18898 0.73383 0.05274 0.0
C1222 C 0.16568 0.77276 0.03147 0.0
C1223 C 0.15092 0.79096 0.01993 0.0
C1224 C 0.16369 0.74548 0.02768 0.0
C1225 C 0.13677 0.78177 0.00292 0.0
C1226 C 0.13475 0.75466 -0.00101 0.0
C1227 C 0.14034 0.70924 0.01113 0.0
C1228 C 0.15015 0.6915 0.02587 0.0
C1229 C 0.1469 0.73628 0.01202 0.0
C1230 C 0.16903 0.70052 0.03988 0.0
C1231 C 0.17586 0.72721 0.04073 0.0
H1232 H 0.54123 0.92284 0.2971 0.0
H1233 H 0.55544 0.87394 0.24452 0.0
H1234 H 0.50831 0.87367 0.2367 0.0
H1235 H 0.46265 0.87907 0.24972 0.0
H1236 H 0.44911 0.92755 0.30267 0.0
H1237 H 0.49607 0.93703 0.3051 0.0
C1238 C 0.53411 0.9132 0.28337 0.0
C1239 C 0.55182 0.89853 0.27135 0.0
C1240 C 0.5069 0.91281 0.2792 0.0
C1241 C 0.5423 0.88573 0.25381 0.0
C1242 C 0.51524 0.88526 0.24952 0.0
C1243 C 0.46986 0.89289 0.26105 0.0
C1244 C 0.45233 0.9029 0.27585 0.0
C1245 C 0.49721 0.89761 0.26272 0.0
C1246 C 0.46209 0.92006 0.29088 0.0
C1247 C 0.48906 0.92513 0.29247 0.0
H1248 H 0.3336 0.21489 0.55087 0.0
H1249 H 0.38468 0.1978 0.50012 0.0
H1250 H 0.38678 0.2447 0.49158 0.0
H1251 H 0.38205 0.291 0.50365 0.0
H1252 H 0.33078 0.30748 0.55443 0.0
H1253 H 0.3202 0.26076 0.55754 0.0
C1254 C 0.3441 0.22132 0.53732 0.0
C1255 C 0.35884 0.20278 0.52609 0.0
C1256 C 0.34553 0.24845 0.53271 0.0
C1257 C 0.37276 0.2115 0.5088 0.0
C1258 C 0.37432 0.23847 0.50412 0.0
C1259 C 0.36747 0.28449 0.51464 0.0
C1260 C 0.35692 0.30283 0.52862 0.0
C1261 C 0.36188 0.25726 0.51662 0.0
C1262 C 0.33872 0.29391 0.54323 0.0
C1263 C 0.33297 0.26707 0.54521 0.0
H1264 H 0.9668 0.08571 0.80276 0.0
H1265 H 0.95071 0.13023 0.74819 0.0
H1266 H 0.9977 0.13134 0.74007 0.0
H1267 H 0.04345 0.12885 0.7533 0.0
H1268 H 0.05898 0.0846 0.80811 0.0
H1269 H 0.01244 0.07343 0.81105 0.0
C1270 C 0.9735 0.09448 0.78856 0.0
C1271 C 0.9553 0.10783 0.77609 0.0
C1272 C 1.00064 0.09542 0.78422 0.0
C1273 C 0.96425 0.11948 0.75788 0.0
C1274 C 0.99123 0.12047 0.75341 0.0
C1275 C 0.03681 0.11552 0.76519 0.0
C1276 C 0.0547 0.10729 0.78036 0.0
C1277 C 0.00971 0.10977 0.76708 0.0
C1278 C 0.0457 0.09072 0.79606 0.0
C1279 C 0.01896 0.08469 0.79792 0.0
H1280 H 0.17432 0.20603 0.94935 0.0
H1281 H 0.12495 0.19266 0.00178 0.0
H1282 H 0.12438 0.23995 0.009 0.0
H1283 H 0.12882 0.28518 0.99496 0.0
H1284 H 0.17783 0.29807 0.94226 0.0
H1285 H 0.18844 0.25122 0.94094 0.0
C1286 C 0.16461 0.21336 0.96298 0.0
C1287 C 0.14976 0.19582 0.97504 0.0
C1288 C 0.164 0.2407 0.96679 0.0
C1289 C 0.13688 0.20564 0.99245 0.0
C1290 C 0.13621 0.23281 0.99639 0.0
C1291 C 0.14308 0.27794 0.98398 0.0
C1292 C 0.15278 0.29519 0.96886 0.0
C1293 C 0.14845 0.25064 0.98296 0.0
C1294 C 0.17056 0.28535 0.95431 0.0
C1295 C 0.17625 0.25841 0.95333 0.0
H1296 H 0.96176 0.9208 0.19313 0.0
H1297 H 0.95469 0.87651 0.24892 0.0
H1298 H 1.00244 0.87841 0.25376 0.0
H1299 H 0.04644 0.88372 0.23755 0.0
H1300 H 0.05268 0.92698 0.18114 0.0
H1301 H 0.00541 0.9352 0.18138 0.0
C1302 C 0.97057 0.91281 0.20691 0.0
C1303 C 0.95465 0.8988 0.22076 0.0
C1304 C 0.99814 0.91342 0.20926 0.0
C1305 C 0.9664 0.8879 0.23827 0.0
C1306 C 0.99383 0.88861 0.24084 0.0
C1307 C 0.03762 0.89615 0.22594 0.0
C1308 C 0.05316 0.90496 0.20943 0.0
C1309 C 0.01003 0.90009 0.22584 0.0
C1310 C 0.04126 0.92034 0.19415 0.0
C1311 C 0.01411 0.92473 0.19413 0.0
H1312 H 0.33361 0.7163 0.44746 0.0
H1313 H 0.38296 0.7017 0.49969 0.0
H1314 H 0.38384 0.74885 0.50743 0.0
H1315 H 0.37962 0.79435 0.4939 0.0
H1316 H 0.33031 0.80853 0.44159 0.0
H1317 H 0.3195 0.76176 0.43972 0.0
C1318 C 0.34339 0.72333 0.46115 0.0
C1319 C 0.35814 0.70548 0.47302 0.0
C1320 C 0.34409 0.7506 0.46532 0.0
C1321 C 0.37112 0.71492 0.49051 0.0
C1322 C 0.37194 0.74201 0.49475 0.0
C1323 C 0.36521 0.78741 0.48292 0.0
C1324 C 0.35556 0.80503 0.46802 0.0
C1325 C 0.35972 0.76016 0.48157 0.0
C1326 C 0.33756 0.79556 0.45348 0.0
C1327 C 0.33179 0.76864 0.45216 0.0
H1328 H 0.46649 0.08612 0.69863 0.0
H1329 H 0.45081 0.13612 0.75034 0.0
H1330 H 0.49785 0.13753 0.75841 0.0
H1331 H 0.54372 0.13264 0.74575 0.0
H1332 H 0.55877 0.08294 0.69374 0.0
H1333 H 0.51198 0.07262 0.6911 0.0
C1334 C 0.47329 0.09629 0.71223 0.0
C1335 C 0.45519 0.11095 0.7239 0.0
C1336 C 0.50043 0.09733 0.71654 0.0
C1337 C 0.46427 0.12437 0.7413 0.0
C1338 C 0.49127 0.12548 0.74574 0.0
C1339 C 0.53687 0.11843 0.73458 0.0
C1340 C 0.55475 0.10826 0.72012 0.0
C1341 C 0.50965 0.11315 0.73282 0.0
C1342 C 0.54549 0.09056 0.70528 0.0
C1343 C 0.51864 0.08499 0.70358 0.0
H1344 H 0.83493 0.30413 0.9479 0.0
H1345 H 0.88327 0.31937 0.00056 0.0
H1346 H 0.88308 0.27247 0.00914 0.0
H1347 H 0.87883 0.22669 0.99612 0.0
H1348 H 0.83124 0.21195 0.94293 0.0
H1349 H 0.82074 0.25874 0.94041 0.0
C1350 C 0.84411 0.29736 0.96192 0.0
C1351 C 0.85898 0.31529 0.97362 0.0
C1352 C 0.84449 0.27018 0.9664 0.0
C1353 C 0.87128 0.30613 0.9915 0.0
C1354 C 0.87159 0.27915 0.99619 0.0
C1355 C 0.8649 0.23355 0.98475 0.0
C1356 C 0.85558 0.21576 0.96985 0.0
C1357 C 0.85961 0.26082 0.98302 0.0
C1358 C 0.83824 0.22511 0.95479 0.0
C1359 C 0.83259 0.252 0.95315 0.0
H1360 H 0.67409 0.80197 0.44802 0.0
H1361 H 0.62318 0.8176 0.49915 0.0
H1362 H 0.62217 0.7706 0.5075 0.0
H1363 H 0.62732 0.72467 0.49493 0.0
H1364 H 0.67826 0.70954 0.44372 0.0
H1365 H 0.68845 0.7564 0.44109 0.0
C1366 C 0.66392 0.79522 0.46163 0.0
C1367 C 0.64888 0.81334 0.47303 0.0
C1368 C 0.66313 0.76803 0.46613 0.0
C1369 C 0.63532 0.80421 0.49036 0.0
C1370 C 0.6344 0.7772 0.49494 0.0
C1371 C 0.64186 0.73148 0.48401 0.0
C1372 C 0.65232 0.71349 0.46971 0.0
C1373 C 0.64709 0.75878 0.48225 0.0
C1374 C 0.67042 0.72281 0.45518 0.0
C1375 C 0.67588 0.74975 0.45344 0.0
H1376 H 0.87862 0.72492 -0.0004 0.0
H1377 H 0.82766 0.70964 0.05077 0.0
H1378 H 0.81739 0.75646 0.05342 0.0
H1379 H 0.83188 0.80201 0.04664 0.0
H1380 H 0.88285 0.81778 0.99555 0.0
H1381 H 0.88372 0.77084 0.98705 0.0
C1382 C 0.86405 0.73169 0.01051 0.0
C1383 C 0.85366 0.71371 0.02483 0.0
C1384 C 0.8588 0.75896 0.01229 0.0
C1385 C 0.83548 0.72293 0.03932 0.0
C1386 C 0.82997 0.74985 0.04107 0.0
C1387 C 0.84206 0.7953 0.03303 0.0
C1388 C 0.85723 0.8134 0.02172 0.0
C1389 C 0.84276 0.76816 0.02843 0.0
C1390 C 0.87069 0.80437 0.00431 0.0
C1391 C 0.87151 0.7774 -0.00036 0.0
H1392 H 0.63151 0.30133 0.50143 0.0
H1393 H 0.68259 0.31408 0.55295 0.0
H1394 H 0.69265 0.26713 0.55434 0.0
H1395 H 0.67764 0.2221 0.54662 0.0
H1396 H 0.62571 0.20875 0.49576 0.0
H1397 H 0.62576 0.25589 0.48797 0.0
C1398 C 0.64603 0.294 0.51215 0.0
C1399 C 0.65653 0.31129 0.52694 0.0
C1400 C 0.65106 0.26661 0.51327 0.0
C1401 C 0.67465 0.30132 0.54119 0.0
C1402 C 0.68007 0.27433 0.54219 0.0
C1403 C 0.66759 0.22935 0.53312 0.0
C1404 C 0.65185 0.21187 0.5217 0.0
C1405 C 0.66714 0.25665 0.52912 0.0
C1406 C 0.63839 0.22164 0.50454 0.0
C1407 C 0.63802 0.24876 0.50033 0.0
H1408 H 0.96715 0.42485 0.79678 0.0
H1409 H 0.95377 0.3776 0.74316 0.0
H1410 H 1.00104 0.37716 0.736 0.0
H1411 H 0.04634 0.38121 0.75003 0.0
H1412 H 0.05901 0.42765 0.8042 0.0
H1413 H 0.01221 0.43811 0.80582 0.0
C1414 C 0.97448 0.41558 0.78297 0.0
C1415 C 0.95693 0.40129 0.77053 0.0
C1416 C 1.00179 0.41493 0.77925 0.0
C1417 C 0.96675 0.38906 0.75283 0.0
C1418 C 0.99391 0.38845 0.74892 0.0
C1419 C 0.03902 0.39483 0.76148 0.0
C1420 C 0.05621 0.40391 0.77686 0.0
C1421 C 0.01173 0.40007 0.76268 0.0
C1422 C 0.0463 0.42083 0.792 0.0
C1423 C 0.01941 0.42648 0.7931 0.0
H1424 H 0.47068 0.63115 0.25031 0.0
H1425 H 0.45305 0.58317 0.30279 0.0
H1426 H 0.49938 0.57111 0.3059 0.0
H1427 H 0.54546 0.58326 0.29881 0.0
H1428 H 0.56351 0.63142 0.24649 0.0
H1429 H 0.51677 0.63379 0.2378 0.0
C1430 C 0.4768 0.61686 0.26167 0.0
C1431 C 0.45833 0.60777 0.27614 0.0
C1432 C 0.50378 0.61053 0.26366 0.0
C1433 C 0.46672 0.58995 0.29121 0.0
C1434 C 0.49335 0.5834 0.2932 0.0
C1435 C 0.53926 0.59311 0.2849 0.0
C1436 C 0.55802 0.60712 0.27331 0.0
C1437 C 0.51221 0.5948 0.28024 0.0
C1438 C 0.54963 0.62013 0.2555 0.0
C1439 C 0.52276 0.62186 0.25073 0.0
H1440 H 0.46898 0.42768 0.69416 0.0
H1441 H 0.45138 0.37984 0.74674 0.0
H1442 H 0.49819 0.37767 0.75529 0.0
H1443 H 0.54413 0.38021 0.74252 0.0
H1444 H 0.5612 0.42737 0.68948 0.0
H1445 H 0.51492 0.4397 0.68671 0.0
C1446 C 0.47531 0.4179 0.70806 0.0
C1447 C 0.45671 0.40391 0.71978 0.0
C1448 C 0.50236 0.41629 0.7126 0.0
C1449 C 0.4652 0.39105 0.73762 0.0
C1450 C 0.49209 0.38947 0.74232 0.0
C1451 C 0.53791 0.39441 0.73111 0.0
C1452 C 0.55615 0.40314 0.71635 0.0
C1453 C 0.51094 0.40074 0.72924 0.0
C1454 C 0.54767 0.42085 0.70124 0.0
C1455 C 0.52107 0.42753 0.69945 0.0
H1456 H 0.96736 0.63156 0.2479 0.0
H1457 H 0.95199 0.58319 0.19524 0.0
H1458 H 0.99841 0.57112 0.19337 0.0
H1459 H 0.04409 0.58408 0.20119 0.0
H1460 H 0.05988 0.63296 0.25353 0.0
H1461 H 0.01285 0.63465 0.26141 0.0
C1462 C 0.97393 0.61708 0.23684 0.0
C1463 C 0.95613 0.60806 0.22184 0.0
C1464 C 1.00099 0.61096 0.23545 0.0
C1465 C 0.96511 0.58995 0.20719 0.0
C1466 C 0.99183 0.58347 0.20588 0.0
C1467 C 0.03732 0.59396 0.21492 0.0
C1468 C 0.05548 0.60839 0.22675 0.0
C1469 C 0.01014 0.59522 0.21912 0.0
C1470 C 0.04642 0.62141 0.24434 0.0
C1471 C 0.0194 0.62271 0.24866 0.0
loop_
_geom_bond_atom_site_label_1
_geom_bond_atom_site_label_2
_geom_bond_distance
_geom_bond_site_symmetry_2
_ccdc_geom_bond_type
Co0 O1 2.216 . S
Co0 O2 2.091 . S
Co0 O4 2.004 . S
Co0 O10 2.021 . S
Co0 O12 2.137 . S
Co0 O13 2.244 . S
O1 Co0 2.216 . S
O1 C8 1.247 . S
O2 Co0 2.091 . S
O2 C8 1.261 . S
C3 O12 1.247 . S
C3 O13 1.272 . S
O4 Co0 2.004 . S
O4 C9 1.259 . S
Co5 O6 2.061 . S
Co5 O11 2.052 . S
Co5 O13 2.135 . S
O6 Co5 2.061 . S
O6 C9 1.235 . S
C7 O10 1.238 . S
C7 O11 1.241 . S
C8 O1 1.247 . S
C8 O2 1.261 . S
C9 O4 1.259 . S
C9 O6 1.235 . S
O10 Co0 2.021 . S
O10 C7 1.238 . S
O11 Co5 2.052 . S
O11 C7 1.241 . S
O12 Co0 2.137 . S
O12 C3 1.247 . S
O13 Co0 2.244 . S
O13 C3 1.272 . S
O13 Co5 2.135 . S
Co14 O15 2.216 . S
Co14 O16 2.091 . S
Co14 O18 2.004 . S
Co14 O24 2.021 . S
Co14 O26 2.137 . S
Co14 O27 2.244 . S
O15 Co14 2.216 . S
O15 C22 1.247 . S
O16 Co14 2.091 . S
O16 C22 1.261 . S
C17 O26 1.247 . S
C17 O27 1.272 . S
O18 Co14 2.004 . S
O18 C23 1.259 . S
Co19 O20 2.061 . S
Co19 O25 2.052 . S
Co19 O27 2.135 . S
O20 Co19 2.061 . S
O20 C23 1.235 . S
C21 O24 1.238 . S
C21 O25 1.241 . S
C22 O15 1.247 . S
C22 O16 1.261 . S
C23 O18 1.259 . S
C23 O20 1.235 . S
O24 Co14 2.021 . S
O24 C21 1.238 . S
O25 Co19 2.052 . S
O25 C21 1.241 . S
O26 Co14 2.137 . S
O26 C17 1.247 . S
O27 Co14 2.244 . S
O27 C17 1.272 . S
O27 Co19 2.135 . S
Co28 O29 2.216 . S
Co28 O30 2.091 . S
Co28 O32 2.004 . S
Co28 O38 2.021 . S
Co28 O40 2.137 . S
Co28 O41 2.244 . S
O29 Co28 2.216 . S
O29 C36 1.247 . S
O30 Co28 2.091 . S
O30 C36 1.261 . S
C31 O40 1.247 . S
C31 O41 1.272 . S
O32 Co28 2.004 . S
O32 C37 1.259 . S
Co33 O34 2.061 . S
Co33 O39 2.052 . S
Co33 O41 2.135 . S
O34 Co33 2.061 . S
O34 C37 1.235 . S
C35 O38 1.238 . S
C35 O39 1.241 . S
C36 O29 1.247 . S
C36 O30 1.261 . S
C37 O32 1.259 . S
C37 O34 1.235 . S
O38 Co28 2.021 . S
O38 C35 1.238 . S
O39 Co33 2.052 . S
O39 C35 1.241 . S
O40 Co28 2.137 . S
O40 C31 1.247 . S
O41 Co28 2.244 . S
O41 C31 1.272 . S
O41 Co33 2.135 . S
Co42 O43 2.216 . S
Co42 O44 2.091 . S
Co42 O46 2.004 . S
Co42 O52 2.021 . S
Co42 O54 2.137 . S
Co42 O55 2.244 . S
O43 Co42 2.216 . S
O43 C50 1.247 . S
O44 Co42 2.091 . S
O44 C50 1.261 . S
C45 O54 1.247 . S
C45 O55 1.272 . S
O46 Co42 2.004 . S
O46 C51 1.259 . S
Co47 O48 2.061 . S
Co47 O53 2.052 . S
Co47 O55 2.135 . S
O48 Co47 2.061 . S
O48 C51 1.235 . S
C49 O52 1.238 . S
C49 O53 1.241 . S
C50 O43 1.247 . S
C50 O44 1.261 . S
C51 O46 1.259 . S
C51 O48 1.235 . S
O52 Co42 2.021 . S
O52 C49 1.238 . S
O53 Co47 2.052 . S
O53 C49 1.241 . S
O54 Co42 2.137 . S
O54 C45 1.247 . S
O55 Co42 2.244 . S
O55 C45 1.272 . S
O55 Co47 2.135 . S
Co56 O57 2.216 . S
Co56 O58 2.091 . S
Co56 O60 2.004 . S
Co56 O66 2.021 . S
Co56 O68 2.137 . S
Co56 O69 2.244 . S
O57 Co56 2.216 . S
O57 C64 1.247 . S
O58 Co56 2.091 . S
O58 C64 1.261 . S
C59 O68 1.247 . S
C59 O69 1.272 . S
O60 Co56 2.004 . S
O60 C65 1.259 . S
Co61 O62 2.061 . S
Co61 O67 2.052 . S
Co61 O69 2.135 . S
O62 Co61 2.061 . S
O62 C65 1.235 . S
C63 O66 1.238 . S
C63 O67 1.241 . S
C64 O57 1.247 . S
C64 O58 1.261 . S
C65 O60 1.259 . S
C65 O62 1.235 . S
O66 Co56 2.021 . S
O66 C63 1.238 . S
O67 Co61 2.052 . S
O67 C63 1.241 . S
O68 Co56 2.137 . S
O68 C59 1.247 . S
O69 Co56 2.244 . S
O69 C59 1.272 . S
O69 Co61 2.135 . S
Co70 O71 2.216 . S
Co70 O72 2.091 . S
Co70 O74 2.004 . S
Co70 O80 2.021 . S
Co70 O82 2.137 . S
Co70 O83 2.244 . S
O71 Co70 2.216 . S
O71 C78 1.247 . S
O72 Co70 2.091 . S
O72 C78 1.261 . S
C73 O82 1.247 . S
C73 O83 1.272 . S
O74 Co70 2.004 . S
O74 C79 1.259 . S
Co75 O76 2.061 . S
Co75 O81 2.052 . S
Co75 O83 2.135 . S
O76 Co75 2.061 . S
O76 C79 1.235 . S
C77 O80 1.238 . S
C77 O81 1.241 . S
C78 O71 1.247 . S
C78 O72 1.261 . S
C79 O74 1.259 . S
C79 O76 1.235 . S
O80 Co70 2.021 . S
O80 C77 1.238 . S
O81 Co75 2.052 . S
O81 C77 1.241 . S
O82 Co70 2.137 . S
O82 C73 1.247 . S
O83 Co70 2.244 . S
O83 C73 1.272 . S
O83 Co75 2.135 . S
Co84 O85 2.216 . S
Co84 O86 2.091 . S
Co84 O88 2.004 . S
Co84 O94 2.021 . S
Co84 O96 2.137 . S
Co84 O97 2.244 . S
O85 Co84 2.216 . S
O85 C92 1.247 . S
O86 Co84 2.091 . S
O86 C92 1.261 . S
C87 O96 1.247 . S
C87 O97 1.272 . S
O88 Co84 2.004 . S
O88 C93 1.259 . S
Co89 O90 2.061 . S
Co89 O95 2.052 . S
Co89 O97 2.135 . S
O90 Co89 2.061 . S
O90 C93 1.235 . S
C91 O94 1.238 . S
C91 O95 1.241 . S
C92 O85 1.247 . S
C92 O86 1.261 . S
C93 O88 1.259 . S
C93 O90 1.235 . S
O94 Co84 2.021 . S
O94 C91 1.238 . S
O95 Co89 2.052 . S
O95 C91 1.241 . S
O96 Co84 2.137 . S
O96 C87 1.247 . S
O97 Co84 2.244 . S
O97 C87 1.272 . S
O97 Co89 2.135 . S
Co98 O99 2.216 . S
Co98 O100 2.091 . S
Co98 O102 2.004 . S
Co98 O108 2.021 . S
Co98 O110 2.137 . S
Co98 O111 2.244 . S
O99 Co98 2.216 . S
O99 C106 1.247 . S
O100 Co98 2.091 . S
O100 C106 1.261 . S
C101 O110 1.247 . S
C101 O111 1.272 . S
O102 Co98 2.004 . S
O102 C107 1.259 . S
Co103 O104 2.061 . S
Co103 O109 2.052 . S
Co103 O111 2.135 . S
O104 Co103 2.061 . S
O104 C107 1.235 . S
C105 O108 1.238 . S
C105 O109 1.241 . S
C106 O99 1.247 . S
C106 O100 1.261 . S
C107 O102 1.259 . S
C107 O104 1.235 . S
O108 Co98 2.021 . S
O108 C105 1.238 . S
O109 Co103 2.052 . S
O109 C105 1.241 . S
O110 Co98 2.137 . S
O110 C101 1.247 . S
O111 Co98 2.244 . S
O111 C101 1.272 . S
O111 Co103 2.135 . S
Co112 O113 2.216 . S
Co112 O114 2.091 . S
Co112 O116 2.004 . S
Co112 O122 2.021 . S
Co112 O124 2.137 . S
Co112 O125 2.244 . S
O113 Co112 2.216 . S
O113 C120 1.247 . S
O114 Co112 2.091 . S
O114 C120 1.261 . S
C115 O124 1.247 . S
C115 O125 1.272 . S
O116 Co112 2.004 . S
O116 C121 1.259 . S
Co117 O118 2.061 . S
Co117 O123 2.052 . S
Co117 O125 2.135 . S
O118 Co117 2.061 . S
O118 C121 1.235 . S
C119 O122 1.238 . S
C119 O123 1.241 . S
C120 O113 1.247 . S
C120 O114 1.261 . S
C121 O116 1.259 . S
C121 O118 1.235 . S
O122 Co112 2.021 . S
O122 C119 1.238 . S
O123 Co117 2.052 . S
O123 C119 1.241 . S
O124 Co112 2.137 . S
O124 C115 1.247 . S
O125 Co112 2.244 . S
O125 C115 1.272 . S
O125 Co117 2.135 . S
Co126 O127 2.216 . S
Co126 O128 2.091 . S
Co126 O130 2.004 . S
Co126 O136 2.021 . S
Co126 O138 2.137 . S
Co126 O139 2.244 . S
O127 Co126 2.216 . S
O127 C134 1.247 . S
O128 Co126 2.091 . S
O128 C134 1.261 . S
C129 O138 1.247 . S
C129 O139 1.272 . S
O130 Co126 2.004 . S
O130 C135 1.259 . S
Co131 O132 2.061 . S
Co131 O137 2.052 . S
Co131 O139 2.135 . S
O132 Co131 2.061 . S
O132 C135 1.235 . S
C133 O136 1.238 . S
C133 O137 1.241 . S
C134 O127 1.247 . S
C134 O128 1.261 . S
C135 O130 1.259 . S
C135 O132 1.235 . S
O136 Co126 2.021 . S
O136 C133 1.238 . S
O137 Co131 2.052 . S
O137 C133 1.241 . S
O138 Co126 2.137 . S
O138 C129 1.247 . S
O139 Co126 2.244 . S
O139 C129 1.272 . S
O139 Co131 2.135 . S
Co140 O141 2.216 . S
Co140 O142 2.091 . S
Co140 O144 2.004 . S
Co140 O150 2.021 . S
Co140 O152 2.137 . S
Co140 O153 2.244 . S
O141 Co140 2.216 . S
O141 C148 1.247 . S
O142 Co140 2.091 . S
O142 C148 1.261 . S
C143 O152 1.247 . S
C143 O153 1.272 . S
O144 Co140 2.004 . S
O144 C149 1.259 . S
Co145 O146 2.061 . S
Co145 O151 2.052 . S
Co145 O153 2.135 . S
O146 Co145 2.061 . S
O146 C149 1.235 . S
C147 O150 1.238 . S
C147 O151 1.241 . S
C148 O141 1.247 . S
C148 O142 1.261 . S
C149 O144 1.259 . S
C149 O146 1.235 . S
O150 Co140 2.021 . S
O150 C147 1.238 . S
O151 Co145 2.052 . S
O151 C147 1.241 . S
O152 Co140 2.137 . S
O152 C143 1.247 . S
O153 Co140 2.244 . S
O153 C143 1.272 . S
O153 Co145 2.135 . S
Co154 O155 2.216 . S
Co154 O156 2.091 . S
Co154 O158 2.004 . S
Co154 O164 2.021 . S
Co154 O166 2.137 . S
Co154 O167 2.244 . S
O155 Co154 2.216 . S
O155 C162 1.247 . S
O156 Co154 2.091 . S
O156 C162 1.261 . S
C157 O166 1.247 . S
C157 O167 1.272 . S
O158 Co154 2.004 . S
O158 C163 1.259 . S
Co159 O160 2.061 . S
Co159 O165 2.052 . S
Co159 O167 2.135 . S
O160 Co159 2.061 . S
O160 C163 1.235 . S
C161 O164 1.238 . S
C161 O165 1.241 . S
C162 O155 1.247 . S
C162 O156 1.261 . S
C163 O158 1.259 . S
C163 O160 1.235 . S
O164 Co154 2.021 . S
O164 C161 1.238 . S
O165 Co159 2.052 . S
O165 C161 1.241 . S
O166 Co154 2.137 . S
O166 C157 1.247 . S
O167 Co154 2.244 . S
O167 C157 1.272 . S
O167 Co159 2.135 . S
Co168 O169 2.216 . S
Co168 O170 2.091 . S
Co168 O172 2.004 . S
Co168 O178 2.021 . S
Co168 O180 2.137 . S
Co168 O181 2.244 . S
O169 Co168 2.216 . S
O169 C176 1.247 . S
O170 Co168 2.091 . S
O170 C176 1.261 . S
C171 O180 1.247 . S
C171 O181 1.272 . S
O172 Co168 2.004 . S
O172 C177 1.259 . S
Co173 O174 2.061 . S
Co173 O179 2.052 . S
Co173 O181 2.135 . S
O174 Co173 2.061 . S
O174 C177 1.235 . S
C175 O178 1.238 . S
C175 O179 1.241 . S
C176 O169 1.247 . S
C176 O170 1.261 . S
C177 O172 1.259 . S
C177 O174 1.235 . S
O178 Co168 2.021 . S
O178 C175 1.238 . S
O179 Co173 2.052 . S
O179 C175 1.241 . S
O180 Co168 2.137 . S
O180 C171 1.247 . S
O181 Co168 2.244 . S
O181 C171 1.272 . S
O181 Co173 2.135 . S
Co182 O183 2.216 . S
Co182 O184 2.091 . S
Co182 O186 2.004 . S
Co182 O192 2.021 . S
Co182 O194 2.137 . S
Co182 O195 2.244 . S
O183 Co182 2.216 . S
O183 C190 1.247 . S
O184 Co182 2.091 . S
O184 C190 1.261 . S
C185 O194 1.247 . S
C185 O195 1.272 . S
O186 Co182 2.004 . S
O186 C191 1.259 . S
Co187 O188 2.061 . S
Co187 O193 2.052 . S
Co187 O195 2.135 . S
O188 Co187 2.061 . S
O188 C191 1.235 . S
C189 O192 1.238 . S
C189 O193 1.241 . S
C190 O183 1.247 . S
C190 O184 1.261 . S
C191 O186 1.259 . S
C191 O188 1.235 . S
O192 Co182 2.021 . S
O192 C189 1.238 . S
O193 Co187 2.052 . S
O193 C189 1.241 . S
O194 Co182 2.137 . S
O194 C185 1.247 . S
O195 Co182 2.244 . S
O195 C185 1.272 . S
O195 Co187 2.135 . S
Co196 O197 2.216 . S
Co196 O198 2.091 . S
Co196 O200 2.004 . S
Co196 O206 2.021 . S
Co196 O208 2.137 . S
Co196 O209 2.244 . S
O197 Co196 2.216 . S
O197 C204 1.247 . S
O198 Co196 2.091 . S
O198 C204 1.261 . S
C199 O208 1.247 . S
C199 O209 1.272 . S
O200 Co196 2.004 . S
O200 C205 1.259 . S
Co201 O202 2.061 . S
Co201 O207 2.052 . S
Co201 O209 2.135 . S
O202 Co201 2.061 . S
O202 C205 1.235 . S
C203 O206 1.238 . S
C203 O207 1.241 . S
C204 O197 1.247 . S
C204 O198 1.261 . S
C205 O200 1.259 . S
C205 O202 1.235 . S
O206 Co196 2.021 . S
O206 C203 1.238 . S
O207 Co201 2.052 . S
O207 C203 1.241 . S
O208 Co196 2.137 . S
O208 C199 1.247 . S
O209 Co196 2.244 . S
O209 C199 1.272 . S
O209 Co201 2.135 . S
Co210 O211 2.216 . S
Co210 O212 2.091 . S
Co210 O214 2.004 . S
Co210 O220 2.021 . S
Co210 O222 2.137 . S
Co210 O223 2.244 . S
O211 Co210 2.216 . S
O211 C218 1.247 . S
O212 Co210 2.091 . S
O212 C218 1.261 . S
C213 O222 1.247 . S
C213 O223 1.272 . S
O214 Co210 2.004 . S
O214 C219 1.259 . S
Co215 O216 2.061 . S
Co215 O221 2.052 . S
Co215 O223 2.135 . S
O216 Co215 2.061 . S
O216 C219 1.235 . S
C217 O220 1.238 . S
C217 O221 1.241 . S
C218 O211 1.247 . S
C218 O212 1.261 . S
C219 O214 1.259 . S
C219 O216 1.235 . S
O220 Co210 2.021 . S
O220 C217 1.238 . S
O221 Co215 2.052 . S
O221 C217 1.241 . S
O222 Co210 2.137 . S
O222 C213 1.247 . S
O223 Co210 2.244 . S
O223 C213 1.272 . S
O223 Co215 2.135 . S
Co224 O225 2.216 . S
Co224 O226 2.091 . S
Co224 O228 2.004 . S
Co224 O234 2.021 . S
Co224 O236 2.137 . S
Co224 O237 2.244 . S
O225 Co224 2.216 . S
O225 C232 1.247 . S
O226 Co224 2.091 . S
O226 C232 1.261 . S
C227 O236 1.247 . S
C227 O237 1.272 . S
O228 Co224 2.004 . S
O228 C233 1.259 . S
Co229 O230 2.061 . S
Co229 O235 2.052 . S
Co229 O237 2.135 . S
O230 Co229 2.061 . S
O230 C233 1.235 . S
C231 O234 1.238 . S
C231 O235 1.241 . S
C232 O225 1.247 . S
C232 O226 1.261 . S
C233 O228 1.259 . S
C233 O230 1.235 . S
O234 Co224 2.021 . S
O234 C231 1.238 . S
O235 Co229 2.052 . S
O235 C231 1.241 . S
O236 Co224 2.137 . S
O236 C227 1.247 . S
O237 Co224 2.244 . S
O237 C227 1.272 . S
O237 Co229 2.135 . S
Co238 O239 2.216 . S
Co238 O240 2.091 . S
Co238 O242 2.004 . S
Co238 O248 2.021 . S
Co238 O250 2.137 . S
Co238 O251 2.244 . S
O239 Co238 2.216 . S
O239 C246 1.247 . S
O240 Co238 2.091 . S
O240 C246 1.261 . S
C241 O250 1.247 . S
C241 O251 1.272 . S
O242 Co238 2.004 . S
O242 C247 1.259 . S
Co243 O244 2.061 . S
Co243 O249 2.052 . S
Co243 O251 2.135 . S
O244 Co243 2.061 . S
O244 C247 1.235 . S
C245 O248 1.238 . S
C245 O249 1.241 . S
C246 O239 1.247 . S
C246 O240 1.261 . S
C247 O242 1.259 . S
C247 O244 1.235 . S
O248 Co238 2.021 . S
O248 C245 1.238 . S
O249 Co243 2.052 . S
O249 C245 1.241 . S
O250 Co238 2.137 . S
O250 C241 1.247 . S
O251 Co238 2.244 . S
O251 C241 1.272 . S
O251 Co243 2.135 . S
Co252 O253 2.216 . S
Co252 O254 2.091 . S
Co252 O256 2.004 . S
Co252 O262 2.021 . S
Co252 O264 2.137 . S
Co252 O265 2.244 . S
O253 Co252 2.216 . S
O253 C260 1.247 . S
O254 Co252 2.091 . S
O254 C260 1.261 . S
C255 O264 1.247 . S
C255 O265 1.272 . S
O256 Co252 2.004 . S
O256 C261 1.259 . S
Co257 O258 2.061 . S
Co257 O263 2.052 . S
Co257 O265 2.135 . S
O258 Co257 2.061 . S
O258 C261 1.235 . S
C259 O262 1.238 . S
C259 O263 1.241 . S
C260 O253 1.247 . S
C260 O254 1.261 . S
C261 O256 1.259 . S
C261 O258 1.235 . S
O262 Co252 2.021 . S
O262 C259 1.238 . S
O263 Co257 2.052 . S
O263 C259 1.241 . S
O264 Co252 2.137 . S
O264 C255 1.247 . S
O265 Co252 2.244 . S
O265 C255 1.272 . S
O265 Co257 2.135 . S
Co266 O267 2.216 . S
Co266 O268 2.091 . S
Co266 O270 2.004 . S
Co266 O276 2.021 . S
Co266 O278 2.137 . S
Co266 O279 2.244 . S
O267 Co266 2.216 . S
O267 C274 1.247 . S
O268 Co266 2.091 . S
O268 C274 1.261 . S
C269 O278 1.247 . S
C269 O279 1.272 . S
O270 Co266 2.004 . S
O270 C275 1.259 . S
Co271 O272 2.061 . S
Co271 O277 2.052 . S
Co271 O279 2.135 . S
O272 Co271 2.061 . S
O272 C275 1.235 . S
C273 O276 1.238 . S
C273 O277 1.241 . S
C274 O267 1.247 . S
C274 O268 1.261 . S
C275 O270 1.259 . S
C275 O272 1.235 . S
O276 Co266 2.021 . S
O276 C273 1.238 . S
O277 Co271 2.052 . S
O277 C273 1.241 . S
O278 Co266 2.137 . S
O278 C269 1.247 . S
O279 Co266 2.244 . S
O279 C269 1.272 . S
O279 Co271 2.135 . S
Co280 O281 2.216 . S
Co280 O282 2.091 . S
Co280 O284 2.004 . S
Co280 O290 2.021 . S
Co280 O292 2.137 . S
Co280 O293 2.244 . S
O281 Co280 2.216 . S
O281 C288 1.247 . S
O282 Co280 2.091 . S
O282 C288 1.261 . S
C283 O292 1.247 . S
C283 O293 1.272 . S
O284 Co280 2.004 . S
O284 C289 1.259 . S
Co285 O286 2.061 . S
Co285 O291 2.052 . S
Co285 O293 2.135 . S
O286 Co285 2.061 . S
O286 C289 1.235 . S
C287 O290 1.238 . S
C287 O291 1.241 . S
C288 O281 1.247 . S
C288 O282 1.261 . S
C289 O284 1.259 . S
C289 O286 1.235 . S
O290 Co280 2.021 . S
O290 C287 1.238 . S
O291 Co285 2.052 . S
O291 C287 1.241 . S
O292 Co280 2.137 . S
O292 C283 1.247 . S
O293 Co280 2.244 . S
O293 C283 1.272 . S
O293 Co285 2.135 . S
Co294 O295 2.216 . S
Co294 O296 2.091 . S
Co294 O298 2.004 . S
Co294 O304 2.021 . S
Co294 O306 2.137 . S
Co294 O307 2.244 . S
O295 Co294 2.216 . S
O295 C302 1.247 . S
O296 Co294 2.091 . S
O296 C302 1.261 . S
C297 O306 1.247 . S
C297 O307 1.272 . S
O298 Co294 2.004 . S
O298 C303 1.259 . S
Co299 O300 2.061 . S
Co299 O305 2.052 . S
Co299 O307 2.135 . S
O300 Co299 2.061 . S
O300 C303 1.235 . S
C301 O304 1.238 . S
C301 O305 1.241 . S
C302 O295 1.247 . S
C302 O296 1.261 . S
C303 O298 1.259 . S
C303 O300 1.235 . S
O304 Co294 2.021 . S
O304 C301 1.238 . S
O305 Co299 2.052 . S
O305 C301 1.241 . S
O306 Co294 2.137 . S
O306 C297 1.247 . S
O307 Co294 2.244 . S
O307 C297 1.272 . S
O307 Co299 2.135 . S
Co308 O309 2.216 . S
Co308 O310 2.091 . S
Co308 O312 2.004 . S
Co308 O318 2.021 . S
Co308 O320 2.137 . S
Co308 O321 2.244 . S
O309 Co308 2.216 . S
O309 C316 1.247 . S
O310 Co308 2.091 . S
O310 C316 1.261 . S
C311 O320 1.247 . S
C311 O321 1.272 . S
O312 Co308 2.004 . S
O312 C317 1.259 . S
Co313 O314 2.061 . S
Co313 O319 2.052 . S
Co313 O321 2.135 . S
O314 Co313 2.061 . S
O314 C317 1.235 . S
C315 O318 1.238 . S
C315 O319 1.241 . S
C316 O309 1.247 . S
C316 O310 1.261 . S
C317 O312 1.259 . S
C317 O314 1.235 . S
O318 Co308 2.021 . S
O318 C315 1.238 . S
O319 Co313 2.052 . S
O319 C315 1.241 . S
O320 Co308 2.137 . S
O320 C311 1.247 . S
O321 Co308 2.244 . S
O321 C311 1.272 . S
O321 Co313 2.135 . S
Co322 O323 2.216 . S
Co322 O324 2.091 . S
Co322 O326 2.004 . S
Co322 O332 2.021 . S
Co322 O334 2.137 . S
Co322 O335 2.244 . S
O323 Co322 2.216 . S
O323 C330 1.247 . S
O324 Co322 2.091 . S
O324 C330 1.261 . S
C325 O334 1.247 . S
C325 O335 1.272 . S
O326 Co322 2.004 . S
O326 C331 1.259 . S
Co327 O328 2.061 . S
Co327 O333 2.052 . S
Co327 O335 2.135 . S
O328 Co327 2.061 . S
O328 C331 1.235 . S
C329 O332 1.238 . S
C329 O333 1.241 . S
C330 O323 1.247 . S
C330 O324 1.261 . S
C331 O326 1.259 . S
C331 O328 1.235 . S
O332 Co322 2.021 . S
O332 C329 1.238 . S
O333 Co327 2.052 . S
O333 C329 1.241 . S
O334 Co322 2.137 . S
O334 C325 1.247 . S
O335 Co322 2.244 . S
O335 C325 1.272 . S
O335 Co327 2.135 . S
Co336 O337 2.216 . S
Co336 O338 2.091 . S
Co336 O340 2.004 . S
Co336 O346 2.021 . S
Co336 O348 2.137 . S
Co336 O349 2.244 . S
O337 Co336 2.216 . S
O337 C344 1.247 . S
O338 Co336 2.091 . S
O338 C344 1.261 . S
C339 O348 1.247 . S
C339 O349 1.272 . S
O340 Co336 2.004 . S
O340 C345 1.259 . S
Co341 O342 2.061 . S
Co341 O347 2.052 . S
Co341 O349 2.135 . S
O342 Co341 2.061 . S
O342 C345 1.235 . S
C343 O346 1.238 . S
C343 O347 1.241 . S
C344 O337 1.247 . S
C344 O338 1.261 . S
C345 O340 1.259 . S
C345 O342 1.235 . S
O346 Co336 2.021 . S
O346 C343 1.238 . S
O347 Co341 2.052 . S
O347 C343 1.241 . S
O348 Co336 2.137 . S
O348 C339 1.247 . S
O349 Co336 2.244 . S
O349 C339 1.272 . S
O349 Co341 2.135 . S
Co350 O351 2.216 . S
Co350 O352 2.091 . S
Co350 O354 2.004 . S
Co350 O360 2.021 . S
Co350 O362 2.137 . S
Co350 O363 2.244 . S
O351 Co350 2.216 . S
O351 C358 1.247 . S
O352 Co350 2.091 . S
O352 C358 1.261 . S
C353 O362 1.247 . S
C353 O363 1.272 . S
O354 Co350 2.004 . S
O354 C359 1.259 . S
Co355 O356 2.061 . S
Co355 O361 2.052 . S
Co355 O363 2.135 . S
O356 Co355 2.061 . S
O356 C359 1.235 . S
C357 O360 1.238 . S
C357 O361 1.241 . S
C358 O351 1.247 . S
C358 O352 1.261 . S
C359 O354 1.259 . S
C359 O356 1.235 . S
O360 Co350 2.021 . S
O360 C357 1.238 . S
O361 Co355 2.052 . S
O361 C357 1.241 . S
O362 Co350 2.137 . S
O362 C353 1.247 . S
O363 Co350 2.244 . S
O363 C353 1.272 . S
O363 Co355 2.135 . S
Co364 O365 2.216 . S
Co364 O366 2.091 . S
Co364 O368 2.004 . S
Co364 O374 2.021 . S
Co364 O376 2.137 . S
Co364 O377 2.244 . S
O365 Co364 2.216 . S
O365 C372 1.247 . S
O366 Co364 2.091 . S
O366 C372 1.261 . S
C367 O376 1.247 . S
C367 O377 1.272 . S
O368 Co364 2.004 . S
O368 C373 1.259 . S
Co369 O370 2.061 . S
Co369 O375 2.052 . S
Co369 O377 2.135 . S
O370 Co369 2.061 . S
O370 C373 1.235 . S
C371 O374 1.238 . S
C371 O375 1.241 . S
C372 O365 1.247 . S
C372 O366 1.261 . S
C373 O368 1.259 . S
C373 O370 1.235 . S
O374 Co364 2.021 . S
O374 C371 1.238 . S
O375 Co369 2.052 . S
O375 C371 1.241 . S
O376 Co364 2.137 . S
O376 C367 1.247 . S
O377 Co364 2.244 . S
O377 C367 1.272 . S
O377 Co369 2.135 . S
Co378 O379 2.216 . S
Co378 O380 2.091 . S
Co378 O382 2.004 . S
Co378 O388 2.021 . S
Co378 O390 2.137 . S
Co378 O391 2.244 . S
O379 Co378 2.216 . S
O379 C386 1.247 . S
O380 Co378 2.091 . S
O380 C386 1.261 . S
C381 O390 1.247 . S
C381 O391 1.272 . S
O382 Co378 2.004 . S
O382 C387 1.259 . S
Co383 O384 2.061 . S
Co383 O389 2.052 . S
Co383 O391 2.135 . S
O384 Co383 2.061 . S
O384 C387 1.235 . S
C385 O388 1.238 . S
C385 O389 1.241 . S
C386 O379 1.247 . S
C386 O380 1.261 . S
C387 O382 1.259 . S
C387 O384 1.235 . S
O388 Co378 2.021 . S
O388 C385 1.238 . S
O389 Co383 2.052 . S
O389 C385 1.241 . S
O390 Co378 2.137 . S
O390 C381 1.247 . S
O391 Co378 2.244 . S
O391 C381 1.272 . S
O391 Co383 2.135 . S
Co392 O393 2.216 . S
Co392 O394 2.091 . S
Co392 O396 2.004 . S
Co392 O402 2.021 . S
Co392 O404 2.137 . S
Co392 O405 2.244 . S
O393 Co392 2.216 . S
O393 C400 1.247 . S
O394 Co392 2.091 . S
O394 C400 1.261 . S
C395 O404 1.247 . S
C395 O405 1.272 . S
O396 Co392 2.004 . S
O396 C401 1.259 . S
Co397 O398 2.061 . S
Co397 O403 2.052 . S
Co397 O405 2.135 . S
O398 Co397 2.061 . S
O398 C401 1.235 . S
C399 O402 1.238 . S
C399 O403 1.241 . S
C400 O393 1.247 . S
C400 O394 1.261 . S
C401 O396 1.259 . S
C401 O398 1.235 . S
O402 Co392 2.021 . S
O402 C399 1.238 . S
O403 Co397 2.052 . S
O403 C399 1.241 . S
O404 Co392 2.137 . S
O404 C395 1.247 . S
O405 Co392 2.244 . S
O405 C395 1.272 . S
O405 Co397 2.135 . S
Co406 O407 2.216 . S
Co406 O408 2.091 . S
Co406 O410 2.004 . S
Co406 O416 2.021 . S
Co406 O418 2.137 . S
Co406 O419 2.244 . S
O407 Co406 2.216 . S
O407 C414 1.247 . S
O408 Co406 2.091 . S
O408 C414 1.261 . S
C409 O418 1.247 . S
C409 O419 1.272 . S
O410 Co406 2.004 . S
O410 C415 1.259 . S
Co411 O412 2.061 . S
Co411 O417 2.052 . S
Co411 O419 2.135 . S
O412 Co411 2.061 . S
O412 C415 1.235 . S
C413 O416 1.238 . S
C413 O417 1.241 . S
C414 O407 1.247 . S
C414 O408 1.261 . S
C415 O410 1.259 . S
C415 O412 1.235 . S
O416 Co406 2.021 . S
O416 C413 1.238 . S
O417 Co411 2.052 . S
O417 C413 1.241 . S
O418 Co406 2.137 . S
O418 C409 1.247 . S
O419 Co406 2.244 . S
O419 C409 1.272 . S
O419 Co411 2.135 . S
Co420 O421 2.216 . S
Co420 O422 2.091 . S
Co420 O424 2.004 . S
Co420 O430 2.021 . S
Co420 O432 2.137 . S
Co420 O433 2.244 . S
O421 Co420 2.216 . S
O421 C428 1.247 . S
O422 Co420 2.091 . S
O422 C428 1.261 . S
C423 O432 1.247 . S
C423 O433 1.272 . S
O424 Co420 2.004 . S
O424 C429 1.259 . S
Co425 O426 2.061 . S
Co425 O431 2.052 . S
Co425 O433 2.135 . S
O426 Co425 2.061 . S
O426 C429 1.235 . S
C427 O430 1.238 . S
C427 O431 1.241 . S
C428 O421 1.247 . S
C428 O422 1.261 . S
C429 O424 1.259 . S
C429 O426 1.235 . S
O430 Co420 2.021 . S
O430 C427 1.238 . S
O431 Co425 2.052 . S
O431 C427 1.241 . S
O432 Co420 2.137 . S
O432 C423 1.247 . S
O433 Co420 2.244 . S
O433 C423 1.272 . S
O433 Co425 2.135 . S
Co434 O435 2.216 . S
Co434 O436 2.091 . S
Co434 O438 2.004 . S
Co434 O444 2.021 . S
Co434 O446 2.137 . S
Co434 O447 2.244 . S
O435 Co434 2.216 . S
O435 C442 1.247 . S
O436 Co434 2.091 . S
O436 C442 1.261 . S
C437 O446 1.247 . S
C437 O447 1.272 . S
O438 Co434 2.004 . S
O438 C443 1.259 . S
Co439 O440 2.061 . S
Co439 O445 2.052 . S
Co439 O447 2.135 . S
O440 Co439 2.061 . S
O440 C443 1.235 . S
C441 O444 1.238 . S
C441 O445 1.241 . S
C442 O435 1.247 . S
C442 O436 1.261 . S
C443 O438 1.259 . S
C443 O440 1.235 . S
O444 Co434 2.021 . S
O444 C441 1.238 . S
O445 Co439 2.052 . S
O445 C441 1.241 . S
O446 Co434 2.137 . S
O446 C437 1.247 . S
O447 Co434 2.244 . S
O447 C437 1.272 . S
O447 Co439 2.135 . S
H448 C454 0.930 . S
H449 C457 0.930 . S
H450 C458 0.930 . S
H451 C459 0.930 . S
H452 C462 0.930 . S
H453 C463 0.930 . S
C454 H448 0.930 . S
C454 C455 1.355 . S
C454 C456 1.415 . S
C455 C454 1.355 . S
C455 C457 1.419 . S
C456 C454 1.415 . S
C456 C461 1.425 . S
C456 C463 1.409 . S
C457 H449 0.930 . S
C457 C455 1.419 . S
C457 C458 1.362 . S
C458 H450 0.930 . S
C458 C457 1.362 . S
C458 C461 1.409 . S
C459 H451 0.930 . S
C459 C460 1.355 . S
C459 C461 1.415 . S
C460 C459 1.355 . S
C460 C462 1.419 . S
C461 C456 1.425 . S
C461 C458 1.409 . S
C461 C459 1.415 . S
C462 H452 0.930 . S
C462 C460 1.419 . S
C462 C463 1.362 . S
C463 H453 0.930 . S
C463 C456 1.409 . S
C463 C462 1.362 . S
H464 C470 0.930 . S
H465 C473 0.930 . S
H466 C474 0.930 . S
H467 C475 0.930 . S
H468 C478 0.930 . S
H469 C479 0.930 . S
C470 H464 0.930 . S
C470 C471 1.355 . S
C470 C472 1.415 . S
C471 C470 1.355 . S
C471 C473 1.419 . S
C472 C470 1.415 . S
C472 C477 1.425 . S
C472 C479 1.409 . S
C473 H465 0.930 . S
C473 C471 1.419 . S
C473 C474 1.362 . S
C474 H466 0.930 . S
C474 C473 1.362 . S
C474 C477 1.409 . S
C475 H467 0.930 . S
C475 C476 1.355 . S
C475 C477 1.415 . S
C476 C475 1.355 . S
C476 C478 1.419 . S
C477 C472 1.425 . S
C477 C474 1.409 . S
C477 C475 1.415 . S
C478 H468 0.930 . S
C478 C476 1.419 . S
C478 C479 1.362 . S
C479 H469 0.930 . S
C479 C472 1.409 . S
C479 C478 1.362 . S
H480 C486 0.930 . S
H481 C489 0.930 . S
H482 C490 0.930 . S
H483 C491 0.930 . S
H484 C494 0.930 . S
H485 C495 0.930 . S
C486 H480 0.930 . S
C486 C487 1.355 . S
C486 C488 1.415 . S
C487 C486 1.355 . S
C487 C489 1.419 . S
C488 C486 1.415 . S
C488 C493 1.425 . S
C488 C495 1.409 . S
C489 H481 0.930 . S
C489 C487 1.419 . S
C489 C490 1.362 . S
C490 H482 0.930 . S
C490 C489 1.362 . S
C490 C493 1.409 . S
C491 H483 0.930 . S
C491 C492 1.355 . S
C491 C493 1.415 . S
C492 C491 1.355 . S
C492 C494 1.419 . S
C493 C488 1.425 . S
C493 C490 1.409 . S
C493 C491 1.415 . S
C494 H484 0.930 . S
C494 C492 1.419 . S
C494 C495 1.362 . S
C495 H485 0.930 . S
C495 C488 1.409 . S
C495 C494 1.362 . S
H496 C502 0.930 . S
H497 C505 0.930 . S
H498 C506 0.930 . S
H499 C507 0.930 . S
H500 C510 0.930 . S
H501 C511 0.930 . S
C502 H496 0.930 . S
C502 C503 1.355 . S
C502 C504 1.415 . S
C503 C502 1.355 . S
C503 C505 1.419 . S
C504 C502 1.415 . S
C504 C509 1.425 . S
C504 C511 1.409 . S
C505 H497 0.930 . S
C505 C503 1.419 . S
C505 C506 1.362 . S
C506 H498 0.930 . S
C506 C505 1.362 . S
C506 C509 1.409 . S
C507 H499 0.930 . S
C507 C508 1.355 . S
C507 C509 1.415 . S
C508 C507 1.355 . S
C508 C510 1.419 . S
C509 C504 1.425 . S
C509 C506 1.409 . S
C509 C507 1.415 . S
C510 H500 0.930 . S
C510 C508 1.419 . S
C510 C511 1.362 . S
C511 H501 0.930 . S
C511 C504 1.409 . S
C511 C510 1.362 . S
H512 C518 0.930 . S
H513 C521 0.930 . S
H514 C522 0.930 . S
H515 C523 0.930 . S
H516 C526 0.930 . S
H517 C527 0.930 . S
C518 H512 0.930 . S
C518 C519 1.355 . S
C518 C520 1.415 . S
C519 C518 1.355 . S
C519 C521 1.419 . S
C520 C518 1.415 . S
C520 C525 1.425 . S
C520 C527 1.409 . S
C521 H513 0.930 . S
C521 C519 1.419 . S
C521 C522 1.362 . S
C522 H514 0.930 . S
C522 C521 1.362 . S
C522 C525 1.409 . S
C523 H515 0.930 . S
C523 C524 1.355 . S
C523 C525 1.415 . S
C524 C523 1.355 . S
C524 C526 1.419 . S
C525 C520 1.425 . S
C525 C522 1.409 . S
C525 C523 1.415 . S
C526 H516 0.930 . S
C526 C524 1.419 . S
C526 C527 1.362 . S
C527 H517 0.930 . S
C527 C520 1.409 . S
C527 C526 1.362 . S
H528 C534 0.930 . S
H529 C537 0.930 . S
H530 C538 0.930 . S
H531 C539 0.930 . S
H532 C542 0.930 . S
H533 C543 0.930 . S
C534 H528 0.930 . S
C534 C535 1.355 . S
C534 C536 1.415 . S
C535 C534 1.355 . S
C535 C537 1.419 . S
C536 C534 1.415 . S
C536 C541 1.425 . S
C536 C543 1.409 . S
C537 H529 0.930 . S
C537 C535 1.419 . S
C537 C538 1.362 . S
C538 H530 0.930 . S
C538 C537 1.362 . S
C538 C541 1.409 . S
C539 H531 0.930 . S
C539 C540 1.355 . S
C539 C541 1.415 . S
C540 C539 1.355 . S
C540 C542 1.419 . S
C541 C536 1.425 . S
C541 C538 1.409 . S
C541 C539 1.415 . S
C542 H532 0.930 . S
C542 C540 1.419 . S
C542 C543 1.362 . S
C543 H533 0.930 . S
C543 C536 1.409 . S
C543 C542 1.362 . S
H544 C550 0.930 . S
H545 C553 0.930 . S
H546 C554 0.930 . S
H547 C555 0.930 . S
H548 C558 0.930 . S
H549 C559 0.930 . S
C550 H544 0.930 . S
C550 C551 1.355 . S
C550 C552 1.415 . S
C551 C550 1.355 . S
C551 C553 1.419 . S
C552 C550 1.415 . S
C552 C557 1.425 . S
C552 C559 1.409 . S
C553 H545 0.930 . S
C553 C551 1.419 . S
C553 C554 1.362 . S
C554 H546 0.930 . S
C554 C553 1.362 . S
C554 C557 1.409 . S
C555 H547 0.930 . S
C555 C556 1.355 . S
C555 C557 1.415 . S
C556 C555 1.355 . S
C556 C558 1.419 . S
C557 C552 1.425 . S
C557 C554 1.409 . S
C557 C555 1.415 . S
C558 H548 0.930 . S
C558 C556 1.419 . S
C558 C559 1.362 . S
C559 H549 0.930 . S
C559 C552 1.409 . S
C559 C558 1.362 . S
H560 C566 0.930 . S
H561 C569 0.930 . S
H562 C570 0.930 . S
H563 C571 0.930 . S
H564 C574 0.930 . S
H565 C575 0.930 . S
C566 H560 0.930 . S
C566 C567 1.355 . S
C566 C568 1.415 . S
C567 C566 1.355 . S
C567 C569 1.419 . S
C568 C566 1.415 . S
C568 C573 1.425 . S
C568 C575 1.409 . S
C569 H561 0.930 . S
C569 C567 1.419 . S
C569 C570 1.362 . S
C570 H562 0.930 . S
C570 C569 1.362 . S
C570 C573 1.409 . S
C571 H563 0.930 . S
C571 C572 1.355 . S
C571 C573 1.415 . S
C572 C571 1.355 . S
C572 C574 1.419 . S
C573 C568 1.425 . S
C573 C570 1.409 . S
C573 C571 1.415 . S
C574 H564 0.930 . S
C574 C572 1.419 . S
C574 C575 1.362 . S
C575 H565 0.930 . S
C575 C568 1.409 . S
C575 C574 1.362 . S
H576 C582 0.930 . S
H577 C585 0.930 . S
H578 C586 0.930 . S
H579 C587 0.930 . S
H580 C590 0.930 . S
H581 C591 0.930 . S
C582 H576 0.930 . S
C582 C583 1.355 . S
C582 C584 1.415 . S
C583 C582 1.355 . S
C583 C585 1.419 . S
C584 C582 1.415 . S
C584 C589 1.425 . S
C584 C591 1.409 . S
C585 H577 0.930 . S
C585 C583 1.419 . S
C585 C586 1.362 . S
C586 H578 0.930 . S
C586 C585 1.362 . S
C586 C589 1.409 . S
C587 H579 0.930 . S
C587 C588 1.355 . S
C587 C589 1.415 . S
C588 C587 1.355 . S
C588 C590 1.419 . S
C589 C584 1.425 . S
C589 C586 1.409 . S
C589 C587 1.415 . S
C590 H580 0.930 . S
C590 C588 1.419 . S
C590 C591 1.362 . S
C591 H581 0.930 . S
C591 C584 1.409 . S
C591 C590 1.362 . S
H592 C598 0.930 . S
H593 C601 0.930 . S
H594 C602 0.930 . S
H595 C603 0.930 . S
H596 C606 0.930 . S
H597 C607 0.930 . S
C598 H592 0.930 . S
C598 C599 1.355 . S
C598 C600 1.415 . S
C599 C598 1.355 . S
C599 C601 1.419 . S
C600 C598 1.415 . S
C600 C605 1.425 . S
C600 C607 1.409 . S
C601 H593 0.930 . S
C601 C599 1.419 . S
C601 C602 1.362 . S
C602 H594 0.930 . S
C602 C601 1.362 . S
C602 C605 1.409 . S
C603 H595 0.930 . S
C603 C604 1.355 . S
C603 C605 1.415 . S
C604 C603 1.355 . S
C604 C606 1.419 . S
C605 C600 1.425 . S
C605 C602 1.409 . S
C605 C603 1.415 . S
C606 H596 0.930 . S
C606 C604 1.419 . S
C606 C607 1.362 . S
C607 H597 0.930 . S
C607 C600 1.409 . S
C607 C606 1.362 . S
H608 C614 0.930 . S
H609 C617 0.930 . S
H610 C618 0.930 . S
H611 C619 0.930 . S
H612 C622 0.930 . S
H613 C623 0.930 . S
C614 H608 0.930 . S
C614 C615 1.355 . S
C614 C616 1.415 . S
C615 C614 1.355 . S
C615 C617 1.419 . S
C616 C614 1.415 . S
C616 C621 1.425 . S
C616 C623 1.409 . S
C617 H609 0.930 . S
C617 C615 1.419 . S
C617 C618 1.362 . S
C618 H610 0.930 . S
C618 C617 1.362 . S
C618 C621 1.409 . S
C619 H611 0.930 . S
C619 C620 1.355 . S
C619 C621 1.415 . S
C620 C619 1.355 . S
C620 C622 1.419 . S
C621 C616 1.425 . S
C621 C618 1.409 . S
C621 C619 1.415 . S
C622 H612 0.930 . S
C622 C620 1.419 . S
C622 C623 1.362 . S
C623 H613 0.930 . S
C623 C616 1.409 . S
C623 C622 1.362 . S
H624 C630 0.930 . S
H625 C633 0.930 . S
H626 C634 0.930 . S
H627 C635 0.930 . S
H628 C638 0.930 . S
H629 C639 0.930 . S
C630 H624 0.930 . S
C630 C631 1.355 . S
C630 C632 1.415 . S
C631 C630 1.355 . S
C631 C633 1.419 . S
C632 C630 1.415 . S
C632 C637 1.425 . S
C632 C639 1.409 . S
C633 H625 0.930 . S
C633 C631 1.419 . S
C633 C634 1.362 . S
C634 H626 0.930 . S
C634 C633 1.362 . S
C634 C637 1.409 . S
C635 H627 0.930 . S
C635 C636 1.355 . S
C635 C637 1.415 . S
C636 C635 1.355 . S
C636 C638 1.419 . S
C637 C632 1.425 . S
C637 C634 1.409 . S
C637 C635 1.415 . S
C638 H628 0.930 . S
C638 C636 1.419 . S
C638 C639 1.362 . S
C639 H629 0.930 . S
C639 C632 1.409 . S
C639 C638 1.362 . S
H640 C646 0.930 . S
H641 C649 0.930 . S
H642 C650 0.930 . S
H643 C651 0.930 . S
H644 C654 0.930 . S
H645 C655 0.930 . S
C646 H640 0.930 . S
C646 C647 1.355 . S
C646 C648 1.415 . S
C647 C646 1.355 . S
C647 C649 1.419 . S
C648 C646 1.415 . S
C648 C653 1.425 . S
C648 C655 1.409 . S
C649 H641 0.930 . S
C649 C647 1.419 . S
C649 C650 1.362 . S
C650 H642 0.930 . S
C650 C649 1.362 . S
C650 C653 1.409 . S
C651 H643 0.930 . S
C651 C652 1.355 . S
C651 C653 1.415 . S
C652 C651 1.355 . S
C652 C654 1.419 . S
C653 C648 1.425 . S
C653 C650 1.409 . S
C653 C651 1.415 . S
C654 H644 0.930 . S
C654 C652 1.419 . S
C654 C655 1.362 . S
C655 H645 0.930 . S
C655 C648 1.409 . S
C655 C654 1.362 . S
H656 C662 0.930 . S
H657 C665 0.930 . S
H658 C666 0.930 . S
H659 C667 0.930 . S
H660 C670 0.930 . S
H661 C671 0.930 . S
C662 H656 0.930 . S
C662 C663 1.355 . S
C662 C664 1.415 . S
C663 C662 1.355 . S
C663 C665 1.419 . S
C664 C662 1.415 . S
C664 C669 1.425 . S
C664 C671 1.409 . S
C665 H657 0.930 . S
C665 C663 1.419 . S
C665 C666 1.362 . S
C666 H658 0.930 . S
C666 C665 1.362 . S
C666 C669 1.409 . S
C667 H659 0.930 . S
C667 C668 1.355 . S
C667 C669 1.415 . S
C668 C667 1.355 . S
C668 C670 1.419 . S
C669 C664 1.425 . S
C669 C666 1.409 . S
C669 C667 1.415 . S
C670 H660 0.930 . S
C670 C668 1.419 . S
C670 C671 1.362 . S
C671 H661 0.930 . S
C671 C664 1.409 . S
C671 C670 1.362 . S
H672 C678 0.930 . S
H673 C681 0.930 . S
H674 C682 0.930 . S
H675 C683 0.930 . S
H676 C686 0.930 . S
H677 C687 0.930 . S
C678 H672 0.930 . S
C678 C679 1.355 . S
C678 C680 1.415 . S
C679 C678 1.355 . S
C679 C681 1.419 . S
C680 C678 1.415 . S
C680 C685 1.425 . S
C680 C687 1.409 . S
C681 H673 0.930 . S
C681 C679 1.419 . S
C681 C682 1.362 . S
C682 H674 0.930 . S
C682 C681 1.362 . S
C682 C685 1.409 . S
C683 H675 0.930 . S
C683 C684 1.355 . S
C683 C685 1.415 . S
C684 C683 1.355 . S
C684 C686 1.419 . S
C685 C680 1.425 . S
C685 C682 1.409 . S
C685 C683 1.415 . S
C686 H676 0.930 . S
C686 C684 1.419 . S
C686 C687 1.362 . S
C687 H677 0.930 . S
C687 C680 1.409 . S
C687 C686 1.362 . S
H688 C694 0.930 . S
H689 C697 0.930 . S
H690 C698 0.930 . S
H691 C699 0.930 . S
H692 C702 0.930 . S
H693 C703 0.930 . S
C694 H688 0.930 . S
C694 C695 1.355 . S
C694 C696 1.415 . S
C695 C694 1.355 . S
C695 C697 1.419 . S
C696 C694 1.415 . S
C696 C701 1.425 . S
C696 C703 1.409 . S
C697 H689 0.930 . S
C697 C695 1.419 . S
C697 C698 1.362 . S
C698 H690 0.930 . S
C698 C697 1.362 . S
C698 C701 1.409 . S
C699 H691 0.930 . S
C699 C700 1.355 . S
C699 C701 1.415 . S
C700 C699 1.355 . S
C700 C702 1.419 . S
C701 C696 1.425 . S
C701 C698 1.409 . S
C701 C699 1.415 . S
C702 H692 0.930 . S
C702 C700 1.419 . S
C702 C703 1.362 . S
C703 H693 0.930 . S
C703 C696 1.409 . S
C703 C702 1.362 . S
H704 C710 0.945 . S
H705 C713 0.930 . S
H706 C714 0.930 . S
H707 C715 0.930 . S
H708 C718 0.930 . S
H709 C719 0.930 . S
C710 H704 0.945 . S
C710 C711 1.342 1_556 S
C710 C712 1.412 1_556 S
C711 C710 1.342 1_554 S
C711 C713 1.419 . S
C712 C710 1.412 1_554 S
C712 C717 1.425 1_455 S
C712 C719 1.409 1_454 S
C713 H705 0.930 . S
C713 C711 1.419 . S
C713 C714 1.362 . S
C714 H706 0.930 . S
C714 C713 1.362 . S
C714 C717 1.409 1_455 S
C715 H707 0.930 . S
C715 C716 1.355 . S
C715 C717 1.415 . S
C716 C715 1.355 . S
C716 C718 1.419 1_554 S
C717 C712 1.425 1_655 S
C717 C714 1.409 1_655 S
C717 C715 1.415 . S
C718 H708 0.930 . S
C718 C716 1.419 1_556 S
C718 C719 1.362 . S
C719 H709 0.930 . S
C719 C712 1.409 1_656 S
C719 C718 1.362 . S
H720 C726 0.930 . S
H721 C729 0.930 . S
H722 C730 0.930 . S
H723 C731 0.930 . S
H724 C734 0.930 . S
H725 C735 0.930 . S
C726 H720 0.930 . S
C726 C727 1.355 . S
C726 C728 1.415 . S
C727 C726 1.355 . S
C727 C729 1.419 . S
C728 C726 1.415 . S
C728 C733 1.425 . S
C728 C735 1.409 . S
C729 H721 0.930 . S
C729 C727 1.419 . S
C729 C730 1.362 . S
C730 H722 0.930 . S
C730 C729 1.362 . S
C730 C733 1.409 . S
C731 H723 0.930 . S
C731 C732 1.355 . S
C731 C733 1.415 . S
C732 C731 1.355 . S
C732 C734 1.419 . S
C733 C728 1.425 . S
C733 C730 1.409 . S
C733 C731 1.415 . S
C734 H724 0.930 . S
C734 C732 1.419 . S
C734 C735 1.362 . S
C735 H725 0.930 . S
C735 C728 1.409 . S
C735 C734 1.362 . S
H736 C742 0.930 . S
H737 C745 0.930 . S
H738 C746 0.930 . S
H739 C747 0.930 . S
H740 C750 0.930 . S
H741 C751 0.930 . S
C742 H736 0.930 . S
C742 C743 1.355 . S
C742 C744 1.415 . S
C743 C742 1.355 . S
C743 C745 1.419 . S
C744 C742 1.415 . S
C744 C749 1.425 . S
C744 C751 1.409 . S
C745 H737 0.930 . S
C745 C743 1.419 . S
C745 C746 1.362 . S
C746 H738 0.930 . S
C746 C745 1.362 . S
C746 C749 1.409 . S
C747 H739 0.930 . S
C747 C748 1.355 . S
C747 C749 1.415 . S
C748 C747 1.355 . S
C748 C750 1.419 . S
C749 C744 1.425 . S
C749 C746 1.409 . S
C749 C747 1.415 . S
C750 H740 0.930 . S
C750 C748 1.419 . S
C750 C751 1.362 . S
C751 H741 0.930 . S
C751 C744 1.409 . S
C751 C750 1.362 . S
H752 C758 0.930 . S
H753 C761 0.930 . S
H754 C762 0.930 . S
H755 C763 0.930 . S
H756 C766 0.930 . S
H757 C767 0.930 . S
C758 H752 0.930 . S
C758 C759 1.355 . S
C758 C760 1.415 . S
C759 C758 1.355 . S
C759 C761 1.419 . S
C760 C758 1.415 . S
C760 C765 1.425 . S
C760 C767 1.409 . S
C761 H753 0.930 . S
C761 C759 1.419 . S
C761 C762 1.362 . S
C762 H754 0.930 . S
C762 C761 1.362 . S
C762 C765 1.409 . S
C763 H755 0.930 . S
C763 C764 1.355 . S
C763 C765 1.415 . S
C764 C763 1.355 . S
C764 C766 1.419 . S
C765 C760 1.425 . S
C765 C762 1.409 . S
C765 C763 1.415 . S
C766 H756 0.930 . S
C766 C764 1.419 . S
C766 C767 1.362 . S
C767 H757 0.930 . S
C767 C760 1.409 . S
C767 C766 1.362 . S
H768 C774 0.930 . S
H769 C777 0.930 . S
H770 C778 0.930 . S
H771 C779 0.930 . S
H772 C782 0.930 . S
H773 C783 0.930 . S
C774 H768 0.930 . S
C774 C775 1.355 1_554 S
C774 C776 1.415 1_554 S
C775 C774 1.355 1_556 S
C775 C777 1.419 . S
C776 C774 1.415 1_556 S
C776 C781 1.425 1_655 S
C776 C783 1.409 1_656 S
C777 H769 0.930 . S
C777 C775 1.419 . S
C777 C778 1.362 . S
C778 H770 0.930 . S
C778 C777 1.362 . S
C778 C781 1.409 1_655 S
C779 H771 0.930 . S
C779 C780 1.355 . S
C779 C781 1.415 . S
C780 C779 1.355 . S
C780 C782 1.419 1_556 S
C781 C776 1.425 1_455 S
C781 C778 1.409 1_455 S
C781 C779 1.415 . S
C782 H772 0.930 . S
C782 C780 1.419 1_554 S
C782 C783 1.362 . S
C783 H773 0.930 . S
C783 C776 1.409 1_454 S
C783 C782 1.362 . S
H784 C790 0.930 . S
H785 C793 0.930 . S
H786 C794 0.930 . S
H787 C795 0.930 . S
H788 C798 0.930 . S
H789 C799 0.930 . S
C790 H784 0.930 . S
C790 C791 1.355 . S
C790 C792 1.415 . S
C791 C790 1.355 . S
C791 C793 1.419 . S
C792 C790 1.415 . S
C792 C797 1.425 . S
C792 C799 1.409 . S
C793 H785 0.930 . S
C793 C791 1.419 . S
C793 C794 1.362 . S
C794 H786 0.930 . S
C794 C793 1.362 . S
C794 C797 1.409 . S
C795 H787 0.930 . S
C795 C796 1.355 . S
C795 C797 1.415 . S
C796 C795 1.355 . S
C796 C798 1.419 . S
C797 C792 1.425 . S
C797 C794 1.409 . S
C797 C795 1.415 . S
C798 H788 0.930 . S
C798 C796 1.419 . S
C798 C799 1.362 . S
C799 H789 0.930 . S
C799 C792 1.409 . S
C799 C798 1.362 . S
H800 C806 0.930 . S
H801 C809 0.930 . S
H802 C810 0.930 . S
H803 C811 0.930 . S
H804 C814 0.930 . S
H805 C815 0.930 . S
C806 H800 0.930 . S
C806 C807 1.355 . S
C806 C808 1.415 . S
C807 C806 1.355 . S
C807 C809 1.419 . S
C808 C806 1.415 . S
C808 C813 1.425 . S
C808 C815 1.409 . S
C809 H801 0.930 . S
C809 C807 1.419 . S
C809 C810 1.362 . S
C810 H802 0.930 . S
C810 C809 1.362 . S
C810 C813 1.409 . S
C811 H803 0.930 . S
C811 C812 1.355 . S
C811 C813 1.415 . S
C812 C811 1.355 . S
C812 C814 1.419 . S
C813 C808 1.425 . S
C813 C810 1.409 . S
C813 C811 1.415 . S
C814 H804 0.930 . S
C814 C812 1.419 . S
C814 C815 1.362 . S
C815 H805 0.930 . S
C815 C808 1.409 . S
C815 C814 1.362 . S
H816 C822 0.930 . S
H817 C825 0.930 . S
H818 C826 0.930 . S
H819 C827 0.930 . S
H820 C830 0.930 . S
H821 C831 0.930 . S
C822 H816 0.930 . S
C822 C823 1.355 . S
C822 C824 1.415 . S
C823 C822 1.355 . S
C823 C825 1.419 . S
C824 C822 1.415 . S
C824 C829 1.425 . S
C824 C831 1.409 . S
C825 H817 0.930 . S
C825 C823 1.419 . S
C825 C826 1.362 . S
C826 H818 0.930 . S
C826 C825 1.362 . S
C826 C829 1.409 . S
C827 H819 0.930 . S
C827 C828 1.355 . S
C827 C829 1.415 . S
C828 C827 1.355 . S
C828 C830 1.419 . S
C829 C824 1.425 . S
C829 C826 1.409 . S
C829 C827 1.415 . S
C830 H820 0.930 . S
C830 C828 1.419 . S
C830 C831 1.362 . S
C831 H821 0.930 . S
C831 C824 1.409 . S
C831 C830 1.362 . S
H832 C838 0.930 . S
H833 C841 0.930 . S
H834 C842 0.930 . S
H835 C843 0.930 . S
H836 C846 0.930 . S
H837 C847 0.930 . S
C838 H832 0.930 . S
C838 C839 1.355 . S
C838 C840 1.415 . S
C839 C838 1.355 . S
C839 C841 1.419 . S
C840 C838 1.415 . S
C840 C845 1.425 . S
C840 C847 1.409 . S
C841 H833 0.930 . S
C841 C839 1.419 . S
C841 C842 1.362 . S
C842 H834 0.930 . S
C842 C841 1.362 . S
C842 C845 1.409 . S
C843 H835 0.930 . S
C843 C844 1.355 . S
C843 C845 1.415 . S
C844 C843 1.355 . S
C844 C846 1.419 . S
C845 C840 1.425 . S
C845 C842 1.409 . S
C845 C843 1.415 . S
C846 H836 0.930 . S
C846 C844 1.419 . S
C846 C847 1.362 . S
C847 H837 0.930 . S
C847 C840 1.409 . S
C847 C846 1.362 . S
H848 C854 0.930 . S
H849 C857 0.930 . S
H850 C858 0.930 . S
H851 C859 0.930 . S
H852 C862 0.930 . S
H853 C863 0.930 . S
C854 H848 0.930 . S
C854 C855 1.355 . S
C854 C856 1.415 . S
C855 C854 1.355 . S
C855 C857 1.419 . S
C856 C854 1.415 . S
C856 C861 1.425 . S
C856 C863 1.409 . S
C857 H849 0.930 . S
C857 C855 1.419 . S
C857 C858 1.362 . S
C858 H850 0.930 . S
C858 C857 1.362 . S
C858 C861 1.409 . S
C859 H851 0.930 . S
C859 C860 1.355 . S
C859 C861 1.415 . S
C860 C859 1.355 . S
C860 C862 1.419 . S
C861 C856 1.425 . S
C861 C858 1.409 . S
C861 C859 1.415 . S
C862 H852 0.930 . S
C862 C860 1.419 . S
C862 C863 1.362 . S
C863 H853 0.930 . S
C863 C856 1.409 . S
C863 C862 1.362 . S
H864 C870 0.930 . S
H865 C873 0.930 . S
H866 C874 0.930 . S
H867 C875 0.930 . S
H868 C878 0.930 . S
H869 C879 0.930 . S
C870 H864 0.930 . S
C870 C871 1.355 . S
C870 C872 1.415 . S
C871 C870 1.355 . S
C871 C873 1.419 . S
C872 C870 1.415 . S
C872 C877 1.425 . S
C872 C879 1.409 . S
C873 H865 0.930 . S
C873 C871 1.419 . S
C873 C874 1.362 . S
C874 H866 0.930 . S
C874 C873 1.362 . S
C874 C877 1.409 . S
C875 H867 0.930 . S
C875 C876 1.355 . S
C875 C877 1.415 . S
C876 C875 1.355 . S
C876 C878 1.419 . S
C877 C872 1.425 . S
C877 C874 1.409 . S
C877 C875 1.415 . S
C878 H868 0.930 . S
C878 C876 1.419 . S
C878 C879 1.362 . S
C879 H869 0.930 . S
C879 C872 1.409 . S
C879 C878 1.362 . S
H880 C886 0.930 . S
H881 C889 0.930 . S
H882 C890 0.930 . S
H883 C891 0.930 . S
H884 C894 0.930 . S
H885 C895 0.930 . S
C886 H880 0.930 . S
C886 C887 1.355 . S
C886 C888 1.415 . S
C887 C886 1.355 . S
C887 C889 1.419 . S
C888 C886 1.415 . S
C888 C893 1.425 . S
C888 C895 1.409 . S
C889 H881 0.930 . S
C889 C887 1.419 . S
C889 C890 1.362 . S
C890 H882 0.930 . S
C890 C889 1.362 . S
C890 C893 1.409 . S
C891 H883 0.930 . S
C891 C892 1.355 . S
C891 C893 1.415 . S
C892 C891 1.355 . S
C892 C894 1.419 . S
C893 C888 1.425 . S
C893 C890 1.409 . S
C893 C891 1.415 . S
C894 H884 0.930 . S
C894 C892 1.419 . S
C894 C895 1.362 . S
C895 H885 0.930 . S
C895 C888 1.409 . S
C895 C894 1.362 . S
H896 C902 0.930 . S
H897 C905 0.930 . S
H898 C906 0.930 . S
H899 C907 0.930 . S
H900 C910 0.930 . S
H901 C911 0.930 . S
C902 H896 0.930 . S
C902 C903 1.355 . S
C902 C904 1.415 . S
C903 C902 1.355 . S
C903 C905 1.419 . S
C904 C902 1.415 . S
C904 C909 1.425 . S
C904 C911 1.409 . S
C905 H897 0.930 . S
C905 C903 1.419 . S
C905 C906 1.362 . S
C906 H898 0.930 . S
C906 C905 1.362 . S
C906 C909 1.409 . S
C907 H899 0.930 . S
C907 C908 1.355 . S
C907 C909 1.415 . S
C908 C907 1.355 . S
C908 C910 1.419 . S
C909 C904 1.425 . S
C909 C906 1.409 . S
C909 C907 1.415 . S
C910 H900 0.930 . S
C910 C908 1.419 . S
C910 C911 1.362 . S
C911 H901 0.930 . S
C911 C904 1.409 . S
C911 C910 1.362 . S
H912 C918 0.930 . S
H913 C921 0.930 . S
H914 C922 0.930 . S
H915 C923 0.927 . S
H916 C926 0.930 . S
H917 C927 0.930 . S
C918 H912 0.930 . S
C918 C919 1.355 . S
C918 C920 1.415 . S
C919 C918 1.355 . S
C919 C921 1.419 1_554 S
C920 C918 1.415 . S
C920 C925 1.425 1_655 S
C920 C927 1.409 1_655 S
C921 H913 0.930 . S
C921 C919 1.419 1_556 S
C921 C922 1.362 . S
C922 H914 0.930 . S
C922 C921 1.362 . S
C922 C925 1.409 1_656 S
C923 H915 0.927 . S
C923 C924 1.357 1_556 S
C923 C925 1.415 1_556 S
C924 C923 1.357 1_554 S
C924 C926 1.419 . S
C925 C920 1.425 1_455 S
C925 C922 1.409 1_454 S
C925 C923 1.415 1_554 S
C926 H916 0.930 . S
C926 C924 1.419 . S
C926 C927 1.362 . S
C927 H917 0.930 . S
C927 C920 1.409 1_455 S
C927 C926 1.362 . S
H928 C934 0.930 . S
H929 C937 0.930 . S
H930 C938 0.930 . S
H931 C939 0.930 . S
H932 C942 0.930 . S
H933 C943 0.930 . S
C934 H928 0.930 . S
C934 C935 1.355 . S
C934 C936 1.415 . S
C935 C934 1.355 . S
C935 C937 1.419 . S
C936 C934 1.415 . S
C936 C941 1.425 . S
C936 C943 1.409 . S
C937 H929 0.930 . S
C937 C935 1.419 . S
C937 C938 1.362 . S
C938 H930 0.930 . S
C938 C937 1.362 . S
C938 C941 1.409 . S
C939 H931 0.930 . S
C939 C940 1.355 . S
C939 C941 1.415 . S
C940 C939 1.355 . S
C940 C942 1.419 . S
C941 C936 1.425 . S
C941 C938 1.409 . S
C941 C939 1.415 . S
C942 H932 0.930 . S
C942 C940 1.419 . S
C942 C943 1.362 . S
C943 H933 0.930 . S
C943 C936 1.409 . S
C943 C942 1.362 . S
H944 C950 0.930 . S
H945 C953 0.930 . S
H946 C954 0.930 . S
H947 C955 0.950 . S
H948 C958 0.930 . S
H949 C959 0.930 . S
C950 H944 0.930 . S
C950 C951 1.355 . S
C950 C952 1.415 . S
C951 C950 1.355 . S
C951 C953 1.419 1_556 S
C952 C950 1.415 . S
C952 C957 1.425 1_455 S
C952 C959 1.409 1_455 S
C953 H945 0.930 . S
C953 C951 1.419 1_554 S
C953 C954 1.362 . S
C954 H946 0.930 . S
C954 C953 1.362 . S
C954 C957 1.409 1_454 S
C955 H947 0.950 . S
C955 C956 1.338 1_554 S
C955 C957 1.412 1_554 S
C956 C955 1.338 1_556 S
C956 C958 1.419 . S
C957 C952 1.425 1_655 S
C957 C954 1.409 1_656 S
C957 C955 1.412 1_556 S
C958 H948 0.930 . S
C958 C956 1.419 . S
C958 C959 1.362 . S
C959 H949 0.930 . S
C959 C952 1.409 1_655 S
C959 C958 1.362 . S
H960 C966 0.930 . S
H961 C969 0.930 . S
H962 C970 0.930 . S
H963 C971 0.930 . S
H964 C974 0.930 . S
H965 C975 0.930 . S
C966 H960 0.930 . S
C966 C967 1.355 1_554 S
C966 C968 1.415 . S
C967 C966 1.355 1_556 S
C967 C969 1.419 . S
C968 C966 1.415 . S
C968 C973 1.425 1_554 S
C968 C975 1.409 . S
C969 H961 0.930 . S
C969 C967 1.419 . S
C969 C970 1.362 . S
C970 H962 0.930 . S
C970 C969 1.362 . S
C970 C973 1.409 . S
C971 H963 0.930 . S
C971 C972 1.355 1_556 S
C971 C973 1.415 . S
C972 C971 1.355 1_554 S
C972 C974 1.419 . S
C973 C968 1.425 1_556 S
C973 C970 1.409 . S
C973 C971 1.415 . S
C974 H964 0.930 . S
C974 C972 1.419 . S
C974 C975 1.362 . S
C975 H965 0.930 . S
C975 C968 1.409 . S
C975 C974 1.362 . S
H976 C982 0.930 . S
H977 C985 0.930 . S
H978 C986 0.930 . S
H979 C987 0.930 . S
H980 C990 0.930 . S
H981 C991 0.930 . S
C982 H976 0.930 . S
C982 C983 1.355 . S
C982 C984 1.415 . S
C983 C982 1.355 . S
C983 C985 1.419 . S
C984 C982 1.415 . S
C984 C989 1.425 . S
C984 C991 1.409 . S
C985 H977 0.930 . S
C985 C983 1.419 . S
C985 C986 1.362 . S
C986 H978 0.930 . S
C986 C985 1.362 . S
C986 C989 1.409 . S
C987 H979 0.930 . S
C987 C988 1.355 . S
C987 C989 1.415 . S
C988 C987 1.355 . S
C988 C990 1.419 . S
C989 C984 1.425 . S
C989 C986 1.409 . S
C989 C987 1.415 . S
C990 H980 0.930 . S
C990 C988 1.419 . S
C990 C991 1.362 . S
C991 H981 0.930 . S
C991 C984 1.409 . S
C991 C990 1.362 . S
H992 C998 0.930 . S
H993 C1001 0.930 . S
H994 C1002 0.930 . S
H995 C1003 0.930 . S
H996 C1006 0.930 . S
H997 C1007 0.930 . S
C998 H992 0.930 . S
C998 C999 1.355 . S
C998 C1000 1.415 . S
C999 C998 1.355 . S
C999 C1001 1.419 . S
C1000 C998 1.415 . S
C1000 C1005 1.425 . S
C1000 C1007 1.409 . S
C1001 H993 0.930 . S
C1001 C999 1.419 . S
C1001 C1002 1.362 . S
C1002 H994 0.930 . S
C1002 C1001 1.362 . S
C1002 C1005 1.409 . S
C1003 H995 0.930 . S
C1003 C1004 1.355 . S
C1003 C1005 1.415 . S
C1004 C1003 1.355 . S
C1004 C1006 1.419 . S
C1005 C1000 1.425 . S
C1005 C1002 1.409 . S
C1005 C1003 1.415 . S
C1006 H996 0.930 . S
C1006 C1004 1.419 . S
C1006 C1007 1.362 . S
C1007 H997 0.930 . S
C1007 C1000 1.409 . S
C1007 C1006 1.362 . S
H1008 C1014 0.930 . S
H1009 C1017 0.930 . S
H1010 C1018 0.930 . S
H1011 C1019 0.930 . S
H1012 C1022 0.930 . S
H1013 C1023 0.930 . S
C1014 H1008 0.930 . S
C1014 C1015 1.355 . S
C1014 C1016 1.415 . S
C1015 C1014 1.355 . S
C1015 C1017 1.419 . S
C1016 C1014 1.415 . S
C1016 C1021 1.425 . S
C1016 C1023 1.409 . S
C1017 H1009 0.930 . S
C1017 C1015 1.419 . S
C1017 C1018 1.362 . S
C1018 H1010 0.930 . S
C1018 C1017 1.362 . S
C1018 C1021 1.409 . S
C1019 H1011 0.930 . S
C1019 C1020 1.355 . S
C1019 C1021 1.415 . S
C1020 C1019 1.355 . S
C1020 C1022 1.419 . S
C1021 C1016 1.425 . S
C1021 C1018 1.409 . S
C1021 C1019 1.415 . S
C1022 H1012 0.930 . S
C1022 C1020 1.419 . S
C1022 C1023 1.362 . S
C1023 H1013 0.930 . S
C1023 C1016 1.409 . S
C1023 C1022 1.362 . S
H1024 C1030 0.930 . S
H1025 C1033 0.930 . S
H1026 C1034 0.930 . S
H1027 C1035 0.930 . S
H1028 C1038 0.930 . S
H1029 C1039 0.930 . S
C1030 H1024 0.930 . S
C1030 C1031 1.355 1_556 S
C1030 C1032 1.415 . S
C1031 C1030 1.355 1_554 S
C1031 C1033 1.419 . S
C1032 C1030 1.415 . S
C1032 C1037 1.425 1_556 S
C1032 C1039 1.409 . S
C1033 H1025 0.930 . S
C1033 C1031 1.419 . S
C1033 C1034 1.362 . S
C1034 H1026 0.930 . S
C1034 C1033 1.362 . S
C1034 C1037 1.409 . S
C1035 H1027 0.930 . S
C1035 C1036 1.355 1_554 S
C1035 C1037 1.415 . S
C1036 C1035 1.355 1_556 S
C1036 C1038 1.419 . S
C1037 C1032 1.425 1_554 S
C1037 C1034 1.409 . S
C1037 C1035 1.415 . S
C1038 H1028 0.930 . S
C1038 C1036 1.419 . S
C1038 C1039 1.362 . S
C1039 H1029 0.930 . S
C1039 C1032 1.409 . S
C1039 C1038 1.362 . S
H1040 C1046 0.930 . S
H1041 C1049 0.930 . S
H1042 C1050 0.930 . S
H1043 C1051 0.930 . S
H1044 C1054 0.930 . S
H1045 C1055 0.930 . S
C1046 H1040 0.930 . S
C1046 C1047 1.355 . S
C1046 C1048 1.415 . S
C1047 C1046 1.355 . S
C1047 C1049 1.419 . S
C1048 C1046 1.415 . S
C1048 C1053 1.425 . S
C1048 C1055 1.409 . S
C1049 H1041 0.930 . S
C1049 C1047 1.419 . S
C1049 C1050 1.362 . S
C1050 H1042 0.930 . S
C1050 C1049 1.362 . S
C1050 C1053 1.409 . S
C1051 H1043 0.930 . S
C1051 C1052 1.355 . S
C1051 C1053 1.415 . S
C1052 C1051 1.355 . S
C1052 C1054 1.419 . S
C1053 C1048 1.425 . S
C1053 C1050 1.409 . S
C1053 C1051 1.415 . S
C1054 H1044 0.930 . S
C1054 C1052 1.419 . S
C1054 C1055 1.362 . S
C1055 H1045 0.930 . S
C1055 C1048 1.409 . S
C1055 C1054 1.362 . S
H1056 C1062 0.930 . S
H1057 C1065 0.930 . S
H1058 C1066 0.930 . S
H1059 C1067 0.930 . S
H1060 C1070 0.930 . S
H1061 C1071 0.930 . S
C1062 H1056 0.930 . S
C1062 C1063 1.355 . S
C1062 C1064 1.415 . S
C1063 C1062 1.355 . S
C1063 C1065 1.419 . S
C1064 C1062 1.415 . S
C1064 C1069 1.425 . S
C1064 C1071 1.409 . S
C1065 H1057 0.930 . S
C1065 C1063 1.419 . S
C1065 C1066 1.362 . S
C1066 H1058 0.930 . S
C1066 C1065 1.362 . S
C1066 C1069 1.409 . S
C1067 H1059 0.930 . S
C1067 C1068 1.355 . S
C1067 C1069 1.415 . S
C1068 C1067 1.355 . S
C1068 C1070 1.419 . S
C1069 C1064 1.425 . S
C1069 C1066 1.409 . S
C1069 C1067 1.415 . S
C1070 H1060 0.930 . S
C1070 C1068 1.419 . S
C1070 C1071 1.362 . S
C1071 H1061 0.930 . S
C1071 C1064 1.409 . S
C1071 C1070 1.362 . S
H1072 C1078 0.930 . S
H1073 C1081 0.930 . S
H1074 C1082 0.930 . S
H1075 C1083 0.930 . S
H1076 C1086 0.930 . S
H1077 C1087 0.930 . S
C1078 H1072 0.930 . S
C1078 C1079 1.355 . S
C1078 C1080 1.415 . S
C1079 C1078 1.355 . S
C1079 C1081 1.419 . S
C1080 C1078 1.415 . S
C1080 C1085 1.425 . S
C1080 C1087 1.409 . S
C1081 H1073 0.930 . S
C1081 C1079 1.419 . S
C1081 C1082 1.362 . S
C1082 H1074 0.930 . S
C1082 C1081 1.362 . S
C1082 C1085 1.409 . S
C1083 H1075 0.930 . S
C1083 C1084 1.355 . S
C1083 C1085 1.415 . S
C1084 C1083 1.355 . S
C1084 C1086 1.419 . S
C1085 C1080 1.425 . S
C1085 C1082 1.409 . S
C1085 C1083 1.415 . S
C1086 H1076 0.930 . S
C1086 C1084 1.419 . S
C1086 C1087 1.362 . S
C1087 H1077 0.930 . S
C1087 C1080 1.409 . S
C1087 C1086 1.362 . S
H1088 C1094 0.930 . S
H1089 C1097 0.930 . S
H1090 C1098 0.930 . S
H1091 C1099 0.930 . S
H1092 C1102 0.930 . S
H1093 C1103 0.930 . S
C1094 H1088 0.930 . S
C1094 C1095 1.355 . S
C1094 C1096 1.415 . S
C1095 C1094 1.355 . S
C1095 C1097 1.419 . S
C1096 C1094 1.415 . S
C1096 C1101 1.425 1_545 S
C1096 C1103 1.409 1_545 S
C1097 H1089 0.930 . S
C1097 C1095 1.419 . S
C1097 C1098 1.362 . S
C1098 H1090 0.930 . S
C1098 C1097 1.362 . S
C1098 C1101 1.409 1_545 S
C1099 H1091 0.930 . S
C1099 C1100 1.355 . S
C1099 C1101 1.415 . S
C1100 C1099 1.355 . S
C1100 C1102 1.419 . S
C1101 C1096 1.425 1_565 S
C1101 C1098 1.409 1_565 S
C1101 C1099 1.415 . S
C1102 H1092 0.930 . S
C1102 C1100 1.419 . S
C1102 C1103 1.362 . S
C1103 H1093 0.930 . S
C1103 C1096 1.409 1_565 S
C1103 C1102 1.362 . S
H1104 C1110 0.930 . S
H1105 C1113 0.930 . S
H1106 C1114 0.930 . S
H1107 C1115 0.930 . S
H1108 C1118 0.930 . S
H1109 C1119 0.930 . S
C1110 H1104 0.930 . S
C1110 C1111 1.355 . S
C1110 C1112 1.415 . S
C1111 C1110 1.355 . S
C1111 C1113 1.419 . S
C1112 C1110 1.415 . S
C1112 C1117 1.425 . S
C1112 C1119 1.409 . S
C1113 H1105 0.930 . S
C1113 C1111 1.419 . S
C1113 C1114 1.362 . S
C1114 H1106 0.930 . S
C1114 C1113 1.362 . S
C1114 C1117 1.409 . S
C1115 H1107 0.930 . S
C1115 C1116 1.355 . S
C1115 C1117 1.415 . S
C1116 C1115 1.355 . S
C1116 C1118 1.419 . S
C1117 C1112 1.425 . S
C1117 C1114 1.409 . S
C1117 C1115 1.415 . S
C1118 H1108 0.930 . S
C1118 C1116 1.419 . S
C1118 C1119 1.362 . S
C1119 H1109 0.930 . S
C1119 C1112 1.409 . S
C1119 C1118 1.362 . S
H1120 C1126 0.930 . S
H1121 C1129 0.930 . S
H1122 C1130 0.930 . S
H1123 C1131 0.930 . S
H1124 C1134 0.930 . S
H1125 C1135 0.930 . S
C1126 H1120 0.930 . S
C1126 C1127 1.355 . S
C1126 C1128 1.415 . S
C1127 C1126 1.355 . S
C1127 C1129 1.419 1_554 S
C1128 C1126 1.415 . S
C1128 C1133 1.425 1_564 S
C1128 C1135 1.409 1_565 S
C1129 H1121 0.930 . S
C1129 C1127 1.419 1_556 S
C1129 C1130 1.362 . S
C1130 H1122 0.930 . S
C1130 C1129 1.362 . S
C1130 C1133 1.409 1_565 S
C1131 H1123 0.930 . S
C1131 C1132 1.355 . S
C1131 C1133 1.415 . S
C1132 C1131 1.355 . S
C1132 C1134 1.419 1_556 S
C1133 C1128 1.425 1_546 S
C1133 C1130 1.409 1_545 S
C1133 C1131 1.415 . S
C1134 H1124 0.930 . S
C1134 C1132 1.419 1_554 S
C1134 C1135 1.362 . S
C1135 H1125 0.930 . S
C1135 C1128 1.409 1_545 S
C1135 C1134 1.362 . S
H1136 C1142 0.930 . S
H1137 C1145 0.930 . S
H1138 C1146 0.930 . S
H1139 C1147 0.930 . S
H1140 C1150 0.930 . S
H1141 C1151 0.930 . S
C1142 H1136 0.930 . S
C1142 C1143 1.355 . S
C1142 C1144 1.415 . S
C1143 C1142 1.355 . S
C1143 C1145 1.419 . S
C1144 C1142 1.415 . S
C1144 C1149 1.425 . S
C1144 C1151 1.409 . S
C1145 H1137 0.930 . S
C1145 C1143 1.419 . S
C1145 C1146 1.362 . S
C1146 H1138 0.930 . S
C1146 C1145 1.362 . S
C1146 C1149 1.409 . S
C1147 H1139 0.930 . S
C1147 C1148 1.355 . S
C1147 C1149 1.415 . S
C1148 C1147 1.355 . S
C1148 C1150 1.419 . S
C1149 C1144 1.425 . S
C1149 C1146 1.409 . S
C1149 C1147 1.415 . S
C1150 H1140 0.930 . S
C1150 C1148 1.419 . S
C1150 C1151 1.362 . S
C1151 H1141 0.930 . S
C1151 C1144 1.409 . S
C1151 C1150 1.362 . S
H1152 C1158 0.930 . S
H1153 C1161 0.930 . S
H1154 C1162 0.930 . S
H1155 C1163 0.930 . S
H1156 C1166 0.930 . S
H1157 C1167 0.930 . S
C1158 H1152 0.930 . S
C1158 C1159 1.355 . S
C1158 C1160 1.415 . S
C1159 C1158 1.355 . S
C1159 C1161 1.419 . S
C1160 C1158 1.415 . S
C1160 C1165 1.425 1_545 S
C1160 C1167 1.409 1_545 S
C1161 H1153 0.930 . S
C1161 C1159 1.419 . S
C1161 C1162 1.362 . S
C1162 H1154 0.930 . S
C1162 C1161 1.362 . S
C1162 C1165 1.409 1_545 S
C1163 H1155 0.930 . S
C1163 C1164 1.355 . S
C1163 C1165 1.415 . S
C1164 C1163 1.355 . S
C1164 C1166 1.419 . S
C1165 C1160 1.425 1_565 S
C1165 C1162 1.409 1_565 S
C1165 C1163 1.415 . S
C1166 H1156 0.930 . S
C1166 C1164 1.419 . S
C1166 C1167 1.362 . S
C1167 H1157 0.930 . S
C1167 C1160 1.409 1_565 S
C1167 C1166 1.362 . S
H1168 C1174 0.930 . S
H1169 C1177 0.930 . S
H1170 C1178 0.930 . S
H1171 C1179 0.930 . S
H1172 C1182 0.930 . S
H1173 C1183 0.930 . S
C1174 H1168 0.930 . S
C1174 C1175 1.355 . S
C1174 C1176 1.415 . S
C1175 C1174 1.355 . S
C1175 C1177 1.419 . S
C1176 C1174 1.415 . S
C1176 C1181 1.425 . S
C1176 C1183 1.409 . S
C1177 H1169 0.930 . S
C1177 C1175 1.419 . S
C1177 C1178 1.362 . S
C1178 H1170 0.930 . S
C1178 C1177 1.362 . S
C1178 C1181 1.409 . S
C1179 H1171 0.930 . S
C1179 C1180 1.355 . S
C1179 C1181 1.415 . S
C1180 C1179 1.355 . S
C1180 C1182 1.419 . S
C1181 C1176 1.425 . S
C1181 C1178 1.409 . S
C1181 C1179 1.415 . S
C1182 H1172 0.930 . S
C1182 C1180 1.419 . S
C1182 C1183 1.362 . S
C1183 H1173 0.930 . S
C1183 C1176 1.409 . S
C1183 C1182 1.362 . S
H1184 C1190 0.930 . S
H1185 C1193 0.930 . S
H1186 C1194 0.930 . S
H1187 C1195 0.930 . S
H1188 C1198 0.930 . S
H1189 C1199 0.930 . S
C1190 H1184 0.930 . S
C1190 C1191 1.355 . S
C1190 C1192 1.415 . S
C1191 C1190 1.355 . S
C1191 C1193 1.419 1_554 S
C1192 C1190 1.415 . S
C1192 C1197 1.425 1_564 S
C1192 C1199 1.409 1_565 S
C1193 H1185 0.930 . S
C1193 C1191 1.419 1_556 S
C1193 C1194 1.362 . S
C1194 H1186 0.930 . S
C1194 C1193 1.362 . S
C1194 C1197 1.409 1_565 S
C1195 H1187 0.930 . S
C1195 C1196 1.355 . S
C1195 C1197 1.415 . S
C1196 C1195 1.355 . S
C1196 C1198 1.419 1_556 S
C1197 C1192 1.425 1_546 S
C1197 C1194 1.409 1_545 S
C1197 C1195 1.415 . S
C1198 H1188 0.930 . S
C1198 C1196 1.419 1_554 S
C1198 C1199 1.362 . S
C1199 H1189 0.930 . S
C1199 C1192 1.409 1_545 S
C1199 C1198 1.362 . S
H1200 C1206 0.930 . S
H1201 C1209 0.930 . S
H1202 C1210 0.930 . S
H1203 C1211 0.930 . S
H1204 C1214 0.930 . S
H1205 C1215 0.930 . S
C1206 H1200 0.930 . S
C1206 C1207 1.355 . S
C1206 C1208 1.415 . S
C1207 C1206 1.355 . S
C1207 C1209 1.419 . S
C1208 C1206 1.415 . S
C1208 C1213 1.425 . S
C1208 C1215 1.409 . S
C1209 H1201 0.930 . S
C1209 C1207 1.419 . S
C1209 C1210 1.362 . S
C1210 H1202 0.930 . S
C1210 C1209 1.362 . S
C1210 C1213 1.409 . S
C1211 H1203 0.930 . S
C1211 C1212 1.355 . S
C1211 C1213 1.415 . S
C1212 C1211 1.355 . S
C1212 C1214 1.419 . S
C1213 C1208 1.425 . S
C1213 C1210 1.409 . S
C1213 C1211 1.415 . S
C1214 H1204 0.930 . S
C1214 C1212 1.419 . S
C1214 C1215 1.362 . S
C1215 H1205 0.930 . S
C1215 C1208 1.409 . S
C1215 C1214 1.362 . S
H1216 C1222 0.930 . S
H1217 C1225 0.930 . S
H1218 C1226 0.930 . S
H1219 C1227 0.930 . S
H1220 C1230 0.930 . S
H1221 C1231 0.930 . S
C1222 H1216 0.930 . S
C1222 C1223 1.355 . S
C1222 C1224 1.415 . S
C1223 C1222 1.355 . S
C1223 C1225 1.419 . S
C1224 C1222 1.415 . S
C1224 C1229 1.425 . S
C1224 C1231 1.409 . S
C1225 H1217 0.930 . S
C1225 C1223 1.419 . S
C1225 C1226 1.362 . S
C1226 H1218 0.930 . S
C1226 C1225 1.362 . S
C1226 C1229 1.409 . S
C1227 H1219 0.930 . S
C1227 C1228 1.355 . S
C1227 C1229 1.415 . S
C1228 C1227 1.355 . S
C1228 C1230 1.419 . S
C1229 C1224 1.425 . S
C1229 C1226 1.409 . S
C1229 C1227 1.415 . S
C1230 H1220 0.930 . S
C1230 C1228 1.419 . S
C1230 C1231 1.362 . S
C1231 H1221 0.930 . S
C1231 C1224 1.409 . S
C1231 C1230 1.362 . S
H1232 C1238 0.930 . S
H1233 C1241 0.930 . S
H1234 C1242 0.930 . S
H1235 C1243 0.930 . S
H1236 C1246 0.930 . S
H1237 C1247 0.930 . S
C1238 H1232 0.930 . S
C1238 C1239 1.355 . S
C1238 C1240 1.415 . S
C1239 C1238 1.355 . S
C1239 C1241 1.419 . S
C1240 C1238 1.415 . S
C1240 C1245 1.425 . S
C1240 C1247 1.409 . S
C1241 H1233 0.930 . S
C1241 C1239 1.419 . S
C1241 C1242 1.362 . S
C1242 H1234 0.930 . S
C1242 C1241 1.362 . S
C1242 C1245 1.409 . S
C1243 H1235 0.930 . S
C1243 C1244 1.355 . S
C1243 C1245 1.415 . S
C1244 C1243 1.355 . S
C1244 C1246 1.419 . S
C1245 C1240 1.425 . S
C1245 C1242 1.409 . S
C1245 C1243 1.415 . S
C1246 H1236 0.930 . S
C1246 C1244 1.419 . S
C1246 C1247 1.362 . S
C1247 H1237 0.930 . S
C1247 C1240 1.409 . S
C1247 C1246 1.362 . S
H1248 C1254 0.930 . S
H1249 C1257 0.930 . S
H1250 C1258 0.930 . S
H1251 C1259 0.930 . S
H1252 C1262 0.930 . S
H1253 C1263 0.930 . S
C1254 H1248 0.930 . S
C1254 C1255 1.355 . S
C1254 C1256 1.415 . S
C1255 C1254 1.355 . S
C1255 C1257 1.419 . S
C1256 C1254 1.415 . S
C1256 C1261 1.425 . S
C1256 C1263 1.409 . S
C1257 H1249 0.930 . S
C1257 C1255 1.419 . S
C1257 C1258 1.362 . S
C1258 H1250 0.930 . S
C1258 C1257 1.362 . S
C1258 C1261 1.409 . S
C1259 H1251 0.930 . S
C1259 C1260 1.355 . S
C1259 C1261 1.415 . S
C1260 C1259 1.355 . S
C1260 C1262 1.419 . S
C1261 C1256 1.425 . S
C1261 C1258 1.409 . S
C1261 C1259 1.415 . S
C1262 H1252 0.930 . S
C1262 C1260 1.419 . S
C1262 C1263 1.362 . S
C1263 H1253 0.930 . S
C1263 C1256 1.409 . S
C1263 C1262 1.362 . S
H1264 C1270 0.930 . S
H1265 C1273 0.930 . S
H1266 C1274 0.930 . S
H1267 C1275 0.930 . S
H1268 C1278 0.930 . S
H1269 C1279 0.930 . S
C1270 H1264 0.930 . S
C1270 C1271 1.355 . S
C1270 C1272 1.415 . S
C1271 C1270 1.355 . S
C1271 C1273 1.419 . S
C1272 C1270 1.415 . S
C1272 C1277 1.425 1_655 S
C1272 C1279 1.409 1_655 S
C1273 H1265 0.930 . S
C1273 C1271 1.419 . S
C1273 C1274 1.362 . S
C1274 H1266 0.930 . S
C1274 C1273 1.362 . S
C1274 C1277 1.409 1_655 S
C1275 H1267 0.930 . S
C1275 C1276 1.355 . S
C1275 C1277 1.415 . S
C1276 C1275 1.355 . S
C1276 C1278 1.419 . S
C1277 C1272 1.425 1_455 S
C1277 C1274 1.409 1_455 S
C1277 C1275 1.415 . S
C1278 H1268 0.930 . S
C1278 C1276 1.419 . S
C1278 C1279 1.362 . S
C1279 H1269 0.930 . S
C1279 C1272 1.409 1_455 S
C1279 C1278 1.362 . S
H1280 C1286 0.944 . S
H1281 C1289 0.930 . S
H1282 C1290 0.930 . S
H1283 C1291 0.930 . S
H1284 C1294 0.916 1_554 S
H1285 C1295 0.930 1_554 S
C1286 H1280 0.944 . S
C1286 C1287 1.355 . S
C1286 C1288 1.415 . S
C1287 C1286 1.355 . S
C1287 C1289 1.419 . S
C1288 C1286 1.415 . S
C1288 C1293 1.425 . S
C1288 C1295 1.409 . S
C1289 H1281 0.930 . S
C1289 C1287 1.419 . S
C1289 C1290 1.362 . S
C1290 H1282 0.930 . S
C1290 C1289 1.362 . S
C1290 C1293 1.409 . S
C1291 H1283 0.930 . S
C1291 C1292 1.355 . S
C1291 C1293 1.415 . S
C1292 C1291 1.355 . S
C1292 C1294 1.419 . S
C1293 C1288 1.425 . S
C1293 C1290 1.409 . S
C1293 C1291 1.415 . S
C1294 H1284 0.916 1_556 S
C1294 C1292 1.419 . S
C1294 C1295 1.362 . S
C1295 H1285 0.930 1_556 S
C1295 C1288 1.409 . S
C1295 C1294 1.362 . S
H1296 C1302 0.930 . S
H1297 C1305 0.930 . S
H1298 C1306 0.930 . S
H1299 C1307 0.930 . S
H1300 C1310 0.930 . S
H1301 C1311 0.930 . S
C1302 H1296 0.930 . S
C1302 C1303 1.355 . S
C1302 C1304 1.415 . S
C1303 C1302 1.355 . S
C1303 C1305 1.419 . S
C1304 C1302 1.415 . S
C1304 C1309 1.425 1_655 S
C1304 C1311 1.409 1_655 S
C1305 H1297 0.930 . S
C1305 C1303 1.419 . S
C1305 C1306 1.362 . S
C1306 H1298 0.930 . S
C1306 C1305 1.362 . S
C1306 C1309 1.409 1_655 S
C1307 H1299 0.930 . S
C1307 C1308 1.355 . S
C1307 C1309 1.415 . S
C1308 C1307 1.355 . S
C1308 C1310 1.419 . S
C1309 C1304 1.425 1_455 S
C1309 C1306 1.409 1_455 S
C1309 C1307 1.415 . S
C1310 H1300 0.930 . S
C1310 C1308 1.419 . S
C1310 C1311 1.362 . S
C1311 H1301 0.930 . S
C1311 C1304 1.409 1_455 S
C1311 C1310 1.362 . S
H1312 C1318 0.930 . S
H1313 C1321 0.930 . S
H1314 C1322 0.930 . S
H1315 C1323 0.930 . S
H1316 C1326 0.930 . S
H1317 C1327 0.930 . S
C1318 H1312 0.930 . S
C1318 C1319 1.355 . S
C1318 C1320 1.415 . S
C1319 C1318 1.355 . S
C1319 C1321 1.419 . S
C1320 C1318 1.415 . S
C1320 C1325 1.425 . S
C1320 C1327 1.409 . S
C1321 H1313 0.930 . S
C1321 C1319 1.419 . S
C1321 C1322 1.362 . S
C1322 H1314 0.930 . S
C1322 C1321 1.362 . S
C1322 C1325 1.409 . S
C1323 H1315 0.930 . S
C1323 C1324 1.355 . S
C1323 C1325 1.415 . S
C1324 C1323 1.355 . S
C1324 C1326 1.419 . S
C1325 C1320 1.425 . S
C1325 C1322 1.409 . S
C1325 C1323 1.415 . S
C1326 H1316 0.930 . S
C1326 C1324 1.419 . S
C1326 C1327 1.362 . S
C1327 H1317 0.930 . S
C1327 C1320 1.409 . S
C1327 C1326 1.362 . S
H1328 C1334 0.930 . S
H1329 C1337 0.930 . S
H1330 C1338 0.930 . S
H1331 C1339 0.930 . S
H1332 C1342 0.930 . S
H1333 C1343 0.930 . S
C1334 H1328 0.930 . S
C1334 C1335 1.355 . S
C1334 C1336 1.415 . S
C1335 C1334 1.355 . S
C1335 C1337 1.419 . S
C1336 C1334 1.415 . S
C1336 C1341 1.425 . S
C1336 C1343 1.409 . S
C1337 H1329 0.930 . S
C1337 C1335 1.419 . S
C1337 C1338 1.362 . S
C1338 H1330 0.930 . S
C1338 C1337 1.362 . S
C1338 C1341 1.409 . S
C1339 H1331 0.930 . S
C1339 C1340 1.355 . S
C1339 C1341 1.415 . S
C1340 C1339 1.355 . S
C1340 C1342 1.419 . S
C1341 C1336 1.425 . S
C1341 C1338 1.409 . S
C1341 C1339 1.415 . S
C1342 H1332 0.930 . S
C1342 C1340 1.419 . S
C1342 C1343 1.362 . S
C1343 H1333 0.930 . S
C1343 C1336 1.409 . S
C1343 C1342 1.362 . S
H1344 C1350 0.901 1_554 S
H1345 C1353 0.930 . S
H1346 C1354 0.930 . S
H1347 C1355 0.930 . S
H1348 C1358 0.930 1_554 S
H1349 C1359 0.905 1_554 S
C1350 H1344 0.901 1_556 S
C1350 C1351 1.355 . S
C1350 C1352 1.415 . S
C1351 C1350 1.355 . S
C1351 C1353 1.419 . S
C1352 C1350 1.415 . S
C1352 C1357 1.425 . S
C1352 C1359 1.431 . S
C1353 H1345 0.930 . S
C1353 C1351 1.419 . S
C1353 C1354 1.362 . S
C1354 H1346 0.930 . S
C1354 C1353 1.362 . S
C1354 C1357 1.409 . S
C1355 H1347 0.930 . S
C1355 C1356 1.355 . S
C1355 C1357 1.415 . S
C1356 C1355 1.355 . S
C1356 C1358 1.419 . S
C1357 C1352 1.425 . S
C1357 C1354 1.409 . S
C1357 C1355 1.415 . S
C1358 H1348 0.930 1_556 S
C1358 C1356 1.419 . S
C1358 C1359 1.369 . S
C1359 H1349 0.905 1_556 S
C1359 C1352 1.431 . S
C1359 C1358 1.369 . S
H1360 C1366 0.930 . S
H1361 C1369 0.930 . S
H1362 C1370 0.930 . S
H1363 C1371 0.930 . S
H1364 C1374 0.930 . S
H1365 C1375 0.930 . S
C1366 H1360 0.930 . S
C1366 C1367 1.355 . S
C1366 C1368 1.415 . S
C1367 C1366 1.355 . S
C1367 C1369 1.419 . S
C1368 C1366 1.415 . S
C1368 C1373 1.425 . S
C1368 C1375 1.409 . S
C1369 H1361 0.930 . S
C1369 C1367 1.419 . S
C1369 C1370 1.362 . S
C1370 H1362 0.930 . S
C1370 C1369 1.362 . S
C1370 C1373 1.409 . S
C1371 H1363 0.930 . S
C1371 C1372 1.355 . S
C1371 C1373 1.415 . S
C1372 C1371 1.355 . S
C1372 C1374 1.419 . S
C1373 C1368 1.425 . S
C1373 C1370 1.409 . S
C1373 C1371 1.415 . S
C1374 H1364 0.930 . S
C1374 C1372 1.419 . S
C1374 C1375 1.362 . S
C1375 H1365 0.930 . S
C1375 C1368 1.409 . S
C1375 C1374 1.362 . S
H1376 C1382 0.930 . S
H1377 C1385 0.930 . S
H1378 C1386 0.930 . S
H1379 C1387 0.930 . S
H1380 C1390 0.930 . S
H1381 C1391 0.930 . S
C1382 H1376 0.930 . S
C1382 C1383 1.355 . S
C1382 C1384 1.415 . S
C1383 C1382 1.355 . S
C1383 C1385 1.419 . S
C1384 C1382 1.415 . S
C1384 C1389 1.425 . S
C1384 C1391 1.409 . S
C1385 H1377 0.930 . S
C1385 C1383 1.419 . S
C1385 C1386 1.362 . S
C1386 H1378 0.930 . S
C1386 C1385 1.362 . S
C1386 C1389 1.409 . S
C1387 H1379 0.930 . S
C1387 C1388 1.355 . S
C1387 C1389 1.415 . S
C1388 C1387 1.355 . S
C1388 C1390 1.419 . S
C1389 C1384 1.425 . S
C1389 C1386 1.409 . S
C1389 C1387 1.415 . S
C1390 H1380 0.930 . S
C1390 C1388 1.419 . S
C1390 C1391 1.362 . S
C1391 H1381 0.930 . S
C1391 C1384 1.409 . S
C1391 C1390 1.362 . S
H1392 C1398 0.930 . S
H1393 C1401 0.930 . S
H1394 C1402 0.930 . S
H1395 C1403 0.930 . S
H1396 C1406 0.930 . S
H1397 C1407 0.930 . S
C1398 H1392 0.930 . S
C1398 C1399 1.355 . S
C1398 C1400 1.415 . S
C1399 C1398 1.355 . S
C1399 C1401 1.419 . S
C1400 C1398 1.415 . S
C1400 C1405 1.425 . S
C1400 C1407 1.409 . S
C1401 H1393 0.930 . S
C1401 C1399 1.419 . S
C1401 C1402 1.362 . S
C1402 H1394 0.930 . S
C1402 C1401 1.362 . S
C1402 C1405 1.409 . S
C1403 H1395 0.930 . S
C1403 C1404 1.355 . S
C1403 C1405 1.415 . S
C1404 C1403 1.355 . S
C1404 C1406 1.419 . S
C1405 C1400 1.425 . S
C1405 C1402 1.409 . S
C1405 C1403 1.415 . S
C1406 H1396 0.930 . S
C1406 C1404 1.419 . S
C1406 C1407 1.362 . S
C1407 H1397 0.930 . S
C1407 C1400 1.409 . S
C1407 C1406 1.362 . S
H1408 C1414 0.930 . S
H1409 C1417 0.930 . S
H1410 C1418 0.930 . S
H1411 C1419 0.930 . S
H1412 C1422 0.930 . S
H1413 C1423 0.930 . S
C1414 H1408 0.930 . S
C1414 C1415 1.355 . S
C1414 C1416 1.415 . S
C1415 C1414 1.355 . S
C1415 C1417 1.419 . S
C1416 C1414 1.415 . S
C1416 C1421 1.425 1_655 S
C1416 C1423 1.409 1_655 S
C1417 H1409 0.930 . S
C1417 C1415 1.419 . S
C1417 C1418 1.362 . S
C1418 H1410 0.930 . S
C1418 C1417 1.362 . S
C1418 C1421 1.409 1_655 S
C1419 H1411 0.930 . S
C1419 C1420 1.355 . S
C1419 C1421 1.415 . S
C1420 C1419 1.355 . S
C1420 C1422 1.419 . S
C1421 C1416 1.425 1_455 S
C1421 C1418 1.409 1_455 S
C1421 C1419 1.415 . S
C1422 H1412 0.930 . S
C1422 C1420 1.419 . S
C1422 C1423 1.362 . S
C1423 H1413 0.930 . S
C1423 C1416 1.409 1_455 S
C1423 C1422 1.362 . S
H1424 C1430 0.930 . S
H1425 C1433 0.930 . S
H1426 C1434 0.930 . S
H1427 C1435 0.930 . S
H1428 C1438 0.930 . S
H1429 C1439 0.930 . S
C1430 H1424 0.930 . S
C1430 C1431 1.355 . S
C1430 C1432 1.415 . S
C1431 C1430 1.355 . S
C1431 C1433 1.419 . S
C1432 C1430 1.415 . S
C1432 C1437 1.425 . S
C1432 C1439 1.409 . S
C1433 H1425 0.930 . S
C1433 C1431 1.419 . S
C1433 C1434 1.362 . S
C1434 H1426 0.930 . S
C1434 C1433 1.362 . S
C1434 C1437 1.409 . S
C1435 H1427 0.930 . S
C1435 C1436 1.355 . S
C1435 C1437 1.415 . S
C1436 C1435 1.355 . S
C1436 C1438 1.419 . S
C1437 C1432 1.425 . S
C1437 C1434 1.409 . S
C1437 C1435 1.415 . S
C1438 H1428 0.930 . S
C1438 C1436 1.419 . S
C1438 C1439 1.362 . S
C1439 H1429 0.930 . S
C1439 C1432 1.409 . S
C1439 C1438 1.362 . S
H1440 C1446 0.930 . S
H1441 C1449 0.930 . S
H1442 C1450 0.930 . S
H1443 C1451 0.930 . S
H1444 C1454 0.930 . S
H1445 C1455 0.930 . S
C1446 H1440 0.930 . S
C1446 C1447 1.355 . S
C1446 C1448 1.415 . S
C1447 C1446 1.355 . S
C1447 C1449 1.419 . S
C1448 C1446 1.415 . S
C1448 C1453 1.425 . S
C1448 C1455 1.409 . S
C1449 H1441 0.930 . S
C1449 C1447 1.419 . S
C1449 C1450 1.362 . S
C1450 H1442 0.930 . S
C1450 C1449 1.362 . S
C1450 C1453 1.409 . S
C1451 H1443 0.930 . S
C1451 C1452 1.355 . S
C1451 C1453 1.415 . S
C1452 C1451 1.355 . S
C1452 C1454 1.419 . S
C1453 C1448 1.425 . S
C1453 C1450 1.409 . S
C1453 C1451 1.415 . S
C1454 H1444 0.930 . S
C1454 C1452 1.419 . S
C1454 C1455 1.362 . S
C1455 H1445 0.930 . S
C1455 C1448 1.409 . S
C1455 C1454 1.362 . S
H1456 C1462 0.930 . S
H1457 C1465 0.930 . S
H1458 C1466 0.930 . S
H1459 C1467 0.930 . S
H1460 C1470 0.930 . S
H1461 C1471 0.930 . S
C1462 H1456 0.930 . S
C1462 C1463 1.355 . S
C1462 C1464 1.415 . S
C1463 C1462 1.355 . S
C1463 C1465 1.419 . S
C1464 C1462 1.415 . S
C1464 C1469 1.425 1_655 S
C1464 C1471 1.409 1_655 S
C1465 H1457 0.930 . S
C1465 C1463 1.419 . S
C1465 C1466 1.362 . S
C1466 H1458 0.930 . S
C1466 C1465 1.362 . S
C1466 C1469 1.409 1_655 S
C1467 H1459 0.930 . S
C1467 C1468 1.355 . S
C1467 C1469 1.415 . S
C1468 C1467 1.355 . S
C1468 C1470 1.419 . S
C1469 C1464 1.425 1_455 S
C1469 C1466 1.409 1_455 S
C1469 C1467 1.415 . S
C1470 H1460 0.930 . S
C1470 C1468 1.419 . S
C1470 C1471 1.362 . S
C1471 H1461 0.930 . S
C1471 C1464 1.409 1_455 S
C1471 C1470 1.362 . S
C455 C325 1.708 . S
C460 C3 1.687 . S
C471 C283 1.726 . S
C476 C17 1.705 . S
C487 C297 1.687 . S
C492 C31 1.709 . S
C503 C311 1.700 . S
C508 C45 1.722 . S
C519 C59 1.693 . S
C524 C241 1.717 . S
C535 C255 1.718 . S
C540 C73 1.694 . S
C551 C87 1.727 . S
C556 C269 1.722 . S
C567 C101 1.727 . S
C572 C227 1.710 . S
C583 C437 1.697 . S
C588 C115 1.683 . S
C599 C129 1.720 . S
C604 C395 1.728 . S
C615 C143 1.726 . S
C620 C409 1.723 . S
C631 C157 1.728 . S
C636 C423 1.716 . S
C647 C171 1.696 . S
C652 C353 1.683 . S
C663 C185 1.703 . S
C668 C367 1.724 . S
C679 C199 1.718 . S
C684 C381 1.694 . S
C695 C213 1.687 . S
C700 C339 1.686 . S
C711 C7 1.274 . S
C716 C175 1.345 . S
C727 C413 1.322 . S
C732 C21 1.298 . S
C743 C35 1.268 . S
C748 C203 1.351 . S
C759 C441 1.265 . S
C764 C49 1.353 . S
C775 C119 1.281 . S
C780 C63 1.338 . S
C791 C77 1.346 . S
C796 C357 1.273 . S
C807 C91 1.267 . S
C812 C147 1.352 . S
C823 C105 1.302 . S
C828 C385 1.317 . S
C839 C301 1.352 . S
C844 C133 1.266 . S
C855 C329 1.343 . S
C860 C161 1.275 . S
C871 C189 1.354 . S
C876 C245 1.264 . S
C887 C273 1.319 . S
C892 C217 1.300 . S
C903 C399 1.276 . S
C908 C231 1.343 . S
C919 C259 1.349 . S
C924 C427 1.270 . S
C935 C343 1.264 . S
C940 C287 1.354 . S
C951 C371 1.351 . S
C956 C315 1.267 . S
C967 C64 1.280 . S
C972 C8 1.273 . S
C983 C78 1.322 . S
C988 C22 1.319 . S
C999 C36 1.284 . S
C1004 C92 1.316 . S
C1015 C50 1.276 . S
C1020 C106 1.306 . S
C1031 C176 1.274 . S
C1036 C120 1.277 . S
C1047 C190 1.304 . S
C1052 C134 1.275 . S
C1063 C204 1.313 . S
C1068 C148 1.281 . S
C1079 C162 1.318 . S
C1084 C218 1.286 . S
C1095 C232 1.286 . S
C1100 C288 1.271 . S
C1111 C246 1.325 . S
C1116 C302 1.302 . S
C1127 C260 1.300 . S
C1132 C316 1.325 . S
C1143 C274 1.301 . S
C1148 C330 1.325 . S
C1159 C400 1.276 . S
C1164 C344 1.275 . S
C1175 C414 1.298 . S
C1180 C358 1.272 . S
C1191 C428 1.325 . S
C1196 C372 1.299 . S
C1207 C442 1.307 . S
C1212 C386 1.326 . S
C1223 C429 1.513 . S
C1228 C9 1.520 . S
C1239 C23 1.535 . S
C1244 C219 1.497 . S
C1255 C401 1.484 . S
C1260 C37 1.549 . S
C1271 C51 1.477 . S
C1276 C191 1.554 . S
C1287 C373 1.487 . S
C1292 C65 1.545 . S
C1303 C79 1.549 . S
C1308 C163 1.482 . S
C1319 C93 1.504 . S
C1324 C345 1.528 . S
C1335 C135 1.535 . S
C1340 C107 1.497 . S
C1351 C121 1.485 . S
C1356 C317 1.547 . S
C1367 C289 1.503 . S
C1372 C149 1.530 . S
C1383 C177 1.525 . S
C1388 C261 1.508 . S
C1399 C205 1.492 . S
C1404 C233 1.540 . S
C1415 C443 1.554 . S
C1420 C247 1.477 . S
C1431 C275 1.531 . S
C1436 C415 1.501 . S
C1447 C303 1.519 . S
C1452 C387 1.513 . S
C1463 C359 1.497 . S
C1468 C331 1.534 . S
