# Generated by pormake.
# Topology uku, (4)-cn, num edge types: 1
# Building blocks:
#     Node 0, Type 0, BuildingBlock: ICAMEG_clean_sbu_1, # of connection points: 4
#     Node 1, Type 0, BuildingBlock: ICAMEG_clean_sbu_1, # of connection points: 4
#     Node 2, Type 0, BuildingBlock: ICAMEG_clean_sbu_1, # of connection points: 4
#     Node 3, Type 0, BuildingBlock: ICAMEG_clean_sbu_1, # of connection points: 4
#     Node 4, Type 0, BuildingBlock: ICAMEG_clean_sbu_1, # of connection points: 4
#     Node 5, Type 0, BuildingBlock: ICAMEG_clean_sbu_1, # of connection points: 4
#     Node 6, Type 0, BuildingBlock: ICAMEG_clean_sbu_1, # of connection points: 4
#     Node 7, Type 0, BuildingBlock: ICAMEG_clean_sbu_1, # of connection points: 4
#     Node 8, Type 0, BuildingBlock: ICAMEG_clean_sbu_1, # of connection points: 4
#     Node 9, Type 0, BuildingBlock: ICAMEG_clean_sbu_1, # of connection points: 4
#     Node 10, Type 0, BuildingBlock: ICAMEG_clean_sbu_1, # of connection points: 4
#     Node 11, Type 0, BuildingBlock: ICAMEG_clean_sbu_1, # of connection points: 4
#     Edge 12, Type (0, 0), BuildingBlock: ZUJKAS_clean_linker_0, # of connection points: 2
#     Edge 13, Type (0, 0), BuildingBlock: ZUJKAS_clean_linker_0, # of connection points: 2
#     Edge 14, Type (0, 0), BuildingBlock: ZUJKAS_clean_linker_0, # of connection points: 2
#     Edge 15, Type (0, 0), BuildingBlock: ZUJKAS_clean_linker_0, # of connection points: 2
#     Edge 16, Type (0, 0), BuildingBlock: ZUJKAS_clean_linker_0, # of connection points: 2
#     Edge 17, Type (0, 0), BuildingBlock: ZUJKAS_clean_linker_0, # of connection points: 2
#     Edge 18, Type (0, 0), BuildingBlock: ZUJKAS_clean_linker_0, # of connection points: 2
#     Edge 19, Type (0, 0), BuildingBlock: ZUJKAS_clean_linker_0, # of connection points: 2
#     Edge 20, Type (0, 0), BuildingBlock: ZUJKAS_clean_linker_0, # of connection points: 2
#     Edge 21, Type (0, 0), BuildingBlock: ZUJKAS_clean_linker_0, # of connection points: 2
#     Edge 22, Type (0, 0), BuildingBlock: ZUJKAS_clean_linker_0, # of connection points: 2
#     Edge 23, Type (0, 0), BuildingBlock: ZUJKAS_clean_linker_0, # of connection points: 2
#     Edge 24, Type (0, 0), BuildingBlock: ZUJKAS_clean_linker_0, # of connection points: 2
#     Edge 25, Type (0, 0), BuildingBlock: ZUJKAS_clean_linker_0, # of connection points: 2
#     Edge 26, Type (0, 0), BuildingBlock: ZUJKAS_clean_linker_0, # of connection points: 2
#     Edge 27, Type (0, 0), BuildingBlock: ZUJKAS_clean_linker_0, # of connection points: 2
#     Edge 28, Type (0, 0), BuildingBlock: ZUJKAS_clean_linker_0, # of connection points: 2
#     Edge 29, Type (0, 0), BuildingBlock: ZUJKAS_clean_linker_0, # of connection points: 2
#     Edge 30, Type (0, 0), BuildingBlock: ZUJKAS_clean_linker_0, # of connection points: 2
#     Edge 31, Type (0, 0), BuildingBlock: ZUJKAS_clean_linker_0, # of connection points: 2
#     Edge 32, Type (0, 0), BuildingBlock: ZUJKAS_clean_linker_0, # of connection points: 2
#     Edge 33, Type (0, 0), BuildingBlock: ZUJKAS_clean_linker_0, # of connection points: 2
#     Edge 34, Type (0, 0), BuildingBlock: ZUJKAS_clean_linker_0, # of connection points: 2
#     Edge 35, Type (0, 0), BuildingBlock: ZUJKAS_clean_linker_0, # of connection points: 2
# Relax obj value: 0.337
# Max RMSD: 0.223
# Mean RMSD: 0.223
data_MOF--net-uku--node1-ICAMEG_clean_sbu_1--edge1-ZUJKAS_clean_linker_0
_symmetry_space_group_name_H-M    P1
_symmetry_Int_Tables_number       1
_symmetry_cell_setting            triclinic
loop_
_symmetry_equiv_pos_as_xyz
'x, y, z'
_cell_length_a     55.33998
_cell_length_b     55.335341
_cell_length_c     55.349103
_cell_angle_alpha  90.005017
_cell_angle_beta   90.010101
_cell_angle_gamma 89.997413
loop_
_atom_site_label
_atom_site_type_symbol
_atom_site_fract_x
_atom_site_fract_y
_atom_site_fract_z
_atom_type_partial_charge
Co0 Co 0.06224 0.14884 0.66207 0.0
Co1 Co 0.09525 0.18622 0.62474 0.0
O2 O 0.06783 0.16471 0.63102 0.0
C3 C 0.0591 0.10843 0.62664 0.0
O4 O 0.07829 0.11691 0.61555 0.0
C5 C 0.05235 0.21441 0.61103 0.0
O6 O 0.04218 0.20689 0.63107 0.0
O7 O 0.08828 0.20545 0.6543 0.0
O8 O 0.07334 0.17799 0.68008 0.0
H9 H 0.17004 0.23292 0.6464 0.0
H10 H 0.02274 0.15015 0.62593 0.0
O11 O 0.05069 0.11914 0.64517 0.0
H12 H 0.99046 0.19211 0.69758 0.0
H13 H 0.01607 0.09664 0.7206 0.0
H14 H 0.08962 0.14534 0.70798 0.0
H15 H 0.03165 0.17512 0.69795 0.0
H16 H 0.02302 0.11754 0.68186 0.0
O17 O 0.07376 0.20804 0.60565 0.0
H18 H 0.13569 0.20557 0.65409 0.0
H19 H 0.11234 0.21327 0.58139 0.0
H20 H 0.08331 0.1249 0.74706 0.0
H21 H 0.98135 0.16663 0.62488 0.0
H22 H 0.04631 0.10033 0.75357 0.0
H23 H 0.96499 0.18787 0.66087 0.0
O24 O 0.09577 0.13589 0.6622 0.0
H25 H 0.07374 0.144 0.5473 0.0
H26 H 0.13965 0.16375 0.60393 0.0
H27 H 0.14842 0.1392 0.56779 0.0
H28 H 0.11533 0.12921 0.53915 0.0
H29 H 0.06573 0.1683 0.58378 0.0
H30 H 0.14633 0.24085 0.57296 0.0
H31 H 0.17552 0.25076 0.60559 0.0
O32 O 0.11733 0.16489 0.64368 0.0
C33 C 0.08145 0.199 0.67533 0.0
C34 C 0.15749 0.22868 0.63202 0.0
C35 C 0.14416 0.23315 0.59081 0.0
N36 N 0.12216 0.20768 0.61815 0.0
C37 C 0.13805 0.21315 0.63624 0.0
C38 C 0.12493 0.21756 0.5957 0.0
C39 C 0.16054 0.2387 0.60912 0.0
C40 C 0.01565 0.15912 0.64175 0.0
N41 N 0.02957 0.16158 0.662 0.0
C42 C 0.99224 0.16852 0.64102 0.0
C43 C 0.98309 0.18048 0.6612 0.0
C44 C 0.99739 0.18289 0.68179 0.0
C45 C 0.02073 0.1733 0.68186 0.0
C46 C 0.03225 0.10732 0.718 0.0
C47 C 0.07342 0.13478 0.71071 0.0
C48 C 0.03631 0.11915 0.69608 0.0
N49 N 0.05664 0.13276 0.69271 0.0
C50 C 0.06997 0.12321 0.73287 0.0
C51 C 0.04922 0.1094 0.73649 0.0
C52 C 0.11582 0.14548 0.65602 0.0
C53 C 0.08832 0.14829 0.55961 0.0
C54 C 0.12513 0.1594 0.59161 0.0
C55 C 0.13022 0.14555 0.57114 0.0
C56 C 0.11165 0.13996 0.55507 0.0
N57 N 0.10221 0.16752 0.59592 0.0
C58 C 0.08391 0.16213 0.58024 0.0
Co59 Co 0.93444 0.84618 0.65933 0.0
Co60 Co 0.89692 0.81255 0.6226 0.0
O61 O 0.92632 0.83134 0.62833 0.0
C62 C 0.93859 0.88694 0.62458 0.0
O63 O 0.91819 0.88005 0.61462 0.0
C64 C 0.93624 0.77983 0.60758 0.0
O65 O 0.94734 0.78506 0.62788 0.0
O66 O 0.90273 0.7925 0.65192 0.0
O67 O 0.92204 0.81758 0.67726 0.0
H68 H 0.81857 0.77299 0.64577 0.0
H69 H 0.97174 0.84226 0.62112 0.0
O70 O 0.94738 0.87527 0.64234 0.0
H71 H 0.00424 0.79673 0.69047 0.0
H72 H 0.98719 0.89364 0.71633 0.0
H73 H 0.90976 0.85059 0.70667 0.0
H74 H 0.96474 0.81715 0.69329 0.0
H75 H 0.97677 0.87415 0.67762 0.0
O76 O 0.91574 0.78908 0.60282 0.0
H77 H 0.85552 0.79691 0.65278 0.0
H78 H 0.87633 0.78756 0.57951 0.0
H79 H 0.91953 0.86965 0.74575 0.0
H80 H 0.01141 0.82225 0.61757 0.0
H81 H 0.95849 0.89138 0.75076 0.0
H82 H 0.02788 0.79923 0.6524 0.0
O83 O 0.90197 0.86167 0.66144 0.0
H84 H 0.92072 0.85343 0.54512 0.0
H85 H 0.85428 0.83895 0.60266 0.0
H86 H 0.8471 0.86455 0.56691 0.0
H87 H 0.88047 0.8719 0.53781 0.0
H88 H 0.92717 0.82816 0.58125 0.0
H89 H 0.83969 0.76337 0.57175 0.0
H90 H 0.81046 0.75604 0.60501 0.0
O91 O 0.87747 0.83568 0.6421 0.0
C92 C 0.91145 0.79768 0.67262 0.0
C93 C 0.83113 0.77612 0.63111 0.0
C94 C 0.843 0.7707 0.58958 0.0
N95 N 0.86796 0.79378 0.61653 0.0
C96 C 0.85205 0.78971 0.63496 0.0
C97 C 0.86374 0.78436 0.59409 0.0
C98 C 0.8266 0.7666 0.60824 0.0
C99 C 0.9789 0.83248 0.63643 0.0
N100 N 0.96598 0.83097 0.65742 0.0
C101 C 0.00132 0.8211 0.63429 0.0
C102 C 0.01053 0.80815 0.65382 0.0
C103 C 0.99727 0.80672 0.67518 0.0
C104 C 0.97488 0.81828 0.67665 0.0
C105 C 0.97017 0.88421 0.71438 0.0
C106 C 0.9268 0.85991 0.70874 0.0
C107 C 0.96414 0.87319 0.69248 0.0
N108 N 0.94273 0.86115 0.68993 0.0
C109 C 0.93221 0.87071 0.7309 0.0
C110 C 0.95406 0.88292 0.73369 0.0
C111 C 0.88102 0.85432 0.65516 0.0
C112 C 0.90603 0.85033 0.55764 0.0
C113 C 0.86892 0.84218 0.59017 0.0
C114 C 0.86473 0.85662 0.5699 0.0
C115 C 0.88345 0.86072 0.55357 0.0
N116 N 0.89111 0.83205 0.59404 0.0
C117 C 0.90954 0.83596 0.57809 0.0
Co118 Co 0.06362 0.84196 0.34323 0.0
Co119 Co 0.10311 0.81032 0.37954 0.0
O120 O 0.07338 0.82861 0.37431 0.0
C121 C 0.06091 0.88516 0.37518 0.0
O122 O 0.08295 0.88064 0.38273 0.0
C123 C 0.06488 0.77757 0.3967 0.0
O124 O 0.05446 0.78033 0.37557 0.0
O125 O 0.09651 0.78899 0.3512 0.0
O126 O 0.07564 0.81286 0.32593 0.0
H127 H 0.18102 0.7705 0.35528 0.0
H128 H 0.02852 0.83864 0.38352 0.0
O129 O 0.05088 0.87141 0.35973 0.0
H130 H 0.99315 0.79037 0.3175 0.0
H131 H 0.0076 0.8865 0.28703 0.0
H132 H 0.08591 0.84465 0.2946 0.0
H133 H 0.03194 0.81154 0.31182 0.0
H134 H 0.02015 0.8688 0.32595 0.0
O135 O 0.085 0.78781 0.40108 0.0
H136 H 0.14361 0.79381 0.34858 0.0
H137 H 0.12535 0.78723 0.42282 0.0
H138 H 0.07398 0.86191 0.25529 0.0
H139 H 0.98963 0.81785 0.38996 0.0
H140 H 0.03457 0.88302 0.25132 0.0
H141 H 0.97173 0.79344 0.35682 0.0
O142 O 0.09585 0.85768 0.33897 0.0
H143 H 0.08208 0.85471 0.45592 0.0
H144 H 0.14628 0.83781 0.39652 0.0
H145 H 0.15471 0.86508 0.43073 0.0
H146 H 0.12249 0.87365 0.46076 0.0
H147 H 0.07436 0.82774 0.42131 0.0
H148 H 0.16246 0.76369 0.4303 0.0
H149 H 0.19064 0.75527 0.39639 0.0
O150 O 0.1215 0.83271 0.35826 0.0
C151 C 0.08681 0.79333 0.33074 0.0
C152 C 0.16892 0.77411 0.37022 0.0
C153 C 0.15849 0.77026 0.41231 0.0
N154 N 0.13241 0.79201 0.38532 0.0
C155 C 0.14775 0.78735 0.36654 0.0
C156 C 0.13747 0.78354 0.40796 0.0
C157 C 0.17429 0.76555 0.39328 0.0
C158 C 0.02074 0.82823 0.36894 0.0
N159 N 0.03246 0.82637 0.34729 0.0
C160 C 0.99876 0.81643 0.37272 0.0
C161 C 0.98874 0.80271 0.35413 0.0
C162 C 0.00076 0.80096 0.33208 0.0
C163 C 0.02275 0.81295 0.32897 0.0
C164 C 0.0248 0.87731 0.28852 0.0
C165 C 0.06867 0.85369 0.29299 0.0
C166 C 0.03203 0.8673 0.31053 0.0
N167 N 0.05368 0.85556 0.3125 0.0
C168 C 0.06204 0.86348 0.27069 0.0
C169 C 0.03994 0.87535 0.26849 0.0
C170 C 0.11716 0.85075 0.34458 0.0
C171 C 0.09629 0.85108 0.44298 0.0
C172 C 0.13213 0.84153 0.40944 0.0
C173 C 0.13704 0.85694 0.42882 0.0
C174 C 0.11895 0.86172 0.44567 0.0
N175 N 0.10987 0.83113 0.40694 0.0
C176 C 0.09205 0.83575 0.42339 0.0
Co177 Co 0.93769 0.15185 0.33932 0.0
Co178 Co 0.9015 0.18829 0.37456 0.0
O179 O 0.9297 0.16743 0.36993 0.0
C180 C 0.93862 0.10946 0.37278 0.0
O181 O 0.91641 0.11423 0.37966 0.0
C182 C 0.94284 0.21741 0.39078 0.0
O183 O 0.95412 0.21046 0.37112 0.0
O184 O 0.90967 0.20774 0.34539 0.0
O185 O 0.92708 0.18073 0.32068 0.0
H186 H 0.82687 0.23304 0.34864 0.0
H187 H 0.97461 0.15424 0.37809 0.0
O188 O 0.94909 0.12263 0.35713 0.0
H189 H 0.01075 0.19661 0.30856 0.0
H190 H 0.98886 0.1006 0.2842 0.0
H191 H 0.91379 0.14805 0.29152 0.0
H192 H 0.97008 0.1787 0.3055 0.0
H193 H 0.97872 0.12117 0.32241 0.0
O194 O 0.92132 0.21052 0.39493 0.0
H195 H 0.86228 0.20656 0.34295 0.0
H196 H 0.88134 0.21495 0.41682 0.0
H197 H 0.92333 0.12793 0.25293 0.0
H198 H 0.0155 0.17157 0.38182 0.0
H199 H 0.96111 0.10399 0.24909 0.0
H200 H 0.03378 0.19304 0.34692 0.0
O201 O 0.90444 0.13814 0.33682 0.0
H202 H 0.91966 0.14578 0.45269 0.0
H203 H 0.85641 0.16514 0.39299 0.0
H204 H 0.84616 0.1402 0.42846 0.0
H205 H 0.87791 0.13041 0.45865 0.0
H206 H 0.92916 0.17049 0.41685 0.0
H207 H 0.84624 0.24168 0.42326 0.0
H208 H 0.81867 0.25079 0.38904 0.0
O209 O 0.88116 0.16644 0.3544 0.0
C210 C 0.91806 0.2015 0.32486 0.0
C211 C 0.83871 0.22914 0.36371 0.0
C212 C 0.8496 0.23402 0.40559 0.0
N213 N 0.87374 0.20908 0.37957 0.0
C214 C 0.85874 0.21411 0.36062 0.0
C215 C 0.86947 0.21892 0.40182 0.0
C216 C 0.83413 0.23912 0.38638 0.0
C217 C 0.98255 0.16332 0.36273 0.0
N218 N 0.96997 0.1654 0.34158 0.0
C219 C 0.00567 0.17319 0.36499 0.0
C220 C 0.0159 0.18528 0.34541 0.0
C221 C 0.00297 0.18731 0.3239 0.0
C222 C 0.9799 0.17722 0.3223 0.0
C223 C 0.97237 0.11101 0.28564 0.0
C224 C 0.93033 0.13778 0.28996 0.0
C225 C 0.9665 0.12266 0.30725 0.0
N226 N 0.94576 0.13594 0.30914 0.0
C227 C 0.9356 0.12637 0.26808 0.0
C228 C 0.95679 0.11293 0.26594 0.0
C229 C 0.88384 0.1472 0.34199 0.0
C230 C 0.90566 0.14996 0.4397 0.0
C231 C 0.87034 0.16088 0.40599 0.0
C232 C 0.86442 0.1468 0.42607 0.0
C233 C 0.88223 0.14132 0.44301 0.0
N234 N 0.89334 0.16934 0.40289 0.0
C235 C 0.91091 0.16401 0.4194 0.0
Co236 Co 0.66096 0.06348 0.15738 0.0
Co237 Co 0.62482 0.1028 0.18929 0.0
O238 O 0.62992 0.07323 0.17075 0.0
C239 C 0.62941 0.06093 0.1138 0.0
O240 O 0.62281 0.08344 0.11739 0.0
C241 C 0.60695 0.06415 0.22114 0.0
O242 O 0.62802 0.05362 0.21839 0.0
O243 O 0.65298 0.09572 0.21072 0.0
O244 O 0.67838 0.07548 0.18644 0.0
H245 H 0.64946 0.18007 0.23012 0.0
H246 H 0.62066 0.02836 0.1608 0.0
O247 O 0.64428 0.05071 0.12805 0.0
H248 H 0.68691 0.99287 0.20866 0.0
H249 H 0.71698 0.00755 0.1125 0.0
H250 H 0.70961 0.08574 0.15461 0.0
H251 H 0.69249 0.03173 0.18759 0.0
H252 H 0.67811 0.02008 0.13035 0.0
O253 O 0.60291 0.0846 0.21141 0.0
H254 H 0.65601 0.14288 0.20644 0.0
H255 H 0.58157 0.12513 0.21234 0.0
H256 H 0.74886 0.07384 0.1372 0.0
H257 H 0.61432 0.98941 0.18148 0.0
H258 H 0.75273 0.03448 0.11596 0.0
H259 H 0.64758 0.97144 0.20568 0.0
O260 O 0.66518 0.09574 0.14174 0.0
H261 H 0.54863 0.08294 0.144 0.0
H262 H 0.60842 0.14645 0.16222 0.0
H263 H 0.57448 0.15551 0.13481 0.0
H264 H 0.54425 0.12363 0.12558 0.0
H265 H 0.58297 0.07459 0.17115 0.0
H266 H 0.57425 0.16205 0.23625 0.0
H267 H 0.60833 0.18986 0.2452 0.0
O268 O 0.64644 0.12127 0.16725 0.0
C269 C 0.67353 0.0863 0.20616 0.0
C270 C 0.63445 0.16813 0.22628 0.0
C271 C 0.59224 0.158 0.22975 0.0
N272 N 0.61916 0.13195 0.20788 0.0
C273 C 0.63804 0.14708 0.21283 0.0
C274 C 0.59651 0.1371 0.21626 0.0
C275 C 0.61137 0.1736 0.23476 0.0
C276 C 0.6353 0.02056 0.17112 0.0
N277 N 0.65695 0.03229 0.17293 0.0
C278 C 0.63157 0.99853 0.18286 0.0
C279 C 0.65022 0.98848 0.19647 0.0
C280 C 0.67228 0.00051 0.19816 0.0
C281 C 0.67533 0.02254 0.18624 0.0
C282 C 0.71554 0.02472 0.12175 0.0
C283 C 0.71118 0.06853 0.14552 0.0
C284 C 0.69356 0.03194 0.13184 0.0
N285 N 0.69164 0.05355 0.14366 0.0
C286 C 0.73344 0.06191 0.13564 0.0
C287 C 0.73559 0.03984 0.1237 0.0
C288 C 0.6599 0.11703 0.14902 0.0
C289 C 0.56165 0.097 0.14793 0.0
C290 C 0.5954 0.13246 0.15822 0.0
C291 C 0.57618 0.13771 0.14273 0.0
C292 C 0.55922 0.11982 0.13757 0.0
N293 N 0.59764 0.11004 0.16835 0.0
C294 C 0.58109 0.0924 0.16335 0.0
Co295 Co 0.33821 0.93631 0.15756 0.0
Co296 Co 0.3739 0.89753 0.19067 0.0
O297 O 0.3691 0.92689 0.17167 0.0
C298 C 0.36994 0.93865 0.11398 0.0
O299 O 0.37593 0.91589 0.11699 0.0
C300 C 0.39197 0.93658 0.22214 0.0
O301 O 0.37176 0.94824 0.21786 0.0
O302 O 0.34543 0.905 0.21152 0.0
O303 O 0.3203 0.92448 0.18636 0.0
H304 H 0.34815 0.82081 0.23183 0.0
H305 H 0.37807 0.97194 0.16114 0.0
O306 O 0.3554 0.94896 0.12848 0.0
H307 H 0.31071 0.00727 0.20753 0.0
H308 H 0.28277 0.99146 0.11101 0.0
H309 H 0.28971 0.91378 0.15411 0.0
H310 H 0.30595 0.96799 0.18704 0.0
H311 H 0.32135 0.97933 0.12972 0.0
O312 O 0.39544 0.91571 0.21313 0.0
H313 H 0.34223 0.85779 0.20767 0.0
H314 H 0.41665 0.8752 0.21476 0.0
H315 H 0.25074 0.9253 0.13582 0.0
H316 H 0.38355 0.01136 0.18117 0.0
H317 H 0.24709 0.9644 0.11408 0.0
H318 H 0.34974 0.02925 0.20464 0.0
O319 O 0.33442 0.90386 0.14214 0.0
H320 H 0.45074 0.91704 0.14642 0.0
H321 H 0.39113 0.85345 0.16477 0.0
H322 H 0.42558 0.84412 0.13811 0.0
H323 H 0.45573 0.87605 0.12883 0.0
H324 H 0.41587 0.92563 0.1728 0.0
H325 H 0.42334 0.83852 0.23918 0.0
H326 H 0.38895 0.81098 0.24777 0.0
O327 O 0.35272 0.87883 0.16843 0.0
C328 C 0.32488 0.91413 0.20639 0.0
C329 C 0.36329 0.83264 0.22816 0.0
C330 C 0.40548 0.84259 0.23231 0.0
N331 N 0.3791 0.86855 0.20968 0.0
C332 C 0.36006 0.85357 0.21443 0.0
C333 C 0.40157 0.86337 0.21853 0.0
C334 C 0.38618 0.82714 0.23711 0.0
C335 C 0.36319 0.97971 0.17112 0.0
N336 N 0.34169 0.96768 0.17286 0.0
C337 C 0.36644 0.002 0.1825 0.0
C338 C 0.34747 0.012 0.1957 0.0
C339 C 0.32558 0.99966 0.19735 0.0
C340 C 0.32301 0.97739 0.18577 0.0
C341 C 0.28412 0.9744 0.12046 0.0
C342 C 0.28824 0.93088 0.14479 0.0
C343 C 0.30594 0.9674 0.13105 0.0
N344 N 0.30774 0.94593 0.14313 0.0
C345 C 0.26614 0.93728 0.13442 0.0
C346 C 0.26411 0.95921 0.1222 0.0
C347 C 0.33962 0.88272 0.14986 0.0
C348 C 0.43774 0.90297 0.15036 0.0
C349 C 0.40406 0.86746 0.16069 0.0
C350 C 0.4236 0.86206 0.14566 0.0
C351 C 0.44052 0.87997 0.14047 0.0
N352 N 0.40148 0.89004 0.17035 0.0
C353 C 0.41799 0.9077 0.16533 0.0
Co354 Co 0.66524 0.93725 0.84592 0.0
Co355 Co 0.6265 0.903 0.81125 0.0
O356 O 0.63344 0.93068 0.83215 0.0
C357 C 0.63325 0.93905 0.88914 0.0
O358 O 0.624 0.9181 0.88291 0.0
C359 C 0.61011 0.94539 0.78385 0.0
O360 O 0.63061 0.95575 0.78969 0.0
O361 O 0.65458 0.91055 0.79013 0.0
O362 O 0.68169 0.92636 0.81579 0.0
H363 H 0.64688 0.82842 0.76365 0.0
H364 H 0.62797 0.97574 0.84648 0.0
O365 O 0.64973 0.94875 0.87638 0.0
H366 H 0.69611 0.00962 0.80014 0.0
H367 H 0.72542 0.98542 0.89432 0.0
H368 H 0.71213 0.91134 0.84659 0.0
H369 H 0.69861 0.9686 0.81734 0.0
H370 H 0.68566 0.97715 0.87594 0.0
O371 O 0.60548 0.92395 0.7907 0.0
H372 H 0.65549 0.86312 0.79028 0.0
H373 H 0.58192 0.88474 0.78712 0.0
H374 H 0.75222 0.91899 0.8645 0.0
H375 H 0.62483 0.01697 0.82985 0.0
H376 H 0.75906 0.95626 0.88857 0.0
H377 H 0.65903 0.03413 0.80641 0.0
O378 O 0.66716 0.90378 0.85904 0.0
H379 H 0.55167 0.92292 0.85866 0.0
H380 H 0.60821 0.8582 0.83506 0.0
H381 H 0.57402 0.84869 0.862 0.0
H382 H 0.54543 0.88117 0.87393 0.0
H383 H 0.58623 0.93168 0.83193 0.0
H384 H 0.57253 0.85037 0.76031 0.0
H385 H 0.60514 0.82187 0.74849 0.0
O386 O 0.64733 0.88155 0.83142 0.0
C387 C 0.6758 0.91797 0.79518 0.0
C388 C 0.6325 0.84067 0.76874 0.0
C389 C 0.59078 0.85301 0.76684 0.0
N390 N 0.61919 0.87581 0.7904 0.0
C391 C 0.63726 0.86031 0.78386 0.0
C392 C 0.59621 0.87246 0.78198 0.0
C393 C 0.60908 0.83702 0.76022 0.0
C394 C 0.64304 0.98318 0.83653 0.0
N395 N 0.66348 0.96979 0.83296 0.0
C396 C 0.64111 0.0065 0.82706 0.0
C397 C 0.66029 0.01609 0.81387 0.0
C398 C 0.68108 0.00234 0.81032 0.0
C399 C 0.68236 0.97908 0.82004 0.0
C400 C 0.72267 0.96914 0.88384 0.0
C401 C 0.715 0.92767 0.85692 0.0
C402 C 0.70019 0.96433 0.87343 0.0
N403 N 0.69663 0.94387 0.86005 0.0
C404 C 0.73772 0.93187 0.86708 0.0
C405 C 0.74154 0.95277 0.88059 0.0
C406 C 0.66086 0.88351 0.84999 0.0
C407 C 0.56397 0.90859 0.85354 0.0
C408 C 0.5959 0.87245 0.84024 0.0
C409 C 0.57654 0.86694 0.85545 0.0
C410 C 0.5605 0.88517 0.86212 0.0
N411 N 0.59915 0.89545 0.83184 0.0
C412 C 0.58352 0.91343 0.83833 0.0
Co413 Co 0.33085 0.06366 0.84616 0.0
Co414 Co 0.37094 0.10122 0.81614 0.0
O415 O 0.36316 0.07218 0.83481 0.0
C416 C 0.36055 0.06306 0.891 0.0
O417 O 0.37026 0.08372 0.88452 0.0
C418 C 0.38686 0.06049 0.78597 0.0
O419 O 0.36638 0.04984 0.79134 0.0
O420 O 0.3428 0.09633 0.79407 0.0
O421 O 0.31643 0.07361 0.81488 0.0
H422 H 0.35291 0.18016 0.77508 0.0
H423 H 0.37055 0.02781 0.84948 0.0
O424 O 0.34454 0.05311 0.87783 0.0
H425 H 0.30836 0.98943 0.7985 0.0
H426 H 0.27021 0.01168 0.88981 0.0
H427 H 0.28232 0.08606 0.84228 0.0
H428 H 0.30183 0.03013 0.8154 0.0
H429 H 0.31073 0.02264 0.87485 0.0
O430 O 0.39159 0.08149 0.79404 0.0
H431 H 0.34321 0.14359 0.79867 0.0
H432 H 0.41611 0.12012 0.79364 0.0
H433 H 0.24146 0.07569 0.8567 0.0
H434 H 0.37769 0.98694 0.83323 0.0
H435 H 0.23521 0.03826 0.88067 0.0
H436 H 0.34651 0.96752 0.80744 0.0
O437 O 0.32558 0.09694 0.85911 0.0
H438 H 0.44452 0.07527 0.8626 0.0
H439 H 0.39061 0.1435 0.84314 0.0
H440 H 0.42474 0.14981 0.87112 0.0
H441 H 0.452 0.11553 0.88097 0.0
H442 H 0.41003 0.06971 0.83493 0.0
H443 H 0.42656 0.15633 0.76983 0.0
H444 H 0.39485 0.1867 0.76049 0.0
O445 O 0.35058 0.12127 0.83802 0.0
C446 C 0.32247 0.08569 0.79627 0.0
C447 C 0.3669 0.16709 0.7791 0.0
C448 C 0.40823 0.1537 0.77612 0.0
N449 N 0.37911 0.12985 0.79767 0.0
C450 C 0.36153 0.1464 0.7925 0.0
C451 C 0.40219 0.13321 0.78955 0.0
C452 C 0.39043 0.17074 0.77089 0.0
C453 C 0.35678 0.01938 0.83849 0.0
N454 N 0.33576 0.03133 0.83346 0.0
C455 C 0.36097 0.99627 0.82925 0.0
C456 C 0.34348 0.98541 0.81475 0.0
C457 C 0.32209 0.9977 0.8097 0.0
C458 C 0.31853 0.02079 0.81925 0.0
C459 C 0.27271 0.02804 0.87939 0.0
C460 C 0.27974 0.06971 0.85263 0.0
C461 C 0.29563 0.03439 0.87094 0.0
N462 N 0.29889 0.05496 0.85767 0.0
C463 C 0.25656 0.06395 0.86078 0.0
C464 C 0.25307 0.04296 0.87424 0.0
C465 C 0.33414 0.11772 0.85378 0.0
C466 C 0.43279 0.09035 0.85842 0.0
C467 C 0.40231 0.12847 0.84747 0.0
C468 C 0.42166 0.13217 0.86325 0.0
C469 C 0.43696 0.11294 0.86875 0.0
N470 N 0.39833 0.10627 0.83742 0.0
C471 C 0.41328 0.08733 0.8427 0.0
Co472 Co 0.1501 0.66434 0.06513 0.0
Co473 Co 0.1849 0.62594 0.09959 0.0
O474 O 0.16451 0.6328 0.07156 0.0
C475 C 0.10839 0.63054 0.06134 0.0
O476 O 0.11586 0.61949 0.08095 0.0
C477 C 0.21471 0.61093 0.05812 0.0
O478 O 0.21092 0.63245 0.04887 0.0
O479 O 0.2056 0.65468 0.09298 0.0
O480 O 0.17965 0.68126 0.07676 0.0
H481 H 0.23049 0.64611 0.17547 0.0
H482 H 0.15177 0.62716 0.02666 0.0
O483 O 0.12007 0.64847 0.05292 0.0
H484 H 0.19696 0.69671 0.99412 0.0
H485 H 0.10167 0.72421 0.01662 0.0
H486 H 0.14781 0.71081 0.09167 0.0
H487 H 0.17819 0.69879 0.03446 0.0
H488 H 0.12074 0.68475 0.02475 0.0
O489 O 0.20609 0.60555 0.07874 0.0
H490 H 0.20444 0.65474 0.14035 0.0
H491 H 0.20952 0.58157 0.11769 0.0
H492 H 0.12919 0.75061 0.08419 0.0
H493 H 0.17015 0.62434 0.98616 0.0
H494 H 0.10592 0.7575 0.04643 0.0
H495 H 0.19299 0.65928 0.96967 0.0
O496 O 0.13626 0.66555 0.09835 0.0
H497 H 0.13978 0.55018 0.07782 0.0
H498 H 0.16039 0.60667 0.14358 0.0
H499 H 0.13404 0.57176 0.15211 0.0
H500 H 0.12361 0.54319 0.1191 0.0
H501 H 0.16586 0.58545 0.07002 0.0
H502 H 0.23578 0.57219 0.15248 0.0
H503 H 0.24634 0.60458 0.18171 0.0
O504 O 0.16392 0.64607 0.12084 0.0
C505 C 0.20019 0.67585 0.08563 0.0
C506 C 0.22596 0.63183 0.1629 0.0
C507 C 0.22895 0.59035 0.14998 0.0
N508 N 0.20533 0.61864 0.1271 0.0
C509 C 0.21117 0.63659 0.14302 0.0
C510 C 0.21413 0.59578 0.13029 0.0
C511 C 0.23486 0.60853 0.16638 0.0
C512 C 0.16149 0.64252 0.01951 0.0
N513 N 0.16382 0.66315 0.03288 0.0
C514 C 0.17193 0.64078 0.9966 0.0
C515 C 0.18479 0.66037 0.98738 0.0
C516 C 0.18703 0.68138 0.0011 0.0
C517 C 0.17641 0.68243 0.02396 0.0
C518 C 0.11179 0.72144 0.03313 0.0
C519 C 0.13781 0.71371 0.07514 0.0
C520 C 0.12258 0.69911 0.03785 0.0
N521 N 0.13548 0.69552 0.0586 0.0
C522 C 0.12726 0.73627 0.07103 0.0
C523 C 0.11419 0.74011 0.04985 0.0
C524 C 0.1451 0.6592 0.11871 0.0
C525 C 0.14424 0.56246 0.09237 0.0
C526 C 0.15585 0.59439 0.12909 0.0
C527 C 0.14098 0.57461 0.13405 0.0
C528 C 0.13515 0.55857 0.11552 0.0
N529 N 0.16472 0.59807 0.10634 0.0
C530 C 0.15908 0.58242 0.08809 0.0
Co531 Co 0.15795 0.34194 0.93295 0.0
Co532 Co 0.1837 0.38048 0.8909 0.0
O533 O 0.16813 0.37391 0.92196 0.0
C534 C 0.11328 0.37158 0.93602 0.0
O535 O 0.11888 0.38135 0.91515 0.0
C536 C 0.2178 0.39938 0.92727 0.0
O537 O 0.21509 0.37903 0.93916 0.0
O538 O 0.20668 0.35297 0.89503 0.0
O539 O 0.18863 0.32746 0.92109 0.0
H540 H 0.21714 0.35929 0.80919 0.0
H541 H 0.15755 0.38351 0.96672 0.0
O542 O 0.12696 0.35568 0.94546 0.0
H543 H 0.2126 0.32382 0.00342 0.0
H544 H 0.12006 0.28338 0.9914 0.0
H545 H 0.16007 0.29257 0.91232 0.0
H546 H 0.19173 0.31482 0.96509 0.0
H547 H 0.13357 0.32347 0.97737 0.0
O548 O 0.20696 0.40264 0.90726 0.0
H549 H 0.19753 0.35099 0.84833 0.0
H550 H 0.20313 0.42506 0.86767 0.0
H551 H 0.14703 0.2521 0.92572 0.0
H552 H 0.17791 0.3932 0.00517 0.0
H553 H 0.12685 0.24733 0.96553 0.0
H554 H 0.20573 0.36326 0.02373 0.0
O555 O 0.14206 0.33489 0.90126 0.0
H556 H 0.1385 0.45473 0.91723 0.0
H557 H 0.15182 0.39702 0.85067 0.0
H558 H 0.12259 0.43024 0.84536 0.0
H559 H 0.1158 0.45941 0.8788 0.0
H560 H 0.16738 0.42111 0.92185 0.0
H561 H 0.22298 0.43413 0.82881 0.0
H562 H 0.23002 0.40112 0.79922 0.0
O563 O 0.16076 0.35865 0.87412 0.0
C564 C 0.20586 0.33329 0.90701 0.0
C565 C 0.21414 0.37383 0.82191 0.0
C566 C 0.21745 0.41583 0.83294 0.0
N567 N 0.19912 0.38752 0.86022 0.0
C568 C 0.20301 0.36925 0.84409 0.0
C569 C 0.20627 0.41057 0.85495 0.0
C570 C 0.22137 0.3973 0.81634 0.0
C571 C 0.16945 0.37031 0.97481 0.0
N572 N 0.1734 0.3486 0.96371 0.0
C573 C 0.181 0.37593 0.99653 0.0
C574 C 0.19664 0.35914 0.00691 0.0
C575 C 0.20052 0.33701 0.99552 0.0
C576 C 0.18869 0.33204 0.97379 0.0
C577 C 0.12886 0.28522 0.97403 0.0
C578 C 0.15143 0.2906 0.92972 0.0
C579 C 0.13649 0.30789 0.96597 0.0
N580 N 0.14772 0.31032 0.94411 0.0
C581 C 0.14402 0.26766 0.93719 0.0
C582 C 0.13268 0.265 0.95951 0.0
C583 C 0.14558 0.34226 0.87967 0.0
C584 C 0.14134 0.44217 0.90251 0.0
C585 C 0.14889 0.40957 0.86533 0.0
C586 C 0.13237 0.42839 0.8622 0.0
C587 C 0.12859 0.44476 0.88096 0.0
N588 N 0.16135 0.40715 0.88652 0.0
C589 C 0.15774 0.42315 0.90498 0.0
Co590 Co 0.84399 0.66049 0.93456 0.0
Co591 Co 0.81182 0.62303 0.89647 0.0
O592 O 0.8307 0.62897 0.92579 0.0
C593 C 0.88668 0.62785 0.93778 0.0
O594 O 0.88016 0.61768 0.91736 0.0
C595 C 0.78068 0.60494 0.93581 0.0
O596 O 0.78485 0.62519 0.94745 0.0
O597 O 0.79025 0.65113 0.90321 0.0
O598 O 0.81435 0.67714 0.92287 0.0
H599 H 0.77018 0.64603 0.81914 0.0
H600 H 0.84246 0.62111 0.97078 0.0
O601 O 0.87411 0.64485 0.94684 0.0
H602 H 0.79394 0.68715 0.00577 0.0
H603 H 0.88881 0.71873 0.98826 0.0
H604 H 0.84556 0.70859 0.91102 0.0
H605 H 0.81372 0.69212 0.96617 0.0
H606 H 0.87136 0.67927 0.97708 0.0
O607 O 0.78975 0.60143 0.91499 0.0
H608 H 0.79409 0.65338 0.85602 0.0
H609 H 0.78896 0.57918 0.87499 0.0
H610 H 0.86254 0.74842 0.92157 0.0
H611 H 0.82315 0.61543 0.01054 0.0
H612 H 0.88437 0.75368 0.96044 0.0
H613 H 0.79862 0.64858 0.02825 0.0
O614 O 0.85898 0.66422 0.90197 0.0
H615 H 0.85719 0.54726 0.91764 0.0
H616 H 0.83875 0.60574 0.85302 0.0
H617 H 0.86618 0.57167 0.84457 0.0
H618 H 0.87553 0.54209 0.87701 0.0
H619 H 0.83007 0.58176 0.92538 0.0
H620 H 0.76483 0.57106 0.83841 0.0
H621 H 0.75537 0.60462 0.81014 0.0
O622 O 0.83357 0.64429 0.87733 0.0
C623 C 0.79459 0.67186 0.91232 0.0
C624 C 0.77423 0.63124 0.83128 0.0
C625 C 0.7712 0.58918 0.84212 0.0
N626 N 0.79305 0.6167 0.86756 0.0
C627 C 0.78782 0.63528 0.85216 0.0
C628 C 0.78482 0.59389 0.86283 0.0
C629 C 0.76591 0.60801 0.82626 0.0
C630 C 0.832 0.6357 0.97848 0.0
N631 N 0.82928 0.65695 0.96619 0.0
C632 C 0.82104 0.63235 0.00096 0.0
C633 C 0.80724 0.65094 0.01086 0.0
C634 C 0.80459 0.67258 0.99825 0.0
C635 C 0.81577 0.67526 0.97579 0.0
C636 C 0.87933 0.71668 0.97128 0.0
C637 C 0.85493 0.71076 0.92802 0.0
C638 C 0.86947 0.69436 0.96482 0.0
N639 N 0.85737 0.69165 0.94346 0.0
C640 C 0.86455 0.73335 0.93387 0.0
C641 C 0.87681 0.73628 0.95567 0.0
C642 C 0.85159 0.65818 0.88095 0.0
C643 C 0.85322 0.56 0.90334 0.0
C644 C 0.84283 0.59305 0.86726 0.0
C645 C 0.85831 0.57373 0.86235 0.0
C646 C 0.86353 0.55713 0.88055 0.0
N647 N 0.83279 0.59574 0.88966 0.0
C648 C 0.8378 0.57952 0.90759 0.0
Co649 Co 0.84919 0.33544 0.06154 0.0
Co650 Co 0.8167 0.3721 0.09998 0.0
O651 O 0.83551 0.36664 0.07059 0.0
C652 C 0.89135 0.36863 0.05826 0.0
O653 O 0.88509 0.37813 0.07908 0.0
C654 C 0.78486 0.38947 0.061 0.0
O655 O 0.78789 0.36843 0.05046 0.0
O656 O 0.79545 0.34378 0.0931 0.0
O657 O 0.82003 0.31818 0.0735 0.0
H658 H 0.77532 0.34824 0.17718 0.0
H659 H 0.84623 0.37501 0.02563 0.0
O660 O 0.87883 0.35173 0.04897 0.0
H661 H 0.7986 0.30817 0.99092 0.0
H662 H 0.89443 0.27823 0.00712 0.0
H663 H 0.85203 0.28734 0.08494 0.0
H664 H 0.81924 0.30332 0.03011 0.0
H665 H 0.87637 0.31732 0.01863 0.0
O666 O 0.79456 0.39365 0.08142 0.0
H667 H 0.79931 0.34133 0.14027 0.0
H668 H 0.79336 0.41556 0.12165 0.0
H669 H 0.86965 0.24788 0.07406 0.0
H670 H 0.82598 0.38062 0.98633 0.0
H671 H 0.89104 0.24314 0.0349 0.0
H672 H 0.8019 0.34706 0.96875 0.0
O673 O 0.86457 0.33195 0.09395 0.0
H674 H 0.86126 0.44857 0.07958 0.0
H675 H 0.8436 0.3891 0.14352 0.0
H676 H 0.87067 0.42338 0.15234 0.0
H677 H 0.87962 0.45344 0.12024 0.0
H678 H 0.8345 0.41388 0.07147 0.0
H679 H 0.76914 0.42324 0.15827 0.0
H680 H 0.76005 0.38944 0.18638 0.0
O681 O 0.8387 0.35084 0.11895 0.0
C682 C 0.80017 0.32311 0.08403 0.0
C683 C 0.77921 0.36312 0.16511 0.0
C684 C 0.77572 0.40521 0.15448 0.0
N685 N 0.79787 0.37805 0.12892 0.0
C686 C 0.79284 0.35934 0.14421 0.0
C687 C 0.78939 0.40074 0.13375 0.0
C688 C 0.77064 0.38624 0.17025 0.0
C689 C 0.83597 0.36025 0.01799 0.0
N690 N 0.83399 0.33883 0.03012 0.0
C691 C 0.82447 0.36356 0.99577 0.0
C692 C 0.81093 0.34474 0.98595 0.0
C693 C 0.80905 0.32292 0.99838 0.0
C694 C 0.82074 0.32029 0.0206 0.0
C695 C 0.88513 0.28006 0.02422 0.0
C696 C 0.8612 0.28539 0.06782 0.0
C697 C 0.87493 0.30217 0.03087 0.0
N698 N 0.86305 0.30457 0.05238 0.0
C699 C 0.87119 0.26301 0.06178 0.0
C700 C 0.88321 0.26037 0.03981 0.0
C701 C 0.85707 0.33748 0.11507 0.0
C702 C 0.85746 0.43562 0.09373 0.0
C703 C 0.8475 0.40203 0.12943 0.0
C704 C 0.86278 0.42145 0.13455 0.0
C705 C 0.86778 0.43832 0.11654 0.0
N706 N 0.83742 0.39951 0.10702 0.0
C707 C 0.84223 0.41599 0.08927 0.0
H708 H 0.92803 0.25476 0.41894 0.0
H709 H 0.94749 0.26951 0.45587 0.0
H710 H 0.00521 0.21794 0.44544 0.0
H711 H 0.98691 0.20501 0.40761 0.0
H712 H 0.95195 0.24868 0.49423 0.0
H713 H 0.04523 0.26994 0.46959 0.0
H714 H 0.02247 0.26528 0.44675 0.0
H715 H 0.03965 0.2401 0.4586 0.0
C716 C 0.94539 0.24737 0.42419 0.0
C717 C 0.95625 0.22908 0.41043 0.0
C718 C 0.95644 0.25565 0.44534 0.0
C719 C 0.97813 0.24518 0.45347 0.0
C720 C 0.98913 0.22717 0.43926 0.0
H721 H 0.00941 0.19946 0.59353 0.0
H722 H 0.98978 0.21336 0.55668 0.0
C723 C 0.97855 0.21957 0.41768 0.0
C724 C 0.98749 0.25044 0.47813 0.0
H725 H 0.03994 0.25206 0.51025 0.0
C726 C 0.97119 0.25013 0.49763 0.0
C727 C 0.01245 0.25331 0.48297 0.0
C728 C 0.0308 0.25749 0.46325 0.0
C729 C 0.9793 0.25043 0.52163 0.0
C730 C 0.00443 0.24948 0.52633 0.0
C731 C 0.02063 0.25203 0.50691 0.0
C732 C 0.01434 0.24336 0.55058 0.0
C733 C 0.96071 0.25153 0.54153 0.0
C734 C 0.03508 0.2551 0.55943 0.0
C735 C 0.04697 0.24633 0.57992 0.0
C736 C 0.03782 0.22625 0.59235 0.0
C737 C 0.01638 0.21537 0.58449 0.0
C738 C 0.00504 0.22351 0.5635 0.0
H739 H 0.94521 0.26307 0.53605 0.0
H740 H 0.95347 0.23313 0.54489 0.0
H741 H 0.96836 0.25883 0.55858 0.0
H742 H 0.04272 0.27039 0.5499 0.0
H743 H 0.06367 0.25479 0.58565 0.0
H744 H 0.02027 0.75601 0.39557 0.0
H745 H 0.99642 0.74264 0.43037 0.0
H746 H 0.05578 0.75995 0.47783 0.0
H747 H 0.07993 0.77255 0.44332 0.0
H748 H 0.03031 0.7193 0.49295 0.0
H749 H 0.96931 0.79667 0.47221 0.0
H750 H 0.97209 0.77438 0.44882 0.0
H751 H 0.99779 0.79247 0.45702 0.0
C752 C 0.02842 0.75645 0.41336 0.0
C753 C 0.05182 0.76574 0.41674 0.0
C754 C 0.01475 0.74889 0.43321 0.0
C755 C 0.02418 0.75083 0.45669 0.0
C756 C 0.04814 0.75838 0.45987 0.0
H757 H 0.98484 0.77281 0.60194 0.0
H758 H 0.00514 0.75867 0.56532 0.0
C759 C 0.06187 0.76572 0.44009 0.0
C760 C 0.00853 0.74799 0.47815 0.0
H761 H 0.96197 0.77534 0.50776 0.0
C762 C 0.01511 0.73127 0.49609 0.0
C763 C 0.98886 0.76381 0.48224 0.0
C764 C 0.98163 0.78299 0.4642 0.0
C765 C 0.00284 0.73034 0.51829 0.0
C766 C 0.98373 0.7467 0.52261 0.0
C767 C 0.97656 0.7627 0.5043 0.0
C768 C 0.97209 0.74939 0.54652 0.0
C769 C 0.01064 0.71217 0.53703 0.0
C770 C 0.94684 0.74838 0.54829 0.0
C771 C 0.93523 0.75677 0.569 0.0
C772 C 0.94869 0.76628 0.58833 0.0
C773 C 0.97403 0.76547 0.58736 0.0
C774 C 0.98566 0.75725 0.56649 0.0
H775 H 0.01979 0.69642 0.52858 0.0
H776 H 0.02366 0.72085 0.54957 0.0
H777 H 0.995 0.70562 0.54774 0.0
H778 H 0.93605 0.74247 0.53306 0.0
H779 H 0.91565 0.75698 0.56935 0.0
H780 H 0.43227 0.9156 0.24088 0.0
H781 H 0.46958 0.93577 0.25291 0.0
H782 H 0.43599 0.00514 0.24125 0.0
H783 H 0.39838 0.98507 0.22953 0.0
H784 H 0.49292 0.96337 0.2196 0.0
H785 H 0.47595 0.01745 0.30208 0.0
H786 H 0.45654 0.99285 0.29285 0.0
H787 H 0.45374 0.02207 0.2789 0.0
C788 C 0.4326 0.93517 0.24151 0.0
C789 C 0.41248 0.94878 0.23404 0.0
C790 C 0.45392 0.94665 0.24846 0.0
C791 C 0.45553 0.97193 0.2481 0.0
C792 C 0.43499 0.98561 0.24214 0.0
H793 H 0.56069 0.08001 0.22722 0.0
H794 H 0.52559 0.05602 0.23861 0.0
C795 C 0.41354 0.97412 0.23532 0.0
C796 C 0.47949 0.98367 0.24995 0.0
H797 H 0.51074 0.02856 0.27847 0.0
C798 C 0.49702 0.97729 0.23278 0.0
C799 C 0.48465 0.00193 0.26704 0.0
C800 C 0.4668 0.00885 0.28641 0.0
C801 C 0.51915 0.98946 0.23143 0.0
C802 C 0.52413 0.00818 0.24812 0.0
C803 C 0.50691 0.01408 0.26582 0.0
C804 C 0.54597 0.0234 0.24564 0.0
C805 C 0.5364 0.98308 0.21125 0.0
C806 C 0.5692 0.01326 0.24678 0.0
C807 C 0.58937 0.02687 0.23999 0.0
C808 C 0.58658 0.0509 0.23221 0.0
C809 C 0.56347 0.06149 0.23291 0.0
C810 C 0.54336 0.04784 0.23953 0.0
H811 H 0.52767 0.97176 0.19714 0.0
H812 H 0.54362 0.99965 0.20253 0.0
H813 H 0.55185 0.97274 0.21875 0.0
H814 H 0.5716 0.99452 0.25189 0.0
H815 H 0.60695 0.01825 0.23984 0.0
H816 H 0.5931 0.98722 0.80201 0.0
H817 H 0.55483 0.00671 0.79194 0.0
H818 H 0.54466 0.95635 0.73313 0.0
H819 H 0.58197 0.93545 0.74485 0.0
H820 H 0.53512 0.02921 0.75786 0.0
H821 H 0.48441 0.94317 0.76744 0.0
H822 H 0.51612 0.94532 0.77414 0.0
H823 H 0.50594 0.94261 0.7433 0.0
C824 C 0.58281 0.98061 0.78672 0.0
C825 C 0.5902 0.9599 0.77422 0.0
C826 C 0.56092 0.99169 0.78095 0.0
C827 C 0.54637 0.98258 0.76219 0.0
C828 C 0.55497 0.96312 0.74831 0.0
H829 H 0.41453 0.07132 0.74683 0.0
H830 H 0.45188 0.05087 0.73441 0.0
C831 C 0.57643 0.95142 0.75472 0.0
C832 C 0.52174 0.9927 0.75851 0.0
H833 H 0.4619 0.97767 0.75794 0.0
C834 C 0.51909 0.01793 0.75785 0.0
C835 C 0.50076 0.97797 0.75857 0.0
C836 C 0.50188 0.95081 0.76113 0.0
C837 C 0.49626 0.0289 0.7589 0.0
C838 C 0.47528 0.01417 0.7589 0.0
C839 C 0.47792 0.98895 0.75789 0.0
C840 C 0.45069 0.0242 0.76308 0.0
C841 C 0.49516 0.05603 0.76177 0.0
C842 C 0.43644 0.01475 0.78189 0.0
C843 C 0.41455 0.02558 0.78806 0.0
C844 C 0.40681 0.04637 0.7759 0.0
C845 C 0.42032 0.05525 0.7564 0.0
C846 C 0.44181 0.04382 0.7496 0.0
H847 H 0.51271 0.06363 0.7679 0.0
H848 H 0.49081 0.06441 0.74409 0.0
H849 H 0.48109 0.06137 0.77504 0.0
H850 H 0.44276 0.99963 0.79261 0.0
H851 H 0.40451 0.01868 0.80338 0.0
H852 H 0.23386 0.44016 0.90505 0.0
H853 H 0.24615 0.47784 0.92438 0.0
H854 H 0.24043 0.44392 0.99432 0.0
H855 H 0.22853 0.40597 0.97507 0.0
H856 H 0.21417 0.5001 0.95383 0.0
H857 H 0.3001 0.48609 0.00303 0.0
H858 H 0.29007 0.46619 0.97915 0.0
H859 H 0.27817 0.46302 0.00924 0.0
C860 C 0.23589 0.44052 0.92452 0.0
C861 C 0.23001 0.4202 0.93859 0.0
C862 C 0.24298 0.46205 0.93551 0.0
C863 C 0.24433 0.46367 0.96076 0.0
C864 C 0.24002 0.44295 0.97478 0.0
H865 H 0.22375 0.56448 0.07174 0.0
H866 H 0.23594 0.531 0.04595 0.0
C867 C 0.23308 0.42129 0.96376 0.0
C868 C 0.24603 0.48768 0.97241 0.0
H869 H 0.27534 0.51944 0.0164 0.0
C870 C 0.22787 0.50457 0.96713 0.0
C871 C 0.26381 0.49335 0.98984 0.0
C872 C 0.28428 0.47628 0.9955 0.0
C873 C 0.22614 0.52643 0.97976 0.0
C874 C 0.24343 0.53178 0.99781 0.0
C875 C 0.2622 0.51532 0.00245 0.0
C876 C 0.24043 0.55292 0.0139 0.0
C877 C 0.20492 0.54285 0.97468 0.0
C878 C 0.23985 0.57653 0.00463 0.0
C879 C 0.23257 0.59579 0.0193 0.0
C880 C 0.22603 0.59168 0.0435 0.0
C881 C 0.22842 0.56826 0.05311 0.0
C882 C 0.23553 0.54908 0.03843 0.0
H883 H 0.19083 0.53382 0.96359 0.0
H884 H 0.1965 0.54908 0.99179 0.0
H885 H 0.21128 0.55899 0.96464 0.0
H886 H 0.244 0.57989 0.9858 0.0
H887 H 0.23111 0.61364 0.01141 0.0
H888 H 0.76103 0.56527 0.91456 0.0
H889 H 0.74903 0.52774 0.93433 0.0
H890 H 0.7623 0.56009 0.00399 0.0
H891 H 0.774 0.59793 0.98432 0.0
H892 H 0.78308 0.50401 0.96086 0.0
H893 H 0.70159 0.51984 0.01677 0.0
H894 H 0.71024 0.53961 0.99225 0.0
H895 H 0.7248 0.54208 0.0212 0.0
C896 C 0.76075 0.56463 0.93413 0.0
C897 C 0.76869 0.58444 0.94792 0.0
C898 C 0.75381 0.54319 0.94537 0.0
C899 C 0.75466 0.54115 0.9706 0.0
C900 C 0.76103 0.56142 0.98451 0.0
H901 H 0.77811 0.43553 0.07707 0.0
H902 H 0.76573 0.47048 0.05341 0.0
C903 C 0.76784 0.583 0.97325 0.0
C904 C 0.75306 0.51699 0.98193 0.0
H905 H 0.72556 0.48496 0.02686 0.0
C906 C 0.77018 0.49963 0.97496 0.0
C907 C 0.73634 0.51148 0.00041 0.0
C908 C 0.71705 0.52916 0.00797 0.0
C909 C 0.77189 0.47734 0.98679 0.0
C910 C 0.7556 0.47202 0.00576 0.0
C911 C 0.7379 0.48904 0.0122 0.0
C912 C 0.75867 0.45013 0.0208 0.0
C913 C 0.79209 0.46034 0.97981 0.0
C914 C 0.75784 0.42691 0.01056 0.0
C915 C 0.76525 0.40681 0.02398 0.0
C916 C 0.77329 0.40966 0.04791 0.0
C917 C 0.77225 0.4327 0.05861 0.0
C918 C 0.76505 0.45273 0.04515 0.0
H919 H 0.80589 0.46931 0.96831 0.0
H920 H 0.80122 0.45302 0.99611 0.0
H921 H 0.78452 0.44493 0.96945 0.0
H922 H 0.75251 0.4245 0.99189 0.0
H923 H 0.76563 0.38928 0.01529 0.0
H924 H 0.1621 0.15961 0.64577 0.0
H925 H 0.19921 0.14579 0.66499 0.0
H926 H 0.15871 0.09357 0.70624 0.0
H927 H 0.12127 0.10744 0.68734 0.0
H928 H 0.18718 0.12447 0.73402 0.0
H929 H 0.24091 0.08483 0.65912 0.0
H930 H 0.22913 0.11449 0.65314 0.0
H931 H 0.20867 0.08958 0.65704 0.0
C932 C 0.16103 0.14486 0.65859 0.0
C933 C 0.1386 0.13473 0.66509 0.0
C934 C 0.18236 0.13687 0.66942 0.0
C935 C 0.18173 0.1185 0.68684 0.0
C936 C 0.15955 0.10769 0.69271 0.0
H937 H 0.28039 0.0605 0.7914 0.0
H938 H 0.24776 0.06785 0.76294 0.0
C939 C 0.13818 0.11564 0.68187 0.0
C940 C 0.20369 0.11253 0.70088 0.0
H941 H 0.26157 0.09149 0.69632 0.0
C942 C 0.20337 0.1171 0.7258 0.0
C943 C 0.22489 0.10327 0.69 0.0
C944 C 0.22596 0.09754 0.66338 0.0
C945 C 0.22372 0.11274 0.74018 0.0
C946 C 0.24482 0.10317 0.72941 0.0
C947 C 0.24531 0.09883 0.70445 0.0
C948 C 0.26609 0.09682 0.74424 0.0
C949 C 0.22259 0.11868 0.76678 0.0
C950 C 0.28764 0.11005 0.74242 0.0
C951 C 0.30658 0.10581 0.75868 0.0
C952 C 0.30413 0.08829 0.77695 0.0
C953 C 0.28291 0.07428 0.77775 0.0
C954 C 0.26416 0.07845 0.76151 0.0
H955 H 0.20749 0.13123 0.771 0.0
H956 H 0.2197 0.10179 0.7772 0.0
H957 H 0.23978 0.12696 0.77302 0.0
H958 H 0.28942 0.12428 0.7291 0.0
H959 H 0.32267 0.1169 0.75753 0.0
H960 H 0.67277 0.89806 0.74977 0.0
H961 H 0.70583 0.89179 0.72104 0.0
H962 H 0.7554 0.92644 0.77016 0.0
H963 H 0.72268 0.9331 0.79877 0.0
H964 H 0.76203 0.93972 0.721 0.0
H965 H 0.75784 0.84013 0.73435 0.0
H966 H 0.73011 0.85418 0.72496 0.0
H967 H 0.74258 0.86108 0.75412 0.0
C968 C 0.69064 0.90459 0.75437 0.0
C969 C 0.69506 0.91589 0.77671 0.0
C970 C 0.70951 0.90091 0.73796 0.0
C971 C 0.73307 0.90837 0.74368 0.0
C972 C 0.73734 0.92053 0.76546 0.0
H973 H 0.87856 0.88831 0.69131 0.0
H974 H 0.84198 0.90407 0.71054 0.0
C975 C 0.71856 0.92422 0.78183 0.0
C976 C 0.75368 0.90232 0.72778 0.0
H977 H 0.78683 0.85473 0.707 0.0
C978 C 0.76742 0.92115 0.71777 0.0
C979 C 0.7607 0.87808 0.72382 0.0
C980 C 0.74721 0.85716 0.735 0.0
C981 C 0.78803 0.91634 0.70375 0.0
C982 C 0.79518 0.8921 0.70004 0.0
C983 C 0.78124 0.87331 0.70982 0.0
C984 C 0.81729 0.88552 0.68651 0.0
C985 C 0.80184 0.93718 0.69289 0.0
C986 C 0.81554 0.86999 0.6666 0.0
C987 C 0.83631 0.86077 0.65578 0.0
C988 C 0.85936 0.86687 0.66465 0.0
C989 C 0.86112 0.88334 0.68394 0.0
C990 C 0.84022 0.89247 0.69488 0.0
H991 H 0.79057 0.95377 0.69182 0.0
H992 H 0.81774 0.94124 0.70441 0.0
H993 H 0.80844 0.93263 0.6745 0.0
H994 H 0.79801 0.86435 0.65991 0.0
H995 H 0.83419 0.84818 0.64096 0.0
H996 H 0.32331 0.88795 0.2487 0.0
H997 H 0.28802 0.88149 0.2748 0.0
H998 H 0.24568 0.9287 0.22958 0.0
H999 H 0.28034 0.93508 0.20341 0.0
H1000 H 0.25618 0.91608 0.30003 0.0
H1001 H 0.20936 0.863 0.22874 0.0
H1002 H 0.24138 0.86917 0.22787 0.0
H1003 H 0.2201 0.89216 0.21936 0.0
C1004 C 0.30656 0.89716 0.24447 0.0
C1005 C 0.30467 0.91188 0.22382 0.0
C1006 C 0.28645 0.89346 0.25939 0.0
C1007 C 0.26422 0.90435 0.25384 0.0
C1008 C 0.2626 0.91985 0.23392 0.0
H1009 H 0.11769 0.8847 0.30827 0.0
H1010 H 0.15328 0.9011 0.2876 0.0
C1011 C 0.28254 0.92351 0.21902 0.0
C1012 C 0.24232 0.89879 0.26807 0.0
H1013 H 0.18684 0.87223 0.26378 0.0
C1014 C 0.24101 0.90646 0.29219 0.0
C1015 C 0.22256 0.88636 0.25766 0.0
C1016 C 0.22338 0.87699 0.23205 0.0
C1017 C 0.22026 0.90217 0.30616 0.0
C1018 C 0.20057 0.88957 0.29578 0.0
C1019 C 0.20187 0.8821 0.2716 0.0
C1020 C 0.17917 0.88226 0.31006 0.0
C1021 C 0.21949 0.91136 0.33181 0.0
C1022 C 0.18198 0.86641 0.32958 0.0
C1023 C 0.1618 0.85701 0.34135 0.0
C1024 C 0.13829 0.86315 0.33377 0.0
C1025 C 0.1355 0.87968 0.31465 0.0
C1026 C 0.1558 0.88903 0.30281 0.0
H1027 H 0.23227 0.92659 0.33456 0.0
H1028 H 0.20102 0.91743 0.33678 0.0
H1029 H 0.2248 0.89656 0.34425 0.0
H1030 H 0.1998 0.8605 0.33512 0.0
H1031 H 0.16474 0.84429 0.35591 0.0
H1032 H 0.67511 0.11447 0.24718 0.0
H1033 H 0.71016 0.12136 0.2735 0.0
H1034 H 0.75177 0.07052 0.23165 0.0
H1035 H 0.71738 0.0638 0.20521 0.0
H1036 H 0.74054 0.08838 0.30135 0.0
H1037 H 0.79019 0.1344 0.22726 0.0
H1038 H 0.75806 0.12889 0.22609 0.0
H1039 H 0.77899 0.10491 0.21961 0.0
C1040 C 0.69163 0.10456 0.24376 0.0
C1041 C 0.69343 0.08875 0.22392 0.0
C1042 C 0.71161 0.10851 0.2588 0.0
C1043 C 0.73361 0.09674 0.25421 0.0
C1044 C 0.73507 0.08009 0.23522 0.0
H1045 H 0.8804 0.11072 0.30844 0.0
H1046 H 0.84359 0.09575 0.28892 0.0
C1047 C 0.71527 0.07623 0.22016 0.0
C1048 C 0.75552 0.10255 0.26838 0.0
H1049 H 0.81229 0.12597 0.26287 0.0
C1050 C 0.75622 0.09667 0.29302 0.0
C1051 C 0.77592 0.11332 0.25737 0.0
C1052 C 0.77578 0.12097 0.23118 0.0
C1053 C 0.77705 0.10096 0.30691 0.0
C1054 C 0.79747 0.11166 0.29585 0.0
C1055 C 0.7967 0.11751 0.27121 0.0
C1056 C 0.81936 0.11837 0.30967 0.0
C1057 C 0.77717 0.09372 0.33318 0.0
C1058 C 0.81787 0.13588 0.32788 0.0
C1059 C 0.83878 0.14451 0.33899 0.0
C1060 C 0.8617 0.13586 0.33205 0.0
C1061 C 0.86308 0.11771 0.3143 0.0
C1062 C 0.84208 0.10915 0.30311 0.0
H1063 H 0.76317 0.07987 0.3371 0.0
H1064 H 0.7951 0.08651 0.33859 0.0
H1065 H 0.77325 0.10983 0.34446 0.0
H1066 H 0.80059 0.14362 0.33285 0.0
H1067 H 0.83694 0.15853 0.3525 0.0
H1068 H 0.64953 0.1647 0.15646 0.0
H1069 H 0.67052 0.19967 0.14026 0.0
H1070 H 0.71644 0.15299 0.09806 0.0
H1071 H 0.69559 0.1175 0.11442 0.0
H1072 H 0.74139 0.18592 0.12682 0.0
H1073 H 0.67003 0.23284 0.07445 0.0
H1074 H 0.66097 0.22514 0.10463 0.0
H1075 H 0.66761 0.20151 0.08332 0.0
C1076 C 0.66379 0.16172 0.1434 0.0
C1077 C 0.67086 0.13818 0.13677 0.0
C1078 C 0.67567 0.18185 0.13402 0.0
C1079 C 0.6948 0.17896 0.11771 0.0
C1080 C 0.70155 0.15557 0.11049 0.0
H1081 H 0.8021 0.27848 0.06313 0.0
H1082 H 0.77546 0.24426 0.06999 0.0
C1083 C 0.68959 0.13533 0.11983 0.0
C1084 C 0.70921 0.20024 0.11028 0.0
H1085 H 0.70526 0.25602 0.08409 0.0
C1086 C 0.73358 0.20112 0.11721 0.0
C1087 C 0.69886 0.22016 0.09803 0.0
C1088 C 0.67298 0.21984 0.08947 0.0
C1089 C 0.74777 0.2216 0.11269 0.0
C1090 C 0.7374 0.24157 0.10054 0.0
C1091 C 0.71308 0.24069 0.09347 0.0
C1092 C 0.75189 0.26324 0.09467 0.0
C1093 C 0.77359 0.22196 0.1215 0.0
C1094 C 0.74685 0.28559 0.10557 0.0
C1095 C 0.76203 0.30545 0.10157 0.0
C1096 C 0.78244 0.30319 0.08657 0.0
C1097 C 0.78669 0.28096 0.07493 0.0
C1098 C 0.77153 0.26126 0.07887 0.0
H1099 H 0.77692 0.20794 0.13547 0.0
H1100 H 0.78587 0.21835 0.10607 0.0
H1101 H 0.77831 0.23991 0.12914 0.0
H1102 H 0.73165 0.28744 0.11777 0.0
H1103 H 0.75821 0.32229 0.1108 0.0
H1104 H 0.1964 0.72204 0.06865 0.0
H1105 H 0.2239 0.75561 0.07534 0.0
H1106 H 0.27187 0.70886 0.11512 0.0
H1107 H 0.24425 0.67482 0.10863 0.0
H1108 H 0.25872 0.75158 0.13939 0.0
H1109 H 0.29015 0.77188 0.04642 0.0
H1110 H 0.25791 0.76951 0.04924 0.0
H1111 H 0.27646 0.74338 0.05455 0.0
C1112 C 0.21296 0.71864 0.07852 0.0
C1113 C 0.2181 0.69562 0.08808 0.0
C1114 C 0.22876 0.73792 0.08216 0.0
C1115 C 0.25009 0.73464 0.09537 0.0
C1116 C 0.25557 0.71166 0.10465 0.0
H1117 H 0.35267 0.83558 0.15585 0.0
H1118 H 0.33225 0.79982 0.14065 0.0
C1119 C 0.23978 0.69225 0.10092 0.0
C1120 C 0.26538 0.75576 0.10132 0.0
H1121 H 0.29762 0.80212 0.07634 0.0
C1122 C 0.26747 0.76248 0.12565 0.0
C1123 C 0.27646 0.77009 0.08328 0.0
C1124 C 0.27535 0.76328 0.05691 0.0
C1125 C 0.27994 0.78345 0.13244 0.0
C1126 C 0.29103 0.79781 0.11442 0.0
C1127 C 0.28905 0.79107 0.09007 0.0
C1128 C 0.30506 0.81965 0.12082 0.0
C1129 C 0.28058 0.7904 0.15882 0.0
C1130 C 0.29725 0.84271 0.11364 0.0
C1131 C 0.30914 0.86342 0.1221 0.0
C1132 C 0.32895 0.86127 0.13789 0.0
C1133 C 0.33739 0.83802 0.14389 0.0
C1134 C 0.32567 0.81748 0.13532 0.0
H1135 H 0.26617 0.78116 0.16931 0.0
H1136 H 0.29826 0.78506 0.16662 0.0
H1137 H 0.27847 0.81022 0.1611 0.0
H1138 H 0.28142 0.8447 0.1023 0.0
H1139 H 0.30218 0.88102 0.1171 0.0
H1140 H 0.79546 0.71634 0.93355 0.0
H1141 H 0.76873 0.75034 0.92609 0.0
H1142 H 0.72664 0.70694 0.87695 0.0
H1143 H 0.75326 0.67233 0.88457 0.0
H1144 H 0.76304 0.77064 0.88033 0.0
H1145 H 0.67491 0.74121 0.91856 0.0
H1146 H 0.70317 0.72694 0.92657 0.0
H1147 H 0.68911 0.72036 0.89808 0.0
C1148 C 0.78031 0.71372 0.92146 0.0
C1149 C 0.77657 0.6915 0.90963 0.0
C1150 C 0.76504 0.73327 0.91722 0.0
C1151 C 0.74564 0.73113 0.90111 0.0
C1152 C 0.74129 0.70883 0.88978 0.0
H1153 H 0.65058 0.83697 0.83679 0.0
H1154 H 0.67021 0.80008 0.85071 0.0
C1155 C 0.75658 0.68911 0.89409 0.0
C1156 C 0.73153 0.75294 0.89472 0.0
H1157 H 0.67527 0.7782 0.8969 0.0
C1158 C 0.74386 0.77235 0.88405 0.0
C1159 C 0.70652 0.75499 0.89947 0.0
C1160 C 0.69259 0.73487 0.91147 0.0
C1161 C 0.73185 0.79375 0.87782 0.0
C1162 C 0.7069 0.79597 0.88284 0.0
C1163 C 0.69446 0.77648 0.8933 0.0
C1164 C 0.69338 0.81815 0.87646 0.0
C1165 C 0.74588 0.81359 0.86542 0.0
C1166 C 0.69942 0.84047 0.88689 0.0
C1167 C 0.68828 0.86172 0.87894 0.0
C1168 C 0.67082 0.86095 0.86047 0.0
C1169 C 0.66404 0.83833 0.85093 0.0
C1170 C 0.67519 0.81716 0.85889 0.0
H1171 H 0.76322 0.80689 0.85783 0.0
H1172 H 0.73512 0.82177 0.85058 0.0
H1173 H 0.75011 0.828 0.87871 0.0
H1174 H 0.71317 0.84152 0.90078 0.0
H1175 H 0.69386 0.87876 0.88678 0.0
H1176 H 0.35781 0.15788 0.8693 0.0
H1177 H 0.34 0.19565 0.8837 0.0
H1178 H 0.26877 0.16472 0.87608 0.0
H1179 H 0.2867 0.12651 0.86316 0.0
H1180 H 0.31405 0.22553 0.86102 0.0
H1181 H 0.25976 0.19604 0.93911 0.0
H1182 H 0.28145 0.17637 0.92484 0.0
H1183 H 0.25123 0.17915 0.91288 0.0
C1184 C 0.33839 0.15903 0.87126 0.0
C1185 C 0.32361 0.13928 0.86529 0.0
C1186 C 0.3282 0.18063 0.87941 0.0
C1187 C 0.303 0.18307 0.88132 0.0
C1188 C 0.28825 0.16317 0.8756 0.0
H1189 H 0.22328 0.31585 0.86463 0.0
H1190 H 0.24938 0.2806 0.85927 0.0
C1191 C 0.2985 0.14133 0.86807 0.0
C1192 C 0.29214 0.20693 0.88735 0.0
H1193 H 0.24799 0.23384 0.92086 0.0
C1194 C 0.29987 0.22739 0.87442 0.0
C1195 C 0.27396 0.20963 0.90513 0.0
C1196 C 0.26636 0.18914 0.92144 0.0
C1197 C 0.28944 0.2502 0.87818 0.0
C1198 C 0.2699 0.25247 0.89454 0.0
C1199 C 0.26273 0.23218 0.90805 0.0
C1200 C 0.2561 0.27536 0.89752 0.0
C1201 C 0.29979 0.27158 0.86478 0.0
C1202 C 0.25076 0.28408 0.92077 0.0
C1203 C 0.2352 0.30371 0.92382 0.0
C1204 C 0.22513 0.31533 0.90367 0.0
C1205 C 0.23127 0.30745 0.8804 0.0
C1206 C 0.2463 0.28736 0.87735 0.0
H1207 H 0.31928 0.26887 0.86082 0.0
H1208 H 0.29032 0.27358 0.84722 0.0
H1209 H 0.29772 0.28859 0.87521 0.0
H1210 H 0.25804 0.27522 0.93664 0.0
H1211 H 0.23062 0.30949 0.94194 0.0
H1212 H 0.06463 0.79441 0.28675 0.0
H1213 H 0.07093 0.76756 0.25265 0.0
H1214 H 0.12101 0.72523 0.29473 0.0
H1215 H 0.11457 0.75201 0.32947 0.0
H1216 H 0.1162 0.76134 0.23113 0.0
H1217 H 0.0776 0.67381 0.26191 0.0
H1218 H 0.07026 0.70224 0.2762 0.0
H1219 H 0.09875 0.68792 0.28215 0.0
C1220 C 0.07671 0.77921 0.28906 0.0
C1221 C 0.08913 0.77543 0.31095 0.0
C1222 C 0.08027 0.76386 0.26946 0.0
C1223 C 0.09627 0.74434 0.27122 0.0
C1224 C 0.10825 0.73999 0.29316 0.0
H1225 H 0.15766 0.64835 0.16524 0.0
H1226 H 0.1438 0.668 0.20207 0.0
C1227 C 0.10463 0.75537 0.31295 0.0
C1228 C 0.10186 0.73008 0.24931 0.0
H1229 H 0.09824 0.67377 0.22434 0.0
C1230 C 0.11217 0.74221 0.22959 0.0
C1231 C 0.09667 0.70514 0.24747 0.0
C1232 C 0.08504 0.69146 0.26796 0.0
C1233 C 0.1177 0.73005 0.2081 0.0
C1234 C 0.11228 0.70515 0.20611 0.0
C1235 C 0.10211 0.69292 0.22588 0.0
C1236 C 0.11826 0.69139 0.18398 0.0
C1237 C 0.12987 0.74383 0.18794 0.0
C1238 C 0.10787 0.69748 0.16165 0.0
C1239 C 0.11582 0.68635 0.1404 0.0
C1240 C 0.13424 0.66884 0.1412 0.0
C1241 C 0.14358 0.66188 0.16384 0.0
C1242 C 0.13565 0.67303 0.18499 0.0
H1243 H 0.13778 0.76112 0.19439 0.0
H1244 H 0.14443 0.73287 0.17954 0.0
H1245 H 0.11634 0.74813 0.17377 0.0
H1246 H 0.0941 0.71135 0.16059 0.0
H1247 H 0.10812 0.69205 0.12334 0.0
H1248 H 0.09873 0.24556 0.67425 0.0
H1249 H 0.10513 0.27257 0.70869 0.0
H1250 H 0.07658 0.21837 0.75682 0.0
H1251 H 0.06964 0.19148 0.7227 0.0
H1252 H 0.06037 0.26471 0.76773 0.0
H1253 H 0.16014 0.26193 0.75675 0.0
H1254 H 0.14402 0.27192 0.73043 0.0
H1255 H 0.14023 0.24145 0.74104 0.0
C1256 C 0.09361 0.23944 0.69213 0.0
C1257 C 0.08387 0.21623 0.69568 0.0
C1258 C 0.0974 0.25486 0.71179 0.0
C1259 C 0.0917 0.24727 0.73532 0.0
C1260 C 0.08117 0.22452 0.73881 0.0
H1261 H 0.11867 0.30043 0.88062 0.0
H1262 H 0.10277 0.27824 0.84573 0.0
C1263 C 0.0773 0.20915 0.71922 0.0
C1264 C 0.09757 0.26252 0.75649 0.0
H1265 H 0.1448 0.28793 0.78688 0.0
C1266 C 0.07881 0.26983 0.77195 0.0
C1267 C 0.12169 0.26892 0.76203 0.0
C1268 C 0.14273 0.26049 0.74685 0.0
C1269 C 0.08352 0.28377 0.79264 0.0
C1270 C 0.1076 0.29029 0.79802 0.0
C1271 C 0.12632 0.28295 0.78259 0.0
C1272 C 0.11406 0.3049 0.81944 0.0
C1273 C 0.06275 0.29175 0.80837 0.0
C1274 C 0.12543 0.32726 0.81619 0.0
C1275 C 0.1346 0.33987 0.83594 0.0
C1276 C 0.13271 0.33032 0.85945 0.0
C1277 C 0.12034 0.30836 0.86281 0.0
C1278 C 0.11117 0.29569 0.84291 0.0
H1279 H 0.04508 0.28967 0.79906 0.0
H1280 H 0.06241 0.28055 0.825 0.0
H1281 H 0.06497 0.31092 0.81388 0.0
H1282 H 0.12787 0.33463 0.79821 0.0
H1283 H 0.14392 0.35674 0.83259 0.0
H1284 H 0.84478 0.64524 0.83388 0.0
H1285 H 0.85952 0.66568 0.79795 0.0
H1286 H 0.89864 0.71633 0.8424 0.0
H1287 H 0.88422 0.69567 0.87881 0.0
H1288 H 0.84867 0.71368 0.7884 0.0
H1289 H 0.94791 0.69857 0.78948 0.0
H1290 H 0.92717 0.68038 0.80694 0.0
H1291 H 0.93541 0.71008 0.81715 0.0
C1292 C 0.8569 0.66042 0.83618 0.0
C1293 C 0.86325 0.66883 0.85934 0.0
C1294 C 0.8653 0.6721 0.81553 0.0
C1295 C 0.88026 0.69241 0.8175 0.0
C1296 C 0.88742 0.70041 0.84049 0.0
H1297 H 0.9279 0.80236 0.71895 0.0
H1298 H 0.921 0.77531 0.7529 0.0
C1299 C 0.87909 0.68863 0.86128 0.0
C1300 C 0.88623 0.70644 0.79554 0.0
H1301 H 0.93289 0.72671 0.7607 0.0
C1302 C 0.86707 0.71639 0.78222 0.0
C1303 C 0.91025 0.70998 0.78764 0.0
C1304 C 0.93141 0.69904 0.80089 0.0
C1305 C 0.87128 0.73022 0.76144 0.0
C1306 C 0.8953 0.73378 0.7535 0.0
C1307 C 0.91449 0.72377 0.76676 0.0
C1308 C 0.90084 0.74899 0.73222 0.0
C1309 C 0.85002 0.74153 0.74861 0.0
C1310 C 0.8922 0.74288 0.70916 0.0
C1311 C 0.89599 0.75841 0.68957 0.0
C1312 C 0.90864 0.78024 0.69274 0.0
C1313 C 0.91798 0.78578 0.71576 0.0
C1314 C 0.91414 0.7703 0.73526 0.0
H1315 H 0.83354 0.74166 0.76008 0.0
H1316 H 0.85416 0.76039 0.74314 0.0
H1317 H 0.84593 0.73099 0.73205 0.0
H1318 H 0.88223 0.72627 0.70639 0.0
H1319 H 0.88867 0.7535 0.6721 0.0
H1320 H 0.93757 0.19608 0.27987 0.0
H1321 H 0.93257 0.22223 0.24495 0.0
H1322 H 0.88953 0.27134 0.28745 0.0
H1323 H 0.89478 0.2454 0.32293 0.0
H1324 H 0.88859 0.23266 0.22441 0.0
H1325 H 0.93571 0.31694 0.25169 0.0
H1326 H 0.94022 0.2885 0.26708 0.0
H1327 H 0.9137 0.30627 0.27303 0.0
C1328 C 0.92735 0.21262 0.28205 0.0
C1329 C 0.91658 0.21861 0.30431 0.0
C1330 C 0.92452 0.22755 0.26198 0.0
C1331 C 0.91091 0.24882 0.26365 0.0
C1332 C 0.90054 0.25523 0.28591 0.0
H1333 H 0.84845 0.34757 0.16261 0.0
H1334 H 0.86435 0.32665 0.19785 0.0
C1335 C 0.90345 0.24031 0.30613 0.0
C1336 C 0.90591 0.26301 0.24154 0.0
H1337 H 0.91176 0.31885 0.21596 0.0
C1338 C 0.89386 0.25144 0.22245 0.0
C1339 C 0.91277 0.2875 0.23912 0.0
C1340 C 0.92651 0.30053 0.25872 0.0
C1341 C 0.88792 0.26386 0.2012 0.0
C1342 C 0.89462 0.2884 0.19882 0.0
C1343 C 0.90684 0.29996 0.21781 0.0
C1344 C 0.88748 0.30271 0.1774 0.0
C1345 C 0.87377 0.25085 0.18184 0.0
C1346 C 0.89581 0.29665 0.15422 0.0
C1347 C 0.88671 0.30857 0.13387 0.0
C1348 C 0.86915 0.32678 0.13643 0.0
C1349 C 0.86183 0.33356 0.15985 0.0
C1350 C 0.87094 0.32167 0.1801 0.0
H1351 H 0.86577 0.23371 0.18859 0.0
H1352 H 0.859 0.26247 0.17479 0.0
H1353 H 0.88598 0.2464 0.16658 0.0
H1354 H 0.90887 0.28227 0.15184 0.0
H1355 H 0.89282 0.30295 0.11614 0.0
H1356 H 0.02449 0.08296 0.65029 0.0
H1357 H 0.00465 0.04597 0.63776 0.0
H1358 H 0.04543 0.0461 0.57133 0.0
H1359 H 0.06612 0.08329 0.58417 0.0
H1360 H 0.97628 0.03626 0.59888 0.0
H1361 H 0.05906 0.97894 0.59766 0.0
H1362 H 0.05897 0.00883 0.61063 0.0
H1363 H 0.05889 0.00509 0.57841 0.0
C1364 C 0.02935 0.07525 0.63298 0.0
C1365 C 0.04704 0.08605 0.61829 0.0
C1366 C 0.01787 0.05407 0.62579 0.0
C1367 C 0.02363 0.04313 0.60368 0.0
C1368 C 0.04098 0.05401 0.58865 0.0
H1369 H 0.92929 0.91463 0.58424 0.0
H1370 H 0.95015 0.95185 0.57189 0.0
C1371 C 0.05273 0.07527 0.59598 0.0
C1372 C 0.01157 0.02003 0.59732 0.0
H1373 H 0.02185 0.95931 0.59407 0.0
C1374 C 0.98619 0.01941 0.59733 0.0
C1375 C 0.02461 0.99814 0.59526 0.0
C1376 C 0.05188 0.99758 0.59561 0.0
C1377 C 0.9735 0.99745 0.59739 0.0
C1378 C 0.98658 0.97549 0.59668 0.0
C1379 C 0.01189 0.97618 0.59464 0.0
C1380 C 0.97493 0.95195 0.60219 0.0
C1381 C 0.94636 0.99797 0.60016 0.0
C1382 C 0.98244 0.93924 0.62277 0.0
C1383 C 0.97086 0.91799 0.62963 0.0
C1384 C 0.95132 0.90893 0.61616 0.0
C1385 C 0.94411 0.9213 0.59515 0.0
C1386 C 0.95595 0.94259 0.58812 0.0
H1387 H 0.93953 0.01635 0.60449 0.0
H1388 H 0.93782 0.99207 0.58302 0.0
H1389 H 0.9405 0.98543 0.61468 0.0
H1390 H 0.99698 0.9461 0.63396 0.0
H1391 H 0.97698 0.90896 0.64588 0.0
H1392 H 0.91972 0.06874 0.39418 0.0
H1393 H 0.94115 0.03074 0.40241 0.0
H1394 H 0.00801 0.06337 0.37925 0.0
H1395 H 0.98687 0.101 0.37071 0.0
H1396 H 0.99647 0.02184 0.35443 0.0
H1397 H 0.9901 0.00693 0.4535 0.0
H1398 H 0.962 0.01367 0.43864 0.0
H1399 H 0.98535 0.03618 0.43976 0.0
C1400 C 0.93907 0.06793 0.39138 0.0
C1401 C 0.95154 0.08775 0.38154 0.0
C1402 C 0.95131 0.04626 0.3962 0.0
C1403 C 0.97621 0.04428 0.39153 0.0
C1404 C 0.98882 0.0645 0.38298 0.0
H1405 H 0.07872 0.92445 0.39995 0.0
H1406 H 0.05793 0.96306 0.40712 0.0
C1407 C 0.97666 0.08598 0.37804 0.0
C1408 C 0.98868 0.02058 0.39254 0.0
H1409 H 0.00512 0.97415 0.42986 0.0
C1410 C 0.99847 0.01152 0.37097 0.0
C1411 C 0.99133 0.00718 0.41414 0.0
C1412 C 0.98184 0.0165 0.43791 0.0
C1413 C 0.01056 0.98931 0.37033 0.0
C1414 C 0.01276 0.97565 0.39177 0.0
C1415 C 0.00331 0.98473 0.41347 0.0
C1416 C 0.02412 0.95149 0.3913 0.0
C1417 C 0.02084 0.98045 0.34666 0.0
C1418 C 0.01173 0.93218 0.38064 0.0
C1419 C 0.02349 0.91031 0.37642 0.0
C1420 C 0.04793 0.90729 0.3828 0.0
C1421 C 0.05994 0.92623 0.39477 0.0
C1422 C 0.04809 0.94824 0.39894 0.0
H1423 H 0.02113 0.99486 0.33269 0.0
H1424 H 0.03951 0.97358 0.34925 0.0
H1425 H 0.00963 0.96529 0.33983 0.0
H1426 H 0.99321 0.9344 0.37466 0.0
H1427 H 0.01358 0.89602 0.36742 0.0
H1428 H 0.64466 0.98475 0.90318 0.0
H1429 H 0.6366 0.0039 0.94196 0.0
H1430 H 0.59711 0.94097 0.96528 0.0
H1431 H 0.60509 0.92138 0.92618 0.0
H1432 H 0.57725 0.99376 0.97704 0.0
H1433 H 0.67172 0.97238 0.00405 0.0
H1434 H 0.66779 0.98552 0.97458 0.0
H1435 H 0.65603 0.95591 0.98064 0.0
C1436 C 0.63404 0.97496 0.91639 0.0
C1437 C 0.62581 0.95135 0.91171 0.0
C1438 C 0.62937 0.98603 0.93851 0.0
C1439 C 0.61642 0.97377 0.95644 0.0
C1440 C 0.60711 0.95068 0.95155 0.0
H1441 H 0.63106 0.01236 0.10694 0.0
H1442 H 0.62357 0.99017 0.06967 0.0
C1443 C 0.61175 0.93952 0.92928 0.0
C1444 C 0.6148 0.9844 0.98088 0.0
H1445 H 0.64989 0.99888 0.02936 0.0
C1446 C 0.59299 0.99472 0.98867 0.0
C1447 C 0.63538 0.98545 0.99593 0.0
C1448 C 0.65906 0.9741 0.98856 0.0
C1449 C 0.59145 0.00667 0.01108 0.0
C1450 C 0.61232 0.00845 0.02575 0.0
C1451 C 0.63391 0.99757 0.01808 0.0
C1452 C 0.61262 0.02157 0.04913 0.0
C1453 C 0.56755 0.01716 0.0189 0.0
C1454 C 0.60835 0.04659 0.05017 0.0
C1455 C 0.61252 0.05942 0.07162 0.0
C1456 C 0.62136 0.04742 0.09219 0.0
C1457 C 0.62449 0.0222 0.09134 0.0
C1458 C 0.62016 0.00945 0.07006 0.0
H1459 H 0.55221 0.0088 0.00901 0.0
H1460 H 0.56471 0.01465 0.0386 0.0
H1461 H 0.56743 0.03684 0.01504 0.0
H1462 H 0.60297 0.0564 0.03412 0.0
H1463 H 0.61003 0.07883 0.07171 0.0
H1464 H 0.38617 0.9211 0.07047 0.0
H1465 H 0.3924 0.94437 0.03326 0.0
H1466 H 0.37817 0.01044 0.07209 0.0
H1467 H 0.37144 0.9874 0.109 0.0
H1468 H 0.34884 0.00495 0.03371 0.0
H1469 H 0.44379 0.98947 0.00569 0.0
H1470 H 0.42739 0.96214 0.01182 0.0
H1471 H 0.43313 0.98319 0.0359 0.0
C1472 C 0.38498 0.94062 0.07116 0.0
C1473 C 0.37806 0.9524 0.09256 0.0
C1474 C 0.38866 0.95392 0.04992 0.0
C1475 C 0.38587 0.97918 0.04992 0.0
C1476 C 0.38042 0.99099 0.07166 0.0
H1477 H 0.39147 0.07949 0.92642 0.0
H1478 H 0.40028 0.06001 0.9654 0.0
C1479 C 0.37653 0.97777 0.09273 0.0
C1480 C 0.38529 0.993 0.02695 0.0
H1481 H 0.41723 0.00631 0.97578 0.0
C1482 C 0.36394 0.00547 0.02123 0.0
C1483 C 0.40501 0.99377 0.01069 0.0
C1484 C 0.42872 0.98162 0.01639 0.0
C1485 C 0.3615 0.01807 0.99943 0.0
C1486 C 0.3808 0.01801 0.98276 0.0
C1487 C 0.40246 0.0062 0.98865 0.0
C1488 C 0.37783 0.02878 0.95851 0.0
C1489 C 0.3381 0.03105 0.99415 0.0
C1490 C 0.36268 0.01739 0.94175 0.0
C1491 C 0.35757 0.02839 0.9197 0.0
C1492 C 0.36751 0.05108 0.9139 0.0
C1493 C 0.38342 0.0621 0.9304 0.0
C1494 C 0.38855 0.05098 0.95259 0.0
H1495 H 0.32702 0.03357 0.0107 0.0
H1496 H 0.34167 0.04902 0.98596 0.0
H1497 H 0.32741 0.02031 0.98102 0.0
H1498 H 0.35434 0.00019 0.94601 0.0
H1499 H 0.34545 0.01921 0.90737 0.0
H1500 H 0.90844 0.65071 0.97539 0.0
H1501 H 0.94582 0.6401 0.99566 0.0
H1502 H 0.95316 0.57728 0.95007 0.0
H1503 H 0.91567 0.58829 0.92894 0.0
H1504 H 0.95914 0.60094 0.02145 0.0
H1505 H 0.01747 0.61045 0.94 0.0
H1506 H 0.98641 0.62025 0.94026 0.0
H1507 H 0.9935 0.58864 0.93816 0.0
C1508 C 0.91788 0.63459 0.96958 0.0
C1509 C 0.90912 0.62045 0.95037 0.0
C1510 C 0.93929 0.62849 0.98131 0.0
C1511 C 0.95248 0.60803 0.97428 0.0
C1512 C 0.94353 0.59342 0.95551 0.0
H1513 H 0.08169 0.58902 0.06812 0.0
H1514 H 0.04458 0.57722 0.04673 0.0
C1515 C 0.92208 0.59968 0.94351 0.0
C1516 C 0.97589 0.60302 0.98642 0.0
H1517 H 0.03684 0.60481 0.9771 0.0
C1518 C 0.97617 0.60136 0.01176 0.0
C1519 C 0.99806 0.60357 0.9737 0.0
C1520 C 0.99903 0.60598 0.94655 0.0
C1521 C 0.99792 0.60202 0.02483 0.0
C1522 C 0.02005 0.6037 0.01215 0.0
C1523 C 0.01983 0.60354 0.98676 0.0
C1524 C 0.04313 0.60945 0.02459 0.0
C1525 C 0.99688 0.60272 0.05208 0.0
C1526 C 0.05495 0.63111 0.01884 0.0
C1527 C 0.07613 0.6377 0.03071 0.0
C1528 C 0.08603 0.62284 0.0488 0.0
C1529 C 0.07437 0.60096 0.05445 0.0
C1530 C 0.05315 0.59423 0.0423 0.0
H1531 H 0.9782 0.60552 0.05887 0.0
H1532 H 0.0036 0.58531 0.05941 0.0
H1533 H 0.00853 0.6174 0.05924 0.0
H1534 H 0.04755 0.64321 0.00533 0.0
H1535 H 0.08454 0.65469 0.02587 0.0
H1536 H 0.08352 0.41043 0.92726 0.0
H1537 H 0.04642 0.42129 0.94908 0.0
H1538 H 0.05512 0.3587 0.99475 0.0
H1539 H 0.09221 0.34828 0.97378 0.0
H1540 H 0.00525 0.3982 0.95297 0.0
H1541 H 0.04146 0.40836 0.04493 0.0
H1542 H 0.0609 0.40685 0.01879 0.0
H1543 H 0.05042 0.37956 0.03323 0.0
C1544 C 0.07758 0.39915 0.94211 0.0
C1545 C 0.09089 0.37858 0.94888 0.0
C1546 C 0.05644 0.40541 0.9546 0.0
C1547 C 0.04829 0.39119 0.97402 0.0
C1548 C 0.06146 0.37051 0.98049 0.0
H1549 H 0.91211 0.34781 0.01892 0.0
H1550 H 0.94906 0.35937 0.99846 0.0
C1551 C 0.0826 0.36441 0.96826 0.0
C1552 C 0.02509 0.39652 0.98645 0.0
H1553 H 0.99907 0.39584 0.04236 0.0
C1554 C 0.00397 0.39826 0.97253 0.0
C1555 C 0.0233 0.3974 0.01197 0.0
C1556 C 0.04531 0.39824 0.02802 0.0
C1557 C 0.98107 0.39864 0.98341 0.0
C1558 C 0.97924 0.39643 0.00884 0.0
C1559 C 0.00038 0.39695 0.02283 0.0
C1560 C 0.95597 0.39066 0.02092 0.0
C1561 C 0.95907 0.40078 0.96745 0.0
C1562 C 0.94784 0.40386 0.04106 0.0
C1563 C 0.9267 0.39696 0.05324 0.0
C1564 C 0.91343 0.37671 0.04548 0.0
C1565 C 0.92167 0.36365 0.0253 0.0
C1566 C 0.94276 0.3704 0.01335 0.0
H1567 H 0.96312 0.41176 0.95114 0.0
H1568 H 0.95363 0.38252 0.9612 0.0
H1569 H 0.94364 0.40914 0.97716 0.0
H1570 H 0.95791 0.41939 0.04742 0.0
H1571 H 0.92084 0.40738 0.06873 0.0
loop_
_geom_bond_atom_site_label_1
_geom_bond_atom_site_label_2
_geom_bond_distance
_geom_bond_site_symmetry_2
_ccdc_geom_bond_type
Co0 O2 2.143 . S
Co0 O8 2.074 . S
Co0 O11 2.093 . S
Co0 O24 2.097 . S
Co0 N41 2.151 . S
Co0 N49 2.214 . S
Co1 O2 2.160 . S
Co1 O7 2.058 . S
Co1 O17 2.057 . S
Co1 O32 2.037 . S
Co1 N36 2.145 . S
Co1 N57 2.257 . S
O2 Co0 2.143 . S
O2 Co1 2.160 . S
C3 O4 1.278 . S
C3 O11 1.224 . S
O4 C3 1.278 . S
C5 O6 1.245 . S
C5 O17 1.232 . S
O6 C5 1.245 . S
O7 Co1 2.058 . S
O7 C33 1.269 . S
O8 Co0 2.074 . S
O8 C33 1.257 . S
H9 C34 0.930 . S
H10 C40 0.930 . S
O11 Co0 2.093 . S
O11 C3 1.224 . S
H12 C44 0.929 . S
H13 C46 0.930 . S
H14 C47 0.930 . S
H15 C45 0.929 . S
H16 C48 0.928 . S
O17 Co1 2.057 . S
O17 C5 1.232 . S
H18 C37 0.929 . S
H19 C38 0.929 . S
H20 C50 0.931 . S
H21 C42 0.929 . S
H22 C51 0.930 . S
H23 C43 0.931 . S
O24 Co0 2.097 . S
O24 C52 1.214 . S
H25 C53 0.929 . S
H26 C54 0.929 . S
H27 C55 0.930 . S
H28 C56 0.929 . S
H29 C58 0.930 . S
H30 C35 0.930 . S
H31 C39 0.930 . S
O32 Co1 2.037 . S
O32 C52 1.234 . S
C33 O7 1.269 . S
C33 O8 1.257 . S
C34 H9 0.930 . S
C34 C37 1.388 . S
C34 C39 1.418 . S
C35 H30 0.930 . S
C35 C38 1.404 . S
C35 C39 1.353 . S
N36 Co1 2.145 . S
N36 C37 1.397 . S
N36 C38 1.334 . S
C37 H18 0.929 . S
C37 C34 1.388 . S
C37 N36 1.397 . S
C38 H19 0.929 . S
C38 C35 1.404 . S
C38 N36 1.334 . S
C39 H31 0.930 . S
C39 C34 1.418 . S
C39 C35 1.353 . S
C40 H10 0.930 . S
C40 N41 1.330 . S
C40 C42 1.446 1_455 S
N41 Co0 2.151 . S
N41 C40 1.330 . S
N41 C45 1.418 . S
C42 H21 0.929 . S
C42 C40 1.446 1_655 S
C42 C43 1.332 . S
C43 H23 0.931 . S
C43 C42 1.332 . S
C43 C44 1.267 1_655 S
C44 H12 0.929 . S
C44 C43 1.267 1_455 S
C44 C45 1.251 . S
C45 H15 0.929 . S
C45 N41 1.418 . S
C45 C44 1.251 . S
C46 H13 0.930 . S
C46 C48 1.406 . S
C46 C51 1.261 . S
C47 H14 0.930 . S
C47 N49 1.325 . S
C47 C50 1.357 . S
C48 H16 0.928 . S
C48 C46 1.406 . S
C48 N49 1.261 . S
N49 Co0 2.214 . S
N49 C47 1.325 . S
N49 C48 1.261 . S
C50 H20 0.931 . S
C50 C47 1.357 . S
C50 C51 1.312 . S
C51 H22 0.930 . S
C51 C46 1.261 . S
C51 C50 1.312 . S
C52 O24 1.214 . S
C52 O32 1.234 . S
C53 H25 0.929 . S
C53 C56 1.391 . S
C53 C58 1.391 . S
C54 H26 0.929 . S
C54 C55 1.390 . S
C54 N57 1.391 . S
C55 H27 0.930 . S
C55 C54 1.390 . S
C55 C56 1.392 . S
C56 H28 0.929 . S
C56 C53 1.391 . S
C56 C55 1.392 . S
N57 Co1 2.257 . S
N57 C54 1.391 . S
N57 C58 1.388 . S
C58 H29 0.930 . S
C58 C53 1.391 . S
C58 N57 1.388 . S
Co59 O61 2.143 . S
Co59 O67 2.074 . S
Co59 O70 2.093 . S
Co59 O83 2.097 . S
Co59 N100 2.151 . S
Co59 N108 2.214 . S
Co60 O61 2.160 . S
Co60 O66 2.058 . S
Co60 O76 2.057 . S
Co60 O91 2.037 . S
Co60 N95 2.145 . S
Co60 N116 2.257 . S
O61 Co59 2.143 . S
O61 Co60 2.160 . S
C62 O63 1.278 . S
C62 O70 1.224 . S
O63 C62 1.278 . S
C64 O65 1.245 . S
C64 O76 1.232 . S
O65 C64 1.245 . S
O66 Co60 2.058 . S
O66 C92 1.269 . S
O67 Co59 2.074 . S
O67 C92 1.257 . S
H68 C93 0.930 . S
H69 C99 0.930 . S
O70 Co59 2.093 . S
O70 C62 1.224 . S
H71 C103 0.929 . S
H72 C105 0.930 . S
H73 C106 0.930 . S
H74 C104 0.929 . S
H75 C107 0.928 . S
O76 Co60 2.057 . S
O76 C64 1.232 . S
H77 C96 0.929 . S
H78 C97 0.929 . S
H79 C109 0.931 . S
H80 C101 0.929 . S
H81 C110 0.930 . S
H82 C102 0.931 . S
O83 Co59 2.097 . S
O83 C111 1.214 . S
H84 C112 0.929 . S
H85 C113 0.929 . S
H86 C114 0.930 . S
H87 C115 0.929 . S
H88 C117 0.930 . S
H89 C94 0.930 . S
H90 C98 0.930 . S
O91 Co60 2.037 . S
O91 C111 1.234 . S
C92 O66 1.269 . S
C92 O67 1.257 . S
C93 H68 0.930 . S
C93 C96 1.388 . S
C93 C98 1.418 . S
C94 H89 0.930 . S
C94 C97 1.404 . S
C94 C98 1.353 . S
N95 Co60 2.145 . S
N95 C96 1.397 . S
N95 C97 1.334 . S
C96 H77 0.929 . S
C96 C93 1.388 . S
C96 N95 1.397 . S
C97 H78 0.929 . S
C97 C94 1.404 . S
C97 N95 1.334 . S
C98 H90 0.930 . S
C98 C93 1.418 . S
C98 C94 1.353 . S
C99 H69 0.930 . S
C99 N100 1.330 . S
C99 C101 1.446 1_655 S
N100 Co59 2.151 . S
N100 C99 1.330 . S
N100 C104 1.418 . S
C101 H80 0.929 . S
C101 C99 1.446 1_455 S
C101 C102 1.332 . S
C102 H82 0.931 . S
C102 C101 1.332 . S
C102 C103 1.267 1_455 S
C103 H71 0.929 . S
C103 C102 1.267 1_655 S
C103 C104 1.251 . S
C104 H74 0.929 . S
C104 N100 1.418 . S
C104 C103 1.251 . S
C105 H72 0.930 . S
C105 C107 1.406 . S
C105 C110 1.261 . S
C106 H73 0.930 . S
C106 N108 1.325 . S
C106 C109 1.357 . S
C107 H75 0.928 . S
C107 C105 1.406 . S
C107 N108 1.261 . S
N108 Co59 2.214 . S
N108 C106 1.325 . S
N108 C107 1.261 . S
C109 H79 0.931 . S
C109 C106 1.357 . S
C109 C110 1.312 . S
C110 H81 0.930 . S
C110 C105 1.261 . S
C110 C109 1.312 . S
C111 O83 1.214 . S
C111 O91 1.234 . S
C112 H84 0.929 . S
C112 C115 1.391 . S
C112 C117 1.391 . S
C113 H85 0.929 . S
C113 C114 1.390 . S
C113 N116 1.391 . S
C114 H86 0.930 . S
C114 C113 1.390 . S
C114 C115 1.392 . S
C115 H87 0.929 . S
C115 C112 1.391 . S
C115 C114 1.392 . S
N116 Co60 2.257 . S
N116 C113 1.391 . S
N116 C117 1.388 . S
C117 H88 0.930 . S
C117 C112 1.391 . S
C117 N116 1.388 . S
Co118 O120 2.143 . S
Co118 O126 2.074 . S
Co118 O129 2.093 . S
Co118 O142 2.097 . S
Co118 N159 2.151 . S
Co118 N167 2.214 . S
Co119 O120 2.160 . S
Co119 O125 2.058 . S
Co119 O135 2.057 . S
Co119 O150 2.037 . S
Co119 N154 2.145 . S
Co119 N175 2.257 . S
O120 Co118 2.143 . S
O120 Co119 2.160 . S
C121 O122 1.278 . S
C121 O129 1.224 . S
O122 C121 1.278 . S
C123 O124 1.245 . S
C123 O135 1.232 . S
O124 C123 1.245 . S
O125 Co119 2.058 . S
O125 C151 1.269 . S
O126 Co118 2.074 . S
O126 C151 1.257 . S
H127 C152 0.930 . S
H128 C158 0.930 . S
O129 Co118 2.093 . S
O129 C121 1.224 . S
H130 C162 0.929 . S
H131 C164 0.930 . S
H132 C165 0.930 . S
H133 C163 0.929 . S
H134 C166 0.928 . S
O135 Co119 2.057 . S
O135 C123 1.232 . S
H136 C155 0.929 . S
H137 C156 0.929 . S
H138 C168 0.931 . S
H139 C160 0.929 . S
H140 C169 0.930 . S
H141 C161 0.931 . S
O142 Co118 2.097 . S
O142 C170 1.214 . S
H143 C171 0.929 . S
H144 C172 0.929 . S
H145 C173 0.930 . S
H146 C174 0.929 . S
H147 C176 0.930 . S
H148 C153 0.930 . S
H149 C157 0.930 . S
O150 Co119 2.037 . S
O150 C170 1.234 . S
C151 O125 1.269 . S
C151 O126 1.257 . S
C152 H127 0.930 . S
C152 C155 1.388 . S
C152 C157 1.418 . S
C153 H148 0.930 . S
C153 C156 1.404 . S
C153 C157 1.353 . S
N154 Co119 2.145 . S
N154 C155 1.397 . S
N154 C156 1.334 . S
C155 H136 0.929 . S
C155 C152 1.388 . S
C155 N154 1.397 . S
C156 H137 0.929 . S
C156 C153 1.404 . S
C156 N154 1.334 . S
C157 H149 0.930 . S
C157 C152 1.418 . S
C157 C153 1.353 . S
C158 H128 0.930 . S
C158 N159 1.330 . S
C158 C160 1.446 1_455 S
N159 Co118 2.151 . S
N159 C158 1.330 . S
N159 C163 1.418 . S
C160 H139 0.929 . S
C160 C158 1.446 1_655 S
C160 C161 1.332 . S
C161 H141 0.931 . S
C161 C160 1.332 . S
C161 C162 1.267 1_655 S
C162 H130 0.929 . S
C162 C161 1.267 1_455 S
C162 C163 1.251 . S
C163 H133 0.929 . S
C163 N159 1.418 . S
C163 C162 1.251 . S
C164 H131 0.930 . S
C164 C166 1.406 . S
C164 C169 1.261 . S
C165 H132 0.930 . S
C165 N167 1.325 . S
C165 C168 1.357 . S
C166 H134 0.928 . S
C166 C164 1.406 . S
C166 N167 1.261 . S
N167 Co118 2.214 . S
N167 C165 1.325 . S
N167 C166 1.261 . S
C168 H138 0.931 . S
C168 C165 1.357 . S
C168 C169 1.312 . S
C169 H140 0.930 . S
C169 C164 1.261 . S
C169 C168 1.312 . S
C170 O142 1.214 . S
C170 O150 1.234 . S
C171 H143 0.929 . S
C171 C174 1.391 . S
C171 C176 1.391 . S
C172 H144 0.929 . S
C172 C173 1.390 . S
C172 N175 1.391 . S
C173 H145 0.930 . S
C173 C172 1.390 . S
C173 C174 1.392 . S
C174 H146 0.929 . S
C174 C171 1.391 . S
C174 C173 1.392 . S
N175 Co119 2.257 . S
N175 C172 1.391 . S
N175 C176 1.388 . S
C176 H147 0.930 . S
C176 C171 1.391 . S
C176 N175 1.388 . S
Co177 O179 2.143 . S
Co177 O185 2.074 . S
Co177 O188 2.093 . S
Co177 O201 2.097 . S
Co177 N218 2.151 . S
Co177 N226 2.214 . S
Co178 O179 2.160 . S
Co178 O184 2.058 . S
Co178 O194 2.057 . S
Co178 O209 2.037 . S
Co178 N213 2.145 . S
Co178 N234 2.257 . S
O179 Co177 2.143 . S
O179 Co178 2.160 . S
C180 O181 1.278 . S
C180 O188 1.224 . S
O181 C180 1.278 . S
C182 O183 1.245 . S
C182 O194 1.232 . S
O183 C182 1.245 . S
O184 Co178 2.058 . S
O184 C210 1.269 . S
O185 Co177 2.074 . S
O185 C210 1.257 . S
H186 C211 0.930 . S
H187 C217 0.930 . S
O188 Co177 2.093 . S
O188 C180 1.224 . S
H189 C221 0.929 . S
H190 C223 0.930 . S
H191 C224 0.930 . S
H192 C222 0.929 . S
H193 C225 0.928 . S
O194 Co178 2.057 . S
O194 C182 1.232 . S
H195 C214 0.929 . S
H196 C215 0.929 . S
H197 C227 0.931 . S
H198 C219 0.929 . S
H199 C228 0.930 . S
H200 C220 0.931 . S
O201 Co177 2.097 . S
O201 C229 1.214 . S
H202 C230 0.929 . S
H203 C231 0.929 . S
H204 C232 0.930 . S
H205 C233 0.929 . S
H206 C235 0.930 . S
H207 C212 0.930 . S
H208 C216 0.930 . S
O209 Co178 2.037 . S
O209 C229 1.234 . S
C210 O184 1.269 . S
C210 O185 1.257 . S
C211 H186 0.930 . S
C211 C214 1.388 . S
C211 C216 1.418 . S
C212 H207 0.930 . S
C212 C215 1.404 . S
C212 C216 1.353 . S
N213 Co178 2.145 . S
N213 C214 1.397 . S
N213 C215 1.334 . S
C214 H195 0.929 . S
C214 C211 1.388 . S
C214 N213 1.397 . S
C215 H196 0.929 . S
C215 C212 1.404 . S
C215 N213 1.334 . S
C216 H208 0.930 . S
C216 C211 1.418 . S
C216 C212 1.353 . S
C217 H187 0.930 . S
C217 N218 1.330 . S
C217 C219 1.446 1_655 S
N218 Co177 2.151 . S
N218 C217 1.330 . S
N218 C222 1.418 . S
C219 H198 0.929 . S
C219 C217 1.446 1_455 S
C219 C220 1.332 . S
C220 H200 0.931 . S
C220 C219 1.332 . S
C220 C221 1.267 1_455 S
C221 H189 0.929 . S
C221 C220 1.267 1_655 S
C221 C222 1.251 . S
C222 H192 0.929 . S
C222 N218 1.418 . S
C222 C221 1.251 . S
C223 H190 0.930 . S
C223 C225 1.406 . S
C223 C228 1.261 . S
C224 H191 0.930 . S
C224 N226 1.325 . S
C224 C227 1.357 . S
C225 H193 0.928 . S
C225 C223 1.406 . S
C225 N226 1.261 . S
N226 Co177 2.214 . S
N226 C224 1.325 . S
N226 C225 1.261 . S
C227 H197 0.931 . S
C227 C224 1.357 . S
C227 C228 1.312 . S
C228 H199 0.930 . S
C228 C223 1.261 . S
C228 C227 1.312 . S
C229 O201 1.214 . S
C229 O209 1.234 . S
C230 H202 0.929 . S
C230 C233 1.391 . S
C230 C235 1.391 . S
C231 H203 0.929 . S
C231 C232 1.390 . S
C231 N234 1.391 . S
C232 H204 0.930 . S
C232 C231 1.390 . S
C232 C233 1.392 . S
C233 H205 0.929 . S
C233 C230 1.391 . S
C233 C232 1.392 . S
N234 Co178 2.257 . S
N234 C231 1.391 . S
N234 C235 1.388 . S
C235 H206 0.930 . S
C235 C230 1.391 . S
C235 N234 1.388 . S
Co236 O238 2.143 . S
Co236 O244 2.074 . S
Co236 O247 2.093 . S
Co236 O260 2.097 . S
Co236 N277 2.151 . S
Co236 N285 2.214 . S
Co237 O238 2.160 . S
Co237 O243 2.058 . S
Co237 O253 2.057 . S
Co237 O268 2.037 . S
Co237 N272 2.145 . S
Co237 N293 2.257 . S
O238 Co236 2.143 . S
O238 Co237 2.160 . S
C239 O240 1.278 . S
C239 O247 1.224 . S
O240 C239 1.278 . S
C241 O242 1.245 . S
C241 O253 1.232 . S
O242 C241 1.245 . S
O243 Co237 2.058 . S
O243 C269 1.269 . S
O244 Co236 2.074 . S
O244 C269 1.257 . S
H245 C270 0.930 . S
H246 C276 0.930 . S
O247 Co236 2.093 . S
O247 C239 1.224 . S
H248 C280 0.929 . S
H249 C282 0.930 . S
H250 C283 0.930 . S
H251 C281 0.929 . S
H252 C284 0.928 . S
O253 Co237 2.057 . S
O253 C241 1.232 . S
H254 C273 0.929 . S
H255 C274 0.929 . S
H256 C286 0.931 . S
H257 C278 0.929 . S
H258 C287 0.930 . S
H259 C279 0.931 . S
O260 Co236 2.097 . S
O260 C288 1.214 . S
H261 C289 0.929 . S
H262 C290 0.929 . S
H263 C291 0.930 . S
H264 C292 0.929 . S
H265 C294 0.930 . S
H266 C271 0.930 . S
H267 C275 0.930 . S
O268 Co237 2.037 . S
O268 C288 1.234 . S
C269 O243 1.269 . S
C269 O244 1.257 . S
C270 H245 0.930 . S
C270 C273 1.388 . S
C270 C275 1.418 . S
C271 H266 0.930 . S
C271 C274 1.404 . S
C271 C275 1.353 . S
N272 Co237 2.145 . S
N272 C273 1.397 . S
N272 C274 1.334 . S
C273 H254 0.929 . S
C273 C270 1.388 . S
C273 N272 1.397 . S
C274 H255 0.929 . S
C274 C271 1.404 . S
C274 N272 1.334 . S
C275 H267 0.930 . S
C275 C270 1.418 . S
C275 C271 1.353 . S
C276 H246 0.930 . S
C276 N277 1.330 . S
C276 C278 1.446 1_545 S
N277 Co236 2.151 . S
N277 C276 1.330 . S
N277 C281 1.418 . S
C278 H257 0.929 . S
C278 C276 1.446 1_565 S
C278 C279 1.332 . S
C279 H259 0.931 . S
C279 C278 1.332 . S
C279 C280 1.267 1_565 S
C280 H248 0.929 . S
C280 C279 1.267 1_545 S
C280 C281 1.251 . S
C281 H251 0.929 . S
C281 N277 1.418 . S
C281 C280 1.251 . S
C282 H249 0.930 . S
C282 C284 1.406 . S
C282 C287 1.261 . S
C283 H250 0.930 . S
C283 N285 1.325 . S
C283 C286 1.357 . S
C284 H252 0.928 . S
C284 C282 1.406 . S
C284 N285 1.261 . S
N285 Co236 2.214 . S
N285 C283 1.325 . S
N285 C284 1.261 . S
C286 H256 0.931 . S
C286 C283 1.357 . S
C286 C287 1.312 . S
C287 H258 0.930 . S
C287 C282 1.261 . S
C287 C286 1.312 . S
C288 O260 1.214 . S
C288 O268 1.234 . S
C289 H261 0.929 . S
C289 C292 1.391 . S
C289 C294 1.391 . S
C290 H262 0.929 . S
C290 C291 1.390 . S
C290 N293 1.391 . S
C291 H263 0.930 . S
C291 C290 1.390 . S
C291 C292 1.392 . S
C292 H264 0.929 . S
C292 C289 1.391 . S
C292 C291 1.392 . S
N293 Co237 2.257 . S
N293 C290 1.391 . S
N293 C294 1.388 . S
C294 H265 0.930 . S
C294 C289 1.391 . S
C294 N293 1.388 . S
Co295 O297 2.143 . S
Co295 O303 2.074 . S
Co295 O306 2.093 . S
Co295 O319 2.097 . S
Co295 N336 2.151 . S
Co295 N344 2.214 . S
Co296 O297 2.160 . S
Co296 O302 2.058 . S
Co296 O312 2.057 . S
Co296 O327 2.037 . S
Co296 N331 2.145 . S
Co296 N352 2.257 . S
O297 Co295 2.143 . S
O297 Co296 2.160 . S
C298 O299 1.278 . S
C298 O306 1.224 . S
O299 C298 1.278 . S
C300 O301 1.245 . S
C300 O312 1.232 . S
O301 C300 1.245 . S
O302 Co296 2.058 . S
O302 C328 1.269 . S
O303 Co295 2.074 . S
O303 C328 1.257 . S
H304 C329 0.930 . S
H305 C335 0.930 . S
O306 Co295 2.093 . S
O306 C298 1.224 . S
H307 C339 0.929 . S
H308 C341 0.930 . S
H309 C342 0.930 . S
H310 C340 0.929 . S
H311 C343 0.928 . S
O312 Co296 2.057 . S
O312 C300 1.232 . S
H313 C332 0.929 . S
H314 C333 0.929 . S
H315 C345 0.931 . S
H316 C337 0.929 . S
H317 C346 0.930 . S
H318 C338 0.931 . S
O319 Co295 2.097 . S
O319 C347 1.214 . S
H320 C348 0.929 . S
H321 C349 0.929 . S
H322 C350 0.930 . S
H323 C351 0.929 . S
H324 C353 0.930 . S
H325 C330 0.930 . S
H326 C334 0.930 . S
O327 Co296 2.037 . S
O327 C347 1.234 . S
C328 O302 1.269 . S
C328 O303 1.257 . S
C329 H304 0.930 . S
C329 C332 1.388 . S
C329 C334 1.418 . S
C330 H325 0.930 . S
C330 C333 1.404 . S
C330 C334 1.353 . S
N331 Co296 2.145 . S
N331 C332 1.397 . S
N331 C333 1.334 . S
C332 H313 0.929 . S
C332 C329 1.388 . S
C332 N331 1.397 . S
C333 H314 0.929 . S
C333 C330 1.404 . S
C333 N331 1.334 . S
C334 H326 0.930 . S
C334 C329 1.418 . S
C334 C330 1.353 . S
C335 H305 0.930 . S
C335 N336 1.330 . S
C335 C337 1.446 1_565 S
N336 Co295 2.151 . S
N336 C335 1.330 . S
N336 C340 1.418 . S
C337 H316 0.929 . S
C337 C335 1.446 1_545 S
C337 C338 1.332 . S
C338 H318 0.931 . S
C338 C337 1.332 . S
C338 C339 1.267 1_545 S
C339 H307 0.929 . S
C339 C338 1.267 1_565 S
C339 C340 1.251 . S
C340 H310 0.929 . S
C340 N336 1.418 . S
C340 C339 1.251 . S
C341 H308 0.930 . S
C341 C343 1.406 . S
C341 C346 1.261 . S
C342 H309 0.930 . S
C342 N344 1.325 . S
C342 C345 1.357 . S
C343 H311 0.928 . S
C343 C341 1.406 . S
C343 N344 1.261 . S
N344 Co295 2.214 . S
N344 C342 1.325 . S
N344 C343 1.261 . S
C345 H315 0.931 . S
C345 C342 1.357 . S
C345 C346 1.312 . S
C346 H317 0.930 . S
C346 C341 1.261 . S
C346 C345 1.312 . S
C347 O319 1.214 . S
C347 O327 1.234 . S
C348 H320 0.929 . S
C348 C351 1.391 . S
C348 C353 1.391 . S
C349 H321 0.929 . S
C349 C350 1.390 . S
C349 N352 1.391 . S
C350 H322 0.930 . S
C350 C349 1.390 . S
C350 C351 1.392 . S
C351 H323 0.929 . S
C351 C348 1.391 . S
C351 C350 1.392 . S
N352 Co296 2.257 . S
N352 C349 1.391 . S
N352 C353 1.388 . S
C353 H324 0.930 . S
C353 C348 1.391 . S
C353 N352 1.388 . S
Co354 O356 2.143 . S
Co354 O362 2.074 . S
Co354 O365 2.093 . S
Co354 O378 2.097 . S
Co354 N395 2.151 . S
Co354 N403 2.214 . S
Co355 O356 2.160 . S
Co355 O361 2.058 . S
Co355 O371 2.057 . S
Co355 O386 2.037 . S
Co355 N390 2.145 . S
Co355 N411 2.257 . S
O356 Co354 2.143 . S
O356 Co355 2.160 . S
C357 O358 1.278 . S
C357 O365 1.224 . S
O358 C357 1.278 . S
C359 O360 1.245 . S
C359 O371 1.232 . S
O360 C359 1.245 . S
O361 Co355 2.058 . S
O361 C387 1.269 . S
O362 Co354 2.074 . S
O362 C387 1.257 . S
H363 C388 0.930 . S
H364 C394 0.930 . S
O365 Co354 2.093 . S
O365 C357 1.224 . S
H366 C398 0.929 . S
H367 C400 0.930 . S
H368 C401 0.930 . S
H369 C399 0.929 . S
H370 C402 0.928 . S
O371 Co355 2.057 . S
O371 C359 1.232 . S
H372 C391 0.929 . S
H373 C392 0.929 . S
H374 C404 0.931 . S
H375 C396 0.929 . S
H376 C405 0.930 . S
H377 C397 0.931 . S
O378 Co354 2.097 . S
O378 C406 1.214 . S
H379 C407 0.929 . S
H380 C408 0.929 . S
H381 C409 0.930 . S
H382 C410 0.929 . S
H383 C412 0.930 . S
H384 C389 0.930 . S
H385 C393 0.930 . S
O386 Co355 2.037 . S
O386 C406 1.234 . S
C387 O361 1.269 . S
C387 O362 1.257 . S
C388 H363 0.930 . S
C388 C391 1.388 . S
C388 C393 1.418 . S
C389 H384 0.930 . S
C389 C392 1.404 . S
C389 C393 1.353 . S
N390 Co355 2.145 . S
N390 C391 1.397 . S
N390 C392 1.334 . S
C391 H372 0.929 . S
C391 C388 1.388 . S
C391 N390 1.397 . S
C392 H373 0.929 . S
C392 C389 1.404 . S
C392 N390 1.334 . S
C393 H385 0.930 . S
C393 C388 1.418 . S
C393 C389 1.353 . S
C394 H364 0.930 . S
C394 N395 1.330 . S
C394 C396 1.446 1_565 S
N395 Co354 2.151 . S
N395 C394 1.330 . S
N395 C399 1.418 . S
C396 H375 0.929 . S
C396 C394 1.446 1_545 S
C396 C397 1.332 . S
C397 H377 0.931 . S
C397 C396 1.332 . S
C397 C398 1.267 1_545 S
C398 H366 0.929 . S
C398 C397 1.267 1_565 S
C398 C399 1.251 . S
C399 H369 0.929 . S
C399 N395 1.418 . S
C399 C398 1.251 . S
C400 H367 0.930 . S
C400 C402 1.406 . S
C400 C405 1.261 . S
C401 H368 0.930 . S
C401 N403 1.325 . S
C401 C404 1.357 . S
C402 H370 0.928 . S
C402 C400 1.406 . S
C402 N403 1.261 . S
N403 Co354 2.214 . S
N403 C401 1.325 . S
N403 C402 1.261 . S
C404 H374 0.931 . S
C404 C401 1.357 . S
C404 C405 1.312 . S
C405 H376 0.930 . S
C405 C400 1.261 . S
C405 C404 1.312 . S
C406 O378 1.214 . S
C406 O386 1.234 . S
C407 H379 0.929 . S
C407 C410 1.391 . S
C407 C412 1.391 . S
C408 H380 0.929 . S
C408 C409 1.390 . S
C408 N411 1.391 . S
C409 H381 0.930 . S
C409 C408 1.390 . S
C409 C410 1.392 . S
C410 H382 0.929 . S
C410 C407 1.391 . S
C410 C409 1.392 . S
N411 Co355 2.257 . S
N411 C408 1.391 . S
N411 C412 1.388 . S
C412 H383 0.930 . S
C412 C407 1.391 . S
C412 N411 1.388 . S
Co413 O415 2.143 . S
Co413 O421 2.074 . S
Co413 O424 2.093 . S
Co413 O437 2.097 . S
Co413 N454 2.151 . S
Co413 N462 2.214 . S
Co414 O415 2.160 . S
Co414 O420 2.058 . S
Co414 O430 2.057 . S
Co414 O445 2.037 . S
Co414 N449 2.145 . S
Co414 N470 2.257 . S
O415 Co413 2.143 . S
O415 Co414 2.160 . S
C416 O417 1.278 . S
C416 O424 1.224 . S
O417 C416 1.278 . S
C418 O419 1.245 . S
C418 O430 1.232 . S
O419 C418 1.245 . S
O420 Co414 2.058 . S
O420 C446 1.269 . S
O421 Co413 2.074 . S
O421 C446 1.257 . S
H422 C447 0.930 . S
H423 C453 0.930 . S
O424 Co413 2.093 . S
O424 C416 1.224 . S
H425 C457 0.929 . S
H426 C459 0.930 . S
H427 C460 0.930 . S
H428 C458 0.929 . S
H429 C461 0.928 . S
O430 Co414 2.057 . S
O430 C418 1.232 . S
H431 C450 0.929 . S
H432 C451 0.929 . S
H433 C463 0.931 . S
H434 C455 0.929 . S
H435 C464 0.930 . S
H436 C456 0.931 . S
O437 Co413 2.097 . S
O437 C465 1.214 . S
H438 C466 0.929 . S
H439 C467 0.929 . S
H440 C468 0.930 . S
H441 C469 0.929 . S
H442 C471 0.930 . S
H443 C448 0.930 . S
H444 C452 0.930 . S
O445 Co414 2.037 . S
O445 C465 1.234 . S
C446 O420 1.269 . S
C446 O421 1.257 . S
C447 H422 0.930 . S
C447 C450 1.388 . S
C447 C452 1.418 . S
C448 H443 0.930 . S
C448 C451 1.404 . S
C448 C452 1.353 . S
N449 Co414 2.145 . S
N449 C450 1.397 . S
N449 C451 1.334 . S
C450 H431 0.929 . S
C450 C447 1.388 . S
C450 N449 1.397 . S
C451 H432 0.929 . S
C451 C448 1.404 . S
C451 N449 1.334 . S
C452 H444 0.930 . S
C452 C447 1.418 . S
C452 C448 1.353 . S
C453 H423 0.930 . S
C453 N454 1.330 . S
C453 C455 1.446 1_545 S
N454 Co413 2.151 . S
N454 C453 1.330 . S
N454 C458 1.418 . S
C455 H434 0.929 . S
C455 C453 1.446 1_565 S
C455 C456 1.332 . S
C456 H436 0.931 . S
C456 C455 1.332 . S
C456 C457 1.267 1_565 S
C457 H425 0.929 . S
C457 C456 1.267 1_545 S
C457 C458 1.251 . S
C458 H428 0.929 . S
C458 N454 1.418 . S
C458 C457 1.251 . S
C459 H426 0.930 . S
C459 C461 1.406 . S
C459 C464 1.261 . S
C460 H427 0.930 . S
C460 N462 1.325 . S
C460 C463 1.357 . S
C461 H429 0.928 . S
C461 C459 1.406 . S
C461 N462 1.261 . S
N462 Co413 2.214 . S
N462 C460 1.325 . S
N462 C461 1.261 . S
C463 H433 0.931 . S
C463 C460 1.357 . S
C463 C464 1.312 . S
C464 H435 0.930 . S
C464 C459 1.261 . S
C464 C463 1.312 . S
C465 O437 1.214 . S
C465 O445 1.234 . S
C466 H438 0.929 . S
C466 C469 1.391 . S
C466 C471 1.391 . S
C467 H439 0.929 . S
C467 C468 1.390 . S
C467 N470 1.391 . S
C468 H440 0.930 . S
C468 C467 1.390 . S
C468 C469 1.392 . S
C469 H441 0.929 . S
C469 C466 1.391 . S
C469 C468 1.392 . S
N470 Co414 2.257 . S
N470 C467 1.391 . S
N470 C471 1.388 . S
C471 H442 0.930 . S
C471 C466 1.391 . S
C471 N470 1.388 . S
Co472 O474 2.143 . S
Co472 O480 2.074 . S
Co472 O483 2.093 . S
Co472 O496 2.097 . S
Co472 N513 2.151 . S
Co472 N521 2.214 . S
Co473 O474 2.160 . S
Co473 O479 2.058 . S
Co473 O489 2.057 . S
Co473 O504 2.037 . S
Co473 N508 2.145 . S
Co473 N529 2.257 . S
O474 Co472 2.143 . S
O474 Co473 2.160 . S
C475 O476 1.278 . S
C475 O483 1.224 . S
O476 C475 1.278 . S
C477 O478 1.245 . S
C477 O489 1.232 . S
O478 C477 1.245 . S
O479 Co473 2.058 . S
O479 C505 1.269 . S
O480 Co472 2.074 . S
O480 C505 1.257 . S
H481 C506 0.930 . S
H482 C512 0.930 . S
O483 Co472 2.093 . S
O483 C475 1.224 . S
H484 C516 0.929 . S
H485 C518 0.930 . S
H486 C519 0.930 . S
H487 C517 0.929 . S
H488 C520 0.928 . S
O489 Co473 2.057 . S
O489 C477 1.232 . S
H490 C509 0.929 . S
H491 C510 0.929 . S
H492 C522 0.931 . S
H493 C514 0.929 . S
H494 C523 0.930 . S
H495 C515 0.931 . S
O496 Co472 2.097 . S
O496 C524 1.214 . S
H497 C525 0.929 . S
H498 C526 0.929 . S
H499 C527 0.930 . S
H500 C528 0.929 . S
H501 C530 0.930 . S
H502 C507 0.930 . S
H503 C511 0.930 . S
O504 Co473 2.037 . S
O504 C524 1.234 . S
C505 O479 1.269 . S
C505 O480 1.257 . S
C506 H481 0.930 . S
C506 C509 1.388 . S
C506 C511 1.418 . S
C507 H502 0.930 . S
C507 C510 1.404 . S
C507 C511 1.353 . S
N508 Co473 2.145 . S
N508 C509 1.397 . S
N508 C510 1.334 . S
C509 H490 0.929 . S
C509 C506 1.388 . S
C509 N508 1.397 . S
C510 H491 0.929 . S
C510 C507 1.404 . S
C510 N508 1.334 . S
C511 H503 0.930 . S
C511 C506 1.418 . S
C511 C507 1.353 . S
C512 H482 0.930 . S
C512 N513 1.330 . S
C512 C514 1.446 1_554 S
N513 Co472 2.151 . S
N513 C512 1.330 . S
N513 C517 1.418 . S
C514 H493 0.929 . S
C514 C512 1.446 1_556 S
C514 C515 1.332 . S
C515 H495 0.931 . S
C515 C514 1.332 . S
C515 C516 1.267 1_556 S
C516 H484 0.929 . S
C516 C515 1.267 1_554 S
C516 C517 1.251 . S
C517 H487 0.929 . S
C517 N513 1.418 . S
C517 C516 1.251 . S
C518 H485 0.930 . S
C518 C520 1.406 . S
C518 C523 1.261 . S
C519 H486 0.930 . S
C519 N521 1.325 . S
C519 C522 1.357 . S
C520 H488 0.928 . S
C520 C518 1.406 . S
C520 N521 1.261 . S
N521 Co472 2.214 . S
N521 C519 1.325 . S
N521 C520 1.261 . S
C522 H492 0.931 . S
C522 C519 1.357 . S
C522 C523 1.312 . S
C523 H494 0.930 . S
C523 C518 1.261 . S
C523 C522 1.312 . S
C524 O496 1.214 . S
C524 O504 1.234 . S
C525 H497 0.929 . S
C525 C528 1.391 . S
C525 C530 1.391 . S
C526 H498 0.929 . S
C526 C527 1.390 . S
C526 N529 1.391 . S
C527 H499 0.930 . S
C527 C526 1.390 . S
C527 C528 1.392 . S
C528 H500 0.929 . S
C528 C525 1.391 . S
C528 C527 1.392 . S
N529 Co473 2.257 . S
N529 C526 1.391 . S
N529 C530 1.388 . S
C530 H501 0.930 . S
C530 C525 1.391 . S
C530 N529 1.388 . S
Co531 O533 2.143 . S
Co531 O539 2.074 . S
Co531 O542 2.093 . S
Co531 O555 2.097 . S
Co531 N572 2.151 . S
Co531 N580 2.214 . S
Co532 O533 2.160 . S
Co532 O538 2.058 . S
Co532 O548 2.057 . S
Co532 O563 2.037 . S
Co532 N567 2.145 . S
Co532 N588 2.257 . S
O533 Co531 2.143 . S
O533 Co532 2.160 . S
C534 O535 1.278 . S
C534 O542 1.224 . S
O535 C534 1.278 . S
C536 O537 1.245 . S
C536 O548 1.232 . S
O537 C536 1.245 . S
O538 Co532 2.058 . S
O538 C564 1.269 . S
O539 Co531 2.074 . S
O539 C564 1.257 . S
H540 C565 0.930 . S
H541 C571 0.930 . S
O542 Co531 2.093 . S
O542 C534 1.224 . S
H543 C575 0.929 . S
H544 C577 0.930 . S
H545 C578 0.930 . S
H546 C576 0.929 . S
H547 C579 0.928 . S
O548 Co532 2.057 . S
O548 C536 1.232 . S
H549 C568 0.929 . S
H550 C569 0.929 . S
H551 C581 0.931 . S
H552 C573 0.929 . S
H553 C582 0.930 . S
H554 C574 0.931 . S
O555 Co531 2.097 . S
O555 C583 1.214 . S
H556 C584 0.929 . S
H557 C585 0.929 . S
H558 C586 0.930 . S
H559 C587 0.929 . S
H560 C589 0.930 . S
H561 C566 0.930 . S
H562 C570 0.930 . S
O563 Co532 2.037 . S
O563 C583 1.234 . S
C564 O538 1.269 . S
C564 O539 1.257 . S
C565 H540 0.930 . S
C565 C568 1.388 . S
C565 C570 1.418 . S
C566 H561 0.930 . S
C566 C569 1.404 . S
C566 C570 1.353 . S
N567 Co532 2.145 . S
N567 C568 1.397 . S
N567 C569 1.334 . S
C568 H549 0.929 . S
C568 C565 1.388 . S
C568 N567 1.397 . S
C569 H550 0.929 . S
C569 C566 1.404 . S
C569 N567 1.334 . S
C570 H562 0.930 . S
C570 C565 1.418 . S
C570 C566 1.353 . S
C571 H541 0.930 . S
C571 N572 1.330 . S
C571 C573 1.446 1_556 S
N572 Co531 2.151 . S
N572 C571 1.330 . S
N572 C576 1.418 . S
C573 H552 0.929 . S
C573 C571 1.446 1_554 S
C573 C574 1.332 . S
C574 H554 0.931 . S
C574 C573 1.332 . S
C574 C575 1.267 1_554 S
C575 H543 0.929 . S
C575 C574 1.267 1_556 S
C575 C576 1.251 . S
C576 H546 0.929 . S
C576 N572 1.418 . S
C576 C575 1.251 . S
C577 H544 0.930 . S
C577 C579 1.406 . S
C577 C582 1.261 . S
C578 H545 0.930 . S
C578 N580 1.325 . S
C578 C581 1.357 . S
C579 H547 0.928 . S
C579 C577 1.406 . S
C579 N580 1.261 . S
N580 Co531 2.214 . S
N580 C578 1.325 . S
N580 C579 1.261 . S
C581 H551 0.931 . S
C581 C578 1.357 . S
C581 C582 1.312 . S
C582 H553 0.930 . S
C582 C577 1.261 . S
C582 C581 1.312 . S
C583 O555 1.214 . S
C583 O563 1.234 . S
C584 H556 0.929 . S
C584 C587 1.391 . S
C584 C589 1.391 . S
C585 H557 0.929 . S
C585 C586 1.390 . S
C585 N588 1.391 . S
C586 H558 0.930 . S
C586 C585 1.390 . S
C586 C587 1.392 . S
C587 H559 0.929 . S
C587 C584 1.391 . S
C587 C586 1.392 . S
N588 Co532 2.257 . S
N588 C585 1.391 . S
N588 C589 1.388 . S
C589 H560 0.930 . S
C589 C584 1.391 . S
C589 N588 1.388 . S
Co590 O592 2.143 . S
Co590 O598 2.074 . S
Co590 O601 2.093 . S
Co590 O614 2.097 . S
Co590 N631 2.151 . S
Co590 N639 2.214 . S
Co591 O592 2.160 . S
Co591 O597 2.058 . S
Co591 O607 2.057 . S
Co591 O622 2.037 . S
Co591 N626 2.145 . S
Co591 N647 2.257 . S
O592 Co590 2.143 . S
O592 Co591 2.160 . S
C593 O594 1.278 . S
C593 O601 1.224 . S
O594 C593 1.278 . S
C595 O596 1.245 . S
C595 O607 1.232 . S
O596 C595 1.245 . S
O597 Co591 2.058 . S
O597 C623 1.269 . S
O598 Co590 2.074 . S
O598 C623 1.257 . S
H599 C624 0.930 . S
H600 C630 0.930 . S
O601 Co590 2.093 . S
O601 C593 1.224 . S
H602 C634 0.929 . S
H603 C636 0.930 . S
H604 C637 0.930 . S
H605 C635 0.929 . S
H606 C638 0.928 . S
O607 Co591 2.057 . S
O607 C595 1.232 . S
H608 C627 0.929 . S
H609 C628 0.929 . S
H610 C640 0.931 . S
H611 C632 0.929 . S
H612 C641 0.930 . S
H613 C633 0.931 . S
O614 Co590 2.097 . S
O614 C642 1.214 . S
H615 C643 0.929 . S
H616 C644 0.929 . S
H617 C645 0.930 . S
H618 C646 0.929 . S
H619 C648 0.930 . S
H620 C625 0.930 . S
H621 C629 0.930 . S
O622 Co591 2.037 . S
O622 C642 1.234 . S
C623 O597 1.269 . S
C623 O598 1.257 . S
C624 H599 0.930 . S
C624 C627 1.388 . S
C624 C629 1.418 . S
C625 H620 0.930 . S
C625 C628 1.404 . S
C625 C629 1.353 . S
N626 Co591 2.145 . S
N626 C627 1.397 . S
N626 C628 1.334 . S
C627 H608 0.929 . S
C627 C624 1.388 . S
C627 N626 1.397 . S
C628 H609 0.929 . S
C628 C625 1.404 . S
C628 N626 1.334 . S
C629 H621 0.930 . S
C629 C624 1.418 . S
C629 C625 1.353 . S
C630 H600 0.930 . S
C630 N631 1.330 . S
C630 C632 1.446 1_556 S
N631 Co590 2.151 . S
N631 C630 1.330 . S
N631 C635 1.418 . S
C632 H611 0.929 . S
C632 C630 1.446 1_554 S
C632 C633 1.332 . S
C633 H613 0.931 . S
C633 C632 1.332 . S
C633 C634 1.267 1_554 S
C634 H602 0.929 . S
C634 C633 1.267 1_556 S
C634 C635 1.251 . S
C635 H605 0.929 . S
C635 N631 1.418 . S
C635 C634 1.251 . S
C636 H603 0.930 . S
C636 C638 1.406 . S
C636 C641 1.261 . S
C637 H604 0.930 . S
C637 N639 1.325 . S
C637 C640 1.357 . S
C638 H606 0.928 . S
C638 C636 1.406 . S
C638 N639 1.261 . S
N639 Co590 2.214 . S
N639 C637 1.325 . S
N639 C638 1.261 . S
C640 H610 0.931 . S
C640 C637 1.357 . S
C640 C641 1.312 . S
C641 H612 0.930 . S
C641 C636 1.261 . S
C641 C640 1.312 . S
C642 O614 1.214 . S
C642 O622 1.234 . S
C643 H615 0.929 . S
C643 C646 1.391 . S
C643 C648 1.391 . S
C644 H616 0.929 . S
C644 C645 1.390 . S
C644 N647 1.391 . S
C645 H617 0.930 . S
C645 C644 1.390 . S
C645 C646 1.392 . S
C646 H618 0.929 . S
C646 C643 1.391 . S
C646 C645 1.392 . S
N647 Co591 2.257 . S
N647 C644 1.391 . S
N647 C648 1.388 . S
C648 H619 0.930 . S
C648 C643 1.391 . S
C648 N647 1.388 . S
Co649 O651 2.143 . S
Co649 O657 2.074 . S
Co649 O660 2.093 . S
Co649 O673 2.097 . S
Co649 N690 2.151 . S
Co649 N698 2.214 . S
Co650 O651 2.160 . S
Co650 O656 2.058 . S
Co650 O666 2.057 . S
Co650 O681 2.037 . S
Co650 N685 2.145 . S
Co650 N706 2.257 . S
O651 Co649 2.143 . S
O651 Co650 2.160 . S
C652 O653 1.278 . S
C652 O660 1.224 . S
O653 C652 1.278 . S
C654 O655 1.245 . S
C654 O666 1.232 . S
O655 C654 1.245 . S
O656 Co650 2.058 . S
O656 C682 1.269 . S
O657 Co649 2.074 . S
O657 C682 1.257 . S
H658 C683 0.930 . S
H659 C689 0.930 . S
O660 Co649 2.093 . S
O660 C652 1.224 . S
H661 C693 0.929 . S
H662 C695 0.930 . S
H663 C696 0.930 . S
H664 C694 0.929 . S
H665 C697 0.928 . S
O666 Co650 2.057 . S
O666 C654 1.232 . S
H667 C686 0.929 . S
H668 C687 0.929 . S
H669 C699 0.931 . S
H670 C691 0.929 . S
H671 C700 0.930 . S
H672 C692 0.931 . S
O673 Co649 2.097 . S
O673 C701 1.214 . S
H674 C702 0.929 . S
H675 C703 0.929 . S
H676 C704 0.930 . S
H677 C705 0.929 . S
H678 C707 0.930 . S
H679 C684 0.930 . S
H680 C688 0.930 . S
O681 Co650 2.037 . S
O681 C701 1.234 . S
C682 O656 1.269 . S
C682 O657 1.257 . S
C683 H658 0.930 . S
C683 C686 1.388 . S
C683 C688 1.418 . S
C684 H679 0.930 . S
C684 C687 1.404 . S
C684 C688 1.353 . S
N685 Co650 2.145 . S
N685 C686 1.397 . S
N685 C687 1.334 . S
C686 H667 0.929 . S
C686 C683 1.388 . S
C686 N685 1.397 . S
C687 H668 0.929 . S
C687 C684 1.404 . S
C687 N685 1.334 . S
C688 H680 0.930 . S
C688 C683 1.418 . S
C688 C684 1.353 . S
C689 H659 0.930 . S
C689 N690 1.330 . S
C689 C691 1.446 1_554 S
N690 Co649 2.151 . S
N690 C689 1.330 . S
N690 C694 1.418 . S
C691 H670 0.929 . S
C691 C689 1.446 1_556 S
C691 C692 1.332 . S
C692 H672 0.931 . S
C692 C691 1.332 . S
C692 C693 1.267 1_556 S
C693 H661 0.929 . S
C693 C692 1.267 1_554 S
C693 C694 1.251 . S
C694 H664 0.929 . S
C694 N690 1.418 . S
C694 C693 1.251 . S
C695 H662 0.930 . S
C695 C697 1.406 . S
C695 C700 1.261 . S
C696 H663 0.930 . S
C696 N698 1.325 . S
C696 C699 1.357 . S
C697 H665 0.928 . S
C697 C695 1.406 . S
C697 N698 1.261 . S
N698 Co649 2.214 . S
N698 C696 1.325 . S
N698 C697 1.261 . S
C699 H669 0.931 . S
C699 C696 1.357 . S
C699 C700 1.312 . S
C700 H671 0.930 . S
C700 C695 1.261 . S
C700 C699 1.312 . S
C701 O673 1.214 . S
C701 O681 1.234 . S
C702 H674 0.929 . S
C702 C705 1.391 . S
C702 C707 1.391 . S
C703 H675 0.929 . S
C703 C704 1.390 . S
C703 N706 1.391 . S
C704 H676 0.930 . S
C704 C703 1.390 . S
C704 C705 1.392 . S
C705 H677 0.929 . S
C705 C702 1.391 . S
C705 C704 1.392 . S
N706 Co650 2.257 . S
N706 C703 1.391 . S
N706 C707 1.388 . S
C707 H678 0.930 . S
C707 C702 1.391 . S
C707 N706 1.388 . S
H708 C716 0.929 . S
H709 C718 0.930 . S
H710 C720 0.930 . S
H711 C723 0.929 . S
H712 C726 0.930 . S
H713 C728 0.960 . S
H714 C728 0.960 . S
H715 C728 0.960 . S
C716 H708 0.929 . S
C716 C717 1.377 . S
C716 C718 1.384 . S
C717 C716 1.377 . S
C717 C723 1.390 . S
C718 H709 0.930 . S
C718 C716 1.384 . S
C718 C719 1.372 . S
C719 C718 1.372 . S
C719 C720 1.400 . S
C719 C724 1.490 . S
C720 H710 0.930 . S
C720 C719 1.400 . S
C720 C723 1.386 . S
H721 C737 0.930 . S
H722 C738 0.931 . S
C723 H711 0.929 . S
C723 C717 1.390 . S
C723 C720 1.386 . S
C724 C719 1.490 . S
C724 C726 1.395 . S
C724 C727 1.403 1_655 S
H725 C731 0.930 . S
C726 H712 0.930 . S
C726 C724 1.395 . S
C726 C729 1.403 . S
C727 C724 1.403 1_455 S
C727 C728 1.524 . S
C727 C731 1.400 . S
C728 H713 0.960 . S
C728 H714 0.960 . S
C728 H715 0.960 . S
C728 C727 1.524 . S
C729 C726 1.403 . S
C729 C730 1.392 1_655 S
C729 C733 1.495 . S
C730 C729 1.392 1_455 S
C730 C731 1.385 . S
C730 C732 1.478 . S
C731 H725 0.930 . S
C731 C727 1.400 . S
C731 C730 1.385 . S
C732 C730 1.478 . S
C732 C734 1.381 . S
C732 C738 1.383 . S
C733 C729 1.495 . S
C733 H739 0.959 . S
C733 H740 0.961 . S
C733 H741 0.960 . S
C734 C732 1.381 . S
C734 C735 1.394 . S
C734 H742 0.930 . S
C735 C734 1.394 . S
C735 C736 1.383 . S
C735 H743 0.929 . S
C736 C735 1.383 . S
C736 C737 1.377 . S
C737 H721 0.930 . S
C737 C736 1.377 . S
C737 C738 1.379 . S
C738 H722 0.931 . S
C738 C732 1.383 . S
C738 C737 1.379 . S
H739 C733 0.959 . S
H740 C733 0.961 . S
H741 C733 0.960 . S
H742 C734 0.930 . S
H743 C735 0.929 . S
H744 C752 0.929 . S
H745 C754 0.930 . S
H746 C756 0.930 . S
H747 C759 0.929 . S
H748 C762 0.930 . S
H749 C764 0.960 . S
H750 C764 0.960 . S
H751 C764 0.960 . S
C752 H744 0.929 . S
C752 C753 1.377 . S
C752 C754 1.384 . S
C753 C752 1.377 . S
C753 C759 1.390 . S
C754 H745 0.930 . S
C754 C752 1.384 . S
C754 C755 1.372 . S
C755 C754 1.372 . S
C755 C756 1.400 . S
C755 C760 1.490 . S
C756 H746 0.930 . S
C756 C755 1.400 . S
C756 C759 1.386 . S
H757 C773 0.930 . S
H758 C774 0.931 . S
C759 H747 0.929 . S
C759 C753 1.390 . S
C759 C756 1.386 . S
C760 C755 1.490 . S
C760 C762 1.395 . S
C760 C763 1.403 1_455 S
H761 C767 0.930 . S
C762 H748 0.930 . S
C762 C760 1.395 . S
C762 C765 1.403 . S
C763 C760 1.403 1_655 S
C763 C764 1.524 . S
C763 C767 1.400 . S
C764 H749 0.960 . S
C764 H750 0.960 . S
C764 H751 0.960 . S
C764 C763 1.524 . S
C765 C762 1.403 . S
C765 C766 1.392 1_455 S
C765 C769 1.495 . S
C766 C765 1.392 1_655 S
C766 C767 1.385 . S
C766 C768 1.478 . S
C767 H761 0.930 . S
C767 C763 1.400 . S
C767 C766 1.385 . S
C768 C766 1.478 . S
C768 C770 1.381 . S
C768 C774 1.383 . S
C769 C765 1.495 . S
C769 H775 0.959 . S
C769 H776 0.961 . S
C769 H777 0.960 . S
C770 C768 1.381 . S
C770 C771 1.394 . S
C770 H778 0.930 . S
C771 C770 1.394 . S
C771 C772 1.383 . S
C771 H779 0.929 . S
C772 C771 1.383 . S
C772 C773 1.377 . S
C773 H757 0.930 . S
C773 C772 1.377 . S
C773 C774 1.379 . S
C774 H758 0.931 . S
C774 C768 1.383 . S
C774 C773 1.379 . S
H775 C769 0.959 . S
H776 C769 0.961 . S
H777 C769 0.960 . S
H778 C770 0.930 . S
H779 C771 0.929 . S
H780 C788 0.929 . S
H781 C790 0.930 . S
H782 C792 0.930 . S
H783 C795 0.929 . S
H784 C798 0.930 . S
H785 C800 0.960 . S
H786 C800 0.960 . S
H787 C800 0.960 . S
C788 H780 0.929 . S
C788 C789 1.377 . S
C788 C790 1.384 . S
C789 C788 1.377 . S
C789 C795 1.390 . S
C790 H781 0.930 . S
C790 C788 1.384 . S
C790 C791 1.372 . S
C791 C790 1.372 . S
C791 C792 1.400 . S
C791 C796 1.490 . S
C792 H782 0.930 . S
C792 C791 1.400 . S
C792 C795 1.386 . S
H793 C809 0.930 . S
H794 C810 0.931 . S
C795 H783 0.929 . S
C795 C789 1.390 . S
C795 C792 1.386 . S
C796 C791 1.490 . S
C796 C798 1.395 . S
C796 C799 1.403 1_565 S
H797 C803 0.930 . S
C798 H784 0.930 . S
C798 C796 1.395 . S
C798 C801 1.403 . S
C799 C796 1.403 1_545 S
C799 C800 1.524 . S
C799 C803 1.400 . S
C800 H785 0.960 . S
C800 H786 0.960 . S
C800 H787 0.960 . S
C800 C799 1.524 . S
C801 C798 1.403 . S
C801 C802 1.392 1_565 S
C801 C805 1.495 . S
C802 C801 1.392 1_545 S
C802 C803 1.385 . S
C802 C804 1.478 . S
C803 H797 0.930 . S
C803 C799 1.400 . S
C803 C802 1.385 . S
C804 C802 1.478 . S
C804 C806 1.381 . S
C804 C810 1.383 . S
C805 C801 1.495 . S
C805 H811 0.959 . S
C805 H812 0.961 . S
C805 H813 0.960 . S
C806 C804 1.381 . S
C806 C807 1.394 . S
C806 H814 0.930 . S
C807 C806 1.394 . S
C807 C808 1.383 . S
C807 H815 0.929 . S
C808 C807 1.383 . S
C808 C809 1.377 . S
C809 H793 0.930 . S
C809 C808 1.377 . S
C809 C810 1.379 . S
C810 H794 0.931 . S
C810 C804 1.383 . S
C810 C809 1.379 . S
H811 C805 0.959 . S
H812 C805 0.961 . S
H813 C805 0.960 . S
H814 C806 0.930 . S
H815 C807 0.929 . S
H816 C824 0.929 . S
H817 C826 0.930 . S
H818 C828 0.930 . S
H819 C831 0.929 . S
H820 C834 0.930 . S
H821 C836 0.960 . S
H822 C836 0.960 . S
H823 C836 0.960 . S
C824 H816 0.929 . S
C824 C825 1.377 . S
C824 C826 1.384 . S
C825 C824 1.377 . S
C825 C831 1.390 . S
C826 H817 0.930 . S
C826 C824 1.384 . S
C826 C827 1.372 . S
C827 C826 1.372 . S
C827 C828 1.400 . S
C827 C832 1.490 . S
C828 H818 0.930 . S
C828 C827 1.400 . S
C828 C831 1.386 . S
H829 C845 0.930 . S
H830 C846 0.931 . S
C831 H819 0.929 . S
C831 C825 1.390 . S
C831 C828 1.386 . S
C832 C827 1.490 . S
C832 C834 1.395 1_565 S
C832 C835 1.403 . S
H833 C839 0.930 . S
C834 H820 0.930 . S
C834 C832 1.395 1_545 S
C834 C837 1.403 . S
C835 C832 1.403 . S
C835 C836 1.524 . S
C835 C839 1.400 . S
C836 H821 0.960 . S
C836 H822 0.960 . S
C836 H823 0.960 . S
C836 C835 1.524 . S
C837 C834 1.403 . S
C837 C838 1.392 . S
C837 C841 1.495 . S
C838 C837 1.392 . S
C838 C839 1.385 1_545 S
C838 C840 1.478 . S
C839 H833 0.930 . S
C839 C835 1.400 . S
C839 C838 1.385 1_565 S
C840 C838 1.478 . S
C840 C842 1.381 . S
C840 C846 1.383 . S
C841 C837 1.495 . S
C841 H847 0.959 . S
C841 H848 0.961 . S
C841 H849 0.960 . S
C842 C840 1.381 . S
C842 C843 1.394 . S
C842 H850 0.930 . S
C843 C842 1.394 . S
C843 C844 1.383 . S
C843 H851 0.929 . S
C844 C843 1.383 . S
C844 C845 1.377 . S
C845 H829 0.930 . S
C845 C844 1.377 . S
C845 C846 1.379 . S
C846 H830 0.931 . S
C846 C840 1.383 . S
C846 C845 1.379 . S
H847 C841 0.959 . S
H848 C841 0.961 . S
H849 C841 0.960 . S
H850 C842 0.930 . S
H851 C843 0.929 . S
H852 C860 0.929 . S
H853 C862 0.930 . S
H854 C864 0.930 . S
H855 C867 0.929 . S
H856 C870 0.930 . S
H857 C872 0.943 1_554 S
H858 C872 0.985 . S
H859 C872 0.952 1_554 S
C860 H852 0.929 . S
C860 C861 1.377 . S
C860 C862 1.384 . S
C861 C860 1.377 . S
C861 C867 1.390 . S
C862 H853 0.930 . S
C862 C860 1.384 . S
C862 C863 1.372 . S
C863 C862 1.372 . S
C863 C864 1.400 . S
C863 C868 1.490 . S
C864 H854 0.930 . S
C864 C863 1.400 . S
C864 C867 1.386 . S
H865 C881 0.930 . S
H866 C882 0.931 . S
C867 H855 0.929 . S
C867 C861 1.390 . S
C867 C864 1.386 . S
C868 C863 1.490 . S
C868 C870 1.395 . S
C868 C871 1.403 . S
H869 C875 0.930 . S
C870 H856 0.930 . S
C870 C868 1.395 . S
C870 C873 1.403 . S
C871 C868 1.403 . S
C871 C872 1.525 . S
C871 C875 1.400 1_556 S
C872 H857 0.943 1_556 S
C872 H858 0.985 . S
C872 H859 0.952 1_556 S
C872 C871 1.525 . S
C873 C870 1.403 . S
C873 C874 1.392 1_556 S
C873 C877 1.495 . S
C874 C873 1.392 1_554 S
C874 C875 1.385 . S
C874 C876 1.478 . S
C875 H869 0.930 . S
C875 C871 1.400 1_554 S
C875 C874 1.385 . S
C876 C874 1.478 . S
C876 C878 1.381 . S
C876 C882 1.383 . S
C877 C873 1.495 . S
C877 H883 0.959 . S
C877 H884 0.961 1_556 S
C877 H885 0.960 . S
C878 C876 1.381 . S
C878 C879 1.394 . S
C878 H886 0.930 . S
C879 C878 1.394 . S
C879 C880 1.383 . S
C879 H887 0.929 . S
C880 C879 1.383 . S
C880 C881 1.377 . S
C881 H865 0.930 . S
C881 C880 1.377 . S
C881 C882 1.379 . S
C882 H866 0.931 . S
C882 C876 1.383 . S
C882 C881 1.379 . S
H883 C877 0.959 . S
H884 C877 0.961 1_554 S
H885 C877 0.960 . S
H886 C878 0.930 . S
H887 C879 0.929 . S
H888 C896 0.929 . S
H889 C898 0.930 . S
H890 C900 0.930 . S
H891 C903 0.929 . S
H892 C906 0.930 . S
H893 C908 0.960 . S
H894 C908 0.960 . S
H895 C908 0.960 . S
C896 H888 0.929 . S
C896 C897 1.377 . S
C896 C898 1.384 . S
C897 C896 1.377 . S
C897 C903 1.390 . S
C898 H889 0.930 . S
C898 C896 1.384 . S
C898 C899 1.372 . S
C899 C898 1.372 . S
C899 C900 1.400 . S
C899 C904 1.490 . S
C900 H890 0.930 . S
C900 C899 1.400 . S
C900 C903 1.386 . S
H901 C917 0.930 . S
H902 C918 0.931 . S
C903 H891 0.929 . S
C903 C897 1.390 . S
C903 C900 1.386 . S
C904 C899 1.490 . S
C904 C906 1.395 . S
C904 C907 1.403 1_556 S
H905 C911 0.930 . S
C906 H892 0.930 . S
C906 C904 1.395 . S
C906 C909 1.403 . S
C907 C904 1.403 1_554 S
C907 C908 1.524 . S
C907 C911 1.400 . S
C908 H893 0.960 . S
C908 H894 0.960 . S
C908 H895 0.960 . S
C908 C907 1.524 . S
C909 C906 1.403 . S
C909 C910 1.392 1_556 S
C909 C913 1.495 . S
C910 C909 1.392 1_554 S
C910 C911 1.385 . S
C910 C912 1.478 . S
C911 H905 0.930 . S
C911 C907 1.400 . S
C911 C910 1.385 . S
C912 C910 1.478 . S
C912 C914 1.381 . S
C912 C918 1.383 . S
C913 C909 1.495 . S
C913 H919 0.959 . S
C913 H920 0.961 . S
C913 H921 0.960 . S
C914 C912 1.381 . S
C914 C915 1.394 . S
C914 H922 0.930 . S
C915 C914 1.394 . S
C915 C916 1.383 . S
C915 H923 0.929 . S
C916 C915 1.383 . S
C916 C917 1.377 . S
C917 H901 0.930 . S
C917 C916 1.377 . S
C917 C918 1.379 . S
C918 H902 0.931 . S
C918 C912 1.383 . S
C918 C917 1.379 . S
H919 C913 0.959 . S
H920 C913 0.961 . S
H921 C913 0.960 . S
H922 C914 0.930 . S
H923 C915 0.929 . S
H924 C932 0.929 . S
H925 C934 0.930 . S
H926 C936 0.930 . S
H927 C939 0.929 . S
H928 C942 0.930 . S
H929 C944 0.960 . S
H930 C944 0.960 . S
H931 C944 0.960 . S
C932 H924 0.929 . S
C932 C933 1.377 . S
C932 C934 1.384 . S
C933 C932 1.377 . S
C933 C939 1.390 . S
C934 H925 0.930 . S
C934 C932 1.384 . S
C934 C935 1.372 . S
C935 C934 1.372 . S
C935 C936 1.400 . S
C935 C940 1.490 . S
C936 H926 0.930 . S
C936 C935 1.400 . S
C936 C939 1.386 . S
H937 C953 0.930 . S
H938 C954 0.931 . S
C939 H927 0.929 . S
C939 C933 1.390 . S
C939 C936 1.386 . S
C940 C935 1.490 . S
C940 C942 1.395 . S
C940 C943 1.403 . S
H941 C947 0.930 . S
C942 H928 0.930 . S
C942 C940 1.395 . S
C942 C945 1.403 . S
C943 C940 1.403 . S
C943 C944 1.524 . S
C943 C947 1.400 . S
C944 H929 0.960 . S
C944 H930 0.960 . S
C944 H931 0.960 . S
C944 C943 1.524 . S
C945 C942 1.403 . S
C945 C946 1.392 . S
C945 C949 1.495 . S
C946 C945 1.392 . S
C946 C947 1.385 . S
C946 C948 1.478 . S
C947 H941 0.930 . S
C947 C943 1.400 . S
C947 C946 1.385 . S
C948 C946 1.478 . S
C948 C950 1.381 . S
C948 C954 1.383 . S
C949 C945 1.495 . S
C949 H955 0.959 . S
C949 H956 0.961 . S
C949 H957 0.960 . S
C950 C948 1.381 . S
C950 C951 1.394 . S
C950 H958 0.930 . S
C951 C950 1.394 . S
C951 C952 1.383 . S
C951 H959 0.929 . S
C952 C951 1.383 . S
C952 C953 1.377 . S
C953 H937 0.930 . S
C953 C952 1.377 . S
C953 C954 1.379 . S
C954 H938 0.931 . S
C954 C948 1.383 . S
C954 C953 1.379 . S
H955 C949 0.959 . S
H956 C949 0.961 . S
H957 C949 0.960 . S
H958 C950 0.930 . S
H959 C951 0.929 . S
H960 C968 0.929 . S
H961 C970 0.930 . S
H962 C972 0.930 . S
H963 C975 0.929 . S
H964 C978 0.930 . S
H965 C980 0.960 . S
H966 C980 0.960 . S
H967 C980 0.960 . S
C968 H960 0.929 . S
C968 C969 1.377 . S
C968 C970 1.384 . S
C969 C968 1.377 . S
C969 C975 1.390 . S
C970 H961 0.930 . S
C970 C968 1.384 . S
C970 C971 1.372 . S
C971 C970 1.372 . S
C971 C972 1.400 . S
C971 C976 1.490 . S
C972 H962 0.930 . S
C972 C971 1.400 . S
C972 C975 1.386 . S
H973 C989 0.930 . S
H974 C990 0.931 . S
C975 H963 0.929 . S
C975 C969 1.390 . S
C975 C972 1.386 . S
C976 C971 1.490 . S
C976 C978 1.395 . S
C976 C979 1.403 . S
H977 C983 0.930 . S
C978 H964 0.930 . S
C978 C976 1.395 . S
C978 C981 1.403 . S
C979 C976 1.403 . S
C979 C980 1.524 . S
C979 C983 1.400 . S
C980 H965 0.960 . S
C980 H966 0.960 . S
C980 H967 0.960 . S
C980 C979 1.524 . S
C981 C978 1.403 . S
C981 C982 1.392 . S
C981 C985 1.495 . S
C982 C981 1.392 . S
C982 C983 1.385 . S
C982 C984 1.478 . S
C983 H977 0.930 . S
C983 C979 1.400 . S
C983 C982 1.385 . S
C984 C982 1.478 . S
C984 C986 1.381 . S
C984 C990 1.383 . S
C985 C981 1.495 . S
C985 H991 0.959 . S
C985 H992 0.961 . S
C985 H993 0.960 . S
C986 C984 1.381 . S
C986 C987 1.394 . S
C986 H994 0.930 . S
C987 C986 1.394 . S
C987 C988 1.383 . S
C987 H995 0.929 . S
C988 C987 1.383 . S
C988 C989 1.377 . S
C989 H973 0.930 . S
C989 C988 1.377 . S
C989 C990 1.379 . S
C990 H974 0.931 . S
C990 C984 1.383 . S
C990 C989 1.379 . S
H991 C985 0.959 . S
H992 C985 0.961 . S
H993 C985 0.960 . S
H994 C986 0.930 . S
H995 C987 0.929 . S
H996 C1004 0.929 . S
H997 C1006 0.930 . S
H998 C1008 0.930 . S
H999 C1011 0.929 . S
H1000 C1014 0.930 . S
H1001 C1016 0.960 . S
H1002 C1016 0.960 . S
H1003 C1016 0.960 . S
C1004 H996 0.929 . S
C1004 C1005 1.377 . S
C1004 C1006 1.384 . S
C1005 C1004 1.377 . S
C1005 C1011 1.390 . S
C1006 H997 0.930 . S
C1006 C1004 1.384 . S
C1006 C1007 1.372 . S
C1007 C1006 1.372 . S
C1007 C1008 1.400 . S
C1007 C1012 1.490 . S
C1008 H998 0.930 . S
C1008 C1007 1.400 . S
C1008 C1011 1.386 . S
H1009 C1025 0.930 . S
H1010 C1026 0.931 . S
C1011 H999 0.929 . S
C1011 C1005 1.390 . S
C1011 C1008 1.386 . S
C1012 C1007 1.490 . S
C1012 C1014 1.395 . S
C1012 C1015 1.403 . S
H1013 C1019 0.930 . S
C1014 H1000 0.930 . S
C1014 C1012 1.395 . S
C1014 C1017 1.403 . S
C1015 C1012 1.403 . S
C1015 C1016 1.524 . S
C1015 C1019 1.400 . S
C1016 H1001 0.960 . S
C1016 H1002 0.960 . S
C1016 H1003 0.960 . S
C1016 C1015 1.524 . S
C1017 C1014 1.403 . S
C1017 C1018 1.392 . S
C1017 C1021 1.495 . S
C1018 C1017 1.392 . S
C1018 C1019 1.385 . S
C1018 C1020 1.478 . S
C1019 H1013 0.930 . S
C1019 C1015 1.400 . S
C1019 C1018 1.385 . S
C1020 C1018 1.478 . S
C1020 C1022 1.381 . S
C1020 C1026 1.383 . S
C1021 C1017 1.495 . S
C1021 H1027 0.959 . S
C1021 H1028 0.961 . S
C1021 H1029 0.960 . S
C1022 C1020 1.381 . S
C1022 C1023 1.394 . S
C1022 H1030 0.930 . S
C1023 C1022 1.394 . S
C1023 C1024 1.383 . S
C1023 H1031 0.929 . S
C1024 C1023 1.383 . S
C1024 C1025 1.377 . S
C1025 H1009 0.930 . S
C1025 C1024 1.377 . S
C1025 C1026 1.379 . S
C1026 H1010 0.931 . S
C1026 C1020 1.383 . S
C1026 C1025 1.379 . S
H1027 C1021 0.959 . S
H1028 C1021 0.961 . S
H1029 C1021 0.960 . S
H1030 C1022 0.930 . S
H1031 C1023 0.929 . S
H1032 C1040 0.929 . S
H1033 C1042 0.930 . S
H1034 C1044 0.930 . S
H1035 C1047 0.929 . S
H1036 C1050 0.930 . S
H1037 C1052 0.960 . S
H1038 C1052 0.960 . S
H1039 C1052 0.960 . S
C1040 H1032 0.929 . S
C1040 C1041 1.377 . S
C1040 C1042 1.384 . S
C1041 C1040 1.377 . S
C1041 C1047 1.390 . S
C1042 H1033 0.930 . S
C1042 C1040 1.384 . S
C1042 C1043 1.372 . S
C1043 C1042 1.372 . S
C1043 C1044 1.400 . S
C1043 C1048 1.490 . S
C1044 H1034 0.930 . S
C1044 C1043 1.400 . S
C1044 C1047 1.386 . S
H1045 C1061 0.930 . S
H1046 C1062 0.931 . S
C1047 H1035 0.929 . S
C1047 C1041 1.390 . S
C1047 C1044 1.386 . S
C1048 C1043 1.490 . S
C1048 C1050 1.395 . S
C1048 C1051 1.403 . S
H1049 C1055 0.930 . S
C1050 H1036 0.930 . S
C1050 C1048 1.395 . S
C1050 C1053 1.403 . S
C1051 C1048 1.403 . S
C1051 C1052 1.524 . S
C1051 C1055 1.400 . S
C1052 H1037 0.960 . S
C1052 H1038 0.960 . S
C1052 H1039 0.960 . S
C1052 C1051 1.524 . S
C1053 C1050 1.403 . S
C1053 C1054 1.392 . S
C1053 C1057 1.495 . S
C1054 C1053 1.392 . S
C1054 C1055 1.385 . S
C1054 C1056 1.478 . S
C1055 H1049 0.930 . S
C1055 C1051 1.400 . S
C1055 C1054 1.385 . S
C1056 C1054 1.478 . S
C1056 C1058 1.381 . S
C1056 C1062 1.383 . S
C1057 C1053 1.495 . S
C1057 H1063 0.959 . S
C1057 H1064 0.961 . S
C1057 H1065 0.960 . S
C1058 C1056 1.381 . S
C1058 C1059 1.394 . S
C1058 H1066 0.930 . S
C1059 C1058 1.394 . S
C1059 C1060 1.383 . S
C1059 H1067 0.929 . S
C1060 C1059 1.383 . S
C1060 C1061 1.377 . S
C1061 H1045 0.930 . S
C1061 C1060 1.377 . S
C1061 C1062 1.379 . S
C1062 H1046 0.931 . S
C1062 C1056 1.383 . S
C1062 C1061 1.379 . S
H1063 C1057 0.959 . S
H1064 C1057 0.961 . S
H1065 C1057 0.960 . S
H1066 C1058 0.930 . S
H1067 C1059 0.929 . S
H1068 C1076 0.929 . S
H1069 C1078 0.930 . S
H1070 C1080 0.930 . S
H1071 C1083 0.929 . S
H1072 C1086 0.930 . S
H1073 C1088 0.960 . S
H1074 C1088 0.960 . S
H1075 C1088 0.960 . S
C1076 H1068 0.929 . S
C1076 C1077 1.377 . S
C1076 C1078 1.384 . S
C1077 C1076 1.377 . S
C1077 C1083 1.390 . S
C1078 H1069 0.930 . S
C1078 C1076 1.384 . S
C1078 C1079 1.372 . S
C1079 C1078 1.372 . S
C1079 C1080 1.400 . S
C1079 C1084 1.490 . S
C1080 H1070 0.930 . S
C1080 C1079 1.400 . S
C1080 C1083 1.386 . S
H1081 C1097 0.930 . S
H1082 C1098 0.931 . S
C1083 H1071 0.929 . S
C1083 C1077 1.390 . S
C1083 C1080 1.386 . S
C1084 C1079 1.490 . S
C1084 C1086 1.395 . S
C1084 C1087 1.403 . S
H1085 C1091 0.930 . S
C1086 H1072 0.930 . S
C1086 C1084 1.395 . S
C1086 C1089 1.403 . S
C1087 C1084 1.403 . S
C1087 C1088 1.524 . S
C1087 C1091 1.400 . S
C1088 H1073 0.960 . S
C1088 H1074 0.960 . S
C1088 H1075 0.960 . S
C1088 C1087 1.524 . S
C1089 C1086 1.403 . S
C1089 C1090 1.392 . S
C1089 C1093 1.495 . S
C1090 C1089 1.392 . S
C1090 C1091 1.385 . S
C1090 C1092 1.478 . S
C1091 H1085 0.930 . S
C1091 C1087 1.400 . S
C1091 C1090 1.385 . S
C1092 C1090 1.478 . S
C1092 C1094 1.381 . S
C1092 C1098 1.383 . S
C1093 C1089 1.495 . S
C1093 H1099 0.959 . S
C1093 H1100 0.961 . S
C1093 H1101 0.960 . S
C1094 C1092 1.381 . S
C1094 C1095 1.394 . S
C1094 H1102 0.930 . S
C1095 C1094 1.394 . S
C1095 C1096 1.383 . S
C1095 H1103 0.929 . S
C1096 C1095 1.383 . S
C1096 C1097 1.377 . S
C1097 H1081 0.930 . S
C1097 C1096 1.377 . S
C1097 C1098 1.379 . S
C1098 H1082 0.931 . S
C1098 C1092 1.383 . S
C1098 C1097 1.379 . S
H1099 C1093 0.959 . S
H1100 C1093 0.961 . S
H1101 C1093 0.960 . S
H1102 C1094 0.930 . S
H1103 C1095 0.929 . S
H1104 C1112 0.929 . S
H1105 C1114 0.930 . S
H1106 C1116 0.930 . S
H1107 C1119 0.929 . S
H1108 C1122 0.930 . S
H1109 C1124 0.960 . S
H1110 C1124 0.960 . S
H1111 C1124 0.960 . S
C1112 H1104 0.929 . S
C1112 C1113 1.377 . S
C1112 C1114 1.384 . S
C1113 C1112 1.377 . S
C1113 C1119 1.390 . S
C1114 H1105 0.930 . S
C1114 C1112 1.384 . S
C1114 C1115 1.372 . S
C1115 C1114 1.372 . S
C1115 C1116 1.400 . S
C1115 C1120 1.490 . S
C1116 H1106 0.930 . S
C1116 C1115 1.400 . S
C1116 C1119 1.386 . S
H1117 C1133 0.930 . S
H1118 C1134 0.931 . S
C1119 H1107 0.929 . S
C1119 C1113 1.390 . S
C1119 C1116 1.386 . S
C1120 C1115 1.490 . S
C1120 C1122 1.395 . S
C1120 C1123 1.403 . S
H1121 C1127 0.930 . S
C1122 H1108 0.930 . S
C1122 C1120 1.395 . S
C1122 C1125 1.403 . S
C1123 C1120 1.403 . S
C1123 C1124 1.524 . S
C1123 C1127 1.400 . S
C1124 H1109 0.960 . S
C1124 H1110 0.960 . S
C1124 H1111 0.960 . S
C1124 C1123 1.524 . S
C1125 C1122 1.403 . S
C1125 C1126 1.392 . S
C1125 C1129 1.495 . S
C1126 C1125 1.392 . S
C1126 C1127 1.385 . S
C1126 C1128 1.478 . S
C1127 H1121 0.930 . S
C1127 C1123 1.400 . S
C1127 C1126 1.385 . S
C1128 C1126 1.478 . S
C1128 C1130 1.381 . S
C1128 C1134 1.383 . S
C1129 C1125 1.495 . S
C1129 H1135 0.959 . S
C1129 H1136 0.961 . S
C1129 H1137 0.960 . S
C1130 C1128 1.381 . S
C1130 C1131 1.394 . S
C1130 H1138 0.930 . S
C1131 C1130 1.394 . S
C1131 C1132 1.383 . S
C1131 H1139 0.929 . S
C1132 C1131 1.383 . S
C1132 C1133 1.377 . S
C1133 H1117 0.930 . S
C1133 C1132 1.377 . S
C1133 C1134 1.379 . S
C1134 H1118 0.931 . S
C1134 C1128 1.383 . S
C1134 C1133 1.379 . S
H1135 C1129 0.959 . S
H1136 C1129 0.961 . S
H1137 C1129 0.960 . S
H1138 C1130 0.930 . S
H1139 C1131 0.929 . S
H1140 C1148 0.929 . S
H1141 C1150 0.930 . S
H1142 C1152 0.930 . S
H1143 C1155 0.929 . S
H1144 C1158 0.930 . S
H1145 C1160 0.960 . S
H1146 C1160 0.960 . S
H1147 C1160 0.960 . S
C1148 H1140 0.929 . S
C1148 C1149 1.377 . S
C1148 C1150 1.384 . S
C1149 C1148 1.377 . S
C1149 C1155 1.390 . S
C1150 H1141 0.930 . S
C1150 C1148 1.384 . S
C1150 C1151 1.372 . S
C1151 C1150 1.372 . S
C1151 C1152 1.400 . S
C1151 C1156 1.490 . S
C1152 H1142 0.930 . S
C1152 C1151 1.400 . S
C1152 C1155 1.386 . S
H1153 C1169 0.930 . S
H1154 C1170 0.931 . S
C1155 H1143 0.929 . S
C1155 C1149 1.390 . S
C1155 C1152 1.386 . S
C1156 C1151 1.490 . S
C1156 C1158 1.395 . S
C1156 C1159 1.403 . S
H1157 C1163 0.930 . S
C1158 H1144 0.930 . S
C1158 C1156 1.395 . S
C1158 C1161 1.403 . S
C1159 C1156 1.403 . S
C1159 C1160 1.524 . S
C1159 C1163 1.400 . S
C1160 H1145 0.960 . S
C1160 H1146 0.960 . S
C1160 H1147 0.960 . S
C1160 C1159 1.524 . S
C1161 C1158 1.403 . S
C1161 C1162 1.392 . S
C1161 C1165 1.495 . S
C1162 C1161 1.392 . S
C1162 C1163 1.385 . S
C1162 C1164 1.478 . S
C1163 H1157 0.930 . S
C1163 C1159 1.400 . S
C1163 C1162 1.385 . S
C1164 C1162 1.478 . S
C1164 C1166 1.381 . S
C1164 C1170 1.383 . S
C1165 C1161 1.495 . S
C1165 H1171 0.959 . S
C1165 H1172 0.961 . S
C1165 H1173 0.960 . S
C1166 C1164 1.381 . S
C1166 C1167 1.394 . S
C1166 H1174 0.930 . S
C1167 C1166 1.394 . S
C1167 C1168 1.383 . S
C1167 H1175 0.929 . S
C1168 C1167 1.383 . S
C1168 C1169 1.377 . S
C1169 H1153 0.930 . S
C1169 C1168 1.377 . S
C1169 C1170 1.379 . S
C1170 H1154 0.931 . S
C1170 C1164 1.383 . S
C1170 C1169 1.379 . S
H1171 C1165 0.959 . S
H1172 C1165 0.961 . S
H1173 C1165 0.960 . S
H1174 C1166 0.930 . S
H1175 C1167 0.929 . S
H1176 C1184 0.929 . S
H1177 C1186 0.930 . S
H1178 C1188 0.930 . S
H1179 C1191 0.929 . S
H1180 C1194 0.930 . S
H1181 C1196 0.960 . S
H1182 C1196 0.960 . S
H1183 C1196 0.960 . S
C1184 H1176 0.929 . S
C1184 C1185 1.377 . S
C1184 C1186 1.384 . S
C1185 C1184 1.377 . S
C1185 C1191 1.390 . S
C1186 H1177 0.930 . S
C1186 C1184 1.384 . S
C1186 C1187 1.372 . S
C1187 C1186 1.372 . S
C1187 C1188 1.400 . S
C1187 C1192 1.490 . S
C1188 H1178 0.930 . S
C1188 C1187 1.400 . S
C1188 C1191 1.386 . S
H1189 C1205 0.930 . S
H1190 C1206 0.931 . S
C1191 H1179 0.929 . S
C1191 C1185 1.390 . S
C1191 C1188 1.386 . S
C1192 C1187 1.490 . S
C1192 C1194 1.395 . S
C1192 C1195 1.403 . S
H1193 C1199 0.930 . S
C1194 H1180 0.930 . S
C1194 C1192 1.395 . S
C1194 C1197 1.403 . S
C1195 C1192 1.403 . S
C1195 C1196 1.524 . S
C1195 C1199 1.400 . S
C1196 H1181 0.960 . S
C1196 H1182 0.960 . S
C1196 H1183 0.960 . S
C1196 C1195 1.524 . S
C1197 C1194 1.403 . S
C1197 C1198 1.392 . S
C1197 C1201 1.495 . S
C1198 C1197 1.392 . S
C1198 C1199 1.385 . S
C1198 C1200 1.478 . S
C1199 H1193 0.930 . S
C1199 C1195 1.400 . S
C1199 C1198 1.385 . S
C1200 C1198 1.478 . S
C1200 C1202 1.381 . S
C1200 C1206 1.383 . S
C1201 C1197 1.495 . S
C1201 H1207 0.959 . S
C1201 H1208 0.961 . S
C1201 H1209 0.960 . S
C1202 C1200 1.381 . S
C1202 C1203 1.394 . S
C1202 H1210 0.930 . S
C1203 C1202 1.394 . S
C1203 C1204 1.383 . S
C1203 H1211 0.929 . S
C1204 C1203 1.383 . S
C1204 C1205 1.377 . S
C1205 H1189 0.930 . S
C1205 C1204 1.377 . S
C1205 C1206 1.379 . S
C1206 H1190 0.931 . S
C1206 C1200 1.383 . S
C1206 C1205 1.379 . S
H1207 C1201 0.959 . S
H1208 C1201 0.961 . S
H1209 C1201 0.960 . S
H1210 C1202 0.930 . S
H1211 C1203 0.929 . S
H1212 C1220 0.929 . S
H1213 C1222 0.930 . S
H1214 C1224 0.930 . S
H1215 C1227 0.929 . S
H1216 C1230 0.930 . S
H1217 C1232 0.960 . S
H1218 C1232 0.960 . S
H1219 C1232 0.960 . S
C1220 H1212 0.929 . S
C1220 C1221 1.377 . S
C1220 C1222 1.384 . S
C1221 C1220 1.377 . S
C1221 C1227 1.390 . S
C1222 H1213 0.930 . S
C1222 C1220 1.384 . S
C1222 C1223 1.372 . S
C1223 C1222 1.372 . S
C1223 C1224 1.400 . S
C1223 C1228 1.490 . S
C1224 H1214 0.930 . S
C1224 C1223 1.400 . S
C1224 C1227 1.386 . S
H1225 C1241 0.930 . S
H1226 C1242 0.931 . S
C1227 H1215 0.929 . S
C1227 C1221 1.390 . S
C1227 C1224 1.386 . S
C1228 C1223 1.490 . S
C1228 C1230 1.395 . S
C1228 C1231 1.403 . S
H1229 C1235 0.930 . S
C1230 H1216 0.930 . S
C1230 C1228 1.395 . S
C1230 C1233 1.403 . S
C1231 C1228 1.403 . S
C1231 C1232 1.524 . S
C1231 C1235 1.400 . S
C1232 H1217 0.960 . S
C1232 H1218 0.960 . S
C1232 H1219 0.960 . S
C1232 C1231 1.524 . S
C1233 C1230 1.403 . S
C1233 C1234 1.392 . S
C1233 C1237 1.495 . S
C1234 C1233 1.392 . S
C1234 C1235 1.385 . S
C1234 C1236 1.478 . S
C1235 H1229 0.930 . S
C1235 C1231 1.400 . S
C1235 C1234 1.385 . S
C1236 C1234 1.478 . S
C1236 C1238 1.381 . S
C1236 C1242 1.383 . S
C1237 C1233 1.495 . S
C1237 H1243 0.959 . S
C1237 H1244 0.961 . S
C1237 H1245 0.960 . S
C1238 C1236 1.381 . S
C1238 C1239 1.394 . S
C1238 H1246 0.930 . S
C1239 C1238 1.394 . S
C1239 C1240 1.383 . S
C1239 H1247 0.929 . S
C1240 C1239 1.383 . S
C1240 C1241 1.377 . S
C1241 H1225 0.930 . S
C1241 C1240 1.377 . S
C1241 C1242 1.379 . S
C1242 H1226 0.931 . S
C1242 C1236 1.383 . S
C1242 C1241 1.379 . S
H1243 C1237 0.959 . S
H1244 C1237 0.961 . S
H1245 C1237 0.960 . S
H1246 C1238 0.930 . S
H1247 C1239 0.929 . S
H1248 C1256 0.929 . S
H1249 C1258 0.930 . S
H1250 C1260 0.930 . S
H1251 C1263 0.929 . S
H1252 C1266 0.930 . S
H1253 C1268 0.960 . S
H1254 C1268 0.960 . S
H1255 C1268 0.960 . S
C1256 H1248 0.929 . S
C1256 C1257 1.377 . S
C1256 C1258 1.384 . S
C1257 C1256 1.377 . S
C1257 C1263 1.390 . S
C1258 H1249 0.930 . S
C1258 C1256 1.384 . S
C1258 C1259 1.372 . S
C1259 C1258 1.372 . S
C1259 C1260 1.400 . S
C1259 C1264 1.490 . S
C1260 H1250 0.930 . S
C1260 C1259 1.400 . S
C1260 C1263 1.386 . S
H1261 C1277 0.930 . S
H1262 C1278 0.931 . S
C1263 H1251 0.929 . S
C1263 C1257 1.390 . S
C1263 C1260 1.386 . S
C1264 C1259 1.490 . S
C1264 C1266 1.395 . S
C1264 C1267 1.403 . S
H1265 C1271 0.930 . S
C1266 H1252 0.930 . S
C1266 C1264 1.395 . S
C1266 C1269 1.403 . S
C1267 C1264 1.403 . S
C1267 C1268 1.524 . S
C1267 C1271 1.400 . S
C1268 H1253 0.960 . S
C1268 H1254 0.960 . S
C1268 H1255 0.960 . S
C1268 C1267 1.524 . S
C1269 C1266 1.403 . S
C1269 C1270 1.392 . S
C1269 C1273 1.495 . S
C1270 C1269 1.392 . S
C1270 C1271 1.385 . S
C1270 C1272 1.478 . S
C1271 H1265 0.930 . S
C1271 C1267 1.400 . S
C1271 C1270 1.385 . S
C1272 C1270 1.478 . S
C1272 C1274 1.381 . S
C1272 C1278 1.383 . S
C1273 C1269 1.495 . S
C1273 H1279 0.959 . S
C1273 H1280 0.961 . S
C1273 H1281 0.960 . S
C1274 C1272 1.381 . S
C1274 C1275 1.394 . S
C1274 H1282 0.930 . S
C1275 C1274 1.394 . S
C1275 C1276 1.383 . S
C1275 H1283 0.929 . S
C1276 C1275 1.383 . S
C1276 C1277 1.377 . S
C1277 H1261 0.930 . S
C1277 C1276 1.377 . S
C1277 C1278 1.379 . S
C1278 H1262 0.931 . S
C1278 C1272 1.383 . S
C1278 C1277 1.379 . S
H1279 C1273 0.959 . S
H1280 C1273 0.961 . S
H1281 C1273 0.960 . S
H1282 C1274 0.930 . S
H1283 C1275 0.929 . S
H1284 C1292 0.929 . S
H1285 C1294 0.930 . S
H1286 C1296 0.930 . S
H1287 C1299 0.929 . S
H1288 C1302 0.930 . S
H1289 C1304 0.960 . S
H1290 C1304 0.960 . S
H1291 C1304 0.960 . S
C1292 H1284 0.929 . S
C1292 C1293 1.377 . S
C1292 C1294 1.384 . S
C1293 C1292 1.377 . S
C1293 C1299 1.390 . S
C1294 H1285 0.930 . S
C1294 C1292 1.384 . S
C1294 C1295 1.372 . S
C1295 C1294 1.372 . S
C1295 C1296 1.400 . S
C1295 C1300 1.490 . S
C1296 H1286 0.930 . S
C1296 C1295 1.400 . S
C1296 C1299 1.386 . S
H1297 C1313 0.930 . S
H1298 C1314 0.931 . S
C1299 H1287 0.929 . S
C1299 C1293 1.390 . S
C1299 C1296 1.386 . S
C1300 C1295 1.490 . S
C1300 C1302 1.395 . S
C1300 C1303 1.403 . S
H1301 C1307 0.930 . S
C1302 H1288 0.930 . S
C1302 C1300 1.395 . S
C1302 C1305 1.403 . S
C1303 C1300 1.403 . S
C1303 C1304 1.524 . S
C1303 C1307 1.400 . S
C1304 H1289 0.960 . S
C1304 H1290 0.960 . S
C1304 H1291 0.960 . S
C1304 C1303 1.524 . S
C1305 C1302 1.403 . S
C1305 C1306 1.392 . S
C1305 C1309 1.495 . S
C1306 C1305 1.392 . S
C1306 C1307 1.385 . S
C1306 C1308 1.478 . S
C1307 H1301 0.930 . S
C1307 C1303 1.400 . S
C1307 C1306 1.385 . S
C1308 C1306 1.478 . S
C1308 C1310 1.381 . S
C1308 C1314 1.383 . S
C1309 C1305 1.495 . S
C1309 H1315 0.959 . S
C1309 H1316 0.961 . S
C1309 H1317 0.960 . S
C1310 C1308 1.381 . S
C1310 C1311 1.394 . S
C1310 H1318 0.930 . S
C1311 C1310 1.394 . S
C1311 C1312 1.383 . S
C1311 H1319 0.929 . S
C1312 C1311 1.383 . S
C1312 C1313 1.377 . S
C1313 H1297 0.930 . S
C1313 C1312 1.377 . S
C1313 C1314 1.379 . S
C1314 H1298 0.931 . S
C1314 C1308 1.383 . S
C1314 C1313 1.379 . S
H1315 C1309 0.959 . S
H1316 C1309 0.961 . S
H1317 C1309 0.960 . S
H1318 C1310 0.930 . S
H1319 C1311 0.929 . S
H1320 C1328 0.929 . S
H1321 C1330 0.930 . S
H1322 C1332 0.930 . S
H1323 C1335 0.929 . S
H1324 C1338 0.930 . S
H1325 C1340 0.960 . S
H1326 C1340 0.960 . S
H1327 C1340 0.960 . S
C1328 H1320 0.929 . S
C1328 C1329 1.377 . S
C1328 C1330 1.384 . S
C1329 C1328 1.377 . S
C1329 C1335 1.390 . S
C1330 H1321 0.930 . S
C1330 C1328 1.384 . S
C1330 C1331 1.372 . S
C1331 C1330 1.372 . S
C1331 C1332 1.400 . S
C1331 C1336 1.490 . S
C1332 H1322 0.930 . S
C1332 C1331 1.400 . S
C1332 C1335 1.386 . S
H1333 C1349 0.930 . S
H1334 C1350 0.931 . S
C1335 H1323 0.929 . S
C1335 C1329 1.390 . S
C1335 C1332 1.386 . S
C1336 C1331 1.490 . S
C1336 C1338 1.395 . S
C1336 C1339 1.403 . S
H1337 C1343 0.930 . S
C1338 H1324 0.930 . S
C1338 C1336 1.395 . S
C1338 C1341 1.403 . S
C1339 C1336 1.403 . S
C1339 C1340 1.524 . S
C1339 C1343 1.400 . S
C1340 H1325 0.960 . S
C1340 H1326 0.960 . S
C1340 H1327 0.960 . S
C1340 C1339 1.524 . S
C1341 C1338 1.403 . S
C1341 C1342 1.392 . S
C1341 C1345 1.495 . S
C1342 C1341 1.392 . S
C1342 C1343 1.385 . S
C1342 C1344 1.478 . S
C1343 H1337 0.930 . S
C1343 C1339 1.400 . S
C1343 C1342 1.385 . S
C1344 C1342 1.478 . S
C1344 C1346 1.381 . S
C1344 C1350 1.383 . S
C1345 C1341 1.495 . S
C1345 H1351 0.959 . S
C1345 H1352 0.961 . S
C1345 H1353 0.960 . S
C1346 C1344 1.381 . S
C1346 C1347 1.394 . S
C1346 H1354 0.930 . S
C1347 C1346 1.394 . S
C1347 C1348 1.383 . S
C1347 H1355 0.929 . S
C1348 C1347 1.383 . S
C1348 C1349 1.377 . S
C1349 H1333 0.930 . S
C1349 C1348 1.377 . S
C1349 C1350 1.379 . S
C1350 H1334 0.931 . S
C1350 C1344 1.383 . S
C1350 C1349 1.379 . S
H1351 C1345 0.959 . S
H1352 C1345 0.961 . S
H1353 C1345 0.960 . S
H1354 C1346 0.930 . S
H1355 C1347 0.929 . S
H1356 C1364 0.929 . S
H1357 C1366 0.930 . S
H1358 C1368 0.930 . S
H1359 C1371 0.929 . S
H1360 C1374 0.930 . S
H1361 C1376 0.960 1_565 S
H1362 C1376 0.960 . S
H1363 C1376 0.960 . S
C1364 H1356 0.929 . S
C1364 C1365 1.377 . S
C1364 C1366 1.384 . S
C1365 C1364 1.377 . S
C1365 C1371 1.390 . S
C1366 H1357 0.930 . S
C1366 C1364 1.384 . S
C1366 C1367 1.372 . S
C1367 C1366 1.372 . S
C1367 C1368 1.400 . S
C1367 C1372 1.490 . S
C1368 H1358 0.930 . S
C1368 C1367 1.400 . S
C1368 C1371 1.386 . S
H1369 C1385 0.930 . S
H1370 C1386 0.931 . S
C1371 H1359 0.929 . S
C1371 C1365 1.390 . S
C1371 C1368 1.386 . S
C1372 C1367 1.490 . S
C1372 C1374 1.395 1_455 S
C1372 C1375 1.403 . S
H1373 C1379 0.930 . S
C1374 H1360 0.930 . S
C1374 C1372 1.395 1_655 S
C1374 C1377 1.405 . S
C1375 C1372 1.403 . S
C1375 C1376 1.524 . S
C1375 C1379 1.400 1_545 S
C1376 H1361 0.960 1_545 S
C1376 H1362 0.960 . S
C1376 H1363 0.960 . S
C1376 C1375 1.524 . S
C1377 C1374 1.405 . S
C1377 C1378 1.391 1_545 S
C1377 C1381 1.495 . S
C1378 C1377 1.391 1_565 S
C1378 C1379 1.385 1_655 S
C1378 C1380 1.478 . S
C1379 H1373 0.930 . S
C1379 C1375 1.400 1_565 S
C1379 C1378 1.385 1_455 S
C1380 C1378 1.478 . S
C1380 C1382 1.381 . S
C1380 C1386 1.383 . S
C1381 C1377 1.495 . S
C1381 H1387 0.982 . S
C1381 H1388 0.956 1_545 S
C1381 H1389 0.943 1_545 S
C1382 C1380 1.381 . S
C1382 C1383 1.394 . S
C1382 H1390 0.930 . S
C1383 C1382 1.394 . S
C1383 C1384 1.383 . S
C1383 H1391 0.929 . S
C1384 C1383 1.383 . S
C1384 C1385 1.377 . S
C1385 H1369 0.930 . S
C1385 C1384 1.377 . S
C1385 C1386 1.379 . S
C1386 H1370 0.931 . S
C1386 C1380 1.383 . S
C1386 C1385 1.379 . S
H1387 C1381 0.982 . S
H1388 C1381 0.956 1_565 S
H1389 C1381 0.943 1_565 S
H1390 C1382 0.930 . S
H1391 C1383 0.929 . S
H1392 C1400 0.929 . S
H1393 C1402 0.930 . S
H1394 C1404 0.930 1_455 S
H1395 C1407 0.929 . S
H1396 C1410 0.930 . S
H1397 C1412 0.960 . S
H1398 C1412 0.960 1_655 S
H1399 C1412 0.960 . S
C1400 H1392 0.929 . S
C1400 C1401 1.377 . S
C1400 C1402 1.384 . S
C1401 C1400 1.377 . S
C1401 C1407 1.390 . S
C1402 H1393 0.930 . S
C1402 C1400 1.384 . S
C1402 C1403 1.372 . S
C1403 C1402 1.372 . S
C1403 C1404 1.400 . S
C1403 C1408 1.490 . S
C1404 H1394 0.930 1_655 S
C1404 C1403 1.400 . S
C1404 C1407 1.386 . S
H1405 C1421 0.930 . S
H1406 C1422 0.931 . S
C1407 H1395 0.929 . S
C1407 C1401 1.390 . S
C1407 C1404 1.386 . S
C1408 C1403 1.490 . S
C1408 C1410 1.395 . S
C1408 C1411 1.403 1_655 S
H1409 C1415 0.930 . S
C1410 H1396 0.930 . S
C1410 C1408 1.395 . S
C1410 C1413 1.403 1_545 S
C1411 C1408 1.403 1_455 S
C1411 C1412 1.524 . S
C1411 C1415 1.400 1_545 S
C1412 H1397 0.960 . S
C1412 H1398 0.960 1_455 S
C1412 H1399 0.960 . S
C1412 C1411 1.524 . S
C1413 C1410 1.403 1_565 S
C1413 C1414 1.392 1_655 S
C1413 C1417 1.495 . S
C1414 C1413 1.392 1_455 S
C1414 C1415 1.385 . S
C1414 C1416 1.478 . S
C1415 H1409 0.930 . S
C1415 C1411 1.400 1_565 S
C1415 C1414 1.385 . S
C1416 C1414 1.478 . S
C1416 C1418 1.381 . S
C1416 C1422 1.383 . S
C1417 C1413 1.495 . S
C1417 H1423 0.959 . S
C1417 H1424 0.961 . S
C1417 H1425 0.960 . S
C1418 C1416 1.381 . S
C1418 C1419 1.394 . S
C1418 H1426 0.930 1_455 S
C1419 C1418 1.394 . S
C1419 C1420 1.383 . S
C1419 H1427 0.929 . S
C1420 C1419 1.383 . S
C1420 C1421 1.377 . S
C1421 H1405 0.930 . S
C1421 C1420 1.377 . S
C1421 C1422 1.379 . S
C1422 H1406 0.931 . S
C1422 C1416 1.383 . S
C1422 C1421 1.379 . S
H1423 C1417 0.959 . S
H1424 C1417 0.961 . S
H1425 C1417 0.960 . S
H1426 C1418 0.930 1_655 S
H1427 C1419 0.929 . S
H1428 C1436 0.929 . S
H1429 C1438 0.930 . S
H1430 C1440 0.930 . S
H1431 C1443 0.929 . S
H1432 C1446 0.930 . S
H1433 C1448 0.960 1_545 S
H1434 C1448 0.960 1_545 S
H1435 C1448 0.960 . S
C1436 H1428 0.929 . S
C1436 C1437 1.377 . S
C1436 C1438 1.384 . S
C1437 C1436 1.377 . S
C1437 C1443 1.390 . S
C1438 H1429 0.930 . S
C1438 C1436 1.384 . S
C1438 C1439 1.372 . S
C1439 C1438 1.372 . S
C1439 C1440 1.400 . S
C1439 C1444 1.490 . S
C1440 H1430 0.930 . S
C1440 C1439 1.400 . S
C1440 C1443 1.386 . S
H1441 C1457 0.930 . S
H1442 C1458 0.931 . S
C1443 H1431 0.929 . S
C1443 C1437 1.390 . S
C1443 C1440 1.386 . S
C1444 C1439 1.490 . S
C1444 C1446 1.395 . S
C1444 C1447 1.412 . S
H1445 C1451 0.930 . S
C1446 H1432 0.930 . S
C1446 C1444 1.395 . S
C1446 C1449 1.403 1_566 S
C1447 C1444 1.412 . S
C1447 C1448 1.524 . S
C1447 C1451 1.390 1_566 S
C1448 H1433 0.960 1_565 S
C1448 H1434 0.960 1_565 S
C1448 H1435 0.960 . S
C1448 C1447 1.524 . S
C1449 C1446 1.403 1_544 S
C1449 C1450 1.392 . S
C1449 C1453 1.495 . S
C1450 C1449 1.392 . S
C1450 C1451 1.385 . S
C1450 C1452 1.478 . S
C1451 H1445 0.930 . S
C1451 C1447 1.390 1_544 S
C1451 C1450 1.385 . S
C1452 C1450 1.478 . S
C1452 C1454 1.381 . S
C1452 C1458 1.383 . S
C1453 C1449 1.495 . S
C1453 H1459 0.959 1_545 S
C1453 H1460 0.961 1_545 S
C1453 H1461 0.960 . S
C1454 C1452 1.381 . S
C1454 C1455 1.394 . S
C1454 H1462 0.930 . S
C1455 C1454 1.394 . S
C1455 C1456 1.383 . S
C1455 H1463 0.929 . S
C1456 C1455 1.383 . S
C1456 C1457 1.377 . S
C1457 H1441 0.930 . S
C1457 C1456 1.377 . S
C1457 C1458 1.379 . S
C1458 H1442 0.931 . S
C1458 C1452 1.383 . S
C1458 C1457 1.379 . S
H1459 C1453 0.959 1_565 S
H1460 C1453 0.961 1_565 S
H1461 C1453 0.960 . S
H1462 C1454 0.930 . S
H1463 C1455 0.929 . S
H1464 C1472 0.929 . S
H1465 C1474 0.930 . S
H1466 C1476 0.946 . S
H1467 C1479 0.929 . S
H1468 C1482 0.930 . S
H1469 C1484 0.960 . S
H1470 C1484 0.960 . S
H1471 C1484 0.960 . S
C1472 H1464 0.929 . S
C1472 C1473 1.377 . S
C1472 C1474 1.384 . S
C1473 C1472 1.377 . S
C1473 C1479 1.390 . S
C1474 H1465 0.930 . S
C1474 C1472 1.384 . S
C1474 C1475 1.372 . S
C1475 C1474 1.372 . S
C1475 C1476 1.400 . S
C1475 C1480 1.490 . S
C1476 H1466 0.946 . S
C1476 C1475 1.400 . S
C1476 C1479 1.386 . S
H1477 C1493 0.930 . S
H1478 C1494 0.931 . S
C1479 H1467 0.929 . S
C1479 C1473 1.390 . S
C1479 C1476 1.386 . S
C1480 C1475 1.490 . S
C1480 C1482 1.395 . S
C1480 C1483 1.403 . S
H1481 C1487 0.930 . S
C1482 H1468 0.930 . S
C1482 C1480 1.395 . S
C1482 C1485 1.403 1_564 S
C1483 C1480 1.403 . S
C1483 C1484 1.524 . S
C1483 C1487 1.400 1_564 S
C1484 H1469 0.960 . S
C1484 H1470 0.960 . S
C1484 H1471 0.960 . S
C1484 C1483 1.524 . S
C1485 C1482 1.403 1_546 S
C1485 C1486 1.392 . S
C1485 C1489 1.495 . S
C1486 C1485 1.392 . S
C1486 C1487 1.385 . S
C1486 C1488 1.478 . S
C1487 H1481 0.930 . S
C1487 C1483 1.400 1_546 S
C1487 C1486 1.385 . S
C1488 C1486 1.478 . S
C1488 C1490 1.381 . S
C1488 C1494 1.383 . S
C1489 C1485 1.495 . S
C1489 H1495 0.959 . S
C1489 H1496 0.961 . S
C1489 H1497 0.960 . S
C1490 C1488 1.381 . S
C1490 C1491 1.394 . S
C1490 H1498 0.930 1_545 S
C1491 C1490 1.394 . S
C1491 C1492 1.383 . S
C1491 H1499 0.929 . S
C1492 C1491 1.383 . S
C1492 C1493 1.377 . S
C1493 H1477 0.930 . S
C1493 C1492 1.377 . S
C1493 C1494 1.379 . S
C1494 H1478 0.931 . S
C1494 C1488 1.383 . S
C1494 C1493 1.379 . S
H1495 C1489 0.959 . S
H1496 C1489 0.961 . S
H1497 C1489 0.960 . S
H1498 C1490 0.930 1_565 S
H1499 C1491 0.929 . S
H1500 C1508 0.929 . S
H1501 C1510 0.930 . S
H1502 C1512 0.930 . S
H1503 C1515 0.929 . S
H1504 C1518 0.930 . S
H1505 C1520 0.960 . S
H1506 C1520 0.960 1_655 S
H1507 C1520 0.960 1_655 S
C1508 H1500 0.929 . S
C1508 C1509 1.377 . S
C1508 C1510 1.384 . S
C1509 C1508 1.377 . S
C1509 C1515 1.390 . S
C1510 H1501 0.930 . S
C1510 C1508 1.384 . S
C1510 C1511 1.372 . S
C1511 C1510 1.372 . S
C1511 C1512 1.400 . S
C1511 C1516 1.490 . S
C1512 H1502 0.930 . S
C1512 C1511 1.400 . S
C1512 C1515 1.386 . S
H1513 C1529 0.930 . S
H1514 C1530 0.931 . S
C1515 H1503 0.929 . S
C1515 C1509 1.390 . S
C1515 C1512 1.386 . S
C1516 C1511 1.490 . S
C1516 C1518 1.395 1_556 S
C1516 C1519 1.405 . S
H1517 C1523 0.930 . S
C1518 H1504 0.930 . S
C1518 C1516 1.395 1_554 S
C1518 C1521 1.403 . S
C1519 C1516 1.405 . S
C1519 C1520 1.523 1_655 S
C1519 C1523 1.398 1_655 S
C1520 H1505 0.960 . S
C1520 H1506 0.960 1_455 S
C1520 H1507 0.960 1_455 S
C1520 C1519 1.523 1_455 S
C1521 C1518 1.403 . S
C1521 C1522 1.392 1_655 S
C1521 C1525 1.495 . S
C1522 C1521 1.392 1_455 S
C1522 C1523 1.385 1_554 S
C1522 C1524 1.478 . S
C1523 H1517 0.930 . S
C1523 C1519 1.398 1_455 S
C1523 C1522 1.385 1_556 S
C1524 C1522 1.478 . S
C1524 C1526 1.381 . S
C1524 C1530 1.383 . S
C1525 C1521 1.495 . S
C1525 H1531 0.959 . S
C1525 H1532 0.961 1_655 S
C1525 H1533 0.960 1_655 S
C1526 C1524 1.381 . S
C1526 C1527 1.394 . S
C1526 H1534 0.930 . S
C1527 C1526 1.394 . S
C1527 C1528 1.383 . S
C1527 H1535 0.929 . S
C1528 C1527 1.383 . S
C1528 C1529 1.377 . S
C1529 H1513 0.930 . S
C1529 C1528 1.377 . S
C1529 C1530 1.379 . S
C1530 H1514 0.931 . S
C1530 C1524 1.383 . S
C1530 C1529 1.379 . S
H1531 C1525 0.959 . S
H1532 C1525 0.961 1_455 S
H1533 C1525 0.960 1_455 S
H1534 C1526 0.930 . S
H1535 C1527 0.929 . S
H1536 C1544 0.929 . S
H1537 C1546 0.930 . S
H1538 C1548 0.930 . S
H1539 C1551 0.929 . S
H1540 C1554 0.930 . S
H1541 C1556 0.960 . S
H1542 C1556 0.960 . S
H1543 C1556 0.960 . S
C1544 H1536 0.929 . S
C1544 C1545 1.377 . S
C1544 C1546 1.384 . S
C1545 C1544 1.377 . S
C1545 C1551 1.390 . S
C1546 H1537 0.930 . S
C1546 C1544 1.384 . S
C1546 C1547 1.372 . S
C1547 C1546 1.372 . S
C1547 C1548 1.400 . S
C1547 C1552 1.490 . S
C1548 H1538 0.930 . S
C1548 C1547 1.400 . S
C1548 C1551 1.386 . S
H1549 C1565 0.930 . S
H1550 C1566 0.931 . S
C1551 H1539 0.929 . S
C1551 C1545 1.390 . S
C1551 C1548 1.386 . S
C1552 C1547 1.490 . S
C1552 C1554 1.395 . S
C1552 C1555 1.403 1_556 S
H1553 C1559 0.930 . S
C1554 H1540 0.930 . S
C1554 C1552 1.395 . S
C1554 C1557 1.403 1_455 S
C1555 C1552 1.403 1_554 S
C1555 C1556 1.524 . S
C1555 C1559 1.400 1_455 S
C1556 H1541 0.960 . S
C1556 H1542 0.960 . S
C1556 H1543 0.960 . S
C1556 C1555 1.524 . S
C1557 C1554 1.403 1_655 S
C1557 C1558 1.392 1_556 S
C1557 C1561 1.495 . S
C1558 C1557 1.392 1_554 S
C1558 C1559 1.385 . S
C1558 C1560 1.478 . S
C1559 H1553 0.930 . S
C1559 C1555 1.400 1_655 S
C1559 C1558 1.385 . S
C1560 C1558 1.478 . S
C1560 C1562 1.381 . S
C1560 C1566 1.383 . S
C1561 C1557 1.495 . S
C1561 H1567 0.959 . S
C1561 H1568 0.961 . S
C1561 H1569 0.960 . S
C1562 C1560 1.381 . S
C1562 C1563 1.394 . S
C1562 H1570 0.930 . S
C1563 C1562 1.394 . S
C1563 C1564 1.383 . S
C1563 H1571 0.929 . S
C1564 C1563 1.383 . S
C1564 C1565 1.377 . S
C1565 H1549 0.930 . S
C1565 C1564 1.377 . S
C1565 C1566 1.379 . S
C1566 H1550 0.931 . S
C1566 C1560 1.383 . S
C1566 C1565 1.379 . S
H1567 C1561 0.959 . S
H1568 C1561 0.961 . S
H1569 C1561 0.960 . S
H1570 C1562 0.930 . S
H1571 C1563 0.929 . S
C717 C182 0.706 . S
C736 C5 0.687 . S
C753 C123 0.702 . S
C772 C64 0.705 . S
C789 C300 0.708 . S
C808 C241 0.675 . S
C825 C359 0.699 . S
C844 C418 0.721 . S
C861 C536 0.711 . S
C880 C477 0.664 . S
C897 C595 0.709 . S
C916 C654 0.670 . S
C933 C52 1.047 . S
C952 C446 0.993 . S
C969 C387 1.022 . S
C988 C111 1.038 . S
C1005 C328 1.012 . S
C1024 C170 1.051 . S
C1041 C269 1.011 . S
C1060 C229 1.053 . S
C1077 C288 1.047 . S
C1096 C682 0.990 . S
C1113 C505 1.016 . S
C1132 C347 1.049 . S
C1149 C623 1.026 . S
C1168 C406 1.035 . S
C1185 C465 1.044 . S
C1204 C564 1.035 . S
C1221 C151 1.026 . S
C1240 C524 1.034 . S
C1257 C33 1.022 . S
C1276 C583 1.037 . S
C1293 C642 1.045 . S
C1312 C92 1.017 . S
C1329 C210 1.026 . S
C1348 C701 1.033 . S
C1365 C3 1.229 . S
C1384 C62 1.218 . S
C1401 C180 1.231 . S
C1420 C121 1.227 . S
C1437 C357 1.232 . S
C1456 C239 1.237 . S
C1473 C298 1.230 . S
C1492 C416 1.221 . S
C1509 C593 1.229 . S
C1528 C475 1.220 . S
C1545 C534 1.233 . S
C1564 C652 1.238 . S
