# Generated by pormake.
# Topology wfs, (7)-cn, num edge types: 1
# Building blocks:
#     Node 0, Type 0, BuildingBlock: HICVOG_clean_sbu_0, # of connection points: 7
#     Node 1, Type 0, BuildingBlock: HICVOG_clean_sbu_0, # of connection points: 7
#     Node 2, Type 0, BuildingBlock: HICVOG_clean_sbu_0, # of connection points: 7
#     Node 3, Type 0, BuildingBlock: HICVOG_clean_sbu_0, # of connection points: 7
#     Node 4, Type 0, BuildingBlock: HICVOG_clean_sbu_0, # of connection points: 7
#     Node 5, Type 0, BuildingBlock: HICVOG_clean_sbu_0, # of connection points: 7
#     Node 6, Type 0, BuildingBlock: HICVOG_clean_sbu_0, # of connection points: 7
#     Node 7, Type 0, BuildingBlock: HICVOG_clean_sbu_0, # of connection points: 7
#     Edge 8, Type (0, 0), BuildingBlock: UVAHIK_clean_linker_0, # of connection points: 2
#     Edge 9, Type (0, 0), BuildingBlock: UVAHIK_clean_linker_0, # of connection points: 2
#     Edge 10, Type (0, 0), BuildingBlock: UVAHIK_clean_linker_0, # of connection points: 2
#     Edge 11, Type (0, 0), BuildingBlock: UVAHIK_clean_linker_0, # of connection points: 2
#     Edge 12, Type (0, 0), BuildingBlock: UVAHIK_clean_linker_0, # of connection points: 2
#     Edge 13, Type (0, 0), BuildingBlock: UVAHIK_clean_linker_0, # of connection points: 2
#     Edge 14, Type (0, 0), BuildingBlock: UVAHIK_clean_linker_0, # of connection points: 2
#     Edge 15, Type (0, 0), BuildingBlock: UVAHIK_clean_linker_0, # of connection points: 2
#     Edge 16, Type (0, 0), BuildingBlock: UVAHIK_clean_linker_0, # of connection points: 2
#     Edge 17, Type (0, 0), BuildingBlock: UVAHIK_clean_linker_0, # of connection points: 2
#     Edge 18, Type (0, 0), BuildingBlock: UVAHIK_clean_linker_0, # of connection points: 2
#     Edge 19, Type (0, 0), BuildingBlock: UVAHIK_clean_linker_0, # of connection points: 2
#     Edge 20, Type (0, 0), BuildingBlock: UVAHIK_clean_linker_0, # of connection points: 2
#     Edge 21, Type (0, 0), BuildingBlock: UVAHIK_clean_linker_0, # of connection points: 2
#     Edge 22, Type (0, 0), BuildingBlock: UVAHIK_clean_linker_0, # of connection points: 2
#     Edge 23, Type (0, 0), BuildingBlock: UVAHIK_clean_linker_0, # of connection points: 2
#     Edge 24, Type (0, 0), BuildingBlock: UVAHIK_clean_linker_0, # of connection points: 2
#     Edge 25, Type (0, 0), BuildingBlock: UVAHIK_clean_linker_0, # of connection points: 2
#     Edge 26, Type (0, 0), BuildingBlock: UVAHIK_clean_linker_0, # of connection points: 2
#     Edge 27, Type (0, 0), BuildingBlock: UVAHIK_clean_linker_0, # of connection points: 2
#     Edge 28, Type (0, 0), BuildingBlock: UVAHIK_clean_linker_0, # of connection points: 2
#     Edge 29, Type (0, 0), BuildingBlock: UVAHIK_clean_linker_0, # of connection points: 2
#     Edge 30, Type (0, 0), BuildingBlock: UVAHIK_clean_linker_0, # of connection points: 2
#     Edge 31, Type (0, 0), BuildingBlock: UVAHIK_clean_linker_0, # of connection points: 2
#     Edge 32, Type (0, 0), BuildingBlock: UVAHIK_clean_linker_0, # of connection points: 2
#     Edge 33, Type (0, 0), BuildingBlock: UVAHIK_clean_linker_0, # of connection points: 2
#     Edge 34, Type (0, 0), BuildingBlock: UVAHIK_clean_linker_0, # of connection points: 2
#     Edge 35, Type (0, 0), BuildingBlock: UVAHIK_clean_linker_0, # of connection points: 2
# Relax obj value: 0.509
# Max RMSD: 0.315
# Mean RMSD: 0.315
data_MOF--net-wfs--node1-HICVOG_clean_sbu_0--edge1-UVAHIK_clean_linker_0
_symmetry_space_group_name_H-M    P1
_symmetry_Int_Tables_number       1
_symmetry_cell_setting            triclinic
loop_
_symmetry_equiv_pos_as_xyz
'x, y, z'
_cell_length_a     38.677134
_cell_length_b     37.562079
_cell_length_c     40.338475
_cell_angle_alpha  89.979329
_cell_angle_beta   90.045055
_cell_angle_gamma 90.007277
loop_
_atom_site_label
_atom_site_type_symbol
_atom_site_fract_x
_atom_site_fract_y
_atom_site_fract_z
_atom_type_partial_charge
Zn0 Zn 0.18135 0.16421 0.20476 0.0
C1 C 0.18989 0.26795 0.22836 0.0
N2 N 0.22373 0.26031 0.2311 0.0
C3 C 0.22462 0.22562 0.2231 0.0
N4 N 0.19298 0.21251 0.21632 0.0
N5 N 0.1709 0.23917 0.21975 0.0
C6 C 0.11197 0.25511 0.14893 0.0
O7 O 0.14545 0.25021 0.14591 0.0
O8 O 0.21924 0.12835 0.21415 0.0
Zn9 Zn 0.12059 0.23618 0.22075 0.0
N10 N 0.171 0.16091 0.15838 0.0
C11 C 0.13195 0.1645 0.1131 0.0
C12 C 0.13921 0.16949 0.14661 0.0
C13 C 0.19546 0.14648 0.13843 0.0
N14 N 0.15638 0.14984 0.09314 0.0
C15 C 0.1881 0.14021 0.10487 0.0
O16 O 0.10045 0.18747 0.23417 0.0
C17 C 0.11058 0.15532 0.23744 0.0
O18 O 0.1406 0.14562 0.22863 0.0
H19 H 0.11969 0.17977 0.16321 0.0
H20 H 0.21992 0.13918 0.14919 0.0
C21 C 0.08016 0.29192 0.24928 0.0
C22 C 0.0698 0.31546 0.27448 0.0
C23 C 0.11316 0.29143 0.30967 0.0
C24 C 0.12273 0.26762 0.28483 0.0
N25 N 0.10626 0.26862 0.25508 0.0
N26 N 0.08672 0.31445 0.30409 0.0
H27 H 0.06688 0.29092 0.22571 0.0
C28 C 0.23287 0.12099 0.24201 0.0
O29 O 0.22363 0.13913 0.2684 0.0
O30 O 0.09782 0.25126 0.17719 0.0
H31 H 0.14344 0.24878 0.28899 0.0
H32 H 0.10684 0.17139 0.10316 0.0
H33 H 0.12623 0.29125 0.33338 0.0
Zn34 Zn 0.12159 0.7708 0.78378 0.0
C35 C 0.2262 0.77503 0.78688 0.0
N36 N 0.22424 0.74067 0.77794 0.0
C37 C 0.1899 0.7348 0.77838 0.0
N38 N 0.17171 0.76431 0.78672 0.0
N39 N 0.19495 0.78953 0.7921 0.0
C40 C 0.23889 0.87883 0.76607 0.0
O41 O 0.22838 0.86127 0.73977 0.0
O42 O 0.09414 0.75268 0.82369 0.0
Zn43 Zn 0.18832 0.83721 0.80809 0.0
N44 N 0.10765 0.74703 0.7438 0.0
C45 C 0.11587 0.7411 0.68564 0.0
C46 C 0.1255 0.75578 0.71596 0.0
C47 C 0.08016 0.72457 0.74262 0.0
N48 N 0.08795 0.7193 0.68422 0.0
C49 C 0.06969 0.71056 0.7119 0.0
O50 O 0.14514 0.86062 0.79319 0.0
C51 C 0.11534 0.85396 0.78166 0.0
O52 O 0.10508 0.8221 0.77714 0.0
H53 H 0.14709 0.77402 0.71744 0.0
H54 H 0.06562 0.71938 0.76502 0.0
C55 C 0.20501 0.86423 0.87072 0.0
C56 C 0.21057 0.86335 0.905 0.0
C57 C 0.18488 0.806 0.90709 0.0
C58 C 0.17958 0.80707 0.87289 0.0
N59 N 0.18986 0.83611 0.8555 0.0
N60 N 0.20041 0.83404 0.92234 0.0
H61 H 0.21371 0.88648 0.8559 0.0
C62 C 0.10446 0.73678 0.84974 0.0
O63 O 0.13707 0.72763 0.85241 0.0
O64 O 0.22617 0.87147 0.79428 0.0
H65 H 0.16827 0.78477 0.86011 0.0
H66 H 0.12995 0.74762 0.66329 0.0
H67 H 0.17709 0.78296 0.92134 0.0
Zn68 Zn 0.81089 0.84468 0.18894 0.0
C69 C 0.80632 0.74299 0.22042 0.0
N70 N 0.77261 0.75076 0.2245 0.0
C71 C 0.771 0.78465 0.21401 0.0
N72 N 0.80201 0.7972 0.20455 0.0
N73 N 0.82454 0.77105 0.20866 0.0
C74 C 0.88298 0.74924 0.1373 0.0
O75 O 0.84909 0.74823 0.13529 0.0
O76 O 0.77295 0.87949 0.20091 0.0
Zn77 Zn 0.87487 0.77503 0.20781 0.0
N78 N 0.81389 0.84461 0.14154 0.0
C79 C 0.8426 0.83026 0.09125 0.0
C80 C 0.84145 0.83006 0.12583 0.0
C81 C 0.7882 0.86087 0.12434 0.0
N82 N 0.81695 0.84667 0.07399 0.0
C83 C 0.78986 0.86251 0.08971 0.0
O84 O 0.89365 0.82494 0.21867 0.0
C85 C 0.8836 0.85729 0.21781 0.0
O86 O 0.85374 0.86566 0.20739 0.0
H87 H 0.86235 0.81883 0.14015 0.0
H88 H 0.76697 0.87297 0.13761 0.0
C89 C 0.91803 0.72232 0.23893 0.0
C90 C 0.93031 0.70214 0.26599 0.0
C91 C 0.88644 0.72772 0.29979 0.0
C92 C 0.8756 0.7487 0.27336 0.0
N93 N 0.89133 0.7453 0.24345 0.0
N94 N 0.91362 0.70537 0.2956 0.0
H95 H 0.92939 0.72044 0.21458 0.0
C96 C 0.76493 0.89091 0.22953 0.0
O97 O 0.7813 0.87848 0.25563 0.0
O98 O 0.8972 0.75883 0.16435 0.0
H99 H 0.85447 0.76728 0.27643 0.0
H100 H 0.86415 0.81836 0.07826 0.0
H101 H 0.87386 0.72966 0.32366 0.0
Zn102 Zn 0.87619 0.23543 0.79186 0.0
C103 C 0.77259 0.22322 0.78879 0.0
N104 N 0.7726 0.2583 0.78252 0.0
C105 C 0.80616 0.26682 0.78676 0.0
N106 N 0.82581 0.23806 0.7942 0.0
N107 N 0.80425 0.21079 0.79573 0.0
C108 C 0.77246 0.11411 0.76434 0.0
O109 O 0.7946 0.12224 0.74085 0.0
O110 O 0.90005 0.25231 0.83424 0.0
Zn111 Zn 0.81368 0.16236 0.80673 0.0
N112 N 0.8891 0.26598 0.75537 0.0
C113 C 0.87605 0.28848 0.70175 0.0
C114 C 0.86845 0.26596 0.72811 0.0
C115 C 0.91805 0.28641 0.75679 0.0
N116 N 0.90494 0.30889 0.70307 0.0
C117 C 0.92667 0.30848 0.72969 0.0
O118 O 0.85681 0.14376 0.7871 0.0
C119 C 0.88688 0.15363 0.7786 0.0
O120 O 0.89632 0.18614 0.78041 0.0
H121 H 0.84589 0.24898 0.72715 0.0
H122 H 0.93431 0.28417 0.77842 0.0
C123 C 0.78869 0.14323 0.86919 0.0
C124 C 0.79075 0.13378 0.90275 0.0
C125 C 0.84773 0.15751 0.90459 0.0
C126 C 0.84623 0.1646 0.87069 0.0
N127 N 0.81662 0.15755 0.85386 0.0
N128 N 0.82028 0.14177 0.91967 0.0
H129 H 0.76565 0.13806 0.85485 0.0
C130 C 0.88641 0.25305 0.86293 0.0
O131 O 0.85361 0.24478 0.86627 0.0
O132 O 0.77527 0.12894 0.79252 0.0
H133 H 0.86851 0.17506 0.85776 0.0
H134 H 0.85948 0.28934 0.68015 0.0
H135 H 0.871 0.16309 0.91854 0.0
Zn136 Zn 0.61795 0.72831 0.72022 0.0
C137 C 0.72276 0.72384 0.72177 0.0
N138 N 0.72012 0.75868 0.72875 0.0
C139 C 0.68581 0.76409 0.72717 0.0
N140 N 0.6682 0.73397 0.71981 0.0
N141 N 0.69174 0.7086 0.71643 0.0
C142 C 0.73515 0.61994 0.74493 0.0
O143 O 0.72488 0.63921 0.77024 0.0
O144 O 0.59305 0.74538 0.67843 0.0
Zn145 Zn 0.68424 0.65994 0.70291 0.0
N146 N 0.60173 0.75543 0.75739 0.0
C147 C 0.60292 0.76563 0.81544 0.0
C148 C 0.6147 0.74725 0.78772 0.0
C149 C 0.57706 0.78079 0.7535 0.0
N150 N 0.57753 0.79024 0.81179 0.0
C151 C 0.56368 0.79827 0.7816 0.0
O152 O 0.64155 0.6381 0.72071 0.0
C153 C 0.61097 0.64588 0.72936 0.0
O154 O 0.60015 0.67791 0.72918 0.0
H155 H 0.63431 0.72687 0.79016 0.0
H156 H 0.56788 0.78642 0.72879 0.0
C157 C 0.70083 0.63523 0.63849 0.0
C158 C 0.69981 0.63506 0.60377 0.0
C159 C 0.65959 0.68277 0.60503 0.0
C160 C 0.66034 0.68233 0.6396 0.0
N161 N 0.68128 0.65896 0.6555 0.0
N162 N 0.67933 0.65917 0.5879 0.0
H163 H 0.71737 0.6171 0.652 0.0
C164 C 0.60421 0.76061 0.65236 0.0
O165 O 0.63723 0.76824 0.64981 0.0
O166 O 0.72224 0.62563 0.71642 0.0
H167 H 0.6446 0.70032 0.65383 0.0
H168 H 0.61327 0.75985 0.83977 0.0
H169 H 0.6433 0.7015 0.59193 0.0
Zn170 Zn 0.6266 0.27739 0.28403 0.0
C171 C 0.72832 0.28528 0.26539 0.0
N172 N 0.72402 0.25261 0.25246 0.0
C173 C 0.69116 0.24517 0.26104 0.0
N174 N 0.67609 0.27208 0.27785 0.0
N175 N 0.69979 0.2972 0.28074 0.0
C176 C 0.7367 0.3896 0.26443 0.0
O177 O 0.71874 0.37687 0.23945 0.0
O178 O 0.6077 0.25355 0.32574 0.0
Zn179 Zn 0.6964 0.33991 0.30624 0.0
N180 N 0.60699 0.25702 0.24447 0.0
C181 C 0.61012 0.25456 0.18564 0.0
C182 C 0.62209 0.26774 0.21573 0.0
C183 C 0.57986 0.23401 0.24442 0.0
N184 N 0.58269 0.23214 0.18541 0.0
C185 C 0.567 0.22145 0.21394 0.0
O186 O 0.65142 0.3652 0.3007 0.0
C187 C 0.62043 0.35982 0.29155 0.0
O188 O 0.60956 0.32877 0.28426 0.0
H189 H 0.64347 0.28629 0.21629 0.0
H190 H 0.56772 0.22691 0.26765 0.0
C191 C 0.72001 0.35397 0.37033 0.0
C192 C 0.73108 0.34638 0.40269 0.0
C193 C 0.71125 0.28695 0.3962 0.0
C194 C 0.70126 0.29448 0.3637 0.0
N195 N 0.70557 0.32796 0.35164 0.0
N196 N 0.72593 0.31298 0.41491 0.0
H197 H 0.72266 0.38028 0.35978 0.0
C198 C 0.60818 0.27164 0.35244 0.0
O199 O 0.6229 0.30315 0.35217 0.0
O200 O 0.73198 0.37702 0.29332 0.0
H201 H 0.69045 0.27381 0.34817 0.0
H202 H 0.62208 0.26261 0.16259 0.0
H203 H 0.70773 0.26054 0.40637 0.0
Zn204 Zn 0.30942 0.33226 0.68656 0.0
C205 C 0.30509 0.23248 0.72315 0.0
N206 N 0.27147 0.241 0.72693 0.0
C207 C 0.27034 0.27436 0.71511 0.0
N208 N 0.30144 0.28594 0.70511 0.0
N209 N 0.3237 0.25971 0.71007 0.0
C210 C 0.38855 0.23344 0.63783 0.0
O211 O 0.35808 0.2181 0.6362 0.0
O212 O 0.27306 0.3682 0.70064 0.0
Zn213 Zn 0.37415 0.26408 0.70805 0.0
N214 N 0.3058 0.32881 0.63928 0.0
C215 C 0.31142 0.29655 0.58897 0.0
C216 C 0.31829 0.30019 0.62275 0.0
C217 C 0.2867 0.354 0.62366 0.0
N218 N 0.29168 0.32141 0.5734 0.0
C219 C 0.27862 0.35005 0.58994 0.0
O220 O 0.39209 0.31413 0.71817 0.0
C221 C 0.38299 0.34634 0.71332 0.0
O222 O 0.35384 0.35411 0.70076 0.0
H223 H 0.33275 0.28026 0.63597 0.0
H224 H 0.27788 0.37666 0.63774 0.0
C225 C 0.42025 0.21353 0.73886 0.0
C226 C 0.43236 0.19244 0.76534 0.0
C227 C 0.38681 0.2146 0.79903 0.0
C228 C 0.37565 0.23611 0.77307 0.0
N229 N 0.39212 0.23462 0.74335 0.0
N230 N 0.41495 0.1936 0.79467 0.0
H231 H 0.43346 0.21437 0.71527 0.0
C232 C 0.2676 0.38015 0.72964 0.0
O233 O 0.28552 0.36732 0.75462 0.0
O234 O 0.39699 0.25105 0.66362 0.0
H235 H 0.35363 0.25351 0.77633 0.0
H236 H 0.32124 0.27391 0.57535 0.0
H237 H 0.3736 0.21501 0.82265 0.0
Zn238 Zn 0.37249 0.73774 0.29635 0.0
C239 C 0.269 0.72419 0.28844 0.0
N240 N 0.26963 0.7583 0.27854 0.0
C241 C 0.30303 0.76715 0.28306 0.0
N242 N 0.32204 0.7395 0.29455 0.0
N243 N 0.30034 0.71245 0.2979 0.0
C244 C 0.26441 0.62029 0.26934 0.0
O245 O 0.27653 0.63797 0.24375 0.0
O246 O 0.39376 0.75537 0.33972 0.0
Zn247 Zn 0.31038 0.66478 0.31275 0.0
N248 N 0.38874 0.76686 0.26016 0.0
C249 C 0.38339 0.78396 0.20372 0.0
C250 C 0.37239 0.76362 0.2305 0.0
C251 C 0.41626 0.78894 0.26403 0.0
N252 N 0.41136 0.80539 0.20728 0.0
C253 C 0.42871 0.80837 0.23658 0.0
O254 O 0.35513 0.6459 0.29658 0.0
C255 C 0.38521 0.6559 0.28822 0.0
O256 O 0.39368 0.68869 0.28788 0.0
H257 H 0.35075 0.7456 0.22787 0.0
H258 H 0.42817 0.79054 0.28816 0.0
C259 C 0.28698 0.64409 0.37606 0.0
C260 C 0.28742 0.64172 0.4107 0.0
C261 C 0.33565 0.68078 0.41196 0.0
C262 C 0.3359 0.68174 0.37737 0.0
N263 N 0.31113 0.664 0.36025 0.0
N264 N 0.31161 0.66062 0.42783 0.0
H265 H 0.26791 0.62981 0.36166 0.0
C266 C 0.37968 0.76456 0.36693 0.0
O267 O 0.3458 0.76495 0.36928 0.0
O268 O 0.27469 0.62826 0.29835 0.0
H269 H 0.35577 0.696 0.36414 0.0
H270 H 0.37033 0.78215 0.18006 0.0
H271 H 0.35495 0.69512 0.42605 0.0
C272 C 0.25986 0.06611 0.21827 0.0
C273 C 0.25633 0.08993 0.24491 0.0
C274 C 0.27813 0.0343 0.22208 0.0
C275 C 0.30416 0.97166 0.28837 0.0
H276 H 0.34246 0.92002 0.21372 0.0
C277 C 0.33613 0.82237 0.29793 0.0
C278 C 0.31584 0.8032 0.27528 0.0
C279 C 0.34125 0.85904 0.29367 0.0
C280 C 0.33226 0.93429 0.2349 0.0
H281 H 0.27171 0.10039 0.29565 0.0
H282 H 0.30457 0.04533 0.30208 0.0
H283 H 0.32908 0.98326 0.208 0.0
H284 H 0.28738 0.80635 0.22915 0.0
H285 H 0.29711 0.86989 0.22114 0.0
H286 H 0.30684 0.92239 0.31498 0.0
C287 C 0.29216 0.05061 0.27852 0.0
C288 C 0.32426 0.97046 0.23159 0.0
C289 C 0.27347 0.08231 0.27481 0.0
C290 C 0.3031 0.8206 0.247 0.0
C291 C 0.30884 0.85692 0.24233 0.0
C292 C 0.31268 0.93566 0.2918 0.0
C293 C 0.29384 0.0256 0.25253 0.0
C294 C 0.30873 0.9893 0.25786 0.0
C295 C 0.32674 0.87683 0.26629 0.0
C296 C 0.32557 0.91629 0.26473 0.0
H297 H 0.24714 0.0712 0.19479 0.0
H298 H 0.2783 0.01576 0.20155 0.0
H299 H 0.29193 0.9849 0.30911 0.0
H300 H 0.34601 0.80965 0.31996 0.0
H301 H 0.35523 0.87378 0.31247 0.0
C302 C 0.01465 0.69971 0.68212 0.0
C303 C 0.03675 0.69108 0.70845 0.0
C304 C 0.98107 0.68637 0.68116 0.0
C305 C 0.91509 0.65354 0.73983 0.0
H306 H 0.85956 0.66242 0.66032 0.0
C307 C 0.76485 0.6831 0.69405 0.0
C308 C 0.75617 0.70538 0.72059 0.0
C309 C 0.79734 0.6668 0.69281 0.0
C310 C 0.87435 0.65886 0.68286 0.0
H311 H 0.04267 0.65869 0.75252 0.0
H312 H 0.9844 0.6338 0.75011 0.0
H313 H 0.92144 0.65537 0.65557 0.0
H314 H 0.77456 0.72964 0.76587 0.0
H315 H 0.83176 0.7036 0.76289 0.0
H316 H 0.86787 0.65551 0.76706 0.0
C317 C 0.99229 0.65228 0.73097 0.0
C318 C 0.91018 0.6555 0.68013 0.0
C319 C 0.02575 0.66639 0.73234 0.0
C320 C 0.78057 0.71197 0.74544 0.0
C321 C 0.81322 0.69644 0.74393 0.0
C322 C 0.87919 0.65567 0.74252 0.0
C323 C 0.96895 0.66333 0.70615 0.0
C324 C 0.93122 0.65547 0.70862 0.0
C325 C 0.82223 0.67372 0.71751 0.0
C326 C 0.85857 0.66102 0.71421 0.0
H327 H 0.02247 0.71876 0.66339 0.0
H328 H 0.96412 0.69624 0.6619 0.0
H329 H 0.93003 0.65317 0.76251 0.0
H330 H 0.74673 0.67869 0.67409 0.0
H331 H 0.80305 0.64936 0.67218 0.0
C332 C 0.66869 0.18758 0.28222 0.0
C333 C 0.67591 0.20988 0.25525 0.0
C334 C 0.66537 0.15078 0.27749 0.0
C335 C 0.69622 0.08407 0.21631 0.0
H336 H 0.6567 0.01686 0.27862 0.0
C337 C 0.72522 0.93587 0.20401 0.0
C338 C 0.74056 0.92123 0.23256 0.0
C339 C 0.7071 0.96798 0.20572 0.0
C340 C 0.66769 0.03538 0.26093 0.0
H341 H 0.6816 0.21249 0.20204 0.0
H342 H 0.67251 0.14907 0.19318 0.0
H343 H 0.6409 0.07988 0.282 0.0
H344 H 0.74606 0.92715 0.28578 0.0
H345 H 0.71433 0.98338 0.2887 0.0
H346 H 0.72305 0.03978 0.1954 0.0
C347 C 0.67148 0.15915 0.21829 0.0
C348 C 0.65881 0.07155 0.26292 0.0
C349 C 0.67608 0.19564 0.22319 0.0
C350 C 0.73487 0.9379 0.26328 0.0
C351 C 0.71652 0.97001 0.26501 0.0
C352 C 0.70452 0.04805 0.214 0.0
C353 C 0.66848 0.13584 0.24554 0.0
C354 C 0.67355 0.0966 0.24103 0.0
C355 C 0.70364 0.98605 0.23603 0.0
C356 C 0.69094 0.02338 0.23663 0.0
H357 H 0.66891 0.19809 0.30724 0.0
H358 H 0.66315 0.13403 0.29921 0.0
H359 H 0.70911 0.1022 0.19953 0.0
H360 H 0.72858 0.92345 0.17999 0.0
H361 H 0.69702 0.97948 0.18305 0.0
C362 C 0.97183 0.3401 0.69635 0.0
C363 C 0.96022 0.32793 0.72746 0.0
C364 C 0.00572 0.35198 0.69216 0.0
C365 C 0.08877 0.37026 0.73676 0.0
H366 H 0.12737 0.31592 0.66395 0.0
C367 C 0.21886 0.29985 0.74267 0.0
C368 C 0.23854 0.29544 0.71386 0.0
C369 C 0.18747 0.31804 0.74146 0.0
C370 C 0.11721 0.33214 0.68389 0.0
H371 H 0.97434 0.3247 0.7797 0.0
H372 H 0.0335 0.34319 0.77194 0.0
H373 H 0.06552 0.32428 0.66727 0.0
H374 H 0.24144 0.30604 0.66126 0.0
H375 H 0.18639 0.33825 0.65894 0.0
H376 H 0.1408 0.37594 0.75437 0.0
C377 C 0.01643 0.34338 0.75065 0.0
C378 C 0.08156 0.337 0.68582 0.0
C379 C 0.98239 0.33186 0.75495 0.0
C380 C 0.22679 0.30978 0.68383 0.0
C381 C 0.19532 0.32801 0.68254 0.0
C382 C 0.12455 0.3653 0.73485 0.0
C383 C 0.02895 0.35187 0.7189 0.0
C384 C 0.06677 0.35473 0.71305 0.0
C385 C 0.17499 0.33169 0.71125 0.0
C386 C 0.13892 0.34478 0.70918 0.0
H387 H 0.95546 0.33854 0.6746 0.0
H388 H 0.01426 0.35936 0.66753 0.0
H389 H 0.07824 0.38469 0.75768 0.0
H390 H 0.22754 0.28872 0.76603 0.0
H391 H 0.17216 0.31976 0.76386 0.0
C392 C 0.26627 0.93356 0.78955 0.0
C393 C 0.26244 0.90981 0.76289 0.0
C394 C 0.28445 0.96538 0.78568 0.0
C395 C 0.31029 0.02817 0.7193 0.0
H396 H 0.34607 0.08067 0.79465 0.0
C397 C 0.34151 0.17833 0.7118 0.0
C398 C 0.31805 0.19668 0.73208 0.0
C399 C 0.34716 0.14178 0.71635 0.0
C400 C 0.33668 0.06613 0.77328 0.0
H401 H 0.27735 0.89941 0.71205 0.0
H402 H 0.31029 0.95448 0.70553 0.0
H403 H 0.33423 0.01709 0.80006 0.0
H404 H 0.28468 0.19216 0.77498 0.0
H405 H 0.2955 0.12889 0.78373 0.0
H406 H 0.31255 0.07758 0.69277 0.0
C407 C 0.29805 0.94919 0.72915 0.0
C408 C 0.32947 0.02977 0.77639 0.0
C409 C 0.27932 0.91747 0.7329 0.0
C410 C 0.30275 0.17862 0.7588 0.0
C411 C 0.30907 0.14245 0.76392 0.0
C412 C 0.3182 0.06435 0.71602 0.0
C413 C 0.29993 0.97418 0.75517 0.0
C414 C 0.31462 0.01061 0.7499 0.0
C415 C 0.33018 0.12337 0.74193 0.0
C416 C 0.33014 0.08394 0.74335 0.0
H417 H 0.25375 0.92849 0.8131 0.0
H418 H 0.28467 0.98384 0.80626 0.0
H419 H 0.29861 0.01474 0.69836 0.0
H420 H 0.35399 0.1917 0.69148 0.0
H421 H 0.36373 0.12764 0.69918 0.0
C422 C 0.22545 0.6844 0.31504 0.0
C423 C 0.23764 0.70237 0.28695 0.0
C424 C 0.19421 0.66566 0.31371 0.0
C425 C 0.11626 0.65899 0.31071 0.0
H426 H 0.07846 0.62313 0.22813 0.0
C427 C 0.98709 0.68497 0.23907 0.0
C428 C 0.96252 0.68034 0.26449 0.0
C429 C 0.02 0.67003 0.24179 0.0
C430 C 0.08874 0.63249 0.25155 0.0
H431 H 0.22741 0.71542 0.23567 0.0
H432 H 0.17253 0.68389 0.23338 0.0
H433 H 0.14106 0.62897 0.23457 0.0
H434 H 0.95272 0.65294 0.31105 0.0
H435 H 0.01054 0.62786 0.31599 0.0
H436 H 0.06404 0.66419 0.32711 0.0
C437 C 0.18734 0.68282 0.25614 0.0
C438 C 0.12451 0.63602 0.25521 0.0
C439 C 0.2185 0.70136 0.25752 0.0
C440 C 0.971 0.65777 0.29122 0.0
C441 C 0.0041 0.64318 0.29408 0.0
C442 C 0.08058 0.65509 0.30718 0.0
C443 C 0.17445 0.66525 0.28437 0.0
C444 C 0.13848 0.65139 0.28408 0.0
C445 C 0.02933 0.65042 0.27005 0.0
C446 C 0.0664 0.64374 0.2769 0.0
H447 H 0.23961 0.68566 0.33814 0.0
H448 H 0.18506 0.65241 0.33587 0.0
H449 H 0.12599 0.67103 0.33325 0.0
H450 H 0.98233 0.70209 0.21806 0.0
H451 H 0.03901 0.67641 0.223 0.0
C452 C 0.72728 0.07254 0.78652 0.0
C453 C 0.74727 0.08474 0.75967 0.0
C454 C 0.70778 0.04132 0.78377 0.0
C455 C 0.67229 0.97446 0.72537 0.0
H456 H 0.6988 0.9067 0.79321 0.0
C457 C 0.67203 0.82327 0.70389 0.0
C458 C 0.67118 0.79998 0.73102 0.0
C459 C 0.6695 0.86006 0.7086 0.0
C460 C 0.69007 0.92524 0.77445 0.0
H461 H 0.75997 0.0754 0.70806 0.0
H462 H 0.72572 0.02105 0.70323 0.0
H463 H 0.71553 0.9685 0.79878 0.0
H464 H 0.66727 0.79678 0.78435 0.0
H465 H 0.65965 0.86052 0.79262 0.0
H466 H 0.64712 0.93108 0.70078 0.0
C467 C 0.72535 0.03551 0.72645 0.0
C468 C 0.69992 0.96085 0.77763 0.0
C469 C 0.74515 0.06656 0.72929 0.0
C470 C 0.66612 0.81396 0.76284 0.0
C471 C 0.66277 0.8507 0.76758 0.0
C472 C 0.66191 0.93884 0.7224 0.0
C473 C 0.70743 0.02189 0.754 0.0
C474 C 0.69203 0.98565 0.7527 0.0
C475 C 0.66623 0.87444 0.7407 0.0
C476 C 0.67159 0.91344 0.74641 0.0
H477 H 0.7279 0.08617 0.81017 0.0
H478 H 0.69387 0.0317 0.80528 0.0
H479 H 0.66553 0.9931 0.70592 0.0
H480 H 0.67782 0.81333 0.67933 0.0
H481 H 0.67302 0.87715 0.68726 0.0
C482 C 0.77408 0.31355 0.23167 0.0
C483 C 0.76071 0.30513 0.26293 0.0
C484 C 0.80553 0.33147 0.22895 0.0
C485 C 0.87507 0.37651 0.27818 0.0
H486 H 0.93425 0.3308 0.21345 0.0
C487 C 0.01652 0.34237 0.2984 0.0
C488 C 0.03823 0.33742 0.27088 0.0
C489 C 0.98294 0.35512 0.29413 0.0
C490 C 0.91809 0.34478 0.23108 0.0
H491 H 0.76888 0.30834 0.31586 0.0
H492 H 0.8249 0.33802 0.31136 0.0
H493 H 0.87282 0.32016 0.21185 0.0
H494 H 0.04387 0.34761 0.21817 0.0
H495 H 0.98503 0.36954 0.21069 0.0
H496 H 0.92134 0.39888 0.29885 0.0
C497 C 0.81066 0.33231 0.28886 0.0
C498 C 0.88263 0.33861 0.23019 0.0
C499 C 0.77886 0.31493 0.29154 0.0
C500 C 0.02724 0.3497 0.23967 0.0
C501 C 0.99365 0.36253 0.23541 0.0
C502 C 0.91077 0.38245 0.27924 0.0
C503 C 0.82469 0.34022 0.25748 0.0
C504 C 0.86084 0.35317 0.25455 0.0
C505 C 0.97055 0.36336 0.26228 0.0
C506 C 0.93275 0.36543 0.25648 0.0
H507 H 0.76013 0.30632 0.20936 0.0
H508 H 0.81522 0.33769 0.20445 0.0
H509 H 0.85886 0.38884 0.29681 0.0
H510 H 0.02435 0.33355 0.32285 0.0
H511 H 0.96582 0.35535 0.31536 0.0
C512 C 0.76493 0.5655 0.72347 0.0
C513 C 0.75879 0.58925 0.74974 0.0
C514 C 0.78335 0.53403 0.72868 0.0
C515 C 0.80489 0.47143 0.79642 0.0
H516 H 0.85004 0.42131 0.72443 0.0
C517 C 0.83808 0.32159 0.80492 0.0
C518 C 0.81882 0.30328 0.78087 0.0
C519 C 0.84313 0.35848 0.80207 0.0
C520 C 0.83799 0.43519 0.74494 0.0
H521 H 0.76956 0.59979 0.80155 0.0
H522 H 0.80263 0.54523 0.8105 0.0
H523 H 0.83652 0.48448 0.71844 0.0
H524 H 0.79179 0.30813 0.73409 0.0
H525 H 0.80179 0.3719 0.72837 0.0
H526 H 0.80586 0.42172 0.82253 0.0
C527 C 0.79223 0.5504 0.78604 0.0
C528 C 0.82987 0.47129 0.74144 0.0
C529 C 0.77342 0.58183 0.78089 0.0
C530 C 0.80683 0.32174 0.7529 0.0
C531 C 0.8127 0.35817 0.74956 0.0
C532 C 0.81355 0.43547 0.8001 0.0
C533 C 0.79661 0.52554 0.76023 0.0
C534 C 0.81177 0.48953 0.76654 0.0
C535 C 0.82975 0.37719 0.77467 0.0
C536 C 0.82888 0.41666 0.77388 0.0
H537 H 0.7542 0.57039 0.69907 0.0
H538 H 0.78559 0.51556 0.7082 0.0
H539 H 0.79072 0.48423 0.81624 0.0
H540 H 0.84707 0.30797 0.82693 0.0
H541 H 0.85625 0.37261 0.82181 0.0
C542 C 0.2799 0.20864 0.24952 0.0
C543 C 0.25687 0.20514 0.22299 0.0
C544 C 0.31216 0.19219 0.24848 0.0
C545 C 0.37944 0.15399 0.24593 0.0
H546 H 0.42211 0.1576 0.15929 0.0
C547 C 0.52545 0.17525 0.23562 0.0
C548 C 0.53456 0.20084 0.21178 0.0
C549 C 0.49286 0.15902 0.23461 0.0
C550 C 0.41073 0.15671 0.18378 0.0
H551 H 0.24938 0.18316 0.17428 0.0
H552 H 0.30429 0.15119 0.17328 0.0
H553 H 0.36023 0.16173 0.16369 0.0
H554 H 0.51758 0.22828 0.16741 0.0
H555 H 0.46088 0.20206 0.16656 0.0
H556 H 0.43031 0.15383 0.26616 0.0
C557 C 0.29816 0.16714 0.1948 0.0
C558 C 0.37481 0.15832 0.18634 0.0
C559 C 0.26629 0.18468 0.19551 0.0
C560 C 0.51134 0.20856 0.18609 0.0
C561 C 0.47872 0.19303 0.18544 0.0
C562 C 0.41545 0.15389 0.24343 0.0
C563 C 0.3221 0.1715 0.22089 0.0
C564 C 0.35872 0.15932 0.21763 0.0
C565 C 0.46857 0.16864 0.21011 0.0
C566 C 0.43157 0.15763 0.21237 0.0
H567 H 0.27332 0.22497 0.27073 0.0
H568 H 0.3298 0.19747 0.2687 0.0
H569 H 0.36808 0.15253 0.2704 0.0
H570 H 0.54325 0.16818 0.25529 0.0
H571 H 0.48643 0.13977 0.25359 0.0
C572 C 0.17357 0.68654 0.73935 0.0
C573 C 0.17576 0.69908 0.772 0.0
C574 C 0.17064 0.65006 0.73291 0.0
C575 C 0.16441 0.55993 0.77392 0.0
H576 H 0.22383 0.53281 0.70083 0.0
C577 C 0.24038 0.42709 0.76555 0.0
C578 C 0.24449 0.41131 0.7342 0.0
C579 C 0.22267 0.45942 0.76891 0.0
C580 C 0.20664 0.53978 0.721 0.0
H581 H 0.17791 0.68332 0.82346 0.0
H582 H 0.17361 0.6199 0.81263 0.0
H583 H 0.20868 0.5948 0.70838 0.0
H584 H 0.23084 0.41583 0.68213 0.0
H585 H 0.20034 0.47228 0.68803 0.0
H586 H 0.16448 0.50462 0.78747 0.0
C587 C 0.17207 0.638 0.7918 0.0
C588 C 0.19771 0.57551 0.7253 0.0
C589 C 0.17424 0.67455 0.79815 0.0
C590 C 0.22861 0.42745 0.70662 0.0
C591 C 0.21116 0.45986 0.70995 0.0
C592 C 0.17378 0.52413 0.76983 0.0
C593 C 0.1716 0.6251 0.759 0.0
C594 C 0.17694 0.58631 0.75215 0.0
C595 C 0.20886 0.47673 0.74096 0.0
C596 C 0.19546 0.51377 0.74359 0.0
H597 H 0.17659 0.70466 0.7187 0.0
H598 H 0.16973 0.6414 0.70734 0.0
H599 H 0.14791 0.56698 0.79456 0.0
H600 H 0.25206 0.41526 0.78734 0.0
H601 H 0.22146 0.4718 0.79313 0.0
C602 C 0.47088 0.8501 0.20976 0.0
C603 C 0.46171 0.82899 0.2373 0.0
C604 C 0.50441 0.86347 0.20642 0.0
C605 C 0.58906 0.87429 0.24877 0.0
H606 H 0.62595 0.83218 0.16852 0.0
C607 C 0.7204 0.80768 0.24459 0.0
C608 C 0.73906 0.80555 0.21497 0.0
C609 C 0.68873 0.82532 0.24551 0.0
C610 C 0.61632 0.84516 0.19062 0.0
H611 H 0.48092 0.80872 0.28459 0.0
H612 H 0.53836 0.83229 0.27876 0.0
H613 H 0.56403 0.83936 0.17452 0.0
H614 H 0.73977 0.81941 0.16301 0.0
H615 H 0.68444 0.85127 0.16449 0.0
H616 H 0.64143 0.87865 0.26545 0.0
C617 C 0.51953 0.8384 0.25969 0.0
C618 C 0.58067 0.84926 0.19407 0.0
C619 C 0.48618 0.82466 0.26291 0.0
C620 C 0.72593 0.82154 0.18623 0.0
C621 C 0.69423 0.83945 0.18711 0.0
C622 C 0.62481 0.87059 0.24517 0.0
C623 C 0.52941 0.8565 0.23076 0.0
C624 C 0.56662 0.8621 0.22386 0.0
C625 C 0.67492 0.84094 0.21667 0.0
C626 C 0.63869 0.85409 0.21683 0.0
H627 H 0.45276 0.85472 0.18974 0.0
H628 H 0.51128 0.87768 0.184 0.0
H629 H 0.57887 0.88475 0.2718 0.0
H630 H 0.73007 0.79512 0.26694 0.0
H631 H 0.67432 0.82508 0.26851 0.0
C632 C 0.77214 0.4297 0.2281 0.0
C633 C 0.75985 0.42057 0.25971 0.0
C634 C 0.79076 0.46126 0.22327 0.0
C635 C 0.83021 0.53913 0.26899 0.0
H636 H 0.80443 0.58987 0.18902 0.0
C637 C 0.80869 0.68982 0.25678 0.0
C638 C 0.82003 0.70726 0.228 0.0
C639 C 0.81446 0.65342 0.26102 0.0
C640 C 0.81254 0.57582 0.21116 0.0
H641 H 0.75889 0.43639 0.31137 0.0
H642 H 0.78948 0.49193 0.30289 0.0
H643 H 0.78885 0.52763 0.19499 0.0
H644 H 0.84777 0.70087 0.18191 0.0
H645 H 0.85681 0.63663 0.18864 0.0
H646 H 0.85116 0.58883 0.28606 0.0
C647 C 0.7859 0.47458 0.28176 0.0
C648 C 0.80368 0.53993 0.21465 0.0
C649 C 0.76797 0.44272 0.28665 0.0
C650 C 0.83907 0.68813 0.20439 0.0
C651 C 0.8441 0.6514 0.2082 0.0
C652 C 0.8384 0.57528 0.26574 0.0
C653 C 0.79688 0.48484 0.24984 0.0
C654 C 0.81144 0.52126 0.24404 0.0
C655 C 0.83084 0.63356 0.23609 0.0
C656 C 0.82886 0.59415 0.23713 0.0
H657 H 0.76683 0.41277 0.20697 0.0
H658 H 0.7996 0.46752 0.1985 0.0
H659 H 0.8376 0.52559 0.2916 0.0
H660 H 0.79385 0.70406 0.2753 0.0
H661 H 0.80373 0.64033 0.28263 0.0
C662 C 0.48476 0.16707 0.79262 0.0
C663 C 0.46549 0.17256 0.76348 0.0
C664 C 0.51864 0.15453 0.79106 0.0
C665 C 0.59027 0.16361 0.73466 0.0
H666 H 0.64035 0.11621 0.80535 0.0
C667 C 0.73336 0.19146 0.75065 0.0
C668 C 0.74243 0.20065 0.78313 0.0
C669 C 0.70277 0.17296 0.74446 0.0
C670 C 0.62674 0.1294 0.78533 0.0
H671 H 0.4652 0.16393 0.71018 0.0
H672 H 0.52465 0.1427 0.7075 0.0
H673 H 0.57768 0.10879 0.80092 0.0
H674 H 0.7283 0.19698 0.83481 0.0
H675 H 0.67376 0.16604 0.82415 0.0
H676 H 0.63835 0.18639 0.72037 0.0
C677 C 0.5137 0.14909 0.73148 0.0
C678 C 0.59092 0.12502 0.78272 0.0
C679 C 0.47971 0.16164 0.73302 0.0
C680 C 0.72147 0.19002 0.80958 0.0
C681 C 0.69054 0.17195 0.8034 0.0
C682 C 0.62589 0.16815 0.73738 0.0
C683 C 0.53402 0.14699 0.76033 0.0
C684 C 0.57215 0.14339 0.75821 0.0
C685 C 0.68028 0.16423 0.77063 0.0
C686 C 0.64436 0.1524 0.76361 0.0
H687 H 0.47461 0.17477 0.81658 0.0
H688 H 0.53356 0.15346 0.81377 0.0
H689 H 0.57665 0.17851 0.71573 0.0
H690 H 0.74962 0.19924 0.73002 0.0
H691 H 0.69607 0.16675 0.71904 0.0
C692 C 0.23439 0.56614 0.29116 0.0
C693 C 0.24095 0.58945 0.26464 0.0
C694 C 0.21568 0.53478 0.28622 0.0
C695 C 0.19346 0.4717 0.219 0.0
H696 H 0.14724 0.42298 0.29124 0.0
C697 C 0.15823 0.32284 0.21039 0.0
C698 C 0.17672 0.3041 0.23472 0.0
C699 C 0.15348 0.35974 0.21341 0.0
C700 C 0.15962 0.43646 0.27068 0.0
H701 H 0.23057 0.59948 0.21268 0.0
H702 H 0.19697 0.54518 0.20418 0.0
H703 H 0.16198 0.48591 0.29684 0.0
H704 H 0.20261 0.30818 0.28213 0.0
H705 H 0.19321 0.37205 0.28807 0.0
H706 H 0.19157 0.42188 0.1932 0.0
C707 C 0.20733 0.5505 0.22862 0.0
C708 C 0.16843 0.47243 0.27395 0.0
C709 C 0.22648 0.58176 0.23349 0.0
C710 C 0.18809 0.32213 0.26315 0.0
C711 C 0.18258 0.35863 0.26659 0.0
C712 C 0.18413 0.4359 0.21555 0.0
C713 C 0.2025 0.52603 0.25471 0.0
C714 C 0.18686 0.49016 0.24873 0.0
C715 C 0.16652 0.37809 0.24115 0.0
C716 C 0.16836 0.41756 0.24185 0.0
H717 H 0.24499 0.57128 0.31556 0.0
H718 H 0.2131 0.51663 0.30692 0.0
H719 H 0.20788 0.48407 0.19911 0.0
H720 H 0.14971 0.30955 0.18805 0.0
H721 H 0.14104 0.37417 0.19344 0.0
C722 C 0.26874 0.81195 0.81813 0.0
C723 C 0.25884 0.79464 0.78885 0.0
C724 C 0.29992 0.83074 0.81949 0.0
C725 C 0.37803 0.83918 0.82118 0.0
H726 H 0.41829 0.88194 0.74265 0.0
C727 C 0.5095 0.82037 0.75314 0.0
C728 C 0.53264 0.82172 0.78011 0.0
C729 C 0.47681 0.83579 0.75547 0.0
C730 C 0.4073 0.87065 0.765 0.0
H731 H 0.27322 0.7825 0.73833 0.0
H732 H 0.32806 0.81443 0.74072 0.0
H733 H 0.35578 0.87284 0.7456 0.0
H734 H 0.54053 0.84424 0.82915 0.0
H735 H 0.48305 0.87037 0.83329 0.0
H736 H 0.4295 0.83478 0.83975 0.0
C737 C 0.31148 0.81472 0.76235 0.0
C738 C 0.3716 0.8653 0.76664 0.0
C739 C 0.28044 0.79594 0.76107 0.0
C740 C 0.52327 0.84195 0.80811 0.0
C741 C 0.49037 0.85711 0.81051 0.0
C742 C 0.41365 0.84467 0.81961 0.0
C743 C 0.32173 0.83213 0.79163 0.0
C744 C 0.35696 0.84748 0.79389 0.0
C745 C 0.46625 0.85264 0.78483 0.0
C746 C 0.42884 0.85845 0.79067 0.0
H747 H 0.25267 0.81052 0.84 0.0
H748 H 0.3072 0.84369 0.84244 0.0
H749 H 0.3676 0.82536 0.84252 0.0
H750 H 0.51498 0.80511 0.73109 0.0
H751 H 0.45875 0.83152 0.73532 0.0
C752 C 0.05027 0.131 0.24426 0.0
C753 C 0.0862 0.1269 0.2478 0.0
C754 C 0.02818 0.1016 0.24782 0.0
C755 C 0.03092 0.00414 0.23843 0.0
H756 H 0.9388 0.00695 0.27596 0.0
C757 C 0.94177 0.88026 0.23679 0.0
C758 C 0.90715 0.88664 0.22797 0.0
C759 C 0.96395 0.90872 0.2443 0.0
C760 C 0.9644 0.00576 0.26519 0.0
H761 H 0.12679 0.08938 0.26058 0.0
H762 H 0.08843 0.03865 0.26722 0.0
H763 H 0.97621 0.05914 0.28037 0.0
H764 H 0.86859 0.92811 0.22109 0.0
H765 H 0.90706 0.97713 0.2335 0.0
H766 H 0.01897 0.9513 0.22238 0.0
C767 C 0.0773 0.06422 0.26084 0.0
C768 C 0.98582 0.03571 0.26775 0.0
C769 C 0.09927 0.09342 0.25723 0.0
C770 C 0.89509 0.92201 0.2277 0.0
C771 C 0.91715 0.95029 0.23514 0.0
C772 C 0.00949 0.97431 0.23574 0.0
C773 C 0.04165 0.06762 0.25506 0.0
C774 C 0.01925 0.03535 0.25416 0.0
C775 C 0.95196 0.94415 0.24322 0.0
C776 C 0.97579 0.97483 0.24873 0.0
H777 H 0.0394 0.15637 0.23687 0.0
H778 H 0.00082 0.10512 0.24314 0.0
H779 H 0.05631 0.00312 0.22715 0.0
H780 H 0.95191 0.85339 0.23738 0.0
H781 H 0.99053 0.90296 0.25081 0.0
C782 C 0.89909 0.09192 0.75899 0.0
C783 C 0.9117 0.1254 0.76891 0.0
C784 C 0.92147 0.06318 0.75472 0.0
C785 C 0.01353 0.03676 0.74657 0.0
H786 H 0.98092 0.94889 0.78635 0.0
C787 C 0.10428 0.91958 0.77825 0.0
C788 C 0.09207 0.88449 0.77443 0.0
C789 C 0.08237 0.94865 0.77335 0.0
C790 C 0.99026 0.97297 0.7746 0.0
H791 H 0.95804 0.15536 0.78041 0.0
H792 H 0.99736 0.10483 0.77327 0.0
H793 H 0.94328 1.00069 0.78502 0.0
H794 H 0.04725 0.85269 0.76154 0.0
H795 H 0.00893 0.90363 0.75275 0.0
H796 H 0.06079 0.009 0.73667 0.0
C797 C 0.97005 0.10097 0.76856 0.0
C798 C 0.96866 0.00277 0.77385 0.0
C799 C 0.94755 0.12995 0.77267 0.0
C800 C 0.05749 0.8793 0.76482 0.0
C801 C 0.03549 0.9085 0.75995 0.0
C802 C 0.03518 0.00687 0.74731 0.0
C803 C 0.9571 0.067 0.76046 0.0
C804 C 0.98004 0.03511 0.75999 0.0
C805 C 0.04761 0.94354 0.76449 0.0
C806 C 0.0239 0.97467 0.76157 0.0
H807 H 0.87164 0.08759 0.7554 0.0
H808 H 0.91069 0.03768 0.74763 0.0
H809 H 0.02296 0.06109 0.73537 0.0
H810 H 0.13075 0.92475 0.78558 0.0
H811 H 0.09251 0.97515 0.77752 0.0
C812 C 0.60067 0.58201 0.74367 0.0
C813 C 0.58716 0.6161 0.73725 0.0
C814 C 0.57883 0.55264 0.74684 0.0
C815 C 0.48732 0.5249 0.75801 0.0
H816 H 0.51781 0.44044 0.71105 0.0
C817 C 0.39484 0.41142 0.72049 0.0
C818 C 0.40672 0.37602 0.72195 0.0
C819 C 0.41714 0.43982 0.72686 0.0
C820 C 0.50911 0.46354 0.72477 0.0
H821 H 0.53987 0.64625 0.73066 0.0
H822 H 0.50159 0.59472 0.73572 0.0
H823 H 0.55563 0.49204 0.71425 0.0
H824 H 0.45137 0.34286 0.73213 0.0
H825 H 0.49047 0.39268 0.74331 0.0
H826 H 0.44039 0.49647 0.76781 0.0
C827 C 0.52916 0.59082 0.73864 0.0
C828 C 0.53082 0.49322 0.72662 0.0
C829 C 0.55109 0.62038 0.73567 0.0
C830 C 0.44139 0.36975 0.73069 0.0
C831 C 0.46382 0.39831 0.73693 0.0
C832 C 0.46555 0.49519 0.75609 0.0
C833 C 0.54287 0.55644 0.74345 0.0
C834 C 0.52013 0.5244 0.74304 0.0
C835 C 0.45199 0.43369 0.73479 0.0
C836 C 0.47606 0.46428 0.73916 0.0
H837 H 0.62831 0.5778 0.74549 0.0
H838 H 0.59025 0.52676 0.75136 0.0
H839 H 0.47844 0.54826 0.77124 0.0
H840 H 0.36828 0.41735 0.71399 0.0
H841 H 0.40724 0.46669 0.72457 0.0
C842 C 0.60987 0.42563 0.29309 0.0
C843 C 0.59691 0.39093 0.28871 0.0
C844 C 0.58819 0.45518 0.29012 0.0
C845 C 0.50369 0.48404 0.25593 0.0
H846 H 0.51476 0.56238 0.31765 0.0
C847 C 0.40047 0.59271 0.27545 0.0
C848 C 0.41127 0.62796 0.28117 0.0
C849 C 0.42455 0.56522 0.27267 0.0
C850 C 0.51169 0.541 0.29987 0.0
H851 H 0.55077 0.36024 0.27784 0.0
H852 H 0.51272 0.41188 0.27327 0.0
H853 H 0.55315 0.51112 0.32125 0.0
H854 H 0.45606 0.66208 0.28717 0.0
H855 H 0.49831 0.61381 0.28229 0.0
H856 H 0.46168 0.51373 0.23506 0.0
C857 C 0.53988 0.41621 0.27845 0.0
C858 C 0.53367 0.51154 0.30195 0.0
C859 C 0.56164 0.38656 0.28129 0.0
C860 C 0.44689 0.63525 0.28275 0.0
C861 C 0.47105 0.60758 0.28023 0.0
C862 C 0.48161 0.51346 0.25393 0.0
C863 C 0.55289 0.45091 0.28285 0.0
C864 C 0.52982 0.48255 0.28015 0.0
C865 C 0.46009 0.57217 0.2757 0.0
C866 C 0.48519 0.54217 0.27604 0.0
H867 H 0.63694 0.43012 0.29858 0.0
H868 H 0.59926 0.48146 0.29314 0.0
H869 H 0.50037 0.46253 0.23834 0.0
H870 H 0.37324 0.58612 0.27395 0.0
H871 H 0.41519 0.53826 0.26949 0.0
C872 C 0.20739 0.12132 0.04835 0.0
C873 C 0.21242 0.12062 0.08287 0.0
C874 C 0.22541 0.09793 0.02777 0.0
C875 C 0.25694 0.008 0.03497 0.0
H876 H 0.27417 0.01945 0.94095 0.0
C877 C 0.24864 0.88761 0.94972 0.0
C878 C 0.22706 0.89358 0.92228 0.0
C879 C 0.26246 0.9163 0.96734 0.0
C880 C 0.26971 0.01583 0.96724 0.0
H881 H 0.24321 0.09603 0.12216 0.0
H882 H 0.27485 0.0567 0.08625 0.0
H883 H 0.27138 0.07197 0.9766 0.0
H884 H 0.20339 0.9343 0.89149 0.0
H885 H 0.22655 0.98396 0.92249 0.0
H886 H 0.25253 0.95243 0.02559 0.0
C887 C 0.25649 0.075 0.07524 0.0
C888 C 0.26821 0.04587 0.98761 0.0
C889 C 0.23828 0.09808 0.09588 0.0
C890 C 0.22043 0.92871 0.91216 0.0
C891 C 0.23396 0.95731 0.92988 0.0
C892 C 0.25823 0.97809 0.01465 0.0
C893 C 0.24896 0.07339 0.04126 0.0
C894 C 0.26011 0.04231 0.02138 0.0
C895 C 0.2545 0.95149 0.95813 0.0
C896 C 0.26282 0.98181 0.98029 0.0
H897 H 0.18811 0.13858 0.03733 0.0
H898 H 0.21883 0.09726 0.00167 0.0
H899 H 0.25033 0.00425 0.06082 0.0
H900 H 0.25448 0.86077 0.95779 0.0
H901 H 0.2785 0.91093 0.98878 0.0
C902 C 0.09343 0.72502 0.91015 0.0
C903 C 0.08053 0.73217 0.87824 0.0
C904 C 0.07119 0.72366 0.93752 0.0
C905 C 0.98351 0.75305 0.96455 0.0
H906 H 0.0018 0.69071 0.03915 0.0
C907 C 0.88947 0.74085 0.07577 0.0
C908 C 0.90457 0.74264 0.10745 0.0
C909 C 0.91008 0.7371 0.04743 0.0
C910 C 0.99646 0.70841 0.01857 0.0
H911 H 0.03386 0.74222 0.84996 0.0
H912 H 0.99498 0.73872 0.89734 0.0
H913 H 0.03883 0.68798 0.99027 0.0
H914 H 0.95323 0.74079 0.13418 0.0
H915 H 0.98908 0.73381 0.08481 0.0
H916 H 0.94092 0.77318 0.99285 0.0
C917 C 0.02242 0.73517 0.90153 0.0
C918 C 0.01777 0.70696 0.99052 0.0
C919 C 0.04471 0.7369 0.87423 0.0
C920 C 0.94072 0.73959 0.11017 0.0
C921 C 0.96129 0.7354 0.08188 0.0
C922 C 0.96202 0.75423 0.99244 0.0
C923 C 0.03535 0.72907 0.93369 0.0
C924 C 0.0118 0.72947 0.96316 0.0
C925 C 0.94627 0.73456 0.05012 0.0
C926 C 0.96837 0.73213 0.01991 0.0
H927 H 0.12091 0.72155 0.9142 0.0
H928 H 0.08233 0.71943 0.96183 0.0
H929 H 0.97835 0.77134 0.9444 0.0
H930 H 0.86173 0.74316 0.07273 0.0
H931 H 0.89767 0.73619 0.02337 0.0
C932 C 0.76128 0.11038 0.95342 0.0
C933 C 0.764 0.1112 0.91871 0.0
C934 C 0.7425 0.08344 0.9691 0.0
C935 C 0.73114 0.99092 0.95395 0.0
H936 H 0.6881 0.99179 0.04061 0.0
C937 C 0.75457 0.8739 0.03883 0.0
C938 C 0.76515 0.88439 0.07062 0.0
C939 C 0.73594 0.89736 0.01868 0.0
C940 C 0.70006 0.99098 0.01637 0.0
H941 H 0.74637 0.08561 0.87322 0.0
H942 H 0.71367 0.03933 0.90063 0.0
H943 H 0.68833 0.04593 0.00704 0.0
H944 H 0.76315 0.92698 0.10691 0.0
H945 H 0.73256 0.96812 0.07171 0.0
H946 H 0.74629 0.93771 0.96409 0.0
C947 C 0.72607 0.05954 0.91566 0.0
C948 C 0.69989 0.02194 0.9971 0.0
C949 C 0.74479 0.08643 0.89997 0.0
C950 C 0.75501 0.91787 0.08266 0.0
C951 C 0.73711 0.94154 0.06235 0.0
C952 C 0.73191 0.9603 0.97338 0.0
C953 C 0.7263 0.05669 0.95032 0.0
C954 C 0.71697 0.02261 0.96642 0.0
C955 C 0.72855 0.9322 0.02956 0.0
C956 C 0.71814 0.9605 0.00566 0.0
H957 H 0.77549 0.12918 0.96856 0.0
H958 H 0.74333 0.0818 0.9959 0.0
H959 H 0.74475 0.99062 0.93049 0.0
H960 H 0.76172 0.84803 0.02915 0.0
H961 H 0.72897 0.88881 0.99393 0.0
C962 C 0.10136 0.25035 0.08773 0.0
C963 C 0.09017 0.26136 0.1192 0.0
C964 C 0.07949 0.25303 0.06015 0.0
C965 C 0.98591 0.26761 0.03799 0.0
H966 H 0.02378 0.27093 0.94924 0.0
C967 C 0.8986 0.24529 0.9235 0.0
C968 C 0.90824 0.25938 0.89262 0.0
C969 C 0.9205 0.24833 0.95099 0.0
C970 C 0.01244 0.2707 0.97374 0.0
H971 H 0.048 0.28585 0.14608 0.0
H972 H 0.01082 0.29302 0.0979 0.0
H973 H 0.06227 0.27369 0.99632 0.0
H974 H 0.94772 0.28928 0.86673 0.0
H975 H 0.98486 0.29689 0.91498 0.0
H976 H 0.93599 0.26715 0.01551 0.0
C977 C 0.03569 0.28039 0.09446 0.0
C978 C 0.03483 0.27149 0.00106 0.0
C979 C 0.05721 0.27668 0.1222 0.0
C980 C 0.93972 0.27783 0.89015 0.0
C981 C 0.96123 0.28181 0.9179 0.0
C982 C 0.9635 0.26782 0.01071 0.0
C983 C 0.04611 0.2679 0.06301 0.0
C984 C 0.02204 0.26935 0.03371 0.0
C985 C 0.95233 0.26655 0.94872 0.0
C986 C 0.97633 0.26871 0.97803 0.0
H987 H 0.1266 0.23833 0.08458 0.0
H988 H 0.08861 0.24239 0.03684 0.0
H989 H 0.97463 0.26535 0.06242 0.0
H990 H 0.87458 0.23078 0.92621 0.0
H991 H 0.91267 0.23542 0.97375 0.0
C992 C 0.76522 0.40286 0.40975 0.0
C993 C 0.74663 0.37437 0.42382 0.0
C994 C 0.77507 0.43186 0.42916 0.0
C995 C 0.78248 0.46607 0.51477 0.0
H996 H 0.73933 0.55061 0.47824 0.0
C997 C 0.7226 0.57333 0.59603 0.0
C998 C 0.71937 0.60844 0.58443 0.0
C999 C 0.73818 0.54737 0.57644 0.0
C1000 C 0.7525 0.52775 0.48864 0.0
H1001 H 0.72723 0.35226 0.46984 0.0
H1002 H 0.74452 0.40295 0.50374 0.0
H1003 H 0.74657 0.49846 0.44365 0.0
H1004 H 0.73135 0.64433 0.54402 0.0
H1005 H 0.7594 0.59904 0.50991 0.0
H1006 H 0.78753 0.4951 0.56011 0.0
C1007 C 0.75121 0.4029 0.47767 0.0
C1008 C 0.75656 0.49774 0.46874 0.0
C1009 C 0.74113 0.37397 0.45822 0.0
C1010 C 0.73326 0.61738 0.5534 0.0
C1011 C 0.74928 0.59143 0.53391 0.0
C1012 C 0.77885 0.49631 0.53461 0.0
C1013 C 0.76703 0.4327 0.46304 0.0
C1014 C 0.77025 0.46618 0.48201 0.0
C1015 C 0.75111 0.55589 0.54485 0.0
C1016 C 0.76235 0.52696 0.52219 0.0
H1017 H 0.77132 0.40338 0.38357 0.0
H1018 H 0.78778 0.45428 0.41743 0.0
H1019 H 0.79353 0.44215 0.52541 0.0
H1020 H 0.71156 0.56537 0.61955 0.0
H1021 H 0.73832 0.52021 0.58545 0.0
C1022 C 0.40401 0.21256 0.58036 0.0
C1023 C 0.41252 0.23203 0.60901 0.0
C1024 C 0.42627 0.21211 0.55295 0.0
C1025 C 0.51716 0.23242 0.52777 0.0
H1026 H 0.47787 0.23773 0.43946 0.0
C1027 C 0.59542 0.27676 0.41305 0.0
C1028 C 0.5894 0.25971 0.38256 0.0
C1029 C 0.57536 0.26867 0.44088 0.0
C1030 C 0.48929 0.2357 0.46391 0.0
H1031 H 0.45136 0.26627 0.63116 0.0
H1032 H 0.48966 0.26608 0.5834 0.0
H1033 H 0.43972 0.23316 0.48737 0.0
H1034 H 0.55813 0.21996 0.35769 0.0
H1035 H 0.52284 0.20591 0.40641 0.0
H1036 H 0.56671 0.23601 0.50425 0.0
C1037 C 0.46613 0.25051 0.58221 0.0
C1038 C 0.46738 0.23306 0.49147 0.0
C1039 C 0.44397 0.25083 0.60962 0.0
C1040 C 0.56348 0.23351 0.38083 0.0
C1041 C 0.54309 0.22568 0.40866 0.0
C1042 C 0.53903 0.2353 0.50025 0.0
C1043 C 0.4576 0.23123 0.5534 0.0
C1044 C 0.48098 0.23184 0.52385 0.0
C1045 C 0.54851 0.24352 0.43893 0.0
C1046 C 0.52537 0.23742 0.46798 0.0
H1047 H 0.38006 0.19768 0.57902 0.0
H1048 H 0.41898 0.19657 0.53145 0.0
H1049 H 0.5287 0.23075 0.55219 0.0
H1050 H 0.61524 0.297 0.41529 0.0
H1051 H 0.58009 0.28314 0.46366 0.0
C1052 C 0.23478 0.39987 0.58899 0.0
C1053 C 0.25771 0.37708 0.57202 0.0
C1054 C 0.21973 0.42881 0.57278 0.0
C1055 C 0.20332 0.47121 0.49209 0.0
H1056 H 0.2444 0.55504 0.53195 0.0
C1057 C 0.25214 0.62431 0.46012 0.0
C1058 C 0.26468 0.61643 0.42833 0.0
C1059 C 0.23477 0.59833 0.47855 0.0
C1060 C 0.23154 0.53246 0.52073 0.0
H1061 H 0.27916 0.36442 0.52374 0.0
H1062 H 0.25236 0.41461 0.49543 0.0
H1063 H 0.24201 0.50007 0.56312 0.0
H1064 H 0.268 0.57546 0.39051 0.0
H1065 H 0.23935 0.53026 0.42263 0.0
H1066 H 0.19352 0.5033 0.44936 0.0
C1067 C 0.24659 0.4103 0.52141 0.0
C1068 C 0.23033 0.50079 0.5387 0.0
C1069 C 0.26212 0.38169 0.53771 0.0
C1070 C 0.25813 0.5827 0.4147 0.0
C1071 C 0.24137 0.55664 0.43323 0.0
C1072 C 0.20377 0.50315 0.47434 0.0
C1073 C 0.22648 0.43491 0.53913 0.0
C1074 C 0.21802 0.4695 0.52383 0.0
C1075 C 0.23042 0.56368 0.46583 0.0
C1076 C 0.21996 0.53358 0.48766 0.0
H1077 H 0.22913 0.39622 0.61503 0.0
H1078 H 0.20396 0.44727 0.58682 0.0
H1079 H 0.19331 0.44741 0.48034 0.0
H1080 H 0.25661 0.65024 0.47107 0.0
H1081 H 0.22607 0.60499 0.50328 0.0
C1082 C 0.54449 0.76353 0.62814 0.0
C1083 C 0.58045 0.7665 0.62394 0.0
C1084 C 0.52208 0.76698 0.60108 0.0
C1085 C 0.51761 0.79817 0.51318 0.0
H1086 H 0.43819 0.73527 0.50967 0.0
C1087 C 0.43774 0.77329 0.39364 0.0
C1088 C 0.40159 0.77059 0.39667 0.0
C1089 C 0.45873 0.77607 0.4218 0.0
C1090 C 0.45999 0.75336 0.51044 0.0
H1091 H 0.62102 0.77583 0.58792 0.0
H1092 H 0.58209 0.78102 0.5406 0.0
H1093 H 0.4764 0.73365 0.55762 0.0
H1094 H 0.35919 0.76952 0.4318 0.0
H1095 H 0.39587 0.77424 0.48094 0.0
H1096 H 0.50148 0.81713 0.46545 0.0
C1097 C 0.57103 0.77675 0.56492 0.0
C1098 C 0.48194 0.75251 0.53802 0.0
C1099 C 0.59344 0.77362 0.59208 0.0
C1100 C 0.38691 0.77158 0.42853 0.0
C1101 C 0.40795 0.77402 0.45673 0.0
C1102 C 0.49576 0.79882 0.48545 0.0
C1103 C 0.53502 0.77315 0.56897 0.0
C1104 C 0.51115 0.77483 0.53979 0.0
C1105 C 0.44415 0.77592 0.45372 0.0
C1106 C 0.46673 0.77634 0.4837 0.0
H1107 H 0.53358 0.75835 0.6524 0.0
H1108 H 0.49454 0.76478 0.6054 0.0
H1109 H 0.53944 0.8162 0.5138 0.0
H1110 H 0.44993 0.77265 0.36948 0.0
H1111 H 0.48651 0.77719 0.41858 0.0
loop_
_geom_bond_atom_site_label_1
_geom_bond_atom_site_label_2
_geom_bond_distance
_geom_bond_site_symmetry_2
_ccdc_geom_bond_type
Zn0 N4 2.020 . S
Zn0 O8 2.019 . S
Zn0 N10 2.119 . S
Zn0 O18 1.975 . S
C1 N2 1.334 . S
C1 N5 1.336 . S
N2 C1 1.334 . S
N2 C3 1.334 . S
C3 N2 1.334 . S
C3 N4 1.336 . S
N4 Zn0 2.020 . S
N4 C3 1.336 . S
N4 N5 1.354 . S
N5 C1 1.336 . S
N5 N4 1.354 . S
N5 Zn9 2.020 . S
C6 O7 1.244 . S
C6 O30 1.257 . S
O7 C6 1.244 . S
O8 Zn0 2.019 . S
O8 C28 1.257 . S
Zn9 N5 2.020 . S
Zn9 O16 1.975 . S
Zn9 N25 2.119 . S
Zn9 O30 2.019 . S
N10 Zn0 2.119 . S
N10 C12 1.334 . S
N10 C13 1.328 . S
C11 C12 1.391 . S
C11 N14 1.329 . S
C11 H32 0.930 . S
C12 N10 1.334 . S
C12 C11 1.391 . S
C12 H19 0.930 . S
C13 N10 1.328 . S
C13 C15 1.392 . S
C13 H20 0.930 . S
N14 C11 1.329 . S
N14 C15 1.331 . S
C15 C13 1.392 . S
C15 N14 1.331 . S
O16 Zn9 1.975 . S
O16 C17 1.252 . S
C17 O16 1.252 . S
C17 O18 1.252 . S
O18 Zn0 1.975 . S
O18 C17 1.252 . S
H19 C12 0.930 . S
H20 C13 0.930 . S
C21 C22 1.392 . S
C21 N25 1.328 . S
C21 H27 0.930 . S
C22 C21 1.392 . S
C22 N26 1.331 . S
C23 C24 1.391 . S
C23 N26 1.329 . S
C23 H33 0.930 . S
C24 C23 1.391 . S
C24 N25 1.334 . S
C24 H31 0.930 . S
N25 Zn9 2.119 . S
N25 C21 1.328 . S
N25 C24 1.334 . S
N26 C22 1.331 . S
N26 C23 1.329 . S
H27 C21 0.930 . S
C28 O8 1.257 . S
C28 O29 1.244 . S
O29 C28 1.244 . S
O30 C6 1.257 . S
O30 Zn9 2.019 . S
H31 C24 0.930 . S
H32 C11 0.930 . S
H33 C23 0.930 . S
Zn34 N38 2.020 . S
Zn34 O42 2.019 . S
Zn34 N44 2.119 . S
Zn34 O52 1.975 . S
C35 N36 1.334 . S
C35 N39 1.336 . S
N36 C35 1.334 . S
N36 C37 1.334 . S
C37 N36 1.334 . S
C37 N38 1.336 . S
N38 Zn34 2.020 . S
N38 C37 1.336 . S
N38 N39 1.354 . S
N39 C35 1.336 . S
N39 N38 1.354 . S
N39 Zn43 2.020 . S
C40 O41 1.244 . S
C40 O64 1.257 . S
O41 C40 1.244 . S
O42 Zn34 2.019 . S
O42 C62 1.257 . S
Zn43 N39 2.020 . S
Zn43 O50 1.975 . S
Zn43 N59 2.119 . S
Zn43 O64 2.019 . S
N44 Zn34 2.119 . S
N44 C46 1.334 . S
N44 C47 1.328 . S
C45 C46 1.391 . S
C45 N48 1.329 . S
C45 H66 0.930 . S
C46 N44 1.334 . S
C46 C45 1.391 . S
C46 H53 0.930 . S
C47 N44 1.328 . S
C47 C49 1.392 . S
C47 H54 0.930 . S
N48 C45 1.329 . S
N48 C49 1.331 . S
C49 C47 1.392 . S
C49 N48 1.331 . S
O50 Zn43 1.975 . S
O50 C51 1.252 . S
C51 O50 1.252 . S
C51 O52 1.252 . S
O52 Zn34 1.975 . S
O52 C51 1.252 . S
H53 C46 0.930 . S
H54 C47 0.930 . S
C55 C56 1.392 . S
C55 N59 1.328 . S
C55 H61 0.930 . S
C56 C55 1.392 . S
C56 N60 1.331 . S
C57 C58 1.391 . S
C57 N60 1.329 . S
C57 H67 0.930 . S
C58 C57 1.391 . S
C58 N59 1.334 . S
C58 H65 0.930 . S
N59 Zn43 2.119 . S
N59 C55 1.328 . S
N59 C58 1.334 . S
N60 C56 1.331 . S
N60 C57 1.329 . S
H61 C55 0.930 . S
C62 O42 1.257 . S
C62 O63 1.244 . S
O63 C62 1.244 . S
O64 C40 1.257 . S
O64 Zn43 2.019 . S
H65 C58 0.930 . S
H66 C45 0.930 . S
H67 C57 0.930 . S
Zn68 N72 2.020 . S
Zn68 O76 2.019 . S
Zn68 N78 2.119 . S
Zn68 O86 1.975 . S
C69 N70 1.334 . S
C69 N73 1.336 . S
N70 C69 1.334 . S
N70 C71 1.334 . S
C71 N70 1.334 . S
C71 N72 1.336 . S
N72 Zn68 2.020 . S
N72 C71 1.336 . S
N72 N73 1.354 . S
N73 C69 1.336 . S
N73 N72 1.354 . S
N73 Zn77 2.020 . S
C74 O75 1.244 . S
C74 O98 1.257 . S
O75 C74 1.244 . S
O76 Zn68 2.019 . S
O76 C96 1.257 . S
Zn77 N73 2.020 . S
Zn77 O84 1.975 . S
Zn77 N93 2.119 . S
Zn77 O98 2.019 . S
N78 Zn68 2.119 . S
N78 C80 1.334 . S
N78 C81 1.328 . S
C79 C80 1.391 . S
C79 N82 1.329 . S
C79 H100 0.930 . S
C80 N78 1.334 . S
C80 C79 1.391 . S
C80 H87 0.930 . S
C81 N78 1.328 . S
C81 C83 1.392 . S
C81 H88 0.930 . S
N82 C79 1.329 . S
N82 C83 1.331 . S
C83 C81 1.392 . S
C83 N82 1.331 . S
O84 Zn77 1.975 . S
O84 C85 1.252 . S
C85 O84 1.252 . S
C85 O86 1.252 . S
O86 Zn68 1.975 . S
O86 C85 1.252 . S
H87 C80 0.930 . S
H88 C81 0.930 . S
C89 C90 1.392 . S
C89 N93 1.328 . S
C89 H95 0.930 . S
C90 C89 1.392 . S
C90 N94 1.331 . S
C91 C92 1.391 . S
C91 N94 1.329 . S
C91 H101 0.930 . S
C92 C91 1.391 . S
C92 N93 1.334 . S
C92 H99 0.930 . S
N93 Zn77 2.119 . S
N93 C89 1.328 . S
N93 C92 1.334 . S
N94 C90 1.331 . S
N94 C91 1.329 . S
H95 C89 0.930 . S
C96 O76 1.257 . S
C96 O97 1.244 . S
O97 C96 1.244 . S
O98 C74 1.257 . S
O98 Zn77 2.019 . S
H99 C92 0.930 . S
H100 C79 0.930 . S
H101 C91 0.930 . S
Zn102 N106 2.020 . S
Zn102 O110 2.019 . S
Zn102 N112 2.119 . S
Zn102 O120 1.975 . S
C103 N104 1.334 . S
C103 N107 1.336 . S
N104 C103 1.334 . S
N104 C105 1.334 . S
C105 N104 1.334 . S
C105 N106 1.336 . S
N106 Zn102 2.020 . S
N106 C105 1.336 . S
N106 N107 1.354 . S
N107 C103 1.336 . S
N107 N106 1.354 . S
N107 Zn111 2.020 . S
C108 O109 1.244 . S
C108 O132 1.257 . S
O109 C108 1.244 . S
O110 Zn102 2.019 . S
O110 C130 1.257 . S
Zn111 N107 2.020 . S
Zn111 O118 1.975 . S
Zn111 N127 2.119 . S
Zn111 O132 2.019 . S
N112 Zn102 2.119 . S
N112 C114 1.334 . S
N112 C115 1.328 . S
C113 C114 1.391 . S
C113 N116 1.329 . S
C113 H134 0.930 . S
C114 N112 1.334 . S
C114 C113 1.391 . S
C114 H121 0.930 . S
C115 N112 1.328 . S
C115 C117 1.392 . S
C115 H122 0.930 . S
N116 C113 1.329 . S
N116 C117 1.331 . S
C117 C115 1.392 . S
C117 N116 1.331 . S
O118 Zn111 1.975 . S
O118 C119 1.252 . S
C119 O118 1.252 . S
C119 O120 1.252 . S
O120 Zn102 1.975 . S
O120 C119 1.252 . S
H121 C114 0.930 . S
H122 C115 0.930 . S
C123 C124 1.392 . S
C123 N127 1.328 . S
C123 H129 0.930 . S
C124 C123 1.392 . S
C124 N128 1.331 . S
C125 C126 1.391 . S
C125 N128 1.329 . S
C125 H135 0.930 . S
C126 C125 1.391 . S
C126 N127 1.334 . S
C126 H133 0.930 . S
N127 Zn111 2.119 . S
N127 C123 1.328 . S
N127 C126 1.334 . S
N128 C124 1.331 . S
N128 C125 1.329 . S
H129 C123 0.930 . S
C130 O110 1.257 . S
C130 O131 1.244 . S
O131 C130 1.244 . S
O132 C108 1.257 . S
O132 Zn111 2.019 . S
H133 C126 0.930 . S
H134 C113 0.930 . S
H135 C125 0.930 . S
Zn136 N140 2.020 . S
Zn136 O144 2.019 . S
Zn136 N146 2.119 . S
Zn136 O154 1.975 . S
C137 N138 1.334 . S
C137 N141 1.336 . S
N138 C137 1.334 . S
N138 C139 1.334 . S
C139 N138 1.334 . S
C139 N140 1.336 . S
N140 Zn136 2.020 . S
N140 C139 1.336 . S
N140 N141 1.354 . S
N141 C137 1.336 . S
N141 N140 1.354 . S
N141 Zn145 2.020 . S
C142 O143 1.244 . S
C142 O166 1.257 . S
O143 C142 1.244 . S
O144 Zn136 2.019 . S
O144 C164 1.257 . S
Zn145 N141 2.020 . S
Zn145 O152 1.975 . S
Zn145 N161 2.119 . S
Zn145 O166 2.019 . S
N146 Zn136 2.119 . S
N146 C148 1.334 . S
N146 C149 1.328 . S
C147 C148 1.391 . S
C147 N150 1.329 . S
C147 H168 0.930 . S
C148 N146 1.334 . S
C148 C147 1.391 . S
C148 H155 0.930 . S
C149 N146 1.328 . S
C149 C151 1.392 . S
C149 H156 0.930 . S
N150 C147 1.329 . S
N150 C151 1.331 . S
C151 C149 1.392 . S
C151 N150 1.331 . S
O152 Zn145 1.975 . S
O152 C153 1.252 . S
C153 O152 1.252 . S
C153 O154 1.252 . S
O154 Zn136 1.975 . S
O154 C153 1.252 . S
H155 C148 0.930 . S
H156 C149 0.930 . S
C157 C158 1.392 . S
C157 N161 1.328 . S
C157 H163 0.930 . S
C158 C157 1.392 . S
C158 N162 1.331 . S
C159 C160 1.391 . S
C159 N162 1.329 . S
C159 H169 0.930 . S
C160 C159 1.391 . S
C160 N161 1.334 . S
C160 H167 0.930 . S
N161 Zn145 2.119 . S
N161 C157 1.328 . S
N161 C160 1.334 . S
N162 C158 1.331 . S
N162 C159 1.329 . S
H163 C157 0.930 . S
C164 O144 1.257 . S
C164 O165 1.244 . S
O165 C164 1.244 . S
O166 C142 1.257 . S
O166 Zn145 2.019 . S
H167 C160 0.930 . S
H168 C147 0.930 . S
H169 C159 0.930 . S
Zn170 N174 2.020 . S
Zn170 O178 2.019 . S
Zn170 N180 2.119 . S
Zn170 O188 1.975 . S
C171 N172 1.334 . S
C171 N175 1.336 . S
N172 C171 1.334 . S
N172 C173 1.334 . S
C173 N172 1.334 . S
C173 N174 1.336 . S
N174 Zn170 2.020 . S
N174 C173 1.336 . S
N174 N175 1.354 . S
N175 C171 1.336 . S
N175 N174 1.354 . S
N175 Zn179 2.020 . S
C176 O177 1.244 . S
C176 O200 1.257 . S
O177 C176 1.244 . S
O178 Zn170 2.019 . S
O178 C198 1.257 . S
Zn179 N175 2.020 . S
Zn179 O186 1.975 . S
Zn179 N195 2.119 . S
Zn179 O200 2.019 . S
N180 Zn170 2.119 . S
N180 C182 1.334 . S
N180 C183 1.328 . S
C181 C182 1.391 . S
C181 N184 1.329 . S
C181 H202 0.930 . S
C182 N180 1.334 . S
C182 C181 1.391 . S
C182 H189 0.930 . S
C183 N180 1.328 . S
C183 C185 1.392 . S
C183 H190 0.930 . S
N184 C181 1.329 . S
N184 C185 1.331 . S
C185 C183 1.392 . S
C185 N184 1.331 . S
O186 Zn179 1.975 . S
O186 C187 1.252 . S
C187 O186 1.252 . S
C187 O188 1.252 . S
O188 Zn170 1.975 . S
O188 C187 1.252 . S
H189 C182 0.930 . S
H190 C183 0.930 . S
C191 C192 1.392 . S
C191 N195 1.328 . S
C191 H197 0.930 . S
C192 C191 1.392 . S
C192 N196 1.331 . S
C193 C194 1.391 . S
C193 N196 1.329 . S
C193 H203 0.930 . S
C194 C193 1.391 . S
C194 N195 1.334 . S
C194 H201 0.930 . S
N195 Zn179 2.119 . S
N195 C191 1.328 . S
N195 C194 1.334 . S
N196 C192 1.331 . S
N196 C193 1.329 . S
H197 C191 0.930 . S
C198 O178 1.257 . S
C198 O199 1.244 . S
O199 C198 1.244 . S
O200 C176 1.257 . S
O200 Zn179 2.019 . S
H201 C194 0.930 . S
H202 C181 0.930 . S
H203 C193 0.930 . S
Zn204 N208 2.020 . S
Zn204 O212 2.019 . S
Zn204 N214 2.119 . S
Zn204 O222 1.975 . S
C205 N206 1.334 . S
C205 N209 1.336 . S
N206 C205 1.334 . S
N206 C207 1.334 . S
C207 N206 1.334 . S
C207 N208 1.336 . S
N208 Zn204 2.020 . S
N208 C207 1.336 . S
N208 N209 1.354 . S
N209 C205 1.336 . S
N209 N208 1.354 . S
N209 Zn213 2.020 . S
C210 O211 1.244 . S
C210 O234 1.257 . S
O211 C210 1.244 . S
O212 Zn204 2.019 . S
O212 C232 1.257 . S
Zn213 N209 2.020 . S
Zn213 O220 1.975 . S
Zn213 N229 2.119 . S
Zn213 O234 2.019 . S
N214 Zn204 2.119 . S
N214 C216 1.334 . S
N214 C217 1.328 . S
C215 C216 1.391 . S
C215 N218 1.329 . S
C215 H236 0.930 . S
C216 N214 1.334 . S
C216 C215 1.391 . S
C216 H223 0.930 . S
C217 N214 1.328 . S
C217 C219 1.392 . S
C217 H224 0.930 . S
N218 C215 1.329 . S
N218 C219 1.331 . S
C219 C217 1.392 . S
C219 N218 1.331 . S
O220 Zn213 1.975 . S
O220 C221 1.252 . S
C221 O220 1.252 . S
C221 O222 1.252 . S
O222 Zn204 1.975 . S
O222 C221 1.252 . S
H223 C216 0.930 . S
H224 C217 0.930 . S
C225 C226 1.392 . S
C225 N229 1.328 . S
C225 H231 0.930 . S
C226 C225 1.392 . S
C226 N230 1.331 . S
C227 C228 1.391 . S
C227 N230 1.329 . S
C227 H237 0.930 . S
C228 C227 1.391 . S
C228 N229 1.334 . S
C228 H235 0.930 . S
N229 Zn213 2.119 . S
N229 C225 1.328 . S
N229 C228 1.334 . S
N230 C226 1.331 . S
N230 C227 1.329 . S
H231 C225 0.930 . S
C232 O212 1.257 . S
C232 O233 1.244 . S
O233 C232 1.244 . S
O234 C210 1.257 . S
O234 Zn213 2.019 . S
H235 C228 0.930 . S
H236 C215 0.930 . S
H237 C227 0.930 . S
Zn238 N242 2.020 . S
Zn238 O246 2.019 . S
Zn238 N248 2.119 . S
Zn238 O256 1.975 . S
C239 N240 1.334 . S
C239 N243 1.336 . S
N240 C239 1.334 . S
N240 C241 1.334 . S
C241 N240 1.334 . S
C241 N242 1.336 . S
N242 Zn238 2.020 . S
N242 C241 1.336 . S
N242 N243 1.354 . S
N243 C239 1.336 . S
N243 N242 1.354 . S
N243 Zn247 2.020 . S
C244 O245 1.244 . S
C244 O268 1.257 . S
O245 C244 1.244 . S
O246 Zn238 2.019 . S
O246 C266 1.257 . S
Zn247 N243 2.020 . S
Zn247 O254 1.975 . S
Zn247 N263 2.119 . S
Zn247 O268 2.019 . S
N248 Zn238 2.119 . S
N248 C250 1.334 . S
N248 C251 1.328 . S
C249 C250 1.391 . S
C249 N252 1.329 . S
C249 H270 0.930 . S
C250 N248 1.334 . S
C250 C249 1.391 . S
C250 H257 0.930 . S
C251 N248 1.328 . S
C251 C253 1.392 . S
C251 H258 0.930 . S
N252 C249 1.329 . S
N252 C253 1.331 . S
C253 C251 1.392 . S
C253 N252 1.331 . S
O254 Zn247 1.975 . S
O254 C255 1.252 . S
C255 O254 1.252 . S
C255 O256 1.252 . S
O256 Zn238 1.975 . S
O256 C255 1.252 . S
H257 C250 0.930 . S
H258 C251 0.930 . S
C259 C260 1.392 . S
C259 N263 1.328 . S
C259 H265 0.930 . S
C260 C259 1.392 . S
C260 N264 1.331 . S
C261 C262 1.391 . S
C261 N264 1.329 . S
C261 H271 0.930 . S
C262 C261 1.391 . S
C262 N263 1.334 . S
C262 H269 0.930 . S
N263 Zn247 2.119 . S
N263 C259 1.328 . S
N263 C262 1.334 . S
N264 C260 1.331 . S
N264 C261 1.329 . S
H265 C259 0.930 . S
C266 O246 1.257 . S
C266 O267 1.244 . S
O267 C266 1.244 . S
O268 C244 1.257 . S
O268 Zn247 2.019 . S
H269 C262 0.930 . S
H270 C249 0.930 . S
H271 C261 0.930 . S
C272 C273 1.349 . S
C272 C274 1.328 . S
C272 H297 0.950 . S
C273 C272 1.349 . S
C273 C289 1.349 . S
C274 C272 1.328 . S
C274 C293 1.428 1_545 S
C274 H298 0.949 1_545 S
C275 C292 1.574 . S
C275 C294 1.368 . S
C275 H299 0.949 . S
H276 C280 0.949 . S
C277 C278 1.349 . S
C277 C279 1.327 . S
C277 H300 0.950 . S
C278 C277 1.349 . S
C278 C290 1.349 . S
C279 C277 1.327 . S
C279 C295 1.429 . S
C279 H301 0.950 . S
C280 H276 0.949 . S
C280 C288 1.574 . S
C280 C296 1.368 . S
H281 C289 0.950 . S
H282 C287 0.950 . S
H283 C288 0.949 . S
H284 C290 0.950 . S
H285 C291 0.950 . S
H286 C292 0.949 . S
C287 H282 0.950 . S
C287 C289 1.327 . S
C287 C293 1.429 1_545 S
C288 C280 1.574 . S
C288 H283 0.949 . S
C288 C294 1.368 . S
C289 C273 1.349 . S
C289 H281 0.950 . S
C289 C287 1.327 . S
C290 C278 1.349 . S
C290 H284 0.950 . S
C290 C291 1.327 . S
C291 H285 0.950 . S
C291 C290 1.327 . S
C291 C295 1.429 . S
C292 C275 1.574 . S
C292 H286 0.949 . S
C292 C296 1.368 . S
C293 C274 1.428 1_565 S
C293 C287 1.429 1_565 S
C293 C294 1.523 . S
C294 C275 1.368 . S
C294 C288 1.368 . S
C294 C293 1.523 . S
C295 C279 1.429 . S
C295 C291 1.429 . S
C295 C296 1.523 . S
C296 C280 1.368 . S
C296 C292 1.368 . S
C296 C295 1.523 . S
H297 C272 0.950 . S
H298 C274 0.949 1_565 S
H299 C275 0.949 . S
H300 C277 0.950 . S
H301 C279 0.950 . S
C302 C303 1.349 . S
C302 C304 1.327 1_455 S
C302 H327 0.950 . S
C303 C302 1.349 . S
C303 C319 1.349 . S
C304 C302 1.327 1_655 S
C304 C323 1.429 . S
C304 H328 0.950 . S
C305 C322 1.574 . S
C305 C324 1.368 . S
C305 H329 0.949 . S
H306 C310 0.949 . S
C307 C308 1.349 . S
C307 C309 1.327 . S
C307 H330 0.950 . S
C308 C307 1.349 . S
C308 C320 1.349 . S
C309 C307 1.327 . S
C309 C325 1.429 . S
C309 H331 0.950 . S
C310 H306 0.949 . S
C310 C318 1.574 . S
C310 C326 1.368 . S
H311 C319 0.950 . S
H312 C317 0.950 . S
H313 C318 0.949 . S
H314 C320 0.950 . S
H315 C321 0.950 . S
H316 C322 0.949 . S
C317 H312 0.950 . S
C317 C319 1.327 1_655 S
C317 C323 1.429 . S
C318 C310 1.574 . S
C318 H313 0.949 . S
C318 C324 1.368 . S
C319 C303 1.349 . S
C319 H311 0.950 . S
C319 C317 1.327 1_455 S
C320 C308 1.349 . S
C320 H314 0.950 . S
C320 C321 1.327 . S
C321 H315 0.950 . S
C321 C320 1.327 . S
C321 C325 1.429 . S
C322 C305 1.574 . S
C322 H316 0.949 . S
C322 C326 1.368 . S
C323 C304 1.429 . S
C323 C317 1.429 . S
C323 C324 1.523 . S
C324 C305 1.368 . S
C324 C318 1.368 . S
C324 C323 1.523 . S
C325 C309 1.429 . S
C325 C321 1.429 . S
C325 C326 1.523 . S
C326 C310 1.368 . S
C326 C322 1.368 . S
C326 C325 1.523 . S
H327 C302 0.950 . S
H328 C304 0.950 . S
H329 C305 0.949 . S
H330 C307 0.950 . S
H331 C309 0.950 . S
C332 C333 1.349 . S
C332 C334 1.327 . S
C332 H357 0.950 . S
C333 C332 1.349 . S
C333 C349 1.349 . S
C334 C332 1.327 . S
C334 C353 1.429 . S
C334 H358 0.950 . S
C335 C352 1.574 . S
C335 C354 1.368 . S
C335 H359 0.949 . S
H336 C340 0.949 . S
C337 C338 1.349 . S
C337 C339 1.327 1_565 S
C337 H360 0.950 . S
C338 C337 1.349 . S
C338 C350 1.349 . S
C339 C337 1.327 1_545 S
C339 C355 1.429 . S
C339 H361 0.950 . S
C340 H336 0.949 . S
C340 C348 1.574 . S
C340 C356 1.368 . S
H341 C349 0.950 . S
H342 C347 0.950 . S
H343 C348 0.949 . S
H344 C350 0.950 . S
H345 C351 0.950 . S
H346 C352 0.949 . S
C347 H342 0.950 . S
C347 C349 1.327 . S
C347 C353 1.429 . S
C348 C340 1.574 . S
C348 H343 0.949 . S
C348 C354 1.368 . S
C349 C333 1.349 . S
C349 H341 0.950 . S
C349 C347 1.327 . S
C350 C338 1.349 . S
C350 H344 0.950 . S
C350 C351 1.327 . S
C351 H345 0.950 . S
C351 C350 1.327 . S
C351 C355 1.429 1_565 S
C352 C335 1.574 . S
C352 H346 0.949 . S
C352 C356 1.368 . S
C353 C334 1.429 . S
C353 C347 1.429 . S
C353 C354 1.523 . S
C354 C335 1.368 . S
C354 C348 1.368 . S
C354 C353 1.523 . S
C355 C339 1.429 . S
C355 C351 1.429 1_545 S
C355 C356 1.523 . S
C356 C340 1.368 . S
C356 C352 1.368 . S
C356 C355 1.523 . S
H357 C332 0.950 . S
H358 C334 0.950 . S
H359 C335 0.949 . S
H360 C337 0.950 . S
H361 C339 0.950 . S
C362 C363 1.349 . S
C362 C364 1.327 1_655 S
C362 H387 0.950 . S
C363 C362 1.349 . S
C363 C379 1.349 . S
C364 C362 1.327 1_455 S
C364 C383 1.429 . S
C364 H388 0.950 . S
C365 C382 1.574 . S
C365 C384 1.368 . S
C365 H389 0.949 . S
H366 C370 0.949 . S
C367 C368 1.349 . S
C367 C369 1.327 . S
C367 H390 0.950 . S
C368 C367 1.349 . S
C368 C380 1.349 . S
C369 C367 1.327 . S
C369 C385 1.429 . S
C369 H391 0.950 . S
C370 H366 0.949 . S
C370 C378 1.574 . S
C370 C386 1.368 . S
H371 C379 0.950 . S
H372 C377 0.950 . S
H373 C378 0.949 . S
H374 C380 0.950 . S
H375 C381 0.950 . S
H376 C382 0.949 . S
C377 H372 0.950 . S
C377 C379 1.327 1_455 S
C377 C383 1.429 . S
C378 C370 1.574 . S
C378 H373 0.949 . S
C378 C384 1.368 . S
C379 C363 1.349 . S
C379 H371 0.950 . S
C379 C377 1.327 1_655 S
C380 C368 1.349 . S
C380 H374 0.950 . S
C380 C381 1.327 . S
C381 H375 0.950 . S
C381 C380 1.327 . S
C381 C385 1.429 . S
C382 C365 1.574 . S
C382 H376 0.949 . S
C382 C386 1.368 . S
C383 C364 1.429 . S
C383 C377 1.429 . S
C383 C384 1.523 . S
C384 C365 1.368 . S
C384 C378 1.368 . S
C384 C383 1.523 . S
C385 C369 1.429 . S
C385 C381 1.429 . S
C385 C386 1.523 . S
C386 C370 1.368 . S
C386 C382 1.368 . S
C386 C385 1.523 . S
H387 C362 0.950 . S
H388 C364 0.950 . S
H389 C365 0.949 . S
H390 C367 0.950 . S
H391 C369 0.950 . S
C392 C393 1.349 . S
C392 C394 1.327 . S
C392 H417 0.950 . S
C393 C392 1.349 . S
C393 C409 1.349 . S
C394 C392 1.327 . S
C394 C413 1.429 1_565 S
C394 H418 0.950 1_565 S
C395 C412 1.574 . S
C395 C414 1.368 . S
C395 H419 0.949 . S
H396 C400 0.949 . S
C397 C398 1.349 . S
C397 C399 1.327 . S
C397 H420 0.950 . S
C398 C397 1.349 . S
C398 C410 1.349 . S
C399 C397 1.327 . S
C399 C415 1.429 . S
C399 H421 0.950 . S
C400 H396 0.949 . S
C400 C408 1.574 . S
C400 C416 1.368 . S
H401 C409 0.950 . S
H402 C407 0.962 . S
H403 C408 0.949 . S
H404 C410 0.950 . S
H405 C411 0.950 . S
H406 C412 0.949 . S
C407 H402 0.962 . S
C407 C409 1.327 . S
C407 C413 1.429 1_565 S
C408 C400 1.574 . S
C408 H403 0.949 . S
C408 C414 1.368 . S
C409 C393 1.349 . S
C409 H401 0.950 . S
C409 C407 1.327 . S
C410 C398 1.349 . S
C410 H404 0.950 . S
C410 C411 1.327 . S
C411 H405 0.950 . S
C411 C410 1.327 . S
C411 C415 1.429 . S
C412 C395 1.574 . S
C412 H406 0.949 . S
C412 C416 1.368 . S
C413 C394 1.429 1_545 S
C413 C407 1.429 1_545 S
C413 C414 1.523 . S
C414 C395 1.368 . S
C414 C408 1.368 . S
C414 C413 1.523 . S
C415 C399 1.429 . S
C415 C411 1.429 . S
C415 C416 1.523 . S
C416 C400 1.368 . S
C416 C412 1.368 . S
C416 C415 1.523 . S
H417 C392 0.950 . S
H418 C394 0.950 1_545 S
H419 C395 0.949 . S
H420 C397 0.950 . S
H421 C399 0.950 . S
C422 C423 1.349 . S
C422 C424 1.327 . S
C422 H447 0.950 . S
C423 C422 1.349 . S
C423 C439 1.349 . S
C424 C422 1.327 . S
C424 C443 1.429 . S
C424 H448 0.950 . S
C425 C442 1.574 . S
C425 C444 1.368 . S
C425 H449 0.949 . S
H426 C430 0.949 . S
C427 C428 1.349 . S
C427 C429 1.327 1_655 S
C427 H450 0.950 . S
C428 C427 1.349 . S
C428 C440 1.349 . S
C429 C427 1.327 1_455 S
C429 C445 1.429 . S
C429 H451 0.950 . S
C430 H426 0.949 . S
C430 C438 1.574 . S
C430 C446 1.368 . S
H431 C439 0.950 . S
H432 C437 0.950 . S
H433 C438 0.949 . S
H434 C440 0.950 . S
H435 C441 0.950 . S
H436 C442 0.949 . S
C437 H432 0.950 . S
C437 C439 1.327 . S
C437 C443 1.429 . S
C438 C430 1.574 . S
C438 H433 0.949 . S
C438 C444 1.368 . S
C439 C423 1.349 . S
C439 H431 0.950 . S
C439 C437 1.327 . S
C440 C428 1.349 . S
C440 H434 0.950 . S
C440 C441 1.327 1_655 S
C441 H435 0.950 . S
C441 C440 1.327 1_455 S
C441 C445 1.429 . S
C442 C425 1.574 . S
C442 H436 0.949 . S
C442 C446 1.368 . S
C443 C424 1.429 . S
C443 C437 1.429 . S
C443 C444 1.523 . S
C444 C425 1.368 . S
C444 C438 1.368 . S
C444 C443 1.523 . S
C445 C429 1.429 . S
C445 C441 1.429 . S
C445 C446 1.523 . S
C446 C430 1.368 . S
C446 C442 1.368 . S
C446 C445 1.523 . S
H447 C422 0.950 . S
H448 C424 0.950 . S
H449 C425 0.949 . S
H450 C427 0.950 . S
H451 C429 0.950 . S
C452 C453 1.349 . S
C452 C454 1.327 1_545 S
C452 H477 0.950 . S
C453 C452 1.349 . S
C453 C469 1.349 . S
C454 C452 1.327 1_565 S
C454 C473 1.429 . S
C454 H478 0.950 . S
C455 C472 1.574 . S
C455 C474 1.368 . S
C455 H479 0.949 . S
H456 C460 0.949 . S
C457 C458 1.349 . S
C457 C459 1.327 . S
C457 H480 0.950 . S
C458 C457 1.349 . S
C458 C470 1.349 . S
C459 C457 1.327 . S
C459 C475 1.429 . S
C459 H481 0.950 . S
C460 H456 0.949 . S
C460 C468 1.574 . S
C460 C476 1.368 . S
H461 C469 0.950 . S
H462 C467 0.950 . S
H463 C468 0.949 . S
H464 C470 0.950 . S
H465 C471 0.950 . S
H466 C472 0.949 . S
C467 H462 0.950 . S
C467 C469 1.327 . S
C467 C473 1.429 1_545 S
C468 C460 1.574 . S
C468 H463 0.949 . S
C468 C474 1.368 . S
C469 C453 1.349 . S
C469 H461 0.950 . S
C469 C467 1.327 . S
C470 C458 1.349 . S
C470 H464 0.950 . S
C470 C471 1.327 . S
C471 H465 0.950 . S
C471 C470 1.327 . S
C471 C475 1.429 . S
C472 C455 1.574 . S
C472 H466 0.949 . S
C472 C476 1.368 . S
C473 C454 1.429 . S
C473 C467 1.429 1_565 S
C473 C474 1.523 . S
C474 C455 1.368 . S
C474 C468 1.368 . S
C474 C473 1.523 . S
C475 C459 1.429 . S
C475 C471 1.429 . S
C475 C476 1.523 . S
C476 C460 1.368 . S
C476 C472 1.368 . S
C476 C475 1.523 . S
H477 C452 0.950 . S
H478 C454 0.950 . S
H479 C455 0.949 . S
H480 C457 0.950 . S
H481 C459 0.950 . S
C482 C483 1.349 . S
C482 C484 1.327 . S
C482 H507 0.950 . S
C483 C482 1.349 . S
C483 C499 1.349 . S
C484 C482 1.327 . S
C484 C503 1.429 . S
C484 H508 0.950 . S
C485 C502 1.574 . S
C485 C504 1.368 . S
C485 H509 0.949 . S
H486 C490 0.949 . S
C487 C488 1.349 . S
C487 C489 1.327 . S
C487 H510 0.950 . S
C488 C487 1.349 . S
C488 C500 1.349 . S
C489 C487 1.327 . S
C489 C505 1.429 1_455 S
C489 H511 0.950 1_455 S
C490 H486 0.949 . S
C490 C498 1.574 . S
C490 C506 1.368 . S
H491 C499 0.950 . S
H492 C497 0.950 . S
H493 C498 0.949 . S
H494 C500 0.950 . S
H495 C501 0.950 . S
H496 C502 0.949 . S
C497 H492 0.950 . S
C497 C499 1.327 . S
C497 C503 1.429 . S
C498 C490 1.574 . S
C498 H493 0.949 . S
C498 C504 1.368 . S
C499 C483 1.349 . S
C499 H491 0.950 . S
C499 C497 1.327 . S
C500 C488 1.349 . S
C500 H494 0.950 . S
C500 C501 1.327 1_455 S
C501 H495 0.950 . S
C501 C500 1.327 1_655 S
C501 C505 1.429 . S
C502 C485 1.574 . S
C502 H496 0.949 . S
C502 C506 1.368 . S
C503 C484 1.429 . S
C503 C497 1.429 . S
C503 C504 1.523 . S
C504 C485 1.368 . S
C504 C498 1.368 . S
C504 C503 1.523 . S
C505 C489 1.429 1_655 S
C505 C501 1.429 . S
C505 C506 1.523 . S
C506 C490 1.368 . S
C506 C502 1.368 . S
C506 C505 1.523 . S
H507 C482 0.950 . S
H508 C484 0.950 . S
H509 C485 0.949 . S
H510 C487 0.950 . S
H511 C489 0.950 1_655 S
C512 C513 1.349 . S
C512 C514 1.327 . S
C512 H537 0.950 . S
C513 C512 1.349 . S
C513 C529 1.349 . S
C514 C512 1.327 . S
C514 C533 1.429 . S
C514 H538 0.950 . S
C515 C532 1.574 . S
C515 C534 1.368 . S
C515 H539 0.949 . S
H516 C520 0.949 . S
C517 C518 1.349 . S
C517 C519 1.327 . S
C517 H540 0.950 . S
C518 C517 1.349 . S
C518 C530 1.349 . S
C519 C517 1.327 . S
C519 C535 1.429 . S
C519 H541 0.950 . S
C520 H516 0.949 . S
C520 C528 1.574 . S
C520 C536 1.368 . S
H521 C529 0.950 . S
H522 C527 0.950 . S
H523 C528 0.949 . S
H524 C530 0.950 . S
H525 C531 0.950 . S
H526 C532 0.949 . S
C527 H522 0.950 . S
C527 C529 1.327 . S
C527 C533 1.429 . S
C528 C520 1.574 . S
C528 H523 0.949 . S
C528 C534 1.368 . S
C529 C513 1.349 . S
C529 H521 0.950 . S
C529 C527 1.327 . S
C530 C518 1.349 . S
C530 H524 0.950 . S
C530 C531 1.327 . S
C531 H525 0.950 . S
C531 C530 1.327 . S
C531 C535 1.429 . S
C532 C515 1.574 . S
C532 H526 0.949 . S
C532 C536 1.368 . S
C533 C514 1.429 . S
C533 C527 1.429 . S
C533 C534 1.523 . S
C534 C515 1.368 . S
C534 C528 1.368 . S
C534 C533 1.523 . S
C535 C519 1.429 . S
C535 C531 1.429 . S
C535 C536 1.523 . S
C536 C520 1.368 . S
C536 C532 1.368 . S
C536 C535 1.523 . S
H537 C512 0.950 . S
H538 C514 0.950 . S
H539 C515 0.949 . S
H540 C517 0.950 . S
H541 C519 0.950 . S
C542 C543 1.349 . S
C542 C544 1.327 . S
C542 H567 0.950 . S
C543 C542 1.349 . S
C543 C559 1.349 . S
C544 C542 1.327 . S
C544 C563 1.429 . S
C544 H568 0.950 . S
C545 C562 1.574 . S
C545 C564 1.368 . S
C545 H569 0.949 . S
H546 C550 0.949 . S
C547 C548 1.349 . S
C547 C549 1.327 . S
C547 H570 0.950 . S
C548 C547 1.349 . S
C548 C560 1.349 . S
C549 C547 1.327 . S
C549 C565 1.429 . S
C549 H571 0.950 . S
C550 H546 0.949 . S
C550 C558 1.574 . S
C550 C566 1.368 . S
H551 C559 0.950 . S
H552 C557 0.950 . S
H553 C558 0.949 . S
H554 C560 0.950 . S
H555 C561 0.950 . S
H556 C562 0.949 . S
C557 H552 0.950 . S
C557 C559 1.327 . S
C557 C563 1.429 . S
C558 C550 1.574 . S
C558 H553 0.949 . S
C558 C564 1.368 . S
C559 C543 1.349 . S
C559 H551 0.950 . S
C559 C557 1.327 . S
C560 C548 1.349 . S
C560 H554 0.950 . S
C560 C561 1.327 . S
C561 H555 0.950 . S
C561 C560 1.327 . S
C561 C565 1.429 . S
C562 C545 1.574 . S
C562 H556 0.949 . S
C562 C566 1.368 . S
C563 C544 1.429 . S
C563 C557 1.429 . S
C563 C564 1.523 . S
C564 C545 1.368 . S
C564 C558 1.368 . S
C564 C563 1.523 . S
C565 C549 1.429 . S
C565 C561 1.429 . S
C565 C566 1.523 . S
C566 C550 1.368 . S
C566 C562 1.368 . S
C566 C565 1.523 . S
H567 C542 0.950 . S
H568 C544 0.950 . S
H569 C545 0.949 . S
H570 C547 0.950 . S
H571 C549 0.950 . S
C572 C573 1.349 . S
C572 C574 1.327 . S
C572 H597 0.950 . S
C573 C572 1.349 . S
C573 C589 1.349 . S
C574 C572 1.327 . S
C574 C593 1.429 . S
C574 H598 0.950 . S
C575 C592 1.574 . S
C575 C594 1.368 . S
C575 H599 0.949 . S
H576 C580 0.949 . S
C577 C578 1.349 . S
C577 C579 1.327 . S
C577 H600 0.950 . S
C578 C577 1.349 . S
C578 C590 1.349 . S
C579 C577 1.327 . S
C579 C595 1.429 . S
C579 H601 0.950 . S
C580 H576 0.949 . S
C580 C588 1.574 . S
C580 C596 1.368 . S
H581 C589 0.950 . S
H582 C587 0.950 . S
H583 C588 0.949 . S
H584 C590 0.950 . S
H585 C591 0.950 . S
H586 C592 0.949 . S
C587 H582 0.950 . S
C587 C589 1.327 . S
C587 C593 1.429 . S
C588 C580 1.574 . S
C588 H583 0.949 . S
C588 C594 1.368 . S
C589 C573 1.349 . S
C589 H581 0.950 . S
C589 C587 1.327 . S
C590 C578 1.349 . S
C590 H584 0.950 . S
C590 C591 1.327 . S
C591 H585 0.950 . S
C591 C590 1.327 . S
C591 C595 1.429 . S
C592 C575 1.574 . S
C592 H586 0.949 . S
C592 C596 1.368 . S
C593 C574 1.429 . S
C593 C587 1.429 . S
C593 C594 1.523 . S
C594 C575 1.368 . S
C594 C588 1.368 . S
C594 C593 1.523 . S
C595 C579 1.429 . S
C595 C591 1.429 . S
C595 C596 1.523 . S
C596 C580 1.368 . S
C596 C592 1.368 . S
C596 C595 1.523 . S
H597 C572 0.950 . S
H598 C574 0.950 . S
H599 C575 0.949 . S
H600 C577 0.950 . S
H601 C579 0.950 . S
C602 C603 1.349 . S
C602 C604 1.327 . S
C602 H627 0.950 . S
C603 C602 1.349 . S
C603 C619 1.349 . S
C604 C602 1.327 . S
C604 C623 1.429 . S
C604 H628 0.950 . S
C605 C622 1.574 . S
C605 C624 1.368 . S
C605 H629 0.949 . S
H606 C610 0.949 . S
C607 C608 1.349 . S
C607 C609 1.327 . S
C607 H630 0.950 . S
C608 C607 1.349 . S
C608 C620 1.349 . S
C609 C607 1.327 . S
C609 C625 1.429 . S
C609 H631 0.950 . S
C610 H606 0.949 . S
C610 C618 1.574 . S
C610 C626 1.368 . S
H611 C619 0.950 . S
H612 C617 0.950 . S
H613 C618 0.949 . S
H614 C620 0.950 . S
H615 C621 0.950 . S
H616 C622 0.949 . S
C617 H612 0.950 . S
C617 C619 1.327 . S
C617 C623 1.429 . S
C618 C610 1.574 . S
C618 H613 0.949 . S
C618 C624 1.368 . S
C619 C603 1.349 . S
C619 H611 0.950 . S
C619 C617 1.327 . S
C620 C608 1.349 . S
C620 H614 0.950 . S
C620 C621 1.327 . S
C621 H615 0.950 . S
C621 C620 1.327 . S
C621 C625 1.429 . S
C622 C605 1.574 . S
C622 H616 0.949 . S
C622 C626 1.368 . S
C623 C604 1.429 . S
C623 C617 1.429 . S
C623 C624 1.523 . S
C624 C605 1.368 . S
C624 C618 1.368 . S
C624 C623 1.523 . S
C625 C609 1.429 . S
C625 C621 1.429 . S
C625 C626 1.523 . S
C626 C610 1.368 . S
C626 C622 1.368 . S
C626 C625 1.523 . S
H627 C602 0.950 . S
H628 C604 0.950 . S
H629 C605 0.949 . S
H630 C607 0.950 . S
H631 C609 0.950 . S
C632 C633 1.349 . S
C632 C634 1.327 . S
C632 H657 0.950 . S
C633 C632 1.349 . S
C633 C649 1.349 . S
C634 C632 1.327 . S
C634 C653 1.429 . S
C634 H658 0.950 . S
C635 C652 1.574 . S
C635 C654 1.368 . S
C635 H659 0.949 . S
H636 C640 0.949 . S
C637 C638 1.349 . S
C637 C639 1.327 . S
C637 H660 0.950 . S
C638 C637 1.349 . S
C638 C650 1.349 . S
C639 C637 1.327 . S
C639 C655 1.429 . S
C639 H661 0.950 . S
C640 H636 0.949 . S
C640 C648 1.574 . S
C640 C656 1.368 . S
H641 C649 0.950 . S
H642 C647 0.950 . S
H643 C648 0.949 . S
H644 C650 0.950 . S
H645 C651 0.950 . S
H646 C652 0.949 . S
C647 H642 0.950 . S
C647 C649 1.327 . S
C647 C653 1.429 . S
C648 C640 1.574 . S
C648 H643 0.949 . S
C648 C654 1.368 . S
C649 C633 1.349 . S
C649 H641 0.950 . S
C649 C647 1.327 . S
C650 C638 1.349 . S
C650 H644 0.950 . S
C650 C651 1.327 . S
C651 H645 0.950 . S
C651 C650 1.327 . S
C651 C655 1.429 . S
C652 C635 1.574 . S
C652 H646 0.949 . S
C652 C656 1.368 . S
C653 C634 1.429 . S
C653 C647 1.429 . S
C653 C654 1.523 . S
C654 C635 1.368 . S
C654 C648 1.368 . S
C654 C653 1.523 . S
C655 C639 1.429 . S
C655 C651 1.429 . S
C655 C656 1.523 . S
C656 C640 1.368 . S
C656 C652 1.368 . S
C656 C655 1.523 . S
H657 C632 0.950 . S
H658 C634 0.950 . S
H659 C635 0.949 . S
H660 C637 0.950 . S
H661 C639 0.950 . S
C662 C663 1.349 . S
C662 C664 1.327 . S
C662 H687 0.950 . S
C663 C662 1.349 . S
C663 C679 1.349 . S
C664 C662 1.327 . S
C664 C683 1.429 . S
C664 H688 0.950 . S
C665 C682 1.574 . S
C665 C684 1.368 . S
C665 H689 0.949 . S
H666 C670 0.949 . S
C667 C668 1.349 . S
C667 C669 1.327 . S
C667 H690 0.950 . S
C668 C667 1.349 . S
C668 C680 1.349 . S
C669 C667 1.327 . S
C669 C685 1.429 . S
C669 H691 0.950 . S
C670 H666 0.949 . S
C670 C678 1.574 . S
C670 C686 1.368 . S
H671 C679 0.950 . S
H672 C677 0.950 . S
H673 C678 0.949 . S
H674 C680 0.950 . S
H675 C681 0.950 . S
H676 C682 0.949 . S
C677 H672 0.950 . S
C677 C679 1.327 . S
C677 C683 1.429 . S
C678 C670 1.574 . S
C678 H673 0.949 . S
C678 C684 1.368 . S
C679 C663 1.349 . S
C679 H671 0.950 . S
C679 C677 1.327 . S
C680 C668 1.349 . S
C680 H674 0.950 . S
C680 C681 1.327 . S
C681 H675 0.950 . S
C681 C680 1.327 . S
C681 C685 1.429 . S
C682 C665 1.574 . S
C682 H676 0.949 . S
C682 C686 1.368 . S
C683 C664 1.429 . S
C683 C677 1.429 . S
C683 C684 1.523 . S
C684 C665 1.368 . S
C684 C678 1.368 . S
C684 C683 1.523 . S
C685 C669 1.429 . S
C685 C681 1.429 . S
C685 C686 1.523 . S
C686 C670 1.368 . S
C686 C682 1.368 . S
C686 C685 1.523 . S
H687 C662 0.950 . S
H688 C664 0.950 . S
H689 C665 0.949 . S
H690 C667 0.950 . S
H691 C669 0.950 . S
C692 C693 1.349 . S
C692 C694 1.327 . S
C692 H717 0.950 . S
C693 C692 1.349 . S
C693 C709 1.349 . S
C694 C692 1.327 . S
C694 C713 1.429 . S
C694 H718 0.950 . S
C695 C712 1.574 . S
C695 C714 1.368 . S
C695 H719 0.949 . S
H696 C700 0.949 . S
C697 C698 1.349 . S
C697 C699 1.327 . S
C697 H720 0.950 . S
C698 C697 1.349 . S
C698 C710 1.349 . S
C699 C697 1.327 . S
C699 C715 1.429 . S
C699 H721 0.950 . S
C700 H696 0.949 . S
C700 C708 1.574 . S
C700 C716 1.368 . S
H701 C709 0.950 . S
H702 C707 0.950 . S
H703 C708 0.949 . S
H704 C710 0.950 . S
H705 C711 0.950 . S
H706 C712 0.949 . S
C707 H702 0.950 . S
C707 C709 1.327 . S
C707 C713 1.429 . S
C708 C700 1.574 . S
C708 H703 0.949 . S
C708 C714 1.368 . S
C709 C693 1.349 . S
C709 H701 0.950 . S
C709 C707 1.327 . S
C710 C698 1.349 . S
C710 H704 0.950 . S
C710 C711 1.327 . S
C711 H705 0.950 . S
C711 C710 1.327 . S
C711 C715 1.429 . S
C712 C695 1.574 . S
C712 H706 0.949 . S
C712 C716 1.368 . S
C713 C694 1.429 . S
C713 C707 1.429 . S
C713 C714 1.523 . S
C714 C695 1.368 . S
C714 C708 1.368 . S
C714 C713 1.523 . S
C715 C699 1.429 . S
C715 C711 1.429 . S
C715 C716 1.523 . S
C716 C700 1.368 . S
C716 C712 1.368 . S
C716 C715 1.523 . S
H717 C692 0.950 . S
H718 C694 0.950 . S
H719 C695 0.949 . S
H720 C697 0.950 . S
H721 C699 0.950 . S
C722 C723 1.349 . S
C722 C724 1.327 . S
C722 H747 0.950 . S
C723 C722 1.349 . S
C723 C739 1.349 . S
C724 C722 1.327 . S
C724 C743 1.429 . S
C724 H748 0.950 . S
C725 C742 1.574 . S
C725 C744 1.368 . S
C725 H749 0.949 . S
H726 C730 0.949 . S
C727 C728 1.349 . S
C727 C729 1.327 . S
C727 H750 0.950 . S
C728 C727 1.349 . S
C728 C740 1.349 . S
C729 C727 1.327 . S
C729 C745 1.429 . S
C729 H751 0.950 . S
C730 H726 0.949 . S
C730 C738 1.574 . S
C730 C746 1.368 . S
H731 C739 0.950 . S
H732 C737 0.950 . S
H733 C738 0.949 . S
H734 C740 0.950 . S
H735 C741 0.950 . S
H736 C742 0.949 . S
C737 H732 0.950 . S
C737 C739 1.327 . S
C737 C743 1.429 . S
C738 C730 1.574 . S
C738 H733 0.949 . S
C738 C744 1.368 . S
C739 C723 1.349 . S
C739 H731 0.950 . S
C739 C737 1.327 . S
C740 C728 1.349 . S
C740 H734 0.950 . S
C740 C741 1.327 . S
C741 H735 0.950 . S
C741 C740 1.327 . S
C741 C745 1.429 . S
C742 C725 1.574 . S
C742 H736 0.949 . S
C742 C746 1.368 . S
C743 C724 1.429 . S
C743 C737 1.429 . S
C743 C744 1.523 . S
C744 C725 1.368 . S
C744 C738 1.368 . S
C744 C743 1.523 . S
C745 C729 1.429 . S
C745 C741 1.429 . S
C745 C746 1.523 . S
C746 C730 1.368 . S
C746 C742 1.368 . S
C746 C745 1.523 . S
H747 C722 0.950 . S
H748 C724 0.950 . S
H749 C725 0.949 . S
H750 C727 0.950 . S
H751 C729 0.950 . S
C752 C753 1.349 . S
C752 C754 1.327 . S
C752 H777 0.950 . S
C753 C752 1.349 . S
C753 C769 1.349 . S
C754 C752 1.327 . S
C754 C773 1.429 . S
C754 H778 0.950 . S
C755 C772 1.559 1_445 S
C755 C774 1.368 . S
C755 H779 0.949 . S
H756 C760 0.949 . S
C757 C758 1.349 . S
C757 C759 1.327 . S
C757 H780 0.950 . S
C758 C757 1.349 . S
C758 C770 1.349 . S
C759 C757 1.327 . S
C759 C775 1.429 . S
C759 H781 0.950 . S
C760 H756 0.949 . S
C760 C768 1.559 1_665 S
C760 C776 1.368 . S
H761 C769 0.950 . S
H762 C767 0.950 . S
H763 C768 0.950 . S
H764 C770 0.950 . S
H765 C771 0.950 . S
H766 C772 0.950 . S
C767 H762 0.950 . S
C767 C769 1.327 . S
C767 C773 1.429 . S
C768 C760 1.559 1_445 S
C768 H763 0.950 . S
C768 C774 1.382 . S
C769 C753 1.349 . S
C769 H761 0.950 . S
C769 C767 1.327 . S
C770 C758 1.349 . S
C770 H764 0.950 . S
C770 C771 1.327 . S
C771 H765 0.950 . S
C771 C770 1.327 . S
C771 C775 1.429 . S
C772 C755 1.559 1_665 S
C772 H766 0.950 . S
C772 C776 1.382 . S
C773 C754 1.429 . S
C773 C767 1.429 . S
C773 C774 1.523 . S
C774 C755 1.368 . S
C774 C768 1.382 . S
C774 C773 1.523 . S
C775 C759 1.429 . S
C775 C771 1.429 . S
C775 C776 1.523 . S
C776 C760 1.368 . S
C776 C772 1.382 . S
C776 C775 1.523 . S
H777 C752 0.950 . S
H778 C754 0.950 . S
H779 C755 0.949 . S
H780 C757 0.950 . S
H781 C759 0.950 . S
C782 C783 1.349 . S
C782 C784 1.327 . S
C782 H807 0.950 . S
C783 C782 1.349 . S
C783 C799 1.349 . S
C784 C782 1.327 . S
C784 C803 1.429 . S
C784 H808 0.950 . S
C785 C802 1.559 1_645 S
C785 C804 1.382 . S
C785 H809 0.950 . S
H786 C790 0.950 . S
C787 C788 1.349 . S
C787 C789 1.327 . S
C787 H810 0.950 . S
C788 C787 1.349 . S
C788 C800 1.349 . S
C789 C787 1.327 . S
C789 C805 1.429 . S
C789 H811 0.950 . S
C790 H786 0.950 . S
C790 C798 1.559 1_465 S
C790 C806 1.382 . S
H791 C799 0.950 . S
H792 C797 0.950 . S
H793 C798 0.949 . S
H794 C800 0.950 . S
H795 C801 0.950 . S
H796 C802 0.949 . S
C797 H792 0.950 . S
C797 C799 1.327 . S
C797 C803 1.429 . S
C798 C790 1.559 1_645 S
C798 H793 0.949 . S
C798 C804 1.368 . S
C799 C783 1.349 . S
C799 H791 0.950 . S
C799 C797 1.327 . S
C800 C788 1.349 . S
C800 H794 0.950 . S
C800 C801 1.327 . S
C801 H795 0.950 . S
C801 C800 1.327 . S
C801 C805 1.429 . S
C802 C785 1.559 1_465 S
C802 H796 0.949 . S
C802 C806 1.368 . S
C803 C784 1.429 . S
C803 C797 1.429 . S
C803 C804 1.523 . S
C804 C785 1.382 . S
C804 C798 1.368 . S
C804 C803 1.523 . S
C805 C789 1.429 . S
C805 C801 1.429 . S
C805 C806 1.523 . S
C806 C790 1.382 . S
C806 C802 1.368 . S
C806 C805 1.523 . S
H807 C782 0.950 . S
H808 C784 0.950 . S
H809 C785 0.950 . S
H810 C787 0.950 . S
H811 C789 0.950 . S
C812 C813 1.349 . S
C812 C814 1.327 . S
C812 H837 0.950 . S
C813 C812 1.349 . S
C813 C829 1.349 . S
C814 C812 1.327 . S
C814 C833 1.429 . S
C814 H838 0.950 . S
C815 C832 1.574 . S
C815 C834 1.368 . S
C815 H839 0.949 . S
H816 C820 0.949 . S
C817 C818 1.349 . S
C817 C819 1.327 . S
C817 H840 0.950 . S
C818 C817 1.349 . S
C818 C830 1.349 . S
C819 C817 1.327 . S
C819 C835 1.429 . S
C819 H841 0.950 . S
C820 H816 0.949 . S
C820 C828 1.574 . S
C820 C836 1.368 . S
H821 C829 0.950 . S
H822 C827 0.950 . S
H823 C828 0.949 . S
H824 C830 0.950 . S
H825 C831 0.950 . S
H826 C832 0.949 . S
C827 H822 0.950 . S
C827 C829 1.327 . S
C827 C833 1.429 . S
C828 C820 1.574 . S
C828 H823 0.949 . S
C828 C834 1.368 . S
C829 C813 1.349 . S
C829 H821 0.950 . S
C829 C827 1.327 . S
C830 C818 1.349 . S
C830 H824 0.950 . S
C830 C831 1.327 . S
C831 H825 0.950 . S
C831 C830 1.327 . S
C831 C835 1.429 . S
C832 C815 1.574 . S
C832 H826 0.949 . S
C832 C836 1.368 . S
C833 C814 1.429 . S
C833 C827 1.429 . S
C833 C834 1.523 . S
C834 C815 1.368 . S
C834 C828 1.368 . S
C834 C833 1.523 . S
C835 C819 1.429 . S
C835 C831 1.429 . S
C835 C836 1.523 . S
C836 C820 1.368 . S
C836 C832 1.368 . S
C836 C835 1.523 . S
H837 C812 0.950 . S
H838 C814 0.950 . S
H839 C815 0.949 . S
H840 C817 0.950 . S
H841 C819 0.950 . S
C842 C843 1.349 . S
C842 C844 1.327 . S
C842 H867 0.950 . S
C843 C842 1.349 . S
C843 C859 1.349 . S
C844 C842 1.327 . S
C844 C863 1.429 . S
C844 H868 0.950 . S
C845 C862 1.574 . S
C845 C864 1.368 . S
C845 H869 0.949 . S
H846 C850 0.949 . S
C847 C848 1.349 . S
C847 C849 1.327 . S
C847 H870 0.950 . S
C848 C847 1.349 . S
C848 C860 1.349 . S
C849 C847 1.327 . S
C849 C865 1.429 . S
C849 H871 0.950 . S
C850 H846 0.949 . S
C850 C858 1.574 . S
C850 C866 1.368 . S
H851 C859 0.950 . S
H852 C857 0.950 . S
H853 C858 0.949 . S
H854 C860 0.950 . S
H855 C861 0.950 . S
H856 C862 0.949 . S
C857 H852 0.950 . S
C857 C859 1.327 . S
C857 C863 1.429 . S
C858 C850 1.574 . S
C858 H853 0.949 . S
C858 C864 1.368 . S
C859 C843 1.349 . S
C859 H851 0.950 . S
C859 C857 1.327 . S
C860 C848 1.349 . S
C860 H854 0.950 . S
C860 C861 1.327 . S
C861 H855 0.950 . S
C861 C860 1.327 . S
C861 C865 1.429 . S
C862 C845 1.574 . S
C862 H856 0.949 . S
C862 C866 1.368 . S
C863 C844 1.429 . S
C863 C857 1.429 . S
C863 C864 1.523 . S
C864 C845 1.368 . S
C864 C858 1.368 . S
C864 C863 1.523 . S
C865 C849 1.429 . S
C865 C861 1.429 . S
C865 C866 1.523 . S
C866 C850 1.368 . S
C866 C862 1.368 . S
C866 C865 1.523 . S
H867 C842 0.950 . S
H868 C844 0.950 . S
H869 C845 0.949 . S
H870 C847 0.950 . S
H871 C849 0.950 . S
C872 C873 1.349 . S
C872 C874 1.327 . S
C872 H897 0.950 . S
C873 C872 1.349 . S
C873 C889 1.349 . S
C874 C872 1.327 . S
C874 C893 1.429 . S
C874 H898 0.950 . S
C875 C892 1.596 . S
C875 C894 1.346 1_565 S
C875 H899 0.949 . S
H876 C880 0.949 . S
C877 C878 1.349 . S
C877 C879 1.327 . S
C877 H900 0.950 . S
C878 C877 1.349 . S
C878 C890 1.349 . S
C879 C877 1.327 . S
C879 C895 1.429 . S
C879 H901 0.950 . S
C880 H876 0.949 . S
C880 C888 1.596 . S
C880 C896 1.346 1_545 S
H881 C889 0.950 . S
H882 C887 0.950 . S
H883 C888 0.949 . S
H884 C890 0.950 . S
H885 C891 0.950 . S
H886 C892 0.949 . S
C887 H882 0.950 . S
C887 C889 1.327 . S
C887 C893 1.429 . S
C888 C880 1.596 . S
C888 H883 0.949 . S
C888 C894 1.368 1_556 S
C889 C873 1.349 . S
C889 H881 0.950 . S
C889 C887 1.327 . S
C890 C878 1.349 . S
C890 H884 0.950 . S
C890 C891 1.327 . S
C891 H885 0.950 . S
C891 C890 1.327 . S
C891 C895 1.429 . S
C892 C875 1.596 . S
C892 H886 0.949 . S
C892 C896 1.368 1_554 S
C893 C874 1.429 . S
C893 C887 1.429 . S
C893 C894 1.523 . S
C894 C875 1.346 1_545 S
C894 C888 1.368 1_554 S
C894 C893 1.523 . S
C895 C879 1.429 . S
C895 C891 1.429 . S
C895 C896 1.523 . S
C896 C880 1.346 1_565 S
C896 C892 1.368 1_556 S
C896 C895 1.523 . S
H897 C872 0.950 . S
H898 C874 0.950 . S
H899 C875 0.949 . S
H900 C877 0.950 . S
H901 C879 0.950 . S
C902 C903 1.349 . S
C902 C904 1.327 . S
C902 H927 0.950 . S
C903 C902 1.349 . S
C903 C919 1.349 . S
C904 C902 1.327 . S
C904 C923 1.429 . S
C904 H928 0.950 . S
C905 C922 1.575 1_456 S
C905 C924 1.367 . S
C905 H929 0.949 . S
H906 C910 0.949 . S
C907 C908 1.349 . S
C907 C909 1.327 . S
C907 H930 0.950 . S
C908 C907 1.349 . S
C908 C920 1.349 . S
C909 C907 1.327 . S
C909 C925 1.429 . S
C909 H931 0.950 . S
C910 H906 0.949 . S
C910 C918 1.575 1_654 S
C910 C926 1.367 . S
H911 C919 0.950 . S
H912 C917 0.950 . S
H913 C918 0.949 . S
H914 C920 0.950 . S
H915 C921 0.950 . S
H916 C922 0.949 . S
C917 H912 0.950 . S
C917 C919 1.327 . S
C917 C923 1.429 . S
C918 C910 1.575 1_456 S
C918 H913 0.949 . S
C918 C924 1.368 . S
C919 C903 1.349 . S
C919 H911 0.950 . S
C919 C917 1.327 . S
C920 C908 1.349 . S
C920 H914 0.950 . S
C920 C921 1.327 . S
C921 H915 0.950 . S
C921 C920 1.327 . S
C921 C925 1.429 . S
C922 C905 1.575 1_654 S
C922 H916 0.949 . S
C922 C926 1.368 . S
C923 C904 1.429 . S
C923 C917 1.429 . S
C923 C924 1.523 . S
C924 C905 1.367 . S
C924 C918 1.368 . S
C924 C923 1.523 . S
C925 C909 1.429 . S
C925 C921 1.429 . S
C925 C926 1.523 . S
C926 C910 1.367 . S
C926 C922 1.368 . S
C926 C925 1.523 . S
H927 C902 0.950 . S
H928 C904 0.950 . S
H929 C905 0.949 . S
H930 C907 0.950 . S
H931 C909 0.950 . S
C932 C933 1.349 . S
C932 C934 1.327 . S
C932 H957 0.950 . S
C933 C932 1.349 . S
C933 C949 1.349 . S
C934 C932 1.327 . S
C934 C953 1.429 . S
C934 H958 0.950 . S
C935 C952 1.574 . S
C935 C954 1.368 1_565 S
C935 H959 0.949 . S
H936 C940 0.949 . S
C937 C938 1.349 . S
C937 C939 1.327 . S
C937 H960 0.950 . S
C938 C937 1.349 . S
C938 C950 1.349 . S
C939 C937 1.327 . S
C939 C955 1.429 . S
C939 H961 0.950 . S
C940 H936 0.949 . S
C940 C948 1.574 . S
C940 C956 1.368 1_545 S
H941 C949 0.950 . S
H942 C947 0.950 . S
H943 C948 0.949 . S
H944 C950 0.950 . S
H945 C951 0.950 . S
H946 C952 0.949 . S
C947 H942 0.950 . S
C947 C949 1.327 . S
C947 C953 1.429 . S
C948 C940 1.574 . S
C948 H943 0.949 . S
C948 C954 1.368 1_554 S
C949 C933 1.349 . S
C949 H941 0.950 . S
C949 C947 1.327 . S
C950 C938 1.349 . S
C950 H944 0.950 . S
C950 C951 1.327 . S
C951 H945 0.950 . S
C951 C950 1.327 . S
C951 C955 1.429 . S
C952 C935 1.574 . S
C952 H946 0.949 . S
C952 C956 1.368 1_556 S
C953 C934 1.429 . S
C953 C947 1.429 . S
C953 C954 1.523 . S
C954 C935 1.368 1_545 S
C954 C948 1.368 1_556 S
C954 C953 1.523 . S
C955 C939 1.429 . S
C955 C951 1.429 . S
C955 C956 1.523 . S
C956 C940 1.368 1_565 S
C956 C952 1.368 1_554 S
C956 C955 1.523 . S
H957 C932 0.950 . S
H958 C934 0.950 . S
H959 C935 0.949 . S
H960 C937 0.950 . S
H961 C939 0.950 . S
C962 C963 1.349 . S
C962 C964 1.327 . S
C962 H987 0.950 . S
C963 C962 1.349 . S
C963 C979 1.349 . S
C964 C962 1.327 . S
C964 C983 1.429 . S
C964 H988 0.950 . S
C965 C982 1.575 1_454 S
C965 C984 1.367 . S
C965 H989 0.949 . S
H966 C970 0.949 . S
C967 C968 1.349 . S
C967 C969 1.327 . S
C967 H990 0.950 . S
C968 C967 1.349 . S
C968 C980 1.349 . S
C969 C967 1.327 . S
C969 C985 1.429 . S
C969 H991 0.950 . S
C970 H966 0.949 . S
C970 C978 1.575 1_656 S
C970 C986 1.367 . S
H971 C979 0.950 . S
H972 C977 0.950 . S
H973 C978 0.949 . S
H974 C980 0.950 . S
H975 C981 0.950 . S
H976 C982 0.949 . S
C977 H972 0.950 . S
C977 C979 1.327 . S
C977 C983 1.429 . S
C978 C970 1.575 1_454 S
C978 H973 0.949 . S
C978 C984 1.368 . S
C979 C963 1.349 . S
C979 H971 0.950 . S
C979 C977 1.327 . S
C980 C968 1.349 . S
C980 H974 0.950 . S
C980 C981 1.327 . S
C981 H975 0.950 . S
C981 C980 1.327 . S
C981 C985 1.429 . S
C982 C965 1.575 1_656 S
C982 H976 0.949 . S
C982 C986 1.368 . S
C983 C964 1.429 . S
C983 C977 1.429 . S
C983 C984 1.523 . S
C984 C965 1.367 . S
C984 C978 1.368 . S
C984 C983 1.523 . S
C985 C969 1.429 . S
C985 C981 1.429 . S
C985 C986 1.523 . S
C986 C970 1.367 . S
C986 C982 1.368 . S
C986 C985 1.523 . S
H987 C962 0.950 . S
H988 C964 0.950 . S
H989 C965 0.949 . S
H990 C967 0.950 . S
H991 C969 0.950 . S
C992 C993 1.349 . S
C992 C994 1.327 . S
C992 H1017 0.950 . S
C993 C992 1.349 . S
C993 C1009 1.349 . S
C994 C992 1.327 . S
C994 C1013 1.429 . S
C994 H1018 0.950 . S
C995 C1012 1.574 . S
C995 C1014 1.368 . S
C995 H1019 0.949 . S
H996 C1000 0.949 . S
C997 C998 1.349 . S
C997 C999 1.327 . S
C997 H1020 0.950 . S
C998 C997 1.349 . S
C998 C1010 1.349 . S
C999 C997 1.327 . S
C999 C1015 1.429 . S
C999 H1021 0.950 . S
C1000 H996 0.949 . S
C1000 C1008 1.574 . S
C1000 C1016 1.368 . S
H1001 C1009 0.950 . S
H1002 C1007 0.950 . S
H1003 C1008 0.949 . S
H1004 C1010 0.950 . S
H1005 C1011 0.950 . S
H1006 C1012 0.949 . S
C1007 H1002 0.950 . S
C1007 C1009 1.327 . S
C1007 C1013 1.429 . S
C1008 C1000 1.574 . S
C1008 H1003 0.949 . S
C1008 C1014 1.368 . S
C1009 C993 1.349 . S
C1009 H1001 0.950 . S
C1009 C1007 1.327 . S
C1010 C998 1.349 . S
C1010 H1004 0.950 . S
C1010 C1011 1.327 . S
C1011 H1005 0.950 . S
C1011 C1010 1.327 . S
C1011 C1015 1.429 . S
C1012 C995 1.574 . S
C1012 H1006 0.949 . S
C1012 C1016 1.368 . S
C1013 C994 1.429 . S
C1013 C1007 1.429 . S
C1013 C1014 1.523 . S
C1014 C995 1.368 . S
C1014 C1008 1.368 . S
C1014 C1013 1.523 . S
C1015 C999 1.429 . S
C1015 C1011 1.429 . S
C1015 C1016 1.523 . S
C1016 C1000 1.368 . S
C1016 C1012 1.368 . S
C1016 C1015 1.523 . S
H1017 C992 0.950 . S
H1018 C994 0.950 . S
H1019 C995 0.949 . S
H1020 C997 0.950 . S
H1021 C999 0.950 . S
C1022 C1023 1.349 . S
C1022 C1024 1.327 . S
C1022 H1047 0.950 . S
C1023 C1022 1.349 . S
C1023 C1039 1.349 . S
C1024 C1022 1.327 . S
C1024 C1043 1.429 . S
C1024 H1048 0.950 . S
C1025 C1042 1.574 . S
C1025 C1044 1.368 . S
C1025 H1049 0.949 . S
H1026 C1030 0.949 . S
C1027 C1028 1.349 . S
C1027 C1029 1.327 . S
C1027 H1050 0.950 . S
C1028 C1027 1.349 . S
C1028 C1040 1.349 . S
C1029 C1027 1.327 . S
C1029 C1045 1.429 . S
C1029 H1051 0.950 . S
C1030 H1026 0.949 . S
C1030 C1038 1.574 . S
C1030 C1046 1.368 . S
H1031 C1039 0.950 . S
H1032 C1037 0.950 . S
H1033 C1038 0.949 . S
H1034 C1040 0.950 . S
H1035 C1041 0.950 . S
H1036 C1042 0.949 . S
C1037 H1032 0.950 . S
C1037 C1039 1.327 . S
C1037 C1043 1.429 . S
C1038 C1030 1.574 . S
C1038 H1033 0.949 . S
C1038 C1044 1.368 . S
C1039 C1023 1.349 . S
C1039 H1031 0.950 . S
C1039 C1037 1.327 . S
C1040 C1028 1.349 . S
C1040 H1034 0.950 . S
C1040 C1041 1.327 . S
C1041 H1035 0.950 . S
C1041 C1040 1.327 . S
C1041 C1045 1.429 . S
C1042 C1025 1.574 . S
C1042 H1036 0.949 . S
C1042 C1046 1.368 . S
C1043 C1024 1.429 . S
C1043 C1037 1.429 . S
C1043 C1044 1.523 . S
C1044 C1025 1.368 . S
C1044 C1038 1.368 . S
C1044 C1043 1.523 . S
C1045 C1029 1.429 . S
C1045 C1041 1.429 . S
C1045 C1046 1.523 . S
C1046 C1030 1.368 . S
C1046 C1042 1.368 . S
C1046 C1045 1.523 . S
H1047 C1022 0.950 . S
H1048 C1024 0.950 . S
H1049 C1025 0.949 . S
H1050 C1027 0.950 . S
H1051 C1029 0.950 . S
C1052 C1053 1.349 . S
C1052 C1054 1.327 . S
C1052 H1077 0.950 . S
C1053 C1052 1.349 . S
C1053 C1069 1.349 . S
C1054 C1052 1.327 . S
C1054 C1073 1.429 . S
C1054 H1078 0.950 . S
C1055 C1072 1.574 . S
C1055 C1074 1.368 . S
C1055 H1079 0.949 . S
H1056 C1060 0.949 . S
C1057 C1058 1.349 . S
C1057 C1059 1.327 . S
C1057 H1080 0.950 . S
C1058 C1057 1.349 . S
C1058 C1070 1.349 . S
C1059 C1057 1.327 . S
C1059 C1075 1.429 . S
C1059 H1081 0.950 . S
C1060 H1056 0.949 . S
C1060 C1068 1.574 . S
C1060 C1076 1.368 . S
H1061 C1069 0.950 . S
H1062 C1067 0.950 . S
H1063 C1068 0.949 . S
H1064 C1070 0.950 . S
H1065 C1071 0.950 . S
H1066 C1072 0.949 . S
C1067 H1062 0.950 . S
C1067 C1069 1.327 . S
C1067 C1073 1.429 . S
C1068 C1060 1.574 . S
C1068 H1063 0.949 . S
C1068 C1074 1.368 . S
C1069 C1053 1.349 . S
C1069 H1061 0.950 . S
C1069 C1067 1.327 . S
C1070 C1058 1.349 . S
C1070 H1064 0.950 . S
C1070 C1071 1.327 . S
C1071 H1065 0.950 . S
C1071 C1070 1.327 . S
C1071 C1075 1.429 . S
C1072 C1055 1.574 . S
C1072 H1066 0.949 . S
C1072 C1076 1.368 . S
C1073 C1054 1.429 . S
C1073 C1067 1.429 . S
C1073 C1074 1.523 . S
C1074 C1055 1.368 . S
C1074 C1068 1.368 . S
C1074 C1073 1.523 . S
C1075 C1059 1.429 . S
C1075 C1071 1.429 . S
C1075 C1076 1.523 . S
C1076 C1060 1.368 . S
C1076 C1072 1.368 . S
C1076 C1075 1.523 . S
H1077 C1052 0.950 . S
H1078 C1054 0.950 . S
H1079 C1055 0.949 . S
H1080 C1057 0.950 . S
H1081 C1059 0.950 . S
C1082 C1083 1.349 . S
C1082 C1084 1.327 . S
C1082 H1107 0.950 . S
C1083 C1082 1.349 . S
C1083 C1099 1.349 . S
C1084 C1082 1.327 . S
C1084 C1103 1.429 . S
C1084 H1108 0.950 . S
C1085 C1102 1.574 . S
C1085 C1104 1.368 . S
C1085 H1109 0.949 . S
H1086 C1090 0.949 . S
C1087 C1088 1.349 . S
C1087 C1089 1.327 . S
C1087 H1110 0.950 . S
C1088 C1087 1.349 . S
C1088 C1100 1.349 . S
C1089 C1087 1.327 . S
C1089 C1105 1.429 . S
C1089 H1111 0.950 . S
C1090 H1086 0.949 . S
C1090 C1098 1.574 . S
C1090 C1106 1.368 . S
H1091 C1099 0.950 . S
H1092 C1097 0.950 . S
H1093 C1098 0.949 . S
H1094 C1100 0.950 . S
H1095 C1101 0.950 . S
H1096 C1102 0.949 . S
C1097 H1092 0.950 . S
C1097 C1099 1.327 . S
C1097 C1103 1.429 . S
C1098 C1090 1.574 . S
C1098 H1093 0.949 . S
C1098 C1104 1.368 . S
C1099 C1083 1.349 . S
C1099 H1091 0.950 . S
C1099 C1097 1.327 . S
C1100 C1088 1.349 . S
C1100 H1094 0.950 . S
C1100 C1101 1.327 . S
C1101 H1095 0.950 . S
C1101 C1100 1.327 . S
C1101 C1105 1.429 . S
C1102 C1085 1.574 . S
C1102 H1096 0.949 . S
C1102 C1106 1.368 . S
C1103 C1084 1.429 . S
C1103 C1097 1.429 . S
C1103 C1104 1.523 . S
C1104 C1085 1.368 . S
C1104 C1098 1.368 . S
C1104 C1103 1.523 . S
C1105 C1089 1.429 . S
C1105 C1101 1.429 . S
C1105 C1106 1.523 . S
C1106 C1090 1.368 . S
C1106 C1102 1.368 . S
C1106 C1105 1.523 . S
H1107 C1082 0.950 . S
H1108 C1084 0.950 . S
H1109 C1085 0.949 . S
H1110 C1087 0.950 . S
H1111 C1089 0.950 . S
C273 C28 1.722 . S
C278 C241 1.598 . S
C303 C49 1.229 . S
C308 C137 1.206 . S
C333 C173 1.598 . S
C338 C96 1.722 . S
C363 C117 1.228 . S
C368 C207 1.206 . S
C393 C40 1.722 . S
C398 C205 1.598 . S
C423 C239 1.206 . S
C428 C90 1.229 . S
C453 C108 1.722 . S
C458 C139 1.598 . S
C483 C171 1.206 . S
C488 C22 1.228 . S
C513 C142 1.722 . S
C518 C105 1.598 . S
C543 C3 1.206 . S
C548 C185 1.229 . S
C573 C37 1.598 . S
C578 C232 1.722 . S
C603 C253 1.228 . S
C608 C71 1.206 . S
C633 C176 1.722 . S
C638 C69 1.598 . S
C663 C226 1.229 . S
C668 C103 1.206 . S
C693 C244 1.722 . S
C698 C1 1.598 . S
C723 C35 1.206 . S
C728 C151 1.228 . S
C753 C17 1.405 . S
C758 C85 1.405 . S
C783 C119 1.405 . S
C788 C51 1.405 . S
C813 C153 1.405 . S
C818 C221 1.405 . S
C843 C187 1.405 . S
C848 C255 1.405 . S
C873 C15 1.176 . S
C878 C56 1.176 . S
C903 C62 0.419 . S
C908 C74 0.419 . S
C933 C124 1.176 . S
C938 C83 1.176 . S
C963 C6 0.419 . S
C968 C130 0.419 . S
C993 C192 1.176 . S
C998 C158 1.176 . S
C1023 C210 0.419 . S
C1028 C198 0.419 . S
C1053 C219 1.176 . S
C1058 C260 1.176 . S
C1083 C164 0.419 . S
C1088 C266 0.419 . S
