# Generated by pormake.
# Topology uki, (4)-cn, num edge types: 1
# Building blocks:
#     Node 0, Type 0, BuildingBlock: NAWXER_clean_sbu_0, # of connection points: 4
#     Node 1, Type 0, BuildingBlock: NAWXER_clean_sbu_0, # of connection points: 4
#     Node 2, Type 0, BuildingBlock: NAWXER_clean_sbu_0, # of connection points: 4
#     Node 3, Type 0, BuildingBlock: NAWXER_clean_sbu_0, # of connection points: 4
#     Node 4, Type 0, BuildingBlock: NAWXER_clean_sbu_0, # of connection points: 4
#     Node 5, Type 0, BuildingBlock: NAWXER_clean_sbu_0, # of connection points: 4
#     Node 6, Type 0, BuildingBlock: NAWXER_clean_sbu_0, # of connection points: 4
#     Node 7, Type 0, BuildingBlock: NAWXER_clean_sbu_0, # of connection points: 4
#     Node 8, Type 0, BuildingBlock: NAWXER_clean_sbu_0, # of connection points: 4
#     Node 9, Type 0, BuildingBlock: NAWXER_clean_sbu_0, # of connection points: 4
#     Node 10, Type 0, BuildingBlock: NAWXER_clean_sbu_0, # of connection points: 4
#     Node 11, Type 0, BuildingBlock: NAWXER_clean_sbu_0, # of connection points: 4
#     Node 12, Type 0, BuildingBlock: NAWXER_clean_sbu_0, # of connection points: 4
#     Node 13, Type 0, BuildingBlock: NAWXER_clean_sbu_0, # of connection points: 4
#     Node 14, Type 0, BuildingBlock: NAWXER_clean_sbu_0, # of connection points: 4
#     Node 15, Type 0, BuildingBlock: NAWXER_clean_sbu_0, # of connection points: 4
#     Edge 16, Type (0, 0), BuildingBlock: AJUNOK_clean_linker_0, # of connection points: 2
#     Edge 17, Type (0, 0), BuildingBlock: AJUNOK_clean_linker_0, # of connection points: 2
#     Edge 18, Type (0, 0), BuildingBlock: AJUNOK_clean_linker_0, # of connection points: 2
#     Edge 19, Type (0, 0), BuildingBlock: AJUNOK_clean_linker_0, # of connection points: 2
#     Edge 20, Type (0, 0), BuildingBlock: AJUNOK_clean_linker_0, # of connection points: 2
#     Edge 21, Type (0, 0), BuildingBlock: AJUNOK_clean_linker_0, # of connection points: 2
#     Edge 22, Type (0, 0), BuildingBlock: AJUNOK_clean_linker_0, # of connection points: 2
#     Edge 23, Type (0, 0), BuildingBlock: AJUNOK_clean_linker_0, # of connection points: 2
#     Edge 24, Type (0, 0), BuildingBlock: AJUNOK_clean_linker_0, # of connection points: 2
#     Edge 25, Type (0, 0), BuildingBlock: AJUNOK_clean_linker_0, # of connection points: 2
#     Edge 26, Type (0, 0), BuildingBlock: AJUNOK_clean_linker_0, # of connection points: 2
#     Edge 27, Type (0, 0), BuildingBlock: AJUNOK_clean_linker_0, # of connection points: 2
#     Edge 28, Type (0, 0), BuildingBlock: AJUNOK_clean_linker_0, # of connection points: 2
#     Edge 29, Type (0, 0), BuildingBlock: AJUNOK_clean_linker_0, # of connection points: 2
#     Edge 30, Type (0, 0), BuildingBlock: AJUNOK_clean_linker_0, # of connection points: 2
#     Edge 31, Type (0, 0), BuildingBlock: AJUNOK_clean_linker_0, # of connection points: 2
#     Edge 32, Type (0, 0), BuildingBlock: AJUNOK_clean_linker_0, # of connection points: 2
#     Edge 33, Type (0, 0), BuildingBlock: AJUNOK_clean_linker_0, # of connection points: 2
#     Edge 34, Type (0, 0), BuildingBlock: AJUNOK_clean_linker_0, # of connection points: 2
#     Edge 35, Type (0, 0), BuildingBlock: AJUNOK_clean_linker_0, # of connection points: 2
#     Edge 36, Type (0, 0), BuildingBlock: AJUNOK_clean_linker_0, # of connection points: 2
#     Edge 37, Type (0, 0), BuildingBlock: AJUNOK_clean_linker_0, # of connection points: 2
#     Edge 38, Type (0, 0), BuildingBlock: AJUNOK_clean_linker_0, # of connection points: 2
#     Edge 39, Type (0, 0), BuildingBlock: AJUNOK_clean_linker_0, # of connection points: 2
#     Edge 40, Type (0, 0), BuildingBlock: AJUNOK_clean_linker_0, # of connection points: 2
#     Edge 41, Type (0, 0), BuildingBlock: AJUNOK_clean_linker_0, # of connection points: 2
#     Edge 42, Type (0, 0), BuildingBlock: AJUNOK_clean_linker_0, # of connection points: 2
#     Edge 43, Type (0, 0), BuildingBlock: AJUNOK_clean_linker_0, # of connection points: 2
#     Edge 44, Type (0, 0), BuildingBlock: AJUNOK_clean_linker_0, # of connection points: 2
#     Edge 45, Type (0, 0), BuildingBlock: AJUNOK_clean_linker_0, # of connection points: 2
#     Edge 46, Type (0, 0), BuildingBlock: AJUNOK_clean_linker_0, # of connection points: 2
#     Edge 47, Type (0, 0), BuildingBlock: AJUNOK_clean_linker_0, # of connection points: 2
# Relax obj value: 0.074
# Max RMSD: 0.234
# Mean RMSD: 0.234
data_MOF--net-uki--node1-NAWXER_clean_sbu_0--edge1-AJUNOK_clean_linker_0
_symmetry_space_group_name_H-M    P1
_symmetry_Int_Tables_number       1
_symmetry_cell_setting            triclinic
loop_
_symmetry_equiv_pos_as_xyz
'x, y, z'
_cell_length_a     23.131741
_cell_length_b     23.163534
_cell_length_c     53.31634
_cell_angle_alpha  89.994583
_cell_angle_beta   90.023959
_cell_angle_gamma 89.997857
loop_
_atom_site_label
_atom_site_type_symbol
_atom_site_fract_x
_atom_site_fract_y
_atom_site_fract_z
_atom_type_partial_charge
C0 C 0.16738 0.22441 0.3465 0.0
C1 C 0.99692 0.26946 0.29634 0.0
O2 O 0.12012 0.24747 0.35321 0.0
Zn3 Zn 0.08075 0.24429 0.32145 0.0
O4 O 0.17293 0.20646 0.32384 0.0
Zn5 Zn 0.11955 0.20444 0.2905 0.0
O6 O 0.16519 0.24548 0.26656 0.0
O7 O 0.13118 0.30043 0.29701 0.0
O8 O 0.03549 0.24238 0.28368 0.0
O9 O 1.00564 0.27979 0.31945 0.0
O10 O 0.05822 0.15469 0.31681 0.0
O11 O 0.10555 0.12461 0.28341 0.0
C12 C 0.16039 0.29492 0.27664 0.0
C13 C 0.07045 0.11456 0.30114 0.0
C14 C 0.29703 0.85282 0.74123 0.0
C15 C 0.11557 0.94115 0.71668 0.0
O16 O 0.30235 0.88254 0.721 0.0
Zn17 Zn 0.24581 0.93316 0.69678 0.0
O18 O 0.24763 0.84761 0.75136 0.0
Zn19 Zn 0.20629 0.89329 0.72754 0.0
O20 O 0.20999 0.84048 0.69408 0.0
O21 O 0.24995 0.89472 0.66489 0.0
O22 O 0.12593 0.90598 0.73434 0.0
O23 O 0.15583 0.95431 0.70119 0.0
O24 O 0.28049 0.0084 0.69917 0.0
O25 O 0.24345 0.97738 0.73483 0.0
C26 C 0.22808 0.84686 0.67148 0.0
C27 C 0.27015 0.01645 0.72231 0.0
C28 C 0.85177 0.71882 0.27705 0.0
C29 C 0.94169 0.89986 0.30102 0.0
O30 O 0.84465 0.76846 0.26741 0.0
Zn31 Zn 0.89251 0.80974 0.29057 0.0
O32 O 0.88348 0.71329 0.2967 0.0
Zn33 Zn 0.93582 0.76918 0.32034 0.0
O34 O 0.90037 0.76415 0.35281 0.0
O35 O 0.84352 0.80606 0.3251 0.0
O36 O 0.95616 0.85915 0.31603 0.0
O37 O 0.90502 0.89015 0.28384 0.0
O38 O 0.97581 0.77297 0.28158 0.0
O39 O 0.01122 0.735 0.3163 0.0
C40 C 0.85231 0.7875 0.34748 0.0
C41 C 0.01624 0.74573 0.29302 0.0
C42 C 0.78773 0.1664 0.67263 0.0
C43 C 0.7459 0.99655 0.72335 0.0
O44 O 0.80705 0.1724 0.69506 0.0
Zn45 Zn 0.81126 0.11916 0.7284 0.0
O46 O 0.76441 0.11904 0.66632 0.0
Zn47 Zn 0.76957 0.08024 0.69809 0.0
O48 O 0.71459 0.13052 0.72325 0.0
O49 O 0.77209 0.16471 0.75279 0.0
O50 O 0.73423 1.00536 0.70038 0.0
O51 O 0.7737 0.03504 0.73578 0.0
O52 O 0.89152 0.10555 0.73466 0.0
O53 O 0.85964 0.05744 0.7018 0.0
C54 C 0.72175 0.15945 0.74361 0.0
C55 C 0.90066 0.07003 0.71702 0.0
C56 C 0.99727 0.24508 0.97335 0.0
C57 C 0.16251 0.28724 0.91987 0.0
O58 O 1.00426 0.23371 0.95024 0.0
Zn59 Zn 0.07932 0.26802 0.9471 0.0
O60 O 0.03712 0.27202 0.98537 0.0
Zn61 Zn 0.12153 0.30863 0.97662 0.0
O62 O 0.11012 0.38855 0.98351 0.0
O63 O 0.05736 0.35829 0.95173 0.0
O64 O 0.17126 0.3056 0.94227 0.0
O65 O 0.11472 0.26344 0.9146 0.0
O66 O 0.131 0.21173 0.97139 0.0
O67 O 0.16907 0.26908 1.00003 0.0
C68 C 0.07219 0.39858 0.96692 0.0
C69 C 0.16199 0.21873 0.99121 0.0
C70 C 0.28836 0.84735 0.09563 0.0
C71 C 0.24652 0.01519 0.04361 0.0
O72 O 0.30708 0.84062 0.07317 0.0
Zn73 Zn 0.31259 0.89244 0.03964 0.0
O74 O 0.26603 0.89524 0.10186 0.0
Zn75 Zn 0.2705 0.93307 0.0697 0.0
O76 O 0.21617 0.88124 0.04528 0.0
O77 O 0.27234 0.84594 0.01547 0.0
O78 O 0.23443 0.00709 0.0666 0.0
O79 O 0.275 0.97656 0.03152 0.0
O80 O 0.39443 0.90402 0.0347 0.0
O81 O 0.35963 0.95683 0.0656 0.0
C82 C 0.22251 0.85104 0.02526 0.0
C83 C 0.40194 0.94198 0.05153 0.0
C84 C 0.8499 0.72516 0.92124 0.0
C85 C 0.01698 0.76712 0.97406 0.0
O86 O 0.89749 0.74873 0.91537 0.0
Zn87 Zn 0.93482 0.74392 0.94764 0.0
O88 O 0.84285 0.70616 0.94363 0.0
Zn89 Zn 0.89347 0.70261 0.97748 0.0
O90 O 0.84644 0.74223 1.00112 0.0
O91 O 0.88345 0.79955 0.97222 0.0
O92 O 0.97736 0.73938 0.9858 0.0
O93 O 0.01018 0.77877 0.95094 0.0
O94 O 0.95705 0.65372 0.95194 0.0
O95 O 0.90584 0.62271 0.98411 0.0
C96 C 0.85296 0.79256 0.99217 0.0
C97 C 0.94302 0.61321 0.96716 0.0
C98 C 0.73089 0.16173 0.09874 0.0
C99 C 0.77252 0.99727 0.0448 0.0
O100 O 0.71111 0.17009 0.07655 0.0
Zn101 Zn 0.70558 0.12016 0.04245 0.0
O102 O 0.75539 0.11422 0.10381 0.0
Zn103 Zn 0.75001 0.07853 0.07129 0.0
O104 O 0.80293 0.13114 0.0464 0.0
O105 O 0.74331 0.1682 0.01836 0.0
O106 O 0.78628 1.005 0.06763 0.0
O107 O 0.74329 0.03613 0.03315 0.0
O108 O 0.62398 0.10779 0.0377 0.0
O109 O 0.66098 0.05283 0.06743 0.0
C110 C 0.79434 0.16201 0.02671 0.0
C111 C 0.618 0.06781 0.05373 0.0
C112 C 0.50109 0.76719 0.7929 0.0
C113 C 0.66555 0.72527 0.84684 0.0
O114 O 0.50721 0.7787 0.81606 0.0
Zn115 Zn 0.58215 0.74383 0.81973 0.0
O116 O 0.54071 0.73901 0.78136 0.0
Zn117 Zn 0.6241 0.70167 0.79028 0.0
O118 O 0.61098 0.62141 0.78403 0.0
O119 O 0.5603 0.65374 0.81609 0.0
O120 O 0.67399 0.70586 0.82458 0.0
O121 O 0.61797 0.74962 0.85204 0.0
O122 O 0.63413 0.79855 0.79518 0.0
O123 O 0.6716 0.74078 0.76652 0.0
C124 C 0.5743 0.6125 0.80126 0.0
C125 C 0.66477 0.79123 0.77531 0.0
C126 C 0.7277 0.34663 0.17286 0.0
C127 C 0.76829 0.51421 0.22532 0.0
O128 O 0.70776 0.34 0.19515 0.0
Zn129 Zn 0.7024 0.39174 0.22877 0.0
O130 O 0.75119 0.39418 0.16693 0.0
Zn131 Zn 0.74502 0.43223 0.19892 0.0
O132 O 0.7993 0.38129 0.22412 0.0
O133 O 0.74123 0.34558 0.25313 0.0
O134 O 0.7801 0.50742 0.20221 0.0
O135 O 0.73986 0.47506 0.23701 0.0
O136 O 0.62194 0.40532 0.2346 0.0
O137 O 0.65489 0.45446 0.20222 0.0
C138 C 0.7918 0.35173 0.24428 0.0
C139 C 0.61339 0.44132 0.21708 0.0
C140 C 0.34745 0.2875 0.84576 0.0
C141 C 0.51673 0.24361 0.79504 0.0
O142 O 0.39445 0.26326 0.85197 0.0
Zn143 Zn 0.43309 0.26794 0.82017 0.0
O144 O 0.34149 0.30674 0.82332 0.0
Zn145 Zn 0.39445 0.30977 0.78987 0.0
O146 O 0.34837 0.27097 0.76554 0.0
O147 O 0.38251 0.21322 0.79497 0.0
O148 O 0.47844 0.27154 0.78253 0.0
O149 O 0.50778 0.23223 0.81802 0.0
O150 O 0.4565 0.35777 0.81642 0.0
O151 O 0.40864 0.38967 0.78347 0.0
C152 C 0.35353 0.2206 0.77461 0.0
C153 C 0.44415 0.39871 0.80114 0.0
C154 C 0.28713 0.66126 0.16921 0.0
C155 C 0.24455 0.49791 0.2238 0.0
O156 O 0.30598 0.66997 0.19156 0.0
Zn157 Zn 0.30958 0.62106 0.22611 0.0
O158 O 0.26338 0.61342 0.16398 0.0
Zn159 Zn 0.26848 0.5781 0.19648 0.0
O160 O 0.21302 0.63073 0.22026 0.0
O161 O 0.2691 0.6692 0.24932 0.0
O162 O 0.23366 0.50315 0.20054 0.0
O163 O 0.27225 0.53803 0.23522 0.0
O164 O 0.3899 0.60825 0.23282 0.0
O165 O 0.35855 0.55693 0.20076 0.0
C166 C 0.21915 0.66237 0.23988 0.0
C167 C 0.39939 0.57131 0.21576 0.0
C168 C 0.49913 0.74538 0.47399 0.0
C169 C 0.66617 0.78752 0.42112 0.0
O170 O 0.50497 0.73472 0.45073 0.0
Zn171 Zn 0.58077 0.76916 0.44718 0.0
O172 O 0.53912 0.77268 0.48568 0.0
Zn173 Zn 0.62242 0.80966 0.4775 0.0
O174 O 0.60967 0.88992 0.48417 0.0
O175 O 0.56027 0.85923 0.45141 0.0
O176 O 0.67306 0.80611 0.4436 0.0
O177 O 0.6184 0.76458 0.41497 0.0
O178 O 0.63259 0.71329 0.47119 0.0
O179 O 0.66945 0.76854 0.50094 0.0
C180 C 0.57399 0.89982 0.46663 0.0
C181 C 0.66341 0.71895 0.49111 0.0
C182 C 0.78594 0.35199 0.59882 0.0
C183 C 0.74585 0.51515 0.54371 0.0
O184 O 0.80632 0.34337 0.57677 0.0
Zn185 Zn 0.81322 0.39247 0.54261 0.0
O186 O 0.76142 0.39963 0.60367 0.0
Zn187 Zn 0.76785 0.43513 0.57105 0.0
O188 O 0.71569 0.38233 0.54591 0.0
O189 O 0.776 0.34438 0.51835 0.0
O190 O 0.73179 0.50895 0.56661 0.0
O191 O 0.77579 0.47588 0.53272 0.0
O192 O 0.89491 0.40477 0.53838 0.0
O193 O 0.85699 0.46042 0.56763 0.0
C194 C 0.72473 0.35125 0.52632 0.0
C195 C 0.90039 0.44509 0.55428 0.0
C196 C 0.44779 0.11597 0.46559 0.0
C197 C 0.35725 0.29648 0.48931 0.0
O198 O 0.41161 0.12609 0.4829 0.0
Zn199 Zn 0.39878 0.20601 0.47573 0.0
O200 O 0.46153 0.15624 0.45021 0.0
Zn201 Zn 0.44015 0.24623 0.44559 0.0
O202 O 0.51542 0.28089 0.44871 0.0
O203 O 0.4827 0.24318 0.48394 0.0
O204 O 0.3882 0.30239 0.46945 0.0
O205 O 0.35128 0.24678 0.49899 0.0
O206 O 0.34835 0.20801 0.44148 0.0
O207 O 0.40362 0.25006 0.41327 0.0
C208 C 0.52245 0.27004 0.47187 0.0
C209 C 0.35613 0.22608 0.41896 0.0
C210 C 0.29578 0.66213 0.527 0.0
C211 C 0.11658 0.57062 0.55299 0.0
O212 O 0.30257 0.62999 0.54642 0.0
Zn213 Zn 0.2487 0.57702 0.57051 0.0
O214 O 0.24545 0.66949 0.51798 0.0
Zn215 Zn 0.20559 0.62103 0.54156 0.0
O216 O 0.21174 0.66916 0.57602 0.0
O217 O 0.25467 0.61207 0.60322 0.0
O218 O 0.12372 0.61003 0.53676 0.0
O219 O 0.15927 0.55435 0.56656 0.0
O220 O 0.28386 0.50279 0.56587 0.0
O221 O 0.24251 0.53772 0.5317 0.0
C222 C 0.23115 0.66016 0.59822 0.0
C223 C 0.27137 0.49774 0.54274 0.0
C224 C 0.19528 0.34504 0.23797 0.0
C225 C 0.18478 0.34637 0.26398 0.0
C226 C 0.21446 0.39422 0.22511 0.0
C227 C 0.22488 0.44635 0.23783 0.0
H228 H 0.18733 0.30606 0.22729 0.0
H229 H 0.22133 0.39126 0.20505 0.0
S230 S 0.20567 0.47226 0.30607 0.0
N231 N 0.18713 0.40406 0.30208 0.0
N232 N 0.22395 0.49624 0.27801 0.0
C233 C 0.21561 0.44803 0.26392 0.0
C234 C 0.19532 0.39815 0.27696 0.0
C235 C 0.39749 0.79789 0.79217 0.0
C236 C 0.44916 0.78694 0.77914 0.0
C237 C 0.34804 0.81754 0.7796 0.0
C238 C 0.34868 0.828 0.75359 0.0
H239 H 0.39512 0.79114 0.81225 0.0
H240 H 0.30943 0.82592 0.7905 0.0
S241 S 0.47308 0.80565 0.71074 0.0
N242 N 0.49782 0.7872 0.73866 0.0
N243 N 0.40512 0.82491 0.71513 0.0
C244 C 0.39996 0.81686 0.74029 0.0
C245 C 0.4501 0.79608 0.75303 0.0
C246 C 0.79681 0.61842 0.22608 0.0
C247 C 0.78796 0.56623 0.23897 0.0
C248 C 0.81564 0.66808 0.23872 0.0
C249 C 0.8274 0.66707 0.26464 0.0
H250 H 0.78889 0.62103 0.20608 0.0
H251 H 0.82241 0.70715 0.22795 0.0
S252 S 0.81137 0.54094 0.30701 0.0
N253 N 0.79204 0.51652 0.27916 0.0
N254 N 0.82827 0.6095 0.30279 0.0
C255 C 0.81858 0.61516 0.27776 0.0
C256 C 0.79861 0.56486 0.26497 0.0
C257 C 0.57035 0.21537 0.75626 0.0
C258 C 0.57018 0.22392 0.7824 0.0
C259 C 0.61969 0.19502 0.74383 0.0
C260 C 0.67112 0.18356 0.75699 0.0
H261 H 0.53166 0.22331 0.74533 0.0
H262 H 0.61746 0.18821 0.72375 0.0
S263 S 0.69391 0.20079 0.82555 0.0
N264 N 0.62611 0.2204 0.82099 0.0
N265 N 0.71915 0.1831 0.79764 0.0
C266 C 0.67192 0.19306 0.78308 0.0
C267 C 0.62137 0.2129 0.79579 0.0
C268 C 0.21719 0.06726 1.00451 0.0
C269 C 0.22696 0.06814 0.03058 0.0
C270 C 0.1965 0.11621 0.99184 0.0
C271 C 0.18608 0.1682 1.00468 0.0
H272 H 0.22435 0.02808 0.99386 0.0
H273 H 0.18869 0.11327 0.97185 0.0
S274 S 0.20657 0.19355 0.07293 0.0
N275 N 0.22554 0.12555 0.06872 0.0
N276 N 0.18777 0.21773 0.04496 0.0
C277 C 0.19678 0.16994 0.03069 0.0
C278 C 0.21687 0.11986 0.04362 0.0
C279 C 0.17007 0.81949 0.98659 0.0
C280 C 0.17124 0.82574 0.01283 0.0
C281 C 0.12007 0.80048 0.97418 0.0
C282 C 0.06973 0.786 0.98759 0.0
H283 H 0.20751 0.83099 0.97545 0.0
H284 H 0.12093 0.79721 0.95392 0.0
S285 S 0.05172 0.79186 0.05681 0.0
N286 N 0.11857 0.81413 0.05194 0.0
N287 N 0.02496 0.77761 0.02879 0.0
C288 C 0.07094 0.79059 0.01395 0.0
C289 C 0.12157 0.81069 0.02651 0.0
C290 C 0.8204 0.89575 0.99289 0.0
C291 C 0.82907 0.84324 1.00562 0.0
C292 C 0.80079 0.94508 1.00559 0.0
C293 C 0.79041 0.94403 0.03159 0.0
H294 H 0.82898 0.89887 0.97296 0.0
H295 H 0.79514 0.9847 0.99506 0.0
S296 S 0.80493 0.81718 0.07359 0.0
N297 N 0.82413 0.79297 0.04569 0.0
N298 N 0.78834 0.88583 0.0695 0.0
C299 C 0.79826 0.89174 0.0445 0.0
C300 C 0.81726 0.8413 0.03153 0.0
C301 C 0.89687 0.19632 0.02552 0.0
C302 C 0.8442 0.18682 0.01298 0.0
C303 C 0.94576 0.21636 0.01264 0.0
C304 C 0.9442 0.22648 0.98662 0.0
H305 H 0.9005 0.188 0.04545 0.0
H306 H 0.98547 0.22261 0.02307 0.0
S307 S 0.81664 0.20943 0.94505 0.0
N308 N 0.7931 0.19043 0.97308 0.0
N309 N 0.88523 0.22704 0.94886 0.0
C310 C 0.8917 0.21772 0.97387 0.0
C311 C 0.84163 0.19825 0.98706 0.0
C312 C 0.70055 0.89304 0.77492 0.0
C313 C 0.68832 0.84184 0.7618 0.0
C314 C 0.72005 0.94248 0.76234 0.0
C315 C 0.72686 0.94299 0.73609 0.0
H316 H 0.69501 0.89498 0.79508 0.0
H317 H 0.72873 0.98096 0.77326 0.0
S318 S 0.70013 0.82006 0.693 0.0
N319 N 0.6846 0.79446 0.7211 0.0
N320 N 0.72028 0.88766 0.69743 0.0
C321 C 0.71481 0.89204 0.72274 0.0
C322 C 0.69588 0.84139 0.7356 0.0
C323 C 0.9428 0.29563 0.2574 0.0
C324 C 0.9434 0.28917 0.28367 0.0
C325 C 0.89344 0.31534 0.2448 0.0
C326 C 0.84235 0.32826 0.2579 0.0
H327 H 0.98114 0.28638 0.24645 0.0
H328 H 0.89533 0.32043 0.22461 0.0
S329 S 0.8208 0.31793 0.32677 0.0
N330 N 0.88827 0.29702 0.32236 0.0
N331 N 0.79518 0.3332 0.29863 0.0
C332 C 0.84198 0.32121 0.28413 0.0
C333 C 0.89259 0.30199 0.29702 0.0
C334 C 0.29878 0.0692 0.76127 0.0
C335 C 0.28966 0.06969 0.73515 0.0
C336 C 0.31886 0.11833 0.77392 0.0
C337 C 0.32952 0.1702 0.76103 0.0
H338 H 0.29146 0.03018 0.77201 0.0
H339 H 0.32611 0.11556 0.79396 0.0
S340 S 0.31064 0.19475 0.69264 0.0
N341 N 0.29183 0.12671 0.69689 0.0
N342 N 0.32864 0.21932 0.72064 0.0
C343 C 0.31948 0.17164 0.73496 0.0
C344 C 0.29989 0.12131 0.72203 0.0
C345 C 0.12058 0.71755 0.29145 0.0
C346 C 0.06781 0.72628 0.27894 0.0
C347 C 0.1698 0.6987 0.27848 0.0
C348 C 0.16781 0.68684 0.25259 0.0
H349 H 0.12401 0.72549 0.31142 0.0
H350 H 0.20932 0.69197 0.28899 0.0
S351 S 0.04 0.70289 0.21108 0.0
N352 N 0.01656 0.72222 0.23909 0.0
N353 N 0.10879 0.68597 0.21484 0.0
C354 C 0.11536 0.69566 0.23982 0.0
C355 C 0.06546 0.71563 0.25295 0.0
C356 C 0.71695 0.61905 0.54247 0.0
C357 C 0.72731 0.56703 0.52966 0.0
C358 C 0.69817 0.66847 0.52968 0.0
C359 C 0.68797 0.66745 0.50365 0.0
H360 H 0.72344 0.62168 0.56257 0.0
H361 H 0.69008 0.70732 0.54043 0.0
S362 S 0.70927 0.54205 0.46132 0.0
N363 N 0.72709 0.51766 0.48938 0.0
N364 N 0.6908 0.61027 0.46541 0.0
C365 C 0.69865 0.61583 0.49056 0.0
C366 C 0.71865 0.56573 0.50354 0.0
C367 C 0.62272 0.31595 0.52461 0.0
C368 C 0.6751 0.32729 0.51219 0.0
C369 C 0.57399 0.29656 0.51144 0.0
C370 C 0.57537 0.28893 0.48524 0.0
H371 H 0.61925 0.32221 0.54469 0.0
H372 H 0.53457 0.28865 0.52185 0.0
S373 S 0.70203 0.31282 0.44383 0.0
N374 N 0.72567 0.32904 0.47219 0.0
N375 N 0.63381 0.29357 0.44739 0.0
C376 C 0.62754 0.29995 0.47258 0.0
C377 C 0.67748 0.31878 0.48607 0.0
C378 C 0.29946 0.39371 0.54078 0.0
C379 C 0.29095 0.44664 0.52844 0.0
C380 C 0.31918 0.34501 0.52776 0.0
C381 C 0.33226 0.34764 0.50198 0.0
H382 H 0.29071 0.38979 0.56067 0.0
H383 H 0.32557 0.30536 0.53817 0.0
S384 S 0.31731 0.47629 0.46098 0.0
N385 N 0.29645 0.49886 0.48892 0.0
N386 N 0.33453 0.40759 0.46453 0.0
C387 C 0.32365 0.4003 0.48938 0.0
C388 C 0.30268 0.44969 0.50258 0.0
C389 C 0.39458 0.71698 0.47532 0.0
C390 C 0.44731 0.72573 0.4879 0.0
C391 C 0.34517 0.69834 0.48828 0.0
C392 C 0.34699 0.68672 0.51419 0.0
H393 H 0.39135 0.72481 0.45534 0.0
H394 H 0.30568 0.69154 0.47776 0.0
S395 S 0.47459 0.70277 0.55584 0.0
N396 N 0.49824 0.72176 0.52783 0.0
N397 N 0.40579 0.68605 0.55201 0.0
C398 C 0.3994 0.69553 0.52699 0.0
C399 C 0.44942 0.71523 0.5139 0.0
C400 C 0.251 0.22017 0.40793 0.0
C401 C 0.30907 0.22158 0.40009 0.0
C402 C 0.20553 0.22036 0.39048 0.0
C403 C 0.2163 0.2207 0.36448 0.0
H404 H 0.24045 0.22067 0.42772 0.0
H405 H 0.16154 0.22054 0.39744 0.0
S406 S 0.36075 0.22141 0.33417 0.0
N407 N 0.37489 0.22157 0.36453 0.0
N408 N 0.28959 0.22075 0.33179 0.0
C409 C 0.27419 0.22032 0.35639 0.0
C410 C 0.3205 0.22113 0.37416 0.0
C411 C 0.22228 0.76447 0.60993 0.0
C412 C 0.22788 0.70646 0.61745 0.0
C413 C 0.22188 0.80948 0.62753 0.0
C414 C 0.22579 0.79826 0.65341 0.0
H415 H 0.21951 0.77544 0.59021 0.0
H416 H 0.21849 0.85348 0.62079 0.0
S417 S 0.23971 0.654 0.68307 0.0
N418 N 0.23676 0.64031 0.6527 0.0
N419 N 0.23482 0.72484 0.68576 0.0
C420 C 0.23018 0.74045 0.66127 0.0
C421 C 0.23161 0.69461 0.64331 0.0
C422 C 0.70259 0.79095 0.37685 0.0
C423 C 0.71431 0.79071 0.40276 0.0
C424 C 0.74747 0.79167 0.35913 0.0
C425 C 0.80583 0.7909 0.36661 0.0
H426 H 0.65835 0.79052 0.37017 0.0
H427 H 0.73626 0.79126 0.33939 0.0
S428 S 0.85982 0.79095 0.43219 0.0
N429 N 0.78875 0.79095 0.43501 0.0
N430 N 0.87289 0.79116 0.40175 0.0
C431 C 0.81816 0.79115 0.39246 0.0
C432 C 0.77249 0.79141 0.4105 0.0
C433 C 0.79178 0.20289 0.62847 0.0
C434 C 0.79062 0.21466 0.65436 0.0
C435 C 0.79176 0.2476 0.6107 0.0
C436 C 0.78923 0.30586 0.61811 0.0
H437 H 0.79264 0.1587 0.62183 0.0
H438 H 0.79225 0.23629 0.59099 0.0
S439 S 0.78631 0.35995 0.68364 0.0
N440 N 0.78819 0.289 0.68654 0.0
N441 N 0.7868 0.37295 0.65318 0.0
C442 C 0.78849 0.31829 0.64395 0.0
C443 C 0.78962 0.27274 0.66206 0.0
C444 C 0.26709 0.29176 0.90793 0.0
C445 C 0.20865 0.29138 0.90061 0.0
C446 C 0.31162 0.29121 0.89006 0.0
C447 C 0.2995 0.29154 0.86417 0.0
H448 H 0.27861 0.29073 0.92762 0.0
H449 H 0.35595 0.29023 0.89661 0.0
S450 S 0.15361 0.29383 0.8352 0.0
N451 N 0.14101 0.29319 0.86568 0.0
N452 N 0.22464 0.29341 0.83215 0.0
C453 C 0.24126 0.29303 0.8566 0.0
C454 C 0.19588 0.29255 0.8748 0.0
C455 C 0.29287 0.76587 0.15753 0.0
C456 C 0.29064 0.70764 0.15004 0.0
C457 C 0.29242 0.81074 0.13983 0.0
C458 C 0.29099 0.79913 0.11392 0.0
H459 H 0.29346 0.77703 0.17726 0.0
H460 H 0.29318 0.85489 0.14651 0.0
S461 S 0.28686 0.65401 0.08444 0.0
N462 N 0.28801 0.64081 0.11487 0.0
N463 N 0.28832 0.72498 0.08165 0.0
C464 C 0.29013 0.74108 0.10615 0.0
C465 C 0.28959 0.69541 0.12419 0.0
C466 C 0.81459 0.72315 0.87678 0.0
C467 C 0.80227 0.72163 0.90264 0.0
C468 C 0.77017 0.72242 0.85884 0.0
C469 C 0.7117 0.72146 0.86607 0.0
H470 H 0.85895 0.72508 0.87033 0.0
H471 H 0.78174 0.72433 0.83916 0.0
S472 S 0.65613 0.71561 0.93131 0.0
N473 N 0.7271 0.71728 0.9345 0.0
N474 N 0.64381 0.71716 0.90081 0.0
C475 C 0.69875 0.71921 0.89183 0.0
C476 C 0.74396 0.71891 0.91009 0.0
C477 C 0.72546 0.2662 0.11067 0.0
C478 C 0.727 0.20785 0.118 0.0
C479 C 0.72529 0.31076 0.12853 0.0
C480 C 0.72528 0.29871 0.15441 0.0
H481 H 0.72592 0.27765 0.09097 0.0
H482 H 0.72519 0.35503 0.12197 0.0
S483 S 0.72663 0.15305 0.18343 0.0
N484 N 0.72718 0.1404 0.15296 0.0
N485 N 0.72552 0.22398 0.18645 0.0
C486 C 0.72528 0.24052 0.16199 0.0
C487 C 0.72655 0.19517 0.14382 0.0
C488 C 0.98809 0.98281 0.27935 0.0
C489 C 0.97252 0.95557 0.30191 0.0
C490 C 0.0213 0.03333 0.27936 0.0
C491 C 0.03885 0.05927 0.30196 0.0
H492 H 0.97568 0.96422 0.26149 0.0
H493 H 0.03236 0.05283 0.26152 0.0
S494 S 0.00819 1.00572 0.36611 0.0
N495 N 0.97722 0.9579 0.34744 0.0
N496 N 0.03767 0.05455 0.34749 0.0
C497 C 0.02282 0.03304 0.32468 0.0
C498 C 0.99024 0.98067 0.32464 0.0
C499 C 0.98275 0.02168 0.73852 0.0
C500 C 0.9559 0.03825 0.71598 0.0
C501 C 0.03334 0.98856 0.73845 0.0
C502 C 0.05981 0.97205 0.71584 0.0
H503 H 0.96393 0.03347 0.75641 0.0
H504 H 0.05259 0.97695 0.75628 0.0
S505 S 1.00712 1.00494 0.65173 0.0
N506 N 0.95889 0.03515 0.67044 0.0
N507 N 0.05575 0.97483 0.6703 0.0
C508 C 0.0338 0.98877 0.69314 0.0
C509 C 0.98131 0.02129 0.69322 0.0
C510 C 0.02007 0.4782 0.94441 0.0
C511 C 0.04094 0.4542 0.96692 0.0
C512 C 0.98857 0.53011 0.94444 0.0
C513 C 0.9752 0.55829 0.96706 0.0
H514 H 0.02863 0.45704 0.92668 0.0
H515 H 0.97384 0.54781 0.92675 0.0
S516 S 0.01934 0.51309 0.03098 0.0
N517 N 0.04636 0.46304 0.01233 0.0
N518 N 0.98574 0.55916 0.0124 0.0
C519 C 0.99544 0.53451 0.98964 0.0
C520 C 0.0287 0.48279 0.98957 0.0
C521 C 0.45808 0.0332 0.05546 0.0
C522 C 0.45758 0.9726 0.05359 0.0
C523 C 0.51029 0.064 0.05565 0.0
C524 C 0.56356 0.035 0.05491 0.0
H525 H 0.4178 0.05706 0.05595 0.0
H526 H 0.50901 0.11073 0.05639 0.0
S527 S 0.58563 0.87673 0.05089 0.0
N528 N 0.51464 0.88477 0.05114 0.0
N529 N 0.61293 0.9425 0.05273 0.0
C530 C 0.56366 0.97438 0.05378 0.0
C531 C 0.51055 0.94317 0.05278 0.0
C532 C 0.49299 0.48024 0.77959 0.0
C533 C 0.47618 0.45373 0.80215 0.0
C534 C 0.52633 0.53062 0.77961 0.0
C535 C 0.54279 0.55722 0.8022 0.0
H536 H 0.48126 0.4613 0.76171 0.0
H537 H 0.53822 0.54959 0.76176 0.0
S538 S 0.50924 0.50553 0.86636 0.0
N539 N 0.47897 0.45723 0.8477 0.0
N540 N 0.53966 0.55379 0.84773 0.0
C541 C 0.52576 0.53164 0.82492 0.0
C542 C 0.49305 0.47932 0.8249 0.0
C543 C 0.5314 0.49046 0.23823 0.0
C544 C 0.55825 0.47312 0.21582 0.0
C545 C 0.48104 0.5239 0.23792 0.0
C546 C 0.45482 0.53992 0.21517 0.0
H547 H 0.5501 0.47907 0.25621 0.0
H548 H 0.46177 0.5362 0.25565 0.0
S549 S 0.50751 0.50483 0.15132 0.0
N550 N 0.5555 0.47491 0.17026 0.0
N551 N 0.45897 0.53575 0.16967 0.0
C552 C 0.48076 0.52235 0.19261 0.0
C553 C 0.53305 0.48955 0.19293 0.0
C554 C 0.49455 0.03385 0.48769 0.0
C555 C 0.47869 0.0603 0.46497 0.0
C556 C 0.52704 0.98288 0.48794 0.0
C557 C 0.54353 0.95569 0.46549 0.0
H558 H 0.48276 0.0533 0.50545 0.0
H559 H 0.53823 0.96396 0.50589 0.0
S560 S 0.51214 0.00702 0.40105 0.0
N561 N 0.48231 0.05606 0.41946 0.0
N562 N 0.54139 0.95855 0.41993 0.0
C563 C 0.52741 0.98125 0.44263 0.0
C564 C 0.49558 0.03408 0.44237 0.0
C565 C 0.00804 0.44872 0.55653 0.0
C566 C 0.95483 0.47781 0.55571 0.0
C567 C 0.06027 0.47945 0.55656 0.0
C568 C 0.06089 0.54007 0.55487 0.0
H569 H 0.00925 0.40198 0.55715 0.0
H570 H 0.1005 0.45549 0.55708 0.0
S571 S 0.93301 0.63617 0.55204 0.0
N572 N 0.90561 0.57041 0.55362 0.0
N573 N 1.00397 0.62802 0.5525 0.0
C574 C 0.00797 0.56959 0.554 0.0
C575 C 0.95482 0.53845 0.55475 0.0
loop_
_geom_bond_atom_site_label_1
_geom_bond_atom_site_label_2
_geom_bond_distance
_geom_bond_site_symmetry_2
_ccdc_geom_bond_type
C0 O2 1.247 . S
C0 O4 1.258 . S
C1 O8 1.247 . S
C1 O9 1.258 1_455 S
O2 C0 1.247 . S
O2 Zn3 2.028 . S
Zn3 O2 2.028 . S
Zn3 O7 2.035 . S
Zn3 O9 2.035 1_455 S
Zn3 O10 2.028 . S
O4 C0 1.258 . S
O4 Zn5 2.035 . S
Zn5 O4 2.035 . S
Zn5 O6 2.028 . S
Zn5 O8 2.028 . S
Zn5 O11 2.035 . S
O6 Zn5 2.028 . S
O6 C12 1.247 . S
O7 Zn3 2.035 . S
O7 C12 1.258 . S
O8 C1 1.247 . S
O8 Zn5 2.028 . S
O9 C1 1.258 1_655 S
O9 Zn3 2.035 1_655 S
O10 Zn3 2.028 . S
O10 C13 1.247 . S
O11 Zn5 2.035 . S
O11 C13 1.258 . S
C12 O6 1.247 . S
C12 O7 1.258 . S
C13 O10 1.247 . S
C13 O11 1.258 . S
C14 O16 1.247 . S
C14 O18 1.258 . S
C15 O22 1.247 . S
C15 O23 1.258 . S
O16 C14 1.247 . S
O16 Zn17 2.028 . S
Zn17 O16 2.028 . S
Zn17 O21 2.035 . S
Zn17 O23 2.035 . S
Zn17 O24 2.028 1_565 S
O18 C14 1.258 . S
O18 Zn19 2.035 . S
Zn19 O18 2.035 . S
Zn19 O20 2.028 . S
Zn19 O22 2.028 . S
Zn19 O25 2.035 . S
O20 Zn19 2.028 . S
O20 C26 1.247 . S
O21 Zn17 2.035 . S
O21 C26 1.258 . S
O22 C15 1.247 . S
O22 Zn19 2.028 . S
O23 C15 1.258 . S
O23 Zn17 2.035 . S
O24 Zn17 2.028 1_545 S
O24 C27 1.247 1_545 S
O25 Zn19 2.035 . S
O25 C27 1.258 . S
C26 O20 1.247 . S
C26 O21 1.258 . S
C27 O24 1.247 1_565 S
C27 O25 1.258 . S
C28 O30 1.247 . S
C28 O32 1.258 . S
C29 O36 1.247 . S
C29 O37 1.258 . S
O30 C28 1.247 . S
O30 Zn31 2.028 . S
Zn31 O30 2.028 . S
Zn31 O35 2.035 . S
Zn31 O37 2.035 . S
Zn31 O38 2.028 . S
O32 C28 1.258 . S
O32 Zn33 2.035 . S
Zn33 O32 2.035 . S
Zn33 O34 2.028 . S
Zn33 O36 2.028 . S
Zn33 O39 2.035 1_655 S
O34 Zn33 2.028 . S
O34 C40 1.247 . S
O35 Zn31 2.035 . S
O35 C40 1.258 . S
O36 C29 1.247 . S
O36 Zn33 2.028 . S
O37 C29 1.258 . S
O37 Zn31 2.035 . S
O38 Zn31 2.028 . S
O38 C41 1.247 . S
O39 Zn33 2.035 1_455 S
O39 C41 1.258 1_455 S
C40 O34 1.247 . S
C40 O35 1.258 . S
C41 O38 1.247 . S
C41 O39 1.258 1_655 S
C42 O44 1.247 . S
C42 O46 1.258 . S
C43 O50 1.247 1_545 S
C43 O51 1.258 . S
O44 C42 1.247 . S
O44 Zn45 2.028 . S
Zn45 O44 2.028 . S
Zn45 O49 2.035 . S
Zn45 O51 2.035 . S
Zn45 O52 2.028 . S
O46 C42 1.258 . S
O46 Zn47 2.035 . S
Zn47 O46 2.035 . S
Zn47 O48 2.028 . S
Zn47 O50 2.028 1_545 S
Zn47 O53 2.035 . S
O48 Zn47 2.028 . S
O48 C54 1.247 . S
O49 Zn45 2.035 . S
O49 C54 1.258 . S
O50 C43 1.247 1_565 S
O50 Zn47 2.028 1_565 S
O51 C43 1.258 . S
O51 Zn45 2.035 . S
O52 Zn45 2.028 . S
O52 C55 1.247 . S
O53 Zn47 2.035 . S
O53 C55 1.258 . S
C54 O48 1.247 . S
C54 O49 1.258 . S
C55 O52 1.247 . S
C55 O53 1.258 . S
C56 O58 1.247 1_455 S
C56 O60 1.258 . S
C57 O64 1.247 . S
C57 O65 1.258 . S
O58 C56 1.247 1_655 S
O58 Zn59 2.028 1_655 S
Zn59 O58 2.028 1_455 S
Zn59 O63 2.035 . S
Zn59 O65 2.035 . S
Zn59 O66 2.028 . S
O60 C56 1.258 . S
O60 Zn61 2.035 . S
Zn61 O60 2.035 . S
Zn61 O62 2.028 . S
Zn61 O64 2.028 . S
Zn61 O67 2.035 . S
O62 Zn61 2.028 . S
O62 C68 1.247 . S
O63 Zn59 2.035 . S
O63 C68 1.258 . S
O64 C57 1.247 . S
O64 Zn61 2.028 . S
O65 C57 1.258 . S
O65 Zn59 2.035 . S
O66 Zn59 2.028 . S
O66 C69 1.247 . S
O67 Zn61 2.035 . S
O67 C69 1.258 . S
C68 O62 1.247 . S
C68 O63 1.258 . S
C69 O66 1.247 . S
C69 O67 1.258 . S
C70 O72 1.247 . S
C70 O74 1.258 . S
C71 O78 1.247 1_565 S
C71 O79 1.258 . S
O72 C70 1.247 . S
O72 Zn73 2.028 . S
Zn73 O72 2.028 . S
Zn73 O77 2.035 . S
Zn73 O79 2.035 . S
Zn73 O80 2.028 . S
O74 C70 1.258 . S
O74 Zn75 2.035 . S
Zn75 O74 2.035 . S
Zn75 O76 2.028 . S
Zn75 O78 2.028 1_565 S
Zn75 O81 2.035 . S
O76 Zn75 2.028 . S
O76 C82 1.247 . S
O77 Zn73 2.035 . S
O77 C82 1.258 . S
O78 C71 1.247 1_545 S
O78 Zn75 2.028 1_545 S
O79 C71 1.258 . S
O79 Zn73 2.035 . S
O80 Zn73 2.028 . S
O80 C83 1.247 . S
O81 Zn75 2.035 . S
O81 C83 1.258 . S
C82 O76 1.247 . S
C82 O77 1.258 . S
C83 O80 1.247 . S
C83 O81 1.258 . S
C84 O86 1.247 . S
C84 O88 1.258 . S
C85 O92 1.247 . S
C85 O93 1.258 1_655 S
O86 C84 1.247 . S
O86 Zn87 2.028 . S
Zn87 O86 2.028 . S
Zn87 O91 2.035 . S
Zn87 O93 2.035 1_655 S
Zn87 O94 2.028 . S
O88 C84 1.258 . S
O88 Zn89 2.035 . S
Zn89 O88 2.035 . S
Zn89 O90 2.028 . S
Zn89 O92 2.028 . S
Zn89 O95 2.035 . S
O90 Zn89 2.028 . S
O90 C96 1.247 . S
O91 Zn87 2.035 . S
O91 C96 1.258 . S
O92 C85 1.247 . S
O92 Zn89 2.028 . S
O93 C85 1.258 1_455 S
O93 Zn87 2.035 1_455 S
O94 Zn87 2.028 . S
O94 C97 1.247 . S
O95 Zn89 2.035 . S
O95 C97 1.258 . S
C96 O90 1.247 . S
C96 O91 1.258 . S
C97 O94 1.247 . S
C97 O95 1.258 . S
C98 O100 1.247 . S
C98 O102 1.258 . S
C99 O106 1.247 1_545 S
C99 O107 1.258 . S
O100 C98 1.247 . S
O100 Zn101 2.028 . S
Zn101 O100 2.028 . S
Zn101 O105 2.035 . S
Zn101 O107 2.035 . S
Zn101 O108 2.028 . S
O102 C98 1.258 . S
O102 Zn103 2.035 . S
Zn103 O102 2.035 . S
Zn103 O104 2.028 . S
Zn103 O106 2.028 1_545 S
Zn103 O109 2.035 . S
O104 Zn103 2.028 . S
O104 C110 1.247 . S
O105 Zn101 2.035 . S
O105 C110 1.258 . S
O106 C99 1.247 1_565 S
O106 Zn103 2.028 1_565 S
O107 C99 1.258 . S
O107 Zn101 2.035 . S
O108 Zn101 2.028 . S
O108 C111 1.247 . S
O109 Zn103 2.035 . S
O109 C111 1.258 . S
C110 O104 1.247 . S
C110 O105 1.258 . S
C111 O108 1.247 . S
C111 O109 1.258 . S
C112 O114 1.247 . S
C112 O116 1.258 . S
C113 O120 1.247 . S
C113 O121 1.258 . S
O114 C112 1.247 . S
O114 Zn115 2.028 . S
Zn115 O114 2.028 . S
Zn115 O119 2.035 . S
Zn115 O121 2.035 . S
Zn115 O122 2.028 . S
O116 C112 1.258 . S
O116 Zn117 2.035 . S
Zn117 O116 2.035 . S
Zn117 O118 2.028 . S
Zn117 O120 2.028 . S
Zn117 O123 2.035 . S
O118 Zn117 2.028 . S
O118 C124 1.247 . S
O119 Zn115 2.035 . S
O119 C124 1.258 . S
O120 C113 1.247 . S
O120 Zn117 2.028 . S
O121 C113 1.258 . S
O121 Zn115 2.035 . S
O122 Zn115 2.028 . S
O122 C125 1.247 . S
O123 Zn117 2.035 . S
O123 C125 1.258 . S
C124 O118 1.247 . S
C124 O119 1.258 . S
C125 O122 1.247 . S
C125 O123 1.258 . S
C126 O128 1.247 . S
C126 O130 1.258 . S
C127 O134 1.247 . S
C127 O135 1.258 . S
O128 C126 1.247 . S
O128 Zn129 2.028 . S
Zn129 O128 2.028 . S
Zn129 O133 2.035 . S
Zn129 O135 2.035 . S
Zn129 O136 2.028 . S
O130 C126 1.258 . S
O130 Zn131 2.035 . S
Zn131 O130 2.035 . S
Zn131 O132 2.028 . S
Zn131 O134 2.028 . S
Zn131 O137 2.035 . S
O132 Zn131 2.028 . S
O132 C138 1.247 . S
O133 Zn129 2.035 . S
O133 C138 1.258 . S
O134 C127 1.247 . S
O134 Zn131 2.028 . S
O135 C127 1.258 . S
O135 Zn129 2.035 . S
O136 Zn129 2.028 . S
O136 C139 1.247 . S
O137 Zn131 2.035 . S
O137 C139 1.258 . S
C138 O132 1.247 . S
C138 O133 1.258 . S
C139 O136 1.247 . S
C139 O137 1.258 . S
C140 O142 1.247 . S
C140 O144 1.258 . S
C141 O148 1.247 . S
C141 O149 1.258 . S
O142 C140 1.247 . S
O142 Zn143 2.028 . S
Zn143 O142 2.028 . S
Zn143 O147 2.035 . S
Zn143 O149 2.035 . S
Zn143 O150 2.028 . S
O144 C140 1.258 . S
O144 Zn145 2.035 . S
Zn145 O144 2.035 . S
Zn145 O146 2.028 . S
Zn145 O148 2.028 . S
Zn145 O151 2.035 . S
O146 Zn145 2.028 . S
O146 C152 1.247 . S
O147 Zn143 2.035 . S
O147 C152 1.258 . S
O148 C141 1.247 . S
O148 Zn145 2.028 . S
O149 C141 1.258 . S
O149 Zn143 2.035 . S
O150 Zn143 2.028 . S
O150 C153 1.247 . S
O151 Zn145 2.035 . S
O151 C153 1.258 . S
C152 O146 1.247 . S
C152 O147 1.258 . S
C153 O150 1.247 . S
C153 O151 1.258 . S
C154 O156 1.247 . S
C154 O158 1.258 . S
C155 O162 1.247 . S
C155 O163 1.258 . S
O156 C154 1.247 . S
O156 Zn157 2.028 . S
Zn157 O156 2.028 . S
Zn157 O161 2.035 . S
Zn157 O163 2.035 . S
Zn157 O164 2.028 . S
O158 C154 1.258 . S
O158 Zn159 2.035 . S
Zn159 O158 2.035 . S
Zn159 O160 2.028 . S
Zn159 O162 2.028 . S
Zn159 O165 2.035 . S
O160 Zn159 2.028 . S
O160 C166 1.247 . S
O161 Zn157 2.035 . S
O161 C166 1.258 . S
O162 C155 1.247 . S
O162 Zn159 2.028 . S
O163 C155 1.258 . S
O163 Zn157 2.035 . S
O164 Zn157 2.028 . S
O164 C167 1.247 . S
O165 Zn159 2.035 . S
O165 C167 1.258 . S
C166 O160 1.247 . S
C166 O161 1.258 . S
C167 O164 1.247 . S
C167 O165 1.258 . S
C168 O170 1.247 . S
C168 O172 1.258 . S
C169 O176 1.247 . S
C169 O177 1.258 . S
O170 C168 1.247 . S
O170 Zn171 2.028 . S
Zn171 O170 2.028 . S
Zn171 O175 2.035 . S
Zn171 O177 2.035 . S
Zn171 O178 2.028 . S
O172 C168 1.258 . S
O172 Zn173 2.035 . S
Zn173 O172 2.035 . S
Zn173 O174 2.028 . S
Zn173 O176 2.028 . S
Zn173 O179 2.035 . S
O174 Zn173 2.028 . S
O174 C180 1.247 . S
O175 Zn171 2.035 . S
O175 C180 1.258 . S
O176 C169 1.247 . S
O176 Zn173 2.028 . S
O177 C169 1.258 . S
O177 Zn171 2.035 . S
O178 Zn171 2.028 . S
O178 C181 1.247 . S
O179 Zn173 2.035 . S
O179 C181 1.258 . S
C180 O174 1.247 . S
C180 O175 1.258 . S
C181 O178 1.247 . S
C181 O179 1.258 . S
C182 O184 1.247 . S
C182 O186 1.258 . S
C183 O190 1.247 . S
C183 O191 1.258 . S
O184 C182 1.247 . S
O184 Zn185 2.028 . S
Zn185 O184 2.028 . S
Zn185 O189 2.035 . S
Zn185 O191 2.035 . S
Zn185 O192 2.028 . S
O186 C182 1.258 . S
O186 Zn187 2.035 . S
Zn187 O186 2.035 . S
Zn187 O188 2.028 . S
Zn187 O190 2.028 . S
Zn187 O193 2.035 . S
O188 Zn187 2.028 . S
O188 C194 1.247 . S
O189 Zn185 2.035 . S
O189 C194 1.258 . S
O190 C183 1.247 . S
O190 Zn187 2.028 . S
O191 C183 1.258 . S
O191 Zn185 2.035 . S
O192 Zn185 2.028 . S
O192 C195 1.247 . S
O193 Zn187 2.035 . S
O193 C195 1.258 . S
C194 O188 1.247 . S
C194 O189 1.258 . S
C195 O192 1.247 . S
C195 O193 1.258 . S
C196 O198 1.247 . S
C196 O200 1.258 . S
C197 O204 1.247 . S
C197 O205 1.258 . S
O198 C196 1.247 . S
O198 Zn199 2.028 . S
Zn199 O198 2.028 . S
Zn199 O203 2.035 . S
Zn199 O205 2.035 . S
Zn199 O206 2.028 . S
O200 C196 1.258 . S
O200 Zn201 2.035 . S
Zn201 O200 2.035 . S
Zn201 O202 2.028 . S
Zn201 O204 2.028 . S
Zn201 O207 2.035 . S
O202 Zn201 2.028 . S
O202 C208 1.247 . S
O203 Zn199 2.035 . S
O203 C208 1.258 . S
O204 C197 1.247 . S
O204 Zn201 2.028 . S
O205 C197 1.258 . S
O205 Zn199 2.035 . S
O206 Zn199 2.028 . S
O206 C209 1.247 . S
O207 Zn201 2.035 . S
O207 C209 1.258 . S
C208 O202 1.247 . S
C208 O203 1.258 . S
C209 O206 1.247 . S
C209 O207 1.258 . S
C210 O212 1.247 . S
C210 O214 1.258 . S
C211 O218 1.247 . S
C211 O219 1.258 . S
O212 C210 1.247 . S
O212 Zn213 2.028 . S
Zn213 O212 2.028 . S
Zn213 O217 2.035 . S
Zn213 O219 2.035 . S
Zn213 O220 2.028 . S
O214 C210 1.258 . S
O214 Zn215 2.035 . S
Zn215 O214 2.035 . S
Zn215 O216 2.028 . S
Zn215 O218 2.028 . S
Zn215 O221 2.035 . S
O216 Zn215 2.028 . S
O216 C222 1.247 . S
O217 Zn213 2.035 . S
O217 C222 1.258 . S
O218 C211 1.247 . S
O218 Zn215 2.028 . S
O219 C211 1.258 . S
O219 Zn213 2.035 . S
O220 Zn213 2.028 . S
O220 C223 1.247 . S
O221 Zn215 2.035 . S
O221 C223 1.258 . S
C222 O216 1.247 . S
C222 O217 1.258 . S
C223 O220 1.247 . S
C223 O221 1.258 . S
C224 C225 1.369 . S
C224 C226 1.419 . S
C224 H228 0.930 . S
C225 C224 1.369 . S
C225 C234 1.429 . S
C226 C224 1.419 . S
C226 C227 1.363 . S
C226 H229 0.929 . S
C227 C226 1.363 . S
C227 C233 1.428 . S
H228 C224 0.930 . S
H229 C226 0.929 . S
S230 N231 1.613 . S
S230 N232 1.610 . S
N231 S230 1.613 . S
N231 C234 1.350 . S
N232 S230 1.610 . S
N232 C233 1.351 . S
C233 C227 1.428 . S
C233 N232 1.351 . S
C233 C234 1.434 . S
C234 C225 1.429 . S
C234 N231 1.350 . S
C234 C233 1.434 . S
C235 C236 1.369 . S
C235 C237 1.419 . S
C235 H239 0.930 . S
C236 C235 1.369 . S
C236 C245 1.429 . S
C237 C235 1.419 . S
C237 C238 1.363 . S
C237 H240 0.929 . S
C238 C237 1.363 . S
C238 C244 1.428 . S
H239 C235 0.930 . S
H240 C237 0.929 . S
S241 N242 1.613 . S
S241 N243 1.610 . S
N242 S241 1.613 . S
N242 C245 1.350 . S
N243 S241 1.610 . S
N243 C244 1.351 . S
C244 C238 1.428 . S
C244 N243 1.351 . S
C244 C245 1.434 . S
C245 C236 1.429 . S
C245 N242 1.350 . S
C245 C244 1.434 . S
C246 C247 1.369 . S
C246 C248 1.419 . S
C246 H250 0.930 . S
C247 C246 1.369 . S
C247 C256 1.429 . S
C248 C246 1.419 . S
C248 C249 1.363 . S
C248 H251 0.929 . S
C249 C248 1.363 . S
C249 C255 1.428 . S
H250 C246 0.930 . S
H251 C248 0.929 . S
S252 N253 1.613 . S
S252 N254 1.610 . S
N253 S252 1.613 . S
N253 C256 1.350 . S
N254 S252 1.610 . S
N254 C255 1.351 . S
C255 C249 1.428 . S
C255 N254 1.351 . S
C255 C256 1.434 . S
C256 C247 1.429 . S
C256 N253 1.350 . S
C256 C255 1.434 . S
C257 C258 1.369 . S
C257 C259 1.419 . S
C257 H261 0.930 . S
C258 C257 1.369 . S
C258 C267 1.429 . S
C259 C257 1.419 . S
C259 C260 1.363 . S
C259 H262 0.929 . S
C260 C259 1.363 . S
C260 C266 1.428 . S
H261 C257 0.930 . S
H262 C259 0.929 . S
S263 N264 1.613 . S
S263 N265 1.610 . S
N264 S263 1.613 . S
N264 C267 1.350 . S
N265 S263 1.610 . S
N265 C266 1.351 . S
C266 C260 1.428 . S
C266 N265 1.351 . S
C266 C267 1.434 . S
C267 C258 1.429 . S
C267 N264 1.350 . S
C267 C266 1.434 . S
C268 C269 1.369 1_556 S
C268 C270 1.419 . S
C268 H272 0.930 . S
C269 C268 1.369 1_554 S
C269 C278 1.429 . S
C270 C268 1.419 . S
C270 C271 1.363 . S
C270 H273 0.929 . S
C271 C270 1.363 . S
C271 C277 1.428 . S
H272 C268 0.930 . S
H273 C270 0.929 . S
S274 N275 1.613 . S
S274 N276 1.610 . S
N275 S274 1.613 . S
N275 C278 1.350 . S
N276 S274 1.610 . S
N276 C277 1.351 1_554 S
C277 C271 1.428 . S
C277 N276 1.351 1_556 S
C277 C278 1.434 1_556 S
C278 C269 1.429 . S
C278 N275 1.350 . S
C278 C277 1.434 1_554 S
C279 C280 1.369 . S
C279 C281 1.419 . S
C279 H283 0.930 . S
C280 C279 1.369 . S
C280 C289 1.429 . S
C281 C279 1.419 . S
C281 C282 1.363 1_554 S
C281 H284 0.929 1_554 S
C282 C281 1.363 1_556 S
C282 C288 1.428 1_556 S
H283 C279 0.930 . S
H284 C281 0.929 1_556 S
S285 N286 1.613 . S
S285 N287 1.610 . S
N286 S285 1.613 . S
N286 C289 1.350 . S
N287 S285 1.610 . S
N287 C288 1.351 . S
C288 C282 1.428 1_554 S
C288 N287 1.351 . S
C288 C289 1.434 . S
C289 C280 1.429 . S
C289 N286 1.350 . S
C289 C288 1.434 . S
C290 C291 1.369 . S
C290 C292 1.419 . S
C290 H294 0.930 . S
C291 C290 1.369 . S
C291 C300 1.429 1_556 S
C292 C290 1.419 . S
C292 C293 1.363 1_556 S
C292 H295 0.929 . S
C293 C292 1.363 1_554 S
C293 C299 1.428 . S
H294 C290 0.930 . S
H295 C292 0.929 . S
S296 N297 1.613 . S
S296 N298 1.610 . S
N297 S296 1.613 . S
N297 C300 1.350 . S
N298 S296 1.610 . S
N298 C299 1.351 . S
C299 C293 1.428 . S
C299 N298 1.351 . S
C299 C300 1.434 . S
C300 C291 1.429 1_554 S
C300 N297 1.350 . S
C300 C299 1.434 . S
C301 C302 1.369 . S
C301 C303 1.419 . S
C301 H305 0.930 . S
C302 C301 1.369 . S
C302 C311 1.429 . S
C303 C301 1.419 . S
C303 C304 1.363 1_554 S
C303 H306 0.929 1_655 S
C304 C303 1.363 1_556 S
C304 C310 1.428 . S
H305 C301 0.930 . S
H306 C303 0.929 1_455 S
S307 N308 1.613 1_556 S
S307 N309 1.610 . S
N308 S307 1.613 1_554 S
N308 C311 1.350 . S
N309 S307 1.610 . S
N309 C310 1.351 . S
C310 C304 1.428 . S
C310 N309 1.351 . S
C310 C311 1.434 1_556 S
C311 C302 1.429 . S
C311 N308 1.350 . S
C311 C310 1.434 1_554 S
C312 C313 1.369 . S
C312 C314 1.419 . S
C312 H316 0.930 . S
C313 C312 1.369 . S
C313 C322 1.429 . S
C314 C312 1.419 . S
C314 C315 1.363 . S
C314 H317 0.929 . S
C315 C314 1.363 . S
C315 C321 1.428 . S
H316 C312 0.930 . S
H317 C314 0.929 . S
S318 N319 1.613 . S
S318 N320 1.610 . S
N319 S318 1.613 . S
N319 C322 1.350 . S
N320 S318 1.610 . S
N320 C321 1.351 . S
C321 C315 1.428 . S
C321 N320 1.351 . S
C321 C322 1.434 . S
C322 C313 1.429 . S
C322 N319 1.350 . S
C322 C321 1.434 . S
C323 C324 1.369 . S
C323 C325 1.419 . S
C323 H327 0.930 . S
C324 C323 1.369 . S
C324 C333 1.429 . S
C325 C323 1.419 . S
C325 C326 1.363 . S
C325 H328 0.929 . S
C326 C325 1.363 . S
C326 C332 1.428 . S
H327 C323 0.930 . S
H328 C325 0.929 . S
S329 N330 1.613 . S
S329 N331 1.610 . S
N330 S329 1.613 . S
N330 C333 1.350 . S
N331 S329 1.610 . S
N331 C332 1.351 . S
C332 C326 1.428 . S
C332 N331 1.351 . S
C332 C333 1.434 . S
C333 C324 1.429 . S
C333 N330 1.350 . S
C333 C332 1.434 . S
C334 C335 1.369 . S
C334 C336 1.419 . S
C334 H338 0.930 1_545 S
C335 C334 1.369 . S
C335 C344 1.429 . S
C336 C334 1.419 . S
C336 C337 1.363 . S
C336 H339 0.929 . S
C337 C336 1.363 . S
C337 C343 1.428 . S
H338 C334 0.930 1_565 S
H339 C336 0.929 . S
S340 N341 1.613 . S
S340 N342 1.610 . S
N341 S340 1.613 . S
N341 C344 1.350 . S
N342 S340 1.610 . S
N342 C343 1.351 . S
C343 C337 1.428 . S
C343 N342 1.351 . S
C343 C344 1.434 . S
C344 C335 1.429 . S
C344 N341 1.350 . S
C344 C343 1.434 . S
C345 C346 1.369 . S
C345 C347 1.419 . S
C345 H349 0.930 . S
C346 C345 1.369 . S
C346 C355 1.429 . S
C347 C345 1.419 . S
C347 C348 1.363 . S
C347 H350 0.929 . S
C348 C347 1.363 . S
C348 C354 1.428 . S
H349 C345 0.930 . S
H350 C347 0.929 . S
S351 N352 1.613 1_455 S
S351 N353 1.610 . S
N352 S351 1.613 1_655 S
N352 C355 1.350 1_655 S
N353 S351 1.610 . S
N353 C354 1.351 . S
C354 C348 1.428 . S
C354 N353 1.351 . S
C354 C355 1.434 . S
C355 C346 1.429 . S
C355 N352 1.350 1_455 S
C355 C354 1.434 . S
C356 C357 1.369 . S
C356 C358 1.419 . S
C356 H360 0.930 . S
C357 C356 1.369 . S
C357 C366 1.429 . S
C358 C356 1.419 . S
C358 C359 1.363 . S
C358 H361 0.929 . S
C359 C358 1.363 . S
C359 C365 1.428 . S
H360 C356 0.930 . S
H361 C358 0.929 . S
S362 N363 1.613 . S
S362 N364 1.610 . S
N363 S362 1.613 . S
N363 C366 1.350 . S
N364 S362 1.610 . S
N364 C365 1.351 . S
C365 C359 1.428 . S
C365 N364 1.351 . S
C365 C366 1.434 . S
C366 C357 1.429 . S
C366 N363 1.350 . S
C366 C365 1.434 . S
C367 C368 1.369 . S
C367 C369 1.419 . S
C367 H371 0.930 . S
C368 C367 1.369 . S
C368 C377 1.429 . S
C369 C367 1.419 . S
C369 C370 1.363 . S
C369 H372 0.929 . S
C370 C369 1.363 . S
C370 C376 1.428 . S
H371 C367 0.930 . S
H372 C369 0.929 . S
S373 N374 1.613 . S
S373 N375 1.610 . S
N374 S373 1.613 . S
N374 C377 1.350 . S
N375 S373 1.610 . S
N375 C376 1.351 . S
C376 C370 1.428 . S
C376 N375 1.351 . S
C376 C377 1.434 . S
C377 C368 1.429 . S
C377 N374 1.350 . S
C377 C376 1.434 . S
C378 C379 1.369 . S
C378 C380 1.419 . S
C378 H382 0.930 . S
C379 C378 1.369 . S
C379 C388 1.429 . S
C380 C378 1.419 . S
C380 C381 1.363 . S
C380 H383 0.929 . S
C381 C380 1.363 . S
C381 C387 1.428 . S
H382 C378 0.930 . S
H383 C380 0.929 . S
S384 N385 1.613 . S
S384 N386 1.610 . S
N385 S384 1.613 . S
N385 C388 1.350 . S
N386 S384 1.610 . S
N386 C387 1.351 . S
C387 C381 1.428 . S
C387 N386 1.351 . S
C387 C388 1.434 . S
C388 C379 1.429 . S
C388 N385 1.350 . S
C388 C387 1.434 . S
C389 C390 1.369 . S
C389 C391 1.419 . S
C389 H393 0.930 . S
C390 C389 1.369 . S
C390 C399 1.429 . S
C391 C389 1.419 . S
C391 C392 1.363 . S
C391 H394 0.929 . S
C392 C391 1.363 . S
C392 C398 1.428 . S
H393 C389 0.930 . S
H394 C391 0.929 . S
S395 N396 1.613 . S
S395 N397 1.610 . S
N396 S395 1.613 . S
N396 C399 1.350 . S
N397 S395 1.610 . S
N397 C398 1.351 . S
C398 C392 1.428 . S
C398 N397 1.351 . S
C398 C399 1.434 . S
C399 C390 1.429 . S
C399 N396 1.350 . S
C399 C398 1.434 . S
C400 C401 1.369 . S
C400 C402 1.419 . S
C400 H404 0.930 . S
C401 C400 1.369 . S
C401 C410 1.429 . S
C402 C400 1.419 . S
C402 C403 1.363 . S
C402 H405 0.929 . S
C403 C402 1.363 . S
C403 C409 1.428 . S
H404 C400 0.930 . S
H405 C402 0.929 . S
S406 N407 1.613 . S
S406 N408 1.610 . S
N407 S406 1.613 . S
N407 C410 1.350 . S
N408 S406 1.610 . S
N408 C409 1.351 . S
C409 C403 1.428 . S
C409 N408 1.351 . S
C409 C410 1.434 . S
C410 C401 1.429 . S
C410 N407 1.350 . S
C410 C409 1.434 . S
C411 C412 1.369 . S
C411 C413 1.419 . S
C411 H415 0.930 . S
C412 C411 1.369 . S
C412 C421 1.429 . S
C413 C411 1.419 . S
C413 C414 1.363 . S
C413 H416 0.929 . S
C414 C413 1.363 . S
C414 C420 1.428 . S
H415 C411 0.930 . S
H416 C413 0.929 . S
S417 N418 1.613 . S
S417 N419 1.610 . S
N418 S417 1.613 . S
N418 C421 1.350 . S
N419 S417 1.610 . S
N419 C420 1.351 . S
C420 C414 1.428 . S
C420 N419 1.351 . S
C420 C421 1.434 . S
C421 C412 1.429 . S
C421 N418 1.350 . S
C421 C420 1.434 . S
C422 C423 1.369 . S
C422 C424 1.419 . S
C422 H426 0.930 . S
C423 C422 1.369 . S
C423 C432 1.429 . S
C424 C422 1.419 . S
C424 C425 1.363 . S
C424 H427 0.929 . S
C425 C424 1.363 . S
C425 C431 1.428 . S
H426 C422 0.930 . S
H427 C424 0.929 . S
S428 N429 1.613 . S
S428 N430 1.610 . S
N429 S428 1.613 . S
N429 C432 1.350 . S
N430 S428 1.610 . S
N430 C431 1.351 . S
C431 C425 1.428 . S
C431 N430 1.351 . S
C431 C432 1.434 . S
C432 C423 1.429 . S
C432 N429 1.350 . S
C432 C431 1.434 . S
C433 C434 1.369 . S
C433 C435 1.419 . S
C433 H437 0.930 . S
C434 C433 1.369 . S
C434 C443 1.429 . S
C435 C433 1.419 . S
C435 C436 1.363 . S
C435 H438 0.929 . S
C436 C435 1.363 . S
C436 C442 1.428 . S
H437 C433 0.930 . S
H438 C435 0.929 . S
S439 N440 1.613 . S
S439 N441 1.610 . S
N440 S439 1.613 . S
N440 C443 1.350 . S
N441 S439 1.610 . S
N441 C442 1.351 . S
C442 C436 1.428 . S
C442 N441 1.351 . S
C442 C443 1.434 . S
C443 C434 1.429 . S
C443 N440 1.350 . S
C443 C442 1.434 . S
C444 C445 1.369 . S
C444 C446 1.419 . S
C444 H448 0.930 . S
C445 C444 1.369 . S
C445 C454 1.429 . S
C446 C444 1.419 . S
C446 C447 1.363 . S
C446 H449 0.929 . S
C447 C446 1.363 . S
C447 C453 1.428 . S
H448 C444 0.930 . S
H449 C446 0.929 . S
S450 N451 1.613 . S
S450 N452 1.610 . S
N451 S450 1.613 . S
N451 C454 1.350 . S
N452 S450 1.610 . S
N452 C453 1.351 . S
C453 C447 1.428 . S
C453 N452 1.351 . S
C453 C454 1.434 . S
C454 C445 1.429 . S
C454 N451 1.350 . S
C454 C453 1.434 . S
C455 C456 1.369 . S
C455 C457 1.419 . S
C455 H459 0.930 . S
C456 C455 1.369 . S
C456 C465 1.429 . S
C457 C455 1.419 . S
C457 C458 1.363 . S
C457 H460 0.929 . S
C458 C457 1.363 . S
C458 C464 1.428 . S
H459 C455 0.930 . S
H460 C457 0.929 . S
S461 N462 1.613 . S
S461 N463 1.610 . S
N462 S461 1.613 . S
N462 C465 1.350 . S
N463 S461 1.610 . S
N463 C464 1.351 . S
C464 C458 1.428 . S
C464 N463 1.351 . S
C464 C465 1.434 . S
C465 C456 1.429 . S
C465 N462 1.350 . S
C465 C464 1.434 . S
C466 C467 1.369 . S
C466 C468 1.419 . S
C466 H470 0.930 . S
C467 C466 1.369 . S
C467 C476 1.429 . S
C468 C466 1.419 . S
C468 C469 1.363 . S
C468 H471 0.929 . S
C469 C468 1.363 . S
C469 C475 1.428 . S
H470 C466 0.930 . S
H471 C468 0.929 . S
S472 N473 1.613 . S
S472 N474 1.610 . S
N473 S472 1.613 . S
N473 C476 1.350 . S
N474 S472 1.610 . S
N474 C475 1.351 . S
C475 C469 1.428 . S
C475 N474 1.351 . S
C475 C476 1.434 . S
C476 C467 1.429 . S
C476 N473 1.350 . S
C476 C475 1.434 . S
C477 C478 1.369 . S
C477 C479 1.419 . S
C477 H481 0.930 . S
C478 C477 1.369 . S
C478 C487 1.429 . S
C479 C477 1.419 . S
C479 C480 1.363 . S
C479 H482 0.929 . S
C480 C479 1.363 . S
C480 C486 1.428 . S
H481 C477 0.930 . S
H482 C479 0.929 . S
S483 N484 1.613 . S
S483 N485 1.610 . S
N484 S483 1.613 . S
N484 C487 1.350 . S
N485 S483 1.610 . S
N485 C486 1.351 . S
C486 C480 1.428 . S
C486 N485 1.351 . S
C486 C487 1.434 . S
C487 C478 1.429 . S
C487 N484 1.350 . S
C487 C486 1.434 . S
C488 C489 1.369 1_455 S
C488 C490 1.419 1_565 S
C488 H492 0.930 . S
C489 C488 1.369 1_655 S
C489 C498 1.429 . S
C490 C488 1.419 1_545 S
C490 C491 1.363 . S
C490 H493 0.929 . S
C491 C490 1.363 . S
C491 C497 1.428 1_455 S
H492 C488 0.930 . S
H493 C490 0.929 . S
S494 N495 1.613 1_545 S
S494 N496 1.610 . S
N495 S494 1.613 1_565 S
N495 C498 1.350 . S
N496 S494 1.610 . S
N496 C497 1.351 . S
C497 C491 1.428 1_655 S
C497 N496 1.351 . S
C497 C498 1.434 1_545 S
C498 C489 1.429 . S
C498 N495 1.350 . S
C498 C497 1.434 1_565 S
C499 C500 1.369 1_565 S
C499 C501 1.419 1_655 S
C499 H503 0.930 . S
C500 C499 1.369 1_545 S
C500 C509 1.429 . S
C501 C499 1.419 1_455 S
C501 C502 1.363 . S
C501 H504 0.929 . S
C502 C501 1.363 . S
C502 C508 1.428 1_565 S
H503 C499 0.930 . S
H504 C501 0.929 . S
S505 N506 1.613 1_455 S
S505 N507 1.610 . S
N506 S505 1.613 1_655 S
N506 C509 1.350 . S
N507 S505 1.610 . S
N507 C508 1.351 . S
C508 C502 1.428 1_545 S
C508 N507 1.351 . S
C508 C509 1.434 1_455 S
C509 C500 1.429 . S
C509 N506 1.350 . S
C509 C508 1.434 1_655 S
C510 C511 1.369 . S
C510 C512 1.419 1_455 S
C510 H514 0.930 . S
C511 C510 1.369 . S
C511 C520 1.429 . S
C512 C510 1.419 1_655 S
C512 C513 1.363 . S
C512 H515 0.929 . S
C513 C512 1.363 . S
C513 C519 1.428 . S
H514 C510 0.930 . S
H515 C512 0.929 . S
S516 N517 1.613 . S
S516 N518 1.610 1_455 S
N517 S516 1.613 . S
N517 C520 1.350 . S
N518 S516 1.610 1_655 S
N518 C519 1.351 . S
C519 C513 1.428 . S
C519 N518 1.351 . S
C519 C520 1.434 1_655 S
C520 C511 1.429 . S
C520 N517 1.350 . S
C520 C519 1.434 1_455 S
C521 C522 1.369 1_545 S
C521 C523 1.419 . S
C521 H525 0.930 . S
C522 C521 1.369 1_565 S
C522 C531 1.429 . S
C523 C521 1.419 . S
C523 C524 1.363 . S
C523 H526 0.929 . S
C524 C523 1.363 . S
C524 C530 1.428 1_545 S
H525 C521 0.930 . S
H526 C523 0.929 . S
S527 N528 1.613 . S
S527 N529 1.610 . S
N528 S527 1.613 . S
N528 C531 1.350 . S
N529 S527 1.610 . S
N529 C530 1.351 . S
C530 C524 1.428 1_565 S
C530 N529 1.351 . S
C530 C531 1.434 . S
C531 C522 1.429 . S
C531 N528 1.350 . S
C531 C530 1.434 . S
C532 C533 1.369 . S
C532 C534 1.419 . S
C532 H536 0.930 . S
C533 C532 1.369 . S
C533 C542 1.429 . S
C534 C532 1.419 . S
C534 C535 1.363 . S
C534 H537 0.929 . S
C535 C534 1.363 . S
C535 C541 1.428 . S
H536 C532 0.930 . S
H537 C534 0.929 . S
S538 N539 1.613 . S
S538 N540 1.610 . S
N539 S538 1.613 . S
N539 C542 1.350 . S
N540 S538 1.610 . S
N540 C541 1.351 . S
C541 C535 1.428 . S
C541 N540 1.351 . S
C541 C542 1.434 . S
C542 C533 1.429 . S
C542 N539 1.350 . S
C542 C541 1.434 . S
C543 C544 1.369 . S
C543 C545 1.419 . S
C543 H547 0.930 . S
C544 C543 1.369 . S
C544 C553 1.429 . S
C545 C543 1.419 . S
C545 C546 1.363 . S
C545 H548 0.929 . S
C546 C545 1.363 . S
C546 C552 1.428 . S
H547 C543 0.930 . S
H548 C545 0.929 . S
S549 N550 1.613 . S
S549 N551 1.610 . S
N550 S549 1.613 . S
N550 C553 1.350 . S
N551 S549 1.610 . S
N551 C552 1.351 . S
C552 C546 1.428 . S
C552 N551 1.351 . S
C552 C553 1.434 . S
C553 C544 1.429 . S
C553 N550 1.350 . S
C553 C552 1.434 . S
C554 C555 1.369 . S
C554 C556 1.419 1_545 S
C554 H558 0.930 . S
C555 C554 1.369 . S
C555 C564 1.429 . S
C556 C554 1.419 1_565 S
C556 C557 1.363 . S
C556 H559 0.929 . S
C557 C556 1.363 . S
C557 C563 1.428 . S
H558 C554 0.930 . S
H559 C556 0.929 . S
S560 N561 1.613 . S
S560 N562 1.610 1_545 S
N561 S560 1.613 . S
N561 C564 1.350 . S
N562 S560 1.610 1_565 S
N562 C563 1.351 . S
C563 C557 1.428 . S
C563 N562 1.351 . S
C563 C564 1.434 1_565 S
C564 C555 1.429 . S
C564 N561 1.350 . S
C564 C563 1.434 1_545 S
C565 C566 1.369 . S
C565 C567 1.419 1_655 S
C565 H569 0.930 . S
C566 C565 1.369 . S
C566 C575 1.429 . S
C567 C565 1.419 1_455 S
C567 C568 1.363 . S
C567 H570 0.929 . S
C568 C567 1.363 . S
C568 C574 1.428 . S
H569 C565 0.930 . S
H570 C567 0.929 . S
S571 N572 1.613 . S
S571 N573 1.610 1_655 S
N572 S571 1.613 . S
N572 C575 1.350 . S
N573 S571 1.610 1_455 S
N573 C574 1.351 . S
C574 C568 1.428 . S
C574 N573 1.351 . S
C574 C575 1.434 1_455 S
C575 C566 1.429 . S
C575 N572 1.350 . S
C575 C574 1.434 1_655 S
C225 C12 1.602 . S
C227 C155 1.615 . S
C236 C112 1.616 . S
C238 C14 1.602 . S
C247 C127 1.613 . S
C249 C28 1.602 . S
C258 C141 1.616 . S
C260 C54 1.599 . S
C269 C71 1.612 1_545 S
C271 C69 1.602 . S
C280 C82 1.598 . S
C282 C85 1.616 1_455 S
C291 C96 1.597 . S
C293 C99 1.614 1_565 S
C302 C110 1.598 . S
C304 C56 1.615 1_655 S
C313 C125 1.599 . S
C315 C43 1.614 1_565 S
C324 C1 1.615 1_655 S
C326 C138 1.600 . S
C335 C27 1.613 1_545 S
C337 C152 1.598 . S
C346 C41 1.616 1_455 S
C348 C166 1.603 . S
C357 C183 1.616 . S
C359 C181 1.601 . S
C368 C194 1.599 . S
C370 C208 1.614 . S
C379 C223 1.613 . S
C381 C197 1.603 . S
C390 C168 1.612 . S
C392 C210 1.603 . S
C401 C209 1.755 . S
C403 C0 1.756 . S
C412 C222 1.755 . S
C414 C26 1.756 . S
C423 C169 1.760 . S
C425 C40 1.756 . S
C434 C42 1.757 . S
C436 C182 1.756 . S
C445 C57 1.756 . S
C447 C140 1.757 . S
C456 C154 1.755 . S
C458 C70 1.757 . S
C467 C84 1.758 . S
C469 C113 1.760 . S
C478 C98 1.758 . S
C480 C126 1.760 . S
C489 C29 1.657 . S
C491 C13 1.656 . S
C500 C55 1.656 . S
C502 C15 1.656 . S
C511 C68 1.651 . S
C513 C97 1.653 . S
C522 C83 1.653 . S
C524 C111 1.653 . S
C533 C153 1.657 . S
C535 C124 1.655 . S
C544 C139 1.656 . S
C546 C167 1.655 . S
C555 C196 1.656 . S
C557 C180 1.655 . S
C566 C195 1.653 . S
C568 C211 1.653 . S
