# Generated by pormake.
# Topology smc, (6)-cn, num edge types: 1
# Building blocks:
#     Node 0, Type 0, BuildingBlock: VOLQOD_clean_sbu_1, # of connection points: 6
#     Node 1, Type 0, BuildingBlock: VOLQOD_clean_sbu_1, # of connection points: 6
#     Node 2, Type 0, BuildingBlock: VOLQOD_clean_sbu_1, # of connection points: 6
#     Node 3, Type 0, BuildingBlock: VOLQOD_clean_sbu_1, # of connection points: 6
#     Node 4, Type 0, BuildingBlock: VOLQOD_clean_sbu_1, # of connection points: 6
#     Node 5, Type 0, BuildingBlock: VOLQOD_clean_sbu_1, # of connection points: 6
#     Node 6, Type 0, BuildingBlock: VOLQOD_clean_sbu_1, # of connection points: 6
#     Node 7, Type 0, BuildingBlock: VOLQOD_clean_sbu_1, # of connection points: 6
#     Node 8, Type 0, BuildingBlock: VOLQOD_clean_sbu_1, # of connection points: 6
#     Edge 9, Type (0, 0), BuildingBlock: KIFKEQ_clean_linker_1, # of connection points: 2
#     Edge 10, Type (0, 0), BuildingBlock: KIFKEQ_clean_linker_1, # of connection points: 2
#     Edge 11, Type (0, 0), BuildingBlock: KIFKEQ_clean_linker_1, # of connection points: 2
#     Edge 12, Type (0, 0), BuildingBlock: KIFKEQ_clean_linker_1, # of connection points: 2
#     Edge 13, Type (0, 0), BuildingBlock: KIFKEQ_clean_linker_1, # of connection points: 2
#     Edge 14, Type (0, 0), BuildingBlock: KIFKEQ_clean_linker_1, # of connection points: 2
#     Edge 15, Type (0, 0), BuildingBlock: KIFKEQ_clean_linker_1, # of connection points: 2
#     Edge 16, Type (0, 0), BuildingBlock: KIFKEQ_clean_linker_1, # of connection points: 2
#     Edge 17, Type (0, 0), BuildingBlock: KIFKEQ_clean_linker_1, # of connection points: 2
#     Edge 18, Type (0, 0), BuildingBlock: KIFKEQ_clean_linker_1, # of connection points: 2
#     Edge 19, Type (0, 0), BuildingBlock: KIFKEQ_clean_linker_1, # of connection points: 2
#     Edge 20, Type (0, 0), BuildingBlock: KIFKEQ_clean_linker_1, # of connection points: 2
#     Edge 21, Type (0, 0), BuildingBlock: KIFKEQ_clean_linker_1, # of connection points: 2
#     Edge 22, Type (0, 0), BuildingBlock: KIFKEQ_clean_linker_1, # of connection points: 2
#     Edge 23, Type (0, 0), BuildingBlock: KIFKEQ_clean_linker_1, # of connection points: 2
#     Edge 24, Type (0, 0), BuildingBlock: KIFKEQ_clean_linker_1, # of connection points: 2
#     Edge 25, Type (0, 0), BuildingBlock: KIFKEQ_clean_linker_1, # of connection points: 2
#     Edge 26, Type (0, 0), BuildingBlock: KIFKEQ_clean_linker_1, # of connection points: 2
#     Edge 27, Type (0, 0), BuildingBlock: KIFKEQ_clean_linker_1, # of connection points: 2
#     Edge 28, Type (0, 0), BuildingBlock: KIFKEQ_clean_linker_1, # of connection points: 2
#     Edge 29, Type (0, 0), BuildingBlock: KIFKEQ_clean_linker_1, # of connection points: 2
#     Edge 30, Type (0, 0), BuildingBlock: KIFKEQ_clean_linker_1, # of connection points: 2
#     Edge 31, Type (0, 0), BuildingBlock: KIFKEQ_clean_linker_1, # of connection points: 2
#     Edge 32, Type (0, 0), BuildingBlock: KIFKEQ_clean_linker_1, # of connection points: 2
#     Edge 33, Type (0, 0), BuildingBlock: KIFKEQ_clean_linker_1, # of connection points: 2
#     Edge 34, Type (0, 0), BuildingBlock: KIFKEQ_clean_linker_1, # of connection points: 2
#     Edge 35, Type (0, 0), BuildingBlock: KIFKEQ_clean_linker_1, # of connection points: 2
# Relax obj value: 0.338
# Max RMSD: 0.273
# Mean RMSD: 0.261
data_MOF--net-smc--node1-VOLQOD_clean_sbu_1--edge1-KIFKEQ_clean_linker_1
_symmetry_space_group_name_H-M    P1
_symmetry_Int_Tables_number       1
_symmetry_cell_setting            triclinic
loop_
_symmetry_equiv_pos_as_xyz
'x, y, z'
_cell_length_a     31.463992
_cell_length_b     31.891598
_cell_length_c     49.354702
_cell_angle_alpha  89.96679
_cell_angle_beta   90.460526
_cell_angle_gamma 121.29587
loop_
_atom_site_label
_atom_site_type_symbol
_atom_site_fract_x
_atom_site_fract_y
_atom_site_fract_z
_atom_type_partial_charge
O0 O 0.93284 0.48263 0.99642 0.0
Zn1 Zn 0.97864 0.46324 0.98155 0.0
O2 O -0.00939 0.42762 0.00926 0.0
Zn3 Zn -0.01771 0.36782 0.99419 0.0
Zn4 Zn 0.94915 0.41439 0.04028 0.0
Zn5 Zn 0.05726 0.4698 0.02129 0.0
O6 O 0.04923 0.37479 0.98741 0.0
O7 O 0.09908 0.45289 1.00005 0.0
O8 O 0.94983 0.42352 0.94718 0.0
O9 O 0.94902 0.35536 0.95768 0.0
O10 O 0.9356 0.30968 0.01705 0.0
O11 O 0.90152 0.34221 0.0424 0.0
O12 O -0.01116 0.43241 0.07481 0.0
O13 O 0.03939 0.52891 0.97394 0.0
O14 O 0.06629 0.46203 0.06113 0.0
O15 O 0.07863 0.53954 0.0132 0.0
C16 C 0.91167 0.47764 0.01904 0.0
C17 C 0.09199 0.41389 0.98878 0.0
C18 C 0.90291 0.3052 0.03388 0.0
C19 C 0.93931 0.38022 0.94129 0.0
C20 C 0.03447 0.4485 0.07999 0.0
C21 C 0.0713 0.5569 0.99161 0.0
O22 O 0.91395 0.45194 0.03812 0.0
O23 O 0.52206 0.46989 0.99022 0.0
Zn24 Zn 0.53692 0.5347 0.9761 0.0
O25 O 0.57332 0.58675 0.00266 0.0
Zn26 Zn 0.63484 0.63813 0.98624 0.0
Zn27 Zn 0.58566 0.55904 0.03435 0.0
Zn28 Zn 0.53411 0.61357 0.01465 0.0
O29 O 0.63947 0.70403 0.98658 0.0
O30 O 0.56135 0.67879 0.99801 0.0
O31 O 0.57098 0.54878 0.93985 0.0
O32 O 0.63666 0.6234 0.94658 0.0
O33 O 0.69342 0.6396 0.00424 0.0
O34 O 0.65721 0.58045 0.03513 0.0
O35 O 0.57179 0.58199 0.06899 0.0
O36 O 0.46928 0.52392 0.97045 0.0
O37 O 0.53719 0.6239 0.05557 0.0
O38 O 0.46366 0.5714 1.00146 0.0
C39 C 0.52302 0.45526 0.01407 0.0
C40 C 0.60371 0.71151 0.9893 0.0
C41 C 0.69578 0.61315 0.0229 0.0
C42 C 0.60993 0.5868 0.93112 0.0
C43 C 0.55316 0.60806 0.07437 0.0
C44 C 0.44431 0.53878 0.98291 0.0
O45 O 0.54428 0.48545 0.03355 0.0
O46 O 0.45814 0.92751 0.02041 0.0
Zn47 Zn 0.45201 0.98301 0.03428 0.0
O48 O 0.42257 0.00372 0.00683 0.0
Zn49 Zn 0.3631 -0.00034 0.02031 0.0
Zn50 Zn 0.41031 0.96574 0.97459 0.0
Zn51 Zn 0.46869 0.06956 0.99712 0.0
O52 O 0.36894 0.06626 0.01849 0.0
O53 O 0.45173 0.11196 0.01762 0.0
O54 O 0.41524 0.96684 0.06973 0.0
O55 O 0.35638 0.98343 0.06014 0.0
O56 O 0.30288 0.94343 1.00139 0.0
O57 O 0.33805 0.91561 0.97331 0.0
O58 O 0.42633 0.00631 0.94083 0.0
O59 O 0.52355 0.03509 0.0407 0.0
O60 O 0.46442 0.08199 0.95736 0.0
O61 O 0.53751 0.08643 0.00676 0.0
C62 C 0.46389 0.91782 0.99614 0.0
C63 C 0.40962 0.10719 0.02193 0.0
C64 C 0.29963 0.9121 0.98405 0.0
C65 C 0.37853 0.9706 0.0769 0.0
C66 C 0.44698 0.05236 0.93738 0.0
C67 C 0.55324 0.07113 0.02594 0.0
O68 O 0.45059 0.93339 0.97593 0.0
O69 O 0.60182 0.82143 0.32281 0.0
Zn70 Zn 0.65302 0.80732 0.30928 0.0
O71 O 0.67033 0.77546 0.337 0.0
Zn72 Zn 0.65737 0.71251 0.32406 0.0
Zn73 Zn 0.63505 0.77066 0.36953 0.0
Zn74 Zn 0.73893 0.81483 0.34631 0.0
O75 O 0.72056 0.70976 0.3239 0.0
O76 O 0.77556 0.79016 0.32617 0.0
O77 O 0.62965 0.76817 0.27443 0.0
O78 O 0.634 0.70272 0.28495 0.0
O79 O 0.60172 0.65885 0.34598 0.0
O80 O 0.58077 0.70111 0.37302 0.0
O81 O 0.67723 0.78621 0.40316 0.0
O82 O 0.71068 0.87519 0.30257 0.0
O83 O 0.75176 0.81116 0.38646 0.0
O84 O 0.76334 0.88383 0.33549 0.0
C85 C 0.59246 0.82854 0.34687 0.0
C86 C 0.76454 0.74654 0.32111 0.0
C87 C 0.57334 0.66053 0.36375 0.0
C88 C 0.62455 0.72708 0.268 0.0
C89 C 0.72281 0.8001 0.40661 0.0
C90 C 0.7497 0.90189 0.31672 0.0
O91 O 0.60646 0.81432 0.36738 0.0
O92 O 0.19564 0.81918 0.33094 0.0
Zn93 Zn 0.21274 0.88509 0.31816 0.0
O94 O 0.24959 0.93379 0.34614 0.0
Zn95 Zn 0.30902 -0.01134 0.32977 0.0
Zn96 Zn 0.26643 0.90478 0.37551 0.0
Zn97 Zn 0.20675 0.95357 0.36169 0.0
O98 O 0.30725 0.05148 0.33299 0.0
O99 O 0.23162 0.02189 0.35047 0.0
O100 O 0.24846 0.90069 0.28259 0.0
O101 O 0.31094 0.97698 0.2896 0.0
O102 O 0.3712 -0.00756 0.34553 0.0
O103 O 0.33798 0.92825 0.37334 0.0
O104 O 0.25467 0.92371 0.41229 0.0
O105 O 0.14544 0.87531 0.31197 0.0
O106 O 0.20807 0.95501 0.40249 0.0
O107 O 0.13624 0.90934 0.34893 0.0
C108 C 0.20108 0.80279 0.35334 0.0
C109 C 0.27173 0.0569 0.34068 0.0
C110 C 0.37552 0.9636 0.36178 0.0
C111 C 0.28611 0.94005 0.27404 0.0
C112 C 0.2298 0.94276 0.41979 0.0
C113 C 0.11822 0.88242 0.32789 0.0
O114 O 0.22679 0.83122 0.37274 0.0
O115 O 0.1992 0.41115 0.33206 0.0
Zn116 Zn 0.13246 0.35925 0.31842 0.0
O117 O 0.08167 0.34667 0.34498 0.0
Zn118 Zn 0.03147 0.35639 0.32798 0.0
Zn119 Zn 0.11193 0.39036 0.37548 0.0
Zn120 Zn 0.05245 0.28108 0.35901 0.0
O121 O 0.96367 0.29471 0.32854 0.0
O122 O -0.01639 0.24165 0.34465 0.0
O123 O 0.11914 0.37808 0.28153 0.0
O124 O 0.04669 0.37213 0.28877 0.0
O125 O 0.03275 0.415 0.34419 0.0
O126 O 0.09527 0.44233 0.37394 0.0
O127 O 0.08679 0.35664 0.41088 0.0
O128 O 0.14074 0.30128 0.31504 0.0
O129 O 0.04587 0.27793 0.39978 0.0
O130 O 0.09274 0.25173 0.34772 0.0
C131 C 0.21532 0.42871 0.35562 0.0
C132 C 0.95232 0.25132 0.33458 0.0
C133 C 0.0621 0.44659 0.36157 0.0
C134 C 0.08208 0.38042 0.27308 0.0
C135 C 0.06113 0.31174 0.41755 0.0
C136 C 0.1253 0.26299 0.32943 0.0
O137 O 0.18588 0.42131 0.37503 0.0
O138 O 0.25877 0.14846 0.67038 0.0
Zn139 Zn 0.30409 0.12821 0.65499 0.0
O140 O 0.3204 0.09572 0.68274 0.0
Zn141 Zn 0.30718 0.03245 0.66964 0.0
Zn142 Zn 0.28568 0.08924 0.71579 0.0
Zn143 Zn 0.38923 0.13703 0.69109 0.0
O144 O 0.37128 0.03249 0.66465 0.0
O145 O 0.42482 0.11285 0.66972 0.0
O146 O 0.27523 0.08662 0.62131 0.0
O147 O 0.27755 0.02023 0.63206 0.0
O148 O 0.25575 0.97762 0.69302 0.0
O149 O 0.23432 0.01904 0.72031 0.0
O150 O 0.33033 0.10836 0.74863 0.0
O151 O 0.36356 0.19247 0.64458 0.0
O152 O 0.40434 0.1347 0.73067 0.0
O153 O 0.41352 0.20616 0.6798 0.0
C154 C 0.24379 0.14866 0.69424 0.0
C155 C 0.41455 0.07049 0.66212 0.0
C156 C 0.22787 0.9787 0.71132 0.0
C157 C 0.26745 0.04431 0.61531 0.0
C158 C 0.37645 0.1238 0.75126 0.0
C159 C 0.40155 0.22125 0.65886 0.0
O160 O 0.25237 0.12842 0.71406 0.0
O161 O 0.83956 0.12755 0.66252 0.0
Zn162 Zn 0.85689 0.19383 0.65012 0.0
O163 O 0.89057 0.24219 0.67874 0.0
Zn164 Zn 0.95319 0.29555 0.66476 0.0
Zn165 Zn 0.9019 0.21113 0.70915 0.0
Zn166 Zn 0.84883 0.26582 0.69159 0.0
O167 O 0.95441 0.35977 0.66476 0.0
O168 O 0.87823 0.33469 0.67985 0.0
O169 O 0.89553 0.21083 0.61536 0.0
O170 O 0.96209 0.28266 0.62612 0.0
O171 O 0.01101 0.29836 0.68445 0.0
O172 O 0.97336 0.23144 0.71023 0.0
O173 O 0.88808 0.23219 0.74435 0.0
O174 O 0.7901 0.18374 0.64269 0.0
O175 O 0.84636 0.26792 0.7326 0.0
O176 O 0.78004 0.22562 0.67549 0.0
C177 C 0.83796 0.10997 0.68587 0.0
C178 C 0.91987 0.36784 0.67054 0.0
C179 C 0.01261 0.26801 0.70065 0.0
C180 C 0.93732 0.24817 0.60916 0.0
C181 C 0.86529 0.25393 0.75073 0.0
C182 C 0.76324 0.19597 0.65544 0.0
O183 O 0.85846 0.1377 0.70639 0.0
O184 O 0.79705 0.60535 0.67846 0.0
Zn185 Zn 0.77898 0.65193 0.69265 0.0
O186 O 0.74908 0.67045 0.66442 0.0
Zn187 Zn 0.68591 0.65963 0.67737 0.0
Zn188 Zn 0.74144 0.63332 0.63184 0.0
Zn189 Zn 0.79212 0.73845 0.65595 0.0
O190 O 0.68385 0.72212 0.67741 0.0
O191 O 0.76535 0.77504 0.67396 0.0
O192 O 0.73794 0.62683 0.72654 0.0
O193 O 0.67623 0.63896 0.71673 0.0
O194 O 0.63013 0.6038 0.65639 0.0
O195 O 0.66982 0.58036 0.62879 0.0
O196 O 0.75878 0.67562 0.59848 0.0
O197 O 0.84548 0.70833 0.70284 0.0
O198 O 0.79355 0.75091 0.6155 0.0
O199 O 0.86063 0.76423 0.67136 0.0
C200 C 0.80202 0.59325 0.65468 0.0
C201 C 0.72179 0.7653 0.67957 0.0
C202 C 0.62975 0.57425 0.63881 0.0
C203 C 0.69867 0.62622 0.73332 0.0
C204 C 0.77875 0.72173 0.59524 0.0
C205 C 0.87469 0.74887 0.69132 0.0
O206 O 0.78449 0.60312 0.6339 0.0
H207 H 0.38652 0.57789 0.99041 0.0
H208 H 0.38219 0.44782 0.9614 0.0
H209 H 0.2972 0.53805 0.98274 0.0
H210 H 0.29212 0.40759 0.9541 0.0
H211 H 0.13254 0.35803 0.99973 0.0
H212 H 0.21925 0.38332 0.99051 0.0
H213 H 0.23527 0.50288 0.94154 0.0
H214 H 0.14936 0.47798 0.95095 0.0
C215 C 0.3665 0.54097 0.98219 0.0
C216 C 0.39111 0.51592 0.97652 0.0
C217 C 0.31557 0.51833 0.97759 0.0
C218 C 0.28821 0.47001 0.9676 0.0
C219 C 0.31271 0.44497 0.96164 0.0
C220 C 0.36402 0.46803 0.96577 0.0
C221 C 0.15407 0.38817 0.98597 0.0
C222 C 0.13511 0.41653 0.97621 0.0
C223 C 0.20348 0.40267 0.98072 0.0
C224 C 0.23374 0.44549 0.96574 0.0
C225 C 0.21264 0.47009 0.95338 0.0
C226 C 0.16365 0.45579 0.95869 0.0
H227 H 0.49941 0.90559 0.94815 0.0
H228 H 0.49358 0.87586 0.03399 0.0
H229 H 0.55184 0.87084 0.94158 0.0
H230 H 0.54481 0.84052 0.02733 0.0
H231 H 0.65121 0.79683 0.01759 0.0
H232 H 0.62794 0.85905 0.01563 0.0
H233 H 0.53896 0.78892 0.94396 0.0
H234 H 0.56333 0.72804 0.94577 0.0
C235 C 0.50895 0.89132 0.96557 0.0
C236 C 0.49199 0.89314 0.99158 0.0
C237 C 0.5393 0.87183 0.96182 0.0
C238 C 0.5532 0.85377 0.98399 0.0
C239 C 0.53605 0.85548 0.00992 0.0
C240 C 0.50589 0.87498 0.01368 0.0
C241 C 0.62911 0.79672 1.00061 0.0
C242 C 0.60905 0.75819 0.98177 0.0
C243 C 0.61511 0.8317 0.99968 0.0
C244 C 0.58053 0.82798 0.98007 0.0
C245 C 0.56565 0.79289 0.9593 0.0
C246 C 0.57972 0.7581 0.96023 0.0
H247 H 0.2185 0.87032 0.01698 0.0
H248 H 0.2732 0.84938 0.94124 0.0
H249 H 0.15206 0.78409 0.01636 0.0
H250 H 0.20719 0.76338 0.9408 0.0
H251 H 0.12673 0.62733 0.02918 0.0
H252 H 0.16866 0.71572 0.02402 0.0
H253 H 0.11637 0.69708 0.94118 0.0
H254 H 0.07405 0.60793 0.94625 0.0
C255 C 0.21528 0.84785 0.99972 0.0
C256 C 0.25163 0.8662 0.97947 0.0
C257 C 0.1775 0.79844 0.99948 0.0
C258 C 0.17532 0.76697 0.97886 0.0
C259 C 0.20807 0.78677 0.95698 0.0
C260 C 0.24602 0.83599 0.95731 0.0
C261 C 0.12402 0.6419 0.00984 0.0
C262 C 0.09751 0.6106 0.98803 0.0
C263 C 0.14742 0.69258 0.00703 0.0
C264 C 0.14516 0.71317 0.98231 0.0
C265 C 0.11844 0.68203 0.96049 0.0
C266 C 0.09451 0.63112 0.96338 0.0
H267 H 0.4746 0.17855 0.05549 0.0
H268 H 0.34625 0.1365 0.0046 0.0
H269 H 0.49102 0.26157 0.05837 0.0
H270 H 0.36232 0.22033 0.00769 0.0
H271 H 0.47331 0.38076 0.97754 0.0
H272 H 0.4315 0.29319 0.98579 0.0
H273 H 0.46844 0.32111 0.07098 0.0
H274 H 0.5114 0.40921 0.06269 0.0
C275 C 0.44894 0.18689 0.04566 0.0
C276 C 0.40971 0.15169 0.02947 0.0
C277 C 0.45811 0.23438 0.04746 0.0
C278 C 0.42839 0.24763 0.03291 0.0
C279 C 0.3862 0.21113 0.01879 0.0
C280 C 0.37673 0.16321 0.01719 0.0
C281 C 0.47239 0.36835 0.99808 0.0
C282 C 0.49655 0.40202 0.01938 0.0
C283 C 0.44766 0.31806 0.00287 0.0
C284 C 0.44648 0.30027 0.02906 0.0
C285 C 0.469 0.33384 0.05056 0.0
C286 C 0.49384 0.38425 0.04577 0.0
H287 H 0.6254 0.12142 0.98899 0.0
H288 H 0.6026 0.07164 0.07202 0.0
H289 H 0.71477 0.16243 0.9957 0.0
H290 H 0.69299 0.11366 0.07884 0.0
H291 H 0.8396 0.27926 0.0764 0.0
H292 H 0.75598 0.20742 0.07806 0.0
H293 H 0.78626 0.14833 0.00714 0.0
H294 H 0.87012 0.22031 0.00536 0.0
C295 C 0.63955 0.11904 0.00865 0.0
C296 C 0.60719 0.09409 0.03012 0.0
C297 C 0.6907 0.1418 0.01236 0.0
C298 C 0.71063 0.14066 0.03771 0.0
C299 C 0.67835 0.11464 0.05907 0.0
C300 C 0.62687 0.09098 0.0552 0.0
C301 C 0.82907 0.25008 0.06177 0.0
C302 C 0.8607 0.25597 0.04027 0.0
C303 C 0.78131 0.20876 0.06286 0.0
C304 C 0.76456 0.17307 0.04236 0.0
C305 C 0.79834 0.17585 0.02296 0.0
C306 C 0.84633 0.217 0.022 0.0
H307 H 0.94041 0.5672 0.99883 0.0
H308 H 0.83132 0.45356 0.05056 0.0
H309 H 0.90148 0.61521 0.00539 0.0
H310 H 0.79012 0.49999 0.05588 0.0
H311 H 0.72638 0.59043 0.06937 0.0
H312 H 0.78966 0.5684 0.07296 0.0
H313 H 0.82981 0.61119 0.98945 0.0
H314 H 0.76873 0.63554 0.98654 0.0
C315 C 0.90769 0.55236 0.01144 0.0
C316 C 0.88809 0.50633 0.02379 0.0
C317 C 0.88543 0.57988 0.01523 0.0
C318 C 0.84235 0.5614 0.03093 0.0
C319 C 0.82374 0.51588 0.04401 0.0
C320 C 0.84682 0.48886 0.04072 0.0
C321 C 0.75009 0.59668 0.05215 0.0
C322 C 0.74232 0.61393 0.02755 0.0
C323 C 0.78591 0.58356 0.05408 0.0
C324 C 0.8138 0.58656 0.03127 0.0
C325 C 0.80925 0.60845 0.00751 0.0
C326 C 0.77411 0.62246 0.00577 0.0
H327 H 0.82205 0.78088 0.277 0.0
H328 H 0.80208 0.70273 0.35167 0.0
H329 H 0.9087 0.80294 0.27557 0.0
H330 H 0.88921 0.72512 0.35049 0.0
H331 H 0.04664 0.86715 0.36399 0.0
H332 H 0.957 0.81573 0.35816 0.0
H333 H 0.97667 0.78084 0.27645 0.0
H334 H 0.06698 0.83232 0.28223 0.0
C335 C 0.83567 0.76618 0.29228 0.0
C336 C 0.80591 0.74017 0.3144 0.0
C337 C 0.88523 0.77893 0.29154 0.0
C338 C 0.90565 0.76649 0.31321 0.0
C339 C 0.87422 0.73548 0.33371 0.0
C340 C 0.82437 0.72218 0.33423 0.0
C341 C 0.032 0.8487 0.34473 0.0
C342 C 0.06389 0.85415 0.3235 0.0
C343 C -0.0193 0.81854 0.34158 0.0
C344 C 0.96012 0.79358 0.31704 0.0
C345 C -0.00821 0.79931 0.29565 0.0
C346 C 0.04331 0.82904 0.29893 0.0
H347 H 0.20235 0.28055 0.29615 0.0
H348 H 0.10613 0.18232 0.35845 0.0
H349 H 0.25146 0.24119 0.2979 0.0
H350 H 0.15485 0.14325 0.35994 0.0
H351 H 0.27042 0.11328 0.38057 0.0
H352 H 0.24097 0.17014 0.3758 0.0
H353 H 0.24252 0.15802 0.28869 0.0
H354 H 0.2733 0.10178 0.29366 0.0
C355 C 0.19124 0.25021 0.30994 0.0
C356 C 0.15048 0.23482 0.32734 0.0
C357 C 0.21952 0.2279 0.31097 0.0
C358 C 0.20771 0.19013 0.32953 0.0
C359 C 0.16569 0.17334 0.34598 0.0
C360 C 0.13739 0.19536 0.3449 0.0
C361 C 0.2668 0.12477 0.36045 0.0
C362 C 0.27423 0.10368 0.33748 0.0
C363 C 0.24925 0.15662 0.35769 0.0
C364 C 0.23812 0.16722 0.3319 0.0
C365 C 0.25067 0.15028 0.3088 0.0
C366 C 0.26867 0.11853 0.3116 0.0
H367 H 0.91401 0.21388 0.28515 0.0
H368 H 0.88334 0.19336 0.3707 0.0
H369 H 0.85363 0.12663 0.27713 0.0
H370 H 0.82249 0.1067 0.36274 0.0
H371 H 0.72591 0.95574 0.28319 0.0
H372 H 0.76089 0.04468 0.28507 0.0
H373 H 0.8651 0.05761 0.34675 0.0
H374 H 0.83121 0.96987 0.3449 0.0
C375 C 0.89194 0.1913 0.30192 0.0
C376 C 0.90294 0.20963 0.32851 0.0
C377 C 0.85771 0.14149 0.29736 0.0
C378 C 0.83462 0.11024 0.31945 0.0
C379 C 0.8405 0.13028 0.3455 0.0
C380 C 0.87484 0.17976 0.35004 0.0
C381 C 0.75679 0.97774 0.29685 0.0
C382 C 0.77548 0.95569 0.31413 0.0
C383 C 0.77638 0.02838 0.29801 0.0
C384 C 0.81435 0.05725 0.31665 0.0
C385 C 0.83466 0.03563 0.3328 0.0
C386 C 0.8156 0.98546 0.3315 0.0
H387 H 0.11224 0.73656 0.33089 0.0
H388 H 0.22626 0.74946 0.38561 0.0
H389 H 0.06488 0.64822 0.33738 0.0
H390 H 0.18064 0.66065 0.3909 0.0
H391 H 0.08747 0.504 0.40657 0.0
H392 H 0.11145 0.58995 0.408 0.0
H393 H 0.069 0.58093 0.32358 0.0
H394 H 0.04241 0.49467 0.32285 0.0
C395 C 0.12738 0.72025 0.34409 0.0
C396 C 0.1732 0.7495 0.35746 0.0
C397 C 0.10025 0.66964 0.34783 0.0
C398 C 0.11893 0.64708 0.36453 0.0
C399 C 0.16449 0.67671 0.3783 0.0
C400 C 0.19107 0.72753 0.37503 0.0
C401 C 0.0818 0.52023 0.38865 0.0
C402 C 0.06366 0.49313 0.36453 0.0
C403 C 0.09607 0.56953 0.38934 0.0
C404 C 0.09355 0.59282 0.36571 0.0
C405 C 0.07131 0.56436 0.34225 0.0
C406 C 0.05601 0.51477 0.34176 0.0
H407 H 0.2641 0.4582 0.40445 0.0
H408 H 0.2887 0.45903 0.3183 0.0
H409 H 0.35375 0.50199 0.4125 0.0
H410 H 0.37768 0.50365 0.32626 0.0
H411 H 0.53419 0.56859 0.34187 0.0
H412 H 0.44785 0.50171 0.34494 0.0
H413 H 0.42025 0.58456 0.40406 0.0
H414 H 0.50638 0.65023 0.40181 0.0
C415 C 0.28859 0.46782 0.38725 0.0
C416 C 0.26938 0.45571 0.36071 0.0
C417 C 0.33985 0.49261 0.39188 0.0
C418 C 0.37276 0.50594 0.37005 0.0
C419 C 0.35337 0.4929 0.3436 0.0
C420 C 0.30228 0.46796 0.33899 0.0
C421 C 0.51009 0.5718 0.35617 0.0
C422 C 0.52661 0.61531 0.37093 0.0
C423 C 0.46059 0.53364 0.3578 0.0
C424 C 0.427 0.53859 0.37411 0.0
C425 C 0.44507 0.57961 0.39122 0.0
C426 C 0.49451 0.61755 0.38973 0.0
H427 H 0.40454 0.92806 0.40322 0.0
H428 H 0.45266 0.00061 0.32588 0.0
H429 H 0.4665 0.90491 0.40107 0.0
H430 H 0.51654 0.97891 0.32412 0.0
H431 H 0.54498 0.8522 0.30887 0.0
H432 H 0.50589 0.90005 0.3151 0.0
H433 H 0.54864 0.92041 0.39976 0.0
H434 H 0.58634 0.87089 0.3937 0.0
C435 C 0.42969 0.94063 0.38618 0.0
C436 C 0.42303 0.96514 0.36442 0.0
C437 C 0.46551 0.92754 0.38501 0.0
C438 C 0.49569 0.93895 0.36208 0.0
C439 C 0.49288 0.96844 0.34173 0.0
C440 C 0.45678 0.98148 0.34289 0.0
C441 C 0.54606 0.86686 0.32883 0.0
C442 C 0.56808 0.85708 0.35088 0.0
C443 C 0.52429 0.895 0.33233 0.0
C444 C 0.5244 0.91444 0.35791 0.0
C445 C 0.54748 0.9056 0.37984 0.0
C446 C 0.56887 0.87702 0.37639 0.0
H447 H 0.70443 0.10387 0.63496 0.0
H448 H 0.70259 0.23244 0.6607 0.0
H449 H 0.61397 0.05966 0.62802 0.0
H450 H 0.61276 0.1887 0.653 0.0
H451 H 0.46501 0.11949 0.61819 0.0
H452 H 0.55037 0.14274 0.60843 0.0
H453 H 0.54217 0.04173 0.66934 0.0
H454 H 0.45628 0.01851 0.67925 0.0
C455 C 0.68482 0.12295 0.63851 0.0
C456 C 0.71021 0.17154 0.64834 0.0
C457 C 0.63332 0.09762 0.63461 0.0
C458 C 0.60705 0.12113 0.63976 0.0
C459 C 0.63268 0.17021 0.64859 0.0
C460 C 0.68382 0.19509 0.65311 0.0
C461 C 0.48066 0.10045 0.62848 0.0
C462 C 0.45478 0.06761 0.64955 0.0
C463 C 0.52933 0.11381 0.62294 0.0
C464 C 0.55251 0.09439 0.63841 0.0
C465 C 0.52458 0.05683 0.65709 0.0
C466 C 0.47561 0.04345 0.66271 0.0
H467 H 0.91458 0.42517 0.70823 0.0
H468 H 0.93462 0.41552 0.62263 0.0
H469 H 0.89891 0.49106 0.70014 0.0
H470 H 0.91866 0.48215 0.61417 0.0
H471 H 0.7924 0.52413 0.61786 0.0
H472 H 0.8386 0.48142 0.61836 0.0
H473 H 0.92997 0.57422 0.68443 0.0
H474 H 0.88302 0.61524 0.68453 0.0
C475 C 0.91763 0.4388 0.68777 0.0
C476 C 0.92621 0.41603 0.66608 0.0
C477 C 0.90863 0.47648 0.68306 0.0
C478 C 0.90731 0.49162 0.65646 0.0
C479 C 0.91922 0.47096 0.63483 0.0
C480 C 0.92895 0.43345 0.63966 0.0
C481 C 0.82287 0.53567 0.63214 0.0
C482 C 0.83323 0.57171 0.65169 0.0
C483 C 0.84963 0.51169 0.63228 0.0
C484 C 0.88742 0.5241 0.65173 0.0
C485 C 0.90041 0.56321 0.6696 0.0
C486 C 0.87334 0.58646 0.66973 0.0
H487 H 0.54357 0.53471 0.66746 0.0
H488 H 0.61107 0.5065 0.59937 0.0
H489 H 0.47903 0.4481 0.66863 0.0
H490 H 0.54611 0.41988 0.60063 0.0
H491 H 0.40435 0.26427 0.6104 0.0
H492 H 0.44884 0.35234 0.6004 0.0
H493 H 0.50481 0.38423 0.68263 0.0
H494 H 0.4614 0.29689 0.69258 0.0
C495 C 0.54368 0.51051 0.65211 0.0
C496 C 0.58317 0.52713 0.63379 0.0
C497 C 0.50682 0.46094 0.65288 0.0
C498 C 0.50853 0.42757 0.63509 0.0
C499 C 0.54427 0.44507 0.6146 0.0
C500 C 0.5815 0.49459 0.61399 0.0
C501 C 0.42623 0.29019 0.62629 0.0
C502 C 0.42972 0.27383 0.65223 0.0
C503 C 0.45136 0.34035 0.62058 0.0
C504 C 0.47929 0.37469 0.6409 0.0
C505 C 0.48259 0.35832 0.6668 0.0
C506 C 0.45833 0.30837 0.67237 0.0
H507 H 0.77495 0.82736 0.71968 0.0
H508 H 0.66035 0.79559 0.66049 0.0
H509 H 0.78902 0.90888 0.72643 0.0
H510 H 0.67379 0.87786 0.66743 0.0
H511 H 0.79363 0.04076 0.6462 0.0
H512 H 0.7472 0.95243 0.65111 0.0
H513 H 0.76681 0.9685 0.73805 0.0
H514 H 0.81468 0.0576 0.73311 0.0
C515 C 0.75137 0.83743 0.70894 0.0
C516 C 0.71721 0.80602 0.6893 0.0
C517 C 0.75916 0.88403 0.71291 0.0
C518 C 0.73319 0.90014 0.69706 0.0
C519 C 0.69489 0.86654 0.67958 0.0
C520 C 0.68686 0.81948 0.67575 0.0
C521 C 0.7879 0.02562 0.66642 0.0
C522 C 0.8088 0.05622 0.68923 0.0
C523 C 0.76042 0.97486 0.66927 0.0
C524 C 0.75306 0.95344 0.69499 0.0
C525 C 0.77213 0.98402 0.71795 0.0
C526 C 0.79986 0.03497 0.71509 0.0
H527 H 0.92967 0.7134 0.71276 0.0
H528 H 0.93657 0.84784 0.69036 0.0
H529 H 0.01811 0.76044 0.72549 0.0
H530 H 0.02428 0.8946 0.70382 0.0
H531 H 0.16364 0.96717 0.75135 0.0
H532 H 0.076 0.90348 0.75275 0.0
H533 H 0.09864 0.82343 0.68985 0.0
H534 H 0.1865 0.88768 0.68778 0.0
C535 C 0.94992 0.75302 0.71103 0.0
C536 C 0.92664 0.77724 0.70058 0.0
C537 C 0.00022 0.77965 0.71828 0.0
C538 C 0.02724 0.83079 0.71586 0.0
C539 C 0.00364 0.85507 0.70616 0.0
C540 C 0.9538 0.82845 0.6983 0.0
C541 C 0.1505 0.93528 0.7384 0.0
C542 C 0.18159 0.93319 0.7188 0.0
C543 C 0.10039 0.89887 0.73932 0.0
C544 C 0.08101 0.85946 0.72109 0.0
C545 C 0.11317 0.85379 0.70406 0.0
C546 C 0.16337 0.89058 0.70289 0.0
H547 H 0.26511 0.23522 0.67236 0.0
H548 H 0.16552 0.12228 0.72753 0.0
H549 H 0.22167 0.27897 0.67933 0.0
H550 H 0.11918 0.1634 0.73298 0.0
H551 H 0.04422 0.24374 0.74617 0.0
H552 H 0.11092 0.22631 0.74899 0.0
H553 H 0.14931 0.27307 0.66575 0.0
H554 H 0.08551 0.29385 0.66399 0.0
C555 C 0.23348 0.21964 0.68581 0.0
C556 C 0.218 0.1752 0.69915 0.0
C557 C 0.20845 0.24457 0.68978 0.0
C558 C 0.16637 0.22469 0.7065 0.0
C559 C 0.15189 0.18063 0.72037 0.0
C560 C 0.17795 0.15653 0.71702 0.0
C561 C 0.06831 0.25185 0.7289 0.0
C562 C 0.05972 0.26973 0.70482 0.0
C563 C 0.10606 0.24123 0.73032 0.0
C564 C 0.13475 0.24676 0.70735 0.0
C565 C 0.12852 0.26853 0.684 0.0
C566 C 0.09175 0.28046 0.68289 0.0
H567 H 0.1583 0.42909 0.23686 0.0
H568 H -0.00095 0.3594 0.24481 0.0
H569 H 0.15231 0.45262 0.1904 0.0
H570 H -0.00731 0.38063 0.1985 0.0
H571 H -0.00743 0.45917 0.12521 0.0
H572 H 0.0092 0.44811 0.17199 0.0
H573 H 0.12444 0.42228 0.14555 0.0
H574 H 0.10931 0.4361 0.09867 0.0
C575 C 0.12204 0.41842 0.22859 0.0
C576 C 0.07921 0.39281 0.24453 0.0
C577 C 0.11855 0.43177 0.20197 0.0
C578 C 0.07209 0.41922 0.19075 0.0
C579 C 0.0293 0.3924 0.20663 0.0
C580 C 0.03287 0.37978 0.23319 0.0
C581 C 0.02194 0.45184 0.12946 0.0
C582 C 0.04933 0.44803 0.10835 0.0
C583 C 0.03124 0.44505 0.15626 0.0
C584 C 0.06736 0.43306 0.16257 0.0
C585 C 0.09648 0.43162 0.1415 0.0
C586 C 0.08777 0.43941 0.11462 0.0
H587 H 0.63878 0.6601 0.24199 0.0
H588 H 0.57514 0.75063 0.23075 0.0
H589 H 0.61657 0.63055 0.19577 0.0
H590 H 0.55012 0.71893 0.18469 0.0
H591 H 0.56516 0.69392 0.09386 0.0
H592 H 0.57886 0.7217 0.14095 0.0
H593 H 0.55312 0.5805 0.16634 0.0
H594 H 0.54274 0.55443 0.11926 0.0
C595 C 0.61923 0.67309 0.22974 0.0
C596 C 0.60876 0.70774 0.24007 0.0
C597 C 0.60603 0.6558 0.20317 0.0
C598 C 0.581 0.67186 0.18627 0.0
C599 C 0.56994 0.70613 0.19681 0.0
C600 C 0.58402 0.72415 0.22331 0.0
C601 C 0.56185 0.66877 0.10963 0.0
C602 C 0.55337 0.62223 0.10292 0.0
C603 C 0.56957 0.68457 0.13669 0.0
C604 C 0.56801 0.65375 0.15767 0.0
C605 C 0.55637 0.60603 0.15085 0.0
C606 C 0.54983 0.59076 0.12383 0.0
H607 H 0.39514 0.91877 0.11552 0.0
H608 H 0.32752 0.00569 0.10325 0.0
H609 H 0.37255 0.90981 0.16353 0.0
H610 H 0.30606 -0.00255 0.15118 0.0
H611 H 0.34051 0.02282 0.24393 0.0
H612 H 0.36193 0.02818 0.19603 0.0
H613 H 0.28685 0.87033 0.19136 0.0
H614 H 0.2644 0.86464 0.23921 0.0
C615 C 0.3754 0.93581 0.12303 0.0
C616 C 0.36306 0.96287 0.1056 0.0
C617 C 0.36241 0.93057 0.15043 0.0
C618 C 0.33786 0.95319 0.16095 0.0
C619 C 0.32531 0.97998 0.14354 0.0
C620 C 0.33734 0.98438 0.1161 0.0
C621 C 0.3287 -0.01076 0.23274 0.0
C622 C 0.30065 0.9433 0.24532 0.0
C623 C 0.34077 -0.00765 0.20533 0.0
C624 C 0.32591 0.94965 0.19011 0.0
C625 C 0.29885 0.90375 0.20275 0.0
C626 C 0.28587 0.90056 0.23005 0.0
H627 H 0.44173 0.0084 0.88907 0.0
H628 H 0.45282 0.13824 0.92362 0.0
H629 H 0.43373 0.03493 0.84387 0.0
H630 H 0.44388 0.16423 0.87829 0.0
H631 H 0.45762 0.11774 0.76438 0.0
H632 H 0.4835 0.10766 0.80963 0.0
H633 H 0.36659 0.1219 0.845 0.0
H634 H 0.34005 0.13108 0.79986 0.0
C635 C 0.44303 0.04286 0.88697 0.0
C636 C 0.44768 0.07113 0.90989 0.0
C637 C 0.43876 0.05816 0.8611 0.0
C638 C 0.43815 0.10155 0.85768 0.0
C639 C 0.44418 0.13057 0.88047 0.0
C640 C 0.44946 0.11577 0.90633 0.0
C641 C 0.43802 0.11961 0.78185 0.0
C642 C 0.39661 0.1249 0.77859 0.0
C643 C 0.45271 0.11363 0.80767 0.0
C644 C 0.42694 0.11393 0.8307 0.0
C645 C 0.38729 0.1219 0.82756 0.0
C646 C 0.37197 0.12689 0.80174 0.0
H647 H 0.89303 0.28399 0.92632 0.0
H648 H 0.93577 0.4275 0.89567 0.0
H649 H 0.86446 0.24912 0.88132 0.0
H650 H 0.90859 0.39278 0.85031 0.0
H651 H 0.89742 0.22504 0.79425 0.0
H652 H 0.90681 0.25299 0.84071 0.0
H653 H 0.84097 0.3387 0.81975 0.0
H654 H 0.83269 0.31153 0.77263 0.0
C655 C 0.89618 0.30811 0.90997 0.0
C656 C 0.91735 0.35866 0.9145 0.0
C657 C 0.87991 0.28811 0.88414 0.0
C658 C 0.88491 0.31823 0.86209 0.0
C659 C 0.90383 0.36843 0.86686 0.0
C660 C 0.91971 0.38841 0.89283 0.0
C661 C 0.88435 0.24941 0.79949 0.0
C662 C 0.86461 0.2663 0.77961 0.0
C663 C 0.88941 0.2652 0.82628 0.0
C664 C 0.8747 0.29818 0.83402 0.0
C665 C 0.85321 0.31373 0.81438 0.0
C666 C 0.84812 0.29787 0.78743 0.0
H667 H 0.7166 0.57297 0.77037 0.0
H668 H 0.64201 0.65388 0.7605 0.0
H669 H 0.69331 0.56006 0.81833 0.0
H670 H 0.62008 0.64195 0.80845 0.0
H671 H 0.66436 0.66932 0.90102 0.0
H672 H 0.68264 0.67481 0.85268 0.0
H673 H 0.60442 0.51691 0.84723 0.0
H674 H 0.58475 0.51107 0.89564 0.0
C675 C 0.69497 0.58765 0.77836 0.0
C676 C 0.68115 0.61446 0.76165 0.0
C677 C 0.68161 0.58015 0.80573 0.0
C678 C 0.65521 0.60028 0.81697 0.0
C679 C 0.64066 0.62629 0.80021 0.0
C680 C 0.653 0.63285 0.77277 0.0
C681 C 0.65122 0.63572 0.8896 0.0
C682 C 0.62308 0.58974 0.90214 0.0
C683 C 0.66146 0.63892 0.86193 0.0
C684 C 0.64475 0.59628 0.84634 0.0
C685 C 0.6177 0.55027 0.8589 0.0
C686 C 0.60641 0.547 0.88652 0.0
H687 H 0.68459 0.80772 0.45449 0.0
H688 H 0.80073 0.78942 0.42151 0.0
H689 H 0.70699 0.79598 0.50015 0.0
H690 H 0.82256 0.77683 0.46733 0.0
H691 H 0.78572 0.80796 0.5807 0.0
H692 H 0.78005 0.83467 0.535 0.0
H693 H 0.77191 0.70574 0.50146 0.0
H694 H 0.77677 0.67854 0.54706 0.0
C695 C 0.71534 0.80185 0.45702 0.0
C696 C 0.74079 0.79936 0.43437 0.0
C697 C 0.7283 0.79535 0.48319 0.0
C698 C 0.7664 0.78534 0.48727 0.0
C699 C 0.7929 0.78431 0.46473 0.0
C700 C 0.78058 0.79179 0.43855 0.0
C701 C 0.78349 0.78568 0.56356 0.0
C702 C 0.78143 0.74098 0.56753 0.0
C703 C 0.78003 0.8009 0.53743 0.0
C704 C 0.77549 0.77225 0.51471 0.0
C705 C 0.77579 0.72876 0.51858 0.0
C706 C 0.77828 0.71307 0.54471 0.0
H707 H 0.27329 0.92338 0.46223 0.0
H708 H 0.18203 0.9846 0.44352 0.0
H709 H 0.27474 0.94417 0.50972 0.0
H710 H 0.18265 0.00449 0.49131 0.0
H711 H 0.2406 0.95313 0.59641 0.0
H712 H 0.2241 0.92428 0.54969 0.0
H713 H 0.24201 0.0622 0.52429 0.0
H714 H 0.25741 0.09075 0.57114 0.0
C715 C 0.25302 0.94076 0.46827 0.0
C716 C 0.22775 0.95251 0.44898 0.0
C717 C 0.25355 0.95238 0.49559 0.0
C718 C 0.22875 0.97597 0.50436 0.0
C719 C 0.20258 -0.01318 0.48518 0.0
C720 C 0.20205 0.97519 0.4578 0.0
C721 C 0.24035 0.97712 0.58094 0.0
C722 C 0.25084 0.02449 0.58753 0.0
C723 C 0.23118 0.96064 0.55411 0.0
C724 C 0.23242 -0.00884 0.53318 0.0
C725 C 0.24044 0.0376 0.53992 0.0
C726 C 0.24946 0.05405 0.56681 0.0
H727 H 0.88847 0.19506 0.56364 0.0
H728 H 0.03219 0.31088 0.59258 0.0
H729 H 0.92098 0.20742 0.51769 0.0
H730 H 0.06495 0.3221 0.54702 0.0
H731 H 0.00533 0.2203 0.44031 0.0
H732 H 0.97775 0.20106 0.48725 0.0
H733 H 0.05514 0.35601 0.50606 0.0
H734 H 0.08367 0.37512 0.45976 0.0
C735 C 0.92714 0.22265 0.56026 0.0
C736 C 0.95755 0.25245 0.58168 0.0
C737 C 0.94587 0.22954 0.53397 0.0
C738 C -0.00455 0.2661 0.52863 0.0
C739 C 0.0263 0.29437 0.55031 0.0
C740 C 0.00753 0.28782 0.57647 0.0
C741 C 0.01686 0.25018 0.45457 0.0
C742 C 0.04671 0.29925 0.44625 0.0
C743 C 0.00078 0.23916 0.48141 0.0
C744 C 0.01425 0.27698 0.50043 0.0
C745 C 0.04476 0.32591 0.49212 0.0
C746 C 0.0609 0.3369 0.46543 0.0
loop_
_geom_bond_atom_site_label_1
_geom_bond_atom_site_label_2
_geom_bond_distance
_geom_bond_site_symmetry_2
_ccdc_geom_bond_type
O0 Zn1 1.953 . S
O0 C16 1.225 1_556 S
Zn1 O0 1.953 . S
Zn1 O2 1.949 1_656 S
Zn1 O8 1.919 . S
Zn1 O13 1.924 1_655 S
O2 Zn1 1.949 1_454 S
O2 Zn3 1.923 1_454 S
O2 Zn4 1.950 1_455 S
O2 Zn5 1.945 . S
Zn3 O2 1.923 1_656 S
Zn3 O6 1.933 1_655 S
Zn3 O9 1.941 . S
Zn3 O10 1.965 1_556 S
Zn4 O2 1.950 1_655 S
Zn4 O11 1.938 . S
Zn4 O12 1.906 . S
Zn4 O22 1.953 . S
Zn5 O2 1.945 . S
Zn5 O7 1.932 . S
Zn5 O14 1.977 . S
Zn5 O15 1.910 . S
O6 Zn3 1.933 1_455 S
O6 C17 1.226 1_556 S
O7 Zn5 1.932 . S
O7 C17 1.307 . S
O8 Zn1 1.919 . S
O8 C19 1.253 . S
O9 Zn3 1.941 . S
O9 C19 1.283 . S
O10 Zn3 1.965 1_554 S
O10 C18 1.303 . S
O11 Zn4 1.938 . S
O11 C18 1.247 . S
O12 Zn4 1.906 . S
O12 C20 1.304 1_655 S
O13 Zn1 1.924 1_455 S
O13 C21 1.311 1_556 S
O14 Zn5 1.977 . S
O14 C20 1.272 . S
O15 Zn5 1.910 . S
O15 C21 1.231 . S
C16 O0 1.225 1_554 S
C16 O22 1.298 . S
C17 O6 1.226 1_554 S
C17 O7 1.307 . S
C18 O10 1.303 . S
C18 O11 1.247 . S
C19 O8 1.253 . S
C19 O9 1.283 . S
C20 O12 1.304 1_455 S
C20 O14 1.272 . S
C21 O13 1.311 1_554 S
C21 O15 1.231 . S
O22 Zn4 1.953 . S
O22 C16 1.298 . S
O23 Zn24 1.953 . S
O23 C39 1.225 1_556 S
Zn24 O23 1.953 . S
Zn24 O25 1.949 1_556 S
Zn24 O31 1.919 . S
Zn24 O36 1.924 . S
O25 Zn24 1.949 1_554 S
O25 Zn26 1.923 1_554 S
O25 Zn27 1.950 . S
O25 Zn28 1.945 . S
Zn26 O25 1.923 1_556 S
Zn26 O29 1.933 . S
Zn26 O32 1.941 . S
Zn26 O33 1.963 1_556 S
Zn27 O25 1.950 . S
Zn27 O34 1.938 . S
Zn27 O35 1.906 . S
Zn27 O45 1.953 . S
Zn28 O25 1.945 . S
Zn28 O30 1.932 . S
Zn28 O37 1.977 . S
Zn28 O38 1.910 . S
O29 Zn26 1.933 . S
O29 C40 1.226 1_556 S
O30 Zn28 1.932 . S
O30 C40 1.307 . S
O31 Zn24 1.919 . S
O31 C42 1.253 . S
O32 Zn26 1.941 . S
O32 C42 1.283 . S
O33 Zn26 1.963 1_554 S
O33 C41 1.308 . S
O34 Zn27 1.938 . S
O34 C41 1.247 . S
O35 Zn27 1.906 . S
O35 C43 1.304 . S
O36 Zn24 1.924 . S
O36 C44 1.311 1_556 S
O37 Zn28 1.977 . S
O37 C43 1.272 . S
O38 Zn28 1.910 . S
O38 C44 1.231 . S
C39 O23 1.225 1_554 S
C39 O45 1.298 . S
C40 O29 1.226 1_554 S
C40 O30 1.307 . S
C41 O33 1.308 . S
C41 O34 1.247 . S
C42 O31 1.253 . S
C42 O32 1.283 . S
C43 O35 1.304 . S
C43 O37 1.272 . S
C44 O36 1.311 1_554 S
C44 O38 1.231 . S
O45 Zn27 1.953 . S
O45 C39 1.298 . S
O46 Zn47 1.953 1_565 S
O46 C62 1.225 . S
Zn47 O46 1.953 1_545 S
Zn47 O48 1.949 . S
Zn47 O54 1.919 . S
Zn47 O59 1.924 . S
O48 Zn47 1.949 . S
O48 Zn49 1.923 . S
O48 Zn50 1.950 1_544 S
O48 Zn51 1.945 1_554 S
Zn49 O48 1.923 . S
Zn49 O52 1.933 . S
Zn49 O55 1.941 . S
Zn49 O56 1.965 1_545 S
Zn50 O48 1.950 1_566 S
Zn50 O57 1.938 . S
Zn50 O58 1.906 . S
Zn50 O68 1.953 . S
Zn51 O48 1.945 1_556 S
Zn51 O53 1.932 . S
Zn51 O60 1.977 . S
Zn51 O61 1.910 . S
O52 Zn49 1.933 . S
O52 C63 1.226 . S
O53 Zn51 1.932 . S
O53 C63 1.307 1_556 S
O54 Zn47 1.919 . S
O54 C65 1.253 . S
O55 Zn49 1.941 . S
O55 C65 1.283 . S
O56 Zn49 1.965 1_565 S
O56 C64 1.289 1_554 S
O57 Zn50 1.938 . S
O57 C64 1.268 . S
O58 Zn50 1.906 . S
O58 C66 1.304 1_565 S
O59 Zn47 1.924 . S
O59 C67 1.311 . S
O60 Zn51 1.977 . S
O60 C66 1.272 . S
O61 Zn51 1.910 . S
O61 C67 1.231 1_556 S
C62 O46 1.225 . S
C62 O68 1.298 1_554 S
C63 O52 1.226 . S
C63 O53 1.307 1_554 S
C64 O56 1.289 1_556 S
C64 O57 1.268 . S
C65 O54 1.253 . S
C65 O55 1.283 . S
C66 O58 1.304 1_545 S
C66 O60 1.272 . S
C67 O59 1.311 . S
C67 O61 1.231 1_554 S
O68 Zn50 1.953 . S
O68 C62 1.298 1_556 S
O69 Zn70 1.953 . S
O69 C85 1.225 . S
Zn70 O69 1.953 . S
Zn70 O71 1.949 . S
Zn70 O77 1.919 . S
Zn70 O82 1.924 . S
O71 Zn70 1.949 . S
O71 Zn72 1.923 . S
O71 Zn73 1.950 . S
O71 Zn74 1.945 . S
Zn72 O71 1.923 . S
Zn72 O75 1.933 . S
Zn72 O78 1.941 . S
Zn72 O79 1.965 . S
Zn73 O71 1.950 . S
Zn73 O80 1.938 . S
Zn73 O81 1.906 . S
Zn73 O91 1.953 . S
Zn74 O71 1.945 . S
Zn74 O76 1.932 . S
Zn74 O83 1.977 . S
Zn74 O84 1.910 . S
O75 Zn72 1.933 . S
O75 C86 1.226 . S
O76 Zn74 1.932 . S
O76 C86 1.307 . S
O77 Zn70 1.919 . S
O77 C88 1.253 . S
O78 Zn72 1.941 . S
O78 C88 1.283 . S
O79 Zn72 1.965 . S
O79 C87 1.303 . S
O80 Zn73 1.938 . S
O80 C87 1.247 . S
O81 Zn73 1.906 . S
O81 C89 1.304 . S
O82 Zn70 1.924 . S
O82 C90 1.311 . S
O83 Zn74 1.977 . S
O83 C89 1.272 . S
O84 Zn74 1.910 . S
O84 C90 1.231 . S
C85 O69 1.225 . S
C85 O91 1.298 . S
C86 O75 1.226 . S
C86 O76 1.307 . S
C87 O79 1.303 . S
C87 O80 1.247 . S
C88 O77 1.253 . S
C88 O78 1.283 . S
C89 O81 1.304 . S
C89 O83 1.272 . S
C90 O82 1.311 . S
C90 O84 1.231 . S
O91 Zn73 1.953 . S
O91 C85 1.298 . S
O92 Zn93 1.953 . S
O92 C108 1.225 . S
Zn93 O92 1.953 . S
Zn93 O94 1.949 . S
Zn93 O100 1.919 . S
Zn93 O105 1.924 . S
O94 Zn93 1.949 . S
O94 Zn95 1.918 1_565 S
O94 Zn96 1.950 . S
O94 Zn97 1.945 . S
Zn95 O94 1.918 1_545 S
Zn95 O98 1.947 . S
Zn95 O101 1.939 1_545 S
Zn95 O102 1.963 . S
Zn96 O94 1.950 . S
Zn96 O103 1.938 . S
Zn96 O104 1.906 . S
Zn96 O114 1.953 . S
Zn97 O94 1.945 . S
Zn97 O99 1.932 1_565 S
Zn97 O106 1.977 . S
Zn97 O107 1.910 . S
O98 Zn95 1.947 . S
O98 C109 1.226 . S
O99 Zn97 1.932 1_545 S
O99 C109 1.307 . S
O100 Zn93 1.919 . S
O100 C111 1.253 . S
O101 Zn95 1.939 1_565 S
O101 C111 1.283 . S
O102 Zn95 1.963 . S
O102 C110 1.295 1_545 S
O103 Zn96 1.938 . S
O103 C110 1.247 . S
O104 Zn96 1.906 . S
O104 C112 1.304 . S
O105 Zn93 1.924 . S
O105 C113 1.311 . S
O106 Zn97 1.977 . S
O106 C112 1.272 . S
O107 Zn97 1.910 . S
O107 C113 1.231 . S
C108 O92 1.225 . S
C108 O114 1.298 . S
C109 O98 1.226 . S
C109 O99 1.307 . S
C110 O102 1.295 1_565 S
C110 O103 1.247 . S
C111 O100 1.253 . S
C111 O101 1.283 . S
C112 O104 1.304 . S
C112 O106 1.272 . S
C113 O105 1.311 . S
C113 O107 1.231 . S
O114 Zn96 1.953 . S
O114 C108 1.298 . S
O115 Zn116 1.953 . S
O115 C131 1.225 . S
Zn116 O115 1.953 . S
Zn116 O117 1.949 . S
Zn116 O123 1.919 . S
Zn116 O128 1.924 . S
O117 Zn116 1.949 . S
O117 Zn118 1.923 . S
O117 Zn119 1.950 . S
O117 Zn120 1.945 . S
Zn118 O117 1.923 . S
Zn118 O121 1.933 1_455 S
Zn118 O124 1.941 . S
Zn118 O125 1.965 . S
Zn119 O117 1.950 . S
Zn119 O126 1.938 . S
Zn119 O127 1.906 . S
Zn119 O137 1.953 . S
Zn120 O117 1.945 . S
Zn120 O122 1.932 . S
Zn120 O129 1.977 . S
Zn120 O130 1.910 . S
O121 Zn118 1.933 1_655 S
O121 C132 1.226 . S
O122 Zn120 1.932 . S
O122 C132 1.307 1_455 S
O123 Zn116 1.919 . S
O123 C134 1.253 . S
O124 Zn118 1.941 . S
O124 C134 1.283 . S
O125 Zn118 1.965 . S
O125 C133 1.303 . S
O126 Zn119 1.938 . S
O126 C133 1.247 . S
O127 Zn119 1.906 . S
O127 C135 1.304 . S
O128 Zn116 1.924 . S
O128 C136 1.311 . S
O129 Zn120 1.977 . S
O129 C135 1.272 . S
O130 Zn120 1.910 . S
O130 C136 1.231 . S
C131 O115 1.225 . S
C131 O137 1.298 . S
C132 O121 1.226 . S
C132 O122 1.307 1_655 S
C133 O125 1.303 . S
C133 O126 1.247 . S
C134 O123 1.253 . S
C134 O124 1.283 . S
C135 O127 1.304 . S
C135 O129 1.272 . S
C136 O128 1.311 . S
C136 O130 1.231 . S
O137 Zn119 1.953 . S
O137 C131 1.298 . S
O138 Zn139 1.953 . S
O138 C154 1.225 . S
Zn139 O138 1.953 . S
Zn139 O140 1.949 . S
Zn139 O146 1.919 . S
Zn139 O151 1.924 . S
O140 Zn139 1.949 . S
O140 Zn141 1.923 . S
O140 Zn142 1.950 . S
O140 Zn143 1.945 . S
Zn141 O140 1.923 . S
Zn141 O144 1.933 . S
Zn141 O147 1.941 . S
Zn141 O148 1.965 1_545 S
Zn142 O140 1.950 . S
Zn142 O149 1.938 . S
Zn142 O150 1.906 . S
Zn142 O160 1.953 . S
Zn143 O140 1.945 . S
Zn143 O145 1.932 . S
Zn143 O152 1.977 . S
Zn143 O153 1.910 . S
O144 Zn141 1.933 . S
O144 C155 1.226 . S
O145 Zn143 1.932 . S
O145 C155 1.307 . S
O146 Zn139 1.919 . S
O146 C157 1.253 . S
O147 Zn141 1.941 . S
O147 C157 1.283 . S
O148 Zn141 1.965 1_565 S
O148 C156 1.303 . S
O149 Zn142 1.938 . S
O149 C156 1.247 1_545 S
O150 Zn142 1.906 . S
O150 C158 1.304 . S
O151 Zn139 1.924 . S
O151 C159 1.311 . S
O152 Zn143 1.977 . S
O152 C158 1.272 . S
O153 Zn143 1.910 . S
O153 C159 1.231 . S
C154 O138 1.225 . S
C154 O160 1.298 . S
C155 O144 1.226 . S
C155 O145 1.307 . S
C156 O148 1.303 . S
C156 O149 1.247 1_565 S
C157 O146 1.253 . S
C157 O147 1.283 . S
C158 O150 1.304 . S
C158 O152 1.272 . S
C159 O151 1.311 . S
C159 O153 1.231 . S
O160 Zn142 1.953 . S
O160 C154 1.298 . S
O161 Zn162 1.953 . S
O161 C177 1.225 . S
Zn162 O161 1.953 . S
Zn162 O163 1.949 . S
Zn162 O169 1.919 . S
Zn162 O174 1.924 . S
O163 Zn162 1.949 . S
O163 Zn164 1.923 . S
O163 Zn165 1.950 . S
O163 Zn166 1.945 . S
Zn164 O163 1.923 . S
Zn164 O167 1.933 . S
Zn164 O170 1.941 . S
Zn164 O171 1.965 1_655 S
Zn165 O163 1.950 . S
Zn165 O172 1.938 . S
Zn165 O173 1.906 . S
Zn165 O183 1.953 . S
Zn166 O163 1.945 . S
Zn166 O168 1.932 . S
Zn166 O175 1.977 . S
Zn166 O176 1.910 . S
O167 Zn164 1.933 . S
O167 C178 1.226 . S
O168 Zn166 1.932 . S
O168 C178 1.307 . S
O169 Zn162 1.919 . S
O169 C180 1.253 . S
O170 Zn164 1.941 . S
O170 C180 1.283 . S
O171 Zn164 1.965 1_455 S
O171 C179 1.303 . S
O172 Zn165 1.938 . S
O172 C179 1.247 1_655 S
O173 Zn165 1.906 . S
O173 C181 1.304 . S
O174 Zn162 1.924 . S
O174 C182 1.311 . S
O175 Zn166 1.977 . S
O175 C181 1.272 . S
O176 Zn166 1.910 . S
O176 C182 1.231 . S
C177 O161 1.225 . S
C177 O183 1.298 . S
C178 O167 1.226 . S
C178 O168 1.307 . S
C179 O171 1.303 . S
C179 O172 1.247 1_455 S
C180 O169 1.253 . S
C180 O170 1.283 . S
C181 O173 1.304 . S
C181 O175 1.272 . S
C182 O174 1.311 . S
C182 O176 1.231 . S
O183 Zn165 1.953 . S
O183 C177 1.298 . S
O184 Zn185 1.953 . S
O184 C200 1.225 . S
Zn185 O184 1.953 . S
Zn185 O186 1.949 . S
Zn185 O192 1.919 . S
Zn185 O197 1.924 . S
O186 Zn185 1.949 . S
O186 Zn187 1.923 . S
O186 Zn188 1.950 . S
O186 Zn189 1.945 . S
Zn187 O186 1.923 . S
Zn187 O190 1.933 . S
Zn187 O193 1.941 . S
Zn187 O194 1.965 . S
Zn188 O186 1.950 . S
Zn188 O195 1.938 . S
Zn188 O196 1.906 . S
Zn188 O206 1.953 . S
Zn189 O186 1.945 . S
Zn189 O191 1.932 . S
Zn189 O198 1.977 . S
Zn189 O199 1.910 . S
O190 Zn187 1.933 . S
O190 C201 1.226 . S
O191 Zn189 1.932 . S
O191 C201 1.307 . S
O192 Zn185 1.919 . S
O192 C203 1.253 . S
O193 Zn187 1.941 . S
O193 C203 1.283 . S
O194 Zn187 1.965 . S
O194 C202 1.303 . S
O195 Zn188 1.938 . S
O195 C202 1.247 . S
O196 Zn188 1.906 . S
O196 C204 1.304 . S
O197 Zn185 1.924 . S
O197 C205 1.311 . S
O198 Zn189 1.977 . S
O198 C204 1.272 . S
O199 Zn189 1.910 . S
O199 C205 1.231 . S
C200 O184 1.225 . S
C200 O206 1.298 . S
C201 O190 1.226 . S
C201 O191 1.307 . S
C202 O194 1.303 . S
C202 O195 1.247 . S
C203 O192 1.253 . S
C203 O193 1.283 . S
C204 O196 1.304 . S
C204 O198 1.272 . S
C205 O197 1.311 . S
C205 O199 1.231 . S
O206 Zn188 1.953 . S
O206 C200 1.298 . S
H207 C215 0.950 . S
H208 C220 0.950 . S
H209 C217 0.950 . S
H210 C219 0.950 . S
H211 C221 0.950 . S
H212 C223 0.950 . S
H213 C225 0.947 1_556 S
H214 C226 0.948 1_556 S
C215 H207 0.950 . S
C215 C216 1.386 1_556 S
C215 C217 1.391 . S
C216 C215 1.386 1_554 S
C216 C220 1.393 . S
C217 H209 0.950 . S
C217 C215 1.391 . S
C217 C218 1.400 1_556 S
C218 C217 1.400 1_554 S
C218 C219 1.398 . S
C218 C224 1.491 . S
C219 H210 0.950 . S
C219 C218 1.398 . S
C219 C220 1.391 . S
C220 H208 0.950 . S
C220 C216 1.393 . S
C220 C219 1.391 . S
C221 H211 0.950 . S
C221 C222 1.386 . S
C221 C223 1.391 . S
C222 C221 1.386 . S
C222 C226 1.394 . S
C223 H212 0.950 . S
C223 C221 1.391 . S
C223 C224 1.400 . S
C224 C218 1.491 . S
C224 C223 1.400 . S
C224 C225 1.401 . S
C225 H213 0.947 1_554 S
C225 C224 1.401 . S
C225 C226 1.391 . S
C226 H214 0.948 1_554 S
C226 C222 1.394 . S
C226 C225 1.391 . S
H227 C235 0.950 . S
H228 C240 0.950 . S
H229 C237 0.950 . S
H230 C239 0.950 . S
H231 C241 0.950 . S
H232 C243 0.950 . S
H233 C245 0.950 . S
H234 C246 0.950 . S
C235 H227 0.950 . S
C235 C236 1.386 1_556 S
C235 C237 1.391 . S
C236 C235 1.386 1_554 S
C236 C240 1.393 . S
C237 H229 0.950 . S
C237 C235 1.391 . S
C237 C238 1.400 1_556 S
C238 C237 1.400 1_554 S
C238 C239 1.398 . S
C238 C244 1.491 . S
C239 H230 0.950 . S
C239 C238 1.398 . S
C239 C240 1.391 . S
C240 H228 0.950 . S
C240 C236 1.393 . S
C240 C239 1.391 . S
C241 H231 0.950 . S
C241 C242 1.380 1_554 S
C241 C243 1.391 . S
C242 C241 1.380 1_556 S
C242 C246 1.398 . S
C243 H232 0.950 . S
C243 C241 1.391 . S
C243 C244 1.428 . S
C244 C238 1.491 . S
C244 C243 1.428 . S
C244 C245 1.370 1_554 S
C245 H233 0.950 . S
C245 C244 1.370 1_556 S
C245 C246 1.391 . S
C246 H234 0.950 . S
C246 C242 1.398 . S
C246 C245 1.391 . S
H247 C255 0.950 . S
H248 C260 0.950 . S
H249 C257 0.950 . S
H250 C259 0.950 . S
H251 C261 0.950 . S
H252 C263 0.950 . S
H253 C265 0.950 . S
H254 C266 0.950 . S
C255 H247 0.950 . S
C255 C256 1.386 1_556 S
C255 C257 1.391 . S
C256 C255 1.386 1_554 S
C256 C260 1.393 . S
C257 H249 0.950 . S
C257 C255 1.391 . S
C257 C258 1.400 1_556 S
C258 C257 1.400 1_554 S
C258 C259 1.398 . S
C258 C264 1.491 . S
C259 H250 0.950 . S
C259 C258 1.398 . S
C259 C260 1.391 . S
C260 H248 0.950 . S
C260 C256 1.393 . S
C260 C259 1.391 . S
C261 H251 0.950 . S
C261 C262 1.386 . S
C261 C263 1.391 . S
C262 C261 1.386 . S
C262 C266 1.393 1_554 S
C263 H252 0.950 . S
C263 C261 1.391 . S
C263 C264 1.400 . S
C264 C258 1.491 . S
C264 C263 1.400 . S
C264 C265 1.398 1_554 S
C265 H253 0.950 . S
C265 C264 1.398 1_556 S
C265 C266 1.391 . S
C266 H254 0.950 . S
C266 C262 1.393 1_556 S
C266 C265 1.391 . S
H267 C275 0.950 . S
H268 C280 0.950 . S
H269 C277 0.950 . S
H270 C279 0.950 . S
H271 C281 0.950 . S
H272 C283 0.950 . S
H273 C285 0.950 . S
H274 C286 0.950 . S
C275 H267 0.950 . S
C275 C276 1.386 . S
C275 C277 1.391 . S
C276 C275 1.386 . S
C276 C280 1.393 1_554 S
C277 H269 0.950 . S
C277 C275 1.391 . S
C277 C278 1.400 . S
C278 C277 1.400 . S
C278 C279 1.398 1_554 S
C278 C284 1.491 . S
C279 H270 0.950 . S
C279 C278 1.398 1_556 S
C279 C280 1.391 . S
C280 H268 0.950 . S
C280 C276 1.393 1_556 S
C280 C279 1.391 . S
C281 H271 0.950 . S
C281 C282 1.386 1_556 S
C281 C283 1.391 . S
C282 C281 1.386 1_554 S
C282 C286 1.393 . S
C283 H272 0.950 . S
C283 C281 1.391 . S
C283 C284 1.400 1_556 S
C284 C278 1.491 . S
C284 C283 1.400 1_554 S
C284 C285 1.398 . S
C285 H273 0.950 . S
C285 C284 1.398 . S
C285 C286 1.391 . S
C286 H274 0.950 . S
C286 C282 1.393 . S
C286 C285 1.391 . S
H287 C295 0.950 . S
H288 C300 0.950 . S
H289 C297 0.950 . S
H290 C299 0.950 . S
H291 C301 0.950 . S
H292 C303 0.950 . S
H293 C305 0.950 . S
H294 C306 0.966 . S
C295 H287 0.950 . S
C295 C296 1.386 1_556 S
C295 C297 1.391 . S
C296 C295 1.386 1_554 S
C296 C300 1.393 . S
C297 H289 0.950 . S
C297 C295 1.391 . S
C297 C298 1.400 1_556 S
C298 C297 1.400 1_554 S
C298 C299 1.398 . S
C298 C304 1.491 . S
C299 H290 0.950 . S
C299 C298 1.398 . S
C299 C300 1.391 . S
C300 H288 0.950 . S
C300 C296 1.393 . S
C300 C299 1.391 . S
C301 H291 0.950 . S
C301 C302 1.386 . S
C301 C303 1.391 . S
C302 C301 1.386 . S
C302 C306 1.376 1_554 S
C303 H292 0.950 . S
C303 C301 1.391 . S
C303 C304 1.400 . S
C304 C298 1.491 . S
C304 C303 1.400 . S
C304 C305 1.398 1_554 S
C305 H293 0.950 . S
C305 C304 1.398 1_556 S
C305 C306 1.392 . S
C306 H294 0.966 . S
C306 C302 1.376 1_556 S
C306 C305 1.392 . S
H307 C315 0.950 . S
H308 C320 0.950 . S
H309 C317 0.950 . S
H310 C319 0.950 . S
H311 C321 0.950 . S
H312 C323 0.950 . S
H313 C325 0.950 . S
H314 C326 0.950 . S
C315 H307 0.950 . S
C315 C316 1.386 1_556 S
C315 C317 1.391 . S
C316 C315 1.386 1_554 S
C316 C320 1.393 . S
C317 H309 0.950 . S
C317 C315 1.391 . S
C317 C318 1.400 1_556 S
C318 C317 1.400 1_554 S
C318 C319 1.398 . S
C318 C324 1.491 . S
C319 H310 0.950 . S
C319 C318 1.398 . S
C319 C320 1.391 . S
C320 H308 0.950 . S
C320 C316 1.393 . S
C320 C319 1.391 . S
C321 H311 0.950 . S
C321 C322 1.386 . S
C321 C323 1.391 . S
C322 C321 1.386 . S
C322 C326 1.393 1_554 S
C323 H312 0.950 . S
C323 C321 1.391 . S
C323 C324 1.400 . S
C324 C318 1.491 . S
C324 C323 1.400 . S
C324 C325 1.398 1_554 S
C325 H313 0.950 . S
C325 C324 1.398 1_556 S
C325 C326 1.391 . S
C326 H314 0.950 . S
C326 C322 1.393 1_556 S
C326 C325 1.391 . S
H327 C335 0.950 . S
H328 C340 0.950 . S
H329 C337 0.950 . S
H330 C339 0.950 . S
H331 C341 0.950 . S
H332 C343 0.955 . S
H333 C345 0.950 1_655 S
H334 C346 0.950 . S
C335 H327 0.950 . S
C335 C336 1.386 . S
C335 C337 1.391 . S
C336 C335 1.386 . S
C336 C340 1.393 . S
C337 H329 0.950 . S
C337 C335 1.391 . S
C337 C338 1.400 . S
C338 C337 1.400 . S
C338 C339 1.398 . S
C338 C344 1.491 . S
C339 H330 0.950 . S
C339 C338 1.398 . S
C339 C340 1.391 . S
C340 H328 0.950 . S
C340 C336 1.393 . S
C340 C339 1.391 . S
C341 H331 0.950 . S
C341 C342 1.386 . S
C341 C343 1.391 . S
C342 C341 1.386 . S
C342 C346 1.393 . S
C343 H332 0.955 . S
C343 C341 1.391 . S
C343 C344 1.400 1_455 S
C344 C338 1.491 . S
C344 C343 1.400 1_655 S
C344 C345 1.398 1_655 S
C345 H333 0.950 1_455 S
C345 C344 1.398 1_455 S
C345 C346 1.391 . S
C346 H334 0.950 . S
C346 C342 1.393 . S
C346 C345 1.391 . S
H347 C355 0.950 . S
H348 C360 0.950 . S
H349 C357 0.950 . S
H350 C359 0.950 . S
H351 C361 0.950 . S
H352 C363 0.950 . S
H353 C365 0.950 . S
H354 C366 0.950 . S
C355 H347 0.950 . S
C355 C356 1.386 . S
C355 C357 1.391 . S
C356 C355 1.386 . S
C356 C360 1.393 . S
C357 H349 0.950 . S
C357 C355 1.391 . S
C357 C358 1.400 . S
C358 C357 1.400 . S
C358 C359 1.398 . S
C358 C364 1.491 . S
C359 H350 0.950 . S
C359 C358 1.398 . S
C359 C360 1.391 . S
C360 H348 0.950 . S
C360 C356 1.393 . S
C360 C359 1.391 . S
C361 H351 0.950 . S
C361 C362 1.386 . S
C361 C363 1.391 . S
C362 C361 1.386 . S
C362 C366 1.393 . S
C363 H352 0.950 . S
C363 C361 1.391 . S
C363 C364 1.400 . S
C364 C358 1.491 . S
C364 C363 1.400 . S
C364 C365 1.398 . S
C365 H353 0.950 . S
C365 C364 1.398 . S
C365 C366 1.391 . S
C366 H354 0.950 . S
C366 C362 1.393 . S
C366 C365 1.391 . S
H367 C375 0.950 1_455 S
H368 C380 0.950 . S
H369 C377 0.950 . S
H370 C379 0.950 . S
H371 C381 0.950 1_565 S
H372 C383 0.950 . S
H373 C385 0.950 . S
H374 C386 0.950 . S
C375 H367 0.950 1_655 S
C375 C376 1.386 . S
C375 C377 1.391 . S
C376 C375 1.386 . S
C376 C380 1.393 . S
C377 H369 0.950 . S
C377 C375 1.391 . S
C377 C378 1.400 . S
C378 C377 1.400 . S
C378 C379 1.398 . S
C378 C384 1.491 . S
C379 H370 0.950 . S
C379 C378 1.398 . S
C379 C380 1.391 . S
C380 H368 0.950 . S
C380 C376 1.393 . S
C380 C379 1.391 . S
C381 H371 0.950 1_545 S
C381 C382 1.386 1_545 S
C381 C383 1.391 . S
C382 C381 1.386 1_565 S
C382 C386 1.393 . S
C383 H372 0.950 . S
C383 C381 1.391 . S
C383 C384 1.400 . S
C384 C378 1.491 . S
C384 C383 1.400 . S
C384 C385 1.398 . S
C385 H373 0.950 . S
C385 C384 1.398 . S
C385 C386 1.391 1_545 S
C386 H374 0.950 . S
C386 C382 1.393 . S
C386 C385 1.391 1_565 S
H387 C395 0.950 . S
H388 C400 0.950 . S
H389 C397 0.950 . S
H390 C399 0.950 . S
H391 C401 0.950 . S
H392 C403 0.950 . S
H393 C405 0.950 . S
H394 C406 0.950 . S
C395 H387 0.950 . S
C395 C396 1.386 . S
C395 C397 1.391 . S
C396 C395 1.386 . S
C396 C400 1.393 . S
C397 H389 0.950 . S
C397 C395 1.391 . S
C397 C398 1.400 . S
C398 C397 1.400 . S
C398 C399 1.398 . S
C398 C404 1.491 . S
C399 H390 0.950 . S
C399 C398 1.398 . S
C399 C400 1.391 . S
C400 H388 0.950 . S
C400 C396 1.393 . S
C400 C399 1.391 . S
C401 H391 0.950 . S
C401 C402 1.386 . S
C401 C403 1.391 . S
C402 C401 1.386 . S
C402 C406 1.393 . S
C403 H392 0.950 . S
C403 C401 1.391 . S
C403 C404 1.400 . S
C404 C398 1.491 . S
C404 C403 1.400 . S
C404 C405 1.398 . S
C405 H393 0.950 . S
C405 C404 1.398 . S
C405 C406 1.391 . S
C406 H394 0.950 . S
C406 C402 1.393 . S
C406 C405 1.391 . S
H407 C415 0.950 . S
H408 C420 0.950 . S
H409 C417 0.950 . S
H410 C419 0.950 . S
H411 C421 0.950 . S
H412 C423 0.950 . S
H413 C425 0.950 . S
H414 C426 0.950 . S
C415 H407 0.950 . S
C415 C416 1.386 . S
C415 C417 1.391 . S
C416 C415 1.386 . S
C416 C420 1.393 . S
C417 H409 0.950 . S
C417 C415 1.391 . S
C417 C418 1.400 . S
C418 C417 1.400 . S
C418 C419 1.398 . S
C418 C424 1.491 . S
C419 H410 0.950 . S
C419 C418 1.398 . S
C419 C420 1.391 . S
C420 H408 0.950 . S
C420 C416 1.393 . S
C420 C419 1.391 . S
C421 H411 0.950 . S
C421 C422 1.386 . S
C421 C423 1.391 . S
C422 C421 1.386 . S
C422 C426 1.393 . S
C423 H412 0.950 . S
C423 C421 1.391 . S
C423 C424 1.400 . S
C424 C418 1.491 . S
C424 C423 1.400 . S
C424 C425 1.398 . S
C425 H413 0.950 . S
C425 C424 1.398 . S
C425 C426 1.391 . S
C426 H414 0.950 . S
C426 C422 1.393 . S
C426 C425 1.391 . S
H427 C435 0.950 . S
H428 C440 0.950 1_545 S
H429 C437 0.950 . S
H430 C439 0.950 . S
H431 C441 0.950 . S
H432 C443 0.950 . S
H433 C445 0.950 . S
H434 C446 0.950 . S
C435 H427 0.950 . S
C435 C436 1.386 . S
C435 C437 1.391 . S
C436 C435 1.386 . S
C436 C440 1.393 . S
C437 H429 0.950 . S
C437 C435 1.391 . S
C437 C438 1.400 . S
C438 C437 1.400 . S
C438 C439 1.398 . S
C438 C444 1.491 . S
C439 H430 0.950 . S
C439 C438 1.398 . S
C439 C440 1.391 . S
C440 H428 0.950 1_565 S
C440 C436 1.393 . S
C440 C439 1.391 . S
C441 H431 0.950 . S
C441 C442 1.386 . S
C441 C443 1.391 . S
C442 C441 1.386 . S
C442 C446 1.393 . S
C443 H432 0.950 . S
C443 C441 1.391 . S
C443 C444 1.400 . S
C444 C438 1.491 . S
C444 C443 1.400 . S
C444 C445 1.398 . S
C445 H433 0.950 . S
C445 C444 1.398 . S
C445 C446 1.391 . S
C446 H434 0.950 . S
C446 C442 1.393 . S
C446 C445 1.391 . S
H447 C455 0.950 . S
H448 C460 0.950 . S
H449 C457 0.950 . S
H450 C459 0.950 . S
H451 C461 0.950 . S
H452 C463 0.950 . S
H453 C465 0.950 . S
H454 C466 0.950 . S
C455 H447 0.950 . S
C455 C456 1.386 . S
C455 C457 1.391 . S
C456 C455 1.386 . S
C456 C460 1.393 . S
C457 H449 0.950 . S
C457 C455 1.391 . S
C457 C458 1.400 . S
C458 C457 1.400 . S
C458 C459 1.398 . S
C458 C464 1.491 . S
C459 H450 0.950 . S
C459 C458 1.398 . S
C459 C460 1.391 . S
C460 H448 0.950 . S
C460 C456 1.393 . S
C460 C459 1.391 . S
C461 H451 0.950 . S
C461 C462 1.386 . S
C461 C463 1.391 . S
C462 C461 1.386 . S
C462 C466 1.393 . S
C463 H452 0.950 . S
C463 C461 1.391 . S
C463 C464 1.400 . S
C464 C458 1.491 . S
C464 C463 1.400 . S
C464 C465 1.398 . S
C465 H453 0.950 . S
C465 C464 1.398 . S
C465 C466 1.391 . S
C466 H454 0.950 . S
C466 C462 1.393 . S
C466 C465 1.391 . S
H467 C475 0.950 . S
H468 C480 0.950 . S
H469 C477 0.950 . S
H470 C479 0.950 . S
H471 C481 0.950 . S
H472 C483 0.950 . S
H473 C485 0.950 . S
H474 C486 0.950 . S
C475 H467 0.950 . S
C475 C476 1.386 . S
C475 C477 1.391 . S
C476 C475 1.386 . S
C476 C480 1.393 . S
C477 H469 0.950 . S
C477 C475 1.391 . S
C477 C478 1.400 . S
C478 C477 1.400 . S
C478 C479 1.398 . S
C478 C484 1.491 . S
C479 H470 0.950 . S
C479 C478 1.398 . S
C479 C480 1.391 . S
C480 H468 0.950 . S
C480 C476 1.393 . S
C480 C479 1.391 . S
C481 H471 0.950 . S
C481 C482 1.386 . S
C481 C483 1.391 . S
C482 C481 1.386 . S
C482 C486 1.393 . S
C483 H472 0.950 . S
C483 C481 1.391 . S
C483 C484 1.400 . S
C484 C478 1.491 . S
C484 C483 1.400 . S
C484 C485 1.398 . S
C485 H473 0.950 . S
C485 C484 1.398 . S
C485 C486 1.391 . S
C486 H474 0.950 . S
C486 C482 1.393 . S
C486 C485 1.391 . S
H487 C495 0.950 . S
H488 C500 0.950 . S
H489 C497 0.950 . S
H490 C499 0.950 . S
H491 C501 0.950 . S
H492 C503 0.950 . S
H493 C505 0.950 . S
H494 C506 0.950 . S
C495 H487 0.950 . S
C495 C496 1.386 . S
C495 C497 1.391 . S
C496 C495 1.386 . S
C496 C500 1.393 . S
C497 H489 0.950 . S
C497 C495 1.391 . S
C497 C498 1.400 . S
C498 C497 1.400 . S
C498 C499 1.398 . S
C498 C504 1.491 . S
C499 H490 0.950 . S
C499 C498 1.398 . S
C499 C500 1.391 . S
C500 H488 0.950 . S
C500 C496 1.393 . S
C500 C499 1.391 . S
C501 H491 0.950 . S
C501 C502 1.386 . S
C501 C503 1.391 . S
C502 C501 1.386 . S
C502 C506 1.393 . S
C503 H492 0.950 . S
C503 C501 1.391 . S
C503 C504 1.400 . S
C504 C498 1.491 . S
C504 C503 1.400 . S
C504 C505 1.398 . S
C505 H493 0.950 . S
C505 C504 1.398 . S
C505 C506 1.391 . S
C506 H494 0.950 . S
C506 C502 1.393 . S
C506 C505 1.391 . S
H507 C515 0.950 . S
H508 C520 0.950 . S
H509 C517 0.950 . S
H510 C519 0.950 . S
H511 C521 0.950 . S
H512 C523 0.950 . S
H513 C525 0.950 . S
H514 C526 0.950 . S
C515 H507 0.950 . S
C515 C516 1.386 . S
C515 C517 1.391 . S
C516 C515 1.386 . S
C516 C520 1.393 . S
C517 H509 0.950 . S
C517 C515 1.391 . S
C517 C518 1.400 . S
C518 C517 1.400 . S
C518 C519 1.398 . S
C518 C524 1.491 . S
C519 H510 0.950 . S
C519 C518 1.398 . S
C519 C520 1.391 . S
C520 H508 0.950 . S
C520 C516 1.393 . S
C520 C519 1.391 . S
C521 H511 0.950 . S
C521 C522 1.386 . S
C521 C523 1.391 1_545 S
C522 C521 1.386 . S
C522 C526 1.393 . S
C523 H512 0.950 . S
C523 C521 1.391 1_565 S
C523 C524 1.400 . S
C524 C518 1.491 . S
C524 C523 1.400 . S
C524 C525 1.398 . S
C525 H513 0.950 . S
C525 C524 1.398 . S
C525 C526 1.391 1_565 S
C526 H514 0.950 . S
C526 C522 1.393 . S
C526 C525 1.391 1_545 S
H527 C535 0.950 . S
H528 C540 0.950 . S
H529 C537 0.950 . S
H530 C539 0.950 . S
H531 C541 0.950 . S
H532 C543 0.950 . S
H533 C545 0.950 . S
H534 C546 0.950 . S
C535 H527 0.950 . S
C535 C536 1.386 . S
C535 C537 1.391 1_655 S
C536 C535 1.386 . S
C536 C540 1.393 . S
C537 H529 0.950 . S
C537 C535 1.391 1_455 S
C537 C538 1.400 . S
C538 C537 1.400 . S
C538 C539 1.398 . S
C538 C544 1.491 . S
C539 H530 0.950 . S
C539 C538 1.398 . S
C539 C540 1.391 1_455 S
C540 H528 0.950 . S
C540 C536 1.393 . S
C540 C539 1.391 1_655 S
C541 H531 0.950 . S
C541 C542 1.386 . S
C541 C543 1.391 . S
C542 C541 1.386 . S
C542 C546 1.393 . S
C543 H532 0.950 . S
C543 C541 1.391 . S
C543 C544 1.400 . S
C544 C538 1.491 . S
C544 C543 1.400 . S
C544 C545 1.398 . S
C545 H533 0.950 . S
C545 C544 1.398 . S
C545 C546 1.391 . S
C546 H534 0.950 . S
C546 C542 1.393 . S
C546 C545 1.391 . S
H547 C555 0.950 . S
H548 C560 0.950 . S
H549 C557 0.950 . S
H550 C559 0.950 . S
H551 C561 0.950 . S
H552 C563 0.950 . S
H553 C565 0.950 . S
H554 C566 0.950 . S
C555 H547 0.950 . S
C555 C556 1.386 . S
C555 C557 1.391 . S
C556 C555 1.386 . S
C556 C560 1.393 . S
C557 H549 0.950 . S
C557 C555 1.391 . S
C557 C558 1.400 . S
C558 C557 1.400 . S
C558 C559 1.398 . S
C558 C564 1.491 . S
C559 H550 0.950 . S
C559 C558 1.398 . S
C559 C560 1.391 . S
C560 H548 0.950 . S
C560 C556 1.393 . S
C560 C559 1.391 . S
C561 H551 0.950 . S
C561 C562 1.386 . S
C561 C563 1.391 . S
C562 C561 1.386 . S
C562 C566 1.393 . S
C563 H552 0.950 . S
C563 C561 1.391 . S
C563 C564 1.400 . S
C564 C558 1.491 . S
C564 C563 1.400 . S
C564 C565 1.398 . S
C565 H553 0.950 . S
C565 C564 1.398 . S
C565 C566 1.391 . S
C566 H554 0.950 . S
C566 C562 1.393 . S
C566 C565 1.391 . S
H567 C575 0.950 . S
H568 C580 0.950 . S
H569 C577 0.950 . S
H570 C579 0.950 1_655 S
H571 C581 0.950 1_655 S
H572 C583 0.950 1_655 S
H573 C585 0.950 . S
H574 C586 0.950 . S
C575 H567 0.950 . S
C575 C576 1.386 . S
C575 C577 1.391 . S
C576 C575 1.386 . S
C576 C580 1.393 . S
C577 H569 0.950 . S
C577 C575 1.391 . S
C577 C578 1.400 . S
C578 C577 1.400 . S
C578 C579 1.398 . S
C578 C584 1.491 . S
C579 H570 0.950 1_455 S
C579 C578 1.398 . S
C579 C580 1.391 . S
C580 H568 0.950 . S
C580 C576 1.393 . S
C580 C579 1.391 . S
C581 H571 0.950 1_455 S
C581 C582 1.386 . S
C581 C583 1.391 . S
C582 C581 1.386 . S
C582 C586 1.393 . S
C583 H572 0.950 1_455 S
C583 C581 1.391 . S
C583 C584 1.400 . S
C584 C578 1.491 . S
C584 C583 1.400 . S
C584 C585 1.398 . S
C585 H573 0.950 . S
C585 C584 1.398 . S
C585 C586 1.391 . S
C586 H574 0.950 . S
C586 C582 1.393 . S
C586 C585 1.391 . S
H587 C595 0.950 . S
H588 C600 0.950 . S
H589 C597 0.950 . S
H590 C599 0.950 . S
H591 C601 0.950 . S
H592 C603 0.950 . S
H593 C605 0.950 . S
H594 C606 0.950 . S
C595 H587 0.950 . S
C595 C596 1.386 . S
C595 C597 1.391 . S
C596 C595 1.386 . S
C596 C600 1.393 . S
C597 H589 0.950 . S
C597 C595 1.391 . S
C597 C598 1.400 . S
C598 C597 1.400 . S
C598 C599 1.398 . S
C598 C604 1.491 . S
C599 H590 0.950 . S
C599 C598 1.398 . S
C599 C600 1.391 . S
C600 H588 0.950 . S
C600 C596 1.393 . S
C600 C599 1.391 . S
C601 H591 0.950 . S
C601 C602 1.386 . S
C601 C603 1.391 . S
C602 C601 1.386 . S
C602 C606 1.393 . S
C603 H592 0.950 . S
C603 C601 1.391 . S
C603 C604 1.400 . S
C604 C598 1.491 . S
C604 C603 1.400 . S
C604 C605 1.398 . S
C605 H593 0.950 . S
C605 C604 1.398 . S
C605 C606 1.391 . S
C606 H594 0.950 . S
C606 C602 1.393 . S
C606 C605 1.391 . S
H607 C615 0.950 . S
H608 C620 0.950 . S
H609 C617 0.950 . S
H610 C619 0.950 . S
H611 C621 0.950 . S
H612 C623 0.950 . S
H613 C625 0.950 . S
H614 C626 0.950 . S
C615 H607 0.950 . S
C615 C616 1.386 1_565 S
C615 C617 1.391 . S
C616 C615 1.386 1_545 S
C616 C620 1.393 . S
C617 H609 0.950 . S
C617 C615 1.391 . S
C617 C618 1.400 1_565 S
C618 C617 1.400 1_545 S
C618 C619 1.398 . S
C618 C624 1.491 1_545 S
C619 H610 0.950 . S
C619 C618 1.398 . S
C619 C620 1.391 . S
C620 H608 0.950 . S
C620 C616 1.393 . S
C620 C619 1.391 . S
C621 H611 0.950 . S
C621 C622 1.386 1_545 S
C621 C623 1.391 . S
C622 C621 1.386 1_565 S
C622 C626 1.393 . S
C623 H612 0.950 . S
C623 C621 1.391 . S
C623 C624 1.400 1_545 S
C624 C618 1.491 1_565 S
C624 C623 1.400 1_565 S
C624 C625 1.398 . S
C625 H613 0.950 . S
C625 C624 1.398 . S
C625 C626 1.391 . S
C626 H614 0.950 . S
C626 C622 1.393 . S
C626 C625 1.391 . S
H627 C635 0.950 1_565 S
H628 C640 0.950 . S
H629 C637 0.950 1_565 S
H630 C639 0.950 . S
H631 C641 0.950 . S
H632 C643 0.950 . S
H633 C645 0.950 . S
H634 C646 0.950 . S
C635 H627 0.950 1_545 S
C635 C636 1.386 . S
C635 C637 1.391 . S
C636 C635 1.386 . S
C636 C640 1.393 . S
C637 H629 0.950 1_545 S
C637 C635 1.391 . S
C637 C638 1.400 . S
C638 C637 1.400 . S
C638 C639 1.398 . S
C638 C644 1.491 . S
C639 H630 0.950 . S
C639 C638 1.398 . S
C639 C640 1.391 . S
C640 H628 0.950 . S
C640 C636 1.393 . S
C640 C639 1.391 . S
C641 H631 0.950 . S
C641 C642 1.386 . S
C641 C643 1.391 . S
C642 C641 1.386 . S
C642 C646 1.393 . S
C643 H632 0.950 . S
C643 C641 1.391 . S
C643 C644 1.400 . S
C644 C638 1.491 . S
C644 C643 1.400 . S
C644 C645 1.398 . S
C645 H633 0.950 . S
C645 C644 1.398 . S
C645 C646 1.391 . S
C646 H634 0.950 . S
C646 C642 1.393 . S
C646 C645 1.391 . S
H647 C655 0.950 . S
H648 C660 0.950 . S
H649 C657 0.950 . S
H650 C659 0.950 . S
H651 C661 0.950 . S
H652 C663 0.950 1_455 S
H653 C665 0.950 . S
H654 C666 0.950 . S
C655 H647 0.950 . S
C655 C656 1.386 . S
C655 C657 1.391 . S
C656 C655 1.386 . S
C656 C660 1.393 1_655 S
C657 H649 0.950 . S
C657 C655 1.391 . S
C657 C658 1.400 . S
C658 C657 1.400 . S
C658 C659 1.398 1_655 S
C658 C664 1.491 . S
C659 H650 0.950 . S
C659 C658 1.398 1_455 S
C659 C660 1.391 . S
C660 H648 0.950 . S
C660 C656 1.393 1_455 S
C660 C659 1.391 . S
C661 H651 0.950 . S
C661 C662 1.386 . S
C661 C663 1.391 . S
C662 C661 1.386 . S
C662 C666 1.393 . S
C663 H652 0.950 1_655 S
C663 C661 1.391 . S
C663 C664 1.400 . S
C664 C658 1.491 . S
C664 C663 1.400 . S
C664 C665 1.398 . S
C665 H653 0.950 . S
C665 C664 1.398 . S
C665 C666 1.391 . S
C666 H654 0.950 . S
C666 C662 1.393 . S
C666 C665 1.391 . S
H667 C675 0.950 . S
H668 C680 0.950 . S
H669 C677 0.950 . S
H670 C679 0.950 . S
H671 C681 0.950 . S
H672 C683 0.950 . S
H673 C685 0.950 . S
H674 C686 0.950 . S
C675 H667 0.950 . S
C675 C676 1.386 . S
C675 C677 1.391 . S
C676 C675 1.386 . S
C676 C680 1.393 . S
C677 H669 0.950 . S
C677 C675 1.391 . S
C677 C678 1.400 . S
C678 C677 1.400 . S
C678 C679 1.398 . S
C678 C684 1.491 . S
C679 H670 0.950 . S
C679 C678 1.398 . S
C679 C680 1.391 . S
C680 H668 0.950 . S
C680 C676 1.393 . S
C680 C679 1.391 . S
C681 H671 0.950 . S
C681 C682 1.386 . S
C681 C683 1.391 . S
C682 C681 1.386 . S
C682 C686 1.393 . S
C683 H672 0.950 . S
C683 C681 1.391 . S
C683 C684 1.400 . S
C684 C678 1.491 . S
C684 C683 1.400 . S
C684 C685 1.398 . S
C685 H673 0.950 . S
C685 C684 1.398 . S
C685 C686 1.391 . S
C686 H674 0.950 . S
C686 C682 1.393 . S
C686 C685 1.391 . S
H687 C695 0.950 . S
H688 C700 0.950 . S
H689 C697 0.950 . S
H690 C699 0.950 . S
H691 C701 0.950 . S
H692 C703 0.950 . S
H693 C705 0.950 . S
H694 C706 0.950 . S
C695 H687 0.950 . S
C695 C696 1.386 . S
C695 C697 1.391 . S
C696 C695 1.386 . S
C696 C700 1.393 . S
C697 H689 0.950 . S
C697 C695 1.391 . S
C697 C698 1.400 . S
C698 C697 1.400 . S
C698 C699 1.398 . S
C698 C704 1.491 . S
C699 H690 0.950 . S
C699 C698 1.398 . S
C699 C700 1.391 . S
C700 H688 0.950 . S
C700 C696 1.393 . S
C700 C699 1.391 . S
C701 H691 0.950 . S
C701 C702 1.386 . S
C701 C703 1.391 . S
C702 C701 1.386 . S
C702 C706 1.393 . S
C703 H692 0.950 . S
C703 C701 1.391 . S
C703 C704 1.400 . S
C704 C698 1.491 . S
C704 C703 1.400 . S
C704 C705 1.398 . S
C705 H693 0.950 . S
C705 C704 1.398 . S
C705 C706 1.391 . S
C706 H694 0.950 . S
C706 C702 1.393 . S
C706 C705 1.391 . S
H707 C715 0.950 . S
H708 C720 0.950 . S
H709 C717 0.950 . S
H710 C719 0.950 . S
H711 C721 0.950 . S
H712 C723 0.950 . S
H713 C725 0.950 . S
H714 C726 0.950 . S
C715 H707 0.950 . S
C715 C716 1.386 1_545 S
C715 C717 1.391 . S
C716 C715 1.386 1_565 S
C716 C720 1.393 . S
C717 H709 0.950 . S
C717 C715 1.391 . S
C717 C718 1.400 . S
C718 C717 1.400 . S
C718 C719 1.398 . S
C718 C724 1.491 . S
C719 H710 0.950 . S
C719 C718 1.398 . S
C719 C720 1.391 1_545 S
C720 H708 0.950 . S
C720 C716 1.393 . S
C720 C719 1.391 1_565 S
C721 H711 0.950 . S
C721 C722 1.386 . S
C721 C723 1.391 . S
C722 C721 1.386 . S
C722 C726 1.393 . S
C723 H712 0.950 . S
C723 C721 1.391 . S
C723 C724 1.400 . S
C724 C718 1.491 . S
C724 C723 1.400 . S
C724 C725 1.398 . S
C725 H713 0.950 . S
C725 C724 1.398 . S
C725 C726 1.391 . S
C726 H714 0.950 . S
C726 C722 1.393 . S
C726 C725 1.391 . S
H727 C735 0.950 . S
H728 C740 0.950 1_455 S
H729 C737 0.950 . S
H730 C739 0.950 . S
H731 C741 0.950 . S
H732 C743 0.950 . S
H733 C745 0.973 . S
H734 C746 0.950 . S
C735 H727 0.950 . S
C735 C736 1.386 . S
C735 C737 1.391 . S
C736 C735 1.386 . S
C736 C740 1.393 . S
C737 H729 0.950 . S
C737 C735 1.391 . S
C737 C738 1.400 . S
C738 C737 1.400 . S
C738 C739 1.398 1_655 S
C738 C744 1.491 1_655 S
C739 H730 0.950 . S
C739 C738 1.398 1_455 S
C739 C740 1.391 1_455 S
C740 H728 0.950 1_655 S
C740 C736 1.393 . S
C740 C739 1.391 1_655 S
C741 H731 0.950 . S
C741 C742 1.386 . S
C741 C743 1.391 . S
C742 C741 1.386 . S
C742 C746 1.393 . S
C743 H732 0.950 . S
C743 C741 1.391 . S
C743 C744 1.400 . S
C744 C738 1.491 1_455 S
C744 C743 1.400 . S
C744 C745 1.385 1_455 S
C745 H733 0.973 . S
C745 C744 1.385 1_655 S
C745 C746 1.382 1_655 S
C746 H734 0.950 . S
C746 C742 1.393 . S
C746 C745 1.382 1_455 S
C216 C44 1.071 . S
C222 C17 1.023 . S
C236 C62 1.311 . S
C242 C40 1.226 1_556 S
C256 C64 1.108 1_554 S
C262 C21 1.130 . S
C276 C63 1.057 . S
C282 C39 1.126 . S
C296 C67 0.704 . S
C302 C18 0.729 . S
C316 C16 1.153 . S
C322 C41 1.144 . S
C336 C86 1.124 . S
C342 C113 1.183 . S
C356 C136 1.314 . S
C362 C109 1.236 . S
C376 C132 0.962 . S
C382 C90 1.002 . S
C396 C108 1.096 . S
C402 C133 1.092 . S
C416 C131 0.788 . S
C422 C87 0.780 . S
C436 C110 0.920 . S
C442 C85 0.923 . S
C456 C182 0.933 . S
C462 C155 0.947 . S
C476 C178 1.325 . S
C482 C200 1.380 . S
C496 C202 0.988 . S
C502 C159 0.966 . S
C516 C201 0.915 . S
C522 C177 0.969 . S
C536 C205 0.778 . S
C542 C156 0.797 . S
C556 C154 1.033 . S
C562 C179 1.022 . S
C576 C134 1.576 . S
C582 C20 1.627 . S
C596 C88 1.745 . S
C602 C43 1.854 . S
C616 C65 1.657 . S
C622 C111 1.636 . S
C636 C66 1.583 . S
C642 C158 1.582 . S
C656 C19 1.650 . S
C662 C181 1.730 . S
C676 C203 1.780 . S
C682 C42 1.773 . S
C696 C89 1.726 . S
C702 C204 1.723 . S
C716 C112 1.605 . S
C722 C157 1.532 . S
C736 C180 1.721 . S
C742 C135 1.801 . S
