# Generated by pormake.
# Topology unf, (4)-cn, num edge types: 1
# Building blocks:
#     Node 0, Type 0, BuildingBlock: QUQFOY_clean_sbu_1, # of connection points: 4
#     Node 1, Type 0, BuildingBlock: QUQFOY_clean_sbu_1, # of connection points: 4
#     Node 2, Type 0, BuildingBlock: QUQFOY_clean_sbu_1, # of connection points: 4
#     Node 3, Type 0, BuildingBlock: QUQFOY_clean_sbu_1, # of connection points: 4
#     Node 4, Type 0, BuildingBlock: QUQFOY_clean_sbu_1, # of connection points: 4
#     Node 5, Type 0, BuildingBlock: QUQFOY_clean_sbu_1, # of connection points: 4
#     Node 6, Type 0, BuildingBlock: QUQFOY_clean_sbu_1, # of connection points: 4
#     Node 7, Type 0, BuildingBlock: QUQFOY_clean_sbu_1, # of connection points: 4
#     Node 8, Type 0, BuildingBlock: QUQFOY_clean_sbu_1, # of connection points: 4
#     Node 9, Type 0, BuildingBlock: QUQFOY_clean_sbu_1, # of connection points: 4
#     Node 10, Type 0, BuildingBlock: QUQFOY_clean_sbu_1, # of connection points: 4
#     Node 11, Type 0, BuildingBlock: QUQFOY_clean_sbu_1, # of connection points: 4
#     Edge 12, Type (0, 0), BuildingBlock: AJUNOK_clean_linker_0, # of connection points: 2
#     Edge 13, Type (0, 0), BuildingBlock: AJUNOK_clean_linker_0, # of connection points: 2
#     Edge 14, Type (0, 0), BuildingBlock: AJUNOK_clean_linker_0, # of connection points: 2
#     Edge 15, Type (0, 0), BuildingBlock: AJUNOK_clean_linker_0, # of connection points: 2
#     Edge 16, Type (0, 0), BuildingBlock: AJUNOK_clean_linker_0, # of connection points: 2
#     Edge 17, Type (0, 0), BuildingBlock: AJUNOK_clean_linker_0, # of connection points: 2
#     Edge 18, Type (0, 0), BuildingBlock: AJUNOK_clean_linker_0, # of connection points: 2
#     Edge 19, Type (0, 0), BuildingBlock: AJUNOK_clean_linker_0, # of connection points: 2
#     Edge 20, Type (0, 0), BuildingBlock: AJUNOK_clean_linker_0, # of connection points: 2
#     Edge 21, Type (0, 0), BuildingBlock: AJUNOK_clean_linker_0, # of connection points: 2
#     Edge 22, Type (0, 0), BuildingBlock: AJUNOK_clean_linker_0, # of connection points: 2
#     Edge 23, Type (0, 0), BuildingBlock: AJUNOK_clean_linker_0, # of connection points: 2
#     Edge 24, Type (0, 0), BuildingBlock: AJUNOK_clean_linker_0, # of connection points: 2
#     Edge 25, Type (0, 0), BuildingBlock: AJUNOK_clean_linker_0, # of connection points: 2
#     Edge 26, Type (0, 0), BuildingBlock: AJUNOK_clean_linker_0, # of connection points: 2
#     Edge 27, Type (0, 0), BuildingBlock: AJUNOK_clean_linker_0, # of connection points: 2
#     Edge 28, Type (0, 0), BuildingBlock: AJUNOK_clean_linker_0, # of connection points: 2
#     Edge 29, Type (0, 0), BuildingBlock: AJUNOK_clean_linker_0, # of connection points: 2
#     Edge 30, Type (0, 0), BuildingBlock: AJUNOK_clean_linker_0, # of connection points: 2
#     Edge 31, Type (0, 0), BuildingBlock: AJUNOK_clean_linker_0, # of connection points: 2
#     Edge 32, Type (0, 0), BuildingBlock: AJUNOK_clean_linker_0, # of connection points: 2
#     Edge 33, Type (0, 0), BuildingBlock: AJUNOK_clean_linker_0, # of connection points: 2
#     Edge 34, Type (0, 0), BuildingBlock: AJUNOK_clean_linker_0, # of connection points: 2
#     Edge 35, Type (0, 0), BuildingBlock: AJUNOK_clean_linker_0, # of connection points: 2
# Relax obj value: 0.113
# Max RMSD: 0.153
# Mean RMSD: 0.152
data_MOF--net-unf--node1-QUQFOY_clean_sbu_1--edge1-AJUNOK_clean_linker_0
_symmetry_space_group_name_H-M    P1
_symmetry_Int_Tables_number       1
_symmetry_cell_setting            triclinic
loop_
_symmetry_equiv_pos_as_xyz
'x, y, z'
_cell_length_a     30.643095
_cell_length_b     30.73533
_cell_length_c     30.350968
_cell_angle_alpha  89.644428
_cell_angle_beta   90.053962
_cell_angle_gamma 120.34828
loop_
_atom_site_label
_atom_site_type_symbol
_atom_site_fract_x
_atom_site_fract_y
_atom_site_fract_z
_atom_type_partial_charge
O0 O 0.09169 0.29726 0.06324 0.0
Cd1 Cd 0.05007 0.30992 0.10958 0.0
Cd2 Cd 0.0544 0.36522 0.03764 0.0
O3 O 0.11789 0.36367 0.02 0.0
O4 O 0.05786 0.27509 0.16206 0.0
O5 O 0.08946 0.35731 0.15943 0.0
C6 C 0.08485 0.31842 0.18025 0.0
C7 C 0.0379 0.42946 0.02222 0.0
C8 C 0.11986 0.32509 0.03205 0.0
C9 C 0.95754 0.27166 0.05976 0.0
O10 O -0.01158 0.29918 0.03012 0.0
O11 O 0.9726 0.27492 0.09928 0.0
O12 O 0.04445 0.405 0.99115 0.0
O13 O 0.04694 0.42146 0.06217 0.0
O14 O 0.67459 0.78296 0.06443 0.0
Cd15 Cd 0.66787 0.74259 0.12083 0.0
Cd16 Cd 0.59608 0.66492 0.05878 0.0
O17 O 0.60524 0.72919 0.0286 0.0
O18 O 0.70676 0.79695 0.16451 0.0
O19 O 0.62517 0.74323 0.17163 0.0
C20 C 0.66554 0.78212 0.1863 0.0
C21 C 0.52904 0.58682 0.037 0.0
C22 C 0.64411 0.77269 0.03254 0.0
C23 C 0.6939 0.66849 0.08996 0.0
O24 O 0.65689 0.65494 0.06404 0.0
O25 O 0.70371 0.70132 0.11938 0.0
O26 O 0.56353 0.61644 1.00984 0.0
O27 O 0.52979 0.60352 0.07608 0.0
O28 O 0.17646 0.86382 0.06857 0.0
Cd29 Cd 0.23122 0.90539 0.11444 0.0
Cd30 Cd 0.2797 0.89476 0.04499 0.0
O31 O 0.21348 0.83048 0.03089 0.0
O32 O 0.18697 0.90289 0.16368 0.0
O33 O 0.23308 0.86667 0.16819 0.0
C34 C 0.19893 0.87428 0.18527 0.0
C35 C 0.36046 0.90973 0.03112 0.0
C36 C 0.17397 0.83173 0.04101 0.0
C37 C 0.28684 -0.00689 0.0595 0.0
O38 O 0.27975 0.95958 0.03176 0.0
O39 O 0.27791 0.9815 0.1001 0.0
O40 O 0.32887 0.90083 0.99967 0.0
O41 O 0.34391 0.90397 0.07114 0.0
O42 O 0.67002 0.884 0.4631 0.0
Cd43 Cd 0.65808 0.92203 0.41237 0.0
Cd44 Cd 0.59704 0.9179 0.48047 0.0
O45 O 0.60039 0.85658 0.50222 0.0
O46 O 0.7003 0.91726 0.36477 0.0
O47 O 0.6175 0.88093 0.35976 0.0
C48 C 0.65966 0.88885 0.34303 0.0
C49 C 0.53036 0.93217 0.49046 0.0
C50 C 0.64083 0.85632 0.49387 0.0
C51 C 0.68841 0.01563 0.45817 0.0
O52 O 0.66123 0.98559 0.48844 0.0
O53 O 0.68764 -0.00107 0.41983 0.0
O54 O 0.5538 0.9271 0.52354 0.0
O55 O 0.54055 0.92239 0.45171 0.0
O56 O 0.10223 0.7942 0.4609 0.0
Cd57 Cd 0.05902 0.73845 0.41652 0.0
Cd58 Cd 0.07165 0.68971 0.4855 0.0
O59 O 0.13428 0.75701 0.50078 0.0
O60 O 0.0611 0.78042 0.36528 0.0
O61 O 0.09669 0.7336 0.36355 0.0
C62 C 0.0889 0.76684 0.34464 0.0
C63 C 0.06152 0.61037 0.49605 0.0
C64 C 0.13344 0.79645 0.48967 0.0
C65 C 0.97106 0.68045 0.47219 0.0
O66 O 0.0046 0.6851 0.49922 0.0
O67 O -0.01712 0.69281 0.43201 0.0
O68 O 0.06854 0.63969 0.52874 0.0
O69 O 0.06631 0.62868 0.45672 0.0
O70 O 0.18513 0.30811 0.45918 0.0
Cd71 Cd 0.23228 0.32127 0.40652 0.0
Cd72 Cd 0.29967 0.38343 0.47845 0.0
O73 O 0.2322 0.36711 0.50722 0.0
O74 O 0.18178 0.28302 0.35954 0.0
O75 O 0.23248 0.36526 0.35611 0.0
C76 C 0.19566 0.3249 0.33923 0.0
C77 C 0.37615 0.45354 0.49858 0.0
C78 C 0.18967 0.33062 0.49535 0.0
C79 C 0.30481 0.29343 0.4415 0.0
O80 O 0.31378 0.32582 0.47102 0.0
O81 O 0.27531 0.28707 0.40963 0.0
O82 O 0.34888 0.41869 0.52653 0.0
O83 O 0.35734 0.4513 0.45998 0.0
O84 O 0.8497 0.64921 0.97447 0.0
Cd85 Cd 0.88884 0.64593 0.92026 0.0
Cd86 Cd 0.89361 0.5859 0.98241 0.0
O87 O 0.82596 0.57508 1.00471 0.0
O88 O 0.87479 0.68464 0.87494 0.0
O89 O 0.84946 0.604 0.86771 0.0
C90 C 0.85037 0.64381 0.85255 0.0
C91 C 0.92216 0.5292 0.99099 0.0
C92 C 0.82337 0.61494 1.0025 0.0
C93 C -0.01866 0.68798 0.96656 0.0
O94 O 0.95267 0.656 0.99498 0.0
O95 O 0.96666 0.68511 0.92703 0.0
O96 O 0.91143 0.54764 0.02442 0.0
O97 O 0.91127 0.53872 0.95232 0.0
O98 O 0.31567 0.18595 0.95261 0.0
Cd99 Cd 0.31836 0.23924 0.90867 0.0
Cd100 Cd 0.36191 0.28801 0.98593 0.0
O101 O 0.37406 0.23082 1.00186 0.0
O102 O 0.28211 0.19495 0.85751 0.0
O103 O 0.36272 0.25329 0.85459 0.0
C104 C 0.32399 0.21632 0.83586 0.0
C105 C 0.41696 0.37289 0.99823 0.0
C106 C 0.34271 0.18852 0.98548 0.0
C107 C 0.26408 0.27512 0.96209 0.0
O108 O 0.28923 0.27085 0.99314 0.0
O109 O 0.27577 0.27327 0.92226 0.0
O110 O 0.39626 0.34155 0.03051 0.0
O111 O 0.4098 0.35493 0.95878 0.0
O112 O 0.77134 0.1043 0.95458 0.0
Cd113 Cd 0.72823 0.05451 0.9064 0.0
Cd114 Cd 0.66021 0.03477 0.98483 0.0
O115 O 0.72165 0.09777 1.01022 0.0
O116 O 0.78082 0.07355 0.85975 0.0
O117 O 0.71629 0.08576 0.85194 0.0
C118 C 0.75821 0.09148 0.8367 0.0
C119 C 0.57716 0.01268 0.99854 0.0
C120 C 0.76482 0.11865 0.99192 0.0
C121 C 0.67848 0.95271 0.94942 0.0
O122 O 0.66351 0.97075 0.97927 0.0
O123 O 0.7027 0.97853 0.91585 0.0
O124 O 0.60582 0.0127 0.02962 0.0
O125 O 0.59744 0.03026 0.96042 0.0
O126 O 0.31953 0.12894 0.5477 0.0
Cd127 Cd 0.32346 0.08751 0.60028 0.0
Cd128 Cd 0.37735 0.07982 0.53317 0.0
O129 O 0.39186 0.14993 0.51503 0.0
O130 O 0.28574 0.09998 0.64747 0.0
O131 O 0.36688 0.1254 0.65272 0.0
C132 C 0.32727 0.12374 0.66933 0.0
C133 C 0.43069 0.04804 0.51975 0.0
C134 C 0.35391 0.15555 0.5198 0.0
C135 C 0.27737 -0.00549 0.55393 0.0
O136 O 0.30477 0.02356 0.52329 0.0
O137 O 0.28525 0.00977 0.59347 0.0
O138 O 0.41113 0.06041 0.48803 0.0
O139 O 0.424 0.05862 0.55942 0.0
O140 O 0.84858 0.20238 0.56088 0.0
Cd141 Cd 0.89901 0.24309 0.61048 0.0
Cd142 Cd 0.92438 0.30697 0.53 0.0
O143 O 0.85704 0.25302 0.50523 0.0
O144 O 0.88098 0.18649 0.65291 0.0
O145 O 0.8668 0.24838 0.66727 0.0
C146 C 0.86241 0.20588 0.6789 0.0
C147 C 0.95754 0.39304 0.52117 0.0
C148 C 0.83441 0.21007 0.52369 0.0
C149 C -0.00127 0.28151 0.56601 0.0
O150 O 0.97924 0.28878 0.53203 0.0
O151 O 0.97635 0.27093 0.60309 0.0
O152 O 0.95292 0.36485 0.48815 0.0
O153 O 0.93953 0.37143 0.5588 0.0
O154 O 0.7787 0.65745 0.5745 0.0
Cd155 Cd 0.72674 0.65736 0.61835 0.0
Cd156 Cd 0.67872 0.62233 0.53746 0.0
O157 O 0.73365 0.60726 0.5202 0.0
O158 O 0.77288 0.69259 0.66882 0.0
O159 O 0.71295 0.61274 0.67227 0.0
C160 C 0.75128 0.65072 0.69043 0.0
C161 C 0.59256 0.56972 0.52852 0.0
C162 C 0.77549 0.63285 0.53988 0.0
C163 C 0.69397 0.71764 0.568 0.0
O164 O 0.6994 0.69612 0.53485 0.0
O165 O 0.69361 0.70138 0.60666 0.0
O166 O 0.62204 0.59058 0.49508 0.0
O167 O 0.61298 0.57571 0.56699 0.0
C168 C 0.16092 0.2732 0.02978 0.0
C169 C 0.15448 0.31133 1.0105 0.0
C170 C 0.19453 0.26002 0.01209 0.0
C171 C 0.22278 0.28392 0.97409 0.0
H172 H 0.14087 0.25403 0.05962 0.0
H173 H 0.19945 0.23166 0.02908 0.0
S174 S 0.21815 0.38382 0.90898 0.0
N175 N 0.17764 0.37128 0.9497 0.0
N176 N 0.24112 0.34589 0.91632 0.0
C177 C 0.21548 0.32057 0.95315 0.0
C178 C 0.18137 0.33455 0.97148 0.0
C179 C 0.61197 0.81885 0.98822 0.0
C180 C 0.65277 0.81333 1.00163 0.0
C181 C 0.62047 0.86293 0.96681 0.0
C182 C 0.66983 0.90191 0.95704 0.0
H183 H 0.57362 0.79088 0.99738 0.0
H184 H 0.58851 0.86804 0.9605 0.0
S185 S 0.78864 0.902 0.9789 0.0
N186 N 0.74377 0.84769 0.9993 0.0
N187 N 0.7594 0.9301 0.95788 0.0
C188 C 0.71049 0.89476 0.96648 0.0
C189 C 0.70202 0.85046 0.98918 0.0
C190 C 0.12216 0.77374 0.98007 0.0
C191 C 0.12474 0.79691 0.02068 0.0
C192 C 0.07533 0.74058 0.96067 0.0
C193 C 0.03003 0.72933 0.98173 0.0
H194 H 0.15643 0.78103 0.96332 0.0
H195 H 0.07453 0.72207 0.93017 0.0
S196 S 0.0158 0.78106 0.08723 0.0
N197 N 0.07743 0.80712 0.08032 0.0
N198 N -0.00995 0.74488 0.04387 0.0
C199 C 0.0321 0.75311 0.02159 0.0
C200 C 0.07934 0.78689 0.04112 0.0
C201 C 0.71779 0.79871 0.53263 0.0
C202 C 0.6839 0.75865 0.55957 0.0
C203 C 0.70399 0.83125 0.51326 0.0
C204 C 0.65534 0.82442 0.51948 0.0
H205 H 0.75441 0.80338 0.52468 0.0
H206 H 0.73123 0.86081 0.4918 0.0
S207 S 0.55364 0.72585 0.58943 0.0
N208 N 0.60088 0.71471 0.5937 0.0
N209 N 0.57419 0.77584 0.55701 0.0
C210 C 0.6219 0.78584 0.54837 0.0
C211 C 0.63637 0.75288 0.56848 0.0
C212 C 0.17913 0.88963 0.48526 0.0
C213 C 0.1689 0.84596 0.50886 0.0
C214 C 0.21281 0.93743 0.50133 0.0
C215 C 0.23715 0.94365 0.54195 0.0
H216 H 0.16189 0.88704 0.45347 0.0
H217 H 0.22048 0.9699 0.48134 0.0
S218 S 0.2218 0.84195 0.61784 0.0
N219 N 0.1845 0.81192 0.57581 0.0
N220 N 0.24798 0.90272 0.60635 0.0
C221 C 0.2263 0.90063 0.56677 0.0
C222 C 0.19227 0.85151 0.55004 0.0
C223 C 0.05316 0.25489 0.53078 0.0
C224 C 0.04857 0.28687 0.56065 0.0
C225 C 0.09987 0.26806 0.51219 0.0
C226 C 0.14363 0.3142 0.52229 0.0
H227 H 0.01977 0.22111 0.51934 0.0
H228 H 0.10096 0.24302 0.48781 0.0
S229 S 0.15168 0.40825 0.60296 0.0
N230 N 0.09132 0.36394 0.60302 0.0
N231 N 0.17996 0.38936 0.56801 0.0
C232 C 0.14014 0.34464 0.55498 0.0
C233 C 0.09227 0.33084 0.57414 0.0
C234 C 0.70977 0.60205 0.06194 0.0
C235 C 0.72906 0.65047 0.08011 0.0
C236 C 0.74134 0.58886 0.03958 0.0
C237 C 0.7928 0.62416 0.03404 0.0
H238 H 0.66947 0.57535 0.06254 0.0
H239 H 0.72476 0.55243 0.02375 0.0
S240 S 0.86321 0.75275 0.08089 0.0
N241 N 0.8039 0.73122 0.09583 0.0
N242 N 0.86313 0.70677 0.05296 0.0
C243 C 0.81327 0.67103 0.05512 0.0
C244 C 0.78138 0.68409 0.07857 0.0
C245 C 0.31486 0.09812 0.97905 0.0
C246 C 0.33414 0.14108 1.00558 0.0
C247 C 0.30027 0.05098 0.99712 0.0
C248 C 0.30387 0.0445 0.0427 0.0
H249 H 0.31021 0.10071 0.94388 0.0
H250 H 0.28509 0.01918 0.97495 0.0
S251 S 0.35382 0.1456 0.12651 0.0
N252 N 0.35779 0.175 0.07962 0.0
N253 N 0.32992 0.08556 0.11395 0.0
C254 C 0.3241 0.08731 0.06971 0.0
C255 C 0.33954 0.13583 0.05107 0.0
C256 C 0.89229 0.23491 1.0015 0.0
C257 C 0.90506 0.23525 0.04617 0.0
C258 C 0.84564 0.19843 0.9852 0.0
C259 C 0.80927 0.16092 0.01274 0.0
H260 H 0.91905 0.26209 0.97822 0.0
H261 H 0.83859 0.19883 0.95018 0.0
S262 S 0.82063 0.14773 0.13303 0.0
N263 N 0.8755 0.19699 0.11861 0.0
N264 N 0.78671 0.12807 0.08745 0.0
C265 C 0.81971 0.16227 0.05799 0.0
C266 C 0.86793 0.19952 0.07478 0.0
C267 C 0.29992 0.17279 0.47056 0.0
C268 C 0.3469 0.19015 0.49124 0.0
C269 C 0.28844 0.20634 0.4494 0.0
C270 C 0.32321 0.25832 0.44942 0.0
H271 H 0.27102 0.13328 0.47251 0.0
H272 H 0.25066 0.19201 0.43645 0.0
S273 S 0.45316 0.32182 0.495 0.0
N274 N 0.43015 0.26147 0.50656 0.0
N275 N 0.40797 0.32519 0.46823 0.0
C276 C 0.37153 0.27566 0.46738 0.0
C277 C 0.38358 0.24132 0.48802 0.0
C278 C 0.75073 0.13315 0.52715 0.0
C279 C 0.7926 0.16665 0.50172 0.0
C280 C 0.71575 0.08563 0.51131 0.0
C281 C 0.72181 0.06927 0.46967 0.0
H282 H 0.74621 0.1429 0.56043 0.0
H283 H 0.68494 0.06075 0.53297 0.0
S284 S 0.82307 0.1455 0.38862 0.0
N285 N 0.83649 0.18288 0.4316 0.0
N286 N 0.77079 0.09253 0.40163 0.0
C287 C 0.76183 0.10381 0.44262 0.0
C288 C 0.79731 0.15281 0.45874 0.0
C289 C 0.88054 0.65718 0.46029 0.0
C290 C 0.91921 0.66269 0.48891 0.0
C291 C 0.83256 0.64432 0.47657 0.0
C292 C 0.82208 0.63719 0.52197 0.0
H293 H 0.88769 0.66411 0.42528 0.0
H294 H 0.80442 0.64242 0.45379 0.0
S295 S 0.90744 0.64122 0.61037 0.0
N296 N 0.9414 0.65509 0.56485 0.0
N297 N 0.85187 0.63206 0.59479 0.0
C298 C 0.85933 0.64017 0.5506 0.0
C299 C 0.90775 0.65261 0.53424 0.0
C300 C 0.1298 0.27974 0.28174 0.0
C301 C 0.16843 0.32567 0.29882 0.0
C302 C 0.10237 0.27824 0.24431 0.0
C303 C 0.11207 0.32259 0.2221 0.0
H304 H 0.12056 0.24425 0.29723 0.0
H305 H 0.07355 0.24166 0.23251 0.0
S306 S 0.20847 0.45305 0.25368 0.0
N307 N 0.21441 0.41703 0.29097 0.0
N308 N 0.1628 0.4142 0.22041 0.0
C309 C 0.15012 0.36901 0.23905 0.0
C310 C 0.17833 0.37054 0.27733 0.0
C311 C 0.61857 0.79744 0.24663 0.0
C312 C 0.66468 0.80996 0.22602 0.0
C313 C 0.61702 0.82394 0.28367 0.0
C314 C 0.66155 0.86387 0.30177 0.0
H315 H 0.58326 0.76692 0.2341 0.0
H316 H 0.58066 0.81239 0.29865 0.0
S317 S 0.79211 0.91259 0.25964 0.0
N318 N 0.75604 0.86588 0.22628 0.0
N319 N 0.75311 0.91532 0.29544 0.0
C320 C 0.70786 0.8771 0.28117 0.0
C321 C 0.70943 0.85027 0.2435 0.0
C322 C 0.18206 0.81403 0.24837 0.0
C323 C 0.17122 0.84797 0.22636 0.0
C324 C 0.15433 0.78674 0.28573 0.0
C325 C 0.11459 0.79223 0.30264 0.0
H326 H 0.21215 0.8083 0.23664 0.0
H327 H 0.16475 0.76177 0.30185 0.0
S328 S 0.06948 0.87476 0.25633 0.0
N329 N 0.1168 0.88445 0.22393 0.0
N330 N 0.06495 0.83332 0.29354 0.0
C331 C 0.10295 0.82557 0.28061 0.0
C332 C 0.13118 0.85339 0.24273 0.0
C333 C 0.83222 0.68938 0.79344 0.0
C334 C 0.82359 0.64337 0.81146 0.0
C335 C 0.80757 0.691 0.75513 0.0
C336 C 0.7727 0.64666 0.73321 0.0
H337 H 0.85873 0.7248 0.80876 0.0
H338 H 0.81636 0.72757 0.74243 0.0
S339 S 0.73533 0.5161 0.76715 0.0
N340 N 0.77681 0.552 0.8047 0.0
N341 N 0.73018 0.55507 0.73271 0.0
C342 C 0.76289 0.6002 0.75116 0.0
C343 C 0.78846 0.59855 0.79016 0.0
C344 C 0.28212 0.16201 0.77053 0.0
C345 C 0.32709 0.19632 0.79217 0.0
C346 C 0.28288 0.13901 0.73109 0.0
C347 C 0.32865 0.14882 0.71154 0.0
H348 H 0.2457 0.15239 0.78429 0.0
H349 H 0.247 0.11285 0.71606 0.0
S350 S 0.45733 0.2364 0.75436 0.0
N351 N 0.41901 0.23968 0.79067 0.0
N352 N 0.42046 0.19616 0.71652 0.0
C353 C 0.37408 0.18341 0.73253 0.0
C354 C 0.3733 0.20727 0.77273 0.0
C355 C 0.81834 0.11254 0.77404 0.0
C356 C 0.78186 0.11984 0.79544 0.0
C357 C 0.84429 0.14091 0.73679 0.0
C358 C 0.83558 0.17851 0.71966 0.0
H359 H 0.82705 0.08456 0.78615 0.0
H360 H 0.87174 0.13345 0.72148 0.0
S361 S 0.744 0.21286 0.76345 0.0
N362 N 0.73808 0.16737 0.79664 0.0
N363 N 0.78747 0.22132 0.7268 0.0
C364 C 0.79929 0.18643 0.74072 0.0
C365 C 0.77219 0.15688 0.77845 0.0
C366 C -0.00666 0.47372 0.04805 0.0
C367 C 0.01296 0.45916 0.01296 0.0
C368 C 0.96299 0.49499 0.04043 0.0
C369 C 0.95101 0.5028 0.99737 0.0
H370 H 0.00028 0.46747 0.08186 0.0
H371 H 0.94887 0.50541 0.06876 0.0
S372 S -0.00489 0.47372 0.89373 0.0
N373 N 0.01975 0.45575 0.93324 0.0
N374 N 0.96281 0.49594 0.91899 0.0
C375 C 0.9711 0.48929 0.96186 0.0
C376 C 0.00213 0.46758 0.96963 0.0
C377 C 0.47313 0.49702 0.05929 0.0
C378 C 0.4953 0.53324 0.02554 0.0
C379 C 0.4485 0.44542 0.05003 0.0
C380 C 0.44476 0.42788 1.00661 0.0
H381 H 0.47642 0.50848 0.09339 0.0
H382 H 0.43262 0.41913 0.07737 0.0
S383 S 0.49268 0.50753 0.90585 0.0
N384 N 0.50931 0.54817 0.9466 0.0
N385 N 0.46277 0.45116 0.92917 0.0
C386 C 0.46525 0.46373 0.97233 0.0
C387 C 0.49046 0.51636 0.9818 0.0
C388 C 0.44992 0.94712 0.05648 0.0
C389 C 0.41522 0.93263 0.02157 0.0
C390 C 0.50214 0.97417 0.04873 0.0
C391 C 0.52188 -0.01183 1.00576 0.0
H392 H 0.43677 0.93817 0.09025 0.0
H393 H 0.52722 0.98412 0.07678 0.0
S394 S 0.44736 0.95841 0.90253 0.0
N395 N 0.40452 0.9335 0.94202 0.0
N396 N 0.50258 0.98454 0.92766 0.0
C397 C 0.4877 0.97375 0.97046 0.0
C398 C 0.43445 0.94582 0.97829 0.0
C399 C 0.49283 0.96967 0.53953 0.0
C400 C 0.49958 0.95651 0.49672 0.0
C401 C 0.47142 -6e-05 0.54655 0.0
C402 C 0.45577 0.01837 0.51108 0.0
H403 H 0.50531 0.95755 0.56804 0.0
H404 H 0.46723 0.00895 0.58016 0.0
S405 S 0.46297 -0.00678 0.3924 0.0
N406 N 0.48728 0.96302 0.41829 0.0
N407 N 0.44697 0.01981 0.43135 0.0
C408 C 0.46121 0.00461 0.46806 0.0
C409 C 0.48296 0.97362 0.46093 0.0
C410 C -0.00239 0.47027 0.47354 0.0
C411 C -0.01467 0.44864 0.516 0.0
C412 C 0.02467 0.52266 0.46741 0.0
C413 C 0.04083 0.55563 0.50352 0.0
H414 H -0.01441 0.4466 0.44459 0.0
H415 H 0.03162 0.5373 0.43401 0.0
S416 S 0.02235 0.51809 0.62177 0.0
N417 N -0.00584 0.46423 0.59488 0.0
N418 N 0.04521 0.56261 0.58354 0.0
C419 C 0.03042 0.53446 0.54627 0.0
C420 C 0.00253 0.48105 0.55247 0.0
C421 C 0.46428 0.51247 0.47314 0.0
C422 C 0.43011 0.48919 0.50818 0.0
C423 C 0.51657 0.53826 0.48019 0.0
C424 C 0.5369 0.54206 0.5226 0.0
H425 H 0.45072 0.50897 0.43964 0.0
H426 H 0.54119 0.55467 0.45188 0.0
S427 S 0.46338 0.49231 0.62628 0.0
N428 N 0.4201 0.47483 0.58741 0.0
N429 N 0.5184 0.52354 0.60071 0.0
C430 C 0.50311 0.52089 0.55826 0.0
C431 C 0.44976 0.4945 0.55104 0.0
loop_
_geom_bond_atom_site_label_1
_geom_bond_atom_site_label_2
_geom_bond_distance
_geom_bond_site_symmetry_2
_ccdc_geom_bond_type
O0 Cd1 2.223 . S
O0 C8 1.315 . S
Cd1 O0 2.223 . S
Cd1 O4 2.297 . S
Cd1 O5 2.439 . S
Cd1 O11 2.240 . S
Cd2 O3 2.240 . S
Cd2 O10 2.223 1_554 S
Cd2 O12 2.297 . S
Cd2 O13 2.439 . S
O3 Cd2 2.240 . S
O3 C8 1.279 . S
O4 Cd1 2.297 . S
O4 C6 1.247 . S
O5 Cd1 2.439 . S
O5 C6 1.208 . S
C6 O4 1.247 . S
C6 O5 1.208 . S
C7 O12 1.246 . S
C7 O13 1.208 . S
C8 O0 1.315 . S
C8 O3 1.279 . S
C9 O10 1.308 1_654 S
C9 O11 1.279 1_655 S
O10 Cd2 2.223 1_556 S
O10 C9 1.308 1_456 S
O11 Cd1 2.240 . S
O11 C9 1.279 1_455 S
O12 Cd2 2.297 . S
O12 C7 1.246 . S
O13 Cd2 2.439 . S
O13 C7 1.208 . S
O14 Cd15 2.223 . S
O14 C22 1.315 . S
Cd15 O14 2.223 . S
Cd15 O18 2.297 . S
Cd15 O19 2.439 . S
Cd15 O25 2.240 . S
Cd16 O17 2.240 . S
Cd16 O24 2.223 1_554 S
Cd16 O26 2.297 . S
Cd16 O27 2.439 . S
O17 Cd16 2.240 . S
O17 C22 1.279 . S
O18 Cd15 2.297 . S
O18 C20 1.247 . S
O19 Cd15 2.439 . S
O19 C20 1.208 . S
C20 O18 1.247 . S
C20 O19 1.208 . S
C21 O26 1.246 . S
C21 O27 1.208 . S
C22 O14 1.315 . S
C22 O17 1.279 . S
C23 O24 1.315 1_554 S
C23 O25 1.279 . S
O24 Cd16 2.223 1_556 S
O24 C23 1.315 1_556 S
O25 Cd15 2.240 . S
O25 C23 1.279 . S
O26 Cd16 2.297 . S
O26 C21 1.246 . S
O27 Cd16 2.439 . S
O27 C21 1.208 . S
O28 Cd29 2.223 . S
O28 C36 1.315 . S
Cd29 O28 2.223 . S
Cd29 O32 2.297 . S
Cd29 O33 2.439 . S
Cd29 O39 2.240 . S
Cd30 O31 2.240 . S
Cd30 O38 2.223 1_554 S
Cd30 O40 2.297 . S
Cd30 O41 2.439 . S
O31 Cd30 2.240 . S
O31 C36 1.279 . S
O32 Cd29 2.297 . S
O32 C34 1.247 . S
O33 Cd29 2.439 . S
O33 C34 1.208 . S
C34 O32 1.247 . S
C34 O33 1.208 . S
C35 O40 1.246 . S
C35 O41 1.208 . S
C36 O28 1.315 . S
C36 O31 1.279 . S
C37 O38 1.299 1_544 S
C37 O39 1.272 1_545 S
O38 Cd30 2.223 1_556 S
O38 C37 1.299 1_566 S
O39 Cd29 2.240 . S
O39 C37 1.272 1_565 S
O40 Cd30 2.297 . S
O40 C35 1.246 . S
O41 Cd30 2.439 . S
O41 C35 1.208 . S
O42 Cd43 2.223 . S
O42 C50 1.315 . S
Cd43 O42 2.223 . S
Cd43 O46 2.297 . S
Cd43 O47 2.439 . S
Cd43 O53 2.240 . S
Cd44 O45 2.240 . S
Cd44 O52 2.223 . S
Cd44 O54 2.297 . S
Cd44 O55 2.439 . S
O45 Cd44 2.240 . S
O45 C50 1.279 . S
O46 Cd43 2.297 . S
O46 C48 1.247 . S
O47 Cd43 2.439 . S
O47 C48 1.208 . S
C48 O46 1.247 . S
C48 O47 1.208 . S
C49 O54 1.247 . S
C49 O55 1.208 . S
C50 O42 1.315 . S
C50 O45 1.279 . S
C51 O52 1.308 1_545 S
C51 O53 1.279 1_545 S
O52 Cd44 2.223 . S
O52 C51 1.308 1_565 S
O53 Cd43 2.240 . S
O53 C51 1.279 1_565 S
O54 Cd44 2.297 . S
O54 C49 1.247 . S
O55 Cd44 2.439 . S
O55 C49 1.208 . S
O56 Cd57 2.223 . S
O56 C64 1.315 . S
Cd57 O56 2.223 . S
Cd57 O60 2.297 . S
Cd57 O61 2.439 . S
Cd57 O67 2.240 . S
Cd58 O59 2.240 . S
Cd58 O66 2.223 . S
Cd58 O68 2.297 . S
Cd58 O69 2.439 . S
O59 Cd58 2.240 . S
O59 C64 1.279 . S
O60 Cd57 2.297 . S
O60 C62 1.247 . S
O61 Cd57 2.439 . S
O61 C62 1.208 . S
C62 O60 1.247 . S
C62 O61 1.208 . S
C63 O68 1.247 . S
C63 O69 1.208 . S
C64 O56 1.315 . S
C64 O59 1.279 . S
C65 O66 1.299 1_655 S
C65 O67 1.272 1_655 S
O66 Cd58 2.223 . S
O66 C65 1.299 1_455 S
O67 Cd57 2.240 . S
O67 C65 1.272 1_455 S
O68 Cd58 2.297 . S
O68 C63 1.247 . S
O69 Cd58 2.439 . S
O69 C63 1.208 . S
O70 Cd71 2.223 . S
O70 C78 1.315 . S
Cd71 O70 2.223 . S
Cd71 O74 2.297 . S
Cd71 O75 2.439 . S
Cd71 O81 2.240 . S
Cd72 O73 2.240 . S
Cd72 O80 2.223 . S
Cd72 O82 2.297 . S
Cd72 O83 2.439 . S
O73 Cd72 2.240 . S
O73 C78 1.279 . S
O74 Cd71 2.297 . S
O74 C76 1.247 . S
O75 Cd71 2.439 . S
O75 C76 1.208 . S
C76 O74 1.247 . S
C76 O75 1.208 . S
C77 O82 1.247 . S
C77 O83 1.208 . S
C78 O70 1.315 . S
C78 O73 1.279 . S
C79 O80 1.315 . S
C79 O81 1.279 . S
O80 Cd72 2.223 . S
O80 C79 1.315 . S
O81 Cd71 2.240 . S
O81 C79 1.279 . S
O82 Cd72 2.297 . S
O82 C77 1.247 . S
O83 Cd72 2.439 . S
O83 C77 1.208 . S
O84 Cd85 2.223 . S
O84 C92 1.315 . S
Cd85 O84 2.223 . S
Cd85 O88 2.297 . S
Cd85 O89 2.439 . S
Cd85 O95 2.240 . S
Cd86 O87 2.240 . S
Cd86 O94 2.223 1_556 S
Cd86 O96 2.297 . S
Cd86 O97 2.439 . S
O87 Cd86 2.240 . S
O87 C92 1.279 . S
O88 Cd85 2.297 . S
O88 C90 1.247 . S
O89 Cd85 2.439 . S
O89 C90 1.208 . S
C90 O88 1.247 . S
C90 O89 1.208 . S
C91 O96 1.246 . S
C91 O97 1.208 . S
C92 O84 1.315 . S
C92 O87 1.279 . S
C93 O94 1.308 1_456 S
C93 O95 1.279 1_455 S
O94 Cd86 2.223 1_554 S
O94 C93 1.308 1_654 S
O95 Cd85 2.240 . S
O95 C93 1.279 1_655 S
O96 Cd86 2.297 . S
O96 C91 1.246 . S
O97 Cd86 2.439 . S
O97 C91 1.208 . S
O98 Cd99 2.223 . S
O98 C106 1.315 . S
Cd99 O98 2.223 . S
Cd99 O102 2.297 . S
Cd99 O103 2.439 . S
Cd99 O109 2.240 . S
Cd100 O101 2.240 . S
Cd100 O108 2.223 1_556 S
Cd100 O110 2.297 . S
Cd100 O111 2.439 . S
O101 Cd100 2.240 . S
O101 C106 1.279 . S
O102 Cd99 2.297 . S
O102 C104 1.247 . S
O103 Cd99 2.439 . S
O103 C104 1.208 . S
C104 O102 1.247 . S
C104 O103 1.208 . S
C105 O110 1.246 . S
C105 O111 1.208 . S
C106 O98 1.315 . S
C106 O101 1.279 . S
C107 O108 1.315 1_556 S
C107 O109 1.279 . S
O108 Cd100 2.223 1_554 S
O108 C107 1.315 1_554 S
O109 Cd99 2.240 . S
O109 C107 1.279 . S
O110 Cd100 2.297 . S
O110 C105 1.246 . S
O111 Cd100 2.439 . S
O111 C105 1.208 . S
O112 Cd113 2.223 . S
O112 C120 1.315 . S
Cd113 O112 2.223 . S
Cd113 O116 2.297 . S
Cd113 O117 2.439 . S
Cd113 O123 2.240 . S
Cd114 O115 2.240 . S
Cd114 O122 2.223 1_556 S
Cd114 O124 2.297 . S
Cd114 O125 2.439 . S
O115 Cd114 2.240 . S
O115 C120 1.279 . S
O116 Cd113 2.297 . S
O116 C118 1.247 . S
O117 Cd113 2.439 . S
O117 C118 1.208 . S
C118 O116 1.247 . S
C118 O117 1.208 . S
C119 O124 1.246 . S
C119 O125 1.208 . S
C120 O112 1.315 . S
C120 O115 1.279 . S
C121 O122 1.299 1_566 S
C121 O123 1.272 1_565 S
O122 Cd114 2.223 1_554 S
O122 C121 1.299 1_544 S
O123 Cd113 2.240 . S
O123 C121 1.272 1_545 S
O124 Cd114 2.297 . S
O124 C119 1.246 . S
O125 Cd114 2.439 . S
O125 C119 1.208 . S
O126 Cd127 2.223 . S
O126 C134 1.315 . S
Cd127 O126 2.223 . S
Cd127 O130 2.297 . S
Cd127 O131 2.439 . S
Cd127 O137 2.240 . S
Cd128 O129 2.240 . S
Cd128 O136 2.223 . S
Cd128 O138 2.297 . S
Cd128 O139 2.439 . S
O129 Cd128 2.240 . S
O129 C134 1.279 . S
O130 Cd127 2.297 . S
O130 C132 1.247 . S
O131 Cd127 2.439 . S
O131 C132 1.208 . S
C132 O130 1.247 . S
C132 O131 1.208 . S
C133 O138 1.247 . S
C133 O139 1.208 . S
C134 O126 1.315 . S
C134 O129 1.279 . S
C135 O136 1.308 1_565 S
C135 O137 1.279 1_565 S
O136 Cd128 2.223 . S
O136 C135 1.308 1_545 S
O137 Cd127 2.240 . S
O137 C135 1.279 1_545 S
O138 Cd128 2.297 . S
O138 C133 1.247 . S
O139 Cd128 2.439 . S
O139 C133 1.208 . S
O140 Cd141 2.223 . S
O140 C148 1.315 . S
Cd141 O140 2.223 . S
Cd141 O144 2.297 . S
Cd141 O145 2.439 . S
Cd141 O151 2.240 . S
Cd142 O143 2.240 . S
Cd142 O150 2.223 . S
Cd142 O152 2.297 . S
Cd142 O153 2.439 . S
O143 Cd142 2.240 . S
O143 C148 1.279 . S
O144 Cd141 2.297 . S
O144 C146 1.247 . S
O145 Cd141 2.439 . S
O145 C146 1.208 . S
C146 O144 1.247 . S
C146 O145 1.208 . S
C147 O152 1.247 . S
C147 O153 1.208 . S
C148 O140 1.315 . S
C148 O143 1.279 . S
C149 O150 1.299 1_455 S
C149 O151 1.272 1_455 S
O150 Cd142 2.223 . S
O150 C149 1.299 1_655 S
O151 Cd141 2.240 . S
O151 C149 1.272 1_655 S
O152 Cd142 2.297 . S
O152 C147 1.247 . S
O153 Cd142 2.439 . S
O153 C147 1.208 . S
O154 Cd155 2.223 . S
O154 C162 1.315 . S
Cd155 O154 2.223 . S
Cd155 O158 2.297 . S
Cd155 O159 2.439 . S
Cd155 O165 2.240 . S
Cd156 O157 2.240 . S
Cd156 O164 2.223 . S
Cd156 O166 2.297 . S
Cd156 O167 2.439 . S
O157 Cd156 2.240 . S
O157 C162 1.279 . S
O158 Cd155 2.297 . S
O158 C160 1.247 . S
O159 Cd155 2.439 . S
O159 C160 1.208 . S
C160 O158 1.247 . S
C160 O159 1.208 . S
C161 O166 1.247 . S
C161 O167 1.208 . S
C162 O154 1.315 . S
C162 O157 1.279 . S
C163 O164 1.315 . S
C163 O165 1.279 . S
O164 Cd156 2.223 . S
O164 C163 1.315 . S
O165 Cd155 2.240 . S
O165 C163 1.279 . S
O166 Cd156 2.297 . S
O166 C161 1.247 . S
O167 Cd156 2.439 . S
O167 C161 1.208 . S
C168 C169 1.369 . S
C168 C170 1.419 . S
C168 H172 0.930 . S
C169 C168 1.369 . S
C169 C178 1.429 1_554 S
C170 C168 1.419 . S
C170 C171 1.363 1_554 S
C170 H173 0.929 . S
C171 C170 1.363 1_556 S
C171 C177 1.428 . S
H172 C168 0.930 . S
H173 C170 0.929 . S
S174 N175 1.613 . S
S174 N176 1.610 . S
N175 S174 1.613 . S
N175 C178 1.350 . S
N176 S174 1.610 . S
N176 C177 1.351 . S
C177 C171 1.428 . S
C177 N176 1.351 . S
C177 C178 1.434 . S
C178 C169 1.429 1_556 S
C178 N175 1.350 . S
C178 C177 1.434 . S
C179 C180 1.369 . S
C179 C181 1.417 1_554 S
C179 H183 0.930 . S
C180 C179 1.369 . S
C180 C189 1.429 . S
C181 C179 1.417 1_556 S
C181 C182 1.364 . S
C181 H184 0.929 . S
C182 C181 1.364 . S
C182 C188 1.428 . S
H183 C179 0.930 . S
H184 C181 0.929 . S
S185 N186 1.613 1_556 S
S185 N187 1.610 . S
N186 S185 1.613 1_554 S
N186 C189 1.350 . S
N187 S185 1.610 . S
N187 C188 1.351 . S
C188 C182 1.428 . S
C188 N187 1.351 . S
C188 C189 1.434 1_556 S
C189 C180 1.429 . S
C189 N186 1.350 . S
C189 C188 1.434 1_554 S
C190 C191 1.369 1_556 S
C190 C192 1.419 . S
C190 H194 0.930 . S
C191 C190 1.369 1_554 S
C191 C200 1.429 . S
C192 C190 1.419 . S
C192 C193 1.363 . S
C192 H195 0.929 . S
C193 C192 1.363 . S
C193 C199 1.428 1_556 S
H194 C190 0.930 . S
H195 C192 0.929 . S
S196 N197 1.613 . S
S196 N198 1.610 . S
N197 S196 1.613 . S
N197 C200 1.350 . S
N198 S196 1.610 . S
N198 C199 1.351 . S
C199 C193 1.428 1_554 S
C199 N198 1.351 . S
C199 C200 1.434 . S
C200 C191 1.429 . S
C200 N197 1.350 . S
C200 C199 1.434 . S
C201 C202 1.369 . S
C201 C203 1.419 . S
C201 H205 0.930 . S
C202 C201 1.369 . S
C202 C211 1.429 . S
C203 C201 1.419 . S
C203 C204 1.363 . S
C203 H206 0.929 . S
C204 C203 1.363 . S
C204 C210 1.428 . S
H205 C201 0.930 . S
H206 C203 0.929 . S
S207 N208 1.613 . S
S207 N209 1.610 . S
N208 S207 1.613 . S
N208 C211 1.350 . S
N209 S207 1.610 . S
N209 C210 1.351 . S
C210 C204 1.428 . S
C210 N209 1.351 . S
C210 C211 1.434 . S
C211 C202 1.429 . S
C211 N208 1.350 . S
C211 C210 1.434 . S
C212 C213 1.369 . S
C212 C214 1.419 . S
C212 H216 0.930 . S
C213 C212 1.369 . S
C213 C222 1.429 . S
C214 C212 1.419 . S
C214 C215 1.363 . S
C214 H217 0.929 . S
C215 C214 1.363 . S
C215 C221 1.428 . S
H216 C212 0.930 . S
H217 C214 0.929 . S
S218 N219 1.613 . S
S218 N220 1.610 . S
N219 S218 1.613 . S
N219 C222 1.350 . S
N220 S218 1.610 . S
N220 C221 1.351 . S
C221 C215 1.428 . S
C221 N220 1.351 . S
C221 C222 1.434 . S
C222 C213 1.429 . S
C222 N219 1.350 . S
C222 C221 1.434 . S
C223 C224 1.369 . S
C223 C225 1.419 . S
C223 H227 0.930 . S
C224 C223 1.369 . S
C224 C233 1.429 . S
C225 C223 1.419 . S
C225 C226 1.363 . S
C225 H228 0.929 . S
C226 C225 1.363 . S
C226 C232 1.428 . S
H227 C223 0.930 . S
H228 C225 0.929 . S
S229 N230 1.613 . S
S229 N231 1.610 . S
N230 S229 1.613 . S
N230 C233 1.350 . S
N231 S229 1.610 . S
N231 C232 1.351 . S
C232 C226 1.428 . S
C232 N231 1.351 . S
C232 C233 1.434 . S
C233 C224 1.429 . S
C233 N230 1.350 . S
C233 C232 1.434 . S
C234 C235 1.369 1_556 S
C234 C236 1.419 . S
C234 H238 0.930 . S
C235 C234 1.369 1_554 S
C235 C244 1.429 . S
C236 C234 1.419 . S
C236 C237 1.363 . S
C236 H239 0.929 . S
C237 C236 1.363 . S
C237 C243 1.428 1_556 S
H238 C234 0.930 . S
H239 C236 0.929 . S
S240 N241 1.613 . S
S240 N242 1.610 . S
N241 S240 1.613 . S
N241 C244 1.350 . S
N242 S240 1.610 . S
N242 C243 1.351 . S
C243 C237 1.428 1_554 S
C243 N242 1.351 . S
C243 C244 1.434 . S
C244 C235 1.429 . S
C244 N241 1.350 . S
C244 C243 1.434 . S
C245 C246 1.369 . S
C245 C247 1.419 . S
C245 H249 0.930 . S
C246 C245 1.369 . S
C246 C255 1.429 1_556 S
C247 C245 1.419 . S
C247 C248 1.363 1_556 S
C247 H250 0.929 . S
C248 C247 1.363 1_554 S
C248 C254 1.428 . S
H249 C245 0.930 . S
H250 C247 0.929 . S
S251 N252 1.613 . S
S251 N253 1.610 . S
N252 S251 1.613 . S
N252 C255 1.350 . S
N253 S251 1.610 . S
N253 C254 1.351 . S
C254 C248 1.428 . S
C254 N253 1.351 . S
C254 C255 1.434 . S
C255 C246 1.429 1_554 S
C255 N252 1.350 . S
C255 C254 1.434 . S
C256 C257 1.369 1_556 S
C256 C258 1.419 . S
C256 H260 0.930 . S
C257 C256 1.369 1_554 S
C257 C266 1.429 . S
C258 C256 1.419 . S
C258 C259 1.363 . S
C258 H261 0.929 . S
C259 C258 1.363 . S
C259 C265 1.428 1_556 S
H260 C256 0.930 . S
H261 C258 0.929 . S
S262 N263 1.613 . S
S262 N264 1.610 . S
N263 S262 1.613 . S
N263 C266 1.350 . S
N264 S262 1.610 . S
N264 C265 1.351 . S
C265 C259 1.428 1_554 S
C265 N264 1.351 . S
C265 C266 1.434 . S
C266 C257 1.429 . S
C266 N263 1.350 . S
C266 C265 1.434 . S
C267 C268 1.369 . S
C267 C269 1.419 . S
C267 H271 0.930 . S
C268 C267 1.369 . S
C268 C277 1.429 . S
C269 C267 1.419 . S
C269 C270 1.363 . S
C269 H272 0.929 . S
C270 C269 1.363 . S
C270 C276 1.428 . S
H271 C267 0.930 . S
H272 C269 0.929 . S
S273 N274 1.613 . S
S273 N275 1.610 . S
N274 S273 1.613 . S
N274 C277 1.350 . S
N275 S273 1.610 . S
N275 C276 1.351 . S
C276 C270 1.428 . S
C276 N275 1.351 . S
C276 C277 1.434 . S
C277 C268 1.429 . S
C277 N274 1.350 . S
C277 C276 1.434 . S
C278 C279 1.369 . S
C278 C280 1.419 . S
C278 H282 0.930 . S
C279 C278 1.369 . S
C279 C288 1.429 . S
C280 C278 1.419 . S
C280 C281 1.363 . S
C280 H283 0.929 . S
C281 C280 1.363 . S
C281 C287 1.428 . S
H282 C278 0.930 . S
H283 C280 0.929 . S
S284 N285 1.613 . S
S284 N286 1.610 . S
N285 S284 1.613 . S
N285 C288 1.350 . S
N286 S284 1.610 . S
N286 C287 1.351 . S
C287 C281 1.428 . S
C287 N286 1.351 . S
C287 C288 1.434 . S
C288 C279 1.429 . S
C288 N285 1.350 . S
C288 C287 1.434 . S
C289 C290 1.369 . S
C289 C291 1.419 . S
C289 H293 0.930 . S
C290 C289 1.369 . S
C290 C299 1.429 . S
C291 C289 1.419 . S
C291 C292 1.363 . S
C291 H294 0.929 . S
C292 C291 1.363 . S
C292 C298 1.428 . S
H293 C289 0.930 . S
H294 C291 0.929 . S
S295 N296 1.613 . S
S295 N297 1.610 . S
N296 S295 1.613 . S
N296 C299 1.350 . S
N297 S295 1.610 . S
N297 C298 1.351 . S
C298 C292 1.428 . S
C298 N297 1.351 . S
C298 C299 1.434 . S
C299 C290 1.429 . S
C299 N296 1.350 . S
C299 C298 1.434 . S
C300 C301 1.369 . S
C300 C302 1.419 . S
C300 H304 0.930 . S
C301 C300 1.369 . S
C301 C310 1.429 . S
C302 C300 1.419 . S
C302 C303 1.363 . S
C302 H305 0.929 . S
C303 C302 1.363 . S
C303 C309 1.428 . S
H304 C300 0.930 . S
H305 C302 0.929 . S
S306 N307 1.613 . S
S306 N308 1.610 . S
N307 S306 1.613 . S
N307 C310 1.350 . S
N308 S306 1.610 . S
N308 C309 1.351 . S
C309 C303 1.428 . S
C309 N308 1.351 . S
C309 C310 1.434 . S
C310 C301 1.429 . S
C310 N307 1.350 . S
C310 C309 1.434 . S
C311 C312 1.369 . S
C311 C313 1.419 . S
C311 H315 0.930 . S
C312 C311 1.369 . S
C312 C321 1.429 . S
C313 C311 1.419 . S
C313 C314 1.363 . S
C313 H316 0.929 . S
C314 C313 1.363 . S
C314 C320 1.428 . S
H315 C311 0.930 . S
H316 C313 0.929 . S
S317 N318 1.613 . S
S317 N319 1.610 . S
N318 S317 1.613 . S
N318 C321 1.350 . S
N319 S317 1.610 . S
N319 C320 1.351 . S
C320 C314 1.428 . S
C320 N319 1.351 . S
C320 C321 1.434 . S
C321 C312 1.429 . S
C321 N318 1.350 . S
C321 C320 1.434 . S
C322 C323 1.369 . S
C322 C324 1.419 . S
C322 H326 0.930 . S
C323 C322 1.369 . S
C323 C332 1.429 . S
C324 C322 1.419 . S
C324 C325 1.363 . S
C324 H327 0.929 . S
C325 C324 1.363 . S
C325 C331 1.428 . S
H326 C322 0.930 . S
H327 C324 0.929 . S
S328 N329 1.613 . S
S328 N330 1.610 . S
N329 S328 1.613 . S
N329 C332 1.350 . S
N330 S328 1.610 . S
N330 C331 1.351 . S
C331 C325 1.428 . S
C331 N330 1.351 . S
C331 C332 1.434 . S
C332 C323 1.429 . S
C332 N329 1.350 . S
C332 C331 1.434 . S
C333 C334 1.369 . S
C333 C335 1.419 . S
C333 H337 0.930 . S
C334 C333 1.369 . S
C334 C343 1.429 . S
C335 C333 1.419 . S
C335 C336 1.363 . S
C335 H338 0.929 . S
C336 C335 1.363 . S
C336 C342 1.428 . S
H337 C333 0.930 . S
H338 C335 0.929 . S
S339 N340 1.613 . S
S339 N341 1.610 . S
N340 S339 1.613 . S
N340 C343 1.350 . S
N341 S339 1.610 . S
N341 C342 1.351 . S
C342 C336 1.428 . S
C342 N341 1.351 . S
C342 C343 1.434 . S
C343 C334 1.429 . S
C343 N340 1.350 . S
C343 C342 1.434 . S
C344 C345 1.369 . S
C344 C346 1.419 . S
C344 H348 0.930 . S
C345 C344 1.369 . S
C345 C354 1.429 . S
C346 C344 1.419 . S
C346 C347 1.363 . S
C346 H349 0.929 . S
C347 C346 1.363 . S
C347 C353 1.428 . S
H348 C344 0.930 . S
H349 C346 0.929 . S
S350 N351 1.613 . S
S350 N352 1.610 . S
N351 S350 1.613 . S
N351 C354 1.350 . S
N352 S350 1.610 . S
N352 C353 1.351 . S
C353 C347 1.428 . S
C353 N352 1.351 . S
C353 C354 1.434 . S
C354 C345 1.429 . S
C354 N351 1.350 . S
C354 C353 1.434 . S
C355 C356 1.369 . S
C355 C357 1.419 . S
C355 H359 0.930 . S
C356 C355 1.369 . S
C356 C365 1.429 . S
C357 C355 1.419 . S
C357 C358 1.363 . S
C357 H360 0.929 . S
C358 C357 1.363 . S
C358 C364 1.428 . S
H359 C355 0.930 . S
H360 C357 0.929 . S
S361 N362 1.613 . S
S361 N363 1.610 . S
N362 S361 1.613 . S
N362 C365 1.350 . S
N363 S361 1.610 . S
N363 C364 1.351 . S
C364 C358 1.428 . S
C364 N363 1.351 . S
C364 C365 1.434 . S
C365 C356 1.429 . S
C365 N362 1.350 . S
C365 C364 1.434 . S
C366 C367 1.369 1_655 S
C366 C368 1.419 1_554 S
C366 H370 0.930 . S
C367 C366 1.369 1_455 S
C367 C376 1.429 . S
C368 C366 1.419 1_556 S
C368 C369 1.363 . S
C368 H371 0.929 . S
C369 C368 1.363 . S
C369 C375 1.428 1_655 S
H370 C366 0.930 . S
H371 C368 0.929 . S
S372 N373 1.613 1_556 S
S372 N374 1.610 . S
N373 S372 1.613 1_554 S
N373 C376 1.350 . S
N374 S372 1.610 . S
N374 C375 1.351 . S
C375 C369 1.428 1_455 S
C375 N374 1.351 . S
C375 C376 1.434 1_556 S
C376 C367 1.429 . S
C376 N373 1.350 . S
C376 C375 1.434 1_554 S
C377 C378 1.369 . S
C377 C379 1.419 . S
C377 H381 0.930 . S
C378 C377 1.369 . S
C378 C387 1.429 1_554 S
C379 C377 1.419 . S
C379 C380 1.363 1_554 S
C379 H382 0.929 . S
C380 C379 1.363 1_556 S
C380 C386 1.428 . S
H381 C377 0.930 . S
H382 C379 0.929 . S
S383 N384 1.613 . S
S383 N385 1.610 . S
N384 S383 1.613 . S
N384 C387 1.350 . S
N385 S383 1.610 . S
N385 C386 1.351 . S
C386 C380 1.428 . S
C386 N385 1.351 . S
C386 C387 1.434 . S
C387 C378 1.429 1_556 S
C387 N384 1.350 . S
C387 C386 1.434 . S
C388 C389 1.369 1_545 S
C388 C390 1.419 1_554 S
C388 H392 0.930 . S
C389 C388 1.369 1_565 S
C389 C398 1.429 . S
C390 C388 1.419 1_556 S
C390 C391 1.363 . S
C390 H393 0.929 . S
C391 C390 1.363 . S
C391 C397 1.428 1_545 S
H392 C388 0.930 . S
H393 C390 0.929 . S
S394 N395 1.613 1_556 S
S394 N396 1.610 . S
N395 S394 1.613 1_554 S
N395 C398 1.350 . S
N396 S394 1.610 . S
N396 C397 1.351 . S
C397 C391 1.428 1_565 S
C397 N396 1.351 . S
C397 C398 1.434 1_556 S
C398 C389 1.429 . S
C398 N395 1.350 . S
C398 C397 1.434 1_554 S
C399 C400 1.369 . S
C399 C401 1.419 . S
C399 H403 0.930 . S
C400 C399 1.369 . S
C400 C409 1.429 1_565 S
C401 C399 1.419 . S
C401 C402 1.363 1_565 S
C401 H404 0.929 . S
C402 C401 1.363 1_545 S
C402 C408 1.428 . S
H403 C399 0.930 . S
H404 C401 0.929 . S
S405 N406 1.613 . S
S405 N407 1.610 . S
N406 S405 1.613 . S
N406 C409 1.350 . S
N407 S405 1.610 . S
N407 C408 1.351 . S
C408 C402 1.428 . S
C408 N407 1.351 . S
C408 C409 1.434 . S
C409 C400 1.429 1_545 S
C409 N406 1.350 . S
C409 C408 1.434 . S
C410 C411 1.369 . S
C410 C412 1.419 . S
C410 H414 0.930 . S
C411 C410 1.369 . S
C411 C420 1.429 1_655 S
C412 C410 1.419 . S
C412 C413 1.363 1_655 S
C412 H415 0.929 . S
C413 C412 1.363 1_455 S
C413 C419 1.428 . S
H414 C410 0.930 . S
H415 C412 0.929 . S
S416 N417 1.613 . S
S416 N418 1.610 . S
N417 S416 1.613 . S
N417 C420 1.350 . S
N418 S416 1.610 . S
N418 C419 1.351 . S
C419 C413 1.428 . S
C419 N418 1.351 . S
C419 C420 1.434 . S
C420 C411 1.429 1_455 S
C420 N417 1.350 . S
C420 C419 1.434 . S
C421 C422 1.369 . S
C421 C423 1.419 . S
C421 H425 0.930 . S
C422 C421 1.369 . S
C422 C431 1.429 . S
C423 C421 1.419 . S
C423 C424 1.363 . S
C423 H426 0.929 . S
C424 C423 1.363 . S
C424 C430 1.428 . S
H425 C421 0.930 . S
H426 C423 0.929 . S
S427 N428 1.613 . S
S427 N429 1.610 . S
N428 S427 1.613 . S
N428 C431 1.350 . S
N429 S427 1.610 . S
N429 C430 1.351 . S
C430 C424 1.428 . S
C430 N429 1.351 . S
C430 C431 1.434 . S
C431 C422 1.429 . S
C431 N428 1.350 . S
C431 C430 1.434 . S
C169 C8 1.222 . S
C171 C107 1.231 . S
C180 C22 1.215 . S
C182 C121 1.257 . S
C191 C36 1.213 . S
C193 C93 1.242 . S
C202 C163 1.228 . S
C204 C50 1.215 . S
C213 C64 1.221 . S
C215 C135 1.242 . S
C224 C149 1.254 . S
C226 C78 1.220 . S
C235 C23 1.234 . S
C237 C92 1.217 . S
C246 C106 1.220 . S
C248 C37 1.253 . S
C257 C9 1.244 . S
C259 C120 1.221 . S
C268 C134 1.213 . S
C270 C79 1.229 . S
C279 C148 1.222 . S
C281 C51 1.245 . S
C290 C65 1.253 . S
C292 C162 1.214 . S
C301 C76 1.477 . S
C303 C6 1.475 . S
C312 C20 1.469 . S
C314 C48 1.469 . S
C323 C34 1.469 . S
C325 C62 1.471 . S
C334 C90 1.477 . S
C336 C160 1.476 . S
C345 C104 1.477 . S
C347 C132 1.476 . S
C356 C118 1.476 . S
C358 C146 1.474 . S
C367 C7 1.586 . S
C369 C91 1.584 . S
C378 C21 1.582 . S
C380 C105 1.587 . S
C389 C35 1.586 . S
C391 C119 1.584 . S
C400 C49 1.582 . S
C402 C133 1.586 . S
C411 C147 1.586 . S
C413 C63 1.584 . S
C422 C77 1.581 . S
C424 C161 1.588 . S
