# Generated by pormake.
# Topology umr, (4)-cn, num edge types: 1
# Building blocks:
#     Node 0, Type 0, BuildingBlock: QUQFOY_clean_sbu_3, # of connection points: 4
#     Node 1, Type 0, BuildingBlock: QUQFOY_clean_sbu_3, # of connection points: 4
#     Node 2, Type 0, BuildingBlock: QUQFOY_clean_sbu_3, # of connection points: 4
#     Node 3, Type 0, BuildingBlock: QUQFOY_clean_sbu_3, # of connection points: 4
#     Node 4, Type 0, BuildingBlock: QUQFOY_clean_sbu_3, # of connection points: 4
#     Node 5, Type 0, BuildingBlock: QUQFOY_clean_sbu_3, # of connection points: 4
#     Node 6, Type 0, BuildingBlock: QUQFOY_clean_sbu_3, # of connection points: 4
#     Node 7, Type 0, BuildingBlock: QUQFOY_clean_sbu_3, # of connection points: 4
#     Node 8, Type 0, BuildingBlock: QUQFOY_clean_sbu_3, # of connection points: 4
#     Node 9, Type 0, BuildingBlock: QUQFOY_clean_sbu_3, # of connection points: 4
#     Node 10, Type 0, BuildingBlock: QUQFOY_clean_sbu_3, # of connection points: 4
#     Node 11, Type 0, BuildingBlock: QUQFOY_clean_sbu_3, # of connection points: 4
#     Node 12, Type 0, BuildingBlock: QUQFOY_clean_sbu_3, # of connection points: 4
#     Node 13, Type 0, BuildingBlock: QUQFOY_clean_sbu_3, # of connection points: 4
#     Node 14, Type 0, BuildingBlock: QUQFOY_clean_sbu_3, # of connection points: 4
#     Node 15, Type 0, BuildingBlock: QUQFOY_clean_sbu_3, # of connection points: 4
#     Node 16, Type 0, BuildingBlock: QUQFOY_clean_sbu_3, # of connection points: 4
#     Node 17, Type 0, BuildingBlock: QUQFOY_clean_sbu_3, # of connection points: 4
#     Node 18, Type 0, BuildingBlock: QUQFOY_clean_sbu_3, # of connection points: 4
#     Node 19, Type 0, BuildingBlock: QUQFOY_clean_sbu_3, # of connection points: 4
#     Node 20, Type 0, BuildingBlock: QUQFOY_clean_sbu_3, # of connection points: 4
#     Node 21, Type 0, BuildingBlock: QUQFOY_clean_sbu_3, # of connection points: 4
#     Node 22, Type 0, BuildingBlock: QUQFOY_clean_sbu_3, # of connection points: 4
#     Node 23, Type 0, BuildingBlock: QUQFOY_clean_sbu_3, # of connection points: 4
#     Node 24, Type 0, BuildingBlock: QUQFOY_clean_sbu_3, # of connection points: 4
#     Node 25, Type 0, BuildingBlock: QUQFOY_clean_sbu_3, # of connection points: 4
#     Node 26, Type 0, BuildingBlock: QUQFOY_clean_sbu_3, # of connection points: 4
#     Node 27, Type 0, BuildingBlock: QUQFOY_clean_sbu_3, # of connection points: 4
#     Node 28, Type 0, BuildingBlock: QUQFOY_clean_sbu_3, # of connection points: 4
#     Node 29, Type 0, BuildingBlock: QUQFOY_clean_sbu_3, # of connection points: 4
#     Node 30, Type 0, BuildingBlock: QUQFOY_clean_sbu_3, # of connection points: 4
#     Node 31, Type 0, BuildingBlock: QUQFOY_clean_sbu_3, # of connection points: 4
#     Edge 32, Type (0, 0), BuildingBlock: CIFDUS_clean_linker_0, # of connection points: 2
#     Edge 33, Type (0, 0), BuildingBlock: CIFDUS_clean_linker_0, # of connection points: 2
#     Edge 34, Type (0, 0), BuildingBlock: CIFDUS_clean_linker_0, # of connection points: 2
#     Edge 35, Type (0, 0), BuildingBlock: CIFDUS_clean_linker_0, # of connection points: 2
#     Edge 36, Type (0, 0), BuildingBlock: CIFDUS_clean_linker_0, # of connection points: 2
#     Edge 37, Type (0, 0), BuildingBlock: CIFDUS_clean_linker_0, # of connection points: 2
#     Edge 38, Type (0, 0), BuildingBlock: CIFDUS_clean_linker_0, # of connection points: 2
#     Edge 39, Type (0, 0), BuildingBlock: CIFDUS_clean_linker_0, # of connection points: 2
#     Edge 40, Type (0, 0), BuildingBlock: CIFDUS_clean_linker_0, # of connection points: 2
#     Edge 41, Type (0, 0), BuildingBlock: CIFDUS_clean_linker_0, # of connection points: 2
#     Edge 42, Type (0, 0), BuildingBlock: CIFDUS_clean_linker_0, # of connection points: 2
#     Edge 43, Type (0, 0), BuildingBlock: CIFDUS_clean_linker_0, # of connection points: 2
#     Edge 44, Type (0, 0), BuildingBlock: CIFDUS_clean_linker_0, # of connection points: 2
#     Edge 45, Type (0, 0), BuildingBlock: CIFDUS_clean_linker_0, # of connection points: 2
#     Edge 46, Type (0, 0), BuildingBlock: CIFDUS_clean_linker_0, # of connection points: 2
#     Edge 47, Type (0, 0), BuildingBlock: CIFDUS_clean_linker_0, # of connection points: 2
#     Edge 48, Type (0, 0), BuildingBlock: CIFDUS_clean_linker_0, # of connection points: 2
#     Edge 49, Type (0, 0), BuildingBlock: CIFDUS_clean_linker_0, # of connection points: 2
#     Edge 50, Type (0, 0), BuildingBlock: CIFDUS_clean_linker_0, # of connection points: 2
#     Edge 51, Type (0, 0), BuildingBlock: CIFDUS_clean_linker_0, # of connection points: 2
#     Edge 52, Type (0, 0), BuildingBlock: CIFDUS_clean_linker_0, # of connection points: 2
#     Edge 53, Type (0, 0), BuildingBlock: CIFDUS_clean_linker_0, # of connection points: 2
#     Edge 54, Type (0, 0), BuildingBlock: CIFDUS_clean_linker_0, # of connection points: 2
#     Edge 55, Type (0, 0), BuildingBlock: CIFDUS_clean_linker_0, # of connection points: 2
#     Edge 56, Type (0, 0), BuildingBlock: CIFDUS_clean_linker_0, # of connection points: 2
#     Edge 57, Type (0, 0), BuildingBlock: CIFDUS_clean_linker_0, # of connection points: 2
#     Edge 58, Type (0, 0), BuildingBlock: CIFDUS_clean_linker_0, # of connection points: 2
#     Edge 59, Type (0, 0), BuildingBlock: CIFDUS_clean_linker_0, # of connection points: 2
#     Edge 60, Type (0, 0), BuildingBlock: CIFDUS_clean_linker_0, # of connection points: 2
#     Edge 61, Type (0, 0), BuildingBlock: CIFDUS_clean_linker_0, # of connection points: 2
#     Edge 62, Type (0, 0), BuildingBlock: CIFDUS_clean_linker_0, # of connection points: 2
#     Edge 63, Type (0, 0), BuildingBlock: CIFDUS_clean_linker_0, # of connection points: 2
#     Edge 64, Type (0, 0), BuildingBlock: CIFDUS_clean_linker_0, # of connection points: 2
#     Edge 65, Type (0, 0), BuildingBlock: CIFDUS_clean_linker_0, # of connection points: 2
#     Edge 66, Type (0, 0), BuildingBlock: CIFDUS_clean_linker_0, # of connection points: 2
#     Edge 67, Type (0, 0), BuildingBlock: CIFDUS_clean_linker_0, # of connection points: 2
#     Edge 68, Type (0, 0), BuildingBlock: CIFDUS_clean_linker_0, # of connection points: 2
#     Edge 69, Type (0, 0), BuildingBlock: CIFDUS_clean_linker_0, # of connection points: 2
#     Edge 70, Type (0, 0), BuildingBlock: CIFDUS_clean_linker_0, # of connection points: 2
#     Edge 71, Type (0, 0), BuildingBlock: CIFDUS_clean_linker_0, # of connection points: 2
#     Edge 72, Type (0, 0), BuildingBlock: CIFDUS_clean_linker_0, # of connection points: 2
#     Edge 73, Type (0, 0), BuildingBlock: CIFDUS_clean_linker_0, # of connection points: 2
#     Edge 74, Type (0, 0), BuildingBlock: CIFDUS_clean_linker_0, # of connection points: 2
#     Edge 75, Type (0, 0), BuildingBlock: CIFDUS_clean_linker_0, # of connection points: 2
#     Edge 76, Type (0, 0), BuildingBlock: CIFDUS_clean_linker_0, # of connection points: 2
#     Edge 77, Type (0, 0), BuildingBlock: CIFDUS_clean_linker_0, # of connection points: 2
#     Edge 78, Type (0, 0), BuildingBlock: CIFDUS_clean_linker_0, # of connection points: 2
#     Edge 79, Type (0, 0), BuildingBlock: CIFDUS_clean_linker_0, # of connection points: 2
#     Edge 80, Type (0, 0), BuildingBlock: CIFDUS_clean_linker_0, # of connection points: 2
#     Edge 81, Type (0, 0), BuildingBlock: CIFDUS_clean_linker_0, # of connection points: 2
#     Edge 82, Type (0, 0), BuildingBlock: CIFDUS_clean_linker_0, # of connection points: 2
#     Edge 83, Type (0, 0), BuildingBlock: CIFDUS_clean_linker_0, # of connection points: 2
#     Edge 84, Type (0, 0), BuildingBlock: CIFDUS_clean_linker_0, # of connection points: 2
#     Edge 85, Type (0, 0), BuildingBlock: CIFDUS_clean_linker_0, # of connection points: 2
#     Edge 86, Type (0, 0), BuildingBlock: CIFDUS_clean_linker_0, # of connection points: 2
#     Edge 87, Type (0, 0), BuildingBlock: CIFDUS_clean_linker_0, # of connection points: 2
#     Edge 88, Type (0, 0), BuildingBlock: CIFDUS_clean_linker_0, # of connection points: 2
#     Edge 89, Type (0, 0), BuildingBlock: CIFDUS_clean_linker_0, # of connection points: 2
#     Edge 90, Type (0, 0), BuildingBlock: CIFDUS_clean_linker_0, # of connection points: 2
#     Edge 91, Type (0, 0), BuildingBlock: CIFDUS_clean_linker_0, # of connection points: 2
#     Edge 92, Type (0, 0), BuildingBlock: CIFDUS_clean_linker_0, # of connection points: 2
#     Edge 93, Type (0, 0), BuildingBlock: CIFDUS_clean_linker_0, # of connection points: 2
#     Edge 94, Type (0, 0), BuildingBlock: CIFDUS_clean_linker_0, # of connection points: 2
#     Edge 95, Type (0, 0), BuildingBlock: CIFDUS_clean_linker_0, # of connection points: 2
# Relax obj value: 0.087
# Max RMSD: 0.108
# Mean RMSD: 0.108
data_MOF--net-umr--node1-QUQFOY_clean_sbu_3--edge1-CIFDUS_clean_linker_0
_symmetry_space_group_name_H-M    P1
_symmetry_Int_Tables_number       1
_symmetry_cell_setting            triclinic
loop_
_symmetry_equiv_pos_as_xyz
'x, y, z'
_cell_length_a     75.755255
_cell_length_b     75.781448
_cell_length_c     23.993438
_cell_angle_alpha  89.847169
_cell_angle_beta   90.278935
_cell_angle_gamma 89.953765
loop_
_atom_site_label
_atom_site_type_symbol
_atom_site_fract_x
_atom_site_fract_y
_atom_site_fract_z
_atom_type_partial_charge
C0 C 0.17291 0.2468 0.04753 0.0
O1 O 0.18345 0.24067 0.08408 0.0
Cd2 Cd 0.19246 0.25687 0.16426 0.0
O3 O 0.16633 0.26223 0.05273 0.0
Cd4 Cd 0.16826 0.28705 0.11997 0.0
C5 C 0.21188 0.28989 0.09086 0.0
O6 O 0.16502 0.26792 0.19931 0.0
O7 O 0.17295 0.29441 0.21961 0.0
O8 O 0.13766 0.29487 0.09791 0.0
C9 C 0.1671 0.27963 0.2361 0.0
O10 O 0.21428 0.27751 0.12606 0.0
C11 C 0.14041 0.31141 0.09774 0.0
O12 O 0.1964 0.29513 0.07873 0.0
O13 O 0.15622 0.31644 0.10512 0.0
C14 C 0.98309 0.89725 0.30237 0.0
O15 O 0.99392 0.90208 0.33987 0.0
Cd16 Cd 0.9845 0.91401 0.42616 0.0
O17 O 0.96653 0.89683 0.31205 0.0
Cd18 Cd 0.94532 0.90232 0.38905 0.0
C19 C 0.9564 0.94469 0.36455 0.0
O20 O 0.96444 0.89307 0.46345 0.0
O21 O 0.94243 0.90889 0.48967 0.0
O22 O 0.93085 0.87432 0.37181 0.0
C23 C 0.95563 0.89945 0.50319 0.0
O24 O 0.97061 0.94098 0.39075 0.0
C25 C 0.91529 0.88052 0.36992 0.0
O26 O 0.94464 0.93294 0.35665 0.0
O27 O 0.91366 0.89714 0.37483 0.0
C28 C 0.32136 0.73881 0.54043 0.0
O29 O 0.31085 0.74679 0.57284 0.0
Cd30 Cd 0.29966 0.73338 0.65594 0.0
O31 O 0.32672 0.72328 0.5521 0.0
Cd32 Cd 0.3224 0.70092 0.62596 0.0
C33 C 0.27928 0.69971 0.58831 0.0
O34 O 0.32492 0.72126 0.70323 0.0
O35 O 0.31513 0.69542 0.7247 0.0
O36 O 0.35323 0.69343 0.61201 0.0
C37 C 0.32122 0.71015 0.74087 0.0
O38 O 0.27725 0.71302 0.61986 0.0
C39 C 0.35096 0.67684 0.61325 0.0
O40 O 0.29454 0.69324 0.58007 0.0
O41 O 0.33519 0.67139 0.61848 0.0
C42 C 0.49296 0.08358 0.79721 0.0
O43 O 0.48737 0.07323 0.8349 0.0
Cd44 Cd 0.50431 0.06403 0.91311 0.0
O45 O 0.50824 0.09065 0.80109 0.0
Cd46 Cd 0.53337 0.09001 0.86882 0.0
C47 C 0.53716 0.04698 0.8333 0.0
O48 O 0.51481 0.09151 0.94906 0.0
O49 O 0.54141 0.08338 0.96712 0.0
O50 O 0.54211 0.12082 0.85135 0.0
C51 C 0.52661 0.08863 -0.01477 0.0
O52 O 0.5252 0.04351 0.86875 0.0
C53 C 0.55852 0.11722 0.85015 0.0
O54 O 0.54182 0.0628 0.82406 0.0
O55 O 0.5628 0.10109 0.85473 0.0
C56 C 0.16707 0.74294 0.41448 0.0
O57 O 0.17781 0.75089 0.3826 0.0
Cd58 Cd 0.18765 0.73922 0.29613 0.0
O59 O 0.16086 0.72785 0.40135 0.0
Cd60 Cd 0.16361 0.7063 0.32435 0.0
C61 C 0.20757 0.70345 0.35444 0.0
O62 O 0.16029 0.72945 0.25714 0.0
O63 O 0.1667 0.70436 0.22089 0.0
O64 O 0.13326 0.69803 0.34488 0.0
C65 C 0.16186 0.72025 0.21375 0.0
O66 O 0.2097 0.71745 0.3259 0.0
C67 C 0.13566 0.68155 0.33899 0.0
O68 O 0.19222 0.69721 0.3626 0.0
O69 O 0.15124 0.67652 0.32786 0.0
C70 C 0.5009 0.91882 0.6794 0.0
O71 O 0.49435 0.92967 0.64455 0.0
Cd72 Cd 0.51055 0.94196 0.56927 0.0
O73 O 0.51679 0.91341 0.67439 0.0
Cd74 Cd 0.54184 0.91839 0.60953 0.0
C75 C 0.54169 0.96078 0.65259 0.0
O76 O 0.52365 0.91642 0.52834 0.0
O77 O 0.54952 0.92702 0.5125 0.0
O78 O 0.55123 0.88772 0.61838 0.0
C79 C 0.53535 0.92044 0.49327 0.0
O80 O 0.52945 0.9635 0.61704 0.0
C81 C 0.56752 0.89135 0.62388 0.0
O82 O 0.54789 0.94538 0.66024 0.0
O83 O 0.57165 0.90757 0.6259 0.0
C84 C 0.32393 0.24958 0.91673 0.0
O85 O 0.31342 0.24168 0.88383 0.0
Cd86 Cd 0.30353 0.25407 0.79781 0.0
O87 O 0.32995 0.26484 0.90463 0.0
Cd88 Cd 0.32721 0.2869 0.82872 0.0
C89 C 0.28351 0.28927 0.85857 0.0
O90 O 0.33048 0.26467 0.75893 0.0
O91 O 0.32294 0.29011 0.72646 0.0
O92 O 0.35766 0.29463 0.84889 0.0
C93 C 0.32832 0.27455 0.71699 0.0
O94 O 0.28147 0.27552 0.82888 0.0
C95 C 0.35541 0.31117 0.8441 0.0
O96 O 0.29881 0.29555 0.86765 0.0
O97 O 0.3398 0.31649 0.83405 0.0
C98 C 0.97936 0.07068 0.18273 0.0
O99 O 0.98996 0.06407 0.14769 0.0
Cd100 Cd 0.97859 0.04787 0.07129 0.0
O101 O 0.9628 0.07108 0.1726 0.0
Cd102 Cd 0.94111 0.06389 0.09694 0.0
C103 C 0.948 0.02355 0.14775 0.0
O104 O 0.96078 0.06825 0.01965 0.0
O105 O 0.93736 0.05319 0.00054 0.0
O106 O 0.93066 0.094 0.1012 0.0
C107 C 0.95088 0.06135 -0.01692 0.0
O108 O 0.9631 0.02528 0.12528 0.0
C109 C 0.91436 0.09024 0.10334 0.0
O110 O 0.93635 0.03556 0.14324 0.0
O111 O 0.91035 0.07396 0.10479 0.0
C112 C 0.8271 0.74421 0.89817 0.0
O113 O 0.8177 0.75069 0.85925 0.0
Cd114 Cd 0.80956 0.73427 0.77925 0.0
O115 O 0.83348 0.72864 0.89427 0.0
Cd116 Cd 0.83358 0.70383 0.82664 0.0
C117 C 0.78993 0.70114 0.85378 0.0
O118 O 0.83741 0.72305 0.74913 0.0
O119 O 0.82844 0.69712 0.72672 0.0
O120 O 0.86411 0.69575 0.84994 0.0
C121 C 0.83477 0.71182 0.71132 0.0
O122 O 0.78777 0.71372 0.81908 0.0
C123 C 0.86115 0.67924 0.84842 0.0
O124 O 0.80531 0.69557 0.86579 0.0
O125 O 0.8453 0.67446 0.84006 0.0
C126 C 0.994 0.07032 0.68312 0.0
O127 O 0.98628 0.06047 0.6479 0.0
Cd128 Cd -0.00033 0.05102 0.56293 0.0
O129 O 0.00939 0.07635 0.67332 0.0
Cd130 Cd 0.03191 0.07419 0.59912 0.0
C131 C 0.03367 0.03058 0.62983 0.0
O132 O 0.01196 0.07682 0.52046 0.0
O133 O 0.038 0.0673 0.5008 0.0
O134 O 0.03967 0.10501 0.61479 0.0
C135 C 0.02323 0.0731 0.48355 0.0
O136 O 0.02055 0.02871 0.59699 0.0
C137 C 0.05623 0.10237 0.61542 0.0
O138 O 0.03976 0.04582 0.64084 0.0
O139 O 0.06142 0.0865 0.61064 0.0
C140 C 0.66646 0.25145 0.41497 0.0
O141 O 0.67645 0.24315 0.38167 0.0
Cd142 Cd 0.68654 0.25459 0.29509 0.0
O143 O 0.66101 0.26698 0.40336 0.0
Cd144 Cd 0.66504 0.28869 0.32726 0.0
C145 C 0.7091 0.28801 0.35601 0.0
O146 O 0.65994 0.26682 0.2575 0.0
O147 O 0.66915 0.29163 0.22505 0.0
O148 O 0.63554 0.30047 0.34409 0.0
C149 C 0.66259 0.27653 0.21559 0.0
O150 O 0.71032 0.27437 0.32543 0.0
C151 C 0.64037 0.31651 0.34181 0.0
O152 O 0.69418 0.29502 0.36549 0.0
O153 O 0.65671 0.31945 0.33482 0.0
C154 C 0.49563 0.91012 0.18912 0.0
O155 O 0.50575 0.91648 0.15216 0.0
Cd156 Cd 0.49475 0.92641 0.0648 0.0
O157 O 0.47926 0.90761 0.17892 0.0
Cd158 Cd 0.45735 0.91071 0.10213 0.0
C159 C 0.46352 0.95429 0.12264 0.0
O160 O 0.4778 0.90223 0.03111 0.0
O161 O 0.45425 0.91474 -2e-05 0.0
O162 O 0.44638 0.88189 0.12898 0.0
C163 C 0.46841 0.90645 -0.01046 0.0
O164 O 0.47788 0.95202 0.0962 0.0
C165 C 0.43014 0.88559 0.12281 0.0
O166 O 0.4533 0.94132 0.13251 0.0
O167 O 0.4264 0.90141 0.1095 0.0
C168 C 0.81759 0.24232 0.54693 0.0
O169 O 0.80615 0.23664 0.58109 0.0
Cd170 Cd 0.79801 0.2524 0.66252 0.0
O171 O 0.82509 0.25722 0.5543 0.0
Cd172 Cd 0.824 0.2818 0.62187 0.0
C173 C 0.78035 0.28688 0.59186 0.0
O174 O 0.82679 0.26068 0.69475 0.0
O175 O 0.8222 0.28701 0.72445 0.0
O176 O 0.85458 0.28858 0.59665 0.0
C177 C 0.82674 0.27124 0.73517 0.0
O178 O 0.77725 0.27438 0.62587 0.0
C179 C 0.85265 0.30518 0.60101 0.0
O180 O 0.7961 0.29144 0.58108 0.0
O181 O 0.83727 0.31075 0.61222 0.0
C182 C 0.48307 0.08199 0.28394 0.0
O183 O 0.49395 0.075 0.31784 0.0
Cd184 Cd 0.4849 0.06049 0.39972 0.0
O185 O 0.46662 0.08288 0.29545 0.0
Cd186 Cd 0.44598 0.07555 0.3736 0.0
C187 C 0.45405 0.03365 0.33433 0.0
O188 O 0.46785 0.0834 0.44063 0.0
O189 O 0.44531 0.07059 0.47664 0.0
O190 O 0.43208 0.10411 0.35916 0.0
C191 C 0.45961 0.07901 0.48399 0.0
O192 O 0.46942 0.03608 0.3545 0.0
C193 C 0.41632 0.09856 0.36297 0.0
O194 O 0.44237 0.04567 0.33646 0.0
O195 O 0.41425 0.08205 0.36936 0.0
C196 C 0.68118 0.74585 0.04367 0.0
O197 O 0.69285 0.75225 0.07599 0.0
Cd198 Cd 0.70236 0.73722 0.15834 0.0
O199 O 0.6743 0.7308 0.05347 0.0
Cd200 Cd 0.67632 0.70666 0.12205 0.0
C201 C 0.7198 0.70204 0.09035 0.0
O202 O 0.67427 0.72826 0.19375 0.0
O203 O 0.67826 0.70177 0.22416 0.0
O204 O 0.64554 0.7008 0.09727 0.0
C205 C 0.67421 0.71767 0.23439 0.0
O206 O 0.72285 0.71515 0.12197 0.0
C207 C 0.64683 0.68418 0.10294 0.0
O208 O 0.7041 0.69687 0.08123 0.0
O209 O 0.66203 0.67807 0.11458 0.0
C210 C 0.98959 0.9164 0.81179 0.0
O211 O 0.98318 0.92673 0.84809 0.0
Cd212 Cd -0.00084 0.93587 0.92896 0.0
O213 O 0.00519 0.91026 0.81742 0.0
Cd214 Cd 0.02998 0.91286 0.88487 0.0
C215 C 0.03167 0.95676 0.85786 0.0
O216 O 0.01122 0.90876 0.96449 0.0
O217 O 0.03762 0.91722 -0.01559 0.0
O218 O 0.03858 0.88261 0.86168 0.0
C219 C 0.02303 0.911 0.00112 0.0
O220 O 0.01919 0.95857 0.89272 0.0
C221 C 0.05503 0.88589 0.86096 0.0
O222 O 0.0373 0.9415 0.84509 0.0
O223 O 0.05961 0.9018 0.86897 0.0
C224 C 0.65178 0.73888 0.54839 0.0
O225 O 0.65573 0.72909 0.58961 0.0
Cd226 Cd 0.66852 0.74318 0.66831 0.0
O227 O 0.65152 0.75563 0.55362 0.0
Cd228 Cd 0.65478 0.77997 0.62135 0.0
C229 C 0.69665 0.77068 0.59163 0.0
O230 O 0.64726 0.76347 0.70282 0.0
O231 O 0.66351 0.78628 0.71797 0.0
O232 O 0.62549 0.79087 0.598 0.0
C233 C 0.65427 0.77381 0.73775 0.0
O234 O 0.69383 0.75708 0.62176 0.0
C235 C 0.62984 0.80705 0.5983 0.0
O236 O 0.68446 0.78197 0.58319 0.0
O237 O 0.64609 0.81055 0.60577 0.0
C238 C 0.49478 0.40327 0.78717 0.0
O239 O 0.50572 0.40765 0.82489 0.0
Cd240 Cd 0.49583 0.41982 0.91045 0.0
O241 O 0.47821 0.4037 0.79623 0.0
Cd242 Cd 0.4565 0.4101 0.87027 0.0
C243 C 0.4696 0.45188 0.84727 0.0
O244 O 0.47455 0.39954 0.94536 0.0
O245 O 0.4527 0.41579 0.97075 0.0
O246 O 0.44233 0.38245 0.8486 0.0
C247 C 0.46536 0.40569 -0.01537 0.0
O248 O 0.48348 0.44734 0.87392 0.0
C249 C 0.4267 0.38847 0.84736 0.0
O250 O 0.45721 0.44084 0.83879 0.0
O251 O 0.42486 0.40501 0.85418 0.0
C252 C 0.83752 0.24728 0.05399 0.0
O253 O 0.83338 0.25679 0.09539 0.0
Cd254 Cd 0.82072 0.24287 0.17409 0.0
O255 O 0.83727 0.23046 0.05771 0.0
Cd256 Cd 0.83242 0.20547 0.12306 0.0
C257 C 0.79062 0.21738 0.09786 0.0
O258 O 0.84219 0.22162 0.20217 0.0
O259 O 0.82624 0.19904 0.22215 0.0
O260 O 0.86035 0.19303 0.09349 0.0
C261 C 0.83611 0.21145 0.23913 0.0
O262 O 0.79437 0.23072 0.12795 0.0
C263 C 0.85514 0.17711 0.09359 0.0
O264 O 0.80211 0.20548 0.08877 0.0
O265 O 0.83897 0.17442 0.10452 0.0
C266 C -0.00187 0.58546 0.28465 0.0
O267 O 0.98739 0.58055 0.32207 0.0
Cd268 Cd -0.0027 0.56858 0.40822 0.0
O269 O 0.01472 0.58578 0.2942 0.0
Cd270 Cd 0.03658 0.58023 0.36972 0.0
C271 C 0.02516 0.53785 0.3462 0.0
O272 O 0.01764 0.58969 0.44318 0.0
O273 O 0.04006 0.57458 0.47104 0.0
O274 O 0.05003 0.60844 0.34899 0.0
C275 C 0.02669 0.58384 0.48355 0.0
O276 O 0.01106 0.54176 0.37222 0.0
C277 C 0.06582 0.60282 0.34806 0.0
O278 O 0.03707 0.54944 0.3382 0.0
O279 O 0.06807 0.58632 0.35501 0.0
C280 C 0.667 0.24714 0.90025 0.0
O281 O 0.67428 0.25556 0.86079 0.0
Cd282 Cd 0.6889 0.23936 0.79105 0.0
O283 O 0.66536 0.23037 0.89796 0.0
Cd284 Cd 0.67039 0.20479 0.83446 0.0
C285 C 0.71171 0.21056 0.87903 0.0
O286 O 0.66595 0.22161 0.75174 0.0
O287 O 0.67935 0.19693 0.73824 0.0
O288 O 0.63987 0.19552 0.84809 0.0
C289 C 0.67157 0.21029 0.71764 0.0
O290 O 0.71095 0.22476 0.85064 0.0
C291 C 0.64349 0.17929 0.85449 0.0
O292 O 0.6988 0.19987 0.87992 0.0
O293 O 0.65972 0.17506 0.85423 0.0
C294 C 0.00511 0.40775 0.17976 0.0
O295 O 0.99444 0.414 0.14383 0.0
Cd296 Cd 0.00505 0.42989 0.06584 0.0
O297 O 0.0217 0.40769 0.17058 0.0
Cd298 Cd 0.04312 0.41546 0.09529 0.0
C299 C 0.03442 0.4563 0.14012 0.0
O300 O 0.02368 0.40963 0.01757 0.0
O301 O 0.04661 0.42526 -0.00213 0.0
O302 O 0.05593 0.38613 0.10339 0.0
C303 C 0.03336 0.41656 0.98068 0.0
O304 O 0.01947 0.45386 0.1169 0.0
C305 C 0.07184 0.3913 0.10562 0.0
O306 O 0.0464 0.44455 0.13813 0.0
O307 O 0.07442 0.40787 0.10527 0.0
C308 C 0.81571 0.7381 0.39854 0.0
O309 O 0.80715 0.72974 0.36144 0.0
Cd310 Cd 0.79478 0.74544 0.28586 0.0
O311 O 0.81879 0.75462 0.39333 0.0
Cd312 Cd 0.81514 0.78021 0.32854 0.0
C313 C 0.77263 0.77664 0.36557 0.0
O314 O 0.82094 0.76021 0.25578 0.0
O315 O 0.81263 0.78568 0.22588 0.0
O316 O 0.84482 0.78776 0.35931 0.0
C317 C 0.81911 0.77062 0.21518 0.0
O318 O 0.77304 0.76201 0.33972 0.0
C319 C 0.84278 0.80435 0.35564 0.0
O320 O 0.78604 0.78669 0.36693 0.0
O321 O 0.82754 0.80982 0.34153 0.0
C322 C 0.49019 0.5841 0.69444 0.0
O323 O 0.50088 0.57822 0.65838 0.0
Cd324 Cd 0.49043 0.5635 0.57767 0.0
O325 O 0.4736 0.58425 0.68471 0.0
Cd326 Cd 0.45225 0.57696 0.60837 0.0
C327 C 0.4616 0.53554 0.64722 0.0
O328 O 0.47143 0.58419 0.53138 0.0
O329 O 0.44861 0.56857 0.50999 0.0
O330 O 0.43833 0.60559 0.61989 0.0
C331 C 0.46168 0.57765 0.49375 0.0
O332 O 0.47647 0.53839 0.62436 0.0
C333 C 0.42264 0.59972 0.62172 0.0
O334 O 0.4496 0.54728 0.647 0.0
O335 O 0.42074 0.58309 0.61947 0.0
C336 C 0.32495 0.24579 0.39988 0.0
O337 O 0.31932 0.25457 0.35833 0.0
Cd338 Cd 0.30601 0.23917 0.28308 0.0
O339 O 0.32559 0.22896 0.39815 0.0
Cd340 Cd 0.32065 0.20313 0.33634 0.0
C341 C 0.27873 0.21284 0.36622 0.0
O342 O 0.32766 0.21862 0.25275 0.0
O343 O 0.31275 0.19482 0.23949 0.0
O344 O 0.35027 0.19418 0.36162 0.0
C345 C 0.32145 0.20752 0.21872 0.0
O346 O 0.28133 0.22586 0.33351 0.0
C347 C 0.347 0.17779 0.36508 0.0
O348 O 0.29103 0.20178 0.37624 0.0
O349 O 0.33103 0.1731 0.35808 0.0
C350 C 0.50526 0.58743 0.19545 0.0
O351 O 0.49729 0.57737 0.16137 0.0
Cd352 Cd 0.5095 0.56566 0.07782 0.0
O353 O 0.52093 0.5927 0.18551 0.0
Cd354 Cd 0.54296 0.58704 0.1111 0.0
C355 C 0.54121 0.54386 0.14903 0.0
O356 O 0.52318 0.59022 0.03232 0.0
O357 O 0.54817 0.57813 0.01355 0.0
O358 O 0.55637 0.6164 0.11774 0.0
C359 C 0.53399 0.58511 -0.00425 0.0
O360 O 0.52833 0.54201 0.1153 0.0
C361 C 0.57203 0.61048 0.12253 0.0
O362 O 0.54803 0.55894 0.15727 0.0
O363 O 0.57387 0.59384 0.1242 0.0
C364 C 0.16044 0.75225 0.8988 0.0
O365 O 0.16687 0.74358 0.85854 0.0
Cd366 Cd 0.18119 0.75893 0.78601 0.0
O367 O 0.15902 0.76905 0.89593 0.0
Cd368 Cd 0.16341 0.79414 0.82887 0.0
C369 C 0.205 0.7881 0.86962 0.0
O370 O 0.15861 0.77713 0.74676 0.0
O371 O 0.17255 0.80142 0.73221 0.0
O372 O 0.13332 0.80468 0.84295 0.0
C373 C 0.16476 0.78804 0.71206 0.0
O374 O 0.20389 0.77374 0.8424 0.0
C375 C 0.13766 0.82072 0.84964 0.0
O376 O 0.19215 0.79886 0.87128 0.0
O377 O 0.15404 0.82424 0.8488 0.0
C378 C 0.98973 0.40779 0.6802 0.0
O379 O -0.00198 0.41709 0.64484 0.0
Cd380 Cd 0.98619 0.42706 0.55765 0.0
O381 O 0.97403 0.4026 0.67008 0.0
Cd382 Cd 0.95215 0.40682 0.59397 0.0
C383 C 0.95398 0.45086 0.61918 0.0
O384 O 0.97189 0.40217 0.51626 0.0
O385 O 0.94678 0.41381 0.49509 0.0
O386 O 0.93977 0.37725 0.60582 0.0
C387 C 0.961 0.40672 0.47871 0.0
O388 O 0.96718 0.45151 0.58661 0.0
C389 C 0.92391 0.38257 0.60949 0.0
O390 O 0.94689 0.43619 0.63174 0.0
O391 O 0.92139 0.39914 0.60828 0.0
C392 C 0.33026 0.75252 0.04194 0.0
O393 O 0.32514 0.742 0.07985 0.0
Cd394 Cd 0.31167 0.75256 0.16305 0.0
O395 O 0.33046 0.76913 0.05038 0.0
Cd396 Cd 0.32421 0.79107 0.12471 0.0
C397 C 0.28247 0.78019 0.09238 0.0
O398 O 0.33088 0.77336 0.20588 0.0
O399 O 0.31422 0.796 0.22045 0.0
O400 O 0.35335 0.80353 0.11485 0.0
C401 C 0.32315 0.78329 0.24053 0.0
O402 O 0.28568 0.7663 0.12079 0.0
C403 C 0.34835 0.81944 0.10968 0.0
O404 O 0.29437 0.79186 0.0853 0.0
O405 O 0.33179 0.82224 0.10864 0.0
C406 C 0.99416 0.56953 0.79381 0.0
O407 O 0.00085 0.55954 0.83091 0.0
Cd408 Cd 0.98516 0.5497 0.91118 0.0
O409 O 0.97832 0.57507 0.79818 0.0
Cd410 Cd 0.95349 0.57144 0.86417 0.0
C411 C 0.95382 0.52751 0.83837 0.0
O412 O 0.97143 0.57596 0.94546 0.0
O413 O 0.94547 0.56577 0.96254 0.0
O414 O 0.94344 0.60165 0.84715 0.0
C415 C 0.95955 0.57278 0.98083 0.0
O416 O 0.96613 0.52625 0.87442 0.0
C417 C 0.92732 0.59744 0.84091 0.0
O418 O 0.94768 0.54249 0.8243 0.0
O419 O 0.92365 0.5811 0.84245 0.0
C420 C 0.1553 0.23818 0.53685 0.0
O421 O 0.16083 0.24893 0.57347 0.0
Cd422 Cd 0.17462 0.23847 0.65537 0.0
O423 O 0.1545 0.22165 0.54732 0.0
Cd424 Cd 0.15945 0.20035 0.62614 0.0
C425 C 0.20115 0.20762 0.58805 0.0
O426 O 0.15234 0.22095 0.69792 0.0
O427 O 0.16685 0.19832 0.727 0.0
O428 O 0.13032 0.18748 0.61174 0.0
C429 C 0.15825 0.21219 0.73875 0.0
O430 O 0.19876 0.22285 0.60897 0.0
C431 C 0.13558 0.17157 0.61328 0.0
O432 O 0.18911 0.19596 0.58973 0.0
O433 O 0.15208 0.16906 0.61879 0.0
C434 C 0.4957 0.41708 0.29744 0.0
O435 O 0.48991 0.42809 0.33274 0.0
Cd436 Cd 0.5076 0.43838 0.4084 0.0
O437 O 0.51124 0.41072 0.30224 0.0
Cd438 Cd 0.537 0.4134 0.36523 0.0
C439 C 0.53918 0.45613 0.32527 0.0
O440 O 0.51943 0.41165 0.44748 0.0
O441 O 0.54623 0.42 0.46225 0.0
O442 O 0.54389 0.38236 0.34815 0.0
C443 C 0.5318 0.41429 0.48192 0.0
O444 O 0.52741 0.45932 0.36157 0.0
C445 C 0.56042 0.3849 0.34423 0.0
O446 O 0.54433 0.44044 0.31637 0.0
O447 O 0.56577 0.40073 0.34757 0.0
H448 H 0.2841 0.29717 0.96767 0.0
H449 H 0.2493 0.29372 0.82553 0.0
H450 H 0.22365 0.29727 0.88633 0.0
H451 H 0.21125 0.2965 0.98058 0.0
H452 H 0.24611 0.29497 0.12305 0.0
H453 H 0.27167 0.29847 0.06187 0.0
C454 C 0.27091 0.29777 0.94995 0.0
C455 C 0.26851 0.29539 0.89229 0.0
C456 C 0.25627 0.29866 -0.0145 0.0
C457 C 0.25138 0.29566 0.86979 0.0
C458 C 0.23676 0.29757 0.90458 0.0
C459 C 0.22442 0.29745 -0.00173 0.0
C460 C 0.22686 0.29561 0.05616 0.0
C461 C 0.23904 0.29839 0.96264 0.0
C462 C 0.24398 0.29642 0.07859 0.0
C463 C 0.25856 0.29833 0.04361 0.0
H464 H 0.93039 0.95639 0.29338 0.0
H465 H 0.97979 0.97188 0.36974 0.0
H466 H 0.98119 -0.00238 0.30945 0.0
H467 H 0.96997 0.01434 0.2298 0.0
H468 H 0.92007 0.00057 0.15513 0.0
H469 H 0.91728 0.97545 0.2198 0.0
C470 C 0.94129 0.96556 0.29754 0.0
C471 C 0.95509 0.96198 0.33564 0.0
C472 C 0.94209 0.98045 0.26238 0.0
C473 C 0.96905 0.97413 0.34061 0.0
C474 C 0.96994 0.98885 0.30589 0.0
C475 C 0.95848 0.00581 0.22779 0.0
C476 C 0.94543 0.0089 0.18725 0.0
C477 C 0.95683 0.99183 0.26564 0.0
C478 C 0.93035 -0.00181 0.18577 0.0
C479 C 0.92878 0.98391 0.22272 0.0
H480 H 0.20704 0.69418 0.46267 0.0
H481 H 0.24178 0.69927 0.32189 0.0
H482 H 0.26745 0.6948 0.38287 0.0
H483 H 0.27994 0.69428 0.47762 0.0
H484 H 0.24514 0.69428 0.61911 0.0
H485 H 0.21952 0.69164 0.55697 0.0
C486 C 0.22021 0.69374 0.44521 0.0
C487 C 0.22258 0.69685 0.38791 0.0
C488 C 0.23487 0.69229 0.481 0.0
C489 C 0.2397 0.69678 0.36585 0.0
C490 C 0.25434 0.69433 0.40076 0.0
C491 C 0.26676 0.69314 0.49475 0.0
C492 C 0.26435 0.69426 0.55271 0.0
C493 C 0.25211 0.69276 0.45864 0.0
C494 C 0.24723 0.6933 0.57459 0.0
C495 C 0.23262 0.6919 0.53906 0.0
H496 H 0.54272 0.01215 0.85597 0.0
H497 H 0.54425 0.05071 0.72355 0.0
H498 H 0.54757 0.02733 0.65477 0.0
H499 H 0.54589 -0.00427 0.63145 0.0
H500 H 0.5466 0.95716 0.7638 0.0
H501 H 0.54686 0.98065 0.83335 0.0
C502 C 0.5442 0.01539 0.81218 0.0
C503 C 0.54303 0.03305 0.79476 0.0
C504 C 0.54637 0.00188 0.77277 0.0
C505 C 0.54514 0.03718 0.73799 0.0
C506 C 0.54691 0.02382 0.69853 0.0
C507 C 0.54655 0.99254 0.67552 0.0
C508 C 0.54605 0.97484 0.69262 0.0
C509 C 0.54694 0.0061 0.71528 0.0
C510 C 0.54705 0.97075 0.74973 0.0
C511 C 0.54705 0.98416 0.78954 0.0
H512 H 0.71813 0.69558 0.98032 0.0
H513 H 0.75389 0.6953 0.12057 0.0
H514 H 0.77896 0.69131 0.05771 0.0
H515 H 0.79082 0.69285 0.96298 0.0
H516 H 0.75529 0.69804 0.82295 0.0
H517 H 0.72994 0.69492 0.8852 0.0
C518 C 0.73138 0.69407 -0.00289 0.0
C519 C 0.73423 0.69554 0.05488 0.0
C520 C 0.74574 0.69292 0.96052 0.0
C521 C 0.75145 0.69407 0.07622 0.0
C522 C 0.76575 0.69191 0.04027 0.0
C523 C 0.77753 0.69277 0.94593 0.0
C524 C 0.77488 0.69557 0.88849 0.0
C525 C 0.76309 0.69203 0.9823 0.0
C526 C 0.75761 0.69587 0.86703 0.0
C527 C 0.74315 0.69417 0.90264 0.0
H528 H 0.03972 0.95731 0.74858 0.0
H529 H 0.0353 0.99082 0.89278 0.0
H530 H 0.0392 0.01698 0.83397 0.0
H531 H 0.03937 0.03026 0.74048 0.0
H532 H 0.03902 -0.00328 0.59572 0.0
H533 H 0.0418 0.97058 0.65546 0.0
C534 C 0.0401 0.97033 0.76726 0.0
C535 C 0.03734 0.97219 0.82488 0.0
C536 C 0.04134 0.98528 0.73282 0.0
C537 C 0.03744 0.98912 0.8485 0.0
C538 C 0.0396 0.00405 0.81487 0.0
C539 C 0.04045 0.01724 0.72209 0.0
C540 C 0.0392 0.01533 0.66392 0.0
C541 C 0.04094 0.0023 0.75679 0.0
C542 C 0.0401 -0.00157 0.64043 0.0
C543 C 0.04157 0.98352 0.67458 0.0
H544 H 0.70895 0.29712 0.46424 0.0
H545 H 0.74366 0.2895 0.32451 0.0
H546 H 0.76939 0.29223 0.38617 0.0
H547 H 0.78159 0.29207 0.48112 0.0
H548 H 0.74651 0.29465 0.62176 0.0
H549 H 0.72129 0.29889 0.55879 0.0
C550 C 0.72217 0.29658 0.44713 0.0
C551 C 0.72449 0.29327 0.38996 0.0
C552 C 0.73678 0.29707 0.4833 0.0
C553 C 0.74163 0.29213 0.36837 0.0
C554 C 0.75629 0.2936 0.40366 0.0
C555 C 0.76848 0.29411 0.49793 0.0
C556 C 0.76585 0.29324 0.55587 0.0
C557 C 0.754 0.29541 0.46142 0.0
C558 C 0.74879 0.29539 0.57727 0.0
C559 C 0.7344 0.29771 0.54127 0.0
H560 H 0.44034 0.96234 0.20634 0.0
H561 H 0.48016 0.98524 0.10009 0.0
H562 H 0.48005 0.01201 0.15573 0.0
H563 H 0.47105 0.02774 0.23969 0.0
H564 H 0.43092 0.00598 0.34594 0.0
H565 H 0.42873 0.97985 0.28539 0.0
C566 C 0.4487 0.97333 0.19463 0.0
C567 C 0.46041 0.97164 0.14939 0.0
C568 C 0.44875 0.98873 0.22741 0.0
C569 C 0.47114 0.98606 0.13491 0.0
C570 C 0.47117 0.00138 0.16687 0.0
C571 C 0.46175 0.01728 0.24924 0.0
C572 C 0.45137 0.01846 0.29729 0.0
C573 C 0.46047 0.00261 0.21411 0.0
C574 C 0.43912 0.00514 0.30918 0.0
C575 C 0.43789 0.99027 0.2746 0.0
H576 H 0.70629 0.79511 0.51266 0.0
H577 H 0.72462 0.74821 0.59815 0.0
H578 H 0.74964 0.74628 0.5356 0.0
H579 H 0.76513 0.75634 0.45244 0.0
H580 H 0.74843 0.80371 0.36795 0.0
H581 H 0.72387 0.80704 0.43405 0.0
C582 C 0.71591 0.78465 0.51821 0.0
C583 C 0.71338 0.77171 0.55983 0.0
C584 C 0.73039 0.78353 0.48172 0.0
C585 C 0.72608 0.75829 0.56643 0.0
C586 C 0.74039 0.7571 0.53045 0.0
C587 C 0.75608 0.7674 0.4487 0.0
C588 C 0.75821 0.77958 0.40519 0.0
C589 C 0.74241 0.76935 0.48721 0.0
C590 C 0.7468 0.7941 0.40103 0.0
C591 C 0.73284 0.79598 0.43879 0.0
H592 H 0.44311 0.46655 0.78364 0.0
H593 H 0.49578 0.47642 0.84635 0.0
H594 H 0.49789 0.50267 0.78864 0.0
H595 H 0.48572 0.52197 0.71672 0.0
H596 H 0.43256 0.51414 0.65734 0.0
H597 H 0.42973 0.48784 0.71697 0.0
C598 C 0.45495 0.47458 0.78526 0.0
C599 C 0.46932 0.46933 0.81902 0.0
C600 C 0.45612 0.48985 0.75185 0.0
C601 C 0.48451 0.48001 0.82077 0.0
C602 C 0.48581 0.49501 0.78746 0.0
C603 C 0.47355 0.51441 0.71658 0.0
C604 C 0.45951 0.51962 0.6819 0.0
C605 C 0.47188 0.49982 0.75205 0.0
C606 C 0.44361 0.51015 0.68329 0.0
C607 C 0.442 0.49519 0.71745 0.0
H608 H 0.72375 0.23443 0.95128 0.0
H609 H 0.73201 0.18104 0.8962 0.0
H610 H 0.75679 0.17783 0.96218 0.0
H611 H 0.77683 0.19102 0.03266 0.0
H612 H 0.76652 0.24395 0.09089 0.0
H613 H 0.74155 0.24637 0.02746 0.0
C614 C 0.73106 0.22212 0.95368 0.0
C615 C 0.72648 0.20812 0.91834 0.0
C616 C 0.74476 0.22025 -0.00736 0.0
C617 C 0.73557 0.19204 0.92271 0.0
C618 C 0.74965 0.19022 0.96044 0.0
C619 C 0.76897 0.20298 0.03204 0.0
C620 C 0.77373 0.21733 0.06626 0.0
C621 C 0.75446 0.20432 -0.00464 0.0
C622 C 0.76327 0.23268 0.06513 0.0
C623 C 0.74901 0.23416 0.02852 0.0
H624 H 0.01122 0.4675 0.21546 0.0
H625 H 0.06269 0.47885 0.14903 0.0
H626 H 0.06514 0.50474 0.21035 0.0
H627 H 0.0516 0.52493 0.27948 0.0
H628 H 0.00071 0.5116 0.34857 0.0
H629 H -0.00072 0.4855 0.29045 0.0
C630 C 0.02296 0.4757 0.21435 0.0
C631 C 0.03658 0.47165 0.1771 0.0
C632 C 0.02443 0.49009 0.25055 0.0
C633 C 0.05196 0.48195 0.17705 0.0
C634 C 0.05335 0.49668 0.21212 0.0
C635 C 0.04034 0.51617 0.28247 0.0
C636 C 0.02619 0.52045 0.31801 0.0
C637 C 0.03955 0.50099 0.24872 0.0
C638 C 0.01176 0.50882 0.3215 0.0
C639 C 0.01085 0.49387 0.28799 0.0
H640 H 0.26836 0.18855 0.44496 0.0
H641 H 0.25169 0.23638 0.36124 0.0
H642 H 0.22675 0.23896 0.42369 0.0
H643 H 0.21054 0.22887 0.50512 0.0
H644 H 0.22498 0.1802 0.58636 0.0
H645 H 0.25004 0.17675 0.52223 0.0
C646 C 0.25913 0.19939 0.43989 0.0
C647 C 0.26211 0.21235 0.39868 0.0
C648 C 0.24461 0.20082 0.47609 0.0
C649 C 0.24989 0.22624 0.39259 0.0
C650 C 0.23562 0.22782 0.42854 0.0
C651 C 0.21927 0.21756 0.50892 0.0
C652 C 0.21634 0.20504 0.55098 0.0
C653 C 0.23309 0.21543 0.47108 0.0
C654 C 0.22727 0.19012 0.55463 0.0
C655 C 0.2415 0.18815 0.51791 0.0
H656 H 0.54593 0.49058 0.34828 0.0
H657 H 0.54305 0.45309 0.21376 0.0
H658 H 0.54488 0.47699 0.14556 0.0
H659 H 0.54343 0.50888 0.12467 0.0
H660 H 0.54873 0.54621 0.25898 0.0
H661 H 0.55011 0.52213 0.32664 0.0
C662 C 0.54613 0.48768 0.30403 0.0
C663 C 0.54419 0.4702 0.28594 0.0
C664 C 0.54747 0.50147 0.26502 0.0
C665 C 0.5446 0.46649 0.22859 0.0
C666 C 0.54551 0.48015 0.18955 0.0
C667 C 0.54529 0.51166 0.16863 0.0
C668 C 0.5458 0.52922 0.18696 0.0
C669 C 0.54637 0.49773 0.2073 0.0
C670 C 0.54837 0.53275 0.24392 0.0
C671 C 0.54902 0.519 0.2827 0.0
H672 H 0.27154 0.80575 0.0185 0.0
H673 H 0.25552 0.75651 0.0943 0.0
H674 H 0.23044 0.75476 0.0313 0.0
H675 H 0.21416 0.76587 0.95052 0.0
H676 H 0.22825 0.81575 0.87694 0.0
H677 H 0.2531 0.81857 0.94286 0.0
C678 C 0.26241 0.79479 0.02183 0.0
C679 C 0.26563 0.78117 0.06075 0.0
C680 C 0.24787 0.79381 -0.01478 0.0
C681 C 0.25354 0.76713 0.06463 0.0
C682 C 0.23919 0.76603 0.02836 0.0
C683 C 0.22275 0.77732 0.94896 0.0
C684 C 0.21983 0.79038 0.90852 0.0
C685 C 0.2365 0.77903 -0.01231 0.0
C686 C 0.23056 0.80544 0.90751 0.0
C687 C 0.24467 0.80705 0.9452 0.0
H688 H 0.94692 0.45284 0.72868 0.0
H689 H 0.95131 0.48459 0.58011 0.0
H690 H 0.94843 0.51151 0.63575 0.0
H691 H 0.94866 0.52583 0.72747 0.0
H692 H 0.949 0.49394 0.8765 0.0
H693 H 0.94581 0.46718 0.82023 0.0
C694 C 0.94677 0.46566 0.70845 0.0
C695 C 0.94912 0.46683 0.65047 0.0
C696 C 0.94614 0.481 0.74102 0.0
C697 C 0.9494 0.48346 0.6247 0.0
C698 C 0.94784 0.4988 0.65652 0.0
C699 C 0.94758 0.51303 0.74756 0.0
C700 C 0.94889 0.51177 0.80592 0.0
C701 C 0.94677 0.49773 0.71484 0.0
C702 C 0.94794 0.49515 0.8316 0.0
C703 C 0.94619 0.47989 0.79945 0.0
H704 H 0.15272 0.25647 0.95882 0.0
H705 H 0.18572 0.21416 0.02054 0.0
H706 H 0.18314 0.199 0.9313 0.0
H707 H 0.17347 0.19896 0.83322 0.0
H708 H 0.14101 0.24174 0.77189 0.0
H709 H 0.1414 0.25542 0.86354 0.0
C710 C 0.1592 0.24384 0.95308 0.0
C711 C 0.16953 0.23658 -0.00384 0.0
C712 C 0.15789 0.23532 0.90149 0.0
C713 C 0.17775 0.22013 -0.01202 0.0
C714 C 0.17633 0.21146 0.93688 0.0
C715 C 0.16637 0.21119 0.84011 0.0
C716 C 0.15742 0.21942 0.79569 0.0
C717 C 0.16676 0.21912 0.89293 0.0
C718 C 0.14816 0.23521 0.80528 0.0
C719 C 0.14836 0.24306 0.85769 0.0
H720 H 0.99391 0.89561 0.04372 0.0
H721 H 0.04399 0.91829 0.09145 0.0
H722 H 0.03685 0.91379 0.18983 0.0
H723 H 0.01538 0.90572 0.2616 0.0
H724 H 0.96486 0.88408 0.21319 0.0
H725 H 0.9734 0.88553 0.11535 0.0
C726 C 0.00331 0.89952 0.07561 0.0
C727 C 0.01934 0.90751 0.06044 0.0
C728 C -0.00092 0.897 0.1318 0.0
C729 C 0.03149 0.91226 0.10215 0.0
C730 C 0.02742 0.90967 0.15833 0.0
C731 C 0.00634 0.901 0.2298 0.0
C732 C 0.98944 0.89492 0.24471 0.0
C733 C 0.01113 0.90233 0.17358 0.0
C734 C 0.9779 0.88889 0.20287 0.0
C735 C 0.98273 0.88981 0.14689 0.0
H736 H 0.30819 0.76898 0.49451 0.0
H737 H 0.34465 0.72629 0.46353 0.0
H738 H 0.34922 0.73706 0.36887 0.0
H739 H 0.34107 0.75707 0.29279 0.0
H740 H 0.30413 0.79936 0.3226 0.0
H741 H 0.30161 0.79028 0.42004 0.0
C742 C 0.31733 0.76216 0.46737 0.0
C743 C 0.32594 0.74676 0.48602 0.0
C744 C 0.31968 0.76824 0.41262 0.0
C745 C 0.33775 0.73811 0.45021 0.0
C746 C 0.34035 0.74423 0.39598 0.0
C747 C 0.33255 0.76438 0.32067 0.0
C748 C 0.32265 0.77874 0.30037 0.0
C749 C 0.33107 0.75902 0.37638 0.0
C750 C 0.31181 0.78818 0.33713 0.0
C751 C 0.31035 0.78299 0.39283 0.0
H752 H 0.50423 0.09654 0.6982 0.0
H753 H 0.45882 0.07348 0.77831 0.0
H754 H 0.44399 0.07066 0.68825 0.0
H755 H 0.44509 0.07219 0.5857 0.0
H756 H 0.49106 0.09454 0.50665 0.0
H757 H 0.50445 0.10007 0.59721 0.0
C758 C 0.49095 0.09122 0.69619 0.0
C759 C 0.48273 0.08512 0.74485 0.0
C760 C 0.48269 0.08919 0.64424 0.0
C761 C 0.46551 0.0782 0.74138 0.0
C762 C 0.45705 0.07648 0.68986 0.0
C763 C 0.458 0.07832 0.58842 0.0
C764 C 0.46713 0.08273 0.53955 0.0
C765 C 0.46572 0.08145 0.64083 0.0
C766 C 0.48378 0.09085 0.54364 0.0
C767 C 0.49147 0.09408 0.59544 0.0
H768 H 0.14747 0.76148 0.66135 0.0
H769 H 0.18296 0.8048 0.62886 0.0
H770 H 0.18566 0.79537 0.53175 0.0
H771 H 0.17972 0.77346 0.45881 0.0
H772 H 0.1447 0.7298 0.49315 0.0
H773 H 0.13995 0.74088 0.58713 0.0
C774 C 0.15573 0.76895 0.63297 0.0
C775 C 0.16519 0.78367 0.6523 0.0
C776 C 0.15735 0.76336 0.57775 0.0
C777 C 0.17562 0.79335 0.61494 0.0
C778 C 0.1772 0.78794 0.55954 0.0
C779 C 0.17091 0.76644 0.48661 0.0
C780 C 0.16273 0.75071 0.46911 0.0
C781 C 0.1684 0.77275 0.54086 0.0
C782 C 0.15127 0.74187 0.50561 0.0
C783 C 0.14856 0.74817 0.55941 0.0
H784 H 0.45324 0.91764 0.89263 0.0
H785 H 0.49906 0.8907 0.95857 0.0
H786 H 0.51224 0.89013 0.86622 0.0
H787 H 0.51216 0.90001 0.76926 0.0
H788 H 0.46679 0.92775 0.70334 0.0
H789 H 0.45194 0.92497 0.79285 0.0
C790 C 0.46601 0.91148 0.88661 0.0
C791 C 0.47527 0.90449 0.93247 0.0
C792 C 0.47364 0.91137 0.83344 0.0
C793 C 0.49174 0.89638 0.92402 0.0
C794 C 0.49931 0.89604 0.87121 0.0
C795 C 0.49891 0.90519 0.77409 0.0
C796 C 0.49073 0.91429 0.72987 0.0
C797 C 0.49058 0.9039 0.82595 0.0
C798 C 0.47349 0.92082 0.73685 0.0
C799 C 0.46499 0.91931 0.78811 0.0
H800 H 0.30981 0.21986 0.9621 0.0
H801 H 0.34689 0.26187 -0.00449 0.0
H802 H 0.35044 0.2514 0.091 0.0
H803 H 0.34099 0.2322 0.16685 0.0
H804 H 0.30329 0.19069 0.13533 0.0
H805 H 0.30214 0.19902 0.03672 0.0
C806 C 0.31885 0.2266 -0.01 0.0
C807 C 0.3279 0.24177 0.97184 0.0
C808 C 0.32061 0.2207 0.04518 0.0
C809 C 0.33964 0.25027 0.0085 0.0
C810 C 0.34166 0.24432 0.06317 0.0
C811 C 0.3326 0.22487 0.13835 0.0
C812 C 0.32204 0.21103 0.15835 0.0
C813 C 0.33186 0.22986 0.08225 0.0
C814 C 0.31146 0.20148 0.12089 0.0
C815 C 0.31077 0.20627 0.06462 0.0
H816 H 0.99264 0.08477 0.43742 0.0
H817 H 0.04348 0.06291 0.39535 0.0
H818 H 0.03499 0.06219 0.297 0.0
H819 H 0.01237 0.06558 0.22454 0.0
H820 H 0.96115 0.0865 0.26719 0.0
H821 H 0.97071 0.09008 0.3638 0.0
C822 C 0.00191 0.07993 0.40671 0.0
C823 C 0.01859 0.0737 0.42372 0.0
C824 C -0.0031 0.07943 0.35041 0.0
C825 C 0.03051 0.06765 0.38338 0.0
C826 C 0.02567 0.06725 0.32715 0.0
C827 C 0.00336 0.0712 0.25467 0.0
C828 C 0.98601 0.07565 0.23863 0.0
C829 C 0.00879 0.07282 0.31037 0.0
C830 C 0.97454 0.0829 0.27838 0.0
C831 C 0.97997 0.08487 0.33372 0.0
H832 H 0.84037 0.73181 -0.00459 0.0
H833 H 0.81596 0.77781 0.92149 0.0
H834 H 0.81237 0.79087 0.0137 0.0
H835 H 0.81318 0.78763 0.11617 0.0
H836 H 0.83641 0.74067 0.18804 0.0
H837 H 0.84334 0.72963 0.09586 0.0
C838 C 0.83456 0.74484 -0.00079 0.0
C839 C 0.82826 0.7537 0.95172 0.0
C840 C 0.83202 0.752 0.0522 0.0
C841 C 0.82082 0.77062 0.95751 0.0
C842 C 0.81865 0.77807 0.01025 0.0
C843 C 0.81986 0.77506 0.11149 0.0
C844 C 0.824 0.76488 0.15874 0.0
C845 C 0.82367 0.76861 0.05804 0.0
C846 C 0.83281 0.74867 0.15225 0.0
C847 C 0.83687 0.74234 0.09955 0.0
H848 H 0.97641 0.08127 0.93626 0.0
H849 H 0.93553 0.0437 0.89602 0.0
H850 H 0.94424 0.0445 0.79795 0.0
H851 H 0.96469 0.05447 0.72525 0.0
H852 H 0.00581 0.09174 0.76668 0.0
H853 H -0.00447 0.09266 0.86275 0.0
C854 C 0.96936 0.07327 0.90604 0.0
C855 C 0.95549 0.06227 0.92343 0.0
C856 C 0.97443 0.07381 0.85 0.0
C857 C 0.94634 0.05218 0.88369 0.0
C858 C 0.9513 0.05265 0.82765 0.0
C859 C 0.97125 0.06301 0.75502 0.0
C860 C 0.98609 0.07293 0.73876 0.0
C861 C 0.96548 0.06325 0.81051 0.0
C862 C 0.99442 0.0839 0.77803 0.0
C863 C 0.9886 0.08439 0.83308 0.0
H864 H 0.68031 0.22147 0.45974 0.0
H865 H 0.64453 0.26442 0.49497 0.0
H866 H 0.64201 0.25438 0.59117 0.0
H867 H 0.65213 0.23532 0.66677 0.0
H868 H 0.68856 0.19287 0.63342 0.0
H869 H 0.68858 0.20079 0.53436 0.0
C870 C 0.67175 0.2285 0.48818 0.0
C871 C 0.66279 0.24381 0.47034 0.0
C872 C 0.67063 0.22287 0.54372 0.0
C873 C 0.65169 0.2527 0.50771 0.0
C874 C 0.65028 0.247 0.56277 0.0
C875 C 0.66001 0.22772 0.63781 0.0
C876 C 0.67055 0.21372 0.65731 0.0
C877 C 0.66007 0.23243 0.58148 0.0
C878 C 0.68045 0.20379 0.6193 0.0
C879 C 0.68048 0.20833 0.56279 0.0
H880 H 0.52665 0.92203 0.23222 0.0
H881 H 0.47949 0.89308 0.27511 0.0
H882 H 0.48836 0.89302 0.3729 0.0
H883 H 0.50804 0.90324 0.4465 0.0
H884 H 0.55483 0.93291 0.40542 0.0
H885 H 0.54754 0.9306 0.30606 0.0
C886 C 0.51845 0.91544 0.2628 0.0
C887 C 0.50236 0.90768 0.24645 0.0
C888 C 0.52343 0.9158 0.31915 0.0
C889 C 0.49187 0.89925 0.28663 0.0
C890 C 0.4969 0.89926 0.34256 0.0
C891 C 0.5167 0.90919 0.41587 0.0
C892 C 0.53181 0.91846 0.43317 0.0
C893 C 0.51239 0.90788 0.35934 0.0
C894 C 0.54304 0.92583 0.39302 0.0
C895 C 0.53888 0.9245 0.33632 0.0
H896 H 0.81705 0.19831 0.32554 0.0
H897 H 0.85788 0.23586 0.28489 0.0
H898 H 0.85702 0.24754 0.37929 0.0
H899 H 0.84248 0.24929 0.46942 0.0
H900 H 0.80091 0.21253 0.50993 0.0
H901 H 0.80443 0.19821 0.41971 0.0
C902 C 0.82594 0.20885 0.33768 0.0
C903 C 0.8373 0.21641 0.29823 0.0
C904 C 0.82515 0.21576 0.39176 0.0
C905 C 0.84884 0.22999 0.31445 0.0
C906 C 0.84836 0.2367 0.36836 0.0
C907 C 0.8343 0.23803 0.45883 0.0
C908 C 0.82127 0.23219 0.49591 0.0
C909 C 0.83619 0.23005 0.40674 0.0
C910 C 0.81096 0.21741 0.48188 0.0
C911 C 0.81292 0.20922 0.43025 0.0
H912 H 0.51616 0.07829 0.24279 0.0
H913 H 0.46414 0.09756 0.1997 0.0
H914 H 0.47368 0.10254 0.10392 0.0
H915 H 0.49586 0.09894 0.03122 0.0
H916 H 0.54751 0.07862 0.0732 0.0
H917 H 0.53899 0.07658 0.17123 0.0
C918 C 0.50693 0.0838 0.21273 0.0
C919 C 0.4894 0.08739 0.22831 0.0
C920 C 0.51238 0.08626 0.15757 0.0
C921 C 0.47768 0.09458 0.18878 0.0
C922 C 0.4831 0.09738 0.13397 0.0
C923 C 0.50531 0.09416 0.06183 0.0
C924 C 0.52221 0.08871 0.04498 0.0
C925 C 0.50027 0.09284 0.1177 0.0
C926 C 0.53438 0.08275 0.08516 0.0
C927 C 0.52951 0.08158 0.14112 0.0
H928 H 0.65484 0.73755 0.97205 0.0
H929 H 0.69639 0.77556 -8e-05 0.0
H930 H 0.69032 0.78898 0.90919 0.0
H931 H 0.67526 0.78788 0.8183 0.0
H932 H 0.63453 0.74903 0.79021 0.0
H933 H 0.63814 0.73809 0.88516 0.0
C934 C 0.66249 0.74887 0.95858 0.0
C935 C 0.67622 0.75536 -0.00775 0.0
C936 C 0.65914 0.75632 0.90626 0.0
C937 C 0.68582 0.77021 0.97454 0.0
C938 C 0.68239 0.77787 0.92263 0.0
C939 C 0.66701 0.7772 0.83328 0.0
C940 C 0.65484 0.7691 0.79721 0.0
C941 C 0.66939 0.77073 0.88758 0.0
C942 C 0.64415 0.75533 0.81711 0.0
C943 C 0.64621 0.74905 0.87132 0.0
H944 H 0.94235 0.91564 0.59514 0.0
H945 H 0.98448 0.88153 0.54032 0.0
H946 H -0.00209 0.88256 0.63269 0.0
H947 H -0.00096 0.89502 0.72637 0.0
H948 H 0.9573 0.92959 0.7814 0.0
H949 H 0.9423 0.92631 0.69184 0.0
C950 C 0.95436 0.90829 0.60362 0.0
C951 C 0.96251 0.89872 0.56078 0.0
C952 C 0.96215 0.90907 0.65677 0.0
C953 C 0.97802 0.88915 0.57245 0.0
C954 C 0.98573 0.88973 0.62526 0.0
C955 C 0.98657 0.90171 0.71909 0.0
C956 C 0.97944 0.91269 0.76035 0.0
C957 C 0.97812 0.89995 0.66734 0.0
C958 C 0.96317 0.92112 0.75027 0.0
C959 C 0.95459 0.9193 0.69898 0.0
H960 H 0.65041 0.75674 0.45116 0.0
H961 H 0.65318 0.70392 0.51853 0.0
H962 H 0.66003 0.69238 0.42601 0.0
H963 H 0.66828 0.69787 0.32785 0.0
H964 H 0.66698 0.75127 0.26439 0.0
H965 H 0.65688 0.76199 0.35396 0.0
C966 C 0.65217 0.74264 0.44567 0.0
C967 C 0.65145 0.73125 0.49183 0.0
C968 C 0.65683 0.73624 0.39325 0.0
C969 C 0.65371 0.71301 0.48367 0.0
C970 C 0.65781 0.70642 0.4309 0.0
C971 C 0.66581 0.71183 0.33382 0.0
C972 C 0.66857 0.72376 0.28976 0.0
C973 C 0.66001 0.71801 0.38578 0.0
C974 C 0.66511 0.74181 0.29775 0.0
C975 C 0.65924 0.74797 0.34889 0.0
H976 H 0.52639 0.41276 0.7435 0.0
H977 H 0.47693 0.3876 0.70194 0.0
H978 H 0.48479 0.38787 0.60351 0.0
H979 H 0.50414 0.39794 0.5292 0.0
H980 H 0.55316 0.4241 0.56912 0.0
H981 H 0.54702 0.42075 0.66876 0.0
C982 C 0.5175 0.40699 0.71305 0.0
C983 C 0.50104 0.40028 0.72989 0.0
C984 C 0.52187 0.40766 0.65636 0.0
C985 C 0.48962 0.39294 0.68994 0.0
C986 C 0.49406 0.39316 0.63367 0.0
C987 C 0.51354 0.40287 0.55965 0.0
C988 C 0.52894 0.41152 0.54199 0.0
C989 C 0.50988 0.40099 0.61638 0.0
C990 C 0.54113 0.41755 0.58184 0.0
C991 C 0.53763 0.41562 0.6387 0.0
H992 H 0.82821 0.29023 0.83181 0.0
H993 H 0.83594 0.23799 0.76443 0.0
H994 H 0.84273 0.22662 0.85669 0.0
H995 H 0.84398 0.23074 0.95669 0.0
H996 H 0.83512 0.28241 0.02673 0.0
H997 H 0.83186 0.29482 0.93316 0.0
C998 C 0.83144 0.27639 0.83746 0.0
C999 C 0.8313 0.26494 0.79152 0.0
C1000 C 0.83528 0.26982 0.89097 0.0
C1001 C 0.83573 0.24707 0.7992 0.0
C1002 C 0.8397 0.24052 0.85194 0.0
C1003 C 0.84163 0.24478 0.95166 0.0
C1004 C 0.83955 0.25555 -0.00136 0.0
C1005 C 0.83919 0.2517 0.89815 0.0
C1006 C 0.83669 0.27376 -0.00879 0.0
C1007 C 0.83466 0.28086 0.93773 0.0
H1008 H 0.9664 0.57562 0.24195 0.0
H1009 H 0.01555 0.60081 0.19793 0.0
H1010 H 0.00715 0.6001 0.09966 0.0
H1011 H 0.9874 0.58964 0.0263 0.0
H1012 H 0.93881 0.56329 0.06921 0.0
H1013 H 0.94549 0.56715 0.16837 0.0
C1014 C 0.97513 0.58129 0.21101 0.0
C1015 C 0.99164 0.58814 0.22717 0.0
C1016 C 0.97046 0.58036 0.1545 0.0
C1017 C 0.00282 0.59536 0.18652 0.0
C1018 C -0.00193 0.59489 0.13034 0.0
C1019 C 0.97821 0.58479 0.0573 0.0
C1020 C 0.96277 0.57595 0.04059 0.0
C1021 C 0.9822 0.58692 0.11385 0.0
C1022 C 0.95087 0.56999 0.08115 0.0
C1023 C 0.95467 0.57222 0.13776 0.0
H1024 H 0.66779 0.29348 0.1166 0.0
H1025 H 0.65113 0.24381 0.18763 0.0
H1026 H 0.64867 0.23105 0.09509 0.0
H1027 H 0.65393 0.23302 -0.00471 0.0
H1028 H 0.6713 0.28226 0.92318 0.0
H1029 H 0.67035 0.29623 0.01461 0.0
C1030 C 0.66351 0.27992 0.11169 0.0
C1031 C 0.65995 0.26954 0.1589 0.0
C1032 C 0.66219 0.27256 0.05819 0.0
C1033 C 0.65418 0.25205 0.15198 0.0
C1034 C 0.65272 0.24471 0.09905 0.0
C1035 C 0.65723 0.24689 -0.00072 0.0
C1036 C 0.66293 0.25648 0.9526 0.0
C1037 C 0.65707 0.25472 0.05202 0.0
C1038 C 0.66699 0.2745 0.95854 0.0
C1039 C 0.66656 0.28249 0.01089 0.0
H1040 H 0.99151 0.39445 0.43449 0.0
H1041 H 0.94093 0.4167 0.3892 0.0
H1042 H 0.94949 0.4169 0.29117 0.0
H1043 H 0.97211 0.41304 0.21991 0.0
H1044 H 0.0232 0.39205 0.26562 0.0
H1045 H 0.01349 0.38876 0.36201 0.0
C1046 C 0.9823 0.39924 0.40315 0.0
C1047 C 0.96569 0.40575 0.41914 0.0
C1048 C 0.98738 0.3995 0.34703 0.0
C1049 C 0.95386 0.41177 0.37801 0.0
C1050 C 0.95873 0.41186 0.32197 0.0
C1051 C 0.98106 0.40746 0.25066 0.0
C1052 C -0.00159 0.40291 0.23556 0.0
C1053 C 0.97557 0.40607 0.30619 0.0
C1054 C 0.00981 0.39573 0.27611 0.0
C1055 C 0.00429 0.39392 0.3313 0.0
H1056 H 0.82163 0.69453 0.62082 0.0
H1057 H 0.85016 0.74129 0.67017 0.0
H1058 H 0.84847 0.75268 0.57539 0.0
H1059 H 0.83618 0.75091 0.4817 0.0
H1060 H 0.80679 0.70473 0.43188 0.0
H1061 H 0.81178 0.69146 0.5234 0.0
C1062 C 0.82768 0.70707 0.61055 0.0
C1063 C 0.83572 0.71719 0.65247 0.0
C1064 C 0.82642 0.71372 0.55605 0.0
C1065 C 0.84365 0.73337 0.63866 0.0
C1066 C 0.8427 0.73992 0.58451 0.0
C1067 C 0.83102 0.73786 0.49057 0.0
C1068 C 0.82089 0.72897 0.45042 0.0
C1069 C 0.83366 0.73045 0.54336 0.0
C1070 C 0.81453 0.71194 0.46228 0.0
C1071 C 0.81731 0.70435 0.51467 0.0
H1072 H 0.50376 0.59758 0.94943 0.0
H1073 H 0.55375 0.57374 0.90783 0.0
H1074 H 0.54523 0.57317 0.80946 0.0
H1075 H 0.52284 0.57752 0.73678 0.0
H1076 H 0.47236 0.60023 0.7791 0.0
H1077 H 0.48198 0.60344 0.87584 0.0
C1078 C 0.51284 0.59234 0.91883 0.0
C1079 C 0.52929 0.58554 0.93595 0.0
C1080 C 0.5078 0.59189 0.86257 0.0
C1081 C 0.54096 0.57892 0.89576 0.0
C1082 C 0.5361 0.57861 0.83953 0.0
C1083 C 0.51401 0.58344 0.76688 0.0
C1084 C 0.49686 0.58856 0.75071 0.0
C1085 C 0.51945 0.58482 0.82264 0.0
C1086 C 0.4856 0.59613 0.79044 0.0
C1087 C 0.49107 0.5979 0.84581 0.0
H1088 H 0.33619 0.23099 0.4965 0.0
H1089 H 0.32123 0.28098 0.42345 0.0
H1090 H 0.32188 0.29473 0.5154 0.0
H1091 H 0.32389 0.29178 0.61773 0.0
H1092 H 0.33811 0.24133 0.68918 0.0
H1093 H 0.34044 0.22858 0.5967 0.0
C1094 C 0.33331 0.24496 0.50042 0.0
C1095 C 0.32847 0.25487 0.45323 0.0
C1096 C 0.3333 0.25267 0.55334 0.0
C1097 C 0.32493 0.273 0.45915 0.0
C1098 C 0.32518 0.28086 0.51178 0.0
C1099 C 0.32759 0.27803 0.61292 0.0
C1100 C 0.33057 0.26747 0.66027 0.0
C1101 C 0.32885 0.27069 0.55937 0.0
C1102 C 0.33555 0.24972 0.65347 0.0
C1103 C 0.33693 0.2424 0.60055 0.0
H1104 H 0.48818 0.59711 0.44942 0.0
H1105 H 0.44512 0.56261 0.40438 0.0
H1106 H 0.45361 0.5645 0.30645 0.0
H1107 H 0.47458 0.57398 0.23528 0.0
H1108 H 0.51829 0.60767 0.28066 0.0
H1109 H 0.50793 0.60837 0.37685 0.0
C1110 C 0.48059 0.59007 0.41816 0.0
C1111 C 0.46618 0.57954 0.43421 0.0
C1112 C 0.48561 0.59113 0.36206 0.0
C1113 C 0.45636 0.57067 0.39316 0.0
C1114 C 0.4612 0.57177 0.33716 0.0
C1115 C 0.48172 0.58173 0.26589 0.0
C1116 C 0.4973 0.59063 0.25075 0.0
C1117 C 0.47597 0.5817 0.32133 0.0
C1118 C 0.50631 0.60064 0.29112 0.0
C1119 C 0.50046 0.60096 0.34623 0.0
H1120 H 0.16239 0.70399 0.11237 0.0
H1121 H 0.15524 0.7547 0.19086 0.0
H1122 H 0.15195 0.76873 0.10016 0.0
H1123 H 0.15327 0.7671 -0.00114 0.0
H1124 H 0.16101 0.7167 0.9191 0.0
H1125 H 0.16147 0.70207 0.00983 0.0
C1126 C 0.16006 0.71809 0.10951 0.0
C1127 C 0.15929 0.72829 0.15822 0.0
C1128 C 0.15817 0.72616 0.05701 0.0
C1129 C 0.15604 0.74653 0.15398 0.0
C1130 C 0.15411 0.7546 0.10211 0.0
C1131 C 0.15474 0.75287 0.00113 0.0
C1132 C 0.15726 0.74306 0.95225 0.0
C1133 C 0.15541 0.7446 0.05337 0.0
C1134 C 0.15914 0.72462 0.95611 0.0
C1135 C 0.15951 0.71623 0.00802 0.0
H1136 H 0.01981 0.42226 0.72206 0.0
H1137 H 0.9768 0.38747 0.76505 0.0
H1138 H 0.9871 0.38657 0.86154 0.0
H1139 H 0.00686 0.39746 0.9348 0.0
H1140 H 0.04941 0.43284 0.89258 0.0
H1141 H 0.04067 0.43173 0.79441 0.0
C1142 C 0.01282 0.41426 0.75226 0.0
C1143 C -0.00252 0.40503 0.7363 0.0
C1144 C 0.01858 0.4141 0.80791 0.0
C1145 C 0.9886 0.39475 0.77615 0.0
C1146 C 0.99443 0.39429 0.83142 0.0
C1147 C 0.01427 0.40489 0.90412 0.0
C1148 C 0.02864 0.41538 0.921 0.0
C1149 C 0.00914 0.40424 0.84796 0.0
C1150 C 0.03822 0.42477 0.88069 0.0
C1151 C 0.03324 0.42412 0.82458 0.0
H1152 H 0.32164 0.72016 0.00154 0.0
H1153 H 0.34494 0.7699 0.95371 0.0
H1154 H 0.34485 0.76072 0.85628 0.0
H1155 H 0.33583 0.73972 0.78419 0.0
H1156 H 0.31166 0.69037 0.83136 0.0
H1157 H 0.31435 0.69831 0.92976 0.0
C1158 C 0.32702 0.72888 0.97 0.0
C1159 C 0.33322 0.74574 -0.01505 0.0
C1160 C 0.32649 0.72371 0.91389 0.0
C1161 C 0.34004 0.75688 0.94339 0.0
C1162 C 0.3399 0.75168 0.88761 0.0
C1163 C 0.33119 0.73066 0.81597 0.0
C1164 C 0.32335 0.71457 0.80048 0.0
C1165 C 0.33272 0.73534 0.87229 0.0
C1166 C 0.3176 0.7029 0.84219 0.0
C1167 C 0.31917 0.70742 0.89843 0.0
H1168 H 0.984 0.5899 0.70616 0.0
H1169 H 0.02697 0.55736 0.76588 0.0
H1170 H 0.04164 0.56006 0.676 0.0
H1171 H 0.04086 0.56935 0.57769 0.0
H1172 H -0.00252 0.60138 0.51831 0.0
H1173 H 0.98447 0.60123 0.61089 0.0
C1174 C -0.00333 0.58356 0.69984 0.0
C1175 C 0.00423 0.57327 0.74249 0.0
C1176 C 0.00492 0.58494 0.64789 0.0
C1177 C 0.02076 0.56529 0.73366 0.0
C1178 C 0.02916 0.56676 0.68217 0.0
C1179 C 0.02866 0.57643 0.58521 0.0
C1180 C 0.02003 0.58514 0.54106 0.0
C1181 C 0.02113 0.57618 0.63854 0.0
C1182 C 0.00431 0.59441 0.55148 0.0
C1183 C -0.00316 0.59434 0.60442 0.0
H1184 H 0.15275 0.24986 0.27824 0.0
H1185 H 0.17401 0.3004 0.32676 0.0
H1186 H 0.16997 0.29275 0.425 0.0
H1187 H 0.16266 0.27082 0.49633 0.0
H1188 H 0.14248 0.21983 0.44737 0.0
H1189 H 0.14346 0.22876 0.3496 0.0
C1190 C 0.15645 0.25925 0.31027 0.0
C1191 C 0.16391 0.27558 0.29537 0.0
C1192 C 0.15419 0.25472 0.36639 0.0
C1193 C 0.1684 0.28769 0.33726 0.0
C1194 C 0.16606 0.28333 0.39335 0.0
C1195 C 0.15817 0.26173 0.46445 0.0
C1196 C 0.15263 0.24461 0.47919 0.0
C1197 C 0.15925 0.26676 0.40833 0.0
C1198 C 0.14686 0.23305 0.43721 0.0
C1199 C 0.14753 0.23811 0.38128 0.0
H1200 H 0.50449 0.39521 0.21285 0.0
H1201 H 0.46368 0.43101 0.26707 0.0
H1202 H 0.44958 0.42931 0.17559 0.0
H1203 H 0.45092 0.42049 0.0771 0.0
H1204 H 0.49246 0.38552 0.02311 0.0
H1205 H 0.50413 0.38406 0.11773 0.0
C1206 C 0.49236 0.40244 0.20506 0.0
C1207 C 0.48533 0.41344 0.24646 0.0
C1208 C 0.48456 0.40175 0.15213 0.0
C1209 C 0.46948 0.42255 0.23578 0.0
C1210 C 0.46144 0.42166 0.18337 0.0
C1211 C 0.4624 0.4124 0.08623 0.0
C1212 C 0.47099 0.40338 0.04306 0.0
C1213 C 0.4692 0.41178 0.14069 0.0
C1214 C 0.48574 0.39279 0.05552 0.0
C1215 C 0.49243 0.39193 0.10962 0.0
H1216 H 0.14241 0.34705 0.10707 0.0
H1217 H 0.10543 0.30456 0.08025 0.0
H1218 H 0.08095 0.32555 0.08124 0.0
H1219 H 0.07001 0.35582 0.09197 0.0
H1220 H 0.10698 0.39832 0.11883 0.0
H1221 H 0.13152 0.3774 0.11608 0.0
C1222 C 0.12901 0.34238 0.10097 0.0
C1223 C 0.12576 0.32426 0.09354 0.0
C1224 C 0.11499 0.35449 0.10219 0.0
C1225 C 0.1083 0.31844 0.08594 0.0
C1226 C 0.09429 0.33042 0.08673 0.0
C1227 C 0.08343 0.36051 0.09747 0.0
C1228 C 0.08665 0.37859 0.10592 0.0
C1229 C 0.09747 0.34844 0.09537 0.0
C1230 C 0.10413 0.38446 0.11247 0.0
C1231 C 0.11817 0.37251 0.11075 0.0
H1232 H 0.84268 0.8402 0.34645 0.0
H1233 H 0.87671 0.79581 0.38217 0.0
H1234 H 0.90209 0.81545 0.38846 0.0
H1235 H 0.91478 0.84503 0.3819 0.0
H1236 H 0.88099 0.88969 0.34815 0.0
H1237 H 0.85536 0.87012 0.34261 0.0
C1238 C 0.85563 0.83485 0.35601 0.0
C1239 C 0.85778 0.81656 0.36375 0.0
C1240 C 0.87023 0.84623 0.3594 0.0
C1241 C 0.87466 0.80983 0.37606 0.0
C1242 C 0.88921 0.82104 0.37947 0.0
C1243 C 0.90183 0.85049 0.37305 0.0
C1244 C 0.8998 0.86876 0.36499 0.0
C1245 C 0.88718 0.83922 0.37071 0.0
C1246 C 0.88289 0.87565 0.3543 0.0
C1247 C 0.86824 0.86448 0.35124 0.0
H1248 H 0.35029 0.64108 0.62368 0.0
H1249 H 0.38567 0.68508 0.59991 0.0
H1250 H 0.41094 0.66512 0.60216 0.0
H1251 H 0.42303 0.63532 0.61147 0.0
H1252 H 0.38784 0.59115 0.63434 0.0
H1253 H 0.36245 0.61109 0.63234 0.0
C1254 C 0.36352 0.64629 0.61869 0.0
C1255 C 0.36609 0.66453 0.61156 0.0
C1256 C 0.37803 0.63475 0.62032 0.0
C1257 C 0.38332 0.67108 0.60537 0.0
C1258 C 0.39779 0.65969 0.60681 0.0
C1259 C 0.40981 0.63004 0.61635 0.0
C1260 C 0.40733 0.61179 0.62329 0.0
C1261 C 0.39531 0.64153 0.61454 0.0
C1262 C 0.39011 0.60516 0.62909 0.0
C1263 C 0.37559 0.61654 0.62781 0.0
H1264 H 0.60805 0.18419 0.84375 0.0
H1265 H 0.64752 0.14399 0.87228 0.0
H1266 H 0.6247 0.12131 0.87159 0.0
H1267 H 0.59375 0.11283 0.86175 0.0
H1268 H 0.554 0.15277 0.83394 0.0
H1269 H 0.5768 0.17565 0.83486 0.0
C1270 C 0.61164 0.17048 0.85024 0.0
C1271 C 0.62946 0.16579 0.85817 0.0
C1272 C 0.59845 0.15746 0.84932 0.0
C1273 C 0.63391 0.14796 0.8662 0.0
C1274 C 0.62087 0.13497 0.86561 0.0
C1275 C 0.59005 0.12653 0.85553 0.0
C1276 C 0.57221 0.13108 0.84746 0.0
C1277 C 0.60315 0.13956 0.8568 0.0
C1278 C 0.56764 0.14891 0.83998 0.0
C1279 C 0.58066 0.16199 0.84071 0.0
H1280 H 0.06473 0.63844 0.35351 0.0
H1281 H 0.10065 0.59482 0.33146 0.0
H1282 H 0.12552 0.61536 0.32704 0.0
H1283 H 0.13703 0.64573 0.3306 0.0
H1284 H 0.1009 0.68909 0.35523 0.0
H1285 H 0.07615 0.66857 0.3579 0.0
C1286 C 0.07798 0.63341 0.34734 0.0
C1287 C 0.08083 0.61514 0.34252 0.0
C1288 C 0.09219 0.64523 0.34576 0.0
C1289 C 0.0981 0.60884 0.33514 0.0
C1290 C 0.11233 0.62056 0.33275 0.0
C1291 C 0.12375 0.65068 0.33671 0.0
C1292 C 0.12083 0.66892 0.34275 0.0
C1293 C 0.10953 0.63879 0.33831 0.0
C1294 C 0.10354 0.67512 0.35063 0.0
C1295 C 0.08935 0.6634 0.352 0.0
H1296 H 0.63444 0.8419 0.61938 0.0
H1297 H 0.59484 0.80361 0.57347 0.0
H1298 H 0.57195 0.82623 0.57929 0.0
H1299 H 0.5631 0.85669 0.5995 0.0
H1300 H 0.60269 0.89495 0.64571 0.0
H1301 H 0.62565 0.87244 0.63848 0.0
C1302 C 0.62083 0.83855 0.61001 0.0
C1303 C 0.61636 0.82112 0.59583 0.0
C1304 C 0.60771 0.85154 0.61432 0.0
C1305 C 0.59864 0.81695 0.58433 0.0
C1306 C 0.58553 0.82985 0.58793 0.0
C1307 C 0.57673 0.86007 0.60844 0.0
C1308 C 0.58117 0.87743 0.62348 0.0
C1309 C 0.58988 0.84713 0.60352 0.0
C1310 C 0.59892 0.88166 0.6343 0.0
C1311 C 0.61206 0.86882 0.62993 0.0
H1312 H 0.42713 0.35291 0.85414 0.0
H1313 H 0.39195 0.39717 0.83095 0.0
H1314 H 0.36663 0.37712 0.82856 0.0
H1315 H 0.35458 0.34698 0.83436 0.0
H1316 H 0.39006 0.30304 0.86014 0.0
H1317 H 0.4152 0.32309 0.86077 0.0
C1318 C 0.41394 0.35819 0.84812 0.0
C1319 C 0.41142 0.37648 0.84239 0.0
C1320 C 0.3995 0.34666 0.8478 0.0
C1321 C 0.39423 0.38312 0.83526 0.0
C1322 C 0.37976 0.37167 0.83407 0.0
C1323 C 0.3678 0.34181 0.84035 0.0
C1324 C 0.37043 0.32355 0.84727 0.0
C1325 C 0.38224 0.35342 0.84067 0.0
C1326 C 0.38766 0.31704 0.85489 0.0
C1327 C 0.40206 0.32848 0.85506 0.0
H1328 H 0.84896 0.14196 0.10737 0.0
H1329 H 0.88983 0.17934 0.06543 0.0
H1330 H 0.91164 0.15569 0.06478 0.0
H1331 H 0.91941 0.12478 0.08031 0.0
H1332 H 0.87885 0.0871 0.12198 0.0
H1333 H 0.85661 0.11054 0.11889 0.0
C1334 C 0.8626 0.14489 0.09741 0.0
C1335 C 0.86776 0.1624 0.08661 0.0
C1336 C 0.87516 0.13124 0.09776 0.0
C1337 C 0.8855 0.16599 0.07397 0.0
C1338 C 0.89801 0.15248 0.07381 0.0
C1339 C 0.90571 0.12167 0.08887 0.0
C1340 C 0.9008 0.10427 0.10192 0.0
C1341 C 0.89304 0.13513 0.08654 0.0
C1342 C 0.88297 0.10043 0.11214 0.0
C1343 C 0.87025 0.11381 0.11026 0.0
H1344 H 0.85859 0.64407 0.83135 0.0
H1345 H 0.89613 0.68503 0.87106 0.0
H1346 H 0.92013 0.66341 0.86964 0.0
H1347 H 0.93037 0.63284 0.85684 0.0
H1348 H 0.89257 0.59212 0.81696 0.0
H1349 H 0.86876 0.61379 0.8179 0.0
C1350 C 0.872 0.64828 0.84011 0.0
C1351 C 0.87556 0.66611 0.85162 0.0
C1352 C 0.8857 0.63587 0.83852 0.0
C1353 C 0.89303 0.67136 0.86237 0.0
C1354 C 0.90676 0.65902 0.86131 0.0
C1355 C 0.91695 0.62875 0.84782 0.0
C1356 C 0.91326 0.61091 0.83666 0.0
C1357 C 0.90326 0.64125 0.84913 0.0
C1358 C 0.89577 0.60578 0.82555 0.0
C1359 C 0.88213 0.61814 0.82631 0.0
H1360 H 0.09985 0.17322 0.61871 0.0
H1361 H 0.14314 0.13644 0.60498 0.0
H1362 H 0.12242 0.11175 0.60606 0.0
H1363 H 0.09203 0.10063 0.61093 0.0
H1364 H 0.0488 0.13745 0.62554 0.0
H1365 H 0.06952 0.1621 0.62465 0.0
C1366 C 0.10475 0.15981 0.61564 0.0
C1367 C 0.123 0.15668 0.6115 0.0
C1368 C 0.0928 0.14568 0.6169 0.0
C1369 C 0.12915 0.13921 0.60806 0.0
C1370 C 0.11732 0.12508 0.60881 0.0
C1371 C 0.08714 0.11404 0.61425 0.0
C1372 C 0.0689 0.11719 0.61836 0.0
C1373 C 0.09912 0.12816 0.61339 0.0
C1374 C 0.06278 0.13465 0.62245 0.0
C1375 C 0.07462 0.14877 0.62176 0.0
H1376 H 0.59608 0.38681 0.3448 0.0
H1377 H 0.55299 0.3497 0.33538 0.0
H1378 H 0.57396 0.32515 0.33527 0.0
H1379 H 0.60455 0.31429 0.33924 0.0
H1380 H 0.64747 0.35164 0.34867 0.0
H1381 H 0.62649 0.37606 0.34797 0.0
C1382 C 0.59126 0.37336 0.34232 0.0
C1383 C 0.57301 0.37008 0.33998 0.0
C1384 C 0.60334 0.35936 0.34285 0.0
C1385 C 0.56698 0.35258 0.33706 0.0
C1386 C 0.57896 0.33854 0.33722 0.0
C1387 C 0.6093 0.32777 0.34149 0.0
C1388 C 0.62753 0.33115 0.34425 0.0
C1389 C 0.59716 0.34178 0.34053 0.0
C1390 C 0.63349 0.34868 0.34665 0.0
C1391 C 0.62152 0.36266 0.34609 0.0
H1392 H 0.38314 0.81726 0.13366 0.0
H1393 H 0.34263 0.85433 0.08476 0.0
H1394 H 0.36425 0.87836 0.08671 0.0
H1395 H 0.39483 0.88866 0.10154 0.0
H1396 H 0.43487 0.85122 0.15209 0.0
H1397 H 0.41316 0.82755 0.15094 0.0
C1398 C 0.37902 0.83058 0.12309 0.0
C1399 C 0.36135 0.83399 0.1086 0.0
C1400 C 0.39141 0.84428 0.12511 0.0
C1401 C 0.3562 0.85136 0.09578 0.0
C1402 C 0.36854 0.86509 0.09705 0.0
C1403 C 0.39876 0.87535 0.11278 0.0
C1404 C 0.41646 0.87173 0.12683 0.0
C1405 C 0.38619 0.8617 0.11173 0.0
C1406 C 0.42135 0.8544 0.14113 0.0
C1407 C 0.40895 0.84081 0.14029 0.0
H1408 H 0.92457 0.34712 0.59216 0.0
H1409 H 0.88949 0.39027 0.63076 0.0
H1410 H 0.86432 0.37021 0.62939 0.0
H1411 H 0.85226 0.34055 0.61707 0.0
H1412 H 0.8871 0.29726 0.57804 0.0
H1413 H 0.91237 0.31731 0.57904 0.0
C1414 C 0.91143 0.3521 0.60067 0.0
C1415 C 0.90892 0.37014 0.61181 0.0
C1416 C 0.89697 0.34052 0.59916 0.0
C1417 C 0.89179 0.37643 0.62219 0.0
C1418 C 0.87738 0.36498 0.62125 0.0
C1419 C 0.86536 0.33549 0.60838 0.0
C1420 C 0.86778 0.31744 0.59737 0.0
C1421 C 0.87981 0.34704 0.60953 0.0
C1422 C 0.88486 0.31111 0.58646 0.0
C1423 C 0.89933 0.32255 0.58726 0.0
H1424 H 0.34498 0.14187 0.35979 0.0
H1425 H 0.3817 0.18475 0.38431 0.0
H1426 H 0.40628 0.16402 0.38495 0.0
H1427 H 0.41753 0.13398 0.37507 0.0
H1428 H 0.38119 0.09079 0.352 0.0
H1429 H 0.35629 0.11139 0.35384 0.0
C1430 C 0.35834 0.14664 0.36592 0.0
C1431 C 0.36148 0.16484 0.37185 0.0
C1432 C 0.3725 0.13464 0.36579 0.0
C1433 C 0.37889 0.17082 0.37959 0.0
C1434 C 0.39298 0.15898 0.37973 0.0
C1435 C 0.40417 0.12907 0.37019 0.0
C1436 C 0.40122 0.11092 0.36282 0.0
C1437 C 0.38997 0.14092 0.37206 0.0
C1438 C 0.38381 0.10473 0.35742 0.0
C1439 C 0.36957 0.11649 0.35861 0.0
H1440 H 0.64559 0.64911 0.12461 0.0
H1441 H 0.61282 0.69335 0.07729 0.0
H1442 H 0.58662 0.67457 0.08089 0.0
H1443 H 0.573 0.64563 0.09889 0.0
H1444 H 0.60604 0.60156 0.14608 0.0
H1445 H 0.63213 0.62032 0.14174 0.0
C1446 C 0.63274 0.65464 0.11464 0.0
C1447 C 0.63117 0.67258 0.10057 0.0
C1448 C 0.61775 0.64384 0.11738 0.0
C1449 C 0.6144 0.67955 0.08808 0.0
C1450 C 0.5994 0.66884 0.09037 0.0
C1451 C 0.5859 0.64018 0.10861 0.0
C1452 C 0.58756 0.62225 0.12303 0.0
C1453 C 0.60091 0.651 0.10543 0.0
C1454 C 0.60438 0.61533 0.13497 0.0
C1455 C 0.61933 0.62602 0.13234 0.0
H1456 H 0.09057 0.88898 0.86972 0.0
H1457 H 0.04925 0.85098 0.83915 0.0
H1458 H 0.07117 0.82735 0.83443 0.0
H1459 H 0.10205 0.81749 0.83988 0.0
H1460 H 0.14326 0.85561 0.87069 0.0
H1461 H 0.12134 0.87918 0.87497 0.0
C1462 C 0.08635 0.87555 0.86166 0.0
C1463 C 0.06831 0.87175 0.85463 0.0
C1464 C 0.09898 0.86203 0.85956 0.0
C1465 C 0.06306 0.85426 0.84457 0.0
C1466 C 0.07558 0.84074 0.84205 0.0
C1467 C 0.10622 0.83094 0.84786 0.0
C1468 C 0.12425 0.83478 0.85514 0.0
C1469 C 0.09356 0.84446 0.84982 0.0
C1470 C 0.12946 0.85229 0.86507 0.0
C1471 C 0.11694 0.86579 0.86736 0.0
loop_
_geom_bond_atom_site_label_1
_geom_bond_atom_site_label_2
_geom_bond_distance
_geom_bond_site_symmetry_2
_ccdc_geom_bond_type
C0 O1 1.306 . S
C0 O3 1.160 . S
O1 C0 1.306 . S
O1 Cd2 2.228 1_556 S
Cd2 O1 2.228 1_554 S
Cd2 O6 2.273 . S
Cd2 O10 2.277 . S
O3 C0 1.160 . S
O3 Cd4 2.203 1_556 S
Cd4 O3 2.203 1_554 S
Cd4 O6 2.411 . S
Cd4 O7 2.333 . S
Cd4 O8 2.352 . S
Cd4 O12 2.277 . S
Cd4 O13 2.356 . S
C5 O10 1.209 . S
C5 O12 1.226 . S
O6 Cd2 2.273 . S
O6 Cd4 2.411 . S
O6 C9 1.320 . S
O7 Cd4 2.333 . S
O7 C9 1.214 . S
O8 Cd4 2.352 . S
O8 C11 1.258 . S
C9 O6 1.320 . S
C9 O7 1.214 . S
O10 Cd2 2.277 . S
O10 C5 1.209 . S
C11 O8 1.258 . S
C11 O13 1.282 . S
O12 Cd4 2.277 . S
O12 C5 1.226 . S
O13 Cd4 2.356 . S
O13 C11 1.282 . S
C14 O15 1.306 . S
C14 O17 1.160 . S
O15 C14 1.306 . S
O15 Cd16 2.228 1_655 S
Cd16 O15 2.228 1_455 S
Cd16 O20 2.273 1_455 S
Cd16 O24 2.277 1_455 S
O17 C14 1.160 . S
O17 Cd18 2.203 . S
Cd18 O17 2.203 . S
Cd18 O20 2.411 . S
Cd18 O21 2.333 . S
Cd18 O22 2.352 . S
Cd18 O26 2.277 . S
Cd18 O27 2.356 . S
C19 O24 1.209 . S
C19 O26 1.226 . S
O20 Cd16 2.273 1_655 S
O20 Cd18 2.411 . S
O20 C23 1.320 . S
O21 Cd18 2.333 . S
O21 C23 1.214 . S
O22 Cd18 2.352 . S
O22 C25 1.258 . S
C23 O20 1.320 . S
C23 O21 1.214 . S
O24 Cd16 2.277 1_655 S
O24 C19 1.209 . S
C25 O22 1.258 . S
C25 O27 1.282 . S
O26 Cd18 2.277 . S
O26 C19 1.226 . S
O27 Cd18 2.356 . S
O27 C25 1.282 . S
C28 O29 1.306 . S
C28 O31 1.160 . S
O29 C28 1.306 . S
O29 Cd30 2.228 . S
Cd30 O29 2.228 . S
Cd30 O34 2.273 . S
Cd30 O38 2.277 . S
O31 C28 1.160 . S
O31 Cd32 2.203 . S
Cd32 O31 2.203 . S
Cd32 O34 2.411 . S
Cd32 O35 2.333 . S
Cd32 O36 2.352 . S
Cd32 O40 2.277 . S
Cd32 O41 2.356 . S
C33 O38 1.209 . S
C33 O40 1.226 . S
O34 Cd30 2.273 . S
O34 Cd32 2.411 . S
O34 C37 1.320 . S
O35 Cd32 2.333 . S
O35 C37 1.214 . S
O36 Cd32 2.352 . S
O36 C39 1.258 . S
C37 O34 1.320 . S
C37 O35 1.214 . S
O38 Cd30 2.277 . S
O38 C33 1.209 . S
C39 O36 1.258 . S
C39 O41 1.282 . S
O40 Cd32 2.277 . S
O40 C33 1.226 . S
O41 Cd32 2.356 . S
O41 C39 1.282 . S
C42 O43 1.306 . S
C42 O45 1.160 . S
O43 C42 1.306 . S
O43 Cd44 2.228 . S
Cd44 O43 2.228 . S
Cd44 O48 2.273 . S
Cd44 O52 2.277 . S
O45 C42 1.160 . S
O45 Cd46 2.203 . S
Cd46 O45 2.203 . S
Cd46 O48 2.411 . S
Cd46 O49 2.333 . S
Cd46 O50 2.352 . S
Cd46 O54 2.277 . S
Cd46 O55 2.356 . S
C47 O52 1.209 . S
C47 O54 1.226 . S
O48 Cd44 2.273 . S
O48 Cd46 2.411 . S
O48 C51 1.320 . S
O49 Cd46 2.333 . S
O49 C51 1.214 . S
O50 Cd46 2.352 . S
O50 C53 1.258 . S
C51 O48 1.320 . S
C51 O49 1.214 . S
O52 Cd44 2.277 . S
O52 C47 1.209 . S
C53 O50 1.258 . S
C53 O55 1.282 . S
O54 Cd46 2.277 . S
O54 C47 1.226 . S
O55 Cd46 2.356 . S
O55 C53 1.282 . S
C56 O57 1.306 . S
C56 O59 1.160 . S
O57 C56 1.306 . S
O57 Cd58 2.228 . S
Cd58 O57 2.228 . S
Cd58 O62 2.273 . S
Cd58 O66 2.277 . S
O59 C56 1.160 . S
O59 Cd60 2.203 . S
Cd60 O59 2.203 . S
Cd60 O62 2.411 . S
Cd60 O63 2.333 . S
Cd60 O64 2.352 . S
Cd60 O68 2.277 . S
Cd60 O69 2.356 . S
C61 O66 1.209 . S
C61 O68 1.226 . S
O62 Cd58 2.273 . S
O62 Cd60 2.411 . S
O62 C65 1.320 . S
O63 Cd60 2.333 . S
O63 C65 1.214 . S
O64 Cd60 2.352 . S
O64 C67 1.258 . S
C65 O62 1.320 . S
C65 O63 1.214 . S
O66 Cd58 2.277 . S
O66 C61 1.209 . S
C67 O64 1.258 . S
C67 O69 1.282 . S
O68 Cd60 2.277 . S
O68 C61 1.226 . S
O69 Cd60 2.356 . S
O69 C67 1.282 . S
C70 O71 1.306 . S
C70 O73 1.160 . S
O71 C70 1.306 . S
O71 Cd72 2.228 . S
Cd72 O71 2.228 . S
Cd72 O76 2.273 . S
Cd72 O80 2.277 . S
O73 C70 1.160 . S
O73 Cd74 2.203 . S
Cd74 O73 2.203 . S
Cd74 O76 2.411 . S
Cd74 O77 2.333 . S
Cd74 O78 2.352 . S
Cd74 O82 2.277 . S
Cd74 O83 2.356 . S
C75 O80 1.209 . S
C75 O82 1.226 . S
O76 Cd72 2.273 . S
O76 Cd74 2.411 . S
O76 C79 1.320 . S
O77 Cd74 2.333 . S
O77 C79 1.214 . S
O78 Cd74 2.352 . S
O78 C81 1.258 . S
C79 O76 1.320 . S
C79 O77 1.214 . S
O80 Cd72 2.277 . S
O80 C75 1.209 . S
C81 O78 1.258 . S
C81 O83 1.282 . S
O82 Cd74 2.277 . S
O82 C75 1.226 . S
O83 Cd74 2.356 . S
O83 C81 1.282 . S
C84 O85 1.306 . S
C84 O87 1.160 . S
O85 C84 1.306 . S
O85 Cd86 2.228 1_554 S
Cd86 O85 2.228 1_556 S
Cd86 O90 2.273 . S
Cd86 O94 2.277 . S
O87 C84 1.160 . S
O87 Cd88 2.203 1_554 S
Cd88 O87 2.203 1_556 S
Cd88 O90 2.411 . S
Cd88 O91 2.333 . S
Cd88 O92 2.352 . S
Cd88 O96 2.277 . S
Cd88 O97 2.356 . S
C89 O94 1.209 . S
C89 O96 1.226 . S
O90 Cd86 2.273 . S
O90 Cd88 2.411 . S
O90 C93 1.320 . S
O91 Cd88 2.333 . S
O91 C93 1.214 . S
O92 Cd88 2.352 . S
O92 C95 1.258 . S
C93 O90 1.320 . S
C93 O91 1.214 . S
O94 Cd86 2.277 . S
O94 C89 1.209 . S
C95 O92 1.258 . S
C95 O97 1.282 . S
O96 Cd88 2.277 . S
O96 C89 1.226 . S
O97 Cd88 2.356 . S
O97 C95 1.282 . S
C98 O99 1.306 . S
C98 O101 1.160 . S
O99 C98 1.306 . S
O99 Cd100 2.228 1_655 S
Cd100 O99 2.228 1_455 S
Cd100 O104 2.273 1_455 S
Cd100 O108 2.277 1_455 S
O101 C98 1.160 . S
O101 Cd102 2.203 . S
Cd102 O101 2.203 . S
Cd102 O104 2.411 . S
Cd102 O105 2.333 . S
Cd102 O106 2.352 . S
Cd102 O110 2.277 . S
Cd102 O111 2.356 . S
C103 O108 1.209 . S
C103 O110 1.226 . S
O104 Cd100 2.273 1_655 S
O104 Cd102 2.411 . S
O104 C107 1.320 . S
O105 Cd102 2.333 . S
O105 C107 1.214 . S
O106 Cd102 2.352 . S
O106 C109 1.258 . S
C107 O104 1.320 . S
C107 O105 1.214 . S
O108 Cd100 2.277 1_655 S
O108 C103 1.209 . S
C109 O106 1.258 . S
C109 O111 1.282 . S
O110 Cd102 2.277 . S
O110 C103 1.226 . S
O111 Cd102 2.356 . S
O111 C109 1.282 . S
C112 O113 1.306 . S
C112 O115 1.160 . S
O113 C112 1.306 . S
O113 Cd114 2.228 1_554 S
Cd114 O113 2.228 1_556 S
Cd114 O118 2.273 . S
Cd114 O122 2.277 . S
O115 C112 1.160 . S
O115 Cd116 2.203 1_554 S
Cd116 O115 2.203 1_556 S
Cd116 O118 2.411 . S
Cd116 O119 2.333 . S
Cd116 O120 2.352 . S
Cd116 O124 2.277 . S
Cd116 O125 2.356 . S
C117 O122 1.209 . S
C117 O124 1.226 . S
O118 Cd114 2.273 . S
O118 Cd116 2.411 . S
O118 C121 1.320 . S
O119 Cd116 2.333 . S
O119 C121 1.214 . S
O120 Cd116 2.352 . S
O120 C123 1.258 . S
C121 O118 1.320 . S
C121 O119 1.214 . S
O122 Cd114 2.277 . S
O122 C117 1.209 . S
C123 O120 1.258 . S
C123 O125 1.282 . S
O124 Cd116 2.277 . S
O124 C117 1.226 . S
O125 Cd116 2.356 . S
O125 C123 1.282 . S
C126 O127 1.306 . S
C126 O129 1.160 . S
O127 C126 1.306 . S
O127 Cd128 2.228 1_455 S
Cd128 O127 2.228 1_655 S
Cd128 O132 2.273 1_655 S
Cd128 O136 2.277 1_655 S
O129 C126 1.160 . S
O129 Cd130 2.203 . S
Cd130 O129 2.203 . S
Cd130 O132 2.411 . S
Cd130 O133 2.333 . S
Cd130 O134 2.352 . S
Cd130 O138 2.277 . S
Cd130 O139 2.356 . S
C131 O136 1.209 . S
C131 O138 1.226 . S
O132 Cd128 2.273 1_455 S
O132 Cd130 2.411 . S
O132 C135 1.320 . S
O133 Cd130 2.333 . S
O133 C135 1.214 . S
O134 Cd130 2.352 . S
O134 C137 1.258 . S
C135 O132 1.320 . S
C135 O133 1.214 . S
O136 Cd128 2.277 1_455 S
O136 C131 1.209 . S
C137 O134 1.258 . S
C137 O139 1.282 . S
O138 Cd130 2.277 . S
O138 C131 1.226 . S
O139 Cd130 2.356 . S
O139 C137 1.282 . S
C140 O141 1.306 . S
C140 O143 1.160 . S
O141 C140 1.306 . S
O141 Cd142 2.228 . S
Cd142 O141 2.228 . S
Cd142 O146 2.273 . S
Cd142 O150 2.277 . S
O143 C140 1.160 . S
O143 Cd144 2.203 . S
Cd144 O143 2.203 . S
Cd144 O146 2.411 . S
Cd144 O147 2.333 . S
Cd144 O148 2.352 . S
Cd144 O152 2.277 . S
Cd144 O153 2.356 . S
C145 O150 1.209 . S
C145 O152 1.226 . S
O146 Cd142 2.273 . S
O146 Cd144 2.411 . S
O146 C149 1.320 . S
O147 Cd144 2.333 . S
O147 C149 1.214 . S
O148 Cd144 2.352 . S
O148 C151 1.258 . S
C149 O146 1.320 . S
C149 O147 1.214 . S
O150 Cd142 2.277 . S
O150 C145 1.209 . S
C151 O148 1.258 . S
C151 O153 1.282 . S
O152 Cd144 2.277 . S
O152 C145 1.226 . S
O153 Cd144 2.356 . S
O153 C151 1.282 . S
C154 O155 1.306 . S
C154 O157 1.160 . S
O155 C154 1.306 . S
O155 Cd156 2.228 . S
Cd156 O155 2.228 . S
Cd156 O160 2.273 . S
Cd156 O164 2.277 . S
O157 C154 1.160 . S
O157 Cd158 2.203 . S
Cd158 O157 2.203 . S
Cd158 O160 2.411 . S
Cd158 O161 2.333 . S
Cd158 O162 2.352 . S
Cd158 O166 2.277 . S
Cd158 O167 2.356 . S
C159 O164 1.209 . S
C159 O166 1.226 . S
O160 Cd156 2.273 . S
O160 Cd158 2.411 . S
O160 C163 1.320 . S
O161 Cd158 2.333 . S
O161 C163 1.214 . S
O162 Cd158 2.352 . S
O162 C165 1.258 . S
C163 O160 1.320 . S
C163 O161 1.214 . S
O164 Cd156 2.277 . S
O164 C159 1.209 . S
C165 O162 1.258 . S
C165 O167 1.282 . S
O166 Cd158 2.277 . S
O166 C159 1.226 . S
O167 Cd158 2.356 . S
O167 C165 1.282 . S
C168 O169 1.306 . S
C168 O171 1.160 . S
O169 C168 1.306 . S
O169 Cd170 2.228 . S
Cd170 O169 2.228 . S
Cd170 O174 2.273 . S
Cd170 O178 2.277 . S
O171 C168 1.160 . S
O171 Cd172 2.203 . S
Cd172 O171 2.203 . S
Cd172 O174 2.411 . S
Cd172 O175 2.333 . S
Cd172 O176 2.352 . S
Cd172 O180 2.277 . S
Cd172 O181 2.356 . S
C173 O178 1.209 . S
C173 O180 1.226 . S
O174 Cd170 2.273 . S
O174 Cd172 2.411 . S
O174 C177 1.320 . S
O175 Cd172 2.333 . S
O175 C177 1.214 . S
O176 Cd172 2.352 . S
O176 C179 1.258 . S
C177 O174 1.320 . S
C177 O175 1.214 . S
O178 Cd170 2.277 . S
O178 C173 1.209 . S
C179 O176 1.258 . S
C179 O181 1.282 . S
O180 Cd172 2.277 . S
O180 C173 1.226 . S
O181 Cd172 2.356 . S
O181 C179 1.282 . S
C182 O183 1.306 . S
C182 O185 1.160 . S
O183 C182 1.306 . S
O183 Cd184 2.228 . S
Cd184 O183 2.228 . S
Cd184 O188 2.273 . S
Cd184 O192 2.277 . S
O185 C182 1.160 . S
O185 Cd186 2.203 . S
Cd186 O185 2.203 . S
Cd186 O188 2.411 . S
Cd186 O189 2.333 . S
Cd186 O190 2.352 . S
Cd186 O194 2.277 . S
Cd186 O195 2.356 . S
C187 O192 1.209 . S
C187 O194 1.226 . S
O188 Cd184 2.273 . S
O188 Cd186 2.411 . S
O188 C191 1.320 . S
O189 Cd186 2.333 . S
O189 C191 1.214 . S
O190 Cd186 2.352 . S
O190 C193 1.258 . S
C191 O188 1.320 . S
C191 O189 1.214 . S
O192 Cd184 2.277 . S
O192 C187 1.209 . S
C193 O190 1.258 . S
C193 O195 1.282 . S
O194 Cd186 2.277 . S
O194 C187 1.226 . S
O195 Cd186 2.356 . S
O195 C193 1.282 . S
C196 O197 1.306 . S
C196 O199 1.160 . S
O197 C196 1.306 . S
O197 Cd198 2.228 1_556 S
Cd198 O197 2.228 1_554 S
Cd198 O202 2.273 . S
Cd198 O206 2.277 . S
O199 C196 1.160 . S
O199 Cd200 2.203 1_556 S
Cd200 O199 2.203 1_554 S
Cd200 O202 2.411 . S
Cd200 O203 2.333 . S
Cd200 O204 2.352 . S
Cd200 O208 2.277 . S
Cd200 O209 2.356 . S
C201 O206 1.209 . S
C201 O208 1.226 . S
O202 Cd198 2.273 . S
O202 Cd200 2.411 . S
O202 C205 1.320 . S
O203 Cd200 2.333 . S
O203 C205 1.214 . S
O204 Cd200 2.352 . S
O204 C207 1.258 . S
C205 O202 1.320 . S
C205 O203 1.214 . S
O206 Cd198 2.277 . S
O206 C201 1.209 . S
C207 O204 1.258 . S
C207 O209 1.282 . S
O208 Cd200 2.277 . S
O208 C201 1.226 . S
O209 Cd200 2.356 . S
O209 C207 1.282 . S
C210 O211 1.306 . S
C210 O213 1.160 . S
O211 C210 1.306 . S
O211 Cd212 2.228 1_455 S
Cd212 O211 2.228 1_655 S
Cd212 O216 2.273 1_655 S
Cd212 O220 2.277 1_655 S
O213 C210 1.160 . S
O213 Cd214 2.203 . S
Cd214 O213 2.203 . S
Cd214 O216 2.411 . S
Cd214 O217 2.333 . S
Cd214 O218 2.352 . S
Cd214 O222 2.277 . S
Cd214 O223 2.356 . S
C215 O220 1.209 . S
C215 O222 1.226 . S
O216 Cd212 2.273 1_455 S
O216 Cd214 2.411 . S
O216 C219 1.320 . S
O217 Cd214 2.333 . S
O217 C219 1.214 . S
O218 Cd214 2.352 . S
O218 C221 1.258 . S
C219 O216 1.320 . S
C219 O217 1.214 . S
O220 Cd212 2.277 1_455 S
O220 C215 1.209 . S
C221 O218 1.258 . S
C221 O223 1.282 . S
O222 Cd214 2.277 . S
O222 C215 1.226 . S
O223 Cd214 2.356 . S
O223 C221 1.282 . S
C224 O225 1.306 . S
C224 O227 1.160 . S
O225 C224 1.306 . S
O225 Cd226 2.228 . S
Cd226 O225 2.228 . S
Cd226 O230 2.273 . S
Cd226 O234 2.277 . S
O227 C224 1.160 . S
O227 Cd228 2.203 . S
Cd228 O227 2.203 . S
Cd228 O230 2.411 . S
Cd228 O231 2.333 . S
Cd228 O232 2.352 . S
Cd228 O236 2.277 . S
Cd228 O237 2.356 . S
C229 O234 1.209 . S
C229 O236 1.226 . S
O230 Cd226 2.273 . S
O230 Cd228 2.411 . S
O230 C233 1.320 . S
O231 Cd228 2.333 . S
O231 C233 1.214 . S
O232 Cd228 2.352 . S
O232 C235 1.258 . S
C233 O230 1.320 . S
C233 O231 1.214 . S
O234 Cd226 2.277 . S
O234 C229 1.209 . S
C235 O232 1.258 . S
C235 O237 1.282 . S
O236 Cd228 2.277 . S
O236 C229 1.226 . S
O237 Cd228 2.356 . S
O237 C235 1.282 . S
C238 O239 1.306 . S
C238 O241 1.160 . S
O239 C238 1.306 . S
O239 Cd240 2.228 . S
Cd240 O239 2.228 . S
Cd240 O244 2.273 . S
Cd240 O248 2.277 . S
O241 C238 1.160 . S
O241 Cd242 2.203 . S
Cd242 O241 2.203 . S
Cd242 O244 2.411 . S
Cd242 O245 2.333 . S
Cd242 O246 2.352 . S
Cd242 O250 2.277 . S
Cd242 O251 2.356 . S
C243 O248 1.209 . S
C243 O250 1.226 . S
O244 Cd240 2.273 . S
O244 Cd242 2.411 . S
O244 C247 1.320 . S
O245 Cd242 2.333 . S
O245 C247 1.214 . S
O246 Cd242 2.352 . S
O246 C249 1.258 . S
C247 O244 1.320 . S
C247 O245 1.214 . S
O248 Cd240 2.277 . S
O248 C243 1.209 . S
C249 O246 1.258 . S
C249 O251 1.282 . S
O250 Cd242 2.277 . S
O250 C243 1.226 . S
O251 Cd242 2.356 . S
O251 C249 1.282 . S
C252 O253 1.306 . S
C252 O255 1.160 . S
O253 C252 1.306 . S
O253 Cd254 2.228 1_556 S
Cd254 O253 2.228 1_554 S
Cd254 O258 2.273 . S
Cd254 O262 2.277 . S
O255 C252 1.160 . S
O255 Cd256 2.203 1_556 S
Cd256 O255 2.203 1_554 S
Cd256 O258 2.411 . S
Cd256 O259 2.333 . S
Cd256 O260 2.352 . S
Cd256 O264 2.277 . S
Cd256 O265 2.356 . S
C257 O262 1.209 . S
C257 O264 1.226 . S
O258 Cd254 2.273 . S
O258 Cd256 2.411 . S
O258 C261 1.320 . S
O259 Cd256 2.333 . S
O259 C261 1.214 . S
O260 Cd256 2.352 . S
O260 C263 1.258 . S
C261 O258 1.320 . S
C261 O259 1.214 . S
O262 Cd254 2.277 . S
O262 C257 1.209 . S
C263 O260 1.258 . S
C263 O265 1.282 . S
O264 Cd256 2.277 . S
O264 C257 1.226 . S
O265 Cd256 2.356 . S
O265 C263 1.282 . S
C266 O267 1.306 . S
C266 O269 1.160 . S
O267 C266 1.306 . S
O267 Cd268 2.228 1_455 S
Cd268 O267 2.228 1_655 S
Cd268 O272 2.273 1_655 S
Cd268 O276 2.277 1_655 S
O269 C266 1.160 . S
O269 Cd270 2.203 . S
Cd270 O269 2.203 . S
Cd270 O272 2.411 . S
Cd270 O273 2.333 . S
Cd270 O274 2.352 . S
Cd270 O278 2.277 . S
Cd270 O279 2.356 . S
C271 O276 1.209 . S
C271 O278 1.226 . S
O272 Cd268 2.273 1_455 S
O272 Cd270 2.411 . S
O272 C275 1.320 . S
O273 Cd270 2.333 . S
O273 C275 1.214 . S
O274 Cd270 2.352 . S
O274 C277 1.258 . S
C275 O272 1.320 . S
C275 O273 1.214 . S
O276 Cd268 2.277 1_455 S
O276 C271 1.209 . S
C277 O274 1.258 . S
C277 O279 1.282 . S
O278 Cd270 2.277 . S
O278 C271 1.226 . S
O279 Cd270 2.356 . S
O279 C277 1.282 . S
C280 O281 1.306 . S
C280 O283 1.160 . S
O281 C280 1.306 . S
O281 Cd282 2.228 1_554 S
Cd282 O281 2.228 1_556 S
Cd282 O286 2.273 . S
Cd282 O290 2.277 . S
O283 C280 1.160 . S
O283 Cd284 2.203 1_554 S
Cd284 O283 2.203 1_556 S
Cd284 O286 2.411 . S
Cd284 O287 2.333 . S
Cd284 O288 2.352 . S
Cd284 O292 2.277 . S
Cd284 O293 2.356 . S
C285 O290 1.209 . S
C285 O292 1.226 . S
O286 Cd282 2.273 . S
O286 Cd284 2.411 . S
O286 C289 1.320 . S
O287 Cd284 2.333 . S
O287 C289 1.214 . S
O288 Cd284 2.352 . S
O288 C291 1.258 . S
C289 O286 1.320 . S
C289 O287 1.214 . S
O290 Cd282 2.277 . S
O290 C285 1.209 . S
C291 O288 1.258 . S
C291 O293 1.282 . S
O292 Cd284 2.277 . S
O292 C285 1.226 . S
O293 Cd284 2.356 . S
O293 C291 1.282 . S
C294 O295 1.306 . S
C294 O297 1.160 . S
O295 C294 1.306 . S
O295 Cd296 2.228 1_455 S
Cd296 O295 2.228 1_655 S
Cd296 O300 2.273 1_655 S
Cd296 O304 2.277 1_655 S
O297 C294 1.160 . S
O297 Cd298 2.203 . S
Cd298 O297 2.203 . S
Cd298 O300 2.411 . S
Cd298 O301 2.333 . S
Cd298 O302 2.352 . S
Cd298 O306 2.277 . S
Cd298 O307 2.356 . S
C299 O304 1.209 . S
C299 O306 1.226 . S
O300 Cd296 2.273 1_455 S
O300 Cd298 2.411 . S
O300 C303 1.320 . S
O301 Cd298 2.333 . S
O301 C303 1.214 . S
O302 Cd298 2.352 . S
O302 C305 1.258 . S
C303 O300 1.320 . S
C303 O301 1.214 . S
O304 Cd296 2.277 1_455 S
O304 C299 1.209 . S
C305 O302 1.258 . S
C305 O307 1.282 . S
O306 Cd298 2.277 . S
O306 C299 1.226 . S
O307 Cd298 2.356 . S
O307 C305 1.282 . S
C308 O309 1.306 . S
C308 O311 1.160 . S
O309 C308 1.306 . S
O309 Cd310 2.228 . S
Cd310 O309 2.228 . S
Cd310 O314 2.273 . S
Cd310 O318 2.277 . S
O311 C308 1.160 . S
O311 Cd312 2.203 . S
Cd312 O311 2.203 . S
Cd312 O314 2.411 . S
Cd312 O315 2.333 . S
Cd312 O316 2.352 . S
Cd312 O320 2.277 . S
Cd312 O321 2.356 . S
C313 O318 1.209 . S
C313 O320 1.226 . S
O314 Cd310 2.273 . S
O314 Cd312 2.411 . S
O314 C317 1.320 . S
O315 Cd312 2.333 . S
O315 C317 1.214 . S
O316 Cd312 2.352 . S
O316 C319 1.258 . S
C317 O314 1.320 . S
C317 O315 1.214 . S
O318 Cd310 2.277 . S
O318 C313 1.209 . S
C319 O316 1.258 . S
C319 O321 1.282 . S
O320 Cd312 2.277 . S
O320 C313 1.226 . S
O321 Cd312 2.356 . S
O321 C319 1.282 . S
C322 O323 1.306 . S
C322 O325 1.160 . S
O323 C322 1.306 . S
O323 Cd324 2.228 . S
Cd324 O323 2.228 . S
Cd324 O328 2.273 . S
Cd324 O332 2.277 . S
O325 C322 1.160 . S
O325 Cd326 2.203 . S
Cd326 O325 2.203 . S
Cd326 O328 2.411 . S
Cd326 O329 2.333 . S
Cd326 O330 2.352 . S
Cd326 O334 2.277 . S
Cd326 O335 2.356 . S
C327 O332 1.209 . S
C327 O334 1.226 . S
O328 Cd324 2.273 . S
O328 Cd326 2.411 . S
O328 C331 1.320 . S
O329 Cd326 2.333 . S
O329 C331 1.214 . S
O330 Cd326 2.352 . S
O330 C333 1.258 . S
C331 O328 1.320 . S
C331 O329 1.214 . S
O332 Cd324 2.277 . S
O332 C327 1.209 . S
C333 O330 1.258 . S
C333 O335 1.282 . S
O334 Cd326 2.277 . S
O334 C327 1.226 . S
O335 Cd326 2.356 . S
O335 C333 1.282 . S
C336 O337 1.306 . S
C336 O339 1.160 . S
O337 C336 1.306 . S
O337 Cd338 2.228 . S
Cd338 O337 2.228 . S
Cd338 O342 2.273 . S
Cd338 O346 2.277 . S
O339 C336 1.160 . S
O339 Cd340 2.203 . S
Cd340 O339 2.203 . S
Cd340 O342 2.411 . S
Cd340 O343 2.333 . S
Cd340 O344 2.352 . S
Cd340 O348 2.277 . S
Cd340 O349 2.356 . S
C341 O346 1.209 . S
C341 O348 1.226 . S
O342 Cd338 2.273 . S
O342 Cd340 2.411 . S
O342 C345 1.320 . S
O343 Cd340 2.333 . S
O343 C345 1.214 . S
O344 Cd340 2.352 . S
O344 C347 1.258 . S
C345 O342 1.320 . S
C345 O343 1.214 . S
O346 Cd338 2.277 . S
O346 C341 1.209 . S
C347 O344 1.258 . S
C347 O349 1.282 . S
O348 Cd340 2.277 . S
O348 C341 1.226 . S
O349 Cd340 2.356 . S
O349 C347 1.282 . S
C350 O351 1.306 . S
C350 O353 1.160 . S
O351 C350 1.306 . S
O351 Cd352 2.228 . S
Cd352 O351 2.228 . S
Cd352 O356 2.273 . S
Cd352 O360 2.277 . S
O353 C350 1.160 . S
O353 Cd354 2.203 . S
Cd354 O353 2.203 . S
Cd354 O356 2.411 . S
Cd354 O357 2.333 . S
Cd354 O358 2.352 . S
Cd354 O362 2.277 . S
Cd354 O363 2.356 . S
C355 O360 1.209 . S
C355 O362 1.226 . S
O356 Cd352 2.273 . S
O356 Cd354 2.411 . S
O356 C359 1.320 . S
O357 Cd354 2.333 . S
O357 C359 1.214 . S
O358 Cd354 2.352 . S
O358 C361 1.258 . S
C359 O356 1.320 . S
C359 O357 1.214 . S
O360 Cd352 2.277 . S
O360 C355 1.209 . S
C361 O358 1.258 . S
C361 O363 1.282 . S
O362 Cd354 2.277 . S
O362 C355 1.226 . S
O363 Cd354 2.356 . S
O363 C361 1.282 . S
C364 O365 1.306 . S
C364 O367 1.160 . S
O365 C364 1.306 . S
O365 Cd366 2.228 1_554 S
Cd366 O365 2.228 1_556 S
Cd366 O370 2.273 . S
Cd366 O374 2.277 . S
O367 C364 1.160 . S
O367 Cd368 2.203 1_554 S
Cd368 O367 2.203 1_556 S
Cd368 O370 2.411 . S
Cd368 O371 2.333 . S
Cd368 O372 2.352 . S
Cd368 O376 2.277 . S
Cd368 O377 2.356 . S
C369 O374 1.209 . S
C369 O376 1.226 . S
O370 Cd366 2.273 . S
O370 Cd368 2.411 . S
O370 C373 1.320 . S
O371 Cd368 2.333 . S
O371 C373 1.214 . S
O372 Cd368 2.352 . S
O372 C375 1.258 . S
C373 O370 1.320 . S
C373 O371 1.214 . S
O374 Cd366 2.277 . S
O374 C369 1.209 . S
C375 O372 1.258 . S
C375 O377 1.282 . S
O376 Cd368 2.277 . S
O376 C369 1.226 . S
O377 Cd368 2.356 . S
O377 C375 1.282 . S
C378 O379 1.306 . S
C378 O381 1.160 . S
O379 C378 1.306 . S
O379 Cd380 2.228 1_655 S
Cd380 O379 2.228 1_455 S
Cd380 O384 2.273 1_455 S
Cd380 O388 2.277 1_455 S
O381 C378 1.160 . S
O381 Cd382 2.203 . S
Cd382 O381 2.203 . S
Cd382 O384 2.411 . S
Cd382 O385 2.333 . S
Cd382 O386 2.352 . S
Cd382 O390 2.277 . S
Cd382 O391 2.356 . S
C383 O388 1.209 . S
C383 O390 1.226 . S
O384 Cd380 2.273 1_655 S
O384 Cd382 2.411 . S
O384 C387 1.320 . S
O385 Cd382 2.333 . S
O385 C387 1.214 . S
O386 Cd382 2.352 . S
O386 C389 1.258 . S
C387 O384 1.320 . S
C387 O385 1.214 . S
O388 Cd380 2.277 1_655 S
O388 C383 1.209 . S
C389 O386 1.258 . S
C389 O391 1.282 . S
O390 Cd382 2.277 . S
O390 C383 1.226 . S
O391 Cd382 2.356 . S
O391 C389 1.282 . S
C392 O393 1.306 . S
C392 O395 1.160 . S
O393 C392 1.306 . S
O393 Cd394 2.228 1_556 S
Cd394 O393 2.228 1_554 S
Cd394 O398 2.273 . S
Cd394 O402 2.277 . S
O395 C392 1.160 . S
O395 Cd396 2.203 1_556 S
Cd396 O395 2.203 1_554 S
Cd396 O398 2.411 . S
Cd396 O399 2.333 . S
Cd396 O400 2.352 . S
Cd396 O404 2.277 . S
Cd396 O405 2.356 . S
C397 O402 1.209 . S
C397 O404 1.226 . S
O398 Cd394 2.273 . S
O398 Cd396 2.411 . S
O398 C401 1.320 . S
O399 Cd396 2.333 . S
O399 C401 1.214 . S
O400 Cd396 2.352 . S
O400 C403 1.258 . S
C401 O398 1.320 . S
C401 O399 1.214 . S
O402 Cd394 2.277 . S
O402 C397 1.209 . S
C403 O400 1.258 . S
C403 O405 1.282 . S
O404 Cd396 2.277 . S
O404 C397 1.226 . S
O405 Cd396 2.356 . S
O405 C403 1.282 . S
C406 O407 1.306 . S
C406 O409 1.160 . S
O407 C406 1.306 . S
O407 Cd408 2.228 1_655 S
Cd408 O407 2.228 1_455 S
Cd408 O412 2.273 1_455 S
Cd408 O416 2.277 1_455 S
O409 C406 1.160 . S
O409 Cd410 2.203 . S
Cd410 O409 2.203 . S
Cd410 O412 2.411 . S
Cd410 O413 2.333 . S
Cd410 O414 2.352 . S
Cd410 O418 2.277 . S
Cd410 O419 2.356 . S
C411 O416 1.209 . S
C411 O418 1.226 . S
O412 Cd408 2.273 1_655 S
O412 Cd410 2.411 . S
O412 C415 1.320 . S
O413 Cd410 2.333 . S
O413 C415 1.214 . S
O414 Cd410 2.352 . S
O414 C417 1.258 . S
C415 O412 1.320 . S
C415 O413 1.214 . S
O416 Cd408 2.277 1_655 S
O416 C411 1.209 . S
C417 O414 1.258 . S
C417 O419 1.282 . S
O418 Cd410 2.277 . S
O418 C411 1.226 . S
O419 Cd410 2.356 . S
O419 C417 1.282 . S
C420 O421 1.306 . S
C420 O423 1.160 . S
O421 C420 1.306 . S
O421 Cd422 2.228 . S
Cd422 O421 2.228 . S
Cd422 O426 2.273 . S
Cd422 O430 2.277 . S
O423 C420 1.160 . S
O423 Cd424 2.203 . S
Cd424 O423 2.203 . S
Cd424 O426 2.411 . S
Cd424 O427 2.333 . S
Cd424 O428 2.352 . S
Cd424 O432 2.277 . S
Cd424 O433 2.356 . S
C425 O430 1.209 . S
C425 O432 1.226 . S
O426 Cd422 2.273 . S
O426 Cd424 2.411 . S
O426 C429 1.320 . S
O427 Cd424 2.333 . S
O427 C429 1.214 . S
O428 Cd424 2.352 . S
O428 C431 1.258 . S
C429 O426 1.320 . S
C429 O427 1.214 . S
O430 Cd422 2.277 . S
O430 C425 1.209 . S
C431 O428 1.258 . S
C431 O433 1.282 . S
O432 Cd424 2.277 . S
O432 C425 1.226 . S
O433 Cd424 2.356 . S
O433 C431 1.282 . S
C434 O435 1.306 . S
C434 O437 1.160 . S
O435 C434 1.306 . S
O435 Cd436 2.228 . S
Cd436 O435 2.228 . S
Cd436 O440 2.273 . S
Cd436 O444 2.277 . S
O437 C434 1.160 . S
O437 Cd438 2.203 . S
Cd438 O437 2.203 . S
Cd438 O440 2.411 . S
Cd438 O441 2.333 . S
Cd438 O442 2.352 . S
Cd438 O446 2.277 . S
Cd438 O447 2.356 . S
C439 O444 1.209 . S
C439 O446 1.226 . S
O440 Cd436 2.273 . S
O440 Cd438 2.411 . S
O440 C443 1.320 . S
O441 Cd438 2.333 . S
O441 C443 1.214 . S
O442 Cd438 2.352 . S
O442 C445 1.258 . S
C443 O440 1.320 . S
C443 O441 1.214 . S
O444 Cd436 2.277 . S
O444 C439 1.209 . S
C445 O442 1.258 . S
C445 O447 1.282 . S
O446 Cd438 2.277 . S
O446 C439 1.226 . S
O447 Cd438 2.356 . S
O447 C445 1.282 . S
H448 C454 0.930 . S
H449 C457 0.930 . S
H450 C458 0.930 . S
H451 C459 0.930 . S
H452 C462 0.930 . S
H453 C463 0.930 . S
C454 H448 0.930 . S
C454 C455 1.355 . S
C454 C456 1.415 . S
C455 C454 1.355 . S
C455 C457 1.419 1_556 S
C456 C454 1.415 . S
C456 C461 1.425 1_556 S
C456 C463 1.409 . S
C457 H449 0.930 . S
C457 C455 1.419 1_554 S
C457 C458 1.362 . S
C458 H450 0.930 . S
C458 C457 1.362 . S
C458 C461 1.409 . S
C459 H451 0.930 . S
C459 C460 1.355 . S
C459 C461 1.415 . S
C460 C459 1.355 . S
C460 C462 1.419 1_554 S
C461 C456 1.425 1_554 S
C461 C458 1.409 . S
C461 C459 1.415 . S
C462 H452 0.930 . S
C462 C460 1.419 1_556 S
C462 C463 1.362 . S
C463 H453 0.930 . S
C463 C456 1.409 . S
C463 C462 1.362 . S
H464 C470 0.930 . S
H465 C473 0.930 . S
H466 C474 0.930 1_545 S
H467 C475 0.930 . S
H468 C478 0.930 . S
H469 C479 0.930 1_565 S
C470 H464 0.930 . S
C470 C471 1.355 . S
C470 C472 1.415 . S
C471 C470 1.355 . S
C471 C473 1.419 . S
C472 C470 1.415 . S
C472 C477 1.425 1_565 S
C472 C479 1.409 1_565 S
C473 H465 0.930 . S
C473 C471 1.419 . S
C473 C474 1.362 . S
C474 H466 0.930 1_565 S
C474 C473 1.362 . S
C474 C477 1.409 1_565 S
C475 H467 0.930 . S
C475 C476 1.355 . S
C475 C477 1.415 . S
C476 C475 1.355 . S
C476 C478 1.419 . S
C477 C472 1.425 1_545 S
C477 C474 1.409 1_545 S
C477 C475 1.415 . S
C478 H468 0.930 . S
C478 C476 1.419 . S
C478 C479 1.362 . S
C479 H469 0.930 1_545 S
C479 C472 1.409 1_545 S
C479 C478 1.362 . S
H480 C486 0.930 . S
H481 C489 0.930 . S
H482 C490 0.930 . S
H483 C491 0.930 . S
H484 C494 0.930 . S
H485 C495 0.930 . S
C486 H480 0.930 . S
C486 C487 1.355 . S
C486 C488 1.415 . S
C487 C486 1.355 . S
C487 C489 1.419 . S
C488 C486 1.415 . S
C488 C493 1.425 . S
C488 C495 1.409 . S
C489 H481 0.930 . S
C489 C487 1.419 . S
C489 C490 1.362 . S
C490 H482 0.930 . S
C490 C489 1.362 . S
C490 C493 1.409 . S
C491 H483 0.930 . S
C491 C492 1.355 . S
C491 C493 1.415 . S
C492 C491 1.355 . S
C492 C494 1.419 . S
C493 C488 1.425 . S
C493 C490 1.409 . S
C493 C491 1.415 . S
C494 H484 0.930 . S
C494 C492 1.419 . S
C494 C495 1.362 . S
C495 H485 0.930 . S
C495 C488 1.409 . S
C495 C494 1.362 . S
H496 C502 0.930 . S
H497 C505 0.930 . S
H498 C506 0.930 . S
H499 C507 0.930 . S
H500 C510 0.930 . S
H501 C511 0.930 . S
C502 H496 0.930 . S
C502 C503 1.355 . S
C502 C504 1.459 . S
C503 C502 1.355 . S
C503 C505 1.419 . S
C504 C502 1.459 . S
C504 C509 1.421 1_545 S
C504 C511 1.369 1_545 S
C505 H497 0.930 . S
C505 C503 1.419 . S
C505 C506 1.362 . S
C506 H498 0.930 . S
C506 C505 1.362 . S
C506 C509 1.369 1_545 S
C507 H499 0.930 . S
C507 C508 1.355 . S
C507 C509 1.459 . S
C508 C507 1.355 . S
C508 C510 1.419 . S
C509 C504 1.421 1_565 S
C509 C506 1.369 1_565 S
C509 C507 1.459 . S
C510 H500 0.930 . S
C510 C508 1.419 . S
C510 C511 1.362 . S
C511 H501 0.930 . S
C511 C504 1.369 1_565 S
C511 C510 1.362 . S
H512 C518 0.930 . S
H513 C521 0.930 . S
H514 C522 0.930 . S
H515 C523 0.930 . S
H516 C526 0.930 . S
H517 C527 0.930 . S
C518 H512 0.930 . S
C518 C519 1.355 1_556 S
C518 C520 1.415 . S
C519 C518 1.355 1_554 S
C519 C521 1.419 . S
C520 C518 1.415 . S
C520 C525 1.425 1_556 S
C520 C527 1.409 . S
C521 H513 0.930 . S
C521 C519 1.419 . S
C521 C522 1.362 . S
C522 H514 0.930 . S
C522 C521 1.362 . S
C522 C525 1.409 . S
C523 H515 0.930 . S
C523 C524 1.355 1_554 S
C523 C525 1.415 . S
C524 C523 1.355 1_556 S
C524 C526 1.419 . S
C525 C520 1.425 1_554 S
C525 C522 1.409 . S
C525 C523 1.415 . S
C526 H516 0.930 . S
C526 C524 1.419 . S
C526 C527 1.362 . S
C527 H517 0.930 . S
C527 C520 1.409 . S
C527 C526 1.362 . S
H528 C534 0.930 . S
H529 C537 0.930 . S
H530 C538 0.930 . S
H531 C539 0.930 . S
H532 C542 0.930 . S
H533 C543 0.930 . S
C534 H528 0.930 . S
C534 C535 1.355 . S
C534 C536 1.415 . S
C535 C534 1.355 . S
C535 C537 1.419 . S
C536 C534 1.415 . S
C536 C541 1.425 1_565 S
C536 C543 1.409 1_565 S
C537 H529 0.930 . S
C537 C535 1.419 . S
C537 C538 1.362 . S
C538 H530 0.930 . S
C538 C537 1.362 . S
C538 C541 1.409 1_565 S
C539 H531 0.930 . S
C539 C540 1.355 . S
C539 C541 1.415 . S
C540 C539 1.355 . S
C540 C542 1.419 . S
C541 C536 1.425 1_545 S
C541 C538 1.409 1_545 S
C541 C539 1.415 . S
C542 H532 0.930 . S
C542 C540 1.419 . S
C542 C543 1.362 . S
C543 H533 0.930 . S
C543 C536 1.409 1_545 S
C543 C542 1.362 . S
H544 C550 0.930 . S
H545 C553 0.930 . S
H546 C554 0.930 . S
H547 C555 0.930 . S
H548 C558 0.930 . S
H549 C559 0.930 . S
C550 H544 0.930 . S
C550 C551 1.355 . S
C550 C552 1.415 . S
C551 C550 1.355 . S
C551 C553 1.419 . S
C552 C550 1.415 . S
C552 C557 1.425 . S
C552 C559 1.409 . S
C553 H545 0.930 . S
C553 C551 1.419 . S
C553 C554 1.362 . S
C554 H546 0.930 . S
C554 C553 1.362 . S
C554 C557 1.409 . S
C555 H547 0.930 . S
C555 C556 1.355 . S
C555 C557 1.415 . S
C556 C555 1.355 . S
C556 C558 1.419 . S
C557 C552 1.425 . S
C557 C554 1.409 . S
C557 C555 1.415 . S
C558 H548 0.930 . S
C558 C556 1.419 . S
C558 C559 1.362 . S
C559 H549 0.930 . S
C559 C552 1.409 . S
C559 C558 1.362 . S
H560 C566 0.930 . S
H561 C569 0.930 . S
H562 C570 0.930 . S
H563 C571 0.930 . S
H564 C574 0.930 . S
H565 C575 0.930 . S
C566 H560 0.930 . S
C566 C567 1.355 . S
C566 C568 1.467 . S
C567 C566 1.355 . S
C567 C569 1.419 . S
C568 C566 1.467 . S
C568 C573 1.419 1_565 S
C568 C575 1.362 1_565 S
C569 H561 0.930 . S
C569 C567 1.419 . S
C569 C570 1.362 . S
C570 H562 0.930 . S
C570 C569 1.362 . S
C570 C573 1.363 1_565 S
C571 H563 0.930 . S
C571 C572 1.355 . S
C571 C573 1.467 . S
C572 C571 1.355 . S
C572 C574 1.419 . S
C573 C568 1.419 1_545 S
C573 C570 1.363 1_545 S
C573 C571 1.467 . S
C574 H564 0.930 . S
C574 C572 1.419 . S
C574 C575 1.362 . S
C575 H565 0.930 . S
C575 C568 1.362 1_545 S
C575 C574 1.362 . S
H576 C582 0.930 . S
H577 C585 0.930 . S
H578 C586 0.930 . S
H579 C587 0.930 . S
H580 C590 0.930 . S
H581 C591 0.930 . S
C582 H576 0.930 . S
C582 C583 1.355 . S
C582 C584 1.415 . S
C583 C582 1.355 . S
C583 C585 1.419 . S
C584 C582 1.415 . S
C584 C589 1.425 . S
C584 C591 1.409 . S
C585 H577 0.930 . S
C585 C583 1.419 . S
C585 C586 1.362 . S
C586 H578 0.930 . S
C586 C585 1.362 . S
C586 C589 1.409 . S
C587 H579 0.930 . S
C587 C588 1.355 . S
C587 C589 1.415 . S
C588 C587 1.355 . S
C588 C590 1.419 . S
C589 C584 1.425 . S
C589 C586 1.409 . S
C589 C587 1.415 . S
C590 H580 0.930 . S
C590 C588 1.419 . S
C590 C591 1.362 . S
C591 H581 0.930 . S
C591 C584 1.409 . S
C591 C590 1.362 . S
H592 C598 0.930 . S
H593 C601 0.930 . S
H594 C602 0.930 . S
H595 C603 0.930 . S
H596 C606 0.930 . S
H597 C607 0.930 . S
C598 H592 0.930 . S
C598 C599 1.355 . S
C598 C600 1.415 . S
C599 C598 1.355 . S
C599 C601 1.419 . S
C600 C598 1.415 . S
C600 C605 1.425 . S
C600 C607 1.409 . S
C601 H593 0.930 . S
C601 C599 1.419 . S
C601 C602 1.362 . S
C602 H594 0.930 . S
C602 C601 1.362 . S
C602 C605 1.409 . S
C603 H595 0.930 . S
C603 C604 1.355 . S
C603 C605 1.415 . S
C604 C603 1.355 . S
C604 C606 1.419 . S
C605 C600 1.425 . S
C605 C602 1.409 . S
C605 C603 1.415 . S
C606 H596 0.930 . S
C606 C604 1.419 . S
C606 C607 1.362 . S
C607 H597 0.930 . S
C607 C600 1.409 . S
C607 C606 1.362 . S
H608 C614 0.930 . S
H609 C617 0.930 1_554 S
H610 C618 0.930 . S
H611 C619 0.930 . S
H612 C622 0.930 1_556 S
H613 C623 0.930 . S
C614 H608 0.930 . S
C614 C615 1.355 . S
C614 C616 1.415 . S
C615 C614 1.355 . S
C615 C617 1.419 . S
C616 C614 1.415 . S
C616 C621 1.425 1_556 S
C616 C623 1.409 . S
C617 H609 0.930 1_556 S
C617 C615 1.419 . S
C617 C618 1.362 1_556 S
C618 H610 0.930 . S
C618 C617 1.362 1_554 S
C618 C621 1.409 . S
C619 H611 0.930 . S
C619 C620 1.355 . S
C619 C621 1.415 . S
C620 C619 1.355 . S
C620 C622 1.419 . S
C621 C616 1.425 1_554 S
C621 C618 1.409 . S
C621 C619 1.415 . S
C622 H612 0.930 1_554 S
C622 C620 1.419 . S
C622 C623 1.362 1_554 S
C623 H613 0.930 . S
C623 C616 1.409 . S
C623 C622 1.362 1_556 S
H624 C630 0.930 . S
H625 C633 0.930 . S
H626 C634 0.930 . S
H627 C635 0.930 . S
H628 C638 0.930 . S
H629 C639 0.930 . S
C630 H624 0.930 . S
C630 C631 1.355 . S
C630 C632 1.415 . S
C631 C630 1.355 . S
C631 C633 1.419 . S
C632 C630 1.415 . S
C632 C637 1.425 . S
C632 C639 1.409 . S
C633 H625 0.930 . S
C633 C631 1.419 . S
C633 C634 1.362 . S
C634 H626 0.930 . S
C634 C633 1.362 . S
C634 C637 1.409 . S
C635 H627 0.930 . S
C635 C636 1.355 . S
C635 C637 1.415 . S
C636 C635 1.355 . S
C636 C638 1.419 . S
C637 C632 1.425 . S
C637 C634 1.409 . S
C637 C635 1.415 . S
C638 H628 0.930 . S
C638 C636 1.419 . S
C638 C639 1.362 . S
C639 H629 0.930 . S
C639 C632 1.409 . S
C639 C638 1.362 . S
H640 C646 0.930 . S
H641 C649 0.930 . S
H642 C650 0.930 . S
H643 C651 0.930 . S
H644 C654 0.930 . S
H645 C655 0.930 . S
C646 H640 0.930 . S
C646 C647 1.355 . S
C646 C648 1.415 . S
C647 C646 1.355 . S
C647 C649 1.419 . S
C648 C646 1.415 . S
C648 C653 1.425 . S
C648 C655 1.409 . S
C649 H641 0.930 . S
C649 C647 1.419 . S
C649 C650 1.362 . S
C650 H642 0.930 . S
C650 C649 1.362 . S
C650 C653 1.409 . S
C651 H643 0.930 . S
C651 C652 1.355 . S
C651 C653 1.415 . S
C652 C651 1.355 . S
C652 C654 1.419 . S
C653 C648 1.425 . S
C653 C650 1.409 . S
C653 C651 1.415 . S
C654 H644 0.930 . S
C654 C652 1.419 . S
C654 C655 1.362 . S
C655 H645 0.930 . S
C655 C648 1.409 . S
C655 C654 1.362 . S
H656 C662 0.930 . S
H657 C665 0.930 . S
H658 C666 0.930 . S
H659 C667 0.930 . S
H660 C670 0.930 . S
H661 C671 0.930 . S
C662 H656 0.930 . S
C662 C663 1.355 . S
C662 C664 1.415 . S
C663 C662 1.355 . S
C663 C665 1.419 . S
C664 C662 1.415 . S
C664 C669 1.425 . S
C664 C671 1.409 . S
C665 H657 0.930 . S
C665 C663 1.419 . S
C665 C666 1.362 . S
C666 H658 0.930 . S
C666 C665 1.362 . S
C666 C669 1.409 . S
C667 H659 0.930 . S
C667 C668 1.355 . S
C667 C669 1.415 . S
C668 C667 1.355 . S
C668 C670 1.419 . S
C669 C664 1.425 . S
C669 C666 1.409 . S
C669 C667 1.415 . S
C670 H660 0.930 . S
C670 C668 1.419 . S
C670 C671 1.362 . S
C671 H661 0.930 . S
C671 C664 1.409 . S
C671 C670 1.362 . S
H672 C678 0.930 . S
H673 C681 0.928 1_556 S
H674 C682 0.930 . S
H675 C683 0.930 . S
H676 C686 0.928 1_554 S
H677 C687 0.930 . S
C678 H672 0.930 . S
C678 C679 1.355 . S
C678 C680 1.415 . S
C679 C678 1.355 . S
C679 C681 1.427 . S
C680 C678 1.415 . S
C680 C685 1.425 1_554 S
C680 C687 1.409 . S
C681 H673 0.928 1_554 S
C681 C679 1.427 . S
C681 C682 1.356 1_554 S
C682 H674 0.930 . S
C682 C681 1.356 1_556 S
C682 C685 1.409 . S
C683 H675 0.930 . S
C683 C684 1.355 . S
C683 C685 1.415 . S
C684 C683 1.355 . S
C684 C686 1.426 . S
C685 C680 1.425 1_556 S
C685 C682 1.409 . S
C685 C683 1.415 . S
C686 H676 0.928 1_556 S
C686 C684 1.426 . S
C686 C687 1.358 1_556 S
C687 H677 0.930 . S
C687 C680 1.409 . S
C687 C686 1.358 1_554 S
H688 C694 0.930 . S
H689 C697 0.930 . S
H690 C698 0.930 . S
H691 C699 0.930 . S
H692 C702 0.930 . S
H693 C703 0.930 . S
C694 H688 0.930 . S
C694 C695 1.355 . S
C694 C696 1.415 . S
C695 C694 1.355 . S
C695 C697 1.419 . S
C696 C694 1.415 . S
C696 C701 1.425 . S
C696 C703 1.409 . S
C697 H689 0.930 . S
C697 C695 1.419 . S
C697 C698 1.362 . S
C698 H690 0.930 . S
C698 C697 1.362 . S
C698 C701 1.409 . S
C699 H691 0.930 . S
C699 C700 1.355 . S
C699 C701 1.415 . S
C700 C699 1.355 . S
C700 C702 1.419 . S
C701 C696 1.425 . S
C701 C698 1.409 . S
C701 C699 1.415 . S
C702 H692 0.930 . S
C702 C700 1.419 . S
C702 C703 1.362 . S
C703 H693 0.930 . S
C703 C696 1.409 . S
C703 C702 1.362 . S
H704 C710 0.930 . S
H705 C713 0.930 . S
H706 C714 0.930 . S
H707 C715 0.930 . S
H708 C718 0.930 . S
H709 C719 0.930 . S
C710 H704 0.930 . S
C710 C711 1.355 . S
C710 C712 1.415 . S
C711 C710 1.355 . S
C711 C713 1.419 . S
C712 C710 1.415 . S
C712 C717 1.425 . S
C712 C719 1.409 . S
C713 H705 0.930 . S
C713 C711 1.419 . S
C713 C714 1.362 . S
C714 H706 0.930 . S
C714 C713 1.362 . S
C714 C717 1.409 . S
C715 H707 0.930 . S
C715 C716 1.355 . S
C715 C717 1.415 . S
C716 C715 1.355 . S
C716 C718 1.419 . S
C717 C712 1.425 . S
C717 C714 1.409 . S
C717 C715 1.415 . S
C718 H708 0.930 . S
C718 C716 1.419 . S
C718 C719 1.362 . S
C719 H709 0.930 . S
C719 C712 1.409 . S
C719 C718 1.362 . S
H720 C726 0.930 1_556 S
H721 C729 0.930 . S
H722 C730 0.930 . S
H723 C731 0.930 . S
H724 C734 0.930 . S
H725 C735 0.930 . S
C726 H720 0.930 1_554 S
C726 C727 1.355 1_554 S
C726 C728 1.415 . S
C727 C726 1.355 1_556 S
C727 C729 1.419 1_455 S
C728 C726 1.415 . S
C728 C733 1.425 1_455 S
C728 C735 1.409 . S
C729 H721 0.930 . S
C729 C727 1.419 1_655 S
C729 C730 1.362 1_556 S
C730 H722 0.930 . S
C730 C729 1.362 1_554 S
C730 C733 1.409 . S
C731 H723 0.930 . S
C731 C732 1.355 . S
C731 C733 1.415 . S
C732 C731 1.355 . S
C732 C734 1.419 1_655 S
C733 C728 1.425 1_655 S
C733 C730 1.409 . S
C733 C731 1.415 . S
C734 H724 0.930 . S
C734 C732 1.419 1_455 S
C734 C735 1.362 . S
C735 H725 0.930 . S
C735 C728 1.409 . S
C735 C734 1.362 . S
H736 C742 0.930 . S
H737 C745 0.930 . S
H738 C746 0.930 . S
H739 C747 0.930 . S
H740 C750 0.930 . S
H741 C751 0.930 . S
C742 H736 0.930 . S
C742 C743 1.355 . S
C742 C744 1.415 . S
C743 C742 1.355 . S
C743 C745 1.419 . S
C744 C742 1.415 . S
C744 C749 1.425 . S
C744 C751 1.409 . S
C745 H737 0.930 . S
C745 C743 1.419 . S
C745 C746 1.362 . S
C746 H738 0.930 . S
C746 C745 1.362 . S
C746 C749 1.409 . S
C747 H739 0.930 . S
C747 C748 1.355 . S
C747 C749 1.415 . S
C748 C747 1.355 . S
C748 C750 1.419 . S
C749 C744 1.425 . S
C749 C746 1.409 . S
C749 C747 1.415 . S
C750 H740 0.930 . S
C750 C748 1.419 . S
C750 C751 1.362 . S
C751 H741 0.930 . S
C751 C744 1.409 . S
C751 C750 1.362 . S
H752 C758 0.930 . S
H753 C761 0.930 . S
H754 C762 0.930 . S
H755 C763 0.930 . S
H756 C766 0.930 . S
H757 C767 0.930 . S
C758 H752 0.930 . S
C758 C759 1.355 . S
C758 C760 1.415 . S
C759 C758 1.355 . S
C759 C761 1.419 . S
C760 C758 1.415 . S
C760 C765 1.425 . S
C760 C767 1.409 . S
C761 H753 0.930 . S
C761 C759 1.419 . S
C761 C762 1.362 . S
C762 H754 0.930 . S
C762 C761 1.362 . S
C762 C765 1.409 . S
C763 H755 0.930 . S
C763 C764 1.355 . S
C763 C765 1.415 . S
C764 C763 1.355 . S
C764 C766 1.419 . S
C765 C760 1.425 . S
C765 C762 1.409 . S
C765 C763 1.415 . S
C766 H756 0.930 . S
C766 C764 1.419 . S
C766 C767 1.362 . S
C767 H757 0.930 . S
C767 C760 1.409 . S
C767 C766 1.362 . S
H768 C774 0.930 . S
H769 C777 0.930 . S
H770 C778 0.930 . S
H771 C779 0.930 . S
H772 C782 0.930 . S
H773 C783 0.930 . S
C774 H768 0.930 . S
C774 C775 1.355 . S
C774 C776 1.415 . S
C775 C774 1.355 . S
C775 C777 1.419 . S
C776 C774 1.415 . S
C776 C781 1.425 . S
C776 C783 1.409 . S
C777 H769 0.930 . S
C777 C775 1.419 . S
C777 C778 1.362 . S
C778 H770 0.930 . S
C778 C777 1.362 . S
C778 C781 1.409 . S
C779 H771 0.930 . S
C779 C780 1.355 . S
C779 C781 1.415 . S
C780 C779 1.355 . S
C780 C782 1.419 . S
C781 C776 1.425 . S
C781 C778 1.409 . S
C781 C779 1.415 . S
C782 H772 0.930 . S
C782 C780 1.419 . S
C782 C783 1.362 . S
C783 H773 0.930 . S
C783 C776 1.409 . S
C783 C782 1.362 . S
H784 C790 0.930 . S
H785 C793 0.930 . S
H786 C794 0.930 . S
H787 C795 0.930 . S
H788 C798 0.930 . S
H789 C799 0.930 . S
C790 H784 0.930 . S
C790 C791 1.355 1_556 S
C790 C792 1.415 . S
C791 C790 1.355 1_554 S
C791 C793 1.419 . S
C792 C790 1.415 . S
C792 C797 1.425 . S
C792 C799 1.409 . S
C793 H785 0.930 . S
C793 C791 1.419 . S
C793 C794 1.362 . S
C794 H786 0.930 . S
C794 C793 1.362 . S
C794 C797 1.409 1_554 S
C795 H787 0.930 . S
C795 C796 1.355 . S
C795 C797 1.415 . S
C796 C795 1.355 . S
C796 C798 1.419 . S
C797 C792 1.425 . S
C797 C794 1.409 1_556 S
C797 C795 1.415 . S
C798 H788 0.930 . S
C798 C796 1.419 . S
C798 C799 1.362 . S
C799 H789 0.930 . S
C799 C792 1.409 . S
C799 C798 1.362 . S
H800 C806 0.930 . S
H801 C809 0.930 . S
H802 C810 0.930 . S
H803 C811 0.930 . S
H804 C814 0.930 . S
H805 C815 0.930 . S
C806 H800 0.930 . S
C806 C807 1.355 . S
C806 C808 1.415 . S
C807 C806 1.355 . S
C807 C809 1.419 . S
C808 C806 1.415 . S
C808 C813 1.425 . S
C808 C815 1.409 . S
C809 H801 0.930 . S
C809 C807 1.419 . S
C809 C810 1.362 . S
C810 H802 0.930 . S
C810 C809 1.362 . S
C810 C813 1.409 . S
C811 H803 0.930 . S
C811 C812 1.355 . S
C811 C813 1.415 . S
C812 C811 1.355 . S
C812 C814 1.419 . S
C813 C808 1.425 . S
C813 C810 1.409 . S
C813 C811 1.415 . S
C814 H804 0.930 . S
C814 C812 1.419 . S
C814 C815 1.362 . S
C815 H805 0.930 . S
C815 C808 1.409 . S
C815 C814 1.362 . S
H816 C822 0.930 . S
H817 C825 0.930 . S
H818 C826 0.930 . S
H819 C827 0.959 . S
H820 C830 0.930 . S
H821 C831 0.930 . S
C822 H816 0.930 . S
C822 C823 1.355 1_655 S
C822 C824 1.415 . S
C823 C822 1.355 1_455 S
C823 C825 1.419 . S
C824 C822 1.415 . S
C824 C829 1.425 1_655 S
C824 C831 1.409 . S
C825 H817 0.930 . S
C825 C823 1.419 . S
C825 C826 1.362 . S
C826 H818 0.930 . S
C826 C825 1.362 . S
C826 C829 1.409 . S
C827 H819 0.959 . S
C827 C828 1.315 1_455 S
C827 C829 1.427 . S
C828 C827 1.315 1_655 S
C828 C830 1.419 . S
C829 C824 1.425 1_455 S
C829 C826 1.409 . S
C829 C827 1.427 . S
C830 H820 0.930 . S
C830 C828 1.419 . S
C830 C831 1.362 . S
C831 H821 0.930 . S
C831 C824 1.409 . S
C831 C830 1.362 . S
H832 C838 0.930 . S
H833 C841 0.930 . S
H834 C842 0.930 . S
H835 C843 0.930 . S
H836 C846 0.930 . S
H837 C847 0.930 . S
C838 H832 0.930 . S
C838 C839 1.355 . S
C838 C840 1.415 . S
C839 C838 1.355 . S
C839 C841 1.419 . S
C840 C838 1.415 . S
C840 C845 1.425 . S
C840 C847 1.409 . S
C841 H833 0.930 . S
C841 C839 1.419 . S
C841 C842 1.362 . S
C842 H834 0.930 . S
C842 C841 1.362 . S
C842 C845 1.409 . S
C843 H835 0.930 . S
C843 C844 1.355 . S
C843 C845 1.415 . S
C844 C843 1.355 . S
C844 C846 1.419 . S
C845 C840 1.425 . S
C845 C842 1.409 . S
C845 C843 1.415 . S
C846 H836 0.930 . S
C846 C844 1.419 . S
C846 C847 1.362 . S
C847 H837 0.930 . S
C847 C840 1.409 . S
C847 C846 1.362 . S
H848 C854 0.930 . S
H849 C857 0.930 1_554 S
H850 C858 0.930 . S
H851 C859 0.969 . S
H852 C862 0.930 . S
H853 C863 0.930 . S
C854 H848 0.930 . S
C854 C855 1.355 1_455 S
C854 C856 1.415 1_554 S
C855 C854 1.355 1_655 S
C855 C857 1.419 1_554 S
C856 C854 1.415 1_556 S
C856 C861 1.425 1_455 S
C856 C863 1.409 . S
C857 H849 0.930 1_556 S
C857 C855 1.419 1_556 S
C857 C858 1.362 . S
C858 H850 0.930 . S
C858 C857 1.362 . S
C858 C861 1.409 . S
C859 H851 0.969 . S
C859 C860 1.303 1_655 S
C859 C861 1.430 . S
C860 C859 1.303 1_455 S
C860 C862 1.419 . S
C861 C856 1.425 1_655 S
C861 C858 1.409 . S
C861 C859 1.430 . S
C862 H852 0.930 . S
C862 C860 1.419 . S
C862 C863 1.362 . S
C863 H853 0.930 . S
C863 C856 1.409 . S
C863 C862 1.362 . S
H864 C870 0.930 . S
H865 C873 0.930 . S
H866 C874 0.930 . S
H867 C875 0.930 . S
H868 C878 0.930 . S
H869 C879 0.930 . S
C870 H864 0.930 . S
C870 C871 1.355 . S
C870 C872 1.415 . S
C871 C870 1.355 . S
C871 C873 1.419 . S
C872 C870 1.415 . S
C872 C877 1.425 . S
C872 C879 1.409 . S
C873 H865 0.930 . S
C873 C871 1.419 . S
C873 C874 1.362 . S
C874 H866 0.930 . S
C874 C873 1.362 . S
C874 C877 1.409 . S
C875 H867 0.930 . S
C875 C876 1.355 . S
C875 C877 1.415 . S
C876 C875 1.355 . S
C876 C878 1.419 . S
C877 C872 1.425 . S
C877 C874 1.409 . S
C877 C875 1.415 . S
C878 H868 0.930 . S
C878 C876 1.419 . S
C878 C879 1.362 . S
C879 H869 0.930 . S
C879 C872 1.409 . S
C879 C878 1.362 . S
H880 C886 0.930 . S
H881 C889 0.930 . S
H882 C890 0.930 . S
H883 C891 0.930 . S
H884 C894 0.930 . S
H885 C895 0.930 . S
C886 H880 0.930 . S
C886 C887 1.355 . S
C886 C888 1.415 . S
C887 C886 1.355 . S
C887 C889 1.419 . S
C888 C886 1.415 . S
C888 C893 1.425 . S
C888 C895 1.409 . S
C889 H881 0.930 . S
C889 C887 1.419 . S
C889 C890 1.362 . S
C890 H882 0.930 . S
C890 C889 1.362 . S
C890 C893 1.409 . S
C891 H883 0.930 . S
C891 C892 1.355 . S
C891 C893 1.415 . S
C892 C891 1.355 . S
C892 C894 1.419 . S
C893 C888 1.425 . S
C893 C890 1.409 . S
C893 C891 1.415 . S
C894 H884 0.930 . S
C894 C892 1.419 . S
C894 C895 1.362 . S
C895 H885 0.930 . S
C895 C888 1.409 . S
C895 C894 1.362 . S
H896 C902 0.930 . S
H897 C905 0.930 . S
H898 C906 0.930 . S
H899 C907 0.930 . S
H900 C910 0.930 . S
H901 C911 0.930 . S
C902 H896 0.930 . S
C902 C903 1.355 . S
C902 C904 1.415 . S
C903 C902 1.355 . S
C903 C905 1.419 . S
C904 C902 1.415 . S
C904 C909 1.425 . S
C904 C911 1.409 . S
C905 H897 0.930 . S
C905 C903 1.419 . S
C905 C906 1.362 . S
C906 H898 0.930 . S
C906 C905 1.362 . S
C906 C909 1.409 . S
C907 H899 0.930 . S
C907 C908 1.355 . S
C907 C909 1.415 . S
C908 C907 1.355 . S
C908 C910 1.419 . S
C909 C904 1.425 . S
C909 C906 1.409 . S
C909 C907 1.415 . S
C910 H900 0.930 . S
C910 C908 1.419 . S
C910 C911 1.362 . S
C911 H901 0.930 . S
C911 C904 1.409 . S
C911 C910 1.362 . S
H912 C918 0.930 . S
H913 C921 0.930 . S
H914 C922 0.930 . S
H915 C923 0.930 . S
H916 C926 0.930 1_556 S
H917 C927 0.930 . S
C918 H912 0.930 . S
C918 C919 1.355 . S
C918 C920 1.415 . S
C919 C918 1.355 . S
C919 C921 1.419 . S
C920 C918 1.415 . S
C920 C925 1.425 . S
C920 C927 1.409 . S
C921 H913 0.930 . S
C921 C919 1.419 . S
C921 C922 1.362 . S
C922 H914 0.930 . S
C922 C921 1.362 . S
C922 C925 1.409 . S
C923 H915 0.930 . S
C923 C924 1.355 . S
C923 C925 1.415 1_556 S
C924 C923 1.355 . S
C924 C926 1.419 1_556 S
C925 C920 1.425 . S
C925 C922 1.409 . S
C925 C923 1.415 1_554 S
C926 H916 0.930 1_554 S
C926 C924 1.419 1_554 S
C926 C927 1.362 . S
C927 H917 0.930 . S
C927 C920 1.409 . S
C927 C926 1.362 . S
H928 C934 0.930 . S
H929 C937 0.930 . S
H930 C938 0.930 . S
H931 C939 0.930 . S
H932 C942 0.930 . S
H933 C943 0.930 . S
C934 H928 0.930 . S
C934 C935 1.355 . S
C934 C936 1.415 . S
C935 C934 1.355 . S
C935 C937 1.419 . S
C936 C934 1.415 . S
C936 C941 1.425 . S
C936 C943 1.409 . S
C937 H929 0.930 . S
C937 C935 1.419 . S
C937 C938 1.362 . S
C938 H930 0.930 . S
C938 C937 1.362 . S
C938 C941 1.409 . S
C939 H931 0.930 . S
C939 C940 1.355 . S
C939 C941 1.415 . S
C940 C939 1.355 . S
C940 C942 1.419 . S
C941 C936 1.425 . S
C941 C938 1.409 . S
C941 C939 1.415 . S
C942 H932 0.930 . S
C942 C940 1.419 . S
C942 C943 1.362 . S
C943 H933 0.930 . S
C943 C936 1.409 . S
C943 C942 1.362 . S
H944 C950 0.930 . S
H945 C953 0.930 . S
H946 C954 0.930 . S
H947 C955 0.930 . S
H948 C958 0.930 . S
H949 C959 0.930 . S
C950 H944 0.930 . S
C950 C951 1.355 . S
C950 C952 1.415 . S
C951 C950 1.355 . S
C951 C953 1.419 1_655 S
C952 C950 1.415 . S
C952 C957 1.425 1_655 S
C952 C959 1.409 . S
C953 H945 0.930 . S
C953 C951 1.419 1_455 S
C953 C954 1.362 . S
C954 H946 0.930 . S
C954 C953 1.362 . S
C954 C957 1.409 . S
C955 H947 0.930 . S
C955 C956 1.355 . S
C955 C957 1.415 . S
C956 C955 1.355 . S
C956 C958 1.419 1_455 S
C957 C952 1.425 1_455 S
C957 C954 1.409 . S
C957 C955 1.415 . S
C958 H948 0.930 . S
C958 C956 1.419 1_655 S
C958 C959 1.362 . S
C959 H949 0.930 . S
C959 C952 1.409 . S
C959 C958 1.362 . S
H960 C966 0.930 . S
H961 C969 0.930 . S
H962 C970 0.930 . S
H963 C971 0.930 . S
H964 C974 0.930 . S
H965 C975 0.930 . S
C966 H960 0.930 . S
C966 C967 1.355 . S
C966 C968 1.415 . S
C967 C966 1.355 . S
C967 C969 1.419 . S
C968 C966 1.415 . S
C968 C973 1.425 . S
C968 C975 1.409 . S
C969 H961 0.930 . S
C969 C967 1.419 . S
C969 C970 1.362 . S
C970 H962 0.930 . S
C970 C969 1.362 . S
C970 C973 1.409 . S
C971 H963 0.930 . S
C971 C972 1.355 . S
C971 C973 1.415 . S
C972 C971 1.355 . S
C972 C974 1.419 . S
C973 C968 1.425 . S
C973 C970 1.409 . S
C973 C971 1.415 . S
C974 H964 0.930 . S
C974 C972 1.419 . S
C974 C975 1.362 . S
C975 H965 0.930 . S
C975 C968 1.409 . S
C975 C974 1.362 . S
H976 C982 0.930 . S
H977 C985 0.930 . S
H978 C986 0.930 . S
H979 C987 0.930 . S
H980 C990 0.930 . S
H981 C991 0.930 . S
C982 H976 0.930 . S
C982 C983 1.355 . S
C982 C984 1.415 . S
C983 C982 1.355 . S
C983 C985 1.419 . S
C984 C982 1.415 . S
C984 C989 1.425 . S
C984 C991 1.409 . S
C985 H977 0.930 . S
C985 C983 1.419 . S
C985 C986 1.362 . S
C986 H978 0.930 . S
C986 C985 1.362 . S
C986 C989 1.409 . S
C987 H979 0.930 . S
C987 C988 1.355 . S
C987 C989 1.415 . S
C988 C987 1.355 . S
C988 C990 1.419 . S
C989 C984 1.425 . S
C989 C986 1.409 . S
C989 C987 1.415 . S
C990 H980 0.930 . S
C990 C988 1.419 . S
C990 C991 1.362 . S
C991 H981 0.930 . S
C991 C984 1.409 . S
C991 C990 1.362 . S
H992 C998 0.930 . S
H993 C1001 0.930 . S
H994 C1002 0.930 . S
H995 C1003 0.930 . S
H996 C1006 0.930 . S
H997 C1007 0.930 . S
C998 H992 0.930 . S
C998 C999 1.355 . S
C998 C1000 1.415 . S
C999 C998 1.355 . S
C999 C1001 1.419 . S
C1000 C998 1.415 . S
C1000 C1005 1.425 . S
C1000 C1007 1.409 . S
C1001 H993 0.930 . S
C1001 C999 1.419 . S
C1001 C1002 1.362 . S
C1002 H994 0.930 . S
C1002 C1001 1.362 . S
C1002 C1005 1.409 . S
C1003 H995 0.930 . S
C1003 C1004 1.355 . S
C1003 C1005 1.415 . S
C1004 C1003 1.355 . S
C1004 C1006 1.419 . S
C1005 C1000 1.425 . S
C1005 C1002 1.409 . S
C1005 C1003 1.415 . S
C1006 H996 0.930 . S
C1006 C1004 1.419 . S
C1006 C1007 1.362 . S
C1007 H997 0.930 . S
C1007 C1000 1.409 . S
C1007 C1006 1.362 . S
H1008 C1014 0.935 . S
H1009 C1017 0.930 . S
H1010 C1018 0.930 . S
H1011 C1019 0.930 . S
H1012 C1022 0.930 . S
H1013 C1023 0.930 . S
C1014 H1008 0.935 . S
C1014 C1015 1.347 1_655 S
C1014 C1016 1.417 . S
C1015 C1014 1.347 1_455 S
C1015 C1017 1.419 . S
C1016 C1014 1.417 . S
C1016 C1021 1.425 1_655 S
C1016 C1023 1.409 . S
C1017 H1009 0.930 . S
C1017 C1015 1.419 . S
C1017 C1018 1.362 . S
C1018 H1010 0.930 . S
C1018 C1017 1.362 . S
C1018 C1021 1.409 . S
C1019 H1011 0.930 . S
C1019 C1020 1.355 1_455 S
C1019 C1021 1.415 1_556 S
C1020 C1019 1.355 1_655 S
C1020 C1022 1.419 . S
C1021 C1016 1.425 1_455 S
C1021 C1018 1.409 . S
C1021 C1019 1.415 1_554 S
C1022 H1012 0.930 . S
C1022 C1020 1.419 . S
C1022 C1023 1.362 1_556 S
C1023 H1013 0.930 . S
C1023 C1016 1.409 . S
C1023 C1022 1.362 1_554 S
H1024 C1030 0.930 . S
H1025 C1033 0.930 . S
H1026 C1034 0.930 . S
H1027 C1035 0.930 . S
H1028 C1038 0.930 . S
H1029 C1039 0.930 . S
C1030 H1024 0.930 . S
C1030 C1031 1.355 . S
C1030 C1032 1.415 . S
C1031 C1030 1.355 . S
C1031 C1033 1.419 . S
C1032 C1030 1.415 . S
C1032 C1037 1.425 . S
C1032 C1039 1.409 . S
C1033 H1025 0.930 . S
C1033 C1031 1.419 . S
C1033 C1034 1.362 . S
C1034 H1026 0.930 . S
C1034 C1033 1.362 . S
C1034 C1037 1.409 . S
C1035 H1027 0.930 . S
C1035 C1036 1.355 . S
C1035 C1037 1.415 . S
C1036 C1035 1.355 . S
C1036 C1038 1.419 . S
C1037 C1032 1.425 . S
C1037 C1034 1.409 . S
C1037 C1035 1.415 . S
C1038 H1028 0.930 . S
C1038 C1036 1.419 . S
C1038 C1039 1.362 . S
C1039 H1029 0.930 . S
C1039 C1032 1.409 . S
C1039 C1038 1.362 . S
H1040 C1046 0.930 . S
H1041 C1049 0.930 . S
H1042 C1050 0.930 . S
H1043 C1051 0.930 . S
H1044 C1054 0.930 . S
H1045 C1055 0.930 . S
C1046 H1040 0.930 . S
C1046 C1047 1.355 . S
C1046 C1048 1.415 1_655 S
C1047 C1046 1.355 . S
C1047 C1049 1.419 . S
C1048 C1046 1.415 1_455 S
C1048 C1053 1.425 1_455 S
C1048 C1055 1.409 . S
C1049 H1041 0.930 . S
C1049 C1047 1.419 . S
C1049 C1050 1.362 . S
C1050 H1042 0.930 . S
C1050 C1049 1.362 . S
C1050 C1053 1.411 . S
C1051 H1043 0.930 . S
C1051 C1052 1.355 . S
C1051 C1053 1.413 1_455 S
C1052 C1051 1.355 . S
C1052 C1054 1.419 . S
C1053 C1048 1.425 1_655 S
C1053 C1050 1.411 . S
C1053 C1051 1.413 1_655 S
C1054 H1044 0.930 . S
C1054 C1052 1.419 . S
C1054 C1055 1.362 . S
C1055 H1045 0.930 . S
C1055 C1048 1.409 . S
C1055 C1054 1.362 . S
H1056 C1062 0.930 . S
H1057 C1065 0.930 . S
H1058 C1066 0.930 . S
H1059 C1067 0.930 . S
H1060 C1070 0.930 . S
H1061 C1071 0.930 . S
C1062 H1056 0.930 . S
C1062 C1063 1.355 . S
C1062 C1064 1.415 . S
C1063 C1062 1.355 . S
C1063 C1065 1.419 . S
C1064 C1062 1.415 . S
C1064 C1069 1.425 . S
C1064 C1071 1.409 . S
C1065 H1057 0.930 . S
C1065 C1063 1.419 . S
C1065 C1066 1.362 . S
C1066 H1058 0.930 . S
C1066 C1065 1.362 . S
C1066 C1069 1.409 . S
C1067 H1059 0.930 . S
C1067 C1068 1.355 . S
C1067 C1069 1.415 . S
C1068 C1067 1.355 . S
C1068 C1070 1.419 . S
C1069 C1064 1.425 . S
C1069 C1066 1.409 . S
C1069 C1067 1.415 . S
C1070 H1060 0.930 . S
C1070 C1068 1.419 . S
C1070 C1071 1.362 . S
C1071 H1061 0.930 . S
C1071 C1064 1.409 . S
C1071 C1070 1.362 . S
H1072 C1078 0.930 . S
H1073 C1081 0.924 1_554 S
H1074 C1082 0.930 . S
H1075 C1083 0.930 . S
H1076 C1086 0.930 . S
H1077 C1087 0.930 . S
C1078 H1072 0.930 . S
C1078 C1079 1.355 . S
C1078 C1080 1.415 1_554 S
C1079 C1078 1.355 . S
C1079 C1081 1.407 1_554 S
C1080 C1078 1.415 1_556 S
C1080 C1085 1.425 . S
C1080 C1087 1.409 . S
C1081 H1073 0.924 1_556 S
C1081 C1079 1.407 1_556 S
C1081 C1082 1.380 . S
C1082 H1074 0.930 . S
C1082 C1081 1.380 . S
C1082 C1085 1.409 . S
C1083 H1075 0.930 . S
C1083 C1084 1.355 . S
C1083 C1085 1.415 . S
C1084 C1083 1.355 . S
C1084 C1086 1.419 . S
C1085 C1080 1.425 . S
C1085 C1082 1.409 . S
C1085 C1083 1.415 . S
C1086 H1076 0.930 . S
C1086 C1084 1.419 . S
C1086 C1087 1.362 . S
C1087 H1077 0.930 . S
C1087 C1080 1.409 . S
C1087 C1086 1.362 . S
H1088 C1094 0.930 . S
H1089 C1097 0.930 . S
H1090 C1098 0.930 . S
H1091 C1099 0.930 . S
H1092 C1102 0.930 . S
H1093 C1103 0.930 . S
C1094 H1088 0.930 . S
C1094 C1095 1.355 . S
C1094 C1096 1.415 . S
C1095 C1094 1.355 . S
C1095 C1097 1.419 . S
C1096 C1094 1.415 . S
C1096 C1101 1.425 . S
C1096 C1103 1.409 . S
C1097 H1089 0.930 . S
C1097 C1095 1.419 . S
C1097 C1098 1.362 . S
C1098 H1090 0.930 . S
C1098 C1097 1.362 . S
C1098 C1101 1.409 . S
C1099 H1091 0.930 . S
C1099 C1100 1.355 . S
C1099 C1101 1.415 . S
C1100 C1099 1.355 . S
C1100 C1102 1.419 . S
C1101 C1096 1.425 . S
C1101 C1098 1.409 . S
C1101 C1099 1.415 . S
C1102 H1092 0.930 . S
C1102 C1100 1.419 . S
C1102 C1103 1.362 . S
C1103 H1093 0.930 . S
C1103 C1096 1.409 . S
C1103 C1102 1.362 . S
H1104 C1110 0.930 . S
H1105 C1113 0.930 . S
H1106 C1114 0.930 . S
H1107 C1115 0.930 . S
H1108 C1118 0.930 . S
H1109 C1119 0.930 . S
C1110 H1104 0.930 . S
C1110 C1111 1.355 . S
C1110 C1112 1.415 . S
C1111 C1110 1.355 . S
C1111 C1113 1.419 . S
C1112 C1110 1.415 . S
C1112 C1117 1.425 . S
C1112 C1119 1.409 . S
C1113 H1105 0.930 . S
C1113 C1111 1.419 . S
C1113 C1114 1.362 . S
C1114 H1106 0.930 . S
C1114 C1113 1.362 . S
C1114 C1117 1.409 . S
C1115 H1107 0.930 . S
C1115 C1116 1.355 . S
C1115 C1117 1.415 . S
C1116 C1115 1.355 . S
C1116 C1118 1.419 . S
C1117 C1112 1.425 . S
C1117 C1114 1.409 . S
C1117 C1115 1.415 . S
C1118 H1108 0.930 . S
C1118 C1116 1.419 . S
C1118 C1119 1.362 . S
C1119 H1109 0.930 . S
C1119 C1112 1.409 . S
C1119 C1118 1.362 . S
H1120 C1126 0.930 . S
H1121 C1129 0.930 . S
H1122 C1130 0.930 . S
H1123 C1131 0.930 . S
H1124 C1134 0.930 . S
H1125 C1135 0.930 . S
C1126 H1120 0.930 . S
C1126 C1127 1.355 . S
C1126 C1128 1.415 . S
C1127 C1126 1.355 . S
C1127 C1129 1.419 . S
C1128 C1126 1.415 . S
C1128 C1133 1.425 . S
C1128 C1135 1.409 . S
C1129 H1121 0.930 . S
C1129 C1127 1.419 . S
C1129 C1130 1.362 . S
C1130 H1122 0.930 . S
C1130 C1129 1.362 . S
C1130 C1133 1.409 . S
C1131 H1123 0.930 . S
C1131 C1132 1.355 . S
C1131 C1133 1.415 . S
C1132 C1131 1.355 . S
C1132 C1134 1.419 . S
C1133 C1128 1.425 . S
C1133 C1130 1.409 . S
C1133 C1131 1.415 . S
C1134 H1124 0.930 . S
C1134 C1132 1.419 . S
C1134 C1135 1.362 . S
C1135 H1125 0.930 . S
C1135 C1128 1.409 . S
C1135 C1134 1.362 . S
H1136 C1142 0.930 1_455 S
H1137 C1145 0.930 . S
H1138 C1146 0.930 . S
H1139 C1147 0.909 1_655 S
H1140 C1150 0.930 . S
H1141 C1151 0.930 . S
C1142 H1136 0.930 1_655 S
C1142 C1143 1.355 . S
C1142 C1144 1.415 1_655 S
C1143 C1142 1.355 . S
C1143 C1145 1.419 . S
C1144 C1142 1.415 1_455 S
C1144 C1149 1.425 1_455 S
C1144 C1151 1.409 . S
C1145 H1137 0.930 . S
C1145 C1143 1.419 . S
C1145 C1146 1.362 . S
C1146 H1138 0.930 . S
C1146 C1145 1.362 . S
C1146 C1149 1.409 . S
C1147 H1139 0.909 1_455 S
C1147 C1148 1.392 . S
C1147 C1149 1.399 1_454 S
C1148 C1147 1.392 . S
C1148 C1150 1.419 . S
C1149 C1144 1.425 1_655 S
C1149 C1146 1.409 . S
C1149 C1147 1.399 1_656 S
C1150 H1140 0.930 . S
C1150 C1148 1.419 . S
C1150 C1151 1.362 1_554 S
C1151 H1141 0.930 . S
C1151 C1144 1.409 . S
C1151 C1150 1.362 1_556 S
H1152 C1158 0.930 . S
H1153 C1161 0.930 . S
H1154 C1162 0.930 . S
H1155 C1163 0.930 . S
H1156 C1166 0.930 . S
H1157 C1167 0.930 . S
C1158 H1152 0.930 . S
C1158 C1159 1.355 . S
C1158 C1160 1.415 . S
C1159 C1158 1.355 . S
C1159 C1161 1.419 . S
C1160 C1158 1.415 . S
C1160 C1165 1.425 . S
C1160 C1167 1.409 . S
C1161 H1153 0.930 . S
C1161 C1159 1.419 . S
C1161 C1162 1.362 . S
C1162 H1154 0.930 . S
C1162 C1161 1.362 . S
C1162 C1165 1.409 . S
C1163 H1155 0.930 . S
C1163 C1164 1.355 . S
C1163 C1165 1.415 . S
C1164 C1163 1.355 . S
C1164 C1166 1.419 . S
C1165 C1160 1.425 . S
C1165 C1162 1.409 . S
C1165 C1163 1.415 . S
C1166 H1156 0.930 . S
C1166 C1164 1.419 . S
C1166 C1167 1.362 . S
C1167 H1157 0.930 . S
C1167 C1160 1.409 . S
C1167 C1166 1.362 . S
H1168 C1174 0.930 . S
H1169 C1177 0.930 . S
H1170 C1178 0.930 . S
H1171 C1179 0.930 . S
H1172 C1182 0.930 . S
H1173 C1183 0.930 . S
C1174 H1168 0.930 . S
C1174 C1175 1.355 . S
C1174 C1176 1.415 . S
C1175 C1174 1.355 . S
C1175 C1177 1.419 1_655 S
C1176 C1174 1.415 . S
C1176 C1181 1.425 1_655 S
C1176 C1183 1.409 . S
C1177 H1169 0.930 . S
C1177 C1175 1.419 1_455 S
C1177 C1178 1.362 . S
C1178 H1170 0.930 . S
C1178 C1177 1.362 . S
C1178 C1181 1.409 . S
C1179 H1171 0.930 . S
C1179 C1180 1.355 . S
C1179 C1181 1.415 . S
C1180 C1179 1.355 . S
C1180 C1182 1.419 1_455 S
C1181 C1176 1.425 1_455 S
C1181 C1178 1.409 . S
C1181 C1179 1.415 . S
C1182 H1172 0.930 . S
C1182 C1180 1.419 1_655 S
C1182 C1183 1.362 . S
C1183 H1173 0.930 . S
C1183 C1176 1.409 . S
C1183 C1182 1.362 . S
H1184 C1190 0.930 . S
H1185 C1193 0.930 . S
H1186 C1194 0.930 . S
H1187 C1195 0.930 . S
H1188 C1198 0.930 . S
H1189 C1199 0.930 . S
C1190 H1184 0.930 . S
C1190 C1191 1.355 . S
C1190 C1192 1.415 . S
C1191 C1190 1.355 . S
C1191 C1193 1.419 . S
C1192 C1190 1.415 . S
C1192 C1197 1.425 . S
C1192 C1199 1.409 . S
C1193 H1185 0.930 . S
C1193 C1191 1.419 . S
C1193 C1194 1.362 . S
C1194 H1186 0.930 . S
C1194 C1193 1.362 . S
C1194 C1197 1.409 . S
C1195 H1187 0.930 . S
C1195 C1196 1.355 . S
C1195 C1197 1.415 . S
C1196 C1195 1.355 . S
C1196 C1198 1.419 . S
C1197 C1192 1.425 . S
C1197 C1194 1.409 . S
C1197 C1195 1.415 . S
C1198 H1188 0.930 . S
C1198 C1196 1.419 . S
C1198 C1199 1.362 . S
C1199 H1189 0.930 . S
C1199 C1192 1.409 . S
C1199 C1198 1.362 . S
H1200 C1206 0.930 . S
H1201 C1209 0.930 . S
H1202 C1210 0.930 . S
H1203 C1211 0.930 . S
H1204 C1214 0.930 . S
H1205 C1215 0.930 1_556 S
C1206 H1200 0.930 . S
C1206 C1207 1.355 . S
C1206 C1208 1.415 . S
C1207 C1206 1.355 . S
C1207 C1209 1.419 . S
C1208 C1206 1.415 . S
C1208 C1213 1.425 . S
C1208 C1215 1.409 . S
C1209 H1201 0.930 . S
C1209 C1207 1.419 . S
C1209 C1210 1.362 . S
C1210 H1202 0.930 . S
C1210 C1209 1.362 . S
C1210 C1213 1.409 . S
C1211 H1203 0.930 . S
C1211 C1212 1.355 1_554 S
C1211 C1213 1.415 . S
C1212 C1211 1.355 1_556 S
C1212 C1214 1.419 . S
C1213 C1208 1.425 . S
C1213 C1210 1.409 . S
C1213 C1211 1.415 . S
C1214 H1204 0.930 . S
C1214 C1212 1.419 . S
C1214 C1215 1.362 1_556 S
C1215 H1205 0.930 1_554 S
C1215 C1208 1.409 . S
C1215 C1214 1.362 1_554 S
H1216 C1222 0.930 . S
H1217 C1225 0.930 . S
H1218 C1226 0.930 . S
H1219 C1227 0.930 . S
H1220 C1230 0.930 . S
H1221 C1231 0.930 . S
C1222 H1216 0.930 . S
C1222 C1223 1.355 . S
C1222 C1224 1.415 . S
C1223 C1222 1.355 . S
C1223 C1225 1.419 . S
C1224 C1222 1.415 . S
C1224 C1229 1.425 . S
C1224 C1231 1.409 . S
C1225 H1217 0.930 . S
C1225 C1223 1.419 . S
C1225 C1226 1.362 . S
C1226 H1218 0.930 . S
C1226 C1225 1.362 . S
C1226 C1229 1.409 . S
C1227 H1219 0.930 . S
C1227 C1228 1.355 . S
C1227 C1229 1.415 . S
C1228 C1227 1.355 . S
C1228 C1230 1.419 . S
C1229 C1224 1.425 . S
C1229 C1226 1.409 . S
C1229 C1227 1.415 . S
C1230 H1220 0.930 . S
C1230 C1228 1.419 . S
C1230 C1231 1.362 . S
C1231 H1221 0.930 . S
C1231 C1224 1.409 . S
C1231 C1230 1.362 . S
H1232 C1238 0.930 . S
H1233 C1241 0.930 . S
H1234 C1242 0.930 . S
H1235 C1243 0.930 . S
H1236 C1246 0.930 . S
H1237 C1247 0.930 . S
C1238 H1232 0.930 . S
C1238 C1239 1.355 . S
C1238 C1240 1.415 . S
C1239 C1238 1.355 . S
C1239 C1241 1.419 . S
C1240 C1238 1.415 . S
C1240 C1245 1.425 . S
C1240 C1247 1.409 . S
C1241 H1233 0.930 . S
C1241 C1239 1.419 . S
C1241 C1242 1.362 . S
C1242 H1234 0.930 . S
C1242 C1241 1.362 . S
C1242 C1245 1.409 . S
C1243 H1235 0.930 . S
C1243 C1244 1.355 . S
C1243 C1245 1.415 . S
C1244 C1243 1.355 . S
C1244 C1246 1.419 . S
C1245 C1240 1.425 . S
C1245 C1242 1.409 . S
C1245 C1243 1.415 . S
C1246 H1236 0.930 . S
C1246 C1244 1.419 . S
C1246 C1247 1.362 . S
C1247 H1237 0.930 . S
C1247 C1240 1.409 . S
C1247 C1246 1.362 . S
H1248 C1254 0.930 . S
H1249 C1257 0.930 . S
H1250 C1258 0.930 . S
H1251 C1259 0.930 . S
H1252 C1262 0.930 . S
H1253 C1263 0.930 . S
C1254 H1248 0.930 . S
C1254 C1255 1.355 . S
C1254 C1256 1.415 . S
C1255 C1254 1.355 . S
C1255 C1257 1.419 . S
C1256 C1254 1.415 . S
C1256 C1261 1.425 . S
C1256 C1263 1.409 . S
C1257 H1249 0.930 . S
C1257 C1255 1.419 . S
C1257 C1258 1.362 . S
C1258 H1250 0.930 . S
C1258 C1257 1.362 . S
C1258 C1261 1.409 . S
C1259 H1251 0.930 . S
C1259 C1260 1.355 . S
C1259 C1261 1.415 . S
C1260 C1259 1.355 . S
C1260 C1262 1.419 . S
C1261 C1256 1.425 . S
C1261 C1258 1.409 . S
C1261 C1259 1.415 . S
C1262 H1252 0.930 . S
C1262 C1260 1.419 . S
C1262 C1263 1.362 . S
C1263 H1253 0.930 . S
C1263 C1256 1.409 . S
C1263 C1262 1.362 . S
H1264 C1270 0.930 . S
H1265 C1273 0.930 . S
H1266 C1274 0.930 . S
H1267 C1275 0.930 . S
H1268 C1278 0.930 . S
H1269 C1279 0.930 . S
C1270 H1264 0.930 . S
C1270 C1271 1.355 . S
C1270 C1272 1.415 . S
C1271 C1270 1.355 . S
C1271 C1273 1.419 . S
C1272 C1270 1.415 . S
C1272 C1277 1.425 . S
C1272 C1279 1.409 . S
C1273 H1265 0.930 . S
C1273 C1271 1.419 . S
C1273 C1274 1.362 . S
C1274 H1266 0.930 . S
C1274 C1273 1.362 . S
C1274 C1277 1.409 . S
C1275 H1267 0.930 . S
C1275 C1276 1.355 . S
C1275 C1277 1.415 . S
C1276 C1275 1.355 . S
C1276 C1278 1.419 . S
C1277 C1272 1.425 . S
C1277 C1274 1.409 . S
C1277 C1275 1.415 . S
C1278 H1268 0.930 . S
C1278 C1276 1.419 . S
C1278 C1279 1.362 . S
C1279 H1269 0.930 . S
C1279 C1272 1.409 . S
C1279 C1278 1.362 . S
H1280 C1286 0.930 . S
H1281 C1289 0.930 . S
H1282 C1290 0.930 . S
H1283 C1291 0.930 . S
H1284 C1294 0.930 . S
H1285 C1295 0.930 . S
C1286 H1280 0.930 . S
C1286 C1287 1.355 . S
C1286 C1288 1.415 . S
C1287 C1286 1.355 . S
C1287 C1289 1.419 . S
C1288 C1286 1.415 . S
C1288 C1293 1.425 . S
C1288 C1295 1.409 . S
C1289 H1281 0.930 . S
C1289 C1287 1.419 . S
C1289 C1290 1.362 . S
C1290 H1282 0.930 . S
C1290 C1289 1.362 . S
C1290 C1293 1.409 . S
C1291 H1283 0.930 . S
C1291 C1292 1.355 . S
C1291 C1293 1.415 . S
C1292 C1291 1.355 . S
C1292 C1294 1.419 . S
C1293 C1288 1.425 . S
C1293 C1290 1.409 . S
C1293 C1291 1.415 . S
C1294 H1284 0.930 . S
C1294 C1292 1.419 . S
C1294 C1295 1.362 . S
C1295 H1285 0.930 . S
C1295 C1288 1.409 . S
C1295 C1294 1.362 . S
H1296 C1302 0.930 . S
H1297 C1305 0.930 . S
H1298 C1306 0.930 . S
H1299 C1307 0.930 . S
H1300 C1310 0.930 . S
H1301 C1311 0.930 . S
C1302 H1296 0.930 . S
C1302 C1303 1.355 . S
C1302 C1304 1.415 . S
C1303 C1302 1.355 . S
C1303 C1305 1.419 . S
C1304 C1302 1.415 . S
C1304 C1309 1.425 . S
C1304 C1311 1.409 . S
C1305 H1297 0.930 . S
C1305 C1303 1.419 . S
C1305 C1306 1.362 . S
C1306 H1298 0.930 . S
C1306 C1305 1.362 . S
C1306 C1309 1.409 . S
C1307 H1299 0.930 . S
C1307 C1308 1.355 . S
C1307 C1309 1.415 . S
C1308 C1307 1.355 . S
C1308 C1310 1.419 . S
C1309 C1304 1.425 . S
C1309 C1306 1.409 . S
C1309 C1307 1.415 . S
C1310 H1300 0.930 . S
C1310 C1308 1.419 . S
C1310 C1311 1.362 . S
C1311 H1301 0.930 . S
C1311 C1304 1.409 . S
C1311 C1310 1.362 . S
H1312 C1318 0.930 . S
H1313 C1321 0.930 . S
H1314 C1322 0.930 . S
H1315 C1323 0.930 . S
H1316 C1326 0.930 . S
H1317 C1327 0.930 . S
C1318 H1312 0.930 . S
C1318 C1319 1.355 . S
C1318 C1320 1.415 . S
C1319 C1318 1.355 . S
C1319 C1321 1.419 . S
C1320 C1318 1.415 . S
C1320 C1325 1.425 . S
C1320 C1327 1.409 . S
C1321 H1313 0.930 . S
C1321 C1319 1.419 . S
C1321 C1322 1.362 . S
C1322 H1314 0.930 . S
C1322 C1321 1.362 . S
C1322 C1325 1.409 . S
C1323 H1315 0.930 . S
C1323 C1324 1.355 . S
C1323 C1325 1.415 . S
C1324 C1323 1.355 . S
C1324 C1326 1.419 . S
C1325 C1320 1.425 . S
C1325 C1322 1.409 . S
C1325 C1323 1.415 . S
C1326 H1316 0.930 . S
C1326 C1324 1.419 . S
C1326 C1327 1.362 . S
C1327 H1317 0.930 . S
C1327 C1320 1.409 . S
C1327 C1326 1.362 . S
H1328 C1334 0.930 . S
H1329 C1337 0.930 . S
H1330 C1338 0.930 . S
H1331 C1339 0.930 . S
H1332 C1342 0.930 . S
H1333 C1343 0.930 . S
C1334 H1328 0.930 . S
C1334 C1335 1.355 . S
C1334 C1336 1.415 . S
C1335 C1334 1.355 . S
C1335 C1337 1.419 . S
C1336 C1334 1.415 . S
C1336 C1341 1.425 . S
C1336 C1343 1.409 . S
C1337 H1329 0.930 . S
C1337 C1335 1.419 . S
C1337 C1338 1.362 . S
C1338 H1330 0.930 . S
C1338 C1337 1.362 . S
C1338 C1341 1.409 . S
C1339 H1331 0.930 . S
C1339 C1340 1.355 . S
C1339 C1341 1.415 . S
C1340 C1339 1.355 . S
C1340 C1342 1.419 . S
C1341 C1336 1.425 . S
C1341 C1338 1.409 . S
C1341 C1339 1.415 . S
C1342 H1332 0.930 . S
C1342 C1340 1.419 . S
C1342 C1343 1.362 . S
C1343 H1333 0.930 . S
C1343 C1336 1.409 . S
C1343 C1342 1.362 . S
H1344 C1350 0.930 . S
H1345 C1353 0.930 . S
H1346 C1354 0.930 . S
H1347 C1355 0.930 . S
H1348 C1358 0.930 . S
H1349 C1359 0.930 . S
C1350 H1344 0.930 . S
C1350 C1351 1.355 . S
C1350 C1352 1.415 . S
C1351 C1350 1.355 . S
C1351 C1353 1.419 . S
C1352 C1350 1.415 . S
C1352 C1357 1.425 . S
C1352 C1359 1.409 . S
C1353 H1345 0.930 . S
C1353 C1351 1.419 . S
C1353 C1354 1.362 . S
C1354 H1346 0.930 . S
C1354 C1353 1.362 . S
C1354 C1357 1.409 . S
C1355 H1347 0.930 . S
C1355 C1356 1.355 . S
C1355 C1357 1.415 . S
C1356 C1355 1.355 . S
C1356 C1358 1.419 . S
C1357 C1352 1.425 . S
C1357 C1354 1.409 . S
C1357 C1355 1.415 . S
C1358 H1348 0.930 . S
C1358 C1356 1.419 . S
C1358 C1359 1.362 . S
C1359 H1349 0.930 . S
C1359 C1352 1.409 . S
C1359 C1358 1.362 . S
H1360 C1366 0.930 . S
H1361 C1369 0.930 . S
H1362 C1370 0.930 . S
H1363 C1371 0.930 . S
H1364 C1374 0.930 . S
H1365 C1375 0.930 . S
C1366 H1360 0.930 . S
C1366 C1367 1.355 . S
C1366 C1368 1.415 . S
C1367 C1366 1.355 . S
C1367 C1369 1.419 . S
C1368 C1366 1.415 . S
C1368 C1373 1.425 . S
C1368 C1375 1.409 . S
C1369 H1361 0.930 . S
C1369 C1367 1.419 . S
C1369 C1370 1.362 . S
C1370 H1362 0.930 . S
C1370 C1369 1.362 . S
C1370 C1373 1.409 . S
C1371 H1363 0.930 . S
C1371 C1372 1.355 . S
C1371 C1373 1.415 . S
C1372 C1371 1.355 . S
C1372 C1374 1.419 . S
C1373 C1368 1.425 . S
C1373 C1370 1.409 . S
C1373 C1371 1.415 . S
C1374 H1364 0.930 . S
C1374 C1372 1.419 . S
C1374 C1375 1.362 . S
C1375 H1365 0.930 . S
C1375 C1368 1.409 . S
C1375 C1374 1.362 . S
H1376 C1382 0.930 . S
H1377 C1385 0.930 . S
H1378 C1386 0.930 . S
H1379 C1387 0.930 . S
H1380 C1390 0.930 . S
H1381 C1391 0.930 . S
C1382 H1376 0.930 . S
C1382 C1383 1.355 . S
C1382 C1384 1.415 . S
C1383 C1382 1.355 . S
C1383 C1385 1.419 . S
C1384 C1382 1.415 . S
C1384 C1389 1.425 . S
C1384 C1391 1.409 . S
C1385 H1377 0.930 . S
C1385 C1383 1.419 . S
C1385 C1386 1.362 . S
C1386 H1378 0.930 . S
C1386 C1385 1.362 . S
C1386 C1389 1.409 . S
C1387 H1379 0.930 . S
C1387 C1388 1.355 . S
C1387 C1389 1.415 . S
C1388 C1387 1.355 . S
C1388 C1390 1.419 . S
C1389 C1384 1.425 . S
C1389 C1386 1.409 . S
C1389 C1387 1.415 . S
C1390 H1380 0.930 . S
C1390 C1388 1.419 . S
C1390 C1391 1.362 . S
C1391 H1381 0.930 . S
C1391 C1384 1.409 . S
C1391 C1390 1.362 . S
H1392 C1398 0.930 . S
H1393 C1401 0.930 . S
H1394 C1402 0.930 . S
H1395 C1403 0.930 . S
H1396 C1406 0.930 . S
H1397 C1407 0.930 . S
C1398 H1392 0.930 . S
C1398 C1399 1.355 . S
C1398 C1400 1.415 . S
C1399 C1398 1.355 . S
C1399 C1401 1.419 . S
C1400 C1398 1.415 . S
C1400 C1405 1.425 . S
C1400 C1407 1.409 . S
C1401 H1393 0.930 . S
C1401 C1399 1.419 . S
C1401 C1402 1.362 . S
C1402 H1394 0.930 . S
C1402 C1401 1.362 . S
C1402 C1405 1.409 . S
C1403 H1395 0.930 . S
C1403 C1404 1.355 . S
C1403 C1405 1.415 . S
C1404 C1403 1.355 . S
C1404 C1406 1.419 . S
C1405 C1400 1.425 . S
C1405 C1402 1.409 . S
C1405 C1403 1.415 . S
C1406 H1396 0.930 . S
C1406 C1404 1.419 . S
C1406 C1407 1.362 . S
C1407 H1397 0.930 . S
C1407 C1400 1.409 . S
C1407 C1406 1.362 . S
H1408 C1414 0.930 . S
H1409 C1417 0.930 . S
H1410 C1418 0.930 . S
H1411 C1419 0.930 . S
H1412 C1422 0.930 . S
H1413 C1423 0.930 . S
C1414 H1408 0.930 . S
C1414 C1415 1.355 . S
C1414 C1416 1.415 . S
C1415 C1414 1.355 . S
C1415 C1417 1.419 . S
C1416 C1414 1.415 . S
C1416 C1421 1.425 . S
C1416 C1423 1.409 . S
C1417 H1409 0.930 . S
C1417 C1415 1.419 . S
C1417 C1418 1.362 . S
C1418 H1410 0.930 . S
C1418 C1417 1.362 . S
C1418 C1421 1.409 . S
C1419 H1411 0.930 . S
C1419 C1420 1.355 . S
C1419 C1421 1.415 . S
C1420 C1419 1.355 . S
C1420 C1422 1.419 . S
C1421 C1416 1.425 . S
C1421 C1418 1.409 . S
C1421 C1419 1.415 . S
C1422 H1412 0.930 . S
C1422 C1420 1.419 . S
C1422 C1423 1.362 . S
C1423 H1413 0.930 . S
C1423 C1416 1.409 . S
C1423 C1422 1.362 . S
H1424 C1430 0.930 . S
H1425 C1433 0.930 . S
H1426 C1434 0.930 . S
H1427 C1435 0.930 . S
H1428 C1438 0.930 . S
H1429 C1439 0.930 . S
C1430 H1424 0.930 . S
C1430 C1431 1.355 . S
C1430 C1432 1.415 . S
C1431 C1430 1.355 . S
C1431 C1433 1.419 . S
C1432 C1430 1.415 . S
C1432 C1437 1.425 . S
C1432 C1439 1.409 . S
C1433 H1425 0.930 . S
C1433 C1431 1.419 . S
C1433 C1434 1.362 . S
C1434 H1426 0.930 . S
C1434 C1433 1.362 . S
C1434 C1437 1.409 . S
C1435 H1427 0.930 . S
C1435 C1436 1.355 . S
C1435 C1437 1.415 . S
C1436 C1435 1.355 . S
C1436 C1438 1.419 . S
C1437 C1432 1.425 . S
C1437 C1434 1.409 . S
C1437 C1435 1.415 . S
C1438 H1428 0.930 . S
C1438 C1436 1.419 . S
C1438 C1439 1.362 . S
C1439 H1429 0.930 . S
C1439 C1432 1.409 . S
C1439 C1438 1.362 . S
H1440 C1446 0.930 . S
H1441 C1449 0.930 . S
H1442 C1450 0.930 . S
H1443 C1451 0.930 . S
H1444 C1454 0.930 . S
H1445 C1455 0.930 . S
C1446 H1440 0.930 . S
C1446 C1447 1.355 . S
C1446 C1448 1.415 . S
C1447 C1446 1.355 . S
C1447 C1449 1.419 . S
C1448 C1446 1.415 . S
C1448 C1453 1.425 . S
C1448 C1455 1.409 . S
C1449 H1441 0.930 . S
C1449 C1447 1.419 . S
C1449 C1450 1.362 . S
C1450 H1442 0.930 . S
C1450 C1449 1.362 . S
C1450 C1453 1.409 . S
C1451 H1443 0.930 . S
C1451 C1452 1.355 . S
C1451 C1453 1.415 . S
C1452 C1451 1.355 . S
C1452 C1454 1.419 . S
C1453 C1448 1.425 . S
C1453 C1450 1.409 . S
C1453 C1451 1.415 . S
C1454 H1444 0.930 . S
C1454 C1452 1.419 . S
C1454 C1455 1.362 . S
C1455 H1445 0.930 . S
C1455 C1448 1.409 . S
C1455 C1454 1.362 . S
H1456 C1462 0.930 . S
H1457 C1465 0.930 . S
H1458 C1466 0.930 . S
H1459 C1467 0.930 . S
H1460 C1470 0.930 . S
H1461 C1471 0.930 . S
C1462 H1456 0.930 . S
C1462 C1463 1.355 . S
C1462 C1464 1.415 . S
C1463 C1462 1.355 . S
C1463 C1465 1.419 . S
C1464 C1462 1.415 . S
C1464 C1469 1.425 . S
C1464 C1471 1.409 . S
C1465 H1457 0.930 . S
C1465 C1463 1.419 . S
C1465 C1466 1.362 . S
C1466 H1458 0.930 . S
C1466 C1465 1.362 . S
C1466 C1469 1.409 . S
C1467 H1459 0.930 . S
C1467 C1468 1.355 . S
C1467 C1469 1.415 . S
C1468 C1467 1.355 . S
C1468 C1470 1.419 . S
C1469 C1464 1.425 . S
C1469 C1466 1.409 . S
C1469 C1467 1.415 . S
C1470 H1460 0.930 . S
C1470 C1468 1.419 . S
C1470 C1471 1.362 . S
C1471 H1461 0.930 . S
C1471 C1464 1.409 . S
C1471 C1470 1.362 . S
C455 C89 1.465 . S
C460 C5 1.474 . S
C471 C19 1.478 . S
C476 C103 1.493 . S
C487 C61 1.489 . S
C492 C33 1.495 . S
C503 C47 1.466 . S
C508 C75 1.469 . S
C519 C201 1.495 . S
C524 C117 1.486 . S
C535 C215 1.482 . S
C540 C131 1.467 . S
C551 C145 1.494 . S
C556 C173 1.490 . S
C567 C159 1.466 . S
C572 C187 1.480 . S
C583 C229 1.465 . S
C588 C313 1.474 . S
C599 C243 1.472 . S
C604 C327 1.488 . S
C615 C285 1.487 . S
C620 C257 1.471 . S
C631 C299 1.492 . S
C636 C271 1.477 . S
C647 C341 1.487 . S
C652 C425 1.495 . S
C663 C439 1.465 . S
C668 C355 1.472 . S
C679 C397 1.471 . S
C684 C369 1.487 . S
C695 C383 1.468 . S
C700 C411 1.483 . S
C711 C0 1.250 . S
C716 C429 1.305 . S
C727 C219 1.309 . S
C732 C14 1.268 . S
C743 C28 1.296 . S
C748 C401 1.304 . S
C759 C42 1.230 . S
C764 C191 1.292 . S
C775 C373 1.309 . S
C780 C56 1.273 . S
C791 C163 1.302 . S
C796 C70 1.242 . S
C807 C84 1.281 . S
C812 C345 1.279 . S
C823 C135 1.279 . S
C828 C98 1.281 . S
C839 C112 1.242 . S
C844 C317 1.302 . S
C855 C107 1.275 . S
C860 C126 1.265 . S
C871 C140 1.272 . S
C876 C289 1.309 . S
C887 C154 1.299 . S
C892 C79 1.302 . S
C903 C261 1.290 . S
C908 C168 1.229 . S
C919 C182 1.298 . S
C924 C51 1.289 . S
C935 C196 1.242 . S
C940 C233 1.302 . S
C951 C23 1.302 . S
C956 C210 1.242 . S
C967 C224 1.261 . S
C972 C205 1.308 . S
C983 C238 1.293 . S
C988 C443 1.305 . S
C999 C177 1.309 . S
C1004 C252 1.272 . S
C1015 C266 1.249 . S
C1020 C415 1.275 . S
C1031 C149 1.299 . S
C1036 C280 1.236 . S
C1047 C387 1.276 . S
C1052 C294 1.243 . S
C1063 C121 1.277 . S
C1068 C308 1.240 . S
C1079 C359 1.278 . S
C1084 C322 1.278 . S
C1095 C336 1.229 . S
C1100 C93 1.292 . S
C1111 C331 1.276 . S
C1116 C350 1.243 . S
C1127 C65 1.297 . S
C1132 C364 1.234 . S
C1143 C378 1.259 . S
C1148 C303 1.275 . S
C1159 C392 1.301 . S
C1164 C37 1.296 . S
C1175 C406 1.262 . S
C1180 C275 1.308 . S
C1191 C9 1.275 . S
C1196 C420 1.251 . S
C1207 C434 1.253 . S
C1212 C247 1.306 . S
C1223 C11 1.397 . S
C1228 C305 1.396 . S
C1239 C319 1.436 . S
C1244 C25 1.427 . S
C1255 C39 1.419 . S
C1260 C333 1.404 . S
C1271 C291 1.409 . S
C1276 C53 1.424 . S
C1287 C277 1.430 . S
C1292 C67 1.437 . S
C1303 C235 1.425 . S
C1308 C81 1.409 . S
C1319 C249 1.407 . S
C1324 C95 1.423 . S
C1335 C263 1.434 . S
C1340 C109 1.422 . S
C1351 C123 1.437 . S
C1356 C417 1.431 . S
C1367 C431 1.398 . S
C1372 C137 1.395 . S
C1383 C445 1.436 . S
C1388 C151 1.426 . S
C1399 C403 1.417 . S
C1404 C165 1.431 . S
C1415 C389 1.395 . S
C1420 C179 1.402 . S
C1431 C347 1.435 . S
C1436 C193 1.435 . S
C1447 C207 1.432 . S
C1452 C361 1.419 . S
C1463 C221 1.435 . S
C1468 C375 1.435 . S
