# Generated by pormake.
# Topology smu, (6)-cn, num edge types: 1
# Building blocks:
#     Node 0, Type 0, BuildingBlock: LEVNOQ01_clean_sbu_1, # of connection points: 6
#     Node 1, Type 0, BuildingBlock: LEVNOQ01_clean_sbu_1, # of connection points: 6
#     Node 2, Type 0, BuildingBlock: LEVNOQ01_clean_sbu_1, # of connection points: 6
#     Node 3, Type 0, BuildingBlock: LEVNOQ01_clean_sbu_1, # of connection points: 6
#     Node 4, Type 0, BuildingBlock: LEVNOQ01_clean_sbu_1, # of connection points: 6
#     Node 5, Type 0, BuildingBlock: LEVNOQ01_clean_sbu_1, # of connection points: 6
#     Edge 6, Type (0, 0), BuildingBlock: EZIPEK_clean_linker_0, # of connection points: 2
#     Edge 7, Type (0, 0), BuildingBlock: EZIPEK_clean_linker_0, # of connection points: 2
#     Edge 8, Type (0, 0), BuildingBlock: EZIPEK_clean_linker_0, # of connection points: 2
#     Edge 9, Type (0, 0), BuildingBlock: EZIPEK_clean_linker_0, # of connection points: 2
#     Edge 10, Type (0, 0), BuildingBlock: EZIPEK_clean_linker_0, # of connection points: 2
#     Edge 11, Type (0, 0), BuildingBlock: EZIPEK_clean_linker_0, # of connection points: 2
#     Edge 12, Type (0, 0), BuildingBlock: EZIPEK_clean_linker_0, # of connection points: 2
#     Edge 13, Type (0, 0), BuildingBlock: EZIPEK_clean_linker_0, # of connection points: 2
#     Edge 14, Type (0, 0), BuildingBlock: EZIPEK_clean_linker_0, # of connection points: 2
#     Edge 15, Type (0, 0), BuildingBlock: EZIPEK_clean_linker_0, # of connection points: 2
#     Edge 16, Type (0, 0), BuildingBlock: EZIPEK_clean_linker_0, # of connection points: 2
#     Edge 17, Type (0, 0), BuildingBlock: EZIPEK_clean_linker_0, # of connection points: 2
#     Edge 18, Type (0, 0), BuildingBlock: EZIPEK_clean_linker_0, # of connection points: 2
#     Edge 19, Type (0, 0), BuildingBlock: EZIPEK_clean_linker_0, # of connection points: 2
#     Edge 20, Type (0, 0), BuildingBlock: EZIPEK_clean_linker_0, # of connection points: 2
#     Edge 21, Type (0, 0), BuildingBlock: EZIPEK_clean_linker_0, # of connection points: 2
#     Edge 22, Type (0, 0), BuildingBlock: EZIPEK_clean_linker_0, # of connection points: 2
#     Edge 23, Type (0, 0), BuildingBlock: EZIPEK_clean_linker_0, # of connection points: 2
# Relax obj value: 0.258
# Max RMSD: 0.255
# Mean RMSD: 0.255
data_MOF--net-smu--node1-LEVNOQ01_clean_sbu_1--edge1-EZIPEK_clean_linker_0
_symmetry_space_group_name_H-M    P1
_symmetry_Int_Tables_number       1
_symmetry_cell_setting            triclinic
loop_
_symmetry_equiv_pos_as_xyz
'x, y, z'
_cell_length_a     22.178055
_cell_length_b     22.216214
_cell_length_c     22.979922
_cell_angle_alpha  89.607747
_cell_angle_beta   89.935858
_cell_angle_gamma 119.34139
loop_
_atom_site_label
_atom_site_type_symbol
_atom_site_fract_x
_atom_site_fract_y
_atom_site_fract_z
_atom_type_partial_charge
O0 O 0.40004 0.00804 0.28814 0.0
Mg1 Mg 0.3866 0.09469 0.30943 0.0
O2 O 0.40774 0.0692 0.21315 0.0
Mg3 Mg 0.30474 0.07537 0.22787 0.0
O4 O 0.28767 0.06515 0.33136 0.0
O5 O 0.37291 0.09281 0.39626 0.0
O6 O 0.21489 0.10066 0.24726 0.0
O7 O 0.2315 0.95953 0.23163 0.0
Mg8 Mg 0.23399 0.07666 0.14866 0.0
O9 O 0.31786 0.06834 0.12582 0.0
O10 O 0.24541 0.17293 0.17551 0.0
O11 O 0.15646 -0.01637 0.18945 0.0
O12 O 0.23738 0.0619 0.06267 0.0
C13 C 0.42757 0.22816 0.24688 0.0
C14 C 0.43284 0.03872 0.2432 0.0
C15 C 0.30824 0.06797 0.38483 0.0
C16 C 0.22182 0.15704 0.22672 0.0
C17 C 0.16958 0.94237 0.21815 0.0
C18 C 0.29105 0.0557 0.07408 0.0
O19 O 0.45224 0.19993 0.28032 0.0
O20 O 0.36964 0.19157 0.22328 0.0
O21 O 0.57348 0.55816 0.30287 0.0
Mg22 Mg 0.67753 0.57734 0.31122 0.0
O23 O 0.62007 0.55341 0.22217 0.0
Mg24 Mg 0.72863 0.65605 0.2391 0.0
O25 O 0.74535 0.66944 0.34513 0.0
O26 O 0.69493 0.57246 0.39733 0.0
O27 O 0.84567 0.74127 0.26654 0.0
O28 O 0.67229 0.72228 0.25299 0.0
Mg29 Mg 0.77761 0.72706 0.18949 0.0
O30 O 0.71206 0.65567 0.13246 0.0
O31 O 0.87941 0.74578 0.17739 0.0
O32 O 0.77616 0.80568 0.24057 0.0
O33 O 0.75488 0.7676 0.11957 0.0
C34 C 0.75581 0.5286 0.2375 0.0
C35 C 0.56837 0.52637 0.25658 0.0
C36 C 0.73333 0.63834 0.39553 0.0
C37 C 0.89481 0.75863 0.23027 0.0
C38 C 0.71495 0.78639 0.25549 0.0
C39 C 0.72035 0.70664 0.09934 0.0
O40 O 0.70586 0.50709 0.27306 0.0
O41 O 0.78348 0.5914 0.22183 0.0
O42 O 0.93343 0.38147 0.29455 0.0
Mg43 Mg 0.84469 0.29019 0.32388 0.0
O44 O 0.90159 0.33989 0.20886 0.0
Mg45 Mg 0.8901 0.22731 0.22428 0.0
O46 O 0.88649 0.22914 0.32581 0.0
O47 O 0.8506 0.25678 0.40658 0.0
O48 O 0.84463 0.10647 0.25157 0.0
O49 O 0.00727 0.2692 0.24106 0.0
Mg50 Mg 0.91008 0.16028 0.17023 0.0
O51 O 0.91107 0.23628 0.11821 0.0
O52 O 0.82181 0.06327 0.1647 0.0
O53 O -0.01817 0.1625 0.23189 0.0
O54 O 0.97121 0.18208 0.10006 0.0
C55 C 0.72977 0.19407 0.2378 0.0
C56 C 0.91758 0.38973 0.24415 0.0
C57 C 0.88439 0.23019 0.38228 0.0
C58 C 0.81153 0.05413 0.21887 0.0
C59 C 0.02351 0.22239 0.24881 0.0
C60 C 0.95277 0.22623 0.08439 0.0
O61 O 0.74803 0.23799 0.27864 0.0
O62 O 0.77352 0.18258 0.21146 0.0
O63 O 0.9187 0.24666 0.74386 0.0
Mg64 Mg 0.02776 0.29122 0.75701 0.0
O65 O 0.97082 0.21966 0.67969 0.0
Mg66 Mg 0.07671 0.32103 0.71361 0.0
O67 O 0.09737 0.34163 0.82102 0.0
O68 O -0.00971 0.31491 0.83294 0.0
O69 O 0.17674 0.40178 0.75751 0.0
O70 O 0.04007 0.40383 0.71604 0.0
Mg71 Mg 0.11283 0.35616 0.64827 0.0
O72 O 0.02741 0.26749 0.61908 0.0
O73 O 0.21719 0.38904 0.67577 0.0
O74 O 0.0943 0.43818 0.6341 0.0
O75 O 0.12025 0.32927 0.56508 0.0
C76 C 0.09728 0.20747 0.74123 0.0
C77 C 0.91532 0.20342 0.70754 0.0
C78 C 0.0488 0.33483 0.8558 0.0
C79 C 0.22861 0.41166 0.72723 0.0
C80 C 0.06947 0.45158 0.67807 0.0
C81 C 0.05879 0.2781 0.56896 0.0
O82 O 0.04348 0.19958 0.7674 0.0
O83 O 0.12907 0.25922 0.70925 0.0
O84 O 0.13352 0.96644 0.7871 0.0
Mg85 Mg 0.1235 0.87223 0.81972 0.0
O86 O 0.23754 0.00362 0.74946 0.0
Mg87 Mg 0.20415 0.8897 0.73998 0.0
O88 O 0.21568 0.8799 0.84171 0.0
O89 O 0.14156 0.88543 0.90576 0.0
O90 O 0.15956 0.77521 0.73057 0.0
O91 O 0.31711 0.90111 0.75767 0.0
Mg92 Mg 0.27757 0.89085 0.66312 0.0
O93 O 0.20412 0.91455 0.63792 0.0
O94 O 0.25043 0.78575 0.6856 0.0
O95 O 0.37176 0.97821 0.69221 0.0
O96 O 0.27376 0.89888 0.57609 0.0
C97 C 0.03943 0.79942 0.73414 0.0
C98 C 0.18821 0.01419 0.76414 0.0
C99 C 0.202 0.89374 0.89337 0.0
C100 C 0.19199 0.74746 0.70915 0.0
C101 C 0.37399 0.94027 0.73178 0.0
C102 C 0.22865 0.9182 0.58575 0.0
O103 O 0.04413 0.77885 0.78453 0.0
O104 O 0.08784 0.85878 0.71845 0.0
O105 O 0.81203 0.79099 0.72494 0.0
Mg106 Mg 0.75307 0.79413 0.79254 0.0
O107 O 0.72102 0.69379 0.70463 0.0
Mg108 Mg 0.64616 0.74066 0.72352 0.0
O109 O 0.65303 0.73842 0.82374 0.0
O110 O 0.73687 0.71822 0.85231 0.0
O111 O 0.57429 0.79106 0.7375 0.0
O112 O 0.55565 0.63056 0.74025 0.0
Mg113 Mg 0.52836 0.69712 0.62032 0.0
O114 O 0.63066 0.72963 0.62563 0.0
O115 O 0.51268 0.77456 0.65699 0.0
O116 O 0.4791 0.60347 0.66866 0.0
O117 O 0.57894 0.70744 0.54048 0.0
C118 C 0.76135 0.90952 0.74685 0.0
C119 C 0.78602 0.73387 0.7003 0.0
C120 C 0.67599 0.71021 0.86063 0.0
C121 C 0.53255 0.80211 0.70659 0.0
C122 C 0.49821 0.58929 0.71653 0.0
C123 C 0.63398 0.72339 0.57004 0.0
O124 O 0.77511 0.89445 0.79663 0.0
O125 O 0.7287 0.8607 0.71033 0.0
C126 C 0.30792 -0.00093 0.92726 0.0
C127 C 0.25763 0.92861 0.93692 0.0
C128 C 0.279 0.94514 0.04122 0.0
C129 C 0.30924 0.01717 0.0319 0.0
N130 N 0.36838 0.11466 0.9686 0.0
N131 N 0.20328 0.8314 0.00206 0.0
C132 C 0.33038 0.04474 0.97549 0.0
C133 C 0.2472 0.90028 -0.00634 0.0
N134 N 0.33176 0.02231 0.87236 0.0
N135 N 0.27885 0.92019 0.0956 0.0
H136 H 0.18198 0.79759 0.96718 0.0
H137 H 0.1865 0.80869 0.04296 0.0
H138 H 0.30313 0.95283 0.13055 0.0
H139 H 0.26206 0.86827 0.10423 0.0
H140 H 0.37117 0.07209 0.86295 0.0
H141 H 0.31666 -0.01034 0.83668 0.0
H142 H 0.38049 0.13992 0.92845 0.0
H143 H 0.38676 0.14734 0.0045 0.0
C144 C 0.73402 0.76639 0.5005 0.0
C145 C 0.68993 0.71604 0.54161 0.0
C146 C 0.72612 0.63627 0.50391 0.0
C147 C 0.74844 0.67632 0.45225 0.0
N148 N 0.80802 0.79187 0.41442 0.0
N149 N 0.65107 0.60514 0.58819 0.0
C150 C 0.7641 0.74613 0.45478 0.0
C151 C 0.68987 0.65233 0.54633 0.0
N152 N 0.74704 0.83274 0.50633 0.0
N153 N 0.73912 0.58277 0.51139 0.0
H154 H 0.62451 0.61542 0.62059 0.0
H155 H 0.64274 0.55474 0.58909 0.0
H156 H 0.76805 0.57283 0.48087 0.0
H157 H 0.72832 0.5542 0.54988 0.0
H158 H 0.78353 0.87408 0.48185 0.0
H159 H 0.72466 0.84695 0.5397 0.0
H160 H 0.8226 0.84401 0.41301 0.0
H161 H 0.83425 0.77759 0.38471 0.0
C162 C -0.0123 0.22051 0.98232 0.0
C163 C -0.02209 0.26004 0.02591 0.0
C164 C 0.03117 0.36028 0.95907 0.0
C165 C 0.04787 0.32173 0.91945 0.0
N166 N 0.06125 0.22175 0.90461 0.0
N167 N 0.00376 0.37357 0.05888 0.0
C168 C 0.03342 0.25447 0.93544 0.0
C169 C 0.00346 0.3319 0.01539 0.0
N170 N 0.95033 0.14999 -0.01624 0.0
N171 N 0.04055 0.42335 0.94235 0.0
H172 H -0.01433 0.35565 0.10076 0.0
H173 H 0.02741 0.42709 0.05462 0.0
H174 H 0.06413 0.4464 0.90281 0.0
H175 H 0.02212 0.45067 0.96631 0.0
H176 H 0.95297 0.11917 0.95096 0.0
H177 H 0.91033 0.1229 0.0136 0.0
H178 H 0.05541 0.17391 0.91695 0.0
H179 H 0.09712 0.24648 0.87145 0.0
C180 C 0.26619 0.06624 0.48512 0.0
C181 C 0.25855 0.03048 0.43259 0.0
C182 C 0.19182 0.92086 0.48523 0.0
C183 C 0.2164 0.95601 0.53816 0.0
N184 N 0.27707 0.06389 0.58974 0.0
N185 N 0.21645 0.92106 0.38311 0.0
C186 C 0.25156 0.0294 0.53881 0.0
C187 C 0.21985 0.95695 0.43217 0.0
N188 N 0.29055 0.13581 0.48339 0.0
N189 N 0.14489 0.85205 0.48629 0.0
H190 H 0.23848 0.94454 0.34357 0.0
H191 H 0.19595 0.86767 0.38269 0.0
H192 H 0.12524 0.82526 0.52546 0.0
H193 H 0.12079 0.82417 0.44902 0.0
H194 H 0.29279 0.16445 0.51984 0.0
H195 H 0.30199 0.16321 0.44408 0.0
H196 H 0.31072 0.11688 0.59174 0.0
H197 H 0.26766 0.03906 0.63 0.0
C198 C 0.70452 0.76765 0.95198 0.0
C199 C 0.658 0.70785 0.92249 0.0
C200 C 0.63706 0.64332 0.01426 0.0
C201 C 0.69802 0.70027 0.0374 0.0
N202 N 0.80449 0.80432 0.01099 0.0
N203 N 0.57656 0.58653 0.92511 0.0
C204 C 0.73606 0.75943 0.00153 0.0
C205 C 0.62261 0.64457 0.95358 0.0
N206 N 0.72532 0.8314 0.9286 0.0
N207 N 0.59292 0.5899 0.04918 0.0
H208 H 0.56397 0.58839 0.88157 0.0
H209 H 0.55346 0.53745 0.94406 0.0
H210 H 0.60065 0.58835 0.09367 0.0
H211 H 0.5456 0.55031 0.03469 0.0
H212 H 0.76008 0.87663 0.9498 0.0
H213 H 0.70153 0.83807 0.89188 0.0
H214 H 0.83397 0.84541 0.98269 0.0
H215 H 0.83351 0.79445 0.04144 0.0
C216 C 0.91054 0.17372 0.46614 0.0
C217 C 0.93472 0.2217 0.41902 0.0
C218 C 0.05106 0.27363 0.45956 0.0
C219 C 0.02245 0.24236 0.51392 0.0
N220 N 0.93875 0.136 0.55724 0.0
N221 N 0.031 0.31989 0.37164 0.0
C222 C 0.95569 0.18393 0.5141 0.0
C223 C 0.00619 0.2713 0.41502 0.0
N224 N 0.84402 0.12065 0.4656 0.0
N225 N 0.12039 0.30236 0.44944 0.0
H226 H 0.00046 0.32229 0.33849 0.0
H227 H 0.0814 0.36127 0.37134 0.0
H228 H 0.15316 0.29686 0.47891 0.0
H229 H 0.14272 0.32142 0.40873 0.0
H230 H 0.82121 0.08551 0.49957 0.0
H231 H 0.81164 0.11167 0.42992 0.0
H232 H 0.89513 0.08741 0.55625 0.0
H233 H 0.97361 0.14209 0.59011 0.0
C234 C 0.55007 0.08598 0.29256 0.0
C235 C 0.50921 0.06595 0.24069 0.0
C236 C 0.61655 0.12538 0.18264 0.0
C237 C 0.65529 0.14239 0.23476 0.0
N238 N 0.6587 0.10899 0.33429 0.0
N239 N 0.50626 0.05038 0.13662 0.0
C240 C 0.62181 0.1121 0.28781 0.0
C241 C 0.54342 0.08029 0.18563 0.0
N242 N 0.52367 0.08732 0.34609 0.0
N243 N 0.64872 0.15383 0.13103 0.0
H244 H 0.45319 0.01581 0.13782 0.0
H245 H 0.52905 0.05433 0.09609 0.0
H246 H 0.70203 0.1864 0.12774 0.0
H247 H 0.62206 0.14856 0.09242 0.0
H248 H 0.47356 0.07646 0.35462 0.0
H249 H 0.55513 0.10884 0.38232 0.0
H250 H 0.63502 0.08236 0.37261 0.0
H251 H 0.71156 0.12546 0.33187 0.0
C252 C 0.51265 0.40781 0.30569 0.0
C253 C 0.52239 0.44971 0.25506 0.0
C254 C 0.46894 0.34401 0.19626 0.0
C255 C 0.45663 0.3039 0.24779 0.0
N256 N 0.43841 0.29842 0.35172 0.0
N257 N 0.49241 0.45445 0.15494 0.0
C258 C 0.46919 0.33601 0.30244 0.0
C259 C 0.49492 0.41668 0.20105 0.0
N260 N 0.54807 0.43382 0.35619 0.0
N261 N 0.45789 0.31343 0.14306 0.0
H262 H 0.50849 0.50699 0.15817 0.0
H263 H 0.46785 0.43251 0.11593 0.0
H264 H 0.43954 0.26065 0.13812 0.0
H265 H 0.472 0.34116 0.10402 0.0
H266 H 0.54745 0.40211 0.39016 0.0
H267 H 0.58367 0.48488 0.36317 0.0
H268 H 0.442 0.32148 0.39191 0.0
H269 H 0.40247 0.2458 0.35127 0.0
C270 C 0.88628 0.47103 0.18889 0.0
C271 C 0.87946 0.42983 0.23893 0.0
C272 C 0.7721 0.42851 0.26237 0.0
C273 C 0.78807 0.48426 0.22438 0.0
N274 N 0.85565 0.55106 0.14171 0.0
N275 N 0.82712 0.3991 0.3366 0.0
C276 C 0.84412 0.50368 0.18444 0.0
C277 C 0.82586 0.41692 0.27983 0.0
N278 N 0.93288 0.47932 0.14642 0.0
N279 N 0.70649 0.38677 0.28242 0.0
H280 H 0.87118 0.40493 0.35748 0.0
H281 H 0.78757 0.39088 0.36572 0.0
H282 H 0.66387 0.38833 0.26491 0.0
H283 H 0.6944 0.3444 0.30957 0.0
H284 H 0.936 0.50315 0.1065 0.0
H285 H 0.96661 0.45936 0.1504 0.0
H286 H 0.9001 0.57363 0.11593 0.0
H287 H 0.82004 0.56747 0.13207 0.0
C288 C 0.16062 0.57428 0.66224 0.0
C289 C 0.09891 0.52645 0.69192 0.0
C290 C 0.1084 0.62531 0.74628 0.0
C291 C 0.15812 0.6712 0.70474 0.0
N292 N 0.20593 0.67914 0.60787 0.0
N293 N 0.00933 0.51117 0.76076 0.0
C294 C 0.17596 0.64274 0.65764 0.0
C295 C 0.07087 0.55307 0.73374 0.0
N296 N 0.20845 0.55712 0.64297 0.0
N297 N 0.09923 0.64913 0.7983 0.0
H298 H -0.02081 0.45898 0.75119 0.0
H299 H -0.01471 0.53021 0.78829 0.0
H300 H 0.12937 0.70016 0.81138 0.0
H301 H 0.06723 0.61629 0.83107 0.0
H302 H 0.25442 0.59336 0.62284 0.0
H303 H 0.20803 0.51179 0.65572 0.0
H304 H 0.21734 0.65657 0.5729 0.0
H305 H 0.20971 0.72683 0.59834 0.0
C306 C 0.44529 0.89389 0.7815 0.0
C307 C 0.42911 0.91947 0.73018 0.0
C308 C 0.51211 0.89744 0.67724 0.0
C309 C 0.51196 0.85457 0.72283 0.0
N310 N 0.47833 0.81258 0.82128 0.0
N311 N 0.43745 0.92544 0.62344 0.0
C312 C 0.47956 0.8537 0.77643 0.0
C313 C 0.46067 0.91719 0.6764 0.0
N314 N 0.42836 0.90819 0.83479 0.0
N315 N 0.55901 0.91593 0.63281 0.0
H316 H 0.45642 0.91752 0.58436 0.0
H317 H 0.39341 0.92945 0.61684 0.0
H318 H 0.5982 0.90271 0.63288 0.0
H319 H 0.56338 0.95061 0.60004 0.0
H320 H 0.44388 0.89572 0.87371 0.0
H321 H 0.40532 0.93906 0.83977 0.0
H322 H 0.44909 0.80462 0.85897 0.0
H323 H 0.5034 0.78341 0.81944 0.0
C324 C 0.34471 0.41956 0.73213 0.0
C325 C 0.30057 0.446 0.74981 0.0
C326 C 0.40211 0.54941 0.78536 0.0
C327 C 0.44387 0.53221 0.75067 0.0
N328 N 0.46097 0.44707 0.70245 0.0
N329 N 0.28821 0.53599 0.79907 0.0
C330 C 0.41711 0.46499 0.7291 0.0
C331 C 0.32909 0.50983 0.78012 0.0
N332 N 0.31703 0.35177 0.71721 0.0
N333 N 0.43281 0.60579 0.82045 0.0
H334 H 0.23456 0.50972 0.797 0.0
H335 H 0.30798 0.58614 0.81437 0.0
H336 H 0.48652 0.63502 0.82393 0.0
H337 H 0.40565 0.6188 0.85017 0.0
H338 H 0.34646 0.32822 0.70772 0.0
H339 H 0.26411 0.31745 0.71931 0.0
H340 H 0.44484 0.40129 0.67985 0.0
H341 H 0.51444 0.48021 0.70235 0.0
C342 C 0.20466 0.26066 0.23268 0.0
C343 C 0.1929 0.19689 0.25662 0.0
C344 C 0.09138 0.18405 0.30804 0.0
C345 C 0.09147 0.23485 0.27014 0.0
N346 N 0.15606 0.33464 0.20856 0.0
N347 N 0.15359 0.12674 0.34358 0.0
C348 C 0.15183 0.27899 0.23775 0.0
C349 C 0.14547 0.16766 0.30336 0.0
N350 N 0.26698 0.3038 0.20721 0.0
N351 N 0.03649 0.148 0.34467 0.0
H352 H 0.19761 0.12118 0.34435 0.0
H353 H 0.12221 0.10618 0.3802 0.0
H354 H -0.00297 0.16042 0.34893 0.0
H355 H 0.02863 0.10483 0.36868 0.0
H356 H 0.28099 0.35301 0.19156 0.0
H357 H 0.30764 0.29274 0.2078 0.0
H358 H 0.194 0.36314 0.17768 0.0
H359 H 0.12118 0.35251 0.21565 0.0
C360 C -0.00337 0.85544 0.28051 0.0
C361 C 0.968 0.79346 0.24792 0.0
C362 C 0.08352 0.81717 0.21802 0.0
C363 C 0.11049 0.88209 0.24474 0.0
N364 N 0.10044 0.95121 0.31977 0.0
N365 N -0.01598 0.70338 0.20535 0.0
C366 C 0.06942 0.89617 0.28329 0.0
C367 C 0.01171 0.7701 0.2235 0.0
N368 N 0.95551 0.87933 0.30353 0.0
N369 N 0.12584 0.80269 0.18493 0.0
H370 H 0.93169 0.66772 0.21107 0.0
H371 H 0.01342 0.68186 0.1901 0.0
H372 H 0.17921 0.83567 0.1836 0.0
H373 H 0.10821 0.7596 0.15835 0.0
H374 H 0.97489 0.92831 0.32135 0.0
H375 H 0.90185 0.85294 0.30155 0.0
H376 H 0.07427 0.96088 0.35288 0.0
H377 H 0.15392 -0.01679 0.32011 0.0
C378 C 0.7061 0.93807 0.2061 0.0
C379 C 0.76218 -0.01636 0.24211 0.0
C380 C 0.72954 0.88637 0.30891 0.0
C381 C 0.69571 0.84061 0.26341 0.0
N382 N 0.63926 0.82052 0.17108 0.0
N383 N 0.82438 -0.00247 0.33332 0.0
C384 C 0.67824 0.86561 0.2133 0.0
C385 C 0.77203 0.95764 0.29619 0.0
N386 N 0.67933 0.96397 0.16595 0.0
N387 N 0.72272 0.86075 0.36377 0.0
H388 H 0.85936 0.04947 0.32683 0.0
H389 H 0.83617 0.97682 0.36959 0.0
H390 H 0.69271 0.80783 0.3723 0.0
H391 H 0.7396 0.89295 0.39979 0.0
H392 H 0.63583 0.93282 0.14118 0.0
H393 H 0.69566 0.01666 0.16275 0.0
H394 H 0.63157 0.83621 0.13023 0.0
H395 H 0.61683 0.76718 0.17708 0.0
C396 C 0.1834 0.17772 0.78171 0.0
C397 C 0.1244 0.15965 0.74625 0.0
C398 C 0.13619 0.0663 0.70302 0.0
C399 C 0.18584 0.07607 0.74582 0.0
N400 N 0.26355 0.14301 0.82149 0.0
N401 N 0.04408 0.08818 0.67287 0.0
C402 C 0.21244 0.13327 0.7833 0.0
C403 C 0.10106 0.10473 0.70626 0.0
N404 N 0.21163 0.23739 0.81314 0.0
N405 N 0.12226 0.01905 0.66013 0.0
H406 H 0.01637 0.11481 0.67518 0.0
H407 H 0.02088 0.04506 0.64624 0.0
H408 H 0.14724 -0.01021 0.65801 0.0
H409 H 0.09122 0.01315 0.6243 0.0
H410 H 0.25784 0.25653 0.83589 0.0
H411 H 0.19136 0.27096 0.81323 0.0
H412 H 0.28112 0.17935 0.85457 0.0
H413 H 0.28774 0.11287 0.82029 0.0
C414 C 0.95863 0.7905 0.6515 0.0
C415 C 0.97472 0.75973 0.69906 0.0
C416 C 0.85273 0.67239 0.70888 0.0
C417 C 0.8362 0.71567 0.67535 0.0
N418 N 0.86769 0.79934 0.59909 0.0
N419 N 0.94335 0.64999 0.74382 0.0
C420 C 0.88774 0.76776 0.6397 0.0
C421 C 0.92359 0.69314 0.7183 0.0
N422 N 0.01032 0.8406 0.61851 0.0
N423 N 0.80097 0.61544 0.73549 0.0
H424 H -0.00472 0.66288 0.74596 0.0
H425 H 0.90895 0.59933 0.75621 0.0
H426 H 0.74905 0.59904 0.72666 0.0
H427 H 0.80937 0.58579 0.7663 0.0
H428 H 0.00274 0.86849 0.5856 0.0
H429 H 0.06106 0.84983 0.62051 0.0
H430 H 0.90086 0.83935 0.57163 0.0
H431 H 0.81556 0.78395 0.59353 0.0
C432 C 0.82477 0.08704 0.67053 0.0
C433 C 0.86372 0.12929 0.71712 0.0
C434 C 0.8039 0.02951 0.78149 0.0
C435 C 0.78446 -0.01586 0.73345 0.0
N436 N 0.77393 0.974 0.62753 0.0
N437 N 0.89536 0.13419 0.81945 0.0
C438 C 0.79321 0.01365 0.67634 0.0
C439 C 0.85462 0.099 0.77349 0.0
N440 N 0.8148 0.11664 0.62207 0.0
N441 N 0.77235 0.00727 0.83446 0.0
H442 H 0.93589 0.18449 0.81707 0.0
H443 H 0.89289 0.10998 0.85913 0.0
H444 H 0.72864 0.9589 0.84037 0.0
H445 H 0.78326 0.04042 0.86966 0.0
H446 H 0.77833 0.08775 0.59067 0.0
H447 H 0.83737 0.17011 0.617 0.0
H448 H 0.78582 -0.00467 0.58577 0.0
H449 H 0.74875 0.92054 0.62737 0.0
loop_
_geom_bond_atom_site_label_1
_geom_bond_atom_site_label_2
_geom_bond_distance
_geom_bond_site_symmetry_2
_ccdc_geom_bond_type
O0 Mg1 1.990 . S
O0 C14 1.253 . S
Mg1 O0 1.990 . S
Mg1 O4 2.180 . S
Mg1 O5 2.117 . S
Mg1 O19 2.030 . S
O2 Mg3 2.072 . S
O2 C14 1.260 . S
Mg3 O2 2.072 . S
Mg3 O4 2.099 . S
Mg3 O6 2.079 . S
Mg3 O7 2.072 . S
Mg3 O9 2.099 . S
Mg3 O20 2.079 . S
O4 Mg1 2.180 . S
O4 Mg3 2.099 . S
O4 C15 1.279 . S
O5 Mg1 2.117 . S
O5 C15 1.250 . S
O6 Mg3 2.079 . S
O6 C16 1.264 . S
O7 Mg3 2.072 . S
O7 C17 1.260 1_545 S
Mg8 O9 2.180 . S
Mg8 O10 2.030 . S
Mg8 O11 1.990 1_545 S
Mg8 O12 2.117 . S
O9 Mg3 2.099 . S
O9 Mg8 2.180 . S
O9 C18 1.279 . S
O10 Mg8 2.030 . S
O10 C16 1.248 . S
O11 Mg8 1.990 1_565 S
O11 C17 1.253 . S
O12 Mg8 2.117 . S
O12 C18 1.250 . S
C13 O19 1.248 . S
C13 O20 1.264 . S
C14 O0 1.253 . S
C14 O2 1.260 . S
C15 O4 1.279 . S
C15 O5 1.250 . S
C16 O6 1.264 . S
C16 O10 1.248 . S
C17 O7 1.260 1_565 S
C17 O11 1.253 . S
C18 O9 1.279 . S
C18 O12 1.250 . S
O19 Mg1 2.030 . S
O19 C13 1.248 . S
O20 Mg3 2.079 . S
O20 C13 1.264 . S
O21 Mg22 1.990 . S
O21 C35 1.253 . S
Mg22 O21 1.990 . S
Mg22 O25 2.180 . S
Mg22 O26 2.117 . S
Mg22 O40 2.030 . S
O23 Mg24 2.072 . S
O23 C35 1.260 . S
Mg24 O23 2.072 . S
Mg24 O25 2.099 . S
Mg24 O27 2.079 . S
Mg24 O28 2.072 . S
Mg24 O30 2.099 . S
Mg24 O41 2.079 . S
O25 Mg22 2.180 . S
O25 Mg24 2.099 . S
O25 C36 1.279 . S
O26 Mg22 2.117 . S
O26 C36 1.250 . S
O27 Mg24 2.079 . S
O27 C37 1.264 . S
O28 Mg24 2.072 . S
O28 C38 1.260 . S
Mg29 O30 2.180 . S
Mg29 O31 2.030 . S
Mg29 O32 1.990 . S
Mg29 O33 2.117 . S
O30 Mg24 2.099 . S
O30 Mg29 2.180 . S
O30 C39 1.279 . S
O31 Mg29 2.030 . S
O31 C37 1.248 . S
O32 Mg29 1.990 . S
O32 C38 1.253 . S
O33 Mg29 2.117 . S
O33 C39 1.250 . S
C34 O40 1.248 . S
C34 O41 1.264 . S
C35 O21 1.253 . S
C35 O23 1.260 . S
C36 O25 1.279 . S
C36 O26 1.250 . S
C37 O27 1.264 . S
C37 O31 1.248 . S
C38 O28 1.260 . S
C38 O32 1.253 . S
C39 O30 1.279 . S
C39 O33 1.250 . S
O40 Mg22 2.030 . S
O40 C34 1.248 . S
O41 Mg24 2.079 . S
O41 C34 1.264 . S
O42 Mg43 1.990 . S
O42 C56 1.253 . S
Mg43 O42 1.990 . S
Mg43 O46 2.180 . S
Mg43 O47 2.117 . S
Mg43 O61 2.030 . S
O44 Mg45 2.072 . S
O44 C56 1.260 . S
Mg45 O44 2.072 . S
Mg45 O46 2.099 . S
Mg45 O48 2.079 . S
Mg45 O49 2.072 . S
Mg45 O51 2.099 . S
Mg45 O62 2.079 . S
O46 Mg43 2.180 . S
O46 Mg45 2.099 . S
O46 C57 1.279 . S
O47 Mg43 2.117 . S
O47 C57 1.250 . S
O48 Mg45 2.079 . S
O48 C58 1.264 . S
O49 Mg45 2.072 . S
O49 C59 1.260 1_655 S
Mg50 O51 2.180 . S
Mg50 O52 2.030 . S
Mg50 O53 1.990 1_655 S
Mg50 O54 2.117 . S
O51 Mg45 2.099 . S
O51 Mg50 2.180 . S
O51 C60 1.279 . S
O52 Mg50 2.030 . S
O52 C58 1.248 . S
O53 Mg50 1.990 1_455 S
O53 C59 1.253 . S
O54 Mg50 2.117 . S
O54 C60 1.250 . S
C55 O61 1.248 . S
C55 O62 1.264 . S
C56 O42 1.253 . S
C56 O44 1.260 . S
C57 O46 1.279 . S
C57 O47 1.250 . S
C58 O48 1.264 . S
C58 O52 1.248 . S
C59 O49 1.260 1_455 S
C59 O53 1.253 . S
C60 O51 1.279 . S
C60 O54 1.250 . S
O61 Mg43 2.030 . S
O61 C55 1.248 . S
O62 Mg45 2.079 . S
O62 C55 1.264 . S
O63 Mg64 1.990 1_655 S
O63 C77 1.253 . S
Mg64 O63 1.990 1_455 S
Mg64 O67 2.180 . S
Mg64 O68 2.117 . S
Mg64 O82 2.030 . S
O65 Mg66 2.072 . S
O65 C77 1.260 1_455 S
Mg66 O65 2.072 . S
Mg66 O67 2.099 . S
Mg66 O69 2.079 . S
Mg66 O70 2.072 . S
Mg66 O72 2.099 . S
Mg66 O83 2.079 . S
O67 Mg64 2.180 . S
O67 Mg66 2.099 . S
O67 C78 1.279 . S
O68 Mg64 2.117 . S
O68 C78 1.250 . S
O69 Mg66 2.079 . S
O69 C79 1.264 . S
O70 Mg66 2.072 . S
O70 C80 1.260 . S
Mg71 O72 2.180 . S
Mg71 O73 2.030 . S
Mg71 O74 1.990 . S
Mg71 O75 2.117 . S
O72 Mg66 2.099 . S
O72 Mg71 2.180 . S
O72 C81 1.279 . S
O73 Mg71 2.030 . S
O73 C79 1.248 . S
O74 Mg71 1.990 . S
O74 C80 1.253 . S
O75 Mg71 2.117 . S
O75 C81 1.250 . S
C76 O82 1.248 . S
C76 O83 1.264 . S
C77 O63 1.253 . S
C77 O65 1.260 1_655 S
C78 O67 1.279 . S
C78 O68 1.250 . S
C79 O69 1.264 . S
C79 O73 1.248 . S
C80 O70 1.260 . S
C80 O74 1.253 . S
C81 O72 1.279 . S
C81 O75 1.250 . S
O82 Mg64 2.030 . S
O82 C76 1.248 . S
O83 Mg66 2.079 . S
O83 C76 1.264 . S
O84 Mg85 1.990 1_545 S
O84 C98 1.253 . S
Mg85 O84 1.990 1_565 S
Mg85 O88 2.180 . S
Mg85 O89 2.117 . S
Mg85 O103 2.030 . S
O86 Mg87 2.072 . S
O86 C98 1.260 1_565 S
Mg87 O86 2.072 . S
Mg87 O88 2.099 . S
Mg87 O90 2.079 . S
Mg87 O91 2.072 . S
Mg87 O93 2.099 . S
Mg87 O104 2.079 . S
O88 Mg85 2.180 . S
O88 Mg87 2.099 . S
O88 C99 1.279 . S
O89 Mg85 2.117 . S
O89 C99 1.250 . S
O90 Mg87 2.079 . S
O90 C100 1.264 . S
O91 Mg87 2.072 . S
O91 C101 1.260 . S
Mg92 O93 2.180 . S
Mg92 O94 2.030 . S
Mg92 O95 1.990 . S
Mg92 O96 2.117 . S
O93 Mg87 2.099 . S
O93 Mg92 2.180 . S
O93 C102 1.279 . S
O94 Mg92 2.030 . S
O94 C100 1.248 . S
O95 Mg92 1.990 . S
O95 C101 1.253 . S
O96 Mg92 2.117 . S
O96 C102 1.250 . S
C97 O103 1.248 . S
C97 O104 1.264 . S
C98 O84 1.253 . S
C98 O86 1.260 1_545 S
C99 O88 1.279 . S
C99 O89 1.250 . S
C100 O90 1.264 . S
C100 O94 1.248 . S
C101 O91 1.260 . S
C101 O95 1.253 . S
C102 O93 1.279 . S
C102 O96 1.250 . S
O103 Mg85 2.030 . S
O103 C97 1.248 . S
O104 Mg87 2.079 . S
O104 C97 1.264 . S
O105 Mg106 1.990 . S
O105 C119 1.253 . S
Mg106 O105 1.990 . S
Mg106 O109 2.180 . S
Mg106 O110 2.117 . S
Mg106 O124 2.030 . S
O107 Mg108 2.072 . S
O107 C119 1.260 . S
Mg108 O107 2.072 . S
Mg108 O109 2.099 . S
Mg108 O111 2.079 . S
Mg108 O112 2.072 . S
Mg108 O114 2.099 . S
Mg108 O125 2.079 . S
O109 Mg106 2.180 . S
O109 Mg108 2.099 . S
O109 C120 1.279 . S
O110 Mg106 2.117 . S
O110 C120 1.250 . S
O111 Mg108 2.079 . S
O111 C121 1.264 . S
O112 Mg108 2.072 . S
O112 C122 1.260 . S
Mg113 O114 2.180 . S
Mg113 O115 2.030 . S
Mg113 O116 1.990 . S
Mg113 O117 2.117 . S
O114 Mg108 2.099 . S
O114 Mg113 2.180 . S
O114 C123 1.279 . S
O115 Mg113 2.030 . S
O115 C121 1.248 . S
O116 Mg113 1.990 . S
O116 C122 1.253 . S
O117 Mg113 2.117 . S
O117 C123 1.250 . S
C118 O124 1.248 . S
C118 O125 1.264 . S
C119 O105 1.253 . S
C119 O107 1.260 . S
C120 O109 1.279 . S
C120 O110 1.250 . S
C121 O111 1.264 . S
C121 O115 1.248 . S
C122 O112 1.260 . S
C122 O116 1.253 . S
C123 O114 1.279 . S
C123 O117 1.250 . S
O124 Mg106 2.030 . S
O124 C118 1.248 . S
O125 Mg108 2.079 . S
O125 C118 1.264 . S
C126 C127 1.363 1_545 S
C126 C132 1.389 . S
C126 N134 1.356 1_545 S
C127 C126 1.363 1_565 S
C127 C133 1.352 1_556 S
C128 C129 1.363 1_565 S
C128 C133 1.389 . S
C128 N135 1.356 1_565 S
C129 C128 1.363 1_545 S
C129 C132 1.352 1_554 S
N130 C132 1.353 1_554 S
N130 H142 0.984 1_554 S
N130 H143 0.985 . S
N131 C133 1.353 1_556 S
N131 H136 0.984 . S
N131 H137 0.985 1_556 S
C132 C126 1.389 . S
C132 C129 1.352 1_556 S
C132 N130 1.353 1_556 S
C133 C127 1.352 1_554 S
C133 C128 1.389 . S
C133 N131 1.353 1_554 S
N134 C126 1.356 1_565 S
N134 H140 0.984 1_565 S
N134 H141 0.984 . S
N135 C128 1.356 1_545 S
N135 H138 0.984 . S
N135 H139 0.985 1_545 S
H136 N131 0.984 . S
H137 N131 0.985 1_554 S
H138 N135 0.984 . S
H139 N135 0.985 1_565 S
H140 N134 0.984 1_545 S
H141 N134 0.984 . S
H142 N130 0.984 1_556 S
H143 N130 0.985 . S
C144 C145 1.363 . S
C144 C150 1.379 . S
C144 N152 1.356 . S
C145 C144 1.363 . S
C145 C151 1.363 . S
C146 C147 1.363 . S
C146 C151 1.379 . S
C146 N153 1.356 . S
C147 C146 1.363 . S
C147 C150 1.363 . S
N148 C150 1.356 . S
N148 H160 0.984 . S
N148 H161 0.985 . S
N149 C151 1.356 . S
N149 H154 0.984 . S
N149 H155 0.985 . S
C150 C144 1.379 . S
C150 C147 1.363 . S
C150 N148 1.356 . S
C151 C145 1.363 . S
C151 C146 1.379 . S
C151 N149 1.356 . S
N152 C144 1.356 . S
N152 H158 0.984 . S
N152 H159 0.984 . S
N153 C146 1.356 . S
N153 H156 0.984 . S
N153 H157 0.985 . S
H154 N149 0.984 . S
H155 N149 0.985 . S
H156 N153 0.984 . S
H157 N153 0.985 . S
H158 N152 0.984 . S
H159 N152 0.984 . S
H160 N148 0.984 . S
H161 N148 0.985 . S
C162 C163 1.363 . S
C162 C168 1.379 1_654 S
C162 N170 1.356 . S
C163 C162 1.363 . S
C163 C169 1.363 . S
C164 C165 1.363 . S
C164 C169 1.379 1_456 S
C164 N171 1.356 . S
C165 C164 1.363 . S
C165 C168 1.363 . S
N166 C168 1.356 . S
N166 H178 0.984 . S
N166 H179 0.985 . S
N167 C169 1.356 . S
N167 H172 0.984 . S
N167 H173 0.985 . S
C168 C162 1.379 1_456 S
C168 C165 1.363 . S
C168 N166 1.356 . S
C169 C163 1.363 . S
C169 C164 1.379 1_654 S
C169 N167 1.356 . S
N170 C162 1.356 . S
N170 H176 0.984 . S
N170 H177 0.984 . S
N171 C164 1.356 . S
N171 H174 0.984 . S
N171 H175 0.985 . S
H172 N167 0.984 . S
H173 N167 0.985 . S
H174 N171 0.984 . S
H175 N171 0.985 . S
H176 N170 0.984 . S
H177 N170 0.984 . S
H178 N166 0.984 . S
H179 N166 0.985 . S
C180 C181 1.363 . S
C180 C186 1.379 . S
C180 N188 1.356 . S
C181 C180 1.363 . S
C181 C187 1.363 1_545 S
C182 C183 1.363 . S
C182 C187 1.379 . S
C182 N189 1.356 . S
C183 C182 1.363 . S
C183 C186 1.363 1_565 S
N184 C186 1.356 . S
N184 H196 0.984 . S
N184 H197 0.985 1_545 S
N185 C187 1.356 . S
N185 H190 0.984 1_565 S
N185 H191 0.985 . S
C186 C180 1.379 . S
C186 C183 1.363 1_545 S
C186 N184 1.356 . S
C187 C181 1.363 1_565 S
C187 C182 1.379 . S
C187 N185 1.356 . S
N188 C180 1.356 . S
N188 H194 0.984 . S
N188 H195 0.984 . S
N189 C182 1.356 . S
N189 H192 0.984 . S
N189 H193 0.985 . S
H190 N185 0.984 1_545 S
H191 N185 0.985 . S
H192 N189 0.984 . S
H193 N189 0.985 . S
H194 N188 0.984 . S
H195 N188 0.984 . S
H196 N184 0.984 . S
H197 N184 0.985 1_565 S
C198 C199 1.363 . S
C198 C204 1.379 1_556 S
C198 N206 1.356 . S
C199 C198 1.363 . S
C199 C205 1.363 . S
C200 C201 1.363 . S
C200 C205 1.379 1_554 S
C200 N207 1.356 . S
C201 C200 1.363 . S
C201 C204 1.363 . S
N202 C204 1.356 . S
N202 H214 0.984 . S
N202 H215 0.985 . S
N203 C205 1.356 . S
N203 H208 0.984 . S
N203 H209 0.985 . S
C204 C198 1.379 1_554 S
C204 C201 1.363 . S
C204 N202 1.356 . S
C205 C199 1.363 . S
C205 C200 1.379 1_556 S
C205 N203 1.356 . S
N206 C198 1.356 . S
N206 H212 0.984 . S
N206 H213 0.984 . S
N207 C200 1.356 . S
N207 H210 0.984 . S
N207 H211 0.985 . S
H208 N203 0.984 . S
H209 N203 0.985 . S
H210 N207 0.984 . S
H211 N207 0.985 . S
H212 N206 0.984 . S
H213 N206 0.984 . S
H214 N202 0.984 . S
H215 N202 0.985 . S
C216 C217 1.363 . S
C216 C222 1.379 . S
C216 N224 1.356 . S
C217 C216 1.363 . S
C217 C223 1.363 1_655 S
C218 C219 1.363 . S
C218 C223 1.379 . S
C218 N225 1.356 . S
C219 C218 1.363 . S
C219 C222 1.363 1_455 S
N220 C222 1.356 . S
N220 H232 0.984 . S
N220 H233 0.985 1_655 S
N221 C223 1.356 . S
N221 H226 0.984 1_455 S
N221 H227 0.985 . S
C222 C216 1.379 . S
C222 C219 1.363 1_655 S
C222 N220 1.356 . S
C223 C217 1.363 1_455 S
C223 C218 1.379 . S
C223 N221 1.356 . S
N224 C216 1.356 . S
N224 H230 0.984 . S
N224 H231 0.984 . S
N225 C218 1.356 . S
N225 H228 0.984 . S
N225 H229 0.985 . S
H226 N221 0.984 1_655 S
H227 N221 0.985 . S
H228 N225 0.984 . S
H229 N225 0.985 . S
H230 N224 0.984 . S
H231 N224 0.984 . S
H232 N220 0.984 . S
H233 N220 0.985 1_455 S
C234 C235 1.363 . S
C234 C240 1.379 . S
C234 N242 1.356 . S
C235 C234 1.363 . S
C235 C241 1.363 . S
C236 C237 1.363 . S
C236 C241 1.379 . S
C236 N243 1.356 . S
C237 C236 1.363 . S
C237 C240 1.363 . S
N238 C240 1.356 . S
N238 H250 0.984 . S
N238 H251 0.985 . S
N239 C241 1.356 . S
N239 H244 0.984 . S
N239 H245 0.985 . S
C240 C234 1.379 . S
C240 C237 1.363 . S
C240 N238 1.356 . S
C241 C235 1.363 . S
C241 C236 1.379 . S
C241 N239 1.356 . S
N242 C234 1.356 . S
N242 H248 0.984 . S
N242 H249 0.984 . S
N243 C236 1.356 . S
N243 H246 0.984 . S
N243 H247 0.985 . S
H244 N239 0.984 . S
H245 N239 0.985 . S
H246 N243 0.984 . S
H247 N243 0.985 . S
H248 N242 0.984 . S
H249 N242 0.984 . S
H250 N238 0.984 . S
H251 N238 0.985 . S
C252 C253 1.363 . S
C252 C258 1.379 . S
C252 N260 1.356 . S
C253 C252 1.363 . S
C253 C259 1.363 . S
C254 C255 1.363 . S
C254 C259 1.379 . S
C254 N261 1.356 . S
C255 C254 1.363 . S
C255 C258 1.363 . S
N256 C258 1.356 . S
N256 H268 0.984 . S
N256 H269 0.985 . S
N257 C259 1.356 . S
N257 H262 0.984 . S
N257 H263 0.985 . S
C258 C252 1.379 . S
C258 C255 1.363 . S
C258 N256 1.356 . S
C259 C253 1.363 . S
C259 C254 1.379 . S
C259 N257 1.356 . S
N260 C252 1.356 . S
N260 H266 0.984 . S
N260 H267 0.984 . S
N261 C254 1.356 . S
N261 H264 0.984 . S
N261 H265 0.985 . S
H262 N257 0.984 . S
H263 N257 0.985 . S
H264 N261 0.984 . S
H265 N261 0.985 . S
H266 N260 0.984 . S
H267 N260 0.984 . S
H268 N256 0.984 . S
H269 N256 0.985 . S
C270 C271 1.363 . S
C270 C276 1.379 . S
C270 N278 1.356 . S
C271 C270 1.363 . S
C271 C277 1.363 . S
C272 C273 1.363 . S
C272 C277 1.379 . S
C272 N279 1.356 . S
C273 C272 1.363 . S
C273 C276 1.363 . S
N274 C276 1.356 . S
N274 H286 0.984 . S
N274 H287 0.985 . S
N275 C277 1.356 . S
N275 H280 0.984 . S
N275 H281 0.985 . S
C276 C270 1.379 . S
C276 C273 1.363 . S
C276 N274 1.356 . S
C277 C271 1.363 . S
C277 C272 1.379 . S
C277 N275 1.356 . S
N278 C270 1.356 . S
N278 H284 0.984 . S
N278 H285 0.984 . S
N279 C272 1.356 . S
N279 H282 0.984 . S
N279 H283 0.985 . S
H280 N275 0.984 . S
H281 N275 0.985 . S
H282 N279 0.984 . S
H283 N279 0.985 . S
H284 N278 0.984 . S
H285 N278 0.984 . S
H286 N274 0.984 . S
H287 N274 0.985 . S
C288 C289 1.363 . S
C288 C294 1.379 . S
C288 N296 1.356 . S
C289 C288 1.363 . S
C289 C295 1.363 . S
C290 C291 1.363 . S
C290 C295 1.379 . S
C290 N297 1.356 . S
C291 C290 1.363 . S
C291 C294 1.363 . S
N292 C294 1.356 . S
N292 H304 0.984 . S
N292 H305 0.985 . S
N293 C295 1.356 . S
N293 H298 0.984 . S
N293 H299 0.985 . S
C294 C288 1.379 . S
C294 C291 1.363 . S
C294 N292 1.356 . S
C295 C289 1.363 . S
C295 C290 1.379 . S
C295 N293 1.356 . S
N296 C288 1.356 . S
N296 H302 0.984 . S
N296 H303 0.984 . S
N297 C290 1.356 . S
N297 H300 0.984 . S
N297 H301 0.985 . S
H298 N293 0.984 . S
H299 N293 0.985 . S
H300 N297 0.984 . S
H301 N297 0.985 . S
H302 N296 0.984 . S
H303 N296 0.984 . S
H304 N292 0.984 . S
H305 N292 0.985 . S
C306 C307 1.363 . S
C306 C312 1.379 . S
C306 N314 1.356 . S
C307 C306 1.363 . S
C307 C313 1.363 . S
C308 C309 1.363 . S
C308 C313 1.379 . S
C308 N315 1.356 . S
C309 C308 1.363 . S
C309 C312 1.363 . S
N310 C312 1.356 . S
N310 H322 0.984 . S
N310 H323 0.985 . S
N311 C313 1.356 . S
N311 H316 0.984 . S
N311 H317 0.985 . S
C312 C306 1.379 . S
C312 C309 1.363 . S
C312 N310 1.356 . S
C313 C307 1.363 . S
C313 C308 1.379 . S
C313 N311 1.356 . S
N314 C306 1.356 . S
N314 H320 0.984 . S
N314 H321 0.984 . S
N315 C308 1.356 . S
N315 H318 0.984 . S
N315 H319 0.985 . S
H316 N311 0.984 . S
H317 N311 0.985 . S
H318 N315 0.984 . S
H319 N315 0.985 . S
H320 N314 0.984 . S
H321 N314 0.984 . S
H322 N310 0.984 . S
H323 N310 0.985 . S
C324 C325 1.363 . S
C324 C330 1.379 . S
C324 N332 1.356 . S
C325 C324 1.363 . S
C325 C331 1.363 . S
C326 C327 1.363 . S
C326 C331 1.379 . S
C326 N333 1.356 . S
C327 C326 1.363 . S
C327 C330 1.363 . S
N328 C330 1.356 . S
N328 H340 0.984 . S
N328 H341 0.985 . S
N329 C331 1.356 . S
N329 H334 0.984 . S
N329 H335 0.985 . S
C330 C324 1.379 . S
C330 C327 1.363 . S
C330 N328 1.356 . S
C331 C325 1.363 . S
C331 C326 1.379 . S
C331 N329 1.356 . S
N332 C324 1.356 . S
N332 H338 0.984 . S
N332 H339 0.984 . S
N333 C326 1.356 . S
N333 H336 0.984 . S
N333 H337 0.985 . S
H334 N329 0.984 . S
H335 N329 0.985 . S
H336 N333 0.984 . S
H337 N333 0.985 . S
H338 N332 0.984 . S
H339 N332 0.984 . S
H340 N328 0.984 . S
H341 N328 0.985 . S
C342 C343 1.363 . S
C342 C348 1.379 . S
C342 N350 1.356 . S
C343 C342 1.363 . S
C343 C349 1.363 . S
C344 C345 1.363 . S
C344 C349 1.379 . S
C344 N351 1.356 . S
C345 C344 1.363 . S
C345 C348 1.363 . S
N346 C348 1.356 . S
N346 H358 0.984 . S
N346 H359 0.985 . S
N347 C349 1.356 . S
N347 H352 0.984 . S
N347 H353 0.985 . S
C348 C342 1.379 . S
C348 C345 1.363 . S
C348 N346 1.356 . S
C349 C343 1.363 . S
C349 C344 1.379 . S
C349 N347 1.356 . S
N350 C342 1.356 . S
N350 H356 0.984 . S
N350 H357 0.984 . S
N351 C344 1.356 . S
N351 H354 0.984 . S
N351 H355 0.985 1_455 S
H352 N347 0.984 . S
H353 N347 0.985 . S
H354 N351 0.984 . S
H355 N351 0.985 1_655 S
H356 N350 0.984 . S
H357 N350 0.984 . S
H358 N346 0.984 . S
H359 N346 0.985 . S
C360 C361 1.363 1_455 S
C360 C366 1.379 . S
C360 N368 1.356 1_455 S
C361 C360 1.363 1_655 S
C361 C367 1.363 1_655 S
C362 C363 1.363 . S
C362 C367 1.379 . S
C362 N369 1.356 . S
C363 C362 1.363 . S
C363 C366 1.363 . S
N364 C366 1.356 . S
N364 H376 0.984 1_565 S
N364 H377 0.989 1_565 S
N365 C367 1.356 1_655 S
N365 H370 0.984 . S
N365 H371 0.985 . S
C366 C360 1.379 . S
C366 C363 1.363 . S
C366 N364 1.356 . S
C367 C361 1.363 1_455 S
C367 C362 1.379 . S
C367 N365 1.356 1_455 S
N368 C360 1.356 1_655 S
N368 H374 0.984 . S
N368 H375 0.984 . S
N369 C362 1.356 . S
N369 H372 0.984 . S
N369 H373 0.985 . S
H370 N365 0.984 . S
H371 N365 0.985 . S
H372 N369 0.984 . S
H373 N369 0.985 . S
H374 N368 0.984 . S
H375 N368 0.984 . S
H376 N364 0.984 1_545 S
H377 N364 0.989 1_545 S
C378 C379 1.363 1_565 S
C378 C384 1.379 . S
C378 N386 1.356 1_565 S
C379 C378 1.363 1_545 S
C379 C385 1.363 1_545 S
C380 C381 1.363 . S
C380 C385 1.379 . S
C380 N387 1.356 . S
C381 C380 1.363 . S
C381 C384 1.363 . S
N382 C384 1.356 . S
N382 H394 0.984 . S
N382 H395 0.985 . S
N383 C385 1.356 1_545 S
N383 H388 0.984 . S
N383 H389 0.985 . S
C384 C378 1.379 . S
C384 C381 1.363 . S
C384 N382 1.356 . S
C385 C379 1.363 1_565 S
C385 C380 1.379 . S
C385 N383 1.356 1_565 S
N386 C378 1.356 1_545 S
N386 H392 0.984 . S
N386 H393 0.984 . S
N387 C380 1.356 . S
N387 H390 0.984 . S
N387 H391 0.985 . S
H388 N383 0.984 . S
H389 N383 0.985 . S
H390 N387 0.984 . S
H391 N387 0.985 . S
H392 N386 0.984 . S
H393 N386 0.984 . S
H394 N382 0.984 . S
H395 N382 0.985 . S
C396 C397 1.363 . S
C396 C402 1.379 . S
C396 N404 1.356 . S
C397 C396 1.363 . S
C397 C403 1.363 . S
C398 C399 1.363 . S
C398 C403 1.379 . S
C398 N405 1.356 . S
C399 C398 1.363 . S
C399 C402 1.363 . S
N400 C402 1.356 . S
N400 H412 0.984 . S
N400 H413 0.985 . S
N401 C403 1.356 . S
N401 H406 0.984 . S
N401 H407 0.985 . S
C402 C396 1.379 . S
C402 C399 1.363 . S
C402 N400 1.356 . S
C403 C397 1.363 . S
C403 C398 1.379 . S
C403 N401 1.356 . S
N404 C396 1.356 . S
N404 H410 0.984 . S
N404 H411 0.984 . S
N405 C398 1.356 . S
N405 H408 0.984 . S
N405 H409 0.986 . S
H406 N401 0.984 . S
H407 N401 0.985 . S
H408 N405 0.984 . S
H409 N405 0.986 . S
H410 N404 0.984 . S
H411 N404 0.984 . S
H412 N400 0.984 . S
H413 N400 0.985 . S
C414 C415 1.363 1_655 S
C414 C420 1.379 . S
C414 N422 1.356 1_655 S
C415 C414 1.363 1_455 S
C415 C421 1.363 1_455 S
C416 C417 1.363 . S
C416 C421 1.379 . S
C416 N423 1.356 . S
C417 C416 1.363 . S
C417 C420 1.363 . S
N418 C420 1.356 . S
N418 H430 0.984 . S
N418 H431 0.985 . S
N419 C421 1.356 1_455 S
N419 H424 0.984 . S
N419 H425 0.985 . S
C420 C414 1.379 . S
C420 C417 1.363 . S
C420 N418 1.356 . S
C421 C415 1.363 1_655 S
C421 C416 1.379 . S
C421 N419 1.356 1_655 S
N422 C414 1.356 1_455 S
N422 H428 0.984 . S
N422 H429 0.984 . S
N423 C416 1.356 . S
N423 H426 0.984 . S
N423 H427 0.985 . S
H424 N419 0.984 . S
H425 N419 0.985 . S
H426 N423 0.984 . S
H427 N423 0.985 . S
H428 N422 0.984 . S
H429 N422 0.984 . S
H430 N418 0.984 . S
H431 N418 0.985 . S
C432 C433 1.363 . S
C432 C438 1.379 . S
C432 N440 1.356 . S
C433 C432 1.363 . S
C433 C439 1.363 . S
C434 C435 1.363 1_545 S
C434 C439 1.379 . S
C434 N441 1.356 1_545 S
C435 C434 1.363 1_565 S
C435 C438 1.363 1_565 S
N436 C438 1.356 1_565 S
N436 H448 0.984 . S
N436 H449 0.985 . S
N437 C439 1.356 . S
N437 H442 0.984 . S
N437 H443 0.985 . S
C438 C432 1.379 . S
C438 C435 1.363 1_545 S
C438 N436 1.356 1_545 S
C439 C433 1.363 . S
C439 C434 1.379 . S
C439 N437 1.356 . S
N440 C432 1.356 . S
N440 H446 0.984 . S
N440 H447 0.984 . S
N441 C434 1.356 1_565 S
N441 H444 0.984 . S
N441 H445 0.985 . S
H442 N437 0.984 . S
H443 N437 0.985 . S
H444 N441 0.984 . S
H445 N441 0.985 . S
H446 N440 0.984 . S
H447 N440 0.984 . S
H448 N436 0.984 . S
H449 N436 0.985 . S
C127 C99 1.581 . S
C129 C18 1.581 . S
C145 C123 1.678 . S
C147 C36 1.678 . S
C163 C60 1.581 . S
C165 C78 1.581 . S
C181 C15 1.678 . S
C183 C102 1.678 . S
C199 C120 1.581 . S
C201 C39 1.581 . S
C217 C57 1.678 . S
C219 C81 1.678 . S
C235 C14 1.329 . S
C237 C55 1.478 . S
C253 C35 1.329 . S
C255 C13 1.478 . S
C271 C56 1.329 . S
C273 C34 1.478 . S
C289 C80 1.329 . S
C291 C100 1.478 . S
C307 C101 1.329 . S
C309 C121 1.478 . S
C325 C79 1.478 . S
C327 C122 1.329 . S
C343 C16 1.103 . S
C345 C59 1.005 . S
C361 C37 1.103 . S
C363 C17 1.005 . S
C379 C58 1.103 . S
C381 C38 1.005 . S
C397 C76 1.103 . S
C399 C98 1.005 . S
C415 C97 1.103 . S
C417 C119 1.005 . S
C433 C77 1.005 . S
C435 C118 1.103 . S
