# Generated by pormake.
# Topology smm, (6)-cn, num edge types: 1
# Building blocks:
#     Node 0, Type 0, BuildingBlock: PAMTOO_clean_sbu_0, # of connection points: 6
#     Node 1, Type 0, BuildingBlock: PAMTOO_clean_sbu_0, # of connection points: 6
#     Node 2, Type 0, BuildingBlock: PAMTOO_clean_sbu_0, # of connection points: 6
#     Node 3, Type 0, BuildingBlock: PAMTOO_clean_sbu_0, # of connection points: 6
#     Node 4, Type 0, BuildingBlock: PAMTOO_clean_sbu_0, # of connection points: 6
#     Node 5, Type 0, BuildingBlock: PAMTOO_clean_sbu_0, # of connection points: 6
#     Node 6, Type 0, BuildingBlock: PAMTOO_clean_sbu_0, # of connection points: 6
#     Node 7, Type 0, BuildingBlock: PAMTOO_clean_sbu_0, # of connection points: 6
#     Node 8, Type 0, BuildingBlock: PAMTOO_clean_sbu_0, # of connection points: 6
#     Edge 9, Type (0, 0), BuildingBlock: MIFKUJ_clean_linker_0, # of connection points: 2
#     Edge 10, Type (0, 0), BuildingBlock: MIFKUJ_clean_linker_0, # of connection points: 2
#     Edge 11, Type (0, 0), BuildingBlock: MIFKUJ_clean_linker_0, # of connection points: 2
#     Edge 12, Type (0, 0), BuildingBlock: MIFKUJ_clean_linker_0, # of connection points: 2
#     Edge 13, Type (0, 0), BuildingBlock: MIFKUJ_clean_linker_0, # of connection points: 2
#     Edge 14, Type (0, 0), BuildingBlock: MIFKUJ_clean_linker_0, # of connection points: 2
#     Edge 15, Type (0, 0), BuildingBlock: MIFKUJ_clean_linker_0, # of connection points: 2
#     Edge 16, Type (0, 0), BuildingBlock: MIFKUJ_clean_linker_0, # of connection points: 2
#     Edge 17, Type (0, 0), BuildingBlock: MIFKUJ_clean_linker_0, # of connection points: 2
#     Edge 18, Type (0, 0), BuildingBlock: MIFKUJ_clean_linker_0, # of connection points: 2
#     Edge 19, Type (0, 0), BuildingBlock: MIFKUJ_clean_linker_0, # of connection points: 2
#     Edge 20, Type (0, 0), BuildingBlock: MIFKUJ_clean_linker_0, # of connection points: 2
#     Edge 21, Type (0, 0), BuildingBlock: MIFKUJ_clean_linker_0, # of connection points: 2
#     Edge 22, Type (0, 0), BuildingBlock: MIFKUJ_clean_linker_0, # of connection points: 2
#     Edge 23, Type (0, 0), BuildingBlock: MIFKUJ_clean_linker_0, # of connection points: 2
#     Edge 24, Type (0, 0), BuildingBlock: MIFKUJ_clean_linker_0, # of connection points: 2
#     Edge 25, Type (0, 0), BuildingBlock: MIFKUJ_clean_linker_0, # of connection points: 2
#     Edge 26, Type (0, 0), BuildingBlock: MIFKUJ_clean_linker_0, # of connection points: 2
#     Edge 27, Type (0, 0), BuildingBlock: MIFKUJ_clean_linker_0, # of connection points: 2
#     Edge 28, Type (0, 0), BuildingBlock: MIFKUJ_clean_linker_0, # of connection points: 2
#     Edge 29, Type (0, 0), BuildingBlock: MIFKUJ_clean_linker_0, # of connection points: 2
#     Edge 30, Type (0, 0), BuildingBlock: MIFKUJ_clean_linker_0, # of connection points: 2
#     Edge 31, Type (0, 0), BuildingBlock: MIFKUJ_clean_linker_0, # of connection points: 2
#     Edge 32, Type (0, 0), BuildingBlock: MIFKUJ_clean_linker_0, # of connection points: 2
#     Edge 33, Type (0, 0), BuildingBlock: MIFKUJ_clean_linker_0, # of connection points: 2
#     Edge 34, Type (0, 0), BuildingBlock: MIFKUJ_clean_linker_0, # of connection points: 2
#     Edge 35, Type (0, 0), BuildingBlock: MIFKUJ_clean_linker_0, # of connection points: 2
# Relax obj value: 0.061
# Max RMSD: 0.139
# Mean RMSD: 0.139
data_MOF--net-smm--node1-PAMTOO_clean_sbu_0--edge1-MIFKUJ_clean_linker_0
_symmetry_space_group_name_H-M    P1
_symmetry_Int_Tables_number       1
_symmetry_cell_setting            triclinic
loop_
_symmetry_equiv_pos_as_xyz
'x, y, z'
_cell_length_a     86.156585
_cell_length_b     86.269542
_cell_length_c     18.716049
_cell_angle_alpha  90.124454
_cell_angle_beta   90.054427
_cell_angle_gamma 119.88852
loop_
_atom_site_label
_atom_site_type_symbol
_atom_site_fract_x
_atom_site_fract_y
_atom_site_fract_z
_atom_type_partial_charge
Dy0 Dy 1.00831 0.1678 0.02015 0.0
Dy1 Dy 0.0492 0.21319 0.97925 0.0
C2 C 0.04259 0.20013 0.12279 0.0
O3 O 1.00182 0.18984 0.04061 0.0
O4 O 0.02795 0.21826 0.02535 0.0
O5 O 1.00364 0.14803 0.10119 0.0
O6 O 0.98128 0.14783 0.04607 0.0
O7 O 0.026 0.19014 0.93334 0.0
O8 O 1.00267 0.16615 0.90195 0.0
O9 O 0.05699 0.19181 0.96955 0.0
O10 O 0.03092 0.16348 -0.01386 0.0
O11 O 0.05257 0.22977 0.88757 0.0
O12 O 0.07559 0.23451 0.95238 0.0
C13 C 1.01076 0.20769 0.04208 0.0
O14 O 0.03136 0.19007 0.07362 0.0
O15 O 0.05546 0.215 0.09655 0.0
C16 C 0.97846 0.1196 0.07382 0.0
C17 C 0.96281 0.08234 0.04957 0.0
C18 C 0.97463 0.09059 0.10721 0.0
C19 C 0.98232 0.10902 0.11934 0.0
C20 C 0.96685 0.11137 0.01557 0.0
C21 C 0.95911 0.09299 0.00372 0.0
C22 C 0.98645 0.13906 0.0877 0.0
C23 C 1.0159 0.18119 0.8798 0.0
C24 C 0.04836 0.17401 0.974 0.0
C25 C 0.07699 0.25987 0.89448 0.0
C26 C 0.09299 0.2972 0.87177 0.0
C27 C 0.07641 0.28526 0.84025 0.0
C28 C 0.06854 0.26681 0.85119 0.0
C29 C 0.09336 0.27186 0.92733 0.0
C30 C 0.10122 0.29028 0.91628 0.0
C31 C 0.06969 0.24026 0.90003 0.0
H32 H 0.97766 0.08276 0.14384 0.0
H33 H 0.9912 0.11498 0.16464 0.0
H34 H 0.96365 0.11909 0.97899 0.0
H35 H 0.95029 0.08712 0.95818 0.0
H36 H 0.0698 0.29012 0.805 0.0
H37 H 0.05606 0.25796 0.82421 0.0
H38 H 0.10034 0.26701 0.96049 0.0
H39 H 0.11388 0.2991 0.94214 0.0
Dy40 Dy 0.88094 0.86044 0.02671 0.0
Dy41 Dy 0.83914 0.85296 -0.01387 0.0
C42 C 0.85672 0.86406 0.1365 0.0
O43 O 0.86105 0.83298 0.06785 0.0
O44 O 0.83591 0.82586 -0.00035 0.0
O45 O 0.9039 0.87469 0.09641 0.0
O46 O 0.90313 0.8554 0.02043 0.0
O47 O 0.84814 0.84516 0.88866 0.0
O48 O 0.87746 0.85228 0.91346 0.0
O49 O 0.85843 0.88258 0.98256 0.0
O50 O 0.88522 0.88357 0.96026 0.0
O51 O 0.81994 0.85335 0.91259 0.0
O52 O 0.81315 0.84732 0.02447 0.0
C53 C 0.84513 0.82124 0.04213 0.0
O54 O 0.87126 0.87381 0.10051 0.0
O55 O 0.84238 0.85217 0.10317 0.0
C56 C 0.93208 0.87993 0.05063 0.0
C57 C 0.96969 0.90138 0.03058 0.0
C58 C 0.96041 0.90713 0.07545 0.0
C59 C 0.94189 0.89653 0.08555 0.0
C60 C 0.94127 0.87433 0.00472 0.0
C61 C 0.95979 0.88492 -0.00532 0.0
C62 C 0.91279 0.86776 0.06709 0.0
C63 C 0.86343 0.84626 0.8714 0.0
C64 C 0.87542 0.89134 0.9635 0.0
C65 C 0.78894 0.83562 0.94213 0.0
C66 C 0.75281 0.81255 0.90295 0.0
C67 C 0.76658 0.81026 0.87334 0.0
C68 C 0.78453 0.82175 0.89263 0.0
C69 C 0.7752 0.8376 0.97281 0.0
C70 C 0.75737 0.82623 0.95356 0.0
C71 C 0.80761 0.84876 0.96136 0.0
H72 H 0.96748 0.91982 0.10324 0.0
H73 H 0.93533 0.90122 0.12186 0.0
H74 H 0.93423 0.86152 0.9778 0.0
H75 H 0.96643 0.87987 0.96053 0.0
H76 H 0.76352 0.7999 0.834 0.0
H77 H 0.79492 0.81995 0.86827 0.0
H78 H 0.7783 0.84817 0.01128 0.0
H79 H 0.74711 0.82817 0.97843 0.0
Dy80 Dy 0.1975 0.04237 0.02377 0.0
Dy81 Dy 0.20191 1.00681 0.98092 0.0
C82 C 0.19629 0.0155 0.13746 0.0
O83 O 0.22704 0.05297 0.01353 0.0
O84 O 0.2281 0.02692 0.02847 0.0
O85 O 0.18789 0.05538 0.0959 0.0
O86 O 0.20196 0.06871 -0.00124 0.0
O87 O 0.21173 0.02715 0.89485 0.0
O88 O 0.19047 0.03493 0.91049 0.0
O89 O 0.17297 0.99814 0.95973 0.0
O90 O 0.17009 0.01844 0.03131 0.0
O91 O 0.20203 0.98888 0.89947 0.0
O92 O 0.20701 0.98565 0.01062 0.0
C93 C 0.23586 0.04449 0.02807 0.0
O94 O 0.20467 0.03243 0.11998 0.0
O95 O 0.18998 1.00279 0.08923 0.0
C96 C 0.17964 0.07519 0.04178 0.0
C97 C 0.15646 0.08939 0.02327 0.0
C98 C 0.15974 0.0849 0.09169 0.0
C99 C 0.17121 0.07793 0.10078 0.0
C100 C 0.17613 0.07935 0.97314 0.0
C101 C 0.16468 0.08636 0.96404 0.0
C102 C 0.19277 0.06907 0.05368 0.0
C103 C 0.20065 0.03182 0.86823 0.0
C104 C 0.16308 1.00344 -0.00571 0.0
C105 C 0.22041 0.97576 0.92318 0.0
C106 C 0.2432 0.96201 0.88598 0.0
C107 C 0.23138 0.96259 0.83541 0.0
C108 C 0.22009 0.9693 0.8539 0.0
C109 C 0.23267 0.9758 0.97304 0.0
C110 C 0.24391 0.96901 0.95467 0.0
C111 C 0.20657 0.98034 0.94492 0.0
H112 H 0.15386 0.08724 0.13865 0.0
H113 H 0.17379 0.075 0.15434 0.0
H114 H 0.18238 0.0774 0.92644 0.0
H115 H 0.16227 0.08942 0.91048 0.0
H116 H 0.23066 0.95762 0.78162 0.0
H117 H 0.21071 0.96895 0.81444 0.0
H118 H 0.23321 0.98051 0.02716 0.0
H119 H 0.25265 0.96863 -0.0046 0.0
Dy120 Dy 0.67708 0.50225 0.35027 0.0
Dy121 Dy 0.71765 0.5482 0.31072 0.0
C122 C 0.71056 0.53489 0.45398 0.0
O123 O 0.6701 0.52391 0.37103 0.0
O124 O 0.69582 0.55258 0.35456 0.0
O125 O 0.6728 0.48263 0.43137 0.0
O126 O 0.6502 0.48181 0.37571 0.0
O127 O 0.69464 0.52508 0.2632 0.0
O128 O 0.67152 0.50073 0.23214 0.0
O129 O 0.72582 0.52707 0.30283 0.0
O130 O 0.69979 0.49844 0.31337 0.0
O131 O 0.72129 0.56452 0.21741 0.0
O132 O 0.74379 0.57052 0.28787 0.0
C133 C 0.6787 0.54177 0.37173 0.0
O134 O 0.6998 0.52484 0.40364 0.0
O135 O 0.72336 0.54993 0.42869 0.0
C136 C 0.64771 0.4538 0.40558 0.0
C137 C 0.63204 0.41637 0.38431 0.0
C138 C 0.64725 0.42571 0.42816 0.0
C139 C 0.65495 0.44419 0.43886 0.0
C140 C 0.63257 0.44444 0.36148 0.0
C141 C 0.62489 0.42602 0.35084 0.0
C142 C 0.6556 0.47335 0.41799 0.0
C143 C 0.68464 0.51584 0.2098 0.0
C144 C 0.7173 0.50922 0.30383 0.0
C145 C 0.74439 0.59507 0.22614 0.0
C146 C 0.75904 0.63246 0.20755 0.0
C147 C 0.75174 0.62059 0.1493 0.0
C148 C 0.74454 0.60215 0.15855 0.0
C149 C 0.75125 0.60679 0.28485 0.0
C150 C 0.75851 0.62526 0.27563 0.0
C151 C 0.73809 0.57568 0.23287 0.0
H152 H 0.65299 0.41868 0.45544 0.0
H153 H 0.66651 0.45094 0.47368 0.0
H154 H 0.62655 0.45132 0.33508 0.0
H155 H 0.61337 0.41935 0.31587 0.0
H156 H 0.75208 0.62557 0.09594 0.0
H157 H 0.73945 0.59342 0.11236 0.0
H158 H 0.75126 0.60173 0.33775 0.0
H159 H 0.76373 0.63391 0.32195 0.0
Dy160 Dy 0.55336 0.19115 0.35205 0.0
Dy161 Dy 0.50789 0.18617 0.30926 0.0
C162 C 0.51973 0.19087 0.45904 0.0
O163 O 0.53153 0.1626 0.37288 0.0
O164 O 0.50304 0.15948 0.34742 0.0
O165 O 0.57342 0.20632 0.43235 0.0
O166 O 0.57386 0.18451 0.37566 0.0
O167 O 0.5314 0.18665 0.26772 0.0
O168 O 0.55514 0.18738 0.23372 0.0
O169 O 0.52876 0.21539 0.30589 0.0
O170 O 0.5573 0.21792 0.31806 0.0
O171 O 0.49168 0.17386 0.21535 0.0
O172 O 0.48652 0.19135 0.28345 0.0
C173 C 0.5137 0.15328 0.36825 0.0
O174 O 0.53221 0.19097 0.41915 0.0
O175 O 0.50536 0.18881 0.42643 0.0
C176 C 0.60195 0.2099 0.40601 0.0
C177 C 0.63927 0.23188 0.38495 0.0
C178 C 0.63097 0.23399 0.44598 0.0
C179 C 0.61251 0.22308 0.45647 0.0
C180 C 0.6102 0.208 0.34444 0.0
C181 C 0.62863 0.21882 0.33415 0.0
C182 C 0.5825 0.19824 0.41845 0.0
C183 C 0.54006 0.18572 0.213 0.0
C184 C 0.54658 0.22472 0.30871 0.0
C185 C 0.46138 0.16791 0.22288 0.0
C186 C 0.42397 0.14615 0.2015 0.0
C187 C 0.43581 0.14033 0.17886 0.0
C188 C 0.45432 0.15113 0.18911 0.0
C189 C 0.44948 0.17353 0.24649 0.0
C190 C 0.43103 0.16278 0.23613 0.0
C191 C 0.48099 0.18021 0.22927 0.0
H192 H 0.63879 0.24382 0.48644 0.0
H193 H 0.6065 0.22484 0.50437 0.0
H194 H 0.60245 0.1981 0.30411 0.0
H195 H 0.63454 0.21702 0.28604 0.0
H196 H 0.43081 0.12767 0.15128 0.0
H197 H 0.46309 0.14646 0.16937 0.0
H198 H 0.45445 0.18643 0.27208 0.0
H199 H 0.42228 0.16756 0.25498 0.0
Dy200 Dy 0.86623 0.3777 0.35113 0.0
Dy201 Dy 0.86998 0.34075 0.32548 0.0
C202 C 0.86045 0.35151 0.47181 0.0
O203 O 0.89565 0.38761 0.34277 0.0
O204 O 0.89599 0.36172 0.37117 0.0
O205 O 0.85799 0.39216 0.42082 0.0
O206 O 0.87022 0.40353 0.3184 0.0
O207 O 0.87996 0.3587 0.23075 0.0
O208 O 0.86025 0.36898 0.23895 0.0
O209 O 0.84109 0.33176 0.30268 0.0
O210 O 0.83819 0.3548 0.35273 0.0
O211 O 0.8677 0.31984 0.25458 0.0
O212 O 0.87717 0.32151 0.3634 0.0
C213 C 0.90415 0.3792 0.36323 0.0
O214 O 0.87163 0.36772 0.45072 0.0
O215 O 0.8559 0.3379 0.4288 0.0
C216 C 0.84872 0.41083 0.36327 0.0
C217 C 0.82507 0.4246 0.3517 0.0
C218 C 0.81951 0.40803 0.38488 0.0
C219 C 0.83121 0.4012 0.39064 0.0
C220 C 0.85407 0.42708 0.32836 0.0
C221 C 0.84239 0.43386 0.32238 0.0
C222 C 0.86202 0.40495 0.37469 0.0
C223 C 0.87016 0.36458 0.20078 0.0
C224 C 0.83123 0.3386 0.3253 0.0
C225 C 0.88775 0.30861 0.27586 0.0
C226 C 0.91011 0.29488 0.23133 0.0
C227 C 0.8979 0.29568 0.18352 0.0
C228 C 0.88684 0.3024 0.20556 0.0
C229 C 0.90026 0.30822 0.32318 0.0
C230 C 0.91131 0.30149 0.30116 0.0
C231 C 0.87442 0.31356 0.30135 0.0
H232 H 0.80631 0.40058 0.40838 0.0
H233 H 0.82665 0.3886 0.41786 0.0
H234 H 0.86746 0.43475 0.30676 0.0
H235 H 0.847 0.44646 0.29508 0.0
H236 H 0.89675 0.29096 0.12906 0.0
H237 H 0.87725 0.30232 0.16785 0.0
H238 H 0.90119 0.31264 0.37801 0.0
H239 H 0.92035 0.30089 0.33981 0.0
Dy240 Dy 0.34245 0.83448 0.68784 0.0
Dy241 Dy 0.3818 0.88046 0.64246 0.0
C242 C 0.37596 0.86831 0.78687 0.0
O243 O 0.33476 0.85567 0.70872 0.0
O244 O 0.36016 0.8845 0.6911 0.0
O245 O 0.33975 0.81491 0.7666 0.0
O246 O 0.31613 0.81402 0.72018 0.0
O247 O 0.35905 0.85704 0.59394 0.0
O248 O 0.33586 0.83177 0.57074 0.0
O249 O 0.39076 0.85986 0.63458 0.0
O250 O 0.36514 0.83113 0.64765 0.0
O251 O 0.38401 0.89764 0.55467 0.0
O252 O 0.40788 0.90192 0.61171 0.0
C253 C 0.3432 0.87352 0.70967 0.0
O254 O 0.36534 0.85771 0.73725 0.0
O255 O 0.38827 0.88338 0.75983 0.0
C256 C 0.31458 0.78622 0.74493 0.0
C257 C 0.29937 0.74893 0.72148 0.0
C258 C 0.31019 0.75725 0.78181 0.0
C259 C 0.31763 0.77564 0.7935 0.0
C260 C 0.30407 0.77804 0.68394 0.0
C261 C 0.29649 0.75964 0.67259 0.0
C262 C 0.32237 0.80564 0.75854 0.0
C263 C 0.34834 0.8467 0.54398 0.0
C264 C 0.38254 0.84203 0.63657 0.0
C265 C 0.40864 0.92762 0.55897 0.0
C266 C 0.42423 0.96507 0.53873 0.0
C267 C 0.40715 0.95313 0.51104 0.0
C268 C 0.39949 0.93466 0.52073 0.0
C269 C 0.42559 0.93956 0.58766 0.0
C270 C 0.43326 0.95803 0.57783 0.0
C271 C 0.4013 0.90796 0.56307 0.0
H272 H 0.31303 0.74958 0.82003 0.0
H273 H 0.32577 0.78163 0.84066 0.0
H274 H 0.30154 0.78581 0.64513 0.0
H275 H 0.28806 0.75379 0.62608 0.0
H276 H 0.39967 0.95804 0.48146 0.0
H277 H 0.38652 0.92587 0.49709 0.0
H278 H 0.43316 0.93462 0.61635 0.0
H279 H 0.44654 0.96674 0.59903 0.0
Dy280 Dy 0.21692 0.52328 0.69678 0.0
Dy281 Dy 0.17728 0.51855 0.64786 0.0
C282 C 0.1897 0.52328 0.809 0.0
O283 O 0.19795 0.49377 0.68532 0.0
O284 O 0.17061 0.49246 0.69677 0.0
O285 O 0.23866 0.53291 0.77261 0.0
O286 O 0.23878 0.51829 0.67815 0.0
O287 O 0.18967 0.509 0.56811 0.0
O288 O 0.21822 0.53074 0.58257 0.0
O289 O 0.19758 0.54729 0.62735 0.0
O290 O 0.21975 0.55039 0.70513 0.0
O291 O 0.15933 0.51423 0.5593 0.0
O292 O 0.15204 0.51755 0.66667 0.0
C293 C 0.18056 0.48482 0.69776 0.0
O294 O 0.19953 0.51616 0.7919 0.0
O295 O 0.18218 0.52836 0.76041 0.0
C296 C 0.26711 0.54043 0.72399 0.0
C297 C 0.30452 0.56305 0.71133 0.0
C298 C 0.29477 0.56677 0.76199 0.0
C299 C 0.27626 0.55553 0.76846 0.0
C300 C 0.27686 0.53689 0.67283 0.0
C301 C 0.29532 0.5481 0.66637 0.0
C302 C 0.24778 0.52766 0.73382 0.0
C303 C 0.20504 0.52042 0.54023 0.0
C304 C 0.21215 0.55727 0.66507 0.0
C305 C 0.12804 0.50116 0.58531 0.0
C306 C 0.09143 0.4792 0.54976 0.0
C307 C 0.10451 0.47597 0.51935 0.0
C308 C 0.12268 0.4869 0.53672 0.0
C309 C 0.11493 0.50402 0.61694 0.0
C310 C 0.09688 0.49318 0.5996 0.0
C311 C 0.14707 0.51426 0.59996 0.0
H312 H 0.30151 0.57808 0.79791 0.0
H313 H 0.2692 0.55853 0.80914 0.0
H314 H 0.27026 0.52528 0.63827 0.0
H315 H 0.3024 0.54501 0.62611 0.0
H316 H 0.10077 0.46537 0.48046 0.0
H317 H 0.13251 0.48443 0.51107 0.0
H318 H 0.1187 0.51497 0.6542 0.0
H319 H 0.08716 0.49586 0.62499 0.0
Dy320 Dy 0.52802 0.70733 0.68694 0.0
Dy321 Dy 0.53314 0.66795 0.65908 0.0
C322 C 0.52461 0.67558 0.79679 0.0
O323 O 0.55594 0.71558 0.72136 0.0
O324 O 0.55981 0.69119 0.6915 0.0
O325 O 0.51149 0.71248 0.75932 0.0
O326 O 0.53311 0.73425 0.6995 0.0
O327 O 0.54062 0.68587 0.56136 0.0
O328 O 0.53555 0.71017 0.57369 0.0
O329 O 0.50394 0.66007 0.65299 0.0
O330 O 0.50294 0.68647 0.63495 0.0
O331 O 0.5309 0.6488 0.57841 0.0
O332 O 0.5406 0.64818 0.6847 0.0
C333 C 0.56572 0.70767 0.71583 0.0
O334 O 0.52611 0.68497 0.7416 0.0
O335 O 0.52657 0.66239 0.77707 0.0
C336 C 0.5074 0.73693 0.72569 0.0
C337 C 0.4863 0.75333 0.70386 0.0
C338 C 0.48258 0.7413 0.76057 0.0
C339 C 0.49305 0.73325 0.77147 0.0
C340 C 0.51089 0.74867 0.66811 0.0
C341 C 0.50047 0.75676 0.65737 0.0
C342 C 0.51923 0.72939 0.74127 0.0
C343 C 0.54035 0.70021 0.53654 0.0
C344 C 0.49531 0.66884 0.63828 0.0
C345 C 0.54922 0.63532 0.59258 0.0
C346 C 0.57222 0.62292 0.54504 0.0
C347 C 0.57588 0.64034 0.52826 0.0
C348 C 0.56441 0.64651 0.55178 0.0
C349 C 0.54569 0.61807 0.60959 0.0
C350 C 0.55702 0.61192 0.58617 0.0
C351 C 0.53697 0.64109 0.62113 0.0
H352 H 0.47188 0.73848 0.79783 0.0
H353 H 0.49014 0.72438 0.81663 0.0
H354 H 0.52183 0.75184 0.63169 0.0
H355 H 0.50355 0.76573 0.61252 0.0
H356 H 0.58748 0.6491 0.4965 0.0
H357 H 0.56743 0.65995 0.53852 0.0
H358 H 0.53416 0.60933 0.64176 0.0
H359 H 0.55401 0.5986 0.60132 0.0
H360 H 0.07807 0.31881 0.86314 0.0
H361 H 0.09307 0.35067 0.83395 0.0
H362 H 0.14335 0.35144 0.81448 0.0
H363 H 0.12849 0.3197 0.84394 0.0
H364 H 0.14866 0.37977 0.8832 0.0
H365 H 0.11888 0.3515 0.6654 0.0
H366 H 0.09391 0.33213 0.58503 0.0
H367 H 0.06709 0.36129 0.63804 0.0
H368 H 0.0918 0.3807 0.7194 0.0
H369 H 0.19565 0.4633 0.69959 0.0
H370 H 0.18112 0.43157 0.73035 0.0
H371 H 0.13149 0.4311 0.76783 0.0
H372 H 0.14575 0.46263 0.73609 0.0
H373 H 0.12625 0.4028 0.69 0.0
H374 H 0.15928 0.43278 0.90372 0.0
H375 H 0.18667 0.45296 0.97104 0.0
H376 H 0.20962 0.42037 0.9157 0.0
H377 H 0.18263 0.40032 0.84591 0.0
C378 C 0.09231 0.32576 0.85225 0.0
C379 C 0.10206 0.31668 0.85581 0.0
C380 C 0.10087 0.34397 0.83546 0.0
C381 C 0.11933 0.35345 0.821 0.0
C382 C 0.12912 0.34446 0.82546 0.0
C383 C 0.1206 0.3263 0.84259 0.0
C384 C 0.12851 0.37274 0.8018 0.0
C385 C 0.14386 0.38476 0.84039 0.0
C386 C 0.12218 0.37936 0.74651 0.0
C387 C 0.10707 0.36738 0.69925 0.0
C388 C 0.10755 0.35364 0.66058 0.0
C389 C 0.09347 0.34269 0.61467 0.0
C390 C 0.07889 0.34543 0.60665 0.0
C391 C 0.07837 0.35914 0.64446 0.0
C392 C 0.0924 0.37012 0.69046 0.0
C393 C 0.18164 0.45645 0.71429 0.0
C394 C 0.17188 0.46554 0.71528 0.0
C395 C 0.17338 0.43833 0.73224 0.0
C396 C 0.15527 0.42901 0.75225 0.0
C397 C 0.14549 0.43802 0.75268 0.0
C398 C 0.15369 0.45608 0.73451 0.0
C399 C 0.14631 0.40979 0.77153 0.0
C400 C 0.131 0.39779 0.73297 0.0
C401 C 0.15288 0.40319 0.82594 0.0
C402 C 0.16898 0.41513 0.86897 0.0
C403 C 0.17021 0.42998 0.90542 0.0
C404 C 0.18566 0.44139 0.94411 0.0
C405 C 0.19985 0.43793 0.94783 0.0
C406 C 0.19862 0.42305 0.91277 0.0
C407 C 0.18327 0.41168 0.8735 0.0
H408 H 0.21179 0.44678 0.97787 0.0
H409 H 0.06802 0.33696 0.57097 0.0
H410 H 0.73415 0.77613 0.88191 0.0
H411 H 0.70242 0.75741 0.85092 0.0
H412 H 0.6968 0.80435 0.84268 0.0
H413 H 0.72833 0.82302 0.87389 0.0
H414 H 0.67026 0.77914 0.91571 0.0
H415 H 0.6983 0.78141 0.68837 0.0
H416 H 0.71817 0.77714 0.60579 0.0
H417 H 0.69125 0.72112 0.65519 0.0
H418 H 0.67135 0.7251 0.73862 0.0
H419 H 0.58586 0.74363 0.74399 0.0
H420 H 0.6174 0.7605 0.77809 0.0
H421 H 0.62017 0.71192 0.77501 0.0
H422 H 0.58882 0.69505 0.73899 0.0
H423 H 0.64798 0.73674 0.71166 0.0
H424 H 0.61973 0.7335 0.93615 0.0
H425 H 0.5996 0.73686 0.0205 0.0
H426 H 0.6265 0.79333 0.98008 0.0
H427 H 0.64671 0.79029 0.89514 0.0
C428 C 0.72618 0.78246 0.87265 0.0
C429 C 0.73377 0.80107 0.88071 0.0
C430 C 0.70804 0.77175 0.8549 0.0
C431 C 0.69719 0.77946 0.84394 0.0
C432 C 0.70483 0.79805 0.85115 0.0
C433 C 0.72288 0.80872 0.8692 0.0
C434 C 0.67777 0.76827 0.82715 0.0
C435 C 0.66541 0.77001 0.87054 0.0
C436 C 0.67132 0.7559 0.76973 0.0
C437 C 0.68349 0.7536 0.72039 0.0
C438 C 0.69674 0.76822 0.68215 0.0
C439 C 0.70798 0.76584 0.63505 0.0
C440 C 0.70602 0.74889 0.62545 0.0
C441 C 0.69279 0.73426 0.6628 0.0
C442 C 0.68152 0.73657 0.70995 0.0
C443 C 0.59313 0.73649 0.75092 0.0
C444 C 0.58475 0.71795 0.73864 0.0
C445 C 0.61118 0.74616 0.77088 0.0
C446 C 0.62116 0.73747 0.78024 0.0
C447 C 0.61279 0.71896 0.76826 0.0
C448 C 0.59482 0.70931 0.74763 0.0
C449 C 0.64048 0.74773 0.79979 0.0
C450 C 0.65281 0.7458 0.75701 0.0
C451 C 0.64689 0.75981 0.85819 0.0
C452 C 0.63462 0.76163 0.90873 0.0
C453 C 0.62126 0.74661 0.9448 0.0
C454 C 0.60986 0.74847 -0.00715 0.0
C455 C 0.61173 0.76529 0.00544 0.0
C456 C 0.62505 0.7803 0.9702 0.0
C457 C 0.63649 0.77852 0.9222 0.0
H458 H 0.6029 0.7667 0.04264 0.0
H459 H 0.71472 0.74707 0.58892 0.0
H460 H 0.27765 0.97221 0.92835 0.0
H461 H 0.29476 0.95718 0.90366 0.0
H462 H 0.25094 0.91756 0.77755 0.0
H463 H 0.23343 0.932 0.80455 0.0
H464 H 0.26392 0.90208 0.86412 0.0
H465 H 0.28969 0.95216 0.69973 0.0
H466 H 0.30453 0.98412 0.66794 0.0
H467 H 0.34881 0.99484 0.80498 0.0
H468 H 0.33413 0.96297 0.83815 0.0
H469 H 0.30769 0.86176 0.68843 0.0
H470 H 0.29109 0.87683 0.72163 0.0
H471 H 0.33856 0.91913 0.82195 0.0
H472 H 0.35541 0.90457 0.78497 0.0
H473 H 0.32414 0.93365 0.75344 0.0
H474 H 0.30019 0.88504 0.91865 0.0
H475 H 0.28623 0.85359 0.957 0.0
H476 H 0.23971 0.8406 0.83011 0.0
H477 H 0.2535 0.87195 0.79038 0.0
C478 C 0.27157 0.96024 0.89571 0.0
C479 C 0.25412 0.95341 0.86829 0.0
C480 C 0.28147 0.95174 0.88102 0.0
C481 C 0.27424 0.93632 0.83799 0.0
C482 C 0.25685 0.92946 0.81065 0.0
C483 C 0.24692 0.93789 0.82553 0.0
C484 C 0.28461 0.92712 0.82222 0.0
C485 C 0.27701 0.90893 0.83916 0.0
C486 C 0.30196 0.93614 0.792 0.0
C487 C 0.31075 0.95525 0.77188 0.0
C488 C 0.30253 0.96137 0.72343 0.0
C489 C 0.31093 0.97946 0.7051 0.0
C490 C 0.32758 0.99151 0.73457 0.0
C491 C 0.33591 0.9855 0.78227 0.0
C492 C 0.32757 0.96743 0.80078 0.0
C493 C 0.31453 0.87422 0.71796 0.0
C494 C 0.33284 0.88202 0.7339 0.0
C495 C 0.305 0.8828 0.73741 0.0
C496 C 0.31343 0.89906 0.77545 0.0
C497 C 0.3317 0.90667 0.79244 0.0
C498 C 0.34133 0.89832 0.77141 0.0
C499 C 0.30345 0.9085 0.79502 0.0
C500 C 0.3111 0.92675 0.77875 0.0
C501 C 0.28627 0.8996 0.82706 0.0
C502 C 0.27793 0.88078 0.85112 0.0
C503 C 0.28703 0.87545 0.89862 0.0
C504 C 0.27914 0.85765 0.92065 0.0
C505 C 0.26211 0.84509 0.89588 0.0
C506 C 0.25291 0.85033 0.84921 0.0
C507 C 0.26074 0.86811 0.827 0.0
H508 H 0.25603 0.83131 0.91296 0.0
H509 H 0.33405 1.00551 0.72033 0.0
H510 H 0.40169 0.15776 0.15204 0.0
H511 H 0.36967 0.14011 0.12733 0.0
H512 H 0.3698 0.09228 0.19339 0.0
H513 H 0.40203 0.10992 0.21712 0.0
H514 H 0.35059 0.0854 0.07829 0.0
H515 H 0.35204 0.11319 0.30068 0.0
H516 H 0.3612 0.13788 0.38705 0.0
H517 H 0.33978 0.16253 0.24992 0.0
H518 H 0.33068 0.13808 0.1623 0.0
H519 H 0.25625 0.03208 0.08995 0.0
H520 H 0.28765 0.04905 0.12476 0.0
H521 H 0.29057 0.09745 0.04675 0.0
H522 H 0.25884 0.08058 0.01358 0.0
H523 H 0.30788 0.10319 0.17227 0.0
H524 H 0.30703 0.07405 0.94856 0.0
H525 H 0.29649 0.04757 0.87053 0.0
H526 H 0.31587 0.02367 0.02117 0.0
H527 H 0.32636 0.04992 0.10043 0.0
C528 C 0.39488 0.14351 0.162 0.0
C529 C 0.4044 0.13527 0.18704 0.0
C530 C 0.37654 0.13342 0.14795 0.0
C531 C 0.36718 0.11487 0.15968 0.0
C532 C 0.37668 0.10657 0.18406 0.0
C533 C 0.3951 0.11665 0.19752 0.0
C534 C 0.3476 0.10417 0.14486 0.0
C535 C 0.34125 0.08919 0.09972 0.0
C536 C 0.33533 0.10913 0.17204 0.0
C537 C 0.3408 0.12387 0.22463 0.0
C538 C 0.3494 0.12394 0.28869 0.0
C539 C 0.35456 0.13788 0.33793 0.0
C540 C 0.35111 0.15178 0.32391 0.0
C541 C 0.34245 0.15175 0.26069 0.0
C542 C 0.33727 0.13785 0.21126 0.0
C543 C 0.26354 0.04633 0.07981 0.0
C544 C 0.25505 0.05494 0.04809 0.0
C545 C 0.28154 0.05602 0.09974 0.0
C546 C 0.2916 0.07449 0.08716 0.0
C547 C 0.2831 0.0832 0.05669 0.0
C548 C 0.26499 0.07353 0.03746 0.0
C549 C 0.311 0.08464 0.10515 0.0
C550 C 0.31728 0.09948 0.15094 0.0
C551 C 0.32316 0.07939 0.07945 0.0
C552 C 0.3174 0.06391 0.03054 0.0
C553 C 0.30902 0.06313 0.96505 0.0
C554 C 0.30304 0.04816 0.92065 0.0
C555 C 0.30548 0.03394 0.94093 0.0
C556 C 0.31399 0.0347 0.00551 0.0
C557 C 0.31999 0.04963 0.05012 0.0
H558 H 0.3008 0.02234 0.90659 0.0
H559 H 0.35511 0.16256 0.3621 0.0
H560 H 0.8998 0.26507 0.14794 0.0
H561 H 0.91729 0.25094 0.11519 0.0
H562 H 0.96238 0.29112 0.23409 0.0
H563 H 0.94515 0.30573 0.26523 0.0
H564 H 0.97265 0.28384 0.10561 0.0
H565 H 0.93562 0.24968 0.30438 0.0
H566 H 0.90697 0.232 0.36768 0.0
H567 H 0.88748 0.19352 0.19694 0.0
H568 H 0.91593 0.21109 0.13221 0.0
H569 H 0.02344 0.23992 0.1097 0.0
H570 H 1.00668 0.25473 0.14425 0.0
H571 H 0.95846 0.21074 0.0559 0.0
H572 H 0.97501 0.19546 0.02499 0.0
H573 H 0.94988 0.22035 0.16971 0.0
H574 H 0.98528 0.25349 0.96831 0.0
H575 H 1.0132 0.27057 0.89975 0.0
H576 H 0.03468 0.31036 0.06546 0.0
H577 H 1.00697 0.29339 0.13543 0.0
C578 C 0.91351 0.2711 0.16637 0.0
C579 C 0.92101 0.28657 0.20945 0.0
C580 C 0.92346 0.26287 0.14814 0.0
C581 C 0.94109 0.26981 0.17295 0.0
C582 C 0.94877 0.28546 0.21458 0.0
C583 C 0.93884 0.29371 0.23285 0.0
C584 C 0.9514 0.26059 0.15641 0.0
C585 C 0.96779 0.27002 0.12034 0.0
C586 C 0.94486 0.24241 0.17389 0.0
C587 C 0.92785 0.23176 0.21325 0.0
C588 C 0.92518 0.2375 0.28017 0.0
C589 C 0.90898 0.22749 0.31632 0.0
C590 C 0.8954 0.21166 0.28629 0.0
C591 C 0.898 0.20578 0.22013 0.0
C592 C 0.91417 0.21575 0.18373 0.0
C593 C 1.00926 0.23342 0.09769 0.0
C594 C 1.00058 0.21659 0.0641 0.0
C595 C 0.99968 0.24195 0.1171 0.0
C596 C 0.98132 0.23412 0.10118 0.0
C597 C 0.9726 0.21715 0.06869 0.0
C598 C 0.98208 0.20842 0.05086 0.0
C599 C 0.97118 0.24355 0.11834 0.0
C600 C 0.9548 0.23417 0.15469 0.0
C601 C 0.9776 0.26169 0.10003 0.0
C602 C 0.99411 0.2721 0.05732 0.0
C603 C 0.99599 0.26585 -0.00978 0.0
C604 C 1.01177 0.27551 0.95113 0.0
C605 C 0.02572 0.29153 0.9783 0.0
C606 C 0.02388 0.29795 0.0445 0.0
C607 C 1.00813 0.28833 0.08386 0.0
H608 H 0.03795 0.29897 0.94801 0.0
H609 H 0.88286 0.20394 0.31434 0.0
H610 H 0.81418 0.793 -0.00914 0.0
H611 H 0.80018 0.76169 0.02512 0.0
H612 H 0.84279 0.77437 0.17587 0.0
H613 H 0.85716 0.80591 0.14087 0.0
H614 H 0.83476 0.74442 0.10399 0.0
H615 H 0.80074 0.7654 0.23241 0.0
H616 H 0.78303 0.78051 0.2467 0.0
H617 H 0.7437 0.74352 0.09928 0.0
H618 H 0.7613 0.72833 0.08347 0.0
H619 H 0.78948 0.6592 0.27131 0.0
H620 H 0.80408 0.69138 0.25024 0.0
H621 H 0.7633 0.68287 0.09622 0.0
H622 H 0.74822 0.65074 0.11905 0.0
H623 H 0.77095 0.7112 0.17686 0.0
H624 H 0.80546 0.69119 0.04391 0.0
H625 H 0.82319 0.67615 0.02756 0.0
H626 H 0.86151 0.71133 0.18224 0.0
H627 H 0.84387 0.72643 0.20008 0.0
C628 C 0.82064 0.78923 0.03143 0.0
C629 C 0.83683 0.80209 0.06316 0.0
C630 C 0.81252 0.77125 0.05127 0.0
C631 C 0.82022 0.76562 0.10402 0.0
C632 C 0.83652 0.77836 0.13523 0.0
C633 C 0.84473 0.79641 0.11516 0.0
C634 C 0.81128 0.74642 0.12564 0.0
C635 C 0.8209 0.73726 0.12112 0.0
C636 C 0.79306 0.73684 0.14652 0.0
C637 C 0.78239 0.74583 0.15637 0.0
C638 C 0.78836 0.76057 0.20274 0.0
C639 C 0.77834 0.76913 0.21115 0.0
C640 C 0.76226 0.76301 0.1738 0.0
C641 C 0.75615 0.74826 0.12813 0.0
C642 C 0.76613 0.73965 0.1195 0.0
C643 C 0.78343 0.66415 0.23368 0.0
C644 C 0.76765 0.65224 0.19669 0.0
C645 C 0.79194 0.68259 0.22105 0.0
C646 C 0.78499 0.68961 0.17072 0.0
C647 C 0.76902 0.67783 0.13501 0.0
C648 C 0.76048 0.65939 0.14771 0.0
C649 C 0.79439 0.70918 0.1547 0.0
C650 C 0.78485 0.71839 0.16021 0.0
C651 C 0.81266 0.7188 0.13463 0.0
C652 C 0.82328 0.7098 0.12383 0.0
C653 C 0.81761 0.69562 0.07477 0.0
C654 C 0.82764 0.68711 0.06518 0.0
C655 C 0.84344 0.69275 0.10399 0.0
C656 C 0.84926 0.70696 0.15231 0.0
C657 C 0.83926 0.71551 0.16214 0.0
H658 H 0.8512 0.68614 0.0965 0.0
H659 H 0.75453 0.76967 0.18035 0.0
H660 H 0.06831 0.49145 0.52162 0.0
H661 H 0.03664 0.47416 0.49062 0.0
H662 H 0.03925 0.42553 0.49806 0.0
H663 H 0.07114 0.44287 0.5288 0.0
H664 H 0.02017 0.42469 0.38698 0.0
H665 H 0.02002 0.43744 0.63503 0.0
H666 H 0.02766 0.4557 0.74475 0.0
H667 H 1.00407 0.48515 0.65719 0.0
H668 H 0.99647 0.46721 0.54652 0.0
H669 H 0.92634 0.36631 0.39901 0.0
H670 H 0.95795 0.38325 0.43071 0.0
H671 H 0.95765 0.43261 0.39962 0.0
H672 H 0.92578 0.41573 0.36842 0.0
H673 H 0.97521 0.43243 0.52416 0.0
H674 H 0.97554 0.41825 0.27378 0.0
H675 H 0.96616 0.39746 0.17132 0.0
H676 H 0.98822 0.36809 0.27259 0.0
H677 H 0.99757 0.38861 0.37603 0.0
C678 C 0.06214 0.47706 0.51729 0.0
C679 C 0.07224 0.46853 0.52855 0.0
C680 C 0.044 0.46717 0.49954 0.0
C681 C 0.03543 0.44848 0.49336 0.0
C682 C 0.04554 0.43993 0.50284 0.0
C683 C 0.06377 0.44985 0.52026 0.0
C684 C 1.01597 0.43798 0.4764 0.0
C685 C 1.01034 0.42624 0.41761 0.0
C686 C 1.00309 0.44011 0.51578 0.0
C687 C 1.00782 0.45108 0.58208 0.0
C688 C 1.0166 0.44792 0.63886 0.0
C689 C 0.0209 0.45819 0.70131 0.0
C690 C 1.01639 0.4716 0.70787 0.0
C691 C 1.00757 0.47476 0.65201 0.0
C692 C 1.00324 0.46453 0.58942 0.0
C693 C 0.93293 0.38078 0.39868 0.0
C694 C 0.9235 0.38966 0.38072 0.0
C695 C 0.95105 0.39043 0.41671 0.0
C696 C 0.96019 0.40918 0.41678 0.0
C697 C 0.95083 0.41813 0.39968 0.0
C698 C 0.93265 0.40846 0.38149 0.0
C699 C 0.97955 0.41937 0.43459 0.0
C700 C 0.98511 0.43099 0.49358 0.0
C701 C 0.99231 0.41693 0.39613 0.0
C702 C 0.98719 0.40493 0.33285 0.0
C703 C 0.97835 0.40733 0.2743 0.0
C704 C 0.97304 0.3956 0.21604 0.0
C705 C 0.97657 0.38145 0.21549 0.0
C706 C 0.9855 0.37906 0.27307 0.0
C707 C 0.99085 0.39076 0.33146 0.0
H708 H 0.97242 0.37235 0.17044 0.0
H709 H 0.01971 0.47952 0.75628 0.0
H710 H 0.56232 0.59012 0.48816 0.0
H711 H 0.58139 0.57751 0.45959 0.0
H712 H 0.62809 0.62718 0.51988 0.0
H713 H 0.60898 0.64 0.54793 0.0
H714 H 0.63486 0.61349 0.40389 0.0
H715 H 0.6096 0.59096 0.63471 0.0
H716 H 0.5854 0.57632 0.72336 0.0
H717 H 0.56145 0.52811 0.59825 0.0
H718 H 0.5854 0.54252 0.50843 0.0
H719 H 0.69149 0.57586 0.4215 0.0
H720 H 0.67434 0.59037 0.4538 0.0
H721 H 0.62525 0.54203 0.40184 0.0
H722 H 0.64228 0.52722 0.37191 0.0
H723 H 0.62086 0.55615 0.5185 0.0
H724 H 0.64606 0.57951 0.28529 0.0
H725 H 0.67099 0.59422 0.19971 0.0
H726 H 0.69572 0.64109 0.33262 0.0
H727 H 0.67102 0.62659 0.41934 0.0
C728 C 0.57665 0.59839 0.49526 0.0
C729 C 0.58412 0.616 0.52114 0.0
C730 C 0.58755 0.59115 0.47903 0.0
C731 C 0.60615 0.60124 0.48923 0.0
C732 C 0.61375 0.61909 0.51207 0.0
C733 C 0.60283 0.62642 0.52787 0.0
C734 C 0.61749 0.59294 0.47735 0.0
C735 C 0.63194 0.60108 0.42968 0.0
C736 C 0.61358 0.57661 0.51028 0.0
C737 C 0.59923 0.56787 0.56457 0.0
C738 C 0.59911 0.57727 0.62589 0.0
C739 C 0.58545 0.56901 0.67639 0.0
C740 C 0.57188 0.55131 0.66638 0.0
C741 C 0.57197 0.54182 0.60593 0.0
C742 C 0.5856 0.55002 0.55527 0.0
C743 C 0.67704 0.5683 0.41694 0.0
C744 C 0.66827 0.55042 0.39345 0.0
C745 C 0.66724 0.57664 0.43521 0.0
C746 C 0.6485 0.56744 0.42878 0.0
C747 C 0.6397 0.54945 0.40697 0.0
C748 C 0.64947 0.541 0.38976 0.0
C749 C 0.63805 0.57654 0.44419 0.0
C750 C 0.62379 0.56857 0.49272 0.0
C751 C 0.64218 0.59303 0.41223 0.0
C752 C 0.65675 0.60193 0.359 0.0
C753 C 0.65684 0.59294 0.29632 0.0
C754 C 0.67093 0.60124 0.24763 0.0
C755 C 0.68495 0.61857 0.26079 0.0
C756 C 0.68486 0.62767 0.3225 0.0
C757 C 0.6708 0.61943 0.37136 0.0
H758 H 0.69587 0.62495 0.22314 0.0
H759 H 0.56132 0.54494 0.70551 0.0
H760 H 0.4872 0.12539 0.29585 0.0
H761 H 0.47231 0.09373 0.32688 0.0
H762 H 0.5043 0.10663 0.51896 0.0
H763 H 0.52024 0.13824 0.48438 0.0
H764 H 0.5014 0.07834 0.47262 0.0
H765 H 0.45673 0.09495 0.51173 0.0
H766 H 0.43793 0.10811 0.48054 0.0
H767 H 0.41445 0.07075 0.30723 0.0
H768 H 0.43326 0.0575 0.33696 0.0
H769 H 0.44508 0.99291 0.62979 0.0
H770 H 0.46004 0.02496 0.60497 0.0
H771 H 0.43781 0.0139 0.39216 0.0
H772 H 0.42306 0.98185 0.41597 0.0
H773 H 0.4353 0.04117 0.45534 0.0
H774 H 0.48132 0.02524 0.42067 0.0
H775 H 0.49985 0.01227 0.45863 0.0
H776 H 0.52008 0.04892 0.63554 0.0
H777 H 0.50149 0.06195 0.59904 0.0
C778 C 0.49105 0.1214 0.34458 0.0
C779 C 0.5048 0.13419 0.38785 0.0
C780 C 0.4824 0.1033 0.36282 0.0
C781 C 0.48671 0.09766 0.42657 0.0
C782 C 0.50061 0.11052 0.46963 0.0
C783 C 0.5097 0.12859 0.45002 0.0
C784 C 0.47697 0.07837 0.44756 0.0
C785 C 0.48692 0.07037 0.46995 0.0
C786 C 0.45805 0.06766 0.44339 0.0
C787 C 0.44648 0.07534 0.42625 0.0
C788 C 0.4476 0.08959 0.46683 0.0
C789 C 0.43695 0.09706 0.44941 0.0
C790 C 0.42504 0.0903 0.39183 0.0
C791 C 0.42369 0.07599 0.35177 0.0
C792 C 0.43431 0.06847 0.36895 0.0
C793 C 0.44346 0.99725 0.57749 0.0
C794 C 0.43286 0.9847 0.52488 0.0
C795 C 0.45199 0.01562 0.56346 0.0
C796 C 0.45019 0.02186 0.49644 0.0
C797 C 0.43937 1.00942 0.44433 0.0
C798 C 0.43086 0.99106 0.45822 0.0
C799 C 0.45976 0.04133 0.48004 0.0
C800 C 0.44977 0.04929 0.45845 0.0
C801 C 0.47858 0.05207 0.48625 0.0
C802 C 0.48993 0.04445 0.50749 0.0
C803 C 0.48966 0.03046 0.46787 0.0
C804 C 0.50017 0.02311 0.48909 0.0
C805 C 0.51111 0.02974 0.54955 0.0
C806 C 0.51159 0.04378 0.58877 0.0
C807 C 0.50109 0.05117 0.5678 0.0
H808 H 0.51923 0.02403 0.56593 0.0
H809 H 0.41683 0.09613 0.37832 0.0
H810 H 0.12519 0.08103 0.09297 0.0
H811 H 0.10702 0.0954 0.08086 0.0
H812 H 0.14311 0.13054 0.91989 0.0
H813 H 0.16171 0.11668 0.93347 0.0
H814 H 0.13468 0.14862 0.01697 0.0
H815 H 0.10162 0.09429 0.8759 0.0
H816 H 0.08578 0.06161 0.85777 0.0
H817 H 0.04917 0.05494 0.02629 0.0
H818 H 0.06493 0.08756 0.04595 0.0
H819 H 0.08085 0.18551 0.90813 0.0
H820 H 0.09918 0.17109 0.9104 0.0
H821 H 0.05933 0.12868 0.04061 0.0
H822 H 0.04066 0.14241 0.03494 0.0
H823 H 0.07012 0.11425 0.95577 0.0
H824 H 0.10139 0.16549 0.10668 0.0
H825 H 0.11673 0.19738 0.14044 0.0
H826 H 0.15583 0.20925 0.97615 0.0
H827 H 0.14057 0.17745 0.94082 0.0
C828 C 0.12934 0.09188 0.05525 0.0
C829 C 0.14493 0.09765 0.01409 0.0
C830 C 0.11883 0.09998 0.04789 0.0
C831 C 0.12357 0.11393 -0.00117 0.0
C832 C 0.13913 0.11975 0.95785 0.0
C833 C 0.14967 0.11169 0.96521 0.0
C834 C 0.11251 0.12267 -0.00901 0.0
C835 C 0.12061 0.14117 0.00258 0.0
C836 C 0.09401 0.11288 0.97493 0.0
C837 C 0.08452 0.09332 0.96269 0.0
C838 C 0.09026 0.08583 0.90934 0.0
C839 C 0.08128 0.06732 0.89876 0.0
C840 C 0.0665 0.0562 0.94095 0.0
C841 C 0.06063 0.06356 -0.00631 0.0
C842 C 0.06956 0.08205 0.00451 0.0
C843 C 0.07596 0.17302 0.93658 0.0
C844 C 0.05925 0.16507 0.97093 0.0
C845 C 0.08653 0.16485 0.93852 0.0
C846 C 0.08086 0.14889 0.97684 0.0
C847 C 0.06407 0.14091 0.0104 0.0
C848 C 0.05335 0.14881 0.00703 0.0
C849 C 0.09221 0.14031 0.98215 0.0
C850 C 0.08419 0.12182 0.97 0.0
C851 C 0.11066 0.15003 -2e-05 0.0
C852 C 0.11972 0.16916 0.02058 0.0
C853 C 0.11317 0.17494 0.07737 0.0
C854 C 0.12186 0.19298 0.09685 0.0
C855 C 0.13721 0.20534 0.06031 0.0
C856 C 0.14391 0.19967 0.00429 0.0
C857 C 0.13526 0.18164 -0.01547 0.0
H858 H 0.14393 0.21931 0.07552 0.0
H859 H 0.05957 0.04187 0.93269 0.0
H860 H 0.91146 0.9149 0.96113 0.0
H861 H 0.92648 0.94744 0.96982 0.0
H862 H 0.87543 0.94528 0.96295 0.0
H863 H 0.86017 0.91262 0.95457 0.0
H864 H 0.90229 0.97306 0.87957 0.0
H865 H 0.89413 0.94935 0.11879 0.0
H866 H 0.89674 0.93102 0.21387 0.0
H867 H 0.95401 0.96053 0.19547 0.0
H868 H 0.95173 0.97888 0.09951 0.0
H869 H 0.9279 0.05919 0.01397 0.0
H870 H 0.91361 0.02703 -0.007 0.0
H871 H 0.96361 0.02873 0.03693 0.0
H872 H 0.97796 0.06096 0.05877 0.0
H873 H 0.93765 1.00095 0.09942 0.0
H874 H 0.94677 0.02461 0.86239 0.0
H875 H 0.94516 0.04235 0.76246 0.0
H876 H 0.88775 0.01294 0.77171 0.0
H877 H 0.88901 0.99513 0.8722 0.0
C878 C 0.90338 0.9213 0.96019 0.0
C879 C 0.88457 0.9111 0.95747 0.0
C880 C 0.91202 0.93992 0.96566 0.0
C881 C 0.90205 0.94872 0.96812 0.0
C882 C 0.88335 0.93871 0.96152 0.0
C883 C 0.87466 0.92004 0.95673 0.0
C884 C 0.9111 0.9683 0.98054 0.0
C885 C 0.90986 0.97918 0.92795 0.0
C886 C 0.92136 0.97625 0.04291 0.0
C887 C 0.92275 0.96537 0.10135 0.0
C888 C 0.90728 0.95185 0.13461 0.0
C889 C 0.9087 0.94147 0.18875 0.0
C890 C 0.92553 0.94457 0.21054 0.0
C891 C 0.94098 0.95812 0.17845 0.0
C892 C 0.93963 0.96852 0.12422 0.0
C893 C 0.93591 0.05276 0.01854 0.0
C894 C 0.95412 0.06269 0.03754 0.0
C895 C 0.92772 0.03435 0.00642 0.0
C896 C 0.93759 0.02545 0.01201 0.0
C897 C 0.95571 0.03528 0.03201 0.0
C898 C 0.9639 0.0537 0.04467 0.0
C899 C 0.9289 1.00587 -0.00168 0.0
C900 C 0.93016 0.99492 0.05082 0.0
C901 C 0.91881 0.99787 0.93546 0.0
C902 C 0.918 1.00867 0.87538 0.0
C903 C 0.93381 0.02203 0.84354 0.0
C904 C 0.93295 0.03207 0.78668 0.0
C905 C 0.91636 0.02881 0.76091 0.0
C906 C 0.90059 0.01547 0.79181 0.0
C907 C 0.90136 1.00538 0.84866 0.0
H908 H 0.91573 0.0366 0.71689 0.0
H909 H 0.9266 0.93651 0.25239 0.0
H910 H 0.99466 0.92052 0.13425 0.0
H911 H 0.02717 0.93765 0.12279 0.0
H912 H 0.02274 0.92358 0.89956 0.0
H913 H 0.99012 0.90655 0.91027 0.0
H914 H 0.04879 0.91994 0.96264 0.0
H915 H 0.03261 0.96582 0.9541 0.0
H916 H 0.01836 0.98284 -0.00367 0.0
H917 H 0.04893 0.99595 0.19069 0.0
H918 H 0.06318 0.9788 0.14999 0.0
H919 H 0.14127 0.98101 0.88845 0.0
H920 H 0.10845 0.96363 0.88823 0.0
H921 H 0.1078 0.98205 0.1024 0.0
H922 H 0.14032 1.00017 0.10072 0.0
H923 H 0.08379 0.98358 0.036 0.0
H924 H 0.09884 0.93692 0.05206 0.0
H925 H 0.11314 0.91957 0.01462 0.0
H926 H 0.08494 0.90725 0.81454 0.0
H927 H 0.07065 0.92472 0.8505 0.0
C928 C 1.00051 0.92125 0.08234 0.0
C929 C 0.98962 0.91217 0.0231 0.0
C930 C 0.01918 0.93104 0.07594 0.0
C931 C 0.02747 0.9321 0.01009 0.0
C932 C 1.01669 0.92297 0.95096 0.0
C933 C 0.998 0.91317 0.95728 0.0
C934 C 0.04736 0.94256 0.00324 0.0
C935 C 0.05644 0.93393 0.97782 0.0
C936 C 0.05746 0.96069 0.02455 0.0
C937 C 0.04882 0.9709 0.04927 0.0
C938 C 0.03617 0.97221 0.00609 0.0
C939 C 0.02812 0.9819 0.02971 0.0
C940 C 0.03271 0.99044 0.09622 0.0
C941 C 0.04538 0.98932 0.13923 0.0
C942 C 0.05345 0.97962 0.1159 0.0
C943 C 0.13405 0.98124 0.93545 0.0
C944 C 0.14334 0.99199 -0.00552 0.0
C945 C 0.11527 0.9712 0.93558 0.0
C946 C 0.10545 0.97124 -0.00427 0.0
C947 C 0.11488 0.98178 0.05505 0.0
C948 C 0.13354 0.99213 0.05416 0.0
C949 C 0.08541 0.9609 -0.00307 0.0
C950 C 0.07623 0.96958 0.02092 0.0
C951 C 0.07527 0.94275 0.97533 0.0
C952 C 0.08385 0.93227 0.95364 0.0
C953 C 0.0958 0.93061 -0.00011 0.0
C954 C 0.10388 0.92075 0.97896 0.0
C955 C 0.09999 0.91236 0.91215 0.0
C956 C 0.08797 0.91378 0.8662 0.0
C957 C 0.07987 0.92365 0.88683 0.0
H958 H 0.10626 0.90471 0.89606 0.0
H959 H 0.02647 0.99795 0.11437 0.0
H960 H 0.70578 0.4736 0.28407 0.0
H961 H 0.72348 0.45873 0.29084 0.0
H962 H 0.77137 0.50966 0.32286 0.0
H963 H 0.75384 0.52476 0.31473 0.0
H964 H 0.77785 0.48958 0.2354 0.0
H965 H 0.74936 0.4806 0.46501 0.0
H966 H 0.72364 0.47124 0.54603 0.0
H967 H 0.70009 0.41749 0.46629 0.0
H968 H 0.72562 0.42656 0.38443 0.0
H969 H 0.83438 0.45961 0.37168 0.0
H970 H 0.81536 0.47303 0.36257 0.0
H971 H 0.76965 0.42121 0.319 0.0
H972 H 0.7887 0.40761 0.32737 0.0
H973 H 0.76133 0.44081 0.41106 0.0
H974 H 0.79024 0.45001 0.18269 0.0
H975 H 0.816 0.45966 0.10173 0.0
H976 H 0.83877 0.51345 0.1804 0.0
H977 H 0.81323 0.50407 0.2624 0.0
C978 C 0.72011 0.48172 0.29189 0.0
C979 C 0.72834 0.50042 0.29919 0.0
C980 C 0.7302 0.47314 0.29631 0.0
C981 C 0.7487 0.48302 0.30907 0.0
C982 C 0.75708 0.50174 0.31349 0.0
C983 C 0.74702 0.51036 0.30858 0.0
C984 C 0.75932 0.47386 0.31806 0.0
C985 C 0.77435 0.47908 0.27447 0.0
C986 C 0.75453 0.45984 0.36793 0.0
C987 C 0.73933 0.4543 0.41811 0.0
C988 C 0.73866 0.46681 0.46452 0.0
C989 C 0.72413 0.46155 0.51065 0.0
C990 C 0.71022 0.4438 0.51113 0.0
C991 C 0.71087 0.43124 0.4658 0.0
C992 C 0.72538 0.43642 0.41964 0.0
C993 C 0.82032 0.45104 0.3595 0.0
C994 C 0.81316 0.43255 0.3491 0.0
C995 C 0.80944 0.45874 0.35465 0.0
C996 C 0.79114 0.44818 0.33888 0.0
C997 C 0.78376 0.42963 0.33095 0.0
C998 C 0.79467 0.42188 0.33584 0.0
C999 C 0.77992 0.45666 0.32875 0.0
C1000 C 0.76479 0.4513 0.37201 0.0
C1001 C 0.78462 0.47061 0.27878 0.0
C1002 C 0.79991 0.4763 0.22908 0.0
C1003 C 0.8008 0.46387 0.18302 0.0
C1004 C 0.81535 0.4693 0.13689 0.0
C1005 C 0.82903 0.48715 0.13605 0.0
C1006 C 0.82817 0.49962 0.18116 0.0
C1007 C 0.81365 0.49427 0.22739 0.0
H1008 H 0.84029 0.49132 0.10035 0.0
H1009 H 0.69896 0.43977 0.54672 0.0
H1010 H 0.64829 0.3961 0.36666 0.0
H1011 H 0.63393 0.3637 0.34981 0.0
H1012 H 0.582 0.35959 0.36022 0.0
H1013 H 0.5962 0.39181 0.37952 0.0
H1014 H 0.58263 0.33415 0.43844 0.0
H1015 H 0.60065 0.35705 0.19925 0.0
H1016 H 0.62179 0.37516 0.10449 0.0
H1017 H 0.65253 0.34918 0.14147 0.0
H1018 H 0.63169 0.33106 0.237 0.0
H1019 H 0.53052 0.24539 0.31133 0.0
H1020 H 0.54511 0.27793 0.31995 0.0
H1021 H 0.59685 0.2816 0.31005 0.0
H1022 H 0.58246 0.24914 0.30053 0.0
H1023 H 0.59647 0.3072 0.23118 0.0
H1024 H 0.57966 0.28476 0.46923 0.0
H1025 H 0.55937 0.26649 0.56584 0.0
H1026 H 0.52751 0.2915 0.53445 0.0
H1027 H 0.5475 0.30978 0.43703 0.0
C1028 C 0.63381 0.38829 0.36593 0.0
C1029 C 0.62342 0.39662 0.3741 0.0
C1030 C 0.62561 0.36978 0.3555 0.0
C1031 C 0.60687 0.35921 0.35267 0.0
C1032 C 0.59648 0.36745 0.36174 0.0
C1033 C 0.60464 0.38593 0.37219 0.0
C1034 C 0.598 0.33952 0.34171 0.0
C1035 C 0.58547 0.32827 0.39255 0.0
C1036 C 0.60208 0.33181 0.28294 0.0
C1037 C 0.61471 0.34284 0.22587 0.0
C1038 C 0.61201 0.35532 0.18765 0.0
C1039 C 0.62391 0.36556 0.13366 0.0
C1040 C 0.63852 0.36337 0.11713 0.0
C1041 C 0.64123 0.35089 0.15441 0.0
C1042 C 0.62936 0.34062 0.20843 0.0
C1043 C 0.545 0.25308 0.31001 0.0
C1044 C 0.55527 0.24454 0.30561 0.0
C1045 C 0.55333 0.27171 0.31554 0.0
C1046 C 0.57208 0.28219 0.31694 0.0
C1047 C 0.58236 0.27379 0.30948 0.0
C1048 C 0.57407 0.25518 0.30412 0.0
C1049 C 0.58103 0.30187 0.32761 0.0
C1050 C 0.59359 0.3131 0.27691 0.0
C1051 C 0.5771 0.30957 0.38685 0.0
C1052 C 0.56497 0.2985 0.44518 0.0
C1053 C 0.56823 0.28625 0.48244 0.0
C1054 C 0.5568 0.27592 0.53747 0.0
C1055 C 0.54212 0.27779 0.55609 0.0
C1056 C 0.53887 0.29004 0.51986 0.0
C1057 C 0.55025 0.3004 0.46477 0.0
H1058 H 0.53329 0.26978 0.59871 0.0
H1059 H 0.64772 0.3713 0.07532 0.0
H1060 H 0.66228 0.22096 0.3369 0.0
H1061 H 0.69464 0.23897 0.32064 0.0
H1062 H 0.69345 0.28571 0.3951 0.0
H1063 H 0.66091 0.26783 0.40984 0.0
H1064 H 0.71501 0.29308 0.27812 0.0
H1065 H 0.70761 0.26464 0.50544 0.0
H1066 H 0.69565 0.23913 0.58856 0.0
H1067 H 0.72032 0.21514 0.46603 0.0
H1068 H 0.73228 0.24043 0.38167 0.0
H1069 H 0.80669 0.3486 0.36054 0.0
H1070 H 0.77425 0.33008 0.36455 0.0
H1071 H 0.77802 0.28465 0.29109 0.0
H1072 H 0.81072 0.30312 0.28771 0.0
H1073 H 0.75508 0.27607 0.40349 0.0
H1074 H 0.76349 0.30578 0.17807 0.0
H1075 H 0.77552 0.33181 0.0976 0.0
H1076 H 0.74904 0.35403 0.21955 0.0
H1077 H 0.73699 0.3282 0.30119 0.0
C1078 C 0.66885 0.23511 0.34913 0.0
C1079 C 0.65899 0.24294 0.37479 0.0
C1080 C 0.68739 0.24537 0.34035 0.0
C1081 C 0.6965 0.26366 0.35735 0.0
C1082 C 0.68669 0.27161 0.38184 0.0
C1083 C 0.66813 0.26134 0.39083 0.0
C1084 C 0.7163 0.2744 0.35053 0.0
C1085 C 0.72378 0.28948 0.30612 0.0
C1086 C 0.72774 0.26949 0.38593 0.0
C1087 C 0.72072 0.25435 0.43692 0.0
C1088 C 0.7104 0.25387 0.49597 0.0
C1089 C 0.70363 0.23946 0.54335 0.0
C1090 C 0.70719 0.2255 0.53249 0.0
C1091 C 0.71757 0.22596 0.47434 0.0
C1092 C 0.72436 0.24033 0.42678 0.0
C1093 C 0.80071 0.3347 0.34473 0.0
C1094 C 0.8114 0.3274 0.32355 0.0
C1095 C 0.78208 0.32413 0.34683 0.0
C1096 C 0.77365 0.30601 0.32738 0.0
C1097 C 0.78424 0.29862 0.30613 0.0
C1098 C 0.80293 0.30923 0.3039 0.0
C1099 C 0.75382 0.29478 0.33105 0.0
C1100 C 0.74632 0.27961 0.37505 0.0
C1101 C 0.74237 0.29967 0.29555 0.0
C1102 C 0.74943 0.31511 0.24601 0.0
C1103 C 0.76031 0.31626 0.18795 0.0
C1104 C 0.76712 0.33097 0.14208 0.0
C1105 C 0.76307 0.34458 0.15353 0.0
C1106 C 0.75216 0.34348 0.21074 0.0
C1107 C 0.74531 0.32879 0.25674 0.0
H1108 H 0.76837 0.35596 0.11802 0.0
H1109 H 0.70194 0.21436 0.56921 0.0
H1110 H 0.45 0.7394 0.71798 0.0
H1111 H 0.43288 0.75483 0.70237 0.0
H1112 H 0.48145 0.80354 0.65093 0.0
H1113 H 0.49872 0.78837 0.6684 0.0
H1114 H 0.46059 0.80947 0.74361 0.0
H1115 H 0.45179 0.77758 0.51954 0.0
H1116 H 0.4427 0.75071 0.4454 0.0
H1117 H 0.38949 0.72673 0.53103 0.0
H1118 H 0.39832 0.75337 0.60627 0.0
H1119 H 0.41916 0.85788 0.62008 0.0
H1120 H 0.43733 0.84335 0.62568 0.0
H1121 H 0.38948 0.7921 0.65083 0.0
H1122 H 0.37129 0.80626 0.64288 0.0
H1123 H 0.41064 0.78783 0.56921 0.0
H1124 H 0.41747 0.8165 0.79523 0.0
H1125 H 0.42473 0.8413 0.87911 0.0
H1126 H 0.47896 0.86883 0.80361 0.0
H1127 H 0.47197 0.84428 0.71859 0.0
C1128 C 0.45706 0.75342 0.70381 0.0
C1129 C 0.47574 0.7626 0.69403 0.0
C1130 C 0.44723 0.76219 0.69428 0.0
C1131 C 0.45585 0.78029 0.6745 0.0
C1132 C 0.4745 0.78954 0.66574 0.0
C1133 C 0.48433 0.7808 0.67515 0.0
C1134 C 0.44548 0.78966 0.66346 0.0
C1135 C 0.44984 0.80491 0.70471 0.0
C1136 C 0.43106 0.78336 0.61448 0.0
C1137 C 0.42577 0.7674 0.56897 0.0
C1138 C 0.43819 0.76652 0.52291 0.0
C1139 C 0.43307 0.75134 0.48062 0.0
C1140 C 0.41554 0.737 0.48364 0.0
C1141 C 0.40307 0.73783 0.52879 0.0
C1142 C 0.40812 0.75297 0.5712 0.0
C1143 C 0.41248 0.84349 0.62578 0.0
C1144 C 0.39371 0.83333 0.63138 0.0
C1145 C 0.42292 0.8352 0.62968 0.0
C1146 C 0.41483 0.81664 0.6402 0.0
C1147 C 0.39609 0.80644 0.64299 0.0
C1148 C 0.38568 0.81464 0.63848 0.0
C1149 C 0.42572 0.80771 0.64938 0.0
C1150 C 0.42146 0.79251 0.60787 0.0
C1151 C 0.43994 0.8138 0.69942 0.0
C1152 C 0.44413 0.82867 0.74989 0.0
C1153 C 0.4309 0.82793 0.79602 0.0
C1154 C 0.43498 0.84192 0.84388 0.0
C1155 C 0.45228 0.85666 0.8465 0.0
C1156 C 0.46556 0.85742 0.80139 0.0
C1157 C 0.46154 0.84347 0.75338 0.0
H1158 H 0.45541 0.86747 0.88362 0.0
H1159 H 0.41161 0.72526 0.45089 0.0
H1160 H 0.23044 0.58047 0.77236 0.0
H1161 H 0.24417 0.61303 0.77206 0.0
H1162 H 0.22648 0.61122 0.55507 0.0
H1163 H 0.21218 0.57838 0.55561 0.0
H1164 H 0.26615 0.6377 0.59574 0.0
H1165 H 0.20496 0.61967 0.65405 0.0
H1166 H 0.17676 0.60249 0.72064 0.0
H1167 H 0.20417 0.62611 0.91736 0.0
H1168 H 0.23261 0.64325 0.85196 0.0
H1169 H 0.29296 0.73035 0.59466 0.0
H1170 H 0.2774 0.69805 0.57701 0.0
H1171 H 0.27162 0.6903 0.80519 0.0
H1172 H 0.28594 0.72248 0.82306 0.0
H1173 H 0.24219 0.66804 0.74816 0.0
H1174 H 0.30297 0.68443 0.69962 0.0
H1175 H 0.33253 0.7005 0.64168 0.0
H1176 H 0.30822 0.67947 0.43757 0.0
H1177 H 0.27845 0.66343 0.49425 0.0
C1178 C 0.22946 0.58698 0.72455 0.0
C1179 C 0.22024 0.57692 0.66403 0.0
C1180 C 0.23727 0.60556 0.72454 0.0
C1181 C 0.23631 0.61447 0.66361 0.0
C1182 C 0.22733 0.60453 0.60259 0.0
C1183 C 0.21911 0.58583 0.60311 0.0
C1184 C 0.24472 0.63419 0.6648 0.0
C1185 C 0.26079 0.64444 0.62778 0.0
C1186 C 0.23798 0.64281 0.70869 0.0
C1187 C 0.22093 0.63259 0.74819 0.0
C1188 C 0.205 0.62106 0.71159 0.0
C1189 C 0.18897 0.61137 0.74909 0.0
C1190 C 0.18868 0.61317 0.82322 0.0
C1191 C 0.20442 0.62471 0.85996 0.0
C1192 C 0.2205 0.63443 0.82269 0.0
C1193 C 0.28822 0.72181 0.6412 0.0
C1194 C 0.29076 0.72917 0.71042 0.0
C1195 C 0.27953 0.70327 0.63099 0.0
C1196 C 0.2735 0.69163 0.68975 0.0
C1197 C 0.27615 0.69894 0.75884 0.0
C1198 C 0.28459 0.71744 0.76906 0.0
C1199 C 0.26394 0.67185 0.67966 0.0
C1200 C 0.2476 0.66149 0.71527 0.0
C1201 C 0.27065 0.66314 0.6355 0.0
C1202 C 0.28847 0.67293 0.60105 0.0
C1203 C 0.30391 0.68338 0.64228 0.0
C1204 C 0.3207 0.69245 0.60969 0.0
C1205 C 0.32225 0.69106 0.53595 0.0
C1206 C 0.30699 0.68057 0.49466 0.0
C1207 C 0.29016 0.67148 0.52699 0.0
H1208 H 0.33527 0.69808 0.51084 0.0
H1209 H 0.17625 0.60565 0.85216 0.0
H1210 H 0.47399 0.6324 0.62975 0.0
H1211 H 0.44138 0.61513 0.63746 0.0
H1212 H 0.43917 0.66396 0.6444 0.0
H1213 H 0.47173 0.68139 0.6372 0.0
H1214 H 0.41967 0.64113 0.75078 0.0
H1215 H 0.4257 0.63819 0.49671 0.0
H1216 H 0.43687 0.63225 0.38458 0.0
H1217 H 0.41437 0.57706 0.44259 0.0
H1218 H 0.40325 0.5827 0.55552 0.0
H1219 H 0.32457 0.59965 0.71613 0.0
H1220 H 0.35703 0.61823 0.70253 0.0
H1221 H 0.36146 0.57077 0.68119 0.0
H1222 H 0.32911 0.55218 0.69467 0.0
H1223 H 0.37988 0.59381 0.58014 0.0
H1224 H 0.3744 0.59662 0.83509 0.0
H1225 H 0.36351 0.60239 0.94832 0.0
H1226 H 0.38515 0.65748 0.89056 0.0
H1227 H 0.39599 0.65201 0.77656 0.0
C1228 C 0.46659 0.63951 0.63182 0.0
C1229 C 0.47554 0.65831 0.63278 0.0
C1230 C 0.44793 0.62959 0.63611 0.0
C1231 C 0.43788 0.63829 0.64132 0.0
C1232 C 0.4467 0.65702 0.64044 0.0
C1233 C 0.46533 0.66694 0.63579 0.0
C1234 C 0.41823 0.62785 0.65127 0.0
C1235 C 0.41089 0.63096 0.71297 0.0
C1236 C 0.40694 0.61431 0.60273 0.0
C1237 C 0.41377 0.61092 0.535 0.0
C1238 C 0.42327 0.62482 0.48592 0.0
C1239 C 0.42956 0.62149 0.42211 0.0
C1240 C 0.42637 0.6043 0.40655 0.0
C1241 C 0.41685 0.59038 0.45474 0.0
C1242 C 0.41053 0.59363 0.51862 0.0
C1243 C 0.3325 0.59319 0.70938 0.0
C1244 C 0.32426 0.57445 0.706 0.0
C1245 C 0.35104 0.60382 0.70166 0.0
C1246 C 0.36169 0.59588 0.69123 0.0
C1247 C 0.35351 0.57718 0.68884 0.0
C1248 C 0.33501 0.56658 0.69627 0.0
C1249 C 0.38126 0.60698 0.67995 0.0
C1250 C 0.38861 0.60401 0.61795 0.0
C1251 C 0.39257 0.62059 0.72842 0.0
C1252 C 0.38585 0.62385 0.79678 0.0
C1253 C 0.37669 0.60993 0.84616 0.0
C1254 C 0.37056 0.61316 0.9106 0.0
C1255 C 0.37359 0.63028 0.92652 0.0
C1256 C 0.38278 0.64422 0.8781 0.0
C1257 C 0.38894 0.64106 0.81359 0.0
H1258 H 0.36885 0.63275 0.97645 0.0
H1259 H 0.43123 0.60175 0.35711 0.0
H1260 H 0.99114 0.17338 0.77627 0.0
H1261 H 0.99627 0.17836 0.6477 0.0
H1262 H 0.05332 0.20485 0.68359 0.0
H1263 H 0.04815 0.20041 0.81292 0.0
H1264 H 0.0448 0.22004 0.57171 0.0
H1265 H 0.02984 0.16046 0.64528 0.0
H1266 H 1.0106 0.13212 0.70806 0.0
H1267 H 0.96642 0.12219 0.5719 0.0
H1268 H 0.98532 0.15064 0.50912 0.0
H1269 H 0.06866 0.21093 0.22367 0.0
H1270 H 0.06474 0.20664 0.35304 0.0
H1271 H 1.00742 0.17637 0.32421 0.0
H1272 H 1.01143 0.17977 0.19436 0.0
H1273 H 1.0165 0.16326 0.43334 0.0
H1274 H 0.03007 0.22212 0.3613 0.0
H1275 H 0.04827 0.25051 0.2973 0.0
H1276 H 0.09364 0.26201 0.42898 0.0
H1277 H 0.07577 0.23351 0.49297 0.0
C1278 C 1.00477 0.18055 0.75669 0.0
C1279 C 0.01926 0.18642 0.80407 0.0
C1280 C 1.0077 0.18337 0.6833 0.0
C1281 C 0.02518 0.19158 0.65572 0.0
C1282 C 0.03972 0.19842 0.70352 0.0
C1283 C 0.03678 0.1959 0.77731 0.0
C1284 C 0.02811 0.19142 0.57734 0.0
C1285 C 0.03879 0.20762 0.54164 0.0
C1286 C 0.02002 0.17525 0.53761 0.0
C1287 C 1.00897 0.15769 0.57265 0.0
C1288 C 1.01602 0.15222 0.6287 0.0
C1289 C 1.00517 0.13616 0.66441 0.0
C1290 C 0.9873 0.12536 0.644 0.0
C1291 C 0.98027 0.13056 0.58762 0.0
C1292 C 0.99104 0.14664 0.55189 0.0
C1293 C 0.05526 0.20316 0.24509 0.0
C1294 C 0.04032 0.19593 0.19957 0.0
C1295 C 0.053 0.20074 0.31895 0.0
C1296 C 0.03574 0.19167 0.34877 0.0
C1297 C 0.02086 0.18355 0.30275 0.0
C1298 C 0.02315 0.18554 0.22862 0.0
C1299 C 0.03319 0.19188 0.4275 0.0
C1300 C 0.02257 0.17569 0.46333 0.0
C1301 C 0.04118 0.20807 0.4672 0.0
C1302 C 0.05162 0.22567 0.43175 0.0
C1303 C 0.04392 0.23073 0.37668 0.0
C1304 C 0.05419 0.2468 0.34026 0.0
C1305 C 0.07211 0.25805 0.35904 0.0
C1306 C 0.07976 0.25328 0.41453 0.0
C1307 C 0.06957 0.23718 0.45096 0.0
H1308 H 0.08005 0.27047 0.33065 0.0
H1309 H 0.9789 0.11296 0.67183 0.0
H1310 H 0.89189 0.86702 0.78986 0.0
H1311 H 0.89241 0.8672 0.6594 0.0
H1312 H 0.84084 0.81903 0.65484 0.0
H1313 H 0.83982 0.81927 0.78607 0.0
H1314 H 0.87783 0.83011 0.54606 0.0
H1315 H 0.82894 0.83966 0.62682 0.0
H1316 H 0.81474 0.85297 0.69965 0.0
H1317 H 0.85595 0.90557 0.63941 0.0
H1318 H 0.87076 0.89254 0.56832 0.0
H1319 H 0.83917 0.8335 0.21248 0.0
H1320 H 0.84541 0.82882 0.33529 0.0
H1321 H 0.88569 0.88455 0.35242 0.0
H1322 H 0.87979 0.88933 0.22846 0.0
H1323 H 0.85585 0.86967 0.4542 0.0
H1324 H 0.90177 0.86023 0.35902 0.0
H1325 H 0.91569 0.84742 0.28158 0.0
H1326 H 0.87939 0.79493 0.3613 0.0
H1327 H 0.86507 0.80738 0.4385 0.0
C1328 C 0.88095 0.85615 0.76102 0.0
C1329 C 0.86575 0.8432 0.79691 0.0
C1330 C 0.88124 0.85633 0.68692 0.0
C1331 C 0.86654 0.8433 0.64875 0.0
C1332 C 0.85216 0.82925 0.68439 0.0
C1333 C 0.85161 0.82936 0.7587 0.0
C1334 C 0.86551 0.8458 0.5724 0.0
C1335 C 0.87276 0.83847 0.52535 0.0
C1336 C 0.85944 0.85726 0.54707 0.0
C1337 C 0.85128 0.86512 0.59413 0.0
C1338 C 0.8353 0.85406 0.63093 0.0
C1339 C 0.82706 0.86156 0.67146 0.0
C1340 C 0.83451 0.88011 0.67461 0.0
C1341 C 0.85027 0.8912 0.63745 0.0
C1342 C 0.85864 0.88377 0.59734 0.0
C1343 C 0.8492 0.84479 0.2427 0.0
C1344 C 0.85876 0.86186 0.21224 0.0
C1345 C 0.85301 0.84201 0.31193 0.0
C1346 C 0.86617 0.85629 0.35146 0.0
C1347 C 0.87567 0.87339 0.32155 0.0
C1348 C 0.8721 0.87613 0.25172 0.0
C1349 C 0.86793 0.85378 0.42731 0.0
C1350 C 0.8609 0.86124 0.47457 0.0
C1351 C 0.87404 0.84234 0.45233 0.0
C1352 C 0.88221 0.83473 0.40406 0.0
C1353 C 0.89658 0.84592 0.35934 0.0
C1354 C 0.9046 0.83873 0.31569 0.0
C1355 C 0.89841 0.82037 0.31643 0.0
C1356 C 0.88417 0.80915 0.36073 0.0
C1357 C 0.8761 0.81627 0.40449 0.0
H1358 H 0.90468 0.81484 0.2828 0.0
H1359 H 0.82801 0.88588 0.70542 0.0
H1360 H 0.16714 0.01456 0.81473 0.0
H1361 H 0.15838 1.00623 0.68974 0.0
H1362 H 0.21405 0.03168 0.62966 0.0
H1363 H 0.22293 0.03949 0.75523 0.0
H1364 H 0.18629 0.04151 0.55881 0.0
H1365 H 0.20252 0.9963 0.61457 0.0
H1366 H 0.20084 0.97079 0.68031 0.0
H1367 H 0.1447 0.93955 0.63264 0.0
H1368 H 0.14603 0.96507 0.56752 0.0
H1369 H 0.21856 0.03029 0.24841 0.0
H1370 H 0.21 0.0285 0.37358 0.0
H1371 H 0.15517 0.99052 0.31896 0.0
H1372 H 0.16387 0.99201 0.19268 0.0
H1373 H 0.1704 0.98319 0.44709 0.0
H1374 H 0.16189 0.03001 0.34972 0.0
H1375 H 0.17017 0.05656 0.27515 0.0
H1376 H 0.21875 0.08646 0.39541 0.0
H1377 H 0.2109 0.0601 0.47006 0.0
C1378 C 0.17748 0.01847 0.77456 0.0
C1379 C 0.19568 0.02792 0.79338 0.0
C1380 C 0.17245 0.01354 0.70385 0.0
C1381 C 0.18562 0.01834 0.65162 0.0
C1382 C 0.20381 0.02786 0.67018 0.0
C1383 C 0.20885 0.03238 0.74119 0.0
C1384 C 0.18057 0.01455 0.57652 0.0
C1385 C 0.18257 0.02873 0.53408 0.0
C1386 C 0.17536 0.99772 0.54577 0.0
C1387 C 0.17427 0.98272 0.5879 0.0
C1388 C 0.18974 0.98413 0.6195 0.0
C1389 C 0.18888 0.96964 0.65623 0.0
C1390 C 0.17264 0.95359 0.6611 0.0
C1391 C 0.15724 0.95202 0.6292 0.0
C1392 C 0.15803 0.9665 0.59249 0.0
C1393 C 0.20478 0.02127 0.26355 0.0
C1394 C 0.19182 0.01126 0.21213 0.0
C1395 C 0.19988 0.0204 0.33444 0.0
C1396 C 0.18191 1.0098 0.3543 0.0
C1397 C 0.16905 0.9989 0.30376 0.0
C1398 C 0.17404 0.99961 0.23241 0.0
C1399 C 0.17713 1.01047 0.42868 0.0
C1400 C 0.17314 0.99571 0.47174 0.0
C1401 C 0.18116 0.02701 0.45989 0.0
C1402 C 0.18572 0.04306 0.41583 0.0
C1403 C 0.17434 0.04224 0.36023 0.0
C1404 C 0.17897 0.05727 0.3179 0.0
C1405 C 0.19495 0.0732 0.33063 0.0
C1406 C 0.20633 0.07414 0.38576 0.0
C1407 C 0.20176 0.05918 0.42826 0.0
H1408 H 0.19852 0.0848 0.29772 0.0
H1409 H 0.17202 0.94235 0.68924 0.0
H1410 H 0.73587 0.54668 0.55831 0.0
H1411 H 0.73107 0.54184 0.68749 0.0
H1412 H 0.67421 0.50966 0.65194 0.0
H1413 H 0.67903 0.51374 0.52235 0.0
H1414 H 0.69876 0.54916 0.75612 0.0
H1415 H 0.67516 0.48505 0.71266 0.0
H1416 H 0.67696 0.45965 0.66128 0.0
H1417 H 0.72658 0.47658 0.77187 0.0
H1418 H 0.72529 0.50238 0.82231 0.0
H1419 H 0.66011 0.50779 0.10491 0.0
H1420 H 0.66559 0.51259 0.97605 0.0
H1421 H 0.72246 0.53837 0.01402 0.0
H1422 H 0.71703 0.5342 0.14354 0.0
H1423 H 0.69812 0.50189 0.90873 0.0
H1424 H 0.7207 0.56498 0.9578 0.0
H1425 H 0.71933 0.59086 0.00636 0.0
H1426 H 0.67157 0.57588 0.8849 0.0
H1427 H 0.67247 0.5497 0.83667 0.0
C1428 C 0.72239 0.53829 0.5781 0.0
C1429 C 0.70781 0.5306 0.53073 0.0
C1430 C 0.71968 0.53549 0.65169 0.0
C1431 C 0.70233 0.52524 0.67911 0.0
C1432 C 0.68774 0.5173 0.63174 0.0
C1433 C 0.6905 0.5197 0.55789 0.0
C1434 C 0.6995 0.5246 0.75735 0.0
C1435 C 0.69841 0.53872 0.78949 0.0
C1436 C 0.69942 0.51118 0.80075 0.0
C1437 C 0.70035 0.49587 0.76975 0.0
C1438 C 0.68664 0.48357 0.72478 0.0
C1439 C 0.68751 0.46904 0.69614 0.0
C1440 C 0.70194 0.46656 0.71291 0.0
C1441 C 0.71547 0.47857 0.75858 0.0
C1442 C 0.71469 0.49316 0.78708 0.0
C1443 C 0.67379 0.51481 0.08574 0.0
C1444 C 0.68817 0.52071 0.13378 0.0
C1445 C 0.67689 0.51755 0.01233 0.0
C1446 C 0.69441 0.52586 -0.0143 0.0
C1447 C 0.70885 0.53209 0.03372 0.0
C1448 C 0.70575 0.52977 0.10748 0.0
C1449 C 0.69732 0.52645 0.90752 0.0
C1450 C 0.69843 0.51232 0.87539 0.0
C1451 C 0.69734 0.53983 0.86406 0.0
C1452 C 0.69645 0.55519 0.89483 0.0
C1453 C 0.70971 0.567 0.94257 0.0
C1454 C 0.70907 0.58178 0.96974 0.0
C1455 C 0.69531 0.58495 0.94908 0.0
C1456 C 0.68217 0.57336 0.90112 0.0
C1457 C 0.68273 0.55855 0.87391 0.0
H1458 H 0.69488 0.59644 0.96996 0.0
H1459 H 0.70258 0.45529 0.6908 0.0
H1460 H 0.50459 0.20274 0.55792 0.0
H1461 H 0.50832 0.20341 0.68854 0.0
H1462 H 0.54295 0.18098 0.66527 0.0
H1463 H 0.54 0.18107 0.53558 0.0
H1464 H 0.50125 0.16712 0.76639 0.0
H1465 H 0.56804 0.20375 0.72759 0.0
H1466 H 0.59425 0.22972 0.67432 0.0
H1467 H 0.5772 0.26477 0.76272 0.0
H1468 H 0.55059 0.23886 0.81471 0.0
H1469 H 0.54668 0.1687 0.10601 0.0
H1470 H 0.54055 0.16923 0.97818 0.0
H1471 H 0.51627 0.20144 0.02309 0.0
H1472 H 0.52185 0.20044 0.1514 0.0
H1473 H 0.55226 0.21163 0.91227 0.0
H1474 H 0.48855 0.17512 0.96969 0.0
H1475 H 0.46222 0.14908 0.02171 0.0
H1476 H 0.47328 0.1137 0.89818 0.0
H1477 H 0.49994 0.13957 0.84661 0.0
C1478 C 0.51315 0.19819 0.58092 0.0
C1479 C 0.52194 0.19182 0.53707 0.0
C1480 C 0.51538 0.19868 0.65515 0.0
C1481 C 0.52625 0.19265 0.68617 0.0
C1482 C 0.53502 0.18628 0.64227 0.0
C1483 C 0.53315 0.18617 0.56826 0.0
C1484 C 0.52692 0.19123 0.76456 0.0
C1485 C 0.5124 0.17683 0.79837 0.0
C1486 C 0.54144 0.20393 0.80594 0.0
C1487 C 0.55711 0.21937 0.77322 0.0
C1488 C 0.56967 0.21694 0.73423 0.0
C1489 C 0.58465 0.23165 0.70462 0.0
C1490 C 0.58733 0.24888 0.71471 0.0
C1491 C 0.57504 0.25141 0.75451 0.0
C1492 C 0.55999 0.23672 0.78383 0.0
C1493 C 0.53968 0.17555 0.08855 0.0
C1494 C 0.53455 0.18439 0.13801 0.0
C1495 C 0.53618 0.17582 0.01585 0.0
C1496 C 0.52785 0.18524 -0.00836 0.0
C1497 C 0.52246 0.19386 0.04113 0.0
C1498 C 0.52559 0.19324 0.11413 0.0
C1499 C 0.52655 0.18752 0.91416 0.0
C1500 C 0.54102 0.202 0.88041 0.0
C1501 C 0.51205 0.1748 0.87279 0.0
C1502 C 0.49644 0.15926 0.90552 0.0
C1503 C 0.48559 0.16179 0.95477 0.0
C1504 C 0.47054 0.14706 -0.01613 0.0
C1505 C 0.46613 0.12974 0.96358 0.0
C1506 C 0.47676 0.12712 0.91411 0.0
C1507 C 0.49184 0.14181 0.88501 0.0
H1508 H 0.45444 0.11836 -0.01406 0.0
H1509 H 0.59897 0.26026 0.69206 0.0
H1510 H 0.83918 0.32028 0.54357 0.0
H1511 H 0.82956 0.31781 0.66827 0.0
H1512 H 0.85234 0.37511 0.67858 0.0
H1513 H 0.86151 0.37761 0.55546 0.0
H1514 H 0.85856 0.33409 0.75227 0.0
H1515 H 0.84209 0.38908 0.8185 0.0
H1516 H 0.8234 0.40125 0.77403 0.0
H1517 H 0.78533 0.34966 0.69015 0.0
H1518 H 0.80381 0.33716 0.73433 0.0
H1519 H 0.89401 0.37541 0.0906 0.0
H1520 H 0.88646 0.37057 0.96252 0.0
H1521 H 0.83021 0.34117 0.01566 0.0
H1522 H 0.83768 0.3468 0.14206 0.0
H1523 H 0.83624 0.36435 0.91306 0.0
H1524 H 0.85601 0.32067 0.96612 0.0
H1525 H 0.87892 0.31327 0.00534 0.0
H1526 H 0.91467 0.34729 0.84236 0.0
H1527 H 0.89207 0.35505 0.80291 0.0
C1528 C 0.84168 0.33224 0.57217 0.0
C1529 C 0.85187 0.3492 0.54146 0.0
C1530 C 0.83595 0.3308 0.64278 0.0
C1531 C 0.84042 0.3463 0.68266 0.0
C1532 C 0.8486 0.36295 0.64885 0.0
C1533 C 0.85426 0.36439 0.57873 0.0
C1534 C 0.8418 0.34604 0.76079 0.0
C1535 C 0.85323 0.34024 0.78784 0.0
C1536 C 0.83562 0.35491 0.80617 0.0
C1537 C 0.82433 0.36219 0.77968 0.0
C1538 C 0.82967 0.3803 0.79094 0.0
C1539 C 0.81916 0.38728 0.76559 0.0
C1540 C 0.80319 0.37624 0.72928 0.0
C1541 C 0.79773 0.3582 0.71815 0.0
C1542 C 0.80825 0.35118 0.7431 0.0
C1543 C 0.8801 0.36797 0.07419 0.0
C1544 C 0.86635 0.36159 0.12488 0.0
C1545 C 0.8758 0.36514 0.00162 0.0
C1546 C 0.85777 0.35541 0.98008 0.0
C1547 C 0.84416 0.34882 0.03134 0.0
C1548 C 0.84842 0.35202 0.1032 0.0
C1549 C 0.85271 0.35212 0.90428 0.0
C1550 C 0.84096 0.35758 0.87782 0.0
C1551 C 0.85905 0.34347 0.85864 0.0
C1552 C 0.8724 0.33847 0.88188 0.0
C1553 C 0.86878 0.32659 0.93887 0.0
C1554 C 0.88171 0.32234 0.96112 0.0
C1555 C 0.89824 0.32981 0.92639 0.0
C1556 C 0.90186 0.34151 0.86922 0.0
C1557 C 0.889 0.34581 0.84687 0.0
H1558 H 0.90823 0.32652 0.94375 0.0
H1559 H 0.79504 0.38166 0.70977 0.0
H1560 H 0.32382 0.82917 0.4395 0.0
H1561 H 0.32789 0.83365 0.31018 0.0
H1562 H 0.38155 0.87724 0.34404 0.0
H1563 H 0.37786 0.87217 0.47338 0.0
H1564 H 0.35528 0.88024 0.22674 0.0
H1565 H 0.38466 0.8471 0.30637 0.0
H1566 H 0.38442 0.8229 0.37718 0.0
H1567 H 0.33797 0.78403 0.2625 0.0
H1568 H 0.33776 0.80809 0.19195 0.0
H1569 H 0.39767 0.88878 0.8949 0.0
H1570 H 0.39199 0.88446 0.02349 0.0
H1571 H 0.34225 0.8359 0.98263 0.0
H1572 H 0.34759 0.84052 0.85371 0.0
H1573 H 0.36508 0.83485 0.10267 0.0
H1574 H 0.33583 0.86593 0.01834 0.0
H1575 H 0.33432 0.88895 0.94569 0.0
H1576 H 0.37774 0.9302 0.06641 0.0
H1577 H 0.3797 0.90736 0.13906 0.0
C1578 C 0.33642 0.83984 0.41945 0.0
C1579 C 0.35044 0.85056 0.4666 0.0
C1580 C 0.33867 0.84246 0.34566 0.0
C1581 C 0.35493 0.85592 0.31773 0.0
C1582 C 0.36878 0.86702 0.36472 0.0
C1583 C 0.36662 0.86421 0.4386 0.0
C1584 C 0.35806 0.85693 0.23958 0.0
C1585 C 0.35764 0.87048 0.19972 0.0
C1586 C 0.36059 0.84386 0.20412 0.0
C1587 C 0.36112 0.82936 0.2443 0.0
C1588 C 0.37435 0.83339 0.29655 0.0
C1589 C 0.3743 0.81972 0.33663 0.0
C1590 C 0.36118 0.80194 0.32441 0.0
C1591 C 0.34812 0.79781 0.27191 0.0
C1592 C 0.34809 0.81145 0.23182 0.0
C1593 C 0.38559 0.87711 0.91331 0.0
C1594 C 0.37311 0.86489 0.86434 0.0
C1595 C 0.3824 0.87463 -0.01329 0.0
C1596 C 0.36674 0.85984 0.01246 0.0
C1597 C 0.35451 0.84729 0.9638 0.0
C1598 C 0.3576 0.84991 0.89021 0.0
C1599 C 0.36265 0.85835 0.08991 0.0
C1600 C 0.36277 0.84466 0.12962 0.0
C1601 C 0.35961 0.87115 0.12501 0.0
C1602 C 0.35798 0.88495 0.08389 0.0
C1603 C 0.3451 0.87992 0.02925 0.0
C1604 C 0.34416 0.89292 -0.01198 0.0
C1605 C 0.35595 0.91103 0.00136 0.0
C1606 C 0.36862 0.91616 0.05618 0.0
C1607 C 0.36963 0.90319 0.09748 0.0
H1608 H 0.35524 0.92108 0.96928 0.0
H1609 H 0.36114 0.79136 0.35553 0.0
H1610 H 0.21107 0.52414 0.91561 0.0
H1611 H 0.20722 0.52616 0.04269 0.0
H1612 H 0.16007 0.53033 0.00378 0.0
H1613 H 0.16385 0.5283 0.87394 0.0
H1614 H 0.19057 0.55589 0.11682 0.0
H1615 H 0.14811 0.4953 0.05872 0.0
H1616 H 0.13711 0.46665 -0.00497 0.0
H1617 H 0.17894 0.46013 0.08941 0.0
H1618 H 0.19062 0.48901 0.15129 0.0
H1619 H 0.18808 0.53751 0.49549 0.0
H1620 H 0.18107 0.54088 0.3724 0.0
H1621 H 0.21449 0.51995 0.29821 0.0
H1622 H 0.22096 0.51591 0.42272 0.0
H1623 H 0.17994 0.50144 0.24731 0.0
H1624 H 0.22664 0.56353 0.27394 0.0
H1625 H 0.24045 0.59244 0.33759 0.0
H1626 H 0.19308 0.59606 0.30311 0.0
H1627 H 0.17889 0.56702 0.24004 0.0
C1628 C 0.19984 0.52548 0.93358 0.0
C1629 C 0.18755 0.52573 0.88512 0.0
C1630 C 0.19774 0.52674 0.00618 0.0
C1631 C 0.18328 0.52816 0.03194 0.0
C1632 C 0.17128 0.52918 -0.01583 0.0
C1633 C 0.17343 0.52798 0.91055 0.0
C1634 C 0.1809 0.52759 0.10954 0.0
C1635 C 0.18765 0.54389 0.14612 0.0
C1636 C 0.17736 0.51193 0.14676 0.0
C1637 C 0.17025 0.4944 0.10976 0.0
C1638 C 0.15508 0.48785 0.06535 0.0
C1639 C 0.14874 0.47157 0.02939 0.0
C1640 C 0.15734 0.46159 0.03797 0.0
C1641 C 0.17231 0.46788 0.0825 0.0
C1642 C 0.1788 0.48422 0.11803 0.0
C1643 C 0.19411 0.53388 0.45281 0.0
C1644 C 0.20475 0.52618 0.46759 0.0
C1645 C 0.1902 0.53592 0.38269 0.0
C1646 C 0.19712 0.53049 0.32664 0.0
C1647 C 0.2089 0.52403 0.3413 0.0
C1648 C 0.2127 0.52185 0.41184 0.0
C1649 C 0.19075 0.5299 0.25328 0.0
C1650 C 0.18224 0.51331 0.21859 0.0
C1651 C 0.19287 0.54528 0.21786 0.0
C1652 C 0.20166 0.56307 0.25288 0.0
C1653 C 0.21916 0.57048 0.28014 0.0
C1654 C 0.22705 0.58688 0.31612 0.0
C1655 C 0.21763 0.59606 0.32457 0.0
C1656 C 0.20035 0.58892 0.29659 0.0
C1657 C 0.19239 0.57251 0.26063 0.0
H1658 H 0.22373 0.60873 0.35268 0.0
H1659 H 0.15238 0.44896 0.01027 0.0
H1660 H 0.5505 0.68329 0.43894 0.0
H1661 H 0.55104 0.6862 0.30978 0.0
H1662 H 0.53973 0.72943 0.32927 0.0
H1663 H 0.5389 0.72649 0.45918 0.0
H1664 H 0.5157 0.70332 0.24511 0.0
H1665 H 0.5795 0.737 0.2537 0.0
H1666 H 0.60997 0.74431 0.2896 0.0
H1667 H 0.6019 0.69551 0.19419 0.0
H1668 H 0.57133 0.6878 0.15851 0.0
H1669 H 0.53128 0.70794 0.84695 0.0
H1670 H 0.53382 0.71725 0.97218 0.0
H1671 H 0.52073 0.66431 0.03898 0.0
H1672 H 0.51742 0.65472 0.91388 0.0
H1673 H 0.55891 0.70223 0.07306 0.0
H1674 H 0.49339 0.66558 0.09547 0.0
H1675 H 0.46269 0.65727 0.05904 0.0
H1676 H 0.47438 0.71123 0.09513 0.0
H1677 H 0.50528 0.71987 0.13082 0.0
C1678 C 0.54848 0.69369 0.41618 0.0
C1679 C 0.54426 0.70439 0.45965 0.0
C1680 C 0.54895 0.69544 0.34205 0.0
C1681 C 0.54539 0.70802 0.30981 0.0
C1682 C 0.54244 0.71959 0.35311 0.0
C1683 C 0.54197 0.71786 0.42743 0.0
C1684 C 0.54231 0.70721 0.23167 0.0
C1685 C 0.52535 0.70353 0.20737 0.0
C1686 C 0.55474 0.70721 0.18232 0.0
C1687 C 0.5731 0.71179 0.20385 0.0
C1688 C 0.58419 0.72777 0.24085 0.0
C1689 C 0.60149 0.732 0.26103 0.0
C1690 C 0.60785 0.72037 0.24428 0.0
C1691 C 0.59696 0.70451 0.20713 0.0
C1692 C 0.57966 0.70022 0.18679 0.0
C1693 C 0.52817 0.69811 0.88835 0.0
C1694 C 0.52394 0.68058 0.87112 0.0
C1695 C 0.52977 0.70347 0.95967 0.0
C1696 C 0.52729 0.69138 0.01424 0.0
C1697 C 0.52246 0.67371 -0.0028 0.0
C1698 C 0.52067 0.6683 0.926 0.0
C1699 C 0.53224 0.6977 0.0882 0.0
C1700 C 0.54952 0.70248 0.11105 0.0
C1701 C 0.52011 0.69854 0.13624 0.0
C1702 C 0.50167 0.69343 0.11448 0.0
C1703 C 0.48947 0.67571 0.09465 0.0
C1704 C 0.47203 0.67093 0.07443 0.0
C1705 C 0.46661 0.68374 0.07442 0.0
C1706 C 0.47862 0.70134 0.09491 0.0
C1707 C 0.49609 0.70619 0.11513 0.0
H1708 H 0.45309 0.68001 0.05879 0.0
H1709 H 0.62124 0.72366 0.26004 0.0
loop_
_geom_bond_atom_site_label_1
_geom_bond_atom_site_label_2
_geom_bond_distance
_geom_bond_site_symmetry_2
_ccdc_geom_bond_type
Dy0 O3 2.307 . S
Dy0 O5 2.387 1_556 S
Dy0 O6 2.383 . S
Dy0 O8 2.352 . S
Dy0 O10 2.300 1_655 S
Dy0 O14 2.265 1_656 S
Dy0 C22 2.736 1_556 S
Dy1 O4 2.298 . S
Dy1 O7 2.275 1_554 S
Dy1 O9 2.307 . S
Dy1 O11 2.395 1_554 S
Dy1 O12 2.379 . S
Dy1 O15 2.339 . S
Dy1 C31 2.738 1_554 S
C2 O14 1.254 . S
C2 O15 1.257 . S
O3 Dy0 2.307 . S
O3 C13 1.266 1_556 S
O4 Dy1 2.298 . S
O4 C13 1.236 1_455 S
O5 Dy0 2.387 1_554 S
O5 C22 1.255 . S
O6 Dy0 2.383 . S
O6 C22 1.249 1_556 S
O7 Dy1 2.275 1_556 S
O7 C23 1.254 . S
O8 Dy0 2.352 . S
O8 C23 1.257 1_655 S
O9 Dy1 2.307 . S
O9 C24 1.266 . S
O10 Dy0 2.300 1_455 S
O10 C24 1.236 1_556 S
O11 Dy1 2.395 1_556 S
O11 C31 1.255 . S
O12 Dy1 2.379 . S
O12 C31 1.249 1_554 S
C13 O3 1.266 1_554 S
C13 O4 1.236 1_655 S
O14 Dy0 2.265 1_454 S
O14 C2 1.254 . S
O15 Dy1 2.339 . S
O15 C2 1.257 . S
C16 C19 1.344 . S
C16 C20 1.328 1_554 S
C16 C22 1.516 . S
C17 C18 1.304 . S
C17 C21 1.323 1_554 S
C18 C17 1.304 . S
C18 C19 1.371 . S
C18 H32 0.930 . S
C19 C16 1.344 . S
C19 C18 1.371 . S
C19 H33 0.931 . S
C20 C16 1.328 1_556 S
C20 C21 1.433 . S
C20 H34 0.931 . S
C21 C17 1.323 1_556 S
C21 C20 1.433 . S
C21 H35 0.933 . S
C22 Dy0 2.736 1_554 S
C22 O5 1.255 . S
C22 O6 1.249 1_554 S
C22 C16 1.516 . S
C23 O7 1.254 . S
C23 O8 1.257 1_455 S
C24 O9 1.266 . S
C24 O10 1.236 1_554 S
C25 C28 1.344 . S
C25 C29 1.328 1_556 S
C25 C31 1.516 . S
C26 C27 1.304 . S
C26 C30 1.323 1_556 S
C27 C26 1.304 . S
C27 C28 1.371 . S
C27 H36 0.930 . S
C28 C25 1.344 . S
C28 C27 1.371 . S
C28 H37 0.931 . S
C29 C25 1.328 1_554 S
C29 C30 1.433 . S
C29 H38 0.931 . S
C30 C26 1.323 1_554 S
C30 C29 1.433 . S
C30 H39 0.933 . S
C31 Dy1 2.738 1_556 S
C31 O11 1.255 . S
C31 O12 1.249 1_556 S
C31 C25 1.516 . S
H32 C18 0.930 . S
H33 C19 0.931 . S
H34 C20 0.931 . S
H35 C21 0.933 . S
H36 C27 0.930 . S
H37 C28 0.931 . S
H38 C29 0.931 . S
H39 C30 0.933 . S
Dy40 O43 2.308 . S
Dy40 O45 2.387 1_556 S
Dy40 O46 2.383 . S
Dy40 O48 2.352 . S
Dy40 O50 2.300 . S
Dy40 O54 2.265 1_556 S
Dy40 C62 2.736 1_556 S
Dy41 O44 2.298 . S
Dy41 O47 2.275 1_554 S
Dy41 O49 2.307 . S
Dy41 O51 2.395 1_554 S
Dy41 O52 2.379 . S
Dy41 O55 2.339 . S
Dy41 C71 2.738 1_554 S
C42 O54 1.254 . S
C42 O55 1.257 . S
O43 Dy40 2.308 . S
O43 C53 1.266 1_556 S
O44 Dy41 2.298 . S
O44 C53 1.236 . S
O45 Dy40 2.387 1_554 S
O45 C62 1.255 . S
O46 Dy40 2.383 . S
O46 C62 1.249 1_556 S
O47 Dy41 2.275 1_556 S
O47 C63 1.254 . S
O48 Dy40 2.352 . S
O48 C63 1.257 . S
O49 Dy41 2.307 . S
O49 C64 1.266 . S
O50 Dy40 2.300 . S
O50 C64 1.236 1_556 S
O51 Dy41 2.395 1_556 S
O51 C71 1.255 . S
O52 Dy41 2.379 . S
O52 C71 1.249 1_554 S
C53 O43 1.266 1_554 S
C53 O44 1.236 . S
O54 Dy40 2.265 1_554 S
O54 C42 1.254 . S
O55 Dy41 2.339 . S
O55 C42 1.257 . S
C56 C59 1.344 . S
C56 C60 1.328 1_554 S
C56 C62 1.516 . S
C57 C58 1.304 . S
C57 C61 1.323 1_554 S
C58 C57 1.304 . S
C58 C59 1.371 . S
C58 H72 0.930 . S
C59 C56 1.344 . S
C59 C58 1.371 . S
C59 H73 0.931 . S
C60 C56 1.328 1_556 S
C60 C61 1.433 . S
C60 H74 0.931 . S
C61 C57 1.323 1_556 S
C61 C60 1.433 . S
C61 H75 0.933 . S
C62 Dy40 2.736 1_554 S
C62 O45 1.255 . S
C62 O46 1.249 1_554 S
C62 C56 1.516 . S
C63 O47 1.254 . S
C63 O48 1.257 . S
C64 O49 1.266 . S
C64 O50 1.236 1_554 S
C65 C68 1.344 . S
C65 C69 1.328 1_556 S
C65 C71 1.516 . S
C66 C67 1.304 . S
C66 C70 1.323 1_556 S
C67 C66 1.304 . S
C67 C68 1.371 . S
C67 H76 0.930 . S
C68 C65 1.344 . S
C68 C67 1.371 . S
C68 H77 0.931 . S
C69 C65 1.328 1_554 S
C69 C70 1.433 . S
C69 H78 0.931 . S
C70 C66 1.323 1_554 S
C70 C69 1.433 . S
C70 H79 0.933 . S
C71 Dy41 2.738 1_556 S
C71 O51 1.255 . S
C71 O52 1.249 1_556 S
C71 C65 1.516 . S
H72 C58 0.930 . S
H73 C59 0.931 . S
H74 C60 0.931 . S
H75 C61 0.933 . S
H76 C67 0.930 . S
H77 C68 0.931 . S
H78 C69 0.931 . S
H79 C70 0.933 . S
Dy80 O83 2.308 . S
Dy80 O85 2.387 1_556 S
Dy80 O86 2.383 . S
Dy80 O88 2.353 . S
Dy80 O90 2.300 . S
Dy80 O94 2.265 1_556 S
Dy80 C102 2.736 1_556 S
Dy81 O84 2.298 1_565 S
Dy81 O87 2.275 1_564 S
Dy81 O89 2.307 . S
Dy81 O91 2.395 1_554 S
Dy81 O92 2.379 . S
Dy81 O95 2.339 . S
Dy81 C111 2.738 1_554 S
C82 O94 1.254 . S
C82 O95 1.257 1_545 S
O83 Dy80 2.308 . S
O83 C93 1.266 1_556 S
O84 Dy81 2.298 1_545 S
O84 C93 1.236 . S
O85 Dy80 2.387 1_554 S
O85 C102 1.255 . S
O86 Dy80 2.383 . S
O86 C102 1.249 1_556 S
O87 Dy81 2.275 1_546 S
O87 C103 1.254 . S
O88 Dy80 2.353 . S
O88 C103 1.257 . S
O89 Dy81 2.307 . S
O89 C104 1.266 . S
O90 Dy80 2.300 . S
O90 C104 1.236 1_546 S
O91 Dy81 2.395 1_556 S
O91 C111 1.255 . S
O92 Dy81 2.379 . S
O92 C111 1.249 1_554 S
C93 O83 1.266 1_554 S
C93 O84 1.236 . S
O94 Dy80 2.265 1_554 S
O94 C82 1.254 . S
O95 Dy81 2.339 . S
O95 C82 1.257 1_565 S
C96 C99 1.344 . S
C96 C100 1.328 1_554 S
C96 C102 1.516 . S
C97 C98 1.304 . S
C97 C101 1.323 1_554 S
C98 C97 1.304 . S
C98 C99 1.371 . S
C98 H112 0.930 . S
C99 C96 1.344 . S
C99 C98 1.371 . S
C99 H113 0.931 . S
C100 C96 1.328 1_556 S
C100 C101 1.433 . S
C100 H114 0.931 . S
C101 C97 1.323 1_556 S
C101 C100 1.433 . S
C101 H115 0.933 . S
C102 Dy80 2.736 1_554 S
C102 O85 1.255 . S
C102 O86 1.249 1_554 S
C102 C96 1.516 . S
C103 O87 1.254 . S
C103 O88 1.257 . S
C104 O89 1.266 . S
C104 O90 1.236 1_564 S
C105 C108 1.344 . S
C105 C109 1.328 1_556 S
C105 C111 1.516 . S
C106 C107 1.304 . S
C106 C110 1.323 1_556 S
C107 C106 1.304 . S
C107 C108 1.371 . S
C107 H116 0.930 . S
C108 C105 1.344 . S
C108 C107 1.371 . S
C108 H117 0.931 . S
C109 C105 1.328 1_554 S
C109 C110 1.433 . S
C109 H118 0.931 . S
C110 C106 1.323 1_554 S
C110 C109 1.433 . S
C110 H119 0.933 . S
C111 Dy81 2.738 1_556 S
C111 O91 1.255 . S
C111 O92 1.249 1_556 S
C111 C105 1.516 . S
H112 C98 0.930 . S
H113 C99 0.931 . S
H114 C100 0.931 . S
H115 C101 0.933 . S
H116 C107 0.930 . S
H117 C108 0.931 . S
H118 C109 0.931 . S
H119 C110 0.933 . S
Dy120 O123 2.307 . S
Dy120 O125 2.395 . S
Dy120 O126 2.379 . S
Dy120 O128 2.339 . S
Dy120 O130 2.298 . S
Dy120 O134 2.275 . S
Dy120 C142 2.738 . S
Dy121 O124 2.298 . S
Dy121 O127 2.275 . S
Dy121 O129 2.307 . S
Dy121 O131 2.395 . S
Dy121 O132 2.379 . S
Dy121 O135 2.339 . S
Dy121 C151 2.738 . S
C122 O134 1.254 . S
C122 O135 1.257 . S
O123 Dy120 2.307 . S
O123 C133 1.266 . S
O124 Dy121 2.298 . S
O124 C133 1.236 . S
O125 Dy120 2.395 . S
O125 C142 1.255 . S
O126 Dy120 2.379 . S
O126 C142 1.249 . S
O127 Dy121 2.275 . S
O127 C143 1.254 . S
O128 Dy120 2.339 . S
O128 C143 1.257 . S
O129 Dy121 2.307 . S
O129 C144 1.266 . S
O130 Dy120 2.298 . S
O130 C144 1.236 . S
O131 Dy121 2.395 . S
O131 C151 1.255 . S
O132 Dy121 2.379 . S
O132 C151 1.249 . S
C133 O123 1.266 . S
C133 O124 1.236 . S
O134 Dy120 2.275 . S
O134 C122 1.254 . S
O135 Dy121 2.339 . S
O135 C122 1.257 . S
C136 C139 1.344 . S
C136 C140 1.328 . S
C136 C142 1.516 . S
C137 C138 1.304 . S
C137 C141 1.323 . S
C138 C137 1.304 . S
C138 C139 1.371 . S
C138 H152 0.930 . S
C139 C136 1.344 . S
C139 C138 1.371 . S
C139 H153 0.931 . S
C140 C136 1.328 . S
C140 C141 1.433 . S
C140 H154 0.931 . S
C141 C137 1.323 . S
C141 C140 1.433 . S
C141 H155 0.933 . S
C142 Dy120 2.738 . S
C142 O125 1.255 . S
C142 O126 1.249 . S
C142 C136 1.516 . S
C143 O127 1.254 . S
C143 O128 1.257 . S
C144 O129 1.266 . S
C144 O130 1.236 . S
C145 C148 1.344 . S
C145 C149 1.328 . S
C145 C151 1.516 . S
C146 C147 1.304 . S
C146 C150 1.323 . S
C147 C146 1.304 . S
C147 C148 1.371 . S
C147 H156 0.930 . S
C148 C145 1.344 . S
C148 C147 1.371 . S
C148 H157 0.931 . S
C149 C145 1.328 . S
C149 C150 1.433 . S
C149 H158 0.931 . S
C150 C146 1.323 . S
C150 C149 1.433 . S
C150 H159 0.933 . S
C151 Dy121 2.738 . S
C151 O131 1.255 . S
C151 O132 1.249 . S
C151 C145 1.516 . S
H152 C138 0.930 . S
H153 C139 0.931 . S
H154 C140 0.931 . S
H155 C141 0.933 . S
H156 C147 0.930 . S
H157 C148 0.931 . S
H158 C149 0.931 . S
H159 C150 0.933 . S
Dy160 O163 2.307 . S
Dy160 O165 2.395 . S
Dy160 O166 2.379 . S
Dy160 O168 2.339 . S
Dy160 O170 2.298 . S
Dy160 O174 2.275 . S
Dy160 C182 2.738 . S
Dy161 O164 2.298 . S
Dy161 O167 2.275 . S
Dy161 O169 2.307 . S
Dy161 O171 2.395 . S
Dy161 O172 2.379 . S
Dy161 O175 2.339 . S
Dy161 C191 2.738 . S
C162 O174 1.254 . S
C162 O175 1.257 . S
O163 Dy160 2.307 . S
O163 C173 1.266 . S
O164 Dy161 2.298 . S
O164 C173 1.236 . S
O165 Dy160 2.395 . S
O165 C182 1.255 . S
O166 Dy160 2.379 . S
O166 C182 1.249 . S
O167 Dy161 2.275 . S
O167 C183 1.254 . S
O168 Dy160 2.339 . S
O168 C183 1.257 . S
O169 Dy161 2.307 . S
O169 C184 1.266 . S
O170 Dy160 2.298 . S
O170 C184 1.236 . S
O171 Dy161 2.395 . S
O171 C191 1.255 . S
O172 Dy161 2.379 . S
O172 C191 1.249 . S
C173 O163 1.266 . S
C173 O164 1.236 . S
O174 Dy160 2.275 . S
O174 C162 1.254 . S
O175 Dy161 2.339 . S
O175 C162 1.257 . S
C176 C179 1.344 . S
C176 C180 1.328 . S
C176 C182 1.516 . S
C177 C178 1.304 . S
C177 C181 1.323 . S
C178 C177 1.304 . S
C178 C179 1.371 . S
C178 H192 0.930 . S
C179 C176 1.344 . S
C179 C178 1.371 . S
C179 H193 0.931 . S
C180 C176 1.328 . S
C180 C181 1.433 . S
C180 H194 0.931 . S
C181 C177 1.323 . S
C181 C180 1.433 . S
C181 H195 0.933 . S
C182 Dy160 2.738 . S
C182 O165 1.255 . S
C182 O166 1.249 . S
C182 C176 1.516 . S
C183 O167 1.254 . S
C183 O168 1.257 . S
C184 O169 1.266 . S
C184 O170 1.236 . S
C185 C188 1.344 . S
C185 C189 1.328 . S
C185 C191 1.516 . S
C186 C187 1.304 . S
C186 C190 1.323 . S
C187 C186 1.304 . S
C187 C188 1.371 . S
C187 H196 0.930 . S
C188 C185 1.344 . S
C188 C187 1.371 . S
C188 H197 0.931 . S
C189 C185 1.328 . S
C189 C190 1.433 . S
C189 H198 0.931 . S
C190 C186 1.323 . S
C190 C189 1.433 . S
C190 H199 0.933 . S
C191 Dy161 2.738 . S
C191 O171 1.255 . S
C191 O172 1.249 . S
C191 C185 1.516 . S
H192 C178 0.930 . S
H193 C179 0.931 . S
H194 C180 0.931 . S
H195 C181 0.933 . S
H196 C187 0.930 . S
H197 C188 0.931 . S
H198 C189 0.931 . S
H199 C190 0.933 . S
Dy200 O203 2.307 . S
Dy200 O205 2.395 . S
Dy200 O206 2.379 . S
Dy200 O208 2.339 . S
Dy200 O210 2.298 . S
Dy200 O214 2.275 . S
Dy200 C222 2.738 . S
Dy201 O204 2.298 . S
Dy201 O207 2.275 . S
Dy201 O209 2.307 . S
Dy201 O211 2.395 . S
Dy201 O212 2.379 . S
Dy201 O215 2.339 . S
Dy201 C231 2.738 . S
C202 O214 1.254 . S
C202 O215 1.257 . S
O203 Dy200 2.307 . S
O203 C213 1.266 . S
O204 Dy201 2.298 . S
O204 C213 1.236 . S
O205 Dy200 2.395 . S
O205 C222 1.255 . S
O206 Dy200 2.379 . S
O206 C222 1.249 . S
O207 Dy201 2.275 . S
O207 C223 1.254 . S
O208 Dy200 2.339 . S
O208 C223 1.257 . S
O209 Dy201 2.307 . S
O209 C224 1.266 . S
O210 Dy200 2.298 . S
O210 C224 1.236 . S
O211 Dy201 2.395 . S
O211 C231 1.255 . S
O212 Dy201 2.379 . S
O212 C231 1.249 . S
C213 O203 1.266 . S
C213 O204 1.236 . S
O214 Dy200 2.275 . S
O214 C202 1.254 . S
O215 Dy201 2.339 . S
O215 C202 1.257 . S
C216 C219 1.344 . S
C216 C220 1.328 . S
C216 C222 1.516 . S
C217 C218 1.304 . S
C217 C221 1.323 . S
C218 C217 1.304 . S
C218 C219 1.371 . S
C218 H232 0.930 . S
C219 C216 1.344 . S
C219 C218 1.371 . S
C219 H233 0.931 . S
C220 C216 1.328 . S
C220 C221 1.433 . S
C220 H234 0.931 . S
C221 C217 1.323 . S
C221 C220 1.433 . S
C221 H235 0.933 . S
C222 Dy200 2.738 . S
C222 O205 1.255 . S
C222 O206 1.249 . S
C222 C216 1.516 . S
C223 O207 1.254 . S
C223 O208 1.257 . S
C224 O209 1.266 . S
C224 O210 1.236 . S
C225 C228 1.344 . S
C225 C229 1.328 . S
C225 C231 1.516 . S
C226 C227 1.304 . S
C226 C230 1.323 . S
C227 C226 1.304 . S
C227 C228 1.371 . S
C227 H236 0.930 . S
C228 C225 1.344 . S
C228 C227 1.371 . S
C228 H237 0.931 . S
C229 C225 1.328 . S
C229 C230 1.433 . S
C229 H238 0.931 . S
C230 C226 1.323 . S
C230 C229 1.433 . S
C230 H239 0.933 . S
C231 Dy201 2.738 . S
C231 O211 1.255 . S
C231 O212 1.249 . S
C231 C225 1.516 . S
H232 C218 0.930 . S
H233 C219 0.931 . S
H234 C220 0.931 . S
H235 C221 0.933 . S
H236 C227 0.930 . S
H237 C228 0.931 . S
H238 C229 0.931 . S
H239 C230 0.933 . S
Dy240 O243 2.307 . S
Dy240 O245 2.395 . S
Dy240 O246 2.379 . S
Dy240 O248 2.339 . S
Dy240 O250 2.298 . S
Dy240 O254 2.275 . S
Dy240 C262 2.738 . S
Dy241 O244 2.298 . S
Dy241 O247 2.275 . S
Dy241 O249 2.307 . S
Dy241 O251 2.395 . S
Dy241 O252 2.379 . S
Dy241 O255 2.339 . S
Dy241 C271 2.738 . S
C242 O254 1.254 . S
C242 O255 1.257 . S
O243 Dy240 2.307 . S
O243 C253 1.266 . S
O244 Dy241 2.298 . S
O244 C253 1.236 . S
O245 Dy240 2.395 . S
O245 C262 1.255 . S
O246 Dy240 2.379 . S
O246 C262 1.249 . S
O247 Dy241 2.275 . S
O247 C263 1.254 . S
O248 Dy240 2.339 . S
O248 C263 1.257 . S
O249 Dy241 2.307 . S
O249 C264 1.266 . S
O250 Dy240 2.298 . S
O250 C264 1.236 . S
O251 Dy241 2.395 . S
O251 C271 1.255 . S
O252 Dy241 2.379 . S
O252 C271 1.249 . S
C253 O243 1.266 . S
C253 O244 1.236 . S
O254 Dy240 2.275 . S
O254 C242 1.254 . S
O255 Dy241 2.339 . S
O255 C242 1.257 . S
C256 C259 1.344 . S
C256 C260 1.328 . S
C256 C262 1.516 . S
C257 C258 1.304 . S
C257 C261 1.323 . S
C258 C257 1.304 . S
C258 C259 1.371 . S
C258 H272 0.930 . S
C259 C256 1.344 . S
C259 C258 1.371 . S
C259 H273 0.931 . S
C260 C256 1.328 . S
C260 C261 1.433 . S
C260 H274 0.931 . S
C261 C257 1.323 . S
C261 C260 1.433 . S
C261 H275 0.933 . S
C262 Dy240 2.738 . S
C262 O245 1.255 . S
C262 O246 1.249 . S
C262 C256 1.516 . S
C263 O247 1.254 . S
C263 O248 1.257 . S
C264 O249 1.266 . S
C264 O250 1.236 . S
C265 C268 1.344 . S
C265 C269 1.328 . S
C265 C271 1.516 . S
C266 C267 1.304 . S
C266 C270 1.323 . S
C267 C266 1.304 . S
C267 C268 1.371 . S
C267 H276 0.930 . S
C268 C265 1.344 . S
C268 C267 1.371 . S
C268 H277 0.931 . S
C269 C265 1.328 . S
C269 C270 1.433 . S
C269 H278 0.931 . S
C270 C266 1.323 . S
C270 C269 1.433 . S
C270 H279 0.933 . S
C271 Dy241 2.738 . S
C271 O251 1.255 . S
C271 O252 1.249 . S
C271 C265 1.516 . S
H272 C258 0.930 . S
H273 C259 0.931 . S
H274 C260 0.931 . S
H275 C261 0.933 . S
H276 C267 0.930 . S
H277 C268 0.931 . S
H278 C269 0.931 . S
H279 C270 0.933 . S
Dy280 O283 2.307 . S
Dy280 O285 2.395 . S
Dy280 O286 2.379 . S
Dy280 O288 2.339 . S
Dy280 O290 2.298 . S
Dy280 O294 2.275 . S
Dy280 C302 2.738 . S
Dy281 O284 2.298 . S
Dy281 O287 2.275 . S
Dy281 O289 2.307 . S
Dy281 O291 2.395 . S
Dy281 O292 2.379 . S
Dy281 O295 2.339 . S
Dy281 C311 2.738 . S
C282 O294 1.254 . S
C282 O295 1.257 . S
O283 Dy280 2.307 . S
O283 C293 1.266 . S
O284 Dy281 2.298 . S
O284 C293 1.236 . S
O285 Dy280 2.395 . S
O285 C302 1.255 . S
O286 Dy280 2.379 . S
O286 C302 1.249 . S
O287 Dy281 2.275 . S
O287 C303 1.254 . S
O288 Dy280 2.339 . S
O288 C303 1.257 . S
O289 Dy281 2.307 . S
O289 C304 1.266 . S
O290 Dy280 2.298 . S
O290 C304 1.236 . S
O291 Dy281 2.395 . S
O291 C311 1.255 . S
O292 Dy281 2.379 . S
O292 C311 1.249 . S
C293 O283 1.266 . S
C293 O284 1.236 . S
O294 Dy280 2.275 . S
O294 C282 1.254 . S
O295 Dy281 2.339 . S
O295 C282 1.257 . S
C296 C299 1.344 . S
C296 C300 1.328 . S
C296 C302 1.516 . S
C297 C298 1.304 . S
C297 C301 1.323 . S
C298 C297 1.304 . S
C298 C299 1.371 . S
C298 H312 0.930 . S
C299 C296 1.344 . S
C299 C298 1.371 . S
C299 H313 0.931 . S
C300 C296 1.328 . S
C300 C301 1.433 . S
C300 H314 0.931 . S
C301 C297 1.323 . S
C301 C300 1.433 . S
C301 H315 0.933 . S
C302 Dy280 2.738 . S
C302 O285 1.255 . S
C302 O286 1.249 . S
C302 C296 1.516 . S
C303 O287 1.254 . S
C303 O288 1.257 . S
C304 O289 1.266 . S
C304 O290 1.236 . S
C305 C308 1.344 . S
C305 C309 1.328 . S
C305 C311 1.516 . S
C306 C307 1.304 . S
C306 C310 1.323 . S
C307 C306 1.304 . S
C307 C308 1.371 . S
C307 H316 0.930 . S
C308 C305 1.344 . S
C308 C307 1.371 . S
C308 H317 0.931 . S
C309 C305 1.328 . S
C309 C310 1.433 . S
C309 H318 0.931 . S
C310 C306 1.323 . S
C310 C309 1.433 . S
C310 H319 0.933 . S
C311 Dy281 2.738 . S
C311 O291 1.255 . S
C311 O292 1.249 . S
C311 C305 1.516 . S
H312 C298 0.930 . S
H313 C299 0.931 . S
H314 C300 0.931 . S
H315 C301 0.933 . S
H316 C307 0.930 . S
H317 C308 0.931 . S
H318 C309 0.931 . S
H319 C310 0.933 . S
Dy320 O323 2.307 . S
Dy320 O325 2.395 . S
Dy320 O326 2.379 . S
Dy320 O328 2.339 . S
Dy320 O330 2.298 . S
Dy320 O334 2.275 . S
Dy320 C342 2.738 . S
Dy321 O324 2.298 . S
Dy321 O327 2.275 . S
Dy321 O329 2.307 . S
Dy321 O331 2.395 . S
Dy321 O332 2.379 . S
Dy321 O335 2.339 . S
Dy321 C351 2.738 . S
C322 O334 1.254 . S
C322 O335 1.257 . S
O323 Dy320 2.307 . S
O323 C333 1.266 . S
O324 Dy321 2.298 . S
O324 C333 1.236 . S
O325 Dy320 2.395 . S
O325 C342 1.255 . S
O326 Dy320 2.379 . S
O326 C342 1.249 . S
O327 Dy321 2.275 . S
O327 C343 1.254 . S
O328 Dy320 2.339 . S
O328 C343 1.257 . S
O329 Dy321 2.307 . S
O329 C344 1.266 . S
O330 Dy320 2.298 . S
O330 C344 1.236 . S
O331 Dy321 2.395 . S
O331 C351 1.255 . S
O332 Dy321 2.379 . S
O332 C351 1.249 . S
C333 O323 1.266 . S
C333 O324 1.236 . S
O334 Dy320 2.275 . S
O334 C322 1.254 . S
O335 Dy321 2.339 . S
O335 C322 1.257 . S
C336 C339 1.344 . S
C336 C340 1.328 . S
C336 C342 1.516 . S
C337 C338 1.304 . S
C337 C341 1.323 . S
C338 C337 1.304 . S
C338 C339 1.371 . S
C338 H352 0.930 . S
C339 C336 1.344 . S
C339 C338 1.371 . S
C339 H353 0.931 . S
C340 C336 1.328 . S
C340 C341 1.433 . S
C340 H354 0.931 . S
C341 C337 1.323 . S
C341 C340 1.433 . S
C341 H355 0.933 . S
C342 Dy320 2.738 . S
C342 O325 1.255 . S
C342 O326 1.249 . S
C342 C336 1.516 . S
C343 O327 1.254 . S
C343 O328 1.257 . S
C344 O329 1.266 . S
C344 O330 1.236 . S
C345 C348 1.344 . S
C345 C349 1.328 . S
C345 C351 1.516 . S
C346 C347 1.304 . S
C346 C350 1.323 . S
C347 C346 1.304 . S
C347 C348 1.371 . S
C347 H356 0.930 . S
C348 C345 1.344 . S
C348 C347 1.371 . S
C348 H357 0.931 . S
C349 C345 1.328 . S
C349 C350 1.433 . S
C349 H358 0.931 . S
C350 C346 1.323 . S
C350 C349 1.433 . S
C350 H359 0.933 . S
C351 Dy321 2.738 . S
C351 O331 1.255 . S
C351 O332 1.249 . S
C351 C345 1.516 . S
H352 C338 0.930 . S
H353 C339 0.931 . S
H354 C340 0.931 . S
H355 C341 0.933 . S
H356 C347 0.930 . S
H357 C348 0.931 . S
H358 C349 0.931 . S
H359 C350 0.933 . S
H360 C378 0.951 . S
H361 C380 0.951 . S
H362 C382 0.950 . S
H363 C383 0.950 . S
H364 C385 0.950 . S
H365 C388 0.950 . S
H366 C389 0.950 . S
H367 C391 0.950 . S
H368 C392 0.950 . S
H369 C393 0.951 . S
H370 C395 0.951 . S
H371 C397 0.950 . S
H372 C398 0.950 . S
H373 C400 0.950 . S
H374 C403 0.950 . S
H375 C404 0.950 . S
H376 C406 0.950 . S
H377 C407 0.950 . S
C378 H360 0.951 . S
C378 C379 1.366 . S
C378 C380 1.388 . S
C379 C378 1.366 . S
C379 C383 1.385 . S
C380 H361 0.951 . S
C380 C378 1.388 . S
C380 C381 1.366 . S
C381 C380 1.366 . S
C381 C382 1.414 . S
C381 C384 1.499 . S
C382 H362 0.950 . S
C382 C381 1.414 . S
C382 C383 1.374 . S
C383 H363 0.950 . S
C383 C379 1.385 . S
C383 C382 1.374 . S
C384 C381 1.499 . S
C384 C385 1.373 . S
C384 C386 1.389 . S
C385 H364 0.950 . S
C385 C384 1.373 . S
C385 C401 1.377 . S
C386 C384 1.389 . S
C386 C387 1.524 . S
C386 C400 1.377 . S
C387 C386 1.524 . S
C387 C388 1.397 . S
C387 C392 1.363 . S
C388 H365 0.950 . S
C388 C387 1.397 . S
C388 C389 1.334 . S
C389 H366 0.950 . S
C389 C388 1.334 . S
C389 C390 1.287 . S
C390 C389 1.287 . S
C390 C391 1.524 . S
C390 H409 0.913 . S
C391 H367 0.950 . S
C391 C390 1.524 . S
C391 C392 1.415 . S
C392 H368 0.950 . S
C392 C387 1.363 . S
C392 C391 1.415 . S
C393 H369 0.951 . S
C393 C394 1.366 . S
C393 C395 1.388 . S
C394 C393 1.366 . S
C394 C398 1.385 . S
C395 H370 0.951 . S
C395 C393 1.388 . S
C395 C396 1.366 . S
C396 C395 1.366 . S
C396 C397 1.414 . S
C396 C399 1.499 . S
C397 H371 0.950 . S
C397 C396 1.414 . S
C397 C398 1.374 . S
C398 H372 0.950 . S
C398 C394 1.385 . S
C398 C397 1.374 . S
C399 C396 1.499 . S
C399 C400 1.373 . S
C399 C401 1.389 . S
C400 H373 0.950 . S
C400 C386 1.377 . S
C400 C399 1.373 . S
C401 C385 1.377 . S
C401 C399 1.389 . S
C401 C402 1.524 . S
C402 C401 1.524 . S
C402 C403 1.397 . S
C402 C407 1.363 . S
C403 H374 0.950 . S
C403 C402 1.397 . S
C403 C404 1.334 . S
C404 H375 0.950 . S
C404 C403 1.334 . S
C404 C405 1.287 . S
C405 C404 1.287 . S
C405 C406 1.524 . S
C405 H408 0.999 1_556 S
C406 H376 0.950 . S
C406 C405 1.524 . S
C406 C407 1.415 . S
C407 H377 0.950 . S
C407 C402 1.363 . S
C407 C406 1.415 . S
H408 C405 0.999 1_554 S
H409 C390 0.913 . S
H410 C428 0.951 . S
H411 C430 0.951 . S
H412 C432 0.950 . S
H413 C433 0.950 . S
H414 C435 0.950 . S
H415 C438 0.950 . S
H416 C439 0.950 . S
H417 C441 0.950 . S
H418 C442 0.950 . S
H419 C443 0.951 . S
H420 C445 0.951 . S
H421 C447 0.950 . S
H422 C448 0.950 . S
H423 C450 0.950 . S
H424 C453 0.950 . S
H425 C454 0.950 . S
H426 C456 0.950 . S
H427 C457 0.950 . S
C428 H410 0.951 . S
C428 C429 1.366 . S
C428 C430 1.388 . S
C429 C428 1.366 . S
C429 C433 1.385 . S
C430 H411 0.951 . S
C430 C428 1.388 . S
C430 C431 1.366 . S
C431 C430 1.366 . S
C431 C432 1.414 . S
C431 C434 1.499 . S
C432 H412 0.950 . S
C432 C431 1.414 . S
C432 C433 1.374 . S
C433 H413 0.950 . S
C433 C429 1.385 . S
C433 C432 1.374 . S
C434 C431 1.499 . S
C434 C435 1.373 . S
C434 C436 1.389 . S
C435 H414 0.950 . S
C435 C434 1.373 . S
C435 C451 1.377 . S
C436 C434 1.389 . S
C436 C437 1.524 . S
C436 C450 1.377 . S
C437 C436 1.524 . S
C437 C438 1.397 . S
C437 C442 1.363 . S
C438 H415 0.950 . S
C438 C437 1.397 . S
C438 C439 1.334 . S
C439 H416 0.950 . S
C439 C438 1.334 . S
C439 C440 1.287 . S
C440 C439 1.287 . S
C440 C441 1.524 . S
C440 H459 0.913 . S
C441 H417 0.950 . S
C441 C440 1.524 . S
C441 C442 1.415 . S
C442 H418 0.950 . S
C442 C437 1.363 . S
C442 C441 1.415 . S
C443 H419 0.951 . S
C443 C444 1.366 . S
C443 C445 1.388 . S
C444 C443 1.366 . S
C444 C448 1.385 . S
C445 H420 0.951 . S
C445 C443 1.388 . S
C445 C446 1.366 . S
C446 C445 1.366 . S
C446 C447 1.414 . S
C446 C449 1.499 . S
C447 H421 0.950 . S
C447 C446 1.414 . S
C447 C448 1.374 . S
C448 H422 0.950 . S
C448 C444 1.385 . S
C448 C447 1.374 . S
C449 C446 1.499 . S
C449 C450 1.373 . S
C449 C451 1.389 . S
C450 H423 0.950 . S
C450 C436 1.377 . S
C450 C449 1.373 . S
C451 C435 1.377 . S
C451 C449 1.389 . S
C451 C452 1.524 . S
C452 C451 1.524 . S
C452 C453 1.397 . S
C452 C457 1.363 . S
C453 H424 0.950 . S
C453 C452 1.397 . S
C453 C454 1.334 . S
C454 H425 0.950 . S
C454 C453 1.334 . S
C454 C455 1.287 . S
C455 C454 1.287 . S
C455 C456 1.524 . S
C455 H458 0.999 . S
C456 H426 0.950 . S
C456 C455 1.524 . S
C456 C457 1.415 . S
C457 H427 0.950 . S
C457 C452 1.363 . S
C457 C456 1.415 . S
H458 C455 0.999 . S
H459 C440 0.913 . S
H460 C478 0.951 . S
H461 C480 0.951 . S
H462 C482 0.950 . S
H463 C483 0.950 . S
H464 C485 0.950 . S
H465 C488 0.950 . S
H466 C489 0.950 . S
H467 C491 0.950 . S
H468 C492 0.950 . S
H469 C493 0.951 . S
H470 C495 0.951 . S
H471 C497 0.950 . S
H472 C498 0.950 . S
H473 C500 0.950 . S
H474 C503 0.950 . S
H475 C504 0.950 . S
H476 C506 0.950 . S
H477 C507 0.950 . S
C478 H460 0.951 . S
C478 C479 1.366 . S
C478 C480 1.388 . S
C479 C478 1.366 . S
C479 C483 1.385 . S
C480 H461 0.951 . S
C480 C478 1.388 . S
C480 C481 1.366 . S
C481 C480 1.366 . S
C481 C482 1.414 . S
C481 C484 1.499 . S
C482 H462 0.950 . S
C482 C481 1.414 . S
C482 C483 1.374 . S
C483 H463 0.950 . S
C483 C479 1.385 . S
C483 C482 1.374 . S
C484 C481 1.499 . S
C484 C485 1.373 . S
C484 C486 1.389 . S
C485 H464 0.950 . S
C485 C484 1.373 . S
C485 C501 1.377 . S
C486 C484 1.389 . S
C486 C487 1.524 . S
C486 C500 1.377 . S
C487 C486 1.524 . S
C487 C488 1.397 . S
C487 C492 1.363 . S
C488 H465 0.950 . S
C488 C487 1.397 . S
C488 C489 1.334 . S
C489 H466 0.950 . S
C489 C488 1.334 . S
C489 C490 1.287 . S
C490 C489 1.287 . S
C490 C491 1.524 . S
C490 H509 0.913 . S
C491 H467 0.950 . S
C491 C490 1.524 . S
C491 C492 1.415 . S
C492 H468 0.950 . S
C492 C487 1.363 . S
C492 C491 1.415 . S
C493 H469 0.951 . S
C493 C494 1.366 . S
C493 C495 1.388 . S
C494 C493 1.366 . S
C494 C498 1.385 . S
C495 H470 0.951 . S
C495 C493 1.388 . S
C495 C496 1.366 . S
C496 C495 1.366 . S
C496 C497 1.414 . S
C496 C499 1.499 . S
C497 H471 0.950 . S
C497 C496 1.414 . S
C497 C498 1.374 . S
C498 H472 0.950 . S
C498 C494 1.385 . S
C498 C497 1.374 . S
C499 C496 1.499 . S
C499 C500 1.373 . S
C499 C501 1.389 . S
C500 H473 0.950 . S
C500 C486 1.377 . S
C500 C499 1.373 . S
C501 C485 1.377 . S
C501 C499 1.389 . S
C501 C502 1.524 . S
C502 C501 1.524 . S
C502 C503 1.397 . S
C502 C507 1.363 . S
C503 H474 0.950 . S
C503 C502 1.397 . S
C503 C504 1.334 . S
C504 H475 0.950 . S
C504 C503 1.334 . S
C504 C505 1.287 . S
C505 C504 1.287 . S
C505 C506 1.524 . S
C505 H508 0.999 . S
C506 H476 0.950 . S
C506 C505 1.524 . S
C506 C507 1.415 . S
C507 H477 0.950 . S
C507 C502 1.363 . S
C507 C506 1.415 . S
H508 C505 0.999 . S
H509 C490 0.913 . S
H510 C528 0.951 . S
H511 C530 0.951 . S
H512 C532 0.950 . S
H513 C533 0.950 . S
H514 C535 0.950 . S
H515 C538 0.950 . S
H516 C539 0.950 . S
H517 C541 0.950 . S
H518 C542 0.950 . S
H519 C543 0.951 . S
H520 C545 0.951 . S
H521 C547 0.950 . S
H522 C548 0.950 1_556 S
H523 C550 0.950 . S
H524 C553 0.950 . S
H525 C554 0.950 . S
H526 C556 0.950 . S
H527 C557 0.950 . S
C528 H510 0.951 . S
C528 C529 1.366 . S
C528 C530 1.388 . S
C529 C528 1.366 . S
C529 C533 1.385 . S
C530 H511 0.951 . S
C530 C528 1.388 . S
C530 C531 1.366 . S
C531 C530 1.366 . S
C531 C532 1.414 . S
C531 C534 1.499 . S
C532 H512 0.950 . S
C532 C531 1.414 . S
C532 C533 1.374 . S
C533 H513 0.950 . S
C533 C529 1.385 . S
C533 C532 1.374 . S
C534 C531 1.499 . S
C534 C535 1.373 . S
C534 C536 1.389 . S
C535 H514 0.950 . S
C535 C534 1.373 . S
C535 C551 1.377 . S
C536 C534 1.389 . S
C536 C537 1.524 . S
C536 C550 1.377 . S
C537 C536 1.524 . S
C537 C538 1.397 . S
C537 C542 1.363 . S
C538 H515 0.950 . S
C538 C537 1.397 . S
C538 C539 1.334 . S
C539 H516 0.950 . S
C539 C538 1.334 . S
C539 C540 1.287 . S
C540 C539 1.287 . S
C540 C541 1.524 . S
C540 H559 0.913 . S
C541 H517 0.950 . S
C541 C540 1.524 . S
C541 C542 1.415 . S
C542 H518 0.950 . S
C542 C537 1.363 . S
C542 C541 1.415 . S
C543 H519 0.951 . S
C543 C544 1.366 . S
C543 C545 1.388 . S
C544 C543 1.366 . S
C544 C548 1.385 . S
C545 H520 0.951 . S
C545 C543 1.388 . S
C545 C546 1.366 . S
C546 C545 1.366 . S
C546 C547 1.414 . S
C546 C549 1.499 . S
C547 H521 0.950 . S
C547 C546 1.414 . S
C547 C548 1.374 . S
C548 H522 0.950 1_554 S
C548 C544 1.385 . S
C548 C547 1.374 . S
C549 C546 1.499 . S
C549 C550 1.373 . S
C549 C551 1.389 . S
C550 H523 0.950 . S
C550 C536 1.377 . S
C550 C549 1.373 . S
C551 C535 1.377 . S
C551 C549 1.389 . S
C551 C552 1.524 . S
C552 C551 1.524 . S
C552 C553 1.397 1_554 S
C552 C557 1.363 . S
C553 H524 0.950 . S
C553 C552 1.397 1_556 S
C553 C554 1.334 . S
C554 H525 0.950 . S
C554 C553 1.334 . S
C554 C555 1.287 . S
C555 C554 1.287 . S
C555 C556 1.524 1_556 S
C555 H558 0.999 . S
C556 H526 0.950 . S
C556 C555 1.524 1_554 S
C556 C557 1.415 . S
C557 H527 0.950 . S
C557 C552 1.363 . S
C557 C556 1.415 . S
H558 C555 0.999 . S
H559 C540 0.913 . S
H560 C578 0.951 . S
H561 C580 0.951 . S
H562 C582 0.950 . S
H563 C583 0.950 . S
H564 C585 0.950 . S
H565 C588 0.950 . S
H566 C589 0.950 . S
H567 C591 0.950 . S
H568 C592 0.950 . S
H569 C593 0.951 1_455 S
H570 C595 0.951 . S
H571 C597 0.950 . S
H572 C598 0.950 1_556 S
H573 C600 0.950 . S
H574 C603 0.950 . S
H575 C604 0.950 . S
H576 C606 0.950 . S
H577 C607 0.950 . S
C578 H560 0.951 . S
C578 C579 1.366 . S
C578 C580 1.388 . S
C579 C578 1.366 . S
C579 C583 1.385 . S
C580 H561 0.951 . S
C580 C578 1.388 . S
C580 C581 1.366 . S
C581 C580 1.366 . S
C581 C582 1.414 . S
C581 C584 1.499 . S
C582 H562 0.950 . S
C582 C581 1.414 . S
C582 C583 1.374 . S
C583 H563 0.950 . S
C583 C579 1.385 . S
C583 C582 1.374 . S
C584 C581 1.499 . S
C584 C585 1.373 . S
C584 C586 1.389 . S
C585 H564 0.950 . S
C585 C584 1.373 . S
C585 C601 1.377 . S
C586 C584 1.389 . S
C586 C587 1.524 . S
C586 C600 1.377 . S
C587 C586 1.524 . S
C587 C588 1.397 . S
C587 C592 1.363 . S
C588 H565 0.950 . S
C588 C587 1.397 . S
C588 C589 1.334 . S
C589 H566 0.950 . S
C589 C588 1.334 . S
C589 C590 1.287 . S
C590 C589 1.287 . S
C590 C591 1.524 . S
C590 H609 0.913 . S
C591 H567 0.950 . S
C591 C590 1.524 . S
C591 C592 1.415 . S
C592 H568 0.950 . S
C592 C587 1.363 . S
C592 C591 1.415 . S
C593 H569 0.951 1_655 S
C593 C594 1.366 . S
C593 C595 1.388 . S
C594 C593 1.366 . S
C594 C598 1.385 . S
C595 H570 0.951 . S
C595 C593 1.388 . S
C595 C596 1.366 . S
C596 C595 1.366 . S
C596 C597 1.414 . S
C596 C599 1.499 . S
C597 H571 0.950 . S
C597 C596 1.414 . S
C597 C598 1.374 . S
C598 H572 0.950 1_554 S
C598 C594 1.385 . S
C598 C597 1.374 . S
C599 C596 1.499 . S
C599 C600 1.373 . S
C599 C601 1.389 . S
C600 H573 0.950 . S
C600 C586 1.377 . S
C600 C599 1.373 . S
C601 C585 1.377 . S
C601 C599 1.389 . S
C601 C602 1.524 . S
C602 C601 1.524 . S
C602 C603 1.397 1_554 S
C602 C607 1.363 . S
C603 H574 0.950 . S
C603 C602 1.397 1_556 S
C603 C604 1.334 . S
C604 H575 0.950 . S
C604 C603 1.334 . S
C604 C605 1.287 1_655 S
C605 C604 1.287 1_455 S
C605 C606 1.524 1_556 S
C605 H608 0.999 . S
C606 H576 0.950 . S
C606 C605 1.524 1_554 S
C606 C607 1.415 1_455 S
C607 H577 0.950 . S
C607 C602 1.363 . S
C607 C606 1.415 1_655 S
H608 C605 0.999 . S
H609 C590 0.913 . S
H610 C628 0.948 1_556 S
H611 C630 0.951 . S
H612 C632 0.950 . S
H613 C633 0.950 . S
H614 C635 0.950 . S
H615 C638 0.950 . S
H616 C639 0.950 . S
H617 C641 0.950 . S
H618 C642 0.950 . S
H619 C643 0.951 . S
H620 C645 0.951 . S
H621 C647 0.950 . S
H622 C648 0.950 . S
H623 C650 0.950 . S
H624 C653 0.950 . S
H625 C654 0.950 . S
H626 C656 0.950 . S
H627 C657 0.950 . S
C628 H610 0.948 1_554 S
C628 C629 1.367 . S
C628 C630 1.390 . S
C629 C628 1.367 . S
C629 C633 1.385 . S
C630 H611 0.951 . S
C630 C628 1.390 . S
C630 C631 1.366 . S
C631 C630 1.366 . S
C631 C632 1.414 . S
C631 C634 1.499 . S
C632 H612 0.950 . S
C632 C631 1.414 . S
C632 C633 1.374 . S
C633 H613 0.950 . S
C633 C629 1.385 . S
C633 C632 1.374 . S
C634 C631 1.499 . S
C634 C635 1.373 . S
C634 C636 1.389 . S
C635 H614 0.950 . S
C635 C634 1.373 . S
C635 C651 1.377 . S
C636 C634 1.389 . S
C636 C637 1.524 . S
C636 C650 1.377 . S
C637 C636 1.524 . S
C637 C638 1.397 . S
C637 C642 1.363 . S
C638 H615 0.950 . S
C638 C637 1.397 . S
C638 C639 1.334 . S
C639 H616 0.950 . S
C639 C638 1.334 . S
C639 C640 1.287 . S
C640 C639 1.287 . S
C640 C641 1.524 . S
C640 H659 0.913 . S
C641 H617 0.950 . S
C641 C640 1.524 . S
C641 C642 1.415 . S
C642 H618 0.950 . S
C642 C637 1.363 . S
C642 C641 1.415 . S
C643 H619 0.951 . S
C643 C644 1.366 . S
C643 C645 1.388 . S
C644 C643 1.366 . S
C644 C648 1.385 . S
C645 H620 0.951 . S
C645 C643 1.388 . S
C645 C646 1.366 . S
C646 C645 1.366 . S
C646 C647 1.414 . S
C646 C649 1.499 . S
C647 H621 0.950 . S
C647 C646 1.414 . S
C647 C648 1.374 . S
C648 H622 0.950 . S
C648 C644 1.385 . S
C648 C647 1.374 . S
C649 C646 1.499 . S
C649 C650 1.373 . S
C649 C651 1.389 . S
C650 H623 0.950 . S
C650 C636 1.377 . S
C650 C649 1.373 . S
C651 C635 1.377 . S
C651 C649 1.389 . S
C651 C652 1.524 . S
C652 C651 1.524 . S
C652 C653 1.397 . S
C652 C657 1.363 . S
C653 H624 0.950 . S
C653 C652 1.397 . S
C653 C654 1.334 . S
C654 H625 0.950 . S
C654 C653 1.334 . S
C654 C655 1.287 . S
C655 C654 1.287 . S
C655 C656 1.524 . S
C655 H658 0.999 . S
C656 H626 0.950 . S
C656 C655 1.524 . S
C656 C657 1.415 . S
C657 H627 0.950 . S
C657 C652 1.363 . S
C657 C656 1.415 . S
H658 C655 0.999 . S
H659 C640 0.913 . S
H660 C678 0.951 . S
H661 C680 0.951 . S
H662 C682 0.950 . S
H663 C683 0.950 . S
H664 C685 0.950 . S
H665 C688 0.950 . S
H666 C689 0.950 . S
H667 C691 0.950 . S
H668 C692 0.950 . S
H669 C693 0.951 . S
H670 C695 0.951 . S
H671 C697 0.950 . S
H672 C698 0.950 . S
H673 C700 0.950 . S
H674 C703 0.950 . S
H675 C704 0.950 . S
H676 C706 0.950 . S
H677 C707 0.950 . S
C678 H660 0.951 . S
C678 C679 1.366 . S
C678 C680 1.388 . S
C679 C678 1.366 . S
C679 C683 1.385 . S
C680 H661 0.951 . S
C680 C678 1.388 . S
C680 C681 1.366 . S
C681 C680 1.366 . S
C681 C682 1.414 . S
C681 C684 1.499 1_455 S
C682 H662 0.950 . S
C682 C681 1.414 . S
C682 C683 1.374 . S
C683 H663 0.950 . S
C683 C679 1.385 . S
C683 C682 1.374 . S
C684 C681 1.499 1_655 S
C684 C685 1.373 . S
C684 C686 1.389 . S
C685 H664 0.950 . S
C685 C684 1.373 . S
C685 C701 1.377 . S
C686 C684 1.389 . S
C686 C687 1.524 . S
C686 C700 1.377 . S
C687 C686 1.524 . S
C687 C688 1.397 . S
C687 C692 1.363 . S
C688 H665 0.950 . S
C688 C687 1.397 . S
C688 C689 1.334 . S
C689 H666 0.950 . S
C689 C688 1.334 . S
C689 C690 1.287 . S
C690 C689 1.287 . S
C690 C691 1.524 . S
C690 H709 0.913 . S
C691 H667 0.950 . S
C691 C690 1.524 . S
C691 C692 1.415 . S
C692 H668 0.950 . S
C692 C687 1.363 . S
C692 C691 1.415 . S
C693 H669 0.951 . S
C693 C694 1.366 . S
C693 C695 1.388 . S
C694 C693 1.366 . S
C694 C698 1.385 . S
C695 H670 0.951 . S
C695 C693 1.388 . S
C695 C696 1.366 . S
C696 C695 1.366 . S
C696 C697 1.414 . S
C696 C699 1.499 . S
C697 H671 0.950 . S
C697 C696 1.414 . S
C697 C698 1.374 . S
C698 H672 0.950 . S
C698 C694 1.385 . S
C698 C697 1.374 . S
C699 C696 1.499 . S
C699 C700 1.373 . S
C699 C701 1.389 . S
C700 H673 0.950 . S
C700 C686 1.377 . S
C700 C699 1.373 . S
C701 C685 1.377 . S
C701 C699 1.389 . S
C701 C702 1.524 . S
C702 C701 1.524 . S
C702 C703 1.397 . S
C702 C707 1.363 . S
C703 H674 0.950 . S
C703 C702 1.397 . S
C703 C704 1.334 . S
C704 H675 0.950 . S
C704 C703 1.334 . S
C704 C705 1.287 . S
C705 C704 1.287 . S
C705 C706 1.524 . S
C705 H708 0.999 . S
C706 H676 0.950 . S
C706 C705 1.524 . S
C706 C707 1.415 . S
C707 H677 0.950 . S
C707 C702 1.363 . S
C707 C706 1.415 . S
H708 C705 0.999 . S
H709 C690 0.913 . S
H710 C728 0.951 . S
H711 C730 0.951 . S
H712 C732 0.950 . S
H713 C733 0.950 . S
H714 C735 0.950 . S
H715 C738 0.950 . S
H716 C739 0.950 . S
H717 C741 0.950 . S
H718 C742 0.950 . S
H719 C743 0.951 . S
H720 C745 0.951 . S
H721 C747 0.950 . S
H722 C748 0.950 . S
H723 C750 0.950 . S
H724 C753 0.950 . S
H725 C754 0.950 . S
H726 C756 0.950 . S
H727 C757 0.950 . S
C728 H710 0.951 . S
C728 C729 1.366 . S
C728 C730 1.388 . S
C729 C728 1.366 . S
C729 C733 1.385 . S
C730 H711 0.951 . S
C730 C728 1.388 . S
C730 C731 1.366 . S
C731 C730 1.366 . S
C731 C732 1.414 . S
C731 C734 1.499 . S
C732 H712 0.950 . S
C732 C731 1.414 . S
C732 C733 1.374 . S
C733 H713 0.950 . S
C733 C729 1.385 . S
C733 C732 1.374 . S
C734 C731 1.499 . S
C734 C735 1.373 . S
C734 C736 1.389 . S
C735 H714 0.950 . S
C735 C734 1.373 . S
C735 C751 1.377 . S
C736 C734 1.389 . S
C736 C737 1.524 . S
C736 C750 1.377 . S
C737 C736 1.524 . S
C737 C738 1.397 . S
C737 C742 1.363 . S
C738 H715 0.950 . S
C738 C737 1.397 . S
C738 C739 1.334 . S
C739 H716 0.950 . S
C739 C738 1.334 . S
C739 C740 1.287 . S
C740 C739 1.287 . S
C740 C741 1.524 . S
C740 H759 0.913 . S
C741 H717 0.950 . S
C741 C740 1.524 . S
C741 C742 1.415 . S
C742 H718 0.950 . S
C742 C737 1.363 . S
C742 C741 1.415 . S
C743 H719 0.951 . S
C743 C744 1.366 . S
C743 C745 1.388 . S
C744 C743 1.366 . S
C744 C748 1.385 . S
C745 H720 0.951 . S
C745 C743 1.388 . S
C745 C746 1.366 . S
C746 C745 1.366 . S
C746 C747 1.414 . S
C746 C749 1.499 . S
C747 H721 0.950 . S
C747 C746 1.414 . S
C747 C748 1.374 . S
C748 H722 0.950 . S
C748 C744 1.385 . S
C748 C747 1.374 . S
C749 C746 1.499 . S
C749 C750 1.373 . S
C749 C751 1.389 . S
C750 H723 0.950 . S
C750 C736 1.377 . S
C750 C749 1.373 . S
C751 C735 1.377 . S
C751 C749 1.389 . S
C751 C752 1.524 . S
C752 C751 1.524 . S
C752 C753 1.397 . S
C752 C757 1.363 . S
C753 H724 0.950 . S
C753 C752 1.397 . S
C753 C754 1.334 . S
C754 H725 0.950 . S
C754 C753 1.334 . S
C754 C755 1.287 . S
C755 C754 1.287 . S
C755 C756 1.524 . S
C755 H758 0.999 . S
C756 H726 0.950 . S
C756 C755 1.524 . S
C756 C757 1.415 . S
C757 H727 0.950 . S
C757 C752 1.363 . S
C757 C756 1.415 . S
H758 C755 0.999 . S
H759 C740 0.913 . S
H760 C778 0.951 . S
H761 C780 0.951 . S
H762 C782 0.950 . S
H763 C783 0.950 . S
H764 C785 0.950 . S
H765 C788 0.950 . S
H766 C789 0.950 . S
H767 C791 0.950 . S
H768 C792 0.950 . S
H769 C793 0.951 . S
H770 C795 0.951 . S
H771 C797 0.950 . S
H772 C798 0.950 . S
H773 C800 0.950 . S
H774 C803 0.950 . S
H775 C804 0.950 . S
H776 C806 0.950 . S
H777 C807 0.950 . S
C778 H760 0.951 . S
C778 C779 1.366 . S
C778 C780 1.388 . S
C779 C778 1.366 . S
C779 C783 1.385 . S
C780 H761 0.951 . S
C780 C778 1.388 . S
C780 C781 1.366 . S
C781 C780 1.366 . S
C781 C782 1.414 . S
C781 C784 1.499 . S
C782 H762 0.950 . S
C782 C781 1.414 . S
C782 C783 1.374 . S
C783 H763 0.950 . S
C783 C779 1.385 . S
C783 C782 1.374 . S
C784 C781 1.499 . S
C784 C785 1.373 . S
C784 C786 1.389 . S
C785 H764 0.950 . S
C785 C784 1.373 . S
C785 C801 1.377 . S
C786 C784 1.389 . S
C786 C787 1.524 . S
C786 C800 1.377 . S
C787 C786 1.524 . S
C787 C788 1.397 . S
C787 C792 1.363 . S
C788 H765 0.950 . S
C788 C787 1.397 . S
C788 C789 1.334 . S
C789 H766 0.950 . S
C789 C788 1.334 . S
C789 C790 1.287 . S
C790 C789 1.287 . S
C790 C791 1.524 . S
C790 H809 0.913 . S
C791 H767 0.950 . S
C791 C790 1.524 . S
C791 C792 1.415 . S
C792 H768 0.950 . S
C792 C787 1.363 . S
C792 C791 1.415 . S
C793 H769 0.951 . S
C793 C794 1.366 . S
C793 C795 1.388 1_565 S
C794 C793 1.366 . S
C794 C798 1.385 . S
C795 H770 0.951 . S
C795 C793 1.388 1_545 S
C795 C796 1.366 . S
C796 C795 1.366 . S
C796 C797 1.414 . S
C796 C799 1.499 . S
C797 H771 0.950 . S
C797 C796 1.414 . S
C797 C798 1.374 1_545 S
C798 H772 0.950 . S
C798 C794 1.385 . S
C798 C797 1.374 1_565 S
C799 C796 1.499 . S
C799 C800 1.373 . S
C799 C801 1.389 . S
C800 H773 0.950 . S
C800 C786 1.377 . S
C800 C799 1.373 . S
C801 C785 1.377 . S
C801 C799 1.389 . S
C801 C802 1.524 . S
C802 C801 1.524 . S
C802 C803 1.397 . S
C802 C807 1.363 . S
C803 H774 0.950 . S
C803 C802 1.397 . S
C803 C804 1.334 . S
C804 H775 0.950 . S
C804 C803 1.334 . S
C804 C805 1.287 . S
C805 C804 1.287 . S
C805 C806 1.524 . S
C805 H808 0.999 . S
C806 H776 0.950 . S
C806 C805 1.524 . S
C806 C807 1.415 . S
C807 H777 0.950 . S
C807 C802 1.363 . S
C807 C806 1.415 . S
H808 C805 0.999 . S
H809 C790 0.913 . S
H810 C828 0.951 . S
H811 C830 0.951 . S
H812 C832 0.950 1_556 S
H813 C833 0.950 1_556 S
H814 C835 0.950 . S
H815 C838 0.950 . S
H816 C839 0.950 . S
H817 C841 0.950 . S
H818 C842 0.950 . S
H819 C843 0.951 . S
H820 C845 0.951 . S
H821 C847 0.950 . S
H822 C848 0.950 . S
H823 C850 0.950 . S
H824 C853 0.950 . S
H825 C854 0.950 . S
H826 C856 0.950 1_556 S
H827 C857 0.950 1_556 S
C828 H810 0.951 . S
C828 C829 1.366 . S
C828 C830 1.388 . S
C829 C828 1.366 . S
C829 C833 1.385 . S
C830 H811 0.951 . S
C830 C828 1.388 . S
C830 C831 1.366 . S
C831 C830 1.366 . S
C831 C832 1.414 . S
C831 C834 1.499 . S
C832 H812 0.950 1_554 S
C832 C831 1.414 . S
C832 C833 1.374 . S
C833 H813 0.950 1_554 S
C833 C829 1.385 . S
C833 C832 1.374 . S
C834 C831 1.499 . S
C834 C835 1.373 . S
C834 C836 1.389 . S
C835 H814 0.950 . S
C835 C834 1.373 . S
C835 C851 1.377 . S
C836 C834 1.389 . S
C836 C837 1.524 . S
C836 C850 1.377 . S
C837 C836 1.524 . S
C837 C838 1.397 1_554 S
C837 C842 1.363 . S
C838 H815 0.950 . S
C838 C837 1.397 1_556 S
C838 C839 1.334 . S
C839 H816 0.950 . S
C839 C838 1.334 . S
C839 C840 1.287 . S
C840 C839 1.287 . S
C840 C841 1.524 1_556 S
C840 H859 0.913 . S
C841 H817 0.950 . S
C841 C840 1.524 1_554 S
C841 C842 1.415 . S
C842 H818 0.950 . S
C842 C837 1.363 . S
C842 C841 1.415 . S
C843 H819 0.951 . S
C843 C844 1.366 1_556 S
C843 C845 1.388 . S
C844 C843 1.366 1_554 S
C844 C848 1.385 . S
C845 H820 0.951 . S
C845 C843 1.388 . S
C845 C846 1.366 1_556 S
C846 C845 1.366 1_554 S
C846 C847 1.414 . S
C846 C849 1.499 . S
C847 H821 0.950 . S
C847 C846 1.414 . S
C847 C848 1.374 . S
C848 H822 0.950 . S
C848 C844 1.385 . S
C848 C847 1.374 . S
C849 C846 1.499 . S
C849 C850 1.373 . S
C849 C851 1.389 . S
C850 H823 0.950 . S
C850 C836 1.377 . S
C850 C849 1.373 . S
C851 C835 1.377 . S
C851 C849 1.389 . S
C851 C852 1.524 . S
C852 C851 1.524 . S
C852 C853 1.397 . S
C852 C857 1.363 . S
C853 H824 0.950 . S
C853 C852 1.397 . S
C853 C854 1.334 . S
C854 H825 0.950 . S
C854 C853 1.334 . S
C854 C855 1.287 . S
C855 C854 1.287 . S
C855 C856 1.524 . S
C855 H858 0.999 . S
C856 H826 0.950 1_554 S
C856 C855 1.524 . S
C856 C857 1.415 . S
C857 H827 0.950 1_554 S
C857 C852 1.363 . S
C857 C856 1.415 . S
H858 C855 0.999 . S
H859 C840 0.913 . S
H860 C878 0.951 . S
H861 C880 0.951 . S
H862 C882 0.950 . S
H863 C883 0.950 1_556 S
H864 C885 0.950 . S
H865 C888 0.950 . S
H866 C889 0.950 . S
H867 C891 0.950 . S
H868 C892 0.950 . S
H869 C893 0.951 . S
H870 C895 0.951 . S
H871 C897 0.950 . S
H872 C898 0.950 . S
H873 C900 0.950 . S
H874 C903 0.950 . S
H875 C904 0.950 . S
H876 C906 0.950 . S
H877 C907 0.950 . S
C878 H860 0.951 . S
C878 C879 1.366 . S
C878 C880 1.388 . S
C879 C878 1.366 . S
C879 C883 1.385 . S
C880 H861 0.951 . S
C880 C878 1.388 . S
C880 C881 1.366 . S
C881 C880 1.366 . S
C881 C882 1.414 . S
C881 C884 1.499 . S
C882 H862 0.950 . S
C882 C881 1.414 . S
C882 C883 1.374 . S
C883 H863 0.950 1_554 S
C883 C879 1.385 . S
C883 C882 1.374 . S
C884 C881 1.499 . S
C884 C885 1.373 1_554 S
C884 C886 1.389 . S
C885 H864 0.950 . S
C885 C884 1.373 1_556 S
C885 C901 1.377 . S
C886 C884 1.389 . S
C886 C887 1.524 . S
C886 C900 1.377 . S
C887 C886 1.524 . S
C887 C888 1.397 . S
C887 C892 1.363 . S
C888 H865 0.950 . S
C888 C887 1.397 . S
C888 C889 1.334 . S
C889 H866 0.950 . S
C889 C888 1.334 . S
C889 C890 1.287 . S
C890 C889 1.287 . S
C890 C891 1.524 . S
C890 H909 0.913 . S
C891 H867 0.950 . S
C891 C890 1.524 . S
C891 C892 1.415 . S
C892 H868 0.950 . S
C892 C887 1.363 . S
C892 C891 1.415 . S
C893 H869 0.951 . S
C893 C894 1.366 . S
C893 C895 1.388 . S
C894 C893 1.366 . S
C894 C898 1.385 . S
C895 H870 0.951 . S
C895 C893 1.388 . S
C895 C896 1.366 . S
C896 C895 1.366 . S
C896 C897 1.414 . S
C896 C899 1.499 1_545 S
C897 H871 0.950 . S
C897 C896 1.414 . S
C897 C898 1.374 . S
C898 H872 0.950 . S
C898 C894 1.385 . S
C898 C897 1.374 . S
C899 C896 1.499 1_565 S
C899 C900 1.373 . S
C899 C901 1.389 1_554 S
C900 H873 0.950 . S
C900 C886 1.377 . S
C900 C899 1.373 . S
C901 C885 1.377 . S
C901 C899 1.389 1_556 S
C901 C902 1.524 . S
C902 C901 1.524 . S
C902 C903 1.397 1_565 S
C902 C907 1.363 . S
C903 H874 0.950 . S
C903 C902 1.397 1_545 S
C903 C904 1.334 . S
C904 H875 0.950 . S
C904 C903 1.334 . S
C904 C905 1.287 . S
C905 C904 1.287 . S
C905 C906 1.524 1_545 S
C905 H908 0.999 . S
C906 H876 0.950 . S
C906 C905 1.524 1_565 S
C906 C907 1.415 . S
C907 H877 0.950 . S
C907 C902 1.363 . S
C907 C906 1.415 . S
H908 C905 0.999 . S
H909 C890 0.913 . S
H910 C928 0.951 . S
H911 C930 0.951 . S
H912 C932 0.950 . S
H913 C933 0.950 . S
H914 C935 0.950 1_556 S
H915 C938 0.950 1_556 S
H916 C939 0.950 . S
H917 C941 0.950 . S
H918 C942 0.950 . S
H919 C943 0.951 . S
H920 C945 0.951 . S
H921 C947 0.950 . S
H922 C948 0.950 . S
H923 C950 0.950 . S
H924 C953 0.950 . S
H925 C954 0.950 . S
H926 C956 0.950 . S
H927 C957 0.950 . S
C928 H910 0.951 . S
C928 C929 1.366 . S
C928 C930 1.388 1_655 S
C929 C928 1.366 . S
C929 C933 1.385 1_554 S
C930 H911 0.951 . S
C930 C928 1.388 1_455 S
C930 C931 1.366 . S
C931 C930 1.366 . S
C931 C932 1.414 1_554 S
C931 C934 1.499 . S
C932 H912 0.950 . S
C932 C931 1.414 1_556 S
C932 C933 1.374 1_455 S
C933 H913 0.950 . S
C933 C929 1.385 1_556 S
C933 C932 1.374 1_655 S
C934 C931 1.499 . S
C934 C935 1.373 . S
C934 C936 1.389 . S
C935 H914 0.950 1_554 S
C935 C934 1.373 . S
C935 C951 1.377 . S
C936 C934 1.389 . S
C936 C937 1.524 . S
C936 C950 1.377 . S
C937 C936 1.524 . S
C937 C938 1.397 . S
C937 C942 1.363 . S
C938 H915 0.950 1_554 S
C938 C937 1.397 . S
C938 C939 1.334 . S
C939 H916 0.950 . S
C939 C938 1.334 . S
C939 C940 1.287 . S
C940 C939 1.287 . S
C940 C941 1.524 . S
C940 H959 0.913 . S
C941 H917 0.950 . S
C941 C940 1.524 . S
C941 C942 1.415 . S
C942 H918 0.950 . S
C942 C937 1.363 . S
C942 C941 1.415 . S
C943 H919 0.951 . S
C943 C944 1.366 1_556 S
C943 C945 1.388 . S
C944 C943 1.366 1_554 S
C944 C948 1.385 . S
C945 H920 0.951 . S
C945 C943 1.388 . S
C945 C946 1.366 1_556 S
C946 C945 1.366 1_554 S
C946 C947 1.414 . S
C946 C949 1.499 . S
C947 H921 0.950 . S
C947 C946 1.414 . S
C947 C948 1.374 . S
C948 H922 0.950 . S
C948 C944 1.385 . S
C948 C947 1.374 . S
C949 C946 1.499 . S
C949 C950 1.373 . S
C949 C951 1.389 . S
C950 H923 0.950 . S
C950 C936 1.377 . S
C950 C949 1.373 . S
C951 C935 1.377 . S
C951 C949 1.389 . S
C951 C952 1.524 1_554 S
C952 C951 1.524 1_556 S
C952 C953 1.397 1_556 S
C952 C957 1.363 . S
C953 H924 0.950 . S
C953 C952 1.397 1_554 S
C953 C954 1.334 . S
C954 H925 0.950 . S
C954 C953 1.334 . S
C954 C955 1.287 1_554 S
C955 C954 1.287 1_556 S
C955 C956 1.524 . S
C955 H958 0.999 . S
C956 H926 0.950 . S
C956 C955 1.524 . S
C956 C957 1.415 . S
C957 H927 0.950 . S
C957 C952 1.363 . S
C957 C956 1.415 . S
H958 C955 0.999 . S
H959 C940 0.913 . S
H960 C978 0.951 . S
H961 C980 0.951 . S
H962 C982 0.950 . S
H963 C983 0.950 . S
H964 C985 0.950 . S
H965 C988 0.950 . S
H966 C989 0.950 . S
H967 C991 0.950 . S
H968 C992 0.950 . S
H969 C993 0.951 . S
H970 C995 0.951 . S
H971 C997 0.950 . S
H972 C998 0.950 . S
H973 C1000 0.950 . S
H974 C1003 0.950 . S
H975 C1004 0.950 . S
H976 C1006 0.950 . S
H977 C1007 0.950 . S
C978 H960 0.951 . S
C978 C979 1.366 . S
C978 C980 1.388 . S
C979 C978 1.366 . S
C979 C983 1.385 . S
C980 H961 0.951 . S
C980 C978 1.388 . S
C980 C981 1.366 . S
C981 C980 1.366 . S
C981 C982 1.414 . S
C981 C984 1.499 . S
C982 H962 0.950 . S
C982 C981 1.414 . S
C982 C983 1.374 . S
C983 H963 0.950 . S
C983 C979 1.385 . S
C983 C982 1.374 . S
C984 C981 1.499 . S
C984 C985 1.373 . S
C984 C986 1.389 . S
C985 H964 0.950 . S
C985 C984 1.373 . S
C985 C1001 1.377 . S
C986 C984 1.389 . S
C986 C987 1.524 . S
C986 C1000 1.377 . S
C987 C986 1.524 . S
C987 C988 1.397 . S
C987 C992 1.363 . S
C988 H965 0.950 . S
C988 C987 1.397 . S
C988 C989 1.334 . S
C989 H966 0.950 . S
C989 C988 1.334 . S
C989 C990 1.287 . S
C990 C989 1.287 . S
C990 C991 1.524 . S
C990 H1009 0.913 . S
C991 H967 0.950 . S
C991 C990 1.524 . S
C991 C992 1.415 . S
C992 H968 0.950 . S
C992 C987 1.363 . S
C992 C991 1.415 . S
C993 H969 0.951 . S
C993 C994 1.366 . S
C993 C995 1.388 . S
C994 C993 1.366 . S
C994 C998 1.385 . S
C995 H970 0.951 . S
C995 C993 1.388 . S
C995 C996 1.366 . S
C996 C995 1.366 . S
C996 C997 1.414 . S
C996 C999 1.499 . S
C997 H971 0.950 . S
C997 C996 1.414 . S
C997 C998 1.374 . S
C998 H972 0.950 . S
C998 C994 1.385 . S
C998 C997 1.374 . S
C999 C996 1.499 . S
C999 C1000 1.373 . S
C999 C1001 1.389 . S
C1000 H973 0.950 . S
C1000 C986 1.377 . S
C1000 C999 1.373 . S
C1001 C985 1.377 . S
C1001 C999 1.389 . S
C1001 C1002 1.524 . S
C1002 C1001 1.524 . S
C1002 C1003 1.397 . S
C1002 C1007 1.363 . S
C1003 H974 0.950 . S
C1003 C1002 1.397 . S
C1003 C1004 1.334 . S
C1004 H975 0.950 . S
C1004 C1003 1.334 . S
C1004 C1005 1.287 . S
C1005 C1004 1.287 . S
C1005 C1006 1.524 . S
C1005 H1008 0.999 . S
C1006 H976 0.950 . S
C1006 C1005 1.524 . S
C1006 C1007 1.415 . S
C1007 H977 0.950 . S
C1007 C1002 1.363 . S
C1007 C1006 1.415 . S
H1008 C1005 0.999 . S
H1009 C990 0.913 . S
H1010 C1028 0.951 . S
H1011 C1030 0.951 . S
H1012 C1032 0.950 . S
H1013 C1033 0.950 . S
H1014 C1035 0.950 . S
H1015 C1038 0.950 . S
H1016 C1039 0.950 . S
H1017 C1041 0.950 . S
H1018 C1042 0.950 . S
H1019 C1043 0.951 . S
H1020 C1045 0.951 . S
H1021 C1047 0.950 . S
H1022 C1048 0.950 . S
H1023 C1050 0.950 . S
H1024 C1053 0.950 . S
H1025 C1054 0.950 . S
H1026 C1056 0.950 . S
H1027 C1057 0.950 . S
C1028 H1010 0.951 . S
C1028 C1029 1.366 . S
C1028 C1030 1.388 . S
C1029 C1028 1.366 . S
C1029 C1033 1.385 . S
C1030 H1011 0.951 . S
C1030 C1028 1.388 . S
C1030 C1031 1.366 . S
C1031 C1030 1.366 . S
C1031 C1032 1.414 . S
C1031 C1034 1.499 . S
C1032 H1012 0.950 . S
C1032 C1031 1.414 . S
C1032 C1033 1.374 . S
C1033 H1013 0.950 . S
C1033 C1029 1.385 . S
C1033 C1032 1.374 . S
C1034 C1031 1.499 . S
C1034 C1035 1.373 . S
C1034 C1036 1.389 . S
C1035 H1014 0.950 . S
C1035 C1034 1.373 . S
C1035 C1051 1.377 . S
C1036 C1034 1.389 . S
C1036 C1037 1.524 . S
C1036 C1050 1.377 . S
C1037 C1036 1.524 . S
C1037 C1038 1.397 . S
C1037 C1042 1.363 . S
C1038 H1015 0.950 . S
C1038 C1037 1.397 . S
C1038 C1039 1.334 . S
C1039 H1016 0.950 . S
C1039 C1038 1.334 . S
C1039 C1040 1.287 . S
C1040 C1039 1.287 . S
C1040 C1041 1.524 . S
C1040 H1059 0.913 . S
C1041 H1017 0.950 . S
C1041 C1040 1.524 . S
C1041 C1042 1.415 . S
C1042 H1018 0.950 . S
C1042 C1037 1.363 . S
C1042 C1041 1.415 . S
C1043 H1019 0.951 . S
C1043 C1044 1.366 . S
C1043 C1045 1.388 . S
C1044 C1043 1.366 . S
C1044 C1048 1.385 . S
C1045 H1020 0.951 . S
C1045 C1043 1.388 . S
C1045 C1046 1.366 . S
C1046 C1045 1.366 . S
C1046 C1047 1.414 . S
C1046 C1049 1.499 . S
C1047 H1021 0.950 . S
C1047 C1046 1.414 . S
C1047 C1048 1.374 . S
C1048 H1022 0.950 . S
C1048 C1044 1.385 . S
C1048 C1047 1.374 . S
C1049 C1046 1.499 . S
C1049 C1050 1.373 . S
C1049 C1051 1.389 . S
C1050 H1023 0.950 . S
C1050 C1036 1.377 . S
C1050 C1049 1.373 . S
C1051 C1035 1.377 . S
C1051 C1049 1.389 . S
C1051 C1052 1.524 . S
C1052 C1051 1.524 . S
C1052 C1053 1.397 . S
C1052 C1057 1.363 . S
C1053 H1024 0.950 . S
C1053 C1052 1.397 . S
C1053 C1054 1.334 . S
C1054 H1025 0.950 . S
C1054 C1053 1.334 . S
C1054 C1055 1.287 . S
C1055 C1054 1.287 . S
C1055 C1056 1.524 . S
C1055 H1058 0.999 . S
C1056 H1026 0.950 . S
C1056 C1055 1.524 . S
C1056 C1057 1.415 . S
C1057 H1027 0.950 . S
C1057 C1052 1.363 . S
C1057 C1056 1.415 . S
H1058 C1055 0.999 . S
H1059 C1040 0.913 . S
H1060 C1078 0.951 . S
H1061 C1080 0.951 . S
H1062 C1082 0.950 . S
H1063 C1083 0.950 . S
H1064 C1085 0.950 . S
H1065 C1088 0.950 . S
H1066 C1089 0.950 . S
H1067 C1091 0.950 . S
H1068 C1092 0.950 . S
H1069 C1093 0.951 . S
H1070 C1095 0.951 . S
H1071 C1097 0.950 . S
H1072 C1098 0.950 . S
H1073 C1100 0.950 . S
H1074 C1103 0.950 . S
H1075 C1104 0.950 . S
H1076 C1106 0.950 . S
H1077 C1107 0.950 . S
C1078 H1060 0.951 . S
C1078 C1079 1.366 . S
C1078 C1080 1.388 . S
C1079 C1078 1.366 . S
C1079 C1083 1.385 . S
C1080 H1061 0.951 . S
C1080 C1078 1.388 . S
C1080 C1081 1.366 . S
C1081 C1080 1.366 . S
C1081 C1082 1.414 . S
C1081 C1084 1.499 . S
C1082 H1062 0.950 . S
C1082 C1081 1.414 . S
C1082 C1083 1.374 . S
C1083 H1063 0.950 . S
C1083 C1079 1.385 . S
C1083 C1082 1.374 . S
C1084 C1081 1.499 . S
C1084 C1085 1.373 . S
C1084 C1086 1.389 . S
C1085 H1064 0.950 . S
C1085 C1084 1.373 . S
C1085 C1101 1.377 . S
C1086 C1084 1.389 . S
C1086 C1087 1.524 . S
C1086 C1100 1.377 . S
C1087 C1086 1.524 . S
C1087 C1088 1.397 . S
C1087 C1092 1.363 . S
C1088 H1065 0.950 . S
C1088 C1087 1.397 . S
C1088 C1089 1.334 . S
C1089 H1066 0.950 . S
C1089 C1088 1.334 . S
C1089 C1090 1.287 . S
C1090 C1089 1.287 . S
C1090 C1091 1.524 . S
C1090 H1109 0.913 . S
C1091 H1067 0.950 . S
C1091 C1090 1.524 . S
C1091 C1092 1.415 . S
C1092 H1068 0.950 . S
C1092 C1087 1.363 . S
C1092 C1091 1.415 . S
C1093 H1069 0.951 . S
C1093 C1094 1.366 . S
C1093 C1095 1.388 . S
C1094 C1093 1.366 . S
C1094 C1098 1.385 . S
C1095 H1070 0.951 . S
C1095 C1093 1.388 . S
C1095 C1096 1.366 . S
C1096 C1095 1.366 . S
C1096 C1097 1.414 . S
C1096 C1099 1.499 . S
C1097 H1071 0.950 . S
C1097 C1096 1.414 . S
C1097 C1098 1.374 . S
C1098 H1072 0.950 . S
C1098 C1094 1.385 . S
C1098 C1097 1.374 . S
C1099 C1096 1.499 . S
C1099 C1100 1.373 . S
C1099 C1101 1.389 . S
C1100 H1073 0.950 . S
C1100 C1086 1.377 . S
C1100 C1099 1.373 . S
C1101 C1085 1.377 . S
C1101 C1099 1.389 . S
C1101 C1102 1.524 . S
C1102 C1101 1.524 . S
C1102 C1103 1.397 . S
C1102 C1107 1.363 . S
C1103 H1074 0.950 . S
C1103 C1102 1.397 . S
C1103 C1104 1.334 . S
C1104 H1075 0.950 . S
C1104 C1103 1.334 . S
C1104 C1105 1.287 . S
C1105 C1104 1.287 . S
C1105 C1106 1.524 . S
C1105 H1108 0.999 . S
C1106 H1076 0.950 . S
C1106 C1105 1.524 . S
C1106 C1107 1.415 . S
C1107 H1077 0.950 . S
C1107 C1102 1.363 . S
C1107 C1106 1.415 . S
H1108 C1105 0.999 . S
H1109 C1090 0.913 . S
H1110 C1128 0.951 . S
H1111 C1130 0.951 . S
H1112 C1132 0.950 . S
H1113 C1133 0.950 . S
H1114 C1135 0.950 . S
H1115 C1138 0.950 . S
H1116 C1139 0.950 . S
H1117 C1141 0.950 . S
H1118 C1142 0.950 . S
H1119 C1143 0.951 . S
H1120 C1145 0.951 . S
H1121 C1147 0.950 . S
H1122 C1148 0.950 . S
H1123 C1150 0.950 . S
H1124 C1153 0.950 . S
H1125 C1154 0.950 . S
H1126 C1156 0.950 . S
H1127 C1157 0.950 . S
C1128 H1110 0.951 . S
C1128 C1129 1.366 . S
C1128 C1130 1.388 . S
C1129 C1128 1.366 . S
C1129 C1133 1.385 . S
C1130 H1111 0.951 . S
C1130 C1128 1.388 . S
C1130 C1131 1.366 . S
C1131 C1130 1.366 . S
C1131 C1132 1.414 . S
C1131 C1134 1.499 . S
C1132 H1112 0.950 . S
C1132 C1131 1.414 . S
C1132 C1133 1.374 . S
C1133 H1113 0.950 . S
C1133 C1129 1.385 . S
C1133 C1132 1.374 . S
C1134 C1131 1.499 . S
C1134 C1135 1.373 . S
C1134 C1136 1.389 . S
C1135 H1114 0.950 . S
C1135 C1134 1.373 . S
C1135 C1151 1.377 . S
C1136 C1134 1.389 . S
C1136 C1137 1.524 . S
C1136 C1150 1.377 . S
C1137 C1136 1.524 . S
C1137 C1138 1.397 . S
C1137 C1142 1.363 . S
C1138 H1115 0.950 . S
C1138 C1137 1.397 . S
C1138 C1139 1.334 . S
C1139 H1116 0.950 . S
C1139 C1138 1.334 . S
C1139 C1140 1.287 . S
C1140 C1139 1.287 . S
C1140 C1141 1.524 . S
C1140 H1159 0.913 . S
C1141 H1117 0.950 . S
C1141 C1140 1.524 . S
C1141 C1142 1.415 . S
C1142 H1118 0.950 . S
C1142 C1137 1.363 . S
C1142 C1141 1.415 . S
C1143 H1119 0.951 . S
C1143 C1144 1.366 . S
C1143 C1145 1.388 . S
C1144 C1143 1.366 . S
C1144 C1148 1.385 . S
C1145 H1120 0.951 . S
C1145 C1143 1.388 . S
C1145 C1146 1.366 . S
C1146 C1145 1.366 . S
C1146 C1147 1.414 . S
C1146 C1149 1.499 . S
C1147 H1121 0.950 . S
C1147 C1146 1.414 . S
C1147 C1148 1.374 . S
C1148 H1122 0.950 . S
C1148 C1144 1.385 . S
C1148 C1147 1.374 . S
C1149 C1146 1.499 . S
C1149 C1150 1.373 . S
C1149 C1151 1.389 . S
C1150 H1123 0.950 . S
C1150 C1136 1.377 . S
C1150 C1149 1.373 . S
C1151 C1135 1.377 . S
C1151 C1149 1.389 . S
C1151 C1152 1.524 . S
C1152 C1151 1.524 . S
C1152 C1153 1.397 . S
C1152 C1157 1.363 . S
C1153 H1124 0.950 . S
C1153 C1152 1.397 . S
C1153 C1154 1.334 . S
C1154 H1125 0.950 . S
C1154 C1153 1.334 . S
C1154 C1155 1.287 . S
C1155 C1154 1.287 . S
C1155 C1156 1.524 . S
C1155 H1158 0.999 . S
C1156 H1126 0.950 . S
C1156 C1155 1.524 . S
C1156 C1157 1.415 . S
C1157 H1127 0.950 . S
C1157 C1152 1.363 . S
C1157 C1156 1.415 . S
H1158 C1155 0.999 . S
H1159 C1140 0.913 . S
H1160 C1178 0.951 . S
H1161 C1180 0.951 . S
H1162 C1182 0.950 . S
H1163 C1183 0.950 . S
H1164 C1185 0.950 . S
H1165 C1188 0.950 . S
H1166 C1189 0.950 . S
H1167 C1191 0.950 . S
H1168 C1192 0.950 . S
H1169 C1193 0.951 . S
H1170 C1195 0.951 . S
H1171 C1197 0.950 . S
H1172 C1198 0.950 . S
H1173 C1200 0.950 . S
H1174 C1203 0.950 . S
H1175 C1204 0.950 . S
H1176 C1206 0.950 . S
H1177 C1207 0.950 . S
C1178 H1160 0.951 . S
C1178 C1179 1.366 . S
C1178 C1180 1.388 . S
C1179 C1178 1.366 . S
C1179 C1183 1.385 . S
C1180 H1161 0.951 . S
C1180 C1178 1.388 . S
C1180 C1181 1.366 . S
C1181 C1180 1.366 . S
C1181 C1182 1.414 . S
C1181 C1184 1.499 . S
C1182 H1162 0.950 . S
C1182 C1181 1.414 . S
C1182 C1183 1.374 . S
C1183 H1163 0.950 . S
C1183 C1179 1.385 . S
C1183 C1182 1.374 . S
C1184 C1181 1.499 . S
C1184 C1185 1.373 . S
C1184 C1186 1.389 . S
C1185 H1164 0.950 . S
C1185 C1184 1.373 . S
C1185 C1201 1.377 . S
C1186 C1184 1.389 . S
C1186 C1187 1.524 . S
C1186 C1200 1.377 . S
C1187 C1186 1.524 . S
C1187 C1188 1.397 . S
C1187 C1192 1.363 . S
C1188 H1165 0.950 . S
C1188 C1187 1.397 . S
C1188 C1189 1.334 . S
C1189 H1166 0.950 . S
C1189 C1188 1.334 . S
C1189 C1190 1.287 . S
C1190 C1189 1.287 . S
C1190 C1191 1.524 . S
C1190 H1209 0.913 . S
C1191 H1167 0.950 . S
C1191 C1190 1.524 . S
C1191 C1192 1.415 . S
C1192 H1168 0.950 . S
C1192 C1187 1.363 . S
C1192 C1191 1.415 . S
C1193 H1169 0.951 . S
C1193 C1194 1.366 . S
C1193 C1195 1.388 . S
C1194 C1193 1.366 . S
C1194 C1198 1.385 . S
C1195 H1170 0.951 . S
C1195 C1193 1.388 . S
C1195 C1196 1.366 . S
C1196 C1195 1.366 . S
C1196 C1197 1.414 . S
C1196 C1199 1.499 . S
C1197 H1171 0.950 . S
C1197 C1196 1.414 . S
C1197 C1198 1.374 . S
C1198 H1172 0.950 . S
C1198 C1194 1.385 . S
C1198 C1197 1.374 . S
C1199 C1196 1.499 . S
C1199 C1200 1.373 . S
C1199 C1201 1.389 . S
C1200 H1173 0.950 . S
C1200 C1186 1.377 . S
C1200 C1199 1.373 . S
C1201 C1185 1.377 . S
C1201 C1199 1.389 . S
C1201 C1202 1.524 . S
C1202 C1201 1.524 . S
C1202 C1203 1.397 . S
C1202 C1207 1.363 . S
C1203 H1174 0.950 . S
C1203 C1202 1.397 . S
C1203 C1204 1.334 . S
C1204 H1175 0.950 . S
C1204 C1203 1.334 . S
C1204 C1205 1.287 . S
C1205 C1204 1.287 . S
C1205 C1206 1.524 . S
C1205 H1208 0.999 . S
C1206 H1176 0.950 . S
C1206 C1205 1.524 . S
C1206 C1207 1.415 . S
C1207 H1177 0.950 . S
C1207 C1202 1.363 . S
C1207 C1206 1.415 . S
H1208 C1205 0.999 . S
H1209 C1190 0.913 . S
H1210 C1228 0.951 . S
H1211 C1230 0.951 . S
H1212 C1232 0.950 . S
H1213 C1233 0.950 . S
H1214 C1235 0.950 . S
H1215 C1238 0.950 . S
H1216 C1239 0.950 . S
H1217 C1241 0.950 . S
H1218 C1242 0.950 . S
H1219 C1243 0.951 . S
H1220 C1245 0.951 . S
H1221 C1247 0.950 . S
H1222 C1248 0.950 . S
H1223 C1250 0.950 . S
H1224 C1253 0.950 . S
H1225 C1254 0.950 . S
H1226 C1256 0.950 . S
H1227 C1257 0.950 . S
C1228 H1210 0.951 . S
C1228 C1229 1.366 . S
C1228 C1230 1.388 . S
C1229 C1228 1.366 . S
C1229 C1233 1.385 . S
C1230 H1211 0.951 . S
C1230 C1228 1.388 . S
C1230 C1231 1.366 . S
C1231 C1230 1.366 . S
C1231 C1232 1.414 . S
C1231 C1234 1.499 . S
C1232 H1212 0.950 . S
C1232 C1231 1.414 . S
C1232 C1233 1.374 . S
C1233 H1213 0.950 . S
C1233 C1229 1.385 . S
C1233 C1232 1.374 . S
C1234 C1231 1.499 . S
C1234 C1235 1.373 . S
C1234 C1236 1.389 . S
C1235 H1214 0.950 . S
C1235 C1234 1.373 . S
C1235 C1251 1.377 . S
C1236 C1234 1.389 . S
C1236 C1237 1.524 . S
C1236 C1250 1.377 . S
C1237 C1236 1.524 . S
C1237 C1238 1.397 . S
C1237 C1242 1.363 . S
C1238 H1215 0.950 . S
C1238 C1237 1.397 . S
C1238 C1239 1.334 . S
C1239 H1216 0.950 . S
C1239 C1238 1.334 . S
C1239 C1240 1.287 . S
C1240 C1239 1.287 . S
C1240 C1241 1.524 . S
C1240 H1259 0.913 . S
C1241 H1217 0.950 . S
C1241 C1240 1.524 . S
C1241 C1242 1.415 . S
C1242 H1218 0.950 . S
C1242 C1237 1.363 . S
C1242 C1241 1.415 . S
C1243 H1219 0.951 . S
C1243 C1244 1.366 . S
C1243 C1245 1.388 . S
C1244 C1243 1.366 . S
C1244 C1248 1.385 . S
C1245 H1220 0.951 . S
C1245 C1243 1.388 . S
C1245 C1246 1.366 . S
C1246 C1245 1.366 . S
C1246 C1247 1.414 . S
C1246 C1249 1.499 . S
C1247 H1221 0.950 . S
C1247 C1246 1.414 . S
C1247 C1248 1.374 . S
C1248 H1222 0.950 . S
C1248 C1244 1.385 . S
C1248 C1247 1.374 . S
C1249 C1246 1.499 . S
C1249 C1250 1.373 . S
C1249 C1251 1.389 . S
C1250 H1223 0.950 . S
C1250 C1236 1.377 . S
C1250 C1249 1.373 . S
C1251 C1235 1.377 . S
C1251 C1249 1.389 . S
C1251 C1252 1.524 . S
C1252 C1251 1.524 . S
C1252 C1253 1.397 . S
C1252 C1257 1.363 . S
C1253 H1224 0.950 . S
C1253 C1252 1.397 . S
C1253 C1254 1.334 . S
C1254 H1225 0.950 . S
C1254 C1253 1.334 . S
C1254 C1255 1.287 . S
C1255 C1254 1.287 . S
C1255 C1256 1.524 . S
C1255 H1258 0.999 1_556 S
C1256 H1226 0.950 . S
C1256 C1255 1.524 . S
C1256 C1257 1.415 . S
C1257 H1227 0.950 . S
C1257 C1252 1.363 . S
C1257 C1256 1.415 . S
H1258 C1255 0.999 1_554 S
H1259 C1240 0.913 . S
H1260 C1278 0.951 . S
H1261 C1280 0.951 . S
H1262 C1282 0.950 . S
H1263 C1283 0.950 . S
H1264 C1285 0.950 . S
H1265 C1288 0.950 1_455 S
H1266 C1289 0.950 . S
H1267 C1291 0.950 . S
H1268 C1292 0.950 . S
H1269 C1293 0.951 . S
H1270 C1295 0.951 . S
H1271 C1297 0.950 . S
H1272 C1298 0.950 . S
H1273 C1300 0.966 . S
H1274 C1303 0.950 . S
H1275 C1304 0.950 . S
H1276 C1306 0.950 . S
H1277 C1307 0.950 . S
C1278 H1260 0.951 . S
C1278 C1279 1.366 1_655 S
C1278 C1280 1.388 . S
C1279 C1278 1.366 1_455 S
C1279 C1283 1.385 . S
C1280 H1261 0.951 . S
C1280 C1278 1.388 . S
C1280 C1281 1.366 1_655 S
C1281 C1280 1.366 1_455 S
C1281 C1282 1.414 . S
C1281 C1284 1.499 . S
C1282 H1262 0.950 . S
C1282 C1281 1.414 . S
C1282 C1283 1.374 . S
C1283 H1263 0.950 . S
C1283 C1279 1.385 . S
C1283 C1282 1.374 . S
C1284 C1281 1.499 . S
C1284 C1285 1.373 . S
C1284 C1286 1.369 1_455 S
C1285 H1264 0.950 . S
C1285 C1284 1.373 . S
C1285 C1301 1.377 . S
C1286 C1284 1.369 1_655 S
C1286 C1287 1.545 . S
C1286 C1300 1.377 . S
C1287 C1286 1.545 . S
C1287 C1288 1.397 . S
C1287 C1292 1.363 . S
C1288 H1265 0.950 1_655 S
C1288 C1287 1.397 . S
C1288 C1289 1.334 . S
C1289 H1266 0.950 . S
C1289 C1288 1.334 . S
C1289 C1290 1.287 . S
C1290 C1289 1.287 . S
C1290 C1291 1.524 . S
C1290 H1309 0.913 . S
C1291 H1267 0.950 . S
C1291 C1290 1.524 . S
C1291 C1292 1.415 . S
C1292 H1268 0.950 . S
C1292 C1287 1.363 . S
C1292 C1291 1.415 . S
C1293 H1269 0.951 . S
C1293 C1294 1.366 . S
C1293 C1295 1.388 . S
C1294 C1293 1.366 . S
C1294 C1298 1.385 1_455 S
C1295 H1270 0.951 . S
C1295 C1293 1.388 . S
C1295 C1296 1.366 . S
C1296 C1295 1.366 . S
C1296 C1297 1.414 1_455 S
C1296 C1299 1.499 . S
C1297 H1271 0.950 . S
C1297 C1296 1.414 1_655 S
C1297 C1298 1.374 . S
C1298 H1272 0.950 . S
C1298 C1294 1.385 1_655 S
C1298 C1297 1.374 . S
C1299 C1296 1.499 . S
C1299 C1300 1.359 1_455 S
C1299 C1301 1.389 . S
C1300 H1273 0.966 . S
C1300 C1286 1.377 . S
C1300 C1299 1.359 1_655 S
C1301 C1285 1.377 . S
C1301 C1299 1.389 . S
C1301 C1302 1.524 . S
C1302 C1301 1.524 . S
C1302 C1303 1.397 . S
C1302 C1307 1.363 . S
C1303 H1274 0.950 . S
C1303 C1302 1.397 . S
C1303 C1304 1.334 . S
C1304 H1275 0.950 . S
C1304 C1303 1.334 . S
C1304 C1305 1.287 . S
C1305 C1304 1.287 . S
C1305 C1306 1.524 . S
C1305 H1308 0.999 . S
C1306 H1276 0.950 . S
C1306 C1305 1.524 . S
C1306 C1307 1.415 . S
C1307 H1277 0.950 . S
C1307 C1302 1.363 . S
C1307 C1306 1.415 . S
H1308 C1305 0.999 . S
H1309 C1290 0.913 . S
H1310 C1328 0.951 . S
H1311 C1330 0.951 . S
H1312 C1332 0.950 . S
H1313 C1333 0.950 . S
H1314 C1335 0.950 . S
H1315 C1338 0.950 . S
H1316 C1339 0.950 . S
H1317 C1341 0.950 . S
H1318 C1342 0.950 . S
H1319 C1343 0.951 . S
H1320 C1345 0.951 . S
H1321 C1347 0.950 . S
H1322 C1348 0.950 . S
H1323 C1350 0.950 . S
H1324 C1353 0.950 . S
H1325 C1354 0.950 . S
H1326 C1356 0.950 . S
H1327 C1357 0.950 . S
C1328 H1310 0.951 . S
C1328 C1329 1.366 . S
C1328 C1330 1.388 . S
C1329 C1328 1.366 . S
C1329 C1333 1.385 . S
C1330 H1311 0.951 . S
C1330 C1328 1.388 . S
C1330 C1331 1.366 . S
C1331 C1330 1.366 . S
C1331 C1332 1.414 . S
C1331 C1334 1.499 . S
C1332 H1312 0.950 . S
C1332 C1331 1.414 . S
C1332 C1333 1.374 . S
C1333 H1313 0.950 . S
C1333 C1329 1.385 . S
C1333 C1332 1.374 . S
C1334 C1331 1.499 . S
C1334 C1335 1.373 . S
C1334 C1336 1.389 . S
C1335 H1314 0.950 . S
C1335 C1334 1.373 . S
C1335 C1351 1.377 . S
C1336 C1334 1.389 . S
C1336 C1337 1.524 . S
C1336 C1350 1.377 . S
C1337 C1336 1.524 . S
C1337 C1338 1.397 . S
C1337 C1342 1.363 . S
C1338 H1315 0.950 . S
C1338 C1337 1.397 . S
C1338 C1339 1.334 . S
C1339 H1316 0.950 . S
C1339 C1338 1.334 . S
C1339 C1340 1.287 . S
C1340 C1339 1.287 . S
C1340 C1341 1.524 . S
C1340 H1359 0.913 . S
C1341 H1317 0.950 . S
C1341 C1340 1.524 . S
C1341 C1342 1.415 . S
C1342 H1318 0.950 . S
C1342 C1337 1.363 . S
C1342 C1341 1.415 . S
C1343 H1319 0.951 . S
C1343 C1344 1.366 . S
C1343 C1345 1.388 . S
C1344 C1343 1.366 . S
C1344 C1348 1.385 . S
C1345 H1320 0.951 . S
C1345 C1343 1.388 . S
C1345 C1346 1.366 . S
C1346 C1345 1.366 . S
C1346 C1347 1.414 . S
C1346 C1349 1.499 . S
C1347 H1321 0.950 . S
C1347 C1346 1.414 . S
C1347 C1348 1.374 . S
C1348 H1322 0.950 . S
C1348 C1344 1.385 . S
C1348 C1347 1.374 . S
C1349 C1346 1.499 . S
C1349 C1350 1.373 . S
C1349 C1351 1.389 . S
C1350 H1323 0.950 . S
C1350 C1336 1.377 . S
C1350 C1349 1.373 . S
C1351 C1335 1.377 . S
C1351 C1349 1.389 . S
C1351 C1352 1.524 . S
C1352 C1351 1.524 . S
C1352 C1353 1.397 . S
C1352 C1357 1.363 . S
C1353 H1324 0.950 . S
C1353 C1352 1.397 . S
C1353 C1354 1.334 . S
C1354 H1325 0.950 . S
C1354 C1353 1.334 . S
C1354 C1355 1.287 . S
C1355 C1354 1.287 . S
C1355 C1356 1.524 . S
C1355 H1358 0.999 . S
C1356 H1326 0.950 . S
C1356 C1355 1.524 . S
C1356 C1357 1.415 . S
C1357 H1327 0.950 . S
C1357 C1352 1.363 . S
C1357 C1356 1.415 . S
H1358 C1355 0.999 . S
H1359 C1340 0.913 . S
H1360 C1378 0.951 1_565 S
H1361 C1380 0.951 1_565 S
H1362 C1382 0.950 . S
H1363 C1383 0.950 . S
H1364 C1385 0.950 . S
H1365 C1388 0.950 . S
H1366 C1389 0.950 . S
H1367 C1391 0.950 . S
H1368 C1392 0.950 . S
H1369 C1393 0.951 . S
H1370 C1395 0.951 . S
H1371 C1397 0.971 . S
H1372 C1398 0.950 . S
H1373 C1400 0.950 . S
H1374 C1403 0.950 . S
H1375 C1404 0.950 . S
H1376 C1406 0.950 . S
H1377 C1407 0.950 . S
C1378 H1360 0.951 1_545 S
C1378 C1379 1.366 . S
C1378 C1380 1.388 . S
C1379 C1378 1.366 . S
C1379 C1383 1.385 . S
C1380 H1361 0.951 1_545 S
C1380 C1378 1.388 . S
C1380 C1381 1.366 . S
C1381 C1380 1.366 . S
C1381 C1382 1.414 . S
C1381 C1384 1.499 . S
C1382 H1362 0.950 . S
C1382 C1381 1.414 . S
C1382 C1383 1.374 . S
C1383 H1363 0.950 . S
C1383 C1379 1.385 . S
C1383 C1382 1.374 . S
C1384 C1381 1.499 . S
C1384 C1385 1.373 . S
C1384 C1386 1.389 1_545 S
C1385 H1364 0.950 . S
C1385 C1384 1.373 . S
C1385 C1401 1.377 . S
C1386 C1384 1.389 1_565 S
C1386 C1387 1.524 . S
C1386 C1400 1.377 . S
C1387 C1386 1.524 . S
C1387 C1388 1.397 . S
C1387 C1392 1.363 . S
C1388 H1365 0.950 . S
C1388 C1387 1.397 . S
C1388 C1389 1.334 . S
C1389 H1366 0.950 . S
C1389 C1388 1.334 . S
C1389 C1390 1.287 . S
C1390 C1389 1.287 . S
C1390 C1391 1.524 . S
C1390 H1409 0.913 . S
C1391 H1367 0.950 . S
C1391 C1390 1.524 . S
C1391 C1392 1.415 . S
C1392 H1368 0.950 . S
C1392 C1387 1.363 . S
C1392 C1391 1.415 . S
C1393 H1369 0.951 . S
C1393 C1394 1.366 . S
C1393 C1395 1.388 . S
C1394 C1393 1.366 . S
C1394 C1398 1.385 1_545 S
C1395 H1370 0.951 . S
C1395 C1393 1.388 . S
C1395 C1396 1.366 . S
C1396 C1395 1.366 . S
C1396 C1397 1.397 1_545 S
C1396 C1399 1.499 . S
C1397 H1371 0.971 . S
C1397 C1396 1.397 1_565 S
C1397 C1398 1.376 . S
C1398 H1372 0.950 . S
C1398 C1394 1.385 1_565 S
C1398 C1397 1.376 . S
C1399 C1396 1.499 . S
C1399 C1400 1.373 1_545 S
C1399 C1401 1.389 . S
C1400 H1373 0.950 . S
C1400 C1386 1.377 . S
C1400 C1399 1.373 1_565 S
C1401 C1385 1.377 . S
C1401 C1399 1.389 . S
C1401 C1402 1.524 . S
C1402 C1401 1.524 . S
C1402 C1403 1.397 . S
C1402 C1407 1.363 . S
C1403 H1374 0.950 . S
C1403 C1402 1.397 . S
C1403 C1404 1.334 . S
C1404 H1375 0.950 . S
C1404 C1403 1.334 . S
C1404 C1405 1.287 . S
C1405 C1404 1.287 . S
C1405 C1406 1.524 . S
C1405 H1408 0.999 . S
C1406 H1376 0.950 . S
C1406 C1405 1.524 . S
C1406 C1407 1.415 . S
C1407 H1377 0.950 . S
C1407 C1402 1.363 . S
C1407 C1406 1.415 . S
H1408 C1405 0.999 . S
H1409 C1390 0.913 . S
H1410 C1428 0.951 . S
H1411 C1430 0.951 . S
H1412 C1432 0.950 . S
H1413 C1433 0.950 . S
H1414 C1435 0.950 . S
H1415 C1438 0.950 . S
H1416 C1439 0.950 . S
H1417 C1441 0.950 . S
H1418 C1442 0.950 . S
H1419 C1443 0.951 . S
H1420 C1445 0.951 . S
H1421 C1447 0.950 . S
H1422 C1448 0.950 . S
H1423 C1450 0.950 . S
H1424 C1453 0.950 . S
H1425 C1454 0.950 1_554 S
H1426 C1456 0.950 . S
H1427 C1457 0.950 . S
C1428 H1410 0.951 . S
C1428 C1429 1.366 . S
C1428 C1430 1.388 . S
C1429 C1428 1.366 . S
C1429 C1433 1.385 . S
C1430 H1411 0.951 . S
C1430 C1428 1.388 . S
C1430 C1431 1.366 . S
C1431 C1430 1.366 . S
C1431 C1432 1.414 . S
C1431 C1434 1.499 . S
C1432 H1412 0.950 . S
C1432 C1431 1.414 . S
C1432 C1433 1.374 . S
C1433 H1413 0.950 . S
C1433 C1429 1.385 . S
C1433 C1432 1.374 . S
C1434 C1431 1.499 . S
C1434 C1435 1.373 . S
C1434 C1436 1.389 . S
C1435 H1414 0.950 . S
C1435 C1434 1.373 . S
C1435 C1451 1.377 . S
C1436 C1434 1.389 . S
C1436 C1437 1.524 . S
C1436 C1450 1.377 . S
C1437 C1436 1.524 . S
C1437 C1438 1.397 . S
C1437 C1442 1.363 . S
C1438 H1415 0.950 . S
C1438 C1437 1.397 . S
C1438 C1439 1.334 . S
C1439 H1416 0.950 . S
C1439 C1438 1.334 . S
C1439 C1440 1.287 . S
C1440 C1439 1.287 . S
C1440 C1441 1.524 . S
C1440 H1459 0.913 . S
C1441 H1417 0.950 . S
C1441 C1440 1.524 . S
C1441 C1442 1.415 . S
C1442 H1418 0.950 . S
C1442 C1437 1.363 . S
C1442 C1441 1.415 . S
C1443 H1419 0.951 . S
C1443 C1444 1.366 . S
C1443 C1445 1.388 . S
C1444 C1443 1.366 . S
C1444 C1448 1.385 . S
C1445 H1420 0.951 . S
C1445 C1443 1.388 . S
C1445 C1446 1.366 1_554 S
C1446 C1445 1.366 1_556 S
C1446 C1447 1.414 1_556 S
C1446 C1449 1.499 . S
C1447 H1421 0.950 . S
C1447 C1446 1.414 1_554 S
C1447 C1448 1.374 . S
C1448 H1422 0.950 . S
C1448 C1444 1.385 . S
C1448 C1447 1.374 . S
C1449 C1446 1.499 . S
C1449 C1450 1.373 . S
C1449 C1451 1.389 . S
C1450 H1423 0.950 . S
C1450 C1436 1.377 . S
C1450 C1449 1.373 . S
C1451 C1435 1.377 . S
C1451 C1449 1.389 . S
C1451 C1452 1.524 . S
C1452 C1451 1.524 . S
C1452 C1453 1.397 . S
C1452 C1457 1.363 . S
C1453 H1424 0.950 . S
C1453 C1452 1.397 . S
C1453 C1454 1.334 . S
C1454 H1425 0.950 1_556 S
C1454 C1453 1.334 . S
C1454 C1455 1.287 . S
C1455 C1454 1.287 . S
C1455 C1456 1.524 . S
C1455 H1458 0.999 . S
C1456 H1426 0.950 . S
C1456 C1455 1.524 . S
C1456 C1457 1.415 . S
C1457 H1427 0.950 . S
C1457 C1452 1.363 . S
C1457 C1456 1.415 . S
H1458 C1455 0.999 . S
H1459 C1440 0.913 . S
H1460 C1478 0.951 . S
H1461 C1480 0.951 . S
H1462 C1482 0.950 . S
H1463 C1483 0.950 . S
H1464 C1485 0.950 . S
H1465 C1488 0.950 . S
H1466 C1489 0.950 . S
H1467 C1491 0.950 . S
H1468 C1492 0.950 . S
H1469 C1493 0.951 . S
H1470 C1495 0.951 . S
H1471 C1497 0.950 . S
H1472 C1498 0.950 . S
H1473 C1500 0.950 . S
H1474 C1503 0.950 . S
H1475 C1504 0.950 1_554 S
H1476 C1506 0.950 . S
H1477 C1507 0.950 . S
C1478 H1460 0.951 . S
C1478 C1479 1.366 . S
C1478 C1480 1.388 . S
C1479 C1478 1.366 . S
C1479 C1483 1.385 . S
C1480 H1461 0.951 . S
C1480 C1478 1.388 . S
C1480 C1481 1.366 . S
C1481 C1480 1.366 . S
C1481 C1482 1.414 . S
C1481 C1484 1.499 . S
C1482 H1462 0.950 . S
C1482 C1481 1.414 . S
C1482 C1483 1.374 . S
C1483 H1463 0.950 . S
C1483 C1479 1.385 . S
C1483 C1482 1.374 . S
C1484 C1481 1.499 . S
C1484 C1485 1.373 . S
C1484 C1486 1.389 . S
C1485 H1464 0.950 . S
C1485 C1484 1.373 . S
C1485 C1501 1.377 . S
C1486 C1484 1.389 . S
C1486 C1487 1.524 . S
C1486 C1500 1.377 . S
C1487 C1486 1.524 . S
C1487 C1488 1.397 . S
C1487 C1492 1.363 . S
C1488 H1465 0.950 . S
C1488 C1487 1.397 . S
C1488 C1489 1.334 . S
C1489 H1466 0.950 . S
C1489 C1488 1.334 . S
C1489 C1490 1.287 . S
C1490 C1489 1.287 . S
C1490 C1491 1.524 . S
C1490 H1509 0.913 . S
C1491 H1467 0.950 . S
C1491 C1490 1.524 . S
C1491 C1492 1.415 . S
C1492 H1468 0.950 . S
C1492 C1487 1.363 . S
C1492 C1491 1.415 . S
C1493 H1469 0.951 . S
C1493 C1494 1.366 . S
C1493 C1495 1.388 . S
C1494 C1493 1.366 . S
C1494 C1498 1.385 . S
C1495 H1470 0.951 . S
C1495 C1493 1.388 . S
C1495 C1496 1.366 1_554 S
C1496 C1495 1.366 1_556 S
C1496 C1497 1.414 1_556 S
C1496 C1499 1.499 . S
C1497 H1471 0.950 . S
C1497 C1496 1.414 1_554 S
C1497 C1498 1.374 . S
C1498 H1472 0.950 . S
C1498 C1494 1.385 . S
C1498 C1497 1.374 . S
C1499 C1496 1.499 . S
C1499 C1500 1.373 . S
C1499 C1501 1.389 . S
C1500 H1473 0.950 . S
C1500 C1486 1.377 . S
C1500 C1499 1.373 . S
C1501 C1485 1.377 . S
C1501 C1499 1.389 . S
C1501 C1502 1.524 . S
C1502 C1501 1.524 . S
C1502 C1503 1.397 . S
C1502 C1507 1.363 . S
C1503 H1474 0.950 . S
C1503 C1502 1.397 . S
C1503 C1504 1.334 . S
C1504 H1475 0.950 1_556 S
C1504 C1503 1.334 . S
C1504 C1505 1.287 . S
C1505 C1504 1.287 . S
C1505 C1506 1.524 . S
C1505 H1508 0.999 . S
C1506 H1476 0.950 . S
C1506 C1505 1.524 . S
C1506 C1507 1.415 . S
C1507 H1477 0.950 . S
C1507 C1502 1.363 . S
C1507 C1506 1.415 . S
H1508 C1505 0.999 . S
H1509 C1490 0.913 . S
H1510 C1528 0.951 . S
H1511 C1530 0.951 . S
H1512 C1532 0.950 . S
H1513 C1533 0.950 . S
H1514 C1535 0.950 . S
H1515 C1538 0.950 . S
H1516 C1539 0.950 . S
H1517 C1541 0.950 . S
H1518 C1542 0.950 . S
H1519 C1543 0.951 . S
H1520 C1545 0.951 . S
H1521 C1547 0.950 . S
H1522 C1548 0.950 . S
H1523 C1550 0.950 . S
H1524 C1553 0.950 . S
H1525 C1554 0.950 1_554 S
H1526 C1556 0.950 . S
H1527 C1557 0.950 . S
C1528 H1510 0.951 . S
C1528 C1529 1.366 . S
C1528 C1530 1.388 . S
C1529 C1528 1.366 . S
C1529 C1533 1.385 . S
C1530 H1511 0.951 . S
C1530 C1528 1.388 . S
C1530 C1531 1.366 . S
C1531 C1530 1.366 . S
C1531 C1532 1.414 . S
C1531 C1534 1.499 . S
C1532 H1512 0.950 . S
C1532 C1531 1.414 . S
C1532 C1533 1.374 . S
C1533 H1513 0.950 . S
C1533 C1529 1.385 . S
C1533 C1532 1.374 . S
C1534 C1531 1.499 . S
C1534 C1535 1.373 . S
C1534 C1536 1.389 . S
C1535 H1514 0.950 . S
C1535 C1534 1.373 . S
C1535 C1551 1.377 . S
C1536 C1534 1.389 . S
C1536 C1537 1.524 . S
C1536 C1550 1.377 . S
C1537 C1536 1.524 . S
C1537 C1538 1.397 . S
C1537 C1542 1.363 . S
C1538 H1515 0.950 . S
C1538 C1537 1.397 . S
C1538 C1539 1.334 . S
C1539 H1516 0.950 . S
C1539 C1538 1.334 . S
C1539 C1540 1.287 . S
C1540 C1539 1.287 . S
C1540 C1541 1.524 . S
C1540 H1559 0.913 . S
C1541 H1517 0.950 . S
C1541 C1540 1.524 . S
C1541 C1542 1.415 . S
C1542 H1518 0.950 . S
C1542 C1537 1.363 . S
C1542 C1541 1.415 . S
C1543 H1519 0.951 . S
C1543 C1544 1.366 . S
C1543 C1545 1.388 . S
C1544 C1543 1.366 . S
C1544 C1548 1.385 . S
C1545 H1520 0.951 . S
C1545 C1543 1.388 . S
C1545 C1546 1.366 1_554 S
C1546 C1545 1.366 1_556 S
C1546 C1547 1.414 1_556 S
C1546 C1549 1.499 . S
C1547 H1521 0.950 . S
C1547 C1546 1.414 1_554 S
C1547 C1548 1.374 . S
C1548 H1522 0.950 . S
C1548 C1544 1.385 . S
C1548 C1547 1.374 . S
C1549 C1546 1.499 . S
C1549 C1550 1.373 . S
C1549 C1551 1.389 . S
C1550 H1523 0.950 . S
C1550 C1536 1.377 . S
C1550 C1549 1.373 . S
C1551 C1535 1.377 . S
C1551 C1549 1.389 . S
C1551 C1552 1.524 . S
C1552 C1551 1.524 . S
C1552 C1553 1.397 . S
C1552 C1557 1.363 . S
C1553 H1524 0.950 . S
C1553 C1552 1.397 . S
C1553 C1554 1.334 . S
C1554 H1525 0.950 1_556 S
C1554 C1553 1.334 . S
C1554 C1555 1.287 . S
C1555 C1554 1.287 . S
C1555 C1556 1.524 . S
C1555 H1558 0.999 . S
C1556 H1526 0.950 . S
C1556 C1555 1.524 . S
C1556 C1557 1.415 . S
C1557 H1527 0.950 . S
C1557 C1552 1.363 . S
C1557 C1556 1.415 . S
H1558 C1555 0.999 . S
H1559 C1540 0.913 . S
H1560 C1578 0.951 . S
H1561 C1580 0.951 . S
H1562 C1582 0.950 . S
H1563 C1583 0.950 . S
H1564 C1585 0.950 . S
H1565 C1588 0.950 . S
H1566 C1589 0.950 . S
H1567 C1591 0.950 . S
H1568 C1592 0.950 . S
H1569 C1593 0.951 . S
H1570 C1595 0.953 . S
H1571 C1597 0.950 . S
H1572 C1598 0.950 . S
H1573 C1600 0.950 . S
H1574 C1603 0.950 . S
H1575 C1604 0.950 1_556 S
H1576 C1606 0.950 . S
H1577 C1607 0.950 . S
C1578 H1560 0.951 . S
C1578 C1579 1.366 . S
C1578 C1580 1.388 . S
C1579 C1578 1.366 . S
C1579 C1583 1.385 . S
C1580 H1561 0.951 . S
C1580 C1578 1.388 . S
C1580 C1581 1.366 . S
C1581 C1580 1.366 . S
C1581 C1582 1.414 . S
C1581 C1584 1.499 . S
C1582 H1562 0.950 . S
C1582 C1581 1.414 . S
C1582 C1583 1.374 . S
C1583 H1563 0.950 . S
C1583 C1579 1.385 . S
C1583 C1582 1.374 . S
C1584 C1581 1.499 . S
C1584 C1585 1.373 . S
C1584 C1586 1.389 . S
C1585 H1564 0.950 . S
C1585 C1584 1.373 . S
C1585 C1601 1.377 . S
C1586 C1584 1.389 . S
C1586 C1587 1.524 . S
C1586 C1600 1.377 . S
C1587 C1586 1.524 . S
C1587 C1588 1.397 . S
C1587 C1592 1.363 . S
C1588 H1565 0.950 . S
C1588 C1587 1.397 . S
C1588 C1589 1.334 . S
C1589 H1566 0.950 . S
C1589 C1588 1.334 . S
C1589 C1590 1.287 . S
C1590 C1589 1.287 . S
C1590 C1591 1.524 . S
C1590 H1609 0.913 . S
C1591 H1567 0.950 . S
C1591 C1590 1.524 . S
C1591 C1592 1.415 . S
C1592 H1568 0.950 . S
C1592 C1587 1.363 . S
C1592 C1591 1.415 . S
C1593 H1569 0.951 . S
C1593 C1594 1.366 . S
C1593 C1595 1.388 . S
C1594 C1593 1.366 . S
C1594 C1598 1.385 . S
C1595 H1570 0.953 . S
C1595 C1593 1.388 . S
C1595 C1596 1.366 1_556 S
C1596 C1595 1.366 1_554 S
C1596 C1597 1.414 1_554 S
C1596 C1599 1.499 . S
C1597 H1571 0.950 . S
C1597 C1596 1.414 1_556 S
C1597 C1598 1.374 . S
C1598 H1572 0.950 . S
C1598 C1594 1.385 . S
C1598 C1597 1.374 . S
C1599 C1596 1.499 . S
C1599 C1600 1.373 . S
C1599 C1601 1.389 . S
C1600 H1573 0.950 . S
C1600 C1586 1.377 . S
C1600 C1599 1.373 . S
C1601 C1585 1.377 . S
C1601 C1599 1.389 . S
C1601 C1602 1.524 . S
C1602 C1601 1.524 . S
C1602 C1603 1.397 . S
C1602 C1607 1.363 . S
C1603 H1574 0.950 . S
C1603 C1602 1.397 . S
C1603 C1604 1.334 . S
C1604 H1575 0.950 1_554 S
C1604 C1603 1.334 . S
C1604 C1605 1.287 . S
C1605 C1604 1.287 . S
C1605 C1606 1.524 . S
C1605 H1608 0.999 . S
C1606 H1576 0.950 . S
C1606 C1605 1.524 . S
C1606 C1607 1.415 . S
C1607 H1577 0.950 . S
C1607 C1602 1.363 . S
C1607 C1606 1.415 . S
H1608 C1605 0.999 . S
H1609 C1590 0.913 . S
H1610 C1628 0.951 . S
H1611 C1630 0.951 . S
H1612 C1632 0.950 1_554 S
H1613 C1633 0.950 . S
H1614 C1635 0.950 . S
H1615 C1638 0.950 . S
H1616 C1639 0.950 1_556 S
H1617 C1641 0.950 . S
H1618 C1642 0.950 . S
H1619 C1643 0.951 . S
H1620 C1645 0.951 . S
H1621 C1647 0.950 . S
H1622 C1648 0.950 . S
H1623 C1650 0.950 . S
H1624 C1653 0.950 . S
H1625 C1654 0.950 . S
H1626 C1656 0.950 . S
H1627 C1657 0.950 . S
C1628 H1610 0.951 . S
C1628 C1629 1.366 . S
C1628 C1630 1.388 . S
C1629 C1628 1.366 . S
C1629 C1633 1.385 . S
C1630 H1611 0.951 . S
C1630 C1628 1.388 . S
C1630 C1631 1.366 1_556 S
C1631 C1630 1.366 1_554 S
C1631 C1632 1.414 1_554 S
C1631 C1634 1.499 . S
C1632 H1612 0.950 1_556 S
C1632 C1631 1.414 1_556 S
C1632 C1633 1.374 . S
C1633 H1613 0.950 . S
C1633 C1629 1.385 . S
C1633 C1632 1.374 . S
C1634 C1631 1.499 . S
C1634 C1635 1.373 . S
C1634 C1636 1.389 . S
C1635 H1614 0.950 . S
C1635 C1634 1.373 . S
C1635 C1651 1.377 . S
C1636 C1634 1.389 . S
C1636 C1637 1.524 . S
C1636 C1650 1.377 . S
C1637 C1636 1.524 . S
C1637 C1638 1.397 . S
C1637 C1642 1.363 . S
C1638 H1615 0.950 . S
C1638 C1637 1.397 . S
C1638 C1639 1.334 . S
C1639 H1616 0.950 1_554 S
C1639 C1638 1.334 . S
C1639 C1640 1.287 . S
C1640 C1639 1.287 . S
C1640 C1641 1.524 . S
C1640 H1659 0.910 1_554 S
C1641 H1617 0.950 . S
C1641 C1640 1.524 . S
C1641 C1642 1.415 . S
C1642 H1618 0.950 . S
C1642 C1637 1.363 . S
C1642 C1641 1.415 . S
C1643 H1619 0.951 . S
C1643 C1644 1.366 . S
C1643 C1645 1.388 . S
C1644 C1643 1.366 . S
C1644 C1648 1.385 . S
C1645 H1620 0.951 . S
C1645 C1643 1.388 . S
C1645 C1646 1.366 . S
C1646 C1645 1.366 . S
C1646 C1647 1.414 . S
C1646 C1649 1.499 . S
C1647 H1621 0.950 . S
C1647 C1646 1.414 . S
C1647 C1648 1.374 . S
C1648 H1622 0.950 . S
C1648 C1644 1.385 . S
C1648 C1647 1.374 . S
C1649 C1646 1.499 . S
C1649 C1650 1.373 . S
C1649 C1651 1.389 . S
C1650 H1623 0.950 . S
C1650 C1636 1.377 . S
C1650 C1649 1.373 . S
C1651 C1635 1.377 . S
C1651 C1649 1.389 . S
C1651 C1652 1.524 . S
C1652 C1651 1.524 . S
C1652 C1653 1.397 . S
C1652 C1657 1.363 . S
C1653 H1624 0.950 . S
C1653 C1652 1.397 . S
C1653 C1654 1.334 . S
C1654 H1625 0.950 . S
C1654 C1653 1.334 . S
C1654 C1655 1.287 . S
C1655 C1654 1.287 . S
C1655 C1656 1.524 . S
C1655 H1658 0.999 . S
C1656 H1626 0.950 . S
C1656 C1655 1.524 . S
C1656 C1657 1.415 . S
C1657 H1627 0.950 . S
C1657 C1652 1.363 . S
C1657 C1656 1.415 . S
H1658 C1655 0.999 . S
H1659 C1640 0.910 1_556 S
H1660 C1678 0.951 . S
H1661 C1680 0.951 . S
H1662 C1682 0.950 . S
H1663 C1683 0.950 . S
H1664 C1685 0.950 . S
H1665 C1688 0.950 . S
H1666 C1689 0.950 . S
H1667 C1691 0.950 . S
H1668 C1692 0.950 . S
H1669 C1693 0.951 . S
H1670 C1695 0.951 1_554 S
H1671 C1697 0.950 . S
H1672 C1698 0.950 . S
H1673 C1700 0.950 . S
H1674 C1703 0.950 . S
H1675 C1704 0.950 . S
H1676 C1706 0.950 . S
H1677 C1707 0.950 . S
C1678 H1660 0.951 . S
C1678 C1679 1.366 . S
C1678 C1680 1.388 . S
C1679 C1678 1.366 . S
C1679 C1683 1.385 . S
C1680 H1661 0.951 . S
C1680 C1678 1.388 . S
C1680 C1681 1.366 . S
C1681 C1680 1.366 . S
C1681 C1682 1.414 . S
C1681 C1684 1.499 . S
C1682 H1662 0.950 . S
C1682 C1681 1.414 . S
C1682 C1683 1.374 . S
C1683 H1663 0.950 . S
C1683 C1679 1.385 . S
C1683 C1682 1.374 . S
C1684 C1681 1.499 . S
C1684 C1685 1.373 . S
C1684 C1686 1.389 . S
C1685 H1664 0.950 . S
C1685 C1684 1.373 . S
C1685 C1701 1.377 . S
C1686 C1684 1.389 . S
C1686 C1687 1.524 . S
C1686 C1700 1.377 . S
C1687 C1686 1.524 . S
C1687 C1688 1.397 . S
C1687 C1692 1.363 . S
C1688 H1665 0.950 . S
C1688 C1687 1.397 . S
C1688 C1689 1.334 . S
C1689 H1666 0.950 . S
C1689 C1688 1.334 . S
C1689 C1690 1.287 . S
C1690 C1689 1.287 . S
C1690 C1691 1.524 . S
C1690 H1709 0.913 . S
C1691 H1667 0.950 . S
C1691 C1690 1.524 . S
C1691 C1692 1.415 . S
C1692 H1668 0.950 . S
C1692 C1687 1.363 . S
C1692 C1691 1.415 . S
C1693 H1669 0.951 . S
C1693 C1694 1.366 . S
C1693 C1695 1.388 . S
C1694 C1693 1.366 . S
C1694 C1698 1.385 . S
C1695 H1670 0.951 1_556 S
C1695 C1693 1.388 . S
C1695 C1696 1.366 1_556 S
C1696 C1695 1.366 1_554 S
C1696 C1697 1.414 1_554 S
C1696 C1699 1.499 . S
C1697 H1671 0.950 . S
C1697 C1696 1.414 1_556 S
C1697 C1698 1.374 . S
C1698 H1672 0.950 . S
C1698 C1694 1.385 . S
C1698 C1697 1.374 . S
C1699 C1696 1.499 . S
C1699 C1700 1.373 . S
C1699 C1701 1.389 . S
C1700 H1673 0.950 . S
C1700 C1686 1.377 . S
C1700 C1699 1.373 . S
C1701 C1685 1.377 . S
C1701 C1699 1.389 . S
C1701 C1702 1.524 . S
C1702 C1701 1.524 . S
C1702 C1703 1.397 . S
C1702 C1707 1.363 . S
C1703 H1674 0.950 . S
C1703 C1702 1.397 . S
C1703 C1704 1.334 . S
C1704 H1675 0.950 . S
C1704 C1703 1.334 . S
C1704 C1705 1.287 . S
C1705 C1704 1.287 . S
C1705 C1706 1.524 . S
C1705 H1708 0.999 . S
C1706 H1676 0.950 . S
C1706 C1705 1.524 . S
C1706 C1707 1.415 . S
C1707 H1677 0.950 . S
C1707 C1702 1.363 . S
C1707 C1706 1.415 . S
H1708 C1705 0.999 . S
H1709 C1690 0.913 . S
C379 C26 1.771 . S
C394 C293 1.744 . S
C429 C66 1.771 . S
C444 C333 1.744 . S
C479 C106 1.770 . S
C494 C253 1.742 . S
C529 C186 1.771 . S
C544 C93 1.743 . S
C579 C226 1.770 . S
C594 C13 1.742 . S
C629 C53 1.744 . S
C644 C146 1.771 . S
C679 C306 1.771 . S
C694 C213 1.743 . S
C729 C346 1.770 . S
C744 C133 1.742 . S
C779 C173 1.743 . S
C794 C266 1.771 . S
C829 C97 1.562 . S
C844 C24 1.564 . S
C879 C64 1.565 . S
C894 C17 1.563 . S
C929 C57 1.563 . S
C944 C104 1.565 . S
C979 C144 1.564 . S
C994 C217 1.562 . S
C1029 C137 1.563 . S
C1044 C184 1.565 . S
C1079 C177 1.563 . S
C1094 C224 1.565 . S
C1129 C337 1.562 . S
C1144 C264 1.564 . S
C1179 C304 1.565 . S
C1194 C257 1.563 . S
C1229 C344 1.565 . S
C1244 C297 1.563 . S
C1279 C23 0.887 . S
C1294 C2 0.887 . S
C1329 C63 0.885 . S
C1344 C42 0.885 . S
C1379 C103 0.885 . S
C1394 C82 0.885 . S
C1429 C122 0.885 . S
C1444 C143 0.885 . S
C1479 C162 0.885 . S
C1494 C183 0.885 . S
C1529 C202 0.885 . S
C1544 C223 0.885 . S
C1579 C263 0.887 . S
C1594 C242 0.887 . S
C1629 C282 0.886 . S
C1644 C303 0.886 . S
C1679 C343 0.885 . S
C1694 C322 0.885 . S
