# Generated by pormake.
# Topology hal, (4)-cn, num edge types: 1
# Building blocks:
#     Node 0, Type 0, BuildingBlock: AZAVOO_clean_sbu_0, # of connection points: 4
#     Node 1, Type 0, BuildingBlock: AZAVOO_clean_sbu_0, # of connection points: 4
#     Node 2, Type 0, BuildingBlock: AZAVOO_clean_sbu_0, # of connection points: 4
#     Node 3, Type 0, BuildingBlock: AZAVOO_clean_sbu_0, # of connection points: 4
#     Node 4, Type 0, BuildingBlock: AZAVOO_clean_sbu_0, # of connection points: 4
#     Node 5, Type 0, BuildingBlock: AZAVOO_clean_sbu_0, # of connection points: 4
#     Node 6, Type 0, BuildingBlock: AZAVOO_clean_sbu_0, # of connection points: 4
#     Node 7, Type 0, BuildingBlock: AZAVOO_clean_sbu_0, # of connection points: 4
#     Node 8, Type 0, BuildingBlock: AZAVOO_clean_sbu_0, # of connection points: 4
#     Node 9, Type 0, BuildingBlock: AZAVOO_clean_sbu_0, # of connection points: 4
#     Node 10, Type 0, BuildingBlock: AZAVOO_clean_sbu_0, # of connection points: 4
#     Node 11, Type 0, BuildingBlock: AZAVOO_clean_sbu_0, # of connection points: 4
#     Node 12, Type 0, BuildingBlock: AZAVOO_clean_sbu_0, # of connection points: 4
#     Node 13, Type 0, BuildingBlock: AZAVOO_clean_sbu_0, # of connection points: 4
#     Node 14, Type 0, BuildingBlock: AZAVOO_clean_sbu_0, # of connection points: 4
#     Node 15, Type 0, BuildingBlock: AZAVOO_clean_sbu_0, # of connection points: 4
#     Node 16, Type 0, BuildingBlock: AZAVOO_clean_sbu_0, # of connection points: 4
#     Node 17, Type 0, BuildingBlock: AZAVOO_clean_sbu_0, # of connection points: 4
#     Node 18, Type 0, BuildingBlock: AZAVOO_clean_sbu_0, # of connection points: 4
#     Node 19, Type 0, BuildingBlock: AZAVOO_clean_sbu_0, # of connection points: 4
#     Node 20, Type 0, BuildingBlock: AZAVOO_clean_sbu_0, # of connection points: 4
#     Node 21, Type 0, BuildingBlock: AZAVOO_clean_sbu_0, # of connection points: 4
#     Node 22, Type 0, BuildingBlock: AZAVOO_clean_sbu_0, # of connection points: 4
#     Node 23, Type 0, BuildingBlock: AZAVOO_clean_sbu_0, # of connection points: 4
#     Node 24, Type 0, BuildingBlock: AZAVOO_clean_sbu_0, # of connection points: 4
#     Node 25, Type 0, BuildingBlock: AZAVOO_clean_sbu_0, # of connection points: 4
#     Node 26, Type 0, BuildingBlock: AZAVOO_clean_sbu_0, # of connection points: 4
#     Node 27, Type 0, BuildingBlock: AZAVOO_clean_sbu_0, # of connection points: 4
#     Node 28, Type 0, BuildingBlock: AZAVOO_clean_sbu_0, # of connection points: 4
#     Node 29, Type 0, BuildingBlock: AZAVOO_clean_sbu_0, # of connection points: 4
#     Node 30, Type 0, BuildingBlock: AZAVOO_clean_sbu_0, # of connection points: 4
#     Node 31, Type 0, BuildingBlock: AZAVOO_clean_sbu_0, # of connection points: 4
#     Node 32, Type 0, BuildingBlock: AZAVOO_clean_sbu_0, # of connection points: 4
#     Node 33, Type 0, BuildingBlock: AZAVOO_clean_sbu_0, # of connection points: 4
#     Node 34, Type 0, BuildingBlock: AZAVOO_clean_sbu_0, # of connection points: 4
#     Node 35, Type 0, BuildingBlock: AZAVOO_clean_sbu_0, # of connection points: 4
#     Node 36, Type 0, BuildingBlock: AZAVOO_clean_sbu_0, # of connection points: 4
#     Node 37, Type 0, BuildingBlock: AZAVOO_clean_sbu_0, # of connection points: 4
#     Node 38, Type 0, BuildingBlock: AZAVOO_clean_sbu_0, # of connection points: 4
#     Node 39, Type 0, BuildingBlock: AZAVOO_clean_sbu_0, # of connection points: 4
#     Node 40, Type 0, BuildingBlock: AZAVOO_clean_sbu_0, # of connection points: 4
#     Node 41, Type 0, BuildingBlock: AZAVOO_clean_sbu_0, # of connection points: 4
#     Node 42, Type 0, BuildingBlock: AZAVOO_clean_sbu_0, # of connection points: 4
#     Node 43, Type 0, BuildingBlock: AZAVOO_clean_sbu_0, # of connection points: 4
#     Node 44, Type 0, BuildingBlock: AZAVOO_clean_sbu_0, # of connection points: 4
#     Node 45, Type 0, BuildingBlock: AZAVOO_clean_sbu_0, # of connection points: 4
#     Node 46, Type 0, BuildingBlock: AZAVOO_clean_sbu_0, # of connection points: 4
#     Node 47, Type 0, BuildingBlock: AZAVOO_clean_sbu_0, # of connection points: 4
#     Node 48, Type 0, BuildingBlock: AZAVOO_clean_sbu_0, # of connection points: 4
#     Node 49, Type 0, BuildingBlock: AZAVOO_clean_sbu_0, # of connection points: 4
#     Node 50, Type 0, BuildingBlock: AZAVOO_clean_sbu_0, # of connection points: 4
#     Node 51, Type 0, BuildingBlock: AZAVOO_clean_sbu_0, # of connection points: 4
#     Node 52, Type 0, BuildingBlock: AZAVOO_clean_sbu_0, # of connection points: 4
#     Node 53, Type 0, BuildingBlock: AZAVOO_clean_sbu_0, # of connection points: 4
#     Node 54, Type 0, BuildingBlock: AZAVOO_clean_sbu_0, # of connection points: 4
#     Node 55, Type 0, BuildingBlock: AZAVOO_clean_sbu_0, # of connection points: 4
#     Node 56, Type 0, BuildingBlock: AZAVOO_clean_sbu_0, # of connection points: 4
#     Node 57, Type 0, BuildingBlock: AZAVOO_clean_sbu_0, # of connection points: 4
#     Node 58, Type 0, BuildingBlock: AZAVOO_clean_sbu_0, # of connection points: 4
#     Node 59, Type 0, BuildingBlock: AZAVOO_clean_sbu_0, # of connection points: 4
#     Node 60, Type 0, BuildingBlock: AZAVOO_clean_sbu_0, # of connection points: 4
#     Node 61, Type 0, BuildingBlock: AZAVOO_clean_sbu_0, # of connection points: 4
#     Node 62, Type 0, BuildingBlock: AZAVOO_clean_sbu_0, # of connection points: 4
#     Node 63, Type 0, BuildingBlock: AZAVOO_clean_sbu_0, # of connection points: 4
#     Node 64, Type 0, BuildingBlock: AZAVOO_clean_sbu_0, # of connection points: 4
#     Node 65, Type 0, BuildingBlock: AZAVOO_clean_sbu_0, # of connection points: 4
#     Node 66, Type 0, BuildingBlock: AZAVOO_clean_sbu_0, # of connection points: 4
#     Node 67, Type 0, BuildingBlock: AZAVOO_clean_sbu_0, # of connection points: 4
#     Node 68, Type 0, BuildingBlock: AZAVOO_clean_sbu_0, # of connection points: 4
#     Node 69, Type 0, BuildingBlock: AZAVOO_clean_sbu_0, # of connection points: 4
#     Node 70, Type 0, BuildingBlock: AZAVOO_clean_sbu_0, # of connection points: 4
#     Node 71, Type 0, BuildingBlock: AZAVOO_clean_sbu_0, # of connection points: 4
#     Node 72, Type 0, BuildingBlock: AZAVOO_clean_sbu_0, # of connection points: 4
#     Node 73, Type 0, BuildingBlock: AZAVOO_clean_sbu_0, # of connection points: 4
#     Node 74, Type 0, BuildingBlock: AZAVOO_clean_sbu_0, # of connection points: 4
#     Node 75, Type 0, BuildingBlock: AZAVOO_clean_sbu_0, # of connection points: 4
#     Node 76, Type 0, BuildingBlock: AZAVOO_clean_sbu_0, # of connection points: 4
#     Node 77, Type 0, BuildingBlock: AZAVOO_clean_sbu_0, # of connection points: 4
#     Node 78, Type 0, BuildingBlock: AZAVOO_clean_sbu_0, # of connection points: 4
#     Node 79, Type 0, BuildingBlock: AZAVOO_clean_sbu_0, # of connection points: 4
#     Node 80, Type 0, BuildingBlock: AZAVOO_clean_sbu_0, # of connection points: 4
#     Node 81, Type 0, BuildingBlock: AZAVOO_clean_sbu_0, # of connection points: 4
#     Node 82, Type 0, BuildingBlock: AZAVOO_clean_sbu_0, # of connection points: 4
#     Node 83, Type 0, BuildingBlock: AZAVOO_clean_sbu_0, # of connection points: 4
#     Node 84, Type 0, BuildingBlock: AZAVOO_clean_sbu_0, # of connection points: 4
#     Node 85, Type 0, BuildingBlock: AZAVOO_clean_sbu_0, # of connection points: 4
#     Node 86, Type 0, BuildingBlock: AZAVOO_clean_sbu_0, # of connection points: 4
#     Node 87, Type 0, BuildingBlock: AZAVOO_clean_sbu_0, # of connection points: 4
#     Node 88, Type 0, BuildingBlock: AZAVOO_clean_sbu_0, # of connection points: 4
#     Node 89, Type 0, BuildingBlock: AZAVOO_clean_sbu_0, # of connection points: 4
#     Node 90, Type 0, BuildingBlock: AZAVOO_clean_sbu_0, # of connection points: 4
#     Node 91, Type 0, BuildingBlock: AZAVOO_clean_sbu_0, # of connection points: 4
#     Node 92, Type 0, BuildingBlock: AZAVOO_clean_sbu_0, # of connection points: 4
#     Node 93, Type 0, BuildingBlock: AZAVOO_clean_sbu_0, # of connection points: 4
#     Node 94, Type 0, BuildingBlock: AZAVOO_clean_sbu_0, # of connection points: 4
#     Node 95, Type 0, BuildingBlock: AZAVOO_clean_sbu_0, # of connection points: 4
#     Edge 96, Type (0, 0), None
#     Edge 97, Type (0, 0), None
#     Edge 98, Type (0, 0), None
#     Edge 99, Type (0, 0), None
#     Edge 100, Type (0, 0), None
#     Edge 101, Type (0, 0), None
#     Edge 102, Type (0, 0), None
#     Edge 103, Type (0, 0), None
#     Edge 104, Type (0, 0), None
#     Edge 105, Type (0, 0), None
#     Edge 106, Type (0, 0), None
#     Edge 107, Type (0, 0), None
#     Edge 108, Type (0, 0), None
#     Edge 109, Type (0, 0), None
#     Edge 110, Type (0, 0), None
#     Edge 111, Type (0, 0), None
#     Edge 112, Type (0, 0), None
#     Edge 113, Type (0, 0), None
#     Edge 114, Type (0, 0), None
#     Edge 115, Type (0, 0), None
#     Edge 116, Type (0, 0), None
#     Edge 117, Type (0, 0), None
#     Edge 118, Type (0, 0), None
#     Edge 119, Type (0, 0), None
#     Edge 120, Type (0, 0), None
#     Edge 121, Type (0, 0), None
#     Edge 122, Type (0, 0), None
#     Edge 123, Type (0, 0), None
#     Edge 124, Type (0, 0), None
#     Edge 125, Type (0, 0), None
#     Edge 126, Type (0, 0), None
#     Edge 127, Type (0, 0), None
#     Edge 128, Type (0, 0), None
#     Edge 129, Type (0, 0), None
#     Edge 130, Type (0, 0), None
#     Edge 131, Type (0, 0), None
#     Edge 132, Type (0, 0), None
#     Edge 133, Type (0, 0), None
#     Edge 134, Type (0, 0), None
#     Edge 135, Type (0, 0), None
#     Edge 136, Type (0, 0), None
#     Edge 137, Type (0, 0), None
#     Edge 138, Type (0, 0), None
#     Edge 139, Type (0, 0), None
#     Edge 140, Type (0, 0), None
#     Edge 141, Type (0, 0), None
#     Edge 142, Type (0, 0), None
#     Edge 143, Type (0, 0), None
#     Edge 144, Type (0, 0), None
#     Edge 145, Type (0, 0), None
#     Edge 146, Type (0, 0), None
#     Edge 147, Type (0, 0), None
#     Edge 148, Type (0, 0), None
#     Edge 149, Type (0, 0), None
#     Edge 150, Type (0, 0), None
#     Edge 151, Type (0, 0), None
#     Edge 152, Type (0, 0), None
#     Edge 153, Type (0, 0), None
#     Edge 154, Type (0, 0), None
#     Edge 155, Type (0, 0), None
#     Edge 156, Type (0, 0), None
#     Edge 157, Type (0, 0), None
#     Edge 158, Type (0, 0), None
#     Edge 159, Type (0, 0), None
#     Edge 160, Type (0, 0), None
#     Edge 161, Type (0, 0), None
#     Edge 162, Type (0, 0), None
#     Edge 163, Type (0, 0), None
#     Edge 164, Type (0, 0), None
#     Edge 165, Type (0, 0), None
#     Edge 166, Type (0, 0), None
#     Edge 167, Type (0, 0), None
#     Edge 168, Type (0, 0), None
#     Edge 169, Type (0, 0), None
#     Edge 170, Type (0, 0), None
#     Edge 171, Type (0, 0), None
#     Edge 172, Type (0, 0), None
#     Edge 173, Type (0, 0), None
#     Edge 174, Type (0, 0), None
#     Edge 175, Type (0, 0), None
#     Edge 176, Type (0, 0), None
#     Edge 177, Type (0, 0), None
#     Edge 178, Type (0, 0), None
#     Edge 179, Type (0, 0), None
#     Edge 180, Type (0, 0), None
#     Edge 181, Type (0, 0), None
#     Edge 182, Type (0, 0), None
#     Edge 183, Type (0, 0), None
#     Edge 184, Type (0, 0), None
#     Edge 185, Type (0, 0), None
#     Edge 186, Type (0, 0), None
#     Edge 187, Type (0, 0), None
#     Edge 188, Type (0, 0), None
#     Edge 189, Type (0, 0), None
#     Edge 190, Type (0, 0), None
#     Edge 191, Type (0, 0), None
#     Edge 192, Type (0, 0), None
#     Edge 193, Type (0, 0), None
#     Edge 194, Type (0, 0), None
#     Edge 195, Type (0, 0), None
#     Edge 196, Type (0, 0), None
#     Edge 197, Type (0, 0), None
#     Edge 198, Type (0, 0), None
#     Edge 199, Type (0, 0), None
#     Edge 200, Type (0, 0), None
#     Edge 201, Type (0, 0), None
#     Edge 202, Type (0, 0), None
#     Edge 203, Type (0, 0), None
#     Edge 204, Type (0, 0), None
#     Edge 205, Type (0, 0), None
#     Edge 206, Type (0, 0), None
#     Edge 207, Type (0, 0), None
#     Edge 208, Type (0, 0), None
#     Edge 209, Type (0, 0), None
#     Edge 210, Type (0, 0), None
#     Edge 211, Type (0, 0), None
#     Edge 212, Type (0, 0), None
#     Edge 213, Type (0, 0), None
#     Edge 214, Type (0, 0), None
#     Edge 215, Type (0, 0), None
#     Edge 216, Type (0, 0), None
#     Edge 217, Type (0, 0), None
#     Edge 218, Type (0, 0), None
#     Edge 219, Type (0, 0), None
#     Edge 220, Type (0, 0), None
#     Edge 221, Type (0, 0), None
#     Edge 222, Type (0, 0), None
#     Edge 223, Type (0, 0), None
#     Edge 224, Type (0, 0), None
#     Edge 225, Type (0, 0), None
#     Edge 226, Type (0, 0), None
#     Edge 227, Type (0, 0), None
#     Edge 228, Type (0, 0), None
#     Edge 229, Type (0, 0), None
#     Edge 230, Type (0, 0), None
#     Edge 231, Type (0, 0), None
#     Edge 232, Type (0, 0), None
#     Edge 233, Type (0, 0), None
#     Edge 234, Type (0, 0), None
#     Edge 235, Type (0, 0), None
#     Edge 236, Type (0, 0), None
#     Edge 237, Type (0, 0), None
#     Edge 238, Type (0, 0), None
#     Edge 239, Type (0, 0), None
#     Edge 240, Type (0, 0), None
#     Edge 241, Type (0, 0), None
#     Edge 242, Type (0, 0), None
#     Edge 243, Type (0, 0), None
#     Edge 244, Type (0, 0), None
#     Edge 245, Type (0, 0), None
#     Edge 246, Type (0, 0), None
#     Edge 247, Type (0, 0), None
#     Edge 248, Type (0, 0), None
#     Edge 249, Type (0, 0), None
#     Edge 250, Type (0, 0), None
#     Edge 251, Type (0, 0), None
#     Edge 252, Type (0, 0), None
#     Edge 253, Type (0, 0), None
#     Edge 254, Type (0, 0), None
#     Edge 255, Type (0, 0), None
#     Edge 256, Type (0, 0), None
#     Edge 257, Type (0, 0), None
#     Edge 258, Type (0, 0), None
#     Edge 259, Type (0, 0), None
#     Edge 260, Type (0, 0), None
#     Edge 261, Type (0, 0), None
#     Edge 262, Type (0, 0), None
#     Edge 263, Type (0, 0), None
#     Edge 264, Type (0, 0), None
#     Edge 265, Type (0, 0), None
#     Edge 266, Type (0, 0), None
#     Edge 267, Type (0, 0), None
#     Edge 268, Type (0, 0), None
#     Edge 269, Type (0, 0), None
#     Edge 270, Type (0, 0), None
#     Edge 271, Type (0, 0), None
#     Edge 272, Type (0, 0), None
#     Edge 273, Type (0, 0), None
#     Edge 274, Type (0, 0), None
#     Edge 275, Type (0, 0), None
#     Edge 276, Type (0, 0), None
#     Edge 277, Type (0, 0), None
#     Edge 278, Type (0, 0), None
#     Edge 279, Type (0, 0), None
#     Edge 280, Type (0, 0), None
#     Edge 281, Type (0, 0), None
#     Edge 282, Type (0, 0), None
#     Edge 283, Type (0, 0), None
#     Edge 284, Type (0, 0), None
#     Edge 285, Type (0, 0), None
#     Edge 286, Type (0, 0), None
#     Edge 287, Type (0, 0), None
# Relax obj value: 0.390
# Max RMSD: 0.351
# Mean RMSD: 0.302
data_MOF--net-hal--node1-AZAVOO_clean_sbu_0--edge1-none
_symmetry_space_group_name_H-M    P1
_symmetry_Int_Tables_number       1
_symmetry_cell_setting            triclinic
loop_
_symmetry_equiv_pos_as_xyz
'x, y, z'
_cell_length_a     40.748223
_cell_length_b     38.768583
_cell_length_c     39.359763
_cell_angle_alpha  89.999997
_cell_angle_beta   89.999998
_cell_angle_gamma 89.999996
loop_
_atom_site_label
_atom_site_type_symbol
_atom_site_fract_x
_atom_site_fract_y
_atom_site_fract_z
_atom_type_partial_charge
Mg0 Mg 0.09437 0.18258 0.27047 0.0
O1 O 0.10132 0.21099 0.3201 0.0
O2 O 0.06977 0.25795 0.32399 0.0
Mg3 Mg 0.0368 0.25604 0.27664 0.0
C4 C 0.09156 0.23771 0.33594 0.0
C5 C 0.10673 0.13008 0.21007 0.0
O6 O 0.10003 0.11564 0.18069 0.0
O7 O 0.04645 0.1594 0.2902 0.0
O8 O 1.01306 0.20521 0.29444 0.0
O9 O 0.1276 0.22176 0.24282 0.0
O10 O 0.07461 0.22731 0.24757 0.0
C11 C 0.01883 0.17299 0.29782 0.0
C12 C 0.10163 0.23929 0.23649 0.0
O13 O 0.08807 0.1539 0.22092 0.0
Mg14 Mg 0.83261 0.03758 0.26691 0.0
O15 O 0.82401 0.07219 0.31212 0.0
O16 O 0.77877 0.05534 0.33922 0.0
Mg17 Mg 0.75409 0.01446 0.30596 0.0
C18 C 0.80385 0.07478 0.33655 0.0
C19 C 0.89838 0.07129 0.24154 0.0
O20 O 0.88676 0.06463 0.21113 0.0
O21 O 0.84544 -0.00921 0.30066 0.0
O22 O 0.79454 0.97505 0.31539 0.0
O23 O 0.80392 0.07349 0.23293 0.0
O24 O 0.78299 0.02931 0.26093 0.0
C25 C 0.8253 0.96901 0.31351 0.0
C26 C 0.77867 0.05495 0.24093 0.0
O27 O 0.88383 0.05946 0.26756 0.0
Mg28 Mg 0.9333 0.79355 0.27047 0.0
O29 O 0.92636 0.76513 0.3201 0.0
O30 O 0.95791 0.71817 0.32399 0.0
Mg31 Mg 0.99087 0.72009 0.27664 0.0
C32 C 0.93612 0.73841 0.33594 0.0
C33 C 0.92094 0.84605 0.21007 0.0
O34 O 0.92764 0.86048 0.18069 0.0
O35 O 0.98123 0.81672 0.2902 0.0
O36 O 0.01461 0.77091 0.29444 0.0
O37 O 0.90008 0.75437 0.24282 0.0
O38 O 0.95307 0.74882 0.24757 0.0
C39 C 1.00884 0.80314 0.29782 0.0
C40 C 0.92605 0.73683 0.23649 0.0
O41 O 0.93961 0.82223 0.22092 0.0
Mg42 Mg 0.19507 0.93855 0.26691 0.0
O43 O 0.20366 0.90394 0.31212 0.0
O44 O 0.2489 0.92079 0.33922 0.0
Mg45 Mg 0.27359 0.96167 0.30596 0.0
C46 C 0.22382 0.90135 0.33655 0.0
C47 C 0.1293 0.90484 0.24154 0.0
O48 O 0.14092 0.91149 0.21113 0.0
O49 O 0.18224 0.98533 0.30066 0.0
O50 O 0.23313 0.00108 0.31539 0.0
O51 O 0.22376 0.90264 0.23293 0.0
O52 O 0.24469 0.94682 0.26093 0.0
C53 C 0.20237 0.00711 0.31351 0.0
C54 C 0.24901 0.92118 0.24093 0.0
O55 O 0.14384 0.91666 0.26756 0.0
Mg56 Mg 0.09437 0.79355 0.69099 0.0
O57 O 0.10132 0.76513 0.64136 0.0
O58 O 0.06977 0.71817 0.63748 0.0
Mg59 Mg 0.0368 0.72009 0.68483 0.0
C60 C 0.09156 0.73841 0.62552 0.0
C61 C 0.10674 0.84605 0.75139 0.0
O62 O 0.10003 0.86048 0.78077 0.0
O63 O 0.04645 0.81672 0.67126 0.0
O64 O 1.01306 0.77091 0.66702 0.0
O65 O 0.1276 0.75437 0.71864 0.0
O66 O 0.07461 0.74882 0.71389 0.0
C67 C 0.01884 0.80314 0.66364 0.0
C68 C 0.10163 0.73683 0.72497 0.0
O69 O 0.08807 0.82223 0.74054 0.0
Mg70 Mg 0.19507 0.03758 0.69456 0.0
O71 O 0.20366 0.07219 0.64935 0.0
O72 O 0.2489 0.05534 0.62225 0.0
Mg73 Mg 0.27359 0.01446 0.65551 0.0
C74 C 0.22382 0.07478 0.62492 0.0
C75 C 0.1293 0.07129 0.71992 0.0
O76 O 0.14092 0.06463 0.75033 0.0
O77 O 0.18224 -0.00921 0.6608 0.0
O78 O 0.23313 0.97505 0.64607 0.0
O79 O 0.22376 0.07349 0.72853 0.0
O80 O 0.24469 0.02931 0.70054 0.0
C81 C 0.20237 0.96901 0.64796 0.0
C82 C 0.249 0.05495 0.72054 0.0
O83 O 0.14384 0.05946 0.6939 0.0
Mg84 Mg 0.9333 0.18258 0.69099 0.0
O85 O 0.92635 0.21099 0.64136 0.0
O86 O 0.95791 0.25795 0.63748 0.0
Mg87 Mg 0.99087 0.25604 0.68483 0.0
C88 C 0.93612 0.23771 0.62552 0.0
C89 C 0.92094 0.13008 0.75139 0.0
O90 O 0.92764 0.11565 0.78077 0.0
O91 O 0.98123 0.15941 0.67126 0.0
O92 O 0.01461 0.20521 0.66702 0.0
O93 O 0.90008 0.22176 0.71864 0.0
O94 O 0.95307 0.22731 0.71389 0.0
C95 C 1.00884 0.17299 0.66364 0.0
C96 C 0.92605 0.23929 0.72497 0.0
O97 O 0.93961 0.1539 0.74054 0.0
Mg98 Mg 0.83261 0.93855 0.69456 0.0
O99 O 0.82401 0.90394 0.64935 0.0
O100 O 0.77877 0.92079 0.62225 0.0
Mg101 Mg 0.75409 0.96167 0.65551 0.0
C102 C 0.80385 0.90135 0.62492 0.0
C103 C 0.89838 0.90484 0.71992 0.0
O104 O 0.88676 0.91149 0.75033 0.0
O105 O 0.84544 0.98533 0.6608 0.0
O106 O 0.79454 0.00108 0.64607 0.0
O107 O 0.80392 0.90264 0.72853 0.0
O108 O 0.78299 0.94682 0.70054 0.0
C109 C 0.8253 0.00711 0.64796 0.0
C110 C 0.77867 0.92118 0.72054 0.0
O111 O 0.88384 0.91666 0.6939 0.0
Mg112 Mg 0.34112 0.10072 0.18033 0.0
O113 O 0.3323 0.13633 0.13367 0.0
O114 O 0.2816 0.12324 0.11515 0.0
Mg115 Mg 0.26116 0.07631 0.14255 0.0
C116 C 0.30776 0.1413 0.1138 0.0
C117 C 0.39265 0.11767 0.23173 0.0
O118 O 0.37603 0.09111 0.24327 0.0
O119 O 0.30244 0.12936 0.21212 0.0
O120 O 0.25598 0.10636 0.19207 0.0
O121 O 0.36393 0.0543 0.1531 0.0
O122 O 0.31143 0.06488 0.15756 0.0
C123 C 0.27142 0.12446 0.21394 0.0
C124 C 0.33408 0.04375 0.14919 0.0
O125 O 0.38412 0.13105 0.20353 0.0
Mg126 Mg 0.93052 0.25652 0.1452 0.0
O127 O 0.91645 0.30112 0.17856 0.0
O128 O 0.94052 0.30212 0.22952 0.0
Mg129 Mg 0.97905 0.25932 0.22541 0.0
C130 C 0.92065 0.3145 0.20773 0.0
C131 C 0.92774 0.20127 0.08407 0.0
O132 O 0.93995 0.17491 0.06736 0.0
O133 O 0.97839 0.28525 0.13158 0.0
O134 O 1.00413 0.28847 0.18186 0.0
O135 O 0.89761 0.22026 0.17698 0.0
O136 O 0.94897 0.22971 0.1885 0.0
C137 C 1.00204 0.29587 0.15032 0.0
C138 C 0.92231 0.21479 0.19643 0.0
O139 O 0.9427 0.21159 0.11063 0.0
Mg140 Mg 0.68656 0.87541 0.18033 0.0
O141 O 0.69537 0.83979 0.13367 0.0
O142 O 0.74608 0.85288 0.11515 0.0
Mg143 Mg 0.76651 0.89981 0.14255 0.0
C144 C 0.71992 0.83483 0.1138 0.0
C145 C 0.63502 0.85845 0.23173 0.0
O146 O 0.65164 0.88501 0.24327 0.0
O147 O 0.72524 0.84677 0.21212 0.0
O148 O 0.7717 0.86976 0.19207 0.0
O149 O 0.66375 0.92182 0.1531 0.0
O150 O 0.71624 0.91124 0.15756 0.0
C151 C 0.75625 0.85167 0.21394 0.0
C152 C 0.6936 0.93237 0.14919 0.0
O153 O 0.64356 0.84508 0.20353 0.0
Mg154 Mg 0.09716 0.7196 0.1452 0.0
O155 O 0.11123 0.67501 0.17856 0.0
O156 O 0.08716 0.67401 0.22952 0.0
Mg157 Mg 0.04862 0.7168 0.22541 0.0
C158 C 0.10703 0.66163 0.20773 0.0
C159 C 0.09994 0.77486 0.08407 0.0
O160 O 0.08773 0.80122 0.06736 0.0
O161 O 0.04929 0.69088 0.13158 0.0
O162 O 0.02355 0.68766 0.18186 0.0
O163 O 0.13006 0.75586 0.17698 0.0
O164 O 0.0787 0.74641 0.1885 0.0
C165 C 0.02563 0.68025 0.15032 0.0
C166 C 0.10537 0.76134 0.19643 0.0
O167 O 0.08498 0.76454 0.11063 0.0
Mg168 Mg 0.34112 0.87541 0.78114 0.0
O169 O 0.3323 0.83979 0.82779 0.0
O170 O 0.2816 0.85288 0.84631 0.0
Mg171 Mg 0.26116 0.89981 0.81891 0.0
C172 C 0.30776 0.83483 0.84767 0.0
C173 C 0.39265 0.85845 0.72973 0.0
O174 O 0.37603 0.88501 0.71819 0.0
O175 O 0.30244 0.84677 0.74934 0.0
O176 O 0.25598 0.86976 0.76939 0.0
O177 O 0.36393 0.92182 0.80837 0.0
O178 O 0.31143 0.91124 0.8039 0.0
C179 C 0.27142 0.85167 0.74752 0.0
C180 C 0.33408 0.93237 0.81228 0.0
O181 O 0.38412 0.84508 0.75793 0.0
Mg182 Mg 0.09716 0.25652 0.81626 0.0
O183 O 0.11123 0.30112 0.7829 0.0
O184 O 0.08716 0.30212 0.73194 0.0
Mg185 Mg 0.04862 0.25932 0.73605 0.0
C186 C 0.10703 0.3145 0.75374 0.0
C187 C 0.09994 0.20127 0.87739 0.0
O188 O 0.08773 0.17491 0.8941 0.0
O189 O 0.04929 0.28525 0.82988 0.0
O190 O 0.02355 0.28847 0.7796 0.0
O191 O 0.13006 0.22026 0.78449 0.0
O192 O 0.0787 0.22971 0.77296 0.0
C193 C 0.02563 0.29587 0.81114 0.0
C194 C 0.10537 0.21479 0.76504 0.0
O195 O 0.08498 0.21159 0.85084 0.0
Mg196 Mg 0.68656 0.10072 0.78114 0.0
O197 O 0.69537 0.13633 0.82779 0.0
O198 O 0.74608 0.12324 0.84631 0.0
Mg199 Mg 0.76651 0.07631 0.81891 0.0
C200 C 0.71992 0.1413 0.84767 0.0
C201 C 0.63502 0.11767 0.72973 0.0
O202 O 0.65164 0.09111 0.71819 0.0
O203 O 0.72523 0.12936 0.74934 0.0
O204 O 0.7717 0.10636 0.76939 0.0
O205 O 0.66375 0.0543 0.80837 0.0
O206 O 0.71624 0.06488 0.8039 0.0
C207 C 0.75625 0.12446 0.74752 0.0
C208 C 0.6936 0.04375 0.81228 0.0
O209 O 0.64356 0.13105 0.75793 0.0
Mg210 Mg 0.93052 0.7196 0.81626 0.0
O211 O 0.91645 0.67501 0.7829 0.0
O212 O 0.94052 0.67401 0.73194 0.0
Mg213 Mg 0.97905 0.7168 0.73605 0.0
C214 C 0.92065 0.66163 0.75374 0.0
C215 C 0.92774 0.77486 0.87739 0.0
O216 O 0.93995 0.80122 0.8941 0.0
O217 O 0.97839 0.69088 0.82988 0.0
O218 O 1.00413 0.68766 0.7796 0.0
O219 O 0.89761 0.75586 0.78449 0.0
O220 O 0.94897 0.74641 0.77296 0.0
C221 C 1.00204 0.68025 0.81114 0.0
C222 C 0.92231 0.76134 0.76504 0.0
O223 O 0.9427 0.76454 0.85084 0.0
Mg224 Mg 0.20923 0.29259 0.06015 0.0
O225 O 0.20951 0.34344 0.0884 0.0
O226 O 0.24611 0.37696 0.06248 0.0
Mg227 Mg 0.27243 0.34641 0.02133 0.0
C228 C 0.22439 0.37199 0.08524 0.0
C229 C 0.14855 0.25627 0.09835 0.0
O230 O 0.16199 0.22588 0.09355 0.0
O231 O 0.1831 0.31577 0.01401 0.0
O232 O 0.22752 0.33674 -0.01157 0.0
O233 O 0.24876 0.27168 0.0946 0.0
O234 O 0.25779 0.29752 0.04561 0.0
C235 C 0.19793 0.32604 -0.01269 0.0
C236 C 0.26937 0.28239 0.07192 0.0
O237 O 0.16184 0.28332 0.08669 0.0
Mg238 Mg 0.20923 0.68354 0.90132 0.0
O239 O 0.20951 0.63269 0.87306 0.0
O240 O 0.24611 0.59916 0.89899 0.0
Mg241 Mg 0.27243 0.62972 0.94014 0.0
C242 C 0.22439 0.60414 0.87622 0.0
C243 C 0.14854 0.71986 0.86312 0.0
O244 O 0.16199 0.75025 0.86791 0.0
O245 O 0.1831 0.66036 0.94746 0.0
O246 O 0.22752 0.63938 0.97304 0.0
O247 O 0.24876 0.70444 0.86686 0.0
O248 O 0.25779 0.67861 0.91586 0.0
C249 C 0.19793 0.65009 0.97416 0.0
C250 C 0.26937 0.69373 0.88954 0.0
O251 O 0.16184 0.6928 0.87478 0.0
Mg252 Mg 0.35732 0.16148 0.89334 0.0
O253 O 0.33324 0.12246 0.85806 0.0
O254 O 0.29517 0.09747 0.89104 0.0
Mg255 Mg 0.28997 0.12359 0.94293 0.0
C256 C 0.31082 0.09997 0.86308 0.0
C257 C 0.38857 0.22253 0.85597 0.0
O258 O 0.37589 0.23664 0.8833 0.0
O259 O 0.31135 0.19739 0.88951 0.0
O260 O 0.26965 0.17127 0.91609 0.0
O261 O 0.37509 0.18913 0.93908 0.0
O262 O 0.34018 0.14546 0.94066 0.0
C263 C 0.28098 0.19584 0.89802 0.0
C264 C 0.35513 0.17012 0.95639 0.0
O265 O 0.38385 0.19056 0.85046 0.0
Mg266 Mg 0.81845 0.29259 0.90132 0.0
O267 O 0.81816 0.34344 0.87306 0.0
O268 O 0.78157 0.37696 0.89899 0.0
Mg269 Mg 0.75524 0.34641 0.94014 0.0
C270 C 0.80329 0.37199 0.87622 0.0
C271 C 0.87913 0.25627 0.86312 0.0
O272 O 0.86568 0.22588 0.86791 0.0
O273 O 0.84458 0.31577 0.94746 0.0
O274 O 0.80016 0.33674 0.97304 0.0
O275 O 0.77892 0.27168 0.86686 0.0
O276 O 0.76989 0.29752 0.91586 0.0
C277 C 0.82974 0.32604 0.97416 0.0
C278 C 0.75831 0.28239 0.88954 0.0
O279 O 0.86584 0.28332 0.87478 0.0
Mg280 Mg 0.67036 0.81464 0.89334 0.0
O281 O 0.69444 0.85366 0.85806 0.0
O282 O 0.7325 0.87865 0.89104 0.0
Mg283 Mg 0.73771 0.85254 0.94293 0.0
C284 C 0.71686 0.87616 0.86308 0.0
C285 C 0.63911 0.7536 0.85597 0.0
O286 O 0.65179 0.73948 0.8833 0.0
O287 O 0.71633 0.77874 0.88951 0.0
O288 O 0.75803 0.80485 0.91609 0.0
O289 O 0.65259 0.787 0.93908 0.0
O290 O 0.6875 0.83066 0.94066 0.0
C291 C 0.74669 0.78029 0.89802 0.0
C292 C 0.67255 0.80601 0.95639 0.0
O293 O 0.64383 0.78557 0.85046 0.0
Mg294 Mg 0.81845 0.68354 0.06015 0.0
O295 O 0.81816 0.63269 0.0884 0.0
O296 O 0.78157 0.59916 0.06248 0.0
Mg297 Mg 0.75524 0.62972 0.02133 0.0
C298 C 0.80329 0.60414 0.08524 0.0
C299 C 0.87913 0.71986 0.09835 0.0
O300 O 0.86568 0.75025 0.09355 0.0
O301 O 0.84458 0.66036 0.01401 0.0
O302 O 0.80016 0.63938 -0.01157 0.0
O303 O 0.77891 0.70444 0.0946 0.0
O304 O 0.76989 0.67861 0.04561 0.0
C305 C 0.82975 0.65009 -0.01269 0.0
C306 C 0.7583 0.69373 0.07192 0.0
O307 O 0.86584 0.6928 0.08669 0.0
Mg308 Mg 0.35732 0.81464 0.06812 0.0
O309 O 0.33324 0.85366 0.1034 0.0
O310 O 0.29517 0.87865 0.07042 0.0
Mg311 Mg 0.28996 0.85254 0.01854 0.0
C312 C 0.31082 0.87616 0.09839 0.0
C313 C 0.38857 0.7536 0.10549 0.0
O314 O 0.37589 0.73948 0.07816 0.0
O315 O 0.31135 0.77874 0.07195 0.0
O316 O 0.26965 0.80485 0.04538 0.0
O317 O 0.37509 0.787 0.02238 0.0
O318 O 0.34018 0.83066 0.0208 0.0
C319 C 0.28098 0.78029 0.06344 0.0
C320 C 0.35513 0.80601 0.00508 0.0
O321 O 0.38385 0.78557 0.11101 0.0
Mg322 Mg 0.67036 0.16148 0.06812 0.0
O323 O 0.69444 0.12246 0.1034 0.0
O324 O 0.7325 0.09747 0.07042 0.0
Mg325 Mg 0.73771 0.12359 0.01854 0.0
C326 C 0.71686 0.09997 0.09839 0.0
C327 C 0.63911 0.22253 0.10549 0.0
O328 O 0.65179 0.23664 0.07816 0.0
O329 O 0.71633 0.19739 0.07195 0.0
O330 O 0.75803 0.17127 0.04538 0.0
O331 O 0.65259 0.18913 0.02238 0.0
O332 O 0.6875 0.14546 0.0208 0.0
C333 C 0.74669 0.19584 0.06344 0.0
C334 C 0.67255 0.17012 0.00508 0.0
O335 O 0.64383 0.19056 0.11101 0.0
Mg336 Mg 0.9217 0.8013 0.66955 0.0
O337 O 0.91525 0.85717 0.68828 0.0
O338 O 0.9399 0.86617 0.73849 0.0
Mg339 Mg 0.98216 0.82776 0.73383 0.0
C340 C 0.92022 0.87534 0.71491 0.0
C341 C 0.90974 0.73255 0.62753 0.0
O342 O 0.9139 0.69971 0.62057 0.0
O343 O 0.96809 0.8132 0.6381 0.0
O344 O 0.9827 0.84635 0.67927 0.0
O345 O 0.8928 0.78199 0.71587 0.0
O346 O 0.94605 0.78743 0.71652 0.0
C347 C 0.99116 0.82593 0.65581 0.0
C348 C 0.91992 0.77863 0.73206 0.0
O349 O 0.92547 0.74569 0.65221 0.0
Mg350 Mg 0.18659 0.87541 0.68025 0.0
O351 O 0.19537 0.83975 0.63362 0.0
O352 O 0.24607 0.8528 0.61507 0.0
Mg353 Mg 0.26655 0.89973 0.64242 0.0
C354 C 0.21991 0.83475 0.61375 0.0
C355 C 0.13502 0.85861 0.73165 0.0
O356 O 0.15163 0.8852 0.74312 0.0
O357 O 0.22526 0.84678 0.71205 0.0
O358 O 0.27175 0.86969 0.69195 0.0
O359 O 0.16379 0.92181 0.653 0.0
O360 O 0.21629 0.9112 0.65745 0.0
C361 C 0.25629 0.85162 0.71382 0.0
C362 C 0.19364 0.93234 0.64908 0.0
O363 O 0.14357 0.84515 0.7035 0.0
Mg364 Mg 0.10598 0.17483 0.66955 0.0
O365 O 0.11242 0.11896 0.68828 0.0
O366 O 0.08778 0.10995 0.73849 0.0
Mg367 Mg 0.04552 0.14836 0.73383 0.0
C368 C 0.10745 0.10078 0.71491 0.0
C369 C 0.11794 0.24358 0.62753 0.0
O370 O 0.11378 0.27642 0.62057 0.0
O371 O 0.05959 0.16293 0.6381 0.0
O372 O 0.04497 0.12977 0.67927 0.0
O373 O 0.13488 0.19414 0.71587 0.0
O374 O 0.08162 0.18869 0.71652 0.0
C375 C 0.03651 0.15019 0.65581 0.0
C376 C 0.10776 0.1975 0.73206 0.0
O377 O 0.1022 0.23044 0.65221 0.0
Mg378 Mg 0.84109 0.10071 0.68025 0.0
O379 O 0.8323 0.13638 0.63362 0.0
O380 O 0.7816 0.12333 0.61507 0.0
Mg381 Mg 0.76113 0.07639 0.64242 0.0
C382 C 0.80777 0.14138 0.61375 0.0
C383 C 0.89266 0.11751 0.73165 0.0
O384 O 0.87604 0.09092 0.74312 0.0
O385 O 0.80242 0.12935 0.71205 0.0
O386 O 0.75593 0.10643 0.69195 0.0
O387 O 0.86389 0.05432 0.653 0.0
O388 O 0.81139 0.06492 0.65745 0.0
C389 C 0.77139 0.1245 0.71382 0.0
C390 C 0.83404 0.04379 0.64908 0.0
O391 O 0.8841 0.13098 0.7035 0.0
Mg392 Mg 0.9217 0.17483 0.29191 0.0
O393 O 0.91525 0.11896 0.27318 0.0
O394 O 0.9399 0.10995 0.22297 0.0
Mg395 Mg 0.98216 0.14836 0.22764 0.0
C396 C 0.92022 0.10078 0.24655 0.0
C397 C 0.90974 0.24358 0.33393 0.0
O398 O 0.9139 0.27642 0.34089 0.0
O399 O 0.96809 0.16293 0.32336 0.0
O400 O 0.9827 0.12977 0.28219 0.0
O401 O 0.8928 0.19414 0.24559 0.0
O402 O 0.94605 0.18869 0.24494 0.0
C403 C 0.99116 0.15019 0.30565 0.0
C404 C 0.91992 0.1975 0.22941 0.0
O405 O 0.92547 0.23044 0.30925 0.0
Mg406 Mg 0.84109 0.87541 0.28121 0.0
O407 O 0.8323 0.83975 0.32784 0.0
O408 O 0.7816 0.8528 0.34639 0.0
Mg409 Mg 0.76113 0.89974 0.31904 0.0
C410 C 0.80777 0.83475 0.34772 0.0
C411 C 0.89266 0.85861 0.22981 0.0
O412 O 0.87604 0.8852 0.21834 0.0
O413 O 0.80242 0.84678 0.24941 0.0
O414 O 0.75593 0.86969 0.26952 0.0
O415 O 0.86389 0.92181 0.30847 0.0
O416 O 0.81139 0.9112 0.30401 0.0
C417 C 0.77139 0.85162 0.24764 0.0
C418 C 0.83404 0.93234 0.31238 0.0
O419 O 0.8841 0.84515 0.25797 0.0
Mg420 Mg 0.10598 0.8013 0.29191 0.0
O421 O 0.11242 0.85717 0.27318 0.0
O422 O 0.08778 0.86617 0.22297 0.0
Mg423 Mg 0.04552 0.82776 0.22764 0.0
C424 C 0.10746 0.87534 0.24655 0.0
C425 C 0.11794 0.73255 0.33393 0.0
O426 O 0.11378 0.69971 0.34089 0.0
O427 O 0.05959 0.8132 0.32336 0.0
O428 O 0.04497 0.84635 0.28219 0.0
O429 O 0.13488 0.78198 0.24559 0.0
O430 O 0.08162 0.78743 0.24494 0.0
C431 C 0.03651 0.82593 0.30565 0.0
C432 C 0.10776 0.77863 0.22941 0.0
O433 O 0.1022 0.74569 0.30925 0.0
Mg434 Mg 0.18659 0.10071 0.28121 0.0
O435 O 0.19537 0.13638 0.32784 0.0
O436 O 0.24607 0.12333 0.34639 0.0
Mg437 Mg 0.26655 0.07639 0.31904 0.0
C438 C 0.21991 0.14138 0.34772 0.0
C439 C 0.13502 0.11751 0.22981 0.0
O440 O 0.15163 0.09092 0.21834 0.0
O441 O 0.22526 0.12935 0.24941 0.0
O442 O 0.27175 0.10643 0.26952 0.0
O443 O 0.16379 0.05432 0.30847 0.0
O444 O 0.21629 0.06492 0.30401 0.0
C445 C 0.25629 0.1245 0.24764 0.0
C446 C 0.19364 0.04379 0.31238 0.0
O447 O 0.14357 0.13098 0.25797 0.0
Mg448 Mg 0.69499 0.93855 0.76673 0.0
O449 O 0.70363 0.90394 0.81194 0.0
O450 O 0.74892 0.92076 0.83896 0.0
Mg451 Mg 0.77355 0.96167 0.8057 0.0
C452 C 0.72383 0.90133 0.83633 0.0
C453 C 0.62921 0.90481 0.74143 0.0
O454 O 0.64082 0.91145 0.71101 0.0
O455 O 0.68218 0.98533 0.8005 0.0
O456 O 0.73309 0.00106 0.81524 0.0
O457 O 0.72364 0.90264 0.73273 0.0
O458 O 0.7446 0.94683 0.7607 0.0
C459 C 0.70232 0.00707 0.81339 0.0
C460 C 0.74888 0.92119 0.7407 0.0
O461 O 0.64376 0.91666 0.76743 0.0
Mg462 Mg 0.09557 0.65164 0.78617 0.0
O463 O 0.11701 0.68391 0.82922 0.0
O464 O 0.1057 0.74052 0.82745 0.0
Mg465 Mg 0.05587 0.73656 0.80166 0.0
C466 C 0.12163 0.71486 0.83927 0.0
C467 C 0.09089 0.59143 0.72932 0.0
O468 O 0.07555 0.57682 0.70374 0.0
O469 O 0.04565 0.64124 0.81362 0.0
O470 O 0.05095 0.69094 0.83727 0.0
O471 O 0.12558 0.68445 0.74775 0.0
O472 O 0.07643 0.69868 0.76344 0.0
C473 C 0.03198 0.66734 0.82732 0.0
C474 C 0.10139 0.70534 0.7454 0.0
O475 O 0.07843 0.61867 0.74211 0.0
Mg476 Mg 0.33269 0.03758 0.76673 0.0
O477 O 0.32405 0.07219 0.81194 0.0
O478 O 0.27876 0.05536 0.83896 0.0
Mg479 Mg 0.25413 0.01446 0.8057 0.0
C480 C 0.30385 0.0748 0.83633 0.0
C481 C 0.39846 0.07131 0.74143 0.0
O482 O 0.38685 0.06468 0.71101 0.0
O483 O 0.3455 -0.0092 0.8005 0.0
O484 O 0.29459 0.97507 0.81524 0.0
O485 O 0.30404 0.07348 0.73273 0.0
O486 O 0.28308 0.02929 0.7607 0.0
C487 C 0.32535 0.96905 0.81339 0.0
C488 C 0.27879 0.05494 0.7407 0.0
O489 O 0.38391 0.05946 0.76743 0.0
Mg490 Mg 0.93211 0.32449 0.78617 0.0
O491 O 0.91066 0.29222 0.82922 0.0
O492 O 0.92198 0.2356 0.82745 0.0
Mg493 Mg 0.97181 0.23957 0.80166 0.0
C494 C 0.90605 0.26126 0.83927 0.0
C495 C 0.93679 0.38469 0.72932 0.0
O496 O 0.95212 0.39931 0.70374 0.0
O497 O 0.98203 0.33489 0.81362 0.0
O498 O 0.97672 0.28518 0.83727 0.0
O499 O 0.9021 0.29168 0.74775 0.0
O500 O 0.95124 0.27745 0.76344 0.0
C501 C 0.9957 0.30879 0.82732 0.0
C502 C 0.92629 0.27079 0.7454 0.0
O503 O 0.94924 0.35746 0.74211 0.0
Mg504 Mg 0.69498 0.03757 0.19473 0.0
O505 O 0.70363 0.07219 0.14953 0.0
O506 O 0.74892 0.05536 0.1225 0.0
Mg507 Mg 0.77355 0.01446 0.15577 0.0
C508 C 0.72383 0.0748 0.12513 0.0
C509 C 0.62921 0.07131 0.22003 0.0
O510 O 0.64082 0.06468 0.25045 0.0
O511 O 0.68218 -0.0092 0.16096 0.0
O512 O 0.73309 0.97507 0.14622 0.0
O513 O 0.72364 0.07348 0.22874 0.0
O514 O 0.74459 0.02929 0.20076 0.0
C515 C 0.70232 0.96905 0.14807 0.0
C516 C 0.74888 0.05494 0.22077 0.0
O517 O 0.64376 0.05946 0.19403 0.0
Mg518 Mg 0.93211 0.65164 0.17529 0.0
O519 O 0.91066 0.68391 0.13225 0.0
O520 O 0.92198 0.74052 0.13401 0.0
Mg521 Mg 0.97181 0.73656 0.15981 0.0
C522 C 0.90605 0.71486 0.12219 0.0
C523 C 0.93679 0.59143 0.23215 0.0
O524 O 0.95212 0.57682 0.25772 0.0
O525 O 0.98203 0.64124 0.14784 0.0
O526 O 0.97672 0.69094 0.1242 0.0
O527 O 0.9021 0.68445 0.21372 0.0
O528 O 0.95124 0.69868 0.19803 0.0
C529 C 0.99569 0.66734 0.13415 0.0
C530 C 0.92629 0.70534 0.21607 0.0
O531 O 0.94924 0.61867 0.21936 0.0
Mg532 Mg 0.33269 0.93855 0.19473 0.0
O533 O 0.32405 0.90394 0.14953 0.0
O534 O 0.27876 0.92076 0.1225 0.0
Mg535 Mg 0.25413 0.96167 0.15577 0.0
C536 C 0.30385 0.90133 0.12513 0.0
C537 C 0.39846 0.90481 0.22003 0.0
O538 O 0.38685 0.91145 0.25045 0.0
O539 O 0.3455 0.98533 0.16096 0.0
O540 O 0.29459 0.00106 0.14622 0.0
O541 O 0.30404 0.90264 0.22874 0.0
O542 O 0.28308 0.94683 0.20076 0.0
C543 C 0.32535 0.00707 0.14807 0.0
C544 C 0.27879 0.92119 0.22077 0.0
O545 O 0.38392 0.91667 0.19403 0.0
Mg546 Mg 0.09557 0.32449 0.17529 0.0
O547 O 0.11701 0.29221 0.13225 0.0
O548 O 0.1057 0.2356 0.13401 0.0
Mg549 Mg 0.05587 0.23957 0.15981 0.0
C550 C 0.12163 0.26126 0.12219 0.0
C551 C 0.09089 0.38469 0.23215 0.0
O552 O 0.07555 0.39931 0.25772 0.0
O553 O 0.04565 0.33489 0.14784 0.0
O554 O 0.05095 0.28518 0.1242 0.0
O555 O 0.12558 0.29168 0.21372 0.0
O556 O 0.07643 0.27744 0.19803 0.0
C557 C 0.03198 0.30879 0.13415 0.0
C558 C 0.10139 0.27079 0.21607 0.0
O559 O 0.07843 0.35745 0.21936 0.0
Mg560 Mg 0.83961 0.71239 0.9079 0.0
O561 O 0.82508 0.67026 0.86849 0.0
O562 O 0.77761 0.64757 0.88699 0.0
Mg563 Mg 0.76217 0.67096 0.93717 0.0
C564 C 0.80098 0.64917 0.8655 0.0
C565 C 0.89856 0.75723 0.89154 0.0
O566 O 0.89007 0.76394 0.92304 0.0
O567 O 0.7973 0.74978 0.89158 0.0
O568 O 0.75287 0.72307 0.91281 0.0
O569 O 0.86573 0.67393 0.94353 0.0
O570 O 0.81313 0.68624 0.9434 0.0
C571 C 0.76627 0.74847 0.89765 0.0
C572 C 0.83681 0.66907 0.95612 0.0
O573 O 0.88104 0.73617 0.87455 0.0
Mg574 Mg 0.83961 0.26374 0.05356 0.0
O575 O 0.82508 0.30586 0.09298 0.0
O576 O 0.77761 0.32855 0.07447 0.0
Mg577 Mg 0.76217 0.30517 0.0243 0.0
C578 C 0.80098 0.32695 0.09596 0.0
C579 C 0.89856 0.21889 0.06993 0.0
O580 O 0.89007 0.21219 0.03842 0.0
O581 O 0.7973 0.22635 0.06989 0.0
O582 O 0.75287 0.25306 0.04866 0.0
O583 O 0.86573 0.30219 0.01794 0.0
O584 O 0.81313 0.28989 0.01807 0.0
C585 C 0.76627 0.22766 0.06382 0.0
C586 C 0.83681 0.30706 0.00534 0.0
O587 O 0.88104 0.23996 0.08692 0.0
Mg588 Mg 0.67527 0.74272 0.05483 0.0
O589 O 0.69327 0.78833 0.08635 0.0
O590 O 0.74299 0.80354 0.06813 0.0
Mg591 Mg 0.75668 0.76785 0.02411 0.0
C592 C 0.71856 0.80743 0.08803 0.0
C593 C 0.60973 0.72912 0.09468 0.0
O594 O 0.61609 0.69656 0.08829 0.0
O595 O 0.66493 0.77768 0.00902 0.0
O596 O 0.71594 0.79097 -0.00836 0.0
O597 O 0.70263 0.7065 0.08987 0.0
O598 O 0.72185 0.72837 0.04177 0.0
C599 C 0.68482 0.79281 -0.01135 0.0
C600 C 0.72631 0.70969 0.06817 0.0
O601 O 0.62688 0.75253 0.0808 0.0
Mg602 Mg 0.18807 0.71239 0.05356 0.0
O603 O 0.2026 0.67026 0.09298 0.0
O604 O 0.25007 0.64757 0.07447 0.0
Mg605 Mg 0.2655 0.67096 0.0243 0.0
C606 C 0.22669 0.64917 0.09596 0.0
C607 C 0.12912 0.75723 0.06993 0.0
O608 O 0.13761 0.76394 0.03842 0.0
O609 O 0.23038 0.74978 0.06989 0.0
O610 O 0.2748 0.72307 0.04866 0.0
O611 O 0.16195 0.67393 0.01794 0.0
O612 O 0.21454 0.68624 0.01807 0.0
C613 C 0.2614 0.74847 0.06382 0.0
C614 C 0.19086 0.66907 0.00534 0.0
O615 O 0.14664 0.73617 0.08692 0.0
Mg616 Mg 0.3524 0.23341 0.05483 0.0
O617 O 0.33441 0.18779 0.08635 0.0
O618 O 0.28469 0.17259 0.06813 0.0
Mg619 Mg 0.271 0.20827 0.02411 0.0
C620 C 0.30912 0.1687 0.08803 0.0
C621 C 0.41794 0.24701 0.09468 0.0
O622 O 0.41158 0.27957 0.08829 0.0
O623 O 0.36274 0.19845 0.00902 0.0
O624 O 0.31174 0.18516 -0.00836 0.0
O625 O 0.32504 0.26962 0.08987 0.0
O626 O 0.30583 0.24776 0.04177 0.0
C627 C 0.34286 0.18332 -0.01135 0.0
C628 C 0.30136 0.26643 0.06817 0.0
O629 O 0.40079 0.2236 0.0808 0.0
Mg630 Mg 0.18807 0.26374 0.9079 0.0
O631 O 0.2026 0.30586 0.86849 0.0
O632 O 0.25006 0.32855 0.88699 0.0
Mg633 Mg 0.2655 0.30517 0.93717 0.0
C634 C 0.22669 0.32695 0.8655 0.0
C635 C 0.12912 0.21889 0.89154 0.0
O636 O 0.13761 0.21219 0.92304 0.0
O637 O 0.23038 0.22635 0.89158 0.0
O638 O 0.2748 0.25306 0.91281 0.0
O639 O 0.16195 0.30219 0.94353 0.0
O640 O 0.21454 0.28989 0.9434 0.0
C641 C 0.2614 0.22766 0.89765 0.0
C642 C 0.19086 0.30705 0.95612 0.0
O643 O 0.14664 0.23996 0.87455 0.0
Mg644 Mg 0.67527 0.23341 0.90663 0.0
O645 O 0.69327 0.18779 0.87512 0.0
O646 O 0.74299 0.17259 0.89333 0.0
Mg647 Mg 0.75668 0.20827 0.93736 0.0
C648 C 0.71856 0.1687 0.87343 0.0
C649 C 0.60973 0.24701 0.86678 0.0
O650 O 0.61609 0.27957 0.87317 0.0
O651 O 0.66493 0.19844 0.95245 0.0
O652 O 0.71594 0.18516 0.96982 0.0
O653 O 0.70263 0.26962 0.8716 0.0
O654 O 0.72185 0.24776 0.91969 0.0
C655 C 0.68482 0.18331 0.97281 0.0
C656 C 0.72631 0.26643 0.89329 0.0
O657 O 0.62688 0.2236 0.88066 0.0
Mg658 Mg 0.3524 0.74272 0.90663 0.0
O659 O 0.33441 0.78833 0.87512 0.0
O660 O 0.28469 0.80354 0.89333 0.0
Mg661 Mg 0.271 0.76786 0.93736 0.0
C662 C 0.30912 0.80743 0.87343 0.0
C663 C 0.41794 0.72912 0.86678 0.0
O664 O 0.41158 0.69656 0.87317 0.0
O665 O 0.36274 0.77768 0.95245 0.0
O666 O 0.31174 0.79097 0.96982 0.0
O667 O 0.32504 0.70651 0.8716 0.0
O668 O 0.30583 0.72837 0.91969 0.0
C669 C 0.34286 0.79281 0.97281 0.0
C670 C 0.30136 0.70969 0.89329 0.0
O671 O 0.40079 0.75253 0.88066 0.0
Mg672 Mg 0.83379 0.59526 0.7659 0.0
O673 O 0.82235 0.62526 0.81459 0.0
O674 O 0.77524 0.60457 0.83493 0.0
Mg675 Mg 0.75531 0.56369 0.79894 0.0
C676 C 0.79961 0.6251 0.83673 0.0
C677 C 0.89865 0.63342 0.74482 0.0
O678 O 0.88772 0.63025 0.71359 0.0
O679 O 0.84924 0.54568 0.79468 0.0
O680 O 0.79858 0.52781 0.80721 0.0
O681 O 0.80305 0.63288 0.73483 0.0
O682 O 0.7851 0.58442 0.75752 0.0
C683 C 0.82948 0.52263 0.8058 0.0
C684 C 0.7792 0.61153 0.74015 0.0
O685 O 0.88367 0.61889 0.76916 0.0
Mg686 Mg 0.19389 0.38086 0.7659 0.0
O687 O 0.20533 0.35086 0.81459 0.0
O688 O 0.25243 0.37156 0.83493 0.0
Mg689 Mg 0.27236 0.41244 0.79894 0.0
C690 C 0.22807 0.35103 0.83673 0.0
C691 C 0.12903 0.3427 0.74482 0.0
O692 O 0.13996 0.34588 0.71359 0.0
O693 O 0.17843 0.43045 0.79468 0.0
O694 O 0.2291 0.44832 0.80721 0.0
O695 O 0.22462 0.34325 0.73483 0.0
O696 O 0.24258 0.39171 0.75752 0.0
C697 C 0.1982 0.4535 0.8058 0.0
C698 C 0.24847 0.36459 0.74015 0.0
O699 O 0.144 0.35724 0.76916 0.0
Mg700 Mg 0.19389 0.59526 0.19556 0.0
O701 O 0.20533 0.62526 0.14687 0.0
O702 O 0.25243 0.60457 0.12654 0.0
Mg703 Mg 0.27236 0.56369 0.16253 0.0
C704 C 0.22807 0.6251 0.12474 0.0
C705 C 0.12903 0.63342 0.21665 0.0
O706 O 0.13996 0.63025 0.24787 0.0
O707 O 0.17843 0.54568 0.16679 0.0
O708 O 0.2291 0.52781 0.15425 0.0
O709 O 0.22462 0.63288 0.22663 0.0
O710 O 0.24258 0.58442 0.20394 0.0
C711 C 0.1982 0.52263 0.15566 0.0
C712 C 0.24847 0.61153 0.22132 0.0
O713 O 0.144 0.61889 0.19231 0.0
Mg714 Mg 0.83379 0.38086 0.19556 0.0
O715 O 0.82235 0.35086 0.14687 0.0
O716 O 0.77524 0.37156 0.12654 0.0
Mg717 Mg 0.75531 0.41244 0.16253 0.0
C718 C 0.79961 0.35103 0.12474 0.0
C719 C 0.89865 0.3427 0.21665 0.0
O720 O 0.88772 0.34588 0.24787 0.0
O721 O 0.84925 0.43045 0.16679 0.0
O722 O 0.79858 0.44832 0.15425 0.0
O723 O 0.80306 0.34325 0.22663 0.0
O724 O 0.7851 0.39171 0.20394 0.0
C725 C 0.82948 0.4535 0.15566 0.0
C726 C 0.7792 0.36459 0.22132 0.0
O727 O 0.88368 0.35724 0.19231 0.0
Mg728 Mg 0.34455 0.55111 0.68286 0.0
O729 O 0.33091 0.57956 0.63287 0.0
O730 O 0.28264 0.55757 0.61586 0.0
Mg731 Mg 0.26537 0.51495 0.65014 0.0
C732 C 0.30663 0.57827 0.61218 0.0
C733 C 0.40679 0.57429 0.71892 0.0
O734 O 0.39925 0.5435 0.73045 0.0
O735 O 0.30319 0.57921 0.71333 0.0
O736 O 0.25819 0.55261 0.69373 0.0
O737 O 0.36796 0.50179 0.65921 0.0
O738 O 0.31572 0.51057 0.66734 0.0
C739 C 0.27207 0.57351 0.71425 0.0
C740 C 0.33835 0.49003 0.65815 0.0
O741 O 0.38768 0.58818 0.69723 0.0
Mg742 Mg 0.68312 0.42502 0.68286 0.0
O743 O 0.69676 0.39656 0.63287 0.0
O744 O 0.74504 0.41855 0.61586 0.0
Mg745 Mg 0.76231 0.46117 0.65014 0.0
C746 C 0.72105 0.39785 0.61218 0.0
C747 C 0.62088 0.40183 0.71892 0.0
O748 O 0.62843 0.43263 0.73045 0.0
O749 O 0.72449 0.39692 0.71333 0.0
O750 O 0.76949 0.42351 0.69373 0.0
O751 O 0.65972 0.47434 0.65921 0.0
O752 O 0.71195 0.46555 0.66734 0.0
C753 C 0.75561 0.40262 0.71425 0.0
C754 C 0.68933 0.4861 0.65815 0.0
O755 O 0.64 0.38795 0.69723 0.0
Mg756 Mg 0.34455 0.42502 0.27861 0.0
O757 O 0.33091 0.39656 0.3286 0.0
O758 O 0.28264 0.41855 0.3456 0.0
Mg759 Mg 0.26537 0.46117 0.31132 0.0
C760 C 0.30663 0.39785 0.34929 0.0
C761 C 0.40679 0.40183 0.24254 0.0
O762 O 0.39925 0.43263 0.23102 0.0
O763 O 0.30319 0.39692 0.24813 0.0
O764 O 0.25819 0.42351 0.26773 0.0
O765 O 0.36796 0.47434 0.30225 0.0
O766 O 0.31572 0.46555 0.29412 0.0
C767 C 0.27207 0.40262 0.24722 0.0
C768 C 0.33835 0.4861 0.30331 0.0
O769 O 0.38768 0.38795 0.26423 0.0
Mg770 Mg 0.68312 0.55111 0.27861 0.0
O771 O 0.69676 0.57956 0.3286 0.0
O772 O 0.74504 0.55757 0.3456 0.0
Mg773 Mg 0.76231 0.51495 0.31132 0.0
C774 C 0.72105 0.57827 0.34929 0.0
C775 C 0.62088 0.57429 0.24254 0.0
O776 O 0.62843 0.5435 0.23102 0.0
O777 O 0.72449 0.57921 0.24813 0.0
O778 O 0.76949 0.55261 0.26773 0.0
O779 O 0.65972 0.50179 0.30225 0.0
O780 O 0.71195 0.51057 0.29412 0.0
C781 C 0.75561 0.57351 0.24722 0.0
C782 C 0.68933 0.49003 0.30331 0.0
O783 O 0.64 0.58818 0.26423 0.0
Mg784 Mg 0.17521 0.74259 0.5549 0.0
O785 O 0.19323 0.78823 0.58636 0.0
O786 O 0.24295 0.8034 0.56811 0.0
Mg787 Mg 0.2566 0.76769 0.5241 0.0
C788 C 0.21853 0.80732 0.58801 0.0
C789 C 0.10971 0.72903 0.59483 0.0
O790 O 0.11608 0.69646 0.58851 0.0
O791 O 0.16484 0.77753 0.50907 0.0
O792 O 0.21584 0.7908 0.49168 0.0
O793 O 0.20261 0.70642 0.58995 0.0
O794 O 0.22178 0.72822 0.54181 0.0
C795 C 0.18472 0.79264 0.48869 0.0
C796 C 0.22627 0.70958 0.56823 0.0
O797 O 0.12685 0.75243 0.5809 0.0
Mg798 Mg 0.17521 0.23354 0.40656 0.0
O799 O 0.19323 0.18789 0.37511 0.0
O800 O 0.24295 0.17272 0.39335 0.0
Mg801 Mg 0.2566 0.20844 0.43736 0.0
C802 C 0.21853 0.1688 0.37345 0.0
C803 C 0.10971 0.24709 0.36663 0.0
O804 O 0.11608 0.27967 0.37295 0.0
O805 O 0.16484 0.1986 0.45239 0.0
O806 O 0.21584 0.18533 0.46979 0.0
O807 O 0.20261 0.26971 0.37151 0.0
O808 O 0.22178 0.24791 0.41966 0.0
C809 C 0.18472 0.18348 0.47277 0.0
C810 C 0.22627 0.26655 0.39324 0.0
O811 O 0.12685 0.2237 0.38056 0.0
Mg812 Mg 0.33972 0.71253 0.40819 0.0
O813 O 0.32508 0.67034 0.36888 0.0
O814 O 0.27768 0.64766 0.38757 0.0
Mg815 Mg 0.26235 0.67118 0.43772 0.0
C816 C 0.30099 0.64923 0.36601 0.0
C817 C 0.39873 0.75722 0.39164 0.0
O818 O 0.39036 0.76392 0.42318 0.0
O819 O 0.29738 0.74989 0.39186 0.0
O820 O 0.25301 0.72321 0.41322 0.0
O821 O 0.3659 0.67407 0.44376 0.0
O822 O 0.31332 0.68647 0.44381 0.0
C823 C 0.26636 0.74859 0.39798 0.0
C824 C 0.33702 0.66924 0.45644 0.0
O825 O 0.3811 0.73622 0.37469 0.0
Mg826 Mg 0.85246 0.74259 0.40656 0.0
O827 O 0.83444 0.78823 0.37511 0.0
O828 O 0.78473 0.80341 0.39335 0.0
Mg829 Mg 0.77107 0.76769 0.43736 0.0
C830 C 0.80915 0.80733 0.37345 0.0
C831 C 0.91797 0.72903 0.36663 0.0
O832 O 0.9116 0.69646 0.37295 0.0
O833 O 0.86284 0.77753 0.45239 0.0
O834 O 0.81184 0.7908 0.46979 0.0
O835 O 0.82506 0.70642 0.37151 0.0
O836 O 0.8059 0.72822 0.41966 0.0
C837 C 0.84295 0.79265 0.47277 0.0
C838 C 0.80141 0.70958 0.39324 0.0
O839 O 0.90083 0.75243 0.38056 0.0
Mg840 Mg 0.68795 0.2636 0.40819 0.0
O841 O 0.7026 0.30578 0.36888 0.0
O842 O 0.75 0.32847 0.38757 0.0
Mg843 Mg 0.76533 0.30495 0.43772 0.0
C844 C 0.72668 0.32689 0.36601 0.0
C845 C 0.62895 0.2189 0.39164 0.0
O846 O 0.63732 0.21221 0.42318 0.0
O847 O 0.73029 0.22623 0.39186 0.0
O848 O 0.77467 0.25291 0.41322 0.0
O849 O 0.66177 0.30205 0.44376 0.0
O850 O 0.71435 0.28966 0.44381 0.0
C851 C 0.76131 0.22754 0.39798 0.0
C852 C 0.69066 0.30689 0.45644 0.0
O853 O 0.64658 0.23991 0.37469 0.0
Mg854 Mg 0.85246 0.23354 0.5549 0.0
O855 O 0.83444 0.18789 0.58636 0.0
O856 O 0.78473 0.17272 0.56811 0.0
Mg857 Mg 0.77107 0.20844 0.5241 0.0
C858 C 0.80915 0.1688 0.58801 0.0
C859 C 0.91797 0.24709 0.59483 0.0
O860 O 0.9116 0.27967 0.58851 0.0
O861 O 0.86284 0.1986 0.50907 0.0
O862 O 0.81184 0.18533 0.49168 0.0
O863 O 0.82506 0.26971 0.58995 0.0
O864 O 0.8059 0.24791 0.54181 0.0
C865 C 0.84295 0.18348 0.48869 0.0
C866 C 0.80141 0.26655 0.56823 0.0
O867 O 0.90083 0.2237 0.5809 0.0
Mg868 Mg 0.33972 0.2636 0.55327 0.0
O869 O 0.32508 0.30578 0.59258 0.0
O870 O 0.27768 0.32847 0.57389 0.0
Mg871 Mg 0.26235 0.30495 0.52375 0.0
C872 C 0.30099 0.32689 0.59545 0.0
C873 C 0.39873 0.2189 0.56983 0.0
O874 O 0.39036 0.21221 0.53829 0.0
O875 O 0.29738 0.22623 0.5696 0.0
O876 O 0.25301 0.25291 0.54824 0.0
O877 O 0.3659 0.30206 0.5177 0.0
O878 O 0.31332 0.28966 0.51766 0.0
C879 C 0.26636 0.22754 0.56348 0.0
C880 C 0.33702 0.30689 0.50503 0.0
O881 O 0.3811 0.23991 0.58678 0.0
Mg882 Mg 0.68795 0.71253 0.55327 0.0
O883 O 0.7026 0.67034 0.59258 0.0
O884 O 0.75 0.64766 0.57389 0.0
Mg885 Mg 0.76533 0.67118 0.52375 0.0
C886 C 0.72668 0.64923 0.59545 0.0
C887 C 0.62895 0.75722 0.56983 0.0
O888 O 0.63732 0.76392 0.53829 0.0
O889 O 0.73029 0.74989 0.5696 0.0
O890 O 0.77467 0.72321 0.54824 0.0
O891 O 0.66177 0.67407 0.5177 0.0
O892 O 0.71436 0.68646 0.51766 0.0
C893 C 0.76131 0.74859 0.56348 0.0
C894 C 0.69066 0.66924 0.50503 0.0
O895 O 0.64658 0.73622 0.58678 0.0
Mg896 Mg 0.18312 0.42487 0.18282 0.0
O897 O 0.19674 0.39651 0.13276 0.0
O898 O 0.24498 0.41858 0.11574 0.0
Mg899 Mg 0.26222 0.4612 0.15003 0.0
C900 C 0.22101 0.39786 0.11205 0.0
C901 C 0.12093 0.40158 0.2189 0.0
O902 O 0.12845 0.43238 0.23044 0.0
O903 O 0.22458 0.39683 0.21322 0.0
O904 O 0.26955 0.42347 0.19354 0.0
O905 O 0.15963 0.47425 0.15936 0.0
O906 O 0.21189 0.46545 0.16733 0.0
C907 C 0.25569 0.40255 0.21405 0.0
C908 C 0.18923 0.48603 0.1583 0.0
O909 O 0.14005 0.38773 0.1972 0.0
Mg910 Mg 0.84456 0.55126 0.18282 0.0
O911 O 0.83093 0.57962 0.13276 0.0
O912 O 0.7827 0.55754 0.11574 0.0
Mg913 Mg 0.76546 0.51493 0.15003 0.0
C914 C 0.80666 0.57827 0.11205 0.0
C915 C 0.90675 0.57454 0.2189 0.0
O916 O 0.89923 0.54375 0.23044 0.0
O917 O 0.8031 0.57929 0.21322 0.0
O918 O 0.75813 0.55265 0.19354 0.0
O919 O 0.86805 0.50188 0.15936 0.0
O920 O 0.81579 0.51067 0.16733 0.0
C921 C 0.77198 0.57357 0.21405 0.0
C922 C 0.83845 0.4901 0.1583 0.0
O923 O 0.88763 0.58839 0.1972 0.0
Mg924 Mg 0.84456 0.42487 0.77865 0.0
O925 O 0.83093 0.39651 0.8287 0.0
O926 O 0.7827 0.41858 0.84573 0.0
Mg927 Mg 0.76545 0.4612 0.81143 0.0
C928 C 0.80666 0.39786 0.84942 0.0
C929 C 0.90675 0.40159 0.74256 0.0
O930 O 0.89923 0.43238 0.73102 0.0
O931 O 0.8031 0.39683 0.74825 0.0
O932 O 0.75813 0.42347 0.76792 0.0
O933 O 0.86805 0.47425 0.8021 0.0
O934 O 0.81579 0.46545 0.79414 0.0
C935 C 0.77198 0.40255 0.74741 0.0
C936 C 0.83845 0.48603 0.80316 0.0
O937 O 0.88763 0.38773 0.76427 0.0
Mg938 Mg 0.18312 0.55126 0.77865 0.0
O939 O 0.19674 0.57962 0.8287 0.0
O940 O 0.24498 0.55754 0.84573 0.0
Mg941 Mg 0.26222 0.51493 0.81143 0.0
C942 C 0.22101 0.57827 0.84942 0.0
C943 C 0.12093 0.57454 0.74256 0.0
O944 O 0.12845 0.54375 0.73102 0.0
O945 O 0.22458 0.57929 0.74825 0.0
O946 O 0.26955 0.55265 0.76792 0.0
O947 O 0.15963 0.50188 0.8021 0.0
O948 O 0.21189 0.51067 0.79414 0.0
C949 C 0.25569 0.57357 0.74741 0.0
C950 C 0.18923 0.4901 0.80316 0.0
O951 O 0.14005 0.58839 0.76427 0.0
Mg952 Mg 0.69425 0.38079 0.26629 0.0
O953 O 0.7055 0.35081 0.31503 0.0
O954 O 0.75249 0.37156 0.33559 0.0
Mg955 Mg 0.77254 0.41245 0.29968 0.0
C956 C 0.72814 0.351 0.33727 0.0
C957 C 0.62935 0.34273 0.24496 0.0
O958 O 0.64027 0.34601 0.21375 0.0
O959 O 0.67864 0.43037 0.29498 0.0
O960 O 0.72923 0.44834 0.30772 0.0
O961 O 0.72511 0.34319 0.23537 0.0
O962 O 0.74296 0.39167 0.25812 0.0
C963 C 0.69833 0.45345 0.30617 0.0
C964 C 0.74893 0.36455 0.24077 0.0
O965 O 0.64435 0.35715 0.26935 0.0
Mg966 Mg 0.33343 0.59533 0.26629 0.0
O967 O 0.32218 0.62532 0.31503 0.0
O968 O 0.27519 0.60456 0.33559 0.0
Mg969 Mg 0.25513 0.56367 0.29968 0.0
C970 C 0.29953 0.62512 0.33727 0.0
C971 C 0.39833 0.6334 0.24496 0.0
O972 O 0.38741 0.63011 0.21375 0.0
O973 O 0.34904 0.54575 0.29498 0.0
O974 O 0.29845 0.52779 0.30772 0.0
O975 O 0.30256 0.63293 0.23537 0.0
O976 O 0.28471 0.58446 0.25812 0.0
C977 C 0.32935 0.52267 0.30617 0.0
C978 C 0.27874 0.61157 0.24077 0.0
O979 O 0.38332 0.61898 0.26935 0.0
Mg980 Mg 0.69424 0.59533 0.69518 0.0
O981 O 0.7055 0.62532 0.64644 0.0
O982 O 0.75249 0.60456 0.62588 0.0
Mg983 Mg 0.77254 0.56367 0.66179 0.0
C984 C 0.72814 0.62512 0.62419 0.0
C985 C 0.62935 0.6334 0.7165 0.0
O986 O 0.64027 0.63011 0.74772 0.0
O987 O 0.67863 0.54575 0.66649 0.0
O988 O 0.72923 0.52779 0.65374 0.0
O989 O 0.72511 0.63293 0.7261 0.0
O990 O 0.74296 0.58446 0.70335 0.0
C991 C 0.69833 0.52267 0.6553 0.0
C992 C 0.74893 0.61157 0.7207 0.0
O993 O 0.64435 0.61898 0.69211 0.0
Mg994 Mg 0.33343 0.38079 0.69518 0.0
O995 O 0.32218 0.35081 0.64644 0.0
O996 O 0.27519 0.37156 0.62588 0.0
Mg997 Mg 0.25513 0.41245 0.66179 0.0
C998 C 0.29953 0.351 0.62419 0.0
C999 C 0.39833 0.34273 0.7165 0.0
O1000 O 0.38741 0.34601 0.74772 0.0
O1001 O 0.34904 0.43037 0.66649 0.0
O1002 O 0.29845 0.44834 0.65374 0.0
O1003 O 0.30257 0.34319 0.7261 0.0
O1004 O 0.28472 0.39167 0.70335 0.0
C1005 C 0.32935 0.45345 0.6553 0.0
C1006 C 0.27874 0.36455 0.7207 0.0
O1007 O 0.38332 0.35715 0.69211 0.0
Mg1008 Mg 0.85733 0.16156 0.39342 0.0
O1009 O 0.83323 0.12248 0.35822 0.0
O1010 O 0.79527 0.09743 0.39128 0.0
Mg1011 Mg 0.79014 0.12355 0.44317 0.0
C1012 C 0.81085 0.09995 0.36328 0.0
C1013 C 0.88846 0.22261 0.35594 0.0
O1014 O 0.8758 0.23674 0.38327 0.0
O1015 O 0.81128 0.19738 0.38968 0.0
O1016 O 0.76969 0.17118 0.41636 0.0
O1017 O 0.87515 0.18927 0.4391 0.0
O1018 O 0.84031 0.14554 0.44078 0.0
C1019 C 0.78094 0.19575 0.39824 0.0
C1020 C 0.85524 0.17025 0.45645 0.0
O1021 O 0.88375 0.19063 0.35046 0.0
Mg1022 Mg 0.85733 0.81457 0.56804 0.0
O1023 O 0.83323 0.85365 0.60325 0.0
O1024 O 0.79527 0.87869 0.57018 0.0
Mg1025 Mg 0.79014 0.85258 0.51829 0.0
C1026 C 0.81085 0.87617 0.59818 0.0
C1027 C 0.88846 0.75352 0.60552 0.0
O1028 O 0.8758 0.73938 0.57819 0.0
O1029 O 0.81128 0.77874 0.57179 0.0
O1030 O 0.76968 0.80495 0.5451 0.0
O1031 O 0.87514 0.78685 0.52236 0.0
O1032 O 0.8403 0.83059 0.52068 0.0
C1033 C 0.78094 0.78037 0.56322 0.0
C1034 C 0.85524 0.80588 0.50502 0.0
O1035 O 0.88375 0.7855 0.611 0.0
Mg1036 Mg 0.70922 0.29254 0.56038 0.0
O1037 O 0.70953 0.34343 0.58857 0.0
O1038 O 0.74607 0.37696 0.56256 0.0
Mg1039 Mg 0.77227 0.3464 0.52134 0.0
C1040 C 0.72439 0.37199 0.58536 0.0
C1041 C 0.64849 0.25627 0.59862 0.0
O1042 O 0.66177 0.22582 0.59371 0.0
O1043 O 0.68296 0.31562 0.51428 0.0
O1044 O 0.72725 0.33679 0.48856 0.0
O1045 O 0.74886 0.27174 0.59477 0.0
O1046 O 0.75773 0.2975 0.54568 0.0
C1047 C 0.69769 0.326 0.48756 0.0
C1048 C 0.76938 0.28244 0.572 0.0
O1049 O 0.6619 0.2833 0.58705 0.0
Mg1050 Mg 0.17035 0.16156 0.56804 0.0
O1051 O 0.19444 0.12248 0.60325 0.0
O1052 O 0.23241 0.09743 0.57018 0.0
Mg1053 Mg 0.23754 0.12355 0.51829 0.0
C1054 C 0.21682 0.09995 0.59818 0.0
C1055 C 0.13921 0.22261 0.60552 0.0
O1056 O 0.15188 0.23674 0.57819 0.0
O1057 O 0.2164 0.19738 0.57179 0.0
O1058 O 0.25799 0.17118 0.54511 0.0
O1059 O 0.15253 0.18927 0.52236 0.0
O1060 O 0.18737 0.14554 0.52068 0.0
C1061 C 0.24674 0.19575 0.56322 0.0
C1062 C 0.17244 0.17024 0.50502 0.0
O1063 O 0.14392 0.19063 0.611 0.0
Mg1064 Mg 0.31846 0.68359 0.56038 0.0
O1065 O 0.31815 0.63269 0.58857 0.0
O1066 O 0.28161 0.59916 0.56256 0.0
Mg1067 Mg 0.2554 0.62972 0.52134 0.0
C1068 C 0.30329 0.60414 0.58536 0.0
C1069 C 0.37919 0.71986 0.59862 0.0
O1070 O 0.3659 0.7503 0.59371 0.0
O1071 O 0.34472 0.66051 0.51428 0.0
O1072 O 0.30042 0.63934 0.48856 0.0
O1073 O 0.27882 0.70438 0.59477 0.0
O1074 O 0.26994 0.67863 0.54568 0.0
C1075 C 0.32999 0.65012 0.48756 0.0
C1076 C 0.25829 0.69369 0.572 0.0
O1077 O 0.36578 0.69283 0.58705 0.0
Mg1078 Mg 0.17035 0.81457 0.39342 0.0
O1079 O 0.19444 0.85365 0.35822 0.0
O1080 O 0.2324 0.87869 0.39128 0.0
Mg1081 Mg 0.23754 0.85258 0.44317 0.0
C1082 C 0.21683 0.87617 0.36328 0.0
C1083 C 0.13922 0.75352 0.35594 0.0
O1084 O 0.15188 0.73938 0.38327 0.0
O1085 O 0.2164 0.77874 0.38968 0.0
O1086 O 0.25799 0.80495 0.41636 0.0
O1087 O 0.15253 0.78685 0.4391 0.0
O1088 O 0.18737 0.83059 0.44078 0.0
C1089 C 0.24674 0.78037 0.39824 0.0
C1090 C 0.17244 0.80588 0.45645 0.0
O1091 O 0.14392 0.78549 0.35046 0.0
Mg1092 Mg 0.70922 0.68359 0.40109 0.0
O1093 O 0.70953 0.63269 0.3729 0.0
O1094 O 0.74607 0.59916 0.3989 0.0
Mg1095 Mg 0.77227 0.62972 0.44012 0.0
C1096 C 0.72439 0.60414 0.3761 0.0
C1097 C 0.64849 0.71986 0.36284 0.0
O1098 O 0.66177 0.7503 0.36776 0.0
O1099 O 0.68296 0.6605 0.44719 0.0
O1100 O 0.72725 0.63934 0.4729 0.0
O1101 O 0.74885 0.70438 0.36669 0.0
O1102 O 0.75773 0.67863 0.41578 0.0
C1103 C 0.69769 0.65012 0.47391 0.0
C1104 C 0.76938 0.69369 0.38946 0.0
O1105 O 0.6619 0.69283 0.37442 0.0
Mg1106 Mg 0.31846 0.29254 0.40109 0.0
O1107 O 0.31815 0.34343 0.3729 0.0
O1108 O 0.28161 0.37696 0.3989 0.0
Mg1109 Mg 0.2554 0.3464 0.44012 0.0
C1110 C 0.30329 0.37199 0.3761 0.0
C1111 C 0.37919 0.25627 0.36284 0.0
O1112 O 0.3659 0.22582 0.36776 0.0
O1113 O 0.34472 0.31562 0.44719 0.0
O1114 O 0.30042 0.33679 0.4729 0.0
O1115 O 0.27882 0.27174 0.36669 0.0
O1116 O 0.26994 0.2975 0.41578 0.0
C1117 C 0.32999 0.326 0.47391 0.0
C1118 C 0.25829 0.28244 0.38946 0.0
O1119 O 0.36578 0.2833 0.37442 0.0
Mg1120 Mg 0.5944 0.1827 0.7705 0.0
O1121 O 0.60134 0.211 0.82018 0.0
O1122 O 0.56976 0.25793 0.82419 0.0
Mg1123 Mg 0.53678 0.2561 0.77684 0.0
C1124 C 0.59156 0.23768 0.83609 0.0
C1125 C 0.60676 0.1303 0.71 0.0
O1126 O 0.60007 0.11595 0.68058 0.0
O1127 O 0.5465 0.15944 0.79018 0.0
O1128 O 0.51308 0.20521 0.79453 0.0
O1129 O 0.62758 0.22197 0.74292 0.0
O1130 O 0.57459 0.22746 0.7477 0.0
C1131 C 0.51888 0.17299 0.79784 0.0
C1132 C 0.6016 0.2395 0.73664 0.0
O1133 O 0.58811 0.15412 0.72088 0.0
Mg1134 Mg 0.43328 0.79343 0.7705 0.0
O1135 O 0.42634 0.76512 0.82018 0.0
O1136 O 0.45791 0.71819 0.82419 0.0
Mg1137 Mg 0.4909 0.72003 0.77684 0.0
C1138 C 0.43612 0.73845 0.83609 0.0
C1139 C 0.42091 0.84582 0.71 0.0
O1140 O 0.42761 0.86018 0.68058 0.0
O1141 O 0.48118 0.81668 0.79018 0.0
O1142 O 0.51459 0.77091 0.79453 0.0
O1143 O 0.40009 0.75416 0.74292 0.0
O1144 O 0.45309 0.74866 0.7477 0.0
C1145 C 0.5088 0.80314 0.79784 0.0
C1146 C 0.42608 0.73663 0.73664 0.0
O1147 O 0.43957 0.82201 0.72088 0.0
Mg1148 Mg 0.5944 0.79343 0.19097 0.0
O1149 O 0.60134 0.76512 0.14128 0.0
O1150 O 0.56976 0.71819 0.13728 0.0
Mg1151 Mg 0.53678 0.72002 0.18462 0.0
C1152 C 0.59156 0.73845 0.12537 0.0
C1153 C 0.60676 0.84582 0.25147 0.0
O1154 O 0.60007 0.86018 0.28088 0.0
O1155 O 0.5465 0.81668 0.17128 0.0
O1156 O 0.51309 0.77091 0.16693 0.0
O1157 O 0.62758 0.75416 0.21854 0.0
O1158 O 0.57459 0.74866 0.21376 0.0
C1159 C 0.51888 0.80314 0.16362 0.0
C1160 C 0.6016 0.73663 0.22483 0.0
O1161 O 0.58811 0.82201 0.24058 0.0
Mg1162 Mg 0.43328 0.1827 0.19097 0.0
O1163 O 0.42634 0.21101 0.14128 0.0
O1164 O 0.45791 0.25793 0.13728 0.0
Mg1165 Mg 0.4909 0.2561 0.18462 0.0
C1166 C 0.43612 0.23768 0.12537 0.0
C1167 C 0.42091 0.13031 0.25147 0.0
O1168 O 0.4276 0.11595 0.28088 0.0
O1169 O 0.48118 0.15944 0.17128 0.0
O1170 O 0.51459 0.20521 0.16693 0.0
O1171 O 0.40009 0.22197 0.21854 0.0
O1172 O 0.45309 0.22746 0.21376 0.0
C1173 C 0.5088 0.17299 0.16362 0.0
C1174 C 0.42608 0.2395 0.22483 0.0
O1175 O 0.43957 0.15412 0.24058 0.0
Mg1176 Mg 0.43049 0.25657 0.6452 0.0
O1177 O 0.4163 0.30115 0.67851 0.0
O1178 O 0.44028 0.30227 0.72951 0.0
Mg1179 Mg 0.47891 0.25955 0.7255 0.0
C1180 C 0.42042 0.31457 0.70766 0.0
C1181 C 0.42788 0.20131 0.58406 0.0
O1182 O 0.44016 0.17495 0.56739 0.0
O1183 O 0.47835 0.28536 0.63164 0.0
O1184 O 0.50401 0.28869 0.68196 0.0
O1185 O 0.39764 0.22025 0.67698 0.0
O1186 O 0.44896 0.22983 0.68854 0.0
C1187 C 0.50196 0.29604 0.65041 0.0
C1188 C 0.42233 0.21483 0.69645 0.0
O1189 O 0.44277 0.21164 0.61066 0.0
Mg1190 Mg 0.59719 0.71956 0.6452 0.0
O1191 O 0.61138 0.67498 0.67851 0.0
O1192 O 0.5874 0.67385 0.72951 0.0
Mg1193 Mg 0.54877 0.71658 0.7255 0.0
C1194 C 0.60726 0.66155 0.70766 0.0
C1195 C 0.59979 0.77482 0.58406 0.0
O1196 O 0.58752 0.80117 0.56739 0.0
O1197 O 0.54933 0.69076 0.63164 0.0
O1198 O 0.52367 0.68744 0.68196 0.0
O1199 O 0.63004 0.75588 0.67698 0.0
O1200 O 0.57871 0.7463 0.68854 0.0
C1201 C 0.52572 0.68008 0.65041 0.0
C1202 C 0.60535 0.76129 0.69645 0.0
O1203 O 0.5849 0.76449 0.61066 0.0
Mg1204 Mg 0.59719 0.25657 0.31626 0.0
O1205 O 0.61138 0.30115 0.28295 0.0
O1206 O 0.5874 0.30227 0.23195 0.0
Mg1207 Mg 0.54877 0.25955 0.23596 0.0
C1208 C 0.60726 0.31457 0.2538 0.0
C1209 C 0.59979 0.20131 0.3774 0.0
O1210 O 0.58752 0.17495 0.39407 0.0
O1211 O 0.54933 0.28536 0.32982 0.0
O1212 O 0.52367 0.28869 0.2795 0.0
O1213 O 0.63004 0.22024 0.28448 0.0
O1214 O 0.57871 0.22983 0.27292 0.0
C1215 C 0.52572 0.29604 0.31105 0.0
C1216 C 0.60535 0.21483 0.26501 0.0
O1217 O 0.5849 0.21164 0.35081 0.0
Mg1218 Mg 0.43049 0.71956 0.31626 0.0
O1219 O 0.4163 0.67498 0.28295 0.0
O1220 O 0.44028 0.67385 0.23195 0.0
Mg1221 Mg 0.4789 0.71657 0.23596 0.0
C1222 C 0.42042 0.66155 0.2538 0.0
C1223 C 0.42788 0.77482 0.3774 0.0
O1224 O 0.44016 0.80117 0.39407 0.0
O1225 O 0.47835 0.69076 0.32982 0.0
O1226 O 0.50401 0.68744 0.2795 0.0
O1227 O 0.39764 0.75588 0.28448 0.0
O1228 O 0.44896 0.7463 0.27292 0.0
C1229 C 0.50196 0.68008 0.31105 0.0
C1230 C 0.42233 0.76129 0.26501 0.0
O1231 O 0.44277 0.76449 0.35081 0.0
Mg1232 Mg 0.42177 0.80132 0.16957 0.0
O1233 O 0.41532 0.85717 0.18835 0.0
O1234 O 0.43998 0.86613 0.23856 0.0
Mg1235 Mg 0.48223 0.82771 0.23386 0.0
C1236 C 0.4203 0.87532 0.21499 0.0
C1237 C 0.40986 0.73261 0.12747 0.0
O1238 O 0.41404 0.69979 0.12047 0.0
O1239 O 0.46814 0.81328 0.1381 0.0
O1240 O 0.48278 0.84636 0.17932 0.0
O1241 O 0.39285 0.78197 0.21585 0.0
O1242 O 0.44611 0.78741 0.21652 0.0
C1243 C 0.49123 0.82597 0.15584 0.0
C1244 C 0.41996 0.7786 0.23204 0.0
O1245 O 0.42558 0.74573 0.15217 0.0
Mg1246 Mg 0.6059 0.1748 0.16957 0.0
O1247 O 0.61235 0.11896 0.18835 0.0
O1248 O 0.58769 0.11 0.23856 0.0
Mg1249 Mg 0.54545 0.14842 0.23386 0.0
C1250 C 0.60738 0.1008 0.21499 0.0
C1251 C 0.61781 0.24351 0.12747 0.0
O1252 O 0.61364 0.27634 0.12047 0.0
O1253 O 0.55954 0.16285 0.1381 0.0
O1254 O 0.5449 0.12977 0.17932 0.0
O1255 O 0.63483 0.19415 0.21585 0.0
O1256 O 0.58157 0.18872 0.21652 0.0
C1257 C 0.53645 0.15016 0.15584 0.0
C1258 C 0.60772 0.19753 0.23204 0.0
O1259 O 0.60209 0.23039 0.15217 0.0
Mg1260 Mg 0.42177 0.1748 0.7919 0.0
O1261 O 0.41532 0.11896 0.77311 0.0
O1262 O 0.43998 0.11 0.7229 0.0
Mg1263 Mg 0.48223 0.14842 0.7276 0.0
C1264 C 0.4203 0.1008 0.74647 0.0
C1265 C 0.40986 0.24351 0.83399 0.0
O1266 O 0.41404 0.27634 0.84099 0.0
O1267 O 0.46814 0.16285 0.82336 0.0
O1268 O 0.48278 0.12977 0.78214 0.0
O1269 O 0.39285 0.19415 0.74561 0.0
O1270 O 0.44611 0.18872 0.74494 0.0
C1271 C 0.49122 0.15016 0.80563 0.0
C1272 C 0.41996 0.19753 0.72942 0.0
O1273 O 0.42558 0.23039 0.80929 0.0
Mg1274 Mg 0.60591 0.80132 0.7919 0.0
O1275 O 0.61236 0.85717 0.77311 0.0
O1276 O 0.58769 0.86613 0.7229 0.0
Mg1277 Mg 0.54545 0.82771 0.7276 0.0
C1278 C 0.60738 0.87532 0.74647 0.0
C1279 C 0.61781 0.73261 0.83399 0.0
O1280 O 0.61364 0.69979 0.84099 0.0
O1281 O 0.55954 0.81328 0.82336 0.0
O1282 O 0.5449 0.84636 0.78214 0.0
O1283 O 0.63483 0.78197 0.74561 0.0
O1284 O 0.58157 0.78741 0.74494 0.0
C1285 C 0.53645 0.82597 0.80563 0.0
C1286 C 0.60772 0.7786 0.72942 0.0
O1287 O 0.6021 0.74573 0.80929 0.0
Mg1288 Mg 0.5955 0.65146 0.28605 0.0
O1289 O 0.61695 0.68382 0.32903 0.0
O1290 O 0.60559 0.74042 0.32718 0.0
Mg1291 Mg 0.55576 0.73637 0.30141 0.0
C1292 C 0.62155 0.71479 0.33903 0.0
C1293 C 0.59083 0.59115 0.22929 0.0
O1294 O 0.57549 0.57649 0.20374 0.0
O1295 O 0.54558 0.64108 0.31352 0.0
O1296 O 0.5509 0.69082 0.33711 0.0
O1297 O 0.62551 0.68422 0.24758 0.0
O1298 O 0.57636 0.69846 0.26325 0.0
C1299 C 0.53192 0.66719 0.32721 0.0
C1300 C 0.60132 0.70511 0.24522 0.0
O1301 O 0.57837 0.61841 0.24204 0.0
Mg1302 Mg 0.43217 0.32467 0.28605 0.0
O1303 O 0.41073 0.2923 0.32903 0.0
O1304 O 0.42209 0.2357 0.32718 0.0
Mg1305 Mg 0.47192 0.23975 0.30141 0.0
C1306 C 0.40613 0.26133 0.33903 0.0
C1307 C 0.43685 0.38498 0.22929 0.0
O1308 O 0.45219 0.39963 0.20374 0.0
O1309 O 0.48209 0.33504 0.31352 0.0
O1310 O 0.47678 0.28531 0.33711 0.0
O1311 O 0.40217 0.29191 0.24759 0.0
O1312 O 0.45132 0.27766 0.26325 0.0
C1313 C 0.49576 0.30893 0.32721 0.0
C1314 C 0.42636 0.27102 0.24522 0.0
O1315 O 0.44931 0.35772 0.24204 0.0
Mg1316 Mg 0.43217 0.65146 0.67542 0.0
O1317 O 0.41073 0.68382 0.63243 0.0
O1318 O 0.42209 0.74042 0.63428 0.0
Mg1319 Mg 0.47192 0.73637 0.66005 0.0
C1320 C 0.40613 0.7148 0.62244 0.0
C1321 C 0.43685 0.59115 0.73217 0.0
O1322 O 0.45219 0.57649 0.75772 0.0
O1323 O 0.48209 0.64108 0.64794 0.0
O1324 O 0.47678 0.69082 0.62436 0.0
O1325 O 0.40217 0.68422 0.71388 0.0
O1326 O 0.45132 0.69846 0.69822 0.0
C1327 C 0.49575 0.66719 0.63426 0.0
C1328 C 0.42636 0.70511 0.71625 0.0
O1329 O 0.44931 0.61841 0.71942 0.0
Mg1330 Mg 0.5955 0.32467 0.67542 0.0
O1331 O 0.61695 0.2923 0.63243 0.0
O1332 O 0.60559 0.2357 0.63428 0.0
Mg1333 Mg 0.55576 0.23975 0.66005 0.0
C1334 C 0.62155 0.26133 0.62244 0.0
C1335 C 0.59083 0.38498 0.73217 0.0
O1336 O 0.57549 0.39963 0.75772 0.0
O1337 O 0.54559 0.33504 0.64794 0.0
O1338 O 0.5509 0.28531 0.62436 0.0
O1339 O 0.62551 0.29191 0.71388 0.0
O1340 O 0.57636 0.27766 0.69822 0.0
C1341 C 0.53192 0.30893 0.63426 0.0
C1342 C 0.60132 0.27102 0.71625 0.0
O1343 O 0.57837 0.35772 0.71942 0.0
loop_
_geom_bond_atom_site_label_1
_geom_bond_atom_site_label_2
_geom_bond_distance
_geom_bond_site_symmetry_2
_ccdc_geom_bond_type
Mg0 O1 2.028 . S
Mg0 O7 1.986 . S
Mg0 O9 2.114 . S
Mg0 O10 2.251 . S
Mg0 O13 2.010 . S
O1 Mg0 2.028 . S
O1 C4 1.250 . S
O2 Mg3 2.028 . S
O2 C4 1.248 . S
Mg3 O2 2.028 . S
Mg3 O8 2.032 . S
Mg3 O10 2.079 . S
C4 O1 1.250 . S
C4 O2 1.248 . S
C5 O6 1.264 . S
C5 O13 1.249 . S
O6 C5 1.264 . S
O7 Mg0 1.986 . S
O7 C11 1.246 . S
O8 Mg3 2.032 . S
O8 C11 1.259 . S
O9 Mg0 2.114 . S
O9 C12 1.252 . S
O10 Mg0 2.251 . S
O10 Mg3 2.079 . S
O10 C12 1.273 . S
C11 O7 1.246 . S
C11 O8 1.259 . S
C12 O9 1.252 . S
C12 O10 1.273 . S
O13 Mg0 2.010 . S
O13 C5 1.249 . S
Mg14 O15 2.028 . S
Mg14 O21 1.986 . S
Mg14 O23 2.114 . S
Mg14 O24 2.251 . S
Mg14 O27 2.010 . S
O15 Mg14 2.028 . S
O15 C18 1.250 . S
O16 Mg17 2.028 . S
O16 C18 1.248 . S
Mg17 O16 2.028 . S
Mg17 O22 2.032 . S
Mg17 O24 2.079 . S
C18 O15 1.250 . S
C18 O16 1.248 . S
C19 O20 1.264 . S
C19 O27 1.249 . S
O20 C19 1.264 . S
O21 Mg14 1.986 . S
O21 C25 1.246 . S
O22 Mg17 2.032 . S
O22 C25 1.259 . S
O23 Mg14 2.114 . S
O23 C26 1.252 . S
O24 Mg14 2.251 . S
O24 Mg17 2.079 . S
O24 C26 1.273 . S
C25 O21 1.246 . S
C25 O22 1.259 . S
C26 O23 1.252 . S
C26 O24 1.273 . S
O27 Mg14 2.010 . S
O27 C19 1.249 . S
Mg28 O29 2.028 . S
Mg28 O35 1.986 . S
Mg28 O37 2.114 . S
Mg28 O38 2.251 . S
Mg28 O41 2.010 . S
O29 Mg28 2.028 . S
O29 C32 1.250 . S
O30 Mg31 2.028 . S
O30 C32 1.248 . S
Mg31 O30 2.028 . S
Mg31 O36 2.032 . S
Mg31 O38 2.079 . S
C32 O29 1.250 . S
C32 O30 1.248 . S
C33 O34 1.264 . S
C33 O41 1.249 . S
O34 C33 1.264 . S
O35 Mg28 1.986 . S
O35 C39 1.246 . S
O36 Mg31 2.032 . S
O36 C39 1.259 . S
O37 Mg28 2.114 . S
O37 C40 1.252 . S
O38 Mg28 2.251 . S
O38 Mg31 2.079 . S
O38 C40 1.273 . S
C39 O35 1.246 . S
C39 O36 1.259 . S
C40 O37 1.252 . S
C40 O38 1.273 . S
O41 Mg28 2.010 . S
O41 C33 1.249 . S
Mg42 O43 2.028 . S
Mg42 O49 1.986 . S
Mg42 O51 2.114 . S
Mg42 O52 2.251 . S
Mg42 O55 2.010 . S
O43 Mg42 2.028 . S
O43 C46 1.250 . S
O44 Mg45 2.028 . S
O44 C46 1.248 . S
Mg45 O44 2.028 . S
Mg45 O50 2.032 . S
Mg45 O52 2.079 . S
C46 O43 1.250 . S
C46 O44 1.248 . S
C47 O48 1.264 . S
C47 O55 1.249 . S
O48 C47 1.264 . S
O49 Mg42 1.986 . S
O49 C53 1.246 . S
O50 Mg45 2.032 . S
O50 C53 1.259 . S
O51 Mg42 2.114 . S
O51 C54 1.252 . S
O52 Mg42 2.251 . S
O52 Mg45 2.079 . S
O52 C54 1.273 . S
C53 O49 1.246 . S
C53 O50 1.259 . S
C54 O51 1.252 . S
C54 O52 1.273 . S
O55 Mg42 2.010 . S
O55 C47 1.249 . S
Mg56 O57 2.028 . S
Mg56 O63 1.986 . S
Mg56 O65 2.114 . S
Mg56 O66 2.251 . S
Mg56 O69 2.010 . S
O57 Mg56 2.028 . S
O57 C60 1.250 . S
O58 Mg59 2.028 . S
O58 C60 1.248 . S
Mg59 O58 2.028 . S
Mg59 O64 2.032 . S
Mg59 O66 2.079 . S
C60 O57 1.250 . S
C60 O58 1.248 . S
C61 O62 1.264 . S
C61 O69 1.249 . S
O62 C61 1.264 . S
O63 Mg56 1.986 . S
O63 C67 1.246 . S
O64 Mg59 2.032 . S
O64 C67 1.259 . S
O65 Mg56 2.114 . S
O65 C68 1.252 . S
O66 Mg56 2.251 . S
O66 Mg59 2.079 . S
O66 C68 1.273 . S
C67 O63 1.246 . S
C67 O64 1.259 . S
C68 O65 1.252 . S
C68 O66 1.273 . S
O69 Mg56 2.010 . S
O69 C61 1.249 . S
Mg70 O71 2.028 . S
Mg70 O77 1.986 . S
Mg70 O79 2.114 . S
Mg70 O80 2.251 . S
Mg70 O83 2.010 . S
O71 Mg70 2.028 . S
O71 C74 1.250 . S
O72 Mg73 2.028 . S
O72 C74 1.248 . S
Mg73 O72 2.028 . S
Mg73 O78 2.032 . S
Mg73 O80 2.079 . S
C74 O71 1.250 . S
C74 O72 1.248 . S
C75 O76 1.264 . S
C75 O83 1.249 . S
O76 C75 1.264 . S
O77 Mg70 1.986 . S
O77 C81 1.246 . S
O78 Mg73 2.032 . S
O78 C81 1.259 . S
O79 Mg70 2.114 . S
O79 C82 1.252 . S
O80 Mg70 2.251 . S
O80 Mg73 2.079 . S
O80 C82 1.273 . S
C81 O77 1.246 . S
C81 O78 1.259 . S
C82 O79 1.252 . S
C82 O80 1.273 . S
O83 Mg70 2.010 . S
O83 C75 1.249 . S
Mg84 O85 2.028 . S
Mg84 O91 1.986 . S
Mg84 O93 2.114 . S
Mg84 O94 2.251 . S
Mg84 O97 2.010 . S
O85 Mg84 2.028 . S
O85 C88 1.250 . S
O86 Mg87 2.028 . S
O86 C88 1.248 . S
Mg87 O86 2.028 . S
Mg87 O92 2.032 . S
Mg87 O94 2.079 . S
C88 O85 1.250 . S
C88 O86 1.248 . S
C89 O90 1.264 . S
C89 O97 1.249 . S
O90 C89 1.264 . S
O91 Mg84 1.986 . S
O91 C95 1.246 . S
O92 Mg87 2.032 . S
O92 C95 1.259 . S
O93 Mg84 2.114 . S
O93 C96 1.252 . S
O94 Mg84 2.251 . S
O94 Mg87 2.079 . S
O94 C96 1.273 . S
C95 O91 1.246 . S
C95 O92 1.259 . S
C96 O93 1.252 . S
C96 O94 1.273 . S
O97 Mg84 2.010 . S
O97 C89 1.249 . S
Mg98 O99 2.028 . S
Mg98 O105 1.986 . S
Mg98 O107 2.114 . S
Mg98 O108 2.251 . S
Mg98 O111 2.010 . S
O99 Mg98 2.028 . S
O99 C102 1.250 . S
O100 Mg101 2.028 . S
O100 C102 1.248 . S
Mg101 O100 2.028 . S
Mg101 O106 2.032 . S
Mg101 O108 2.079 . S
C102 O99 1.250 . S
C102 O100 1.248 . S
C103 O104 1.264 . S
C103 O111 1.249 . S
O104 C103 1.264 . S
O105 Mg98 1.986 . S
O105 C109 1.246 . S
O106 Mg101 2.032 . S
O106 C109 1.259 . S
O107 Mg98 2.114 . S
O107 C110 1.252 . S
O108 Mg98 2.251 . S
O108 Mg101 2.079 . S
O108 C110 1.273 . S
C109 O105 1.246 . S
C109 O106 1.259 . S
C110 O107 1.252 . S
C110 O108 1.273 . S
O111 Mg98 2.010 . S
O111 C103 1.249 . S
Mg112 O113 2.028 . S
Mg112 O119 1.986 . S
Mg112 O121 2.114 . S
Mg112 O122 2.251 . S
Mg112 O125 2.010 . S
O113 Mg112 2.028 . S
O113 C116 1.250 . S
O114 Mg115 2.028 . S
O114 C116 1.248 . S
Mg115 O114 2.028 . S
Mg115 O120 2.032 . S
Mg115 O122 2.079 . S
C116 O113 1.250 . S
C116 O114 1.248 . S
C117 O118 1.264 . S
C117 O125 1.249 . S
O118 C117 1.264 . S
O119 Mg112 1.986 . S
O119 C123 1.246 . S
O120 Mg115 2.032 . S
O120 C123 1.259 . S
O121 Mg112 2.114 . S
O121 C124 1.252 . S
O122 Mg112 2.251 . S
O122 Mg115 2.079 . S
O122 C124 1.273 . S
C123 O119 1.246 . S
C123 O120 1.259 . S
C124 O121 1.252 . S
C124 O122 1.273 . S
O125 Mg112 2.010 . S
O125 C117 1.249 . S
Mg126 O127 2.028 . S
Mg126 O133 1.986 . S
Mg126 O135 2.114 . S
Mg126 O136 2.251 . S
Mg126 O139 2.010 . S
O127 Mg126 2.028 . S
O127 C130 1.250 . S
O128 Mg129 2.028 . S
O128 C130 1.248 . S
Mg129 O128 2.028 . S
Mg129 O134 2.032 . S
Mg129 O136 2.079 . S
C130 O127 1.250 . S
C130 O128 1.248 . S
C131 O132 1.264 . S
C131 O139 1.249 . S
O132 C131 1.264 . S
O133 Mg126 1.986 . S
O133 C137 1.246 . S
O134 Mg129 2.032 . S
O134 C137 1.259 . S
O135 Mg126 2.114 . S
O135 C138 1.252 . S
O136 Mg126 2.251 . S
O136 Mg129 2.079 . S
O136 C138 1.273 . S
C137 O133 1.246 . S
C137 O134 1.259 . S
C138 O135 1.252 . S
C138 O136 1.273 . S
O139 Mg126 2.010 . S
O139 C131 1.249 . S
Mg140 O141 2.028 . S
Mg140 O147 1.986 . S
Mg140 O149 2.114 . S
Mg140 O150 2.251 . S
Mg140 O153 2.010 . S
O141 Mg140 2.028 . S
O141 C144 1.250 . S
O142 Mg143 2.028 . S
O142 C144 1.248 . S
Mg143 O142 2.028 . S
Mg143 O148 2.032 . S
Mg143 O150 2.079 . S
C144 O141 1.250 . S
C144 O142 1.248 . S
C145 O146 1.264 . S
C145 O153 1.249 . S
O146 C145 1.264 . S
O147 Mg140 1.986 . S
O147 C151 1.246 . S
O148 Mg143 2.032 . S
O148 C151 1.259 . S
O149 Mg140 2.114 . S
O149 C152 1.252 . S
O150 Mg140 2.251 . S
O150 Mg143 2.079 . S
O150 C152 1.273 . S
C151 O147 1.246 . S
C151 O148 1.259 . S
C152 O149 1.252 . S
C152 O150 1.273 . S
O153 Mg140 2.010 . S
O153 C145 1.249 . S
Mg154 O155 2.028 . S
Mg154 O161 1.986 . S
Mg154 O163 2.114 . S
Mg154 O164 2.251 . S
Mg154 O167 2.010 . S
O155 Mg154 2.028 . S
O155 C158 1.250 . S
O156 Mg157 2.028 . S
O156 C158 1.248 . S
Mg157 O156 2.028 . S
Mg157 O162 2.032 . S
Mg157 O164 2.079 . S
C158 O155 1.250 . S
C158 O156 1.248 . S
C159 O160 1.264 . S
C159 O167 1.249 . S
O160 C159 1.264 . S
O161 Mg154 1.986 . S
O161 C165 1.246 . S
O162 Mg157 2.032 . S
O162 C165 1.259 . S
O163 Mg154 2.114 . S
O163 C166 1.252 . S
O164 Mg154 2.251 . S
O164 Mg157 2.079 . S
O164 C166 1.273 . S
C165 O161 1.246 . S
C165 O162 1.259 . S
C166 O163 1.252 . S
C166 O164 1.273 . S
O167 Mg154 2.010 . S
O167 C159 1.249 . S
Mg168 O169 2.028 . S
Mg168 O175 1.986 . S
Mg168 O177 2.114 . S
Mg168 O178 2.251 . S
Mg168 O181 2.010 . S
O169 Mg168 2.028 . S
O169 C172 1.250 . S
O170 Mg171 2.028 . S
O170 C172 1.248 . S
Mg171 O170 2.028 . S
Mg171 O176 2.032 . S
Mg171 O178 2.079 . S
C172 O169 1.250 . S
C172 O170 1.248 . S
C173 O174 1.264 . S
C173 O181 1.249 . S
O174 C173 1.264 . S
O175 Mg168 1.986 . S
O175 C179 1.246 . S
O176 Mg171 2.032 . S
O176 C179 1.259 . S
O177 Mg168 2.114 . S
O177 C180 1.252 . S
O178 Mg168 2.251 . S
O178 Mg171 2.079 . S
O178 C180 1.273 . S
C179 O175 1.246 . S
C179 O176 1.259 . S
C180 O177 1.252 . S
C180 O178 1.273 . S
O181 Mg168 2.010 . S
O181 C173 1.249 . S
Mg182 O183 2.028 . S
Mg182 O189 1.986 . S
Mg182 O191 2.114 . S
Mg182 O192 2.251 . S
Mg182 O195 2.010 . S
O183 Mg182 2.028 . S
O183 C186 1.250 . S
O184 Mg185 2.028 . S
O184 C186 1.248 . S
Mg185 O184 2.028 . S
Mg185 O190 2.032 . S
Mg185 O192 2.079 . S
C186 O183 1.250 . S
C186 O184 1.248 . S
C187 O188 1.264 . S
C187 O195 1.249 . S
O188 C187 1.264 . S
O189 Mg182 1.986 . S
O189 C193 1.246 . S
O190 Mg185 2.032 . S
O190 C193 1.259 . S
O191 Mg182 2.114 . S
O191 C194 1.252 . S
O192 Mg182 2.251 . S
O192 Mg185 2.079 . S
O192 C194 1.273 . S
C193 O189 1.246 . S
C193 O190 1.259 . S
C194 O191 1.252 . S
C194 O192 1.273 . S
O195 Mg182 2.010 . S
O195 C187 1.249 . S
Mg196 O197 2.028 . S
Mg196 O203 1.986 . S
Mg196 O205 2.114 . S
Mg196 O206 2.251 . S
Mg196 O209 2.010 . S
O197 Mg196 2.028 . S
O197 C200 1.250 . S
O198 Mg199 2.028 . S
O198 C200 1.248 . S
Mg199 O198 2.028 . S
Mg199 O204 2.032 . S
Mg199 O206 2.079 . S
C200 O197 1.250 . S
C200 O198 1.248 . S
C201 O202 1.264 . S
C201 O209 1.249 . S
O202 C201 1.264 . S
O203 Mg196 1.986 . S
O203 C207 1.246 . S
O204 Mg199 2.032 . S
O204 C207 1.259 . S
O205 Mg196 2.114 . S
O205 C208 1.252 . S
O206 Mg196 2.251 . S
O206 Mg199 2.079 . S
O206 C208 1.273 . S
C207 O203 1.246 . S
C207 O204 1.259 . S
C208 O205 1.252 . S
C208 O206 1.273 . S
O209 Mg196 2.010 . S
O209 C201 1.249 . S
Mg210 O211 2.028 . S
Mg210 O217 1.986 . S
Mg210 O219 2.114 . S
Mg210 O220 2.251 . S
Mg210 O223 2.010 . S
O211 Mg210 2.028 . S
O211 C214 1.250 . S
O212 Mg213 2.028 . S
O212 C214 1.248 . S
Mg213 O212 2.028 . S
Mg213 O218 2.032 . S
Mg213 O220 2.079 . S
C214 O211 1.250 . S
C214 O212 1.248 . S
C215 O216 1.264 . S
C215 O223 1.249 . S
O216 C215 1.264 . S
O217 Mg210 1.986 . S
O217 C221 1.246 . S
O218 Mg213 2.032 . S
O218 C221 1.259 . S
O219 Mg210 2.114 . S
O219 C222 1.252 . S
O220 Mg210 2.251 . S
O220 Mg213 2.079 . S
O220 C222 1.273 . S
C221 O217 1.246 . S
C221 O218 1.259 . S
C222 O219 1.252 . S
C222 O220 1.273 . S
O223 Mg210 2.010 . S
O223 C215 1.249 . S
Mg224 O225 2.028 . S
Mg224 O231 1.986 . S
Mg224 O233 2.114 . S
Mg224 O234 2.251 . S
Mg224 O237 2.010 . S
O225 Mg224 2.028 . S
O225 C228 1.250 . S
O226 Mg227 2.028 . S
O226 C228 1.248 . S
Mg227 O226 2.028 . S
Mg227 O232 2.032 . S
Mg227 O234 2.079 . S
C228 O225 1.250 . S
C228 O226 1.248 . S
C229 O230 1.264 . S
C229 O237 1.249 . S
O230 C229 1.264 . S
O231 Mg224 1.986 . S
O231 C235 1.246 . S
O232 Mg227 2.032 . S
O232 C235 1.259 . S
O233 Mg224 2.114 . S
O233 C236 1.252 . S
O234 Mg224 2.251 . S
O234 Mg227 2.079 . S
O234 C236 1.273 . S
C235 O231 1.246 . S
C235 O232 1.259 . S
C236 O233 1.252 . S
C236 O234 1.273 . S
O237 Mg224 2.010 . S
O237 C229 1.249 . S
Mg238 O239 2.028 . S
Mg238 O245 1.986 . S
Mg238 O247 2.114 . S
Mg238 O248 2.251 . S
Mg238 O251 2.010 . S
O239 Mg238 2.028 . S
O239 C242 1.250 . S
O240 Mg241 2.028 . S
O240 C242 1.248 . S
Mg241 O240 2.028 . S
Mg241 O246 2.032 . S
Mg241 O248 2.079 . S
C242 O239 1.250 . S
C242 O240 1.248 . S
C243 O244 1.264 . S
C243 O251 1.249 . S
O244 C243 1.264 . S
O245 Mg238 1.986 . S
O245 C249 1.246 . S
O246 Mg241 2.032 . S
O246 C249 1.259 . S
O247 Mg238 2.114 . S
O247 C250 1.252 . S
O248 Mg238 2.251 . S
O248 Mg241 2.079 . S
O248 C250 1.273 . S
C249 O245 1.246 . S
C249 O246 1.259 . S
C250 O247 1.252 . S
C250 O248 1.273 . S
O251 Mg238 2.010 . S
O251 C243 1.249 . S
Mg252 O253 2.028 . S
Mg252 O259 1.986 . S
Mg252 O261 2.114 . S
Mg252 O262 2.251 . S
Mg252 O265 2.010 . S
O253 Mg252 2.028 . S
O253 C256 1.250 . S
O254 Mg255 2.028 . S
O254 C256 1.248 . S
Mg255 O254 2.028 . S
Mg255 O260 2.032 . S
Mg255 O262 2.079 . S
C256 O253 1.250 . S
C256 O254 1.248 . S
C257 O258 1.264 . S
C257 O265 1.249 . S
O258 C257 1.264 . S
O259 Mg252 1.986 . S
O259 C263 1.246 . S
O260 Mg255 2.032 . S
O260 C263 1.259 . S
O261 Mg252 2.114 . S
O261 C264 1.252 . S
O262 Mg252 2.251 . S
O262 Mg255 2.079 . S
O262 C264 1.273 . S
C263 O259 1.246 . S
C263 O260 1.259 . S
C264 O261 1.252 . S
C264 O262 1.273 . S
O265 Mg252 2.010 . S
O265 C257 1.249 . S
Mg266 O267 2.028 . S
Mg266 O273 1.986 . S
Mg266 O275 2.114 . S
Mg266 O276 2.251 . S
Mg266 O279 2.010 . S
O267 Mg266 2.028 . S
O267 C270 1.250 . S
O268 Mg269 2.028 . S
O268 C270 1.248 . S
Mg269 O268 2.028 . S
Mg269 O274 2.032 . S
Mg269 O276 2.079 . S
C270 O267 1.250 . S
C270 O268 1.248 . S
C271 O272 1.264 . S
C271 O279 1.249 . S
O272 C271 1.264 . S
O273 Mg266 1.986 . S
O273 C277 1.246 . S
O274 Mg269 2.032 . S
O274 C277 1.259 . S
O275 Mg266 2.114 . S
O275 C278 1.252 . S
O276 Mg266 2.251 . S
O276 Mg269 2.079 . S
O276 C278 1.273 . S
C277 O273 1.246 . S
C277 O274 1.259 . S
C278 O275 1.252 . S
C278 O276 1.273 . S
O279 Mg266 2.010 . S
O279 C271 1.249 . S
Mg280 O281 2.028 . S
Mg280 O287 1.986 . S
Mg280 O289 2.114 . S
Mg280 O290 2.251 . S
Mg280 O293 2.010 . S
O281 Mg280 2.028 . S
O281 C284 1.250 . S
O282 Mg283 2.028 . S
O282 C284 1.248 . S
Mg283 O282 2.028 . S
Mg283 O288 2.032 . S
Mg283 O290 2.079 . S
C284 O281 1.250 . S
C284 O282 1.248 . S
C285 O286 1.264 . S
C285 O293 1.249 . S
O286 C285 1.264 . S
O287 Mg280 1.986 . S
O287 C291 1.246 . S
O288 Mg283 2.032 . S
O288 C291 1.259 . S
O289 Mg280 2.114 . S
O289 C292 1.252 . S
O290 Mg280 2.251 . S
O290 Mg283 2.079 . S
O290 C292 1.273 . S
C291 O287 1.246 . S
C291 O288 1.259 . S
C292 O289 1.252 . S
C292 O290 1.273 . S
O293 Mg280 2.010 . S
O293 C285 1.249 . S
Mg294 O295 2.028 . S
Mg294 O301 1.986 . S
Mg294 O303 2.114 . S
Mg294 O304 2.251 . S
Mg294 O307 2.010 . S
O295 Mg294 2.028 . S
O295 C298 1.250 . S
O296 Mg297 2.028 . S
O296 C298 1.248 . S
Mg297 O296 2.028 . S
Mg297 O302 2.032 . S
Mg297 O304 2.079 . S
C298 O295 1.250 . S
C298 O296 1.248 . S
C299 O300 1.264 . S
C299 O307 1.249 . S
O300 C299 1.264 . S
O301 Mg294 1.986 . S
O301 C305 1.246 . S
O302 Mg297 2.032 . S
O302 C305 1.259 . S
O303 Mg294 2.114 . S
O303 C306 1.252 . S
O304 Mg294 2.251 . S
O304 Mg297 2.079 . S
O304 C306 1.273 . S
C305 O301 1.246 . S
C305 O302 1.259 . S
C306 O303 1.252 . S
C306 O304 1.273 . S
O307 Mg294 2.010 . S
O307 C299 1.249 . S
Mg308 O309 2.028 . S
Mg308 O315 1.986 . S
Mg308 O317 2.114 . S
Mg308 O318 2.251 . S
Mg308 O321 2.010 . S
O309 Mg308 2.028 . S
O309 C312 1.250 . S
O310 Mg311 2.028 . S
O310 C312 1.248 . S
Mg311 O310 2.028 . S
Mg311 O316 2.032 . S
Mg311 O318 2.079 . S
C312 O309 1.250 . S
C312 O310 1.248 . S
C313 O314 1.264 . S
C313 O321 1.249 . S
O314 C313 1.264 . S
O315 Mg308 1.986 . S
O315 C319 1.246 . S
O316 Mg311 2.032 . S
O316 C319 1.259 . S
O317 Mg308 2.114 . S
O317 C320 1.252 . S
O318 Mg308 2.251 . S
O318 Mg311 2.079 . S
O318 C320 1.273 . S
C319 O315 1.246 . S
C319 O316 1.259 . S
C320 O317 1.252 . S
C320 O318 1.273 . S
O321 Mg308 2.010 . S
O321 C313 1.249 . S
Mg322 O323 2.028 . S
Mg322 O329 1.986 . S
Mg322 O331 2.114 . S
Mg322 O332 2.251 . S
Mg322 O335 2.010 . S
O323 Mg322 2.028 . S
O323 C326 1.250 . S
O324 Mg325 2.028 . S
O324 C326 1.248 . S
Mg325 O324 2.028 . S
Mg325 O330 2.032 . S
Mg325 O332 2.079 . S
C326 O323 1.250 . S
C326 O324 1.248 . S
C327 O328 1.264 . S
C327 O335 1.249 . S
O328 C327 1.264 . S
O329 Mg322 1.986 . S
O329 C333 1.246 . S
O330 Mg325 2.032 . S
O330 C333 1.259 . S
O331 Mg322 2.114 . S
O331 C334 1.252 . S
O332 Mg322 2.251 . S
O332 Mg325 2.079 . S
O332 C334 1.273 . S
C333 O329 1.246 . S
C333 O330 1.259 . S
C334 O331 1.252 . S
C334 O332 1.273 . S
O335 Mg322 2.010 . S
O335 C327 1.249 . S
Mg336 O337 2.028 . S
Mg336 O343 1.986 . S
Mg336 O345 2.114 . S
Mg336 O346 2.251 . S
Mg336 O349 2.010 . S
O337 Mg336 2.028 . S
O337 C340 1.250 . S
O338 Mg339 2.028 . S
O338 C340 1.248 . S
Mg339 O338 2.028 . S
Mg339 O344 2.032 . S
Mg339 O346 2.079 . S
C340 O337 1.250 . S
C340 O338 1.248 . S
C341 O342 1.264 . S
C341 O349 1.249 . S
O342 C341 1.264 . S
O343 Mg336 1.986 . S
O343 C347 1.246 . S
O344 Mg339 2.032 . S
O344 C347 1.259 . S
O345 Mg336 2.114 . S
O345 C348 1.252 . S
O346 Mg336 2.251 . S
O346 Mg339 2.079 . S
O346 C348 1.273 . S
C347 O343 1.246 . S
C347 O344 1.259 . S
C348 O345 1.252 . S
C348 O346 1.273 . S
O349 Mg336 2.010 . S
O349 C341 1.249 . S
Mg350 O351 2.028 . S
Mg350 O357 1.986 . S
Mg350 O359 2.114 . S
Mg350 O360 2.251 . S
Mg350 O363 2.010 . S
O351 Mg350 2.028 . S
O351 C354 1.250 . S
O352 Mg353 2.028 . S
O352 C354 1.248 . S
Mg353 O352 2.028 . S
Mg353 O358 2.032 . S
Mg353 O360 2.079 . S
C354 O351 1.250 . S
C354 O352 1.248 . S
C355 O356 1.264 . S
C355 O363 1.249 . S
O356 C355 1.264 . S
O357 Mg350 1.986 . S
O357 C361 1.246 . S
O358 Mg353 2.032 . S
O358 C361 1.259 . S
O359 Mg350 2.114 . S
O359 C362 1.252 . S
O360 Mg350 2.251 . S
O360 Mg353 2.079 . S
O360 C362 1.273 . S
C361 O357 1.246 . S
C361 O358 1.259 . S
C362 O359 1.252 . S
C362 O360 1.273 . S
O363 Mg350 2.010 . S
O363 C355 1.249 . S
Mg364 O365 2.028 . S
Mg364 O371 1.986 . S
Mg364 O373 2.114 . S
Mg364 O374 2.251 . S
Mg364 O377 2.010 . S
O365 Mg364 2.028 . S
O365 C368 1.250 . S
O366 Mg367 2.028 . S
O366 C368 1.248 . S
Mg367 O366 2.028 . S
Mg367 O372 2.032 . S
Mg367 O374 2.079 . S
C368 O365 1.250 . S
C368 O366 1.248 . S
C369 O370 1.264 . S
C369 O377 1.249 . S
O370 C369 1.264 . S
O371 Mg364 1.986 . S
O371 C375 1.246 . S
O372 Mg367 2.032 . S
O372 C375 1.259 . S
O373 Mg364 2.114 . S
O373 C376 1.252 . S
O374 Mg364 2.251 . S
O374 Mg367 2.079 . S
O374 C376 1.273 . S
C375 O371 1.246 . S
C375 O372 1.259 . S
C376 O373 1.252 . S
C376 O374 1.273 . S
O377 Mg364 2.010 . S
O377 C369 1.249 . S
Mg378 O379 2.028 . S
Mg378 O385 1.986 . S
Mg378 O387 2.114 . S
Mg378 O388 2.251 . S
Mg378 O391 2.010 . S
O379 Mg378 2.028 . S
O379 C382 1.250 . S
O380 Mg381 2.028 . S
O380 C382 1.248 . S
Mg381 O380 2.028 . S
Mg381 O386 2.032 . S
Mg381 O388 2.079 . S
C382 O379 1.250 . S
C382 O380 1.248 . S
C383 O384 1.264 . S
C383 O391 1.249 . S
O384 C383 1.264 . S
O385 Mg378 1.986 . S
O385 C389 1.246 . S
O386 Mg381 2.032 . S
O386 C389 1.259 . S
O387 Mg378 2.114 . S
O387 C390 1.252 . S
O388 Mg378 2.251 . S
O388 Mg381 2.079 . S
O388 C390 1.273 . S
C389 O385 1.246 . S
C389 O386 1.259 . S
C390 O387 1.252 . S
C390 O388 1.273 . S
O391 Mg378 2.010 . S
O391 C383 1.249 . S
Mg392 O393 2.028 . S
Mg392 O399 1.986 . S
Mg392 O401 2.114 . S
Mg392 O402 2.251 . S
Mg392 O405 2.010 . S
O393 Mg392 2.028 . S
O393 C396 1.250 . S
O394 Mg395 2.028 . S
O394 C396 1.248 . S
Mg395 O394 2.028 . S
Mg395 O400 2.032 . S
Mg395 O402 2.079 . S
C396 O393 1.250 . S
C396 O394 1.248 . S
C397 O398 1.264 . S
C397 O405 1.249 . S
O398 C397 1.264 . S
O399 Mg392 1.986 . S
O399 C403 1.246 . S
O400 Mg395 2.032 . S
O400 C403 1.259 . S
O401 Mg392 2.114 . S
O401 C404 1.252 . S
O402 Mg392 2.251 . S
O402 Mg395 2.079 . S
O402 C404 1.273 . S
C403 O399 1.246 . S
C403 O400 1.259 . S
C404 O401 1.252 . S
C404 O402 1.273 . S
O405 Mg392 2.010 . S
O405 C397 1.249 . S
Mg406 O407 2.028 . S
Mg406 O413 1.986 . S
Mg406 O415 2.114 . S
Mg406 O416 2.251 . S
Mg406 O419 2.010 . S
O407 Mg406 2.028 . S
O407 C410 1.250 . S
O408 Mg409 2.028 . S
O408 C410 1.248 . S
Mg409 O408 2.028 . S
Mg409 O414 2.032 . S
Mg409 O416 2.079 . S
C410 O407 1.250 . S
C410 O408 1.248 . S
C411 O412 1.264 . S
C411 O419 1.249 . S
O412 C411 1.264 . S
O413 Mg406 1.986 . S
O413 C417 1.246 . S
O414 Mg409 2.032 . S
O414 C417 1.259 . S
O415 Mg406 2.114 . S
O415 C418 1.252 . S
O416 Mg406 2.251 . S
O416 Mg409 2.079 . S
O416 C418 1.273 . S
C417 O413 1.246 . S
C417 O414 1.259 . S
C418 O415 1.252 . S
C418 O416 1.273 . S
O419 Mg406 2.010 . S
O419 C411 1.249 . S
Mg420 O421 2.028 . S
Mg420 O427 1.986 . S
Mg420 O429 2.114 . S
Mg420 O430 2.251 . S
Mg420 O433 2.010 . S
O421 Mg420 2.028 . S
O421 C424 1.250 . S
O422 Mg423 2.028 . S
O422 C424 1.248 . S
Mg423 O422 2.028 . S
Mg423 O428 2.032 . S
Mg423 O430 2.079 . S
C424 O421 1.250 . S
C424 O422 1.248 . S
C425 O426 1.264 . S
C425 O433 1.249 . S
O426 C425 1.264 . S
O427 Mg420 1.986 . S
O427 C431 1.246 . S
O428 Mg423 2.032 . S
O428 C431 1.259 . S
O429 Mg420 2.114 . S
O429 C432 1.252 . S
O430 Mg420 2.251 . S
O430 Mg423 2.079 . S
O430 C432 1.273 . S
C431 O427 1.246 . S
C431 O428 1.259 . S
C432 O429 1.252 . S
C432 O430 1.273 . S
O433 Mg420 2.010 . S
O433 C425 1.249 . S
Mg434 O435 2.028 . S
Mg434 O441 1.986 . S
Mg434 O443 2.114 . S
Mg434 O444 2.251 . S
Mg434 O447 2.010 . S
O435 Mg434 2.028 . S
O435 C438 1.250 . S
O436 Mg437 2.028 . S
O436 C438 1.248 . S
Mg437 O436 2.028 . S
Mg437 O442 2.032 . S
Mg437 O444 2.079 . S
C438 O435 1.250 . S
C438 O436 1.248 . S
C439 O440 1.264 . S
C439 O447 1.249 . S
O440 C439 1.264 . S
O441 Mg434 1.986 . S
O441 C445 1.246 . S
O442 Mg437 2.032 . S
O442 C445 1.259 . S
O443 Mg434 2.114 . S
O443 C446 1.252 . S
O444 Mg434 2.251 . S
O444 Mg437 2.079 . S
O444 C446 1.273 . S
C445 O441 1.246 . S
C445 O442 1.259 . S
C446 O443 1.252 . S
C446 O444 1.273 . S
O447 Mg434 2.010 . S
O447 C439 1.249 . S
Mg448 O449 2.028 . S
Mg448 O455 1.986 . S
Mg448 O457 2.114 . S
Mg448 O458 2.251 . S
Mg448 O461 2.010 . S
O449 Mg448 2.028 . S
O449 C452 1.250 . S
O450 Mg451 2.028 . S
O450 C452 1.248 . S
Mg451 O450 2.028 . S
Mg451 O456 2.032 . S
Mg451 O458 2.079 . S
C452 O449 1.250 . S
C452 O450 1.248 . S
C453 O454 1.264 . S
C453 O461 1.249 . S
O454 C453 1.264 . S
O455 Mg448 1.986 . S
O455 C459 1.246 . S
O456 Mg451 2.032 . S
O456 C459 1.259 . S
O457 Mg448 2.114 . S
O457 C460 1.252 . S
O458 Mg448 2.251 . S
O458 Mg451 2.079 . S
O458 C460 1.273 . S
C459 O455 1.246 . S
C459 O456 1.259 . S
C460 O457 1.252 . S
C460 O458 1.273 . S
O461 Mg448 2.010 . S
O461 C453 1.249 . S
Mg462 O463 2.028 . S
Mg462 O469 1.986 . S
Mg462 O471 2.114 . S
Mg462 O472 2.251 . S
Mg462 O475 2.010 . S
O463 Mg462 2.028 . S
O463 C466 1.250 . S
O464 Mg465 2.028 . S
O464 C466 1.248 . S
Mg465 O464 2.028 . S
Mg465 O470 2.032 . S
Mg465 O472 2.079 . S
C466 O463 1.250 . S
C466 O464 1.248 . S
C467 O468 1.264 . S
C467 O475 1.249 . S
O468 C467 1.264 . S
O469 Mg462 1.986 . S
O469 C473 1.246 . S
O470 Mg465 2.032 . S
O470 C473 1.259 . S
O471 Mg462 2.114 . S
O471 C474 1.252 . S
O472 Mg462 2.251 . S
O472 Mg465 2.079 . S
O472 C474 1.273 . S
C473 O469 1.246 . S
C473 O470 1.259 . S
C474 O471 1.252 . S
C474 O472 1.273 . S
O475 Mg462 2.010 . S
O475 C467 1.249 . S
Mg476 O477 2.028 . S
Mg476 O483 1.986 . S
Mg476 O485 2.114 . S
Mg476 O486 2.251 . S
Mg476 O489 2.010 . S
O477 Mg476 2.028 . S
O477 C480 1.250 . S
O478 Mg479 2.028 . S
O478 C480 1.248 . S
Mg479 O478 2.028 . S
Mg479 O484 2.032 . S
Mg479 O486 2.079 . S
C480 O477 1.250 . S
C480 O478 1.248 . S
C481 O482 1.264 . S
C481 O489 1.249 . S
O482 C481 1.264 . S
O483 Mg476 1.986 . S
O483 C487 1.246 . S
O484 Mg479 2.032 . S
O484 C487 1.259 . S
O485 Mg476 2.114 . S
O485 C488 1.252 . S
O486 Mg476 2.251 . S
O486 Mg479 2.079 . S
O486 C488 1.273 . S
C487 O483 1.246 . S
C487 O484 1.259 . S
C488 O485 1.252 . S
C488 O486 1.273 . S
O489 Mg476 2.010 . S
O489 C481 1.249 . S
Mg490 O491 2.028 . S
Mg490 O497 1.986 . S
Mg490 O499 2.114 . S
Mg490 O500 2.251 . S
Mg490 O503 2.010 . S
O491 Mg490 2.028 . S
O491 C494 1.250 . S
O492 Mg493 2.028 . S
O492 C494 1.248 . S
Mg493 O492 2.028 . S
Mg493 O498 2.032 . S
Mg493 O500 2.079 . S
C494 O491 1.250 . S
C494 O492 1.248 . S
C495 O496 1.264 . S
C495 O503 1.249 . S
O496 C495 1.264 . S
O497 Mg490 1.986 . S
O497 C501 1.246 . S
O498 Mg493 2.032 . S
O498 C501 1.259 . S
O499 Mg490 2.114 . S
O499 C502 1.252 . S
O500 Mg490 2.251 . S
O500 Mg493 2.079 . S
O500 C502 1.273 . S
C501 O497 1.246 . S
C501 O498 1.259 . S
C502 O499 1.252 . S
C502 O500 1.273 . S
O503 Mg490 2.010 . S
O503 C495 1.249 . S
Mg504 O505 2.028 . S
Mg504 O511 1.986 . S
Mg504 O513 2.114 . S
Mg504 O514 2.251 . S
Mg504 O517 2.010 . S
O505 Mg504 2.028 . S
O505 C508 1.250 . S
O506 Mg507 2.028 . S
O506 C508 1.248 . S
Mg507 O506 2.028 . S
Mg507 O512 2.032 . S
Mg507 O514 2.079 . S
C508 O505 1.250 . S
C508 O506 1.248 . S
C509 O510 1.264 . S
C509 O517 1.249 . S
O510 C509 1.264 . S
O511 Mg504 1.986 . S
O511 C515 1.246 . S
O512 Mg507 2.032 . S
O512 C515 1.259 . S
O513 Mg504 2.114 . S
O513 C516 1.252 . S
O514 Mg504 2.251 . S
O514 Mg507 2.079 . S
O514 C516 1.273 . S
C515 O511 1.246 . S
C515 O512 1.259 . S
C516 O513 1.252 . S
C516 O514 1.273 . S
O517 Mg504 2.010 . S
O517 C509 1.249 . S
Mg518 O519 2.028 . S
Mg518 O525 1.986 . S
Mg518 O527 2.114 . S
Mg518 O528 2.251 . S
Mg518 O531 2.010 . S
O519 Mg518 2.028 . S
O519 C522 1.250 . S
O520 Mg521 2.028 . S
O520 C522 1.248 . S
Mg521 O520 2.028 . S
Mg521 O526 2.032 . S
Mg521 O528 2.079 . S
C522 O519 1.250 . S
C522 O520 1.248 . S
C523 O524 1.264 . S
C523 O531 1.249 . S
O524 C523 1.264 . S
O525 Mg518 1.986 . S
O525 C529 1.246 . S
O526 Mg521 2.032 . S
O526 C529 1.259 . S
O527 Mg518 2.114 . S
O527 C530 1.252 . S
O528 Mg518 2.251 . S
O528 Mg521 2.079 . S
O528 C530 1.273 . S
C529 O525 1.246 . S
C529 O526 1.259 . S
C530 O527 1.252 . S
C530 O528 1.273 . S
O531 Mg518 2.010 . S
O531 C523 1.249 . S
Mg532 O533 2.028 . S
Mg532 O539 1.986 . S
Mg532 O541 2.114 . S
Mg532 O542 2.251 . S
Mg532 O545 2.010 . S
O533 Mg532 2.028 . S
O533 C536 1.250 . S
O534 Mg535 2.028 . S
O534 C536 1.248 . S
Mg535 O534 2.028 . S
Mg535 O540 2.032 . S
Mg535 O542 2.079 . S
C536 O533 1.250 . S
C536 O534 1.248 . S
C537 O538 1.264 . S
C537 O545 1.249 . S
O538 C537 1.264 . S
O539 Mg532 1.986 . S
O539 C543 1.246 . S
O540 Mg535 2.032 . S
O540 C543 1.259 . S
O541 Mg532 2.114 . S
O541 C544 1.252 . S
O542 Mg532 2.251 . S
O542 Mg535 2.079 . S
O542 C544 1.273 . S
C543 O539 1.246 . S
C543 O540 1.259 . S
C544 O541 1.252 . S
C544 O542 1.273 . S
O545 Mg532 2.010 . S
O545 C537 1.249 . S
Mg546 O547 2.028 . S
Mg546 O553 1.986 . S
Mg546 O555 2.114 . S
Mg546 O556 2.251 . S
Mg546 O559 2.010 . S
O547 Mg546 2.028 . S
O547 C550 1.250 . S
O548 Mg549 2.028 . S
O548 C550 1.248 . S
Mg549 O548 2.028 . S
Mg549 O554 2.032 . S
Mg549 O556 2.079 . S
C550 O547 1.250 . S
C550 O548 1.248 . S
C551 O552 1.264 . S
C551 O559 1.249 . S
O552 C551 1.264 . S
O553 Mg546 1.986 . S
O553 C557 1.246 . S
O554 Mg549 2.032 . S
O554 C557 1.259 . S
O555 Mg546 2.114 . S
O555 C558 1.252 . S
O556 Mg546 2.251 . S
O556 Mg549 2.079 . S
O556 C558 1.273 . S
C557 O553 1.246 . S
C557 O554 1.259 . S
C558 O555 1.252 . S
C558 O556 1.273 . S
O559 Mg546 2.010 . S
O559 C551 1.249 . S
Mg560 O561 2.028 . S
Mg560 O567 1.986 . S
Mg560 O569 2.114 . S
Mg560 O570 2.251 . S
Mg560 O573 2.010 . S
O561 Mg560 2.028 . S
O561 C564 1.250 . S
O562 Mg563 2.028 . S
O562 C564 1.248 . S
Mg563 O562 2.028 . S
Mg563 O568 2.032 . S
Mg563 O570 2.079 . S
C564 O561 1.250 . S
C564 O562 1.248 . S
C565 O566 1.264 . S
C565 O573 1.249 . S
O566 C565 1.264 . S
O567 Mg560 1.986 . S
O567 C571 1.246 . S
O568 Mg563 2.032 . S
O568 C571 1.259 . S
O569 Mg560 2.114 . S
O569 C572 1.252 . S
O570 Mg560 2.251 . S
O570 Mg563 2.079 . S
O570 C572 1.273 . S
C571 O567 1.246 . S
C571 O568 1.259 . S
C572 O569 1.252 . S
C572 O570 1.273 . S
O573 Mg560 2.010 . S
O573 C565 1.249 . S
Mg574 O575 2.028 . S
Mg574 O581 1.986 . S
Mg574 O583 2.114 . S
Mg574 O584 2.251 . S
Mg574 O587 2.010 . S
O575 Mg574 2.028 . S
O575 C578 1.250 . S
O576 Mg577 2.028 . S
O576 C578 1.248 . S
Mg577 O576 2.028 . S
Mg577 O582 2.032 . S
Mg577 O584 2.079 . S
C578 O575 1.250 . S
C578 O576 1.248 . S
C579 O580 1.264 . S
C579 O587 1.249 . S
O580 C579 1.264 . S
O581 Mg574 1.986 . S
O581 C585 1.246 . S
O582 Mg577 2.032 . S
O582 C585 1.259 . S
O583 Mg574 2.114 . S
O583 C586 1.252 . S
O584 Mg574 2.251 . S
O584 Mg577 2.079 . S
O584 C586 1.273 . S
C585 O581 1.246 . S
C585 O582 1.259 . S
C586 O583 1.252 . S
C586 O584 1.273 . S
O587 Mg574 2.010 . S
O587 C579 1.249 . S
Mg588 O589 2.028 . S
Mg588 O595 1.986 . S
Mg588 O597 2.114 . S
Mg588 O598 2.251 . S
Mg588 O601 2.010 . S
O589 Mg588 2.028 . S
O589 C592 1.250 . S
O590 Mg591 2.028 . S
O590 C592 1.248 . S
Mg591 O590 2.028 . S
Mg591 O596 2.032 . S
Mg591 O598 2.079 . S
C592 O589 1.250 . S
C592 O590 1.248 . S
C593 O594 1.264 . S
C593 O601 1.249 . S
O594 C593 1.264 . S
O595 Mg588 1.986 . S
O595 C599 1.246 . S
O596 Mg591 2.032 . S
O596 C599 1.259 . S
O597 Mg588 2.114 . S
O597 C600 1.252 . S
O598 Mg588 2.251 . S
O598 Mg591 2.079 . S
O598 C600 1.273 . S
C599 O595 1.246 . S
C599 O596 1.259 . S
C600 O597 1.252 . S
C600 O598 1.273 . S
O601 Mg588 2.010 . S
O601 C593 1.249 . S
Mg602 O603 2.028 . S
Mg602 O609 1.986 . S
Mg602 O611 2.114 . S
Mg602 O612 2.251 . S
Mg602 O615 2.010 . S
O603 Mg602 2.028 . S
O603 C606 1.250 . S
O604 Mg605 2.028 . S
O604 C606 1.248 . S
Mg605 O604 2.028 . S
Mg605 O610 2.032 . S
Mg605 O612 2.079 . S
C606 O603 1.250 . S
C606 O604 1.248 . S
C607 O608 1.264 . S
C607 O615 1.249 . S
O608 C607 1.264 . S
O609 Mg602 1.986 . S
O609 C613 1.246 . S
O610 Mg605 2.032 . S
O610 C613 1.259 . S
O611 Mg602 2.114 . S
O611 C614 1.252 . S
O612 Mg602 2.251 . S
O612 Mg605 2.079 . S
O612 C614 1.273 . S
C613 O609 1.246 . S
C613 O610 1.259 . S
C614 O611 1.252 . S
C614 O612 1.273 . S
O615 Mg602 2.010 . S
O615 C607 1.249 . S
Mg616 O617 2.028 . S
Mg616 O623 1.986 . S
Mg616 O625 2.114 . S
Mg616 O626 2.251 . S
Mg616 O629 2.010 . S
O617 Mg616 2.028 . S
O617 C620 1.250 . S
O618 Mg619 2.028 . S
O618 C620 1.248 . S
Mg619 O618 2.028 . S
Mg619 O624 2.032 . S
Mg619 O626 2.079 . S
C620 O617 1.250 . S
C620 O618 1.248 . S
C621 O622 1.264 . S
C621 O629 1.249 . S
O622 C621 1.264 . S
O623 Mg616 1.986 . S
O623 C627 1.246 . S
O624 Mg619 2.032 . S
O624 C627 1.259 . S
O625 Mg616 2.114 . S
O625 C628 1.252 . S
O626 Mg616 2.251 . S
O626 Mg619 2.079 . S
O626 C628 1.273 . S
C627 O623 1.246 . S
C627 O624 1.259 . S
C628 O625 1.252 . S
C628 O626 1.273 . S
O629 Mg616 2.010 . S
O629 C621 1.249 . S
Mg630 O631 2.028 . S
Mg630 O637 1.986 . S
Mg630 O639 2.114 . S
Mg630 O640 2.251 . S
Mg630 O643 2.010 . S
O631 Mg630 2.028 . S
O631 C634 1.250 . S
O632 Mg633 2.028 . S
O632 C634 1.248 . S
Mg633 O632 2.028 . S
Mg633 O638 2.032 . S
Mg633 O640 2.079 . S
C634 O631 1.250 . S
C634 O632 1.248 . S
C635 O636 1.264 . S
C635 O643 1.249 . S
O636 C635 1.264 . S
O637 Mg630 1.986 . S
O637 C641 1.246 . S
O638 Mg633 2.032 . S
O638 C641 1.259 . S
O639 Mg630 2.114 . S
O639 C642 1.252 . S
O640 Mg630 2.251 . S
O640 Mg633 2.079 . S
O640 C642 1.273 . S
C641 O637 1.246 . S
C641 O638 1.259 . S
C642 O639 1.252 . S
C642 O640 1.273 . S
O643 Mg630 2.010 . S
O643 C635 1.249 . S
Mg644 O645 2.028 . S
Mg644 O651 1.986 . S
Mg644 O653 2.114 . S
Mg644 O654 2.251 . S
Mg644 O657 2.010 . S
O645 Mg644 2.028 . S
O645 C648 1.250 . S
O646 Mg647 2.028 . S
O646 C648 1.248 . S
Mg647 O646 2.028 . S
Mg647 O652 2.032 . S
Mg647 O654 2.079 . S
C648 O645 1.250 . S
C648 O646 1.248 . S
C649 O650 1.264 . S
C649 O657 1.249 . S
O650 C649 1.264 . S
O651 Mg644 1.986 . S
O651 C655 1.246 . S
O652 Mg647 2.032 . S
O652 C655 1.259 . S
O653 Mg644 2.114 . S
O653 C656 1.252 . S
O654 Mg644 2.251 . S
O654 Mg647 2.079 . S
O654 C656 1.273 . S
C655 O651 1.246 . S
C655 O652 1.259 . S
C656 O653 1.252 . S
C656 O654 1.273 . S
O657 Mg644 2.010 . S
O657 C649 1.249 . S
Mg658 O659 2.028 . S
Mg658 O665 1.986 . S
Mg658 O667 2.114 . S
Mg658 O668 2.251 . S
Mg658 O671 2.010 . S
O659 Mg658 2.028 . S
O659 C662 1.250 . S
O660 Mg661 2.028 . S
O660 C662 1.248 . S
Mg661 O660 2.028 . S
Mg661 O666 2.032 . S
Mg661 O668 2.079 . S
C662 O659 1.250 . S
C662 O660 1.248 . S
C663 O664 1.264 . S
C663 O671 1.249 . S
O664 C663 1.264 . S
O665 Mg658 1.986 . S
O665 C669 1.246 . S
O666 Mg661 2.032 . S
O666 C669 1.259 . S
O667 Mg658 2.114 . S
O667 C670 1.252 . S
O668 Mg658 2.251 . S
O668 Mg661 2.079 . S
O668 C670 1.273 . S
C669 O665 1.246 . S
C669 O666 1.259 . S
C670 O667 1.252 . S
C670 O668 1.273 . S
O671 Mg658 2.010 . S
O671 C663 1.249 . S
Mg672 O673 2.028 . S
Mg672 O679 1.986 . S
Mg672 O681 2.114 . S
Mg672 O682 2.251 . S
Mg672 O685 2.010 . S
O673 Mg672 2.028 . S
O673 C676 1.250 . S
O674 Mg675 2.028 . S
O674 C676 1.248 . S
Mg675 O674 2.028 . S
Mg675 O680 2.032 . S
Mg675 O682 2.079 . S
C676 O673 1.250 . S
C676 O674 1.248 . S
C677 O678 1.264 . S
C677 O685 1.249 . S
O678 C677 1.264 . S
O679 Mg672 1.986 . S
O679 C683 1.246 . S
O680 Mg675 2.032 . S
O680 C683 1.259 . S
O681 Mg672 2.114 . S
O681 C684 1.252 . S
O682 Mg672 2.251 . S
O682 Mg675 2.079 . S
O682 C684 1.273 . S
C683 O679 1.246 . S
C683 O680 1.259 . S
C684 O681 1.252 . S
C684 O682 1.273 . S
O685 Mg672 2.010 . S
O685 C677 1.249 . S
Mg686 O687 2.028 . S
Mg686 O693 1.986 . S
Mg686 O695 2.114 . S
Mg686 O696 2.251 . S
Mg686 O699 2.010 . S
O687 Mg686 2.028 . S
O687 C690 1.250 . S
O688 Mg689 2.028 . S
O688 C690 1.248 . S
Mg689 O688 2.028 . S
Mg689 O694 2.032 . S
Mg689 O696 2.079 . S
C690 O687 1.250 . S
C690 O688 1.248 . S
C691 O692 1.264 . S
C691 O699 1.249 . S
O692 C691 1.264 . S
O693 Mg686 1.986 . S
O693 C697 1.246 . S
O694 Mg689 2.032 . S
O694 C697 1.259 . S
O695 Mg686 2.114 . S
O695 C698 1.252 . S
O696 Mg686 2.251 . S
O696 Mg689 2.079 . S
O696 C698 1.273 . S
C697 O693 1.246 . S
C697 O694 1.259 . S
C698 O695 1.252 . S
C698 O696 1.273 . S
O699 Mg686 2.010 . S
O699 C691 1.249 . S
Mg700 O701 2.028 . S
Mg700 O707 1.986 . S
Mg700 O709 2.114 . S
Mg700 O710 2.251 . S
Mg700 O713 2.010 . S
O701 Mg700 2.028 . S
O701 C704 1.250 . S
O702 Mg703 2.028 . S
O702 C704 1.248 . S
Mg703 O702 2.028 . S
Mg703 O708 2.032 . S
Mg703 O710 2.079 . S
C704 O701 1.250 . S
C704 O702 1.248 . S
C705 O706 1.264 . S
C705 O713 1.249 . S
O706 C705 1.264 . S
O707 Mg700 1.986 . S
O707 C711 1.246 . S
O708 Mg703 2.032 . S
O708 C711 1.259 . S
O709 Mg700 2.114 . S
O709 C712 1.252 . S
O710 Mg700 2.251 . S
O710 Mg703 2.079 . S
O710 C712 1.273 . S
C711 O707 1.246 . S
C711 O708 1.259 . S
C712 O709 1.252 . S
C712 O710 1.273 . S
O713 Mg700 2.010 . S
O713 C705 1.249 . S
Mg714 O715 2.028 . S
Mg714 O721 1.986 . S
Mg714 O723 2.114 . S
Mg714 O724 2.251 . S
Mg714 O727 2.010 . S
O715 Mg714 2.028 . S
O715 C718 1.250 . S
O716 Mg717 2.028 . S
O716 C718 1.248 . S
Mg717 O716 2.028 . S
Mg717 O722 2.032 . S
Mg717 O724 2.079 . S
C718 O715 1.250 . S
C718 O716 1.248 . S
C719 O720 1.264 . S
C719 O727 1.249 . S
O720 C719 1.264 . S
O721 Mg714 1.986 . S
O721 C725 1.246 . S
O722 Mg717 2.032 . S
O722 C725 1.259 . S
O723 Mg714 2.114 . S
O723 C726 1.252 . S
O724 Mg714 2.251 . S
O724 Mg717 2.079 . S
O724 C726 1.273 . S
C725 O721 1.246 . S
C725 O722 1.259 . S
C726 O723 1.252 . S
C726 O724 1.273 . S
O727 Mg714 2.010 . S
O727 C719 1.249 . S
Mg728 O729 2.028 . S
Mg728 O735 1.986 . S
Mg728 O737 2.114 . S
Mg728 O738 2.251 . S
Mg728 O741 2.010 . S
O729 Mg728 2.028 . S
O729 C732 1.250 . S
O730 Mg731 2.028 . S
O730 C732 1.248 . S
Mg731 O730 2.028 . S
Mg731 O736 2.032 . S
Mg731 O738 2.079 . S
C732 O729 1.250 . S
C732 O730 1.248 . S
C733 O734 1.264 . S
C733 O741 1.249 . S
O734 C733 1.264 . S
O735 Mg728 1.986 . S
O735 C739 1.246 . S
O736 Mg731 2.032 . S
O736 C739 1.259 . S
O737 Mg728 2.114 . S
O737 C740 1.252 . S
O738 Mg728 2.251 . S
O738 Mg731 2.079 . S
O738 C740 1.273 . S
C739 O735 1.246 . S
C739 O736 1.259 . S
C740 O737 1.252 . S
C740 O738 1.273 . S
O741 Mg728 2.010 . S
O741 C733 1.249 . S
Mg742 O743 2.028 . S
Mg742 O749 1.986 . S
Mg742 O751 2.114 . S
Mg742 O752 2.251 . S
Mg742 O755 2.010 . S
O743 Mg742 2.028 . S
O743 C746 1.250 . S
O744 Mg745 2.028 . S
O744 C746 1.248 . S
Mg745 O744 2.028 . S
Mg745 O750 2.032 . S
Mg745 O752 2.079 . S
C746 O743 1.250 . S
C746 O744 1.248 . S
C747 O748 1.264 . S
C747 O755 1.249 . S
O748 C747 1.264 . S
O749 Mg742 1.986 . S
O749 C753 1.246 . S
O750 Mg745 2.032 . S
O750 C753 1.259 . S
O751 Mg742 2.114 . S
O751 C754 1.252 . S
O752 Mg742 2.251 . S
O752 Mg745 2.079 . S
O752 C754 1.273 . S
C753 O749 1.246 . S
C753 O750 1.259 . S
C754 O751 1.252 . S
C754 O752 1.273 . S
O755 Mg742 2.010 . S
O755 C747 1.249 . S
Mg756 O757 2.028 . S
Mg756 O763 1.986 . S
Mg756 O765 2.114 . S
Mg756 O766 2.251 . S
Mg756 O769 2.010 . S
O757 Mg756 2.028 . S
O757 C760 1.250 . S
O758 Mg759 2.028 . S
O758 C760 1.248 . S
Mg759 O758 2.028 . S
Mg759 O764 2.032 . S
Mg759 O766 2.079 . S
C760 O757 1.250 . S
C760 O758 1.248 . S
C761 O762 1.264 . S
C761 O769 1.249 . S
O762 C761 1.264 . S
O763 Mg756 1.986 . S
O763 C767 1.246 . S
O764 Mg759 2.032 . S
O764 C767 1.259 . S
O765 Mg756 2.114 . S
O765 C768 1.252 . S
O766 Mg756 2.251 . S
O766 Mg759 2.079 . S
O766 C768 1.273 . S
C767 O763 1.246 . S
C767 O764 1.259 . S
C768 O765 1.252 . S
C768 O766 1.273 . S
O769 Mg756 2.010 . S
O769 C761 1.249 . S
Mg770 O771 2.028 . S
Mg770 O777 1.986 . S
Mg770 O779 2.114 . S
Mg770 O780 2.251 . S
Mg770 O783 2.010 . S
O771 Mg770 2.028 . S
O771 C774 1.250 . S
O772 Mg773 2.028 . S
O772 C774 1.248 . S
Mg773 O772 2.028 . S
Mg773 O778 2.032 . S
Mg773 O780 2.079 . S
C774 O771 1.250 . S
C774 O772 1.248 . S
C775 O776 1.264 . S
C775 O783 1.249 . S
O776 C775 1.264 . S
O777 Mg770 1.986 . S
O777 C781 1.246 . S
O778 Mg773 2.032 . S
O778 C781 1.259 . S
O779 Mg770 2.114 . S
O779 C782 1.252 . S
O780 Mg770 2.251 . S
O780 Mg773 2.079 . S
O780 C782 1.273 . S
C781 O777 1.246 . S
C781 O778 1.259 . S
C782 O779 1.252 . S
C782 O780 1.273 . S
O783 Mg770 2.010 . S
O783 C775 1.249 . S
Mg784 O785 2.028 . S
Mg784 O791 1.986 . S
Mg784 O793 2.114 . S
Mg784 O794 2.251 . S
Mg784 O797 2.010 . S
O785 Mg784 2.028 . S
O785 C788 1.250 . S
O786 Mg787 2.028 . S
O786 C788 1.248 . S
Mg787 O786 2.028 . S
Mg787 O792 2.032 . S
Mg787 O794 2.079 . S
C788 O785 1.250 . S
C788 O786 1.248 . S
C789 O790 1.264 . S
C789 O797 1.249 . S
O790 C789 1.264 . S
O791 Mg784 1.986 . S
O791 C795 1.246 . S
O792 Mg787 2.032 . S
O792 C795 1.259 . S
O793 Mg784 2.114 . S
O793 C796 1.252 . S
O794 Mg784 2.251 . S
O794 Mg787 2.079 . S
O794 C796 1.273 . S
C795 O791 1.246 . S
C795 O792 1.259 . S
C796 O793 1.252 . S
C796 O794 1.273 . S
O797 Mg784 2.010 . S
O797 C789 1.249 . S
Mg798 O799 2.028 . S
Mg798 O805 1.986 . S
Mg798 O807 2.114 . S
Mg798 O808 2.251 . S
Mg798 O811 2.010 . S
O799 Mg798 2.028 . S
O799 C802 1.250 . S
O800 Mg801 2.028 . S
O800 C802 1.248 . S
Mg801 O800 2.028 . S
Mg801 O806 2.032 . S
Mg801 O808 2.079 . S
C802 O799 1.250 . S
C802 O800 1.248 . S
C803 O804 1.264 . S
C803 O811 1.249 . S
O804 C803 1.264 . S
O805 Mg798 1.986 . S
O805 C809 1.246 . S
O806 Mg801 2.032 . S
O806 C809 1.259 . S
O807 Mg798 2.114 . S
O807 C810 1.252 . S
O808 Mg798 2.251 . S
O808 Mg801 2.079 . S
O808 C810 1.273 . S
C809 O805 1.246 . S
C809 O806 1.259 . S
C810 O807 1.252 . S
C810 O808 1.273 . S
O811 Mg798 2.010 . S
O811 C803 1.249 . S
Mg812 O813 2.028 . S
Mg812 O819 1.986 . S
Mg812 O821 2.114 . S
Mg812 O822 2.251 . S
Mg812 O825 2.010 . S
O813 Mg812 2.028 . S
O813 C816 1.250 . S
O814 Mg815 2.028 . S
O814 C816 1.248 . S
Mg815 O814 2.028 . S
Mg815 O820 2.032 . S
Mg815 O822 2.079 . S
C816 O813 1.250 . S
C816 O814 1.248 . S
C817 O818 1.264 . S
C817 O825 1.249 . S
O818 C817 1.264 . S
O819 Mg812 1.986 . S
O819 C823 1.246 . S
O820 Mg815 2.032 . S
O820 C823 1.259 . S
O821 Mg812 2.114 . S
O821 C824 1.252 . S
O822 Mg812 2.251 . S
O822 Mg815 2.079 . S
O822 C824 1.273 . S
C823 O819 1.246 . S
C823 O820 1.259 . S
C824 O821 1.252 . S
C824 O822 1.273 . S
O825 Mg812 2.010 . S
O825 C817 1.249 . S
Mg826 O827 2.028 . S
Mg826 O833 1.986 . S
Mg826 O835 2.114 . S
Mg826 O836 2.251 . S
Mg826 O839 2.010 . S
O827 Mg826 2.028 . S
O827 C830 1.250 . S
O828 Mg829 2.028 . S
O828 C830 1.248 . S
Mg829 O828 2.028 . S
Mg829 O834 2.032 . S
Mg829 O836 2.079 . S
C830 O827 1.250 . S
C830 O828 1.248 . S
C831 O832 1.264 . S
C831 O839 1.249 . S
O832 C831 1.264 . S
O833 Mg826 1.986 . S
O833 C837 1.246 . S
O834 Mg829 2.032 . S
O834 C837 1.259 . S
O835 Mg826 2.114 . S
O835 C838 1.252 . S
O836 Mg826 2.251 . S
O836 Mg829 2.079 . S
O836 C838 1.273 . S
C837 O833 1.246 . S
C837 O834 1.259 . S
C838 O835 1.252 . S
C838 O836 1.273 . S
O839 Mg826 2.010 . S
O839 C831 1.249 . S
Mg840 O841 2.028 . S
Mg840 O847 1.986 . S
Mg840 O849 2.114 . S
Mg840 O850 2.251 . S
Mg840 O853 2.010 . S
O841 Mg840 2.028 . S
O841 C844 1.250 . S
O842 Mg843 2.028 . S
O842 C844 1.248 . S
Mg843 O842 2.028 . S
Mg843 O848 2.032 . S
Mg843 O850 2.079 . S
C844 O841 1.250 . S
C844 O842 1.248 . S
C845 O846 1.264 . S
C845 O853 1.249 . S
O846 C845 1.264 . S
O847 Mg840 1.986 . S
O847 C851 1.246 . S
O848 Mg843 2.032 . S
O848 C851 1.259 . S
O849 Mg840 2.114 . S
O849 C852 1.252 . S
O850 Mg840 2.251 . S
O850 Mg843 2.079 . S
O850 C852 1.273 . S
C851 O847 1.246 . S
C851 O848 1.259 . S
C852 O849 1.252 . S
C852 O850 1.273 . S
O853 Mg840 2.010 . S
O853 C845 1.249 . S
Mg854 O855 2.028 . S
Mg854 O861 1.986 . S
Mg854 O863 2.114 . S
Mg854 O864 2.251 . S
Mg854 O867 2.010 . S
O855 Mg854 2.028 . S
O855 C858 1.250 . S
O856 Mg857 2.028 . S
O856 C858 1.248 . S
Mg857 O856 2.028 . S
Mg857 O862 2.032 . S
Mg857 O864 2.079 . S
C858 O855 1.250 . S
C858 O856 1.248 . S
C859 O860 1.264 . S
C859 O867 1.249 . S
O860 C859 1.264 . S
O861 Mg854 1.986 . S
O861 C865 1.246 . S
O862 Mg857 2.032 . S
O862 C865 1.259 . S
O863 Mg854 2.114 . S
O863 C866 1.252 . S
O864 Mg854 2.251 . S
O864 Mg857 2.079 . S
O864 C866 1.273 . S
C865 O861 1.246 . S
C865 O862 1.259 . S
C866 O863 1.252 . S
C866 O864 1.273 . S
O867 Mg854 2.010 . S
O867 C859 1.249 . S
Mg868 O869 2.028 . S
Mg868 O875 1.986 . S
Mg868 O877 2.114 . S
Mg868 O878 2.251 . S
Mg868 O881 2.010 . S
O869 Mg868 2.028 . S
O869 C872 1.250 . S
O870 Mg871 2.028 . S
O870 C872 1.248 . S
Mg871 O870 2.028 . S
Mg871 O876 2.032 . S
Mg871 O878 2.079 . S
C872 O869 1.250 . S
C872 O870 1.248 . S
C873 O874 1.264 . S
C873 O881 1.249 . S
O874 C873 1.264 . S
O875 Mg868 1.986 . S
O875 C879 1.246 . S
O876 Mg871 2.032 . S
O876 C879 1.259 . S
O877 Mg868 2.114 . S
O877 C880 1.252 . S
O878 Mg868 2.251 . S
O878 Mg871 2.079 . S
O878 C880 1.273 . S
C879 O875 1.246 . S
C879 O876 1.259 . S
C880 O877 1.252 . S
C880 O878 1.273 . S
O881 Mg868 2.010 . S
O881 C873 1.249 . S
Mg882 O883 2.028 . S
Mg882 O889 1.986 . S
Mg882 O891 2.114 . S
Mg882 O892 2.251 . S
Mg882 O895 2.010 . S
O883 Mg882 2.028 . S
O883 C886 1.250 . S
O884 Mg885 2.028 . S
O884 C886 1.248 . S
Mg885 O884 2.028 . S
Mg885 O890 2.032 . S
Mg885 O892 2.079 . S
C886 O883 1.250 . S
C886 O884 1.248 . S
C887 O888 1.264 . S
C887 O895 1.249 . S
O888 C887 1.264 . S
O889 Mg882 1.986 . S
O889 C893 1.246 . S
O890 Mg885 2.032 . S
O890 C893 1.259 . S
O891 Mg882 2.114 . S
O891 C894 1.252 . S
O892 Mg882 2.251 . S
O892 Mg885 2.079 . S
O892 C894 1.273 . S
C893 O889 1.246 . S
C893 O890 1.259 . S
C894 O891 1.252 . S
C894 O892 1.273 . S
O895 Mg882 2.010 . S
O895 C887 1.249 . S
Mg896 O897 2.028 . S
Mg896 O903 1.986 . S
Mg896 O905 2.114 . S
Mg896 O906 2.251 . S
Mg896 O909 2.010 . S
O897 Mg896 2.028 . S
O897 C900 1.250 . S
O898 Mg899 2.028 . S
O898 C900 1.248 . S
Mg899 O898 2.028 . S
Mg899 O904 2.032 . S
Mg899 O906 2.079 . S
C900 O897 1.250 . S
C900 O898 1.248 . S
C901 O902 1.264 . S
C901 O909 1.249 . S
O902 C901 1.264 . S
O903 Mg896 1.986 . S
O903 C907 1.246 . S
O904 Mg899 2.032 . S
O904 C907 1.259 . S
O905 Mg896 2.114 . S
O905 C908 1.252 . S
O906 Mg896 2.251 . S
O906 Mg899 2.079 . S
O906 C908 1.273 . S
C907 O903 1.246 . S
C907 O904 1.259 . S
C908 O905 1.252 . S
C908 O906 1.273 . S
O909 Mg896 2.010 . S
O909 C901 1.249 . S
Mg910 O911 2.028 . S
Mg910 O917 1.986 . S
Mg910 O919 2.114 . S
Mg910 O920 2.251 . S
Mg910 O923 2.010 . S
O911 Mg910 2.028 . S
O911 C914 1.250 . S
O912 Mg913 2.028 . S
O912 C914 1.248 . S
Mg913 O912 2.028 . S
Mg913 O918 2.032 . S
Mg913 O920 2.079 . S
C914 O911 1.250 . S
C914 O912 1.248 . S
C915 O916 1.264 . S
C915 O923 1.249 . S
O916 C915 1.264 . S
O917 Mg910 1.986 . S
O917 C921 1.246 . S
O918 Mg913 2.032 . S
O918 C921 1.259 . S
O919 Mg910 2.114 . S
O919 C922 1.252 . S
O920 Mg910 2.251 . S
O920 Mg913 2.079 . S
O920 C922 1.273 . S
C921 O917 1.246 . S
C921 O918 1.259 . S
C922 O919 1.252 . S
C922 O920 1.273 . S
O923 Mg910 2.010 . S
O923 C915 1.249 . S
Mg924 O925 2.028 . S
Mg924 O931 1.986 . S
Mg924 O933 2.114 . S
Mg924 O934 2.251 . S
Mg924 O937 2.010 . S
O925 Mg924 2.028 . S
O925 C928 1.250 . S
O926 Mg927 2.028 . S
O926 C928 1.248 . S
Mg927 O926 2.028 . S
Mg927 O932 2.032 . S
Mg927 O934 2.079 . S
C928 O925 1.250 . S
C928 O926 1.248 . S
C929 O930 1.264 . S
C929 O937 1.249 . S
O930 C929 1.264 . S
O931 Mg924 1.986 . S
O931 C935 1.246 . S
O932 Mg927 2.032 . S
O932 C935 1.259 . S
O933 Mg924 2.114 . S
O933 C936 1.252 . S
O934 Mg924 2.251 . S
O934 Mg927 2.079 . S
O934 C936 1.273 . S
C935 O931 1.246 . S
C935 O932 1.259 . S
C936 O933 1.252 . S
C936 O934 1.273 . S
O937 Mg924 2.010 . S
O937 C929 1.249 . S
Mg938 O939 2.028 . S
Mg938 O945 1.986 . S
Mg938 O947 2.114 . S
Mg938 O948 2.251 . S
Mg938 O951 2.010 . S
O939 Mg938 2.028 . S
O939 C942 1.250 . S
O940 Mg941 2.028 . S
O940 C942 1.248 . S
Mg941 O940 2.028 . S
Mg941 O946 2.032 . S
Mg941 O948 2.079 . S
C942 O939 1.250 . S
C942 O940 1.248 . S
C943 O944 1.264 . S
C943 O951 1.249 . S
O944 C943 1.264 . S
O945 Mg938 1.986 . S
O945 C949 1.246 . S
O946 Mg941 2.032 . S
O946 C949 1.259 . S
O947 Mg938 2.114 . S
O947 C950 1.252 . S
O948 Mg938 2.251 . S
O948 Mg941 2.079 . S
O948 C950 1.273 . S
C949 O945 1.246 . S
C949 O946 1.259 . S
C950 O947 1.252 . S
C950 O948 1.273 . S
O951 Mg938 2.010 . S
O951 C943 1.249 . S
Mg952 O953 2.028 . S
Mg952 O959 1.986 . S
Mg952 O961 2.114 . S
Mg952 O962 2.251 . S
Mg952 O965 2.010 . S
O953 Mg952 2.028 . S
O953 C956 1.250 . S
O954 Mg955 2.028 . S
O954 C956 1.248 . S
Mg955 O954 2.028 . S
Mg955 O960 2.032 . S
Mg955 O962 2.079 . S
C956 O953 1.250 . S
C956 O954 1.248 . S
C957 O958 1.264 . S
C957 O965 1.249 . S
O958 C957 1.264 . S
O959 Mg952 1.986 . S
O959 C963 1.246 . S
O960 Mg955 2.032 . S
O960 C963 1.259 . S
O961 Mg952 2.114 . S
O961 C964 1.252 . S
O962 Mg952 2.251 . S
O962 Mg955 2.079 . S
O962 C964 1.273 . S
C963 O959 1.246 . S
C963 O960 1.259 . S
C964 O961 1.252 . S
C964 O962 1.273 . S
O965 Mg952 2.010 . S
O965 C957 1.249 . S
Mg966 O967 2.028 . S
Mg966 O973 1.986 . S
Mg966 O975 2.114 . S
Mg966 O976 2.251 . S
Mg966 O979 2.010 . S
O967 Mg966 2.028 . S
O967 C970 1.250 . S
O968 Mg969 2.028 . S
O968 C970 1.248 . S
Mg969 O968 2.028 . S
Mg969 O974 2.032 . S
Mg969 O976 2.079 . S
C970 O967 1.250 . S
C970 O968 1.248 . S
C971 O972 1.264 . S
C971 O979 1.249 . S
O972 C971 1.264 . S
O973 Mg966 1.986 . S
O973 C977 1.246 . S
O974 Mg969 2.032 . S
O974 C977 1.259 . S
O975 Mg966 2.114 . S
O975 C978 1.252 . S
O976 Mg966 2.251 . S
O976 Mg969 2.079 . S
O976 C978 1.273 . S
C977 O973 1.246 . S
C977 O974 1.259 . S
C978 O975 1.252 . S
C978 O976 1.273 . S
O979 Mg966 2.010 . S
O979 C971 1.249 . S
Mg980 O981 2.028 . S
Mg980 O987 1.986 . S
Mg980 O989 2.114 . S
Mg980 O990 2.251 . S
Mg980 O993 2.010 . S
O981 Mg980 2.028 . S
O981 C984 1.250 . S
O982 Mg983 2.028 . S
O982 C984 1.248 . S
Mg983 O982 2.028 . S
Mg983 O988 2.032 . S
Mg983 O990 2.079 . S
C984 O981 1.250 . S
C984 O982 1.248 . S
C985 O986 1.264 . S
C985 O993 1.249 . S
O986 C985 1.264 . S
O987 Mg980 1.986 . S
O987 C991 1.246 . S
O988 Mg983 2.032 . S
O988 C991 1.259 . S
O989 Mg980 2.114 . S
O989 C992 1.252 . S
O990 Mg980 2.251 . S
O990 Mg983 2.079 . S
O990 C992 1.273 . S
C991 O987 1.246 . S
C991 O988 1.259 . S
C992 O989 1.252 . S
C992 O990 1.273 . S
O993 Mg980 2.010 . S
O993 C985 1.249 . S
Mg994 O995 2.028 . S
Mg994 O1001 1.986 . S
Mg994 O1003 2.114 . S
Mg994 O1004 2.251 . S
Mg994 O1007 2.010 . S
O995 Mg994 2.028 . S
O995 C998 1.250 . S
O996 Mg997 2.028 . S
O996 C998 1.248 . S
Mg997 O996 2.028 . S
Mg997 O1002 2.032 . S
Mg997 O1004 2.079 . S
C998 O995 1.250 . S
C998 O996 1.248 . S
C999 O1000 1.264 . S
C999 O1007 1.249 . S
O1000 C999 1.264 . S
O1001 Mg994 1.986 . S
O1001 C1005 1.246 . S
O1002 Mg997 2.032 . S
O1002 C1005 1.259 . S
O1003 Mg994 2.114 . S
O1003 C1006 1.252 . S
O1004 Mg994 2.251 . S
O1004 Mg997 2.079 . S
O1004 C1006 1.273 . S
C1005 O1001 1.246 . S
C1005 O1002 1.259 . S
C1006 O1003 1.252 . S
C1006 O1004 1.273 . S
O1007 Mg994 2.010 . S
O1007 C999 1.249 . S
Mg1008 O1009 2.028 . S
Mg1008 O1015 1.986 . S
Mg1008 O1017 2.114 . S
Mg1008 O1018 2.251 . S
Mg1008 O1021 2.010 . S
O1009 Mg1008 2.028 . S
O1009 C1012 1.250 . S
O1010 Mg1011 2.028 . S
O1010 C1012 1.248 . S
Mg1011 O1010 2.028 . S
Mg1011 O1016 2.032 . S
Mg1011 O1018 2.079 . S
C1012 O1009 1.250 . S
C1012 O1010 1.248 . S
C1013 O1014 1.264 . S
C1013 O1021 1.249 . S
O1014 C1013 1.264 . S
O1015 Mg1008 1.986 . S
O1015 C1019 1.246 . S
O1016 Mg1011 2.032 . S
O1016 C1019 1.259 . S
O1017 Mg1008 2.114 . S
O1017 C1020 1.252 . S
O1018 Mg1008 2.251 . S
O1018 Mg1011 2.079 . S
O1018 C1020 1.273 . S
C1019 O1015 1.246 . S
C1019 O1016 1.259 . S
C1020 O1017 1.252 . S
C1020 O1018 1.273 . S
O1021 Mg1008 2.010 . S
O1021 C1013 1.249 . S
Mg1022 O1023 2.028 . S
Mg1022 O1029 1.986 . S
Mg1022 O1031 2.114 . S
Mg1022 O1032 2.251 . S
Mg1022 O1035 2.010 . S
O1023 Mg1022 2.028 . S
O1023 C1026 1.250 . S
O1024 Mg1025 2.028 . S
O1024 C1026 1.248 . S
Mg1025 O1024 2.028 . S
Mg1025 O1030 2.032 . S
Mg1025 O1032 2.079 . S
C1026 O1023 1.250 . S
C1026 O1024 1.248 . S
C1027 O1028 1.264 . S
C1027 O1035 1.249 . S
O1028 C1027 1.264 . S
O1029 Mg1022 1.986 . S
O1029 C1033 1.246 . S
O1030 Mg1025 2.032 . S
O1030 C1033 1.259 . S
O1031 Mg1022 2.114 . S
O1031 C1034 1.252 . S
O1032 Mg1022 2.251 . S
O1032 Mg1025 2.079 . S
O1032 C1034 1.273 . S
C1033 O1029 1.246 . S
C1033 O1030 1.259 . S
C1034 O1031 1.252 . S
C1034 O1032 1.273 . S
O1035 Mg1022 2.010 . S
O1035 C1027 1.249 . S
Mg1036 O1037 2.028 . S
Mg1036 O1043 1.986 . S
Mg1036 O1045 2.114 . S
Mg1036 O1046 2.251 . S
Mg1036 O1049 2.010 . S
O1037 Mg1036 2.028 . S
O1037 C1040 1.250 . S
O1038 Mg1039 2.028 . S
O1038 C1040 1.248 . S
Mg1039 O1038 2.028 . S
Mg1039 O1044 2.032 . S
Mg1039 O1046 2.079 . S
C1040 O1037 1.250 . S
C1040 O1038 1.248 . S
C1041 O1042 1.264 . S
C1041 O1049 1.249 . S
O1042 C1041 1.264 . S
O1043 Mg1036 1.986 . S
O1043 C1047 1.246 . S
O1044 Mg1039 2.032 . S
O1044 C1047 1.259 . S
O1045 Mg1036 2.114 . S
O1045 C1048 1.252 . S
O1046 Mg1036 2.251 . S
O1046 Mg1039 2.079 . S
O1046 C1048 1.273 . S
C1047 O1043 1.246 . S
C1047 O1044 1.259 . S
C1048 O1045 1.252 . S
C1048 O1046 1.273 . S
O1049 Mg1036 2.010 . S
O1049 C1041 1.249 . S
Mg1050 O1051 2.028 . S
Mg1050 O1057 1.986 . S
Mg1050 O1059 2.114 . S
Mg1050 O1060 2.251 . S
Mg1050 O1063 2.010 . S
O1051 Mg1050 2.028 . S
O1051 C1054 1.250 . S
O1052 Mg1053 2.028 . S
O1052 C1054 1.248 . S
Mg1053 O1052 2.028 . S
Mg1053 O1058 2.032 . S
Mg1053 O1060 2.079 . S
C1054 O1051 1.250 . S
C1054 O1052 1.248 . S
C1055 O1056 1.264 . S
C1055 O1063 1.249 . S
O1056 C1055 1.264 . S
O1057 Mg1050 1.986 . S
O1057 C1061 1.246 . S
O1058 Mg1053 2.032 . S
O1058 C1061 1.259 . S
O1059 Mg1050 2.114 . S
O1059 C1062 1.252 . S
O1060 Mg1050 2.251 . S
O1060 Mg1053 2.079 . S
O1060 C1062 1.273 . S
C1061 O1057 1.246 . S
C1061 O1058 1.259 . S
C1062 O1059 1.252 . S
C1062 O1060 1.273 . S
O1063 Mg1050 2.010 . S
O1063 C1055 1.249 . S
Mg1064 O1065 2.028 . S
Mg1064 O1071 1.986 . S
Mg1064 O1073 2.114 . S
Mg1064 O1074 2.251 . S
Mg1064 O1077 2.010 . S
O1065 Mg1064 2.028 . S
O1065 C1068 1.250 . S
O1066 Mg1067 2.028 . S
O1066 C1068 1.248 . S
Mg1067 O1066 2.028 . S
Mg1067 O1072 2.032 . S
Mg1067 O1074 2.079 . S
C1068 O1065 1.250 . S
C1068 O1066 1.248 . S
C1069 O1070 1.264 . S
C1069 O1077 1.249 . S
O1070 C1069 1.264 . S
O1071 Mg1064 1.986 . S
O1071 C1075 1.246 . S
O1072 Mg1067 2.032 . S
O1072 C1075 1.259 . S
O1073 Mg1064 2.114 . S
O1073 C1076 1.252 . S
O1074 Mg1064 2.251 . S
O1074 Mg1067 2.079 . S
O1074 C1076 1.273 . S
C1075 O1071 1.246 . S
C1075 O1072 1.259 . S
C1076 O1073 1.252 . S
C1076 O1074 1.273 . S
O1077 Mg1064 2.010 . S
O1077 C1069 1.249 . S
Mg1078 O1079 2.028 . S
Mg1078 O1085 1.986 . S
Mg1078 O1087 2.114 . S
Mg1078 O1088 2.251 . S
Mg1078 O1091 2.010 . S
O1079 Mg1078 2.028 . S
O1079 C1082 1.250 . S
O1080 Mg1081 2.028 . S
O1080 C1082 1.248 . S
Mg1081 O1080 2.028 . S
Mg1081 O1086 2.032 . S
Mg1081 O1088 2.079 . S
C1082 O1079 1.250 . S
C1082 O1080 1.248 . S
C1083 O1084 1.264 . S
C1083 O1091 1.249 . S
O1084 C1083 1.264 . S
O1085 Mg1078 1.986 . S
O1085 C1089 1.246 . S
O1086 Mg1081 2.032 . S
O1086 C1089 1.259 . S
O1087 Mg1078 2.114 . S
O1087 C1090 1.252 . S
O1088 Mg1078 2.251 . S
O1088 Mg1081 2.079 . S
O1088 C1090 1.273 . S
C1089 O1085 1.246 . S
C1089 O1086 1.259 . S
C1090 O1087 1.252 . S
C1090 O1088 1.273 . S
O1091 Mg1078 2.010 . S
O1091 C1083 1.249 . S
Mg1092 O1093 2.028 . S
Mg1092 O1099 1.986 . S
Mg1092 O1101 2.114 . S
Mg1092 O1102 2.251 . S
Mg1092 O1105 2.010 . S
O1093 Mg1092 2.028 . S
O1093 C1096 1.250 . S
O1094 Mg1095 2.028 . S
O1094 C1096 1.248 . S
Mg1095 O1094 2.028 . S
Mg1095 O1100 2.032 . S
Mg1095 O1102 2.079 . S
C1096 O1093 1.250 . S
C1096 O1094 1.248 . S
C1097 O1098 1.264 . S
C1097 O1105 1.249 . S
O1098 C1097 1.264 . S
O1099 Mg1092 1.986 . S
O1099 C1103 1.246 . S
O1100 Mg1095 2.032 . S
O1100 C1103 1.259 . S
O1101 Mg1092 2.114 . S
O1101 C1104 1.252 . S
O1102 Mg1092 2.251 . S
O1102 Mg1095 2.079 . S
O1102 C1104 1.273 . S
C1103 O1099 1.246 . S
C1103 O1100 1.259 . S
C1104 O1101 1.252 . S
C1104 O1102 1.273 . S
O1105 Mg1092 2.010 . S
O1105 C1097 1.249 . S
Mg1106 O1107 2.028 . S
Mg1106 O1113 1.986 . S
Mg1106 O1115 2.114 . S
Mg1106 O1116 2.251 . S
Mg1106 O1119 2.010 . S
O1107 Mg1106 2.028 . S
O1107 C1110 1.250 . S
O1108 Mg1109 2.028 . S
O1108 C1110 1.248 . S
Mg1109 O1108 2.028 . S
Mg1109 O1114 2.032 . S
Mg1109 O1116 2.079 . S
C1110 O1107 1.250 . S
C1110 O1108 1.248 . S
C1111 O1112 1.264 . S
C1111 O1119 1.249 . S
O1112 C1111 1.264 . S
O1113 Mg1106 1.986 . S
O1113 C1117 1.246 . S
O1114 Mg1109 2.032 . S
O1114 C1117 1.259 . S
O1115 Mg1106 2.114 . S
O1115 C1118 1.252 . S
O1116 Mg1106 2.251 . S
O1116 Mg1109 2.079 . S
O1116 C1118 1.273 . S
C1117 O1113 1.246 . S
C1117 O1114 1.259 . S
C1118 O1115 1.252 . S
C1118 O1116 1.273 . S
O1119 Mg1106 2.010 . S
O1119 C1111 1.249 . S
Mg1120 O1121 2.028 . S
Mg1120 O1127 1.986 . S
Mg1120 O1129 2.114 . S
Mg1120 O1130 2.251 . S
Mg1120 O1133 2.010 . S
O1121 Mg1120 2.028 . S
O1121 C1124 1.250 . S
O1122 Mg1123 2.028 . S
O1122 C1124 1.248 . S
Mg1123 O1122 2.028 . S
Mg1123 O1128 2.032 . S
Mg1123 O1130 2.079 . S
C1124 O1121 1.250 . S
C1124 O1122 1.248 . S
C1125 O1126 1.264 . S
C1125 O1133 1.249 . S
O1126 C1125 1.264 . S
O1127 Mg1120 1.986 . S
O1127 C1131 1.246 . S
O1128 Mg1123 2.032 . S
O1128 C1131 1.259 . S
O1129 Mg1120 2.114 . S
O1129 C1132 1.252 . S
O1130 Mg1120 2.251 . S
O1130 Mg1123 2.079 . S
O1130 C1132 1.273 . S
C1131 O1127 1.246 . S
C1131 O1128 1.259 . S
C1132 O1129 1.252 . S
C1132 O1130 1.273 . S
O1133 Mg1120 2.010 . S
O1133 C1125 1.249 . S
Mg1134 O1135 2.028 . S
Mg1134 O1141 1.986 . S
Mg1134 O1143 2.114 . S
Mg1134 O1144 2.251 . S
Mg1134 O1147 2.010 . S
O1135 Mg1134 2.028 . S
O1135 C1138 1.250 . S
O1136 Mg1137 2.028 . S
O1136 C1138 1.248 . S
Mg1137 O1136 2.028 . S
Mg1137 O1142 2.032 . S
Mg1137 O1144 2.079 . S
C1138 O1135 1.250 . S
C1138 O1136 1.248 . S
C1139 O1140 1.264 . S
C1139 O1147 1.249 . S
O1140 C1139 1.264 . S
O1141 Mg1134 1.986 . S
O1141 C1145 1.246 . S
O1142 Mg1137 2.032 . S
O1142 C1145 1.259 . S
O1143 Mg1134 2.114 . S
O1143 C1146 1.252 . S
O1144 Mg1134 2.251 . S
O1144 Mg1137 2.079 . S
O1144 C1146 1.273 . S
C1145 O1141 1.246 . S
C1145 O1142 1.259 . S
C1146 O1143 1.252 . S
C1146 O1144 1.273 . S
O1147 Mg1134 2.010 . S
O1147 C1139 1.249 . S
Mg1148 O1149 2.028 . S
Mg1148 O1155 1.986 . S
Mg1148 O1157 2.114 . S
Mg1148 O1158 2.251 . S
Mg1148 O1161 2.010 . S
O1149 Mg1148 2.028 . S
O1149 C1152 1.250 . S
O1150 Mg1151 2.028 . S
O1150 C1152 1.248 . S
Mg1151 O1150 2.028 . S
Mg1151 O1156 2.032 . S
Mg1151 O1158 2.079 . S
C1152 O1149 1.250 . S
C1152 O1150 1.248 . S
C1153 O1154 1.264 . S
C1153 O1161 1.249 . S
O1154 C1153 1.264 . S
O1155 Mg1148 1.986 . S
O1155 C1159 1.246 . S
O1156 Mg1151 2.032 . S
O1156 C1159 1.259 . S
O1157 Mg1148 2.114 . S
O1157 C1160 1.252 . S
O1158 Mg1148 2.251 . S
O1158 Mg1151 2.079 . S
O1158 C1160 1.273 . S
C1159 O1155 1.246 . S
C1159 O1156 1.259 . S
C1160 O1157 1.252 . S
C1160 O1158 1.273 . S
O1161 Mg1148 2.010 . S
O1161 C1153 1.249 . S
Mg1162 O1163 2.028 . S
Mg1162 O1169 1.986 . S
Mg1162 O1171 2.114 . S
Mg1162 O1172 2.251 . S
Mg1162 O1175 2.010 . S
O1163 Mg1162 2.028 . S
O1163 C1166 1.250 . S
O1164 Mg1165 2.028 . S
O1164 C1166 1.248 . S
Mg1165 O1164 2.028 . S
Mg1165 O1170 2.032 . S
Mg1165 O1172 2.079 . S
C1166 O1163 1.250 . S
C1166 O1164 1.248 . S
C1167 O1168 1.264 . S
C1167 O1175 1.249 . S
O1168 C1167 1.264 . S
O1169 Mg1162 1.986 . S
O1169 C1173 1.246 . S
O1170 Mg1165 2.032 . S
O1170 C1173 1.259 . S
O1171 Mg1162 2.114 . S
O1171 C1174 1.252 . S
O1172 Mg1162 2.251 . S
O1172 Mg1165 2.079 . S
O1172 C1174 1.273 . S
C1173 O1169 1.246 . S
C1173 O1170 1.259 . S
C1174 O1171 1.252 . S
C1174 O1172 1.273 . S
O1175 Mg1162 2.010 . S
O1175 C1167 1.249 . S
Mg1176 O1177 2.028 . S
Mg1176 O1183 1.986 . S
Mg1176 O1185 2.114 . S
Mg1176 O1186 2.251 . S
Mg1176 O1189 2.010 . S
O1177 Mg1176 2.028 . S
O1177 C1180 1.250 . S
O1178 Mg1179 2.028 . S
O1178 C1180 1.248 . S
Mg1179 O1178 2.028 . S
Mg1179 O1184 2.032 . S
Mg1179 O1186 2.079 . S
C1180 O1177 1.250 . S
C1180 O1178 1.248 . S
C1181 O1182 1.264 . S
C1181 O1189 1.249 . S
O1182 C1181 1.264 . S
O1183 Mg1176 1.986 . S
O1183 C1187 1.246 . S
O1184 Mg1179 2.032 . S
O1184 C1187 1.259 . S
O1185 Mg1176 2.114 . S
O1185 C1188 1.252 . S
O1186 Mg1176 2.251 . S
O1186 Mg1179 2.079 . S
O1186 C1188 1.273 . S
C1187 O1183 1.246 . S
C1187 O1184 1.259 . S
C1188 O1185 1.252 . S
C1188 O1186 1.273 . S
O1189 Mg1176 2.010 . S
O1189 C1181 1.249 . S
Mg1190 O1191 2.028 . S
Mg1190 O1197 1.986 . S
Mg1190 O1199 2.114 . S
Mg1190 O1200 2.251 . S
Mg1190 O1203 2.010 . S
O1191 Mg1190 2.028 . S
O1191 C1194 1.250 . S
O1192 Mg1193 2.028 . S
O1192 C1194 1.248 . S
Mg1193 O1192 2.028 . S
Mg1193 O1198 2.032 . S
Mg1193 O1200 2.079 . S
C1194 O1191 1.250 . S
C1194 O1192 1.248 . S
C1195 O1196 1.264 . S
C1195 O1203 1.249 . S
O1196 C1195 1.264 . S
O1197 Mg1190 1.986 . S
O1197 C1201 1.246 . S
O1198 Mg1193 2.032 . S
O1198 C1201 1.259 . S
O1199 Mg1190 2.114 . S
O1199 C1202 1.252 . S
O1200 Mg1190 2.251 . S
O1200 Mg1193 2.079 . S
O1200 C1202 1.273 . S
C1201 O1197 1.246 . S
C1201 O1198 1.259 . S
C1202 O1199 1.252 . S
C1202 O1200 1.273 . S
O1203 Mg1190 2.010 . S
O1203 C1195 1.249 . S
Mg1204 O1205 2.028 . S
Mg1204 O1211 1.986 . S
Mg1204 O1213 2.114 . S
Mg1204 O1214 2.251 . S
Mg1204 O1217 2.010 . S
O1205 Mg1204 2.028 . S
O1205 C1208 1.250 . S
O1206 Mg1207 2.028 . S
O1206 C1208 1.248 . S
Mg1207 O1206 2.028 . S
Mg1207 O1212 2.032 . S
Mg1207 O1214 2.079 . S
C1208 O1205 1.250 . S
C1208 O1206 1.248 . S
C1209 O1210 1.264 . S
C1209 O1217 1.249 . S
O1210 C1209 1.264 . S
O1211 Mg1204 1.986 . S
O1211 C1215 1.246 . S
O1212 Mg1207 2.032 . S
O1212 C1215 1.259 . S
O1213 Mg1204 2.114 . S
O1213 C1216 1.252 . S
O1214 Mg1204 2.251 . S
O1214 Mg1207 2.079 . S
O1214 C1216 1.273 . S
C1215 O1211 1.246 . S
C1215 O1212 1.259 . S
C1216 O1213 1.252 . S
C1216 O1214 1.273 . S
O1217 Mg1204 2.010 . S
O1217 C1209 1.249 . S
Mg1218 O1219 2.028 . S
Mg1218 O1225 1.986 . S
Mg1218 O1227 2.114 . S
Mg1218 O1228 2.251 . S
Mg1218 O1231 2.010 . S
O1219 Mg1218 2.028 . S
O1219 C1222 1.250 . S
O1220 Mg1221 2.028 . S
O1220 C1222 1.248 . S
Mg1221 O1220 2.028 . S
Mg1221 O1226 2.032 . S
Mg1221 O1228 2.079 . S
C1222 O1219 1.250 . S
C1222 O1220 1.248 . S
C1223 O1224 1.264 . S
C1223 O1231 1.249 . S
O1224 C1223 1.264 . S
O1225 Mg1218 1.986 . S
O1225 C1229 1.246 . S
O1226 Mg1221 2.032 . S
O1226 C1229 1.259 . S
O1227 Mg1218 2.114 . S
O1227 C1230 1.252 . S
O1228 Mg1218 2.251 . S
O1228 Mg1221 2.079 . S
O1228 C1230 1.273 . S
C1229 O1225 1.246 . S
C1229 O1226 1.259 . S
C1230 O1227 1.252 . S
C1230 O1228 1.273 . S
O1231 Mg1218 2.010 . S
O1231 C1223 1.249 . S
Mg1232 O1233 2.028 . S
Mg1232 O1239 1.986 . S
Mg1232 O1241 2.114 . S
Mg1232 O1242 2.251 . S
Mg1232 O1245 2.010 . S
O1233 Mg1232 2.028 . S
O1233 C1236 1.250 . S
O1234 Mg1235 2.028 . S
O1234 C1236 1.248 . S
Mg1235 O1234 2.028 . S
Mg1235 O1240 2.032 . S
Mg1235 O1242 2.079 . S
C1236 O1233 1.250 . S
C1236 O1234 1.248 . S
C1237 O1238 1.264 . S
C1237 O1245 1.249 . S
O1238 C1237 1.264 . S
O1239 Mg1232 1.986 . S
O1239 C1243 1.246 . S
O1240 Mg1235 2.032 . S
O1240 C1243 1.259 . S
O1241 Mg1232 2.114 . S
O1241 C1244 1.252 . S
O1242 Mg1232 2.251 . S
O1242 Mg1235 2.079 . S
O1242 C1244 1.273 . S
C1243 O1239 1.246 . S
C1243 O1240 1.259 . S
C1244 O1241 1.252 . S
C1244 O1242 1.273 . S
O1245 Mg1232 2.010 . S
O1245 C1237 1.249 . S
Mg1246 O1247 2.028 . S
Mg1246 O1253 1.986 . S
Mg1246 O1255 2.114 . S
Mg1246 O1256 2.251 . S
Mg1246 O1259 2.010 . S
O1247 Mg1246 2.028 . S
O1247 C1250 1.250 . S
O1248 Mg1249 2.028 . S
O1248 C1250 1.248 . S
Mg1249 O1248 2.028 . S
Mg1249 O1254 2.032 . S
Mg1249 O1256 2.079 . S
C1250 O1247 1.250 . S
C1250 O1248 1.248 . S
C1251 O1252 1.264 . S
C1251 O1259 1.249 . S
O1252 C1251 1.264 . S
O1253 Mg1246 1.986 . S
O1253 C1257 1.246 . S
O1254 Mg1249 2.032 . S
O1254 C1257 1.259 . S
O1255 Mg1246 2.114 . S
O1255 C1258 1.252 . S
O1256 Mg1246 2.251 . S
O1256 Mg1249 2.079 . S
O1256 C1258 1.273 . S
C1257 O1253 1.246 . S
C1257 O1254 1.259 . S
C1258 O1255 1.252 . S
C1258 O1256 1.273 . S
O1259 Mg1246 2.010 . S
O1259 C1251 1.249 . S
Mg1260 O1261 2.028 . S
Mg1260 O1267 1.986 . S
Mg1260 O1269 2.114 . S
Mg1260 O1270 2.251 . S
Mg1260 O1273 2.010 . S
O1261 Mg1260 2.028 . S
O1261 C1264 1.250 . S
O1262 Mg1263 2.028 . S
O1262 C1264 1.248 . S
Mg1263 O1262 2.028 . S
Mg1263 O1268 2.032 . S
Mg1263 O1270 2.079 . S
C1264 O1261 1.250 . S
C1264 O1262 1.248 . S
C1265 O1266 1.264 . S
C1265 O1273 1.249 . S
O1266 C1265 1.264 . S
O1267 Mg1260 1.986 . S
O1267 C1271 1.246 . S
O1268 Mg1263 2.032 . S
O1268 C1271 1.259 . S
O1269 Mg1260 2.114 . S
O1269 C1272 1.252 . S
O1270 Mg1260 2.251 . S
O1270 Mg1263 2.079 . S
O1270 C1272 1.273 . S
C1271 O1267 1.246 . S
C1271 O1268 1.259 . S
C1272 O1269 1.252 . S
C1272 O1270 1.273 . S
O1273 Mg1260 2.010 . S
O1273 C1265 1.249 . S
Mg1274 O1275 2.028 . S
Mg1274 O1281 1.986 . S
Mg1274 O1283 2.114 . S
Mg1274 O1284 2.251 . S
Mg1274 O1287 2.010 . S
O1275 Mg1274 2.028 . S
O1275 C1278 1.250 . S
O1276 Mg1277 2.028 . S
O1276 C1278 1.248 . S
Mg1277 O1276 2.028 . S
Mg1277 O1282 2.032 . S
Mg1277 O1284 2.079 . S
C1278 O1275 1.250 . S
C1278 O1276 1.248 . S
C1279 O1280 1.264 . S
C1279 O1287 1.249 . S
O1280 C1279 1.264 . S
O1281 Mg1274 1.986 . S
O1281 C1285 1.246 . S
O1282 Mg1277 2.032 . S
O1282 C1285 1.259 . S
O1283 Mg1274 2.114 . S
O1283 C1286 1.252 . S
O1284 Mg1274 2.251 . S
O1284 Mg1277 2.079 . S
O1284 C1286 1.273 . S
C1285 O1281 1.246 . S
C1285 O1282 1.259 . S
C1286 O1283 1.252 . S
C1286 O1284 1.273 . S
O1287 Mg1274 2.010 . S
O1287 C1279 1.249 . S
Mg1288 O1289 2.028 . S
Mg1288 O1295 1.986 . S
Mg1288 O1297 2.114 . S
Mg1288 O1298 2.251 . S
Mg1288 O1301 2.010 . S
O1289 Mg1288 2.028 . S
O1289 C1292 1.250 . S
O1290 Mg1291 2.028 . S
O1290 C1292 1.248 . S
Mg1291 O1290 2.028 . S
Mg1291 O1296 2.032 . S
Mg1291 O1298 2.079 . S
C1292 O1289 1.250 . S
C1292 O1290 1.248 . S
C1293 O1294 1.264 . S
C1293 O1301 1.249 . S
O1294 C1293 1.264 . S
O1295 Mg1288 1.986 . S
O1295 C1299 1.246 . S
O1296 Mg1291 2.032 . S
O1296 C1299 1.259 . S
O1297 Mg1288 2.114 . S
O1297 C1300 1.252 . S
O1298 Mg1288 2.251 . S
O1298 Mg1291 2.079 . S
O1298 C1300 1.273 . S
C1299 O1295 1.246 . S
C1299 O1296 1.259 . S
C1300 O1297 1.252 . S
C1300 O1298 1.273 . S
O1301 Mg1288 2.010 . S
O1301 C1293 1.249 . S
Mg1302 O1303 2.028 . S
Mg1302 O1309 1.986 . S
Mg1302 O1311 2.114 . S
Mg1302 O1312 2.251 . S
Mg1302 O1315 2.010 . S
O1303 Mg1302 2.028 . S
O1303 C1306 1.250 . S
O1304 Mg1305 2.028 . S
O1304 C1306 1.248 . S
Mg1305 O1304 2.028 . S
Mg1305 O1310 2.032 . S
Mg1305 O1312 2.079 . S
C1306 O1303 1.250 . S
C1306 O1304 1.248 . S
C1307 O1308 1.264 . S
C1307 O1315 1.249 . S
O1308 C1307 1.264 . S
O1309 Mg1302 1.986 . S
O1309 C1313 1.246 . S
O1310 Mg1305 2.032 . S
O1310 C1313 1.259 . S
O1311 Mg1302 2.114 . S
O1311 C1314 1.252 . S
O1312 Mg1302 2.251 . S
O1312 Mg1305 2.079 . S
O1312 C1314 1.273 . S
C1313 O1309 1.246 . S
C1313 O1310 1.259 . S
C1314 O1311 1.252 . S
C1314 O1312 1.273 . S
O1315 Mg1302 2.010 . S
O1315 C1307 1.249 . S
Mg1316 O1317 2.028 . S
Mg1316 O1323 1.986 . S
Mg1316 O1325 2.114 . S
Mg1316 O1326 2.251 . S
Mg1316 O1329 2.010 . S
O1317 Mg1316 2.028 . S
O1317 C1320 1.250 . S
O1318 Mg1319 2.028 . S
O1318 C1320 1.248 . S
Mg1319 O1318 2.028 . S
Mg1319 O1324 2.032 . S
Mg1319 O1326 2.079 . S
C1320 O1317 1.250 . S
C1320 O1318 1.248 . S
C1321 O1322 1.264 . S
C1321 O1329 1.249 . S
O1322 C1321 1.264 . S
O1323 Mg1316 1.986 . S
O1323 C1327 1.246 . S
O1324 Mg1319 2.032 . S
O1324 C1327 1.259 . S
O1325 Mg1316 2.114 . S
O1325 C1328 1.252 . S
O1326 Mg1316 2.251 . S
O1326 Mg1319 2.079 . S
O1326 C1328 1.273 . S
C1327 O1323 1.246 . S
C1327 O1324 1.259 . S
C1328 O1325 1.252 . S
C1328 O1326 1.273 . S
O1329 Mg1316 2.010 . S
O1329 C1321 1.249 . S
Mg1330 O1331 2.028 . S
Mg1330 O1337 1.986 . S
Mg1330 O1339 2.114 . S
Mg1330 O1340 2.251 . S
Mg1330 O1343 2.010 . S
O1331 Mg1330 2.028 . S
O1331 C1334 1.250 . S
O1332 Mg1333 2.028 . S
O1332 C1334 1.248 . S
Mg1333 O1332 2.028 . S
Mg1333 O1338 2.032 . S
Mg1333 O1340 2.079 . S
C1334 O1331 1.250 . S
C1334 O1332 1.248 . S
C1335 O1336 1.264 . S
C1335 O1343 1.249 . S
O1336 C1335 1.264 . S
O1337 Mg1330 1.986 . S
O1337 C1341 1.246 . S
O1338 Mg1333 2.032 . S
O1338 C1341 1.259 . S
O1339 Mg1330 2.114 . S
O1339 C1342 1.252 . S
O1340 Mg1330 2.251 . S
O1340 Mg1333 2.079 . S
O1340 C1342 1.273 . S
C1341 O1337 1.246 . S
C1341 O1338 1.259 . S
C1342 O1339 1.252 . S
C1342 O1340 1.273 . S
O1343 Mg1330 2.010 . S
O1343 C1335 1.249 . S
C558 C12 1.336 . S
C516 C26 1.696 . S
C530 C40 1.336 . S
C544 C54 1.696 . S
C474 C68 1.336 . S
C488 C82 1.696 . S
C96 C502 1.336 . S
C460 C110 1.696 . S
C123 C445 1.619 . S
C138 C404 1.336 . S
C151 C417 1.619 . S
C166 C432 1.336 . S
C361 C179 1.619 . S
C376 C194 1.336 . S
C389 C207 1.619 . S
C348 C222 1.336 . S
C236 C628 1.696 . S
C250 C670 1.696 . S
C641 C263 1.619 . S
C656 C278 1.696 . S
C571 C291 1.619 . S
C600 C306 1.696 . S
C319 C613 1.619 . S
C585 C333 1.619 . S
C992 C684 1.696 . S
C698 C1006 1.696 . S
C712 C978 1.696 . S
C726 C964 1.696 . S
C739 C949 1.619 . S
C753 C935 1.619 . S
C907 C767 1.619 . S
C921 C781 1.619 . S
C796 C1076 1.696 . S
C810 C1118 1.696 . S
C1089 C823 1.619 . S
C838 C1104 1.696 . S
C851 C1019 1.619 . S
C866 C1048 1.696 . S
C1061 C879 1.619 . S
C1033 C893 1.619 . S
C1132 C1342 1.336 . S
C1328 C1146 1.336 . S
C1300 C1160 1.336 . S
C1314 C1174 1.336 . S
C1272 C1188 1.336 . S
C1202 C1286 1.336 . S
C1258 C1216 1.336 . S
C1244 C1230 1.336 . S
C5 C439 0.751 . S
C19 C396 0.958 . S
C33 C411 0.751 . S
C47 C424 0.958 . S
C61 C355 0.750 . S
C75 C368 0.958 . S
C383 C89 0.750 . S
C103 C340 0.958 . S
C116 C620 1.403 . S
C579 C131 0.750 . S
C144 C592 1.403 . S
C159 C607 0.751 . S
C662 C172 1.403 . S
C635 C187 0.751 . S
C648 C200 1.403 . S
C215 C565 0.751 . S
C229 C550 0.958 . S
C243 C466 0.958 . S
C256 C480 1.403 . S
C271 C494 0.958 . S
C284 C452 1.403 . S
C299 C522 0.958 . S
C536 C312 1.403 . S
C326 C508 1.403 . S
C467 C943 0.751 . S
C214 C677 0.958 . S
C495 C929 0.751 . S
C691 C186 0.958 . S
C551 C901 0.750 . S
C705 C158 0.958 . S
C915 C523 0.750 . S
C719 C130 0.958 . S
C1068 C732 1.403 . S
C341 C1027 0.750 . S
C1040 C746 1.403 . S
C1055 C369 0.751 . S
C1110 C760 1.403 . S
C425 C1083 0.751 . S
C774 C1096 1.403 . S
C397 C1013 0.751 . S
C789 C60 0.958 . S
C803 C4 0.958 . S
C970 C816 1.403 . S
C831 C32 0.958 . S
C844 C956 1.403 . S
C88 C859 0.958 . S
C872 C998 1.403 . S
C984 C886 1.403 . S
C201 C1125 0.751 . S
C1264 C481 0.958 . S
C1139 C173 0.751 . S
C453 C1278 0.958 . S
C145 C1153 0.750 . S
C1250 C509 0.958 . S
C117 C1167 0.750 . S
C1236 C537 0.958 . S
C858 C382 1.403 . S
C1181 C873 0.750 . S
C788 C354 1.403 . S
C1195 C887 0.751 . S
C830 C410 1.403 . S
C1209 C845 0.751 . S
C438 C802 1.403 . S
C817 C1223 0.751 . S
C1334 C1041 0.958 . S
C1292 C1097 0.958 . S
C1012 C18 1.403 . S
C1306 C1111 0.958 . S
C46 C1082 1.403 . S
C1069 C1320 0.958 . S
C1026 C102 1.403 . S
C1054 C74 1.403 . S
C1293 C775 0.751 . S
C1222 C971 0.958 . S
C1307 C761 0.751 . S
C957 C1208 0.958 . S
C1335 C747 0.750 . S
C985 C1194 0.958 . S
C1321 C733 0.750 . S
C999 C1180 0.958 . S
C914 C298 1.403 . S
C313 C1237 0.750 . S
C900 C228 1.403 . S
C1251 C327 0.751 . S
C928 C270 1.403 . S
C285 C1279 0.751 . S
C242 C942 1.403 . S
C257 C1265 0.751 . S
C1152 C593 0.958 . S
C649 C1124 0.958 . S
C676 C564 1.403 . S
C663 C1138 0.958 . S
C690 C634 1.403 . S
C1166 C621 0.958 . S
C718 C578 1.403 . S
C704 C606 1.403 . S
C403 C11 1.098 1_655 S
C25 C418 1.297 1_545 S
C431 C39 1.098 1_455 S
C53 C446 1.297 1_565 S
C347 C67 1.098 1_655 S
C362 C81 1.297 1_565 S
C95 C375 1.098 1_655 S
C109 C390 1.297 1_565 S
C543 C124 1.297 1_565 S
C137 C557 1.098 1_655 S
C152 C515 1.297 1_565 S
C529 C165 1.098 1_655 S
C180 C487 1.297 1_565 S
C501 C193 1.098 1_655 S
C459 C208 1.297 1_565 S
C473 C221 1.098 1_455 S
C235 C642 1.297 1_554 S
C614 C249 1.297 1_554 S
C627 C264 1.297 1_554 S
C586 C277 1.297 1_554 S
C292 C599 1.297 1_556 S
C305 C572 1.297 1_554 S
C669 C320 1.297 1_556 S
C334 C655 1.297 1_554 S
C683 C936 1.297 . S
C950 C697 1.297 . S
C908 C711 1.297 . S
C922 C725 1.297 . S
C740 C1005 1.297 . S
C991 C754 1.297 . S
C768 C977 1.297 . S
C782 C963 1.297 . S
C1090 C795 1.297 . S
C809 C1062 1.297 . S
C1075 C824 1.297 . S
C1034 C837 1.297 . S
C1047 C852 1.297 . S
C1020 C865 1.297 . S
C1117 C880 1.297 . S
C1103 C894 1.297 . S
C1131 C1271 1.098 . S
C1285 C1145 1.098 . S
C1159 C1243 1.098 . S
C1257 C1173 1.098 . S
C1187 C1341 1.098 . S
C1201 C1327 1.098 . S
C1313 C1215 1.098 . S
C1229 C1299 1.098 . S
