# Generated by pormake.
# Topology ske, (6)-cn, num edge types: 1
# Building blocks:
#     Node 0, Type 0, BuildingBlock: INOVEN_clean_sbu_0, # of connection points: 6
#     Node 1, Type 0, BuildingBlock: INOVEN_clean_sbu_0, # of connection points: 6
#     Node 2, Type 0, BuildingBlock: INOVEN_clean_sbu_0, # of connection points: 6
#     Node 3, Type 0, BuildingBlock: INOVEN_clean_sbu_0, # of connection points: 6
#     Node 4, Type 0, BuildingBlock: INOVEN_clean_sbu_0, # of connection points: 6
#     Node 5, Type 0, BuildingBlock: INOVEN_clean_sbu_0, # of connection points: 6
#     Node 6, Type 0, BuildingBlock: INOVEN_clean_sbu_0, # of connection points: 6
#     Node 7, Type 0, BuildingBlock: INOVEN_clean_sbu_0, # of connection points: 6
#     Edge 8, Type (0, 0), BuildingBlock: ZUJKAS_clean_linker_0, # of connection points: 2
#     Edge 9, Type (0, 0), BuildingBlock: ZUJKAS_clean_linker_0, # of connection points: 2
#     Edge 10, Type (0, 0), BuildingBlock: ZUJKAS_clean_linker_0, # of connection points: 2
#     Edge 11, Type (0, 0), BuildingBlock: ZUJKAS_clean_linker_0, # of connection points: 2
#     Edge 12, Type (0, 0), BuildingBlock: ZUJKAS_clean_linker_0, # of connection points: 2
#     Edge 13, Type (0, 0), BuildingBlock: ZUJKAS_clean_linker_0, # of connection points: 2
#     Edge 14, Type (0, 0), BuildingBlock: ZUJKAS_clean_linker_0, # of connection points: 2
#     Edge 15, Type (0, 0), BuildingBlock: ZUJKAS_clean_linker_0, # of connection points: 2
#     Edge 16, Type (0, 0), BuildingBlock: ZUJKAS_clean_linker_0, # of connection points: 2
#     Edge 17, Type (0, 0), BuildingBlock: ZUJKAS_clean_linker_0, # of connection points: 2
#     Edge 18, Type (0, 0), BuildingBlock: ZUJKAS_clean_linker_0, # of connection points: 2
#     Edge 19, Type (0, 0), BuildingBlock: ZUJKAS_clean_linker_0, # of connection points: 2
#     Edge 20, Type (0, 0), BuildingBlock: ZUJKAS_clean_linker_0, # of connection points: 2
#     Edge 21, Type (0, 0), BuildingBlock: ZUJKAS_clean_linker_0, # of connection points: 2
#     Edge 22, Type (0, 0), BuildingBlock: ZUJKAS_clean_linker_0, # of connection points: 2
#     Edge 23, Type (0, 0), BuildingBlock: ZUJKAS_clean_linker_0, # of connection points: 2
#     Edge 24, Type (0, 0), BuildingBlock: ZUJKAS_clean_linker_0, # of connection points: 2
#     Edge 25, Type (0, 0), BuildingBlock: ZUJKAS_clean_linker_0, # of connection points: 2
#     Edge 26, Type (0, 0), BuildingBlock: ZUJKAS_clean_linker_0, # of connection points: 2
#     Edge 27, Type (0, 0), BuildingBlock: ZUJKAS_clean_linker_0, # of connection points: 2
#     Edge 28, Type (0, 0), BuildingBlock: ZUJKAS_clean_linker_0, # of connection points: 2
#     Edge 29, Type (0, 0), BuildingBlock: ZUJKAS_clean_linker_0, # of connection points: 2
#     Edge 30, Type (0, 0), BuildingBlock: ZUJKAS_clean_linker_0, # of connection points: 2
#     Edge 31, Type (0, 0), BuildingBlock: ZUJKAS_clean_linker_0, # of connection points: 2
# Relax obj value: 0.197
# Max RMSD: 0.206
# Mean RMSD: 0.199
data_MOF--net-ske--node1-INOVEN_clean_sbu_0--edge1-ZUJKAS_clean_linker_0
_symmetry_space_group_name_H-M    P1
_symmetry_Int_Tables_number       1
_symmetry_cell_setting            triclinic
loop_
_symmetry_equiv_pos_as_xyz
'x, y, z'
_cell_length_a     119.16509
_cell_length_b     37.919579
_cell_length_c     20.056538
_cell_angle_alpha  90.175337
_cell_angle_beta   90.046297
_cell_angle_gamma 82.386131
loop_
_atom_site_label
_atom_site_type_symbol
_atom_site_fract_x
_atom_site_fract_y
_atom_site_fract_z
_atom_type_partial_charge
Gd0 Gd 0.15775 0.26591 0.52944 0.0
Gd1 Gd 0.13322 0.25498 0.53821 0.0
C2 C 0.14667 0.2549 0.67425 0.0
C3 C 0.17744 0.28769 0.53822 0.0
C4 C 0.18812 0.28266 0.57663 0.0
C5 C 0.19366 0.24861 0.59214 0.0
C6 C 0.19332 0.31255 0.59352 0.0
C7 C 0.20975 0.27454 0.63756 0.0
C8 C 0.204 0.30858 0.62376 0.0
C9 C 0.20438 0.2446 0.62219 0.0
C10 C 0.1541 0.19697 0.52018 0.0
C11 C 0.14459 0.26352 0.39305 0.0
C12 C 0.11335 0.2341 0.5324 0.0
C13 C 0.10162 0.24225 0.50639 0.0
C14 C 0.09392 0.26942 0.53497 0.0
C15 C 0.09761 0.21965 0.45887 0.0
C16 C 0.07829 0.24945 0.47285 0.0
C17 C 0.0861 0.2233 0.44205 0.0
C18 C 0.08241 0.27297 0.5184 0.0
C19 C 0.13695 0.32419 0.5444 0.0
O20 O 0.15433 0.26996 0.64085 0.0
O21 O 0.13876 0.24022 0.64241 0.0
O22 O 0.17531 0.26139 0.49997 0.0
O23 O 0.1684 0.30378 0.568 0.0
O24 O 0.16205 0.21014 0.48878 0.0
O25 O 0.14905 0.21992 0.55895 0.0
O26 O 0.13689 0.24893 0.42716 0.0
O27 O 0.1525 0.27862 0.42406 0.0
O28 O 0.11649 0.25483 0.57907 0.0
O29 O 0.12152 0.22299 0.49075 0.0
O30 O 0.12893 0.3116 0.57611 0.0
O31 O 0.14192 0.30052 0.50702 0.0
H32 H 0.18983 0.22506 0.57984 0.0
H33 H 0.18925 0.33905 0.58161 0.0
H34 H 0.20791 0.3322 0.63418 0.0
H35 H 0.20849 0.21802 0.63299 0.0
H36 H 0.09666 0.28711 0.57232 0.0
H37 H 0.10331 0.19828 0.43642 0.0
H38 H 0.08329 0.20507 0.40593 0.0
H39 H 0.07668 0.29315 0.54385 0.0
Gd40 Gd 0.87693 0.25564 0.52607 0.0
Gd41 Gd 0.90165 0.2637 0.53368 0.0
C42 C 0.88841 0.26478 0.67038 0.0
C43 C 0.85694 0.23602 0.53554 0.0
C44 C 0.84617 0.24224 0.57368 0.0
C45 C 0.83779 0.27062 0.55746 0.0
C46 C 0.8437 0.21759 0.62193 0.0
C47 C 0.82454 0.24875 0.63492 0.0
C48 C 0.83303 0.22087 0.65234 0.0
C49 C 0.82713 0.27388 0.5878 0.0
C50 C 0.88124 0.32409 0.51799 0.0
C51 C 0.88995 0.25676 0.38898 0.0
C52 C 0.92179 0.28259 0.52773 0.0
C53 C 0.93342 0.27435 0.50059 0.0
C54 C 0.94076 0.24447 0.52239 0.0
C55 C 0.93777 0.29925 0.45957 0.0
C56 C 0.95675 0.26622 0.46725 0.0
C57 C 0.94928 0.29518 0.44285 0.0
C58 C 0.95228 0.24046 0.5059 0.0
C59 C 0.89713 0.19514 0.53891 0.0
O60 O 0.88051 0.25071 0.63707 0.0
O61 O 0.89645 0.27863 0.63848 0.0
O62 O 0.85934 0.26146 0.49633 0.0
O63 O 0.86589 0.2194 0.56536 0.0
O64 O 0.87295 0.31186 0.48791 0.0
O65 O 0.88624 0.30055 0.55571 0.0
O66 O 0.89794 0.27017 0.4229 0.0
O67 O 0.88185 0.24275 0.42014 0.0
O68 O 0.9186 0.2612 0.57284 0.0
O69 O 0.91358 0.29517 0.48747 0.0
O70 O 0.90535 0.2068 0.57064 0.0
O71 O 0.89236 0.21933 0.50208 0.0
H72 H 0.83932 0.28983 0.51981 0.0
H73 H 0.84992 0.1952 0.63505 0.0
H74 H 0.8314 0.20129 0.68904 0.0
H75 H 0.82077 0.29541 0.57239 0.0
H76 H 0.93774 0.22488 0.55457 0.0
H77 H 0.93234 0.32267 0.44246 0.0
H78 H 0.95236 0.31523 0.41201 0.0
H79 H 0.95775 0.218 0.52626 0.0
Gd80 Gd 0.1337 0.7599 0.52055 0.0
Gd81 Gd 0.15875 0.76079 0.52573 0.0
C82 C 0.14618 0.7623 0.66272 0.0
C83 C 0.11267 0.75187 0.53423 0.0
C84 C 0.10051 0.74847 0.54272 0.0
C85 C 0.09289 0.77804 0.56295 0.0
C86 C 0.09634 0.71622 0.52939 0.0
C87 C 0.0771 0.74345 0.55528 0.0
C88 C 0.08475 0.71372 0.53558 0.0
C89 C 0.08134 0.77557 0.56911 0.0
C90 C 0.14039 0.82481 0.50506 0.0
C91 C 0.14619 0.75617 0.38095 0.0
C92 C 0.17939 0.7749 0.51446 0.0
C93 C 0.18986 0.7683 0.47373 0.0
C94 C 0.19873 0.74221 0.49341 0.0
C95 C 0.19165 0.79054 0.41984 0.0
C96 C 0.21112 0.76177 0.40835 0.0
C97 C 0.20215 0.78725 0.38745 0.0
C98 C 0.20921 0.73889 0.461 0.0
C99 C 0.15243 0.69507 0.53867 0.0
O100 O 0.1382 0.74884 0.62905 0.0
O101 O 0.15428 0.77588 0.63109 0.0
O102 O 0.11662 0.78167 0.54745 0.0
O103 O 0.12026 0.72585 0.51397 0.0
O104 O 0.1324 0.81343 0.47054 0.0
O105 O 0.14437 0.80169 0.54683 0.0
O106 O 0.15531 0.7627 0.41424 0.0
O107 O 0.13683 0.75045 0.41187 0.0
O108 O 0.17656 0.74841 0.54951 0.0
O109 O 0.17062 0.79506 0.48954 0.0
O110 O 0.16092 0.70563 0.56974 0.0
O111 O 0.14815 0.71885 0.49905 0.0
H112 H 0.09582 0.80335 0.57333 0.0
H113 H 0.10201 0.69295 0.51381 0.0
H114 H 0.08181 0.68845 0.52524 0.0
H115 H 0.0757 0.79917 0.58332 0.0
H116 H 0.19772 0.72506 0.53548 0.0
H117 H 0.18505 0.81118 0.40377 0.0
H118 H 0.20328 0.80503 0.34657 0.0
H119 H 0.21596 0.71931 0.47909 0.0
Gd120 Gd 0.9006 0.76467 0.50034 0.0
Gd121 Gd 0.87592 0.756 0.50829 0.0
C122 C 0.88898 0.75762 0.64505 0.0
C123 C 0.92054 0.78492 0.5065 0.0
C124 C 0.93218 0.77552 0.53188 0.0
C125 C 0.93781 0.74059 0.52775 0.0
C126 C 0.93821 0.80284 0.55317 0.0
C127 C 0.9556 0.7612 0.55987 0.0
C128 C 0.94979 0.79579 0.56718 0.0
C129 C 0.94941 0.73352 0.54156 0.0
C130 C 0.8965 0.69581 0.49508 0.0
C131 C 0.88725 0.76496 0.36372 0.0
C132 C 0.85597 0.73603 0.49989 0.0
C133 C 0.84538 0.74046 0.46059 0.0
C134 C 0.8399 0.77422 0.44263 0.0
C135 C 0.84018 0.71031 0.44553 0.0
C136 C 0.82386 0.74755 0.3985 0.0
C137 C 0.82956 0.71377 0.41474 0.0
C138 C 0.82924 0.77772 0.41197 0.0
C139 C 0.88032 0.82445 0.51704 0.0
O140 O 0.89686 0.77142 0.61109 0.0
O141 O 0.88093 0.74324 0.61395 0.0
O142 O 0.91729 0.76485 0.45908 0.0
O143 O 0.91249 0.79552 0.5492 0.0
O144 O 0.90485 0.70766 0.46516 0.0
O145 O 0.89144 0.71994 0.53131 0.0
O146 O 0.87935 0.7511 0.39715 0.0
O147 O 0.89533 0.77884 0.39545 0.0
O148 O 0.85822 0.76322 0.53538 0.0
O149 O 0.86498 0.71837 0.4724 0.0
O150 O 0.87226 0.81212 0.54905 0.0
O151 O 0.88508 0.80092 0.47837 0.0
H152 H 0.93334 0.71899 0.51156 0.0
H153 H 0.93406 0.83001 0.55619 0.0
H154 H 0.95429 0.81781 0.5805 0.0
H155 H 0.95359 0.70649 0.53645 0.0
H156 H 0.84373 0.79795 0.45351 0.0
H157 H 0.84421 0.68404 0.45938 0.0
H158 H 0.82564 0.69 0.40587 0.0
H159 H 0.82516 0.80408 0.39929 0.0
Gd160 Gd 0.65748 0.75975 0.03997 0.0
Gd161 Gd 0.63273 0.75099 0.04731 0.0
C162 C 0.64603 0.75071 0.18433 0.0
C163 C 0.67737 0.78008 0.04948 0.0
C164 C 0.68782 0.77599 0.09006 0.0
C165 C 0.69324 0.74238 0.10936 0.0
C166 C 0.69296 0.80626 0.10512 0.0
C167 C 0.70913 0.76939 0.15459 0.0
C168 C 0.70347 0.80305 0.13713 0.0
C169 C 0.7038 0.73912 0.1412 0.0
C170 C 0.65317 0.6914 0.03034 0.0
C171 C 0.64439 0.75865 0.90261 0.0
C172 C 0.6129 0.72999 0.042 0.0
C173 C 0.60138 0.73572 1.0135 0.0
C174 C 0.59554 0.76999 1.00377 0.0
C175 C 0.59566 0.70614 1.0036 0.0
C176 C 0.57811 0.74487 0.98001 0.0
C177 C 0.58416 0.7106 0.98706 0.0
C178 C 0.58401 0.77451 0.98708 0.0
C179 C 0.63699 0.81984 0.05233 0.0
O180 O 0.65402 0.76425 0.15109 0.0
O181 O 0.63786 0.7373 0.15256 0.0
O182 O 0.67525 0.75258 1.01442 0.0
O183 O 0.66826 0.79791 0.07562 0.0
O184 O 0.66126 0.70392 0.99891 0.0
O185 O 0.64828 0.71473 0.06916 0.0
O186 O 0.63633 0.74552 0.93619 0.0
O187 O 0.65259 0.77224 0.93397 0.0
O188 O 0.61562 0.75397 0.08383 0.0
O189 O 0.62132 0.71673 1.00372 0.0
O190 O 0.62865 0.80818 0.08278 0.0
O191 O 0.64195 0.79547 1.01629 0.0
H192 H 0.68945 0.71856 0.09856 0.0
H193 H 0.68897 0.83242 0.09031 0.0
H194 H 0.70736 0.82688 0.14593 0.0
H195 H 0.70784 0.71285 0.15482 0.0
H196 H 0.59978 0.79327 1.01119 0.0
H197 H 0.59998 0.67948 1.01152 0.0
H198 H 0.57992 0.68715 0.98292 0.0
H199 H 0.57967 0.80126 0.98099 0.0
Gd200 Gd 0.37667 0.757 0.0372 0.0
Gd201 Gd 0.40144 0.76445 0.04541 0.0
C202 C 0.3881 0.76546 0.18196 0.0
C203 C 0.3566 0.7379 0.04646 0.0
C204 C 0.34602 0.74343 0.08644 0.0
C205 C 0.33707 0.76949 0.06762 0.0
C206 C 0.3443 0.72048 0.13932 0.0
C207 C 0.32479 0.74875 0.15202 0.0
C208 C 0.33381 0.72317 0.17183 0.0
C209 C 0.32661 0.77219 0.10012 0.0
C210 C 0.3812 0.82514 0.02901 0.0
C211 C 0.38983 0.75758 0.90017 0.0
C212 C 0.42151 0.7838 0.04099 0.0
C213 C 0.43305 0.77828 1.01244 0.0
C214 C 0.43978 0.7449 1.01399 0.0
C215 C 0.43793 0.80809 0.99172 0.0
C216 C 0.45637 0.77208 0.98073 0.0
C217 C 0.44945 0.80505 0.97595 0.0
C218 C 0.45133 0.74184 0.99812 0.0
C219 C 0.39674 0.69604 0.04965 0.0
O220 O 0.38009 0.75211 0.14832 0.0
O221 O 0.39631 0.77866 0.15054 0.0
O222 O 0.35895 0.76444 1.00983 0.0
O223 O 0.36563 0.72001 0.07338 0.0
O224 O 0.37294 0.81309 0.99826 0.0
O225 O 0.38608 0.80156 0.06716 0.0
O226 O 0.39798 0.77014 0.93423 0.0
O227 O 0.38153 0.74446 0.93108 0.0
O228 O 0.41865 0.75948 0.0813 0.0
O229 O 0.41311 0.79836 1.0039 0.0
O230 O 0.40495 0.70742 0.08204 0.0
O231 O 0.39204 0.72049 1.01307 0.0
H232 H 0.33802 0.78721 0.02636 0.0
H233 H 0.35096 0.69985 0.15466 0.0
H234 H 0.33275 0.70494 0.21208 0.0
H235 H 0.31982 0.79185 0.08278 0.0
H236 H 0.43626 0.72145 0.03012 0.0
H237 H 0.43293 0.83413 0.99046 0.0
H238 H 0.453 0.82877 0.96159 0.0
H239 H 0.45641 0.71607 1.00268 0.0
Gd240 Gd 0.6335 0.25097 0.98999 0.0
Gd241 Gd 0.65821 0.25835 0.99797 0.0
C242 C 0.64522 0.25699 0.13477 0.0
C243 C 0.6133 0.23251 0.99562 0.0
C244 C 0.6015 0.24247 0.01878 0.0
C245 C 0.59466 0.27245 0.99306 0.0
C246 C 0.59652 0.219 0.05999 0.0
C247 C 0.57793 0.25339 0.0443 0.0
C248 C 0.58487 0.22447 0.07292 0.0
C249 C 0.58301 0.2778 1.00564 0.0
C250 C 0.63805 0.31954 0.98576 0.0
C251 C 0.64684 0.24924 0.85353 0.0
C252 C 0.67829 0.27732 0.98842 0.0
C253 C 0.68888 0.27163 0.94851 0.0
C254 C 0.69744 0.24354 0.96357 0.0
C255 C 0.69103 0.2964 0.89966 0.0
C256 C 0.7102 0.26587 0.88371 0.0
C257 C 0.70155 0.29349 0.86751 0.0
C258 C 0.70794 0.24064 0.93145 0.0
C259 C 0.65365 0.19014 1.00727 0.0
O260 O 0.63727 0.24357 0.10052 0.0
O261 O 0.65332 0.27114 0.10392 0.0
O262 O 0.61688 0.25118 0.94732 0.0
O263 O 0.62117 0.22226 0.03961 0.0
O264 O 0.62978 0.30806 0.95419 0.0
O265 O 0.64287 0.29516 0.02201 0.0
O266 O 0.65476 0.26313 0.88693 0.0
O267 O 0.63873 0.23571 0.88535 0.0
O268 O 0.67592 0.251 0.02554 0.0
O269 O 0.66929 0.2951 0.96114 0.0
O270 O 0.66193 0.20232 0.03764 0.0
O271 O 0.64882 0.21357 0.96871 0.0
H272 H 0.59821 0.29108 0.96104 0.0
H273 H 0.60156 0.19548 0.0798 0.0
H274 H 0.58122 0.20503 0.1025 0.0
H275 H 0.57792 0.30062 0.98369 0.0
H276 H 0.69616 0.22428 1.00166 0.0
H277 H 0.68468 0.31858 0.88738 0.0
H278 H 0.70293 0.31315 0.83042 0.0
H279 H 0.71444 0.21933 0.94598 0.0
Gd280 Gd 0.40103 0.26498 0.98863 0.0
Gd281 Gd 0.37639 0.25651 0.99613 0.0
C282 C 0.38929 0.25868 0.13295 0.0
C283 C 0.42108 0.28461 0.99505 0.0
C284 C 0.433 0.27439 1.0161 0.0
C285 C 0.4401 0.24753 0.98234 0.0
C286 C 0.43777 0.29496 0.06418 0.0
C287 C 0.45663 0.26421 0.04009 0.0
C288 C 0.44945 0.28981 0.07634 0.0
C289 C 0.45177 0.24255 0.99418 0.0
C290 C 0.39692 0.19597 0.9838 0.0
C291 C 0.38771 0.26592 0.85185 0.0
C292 C 0.35641 0.23675 0.98674 0.0
C293 C 0.34592 0.24139 0.94647 0.0
C294 C 0.34037 0.27527 0.92982 0.0
C295 C 0.34087 0.21127 0.929 0.0
C296 C 0.32456 0.24873 0.88235 0.0
C297 C 0.33033 0.21485 0.89718 0.0
C298 C 0.32979 0.27889 0.89819 0.0
C299 C 0.38077 0.32493 1.00643 0.0
O300 O 0.39707 0.27291 0.09891 0.0
O301 O 0.38137 0.2437 0.10182 0.0
O302 O 0.41741 0.26747 0.94464 0.0
O303 O 0.41334 0.29288 0.04077 0.0
O304 O 0.40528 0.20779 0.954 0.0
O305 O 0.39185 0.22025 0.01963 0.0
O306 O 0.37983 0.25189 0.88504 0.0
O307 O 0.39579 0.27966 0.88385 0.0
O308 O 0.35865 0.26389 0.02243 0.0
O309 O 0.36546 0.2189 0.96 0.0
O310 O 0.3727 0.31233 0.03793 0.0
O311 O 0.38556 0.30168 0.96721 0.0
H312 H 0.43673 0.23121 0.94482 0.0
H313 H 0.43254 0.31613 0.09033 0.0
H314 H 0.45293 0.30711 0.11168 0.0
H315 H 0.45705 0.22226 0.96613 0.0
H316 H 0.34408 0.299 0.9425 0.0
H317 H 0.34495 0.18489 0.94174 0.0
H318 H 0.32652 0.19107 0.88645 0.0
H319 H 0.32566 0.30534 0.88663 0.0
H320 H 0.22787 0.22595 0.60161 0.0
H321 H 0.24728 0.22075 0.64408 0.0
H322 H 0.23773 0.30936 0.77658 0.0
H323 H 0.21824 0.31416 0.7357 0.0
H324 H 0.26207 0.27238 0.64004 0.0
H325 H 0.25417 0.23397 0.90086 0.0
H326 H 0.24396 0.23157 0.83497 0.0
H327 H 0.24544 0.27356 0.87354 0.0
C328 C 0.22984 0.24394 0.64066 0.0
C329 C 0.22146 0.27038 0.66545 0.0
C330 C 0.24097 0.2411 0.6645 0.0
C331 C 0.24395 0.2644 0.71405 0.0
C332 C 0.2356 0.29071 0.73913 0.0
H333 H 0.30626 0.29706 0.91618 0.0
H334 H 0.28695 0.30147 0.87242 0.0
C335 C 0.22448 0.29364 0.71521 0.0
C336 C 0.25585 0.26198 0.73781 0.0
H337 H 0.27246 0.24897 0.87687 0.0
C338 C 0.26436 0.26706 0.69174 0.0
C339 C 0.25882 0.25511 0.8053 0.0
C340 C 0.25015 0.24791 0.85652 0.0
C341 C 0.27572 0.26617 0.71159 0.0
C342 C 0.27868 0.25944 0.77914 0.0
C343 C 0.27018 0.25425 0.82515 0.0
C344 C 0.29055 0.25758 0.80322 0.0
C345 C 0.2844 0.27331 0.66038 0.0
C346 C 0.29902 0.23141 0.77892 0.0
C347 C 0.31009 0.22893 0.80359 0.0
C348 C 0.31293 0.2525 0.85331 0.0
C349 C 0.30443 0.27883 0.87719 0.0
C350 C 0.29336 0.28123 0.85261 0.0
H351 H 0.28039 0.28683 0.61562 0.0
H352 H 0.29051 0.29 0.68172 0.0
H353 H 0.2892 0.24766 0.64409 0.0
H354 H 0.29702 0.2125 0.74159 0.0
H355 H 0.31642 0.20847 0.7838 0.0
H356 H 0.7222 0.32122 0.85788 0.0
H357 H 0.74136 0.31838 0.81282 0.0
H358 H 0.7437 0.20415 0.79932 0.0
H359 H 0.72439 0.20681 0.84222 0.0
H360 H 0.76118 0.28366 0.86732 0.0
H361 H 0.75412 0.23071 0.61473 0.0
H362 H 0.74262 0.24918 0.66813 0.0
H363 H 0.74947 0.20458 0.68126 0.0
C364 C 0.72669 0.29552 0.84408 0.0
C365 C 0.7217 0.26425 0.85342 0.0
C366 C 0.73769 0.29393 0.81883 0.0
C367 C 0.74393 0.26111 0.80192 0.0
C368 C 0.73898 0.22985 0.81086 0.0
H369 H 0.81223 0.1939 0.65883 0.0
H370 H 0.79294 0.19735 0.70202 0.0
C371 C 0.72797 0.2314 0.83612 0.0
C372 C 0.75578 0.25951 0.7776 0.0
H373 H 0.77323 0.2324 0.64689 0.0
C374 C 0.7638 0.27263 0.81896 0.0
C375 C 0.75921 0.24502 0.71458 0.0
C376 C 0.75089 0.23185 0.66676 0.0
C377 C 0.7752 0.27107 0.79961 0.0
C378 C 0.77863 0.25654 0.73662 0.0
C379 C 0.7706 0.24346 0.69521 0.0
C380 C 0.79051 0.25464 0.71265 0.0
C381 C 0.78351 0.28419 0.8475 0.0
C382 C 0.79557 0.28571 0.70405 0.0
C383 C 0.80666 0.28381 0.67992 0.0
C384 C 0.8129 0.25079 0.66341 0.0
C385 C 0.80778 0.21972 0.67211 0.0
C386 C 0.7967 0.22166 0.69627 0.0
H387 H 0.78026 0.28548 0.89948 0.0
H388 H 0.79176 0.26674 0.84637 0.0
H389 H 0.78498 0.31139 0.83286 0.0
H390 H 0.79089 0.31152 0.71518 0.0
H391 H 0.81034 0.30826 0.67425 0.0
H392 H 0.30986 0.80764 0.18574 0.0
H393 H 0.29067 0.80939 0.23025 0.0
H394 H 0.29456 0.69474 0.23212 0.0
H395 H 0.31369 0.6927 0.18717 0.0
H396 H 0.27249 0.78102 0.17241 0.0
H397 H 0.28293 0.72052 0.42014 0.0
H398 H 0.29338 0.73731 0.36815 0.0
H399 H 0.28906 0.69453 0.3511 0.0
C400 C 0.30664 0.78277 0.19567 0.0
C401 C 0.31336 0.75001 0.183 0.0
C402 C 0.29569 0.78383 0.22134 0.0
C403 C 0.29122 0.75221 0.23533 0.0
C404 C 0.29791 0.71949 0.22315 0.0
H405 H 0.22606 0.70257 0.37654 0.0
H406 H 0.2453 0.70042 0.33249 0.0
C407 C 0.30887 0.71838 0.1975 0.0
C408 C 0.27941 0.75347 0.25995 0.0
H409 H 0.26353 0.72856 0.38909 0.0
C410 C 0.27053 0.76972 0.21994 0.0
C411 C 0.27686 0.73857 0.32184 0.0
C412 C 0.28605 0.72202 0.36817 0.0
C413 C 0.25916 0.77096 0.23961 0.0
C414 C 0.25661 0.75611 0.30156 0.0
C415 C 0.26549 0.73984 0.34154 0.0
C416 C 0.24479 0.75755 0.32626 0.0
C417 C 0.24998 0.78746 0.19317 0.0
C418 C 0.23812 0.79038 0.33773 0.0
C419 C 0.22713 0.7917 0.36301 0.0
C420 C 0.2226 0.7602 0.37789 0.0
C421 C 0.22931 0.72734 0.36617 0.0
C422 C 0.2403 0.72605 0.3408 0.0
H423 H 0.25309 0.78864 0.14113 0.0
H424 H 0.24261 0.77234 0.19357 0.0
H425 H 0.24704 0.81508 0.20979 0.0
H426 H 0.2415 0.81505 0.3284 0.0
H427 H 0.22231 0.81747 0.37269 0.0
H428 H 0.72731 0.71985 0.12431 0.0
H429 H 0.74662 0.71594 0.16786 0.0
H430 H 0.73675 0.80792 0.29173 0.0
H431 H 0.71734 0.81148 0.24978 0.0
H432 H 0.76122 0.76797 0.15858 0.0
H433 H 0.75326 0.73623 0.42298 0.0
H434 H 0.74312 0.73176 0.35756 0.0
H435 H 0.7445 0.77484 0.39175 0.0
C436 C 0.72918 0.73885 0.16178 0.0
C437 C 0.72074 0.7659 0.18374 0.0
C438 C 0.74025 0.73674 0.18623 0.0
C439 C 0.74312 0.76139 0.23357 0.0
C440 C 0.73471 0.78825 0.25602 0.0
H441 H 0.80575 0.797 0.43079 0.0
H442 H 0.78636 0.80133 0.38822 0.0
C443 C 0.72364 0.79045 0.23148 0.0
C444 C 0.755 0.75985 0.25732 0.0
H445 H 0.7716 0.75 0.39679 0.0
C446 C 0.7635 0.76387 0.21061 0.0
C447 C 0.75795 0.75465 0.32527 0.0
C448 C 0.74926 0.7488 0.37732 0.0
C449 C 0.77486 0.76338 0.23011 0.0
C450 C 0.77782 0.75809 0.29803 0.0
C451 C 0.76931 0.75413 0.34477 0.0
C452 C 0.78972 0.75621 0.3216 0.0
C453 C 0.78354 0.76932 0.17803 0.0
C454 C 0.79807 0.72937 0.29838 0.0
C455 C 0.80918 0.72695 0.32232 0.0
C456 C 0.81218 0.75123 0.37026 0.0
C457 C 0.8038 0.77821 0.39313 0.0
C458 C 0.79268 0.78056 0.36925 0.0
H459 H 0.77953 0.78226 0.13273 0.0
H460 H 0.78975 0.78606 0.19799 0.0
H461 H 0.78822 0.74326 0.16294 0.0
H462 H 0.79595 0.70992 0.26245 0.0
H463 H 0.81543 0.70598 0.30331 0.0
H464 H 0.13327 0.87597 0.41416 0.0
H465 H 0.13617 0.93865 0.41617 0.0
H466 H 0.1551 0.92115 0.59928 0.0
H467 H 0.15255 0.85808 0.59604 0.0
H468 H 0.12916 0.98881 0.50389 0.0
H469 H 0.176 0.97408 0.49443 0.0
H470 H 0.16815 0.93735 0.47892 0.0
H471 H 0.17082 0.9507 0.56306 0.0
C472 C 0.13817 0.88543 0.4544 0.0
C473 C 0.14272 0.86217 0.50482 0.0
C474 C 0.13979 0.92128 0.45563 0.0
C475 C 0.14597 0.93469 0.50743 0.0
C476 C 0.15054 0.91138 0.55787 0.0
H477 H 0.14097 0.16204 0.60246 0.0
H478 H 0.13889 0.09859 0.6009 0.0
C479 C 0.14903 0.87537 0.55621 0.0
C480 C 0.14719 0.9733 0.50976 0.0
H481 H 0.16658 0.03192 0.51954 0.0
C482 C 0.13735 0.99822 0.50704 0.0
C483 C 0.15787 0.9857 0.51307 0.0
C484 C 0.16881 0.96058 0.51185 0.0
C485 C 0.13789 0.03503 0.50785 0.0
C486 C 0.14855 0.04742 0.51355 0.0
C487 C 0.15839 0.0225 0.51588 0.0
C488 C 0.14975 0.08604 0.51515 0.0
C489 C 0.12703 0.06019 0.5007 0.0
C490 C 0.15679 0.10008 0.4688 0.0
C491 C 0.15814 0.13615 0.47044 0.0
C492 C 0.15246 0.15899 0.51833 0.0
C493 C 0.14539 0.14507 0.56469 0.0
C494 C 0.14414 0.10885 0.56352 0.0
H495 H 0.12025 0.0469 0.47725 0.0
H496 H 0.12403 0.06959 0.55084 0.0
H497 H 0.12832 0.08372 0.47023 0.0
H498 H 0.16123 0.0831 0.43108 0.0
H499 H 0.16363 0.14617 0.43405 0.0
H500 H 0.89838 0.35478 0.57673 0.0
H501 H 0.9012 0.41775 0.57426 0.0
H502 H 0.87088 0.44184 0.45632 0.0
H503 H 0.86824 0.37903 0.457 0.0
H504 H 0.88733 0.47444 0.40697 0.0
H505 H 0.88486 0.49939 0.6793 0.0
H506 H 0.8957 0.46397 0.65651 0.0
H507 H 0.88107 0.45925 0.64204 0.0
C508 C 0.89231 0.3736 0.55053 0.0
C509 C 0.88305 0.36202 0.51742 0.0
C510 C 0.89388 0.40964 0.54952 0.0
C511 C 0.88613 0.43485 0.51618 0.0
C512 C 0.87695 0.42309 0.48267 0.0
H513 H 0.87981 0.66617 0.55956 0.0
H514 H 0.87718 0.60307 0.56353 0.0
C515 C 0.87544 0.38713 0.48318 0.0
C516 C 0.88767 0.4733 0.5143 0.0
H517 H 0.8905 0.54559 0.61235 0.0
C518 C 0.888 0.48997 0.45196 0.0
C519 C 0.88837 0.49388 0.5729 0.0
C520 C 0.88737 0.47835 0.64148 0.0
C521 C 0.88911 0.52632 0.44652 0.0
C522 C 0.89022 0.54659 0.50504 0.0
C523 C 0.88977 0.53006 0.56743 0.0
C524 C 0.89181 0.58496 0.50253 0.0
C525 C 0.88878 0.54279 0.37801 0.0
C526 C 0.90096 0.5959 0.46756 0.0
C527 C 0.9024 0.63192 0.46474 0.0
C528 C 0.89483 0.65778 0.49769 0.0
C529 C 0.88576 0.64685 0.53353 0.0
C530 C 0.88428 0.61079 0.53596 0.0
H531 H 0.88451 0.52702 0.34133 0.0
H532 H 0.8843 0.57041 0.37877 0.0
H533 H 0.89757 0.54357 0.36042 0.0
H534 H 0.90706 0.57653 0.44276 0.0
H535 H 0.90952 0.63948 0.43716 0.0
H536 H 0.87194 0.87587 0.6054 0.0
H537 H 0.87495 0.93844 0.60718 0.0
H538 H 0.89603 0.92121 0.43223 0.0
H539 H 0.89339 0.85812 0.43202 0.0
H540 H 0.9052 0.96173 0.51707 0.0
H541 H 0.86004 0.01647 0.49237 0.0
H542 H 0.86246 0.98855 0.56427 0.0
H543 H 0.86497 0.96973 0.48215 0.0
C544 C 0.8772 0.88546 0.56726 0.0
C545 C 0.88234 0.86219 0.5182 0.0
C546 C 0.87884 0.92135 0.56795 0.0
C547 C 0.88547 0.935 0.51875 0.0
C548 C 0.89079 0.91153 0.47042 0.0
H549 H 0.88389 0.16376 0.45111 0.0
H550 H 0.88143 0.1007 0.44383 0.0
C551 C 0.88928 0.87547 0.47025 0.0
C552 C 0.88702 0.97349 0.5186 0.0
H553 H 0.87262 0.05772 0.524 0.0
C554 C 0.89806 0.9827 0.51814 0.0
C555 C 0.87774 1.00108 0.51866 0.0
C556 C 0.86565 0.99349 0.51364 0.0
C557 C 0.90008 0.01845 0.51923 0.0
C558 C 0.8908 0.04597 0.52314 0.0
C559 C 0.87976 0.03678 0.52205 0.0
C560 C 0.89234 0.08441 0.52775 0.0
C561 C 0.91215 0.02622 0.51464 0.0
C562 C 0.89911 0.09665 0.57799 0.0
C563 C 0.90065 0.13261 0.58156 0.0
C564 C 0.89526 0.15729 0.53585 0.0
C565 C 0.8882 0.14533 0.48687 0.0
C566 C 0.88678 0.10927 0.48274 0.0
H567 H 0.9177 1.00398 0.49038 0.0
H568 H 0.91273 0.05095 0.48608 0.0
H569 H 0.91548 0.02955 0.56563 0.0
H570 H 0.90319 0.07843 0.61477 0.0
H571 H 0.90603 0.14113 0.62037 0.0
H572 H 0.16 0.64321 0.627 0.0
H573 H 0.15693 0.58074 0.62489 0.0
H574 H 0.13671 0.59979 0.4469 0.0
H575 H 0.13942 0.66284 0.45039 0.0
H576 H 0.1273 0.55765 0.52891 0.0
H577 H 0.17268 0.5054 0.50553 0.0
H578 H 0.16999 0.53247 0.57866 0.0
H579 H 0.16753 0.55207 0.49735 0.0
C580 C 0.15488 0.63407 0.58748 0.0
C581 C 0.15004 0.65776 0.53847 0.0
C582 C 0.15321 0.59827 0.58597 0.0
C583 C 0.14686 0.58519 0.53463 0.0
C584 C 0.14174 0.60911 0.48664 0.0
H585 H 0.14985 0.35687 0.45738 0.0
H586 H 0.15179 0.4203 0.45156 0.0
C587 C 0.14329 0.64511 0.48864 0.0
C588 C 0.14549 0.54669 0.53163 0.0
H589 H 0.1603 0.4631 0.53419 0.0
C590 C 0.13452 0.53699 0.52957 0.0
C591 C 0.1549 0.51958 0.53102 0.0
C592 C 0.16693 0.52789 0.5275 0.0
C593 C 0.1327 0.50108 0.52882 0.0
C594 C 0.1421 0.474 0.53235 0.0
C595 C 0.15307 0.48372 0.53255 0.0
C596 C 0.14078 0.43547 0.53563 0.0
C597 C 0.12071 0.49266 0.52292 0.0
C598 C 0.1341 0.42258 0.58541 0.0
C599 C 0.13286 0.38641 0.58819 0.0
C600 C 0.13846 0.36226 0.54208 0.0
C601 C 0.1454 0.37491 0.49342 0.0
C602 C 0.14652 0.41117 0.49011 0.0
H603 H 0.1151 0.51482 0.49907 0.0
H604 H 0.12032 0.46804 0.49337 0.0
H605 H 0.11732 0.48878 0.57349 0.0
H606 H 0.12989 0.44045 0.62251 0.0
H607 H 0.12758 0.37731 0.62671 0.0
H608 H 0.66148 0.64172 0.93897 0.0
H609 H 0.65837 0.57939 0.93217 0.0
H610 H 0.63739 0.59309 0.10804 0.0
H611 H 0.64012 0.65607 0.1132 0.0
H612 H 0.66401 0.52624 1.01216 0.0
H613 H 0.61728 0.54449 0.99032 0.0
H614 H 0.62544 0.58112 0.98373 0.0
H615 H 0.62205 0.56459 0.06434 0.0
C616 C 0.65612 0.63152 0.97588 0.0
C617 C 0.65102 0.6538 0.0265 0.0
C618 C 0.65436 0.5958 0.97205 0.0
C619 C 0.6475 0.58136 0.01898 0.0
C620 C 0.64246 0.60361 0.07006 0.0
H621 H 0.65111 0.35047 0.07528 0.0
H622 H 0.65337 0.41352 0.08516 0.0
C623 C 0.6441 0.63958 0.07334 0.0
C624 C 0.64602 0.54282 1.01518 0.0
H625 H 0.62618 0.48539 1.0087 0.0
C626 C 0.65572 0.51739 1.01119 0.0
C627 C 0.63522 0.53102 1.01293 0.0
C628 C 0.62441 0.55674 1.01235 0.0
C629 C 0.65496 0.48078 1.00519 0.0
C630 C 0.64418 0.46887 1.00546 0.0
C631 C 0.63447 0.4943 1.00917 0.0
C632 C 0.64275 0.43034 1.00028 0.0
C633 C 0.66575 0.45545 0.99651 0.0
C634 C 0.63574 0.41861 0.95076 0.0
C635 C 0.63425 0.38263 0.94594 0.0
C636 C 0.63979 0.3575 0.99036 0.0
C637 C 0.64681 0.36915 0.03993 0.0
C638 C 0.64817 0.40522 0.0453 0.0
H639 H 0.6727 0.46923 0.97658 0.0
H640 H 0.66852 0.44411 0.0457 0.0
H641 H 0.6645 0.43324 0.96226 0.0
H642 H 0.63143 0.43731 0.91547 0.0
H643 H 0.62879 0.37445 0.90726 0.0
H644 H 0.369 0.87959 0.96233 0.0
H645 H 0.37233 0.94167 0.95658 0.0
H646 H 0.40176 0.91809 0.08207 0.0
H647 H 0.39827 0.85572 0.08938 0.0
H648 H 0.38905 0.97986 0.11927 0.0
H649 H 0.39588 0.98168 0.84664 0.0
H650 H 0.38254 0.96767 0.8677 0.0
H651 H 0.3955 0.94093 0.89226 0.0
C652 C 0.37621 0.88756 0.98865 0.0
C653 C 0.3834 0.86272 0.02612 0.0
C654 C 0.37815 0.92308 0.98491 0.0
C655 C 0.38744 0.93458 1.01769 0.0
C656 C 0.39458 0.90988 0.05593 0.0
H657 H 0.41045 0.13912 0.93081 0.0
H658 H 0.40853 0.07593 0.94191 0.0
C659 C 0.39259 0.87425 0.06005 0.0
C660 C 0.38951 0.97249 1.01279 0.0
H661 H 0.39273 0.03828 0.90091 0.0
C662 C 0.38994 0.99257 0.07153 0.0
C663 C 0.39086 0.98909 0.95062 0.0
C664 C 0.39129 0.96863 0.88579 0.0
C665 C 0.39137 0.02885 0.06973 0.0
C666 C 0.39213 0.04588 1.00736 0.0
C667 C 0.39199 0.02553 0.94875 0.0
C668 C 0.39327 0.08455 1.00156 0.0
C669 C 0.39225 0.04832 0.13485 0.0
C670 C 0.38526 0.11075 0.03046 0.0
C671 C 0.38641 0.14695 0.02465 0.0
C672 C 0.39551 0.15777 0.98895 0.0
C673 C 0.40337 0.13164 0.9588 0.0
C674 C 0.40227 0.09547 0.96511 0.0
H675 H 0.39498 0.02964 0.17613 0.0
H676 H 0.39834 0.06801 0.13113 0.0
H677 H 0.38382 0.0627 0.14806 0.0
H678 H 0.37805 0.10324 0.05715 0.0
H679 H 0.38016 0.16649 0.04792 0.0
H680 H 0.37231 0.37516 0.09663 0.0
H681 H 0.37525 0.4377 0.10155 0.0
H682 H 0.39651 0.42298 0.92702 0.0
H683 H 0.39393 0.3598 0.92358 0.0
H684 H 0.40551 0.46282 1.0148 0.0
H685 H 0.36032 0.51686 0.9892 0.0
H686 H 0.36266 0.48795 0.05978 0.0
H687 H 0.36538 0.47035 0.97694 0.0
C688 C 0.3776 0.38527 0.05921 0.0
C689 C 0.38279 0.36267 1.00931 0.0
C690 C 0.3792 0.42117 0.06173 0.0
C691 C 0.38585 0.43554 1.01358 0.0
C692 C 0.39125 0.41274 0.96443 0.0
H693 H 0.38372 0.66555 0.95933 0.0
H694 H 0.38148 0.60249 0.94814 0.0
C695 C 0.38976 0.37663 0.96241 0.0
C696 C 0.38732 0.47411 1.01542 0.0
H697 H 0.3727 0.55795 0.02465 0.0
C698 C 0.39832 0.48361 1.01648 0.0
C699 C 0.37798 0.5015 1.0163 0.0
C700 C 0.36593 0.49369 1.00975 0.0
C701 C 0.40024 0.51943 0.02 0.0
C702 C 0.3909 0.5467 0.02478 0.0
C703 C 0.37989 0.53722 0.02208 0.0
C704 C 0.39231 0.58516 0.03183 0.0
C705 C 0.41229 0.52759 1.01704 0.0
C706 C 0.39897 0.59684 0.08328 0.0
C707 C 0.40037 0.63285 0.08912 0.0
C708 C 0.39497 0.65812 0.04451 0.0
C709 C 0.38803 0.64668 0.99432 0.0
C710 C 0.38674 0.6106 0.98794 0.0
H711 H 0.41793 0.50587 0.99197 0.0
H712 H 0.41286 0.55281 0.99008 0.0
H713 H 0.4155 0.53017 0.06852 0.0
H714 H 0.40305 0.57814 0.11925 0.0
H715 H 0.40567 0.64094 0.12879 0.0
H716 H 0.66632 0.13539 0.07062 0.0
H717 H 0.66321 0.07305 0.07522 0.0
H718 H 0.63293 0.09728 0.95696 0.0
H719 H 0.63624 0.15978 0.95051 0.0
H720 H 0.64657 0.04261 0.12736 0.0
H721 H 0.64854 0.01283 0.85656 0.0
H722 H 0.65265 0.05323 0.89092 0.0
H723 H 0.63793 0.04919 0.87797 0.0
C724 C 0.65903 0.12742 0.04515 0.0
C725 C 0.65157 0.15243 1.00969 0.0
C726 C 0.65725 0.09172 0.04794 0.0
C727 C 0.64794 0.08009 1.01557 0.0
C728 C 0.64035 0.10522 0.98089 0.0
H729 H 0.62412 0.87699 0.10909 0.0
H730 H 0.62656 0.93988 0.09997 0.0
C731 C 0.6422 0.14101 0.97758 0.0
C732 C 0.64612 0.0419 0.02003 0.0
H733 H 0.64286 0.96816 0.92693 0.0
C734 C 0.64577 0.02637 0.08344 0.0
C735 C 0.64524 0.02037 0.96286 0.0
C736 C 0.64622 0.0346 0.89323 0.0
C737 C 0.64452 0.99022 0.09131 0.0
C738 C 0.64328 0.96898 0.03423 0.0
C739 C 0.6437 0.98441 0.97078 0.0
C740 C 0.64169 0.93063 0.03924 0.0
C741 C 0.64488 0.97499 0.16083 0.0
C742 C 0.64916 0.90432 1.00662 0.0
C743 C 0.64769 0.86831 1.01109 0.0
C744 C 0.63869 0.85785 0.04823 0.0
C745 C 0.63119 0.88417 0.08055 0.0
C746 C 0.63262 0.92017 0.07568 0.0
H747 H 0.64919 0.99133 0.19629 0.0
H748 H 0.6361 0.97462 0.17889 0.0
H749 H 0.64932 0.94734 0.16162 0.0
H750 H 0.6562 0.91162 0.97798 0.0
H751 H 0.65359 0.84866 0.98549 0.0
H752 H 0.15887 0.29201 0.30797 0.0
H753 H 0.15896 0.29021 0.18628 0.0
H754 H 0.1302 0.23218 0.18812 0.0
H755 H 0.12994 0.23417 0.31019 0.0
H756 H 0.16163 0.23047 0.10355 0.0
H757 H 0.12035 0.31338 0.05776 0.0
H758 H 0.12737 0.31193 0.13767 0.0
H759 H 0.11967 0.27641 0.11271 0.0
C760 C 0.15249 0.27907 0.28267 0.0
C761 C 0.14436 0.26337 0.31902 0.0
C762 C 0.15258 0.27801 0.213 0.0
C763 C 0.14451 0.26144 0.17802 0.0
C764 C 0.13638 0.24571 0.21401 0.0
H765 H 0.13242 0.22536 0.75797 0.0
H766 H 0.13233 0.22593 0.87973 0.0
C767 C 0.13627 0.24674 0.28385 0.0
C768 C 0.14487 0.25979 0.104 0.0
H769 H 0.12964 0.28499 0.96373 0.0
C770 C 0.15465 0.24249 0.07293 0.0
C771 C 0.13576 0.27546 0.06415 0.0
C772 C 0.12522 0.29563 0.09457 0.0
C773 C 0.1555 0.23996 1.00313 0.0
C774 C 0.1464 0.25569 0.96329 0.0
C775 C 0.13661 0.27293 0.99436 0.0
C776 C 0.14681 0.25446 0.88925 0.0
C777 C 0.16603 0.2198 0.97271 0.0
C778 C 0.15497 0.27042 0.85396 0.0
C779 C 0.15508 0.27009 0.78412 0.0
C780 C 0.14696 0.25397 0.74823 0.0
C781 C 0.13882 0.23793 0.78385 0.0
C782 C 0.13873 0.23828 0.85356 0.0
H783 H 0.17085 0.2018 1.00938 0.0
H784 H 0.1639 0.20377 0.9292 0.0
H785 H 0.17164 0.23902 0.95521 0.0
H786 H 0.16116 0.28366 0.88042 0.0
H787 H 0.16142 0.2829 0.75835 0.0
H788 H 0.90505 0.28356 0.30599 0.0
H789 H 0.90466 0.28572 0.18388 0.0
H790 H 0.87487 0.23243 0.18249 0.0
H791 H 0.87511 0.23043 0.30411 0.0
H792 H 0.90553 0.22954 0.09068 0.0
H793 H 0.8653 0.32105 0.06894 0.0
H794 H 0.87309 0.3147 0.14617 0.0
H795 H 0.86431 0.28237 0.11891 0.0
C796 C 0.89842 0.27229 0.27974 0.0
C797 C 0.89008 0.257 0.31498 0.0
C798 C 0.89821 0.27356 0.20995 0.0
C799 C 0.88962 0.25981 0.17416 0.0
C800 C 0.88143 0.2439 0.20912 0.0
H801 H 0.8733 0.23875 0.75434 0.0
H802 H 0.87372 0.23749 0.87646 0.0
C803 C 0.88163 0.2426 0.27875 0.0
C804 C 0.8893 0.26159 0.10021 0.0
H805 H 0.87287 0.29418 0.96873 0.0
C806 C 0.89843 0.24384 0.06397 0.0
C807 C 0.88 0.28017 0.0655 0.0
C808 C 0.87016 0.30095 0.10175 0.0
C809 C 0.89841 0.24359 0.9939 0.0
C810 C 0.88911 0.26213 0.95919 0.0
C811 C 0.87998 0.27992 0.99543 0.0
C812 C 0.88873 0.26361 0.88523 0.0
C813 C 0.90825 0.22279 0.95764 0.0
C814 C 0.89689 0.27937 0.84971 0.0
C815 C 0.89668 0.28017 0.78004 0.0
C816 C 0.88825 0.26538 0.74436 0.0
C817 C 0.87992 0.25032 0.78016 0.0
C818 C 0.88015 0.24956 0.84996 0.0
H819 H 0.91315 0.20284 0.99056 0.0
H820 H 0.90529 0.20882 0.91352 0.0
H821 H 0.91405 0.24137 0.94 0.0
H822 H 0.90345 0.29106 0.87593 0.0
H823 H 0.90319 0.29215 0.75422 0.0
H824 H 0.12973 0.7391 0.29595 0.0
H825 H 0.12995 0.73925 0.17417 0.0
H826 H 0.16332 0.77137 0.17612 0.0
H827 H 0.16319 0.77154 0.2982 0.0
H828 H 0.14738 0.81215 0.09026 0.0
H829 H 0.14846 0.66682 0.04894 0.0
H830 H 0.1375 0.68655 0.10413 0.0
H831 H 0.15208 0.68533 0.12793 0.0
C832 C 0.13716 0.74601 0.27066 0.0
C833 C 0.14646 0.75521 0.30701 0.0
C834 C 0.13728 0.7459 0.20096 0.0
C835 C 0.1467 0.75487 0.16616 0.0
C836 C 0.15599 0.76417 0.20211 0.0
H837 H 0.16217 0.78256 0.74738 0.0
H838 H 0.16224 0.78108 0.86906 0.0
C839 C 0.1559 0.76417 0.27189 0.0
C840 C 0.14669 0.75575 0.09224 0.0
H841 H 0.14548 0.70377 0.95373 0.0
C842 C 0.14703 0.78846 0.0603 0.0
C843 C 0.14615 0.72481 0.05344 0.0
C844 C 0.14612 0.68879 0.08515 0.0
C845 C 0.14664 0.7912 0.99049 0.0
C846 C 0.14617 0.76022 0.95156 0.0
C847 C 0.14583 0.7275 0.9836 0.0
C848 C 0.14611 0.76111 0.87753 0.0
C849 C 0.14646 0.82742 0.9592 0.0
C850 C 0.13717 0.74942 0.84162 0.0
C851 C 0.13715 0.74989 0.77184 0.0
C852 C 0.1461 0.76198 0.73664 0.0
C853 C 0.15508 0.7734 0.77282 0.0
C854 C 0.15511 0.77277 0.8425 0.0
H855 H 0.1436 0.84911 0.99514 0.0
H856 H 0.15515 0.83081 0.94283 0.0
H857 H 0.14081 0.83037 0.91496 0.0
H858 H 0.13016 0.74011 0.86764 0.0
H859 H 0.13012 0.74081 0.74559 0.0
H860 H 0.87407 0.73196 0.72992 0.0
H861 H 0.8739 0.73415 0.85156 0.0
H862 H 0.90411 0.78537 0.85009 0.0
H863 H 0.90427 0.78381 0.72801 0.0
H864 H 0.89009 0.70488 0.94226 0.0
H865 H 0.88257 0.85202 0.96689 0.0
H866 H 0.88073 0.82945 0.88908 0.0
H867 H 0.89468 0.83542 0.91727 0.0
C868 C 0.88069 0.74374 0.75527 0.0
C869 C 0.88916 0.75788 0.71903 0.0
C870 C 0.88058 0.74494 0.82492 0.0
C871 C 0.88888 0.76042 0.85992 0.0
C872 C 0.89748 0.77398 0.82407 0.0
H873 H 0.90217 0.79125 0.27974 0.0
H874 H 0.90239 0.78964 0.15802 0.0
C875 C 0.8976 0.77284 0.75427 0.0
C876 C 0.88857 0.7619 0.93392 0.0
H877 H 0.88626 0.81914 0.06659 0.0
C878 C 0.88921 0.72985 0.96948 0.0
C879 C 0.88742 0.79452 0.96931 0.0
C880 C 0.88621 0.82985 0.93382 0.0
C881 C 0.88893 0.7295 0.03951 0.0
C882 C 0.88777 0.76212 0.0749 0.0
C883 C 0.88714 0.79416 0.03935 0.0
C884 C 0.88738 0.76356 0.14888 0.0
C885 C 0.89015 0.69416 0.075 0.0
C886 C 0.87874 0.75 0.18428 0.0
C887 C 0.87858 0.75082 0.25408 0.0
C888 C 0.88703 0.76545 0.28977 0.0
C889 C 0.89553 0.77972 0.25399 0.0
C890 C 0.89568 0.77884 0.18432 0.0
H891 H 0.89381 0.67201 0.04197 0.0
H892 H 0.8956 0.6946 0.11985 0.0
H893 H 0.88167 0.68854 0.09138 0.0
H894 H 0.87211 0.73876 0.1579 0.0
H895 H 0.87188 0.73977 0.27998 0.0
H896 H 0.66145 0.77542 0.26839 0.0
H897 H 0.66129 0.77575 0.39055 0.0
H898 H 0.63084 0.7257 0.38963 0.0
H899 H 0.63099 0.7248 0.268 0.0
H900 H 0.64435 0.80877 0.47486 0.0
H901 H 0.65126 0.66301 0.51772 0.0
H902 H 0.65383 0.68255 0.43811 0.0
H903 H 0.63964 0.67743 0.46296 0.0
C904 C 0.65477 0.76418 0.29415 0.0
C905 C 0.64627 0.74991 0.25828 0.0
C906 C 0.65469 0.76445 0.36397 0.0
C907 C 0.64615 0.75028 0.39921 0.0
C908 C 0.63765 0.73607 0.36355 0.0
H909 H 0.62901 0.73339 0.81899 0.0
H910 H 0.62916 0.73264 0.69681 0.0
C911 C 0.63773 0.73576 0.29387 0.0
C912 C 0.64585 0.75157 0.47319 0.0
H913 H 0.64606 0.69955 0.6121 0.0
C914 C 0.64479 0.7849 0.50492 0.0
C915 C 0.64636 0.72039 0.51229 0.0
C916 C 0.64794 0.68379 0.48118 0.0
C917 C 0.64404 0.78793 0.57466 0.0
C918 C 0.64456 0.75675 0.61375 0.0
C919 C 0.64561 0.72342 0.58203 0.0
C920 C 0.6443 0.75806 0.68773 0.0
C921 C 0.64246 0.82454 0.60575 0.0
C922 C 0.65281 0.77232 0.72315 0.0
C923 C 0.65274 0.77287 0.79281 0.0
C924 C 0.64419 0.75892 0.82865 0.0
C925 C 0.63569 0.7445 0.79303 0.0
C926 C 0.63577 0.74399 0.7232 0.0
H927 H 0.63911 0.8453 0.56924 0.0
H928 H 0.63659 0.82577 0.64891 0.0
H929 H 0.65076 0.83094 0.62383 0.0
H930 H 0.65962 0.78262 0.69689 0.0
H931 H 0.65948 0.78394 0.81847 0.0
H932 H 0.37471 0.73279 0.81516 0.0
H933 H 0.37468 0.73411 0.69349 0.0
H934 H 0.40513 0.78409 0.69539 0.0
H935 H 0.40533 0.78258 0.81746 0.0
H936 H 0.37357 0.79365 0.61078 0.0
H937 H 0.41291 0.70064 0.56555 0.0
H938 H 0.40583 0.70416 0.64528 0.0
H939 H 0.41458 0.737 0.6207 0.0
C940 C 0.38147 0.74386 0.78988 0.0
C941 C 0.39006 0.75745 0.82622 0.0
C942 C 0.38141 0.74463 0.72023 0.0
C943 C 0.38997 0.75881 0.68533 0.0
C944 C 0.39856 0.77242 0.72129 0.0
H945 H 0.40318 0.79092 0.26639 0.0
H946 H 0.40322 0.7902 0.38812 0.0
C947 C 0.39863 0.77168 0.7911 0.0
C948 C 0.38966 0.76023 0.61138 0.0
H949 H 0.40436 0.73084 0.47139 0.0
C950 C 0.38028 0.77982 0.58024 0.0
C951 C 0.39842 0.74217 0.57171 0.0
C952 C 0.40847 0.71953 0.60231 0.0
C953 C 0.37951 0.78233 0.51046 0.0
C954 C 0.38827 0.76426 0.47079 0.0
C955 C 0.39765 0.74469 0.50193 0.0
C956 C 0.38794 0.76551 0.39683 0.0
C957 C 0.36946 0.80493 0.47986 0.0
C958 C 0.37934 0.75173 0.36117 0.0
C959 C 0.37927 0.75213 0.29136 0.0
C960 C 0.38784 0.76618 0.25591 0.0
C961 C 0.39642 0.78 0.29193 0.0
C962 C 0.39648 0.77956 0.36161 0.0
H963 H 0.36503 0.82389 0.51657 0.0
H964 H 0.37208 0.8202 0.43672 0.0
H965 H 0.36334 0.78743 0.46173 0.0
H966 H 0.37277 0.74015 0.38732 0.0
H967 H 0.37257 0.74107 0.26526 0.0
H968 H 0.66035 0.28139 0.22027 0.0
H969 H 0.6605 0.27899 0.34189 0.0
H970 H 0.62987 0.22988 0.33911 0.0
H971 H 0.62973 0.23165 0.21707 0.0
H972 H 0.6445 0.30913 0.43271 0.0
H973 H 0.6509 0.16193 0.45549 0.0
H974 H 0.65292 0.18432 0.37798 0.0
H975 H 0.63889 0.17938 0.40596 0.0
C976 C 0.65363 0.27003 0.24534 0.0
C977 C 0.64505 0.25655 0.20875 0.0
C978 C 0.65374 0.2687 0.31498 0.0
C979 C 0.64531 0.25374 0.3496 0.0
C980 C 0.63661 0.24084 0.31339 0.0
H981 H 0.63171 0.22384 0.76923 0.0
H982 H 0.63149 0.22535 0.64746 0.0
C983 C 0.6365 0.2421 0.24361 0.0
C984 C 0.64559 0.2522 0.42361 0.0
H985 H 0.64739 0.19494 0.55557 0.0
C986 C 0.64517 0.28417 0.4596 0.0
C987 C 0.64647 0.21959 0.4586 0.0
C988 C 0.64743 0.1843 0.42266 0.0
C989 C 0.64542 0.28448 0.52964 0.0
C990 C 0.64632 0.25187 0.56464 0.0
C991 C 0.64672 0.2199 0.52866 0.0
C992 C 0.64671 0.25038 0.63863 0.0
C993 C 0.64446 0.31978 0.56555 0.0
C994 C 0.65547 0.26334 0.67422 0.0
C995 C 0.65562 0.26258 0.74401 0.0
C996 C 0.64705 0.24857 0.77955 0.0
C997 C 0.63844 0.23486 0.74359 0.0
C998 C 0.63829 0.23569 0.6739 0.0
H999 H 0.64093 0.34211 0.53278 0.0
H1000 H 0.63901 0.31972 0.61042 0.0
H1001 H 0.65301 0.3248 0.58193 0.0
H1002 H 0.66219 0.27409 0.648 0.0
H1003 H 0.66241 0.27319 0.77003 0.0
H1004 H 0.37454 0.23238 0.21806 0.0
H1005 H 0.37436 0.2348 0.33972 0.0
H1006 H 0.40419 0.28793 0.33773 0.0
H1007 H 0.40435 0.28614 0.21567 0.0
H1008 H 0.39068 0.20645 0.43022 0.0
H1009 H 0.38244 0.35349 0.45497 0.0
H1010 H 0.3807 0.33079 0.37717 0.0
H1011 H 0.39459 0.33752 0.40519 0.0
C1012 C 0.38107 0.24465 0.24332 0.0
C1013 C 0.38944 0.25923 0.20694 0.0
C1014 C 0.38095 0.24598 0.31298 0.0
C1015 C 0.38915 0.26204 0.34784 0.0
C1016 C 0.39763 0.27609 0.31184 0.0
H1017 H 0.40251 0.29295 0.76798 0.0
H1018 H 0.40271 0.29162 0.64618 0.0
C1019 C 0.39776 0.27482 0.24204 0.0
C1020 C 0.38887 0.26351 0.42187 0.0
H1021 H 0.3864 0.32072 0.55463 0.0
C1022 C 0.3897 0.23143 0.45745 0.0
C1023 C 0.38759 0.29613 0.45731 0.0
C1024 C 0.38617 0.33148 0.42184 0.0
C1025 C 0.38948 0.23105 0.52748 0.0
C1026 C 0.38818 0.26367 0.56291 0.0
C1027 C 0.38738 0.29575 0.52737 0.0
C1028 C 0.38781 0.26505 0.63693 0.0
C1029 C 0.39088 0.19569 0.56295 0.0
C1030 C 0.37922 0.25114 0.67227 0.0
C1031 C 0.37908 0.25182 0.74208 0.0
C1032 C 0.38749 0.26664 0.77787 0.0
C1033 C 0.39592 0.28126 0.74216 0.0
C1034 C 0.39605 0.28055 0.67244 0.0
H1035 H 0.39462 0.17368 0.52984 0.0
H1036 H 0.39636 0.19638 0.60765 0.0
H1037 H 0.38247 0.18968 0.57957 0.0
H1038 H 0.37264 0.23971 0.64585 0.0
H1039 H 0.37243 0.24049 0.7679 0.0
H1040 H 0.06216 0.30836 0.46328 0.0
H1041 H 0.04161 0.30985 0.45509 0.0
H1042 H 0.04565 0.19529 0.44532 0.0
H1043 H 0.06611 0.19341 0.45658 0.0
H1044 H 0.02782 0.28519 0.36 0.0
H1045 H 0.02384 0.21547 0.59995 0.0
H1046 H 0.03665 0.2326 0.5758 0.0
H1047 H 0.03344 0.19103 0.54229 0.0
C1048 C 0.05869 0.28343 0.45985 0.0
C1049 C 0.06585 0.25075 0.46126 0.0
C1050 C 0.04693 0.28436 0.45467 0.0
C1051 C 0.04205 0.25267 0.45094 0.0
C1052 C 0.04918 0.22008 0.44963 0.0
H1053 H 0.97217 0.20673 0.44346 0.0
H1054 H 0.99279 0.20322 0.43488 0.0
C1055 C 0.06093 0.2191 0.45511 0.0
C1056 C 0.02952 0.25371 0.4495 0.0
H1057 H 1.00731 0.22603 0.53343 0.0
C1058 C 0.02333 0.27231 0.39798 0.0
C1059 C 0.02365 0.23696 0.49916 0.0
C1060 C 0.0297 0.21817 0.5578 0.0
C1061 C 1.01147 0.27422 0.39434 0.0
C1062 C 1.00563 0.25744 0.44394 0.0
C1063 C 1.01181 0.23869 0.4952 0.0
C1064 C 0.99307 0.25989 0.44502 0.0
C1065 C 1.0053 0.29378 0.33694 0.0
C1066 C 0.98637 0.2929 0.45375 0.0
C1067 C 0.9746 0.29499 0.45927 0.0
C1068 C 0.96923 0.26407 0.45635 0.0
C1069 C 0.97599 0.23105 0.44665 0.0
C1070 C 0.98778 0.229 0.44138 0.0
H1071 H 1.01109 0.29711 0.29467 0.0
H1072 H 0.99832 0.27955 0.31879 0.0
H1073 H 1.00156 0.32065 0.35399 0.0
H1074 H 0.99028 0.31701 0.45822 0.0
H1075 H 0.96975 0.32079 0.46815 0.0
H1076 H 0.9707 0.72 0.48003 0.0
H1077 H 0.99137 0.71303 0.48502 0.0
H1078 H 0.98972 0.78204 0.65694 0.0
H1079 H 0.969 0.78849 0.65335 0.0
H1080 H 1.00456 0.76898 0.47415 0.0
H1081 H 1.01282 0.69695 0.71353 0.0
H1082 H 0.99944 0.69938 0.6703 0.0
H1083 H 1.00278 0.73665 0.71844 0.0
C1084 C 0.97471 0.73305 0.5199 0.0
C1085 C 0.96817 0.75469 0.56649 0.0
C1086 C 0.98654 0.72925 0.52234 0.0
C1087 C 0.9921 0.74672 0.57171 0.0
C1088 C 0.98562 0.76784 0.61904 0.0
H1089 H 0.06212 0.77349 0.64989 0.0
H1090 H 0.0416 0.77363 0.65303 0.0
C1091 C 0.97377 0.77177 0.61653 0.0
C1092 C 1.00463 0.7446 0.57094 0.0
H1093 H 0.02851 0.71852 0.6622 0.0
C1094 C 1.00981 0.75773 0.51506 0.0
C1095 C 1.01145 0.73015 0.62457 0.0
C1096 C 1.00638 0.71468 0.68494 0.0
C1097 C 0.0216 0.75739 0.51177 0.0
C1098 C 0.02844 0.74275 0.56522 0.0
C1099 C 0.02326 0.72962 0.62118 0.0
C1100 C 0.04097 0.74137 0.56431 0.0
C1101 C 0.02658 0.77363 0.45186 0.0
C1102 C 0.04748 0.72257 0.51417 0.0
C1103 C 0.05922 0.7227 0.51185 0.0
C1104 C 0.0647 0.74145 0.55994 0.0
C1105 C 0.05817 0.75931 0.61132 0.0
C1106 C 0.04644 0.75921 0.61351 0.0
H1107 H 0.02011 0.79186 0.42448 0.0
H1108 H 0.03358 0.78866 0.46674 0.0
H1109 H 0.03005 0.75212 0.41705 0.0
H1110 H 0.04347 0.70803 0.47641 0.0
H1111 H 0.06394 0.70883 0.47137 0.0
H1112 H 0.56211 0.79504 0.0358 0.0
H1113 H 0.54152 0.79956 0.02603 0.0
H1114 H 0.545 0.70919 0.8933 0.0
H1115 H 0.56563 0.70483 0.90156 0.0
H1116 H 0.52706 0.8068 0.90868 0.0
H1117 H 0.52455 0.68137 0.04766 0.0
H1118 H 0.53692 0.70417 0.05006 0.0
H1119 H 0.53419 0.67819 0.97831 0.0
C1120 C 0.55854 0.77648 1.0035 0.0
C1121 C 0.56558 0.74944 0.96971 0.0
C1122 C 0.54674 0.77898 0.99837 0.0
C1123 C 0.54173 0.75438 0.9598 0.0
C1124 C 0.5487 0.72804 0.92436 0.0
H1125 H 0.47081 0.72019 0.91656 0.0
H1126 H 0.49145 0.71605 0.90651 0.0
C1127 C 0.56049 0.72558 0.92924 0.0
C1128 C 0.52921 0.75597 0.95772 0.0
H1129 H 0.50746 0.71117 1.0048 0.0
C1130 C 0.52276 0.7859 0.92957 0.0
C1131 C 0.52363 0.72858 0.98478 0.0
C1132 C 0.53013 0.69633 1.01742 0.0
C1133 C 0.51087 0.78911 0.92746 0.0
C1134 C 0.50527 0.76204 0.95574 0.0
C1135 C 0.51174 0.73188 0.98306 0.0
C1136 C 0.4927 0.76509 0.95982 0.0
C1137 C 0.50445 0.82126 0.8941 0.0
C1138 C 0.48654 0.79376 0.99376 0.0
C1139 C 0.47477 0.7962 0.9995 0.0
C1140 C 0.46887 0.76982 0.97199 0.0
C1141 C 0.47507 0.74091 0.93848 0.0
C1142 C 0.48687 0.73857 0.93253 0.0
H1143 H 0.50984 0.83327 0.85763 0.0
H1144 H 0.49683 0.81435 0.86785 0.0
H1145 H 0.50169 0.84171 0.93247 0.0
H1146 H 0.49086 0.81399 1.01703 0.0
H1147 H 0.47032 0.81836 0.02709 0.0
H1148 H 0.46935 0.26513 0.15438 0.0
H1149 H 0.48997 0.26422 0.16298 0.0
H1150 H 0.49276 0.25766 0.94897 0.0
H1151 H 0.47225 0.25869 0.93983 0.0
H1152 H 0.50824 0.20828 0.0991 0.0
H1153 H 0.50813 0.34791 1.01459 0.0
H1154 H 0.49583 0.33227 0.05099 0.0
H1155 H 0.4998 0.32063 0.96671 0.0
C1156 C 0.47437 0.26347 0.1092 0.0
C1157 C 0.46916 0.2619 0.04643 0.0
C1158 C 0.48613 0.26283 0.11422 0.0
C1159 C 0.49284 0.26113 0.05657 0.0
C1160 C 0.4877 0.25917 0.99401 0.0
H1161 H 0.56215 0.26908 0.9463 0.0
H1162 H 0.54163 0.27117 0.9543 0.0
C1163 C 0.47599 0.25947 0.98896 0.0
C1164 C 0.50524 0.26166 0.06119 0.0
H1165 H 0.52596 0.31282 0.02544 0.0
C1166 C 0.51215 0.23118 0.08366 0.0
C1167 C 0.51026 0.29155 0.0406 0.0
C1168 C 0.50316 0.32513 1.01721 0.0
C1169 C 0.52402 0.22936 0.08397 0.0
C1170 C 0.52908 0.25923 0.06292 0.0
C1171 C 0.52211 0.28995 0.04165 0.0
C1172 C 0.54159 0.25871 0.05953 0.0
C1173 C 0.53101 0.19493 0.10419 0.0
C1174 C 0.54844 0.25164 0.11629 0.0
C1175 C 0.56022 0.25029 0.11176 0.0
C1176 C 0.56538 0.25657 0.05062 0.0
C1177 C 0.55846 0.26456 0.99435 0.0
C1178 C 0.54671 0.2656 0.99878 0.0
H1179 H 0.52604 0.17214 0.10164 0.0
H1180 H 0.53859 0.18894 0.07189 0.0
H1181 H 0.53391 0.19725 0.15641 0.0
H1182 H 0.54468 0.24719 0.16413 0.0
H1183 H 0.5653 0.2445 0.15618 0.0
loop_
_geom_bond_atom_site_label_1
_geom_bond_atom_site_label_2
_geom_bond_distance
_geom_bond_site_symmetry_2
_ccdc_geom_bond_type
Gd0 C3 2.818 . S
Gd0 O20 2.377 . S
Gd0 O22 2.448 . S
Gd0 O23 2.506 . S
Gd0 O24 2.435 . S
Gd0 O25 2.717 . S
Gd0 O27 2.395 . S
Gd0 O31 2.327 . S
Gd1 C12 2.818 . S
Gd1 O21 2.395 . S
Gd1 O25 2.327 . S
Gd1 O26 2.377 . S
Gd1 O28 2.448 . S
Gd1 O29 2.506 . S
Gd1 O30 2.435 . S
Gd1 O31 2.717 . S
C2 O20 1.240 . S
C2 O21 1.240 . S
C3 Gd0 2.818 . S
C3 C4 1.510 . S
C3 O22 1.249 . S
C3 O23 1.252 . S
C4 C3 1.510 . S
C4 C5 1.404 . S
C4 C6 1.352 . S
C5 C4 1.404 . S
C5 C9 1.389 . S
C5 H32 0.930 . S
C6 C4 1.352 . S
C6 C8 1.374 . S
C6 H33 0.931 . S
C7 C8 1.359 . S
C7 C9 1.364 . S
C8 C6 1.374 . S
C8 C7 1.359 . S
C8 H34 0.931 . S
C9 C5 1.389 . S
C9 C7 1.364 . S
C9 H35 0.931 . S
C10 O24 1.256 . S
C10 O25 1.257 . S
C11 O26 1.240 . S
C11 O27 1.240 . S
C12 Gd1 2.818 . S
C12 C13 1.510 . S
C12 O28 1.249 . S
C12 O29 1.252 . S
C13 C12 1.510 . S
C13 C14 1.404 . S
C13 C15 1.352 . S
C14 C13 1.404 . S
C14 C18 1.389 . S
C14 H36 0.930 . S
C15 C13 1.352 . S
C15 C17 1.374 . S
C15 H37 0.931 . S
C16 C17 1.359 . S
C16 C18 1.364 . S
C17 C15 1.374 . S
C17 C16 1.359 . S
C17 H38 0.931 . S
C18 C14 1.389 . S
C18 C16 1.364 . S
C18 H39 0.931 . S
C19 O30 1.256 . S
C19 O31 1.257 . S
O20 Gd0 2.377 . S
O20 C2 1.240 . S
O21 Gd1 2.395 . S
O21 C2 1.240 . S
O22 Gd0 2.448 . S
O22 C3 1.249 . S
O23 Gd0 2.506 . S
O23 C3 1.252 . S
O24 Gd0 2.435 . S
O24 C10 1.256 . S
O25 Gd0 2.717 . S
O25 Gd1 2.327 . S
O25 C10 1.257 . S
O26 Gd1 2.377 . S
O26 C11 1.240 . S
O27 Gd0 2.395 . S
O27 C11 1.240 . S
O28 Gd1 2.448 . S
O28 C12 1.249 . S
O29 Gd1 2.506 . S
O29 C12 1.252 . S
O30 Gd1 2.435 . S
O30 C19 1.256 . S
O31 Gd0 2.327 . S
O31 Gd1 2.717 . S
O31 C19 1.257 . S
H32 C5 0.930 . S
H33 C6 0.931 . S
H34 C8 0.931 . S
H35 C9 0.931 . S
H36 C14 0.930 . S
H37 C15 0.931 . S
H38 C17 0.931 . S
H39 C18 0.931 . S
Gd40 C43 2.818 . S
Gd40 O60 2.377 . S
Gd40 O62 2.448 . S
Gd40 O63 2.506 . S
Gd40 O64 2.435 . S
Gd40 O65 2.717 . S
Gd40 O67 2.395 . S
Gd40 O71 2.327 . S
Gd41 C52 2.818 . S
Gd41 O61 2.395 . S
Gd41 O65 2.327 . S
Gd41 O66 2.377 . S
Gd41 O68 2.448 . S
Gd41 O69 2.506 . S
Gd41 O70 2.435 . S
Gd41 O71 2.717 . S
C42 O60 1.240 . S
C42 O61 1.240 . S
C43 Gd40 2.818 . S
C43 C44 1.510 . S
C43 O62 1.249 . S
C43 O63 1.252 . S
C44 C43 1.510 . S
C44 C45 1.404 . S
C44 C46 1.352 . S
C45 C44 1.404 . S
C45 C49 1.389 . S
C45 H72 0.930 . S
C46 C44 1.352 . S
C46 C48 1.374 . S
C46 H73 0.931 . S
C47 C48 1.359 . S
C47 C49 1.364 . S
C48 C46 1.374 . S
C48 C47 1.359 . S
C48 H74 0.931 . S
C49 C45 1.389 . S
C49 C47 1.364 . S
C49 H75 0.931 . S
C50 O64 1.256 . S
C50 O65 1.257 . S
C51 O66 1.240 . S
C51 O67 1.240 . S
C52 Gd41 2.818 . S
C52 C53 1.510 . S
C52 O68 1.249 . S
C52 O69 1.252 . S
C53 C52 1.510 . S
C53 C54 1.404 . S
C53 C55 1.352 . S
C54 C53 1.404 . S
C54 C58 1.389 . S
C54 H76 0.930 . S
C55 C53 1.352 . S
C55 C57 1.374 . S
C55 H77 0.931 . S
C56 C57 1.359 . S
C56 C58 1.364 . S
C57 C55 1.374 . S
C57 C56 1.359 . S
C57 H78 0.931 . S
C58 C54 1.389 . S
C58 C56 1.364 . S
C58 H79 0.931 . S
C59 O70 1.256 . S
C59 O71 1.257 . S
O60 Gd40 2.377 . S
O60 C42 1.240 . S
O61 Gd41 2.395 . S
O61 C42 1.240 . S
O62 Gd40 2.448 . S
O62 C43 1.249 . S
O63 Gd40 2.506 . S
O63 C43 1.252 . S
O64 Gd40 2.435 . S
O64 C50 1.256 . S
O65 Gd40 2.717 . S
O65 Gd41 2.327 . S
O65 C50 1.257 . S
O66 Gd41 2.377 . S
O66 C51 1.240 . S
O67 Gd40 2.395 . S
O67 C51 1.240 . S
O68 Gd41 2.448 . S
O68 C52 1.249 . S
O69 Gd41 2.506 . S
O69 C52 1.252 . S
O70 Gd41 2.435 . S
O70 C59 1.256 . S
O71 Gd40 2.327 . S
O71 Gd41 2.717 . S
O71 C59 1.257 . S
H72 C45 0.930 . S
H73 C46 0.931 . S
H74 C48 0.931 . S
H75 C49 0.931 . S
H76 C54 0.930 . S
H77 C55 0.931 . S
H78 C57 0.931 . S
H79 C58 0.931 . S
Gd80 C83 2.818 . S
Gd80 O100 2.377 . S
Gd80 O102 2.448 . S
Gd80 O103 2.506 . S
Gd80 O104 2.435 . S
Gd80 O105 2.717 . S
Gd80 O107 2.395 . S
Gd80 O111 2.327 . S
Gd81 C92 2.818 . S
Gd81 O101 2.395 . S
Gd81 O105 2.327 . S
Gd81 O106 2.377 . S
Gd81 O108 2.448 . S
Gd81 O109 2.506 . S
Gd81 O110 2.435 . S
Gd81 O111 2.717 . S
C82 O100 1.240 . S
C82 O101 1.240 . S
C83 Gd80 2.818 . S
C83 C84 1.510 . S
C83 O102 1.249 . S
C83 O103 1.252 . S
C84 C83 1.510 . S
C84 C85 1.404 . S
C84 C86 1.352 . S
C85 C84 1.404 . S
C85 C89 1.389 . S
C85 H112 0.930 . S
C86 C84 1.352 . S
C86 C88 1.374 . S
C86 H113 0.931 . S
C87 C88 1.359 . S
C87 C89 1.364 . S
C88 C86 1.374 . S
C88 C87 1.359 . S
C88 H114 0.931 . S
C89 C85 1.389 . S
C89 C87 1.364 . S
C89 H115 0.931 . S
C90 O104 1.256 . S
C90 O105 1.257 . S
C91 O106 1.240 . S
C91 O107 1.240 . S
C92 Gd81 2.818 . S
C92 C93 1.510 . S
C92 O108 1.249 . S
C92 O109 1.252 . S
C93 C92 1.510 . S
C93 C94 1.404 . S
C93 C95 1.352 . S
C94 C93 1.404 . S
C94 C98 1.389 . S
C94 H116 0.930 . S
C95 C93 1.352 . S
C95 C97 1.374 . S
C95 H117 0.931 . S
C96 C97 1.359 . S
C96 C98 1.364 . S
C97 C95 1.374 . S
C97 C96 1.359 . S
C97 H118 0.931 . S
C98 C94 1.389 . S
C98 C96 1.364 . S
C98 H119 0.931 . S
C99 O110 1.256 . S
C99 O111 1.257 . S
O100 Gd80 2.377 . S
O100 C82 1.240 . S
O101 Gd81 2.395 . S
O101 C82 1.240 . S
O102 Gd80 2.448 . S
O102 C83 1.249 . S
O103 Gd80 2.506 . S
O103 C83 1.252 . S
O104 Gd80 2.435 . S
O104 C90 1.256 . S
O105 Gd80 2.717 . S
O105 Gd81 2.327 . S
O105 C90 1.257 . S
O106 Gd81 2.377 . S
O106 C91 1.240 . S
O107 Gd80 2.395 . S
O107 C91 1.240 . S
O108 Gd81 2.448 . S
O108 C92 1.249 . S
O109 Gd81 2.506 . S
O109 C92 1.252 . S
O110 Gd81 2.435 . S
O110 C99 1.256 . S
O111 Gd80 2.327 . S
O111 Gd81 2.717 . S
O111 C99 1.257 . S
H112 C85 0.930 . S
H113 C86 0.931 . S
H114 C88 0.931 . S
H115 C89 0.931 . S
H116 C94 0.930 . S
H117 C95 0.931 . S
H118 C97 0.931 . S
H119 C98 0.931 . S
Gd120 C123 2.818 . S
Gd120 O140 2.377 . S
Gd120 O142 2.448 . S
Gd120 O143 2.506 . S
Gd120 O144 2.435 . S
Gd120 O145 2.717 . S
Gd120 O147 2.395 . S
Gd120 O151 2.327 . S
Gd121 C132 2.818 . S
Gd121 O141 2.395 . S
Gd121 O145 2.327 . S
Gd121 O146 2.377 . S
Gd121 O148 2.448 . S
Gd121 O149 2.506 . S
Gd121 O150 2.435 . S
Gd121 O151 2.717 . S
C122 O140 1.240 . S
C122 O141 1.240 . S
C123 Gd120 2.818 . S
C123 C124 1.510 . S
C123 O142 1.249 . S
C123 O143 1.252 . S
C124 C123 1.510 . S
C124 C125 1.404 . S
C124 C126 1.352 . S
C125 C124 1.404 . S
C125 C129 1.389 . S
C125 H152 0.930 . S
C126 C124 1.352 . S
C126 C128 1.374 . S
C126 H153 0.931 . S
C127 C128 1.359 . S
C127 C129 1.364 . S
C128 C126 1.374 . S
C128 C127 1.359 . S
C128 H154 0.931 . S
C129 C125 1.389 . S
C129 C127 1.364 . S
C129 H155 0.931 . S
C130 O144 1.256 . S
C130 O145 1.257 . S
C131 O146 1.240 . S
C131 O147 1.240 . S
C132 Gd121 2.818 . S
C132 C133 1.510 . S
C132 O148 1.249 . S
C132 O149 1.252 . S
C133 C132 1.510 . S
C133 C134 1.404 . S
C133 C135 1.352 . S
C134 C133 1.404 . S
C134 C138 1.389 . S
C134 H156 0.930 . S
C135 C133 1.352 . S
C135 C137 1.374 . S
C135 H157 0.931 . S
C136 C137 1.359 . S
C136 C138 1.364 . S
C137 C135 1.374 . S
C137 C136 1.359 . S
C137 H158 0.931 . S
C138 C134 1.389 . S
C138 C136 1.364 . S
C138 H159 0.931 . S
C139 O150 1.256 . S
C139 O151 1.257 . S
O140 Gd120 2.377 . S
O140 C122 1.240 . S
O141 Gd121 2.395 . S
O141 C122 1.240 . S
O142 Gd120 2.448 . S
O142 C123 1.249 . S
O143 Gd120 2.506 . S
O143 C123 1.252 . S
O144 Gd120 2.435 . S
O144 C130 1.256 . S
O145 Gd120 2.717 . S
O145 Gd121 2.327 . S
O145 C130 1.257 . S
O146 Gd121 2.377 . S
O146 C131 1.240 . S
O147 Gd120 2.395 . S
O147 C131 1.240 . S
O148 Gd121 2.448 . S
O148 C132 1.249 . S
O149 Gd121 2.506 . S
O149 C132 1.252 . S
O150 Gd121 2.435 . S
O150 C139 1.256 . S
O151 Gd120 2.327 . S
O151 Gd121 2.717 . S
O151 C139 1.257 . S
H152 C125 0.930 . S
H153 C126 0.931 . S
H154 C128 0.931 . S
H155 C129 0.931 . S
H156 C134 0.930 . S
H157 C135 0.931 . S
H158 C137 0.931 . S
H159 C138 0.931 . S
Gd160 C163 2.818 1_556 S
Gd160 O180 2.377 1_556 S
Gd160 O182 2.448 1_556 S
Gd160 O183 2.506 1_556 S
Gd160 O184 2.435 . S
Gd160 O185 2.717 . S
Gd160 O187 2.395 . S
Gd160 O191 2.327 1_556 S
Gd161 C172 2.818 1_554 S
Gd161 O181 2.395 . S
Gd161 O185 2.327 1_554 S
Gd161 O186 2.377 1_554 S
Gd161 O188 2.448 1_554 S
Gd161 O189 2.506 1_554 S
Gd161 O190 2.435 . S
Gd161 O191 2.717 . S
C162 O180 1.240 . S
C162 O181 1.240 . S
C163 Gd160 2.818 1_554 S
C163 C164 1.510 . S
C163 O182 1.249 . S
C163 O183 1.252 . S
C164 C163 1.510 . S
C164 C165 1.404 . S
C164 C166 1.352 . S
C165 C164 1.404 . S
C165 C169 1.389 . S
C165 H192 0.930 . S
C166 C164 1.352 . S
C166 C168 1.374 . S
C166 H193 0.931 . S
C167 C168 1.359 . S
C167 C169 1.364 . S
C168 C166 1.374 . S
C168 C167 1.359 . S
C168 H194 0.931 . S
C169 C165 1.389 . S
C169 C167 1.364 . S
C169 H195 0.931 . S
C170 O184 1.256 . S
C170 O185 1.257 . S
C171 O186 1.240 . S
C171 O187 1.240 . S
C172 Gd161 2.818 1_556 S
C172 C173 1.510 . S
C172 O188 1.249 . S
C172 O189 1.252 . S
C173 C172 1.510 . S
C173 C174 1.404 . S
C173 C175 1.352 . S
C174 C173 1.404 . S
C174 C178 1.389 . S
C174 H196 0.930 . S
C175 C173 1.352 . S
C175 C177 1.374 . S
C175 H197 0.931 . S
C176 C177 1.359 . S
C176 C178 1.364 . S
C177 C175 1.374 . S
C177 C176 1.359 . S
C177 H198 0.931 . S
C178 C174 1.389 . S
C178 C176 1.364 . S
C178 H199 0.931 . S
C179 O190 1.256 . S
C179 O191 1.257 . S
O180 Gd160 2.377 1_554 S
O180 C162 1.240 . S
O181 Gd161 2.395 . S
O181 C162 1.240 . S
O182 Gd160 2.448 1_554 S
O182 C163 1.249 . S
O183 Gd160 2.506 1_554 S
O183 C163 1.252 . S
O184 Gd160 2.435 . S
O184 C170 1.256 . S
O185 Gd160 2.717 . S
O185 Gd161 2.327 1_556 S
O185 C170 1.257 . S
O186 Gd161 2.377 1_556 S
O186 C171 1.240 . S
O187 Gd160 2.395 . S
O187 C171 1.240 . S
O188 Gd161 2.448 1_556 S
O188 C172 1.249 . S
O189 Gd161 2.506 1_556 S
O189 C172 1.252 . S
O190 Gd161 2.435 . S
O190 C179 1.256 . S
O191 Gd160 2.327 1_554 S
O191 Gd161 2.717 . S
O191 C179 1.257 . S
H192 C165 0.930 . S
H193 C166 0.931 . S
H194 C168 0.931 . S
H195 C169 0.931 . S
H196 C174 0.930 . S
H197 C175 0.931 . S
H198 C177 0.931 . S
H199 C178 0.931 . S
Gd200 C203 2.818 1_556 S
Gd200 O220 2.377 1_556 S
Gd200 O222 2.448 1_556 S
Gd200 O223 2.506 1_556 S
Gd200 O224 2.435 . S
Gd200 O225 2.717 . S
Gd200 O227 2.395 . S
Gd200 O231 2.327 1_556 S
Gd201 C212 2.818 1_554 S
Gd201 O221 2.395 . S
Gd201 O225 2.327 1_554 S
Gd201 O226 2.377 1_554 S
Gd201 O228 2.448 1_554 S
Gd201 O229 2.506 1_554 S
Gd201 O230 2.435 . S
Gd201 O231 2.717 . S
C202 O220 1.240 . S
C202 O221 1.240 . S
C203 Gd200 2.818 1_554 S
C203 C204 1.510 . S
C203 O222 1.249 . S
C203 O223 1.252 . S
C204 C203 1.510 . S
C204 C205 1.404 . S
C204 C206 1.352 . S
C205 C204 1.404 . S
C205 C209 1.389 . S
C205 H232 0.930 . S
C206 C204 1.352 . S
C206 C208 1.374 . S
C206 H233 0.931 . S
C207 C208 1.359 . S
C207 C209 1.364 . S
C208 C206 1.374 . S
C208 C207 1.359 . S
C208 H234 0.931 . S
C209 C205 1.389 . S
C209 C207 1.364 . S
C209 H235 0.931 . S
C210 O224 1.256 . S
C210 O225 1.257 . S
C211 O226 1.240 . S
C211 O227 1.240 . S
C212 Gd201 2.818 1_556 S
C212 C213 1.510 . S
C212 O228 1.249 . S
C212 O229 1.252 . S
C213 C212 1.510 . S
C213 C214 1.404 . S
C213 C215 1.352 . S
C214 C213 1.404 . S
C214 C218 1.389 . S
C214 H236 0.930 . S
C215 C213 1.352 . S
C215 C217 1.374 . S
C215 H237 0.931 . S
C216 C217 1.359 . S
C216 C218 1.364 . S
C217 C215 1.374 . S
C217 C216 1.359 . S
C217 H238 0.931 . S
C218 C214 1.389 . S
C218 C216 1.364 . S
C218 H239 0.931 . S
C219 O230 1.256 . S
C219 O231 1.257 . S
O220 Gd200 2.377 1_554 S
O220 C202 1.240 . S
O221 Gd201 2.395 . S
O221 C202 1.240 . S
O222 Gd200 2.448 1_554 S
O222 C203 1.249 . S
O223 Gd200 2.506 1_554 S
O223 C203 1.252 . S
O224 Gd200 2.435 . S
O224 C210 1.256 . S
O225 Gd200 2.717 . S
O225 Gd201 2.327 1_556 S
O225 C210 1.257 . S
O226 Gd201 2.377 1_556 S
O226 C211 1.240 . S
O227 Gd200 2.395 . S
O227 C211 1.240 . S
O228 Gd201 2.448 1_556 S
O228 C212 1.249 . S
O229 Gd201 2.506 1_556 S
O229 C212 1.252 . S
O230 Gd201 2.435 . S
O230 C219 1.256 . S
O231 Gd200 2.327 1_554 S
O231 Gd201 2.717 . S
O231 C219 1.257 . S
H232 C205 0.930 . S
H233 C206 0.931 . S
H234 C208 0.931 . S
H235 C209 0.931 . S
H236 C214 0.930 . S
H237 C215 0.931 . S
H238 C217 0.931 . S
H239 C218 0.931 . S
Gd240 C243 2.818 1_556 S
Gd240 O260 2.377 1_556 S
Gd240 O262 2.448 1_556 S
Gd240 O263 2.506 1_556 S
Gd240 O264 2.435 . S
Gd240 O265 2.717 . S
Gd240 O267 2.395 . S
Gd240 O271 2.327 1_556 S
Gd241 C252 2.818 1_554 S
Gd241 O261 2.395 . S
Gd241 O265 2.327 1_554 S
Gd241 O266 2.377 1_554 S
Gd241 O268 2.448 1_554 S
Gd241 O269 2.506 1_554 S
Gd241 O270 2.435 . S
Gd241 O271 2.717 . S
C242 O260 1.240 . S
C242 O261 1.240 . S
C243 Gd240 2.818 1_554 S
C243 C244 1.510 . S
C243 O262 1.249 . S
C243 O263 1.252 . S
C244 C243 1.510 . S
C244 C245 1.404 . S
C244 C246 1.352 . S
C245 C244 1.404 . S
C245 C249 1.389 . S
C245 H272 0.930 . S
C246 C244 1.352 . S
C246 C248 1.374 . S
C246 H273 0.931 . S
C247 C248 1.359 . S
C247 C249 1.364 . S
C248 C246 1.374 . S
C248 C247 1.359 . S
C248 H274 0.931 . S
C249 C245 1.389 . S
C249 C247 1.364 . S
C249 H275 0.931 . S
C250 O264 1.256 . S
C250 O265 1.257 . S
C251 O266 1.240 . S
C251 O267 1.240 . S
C252 Gd241 2.818 1_556 S
C252 C253 1.510 . S
C252 O268 1.249 . S
C252 O269 1.252 . S
C253 C252 1.510 . S
C253 C254 1.404 . S
C253 C255 1.352 . S
C254 C253 1.404 . S
C254 C258 1.389 . S
C254 H276 0.930 . S
C255 C253 1.352 . S
C255 C257 1.374 . S
C255 H277 0.931 . S
C256 C257 1.359 . S
C256 C258 1.364 . S
C257 C255 1.374 . S
C257 C256 1.359 . S
C257 H278 0.931 . S
C258 C254 1.389 . S
C258 C256 1.364 . S
C258 H279 0.931 . S
C259 O270 1.256 . S
C259 O271 1.257 . S
O260 Gd240 2.377 1_554 S
O260 C242 1.240 . S
O261 Gd241 2.395 . S
O261 C242 1.240 . S
O262 Gd240 2.448 1_554 S
O262 C243 1.249 . S
O263 Gd240 2.506 1_554 S
O263 C243 1.252 . S
O264 Gd240 2.435 . S
O264 C250 1.256 . S
O265 Gd240 2.717 . S
O265 Gd241 2.327 1_556 S
O265 C250 1.257 . S
O266 Gd241 2.377 1_556 S
O266 C251 1.240 . S
O267 Gd240 2.395 . S
O267 C251 1.240 . S
O268 Gd241 2.448 1_556 S
O268 C252 1.249 . S
O269 Gd241 2.506 1_556 S
O269 C252 1.252 . S
O270 Gd241 2.435 . S
O270 C259 1.256 . S
O271 Gd240 2.327 1_554 S
O271 Gd241 2.717 . S
O271 C259 1.257 . S
H272 C245 0.930 . S
H273 C246 0.931 . S
H274 C248 0.931 . S
H275 C249 0.931 . S
H276 C254 0.930 . S
H277 C255 0.931 . S
H278 C257 0.931 . S
H279 C258 0.931 . S
Gd280 C283 2.818 1_556 S
Gd280 O300 2.377 1_556 S
Gd280 O302 2.448 1_556 S
Gd280 O303 2.506 1_556 S
Gd280 O304 2.435 . S
Gd280 O305 2.717 . S
Gd280 O307 2.395 . S
Gd280 O311 2.327 1_556 S
Gd281 C292 2.818 1_554 S
Gd281 O301 2.395 . S
Gd281 O305 2.327 1_554 S
Gd281 O306 2.377 1_554 S
Gd281 O308 2.448 1_554 S
Gd281 O309 2.506 1_554 S
Gd281 O310 2.435 . S
Gd281 O311 2.717 . S
C282 O300 1.240 . S
C282 O301 1.240 . S
C283 Gd280 2.818 1_554 S
C283 C284 1.510 . S
C283 O302 1.249 . S
C283 O303 1.252 . S
C284 C283 1.510 . S
C284 C285 1.404 . S
C284 C286 1.352 . S
C285 C284 1.404 . S
C285 C289 1.389 . S
C285 H312 0.930 . S
C286 C284 1.352 . S
C286 C288 1.374 . S
C286 H313 0.931 . S
C287 C288 1.359 . S
C287 C289 1.364 . S
C288 C286 1.374 . S
C288 C287 1.359 . S
C288 H314 0.931 . S
C289 C285 1.389 . S
C289 C287 1.364 . S
C289 H315 0.931 . S
C290 O304 1.256 . S
C290 O305 1.257 . S
C291 O306 1.240 . S
C291 O307 1.240 . S
C292 Gd281 2.818 1_556 S
C292 C293 1.510 . S
C292 O308 1.249 . S
C292 O309 1.252 . S
C293 C292 1.510 . S
C293 C294 1.404 . S
C293 C295 1.352 . S
C294 C293 1.404 . S
C294 C298 1.389 . S
C294 H316 0.930 . S
C295 C293 1.352 . S
C295 C297 1.374 . S
C295 H317 0.931 . S
C296 C297 1.359 . S
C296 C298 1.364 . S
C297 C295 1.374 . S
C297 C296 1.359 . S
C297 H318 0.931 . S
C298 C294 1.389 . S
C298 C296 1.364 . S
C298 H319 0.931 . S
C299 O310 1.256 . S
C299 O311 1.257 . S
O300 Gd280 2.377 1_554 S
O300 C282 1.240 . S
O301 Gd281 2.395 . S
O301 C282 1.240 . S
O302 Gd280 2.448 1_554 S
O302 C283 1.249 . S
O303 Gd280 2.506 1_554 S
O303 C283 1.252 . S
O304 Gd280 2.435 . S
O304 C290 1.256 . S
O305 Gd280 2.717 . S
O305 Gd281 2.327 1_556 S
O305 C290 1.257 . S
O306 Gd281 2.377 1_556 S
O306 C291 1.240 . S
O307 Gd280 2.395 . S
O307 C291 1.240 . S
O308 Gd281 2.448 1_556 S
O308 C292 1.249 . S
O309 Gd281 2.506 1_556 S
O309 C292 1.252 . S
O310 Gd281 2.435 . S
O310 C299 1.256 . S
O311 Gd280 2.327 1_554 S
O311 Gd281 2.717 . S
O311 C299 1.257 . S
H312 C285 0.930 . S
H313 C286 0.931 . S
H314 C288 0.931 . S
H315 C289 0.931 . S
H316 C294 0.930 . S
H317 C295 0.931 . S
H318 C297 0.931 . S
H319 C298 0.931 . S
H320 C328 0.929 . S
H321 C330 0.930 . S
H322 C332 0.930 . S
H323 C335 0.929 . S
H324 C338 0.930 . S
H325 C340 0.960 . S
H326 C340 0.960 . S
H327 C340 0.960 . S
C328 H320 0.929 . S
C328 C329 1.377 . S
C328 C330 1.384 . S
C329 C328 1.377 . S
C329 C335 1.390 . S
C330 H321 0.930 . S
C330 C328 1.384 . S
C330 C331 1.372 . S
C331 C330 1.372 . S
C331 C332 1.400 . S
C331 C336 1.490 . S
C332 H322 0.930 . S
C332 C331 1.400 . S
C332 C335 1.386 . S
H333 C349 0.930 . S
H334 C350 0.931 . S
C335 H323 0.929 . S
C335 C329 1.390 . S
C335 C332 1.386 . S
C336 C331 1.490 . S
C336 C338 1.395 . S
C336 C339 1.403 . S
H337 C343 0.930 . S
C338 H324 0.930 . S
C338 C336 1.395 . S
C338 C341 1.403 . S
C339 C336 1.403 . S
C339 C340 1.524 . S
C339 C343 1.400 . S
C340 H325 0.960 . S
C340 H326 0.960 . S
C340 H327 0.960 . S
C340 C339 1.524 . S
C341 C338 1.403 . S
C341 C342 1.392 . S
C341 C345 1.495 . S
C342 C341 1.392 . S
C342 C343 1.385 . S
C342 C344 1.478 . S
C343 H337 0.930 . S
C343 C339 1.400 . S
C343 C342 1.385 . S
C344 C342 1.478 . S
C344 C346 1.381 . S
C344 C350 1.383 . S
C345 C341 1.495 . S
C345 H351 0.959 . S
C345 H352 0.961 . S
C345 H353 0.960 . S
C346 C344 1.381 . S
C346 C347 1.394 . S
C346 H354 0.930 . S
C347 C346 1.394 . S
C347 C348 1.383 . S
C347 H355 0.929 . S
C348 C347 1.383 . S
C348 C349 1.377 . S
C349 H333 0.930 . S
C349 C348 1.377 . S
C349 C350 1.379 . S
C350 H334 0.931 . S
C350 C344 1.383 . S
C350 C349 1.379 . S
H351 C345 0.959 . S
H352 C345 0.961 . S
H353 C345 0.960 . S
H354 C346 0.930 . S
H355 C347 0.929 . S
H356 C364 0.929 . S
H357 C366 0.930 . S
H358 C368 0.930 . S
H359 C371 0.929 . S
H360 C374 0.930 . S
H361 C376 0.960 . S
H362 C376 0.960 . S
H363 C376 0.960 . S
C364 H356 0.929 . S
C364 C365 1.377 . S
C364 C366 1.384 . S
C365 C364 1.377 . S
C365 C371 1.390 . S
C366 H357 0.930 . S
C366 C364 1.384 . S
C366 C367 1.372 . S
C367 C366 1.372 . S
C367 C368 1.400 . S
C367 C372 1.490 . S
C368 H358 0.930 . S
C368 C367 1.400 . S
C368 C371 1.386 . S
H369 C385 0.930 . S
H370 C386 0.931 . S
C371 H359 0.929 . S
C371 C365 1.390 . S
C371 C368 1.386 . S
C372 C367 1.490 . S
C372 C374 1.395 . S
C372 C375 1.403 . S
H373 C379 0.930 . S
C374 H360 0.930 . S
C374 C372 1.395 . S
C374 C377 1.403 . S
C375 C372 1.403 . S
C375 C376 1.524 . S
C375 C379 1.400 . S
C376 H361 0.960 . S
C376 H362 0.960 . S
C376 H363 0.960 . S
C376 C375 1.524 . S
C377 C374 1.403 . S
C377 C378 1.392 . S
C377 C381 1.495 . S
C378 C377 1.392 . S
C378 C379 1.385 . S
C378 C380 1.478 . S
C379 H373 0.930 . S
C379 C375 1.400 . S
C379 C378 1.385 . S
C380 C378 1.478 . S
C380 C382 1.381 . S
C380 C386 1.383 . S
C381 C377 1.495 . S
C381 H387 0.959 . S
C381 H388 0.961 . S
C381 H389 0.960 . S
C382 C380 1.381 . S
C382 C383 1.394 . S
C382 H390 0.930 . S
C383 C382 1.394 . S
C383 C384 1.383 . S
C383 H391 0.929 . S
C384 C383 1.383 . S
C384 C385 1.377 . S
C385 H369 0.930 . S
C385 C384 1.377 . S
C385 C386 1.379 . S
C386 H370 0.931 . S
C386 C380 1.383 . S
C386 C385 1.379 . S
H387 C381 0.959 . S
H388 C381 0.961 . S
H389 C381 0.960 . S
H390 C382 0.930 . S
H391 C383 0.929 . S
H392 C400 0.929 . S
H393 C402 0.930 . S
H394 C404 0.930 . S
H395 C407 0.929 . S
H396 C410 0.930 . S
H397 C412 0.960 . S
H398 C412 0.960 . S
H399 C412 0.960 . S
C400 H392 0.929 . S
C400 C401 1.377 . S
C400 C402 1.384 . S
C401 C400 1.377 . S
C401 C407 1.390 . S
C402 H393 0.930 . S
C402 C400 1.384 . S
C402 C403 1.372 . S
C403 C402 1.372 . S
C403 C404 1.400 . S
C403 C408 1.490 . S
C404 H394 0.930 . S
C404 C403 1.400 . S
C404 C407 1.386 . S
H405 C421 0.930 . S
H406 C422 0.931 . S
C407 H395 0.929 . S
C407 C401 1.390 . S
C407 C404 1.386 . S
C408 C403 1.490 . S
C408 C410 1.395 . S
C408 C411 1.403 . S
H409 C415 0.930 . S
C410 H396 0.930 . S
C410 C408 1.395 . S
C410 C413 1.403 . S
C411 C408 1.403 . S
C411 C412 1.524 . S
C411 C415 1.400 . S
C412 H397 0.960 . S
C412 H398 0.960 . S
C412 H399 0.960 . S
C412 C411 1.524 . S
C413 C410 1.403 . S
C413 C414 1.392 . S
C413 C417 1.495 . S
C414 C413 1.392 . S
C414 C415 1.385 . S
C414 C416 1.478 . S
C415 H409 0.930 . S
C415 C411 1.400 . S
C415 C414 1.385 . S
C416 C414 1.478 . S
C416 C418 1.381 . S
C416 C422 1.383 . S
C417 C413 1.495 . S
C417 H423 0.959 . S
C417 H424 0.961 . S
C417 H425 0.960 . S
C418 C416 1.381 . S
C418 C419 1.394 . S
C418 H426 0.930 . S
C419 C418 1.394 . S
C419 C420 1.383 . S
C419 H427 0.929 . S
C420 C419 1.383 . S
C420 C421 1.377 . S
C421 H405 0.930 . S
C421 C420 1.377 . S
C421 C422 1.379 . S
C422 H406 0.931 . S
C422 C416 1.383 . S
C422 C421 1.379 . S
H423 C417 0.959 . S
H424 C417 0.961 . S
H425 C417 0.960 . S
H426 C418 0.930 . S
H427 C419 0.929 . S
H428 C436 0.929 . S
H429 C438 0.930 . S
H430 C440 0.930 . S
H431 C443 0.929 . S
H432 C446 0.930 . S
H433 C448 0.960 . S
H434 C448 0.960 . S
H435 C448 0.960 . S
C436 H428 0.929 . S
C436 C437 1.377 . S
C436 C438 1.384 . S
C437 C436 1.377 . S
C437 C443 1.390 . S
C438 H429 0.930 . S
C438 C436 1.384 . S
C438 C439 1.372 . S
C439 C438 1.372 . S
C439 C440 1.400 . S
C439 C444 1.490 . S
C440 H430 0.930 . S
C440 C439 1.400 . S
C440 C443 1.386 . S
H441 C457 0.930 . S
H442 C458 0.931 . S
C443 H431 0.929 . S
C443 C437 1.390 . S
C443 C440 1.386 . S
C444 C439 1.490 . S
C444 C446 1.395 . S
C444 C447 1.403 . S
H445 C451 0.930 . S
C446 H432 0.930 . S
C446 C444 1.395 . S
C446 C449 1.403 . S
C447 C444 1.403 . S
C447 C448 1.524 . S
C447 C451 1.400 . S
C448 H433 0.960 . S
C448 H434 0.960 . S
C448 H435 0.960 . S
C448 C447 1.524 . S
C449 C446 1.403 . S
C449 C450 1.392 . S
C449 C453 1.495 . S
C450 C449 1.392 . S
C450 C451 1.385 . S
C450 C452 1.478 . S
C451 H445 0.930 . S
C451 C447 1.400 . S
C451 C450 1.385 . S
C452 C450 1.478 . S
C452 C454 1.381 . S
C452 C458 1.383 . S
C453 C449 1.495 . S
C453 H459 0.959 . S
C453 H460 0.961 . S
C453 H461 0.960 . S
C454 C452 1.381 . S
C454 C455 1.394 . S
C454 H462 0.930 . S
C455 C454 1.394 . S
C455 C456 1.383 . S
C455 H463 0.929 . S
C456 C455 1.383 . S
C456 C457 1.377 . S
C457 H441 0.930 . S
C457 C456 1.377 . S
C457 C458 1.379 . S
C458 H442 0.931 . S
C458 C452 1.383 . S
C458 C457 1.379 . S
H459 C453 0.959 . S
H460 C453 0.961 . S
H461 C453 0.960 . S
H462 C454 0.930 . S
H463 C455 0.929 . S
H464 C472 0.929 . S
H465 C474 0.930 . S
H466 C476 0.930 . S
H467 C479 0.929 . S
H468 C482 0.930 . S
H469 C484 0.960 . S
H470 C484 0.960 . S
H471 C484 0.960 . S
C472 H464 0.929 . S
C472 C473 1.377 . S
C472 C474 1.384 . S
C473 C472 1.377 . S
C473 C479 1.390 . S
C474 H465 0.930 . S
C474 C472 1.384 . S
C474 C475 1.372 . S
C475 C474 1.372 . S
C475 C476 1.400 . S
C475 C480 1.490 . S
C476 H466 0.930 . S
C476 C475 1.400 . S
C476 C479 1.386 . S
H477 C493 0.930 . S
H478 C494 0.931 . S
C479 H467 0.929 . S
C479 C473 1.390 . S
C479 C476 1.386 . S
C480 C475 1.490 . S
C480 C482 1.395 . S
C480 C483 1.403 . S
H481 C487 0.930 . S
C482 H468 0.930 . S
C482 C480 1.395 . S
C482 C485 1.403 1_565 S
C483 C480 1.403 . S
C483 C484 1.524 . S
C483 C487 1.400 1_565 S
C484 H469 0.960 . S
C484 H470 0.960 . S
C484 H471 0.960 . S
C484 C483 1.524 . S
C485 C482 1.403 1_545 S
C485 C486 1.392 . S
C485 C489 1.495 . S
C486 C485 1.392 . S
C486 C487 1.385 . S
C486 C488 1.478 . S
C487 H481 0.930 . S
C487 C483 1.400 1_545 S
C487 C486 1.385 . S
C488 C486 1.478 . S
C488 C490 1.381 . S
C488 C494 1.383 . S
C489 C485 1.495 . S
C489 H495 0.959 . S
C489 H496 0.961 . S
C489 H497 0.960 . S
C490 C488 1.381 . S
C490 C491 1.394 . S
C490 H498 0.930 . S
C491 C490 1.394 . S
C491 C492 1.383 . S
C491 H499 0.929 . S
C492 C491 1.383 . S
C492 C493 1.377 . S
C493 H477 0.930 . S
C493 C492 1.377 . S
C493 C494 1.379 . S
C494 H478 0.931 . S
C494 C488 1.383 . S
C494 C493 1.379 . S
H495 C489 0.959 . S
H496 C489 0.961 . S
H497 C489 0.960 . S
H498 C490 0.930 . S
H499 C491 0.929 . S
H500 C508 0.929 . S
H501 C510 0.930 . S
H502 C512 0.930 . S
H503 C515 0.929 . S
H504 C518 0.930 . S
H505 C520 0.960 . S
H506 C520 0.960 . S
H507 C520 0.960 . S
C508 H500 0.929 . S
C508 C509 1.377 . S
C508 C510 1.384 . S
C509 C508 1.377 . S
C509 C515 1.390 . S
C510 H501 0.930 . S
C510 C508 1.384 . S
C510 C511 1.372 . S
C511 C510 1.372 . S
C511 C512 1.400 . S
C511 C516 1.490 . S
C512 H502 0.930 . S
C512 C511 1.400 . S
C512 C515 1.386 . S
H513 C529 0.930 . S
H514 C530 0.931 . S
C515 H503 0.929 . S
C515 C509 1.390 . S
C515 C512 1.386 . S
C516 C511 1.490 . S
C516 C518 1.395 . S
C516 C519 1.403 . S
H517 C523 0.930 . S
C518 H504 0.930 . S
C518 C516 1.395 . S
C518 C521 1.403 . S
C519 C516 1.403 . S
C519 C520 1.524 . S
C519 C523 1.400 . S
C520 H505 0.960 . S
C520 H506 0.960 . S
C520 H507 0.960 . S
C520 C519 1.524 . S
C521 C518 1.403 . S
C521 C522 1.392 . S
C521 C525 1.495 . S
C522 C521 1.392 . S
C522 C523 1.385 . S
C522 C524 1.478 . S
C523 H517 0.930 . S
C523 C519 1.400 . S
C523 C522 1.385 . S
C524 C522 1.478 . S
C524 C526 1.381 . S
C524 C530 1.383 . S
C525 C521 1.495 . S
C525 H531 0.959 . S
C525 H532 0.961 . S
C525 H533 0.960 . S
C526 C524 1.381 . S
C526 C527 1.394 . S
C526 H534 0.930 . S
C527 C526 1.394 . S
C527 C528 1.383 . S
C527 H535 0.929 . S
C528 C527 1.383 . S
C528 C529 1.377 . S
C529 H513 0.930 . S
C529 C528 1.377 . S
C529 C530 1.379 . S
C530 H514 0.931 . S
C530 C524 1.383 . S
C530 C529 1.379 . S
H531 C525 0.959 . S
H532 C525 0.961 . S
H533 C525 0.960 . S
H534 C526 0.930 . S
H535 C527 0.929 . S
H536 C544 0.929 . S
H537 C546 0.930 . S
H538 C548 0.930 . S
H539 C551 0.929 . S
H540 C554 0.930 . S
H541 C556 0.960 . S
H542 C556 0.960 . S
H543 C556 0.960 . S
C544 H536 0.929 . S
C544 C545 1.377 . S
C544 C546 1.384 . S
C545 C544 1.377 . S
C545 C551 1.390 . S
C546 H537 0.930 . S
C546 C544 1.384 . S
C546 C547 1.372 . S
C547 C546 1.372 . S
C547 C548 1.400 . S
C547 C552 1.490 . S
C548 H538 0.930 . S
C548 C547 1.400 . S
C548 C551 1.386 . S
H549 C565 0.930 . S
H550 C566 0.931 . S
C551 H539 0.929 . S
C551 C545 1.390 . S
C551 C548 1.386 . S
C552 C547 1.490 . S
C552 C554 1.395 . S
C552 C555 1.403 . S
H553 C559 0.930 . S
C554 H540 0.930 . S
C554 C552 1.395 . S
C554 C557 1.403 1_565 S
C555 C552 1.403 . S
C555 C556 1.524 . S
C555 C559 1.400 1_565 S
C556 H541 0.960 . S
C556 H542 0.960 . S
C556 H543 0.960 . S
C556 C555 1.524 . S
C557 C554 1.403 1_545 S
C557 C558 1.392 . S
C557 C561 1.495 . S
C558 C557 1.392 . S
C558 C559 1.385 . S
C558 C560 1.478 . S
C559 H553 0.930 . S
C559 C555 1.400 1_545 S
C559 C558 1.385 . S
C560 C558 1.478 . S
C560 C562 1.381 . S
C560 C566 1.383 . S
C561 C557 1.495 . S
C561 H567 0.959 . S
C561 H568 0.961 . S
C561 H569 0.960 . S
C562 C560 1.381 . S
C562 C563 1.394 . S
C562 H570 0.930 . S
C563 C562 1.394 . S
C563 C564 1.383 . S
C563 H571 0.929 . S
C564 C563 1.383 . S
C564 C565 1.377 . S
C565 H549 0.930 . S
C565 C564 1.377 . S
C565 C566 1.379 . S
C566 H550 0.931 . S
C566 C560 1.383 . S
C566 C565 1.379 . S
H567 C561 0.959 . S
H568 C561 0.961 . S
H569 C561 0.960 . S
H570 C562 0.930 . S
H571 C563 0.929 . S
H572 C580 0.929 . S
H573 C582 0.930 . S
H574 C584 0.930 . S
H575 C587 0.929 . S
H576 C590 0.930 . S
H577 C592 0.960 . S
H578 C592 0.960 . S
H579 C592 0.960 . S
C580 H572 0.929 . S
C580 C581 1.377 . S
C580 C582 1.384 . S
C581 C580 1.377 . S
C581 C587 1.390 . S
C582 H573 0.930 . S
C582 C580 1.384 . S
C582 C583 1.372 . S
C583 C582 1.372 . S
C583 C584 1.400 . S
C583 C588 1.490 . S
C584 H574 0.930 . S
C584 C583 1.400 . S
C584 C587 1.386 . S
H585 C601 0.930 . S
H586 C602 0.931 . S
C587 H575 0.929 . S
C587 C581 1.390 . S
C587 C584 1.386 . S
C588 C583 1.490 . S
C588 C590 1.395 . S
C588 C591 1.403 . S
H589 C595 0.930 . S
C590 H576 0.930 . S
C590 C588 1.395 . S
C590 C593 1.403 . S
C591 C588 1.403 . S
C591 C592 1.524 . S
C591 C595 1.400 . S
C592 H577 0.960 . S
C592 H578 0.960 . S
C592 H579 0.960 . S
C592 C591 1.524 . S
C593 C590 1.403 . S
C593 C594 1.392 . S
C593 C597 1.495 . S
C594 C593 1.392 . S
C594 C595 1.385 . S
C594 C596 1.478 . S
C595 H589 0.930 . S
C595 C591 1.400 . S
C595 C594 1.385 . S
C596 C594 1.478 . S
C596 C598 1.381 . S
C596 C602 1.383 . S
C597 C593 1.495 . S
C597 H603 0.959 . S
C597 H604 0.961 . S
C597 H605 0.960 . S
C598 C596 1.381 . S
C598 C599 1.394 . S
C598 H606 0.930 . S
C599 C598 1.394 . S
C599 C600 1.383 . S
C599 H607 0.929 . S
C600 C599 1.383 . S
C600 C601 1.377 . S
C601 H585 0.930 . S
C601 C600 1.377 . S
C601 C602 1.379 . S
C602 H586 0.931 . S
C602 C596 1.383 . S
C602 C601 1.379 . S
H603 C597 0.959 . S
H604 C597 0.961 . S
H605 C597 0.960 . S
H606 C598 0.930 . S
H607 C599 0.929 . S
H608 C616 0.929 . S
H609 C618 0.930 . S
H610 C620 0.930 . S
H611 C623 0.929 . S
H612 C626 0.930 . S
H613 C628 0.960 . S
H614 C628 0.960 . S
H615 C628 0.960 . S
C616 H608 0.929 . S
C616 C617 1.377 . S
C616 C618 1.384 . S
C617 C616 1.377 . S
C617 C623 1.390 1_556 S
C618 H609 0.930 . S
C618 C616 1.384 . S
C618 C619 1.372 . S
C619 C618 1.372 . S
C619 C620 1.400 1_556 S
C619 C624 1.490 . S
C620 H610 0.930 . S
C620 C619 1.400 1_554 S
C620 C623 1.386 . S
H621 C637 0.930 . S
H622 C638 0.931 . S
C623 H611 0.929 . S
C623 C617 1.390 1_554 S
C623 C620 1.386 . S
C624 C619 1.490 . S
C624 C626 1.395 . S
C624 C627 1.403 1_556 S
H625 C631 0.930 . S
C626 H612 0.930 . S
C626 C624 1.395 . S
C626 C629 1.403 . S
C627 C624 1.403 1_554 S
C627 C628 1.524 . S
C627 C631 1.400 . S
C628 H613 0.960 . S
C628 H614 0.960 . S
C628 H615 0.960 . S
C628 C627 1.524 . S
C629 C626 1.403 . S
C629 C630 1.392 . S
C629 C633 1.495 . S
C630 C629 1.392 . S
C630 C631 1.385 1_556 S
C630 C632 1.478 . S
C631 H625 0.930 . S
C631 C627 1.400 . S
C631 C630 1.385 1_554 S
C632 C630 1.478 . S
C632 C634 1.381 . S
C632 C638 1.383 1_556 S
C633 C629 1.495 . S
C633 H639 0.959 . S
C633 H640 0.961 . S
C633 H641 0.960 . S
C634 C632 1.381 . S
C634 C635 1.394 . S
C634 H642 0.930 . S
C635 C634 1.394 . S
C635 C636 1.383 . S
C635 H643 0.929 . S
C636 C635 1.383 . S
C636 C637 1.377 1_556 S
C637 H621 0.930 . S
C637 C636 1.377 1_554 S
C637 C638 1.379 . S
C638 H622 0.931 . S
C638 C632 1.383 1_554 S
C638 C637 1.379 . S
H639 C633 0.959 . S
H640 C633 0.961 . S
H641 C633 0.960 . S
H642 C634 0.930 . S
H643 C635 0.929 . S
H644 C652 0.929 . S
H645 C654 0.930 . S
H646 C656 0.930 . S
H647 C659 0.929 . S
H648 C662 0.930 . S
H649 C664 0.960 . S
H650 C664 0.960 . S
H651 C664 0.960 . S
C652 H644 0.929 . S
C652 C653 1.377 . S
C652 C654 1.384 . S
C653 C652 1.377 . S
C653 C659 1.390 1_556 S
C654 H645 0.930 . S
C654 C652 1.384 . S
C654 C655 1.372 . S
C655 C654 1.372 . S
C655 C656 1.400 1_556 S
C655 C660 1.490 . S
C656 H646 0.930 . S
C656 C655 1.400 1_554 S
C656 C659 1.386 . S
H657 C673 0.930 . S
H658 C674 0.931 . S
C659 H647 0.929 . S
C659 C653 1.390 1_554 S
C659 C656 1.386 . S
C660 C655 1.490 . S
C660 C662 1.395 1_556 S
C660 C663 1.403 . S
H661 C667 0.930 . S
C662 H648 0.930 . S
C662 C660 1.395 1_554 S
C662 C665 1.403 1_565 S
C663 C660 1.403 . S
C663 C664 1.524 . S
C663 C667 1.400 1_565 S
C664 H649 0.960 . S
C664 H650 0.960 . S
C664 H651 0.960 . S
C664 C663 1.524 . S
C665 C662 1.403 1_545 S
C665 C666 1.392 . S
C665 C669 1.495 . S
C666 C665 1.392 . S
C666 C667 1.385 1_554 S
C666 C668 1.478 . S
C667 H661 0.930 . S
C667 C663 1.400 1_545 S
C667 C666 1.385 1_556 S
C668 C666 1.478 . S
C668 C670 1.381 1_554 S
C668 C674 1.383 . S
C669 C665 1.495 . S
C669 H675 0.959 . S
C669 H676 0.961 . S
C669 H677 0.960 . S
C670 C668 1.381 1_556 S
C670 C671 1.394 . S
C670 H678 0.930 . S
C671 C670 1.394 . S
C671 C672 1.386 . S
C671 H679 0.929 . S
C672 C671 1.386 . S
C672 C673 1.374 1_556 S
C673 H657 0.930 . S
C673 C672 1.374 1_554 S
C673 C674 1.379 . S
C674 H658 0.931 . S
C674 C668 1.383 . S
C674 C673 1.379 . S
H675 C669 0.959 . S
H676 C669 0.961 . S
H677 C669 0.960 . S
H678 C670 0.930 . S
H679 C671 0.929 . S
H680 C688 0.929 . S
H681 C690 0.930 . S
H682 C692 0.930 . S
H683 C695 0.929 . S
H684 C698 0.930 . S
H685 C700 0.960 . S
H686 C700 0.960 . S
H687 C700 0.960 1_556 S
C688 H680 0.929 . S
C688 C689 1.377 . S
C688 C690 1.384 . S
C689 C688 1.377 . S
C689 C695 1.390 1_554 S
C690 H681 0.930 . S
C690 C688 1.384 . S
C690 C691 1.372 . S
C691 C690 1.372 . S
C691 C692 1.400 1_554 S
C691 C696 1.490 . S
C692 H682 0.930 . S
C692 C691 1.400 1_556 S
C692 C695 1.386 . S
H693 C709 0.930 . S
H694 C710 0.931 . S
C695 H683 0.929 . S
C695 C689 1.390 1_556 S
C695 C692 1.386 . S
C696 C691 1.490 . S
C696 C698 1.395 . S
C696 C699 1.403 . S
H697 C703 0.931 . S
C698 H684 0.930 . S
C698 C696 1.395 . S
C698 C701 1.403 . S
C699 C696 1.403 . S
C699 C700 1.524 . S
C699 C703 1.400 . S
C700 H685 0.960 . S
C700 H686 0.960 . S
C700 H687 0.960 1_554 S
C700 C699 1.524 . S
C701 C698 1.403 . S
C701 C702 1.392 . S
C701 C705 1.495 . S
C702 C701 1.392 . S
C702 C703 1.385 . S
C702 C704 1.478 . S
C703 H697 0.931 . S
C703 C699 1.400 . S
C703 C702 1.385 . S
C704 C702 1.478 . S
C704 C706 1.381 . S
C704 C710 1.383 1_554 S
C705 C701 1.495 . S
C705 H711 0.959 . S
C705 H712 0.961 1_554 S
C705 H713 0.960 . S
C706 C704 1.381 . S
C706 C707 1.394 . S
C706 H714 0.930 . S
C707 C706 1.394 . S
C707 C708 1.383 . S
C707 H715 0.929 . S
C708 C707 1.383 . S
C708 C709 1.377 1_554 S
C709 H693 0.930 . S
C709 C708 1.377 1_556 S
C709 C710 1.379 . S
C710 H694 0.931 . S
C710 C704 1.383 1_556 S
C710 C709 1.379 . S
H711 C705 0.959 . S
H712 C705 0.961 1_556 S
H713 C705 0.960 . S
H714 C706 0.930 . S
H715 C707 0.929 . S
H716 C724 0.929 . S
H717 C726 0.930 . S
H718 C728 0.930 . S
H719 C731 0.929 . S
H720 C734 0.930 . S
H721 C736 0.960 . S
H722 C736 0.960 . S
H723 C736 0.960 . S
C724 H716 0.929 . S
C724 C725 1.377 1_556 S
C724 C726 1.384 . S
C725 C724 1.377 1_554 S
C725 C731 1.390 . S
C726 H717 0.930 . S
C726 C724 1.384 . S
C726 C727 1.372 1_556 S
C727 C726 1.372 1_554 S
C727 C728 1.400 . S
C727 C732 1.490 . S
C728 H718 0.930 . S
C728 C727 1.400 . S
C728 C731 1.386 . S
H729 C745 0.930 . S
H730 C746 0.931 . S
C731 H719 0.929 . S
C731 C725 1.390 . S
C731 C728 1.386 . S
C732 C727 1.490 . S
C732 C734 1.395 . S
C732 C735 1.403 1_554 S
H733 C739 0.930 . S
C734 H720 0.930 . S
C734 C732 1.395 . S
C734 C737 1.403 1_545 S
C735 C732 1.403 1_556 S
C735 C736 1.524 . S
C735 C739 1.400 1_545 S
C736 H721 0.960 . S
C736 H722 0.960 . S
C736 H723 0.960 . S
C736 C735 1.524 . S
C737 C734 1.403 1_565 S
C737 C738 1.392 . S
C737 C741 1.495 . S
C738 C737 1.392 . S
C738 C739 1.385 1_554 S
C738 C740 1.478 . S
C739 H733 0.930 . S
C739 C735 1.400 1_565 S
C739 C738 1.385 1_556 S
C740 C738 1.478 . S
C740 C742 1.381 1_554 S
C740 C746 1.383 . S
C741 C737 1.495 . S
C741 H747 0.959 . S
C741 H748 0.961 . S
C741 H749 0.960 . S
C742 C740 1.381 1_556 S
C742 C743 1.394 . S
C742 H750 0.930 . S
C743 C742 1.394 . S
C743 C744 1.383 1_556 S
C743 H751 0.929 . S
C744 C743 1.383 1_554 S
C744 C745 1.377 . S
C745 H729 0.930 . S
C745 C744 1.377 . S
C745 C746 1.379 . S
C746 H730 0.931 . S
C746 C740 1.383 . S
C746 C745 1.379 . S
H747 C741 0.959 . S
H748 C741 0.961 . S
H749 C741 0.960 . S
H750 C742 0.930 . S
H751 C743 0.929 . S
H752 C760 0.929 . S
H753 C762 0.930 . S
H754 C764 0.930 . S
H755 C767 0.929 . S
H756 C770 0.930 1_554 S
H757 C772 0.960 . S
H758 C772 0.960 1_554 S
H759 C772 0.960 1_554 S
C760 H752 0.929 . S
C760 C761 1.377 . S
C760 C762 1.384 . S
C761 C760 1.377 . S
C761 C767 1.390 . S
C762 H753 0.930 . S
C762 C760 1.384 . S
C762 C763 1.372 . S
C763 C762 1.372 . S
C763 C764 1.400 . S
C763 C768 1.490 . S
C764 H754 0.930 . S
C764 C763 1.400 . S
C764 C767 1.386 . S
H765 C781 0.930 . S
H766 C782 0.931 . S
C767 H755 0.929 . S
C767 C761 1.390 . S
C767 C764 1.386 . S
C768 C763 1.490 . S
C768 C770 1.395 1_554 S
C768 C771 1.403 1_554 S
H769 C775 0.930 . S
C770 H756 0.930 1_556 S
C770 C768 1.395 1_556 S
C770 C773 1.403 . S
C771 C768 1.403 1_556 S
C771 C772 1.524 . S
C771 C775 1.400 . S
C772 H757 0.960 . S
C772 H758 0.960 1_556 S
C772 H759 0.960 1_556 S
C772 C771 1.524 . S
C773 C770 1.403 . S
C773 C774 1.392 . S
C773 C777 1.495 . S
C774 C773 1.392 . S
C774 C775 1.385 . S
C774 C776 1.478 . S
C775 H769 0.930 . S
C775 C771 1.400 . S
C775 C774 1.385 . S
C776 C774 1.478 . S
C776 C778 1.381 . S
C776 C782 1.383 . S
C777 C773 1.495 . S
C777 H783 0.959 . S
C777 H784 0.961 . S
C777 H785 0.960 . S
C778 C776 1.381 . S
C778 C779 1.394 . S
C778 H786 0.930 . S
C779 C778 1.394 . S
C779 C780 1.383 . S
C779 H787 0.929 . S
C780 C779 1.383 . S
C780 C781 1.377 . S
C781 H765 0.930 . S
C781 C780 1.377 . S
C781 C782 1.379 . S
C782 H766 0.931 . S
C782 C776 1.383 . S
C782 C781 1.379 . S
H783 C777 0.959 . S
H784 C777 0.961 . S
H785 C777 0.960 . S
H786 C778 0.930 . S
H787 C779 0.929 . S
H788 C796 0.929 . S
H789 C798 0.930 . S
H790 C800 0.930 . S
H791 C803 0.929 . S
H792 C806 0.930 . S
H793 C808 0.960 1_556 S
H794 C808 0.960 . S
H795 C808 0.960 . S
C796 H788 0.929 . S
C796 C797 1.377 . S
C796 C798 1.384 . S
C797 C796 1.377 . S
C797 C803 1.390 . S
C798 H789 0.930 . S
C798 C796 1.384 . S
C798 C799 1.372 . S
C799 C798 1.372 . S
C799 C800 1.400 . S
C799 C804 1.490 . S
C800 H790 0.930 . S
C800 C799 1.400 . S
C800 C803 1.386 . S
H801 C817 0.930 . S
H802 C818 0.931 . S
C803 H791 0.929 . S
C803 C797 1.390 . S
C803 C800 1.386 . S
C804 C799 1.490 . S
C804 C806 1.395 1_554 S
C804 C807 1.403 1_554 S
H805 C811 0.930 . S
C806 H792 0.930 . S
C806 C804 1.395 1_556 S
C806 C809 1.403 . S
C807 C804 1.403 1_556 S
C807 C808 1.524 1_556 S
C807 C811 1.400 . S
C808 H793 0.960 1_554 S
C808 H794 0.960 . S
C808 H795 0.960 . S
C808 C807 1.524 1_554 S
C809 C806 1.403 . S
C809 C810 1.392 . S
C809 C813 1.495 . S
C810 C809 1.392 . S
C810 C811 1.385 . S
C810 C812 1.478 . S
C811 H805 0.930 . S
C811 C807 1.400 . S
C811 C810 1.385 . S
C812 C810 1.478 . S
C812 C814 1.381 . S
C812 C818 1.383 . S
C813 C809 1.495 . S
C813 H819 0.959 . S
C813 H820 0.961 . S
C813 H821 0.960 . S
C814 C812 1.381 . S
C814 C815 1.394 . S
C814 H822 0.930 . S
C815 C814 1.394 . S
C815 C816 1.383 . S
C815 H823 0.929 . S
C816 C815 1.383 . S
C816 C817 1.377 . S
C817 H801 0.930 . S
C817 C816 1.377 . S
C817 C818 1.379 . S
C818 H802 0.931 . S
C818 C812 1.383 . S
C818 C817 1.379 . S
H819 C813 0.959 . S
H820 C813 0.961 . S
H821 C813 0.960 . S
H822 C814 0.930 . S
H823 C815 0.929 . S
H824 C832 0.929 . S
H825 C834 0.930 . S
H826 C836 0.930 . S
H827 C839 0.929 . S
H828 C842 0.930 . S
H829 C844 0.960 . S
H830 C844 0.960 . S
H831 C844 0.960 . S
C832 H824 0.929 . S
C832 C833 1.377 . S
C832 C834 1.384 . S
C833 C832 1.377 . S
C833 C839 1.390 . S
C834 H825 0.930 . S
C834 C832 1.384 . S
C834 C835 1.372 . S
C835 C834 1.372 . S
C835 C836 1.400 . S
C835 C840 1.490 . S
C836 H826 0.930 . S
C836 C835 1.400 . S
C836 C839 1.386 . S
H837 C853 0.930 . S
H838 C854 0.931 . S
C839 H827 0.929 . S
C839 C833 1.390 . S
C839 C836 1.386 . S
C840 C835 1.490 . S
C840 C842 1.395 . S
C840 C843 1.403 . S
H841 C847 0.926 1_556 S
C842 H828 0.930 . S
C842 C840 1.395 . S
C842 C845 1.403 . S
C843 C840 1.403 . S
C843 C844 1.524 . S
C843 C847 1.400 . S
C844 H829 0.960 . S
C844 H830 0.960 . S
C844 H831 0.960 . S
C844 C843 1.524 . S
C845 C842 1.403 . S
C845 C846 1.392 1_554 S
C845 C849 1.495 1_554 S
C846 C845 1.392 1_556 S
C846 C847 1.385 1_556 S
C846 C848 1.478 . S
C847 H841 0.926 1_554 S
C847 C843 1.400 . S
C847 C846 1.385 1_554 S
C848 C846 1.478 . S
C848 C850 1.381 . S
C848 C854 1.383 . S
C849 C845 1.495 1_556 S
C849 H855 0.959 1_556 S
C849 H856 0.961 . S
C849 H857 0.960 . S
C850 C848 1.381 . S
C850 C851 1.394 . S
C850 H858 0.930 . S
C851 C850 1.394 . S
C851 C852 1.383 . S
C851 H859 0.929 . S
C852 C851 1.383 . S
C852 C853 1.377 . S
C853 H837 0.930 . S
C853 C852 1.377 . S
C853 C854 1.379 . S
C854 H838 0.931 . S
C854 C848 1.383 . S
C854 C853 1.379 . S
H855 C849 0.959 1_554 S
H856 C849 0.961 . S
H857 C849 0.960 . S
H858 C850 0.930 . S
H859 C851 0.929 . S
H860 C868 0.929 . S
H861 C870 0.930 . S
H862 C872 0.930 . S
H863 C875 0.929 . S
H864 C878 0.930 1_556 S
H865 C880 0.960 1_554 S
H866 C880 0.960 . S
H867 C880 0.960 . S
C868 H860 0.929 . S
C868 C869 1.377 . S
C868 C870 1.384 . S
C869 C868 1.377 . S
C869 C875 1.390 . S
C870 H861 0.930 . S
C870 C868 1.384 . S
C870 C871 1.372 . S
C871 C870 1.372 . S
C871 C872 1.400 . S
C871 C876 1.490 . S
C872 H862 0.930 . S
C872 C871 1.400 . S
C872 C875 1.386 . S
H873 C889 0.930 . S
H874 C890 0.931 . S
C875 H863 0.929 . S
C875 C869 1.390 . S
C875 C872 1.386 . S
C876 C871 1.490 . S
C876 C878 1.395 1_556 S
C876 C879 1.403 1_556 S
H877 C883 0.930 . S
C878 H864 0.930 1_554 S
C878 C876 1.395 1_554 S
C878 C881 1.403 . S
C879 C876 1.403 1_554 S
C879 C880 1.524 1_554 S
C879 C883 1.400 . S
C880 H865 0.960 1_556 S
C880 H866 0.960 . S
C880 H867 0.960 . S
C880 C879 1.524 1_556 S
C881 C878 1.403 . S
C881 C882 1.392 . S
C881 C885 1.495 . S
C882 C881 1.392 . S
C882 C883 1.385 . S
C882 C884 1.478 . S
C883 H877 0.930 . S
C883 C879 1.400 . S
C883 C882 1.385 . S
C884 C882 1.478 . S
C884 C886 1.381 . S
C884 C890 1.383 . S
C885 C881 1.495 . S
C885 H891 0.959 . S
C885 H892 0.961 . S
C885 H893 0.960 . S
C886 C884 1.381 . S
C886 C887 1.394 . S
C886 H894 0.930 . S
C887 C886 1.394 . S
C887 C888 1.383 . S
C887 H895 0.929 . S
C888 C887 1.383 . S
C888 C889 1.377 . S
C889 H873 0.930 . S
C889 C888 1.377 . S
C889 C890 1.379 . S
C890 H874 0.931 . S
C890 C884 1.383 . S
C890 C889 1.379 . S
H891 C885 0.959 . S
H892 C885 0.961 . S
H893 C885 0.960 . S
H894 C886 0.930 . S
H895 C887 0.929 . S
H896 C904 0.929 . S
H897 C906 0.930 . S
H898 C908 0.930 . S
H899 C911 0.929 . S
H900 C914 0.930 . S
H901 C916 0.960 . S
H902 C916 0.960 . S
H903 C916 0.960 . S
C904 H896 0.929 . S
C904 C905 1.377 . S
C904 C906 1.384 . S
C905 C904 1.377 . S
C905 C911 1.390 . S
C906 H897 0.930 . S
C906 C904 1.384 . S
C906 C907 1.372 . S
C907 C906 1.372 . S
C907 C908 1.400 . S
C907 C912 1.490 . S
C908 H898 0.930 . S
C908 C907 1.400 . S
C908 C911 1.386 . S
H909 C925 0.930 . S
H910 C926 0.931 . S
C911 H899 0.929 . S
C911 C905 1.390 . S
C911 C908 1.386 . S
C912 C907 1.490 . S
C912 C914 1.395 . S
C912 C915 1.403 . S
H913 C919 0.930 . S
C914 H900 0.930 . S
C914 C912 1.395 . S
C914 C917 1.403 . S
C915 C912 1.403 . S
C915 C916 1.524 . S
C915 C919 1.400 . S
C916 H901 0.960 . S
C916 H902 0.960 . S
C916 H903 0.960 . S
C916 C915 1.524 . S
C917 C914 1.403 . S
C917 C918 1.392 . S
C917 C921 1.495 . S
C918 C917 1.392 . S
C918 C919 1.385 . S
C918 C920 1.478 . S
C919 H913 0.930 . S
C919 C915 1.400 . S
C919 C918 1.385 . S
C920 C918 1.478 . S
C920 C922 1.381 . S
C920 C926 1.383 . S
C921 C917 1.495 . S
C921 H927 0.959 . S
C921 H928 0.961 . S
C921 H929 0.960 . S
C922 C920 1.381 . S
C922 C923 1.394 . S
C922 H930 0.930 . S
C923 C922 1.394 . S
C923 C924 1.383 . S
C923 H931 0.929 . S
C924 C923 1.383 . S
C924 C925 1.377 . S
C925 H909 0.930 . S
C925 C924 1.377 . S
C925 C926 1.379 . S
C926 H910 0.931 . S
C926 C920 1.383 . S
C926 C925 1.379 . S
H927 C921 0.959 . S
H928 C921 0.961 . S
H929 C921 0.960 . S
H930 C922 0.930 . S
H931 C923 0.929 . S
H932 C940 0.929 . S
H933 C942 0.930 . S
H934 C944 0.930 . S
H935 C947 0.929 . S
H936 C950 0.930 . S
H937 C952 0.960 . S
H938 C952 0.960 . S
H939 C952 0.960 . S
C940 H932 0.929 . S
C940 C941 1.377 . S
C940 C942 1.384 . S
C941 C940 1.377 . S
C941 C947 1.390 . S
C942 H933 0.930 . S
C942 C940 1.384 . S
C942 C943 1.372 . S
C943 C942 1.372 . S
C943 C944 1.400 . S
C943 C948 1.490 . S
C944 H934 0.930 . S
C944 C943 1.400 . S
C944 C947 1.386 . S
H945 C961 0.930 . S
H946 C962 0.931 . S
C947 H935 0.929 . S
C947 C941 1.390 . S
C947 C944 1.386 . S
C948 C943 1.490 . S
C948 C950 1.395 . S
C948 C951 1.403 . S
H949 C955 0.930 . S
C950 H936 0.930 . S
C950 C948 1.395 . S
C950 C953 1.403 . S
C951 C948 1.403 . S
C951 C952 1.524 . S
C951 C955 1.400 . S
C952 H937 0.960 . S
C952 H938 0.960 . S
C952 H939 0.960 . S
C952 C951 1.524 . S
C953 C950 1.403 . S
C953 C954 1.392 . S
C953 C957 1.495 . S
C954 C953 1.392 . S
C954 C955 1.385 . S
C954 C956 1.478 . S
C955 H949 0.930 . S
C955 C951 1.400 . S
C955 C954 1.385 . S
C956 C954 1.478 . S
C956 C958 1.381 . S
C956 C962 1.383 . S
C957 C953 1.495 . S
C957 H963 0.959 . S
C957 H964 0.961 . S
C957 H965 0.960 . S
C958 C956 1.381 . S
C958 C959 1.394 . S
C958 H966 0.930 . S
C959 C958 1.394 . S
C959 C960 1.383 . S
C959 H967 0.929 . S
C960 C959 1.383 . S
C960 C961 1.377 . S
C961 H945 0.930 . S
C961 C960 1.377 . S
C961 C962 1.379 . S
C962 H946 0.931 . S
C962 C956 1.383 . S
C962 C961 1.379 . S
H963 C957 0.959 . S
H964 C957 0.961 . S
H965 C957 0.960 . S
H966 C958 0.930 . S
H967 C959 0.929 . S
H968 C976 0.929 . S
H969 C978 0.930 . S
H970 C980 0.930 . S
H971 C983 0.929 . S
H972 C986 0.930 . S
H973 C988 0.960 . S
H974 C988 0.960 . S
H975 C988 0.960 . S
C976 H968 0.929 . S
C976 C977 1.377 . S
C976 C978 1.384 . S
C977 C976 1.377 . S
C977 C983 1.390 . S
C978 H969 0.930 . S
C978 C976 1.384 . S
C978 C979 1.372 . S
C979 C978 1.372 . S
C979 C980 1.400 . S
C979 C984 1.490 . S
C980 H970 0.930 . S
C980 C979 1.400 . S
C980 C983 1.386 . S
H981 C997 0.930 . S
H982 C998 0.931 . S
C983 H971 0.929 . S
C983 C977 1.390 . S
C983 C980 1.386 . S
C984 C979 1.490 . S
C984 C986 1.395 . S
C984 C987 1.403 . S
H985 C991 0.930 . S
C986 H972 0.930 . S
C986 C984 1.395 . S
C986 C989 1.403 . S
C987 C984 1.403 . S
C987 C988 1.524 . S
C987 C991 1.400 . S
C988 H973 0.960 . S
C988 H974 0.960 . S
C988 H975 0.960 . S
C988 C987 1.524 . S
C989 C986 1.403 . S
C989 C990 1.392 . S
C989 C993 1.495 . S
C990 C989 1.392 . S
C990 C991 1.385 . S
C990 C992 1.478 . S
C991 H985 0.930 . S
C991 C987 1.400 . S
C991 C990 1.385 . S
C992 C990 1.478 . S
C992 C994 1.381 . S
C992 C998 1.383 . S
C993 C989 1.495 . S
C993 H999 0.959 . S
C993 H1000 0.961 . S
C993 H1001 0.960 . S
C994 C992 1.381 . S
C994 C995 1.394 . S
C994 H1002 0.930 . S
C995 C994 1.394 . S
C995 C996 1.383 . S
C995 H1003 0.929 . S
C996 C995 1.383 . S
C996 C997 1.377 . S
C997 H981 0.930 . S
C997 C996 1.377 . S
C997 C998 1.379 . S
C998 H982 0.931 . S
C998 C992 1.383 . S
C998 C997 1.379 . S
H999 C993 0.959 . S
H1000 C993 0.961 . S
H1001 C993 0.960 . S
H1002 C994 0.930 . S
H1003 C995 0.929 . S
H1004 C1012 0.929 . S
H1005 C1014 0.930 . S
H1006 C1016 0.930 . S
H1007 C1019 0.929 . S
H1008 C1022 0.930 . S
H1009 C1024 0.960 . S
H1010 C1024 0.960 . S
H1011 C1024 0.960 . S
C1012 H1004 0.929 . S
C1012 C1013 1.377 . S
C1012 C1014 1.384 . S
C1013 C1012 1.377 . S
C1013 C1019 1.390 . S
C1014 H1005 0.930 . S
C1014 C1012 1.384 . S
C1014 C1015 1.372 . S
C1015 C1014 1.372 . S
C1015 C1016 1.400 . S
C1015 C1020 1.490 . S
C1016 H1006 0.930 . S
C1016 C1015 1.400 . S
C1016 C1019 1.386 . S
H1017 C1033 0.930 . S
H1018 C1034 0.931 . S
C1019 H1007 0.929 . S
C1019 C1013 1.390 . S
C1019 C1016 1.386 . S
C1020 C1015 1.490 . S
C1020 C1022 1.395 . S
C1020 C1023 1.403 . S
H1021 C1027 0.930 . S
C1022 H1008 0.930 . S
C1022 C1020 1.395 . S
C1022 C1025 1.403 . S
C1023 C1020 1.403 . S
C1023 C1024 1.524 . S
C1023 C1027 1.400 . S
C1024 H1009 0.960 . S
C1024 H1010 0.960 . S
C1024 H1011 0.960 . S
C1024 C1023 1.524 . S
C1025 C1022 1.403 . S
C1025 C1026 1.392 . S
C1025 C1029 1.495 . S
C1026 C1025 1.392 . S
C1026 C1027 1.385 . S
C1026 C1028 1.478 . S
C1027 H1021 0.930 . S
C1027 C1023 1.400 . S
C1027 C1026 1.385 . S
C1028 C1026 1.478 . S
C1028 C1030 1.381 . S
C1028 C1034 1.383 . S
C1029 C1025 1.495 . S
C1029 H1035 0.959 . S
C1029 H1036 0.961 . S
C1029 H1037 0.960 . S
C1030 C1028 1.381 . S
C1030 C1031 1.394 . S
C1030 H1038 0.930 . S
C1031 C1030 1.394 . S
C1031 C1032 1.383 . S
C1031 H1039 0.929 . S
C1032 C1031 1.383 . S
C1032 C1033 1.377 . S
C1033 H1017 0.930 . S
C1033 C1032 1.377 . S
C1033 C1034 1.379 . S
C1034 H1018 0.931 . S
C1034 C1028 1.383 . S
C1034 C1033 1.379 . S
H1035 C1029 0.959 . S
H1036 C1029 0.961 . S
H1037 C1029 0.960 . S
H1038 C1030 0.930 . S
H1039 C1031 0.929 . S
H1040 C1048 0.929 . S
H1041 C1050 0.930 . S
H1042 C1052 0.930 . S
H1043 C1055 0.929 . S
H1044 C1058 0.930 . S
H1045 C1060 0.960 . S
H1046 C1060 0.960 . S
H1047 C1060 0.960 . S
C1048 H1040 0.929 . S
C1048 C1049 1.377 . S
C1048 C1050 1.384 . S
C1049 C1048 1.377 . S
C1049 C1055 1.390 . S
C1050 H1041 0.930 . S
C1050 C1048 1.384 . S
C1050 C1051 1.372 . S
C1051 C1050 1.372 . S
C1051 C1052 1.400 . S
C1051 C1056 1.490 . S
C1052 H1042 0.930 . S
C1052 C1051 1.400 . S
C1052 C1055 1.386 . S
H1053 C1069 0.930 . S
H1054 C1070 0.931 . S
C1055 H1043 0.929 . S
C1055 C1049 1.390 . S
C1055 C1052 1.386 . S
C1056 C1051 1.490 . S
C1056 C1058 1.395 . S
C1056 C1059 1.403 . S
H1057 C1063 0.930 . S
C1058 H1044 0.930 . S
C1058 C1056 1.395 . S
C1058 C1061 1.403 1_455 S
C1059 C1056 1.403 . S
C1059 C1060 1.524 . S
C1059 C1063 1.400 1_455 S
C1060 H1045 0.960 . S
C1060 H1046 0.960 . S
C1060 H1047 0.960 . S
C1060 C1059 1.524 . S
C1061 C1058 1.403 1_655 S
C1061 C1062 1.392 . S
C1061 C1065 1.495 . S
C1062 C1061 1.392 . S
C1062 C1063 1.385 . S
C1062 C1064 1.478 . S
C1063 H1057 0.930 . S
C1063 C1059 1.400 1_655 S
C1063 C1062 1.385 . S
C1064 C1062 1.478 . S
C1064 C1066 1.381 . S
C1064 C1070 1.383 . S
C1065 C1061 1.495 . S
C1065 H1071 0.959 . S
C1065 H1072 0.961 . S
C1065 H1073 0.960 . S
C1066 C1064 1.381 . S
C1066 C1067 1.394 . S
C1066 H1074 0.930 . S
C1067 C1066 1.394 . S
C1067 C1068 1.383 . S
C1067 H1075 0.929 . S
C1068 C1067 1.383 . S
C1068 C1069 1.377 . S
C1069 H1053 0.930 . S
C1069 C1068 1.377 . S
C1069 C1070 1.379 . S
C1070 H1054 0.931 . S
C1070 C1064 1.383 . S
C1070 C1069 1.379 . S
H1071 C1065 0.959 . S
H1072 C1065 0.961 . S
H1073 C1065 0.960 . S
H1074 C1066 0.930 . S
H1075 C1067 0.929 . S
H1076 C1084 0.929 . S
H1077 C1086 0.930 . S
H1078 C1088 0.930 . S
H1079 C1091 0.929 . S
H1080 C1094 0.930 . S
H1081 C1096 0.960 . S
H1082 C1096 0.960 . S
H1083 C1096 0.960 . S
C1084 H1076 0.929 . S
C1084 C1085 1.377 . S
C1084 C1086 1.384 . S
C1085 C1084 1.377 . S
C1085 C1091 1.390 . S
C1086 H1077 0.930 . S
C1086 C1084 1.384 . S
C1086 C1087 1.372 . S
C1087 C1086 1.372 . S
C1087 C1088 1.400 . S
C1087 C1092 1.490 . S
C1088 H1078 0.930 . S
C1088 C1087 1.400 . S
C1088 C1091 1.386 . S
H1089 C1105 0.930 . S
H1090 C1106 0.931 . S
C1091 H1079 0.929 . S
C1091 C1085 1.390 . S
C1091 C1088 1.386 . S
C1092 C1087 1.490 . S
C1092 C1094 1.395 . S
C1092 C1095 1.403 . S
H1093 C1099 0.930 . S
C1094 H1080 0.930 . S
C1094 C1092 1.395 . S
C1094 C1097 1.403 1_655 S
C1095 C1092 1.403 . S
C1095 C1096 1.524 . S
C1095 C1099 1.400 1_655 S
C1096 H1081 0.960 . S
C1096 H1082 0.960 . S
C1096 H1083 0.960 . S
C1096 C1095 1.524 . S
C1097 C1094 1.403 1_455 S
C1097 C1098 1.392 . S
C1097 C1101 1.495 . S
C1098 C1097 1.392 . S
C1098 C1099 1.385 . S
C1098 C1100 1.478 . S
C1099 H1093 0.930 . S
C1099 C1095 1.400 1_455 S
C1099 C1098 1.385 . S
C1100 C1098 1.478 . S
C1100 C1102 1.381 . S
C1100 C1106 1.383 . S
C1101 C1097 1.495 . S
C1101 H1107 0.959 . S
C1101 H1108 0.961 . S
C1101 H1109 0.960 . S
C1102 C1100 1.381 . S
C1102 C1103 1.394 . S
C1102 H1110 0.930 . S
C1103 C1102 1.394 . S
C1103 C1104 1.383 . S
C1103 H1111 0.929 . S
C1104 C1103 1.383 . S
C1104 C1105 1.377 . S
C1105 H1089 0.930 . S
C1105 C1104 1.377 . S
C1105 C1106 1.379 . S
C1106 H1090 0.931 . S
C1106 C1100 1.383 . S
C1106 C1105 1.379 . S
H1107 C1101 0.959 . S
H1108 C1101 0.961 . S
H1109 C1101 0.960 . S
H1110 C1102 0.930 . S
H1111 C1103 0.929 . S
H1112 C1120 0.929 . S
H1113 C1122 0.930 . S
H1114 C1124 0.930 . S
H1115 C1127 0.929 . S
H1116 C1130 0.930 . S
H1117 C1132 0.960 . S
H1118 C1132 0.960 . S
H1119 C1132 0.960 . S
C1120 H1112 0.929 . S
C1120 C1121 1.377 . S
C1120 C1122 1.384 . S
C1121 C1120 1.377 . S
C1121 C1127 1.390 . S
C1122 H1113 0.930 . S
C1122 C1120 1.384 . S
C1122 C1123 1.372 . S
C1123 C1122 1.372 . S
C1123 C1124 1.400 . S
C1123 C1128 1.490 . S
C1124 H1114 0.930 . S
C1124 C1123 1.400 . S
C1124 C1127 1.386 . S
H1125 C1141 0.930 . S
H1126 C1142 0.931 . S
C1127 H1115 0.929 . S
C1127 C1121 1.390 . S
C1127 C1124 1.386 . S
C1128 C1123 1.490 . S
C1128 C1130 1.395 . S
C1128 C1131 1.403 . S
H1129 C1135 0.930 . S
C1130 H1116 0.930 . S
C1130 C1128 1.395 . S
C1130 C1133 1.403 . S
C1131 C1128 1.403 . S
C1131 C1132 1.524 . S
C1131 C1135 1.400 . S
C1132 H1117 0.960 . S
C1132 H1118 0.960 . S
C1132 H1119 0.960 . S
C1132 C1131 1.524 . S
C1133 C1130 1.403 . S
C1133 C1134 1.392 . S
C1133 C1137 1.495 . S
C1134 C1133 1.392 . S
C1134 C1135 1.385 . S
C1134 C1136 1.478 . S
C1135 H1129 0.930 . S
C1135 C1131 1.400 . S
C1135 C1134 1.385 . S
C1136 C1134 1.478 . S
C1136 C1138 1.381 . S
C1136 C1142 1.383 . S
C1137 C1133 1.495 . S
C1137 H1143 0.959 . S
C1137 H1144 0.961 . S
C1137 H1145 0.960 . S
C1138 C1136 1.381 . S
C1138 C1139 1.394 . S
C1138 H1146 0.930 . S
C1139 C1138 1.394 . S
C1139 C1140 1.383 . S
C1139 H1147 0.929 . S
C1140 C1139 1.383 . S
C1140 C1141 1.377 . S
C1141 H1125 0.930 . S
C1141 C1140 1.377 . S
C1141 C1142 1.379 . S
C1142 H1126 0.931 . S
C1142 C1136 1.383 . S
C1142 C1141 1.379 . S
H1143 C1137 0.959 . S
H1144 C1137 0.961 . S
H1145 C1137 0.960 . S
H1146 C1138 0.930 . S
H1147 C1139 0.929 . S
H1148 C1156 0.929 . S
H1149 C1158 0.930 . S
H1150 C1160 0.930 . S
H1151 C1163 0.929 . S
H1152 C1166 0.930 . S
H1153 C1168 0.960 . S
H1154 C1168 0.960 . S
H1155 C1168 0.960 . S
C1156 H1148 0.929 . S
C1156 C1157 1.377 . S
C1156 C1158 1.384 . S
C1157 C1156 1.377 . S
C1157 C1163 1.390 . S
C1158 H1149 0.930 . S
C1158 C1156 1.384 . S
C1158 C1159 1.372 . S
C1159 C1158 1.372 . S
C1159 C1160 1.400 . S
C1159 C1164 1.490 . S
C1160 H1150 0.930 . S
C1160 C1159 1.400 . S
C1160 C1163 1.386 . S
H1161 C1177 0.930 . S
H1162 C1178 0.931 . S
C1163 H1151 0.929 . S
C1163 C1157 1.390 . S
C1163 C1160 1.386 . S
C1164 C1159 1.490 . S
C1164 C1166 1.395 . S
C1164 C1167 1.403 . S
H1165 C1171 0.930 . S
C1166 H1152 0.930 . S
C1166 C1164 1.395 . S
C1166 C1169 1.403 . S
C1167 C1164 1.403 . S
C1167 C1168 1.524 . S
C1167 C1171 1.400 . S
C1168 H1153 0.960 . S
C1168 H1154 0.960 . S
C1168 H1155 0.960 . S
C1168 C1167 1.524 . S
C1169 C1166 1.403 . S
C1169 C1170 1.392 . S
C1169 C1173 1.495 . S
C1170 C1169 1.392 . S
C1170 C1171 1.385 . S
C1170 C1172 1.478 . S
C1171 H1165 0.930 . S
C1171 C1167 1.400 . S
C1171 C1170 1.385 . S
C1172 C1170 1.478 . S
C1172 C1174 1.381 . S
C1172 C1178 1.383 . S
C1173 C1169 1.495 . S
C1173 H1179 0.959 . S
C1173 H1180 0.961 . S
C1173 H1181 0.960 . S
C1174 C1172 1.381 . S
C1174 C1175 1.394 . S
C1174 H1182 0.930 . S
C1175 C1174 1.394 . S
C1175 C1176 1.383 . S
C1175 H1183 0.929 . S
C1176 C1175 1.383 . S
C1176 C1177 1.377 . S
C1177 H1161 0.930 . S
C1177 C1176 1.377 . S
C1177 C1178 1.379 . S
C1178 H1162 0.931 . S
C1178 C1172 1.383 . S
C1178 C1177 1.379 . S
H1179 C1173 0.959 . S
H1180 C1173 0.961 . S
H1181 C1173 0.960 . S
H1182 C1174 0.930 . S
H1183 C1175 0.929 . S
C329 C7 1.705 . S
C348 C296 1.707 . S
C365 C256 1.705 . S
C384 C47 1.707 . S
C401 C207 1.705 . S
C420 C96 1.706 . S
C437 C167 1.705 . S
C456 C136 1.707 . S
C473 C90 1.550 . S
C492 C10 1.564 . S
C509 C50 1.553 . S
C528 C130 1.541 . S
C545 C139 1.547 . S
C564 C59 1.520 . S
C581 C99 1.546 . S
C600 C19 1.519 . S
C617 C170 1.455 . S
C636 C250 1.465 . S
C653 C210 1.448 . S
C672 C290 1.463 . S
C689 C299 1.448 . S
C708 C219 1.424 . S
C725 C259 1.450 . S
C744 C179 1.466 . S
C761 C11 2.090 . S
C780 C2 2.100 . S
C797 C51 2.089 . S
C816 C42 2.071 . S
C833 C91 2.086 . S
C852 C82 2.071 . S
C869 C122 2.086 . S
C888 C131 2.089 . S
C905 C162 2.091 . S
C924 C171 2.079 . S
C941 C211 2.085 . S
C960 C202 2.079 . S
C977 C242 2.091 . S
C996 C251 2.099 . S
C1013 C282 2.085 . S
C1032 C291 2.077 . S
C1049 C16 2.373 . S
C1068 C56 2.383 . S
C1085 C127 2.374 . S
C1104 C87 2.362 . S
C1121 C176 2.374 . S
C1140 C216 2.381 . S
C1157 C287 2.378 . S
C1176 C247 2.375 . S
