# Generated by pormake.
# Topology snz, (6)-cn, num edge types: 1
# Building blocks:
#     Node 0, Type 0, BuildingBlock: NUHQIS_clean_sbu_0, # of connection points: 6
#     Node 1, Type 0, BuildingBlock: NUHQIS_clean_sbu_0, # of connection points: 6
#     Node 2, Type 0, BuildingBlock: NUHQIS_clean_sbu_0, # of connection points: 6
#     Node 3, Type 0, BuildingBlock: NUHQIS_clean_sbu_0, # of connection points: 6
#     Node 4, Type 0, BuildingBlock: NUHQIS_clean_sbu_0, # of connection points: 6
#     Node 5, Type 0, BuildingBlock: NUHQIS_clean_sbu_0, # of connection points: 6
#     Node 6, Type 0, BuildingBlock: NUHQIS_clean_sbu_0, # of connection points: 6
#     Node 7, Type 0, BuildingBlock: NUHQIS_clean_sbu_0, # of connection points: 6
#     Node 8, Type 0, BuildingBlock: NUHQIS_clean_sbu_0, # of connection points: 6
#     Edge 9, Type (0, 0), BuildingBlock: TEMPAE_clean_linker_10, # of connection points: 2
#     Edge 10, Type (0, 0), BuildingBlock: TEMPAE_clean_linker_10, # of connection points: 2
#     Edge 11, Type (0, 0), BuildingBlock: TEMPAE_clean_linker_10, # of connection points: 2
#     Edge 12, Type (0, 0), BuildingBlock: TEMPAE_clean_linker_10, # of connection points: 2
#     Edge 13, Type (0, 0), BuildingBlock: TEMPAE_clean_linker_10, # of connection points: 2
#     Edge 14, Type (0, 0), BuildingBlock: TEMPAE_clean_linker_10, # of connection points: 2
#     Edge 15, Type (0, 0), BuildingBlock: TEMPAE_clean_linker_10, # of connection points: 2
#     Edge 16, Type (0, 0), BuildingBlock: TEMPAE_clean_linker_10, # of connection points: 2
#     Edge 17, Type (0, 0), BuildingBlock: TEMPAE_clean_linker_10, # of connection points: 2
#     Edge 18, Type (0, 0), BuildingBlock: TEMPAE_clean_linker_10, # of connection points: 2
#     Edge 19, Type (0, 0), BuildingBlock: TEMPAE_clean_linker_10, # of connection points: 2
#     Edge 20, Type (0, 0), BuildingBlock: TEMPAE_clean_linker_10, # of connection points: 2
#     Edge 21, Type (0, 0), BuildingBlock: TEMPAE_clean_linker_10, # of connection points: 2
#     Edge 22, Type (0, 0), BuildingBlock: TEMPAE_clean_linker_10, # of connection points: 2
#     Edge 23, Type (0, 0), BuildingBlock: TEMPAE_clean_linker_10, # of connection points: 2
#     Edge 24, Type (0, 0), BuildingBlock: TEMPAE_clean_linker_10, # of connection points: 2
#     Edge 25, Type (0, 0), BuildingBlock: TEMPAE_clean_linker_10, # of connection points: 2
#     Edge 26, Type (0, 0), BuildingBlock: TEMPAE_clean_linker_10, # of connection points: 2
#     Edge 27, Type (0, 0), BuildingBlock: TEMPAE_clean_linker_10, # of connection points: 2
#     Edge 28, Type (0, 0), BuildingBlock: TEMPAE_clean_linker_10, # of connection points: 2
#     Edge 29, Type (0, 0), BuildingBlock: TEMPAE_clean_linker_10, # of connection points: 2
#     Edge 30, Type (0, 0), BuildingBlock: TEMPAE_clean_linker_10, # of connection points: 2
#     Edge 31, Type (0, 0), BuildingBlock: TEMPAE_clean_linker_10, # of connection points: 2
#     Edge 32, Type (0, 0), BuildingBlock: TEMPAE_clean_linker_10, # of connection points: 2
#     Edge 33, Type (0, 0), BuildingBlock: TEMPAE_clean_linker_10, # of connection points: 2
#     Edge 34, Type (0, 0), BuildingBlock: TEMPAE_clean_linker_10, # of connection points: 2
#     Edge 35, Type (0, 0), BuildingBlock: TEMPAE_clean_linker_10, # of connection points: 2
# Relax obj value: 0.392
# Max RMSD: 0.227
# Mean RMSD: 0.150
data_MOF--net-snz--node1-NUHQIS_clean_sbu_0--edge1-TEMPAE_clean_linker_10
_symmetry_space_group_name_H-M    P1
_symmetry_Int_Tables_number       1
_symmetry_cell_setting            triclinic
loop_
_symmetry_equiv_pos_as_xyz
'x, y, z'
_cell_length_a     69.98152
_cell_length_b     55.793941
_cell_length_c     16.736786
_cell_angle_alpha  96.399434
_cell_angle_beta   96.323419
_cell_angle_gamma 121.30307
loop_
_atom_site_label
_atom_site_type_symbol
_atom_site_fract_x
_atom_site_fract_y
_atom_site_fract_z
_atom_type_partial_charge
Tb0 Tb 0.10985 0.48661 0.23361 0.0
Eu1 Eu 0.06688 0.49483 0.21515 0.0
C2 C 0.09136 0.49324 1.05127 0.0
C3 C 0.1191 0.55112 0.25934 0.0
C4 C 0.14898 0.45987 0.29745 0.0
C5 C 0.17847 0.44989 0.33746 0.0
C6 C 0.17133 0.46622 0.3013 0.0
C7 C 0.1339 0.43685 0.33169 0.0
C8 C 0.14107 0.42045 0.36823 0.0
C9 C 0.16347 0.42655 0.37113 0.0
C10 C 0.14204 0.47725 0.25557 0.0
O11 O 0.09976 0.48146 0.35879 0.0
O12 O 0.07425 0.49556 0.35601 0.0
O13 O 0.05028 0.44724 0.20948 0.0
O14 O 0.07961 0.44342 0.17746 0.0
C15 C 0.08726 0.48857 0.39856 0.0
O16 O 0.05004 0.51703 0.2506 0.0
O17 O 0.03263 0.48055 0.15029 0.0
O18 O 0.07406 0.49195 0.08157 0.0
O19 O 0.10816 0.49459 0.10278 0.0
O20 O 0.12731 0.53433 0.25654 0.0
O21 O 0.09707 0.54041 0.24231 0.0
C22 C 0.05776 0.43157 0.17959 0.0
O23 O 0.12469 0.4638 0.19458 0.0
O24 O 0.14158 0.49732 0.30117 0.0
C25 C 0.02383 0.51629 0.14401 0.0
C26 C 1.00537 0.54359 1.06029 0.0
C27 C 0.99282 0.51364 1.05288 0.0
C28 C 1.00192 0.50022 0.09436 0.0
C29 C 0.03667 0.54616 0.15031 0.0
C30 C 0.02754 0.55964 0.10892 0.0
C31 C 0.03227 0.5015 0.19138 0.0
H32 H 0.19593 0.45581 0.33952 0.0
H33 H 0.18336 0.48387 0.27571 0.0
H34 H 0.11654 0.4314 0.32954 0.0
H35 H 0.12888 0.4026 0.3927 0.0
H36 H 0.97588 0.50048 1.01501 0.0
H37 H 0.99165 0.47719 0.08841 0.0
H38 H 0.05362 0.5592 0.18821 0.0
H39 H 0.03764 0.58274 0.11686 0.0
Tb40 Tb 0.614 0.51094 1.03053 0.0
Eu41 Eu 0.56776 0.51225 1.01351 0.0
C42 C 0.59154 0.50919 0.19716 0.0
C43 C 0.56417 0.45073 0.99255 0.0
C44 C 0.67333 0.52677 1.01072 0.0
C45 C 0.70829 0.52874 0.99313 0.0
C46 C 0.68688 0.51506 1.01566 0.0
C47 C 0.68156 0.55242 0.98164 0.0
C48 C 0.70305 0.56617 0.95883 0.0
C49 C 0.71687 0.55465 0.9649 0.0
C50 C 0.6512 0.51213 1.03883 0.0
O51 O 0.60718 0.51236 0.89544 0.0
O52 O 0.57502 0.51436 0.87961 0.0
O53 O 0.59516 0.55933 1.03019 0.0
O54 O 0.6272 0.55748 1.05833 0.0
C55 C 0.59119 0.51333 0.84674 0.0
O56 O 0.53197 0.49403 0.95863 0.0
O57 O 0.54901 0.53051 1.0588 0.0
O58 O 0.57514 0.50995 0.15148 0.0
O59 O 0.60757 0.50875 0.16116 0.0
O60 O 0.58677 0.46428 1.00899 0.0
O61 O 0.55408 0.46501 0.99181 0.0
C62 C 0.61738 0.57226 1.05326 0.0
O63 O 0.64762 0.52743 0.0921 0.0
O64 O 0.63283 0.49474 0.98367 0.0
C65 C 0.511 0.495 1.05888 0.0
C66 C 0.47673 0.46798 0.15173 0.0
C67 C 0.47546 0.485 0.09768 0.0
C68 C 0.49245 0.4984 1.05185 0.0
C69 C 0.51223 0.47775 0.1117 0.0
C70 C 0.4953 0.46441 0.15767 0.0
C71 C 0.52948 0.51013 1.0137 0.0
H72 H 0.71806 0.5188 0.99739 0.0
H73 H 0.68093 0.49528 1.03766 0.0
H74 H 0.67149 0.56198 0.97738 0.0
H75 H 0.70904 0.58615 0.93806 0.0
H76 H 0.46127 0.48791 0.09054 0.0
H77 H 0.49119 0.51159 1.01139 0.0
H78 H 0.52646 0.47491 0.11821 0.0
H79 H 0.49707 0.45183 0.19926 0.0
Tb80 Tb 0.56458 0.04037 0.86231 0.0
Eu81 Eu 0.61563 0.09789 0.89898 0.0
C82 C 0.58846 0.06493 0.70412 0.0
C83 C 0.60667 0.03401 0.89391 0.0
C84 C 0.50689 0.98618 0.89575 0.0
C85 C 0.46695 0.96063 0.90833 0.0
C86 C 0.48365 0.97182 0.8601 0.0
C87 C 0.51317 0.9895 0.98096 0.0
C88 C 0.49648 0.97816 1.02914 0.0
C89 C 0.47312 0.96342 0.99344 0.0
C90 C 0.52429 0.99702 0.84338 0.0
O91 O 0.57494 0.04835 1.00081 0.0
O92 O 0.60587 0.09474 1.03066 0.0
O93 O 0.59068 0.11376 0.87559 0.0
O94 O 0.5597 0.0749 0.90453 0.0
C95 C 0.59044 0.07166 1.05704 0.0
O96 O 0.65035 0.1263 0.97525 0.0
O97 O 0.64412 0.1311 0.85189 0.0
O98 O 0.60815 0.08029 0.75782 0.0
O99 O 0.56939 0.05008 0.73375 0.0
O100 O 0.586 0.02276 0.85117 0.0
O101 O 0.61962 0.06155 0.92378 0.0
C102 C 0.56903 0.10028 0.88518 0.0
O103 O 0.52916 0.02058 0.81901 0.0
O104 O 0.54266 0.99706 0.86687 0.0
C105 C 0.68171 0.14047 0.90281 0.0
C106 C 0.72444 0.14708 0.87649 0.0
C107 C 0.72372 0.16603 0.93804 0.0
C108 C 0.70287 0.16278 0.9508 0.0
C109 C 0.6822 0.12133 0.84157 0.0
C110 C 0.70309 0.12456 0.82869 0.0
C111 C 0.65973 0.13829 0.91603 0.0
H112 H 0.44916 0.94922 0.8786 0.0
H113 H 0.47838 0.96898 0.79462 0.0
H114 H 0.53097 1.00069 1.01037 0.0
H115 H 0.5019 0.9811 0.09455 0.0
H116 H 0.73939 0.18397 0.9759 0.0
H117 H 0.70336 0.1781 0.99817 0.0
H118 H 0.66637 0.1038 0.80323 0.0
H119 H 0.70237 0.10905 0.78142 0.0
Tb120 Tb 0.76519 0.84912 0.27936 0.0
Eu121 Eu 0.722 0.85725 0.26139 0.0
C122 C 0.7464 0.85569 0.09723 0.0
C123 C 0.7752 0.91294 0.31783 0.0
C124 C 0.80558 0.82461 0.34109 0.0
C125 C 0.82156 0.79481 0.33365 0.0
C126 C 0.81208 0.80835 0.29516 0.0
C127 C 0.80831 0.82652 0.42662 0.0
C128 C 0.81788 0.813 0.46528 0.0
C129 C 0.82497 0.79731 0.41944 0.0
C130 C 0.79795 0.84117 0.29907 0.0
O131 O 0.75573 0.84498 0.40586 0.0
O132 O 0.72808 0.85572 0.40096 0.0
O133 O 0.70538 0.8089 0.25652 0.0
O134 O 0.73558 0.80539 0.23229 0.0
C135 C 0.74212 0.85033 0.44437 0.0
O136 O 0.70521 0.87947 0.29957 0.0
O137 O 0.68918 0.84642 0.19087 0.0
O138 O 0.72939 0.85496 0.12809 0.0
O139 O 0.76301 0.85654 0.14817 0.0
O140 O 0.7829 0.89603 0.30506 0.0
O141 O 0.75317 0.90278 0.30336 0.0
C142 C 0.71378 0.79326 0.23451 0.0
O143 O 0.78049 0.82709 0.23849 0.0
O144 O 0.79737 0.86122 0.34422 0.0
C145 C 0.68188 0.88438 0.1939 0.0
C146 C 0.66542 0.91577 0.11905 0.0
C147 C 0.67534 0.92366 0.20326 0.0
C148 C 0.68335 0.9082 0.23998 0.0
C149 C 0.67223 0.87662 0.10952 0.0
C150 C 0.66421 0.89211 0.07269 0.0
C151 C 0.68861 0.86661 0.23573 0.0
H152 H 0.82636 0.78248 0.29599 0.0
H153 H 0.81023 0.80657 0.22925 0.0
H154 H 0.80356 0.83897 0.46396 0.0
H155 H 0.82035 0.81561 0.53143 0.0
H156 H 0.677 0.94191 0.24125 0.0
H157 H 0.69042 0.91471 0.30517 0.0
H158 H 0.67046 0.85822 0.07193 0.0
H159 H 0.65648 0.88499 1.00807 0.0
Tb160 Tb 0.26078 0.83195 0.47558 0.0
Eu161 Eu 0.21487 0.83267 0.45864 0.0
C162 C 0.23845 0.83022 0.64209 0.0
C163 C 0.21338 0.77238 0.43502 0.0
C164 C 0.31555 0.84641 0.42483 0.0
C165 C 0.3558 0.87533 0.41746 0.0
C166 C 0.33868 0.86244 0.46324 0.0
C167 C 0.30988 0.84358 0.33949 0.0
C168 C 0.32698 0.85629 0.29366 0.0
C169 C 0.35019 0.87238 0.33198 0.0
C170 C 0.29758 0.83349 0.47442 0.0
O171 O 0.25104 0.82791 0.33811 0.0
O172 O 0.22501 0.84104 0.33021 0.0
O173 O 0.24346 0.88052 0.49898 0.0
O174 O 0.27429 0.87768 0.48205 0.0
C175 C 0.23816 0.8346 0.29298 0.0
O176 O 0.17991 0.81596 0.3945 0.0
O177 O 0.19396 0.84738 0.50655 0.0
O178 O 0.21987 0.82488 0.59227 0.0
O179 O 0.25659 0.83549 0.60927 0.0
O180 O 0.23462 0.78699 0.47611 0.0
O181 O 0.20351 0.78599 0.41327 0.0
C182 C 0.2656 0.89311 0.5006 0.0
O183 O 0.29577 0.85129 0.52533 0.0
O184 O 0.27759 0.81208 0.43562 0.0
C185 C 0.15335 0.81553 0.47406 0.0
C186 C 0.10993 0.78876 0.52117 0.0
C187 C 0.11497 0.80662 0.46311 0.0
C188 C 0.13633 0.81975 0.43998 0.0
C189 C 0.14851 0.79765 0.53172 0.0
C190 C 0.12705 0.78439 0.55488 0.0
C191 C 0.17596 0.83048 0.44922 0.0
H192 H 0.37348 0.88735 0.44893 0.0
H193 H 0.34351 0.86505 0.52888 0.0
H194 H 0.29221 0.83167 0.308 0.0
H195 H 0.322 0.85388 0.22823 0.0
H196 H 0.10229 0.81026 0.43461 0.0
H197 H 0.13958 0.83337 0.39528 0.0
H198 H 0.16134 0.79408 0.55922 0.0
H199 H 0.12405 0.77111 0.60036 0.0
Tb200 Tb 0.21899 0.25047 0.61035 0.0
Eu201 Eu 0.26823 0.30998 0.64968 0.0
C202 C 0.24168 0.27502 0.45118 0.0
C203 C 0.26466 0.24777 0.63238 0.0
C204 C 0.15343 0.21011 0.59771 0.0
C205 C 0.1126 0.1792 0.60171 0.0
C206 C 0.1341 0.18304 0.59758 0.0
C207 C 0.15023 0.23315 0.59978 0.0
C208 C 0.1287 0.22934 0.60369 0.0
C209 C 0.10941 0.20235 0.60654 0.0
C210 C 0.17701 0.2148 0.61378 0.0
O211 O 0.23108 0.25871 0.74869 0.0
O212 O 0.26059 0.30551 0.7822 0.0
O213 O 0.24389 0.32461 0.65699 0.0
O214 O 0.21413 0.28413 0.57455 0.0
C215 C 0.24571 0.28189 0.80656 0.0
O216 O 0.3049 0.33566 0.70123 0.0
O217 O 0.28961 0.3535 0.62977 0.0
O218 O 0.25927 0.29685 0.50583 0.0
O219 O 0.22439 0.25419 0.47888 0.0
O220 O 0.24177 0.23284 0.6157 0.0
O221 O 0.27649 0.2759 0.64575 0.0
C222 C 0.22402 0.31132 0.60761 0.0
O223 O 0.18687 0.21189 0.5543 0.0
O224 O 0.19173 0.2366 0.67149 0.0
C225 C 0.32641 0.36571 0.61421 0.0
C226 C 0.3595 0.38462 0.51369 0.0
C227 C 0.36307 0.40212 0.58843 0.0
C228 C 0.34665 0.39276 0.63804 0.0
C229 C 0.32289 0.34795 0.54047 0.0
C230 C 0.33923 0.35732 0.49063 0.0
C231 C 0.3086 0.35662 0.66423 0.0
H232 H 0.09869 0.15809 0.60481 0.0
H233 H 0.13586 0.16488 0.59835 0.0
H234 H 0.16466 0.25448 0.60161 0.0
H235 H 0.12735 0.24785 0.60564 0.0
H236 H 0.37831 0.42338 0.60767 0.0
H237 H 0.34963 0.40684 0.69447 0.0
H238 H 0.30737 0.32695 0.52101 0.0
H239 H 0.33601 0.34313 0.43409 0.0
Tb240 Tb 0.4193 0.17476 0.66587 0.0
Eu241 Eu 0.41196 0.16993 0.84895 0.0
C242 C 0.44856 0.23128 0.81084 0.0
C243 C 0.45002 0.15924 0.78524 0.0
C244 C 0.44224 0.21619 0.51122 0.0
C245 C 0.46804 0.26795 0.55246 0.0
C246 C 0.45928 0.24059 0.56925 0.0
C247 C 0.43457 0.21962 0.43517 0.0
C248 C 0.4435 0.247 0.41793 0.0
C249 C 0.46005 0.27161 0.477 0.0
C250 C 0.43131 0.18763 0.5327 0.0
O251 O 0.39339 0.12826 0.64675 0.0
O252 O 0.38696 0.12377 0.77818 0.0
O253 O 0.38908 0.18525 0.79827 0.0
O254 O 0.38863 0.17748 0.66111 0.0
C255 C 0.38259 0.11235 0.69944 0.0
O256 O 0.4167 0.15983 0.96955 0.0
O257 O 0.39654 0.17813 0.94623 0.0
O258 O 0.44326 0.2148 0.86512 0.0
O259 O 0.43817 0.21998 0.73343 0.0
O260 O 0.44161 0.15941 0.71053 0.0
O261 O 0.4422 0.16463 0.84837 0.0
C262 C 0.3807 0.18406 0.72232 0.0
O263 O 0.44347 0.18472 0.59079 0.0
O264 O 0.41038 0.17653 0.543 0.0
C265 C 0.42528 0.20089 1.06364 0.0
C266 C 0.45754 0.2581 0.14347 0.0
C267 C 0.43407 0.24683 0.13603 0.0
C268 C 0.41809 0.21845 0.0969 0.0
C269 C 0.44882 0.21187 0.07449 0.0
C270 C 0.46476 0.24012 0.11431 0.0
C271 C 0.40891 0.17463 1.00186 0.0
H272 H 0.48077 0.28612 0.5994 0.0
H273 H 0.46567 0.23864 0.62847 0.0
H274 H 0.42152 0.20115 0.38945 0.0
H275 H 0.43747 0.24879 0.35781 0.0
H276 H 0.42809 0.26007 0.15997 0.0
H277 H 0.4001 0.2107 0.08852 0.0
H278 H 0.45505 0.1992 1.04842 0.0
H279 H 0.48275 0.2482 0.11948 0.0
Tb280 Tb 0.91654 0.15866 0.80608 0.0
Eu281 Eu 0.91566 0.19021 0.65888 0.0
C282 C 0.89026 0.12078 0.62838 0.0
C283 C 0.95556 0.17619 0.69904 0.0
C284 C 0.89673 0.1318 0.98152 0.0
C285 C 0.89631 0.15812 0.10564 0.0
C286 C 0.90694 0.1472 1.0622 0.0
C287 C 0.87409 0.12338 0.95059 0.0
C288 C 0.86356 0.1345 0.9938 0.0
C289 C 0.87534 0.15359 0.06883 0.0
C290 C 0.91153 0.13306 0.92377 0.0
O291 O 0.93293 0.20383 0.87074 0.0
O292 O 0.94085 0.2268 0.76259 0.0
O293 O 0.8909 0.19292 0.73243 0.0
O294 O 0.88325 0.15519 0.79304 0.0
C295 C 0.94355 0.22767 0.84184 0.0
O296 O 0.89702 0.19478 0.55481 0.0
O297 O 0.93383 0.22299 0.5879 0.0
O298 O 0.89019 0.14259 0.60564 0.0
O299 O 0.9038 0.12485 0.69661 0.0
O300 O 0.94916 0.17006 0.76936 0.0
O301 O 0.94318 0.18031 0.64331 0.0
C302 C 0.87773 0.17321 0.77171 0.0
O303 O 0.90118 0.11992 0.84851 0.0
O304 O 0.92906 0.15862 0.92628 0.0
C305 C 0.91332 0.24246 0.53198 0.0
C306 C 0.90705 0.28081 0.45438 0.0
C307 C 0.88914 0.25934 0.48552 0.0
C308 C 0.89216 0.23998 0.52247 0.0
C309 C 0.93225 0.26751 0.51865 0.0
C310 C 0.92925 0.28712 0.48286 0.0
C311 C 0.9151 0.21771 0.54332 0.0
H312 H 0.9057 0.17272 0.16399 0.0
H313 H 0.92428 0.15384 0.08759 0.0
H314 H 0.86546 0.11095 0.88912 0.0
H315 H 0.8471 0.13019 0.96576 0.0
H316 H 0.87189 0.25441 0.4708 0.0
H317 H 0.87735 0.22157 0.53572 0.0
H318 H 0.94906 0.27075 0.52912 0.0
H319 H 0.94402 0.30499 0.46774 0.0
Tb320 Tb 0.90172 0.64594 0.67102 0.0
Eu321 Eu 0.92699 0.69605 0.83692 0.0
C322 C 0.93138 0.64139 0.81526 0.0
C323 C 0.87387 0.64805 0.80684 0.0
C324 C 0.89066 0.58819 0.50793 0.0
C325 C 0.91829 0.57419 0.51119 0.0
C326 C 0.9047 0.58093 0.5512 0.0
C327 C 0.88779 0.5844 0.42257 0.0
C328 C 0.90123 0.57749 0.3824 0.0
C329 C 0.91817 0.57497 0.42751 0.0
C330 C 0.88219 0.60404 0.55167 0.0
O331 O 0.88867 0.67337 0.65355 0.0
O332 O 0.91605 0.71514 0.74345 0.0
O333 O 0.95516 0.70089 0.77328 0.0
O334 O 0.93498 0.6773 0.64244 0.0
C335 C 0.89849 0.70102 0.68146 0.0
O336 O 0.92875 0.71023 0.96568 0.0
O337 O 0.95537 0.73799 0.90473 0.0
O338 O 0.92781 0.65784 0.8656 0.0
O339 O 0.92613 0.63836 0.73573 0.0
O340 O 0.87834 0.63225 0.75771 0.0
O341 O 0.88929 0.6753 0.83491 0.0
C342 C 0.95456 0.69487 0.69461 0.0
O343 O 0.8809 0.60158 0.62767 0.0
O344 O 0.89136 0.63061 0.54338 0.0
C345 C 0.96603 0.73341 1.03851 0.0
C346 C 0.98437 0.71588 0.16016 0.0
C347 C 0.98632 0.71074 0.07824 0.0
C348 C 0.97704 0.71922 1.01776 0.0
C349 C 0.96697 0.74216 0.12134 0.0
C350 C 0.97634 0.73375 0.18194 0.0
C351 C 0.94934 0.73268 0.975 0.0
H352 H 0.93058 0.57143 0.5474 0.0
H353 H 0.90661 0.58277 0.61692 0.0
H354 H 0.87672 0.58937 0.38783 0.0
H355 H 0.90019 0.57781 0.31757 0.0
H356 H 0.99266 0.69748 1.05911 0.0
H357 H 0.97651 0.71219 0.95405 0.0
H358 H 0.95864 0.75321 0.13864 0.0
H359 H 0.97523 0.73886 0.24495 0.0
C360 C 0.07094 0.48099 0.89618 0.0
C361 C 0.09133 0.49269 0.95567 0.0
C362 C 0.07012 0.47947 0.80855 0.0
C363 C 0.09032 0.49114 0.77361 0.0
C364 C 0.11109 0.50355 0.8339 0.0
C365 C 0.11125 0.50354 0.92098 0.0
C366 C 0.04688 0.46467 0.75391 0.0
C367 C 0.13383 0.51752 0.80795 0.0
C368 C 0.09493 0.47343 0.53828 0.0
C369 C 0.08794 0.4889 0.49435 0.0
C370 C 0.09534 0.47344 0.62541 0.0
C371 C 0.08968 0.49048 0.67669 0.0
C372 C 0.08316 0.50673 0.6326 0.0
C373 C 0.08192 0.50524 0.54477 0.0
C374 C 0.1018 0.45444 0.66127 0.0
C375 C 0.07755 0.52655 0.67746 0.0
H376 H 0.05504 0.47212 0.91798 0.0
H377 H 0.12745 0.51287 0.96259 0.0
H378 H 0.04118 0.47986 0.75354 0.0
H379 H 0.04679 0.4568 0.68993 0.0
H380 H 0.0342 0.44623 0.77814 0.0
H381 H 0.14701 0.53647 0.85524 0.0
H382 H 0.13935 0.50212 0.80224 0.0
H383 H 0.13323 0.52441 0.74856 0.0
H384 H 0.09978 0.46046 0.50389 0.0
H385 H 0.0766 0.5178 0.51569 0.0
H386 H 0.09522 0.44871 0.7181 0.0
H387 H 0.12067 0.46569 0.67552 0.0
H388 H 0.09526 0.4344 0.61615 0.0
H389 H 0.05875 0.51566 0.66921 0.0
H390 H 0.08381 0.54616 0.65119 0.0
H391 H 0.08501 0.53304 0.74402 0.0
C392 C 0.60013 0.49896 0.70563 0.0
C393 C 0.59138 0.51283 0.75144 0.0
C394 C 0.59976 0.49735 0.61816 0.0
C395 C 0.59155 0.51126 0.57015 0.0
C396 C 0.58321 0.52596 0.617 0.0
C397 C 0.58269 0.52587 0.70358 0.0
C398 C 0.60809 0.47989 0.57806 0.0
C399 C 0.57482 0.54258 0.577 0.0
C400 C 0.61198 0.52243 0.3534 0.0
C401 C 0.59172 0.50905 0.29236 0.0
C402 C 0.61223 0.52391 0.44085 0.0
C403 C 0.59163 0.5104 0.47358 0.0
C404 C 0.57108 0.49605 0.41139 0.0
C405 C 0.57144 0.49631 0.32487 0.0
C406 C 0.63522 0.54081 0.49767 0.0
C407 C 0.54803 0.47962 0.43439 0.0
H408 H 0.60688 0.48834 0.73801 0.0
H409 H 0.57581 0.53694 0.73452 0.0
H410 H 0.60153 0.47282 0.51087 0.0
H411 H 0.62701 0.49289 0.58991 0.0
H412 H 0.60293 0.46064 0.6053 0.0
H413 H 0.57974 0.56236 0.62032 0.0
H414 H 0.58156 0.54867 0.52064 0.0
H415 H 0.55591 0.52938 0.56103 0.0
H416 H 0.62811 0.53285 0.33312 0.0
H417 H 0.55531 0.48566 0.28177 0.0
H418 H 0.64255 0.52735 0.49979 0.0
H419 H 0.63433 0.54798 0.5609 0.0
H420 H 0.64718 0.55995 0.47411 0.0
H421 H 0.54888 0.47359 0.49503 0.0
H422 H 0.53625 0.4598 0.38752 0.0
H423 H 0.5405 0.49289 0.43556 0.0
C424 C 0.56856 0.05701 0.54933 0.0
C425 C 0.5882 0.06501 0.60839 0.0
C426 C 0.56869 0.05859 0.46302 0.0
C427 C 0.58881 0.06747 0.42826 0.0
C428 C 0.60855 0.07493 0.48765 0.0
C429 C 0.60809 0.07423 0.57406 0.0
C430 C 0.5467 0.05078 0.40975 0.0
C431 C 0.6308 0.08376 0.4611 0.0
C432 C 0.57806 0.04514 0.1818 0.0
C433 C 0.59023 0.07107 0.15236 0.0
C434 C 0.57777 0.04366 0.2679 0.0
C435 C 0.58922 0.06878 0.3324 0.0
C436 C 0.6012 0.09514 0.3027 0.0
C437 C 0.60189 0.09587 0.21622 0.0
C438 C 0.56496 0.0143 0.28832 0.0
C439 C 0.6135 0.12347 0.3618 0.0
H440 H 0.55277 0.04997 0.57088 0.0
H441 H 0.62376 0.08071 0.61524 0.0
H442 H 0.54947 0.0605 0.35444 0.0
H443 H 0.53575 0.02716 0.39 0.0
H444 H 0.53719 0.05763 0.44485 0.0
H445 H 0.64034 0.07655 0.49811 0.0
H446 H 0.62835 0.07505 0.3953 0.0
H447 H 0.64157 0.10746 0.47185 0.0
H448 H 0.56877 0.02529 0.13683 0.0
H449 H 0.61147 0.11646 0.19868 0.0
H450 H 0.54659 1.00661 0.28033 0.0
H451 H 0.57114 0.01414 0.35209 0.0
H452 H 0.56642 0.99883 0.24569 0.0
H453 H 0.60696 0.12196 0.41968 0.0
H454 H 0.61196 0.13962 0.33339 0.0
H455 H 0.63192 0.13144 0.37656 0.0
C456 C 0.73621 0.8665 0.58994 0.0
C457 C 0.74278 0.8507 0.54013 0.0
C458 C 0.73748 0.86813 0.6778 0.0
C459 C 0.74453 0.85248 0.72252 0.0
C460 C 0.75073 0.83593 0.67181 0.0
C461 C 0.75033 0.83586 0.58466 0.0
C462 C 0.73134 0.88749 0.72196 0.0
C463 C 0.75775 0.8175 0.70823 0.0
C464 C 0.76621 0.86608 0.96692 0.0
C465 C 0.7463 0.85506 1.00162 0.0
C466 C 0.76602 0.86601 0.87981 0.0
C467 C 0.74521 0.85327 0.81949 0.0
C468 C 0.72501 0.8414 0.85449 0.0
C469 C 0.72587 0.84307 0.94216 0.0
C470 C 0.78877 0.88031 0.85395 0.0
C471 C 0.70173 0.8262 0.79991 0.0
H472 H 0.73047 0.8786 0.56035 0.0
H473 H 0.75562 0.82333 0.55074 0.0
H474 H 0.7125 0.87617 0.71308 0.0
H475 H 0.73867 0.89411 0.78864 0.0
H476 H 0.73736 0.90704 0.69555 0.0
H477 H 0.77664 0.82912 0.72174 0.0
H478 H 0.75141 0.81187 0.76551 0.0
H479 H 0.75135 0.79739 0.66364 0.0
H480 H 0.78245 0.87564 1.00855 0.0
H481 H 0.70997 0.83405 0.96402 0.0
H482 H 0.78804 0.88692 0.79417 0.0
H483 H 0.79464 0.86525 0.84921 0.0
H484 H 0.80177 0.8995 0.90089 0.0
H485 H 0.69566 0.84103 0.79996 0.0
H486 H 0.68927 0.80755 0.82404 0.0
H487 H 0.70171 0.81854 0.73582 0.0
C488 C 0.25904 0.84472 0.79908 0.0
C489 C 0.23874 0.83053 0.73778 0.0
C490 C 0.25933 0.8462 0.88664 0.0
C491 C 0.23878 0.83215 0.91947 0.0
C492 C 0.21823 0.8172 0.85727 0.0
C493 C 0.21849 0.81716 0.77052 0.0
C494 C 0.2823 0.86355 0.94358 0.0
C495 C 0.19527 0.80055 0.8808 0.0
C496 C 0.24684 0.82009 0.15119 0.0
C497 C 0.23836 0.83424 0.19751 0.0
C498 C 0.2467 0.81881 0.06387 0.0
C499 C 0.23874 0.83301 1.01616 0.0
C500 C 0.23063 0.84793 1.06337 0.0
C501 C 0.23012 0.84783 0.15004 0.0
C502 C 0.25515 0.80152 1.02356 0.0
C503 C 0.22244 0.86475 1.02353 0.0
H504 H 0.27516 0.85561 0.77887 0.0
H505 H 0.20233 0.8059 0.72749 0.0
H506 H 0.28127 0.87092 1.00638 0.0
H507 H 0.28979 0.85029 0.94708 0.0
H508 H 0.29418 0.88258 0.9194 0.0
H509 H 0.18332 0.78102 0.83321 0.0
H510 H 0.19631 0.79405 0.9406 0.0
H511 H 0.18788 0.81395 0.88453 0.0
H512 H 0.25338 0.80918 0.18318 0.0
H513 H 0.22348 0.85917 0.1812 0.0
H514 H 0.27406 0.81481 1.03433 0.0
H515 H 0.24835 0.79422 0.95652 0.0
H516 H 0.25038 0.78245 1.0513 0.0
H517 H 0.22733 0.88447 0.0671 0.0
H518 H 0.20353 0.85163 1.00693 0.0
H519 H 0.22933 0.87096 0.9675 0.0
C520 C 0.23654 0.25504 0.932 0.0
C521 C 0.24535 0.28084 0.90136 0.0
C522 C 0.23621 0.25361 1.01809 0.0
C523 C 0.24381 0.27836 0.08071 0.0
C524 C 0.25225 0.30443 1.04946 0.0
C525 C 0.25338 0.30538 0.96348 0.0
C526 C 0.22771 0.2248 1.04059 0.0
C527 C 0.26007 0.33215 0.1061 0.0
C528 C 0.22188 0.26108 0.29322 0.0
C529 C 0.24185 0.27478 0.35583 0.0
C530 C 0.22219 0.26252 0.207 0.0
C531 C 0.24308 0.27703 0.17625 0.0
C532 C 0.26331 0.29028 0.23948 0.0
C533 C 0.26241 0.2896 0.32554 0.0
C534 C 0.19945 0.24849 0.14957 0.0
C535 C 0.28662 0.30547 0.21791 0.0
H536 H 0.23015 0.23544 0.88821 0.0
H537 H 0.26018 0.3258 0.94466 0.0
H538 H 0.23411 0.22649 0.10591 0.0
H539 H 0.20879 0.21234 1.02849 0.0
H540 H 0.23288 0.21249 1.00181 0.0
H541 H 0.25509 0.34515 0.07447 0.0
H542 H 0.25297 0.32883 0.16284 0.0
H543 H 0.27896 0.34481 0.12316 0.0
H544 H 0.20555 0.24965 0.3118 0.0
H545 H 0.27835 0.30061 0.36977 0.0
H546 H 0.19213 0.22513 0.13359 0.0
H547 H 0.20075 0.25702 0.09227 0.0
H548 H 0.18729 0.25142 0.18009 0.0
H549 H 0.28624 0.29841 0.15281 0.0
H550 H 0.2984 0.30191 0.25736 0.0
H551 H 0.29383 0.32884 0.23004 0.0
C552 C 0.45564 0.30575 0.40369 0.0
C553 C 0.46942 0.30058 0.45707 0.0
C554 C 0.46567 0.32973 0.36714 0.0
C555 C 0.48972 0.34541 0.37367 0.0
C556 C 0.50188 0.34724 0.44967 0.0
C557 C 0.49223 0.32334 0.48775 0.0
C558 C 0.45053 0.33705 0.31952 0.0
C559 C 0.5254 0.37287 0.48548 0.0
C560 C 0.4928 0.29436 0.24571 0.0
C561 C 0.47431 0.28803 0.18608 0.0
C562 C 0.506 0.32141 0.29706 0.0
C563 C 0.49797 0.3402 0.29737 0.0
C564 C 0.48555 0.33776 0.22111 0.0
C565 C 0.47219 0.31071 0.16847 0.0
C566 C 0.528 0.32926 0.35015 0.0
C567 C 0.48555 0.36306 0.19814 0.0
H568 H 0.43728 0.29105 0.38947 0.0
H569 H 0.50287 0.32214 0.53711 0.0
H570 H 0.46008 0.35996 0.3153 0.0
H571 H 0.44315 0.32337 0.25723 0.0
H572 H 0.43599 0.33264 0.34979 0.0
H573 H 0.52434 0.38566 0.53855 0.0
H574 H 0.53703 0.36623 0.50921 0.0
H575 H 0.53256 0.38674 0.44024 0.0
H576 H 0.49668 0.27824 0.25394 0.0
H577 H 0.4601 0.30729 0.11522 0.0
H578 H 0.52458 0.32026 0.40651 0.0
H579 H 0.54006 0.35279 0.36627 0.0
H580 H 0.53628 0.31982 0.31746 0.0
H581 H 0.4681 0.35684 0.16969 0.0
H582 H 0.49634 0.37079 0.15153 0.0
H583 H 0.4928 0.38101 0.25165 0.0
C584 C 0.91552 0.28966 0.316 0.0
C585 C 0.90151 0.28724 0.37296 0.0
C586 C 0.90575 0.27176 0.23822 0.0
C587 C 0.8817 0.25348 0.21657 0.0
C588 C 0.86839 0.25979 0.26149 0.0
C589 C 0.87868 0.27744 0.33998 0.0
C590 C 0.92106 0.26857 0.18702 0.0
C591 C 0.8429 0.24392 0.234 0.0
C592 C 0.86692 0.19114 1.05187 0.0
C593 C 0.86865 0.17326 0.10101 0.0
C594 C 0.86847 0.21626 0.08743 0.0
C595 C 0.87202 0.22352 0.17384 0.0
C596 C 0.87083 0.20344 0.22197 0.0
C597 C 0.86908 0.17854 0.18463 0.0
C598 C 0.86828 0.23584 1.03255 0.0
C599 C 0.87427 0.20957 0.31427 0.0
H600 H 0.9338 0.30074 0.33593 0.0
H601 H 0.86795 0.27893 0.37962 0.0
H602 H 0.91632 0.26957 0.12272 0.0
H603 H 0.93935 0.28554 0.21021 0.0
H604 H 0.919 0.24745 0.18714 0.0
H605 H 0.83636 0.2573 0.25607 0.0
H606 H 0.83786 0.23745 0.16611 0.0
H607 H 0.83473 0.22429 0.26027 0.0
H608 H 0.8664 0.1869 0.98656 0.0
H609 H 0.8701 0.16438 0.22193 0.0
H610 H 0.88524 0.24833 1.01587 0.0
H611 H 0.8641 0.25088 1.06224 0.0
H612 H 0.85582 0.22316 0.97423 0.0
H613 H 0.8921 0.22742 0.33994 0.0
H614 H 0.87123 0.19084 0.34116 0.0
H615 H 0.86256 0.21577 0.33376 0.0
C616 C 0.93727 0.57681 0.30901 0.0
C617 C 0.93904 0.58257 0.39401 0.0
C618 C 0.95325 0.59761 0.27125 0.0
C619 C 0.97148 0.62386 0.32055 0.0
C620 C 0.97665 0.62533 0.40564 0.0
C621 C 0.96025 0.60448 0.44194 0.0
C622 C 0.9485 0.5934 0.17928 0.0
C623 C 0.99702 0.65129 0.46106 0.0
C624 C 1.00036 0.68809 0.21617 0.0
C625 C 0.98491 0.69704 0.21578 0.0
C626 C 0.99691 0.66481 0.25237 0.0
C627 C 0.97795 0.65081 0.29075 0.0
C628 C 0.96356 0.66152 0.29649 0.0
C629 C 0.96707 0.68409 0.25827 0.0
C630 C 1.01301 0.65464 0.24668 0.0
C631 C 0.94353 0.64827 0.33929 0.0
H632 H 0.92163 0.55855 0.27162 0.0
H633 H 0.96269 0.60841 0.50826 0.0
H634 H 0.94496 0.60937 0.1603 0.0
H635 H 0.96369 0.59642 0.15634 0.0
H636 H 0.93367 0.57167 0.15026 0.0
H637 H 1.00509 0.64451 0.50656 0.0
H638 H 1.00991 0.66529 0.4271 0.0
H639 H 0.99123 0.66366 0.49579 0.0
H640 H 1.01439 0.69822 0.18429 0.0
H641 H 0.95481 0.69042 0.25783 0.0
H642 H 1.00348 0.63096 0.22932 0.0
H643 H 0.02423 0.66111 0.30746 0.0
H644 H 0.02398 0.66394 0.20139 0.0
H645 H 0.93542 0.66086 0.34445 0.0
H646 H 0.94899 0.64661 0.40208 0.0
H647 H 0.93044 0.62646 0.3043 0.0
C648 C 0.19293 0.31385 0.52358 0.0
C649 C 0.21377 0.32775 0.58018 0.0
C650 C 0.18389 0.32918 0.49201 0.0
C651 C 0.19587 0.35938 0.51701 0.0
C652 C 0.21664 0.37347 0.57555 0.0
C653 C 0.22528 0.3576 0.60626 0.0
C654 C 0.16172 0.31302 0.43015 0.0
C655 C 0.23007 0.40553 0.60446 0.0
C656 C 0.18603 0.40264 0.37287 0.0
C657 C 0.17128 0.40875 0.4081 0.0
C658 C 0.19401 0.38669 0.40736 0.0
C659 C 0.18721 0.37628 0.4794 0.0
C660 C 0.17217 0.3821 0.51501 0.0
C661 C 0.16441 0.39812 0.47911 0.0
C662 C 0.20982 0.38098 0.36641 0.0
C663 C 0.16441 0.37158 0.59167 0.0
H664 H 0.18377 0.29087 0.50251 0.0
H665 H 0.24138 0.36877 0.64966 0.0
H666 H 0.14945 0.31812 0.45053 0.0
H667 H 0.16477 0.31978 0.37051 0.0
H668 H 0.15378 0.28948 0.42042 0.0
H669 H 0.24527 0.41322 0.65301 0.0
H670 H 0.23582 0.41617 0.552 0.0
H671 H 0.21909 0.41228 0.62866 0.0
H672 H 0.19123 0.41011 0.31733 0.0
H673 H 0.15326 0.40278 0.50784 0.0
H674 H 0.20211 0.35757 0.34863 0.0
H675 H 0.22616 0.38991 0.41 0.0
H676 H 0.21356 0.39046 0.3108 0.0
H677 H 0.1558 0.34796 0.5812 0.0
H678 H 0.15249 0.37746 0.61147 0.0
H679 H 0.1794 0.38073 0.64232 0.0
C680 C 0.6247 0.62167 1.04391 0.0
C681 C 0.63169 0.60477 0.07776 0.0
C682 C 0.63746 0.65201 0.06817 0.0
C683 C 0.65752 0.66641 0.13062 0.0
C684 C 0.66446 0.64938 0.16586 0.0
C685 C 0.65182 0.61914 0.13831 0.0
C686 C 0.62955 0.66873 1.0259 0.0
C687 C 0.68516 0.66308 0.23403 0.0
C688 C 0.70379 0.74652 0.14742 0.0
C689 C 0.69857 0.76088 0.20741 0.0
C690 C 0.69045 0.71631 0.12109 0.0
C691 C 0.67154 0.69913 0.15709 0.0
C692 C 0.66625 0.71346 0.21833 0.0
C693 C 0.67946 0.74393 0.24151 0.0
C694 C 0.6966 0.70278 1.05383 0.0
C695 C 0.64685 0.69651 0.26086 0.0
H696 H 0.60929 0.61114 0.99713 0.0
H697 H 0.6574 0.60661 0.16616 0.0
H698 H 0.62547 0.68066 0.0711 0.0
H699 H 0.64343 0.68476 0.99886 0.0
H700 H 0.61423 0.65474 0.97651 0.0
H701 H 0.68769 0.64703 0.25863 0.0
H702 H 0.70065 0.67789 0.21149 0.0
H703 H 0.68345 0.67598 0.28488 0.0
H704 H 0.7183 0.75907 0.1197 0.0
H705 H 0.67521 0.75443 0.28825 0.0
H706 H 0.68155 0.68921 1.00321 0.0
H707 H 0.70161 0.68866 0.07764 0.0
H708 H 0.71086 0.71896 1.02846 0.0
H709 H 0.63054 0.68378 0.21554 0.0
H710 H 0.64525 0.71044 0.30892 0.0
H711 H 0.64947 0.68118 0.28964 0.0
C712 C 0.45725 0.9359 0.1044 0.0
C713 C 0.45528 0.95065 1.04447 0.0
C714 C 0.4404 0.92328 0.15181 0.0
C715 C 0.42109 0.92557 0.13977 0.0
C716 C 0.41909 0.94064 0.0799 0.0
C717 C 0.43611 0.95286 1.03289 0.0
C718 C 0.44316 0.90721 0.21428 0.0
C719 C 0.39894 0.94388 0.06551 0.0
C720 C 0.36693 0.87102 0.2069 0.0
C721 C 0.36842 0.88603 0.28291 0.0
C722 C 0.38393 0.88356 0.16 0.0
C723 C 0.40288 0.91196 0.18918 0.0
C724 C 0.40445 0.92727 0.2657 0.0
C725 C 0.38729 0.91412 0.31167 0.0
C726 C 0.38164 0.86632 0.07928 0.0
C727 C 0.4242 0.95765 0.29885 0.0
H728 H 0.47181 0.93372 0.1132 0.0
H729 H 0.43453 0.96448 0.98753 0.0
H730 H 0.44315 0.91671 0.27612 0.0
H731 H 0.42853 0.88463 0.19951 0.0
H732 H 0.4592 0.90747 0.2166 0.0
H733 H 0.40005 0.95663 1.01772 0.0
H734 H 0.3829 0.92249 1.04632 0.0
H735 H 0.3978 0.95447 0.12336 0.0
H736 H 0.35259 0.84922 0.18452 0.0
H737 H 0.38848 0.92604 0.36974 0.0
H738 H 0.39667 0.8644 0.08039 0.0
H739 H 0.38125 0.87744 1.02875 0.0
H740 H 0.36596 0.84448 0.0653 0.0
H741 H 0.4405 0.95849 0.30626 0.0
H742 H 0.42286 0.96673 0.35897 0.0
H743 H 0.42498 0.97142 0.25471 0.0
C744 C 0.52986 0.09396 0.87183 0.0
C745 C 0.55347 0.11204 0.87263 0.0
C746 C 0.51408 0.10251 0.85683 0.0
C747 C 0.52146 0.1304 0.84266 0.0
C748 C 0.5453 0.14905 0.844 0.0
C749 C 0.56082 0.13971 0.85806 0.0
C750 C 0.48919 0.08126 0.85537 0.0
C751 C 0.55448 0.17909 0.83058 0.0
C752 C 0.47522 0.14197 0.73364 0.0
C753 C 0.46881 0.15262 0.79914 0.0
C754 C 0.49235 0.13529 0.74652 0.0
C755 C 0.50415 0.13958 0.82712 0.0
C756 C 0.49805 0.15086 0.89328 0.0
C757 C 0.48064 0.15695 0.87879 0.0
C758 C 0.4975 0.12298 0.67325 0.0
C759 C 0.50986 0.15633 0.98037 0.0
H760 H 0.52334 0.07241 0.88187 0.0
H761 H 0.57872 0.15418 0.85774 0.0
H762 H 0.48331 0.08976 0.90338 0.0
H763 H 0.47877 0.07794 0.79538 0.0
H764 H 0.48585 0.0602 0.86567 0.0
H765 H 0.57328 0.19143 0.83553 0.0
H766 H 0.54635 0.17847 0.76896 0.0
H767 H 0.55012 0.19055 0.87628 0.0
H768 H 0.46653 0.13835 0.67164 0.0
H769 H 0.47634 0.16528 0.93068 0.0
H770 H 0.49339 0.10117 0.67777 0.0
H771 H 0.51596 0.13624 0.67236 0.0
H772 H 0.48764 0.1217 0.61442 0.0
H773 H 0.50587 0.13578 0.99729 0.0
H774 H 0.50461 0.16702 1.02488 0.0
H775 H 0.52863 0.1699 0.98596 0.0
C776 C 0.96906 0.28188 0.86583 0.0
C777 C 0.95931 0.25674 0.89848 0.0
C778 C 0.98455 0.30934 0.91552 0.0
C779 C 0.991 0.31247 1.00133 0.0
C780 C 0.98106 0.28727 1.0352 0.0
C781 C 0.96543 0.25992 0.98384 0.0
C782 C 0.99417 0.33515 0.87562 0.0
C783 C 0.98717 0.28915 0.12589 0.0
C784 C 0.0479 0.38253 0.10733 0.0
C785 C 0.04076 0.40017 0.14107 0.0
C786 C 0.03205 0.3539 0.06484 0.0
C787 C 1.00816 0.34209 1.05437 0.0
C788 C 1.00085 0.35953 0.09006 0.0
C789 C 0.01706 0.38802 0.13266 0.0
C790 C 0.04095 0.33645 1.02914 0.0
C791 C 0.97577 0.34839 0.08098 0.0
H792 H 0.96464 0.2802 0.80045 0.0
H793 H 0.95823 0.24098 1.01061 0.0
H794 H 0.99035 0.35067 0.90456 0.0
H795 H 1.013 0.34615 0.8851 0.0
H796 H 0.98715 0.32942 0.80868 0.0
H797 H 0.97774 0.26793 0.14357 0.0
H798 H 1.00575 0.29833 0.144 0.0
H799 H 0.98339 0.30373 0.16116 0.0
H800 H 0.066 0.39126 0.11279 0.0
H801 H 1.01103 0.40108 0.15768 0.0
H802 H 0.03628 0.33181 0.96121 0.0
H803 H 0.03296 0.3156 1.04921 0.0
H804 H 0.05978 0.34765 1.04741 0.0
H805 H 0.96813 0.34412 1.01528 0.0
H806 H 0.97266 0.36374 0.11601 0.0
H807 H 0.96675 0.32782 0.10229 0.0
C808 C 0.8458 0.65098 0.88438 0.0
C809 C 0.85098 0.63472 0.83121 0.0
C810 C 0.82421 0.63879 0.90661 0.0
C811 C 0.80713 0.60953 0.87505 0.0
C812 C 0.81224 0.59302 0.82132 0.0
C813 C 0.83397 0.60573 0.80021 0.0
C814 C 0.81967 0.65729 0.96411 0.0
C815 C 0.79469 0.56181 0.786 0.0
C816 C 0.7584 0.56992 0.98927 0.0
C817 C 0.74015 0.56946 0.94272 0.0
C818 C 0.78015 0.58297 0.96838 0.0
C819 C 0.78407 0.59608 0.89899 0.0
C820 C 0.76583 0.596 0.85216 0.0
C821 C 0.74422 0.5828 0.87453 0.0
C822 C 0.79898 0.58261 1.02066 0.0
C823 C 0.76909 0.6096 0.77763 0.0
H824 H 0.85865 0.67337 0.90879 0.0
H825 H 0.83759 0.59285 0.75894 0.0
H826 H 0.8049 0.65764 0.9341 0.0
H827 H 0.81517 0.64816 1.01979 0.0
H828 H 0.83462 0.67965 0.98318 0.0
H829 H 0.80115 0.55192 0.74453 0.0
H830 H 0.78951 0.54978 0.83631 0.0
H831 H 0.77916 0.55943 0.75121 0.0
H832 H 0.75575 0.56022 1.04292 0.0
H833 H 0.73034 0.58243 0.83737 0.0
H834 H 0.81369 0.60483 1.04497 0.0
H835 H 0.80513 0.57138 0.98283 0.0
H836 H 0.79334 0.57184 0.07308 0.0
H837 H 0.78322 0.63244 0.79487 0.0
H838 H 0.75344 0.60829 0.7485 0.0
H839 H 0.77394 0.59887 0.73168 0.0
C840 C 0.95515 0.63677 0.92872 0.0
C841 C 0.94274 0.62719 0.8481 0.0
C842 C 0.96673 0.62431 0.95945 0.0
C843 C 0.96526 0.60093 0.90951 0.0
C844 C 0.95309 0.59148 0.82745 0.0
C845 C 0.94216 0.60485 0.79767 0.0
C846 C 0.98099 0.6372 1.04473 0.0
C847 C 0.95175 0.5674 0.77082 0.0
C848 C 1.00817 0.58141 0.9831 0.0
C849 C 0.99507 0.55795 1.01937 0.0
C850 C 0.99863 0.59524 0.94562 0.0
C851 C 0.97541 0.58549 0.94435 0.0
C852 C 0.96209 0.5618 0.9806 0.0
C853 C 0.97202 0.54834 1.01736 0.0
C854 C 1.01348 0.62061 0.90863 0.0
C855 C 0.93728 0.55064 0.98087 0.0
H856 H 0.95621 0.65443 0.96772 0.0
H857 H 0.93303 0.5976 0.73483 0.0
H858 H 0.98589 0.62336 0.0709 0.0
H859 H 0.99695 0.6575 1.04312 0.0
H860 H 0.97171 0.64239 0.08583 0.0
H861 H 0.94293 0.56385 0.70721 0.0
H862 H 0.96916 0.57208 0.76934 0.0
H863 H 0.94244 0.54727 0.7941 0.0
H864 H 0.0259 0.58889 0.98344 0.0
H865 H 0.96177 0.53056 1.04613 0.0
H866 H 1.01588 0.64022 0.94483 0.0
H867 H 1.00508 0.61777 0.84504 0.0
H868 H 0.03053 0.62393 0.90761 0.0
H869 H 0.9349 0.56849 0.99942 0.0
H870 H 0.93035 0.53529 1.02267 0.0
H871 H 0.9271 0.53953 0.91799 0.0
C872 C 0.5256 0.4045 0.97951 0.0
C873 C 0.54871 0.4181 0.97204 0.0
C874 C 0.51001 0.37444 0.95513 0.0
C875 C 0.51712 0.35665 0.92033 0.0
C876 C 0.54047 0.37011 0.91334 0.0
C877 C 0.55589 0.40034 0.93961 0.0
C878 C 0.48561 0.36175 0.96518 0.0
C879 C 0.5491 0.35257 0.87617 0.0
C880 C 0.4797 0.27509 0.91824 0.0
C881 C 0.4663 0.26336 0.83817 0.0
C882 C 0.49631 0.30489 0.94492 0.0
C883 C 0.50002 0.32426 0.89104 0.0
C884 C 0.48653 0.31258 0.81018 0.0
C885 C 0.47007 0.28265 0.78504 0.0
C886 C 0.50992 0.31572 1.03152 0.0
C887 C 0.48951 0.33175 0.74946 0.0
H888 H 0.51951 0.41751 1.00441 0.0
H889 H 0.57345 0.41015 0.93233 0.0
H890 H 0.47418 0.35282 0.90391 0.0
H891 H 0.48036 0.34384 0.99848 0.0
H892 H 0.48301 0.3778 0.99899 0.0
H893 H 0.56769 0.36569 0.87684 0.0
H894 H 0.54564 0.33515 0.90998 0.0
H895 H 0.53986 0.34231 0.81177 0.0
H896 H 0.47727 0.26086 0.96059 0.0
H897 H 0.45989 0.27439 0.72353 0.0
H898 H 0.50712 0.33165 0.06467 0.0
H899 H 0.5284 0.3268 1.03072 0.0
H900 H 0.50532 0.29823 0.06615 0.0
H901 H 0.48928 0.35056 0.77738 0.0
H902 H 0.47602 0.32037 0.69303 0.0
H903 H 0.50634 0.33989 0.73182 0.0
C904 C 0.83854 0.14485 0.81028 0.0
C905 C 0.85564 0.17008 0.78931 0.0
C906 C 0.81771 0.14117 0.82619 0.0
C907 C 0.8132 0.16311 0.82093 0.0
C908 C 0.83047 0.18877 0.80052 0.0
C909 C 0.85119 0.19186 0.78467 0.0
C910 C 0.80046 0.11366 0.84928 0.0
C911 C 0.82714 0.21322 0.79606 0.0
C912 C 0.75028 0.14323 0.78373 0.0
C913 C 0.74718 0.15093 0.86235 0.0
C914 C 0.77135 0.14708 0.76984 0.0
C915 C 0.79042 0.15898 0.83567 0.0
C916 C 0.78737 0.16651 0.91532 0.0
C917 C 0.76617 0.16261 0.92734 0.0
C918 C 0.77319 0.13834 0.68386 0.0
C919 C 0.80658 0.17939 0.98889 0.0
H920 H 0.8413 0.12757 0.81342 0.0
H921 H 0.86402 0.21158 0.76909 0.0
H922 H 0.79735 0.11838 0.911 0.0
H923 H 0.78396 0.10317 0.80533 0.0
H924 H 0.80616 0.09844 0.85012 0.0
H925 H 0.84208 0.23194 0.78073 0.0
H926 H 0.81179 0.2061 0.74906 0.0
H927 H 0.82417 0.22005 0.85582 0.0
H928 H 0.73627 0.13457 0.73197 0.0
H929 H 0.7645 0.16848 0.98886 0.0
H930 H 0.77794 0.12218 0.68245 0.0
H931 H 0.78691 0.15714 0.66415 0.0
H932 H 0.75701 0.12923 0.63902 0.0
H933 H 0.81819 0.17165 0.98305 0.0
H934 H 0.79999 0.17461 1.0463 0.0
H935 H 0.81662 0.20298 0.99498 0.0
C936 C 0.63787 0.02782 0.95789 0.0
C937 C 0.61531 0.01535 0.91545 0.0
C938 C 0.64584 1.01113 0.98676 0.0
C939 C 0.63103 0.98095 0.97341 0.0
C940 C 0.60841 0.9681 0.92867 0.0
C941 C 0.60085 0.98535 0.90033 0.0
C942 C 0.67007 0.02599 1.03368 0.0
C943 C 0.59196 0.93609 0.91256 0.0
C944 C 0.65822 0.93681 1.0003 0.0
C945 C 0.65611 0.93188 0.0805 0.0
C946 C 0.64987 0.95221 0.96433 0.0
C947 C 0.63903 0.96317 1.0091 0.0
C948 C 0.6366 0.95799 0.0896 0.0
C949 C 0.64507 0.94251 0.12401 0.0
C950 C 0.65297 0.95715 0.87859 0.0
C951 C 0.62516 0.96906 0.13998 0.0
H952 H 0.64933 0.05089 0.97021 0.0
H953 H 0.58338 0.97533 0.8682 0.0
H954 H 0.67001 0.02237 0.09753 0.0
H955 H 0.67912 0.01688 1.00537 0.0
H956 H 0.67982 0.04942 1.03566 0.0
H957 H 0.57543 0.92915 0.87311 0.0
H958 H 0.59952 0.92514 0.88252 0.0
H959 H 0.58864 0.92893 0.97157 0.0
H960 H 0.66687 0.92911 0.96588 0.0
H961 H 0.64283 0.93852 0.18521 0.0
H962 H 0.66397 0.98042 0.87988 0.0
H963 H 0.63625 0.94927 0.83898 0.0
H964 H 0.66084 0.94629 0.85034 0.0
H965 H 0.63478 0.99277 0.14982 0.0
H966 H 0.62406 0.96272 0.20073 0.0
H967 H 0.60767 0.96086 0.10652 0.0
C968 C 0.18312 0.72509 0.33913 0.0
C969 C 0.2004 0.73988 0.41024 0.0
C970 C 0.17123 0.69486 0.31328 0.0
C971 C 0.17587 0.67814 0.3606 0.0
C972 C 0.19313 0.69295 0.43307 0.0
C973 C 0.20535 0.72335 0.45592 0.0
C974 C 0.15366 0.68079 0.23448 0.0
C975 C 0.1984 0.67657 0.48786 0.0
C976 C 0.12721 0.59856 0.33392 0.0
C977 C 0.13462 0.58349 0.28694 0.0
C978 C 0.1406 0.62877 0.35983 0.0
C979 C 0.16197 0.64532 0.33632 0.0
C980 C 0.16956 0.63028 0.2884 0.0
C981 C 0.15612 0.59976 0.26576 0.0
C982 C 0.13176 0.64301 0.41291 0.0
C983 C 0.19171 0.64652 0.25903 0.0
H984 H 0.17914 0.7373 0.30229 0.0
H985 H 0.21852 0.73417 0.51101 0.0
H986 H 0.15731 0.66714 0.19383 0.0
H987 H 0.13648 0.66665 0.24777 0.0
H988 H 0.15323 0.69666 0.20097 0.0
H989 H 0.21194 0.69087 0.54258 0.0
H990 H 0.18275 0.66119 0.50873 0.0
H991 H 0.20396 0.66392 0.45321 0.0
H992 H 0.11081 0.58653 0.35168 0.0
H993 H 0.16213 0.58872 0.22911 0.0
H994 H 0.12838 0.65691 0.37942 0.0
H995 H 0.1448 0.65691 0.46911 0.0
H996 H 0.11577 0.62725 0.43132 0.0
H997 H 0.19119 0.66154 0.22193 0.0
H998 H 0.19522 0.63209 0.22132 0.0
H999 H 0.20607 0.65955 0.31217 0.0
C1000 C 0.45124 0.42681 0.21682 0.0
C1001 C 0.45906 0.45454 0.20295 0.0
C1002 C 0.4349 0.41417 0.26604 0.0
C1003 C 0.42615 0.42962 0.30274 0.0
C1004 C 0.43388 0.45753 0.28869 0.0
C1005 C 0.4502 0.46962 0.23922 0.0
C1006 C 0.42719 0.38438 0.27932 0.0
C1007 C 0.42503 0.47477 0.32655 0.0
C1008 C 0.36947 0.3902 0.37401 0.0
C1009 C 0.37659 0.3951 0.45924 0.0
C1010 C 0.38537 0.40086 0.3223 0.0
C1011 C 0.40904 0.41681 0.35635 0.0
C1012 C 0.41635 0.42137 0.4421 0.0
C1013 C 0.40008 0.41054 0.49241 0.0
C1014 C 0.37683 0.39548 0.23127 0.0
C1015 C 0.44139 0.43802 0.4809 0.0
H1016 H 0.45775 0.4148 0.18851 0.0
H1017 H 0.45635 0.4912 0.2302 0.0
H1018 H 0.43326 0.38535 0.34441 0.0
H1019 H 0.40829 0.37059 0.26648 0.0
H1020 H 0.43381 0.37415 0.2399 0.0
H1021 H 0.43244 0.49596 0.30855 0.0
H1022 H 0.40618 0.46283 0.30772 0.0
H1023 H 0.4291 0.47821 0.3944 0.0
H1024 H 0.3514 0.3786 0.34775 0.0
H1025 H 0.40577 0.41407 0.55795 0.0
H1026 H 0.38412 0.38503 0.19686 0.0
H1027 H 0.38256 0.41615 0.21165 0.0
H1028 H 0.35792 0.38173 0.21396 0.0
H1029 H 0.44986 0.42805 0.45257 0.0
H1030 H 0.4443 0.43906 0.54815 0.0
H1031 H 0.44976 0.46017 0.46958 0.0
C1032 C 0.89715 0.74514 0.67453 0.0
C1033 C 0.88852 0.71616 0.64384 0.0
C1034 C 0.88732 0.75921 0.64053 0.0
C1035 C 0.86837 0.74403 0.57406 0.0
C1036 C 0.85965 0.71485 0.54263 0.0
C1037 C 0.86978 0.70133 0.57774 0.0
C1038 C 0.89715 0.79032 0.67594 0.0
C1039 C 0.83955 0.69782 0.47175 0.0
C1040 C 0.82887 0.77098 0.52738 0.0
C1041 C 0.83635 0.78415 0.46063 0.0
C1042 C 0.83933 0.75826 0.56563 0.0
C1043 C 0.85774 0.75861 0.5366 0.0
C1044 C 0.86553 0.77212 0.4699 0.0
C1045 C 0.85482 0.78473 0.43301 0.0
C1046 C 0.83045 0.74407 0.63646 0.0
C1047 C 0.88509 0.77305 0.43692 0.0
H1048 H 0.91155 0.75687 0.72559 0.0
H1049 H 0.86287 0.67897 0.55324 0.0
H1050 H 0.90281 0.8032 0.62764 0.0
H1051 H 0.88384 0.79291 0.69819 0.0
H1052 H 0.91188 0.79914 0.7276 0.0
H1053 H 0.83476 0.67531 0.45446 0.0
H1054 H 0.82457 0.69777 0.48786 0.0
H1055 H 0.84359 0.70796 0.41744 0.0
H1056 H 0.81452 0.7701 0.54888 0.0
H1057 H 0.86109 0.7953 0.38265 0.0
H1058 H 0.84451 0.7533 0.69075 0.0
H1059 H 0.8238 0.7209 0.62005 0.0
H1060 H 0.8166 0.74654 0.6538 0.0
H1061 H 0.90046 0.78344 0.48654 0.0
H1062 H 0.88942 0.78486 0.38577 0.0
H1063 H 0.88067 0.75096 0.41457 0.0
C1064 C 0.35687 0.06791 0.58461 0.0
C1065 C 0.36479 0.08032 0.66902 0.0
C1066 C 0.34025 0.03815 0.5556 0.0
C1067 C 0.33109 0.01947 0.61153 0.0
C1068 C 0.33903 0.03186 0.69677 0.0
C1069 C 0.35543 0.06175 0.72409 0.0
C1070 C 0.33249 0.02665 0.46439 0.0
C1071 C 0.33037 0.01338 0.75974 0.0
C1072 C 0.27436 0.94445 0.54078 0.0
C1073 C 0.28194 0.92565 0.5263 0.0
C1074 C 0.2899 0.97466 0.56721 0.0
C1075 C 0.31396 0.98705 0.58124 0.0
C1076 C 0.32165 0.96814 0.56674 0.0
C1077 C 0.30581 0.93819 0.53946 0.0
C1078 C 0.2805 0.99341 0.58032 0.0
C1079 C 0.34684 0.97954 0.58111 0.0
H1080 H 0.36359 0.08155 0.54054 0.0
H1081 H 0.36115 0.07052 0.78936 0.0
H1082 H 0.33698 1.0107 0.44676 0.0
H1083 H 0.31366 0.01548 0.44734 0.0
H1084 H 0.34033 0.04379 0.42842 0.0
H1085 H 0.33787 0.02594 0.82353 0.0
H1086 H 0.31153 1.00224 0.75042 0.0
H1087 H 0.33449 0.99666 0.75211 0.0
H1088 H 0.25617 0.93557 0.53144 0.0
H1089 H 0.3123 0.92444 0.52953 0.0
H1090 H 0.28731 1.01003 0.54228 0.0
H1091 H 0.28612 1.00469 0.64533 0.0
H1092 H 0.26156 0.98102 0.56463 0.0
H1093 H 0.35525 0.99542 0.54206 0.0
H1094 H 0.35029 0.96235 0.56758 0.0
H1095 H 0.35483 0.99076 0.64589 0.0
C1096 C 0.98663 0.18902 0.61356 0.0
C1097 C 0.97769 0.17914 0.683 0.0
C1098 C 1.00766 0.19283 0.59948 0.0
C1099 C 0.0205 0.18654 0.65555 0.0
C1100 C 1.01146 0.17633 0.72533 0.0
C1101 C 0.99048 0.1729 0.73823 0.0
C1102 C 0.01627 0.20393 0.52447 0.0
C1103 C 0.02406 0.16903 0.78704 0.0
C1104 C 0.06548 0.17251 0.58439 0.0
C1105 C 0.0865 0.19852 0.61724 0.0
C1106 C 0.04421 0.16841 0.59603 0.0
C1107 C 0.04329 0.19076 0.64161 0.0
C1108 C 0.06434 0.21713 0.67433 0.0
C1109 C 0.08539 0.22062 0.66211 0.0
C1110 C 0.02257 0.13988 0.55947 0.0
C1111 C 0.06468 0.24179 0.72327 0.0
H1112 H 0.97729 0.19414 0.57012 0.0
H1113 H 0.9841 0.16529 0.79223 0.0
H1114 H 0.03319 0.22428 0.54318 0.0
H1115 H 0.0186 0.18841 0.48631 0.0
H1116 H 1.00446 0.20775 0.48631 0.0
H1117 H 1.0148 0.16088 0.83733 0.0
H1118 H 0.02664 0.15257 0.75613 0.0
H1119 H 0.0412 0.18827 0.81419 0.0
H1120 H 0.06553 0.15516 0.54846 0.0
H1121 H 0.10111 0.24074 0.68957 0.0
H1122 H 1.01105 0.14285 0.51656 0.0
H1123 H 1.0134 0.13036 0.60866 0.0
H1124 H 0.0259 0.12452 0.52585 0.0
H1125 H 0.05387 0.2473 0.68625 0.0
H1126 H 0.08218 0.26117 0.74299 0.0
H1127 H 0.05738 0.23551 0.77858 0.0
C1128 C 0.3516 0.18846 0.62586 0.0
C1129 C 0.36187 0.1905 0.706 0.0
C1130 C 0.33436 0.19484 0.61056 0.0
C1131 C 0.32672 0.20379 0.67645 0.0
C1132 C 0.33684 0.20555 0.75737 0.0
C1133 C 0.35396 0.19893 0.77092 0.0
C1134 C 0.32452 0.19241 0.52309 0.0
C1135 C 0.32992 0.21513 0.83054 0.0
C1136 C 0.30325 0.25254 0.64646 0.0
C1137 C 0.27928 0.23449 0.63862 0.0
C1138 C 0.31835 0.24284 0.65783 0.0
C1139 C 0.30994 0.21381 0.66148 0.0
C1140 C 0.28574 0.19509 0.65216 0.0
C1141 C 0.27084 0.2055 0.64108 0.0
C1142 C 0.34364 0.26414 0.66719 0.0
C1143 C 0.27555 0.16393 0.6548 0.0
H1144 H 0.35715 0.18198 0.57438 0.0
H1145 H 0.36137 0.20073 0.83334 0.0
H1146 H 0.30561 0.17881 0.51167 0.0
H1147 H 0.32922 0.21389 0.51216 0.0
H1148 H 0.33072 0.18319 0.47823 0.0
H1149 H 0.33817 0.21392 0.88927 0.0
H1150 H 0.33465 0.23754 0.83287 0.0
H1151 H 0.31113 0.20172 0.82472 0.0
H1152 H 0.31062 0.27495 0.64444 0.0
H1153 H 0.25264 0.19096 0.63556 0.0
H1154 H 0.35042 0.25696 0.61957 0.0
H1155 H 0.35274 0.26545 0.72775 0.0
H1156 H 0.34769 0.28591 0.66213 0.0
H1157 H 0.28098 0.15419 0.60829 0.0
H1158 H 0.25661 0.15168 0.64336 0.0
H1159 H 0.28194 0.16188 0.7157 0.0
C1160 C 0.81551 0.95768 0.35422 0.0
C1161 C 0.79206 0.94443 0.35493 0.0
C1162 C 0.83167 0.98653 0.39412 0.0
C1163 C 0.82461 1.00289 0.43837 0.0
C1164 C 0.80094 0.98969 0.43885 0.0
C1165 C 0.78509 0.96102 0.39682 0.0
C1166 C 0.85645 0.99945 0.38958 0.0
C1167 C 0.79236 1.00561 0.48603 0.0
C1168 C 0.86895 0.06659 0.6124 0.0
C1169 C 0.87418 0.09071 0.57797 0.0
C1170 C 0.85298 0.03827 0.56825 0.0
C1171 C 0.84196 0.03331 0.4861 0.0
C1172 C 0.84747 0.05757 0.45043 0.0
C1173 C 0.86316 0.08572 0.49667 0.0
C1174 C 0.84758 0.01355 0.61041 0.0
C1175 C 0.83675 0.05379 0.36297 0.0
H1176 H 0.82134 0.94541 0.32248 0.0
H1177 H 0.76719 0.95126 0.39921 0.0
H1178 H 0.86312 0.0198 0.36713 0.0
H1179 H 0.86665 1.0046 0.45171 0.0
H1180 H 0.85912 0.98484 0.34848 0.0
H1181 H 0.77352 0.99272 0.47992 0.0
H1182 H 0.80036 0.0116 0.55201 0.0
H1183 H 0.79731 0.02575 0.46424 0.0
H1184 H 0.877 0.06981 0.67514 0.0
H1185 H 0.86688 0.10391 0.46874 0.0
H1186 H 0.85165 0.99913 0.57612 0.0
H1187 H 0.82906 1.00079 0.6109 0.0
H1188 H 0.85723 0.02075 0.67461 0.0
H1189 H 0.83996 0.03988 0.32143 0.0
H1190 H 0.84343 0.07451 0.34254 0.0
H1191 H 0.81799 0.04297 0.35657 0.0
C1192 C 0.97831 0.70756 0.58303 0.0
C1193 C 0.97699 0.70819 0.66637 0.0
C1194 C 0.99964 0.72095 0.558 0.0
C1195 C 0.02029 0.73495 0.6173 0.0
C1196 C 0.019 0.73555 0.7013 0.0
C1197 C 0.99757 0.72232 0.7246 0.0
C1198 C 1.00008 0.72015 0.4679 0.0
C1199 C 0.04034 0.75014 0.76701 0.0
C1200 C 0.07602 0.74687 0.5605 0.0
C1201 C 0.08697 0.77494 0.54612 0.0
C1202 C 0.05449 0.73362 0.58331 0.0
C1203 C 0.04321 0.74858 0.59189 0.0
C1204 C 0.05442 0.77717 0.57927 0.0
C1205 C 0.07592 0.78982 0.55611 0.0
C1206 C 0.04467 0.70389 0.6007 0.0
C1207 C 0.04416 0.79493 0.59372 0.0
H1208 H 0.96267 0.69689 0.53728 0.0
H1209 H 0.99702 0.72299 0.78923 0.0
H1210 H 1.00927 0.74219 0.45588 0.0
H1211 H 1.00946 0.71022 0.44837 0.0
H1212 H 0.98265 0.70821 0.42981 0.0
H1213 H 0.03665 0.75108 0.82977 0.0
H1214 H 0.04907 0.73835 0.7615 0.0
H1215 H 0.05235 0.77226 0.75898 0.0
H1216 H 0.08419 0.73496 0.55334 0.0
H1217 H 0.08435 0.81177 0.54768 0.0
H1218 H 0.0267 0.69342 0.60822 0.0
H1219 H 0.05506 0.70511 0.65794 0.0
H1220 H 0.04593 0.69021 0.55075 0.0
H1221 H 0.02682 0.78411 0.55547 0.0
H1222 H 0.05472 0.81661 0.57992 0.0
H1223 H 0.04238 0.79725 0.65876 0.0
loop_
_geom_bond_atom_site_label_1
_geom_bond_atom_site_label_2
_geom_bond_distance
_geom_bond_site_symmetry_2
_ccdc_geom_bond_type
Tb0 C10 2.825 . S
Tb0 O11 2.347 . S
Tb0 O14 2.366 . S
Tb0 O19 2.418 1_554 S
Tb0 O20 2.384 . S
Tb0 O23 2.479 . S
Tb0 O24 2.471 . S
Eu1 O12 2.418 . S
Eu1 O13 2.384 . S
Eu1 O16 2.479 1_455 S
Eu1 O17 2.471 1_554 S
Eu1 O18 2.347 1_554 S
Eu1 O21 2.366 . S
Eu1 C31 2.825 1_455 S
C2 O18 1.259 . S
C2 O19 1.265 . S
C3 O20 1.255 . S
C3 O21 1.265 . S
C4 C6 1.380 . S
C4 C7 1.374 . S
C4 C10 1.507 . S
C5 C6 1.384 . S
C5 C9 1.387 . S
C5 H32 0.930 . S
C6 C4 1.380 . S
C6 C5 1.384 . S
C6 H33 0.931 . S
C7 C4 1.374 . S
C7 C8 1.390 . S
C7 H34 0.930 . S
C8 C7 1.390 . S
C8 C9 1.391 . S
C8 H35 0.930 . S
C9 C5 1.387 . S
C9 C8 1.391 . S
C10 Tb0 2.825 . S
C10 C4 1.507 . S
C10 O23 1.238 . S
C10 O24 1.247 . S
O11 Tb0 2.347 . S
O11 C15 1.259 . S
O12 Eu1 2.418 . S
O12 C15 1.265 . S
O13 Eu1 2.384 . S
O13 C22 1.255 . S
O14 Tb0 2.366 . S
O14 C22 1.265 . S
C15 O11 1.259 . S
C15 O12 1.265 . S
O16 Eu1 2.479 1_655 S
O16 C31 1.238 . S
O17 Eu1 2.471 1_556 S
O17 C31 1.247 1_456 S
O18 Eu1 2.347 1_556 S
O18 C2 1.259 . S
O19 Tb0 2.418 1_556 S
O19 C2 1.265 . S
O20 Tb0 2.384 . S
O20 C3 1.255 . S
O21 Eu1 2.366 . S
O21 C3 1.265 . S
C22 O13 1.255 . S
C22 O14 1.265 . S
O23 Tb0 2.479 . S
O23 C10 1.238 . S
O24 Tb0 2.471 . S
O24 C10 1.247 . S
C25 C28 1.380 . S
C25 C29 1.374 1_554 S
C25 C31 1.507 . S
C26 C27 1.387 1_556 S
C26 C30 1.391 . S
C27 C26 1.387 1_554 S
C27 C28 1.384 . S
C27 H36 0.930 . S
C28 C25 1.380 . S
C28 C27 1.384 . S
C28 H37 0.931 . S
C29 C25 1.374 1_556 S
C29 C30 1.390 . S
C29 H38 0.930 1_655 S
C30 C26 1.391 . S
C30 C29 1.390 . S
C30 H39 0.930 . S
C31 Eu1 2.825 1_655 S
C31 O16 1.238 . S
C31 O17 1.247 1_654 S
C31 C25 1.507 . S
H32 C5 0.930 . S
H33 C6 0.931 . S
H34 C7 0.930 . S
H35 C8 0.930 . S
H36 C27 0.930 . S
H37 C28 0.931 . S
H38 C29 0.930 1_455 S
H39 C30 0.930 . S
Tb40 C50 2.825 . S
Tb40 O51 2.347 . S
Tb40 O54 2.366 . S
Tb40 O59 2.418 . S
Tb40 O60 2.384 . S
Tb40 O63 2.479 . S
Tb40 O64 2.471 . S
Eu41 O52 2.418 1_554 S
Eu41 O53 2.384 . S
Eu41 O56 2.479 . S
Eu41 O57 2.471 . S
Eu41 O58 2.347 . S
Eu41 O61 2.366 . S
Eu41 C71 2.825 . S
C42 O58 1.259 . S
C42 O59 1.265 . S
C43 O60 1.255 . S
C43 O61 1.265 . S
C44 C46 1.380 . S
C44 C47 1.374 . S
C44 C50 1.507 . S
C45 C46 1.384 . S
C45 C49 1.387 . S
C45 H72 0.930 . S
C46 C44 1.380 . S
C46 C45 1.384 . S
C46 H73 0.931 . S
C47 C44 1.374 . S
C47 C48 1.390 . S
C47 H74 0.930 . S
C48 C47 1.390 . S
C48 C49 1.391 . S
C48 H75 0.930 . S
C49 C45 1.387 . S
C49 C48 1.391 . S
C50 Tb40 2.825 . S
C50 C44 1.507 . S
C50 O63 1.238 . S
C50 O64 1.247 . S
O51 Tb40 2.347 . S
O51 C55 1.259 1_554 S
O52 Eu41 2.418 1_556 S
O52 C55 1.265 . S
O53 Eu41 2.384 . S
O53 C62 1.255 . S
O54 Tb40 2.366 . S
O54 C62 1.265 . S
C55 O51 1.259 1_556 S
C55 O52 1.265 . S
O56 Eu41 2.479 . S
O56 C71 1.238 . S
O57 Eu41 2.471 . S
O57 C71 1.247 . S
O58 Eu41 2.347 . S
O58 C42 1.259 . S
O59 Tb40 2.418 . S
O59 C42 1.265 . S
O60 Tb40 2.384 . S
O60 C43 1.255 . S
O61 Eu41 2.366 . S
O61 C43 1.265 . S
C62 O53 1.255 . S
C62 O54 1.265 . S
O63 Tb40 2.479 . S
O63 C50 1.238 . S
O64 Tb40 2.471 . S
O64 C50 1.247 . S
C65 C68 1.380 . S
C65 C69 1.374 . S
C65 C71 1.507 . S
C66 C67 1.387 . S
C66 C70 1.391 . S
C67 C66 1.387 . S
C67 C68 1.384 . S
C67 H76 0.930 . S
C68 C65 1.380 . S
C68 C67 1.384 . S
C68 H77 0.931 . S
C69 C65 1.374 . S
C69 C70 1.390 . S
C69 H78 0.930 . S
C70 C66 1.391 . S
C70 C69 1.390 . S
C70 H79 0.930 . S
C71 Eu41 2.825 . S
C71 O56 1.238 . S
C71 O57 1.247 . S
C71 C65 1.507 . S
H72 C45 0.930 . S
H73 C46 0.931 . S
H74 C47 0.930 . S
H75 C48 0.930 . S
H76 C67 0.930 . S
H77 C68 0.931 . S
H78 C69 0.930 . S
H79 C70 0.930 . S
Tb80 C90 2.825 . S
Tb80 O91 2.347 . S
Tb80 O94 2.366 . S
Tb80 O99 2.418 1_554 S
Tb80 O100 2.384 . S
Tb80 O103 2.479 . S
Tb80 O104 2.471 . S
Eu81 O92 2.418 . S
Eu81 O93 2.384 . S
Eu81 O96 2.479 . S
Eu81 O97 2.471 . S
Eu81 O98 2.347 . S
Eu81 O101 2.366 . S
Eu81 C111 2.825 . S
C82 O98 1.259 1_556 S
C82 O99 1.265 . S
C83 O100 1.255 . S
C83 O101 1.265 . S
C84 C86 1.380 . S
C84 C87 1.374 . S
C84 C90 1.507 . S
C85 C86 1.384 . S
C85 C89 1.387 . S
C85 H112 0.930 1_545 S
C86 C84 1.380 . S
C86 C85 1.384 . S
C86 H113 0.931 . S
C87 C84 1.374 . S
C87 C88 1.390 . S
C87 H114 0.930 . S
C88 C87 1.390 . S
C88 C89 1.391 . S
C88 H115 0.930 . S
C89 C85 1.387 . S
C89 C88 1.391 . S
C90 Tb80 2.825 . S
C90 C84 1.507 . S
C90 O103 1.238 . S
C90 O104 1.247 . S
O91 Tb80 2.347 . S
O91 C95 1.259 . S
O92 Eu81 2.418 . S
O92 C95 1.265 . S
O93 Eu81 2.384 . S
O93 C102 1.255 . S
O94 Tb80 2.366 . S
O94 C102 1.265 . S
C95 O91 1.259 . S
C95 O92 1.265 . S
O96 Eu81 2.479 . S
O96 C111 1.238 . S
O97 Eu81 2.471 . S
O97 C111 1.247 . S
O98 Eu81 2.347 . S
O98 C82 1.259 1_554 S
O99 Tb80 2.418 1_556 S
O99 C82 1.265 . S
O100 Tb80 2.384 . S
O100 C83 1.255 . S
O101 Eu81 2.366 . S
O101 C83 1.265 . S
C102 O93 1.255 . S
C102 O94 1.265 . S
O103 Tb80 2.479 . S
O103 C90 1.238 . S
O104 Tb80 2.471 . S
O104 C90 1.247 . S
C105 C108 1.380 . S
C105 C109 1.374 . S
C105 C111 1.507 . S
C106 C107 1.387 . S
C106 C110 1.391 . S
C107 C106 1.387 . S
C107 C108 1.384 . S
C107 H116 0.930 . S
C108 C105 1.380 . S
C108 C107 1.384 . S
C108 H117 0.931 . S
C109 C105 1.374 . S
C109 C110 1.390 . S
C109 H118 0.930 . S
C110 C106 1.391 . S
C110 C109 1.390 . S
C110 H119 0.930 . S
C111 Eu81 2.825 . S
C111 O96 1.238 . S
C111 O97 1.247 . S
C111 C105 1.507 . S
H112 C85 0.930 1_565 S
H113 C86 0.931 . S
H114 C87 0.930 . S
H115 C88 0.930 . S
H116 C107 0.930 . S
H117 C108 0.931 . S
H118 C109 0.930 . S
H119 C110 0.930 . S
Tb120 C130 2.825 . S
Tb120 O131 2.347 . S
Tb120 O134 2.366 . S
Tb120 O139 2.418 . S
Tb120 O140 2.384 . S
Tb120 O143 2.479 . S
Tb120 O144 2.471 . S
Eu121 O132 2.418 . S
Eu121 O133 2.384 . S
Eu121 O136 2.479 . S
Eu121 O137 2.471 . S
Eu121 O138 2.347 . S
Eu121 O141 2.366 . S
Eu121 C151 2.825 . S
C122 O138 1.259 . S
C122 O139 1.265 . S
C123 O140 1.255 . S
C123 O141 1.265 . S
C124 C126 1.380 . S
C124 C127 1.374 . S
C124 C130 1.507 . S
C125 C126 1.384 . S
C125 C129 1.387 . S
C125 H152 0.930 . S
C126 C124 1.380 . S
C126 C125 1.384 . S
C126 H153 0.931 . S
C127 C124 1.374 . S
C127 C128 1.390 . S
C127 H154 0.930 . S
C128 C127 1.390 . S
C128 C129 1.391 . S
C128 H155 0.930 . S
C129 C125 1.387 . S
C129 C128 1.391 . S
C130 Tb120 2.825 . S
C130 C124 1.507 . S
C130 O143 1.238 . S
C130 O144 1.247 . S
O131 Tb120 2.347 . S
O131 C135 1.259 . S
O132 Eu121 2.418 . S
O132 C135 1.265 . S
O133 Eu121 2.384 . S
O133 C142 1.255 . S
O134 Tb120 2.366 . S
O134 C142 1.265 . S
C135 O131 1.259 . S
C135 O132 1.265 . S
O136 Eu121 2.479 . S
O136 C151 1.238 . S
O137 Eu121 2.471 . S
O137 C151 1.247 . S
O138 Eu121 2.347 . S
O138 C122 1.259 . S
O139 Tb120 2.418 . S
O139 C122 1.265 . S
O140 Tb120 2.384 . S
O140 C123 1.255 . S
O141 Eu121 2.366 . S
O141 C123 1.265 . S
C142 O133 1.255 . S
C142 O134 1.265 . S
O143 Tb120 2.479 . S
O143 C130 1.238 . S
O144 Tb120 2.471 . S
O144 C130 1.247 . S
C145 C148 1.380 . S
C145 C149 1.374 . S
C145 C151 1.507 . S
C146 C147 1.387 . S
C146 C150 1.391 . S
C147 C146 1.387 . S
C147 C148 1.384 . S
C147 H156 0.930 . S
C148 C145 1.380 . S
C148 C147 1.384 . S
C148 H157 0.931 . S
C149 C145 1.374 . S
C149 C150 1.390 . S
C149 H158 0.930 . S
C150 C146 1.391 . S
C150 C149 1.390 . S
C150 H159 0.930 . S
C151 Eu121 2.825 . S
C151 O136 1.238 . S
C151 O137 1.247 . S
C151 C145 1.507 . S
H152 C125 0.930 . S
H153 C126 0.931 . S
H154 C127 0.930 . S
H155 C128 0.930 . S
H156 C147 0.930 . S
H157 C148 0.931 . S
H158 C149 0.930 . S
H159 C150 0.930 . S
Tb160 C170 2.825 . S
Tb160 O171 2.347 . S
Tb160 O174 2.366 . S
Tb160 O179 2.418 . S
Tb160 O180 2.384 . S
Tb160 O183 2.479 . S
Tb160 O184 2.471 . S
Eu161 O172 2.418 . S
Eu161 O173 2.384 . S
Eu161 O176 2.479 . S
Eu161 O177 2.471 . S
Eu161 O178 2.347 . S
Eu161 O181 2.366 . S
Eu161 C191 2.825 . S
C162 O178 1.259 . S
C162 O179 1.265 . S
C163 O180 1.255 . S
C163 O181 1.265 . S
C164 C166 1.380 . S
C164 C167 1.374 . S
C164 C170 1.507 . S
C165 C166 1.384 . S
C165 C169 1.387 . S
C165 H192 0.930 . S
C166 C164 1.380 . S
C166 C165 1.384 . S
C166 H193 0.931 . S
C167 C164 1.374 . S
C167 C168 1.390 . S
C167 H194 0.930 . S
C168 C167 1.390 . S
C168 C169 1.391 . S
C168 H195 0.930 . S
C169 C165 1.387 . S
C169 C168 1.391 . S
C170 Tb160 2.825 . S
C170 C164 1.507 . S
C170 O183 1.238 . S
C170 O184 1.247 . S
O171 Tb160 2.347 . S
O171 C175 1.259 . S
O172 Eu161 2.418 . S
O172 C175 1.265 . S
O173 Eu161 2.384 . S
O173 C182 1.255 . S
O174 Tb160 2.366 . S
O174 C182 1.265 . S
C175 O171 1.259 . S
C175 O172 1.265 . S
O176 Eu161 2.479 . S
O176 C191 1.238 . S
O177 Eu161 2.471 . S
O177 C191 1.247 . S
O178 Eu161 2.347 . S
O178 C162 1.259 . S
O179 Tb160 2.418 . S
O179 C162 1.265 . S
O180 Tb160 2.384 . S
O180 C163 1.255 . S
O181 Eu161 2.366 . S
O181 C163 1.265 . S
C182 O173 1.255 . S
C182 O174 1.265 . S
O183 Tb160 2.479 . S
O183 C170 1.238 . S
O184 Tb160 2.471 . S
O184 C170 1.247 . S
C185 C188 1.380 . S
C185 C189 1.374 . S
C185 C191 1.507 . S
C186 C187 1.387 . S
C186 C190 1.391 . S
C187 C186 1.387 . S
C187 C188 1.384 . S
C187 H196 0.930 . S
C188 C185 1.380 . S
C188 C187 1.384 . S
C188 H197 0.931 . S
C189 C185 1.374 . S
C189 C190 1.390 . S
C189 H198 0.930 . S
C190 C186 1.391 . S
C190 C189 1.390 . S
C190 H199 0.930 . S
C191 Eu161 2.825 . S
C191 O176 1.238 . S
C191 O177 1.247 . S
C191 C185 1.507 . S
H192 C165 0.930 . S
H193 C166 0.931 . S
H194 C167 0.930 . S
H195 C168 0.930 . S
H196 C187 0.930 . S
H197 C188 0.931 . S
H198 C189 0.930 . S
H199 C190 0.930 . S
Tb200 C210 2.825 . S
Tb200 O211 2.347 . S
Tb200 O214 2.366 . S
Tb200 O219 2.418 . S
Tb200 O220 2.384 . S
Tb200 O223 2.479 . S
Tb200 O224 2.471 . S
Eu201 O212 2.418 . S
Eu201 O213 2.384 . S
Eu201 O216 2.479 . S
Eu201 O217 2.471 . S
Eu201 O218 2.347 . S
Eu201 O221 2.366 . S
Eu201 C231 2.825 . S
C202 O218 1.259 . S
C202 O219 1.265 . S
C203 O220 1.255 . S
C203 O221 1.265 . S
C204 C206 1.380 . S
C204 C207 1.374 . S
C204 C210 1.507 . S
C205 C206 1.384 . S
C205 C209 1.387 . S
C205 H232 0.930 . S
C206 C204 1.380 . S
C206 C205 1.384 . S
C206 H233 0.931 . S
C207 C204 1.374 . S
C207 C208 1.390 . S
C207 H234 0.930 . S
C208 C207 1.390 . S
C208 C209 1.391 . S
C208 H235 0.930 . S
C209 C205 1.387 . S
C209 C208 1.391 . S
C210 Tb200 2.825 . S
C210 C204 1.507 . S
C210 O223 1.238 . S
C210 O224 1.247 . S
O211 Tb200 2.347 . S
O211 C215 1.259 . S
O212 Eu201 2.418 . S
O212 C215 1.265 . S
O213 Eu201 2.384 . S
O213 C222 1.255 . S
O214 Tb200 2.366 . S
O214 C222 1.265 . S
C215 O211 1.259 . S
C215 O212 1.265 . S
O216 Eu201 2.479 . S
O216 C231 1.238 . S
O217 Eu201 2.471 . S
O217 C231 1.247 . S
O218 Eu201 2.347 . S
O218 C202 1.259 . S
O219 Tb200 2.418 . S
O219 C202 1.265 . S
O220 Tb200 2.384 . S
O220 C203 1.255 . S
O221 Eu201 2.366 . S
O221 C203 1.265 . S
C222 O213 1.255 . S
C222 O214 1.265 . S
O223 Tb200 2.479 . S
O223 C210 1.238 . S
O224 Tb200 2.471 . S
O224 C210 1.247 . S
C225 C228 1.380 . S
C225 C229 1.374 . S
C225 C231 1.507 . S
C226 C227 1.387 . S
C226 C230 1.391 . S
C227 C226 1.387 . S
C227 C228 1.384 . S
C227 H236 0.930 . S
C228 C225 1.380 . S
C228 C227 1.384 . S
C228 H237 0.931 . S
C229 C225 1.374 . S
C229 C230 1.390 . S
C229 H238 0.930 . S
C230 C226 1.391 . S
C230 C229 1.390 . S
C230 H239 0.930 . S
C231 Eu201 2.825 . S
C231 O216 1.238 . S
C231 O217 1.247 . S
C231 C225 1.507 . S
H232 C205 0.930 . S
H233 C206 0.931 . S
H234 C207 0.930 . S
H235 C208 0.930 . S
H236 C227 0.930 . S
H237 C228 0.931 . S
H238 C229 0.930 . S
H239 C230 0.930 . S
Tb240 C250 2.825 . S
Tb240 O251 2.347 . S
Tb240 O254 2.366 . S
Tb240 O259 2.418 . S
Tb240 O260 2.384 . S
Tb240 O263 2.479 . S
Tb240 O264 2.471 . S
Eu241 O252 2.418 . S
Eu241 O253 2.384 . S
Eu241 O256 2.479 . S
Eu241 O257 2.471 . S
Eu241 O258 2.347 . S
Eu241 O261 2.366 . S
Eu241 C271 2.825 . S
C242 O258 1.259 . S
C242 O259 1.265 . S
C243 O260 1.255 . S
C243 O261 1.265 . S
C244 C246 1.380 . S
C244 C247 1.374 . S
C244 C250 1.507 . S
C245 C246 1.384 . S
C245 C249 1.387 . S
C245 H272 0.930 . S
C246 C244 1.380 . S
C246 C245 1.384 . S
C246 H273 0.931 . S
C247 C244 1.374 . S
C247 C248 1.390 . S
C247 H274 0.930 . S
C248 C247 1.390 . S
C248 C249 1.391 . S
C248 H275 0.930 . S
C249 C245 1.387 . S
C249 C248 1.391 . S
C250 Tb240 2.825 . S
C250 C244 1.507 . S
C250 O263 1.238 . S
C250 O264 1.247 . S
O251 Tb240 2.347 . S
O251 C255 1.259 . S
O252 Eu241 2.418 . S
O252 C255 1.265 . S
O253 Eu241 2.384 . S
O253 C262 1.255 . S
O254 Tb240 2.366 . S
O254 C262 1.265 . S
C255 O251 1.259 . S
C255 O252 1.265 . S
O256 Eu241 2.479 . S
O256 C271 1.238 . S
O257 Eu241 2.471 . S
O257 C271 1.247 . S
O258 Eu241 2.347 . S
O258 C242 1.259 . S
O259 Tb240 2.418 . S
O259 C242 1.265 . S
O260 Tb240 2.384 . S
O260 C243 1.255 . S
O261 Eu241 2.366 . S
O261 C243 1.265 . S
C262 O253 1.255 . S
C262 O254 1.265 . S
O263 Tb240 2.479 . S
O263 C250 1.238 . S
O264 Tb240 2.471 . S
O264 C250 1.247 . S
C265 C268 1.380 1_556 S
C265 C269 1.374 1_556 S
C265 C271 1.507 . S
C266 C267 1.387 . S
C266 C270 1.391 . S
C267 C266 1.387 . S
C267 C268 1.384 . S
C267 H276 0.930 . S
C268 C265 1.380 1_554 S
C268 C267 1.384 . S
C268 H277 0.931 1_554 S
C269 C265 1.374 1_554 S
C269 C270 1.390 . S
C269 H278 0.930 . S
C270 C266 1.391 . S
C270 C269 1.390 . S
C270 H279 0.930 . S
C271 Eu241 2.825 . S
C271 O256 1.238 . S
C271 O257 1.247 . S
C271 C265 1.507 . S
H272 C245 0.930 . S
H273 C246 0.931 . S
H274 C247 0.930 . S
H275 C248 0.930 . S
H276 C267 0.930 . S
H277 C268 0.931 1_556 S
H278 C269 0.930 . S
H279 C270 0.930 . S
Tb280 C290 2.825 . S
Tb280 O291 2.347 . S
Tb280 O294 2.366 . S
Tb280 O299 2.418 . S
Tb280 O300 2.384 . S
Tb280 O303 2.479 . S
Tb280 O304 2.471 . S
Eu281 O292 2.418 . S
Eu281 O293 2.384 . S
Eu281 O296 2.479 . S
Eu281 O297 2.471 . S
Eu281 O298 2.347 . S
Eu281 O301 2.366 . S
Eu281 C311 2.825 . S
C282 O298 1.259 . S
C282 O299 1.265 . S
C283 O300 1.255 . S
C283 O301 1.265 . S
C284 C286 1.380 1_556 S
C284 C287 1.374 1_556 S
C284 C290 1.507 . S
C285 C286 1.384 . S
C285 C289 1.387 . S
C285 H312 0.930 . S
C286 C284 1.380 1_554 S
C286 C285 1.384 . S
C286 H313 0.931 1_554 S
C287 C284 1.374 1_554 S
C287 C288 1.390 . S
C287 H314 0.930 . S
C288 C287 1.390 . S
C288 C289 1.391 . S
C288 H315 0.930 . S
C289 C285 1.387 . S
C289 C288 1.391 . S
C290 Tb280 2.825 . S
C290 C284 1.507 . S
C290 O303 1.238 . S
C290 O304 1.247 . S
O291 Tb280 2.347 . S
O291 C295 1.259 . S
O292 Eu281 2.418 . S
O292 C295 1.265 . S
O293 Eu281 2.384 . S
O293 C302 1.255 . S
O294 Tb280 2.366 . S
O294 C302 1.265 . S
C295 O291 1.259 . S
C295 O292 1.265 . S
O296 Eu281 2.479 . S
O296 C311 1.238 . S
O297 Eu281 2.471 . S
O297 C311 1.247 . S
O298 Eu281 2.347 . S
O298 C282 1.259 . S
O299 Tb280 2.418 . S
O299 C282 1.265 . S
O300 Tb280 2.384 . S
O300 C283 1.255 . S
O301 Eu281 2.366 . S
O301 C283 1.265 . S
C302 O293 1.255 . S
C302 O294 1.265 . S
O303 Tb280 2.479 . S
O303 C290 1.238 . S
O304 Tb280 2.471 . S
O304 C290 1.247 . S
C305 C308 1.380 . S
C305 C309 1.374 . S
C305 C311 1.507 . S
C306 C307 1.387 . S
C306 C310 1.391 . S
C307 C306 1.387 . S
C307 C308 1.384 . S
C307 H316 0.930 . S
C308 C305 1.380 . S
C308 C307 1.384 . S
C308 H317 0.931 . S
C309 C305 1.374 . S
C309 C310 1.390 . S
C309 H318 0.930 . S
C310 C306 1.391 . S
C310 C309 1.390 . S
C310 H319 0.930 . S
C311 Eu281 2.825 . S
C311 O296 1.238 . S
C311 O297 1.247 . S
C311 C305 1.507 . S
H312 C285 0.930 . S
H313 C286 0.931 1_556 S
H314 C287 0.930 . S
H315 C288 0.930 . S
H316 C307 0.930 . S
H317 C308 0.931 . S
H318 C309 0.930 . S
H319 C310 0.930 . S
Tb320 C330 2.825 . S
Tb320 O331 2.347 . S
Tb320 O334 2.366 . S
Tb320 O339 2.418 . S
Tb320 O340 2.384 . S
Tb320 O343 2.479 . S
Tb320 O344 2.471 . S
Eu321 O332 2.418 . S
Eu321 O333 2.384 . S
Eu321 O336 2.479 . S
Eu321 O337 2.471 . S
Eu321 O338 2.347 . S
Eu321 O341 2.366 . S
Eu321 C351 2.825 . S
C322 O338 1.259 . S
C322 O339 1.265 . S
C323 O340 1.255 . S
C323 O341 1.265 . S
C324 C326 1.380 . S
C324 C327 1.374 . S
C324 C330 1.507 . S
C325 C326 1.384 . S
C325 C329 1.387 . S
C325 H352 0.930 . S
C326 C324 1.380 . S
C326 C325 1.384 . S
C326 H353 0.931 . S
C327 C324 1.374 . S
C327 C328 1.390 . S
C327 H354 0.930 . S
C328 C327 1.390 . S
C328 C329 1.391 . S
C328 H355 0.930 . S
C329 C325 1.387 . S
C329 C328 1.391 . S
C330 Tb320 2.825 . S
C330 C324 1.507 . S
C330 O343 1.238 . S
C330 O344 1.247 . S
O331 Tb320 2.347 . S
O331 C335 1.259 . S
O332 Eu321 2.418 . S
O332 C335 1.265 . S
O333 Eu321 2.384 . S
O333 C342 1.255 . S
O334 Tb320 2.366 . S
O334 C342 1.265 . S
C335 O331 1.259 . S
C335 O332 1.265 . S
O336 Eu321 2.479 . S
O336 C351 1.238 . S
O337 Eu321 2.471 . S
O337 C351 1.247 . S
O338 Eu321 2.347 . S
O338 C322 1.259 . S
O339 Tb320 2.418 . S
O339 C322 1.265 . S
O340 Tb320 2.384 . S
O340 C323 1.255 . S
O341 Eu321 2.366 . S
O341 C323 1.265 . S
C342 O333 1.255 . S
C342 O334 1.265 . S
O343 Tb320 2.479 . S
O343 C330 1.238 . S
O344 Tb320 2.471 . S
O344 C330 1.247 . S
C345 C348 1.380 . S
C345 C349 1.374 . S
C345 C351 1.507 1_554 S
C346 C347 1.387 . S
C346 C350 1.391 . S
C347 C346 1.387 . S
C347 C348 1.384 . S
C347 H356 0.930 . S
C348 C345 1.380 . S
C348 C347 1.384 . S
C348 H357 0.931 . S
C349 C345 1.374 . S
C349 C350 1.390 . S
C349 H358 0.930 . S
C350 C346 1.391 . S
C350 C349 1.390 . S
C350 H359 0.930 . S
C351 Eu321 2.825 . S
C351 O336 1.238 . S
C351 O337 1.247 . S
C351 C345 1.507 1_556 S
H352 C325 0.930 . S
H353 C326 0.931 . S
H354 C327 0.930 . S
H355 C328 0.930 . S
H356 C347 0.930 . S
H357 C348 0.931 . S
H358 C349 0.930 . S
H359 C350 0.930 . S
C360 C361 1.391 . S
C360 C362 1.394 . S
C360 H376 0.931 . S
C361 C360 1.391 . S
C361 C365 1.376 . S
C362 C360 1.394 . S
C362 C363 1.369 . S
C362 C366 1.531 1_455 S
C363 C362 1.369 . S
C363 C364 1.410 . S
C363 C371 1.503 . S
C364 C363 1.410 . S
C364 C365 1.392 . S
C364 C367 1.511 . S
C365 C361 1.376 . S
C365 C364 1.392 . S
C365 H377 0.929 . S
C366 C362 1.531 1_655 S
C366 H378 0.960 1_655 S
C366 H379 0.962 . S
C366 H380 0.960 . S
C367 C364 1.511 . S
C367 H381 0.961 . S
C367 H382 0.961 . S
C367 H383 0.961 . S
C368 C369 1.370 . S
C368 C370 1.363 . S
C368 H384 0.931 . S
C369 C368 1.370 . S
C369 C373 1.408 . S
C370 C368 1.363 . S
C370 C371 1.370 . S
C370 C374 1.524 . S
C371 C363 1.503 . S
C371 C370 1.370 . S
C371 C372 1.403 . S
C372 C371 1.403 . S
C372 C373 1.404 . S
C372 C375 1.539 . S
C373 C369 1.408 . S
C373 C372 1.404 . S
C373 H385 0.930 . S
C374 C370 1.524 . S
C374 H386 0.956 . S
C374 H387 0.961 . S
C374 H388 0.961 . S
C375 C372 1.539 . S
C375 H389 0.958 . S
C375 H390 0.961 . S
C375 H391 0.960 . S
H376 C360 0.931 . S
H377 C365 0.929 . S
H378 C366 0.960 1_455 S
H379 C366 0.962 . S
H380 C366 0.960 . S
H381 C367 0.961 . S
H382 C367 0.961 . S
H383 C367 0.961 . S
H384 C368 0.931 . S
H385 C373 0.930 . S
H386 C374 0.956 . S
H387 C374 0.961 . S
H388 C374 0.961 . S
H389 C375 0.958 . S
H390 C375 0.961 . S
H391 C375 0.960 . S
C392 C393 1.391 . S
C392 C394 1.394 . S
C392 H408 0.931 . S
C393 C392 1.391 . S
C393 C397 1.376 . S
C394 C392 1.394 . S
C394 C395 1.369 . S
C394 C398 1.531 . S
C395 C394 1.369 . S
C395 C396 1.410 . S
C395 C403 1.503 . S
C396 C395 1.410 . S
C396 C397 1.392 . S
C396 C399 1.511 . S
C397 C393 1.376 . S
C397 C396 1.392 . S
C397 H409 0.929 . S
C398 C394 1.531 . S
C398 H410 0.960 . S
C398 H411 0.962 . S
C398 H412 0.960 . S
C399 C396 1.511 . S
C399 H413 0.961 . S
C399 H414 0.961 . S
C399 H415 0.961 . S
C400 C401 1.370 . S
C400 C402 1.363 . S
C400 H416 0.931 . S
C401 C400 1.370 . S
C401 C405 1.408 . S
C402 C400 1.363 . S
C402 C403 1.370 . S
C402 C406 1.524 . S
C403 C395 1.503 . S
C403 C402 1.370 . S
C403 C404 1.403 . S
C404 C403 1.403 . S
C404 C405 1.404 . S
C404 C407 1.539 . S
C405 C401 1.408 . S
C405 C404 1.404 . S
C405 H417 0.930 . S
C406 C402 1.524 . S
C406 H418 0.956 . S
C406 H419 0.961 . S
C406 H420 0.961 . S
C407 C404 1.539 . S
C407 H421 0.958 . S
C407 H422 0.961 . S
C407 H423 0.960 . S
H408 C392 0.931 . S
H409 C397 0.929 . S
H410 C398 0.960 . S
H411 C398 0.962 . S
H412 C398 0.960 . S
H413 C399 0.961 . S
H414 C399 0.961 . S
H415 C399 0.961 . S
H416 C400 0.931 . S
H417 C405 0.930 . S
H418 C406 0.956 . S
H419 C406 0.961 . S
H420 C406 0.961 . S
H421 C407 0.958 . S
H422 C407 0.961 . S
H423 C407 0.960 . S
C424 C425 1.391 . S
C424 C426 1.394 . S
C424 H440 0.931 . S
C425 C424 1.391 . S
C425 C429 1.376 . S
C426 C424 1.394 . S
C426 C427 1.369 . S
C426 C430 1.531 . S
C427 C426 1.369 . S
C427 C428 1.410 . S
C427 C435 1.503 . S
C428 C427 1.410 . S
C428 C429 1.392 . S
C428 C431 1.511 . S
C429 C425 1.376 . S
C429 C428 1.392 . S
C429 H441 0.929 . S
C430 C426 1.531 . S
C430 H442 0.960 . S
C430 H443 0.962 . S
C430 H444 0.960 . S
C431 C428 1.511 . S
C431 H445 0.961 . S
C431 H446 0.961 . S
C431 H447 0.961 . S
C432 C433 1.370 . S
C432 C434 1.363 . S
C432 H448 0.931 . S
C433 C432 1.370 . S
C433 C437 1.408 . S
C434 C432 1.363 . S
C434 C435 1.370 . S
C434 C438 1.524 . S
C435 C427 1.503 . S
C435 C434 1.370 . S
C435 C436 1.403 . S
C436 C435 1.403 . S
C436 C437 1.404 . S
C436 C439 1.539 . S
C437 C433 1.408 . S
C437 C436 1.404 . S
C437 H449 0.930 . S
C438 C434 1.524 . S
C438 H450 0.956 . S
C438 H451 0.961 . S
C438 H452 0.961 . S
C439 C436 1.539 . S
C439 H453 0.958 . S
C439 H454 0.961 . S
C439 H455 0.960 . S
H440 C424 0.931 . S
H441 C429 0.929 . S
H442 C430 0.960 . S
H443 C430 0.962 . S
H444 C430 0.960 . S
H445 C431 0.961 . S
H446 C431 0.961 . S
H447 C431 0.961 . S
H448 C432 0.931 . S
H449 C437 0.930 . S
H450 C438 0.956 . S
H451 C438 0.961 . S
H452 C438 0.961 . S
H453 C439 0.958 . S
H454 C439 0.961 . S
H455 C439 0.960 . S
C456 C457 1.391 . S
C456 C458 1.394 . S
C456 H472 0.931 . S
C457 C456 1.391 . S
C457 C461 1.376 . S
C458 C456 1.394 . S
C458 C459 1.369 . S
C458 C462 1.531 . S
C459 C458 1.369 . S
C459 C460 1.410 . S
C459 C467 1.503 . S
C460 C459 1.410 . S
C460 C461 1.392 . S
C460 C463 1.511 . S
C461 C457 1.376 . S
C461 C460 1.392 . S
C461 H473 0.929 . S
C462 C458 1.531 . S
C462 H474 0.960 . S
C462 H475 0.962 . S
C462 H476 0.960 . S
C463 C460 1.511 . S
C463 H477 0.961 . S
C463 H478 0.961 . S
C463 H479 0.961 . S
C464 C465 1.370 1_556 S
C464 C466 1.363 . S
C464 H480 0.931 1_556 S
C465 C464 1.370 1_554 S
C465 C469 1.408 1_554 S
C466 C464 1.363 . S
C466 C467 1.370 . S
C466 C470 1.524 . S
C467 C459 1.503 . S
C467 C466 1.370 . S
C467 C468 1.403 . S
C468 C467 1.403 . S
C468 C469 1.404 . S
C468 C471 1.539 . S
C469 C465 1.408 1_556 S
C469 C468 1.404 . S
C469 H481 0.930 . S
C470 C466 1.524 . S
C470 H482 0.956 . S
C470 H483 0.961 . S
C470 H484 0.961 . S
C471 C468 1.539 . S
C471 H485 0.958 . S
C471 H486 0.961 . S
C471 H487 0.960 . S
H472 C456 0.931 . S
H473 C461 0.929 . S
H474 C462 0.960 . S
H475 C462 0.962 . S
H476 C462 0.960 . S
H477 C463 0.961 . S
H478 C463 0.961 . S
H479 C463 0.961 . S
H480 C464 0.931 1_554 S
H481 C469 0.930 . S
H482 C470 0.956 . S
H483 C470 0.961 . S
H484 C470 0.961 . S
H485 C471 0.958 . S
H486 C471 0.961 . S
H487 C471 0.960 . S
C488 C489 1.391 . S
C488 C490 1.394 . S
C488 H504 0.931 . S
C489 C488 1.391 . S
C489 C493 1.376 . S
C490 C488 1.394 . S
C490 C491 1.369 . S
C490 C494 1.531 . S
C491 C490 1.369 . S
C491 C492 1.410 . S
C491 C499 1.503 . S
C492 C491 1.410 . S
C492 C493 1.392 . S
C492 C495 1.511 . S
C493 C489 1.376 . S
C493 C492 1.392 . S
C493 H505 0.929 . S
C494 C490 1.531 . S
C494 H506 0.960 . S
C494 H507 0.962 . S
C494 H508 0.960 . S
C495 C492 1.511 . S
C495 H509 0.961 . S
C495 H510 0.961 . S
C495 H511 0.961 . S
C496 C497 1.370 . S
C496 C498 1.363 . S
C496 H512 0.931 . S
C497 C496 1.370 . S
C497 C501 1.408 . S
C498 C496 1.363 . S
C498 C499 1.370 . S
C498 C502 1.524 . S
C499 C491 1.503 . S
C499 C498 1.370 . S
C499 C500 1.403 . S
C500 C499 1.403 . S
C500 C501 1.404 . S
C500 C503 1.539 . S
C501 C497 1.408 . S
C501 C500 1.404 . S
C501 H513 0.930 . S
C502 C498 1.524 . S
C502 H514 0.956 . S
C502 H515 0.961 . S
C502 H516 0.961 . S
C503 C500 1.539 . S
C503 H517 0.958 . S
C503 H518 0.961 . S
C503 H519 0.960 . S
H504 C488 0.931 . S
H505 C493 0.929 . S
H506 C494 0.960 . S
H507 C494 0.962 . S
H508 C494 0.960 . S
H509 C495 0.961 . S
H510 C495 0.961 . S
H511 C495 0.961 . S
H512 C496 0.931 . S
H513 C501 0.930 . S
H514 C502 0.956 . S
H515 C502 0.961 . S
H516 C502 0.961 . S
H517 C503 0.958 . S
H518 C503 0.961 . S
H519 C503 0.960 . S
C520 C521 1.391 . S
C520 C522 1.394 . S
C520 H536 0.931 . S
C521 C520 1.391 . S
C521 C525 1.376 . S
C522 C520 1.394 . S
C522 C523 1.369 . S
C522 C526 1.531 . S
C523 C522 1.369 . S
C523 C524 1.410 . S
C523 C531 1.503 . S
C524 C523 1.410 . S
C524 C525 1.392 . S
C524 C527 1.511 . S
C525 C521 1.376 . S
C525 C524 1.392 . S
C525 H537 0.929 . S
C526 C522 1.531 . S
C526 H538 0.960 . S
C526 H539 0.962 . S
C526 H540 0.960 . S
C527 C524 1.511 . S
C527 H541 0.961 . S
C527 H542 0.961 . S
C527 H543 0.961 . S
C528 C529 1.370 . S
C528 C530 1.363 . S
C528 H544 0.931 . S
C529 C528 1.370 . S
C529 C533 1.408 . S
C530 C528 1.363 . S
C530 C531 1.370 . S
C530 C534 1.524 . S
C531 C523 1.503 . S
C531 C530 1.370 . S
C531 C532 1.403 . S
C532 C531 1.403 . S
C532 C533 1.404 . S
C532 C535 1.539 . S
C533 C529 1.408 . S
C533 C532 1.404 . S
C533 H545 0.930 . S
C534 C530 1.524 . S
C534 H546 0.956 . S
C534 H547 0.961 . S
C534 H548 0.961 . S
C535 C532 1.539 . S
C535 H549 0.958 . S
C535 H550 0.961 . S
C535 H551 0.960 . S
H536 C520 0.931 . S
H537 C525 0.929 . S
H538 C526 0.960 . S
H539 C526 0.962 . S
H540 C526 0.960 . S
H541 C527 0.961 . S
H542 C527 0.961 . S
H543 C527 0.961 . S
H544 C528 0.931 . S
H545 C533 0.930 . S
H546 C534 0.956 . S
H547 C534 0.961 . S
H548 C534 0.961 . S
H549 C535 0.958 . S
H550 C535 0.961 . S
H551 C535 0.960 . S
C552 C553 1.391 . S
C552 C554 1.394 . S
C552 H568 0.931 . S
C553 C552 1.391 . S
C553 C557 1.376 . S
C554 C552 1.394 . S
C554 C555 1.369 . S
C554 C558 1.531 . S
C555 C554 1.369 . S
C555 C556 1.410 . S
C555 C563 1.503 . S
C556 C555 1.410 . S
C556 C557 1.392 . S
C556 C559 1.511 . S
C557 C553 1.376 . S
C557 C556 1.392 . S
C557 H569 0.929 . S
C558 C554 1.531 . S
C558 H570 0.960 . S
C558 H571 0.962 . S
C558 H572 0.960 . S
C559 C556 1.511 . S
C559 H573 0.961 . S
C559 H574 0.961 . S
C559 H575 0.961 . S
C560 C561 1.370 . S
C560 C562 1.363 . S
C560 H576 0.931 . S
C561 C560 1.370 . S
C561 C565 1.408 . S
C562 C560 1.363 . S
C562 C563 1.370 . S
C562 C566 1.524 . S
C563 C555 1.503 . S
C563 C562 1.370 . S
C563 C564 1.403 . S
C564 C563 1.403 . S
C564 C565 1.404 . S
C564 C567 1.539 . S
C565 C561 1.408 . S
C565 C564 1.404 . S
C565 H577 0.930 . S
C566 C562 1.524 . S
C566 H578 0.956 . S
C566 H579 0.961 . S
C566 H580 0.961 . S
C567 C564 1.539 . S
C567 H581 0.958 . S
C567 H582 0.961 . S
C567 H583 0.960 . S
H568 C552 0.931 . S
H569 C557 0.929 . S
H570 C558 0.960 . S
H571 C558 0.962 . S
H572 C558 0.960 . S
H573 C559 0.961 . S
H574 C559 0.961 . S
H575 C559 0.961 . S
H576 C560 0.931 . S
H577 C565 0.930 . S
H578 C566 0.956 . S
H579 C566 0.961 . S
H580 C566 0.961 . S
H581 C567 0.958 . S
H582 C567 0.961 . S
H583 C567 0.960 . S
C584 C585 1.391 . S
C584 C586 1.394 . S
C584 H600 0.931 . S
C585 C584 1.391 . S
C585 C589 1.376 . S
C586 C584 1.394 . S
C586 C587 1.369 . S
C586 C590 1.531 . S
C587 C586 1.369 . S
C587 C588 1.410 . S
C587 C595 1.503 . S
C588 C587 1.410 . S
C588 C589 1.392 . S
C588 C591 1.511 . S
C589 C585 1.376 . S
C589 C588 1.392 . S
C589 H601 0.929 . S
C590 C586 1.531 . S
C590 H602 0.960 . S
C590 H603 0.962 . S
C590 H604 0.960 . S
C591 C588 1.511 . S
C591 H605 0.961 . S
C591 H606 0.961 . S
C591 H607 0.961 . S
C592 C593 1.370 . S
C592 C594 1.363 . S
C592 H608 0.931 . S
C593 C592 1.370 . S
C593 C597 1.408 . S
C594 C592 1.363 . S
C594 C595 1.370 . S
C594 C598 1.524 . S
C595 C587 1.503 . S
C595 C594 1.370 . S
C595 C596 1.403 . S
C596 C595 1.403 . S
C596 C597 1.404 . S
C596 C599 1.539 . S
C597 C593 1.408 . S
C597 C596 1.404 . S
C597 H609 0.930 . S
C598 C594 1.524 . S
C598 H610 0.956 . S
C598 H611 0.961 . S
C598 H612 0.961 . S
C599 C596 1.539 . S
C599 H613 0.958 . S
C599 H614 0.961 . S
C599 H615 0.960 . S
H600 C584 0.931 . S
H601 C589 0.929 . S
H602 C590 0.960 . S
H603 C590 0.962 . S
H604 C590 0.960 . S
H605 C591 0.961 . S
H606 C591 0.961 . S
H607 C591 0.961 . S
H608 C592 0.931 . S
H609 C597 0.930 . S
H610 C598 0.956 . S
H611 C598 0.961 . S
H612 C598 0.961 . S
H613 C599 0.958 . S
H614 C599 0.961 . S
H615 C599 0.960 . S
C616 C617 1.391 . S
C616 C618 1.394 . S
C616 H632 0.931 . S
C617 C616 1.391 . S
C617 C621 1.376 . S
C618 C616 1.394 . S
C618 C619 1.369 . S
C618 C622 1.531 . S
C619 C618 1.369 . S
C619 C620 1.410 . S
C619 C627 1.503 . S
C620 C619 1.410 . S
C620 C621 1.392 . S
C620 C623 1.511 . S
C621 C617 1.376 . S
C621 C620 1.392 . S
C621 H633 0.929 . S
C622 C618 1.531 . S
C622 H634 0.960 . S
C622 H635 0.962 . S
C622 H636 0.960 . S
C623 C620 1.511 . S
C623 H637 0.961 . S
C623 H638 0.961 . S
C623 H639 0.961 . S
C624 C625 1.370 . S
C624 C626 1.363 . S
C624 H640 0.931 . S
C625 C624 1.370 . S
C625 C629 1.408 . S
C626 C624 1.363 . S
C626 C627 1.370 . S
C626 C630 1.524 . S
C627 C619 1.503 . S
C627 C626 1.370 . S
C627 C628 1.403 . S
C628 C627 1.403 . S
C628 C629 1.404 . S
C628 C631 1.539 . S
C629 C625 1.408 . S
C629 C628 1.404 . S
C629 H641 0.930 . S
C630 C626 1.524 . S
C630 H642 0.956 . S
C630 H643 0.961 . S
C630 H644 0.961 . S
C631 C628 1.539 . S
C631 H645 0.958 . S
C631 H646 0.961 . S
C631 H647 0.960 . S
H632 C616 0.931 . S
H633 C621 0.929 . S
H634 C622 0.960 . S
H635 C622 0.962 . S
H636 C622 0.960 . S
H637 C623 0.961 . S
H638 C623 0.961 . S
H639 C623 0.961 . S
H640 C624 0.931 . S
H641 C629 0.930 . S
H642 C630 0.956 . S
H643 C630 0.961 . S
H644 C630 0.961 . S
H645 C631 0.958 . S
H646 C631 0.961 . S
H647 C631 0.960 . S
C648 C649 1.391 . S
C648 C650 1.394 . S
C648 H664 0.931 . S
C649 C648 1.391 . S
C649 C653 1.376 . S
C650 C648 1.394 . S
C650 C651 1.369 . S
C650 C654 1.531 . S
C651 C650 1.369 . S
C651 C652 1.410 . S
C651 C659 1.503 . S
C652 C651 1.410 . S
C652 C653 1.392 . S
C652 C655 1.511 . S
C653 C649 1.376 . S
C653 C652 1.392 . S
C653 H665 0.929 . S
C654 C650 1.531 . S
C654 H666 0.960 . S
C654 H667 0.962 . S
C654 H668 0.960 . S
C655 C652 1.511 . S
C655 H669 0.961 . S
C655 H670 0.961 . S
C655 H671 0.961 . S
C656 C657 1.370 . S
C656 C658 1.363 . S
C656 H672 0.931 . S
C657 C656 1.370 . S
C657 C661 1.408 . S
C658 C656 1.363 . S
C658 C659 1.370 . S
C658 C662 1.524 . S
C659 C651 1.503 . S
C659 C658 1.370 . S
C659 C660 1.403 . S
C660 C659 1.403 . S
C660 C661 1.404 . S
C660 C663 1.539 . S
C661 C657 1.408 . S
C661 C660 1.404 . S
C661 H673 0.930 . S
C662 C658 1.524 . S
C662 H674 0.956 . S
C662 H675 0.961 . S
C662 H676 0.961 . S
C663 C660 1.539 . S
C663 H677 0.958 . S
C663 H678 0.961 . S
C663 H679 0.960 . S
H664 C648 0.931 . S
H665 C653 0.929 . S
H666 C654 0.960 . S
H667 C654 0.962 . S
H668 C654 0.960 . S
H669 C655 0.961 . S
H670 C655 0.961 . S
H671 C655 0.961 . S
H672 C656 0.931 . S
H673 C661 0.930 . S
H674 C662 0.956 . S
H675 C662 0.961 . S
H676 C662 0.961 . S
H677 C663 0.958 . S
H678 C663 0.961 . S
H679 C663 0.960 . S
C680 C681 1.391 . S
C680 C682 1.394 . S
C680 H696 0.931 . S
C681 C680 1.391 . S
C681 C685 1.376 . S
C682 C680 1.394 . S
C682 C683 1.369 . S
C682 C686 1.531 . S
C683 C682 1.369 . S
C683 C684 1.410 . S
C683 C691 1.503 . S
C684 C683 1.410 . S
C684 C685 1.392 . S
C684 C687 1.511 . S
C685 C681 1.376 . S
C685 C684 1.392 . S
C685 H697 0.929 . S
C686 C682 1.531 . S
C686 H698 0.960 . S
C686 H699 0.962 . S
C686 H700 0.960 . S
C687 C684 1.511 . S
C687 H701 0.961 . S
C687 H702 0.961 . S
C687 H703 0.961 . S
C688 C689 1.370 . S
C688 C690 1.363 . S
C688 H704 0.931 . S
C689 C688 1.370 . S
C689 C693 1.408 . S
C690 C688 1.363 . S
C690 C691 1.370 . S
C690 C694 1.524 . S
C691 C683 1.503 . S
C691 C690 1.370 . S
C691 C692 1.403 . S
C692 C691 1.403 . S
C692 C693 1.404 . S
C692 C695 1.539 . S
C693 C689 1.408 . S
C693 C692 1.404 . S
C693 H705 0.930 . S
C694 C690 1.524 . S
C694 H706 0.956 . S
C694 H707 0.961 . S
C694 H708 0.961 . S
C695 C692 1.539 . S
C695 H709 0.958 . S
C695 H710 0.961 . S
C695 H711 0.960 . S
H696 C680 0.931 . S
H697 C685 0.929 . S
H698 C686 0.960 . S
H699 C686 0.962 . S
H700 C686 0.960 . S
H701 C687 0.961 . S
H702 C687 0.961 . S
H703 C687 0.961 . S
H704 C688 0.931 . S
H705 C693 0.930 . S
H706 C694 0.956 . S
H707 C694 0.961 . S
H708 C694 0.961 . S
H709 C695 0.958 . S
H710 C695 0.961 . S
H711 C695 0.960 . S
C712 C713 1.391 . S
C712 C714 1.394 1_545 S
C712 H728 0.931 . S
C713 C712 1.391 . S
C713 C717 1.376 . S
C714 C712 1.394 1_565 S
C714 C715 1.369 . S
C714 C718 1.531 . S
C715 C714 1.369 . S
C715 C716 1.410 1_565 S
C715 C723 1.503 . S
C716 C715 1.410 1_545 S
C716 C717 1.392 . S
C716 C719 1.511 . S
C717 C713 1.376 . S
C717 C716 1.392 . S
C717 H729 0.929 . S
C718 C714 1.531 . S
C718 H730 0.960 . S
C718 H731 0.962 . S
C718 H732 0.960 . S
C719 C716 1.511 . S
C719 H733 0.961 . S
C719 H734 0.961 1_545 S
C719 H735 0.961 . S
C720 C721 1.370 . S
C720 C722 1.363 . S
C720 H736 0.931 . S
C721 C720 1.370 . S
C721 C725 1.408 . S
C722 C720 1.363 . S
C722 C723 1.370 . S
C722 C726 1.524 . S
C723 C715 1.503 . S
C723 C722 1.370 . S
C723 C724 1.403 . S
C724 C723 1.403 . S
C724 C725 1.404 . S
C724 C727 1.539 1_565 S
C725 C721 1.408 . S
C725 C724 1.404 . S
C725 H737 0.930 . S
C726 C722 1.524 . S
C726 H738 0.956 . S
C726 H739 0.961 . S
C726 H740 0.961 . S
C727 C724 1.539 1_545 S
C727 H741 0.958 . S
C727 H742 0.961 . S
C727 H743 0.960 . S
H728 C712 0.931 . S
H729 C717 0.929 . S
H730 C718 0.960 . S
H731 C718 0.962 . S
H732 C718 0.960 . S
H733 C719 0.961 . S
H734 C719 0.961 1_565 S
H735 C719 0.961 . S
H736 C720 0.931 . S
H737 C725 0.930 . S
H738 C726 0.956 . S
H739 C726 0.961 . S
H740 C726 0.961 . S
H741 C727 0.958 . S
H742 C727 0.961 . S
H743 C727 0.960 . S
C744 C745 1.391 1_556 S
C744 C746 1.394 . S
C744 H760 0.931 . S
C745 C744 1.391 1_554 S
C745 C749 1.376 . S
C746 C744 1.394 . S
C746 C747 1.369 . S
C746 C750 1.531 . S
C747 C746 1.369 . S
C747 C748 1.410 1_556 S
C747 C755 1.503 . S
C748 C747 1.410 1_554 S
C748 C749 1.392 . S
C748 C751 1.511 . S
C749 C745 1.376 . S
C749 C748 1.392 . S
C749 H761 0.929 . S
C750 C746 1.531 . S
C750 H762 0.960 . S
C750 H763 0.962 . S
C750 H764 0.960 . S
C751 C748 1.511 . S
C751 H765 0.961 . S
C751 H766 0.961 . S
C751 H767 0.961 . S
C752 C753 1.370 . S
C752 C754 1.363 . S
C752 H768 0.931 . S
C753 C752 1.370 . S
C753 C757 1.408 . S
C754 C752 1.363 . S
C754 C755 1.370 . S
C754 C758 1.524 . S
C755 C747 1.503 . S
C755 C754 1.370 . S
C755 C756 1.403 . S
C756 C755 1.403 . S
C756 C757 1.404 . S
C756 C759 1.539 . S
C757 C753 1.408 . S
C757 C756 1.404 . S
C757 H769 0.930 . S
C758 C754 1.524 . S
C758 H770 0.956 . S
C758 H771 0.961 1_556 S
C758 H772 0.961 . S
C759 C756 1.539 . S
C759 H773 0.958 . S
C759 H774 0.961 . S
C759 H775 0.960 . S
H760 C744 0.931 . S
H761 C749 0.929 . S
H762 C750 0.960 . S
H763 C750 0.962 . S
H764 C750 0.960 . S
H765 C751 0.961 . S
H766 C751 0.961 . S
H767 C751 0.961 . S
H768 C752 0.931 . S
H769 C757 0.930 . S
H770 C758 0.956 . S
H771 C758 0.961 1_554 S
H772 C758 0.961 . S
H773 C759 0.958 . S
H774 C759 0.961 . S
H775 C759 0.960 . S
C776 C777 1.391 . S
C776 C778 1.394 . S
C776 H792 0.931 . S
C777 C776 1.391 . S
C777 C781 1.376 . S
C778 C776 1.394 . S
C778 C779 1.369 . S
C778 C782 1.531 . S
C779 C778 1.369 . S
C779 C780 1.410 . S
C779 C787 1.503 . S
C780 C779 1.410 . S
C780 C781 1.392 . S
C780 C783 1.511 . S
C781 C777 1.376 . S
C781 C780 1.392 . S
C781 H793 0.929 . S
C782 C778 1.531 . S
C782 H794 0.960 . S
C782 H795 0.962 . S
C782 H796 0.960 . S
C783 C780 1.511 . S
C783 H797 0.961 . S
C783 H798 0.961 . S
C783 H799 0.961 1_556 S
C784 C785 1.370 . S
C784 C786 1.363 1_455 S
C784 H800 0.931 . S
C785 C784 1.370 . S
C785 C789 1.413 1_455 S
C786 C784 1.363 1_655 S
C786 C787 1.370 . S
C786 C790 1.524 1_655 S
C787 C779 1.503 . S
C787 C786 1.370 . S
C787 C788 1.403 . S
C788 C787 1.403 . S
C788 C789 1.409 . S
C788 C791 1.539 . S
C789 C785 1.413 1_655 S
C789 C788 1.409 . S
C789 H801 0.920 1_556 S
C790 C786 1.524 1_455 S
C790 H802 0.956 1_455 S
C790 H803 0.961 . S
C790 H804 0.961 . S
C791 C788 1.539 . S
C791 H805 0.958 . S
C791 H806 0.961 1_556 S
C791 H807 0.960 . S
H792 C776 0.931 . S
H793 C781 0.929 . S
H794 C782 0.960 . S
H795 C782 0.962 . S
H796 C782 0.960 . S
H797 C783 0.961 . S
H798 C783 0.961 . S
H799 C783 0.961 1_554 S
H800 C784 0.931 . S
H801 C789 0.920 1_554 S
H802 C790 0.956 1_655 S
H803 C790 0.961 . S
H804 C790 0.961 . S
H805 C791 0.958 . S
H806 C791 0.961 1_554 S
H807 C791 0.960 . S
C808 C809 1.391 . S
C808 C810 1.394 . S
C808 H824 0.931 . S
C809 C808 1.391 . S
C809 C813 1.376 . S
C810 C808 1.394 . S
C810 C811 1.369 . S
C810 C814 1.531 . S
C811 C810 1.369 . S
C811 C812 1.410 . S
C811 C819 1.503 . S
C812 C811 1.410 . S
C812 C813 1.392 . S
C812 C815 1.511 . S
C813 C809 1.376 . S
C813 C812 1.392 . S
C813 H825 0.929 . S
C814 C810 1.531 . S
C814 H826 0.960 . S
C814 H827 0.962 . S
C814 H828 0.960 . S
C815 C812 1.511 . S
C815 H829 0.961 . S
C815 H830 0.961 . S
C815 H831 0.961 . S
C816 C817 1.370 . S
C816 C818 1.363 . S
C816 H832 0.931 . S
C817 C816 1.370 . S
C817 C821 1.408 1_554 S
C818 C816 1.363 . S
C818 C819 1.370 1_554 S
C818 C822 1.524 . S
C819 C811 1.503 . S
C819 C818 1.370 1_556 S
C819 C820 1.403 . S
C820 C819 1.403 . S
C820 C821 1.404 . S
C820 C823 1.539 . S
C821 C817 1.408 1_556 S
C821 C820 1.404 . S
C821 H833 0.930 . S
C822 C818 1.524 . S
C822 H834 0.956 . S
C822 H835 0.961 1_554 S
C822 H836 0.961 . S
C823 C820 1.539 . S
C823 H837 0.958 . S
C823 H838 0.961 . S
C823 H839 0.960 . S
H824 C808 0.931 . S
H825 C813 0.929 . S
H826 C814 0.960 . S
H827 C814 0.962 . S
H828 C814 0.960 . S
H829 C815 0.961 . S
H830 C815 0.961 . S
H831 C815 0.961 . S
H832 C816 0.931 . S
H833 C821 0.930 . S
H834 C822 0.956 . S
H835 C822 0.961 1_556 S
H836 C822 0.961 . S
H837 C823 0.958 . S
H838 C823 0.961 . S
H839 C823 0.960 . S
C840 C841 1.391 . S
C840 C842 1.394 . S
C840 H856 0.931 . S
C841 C840 1.391 . S
C841 C845 1.376 . S
C842 C840 1.394 . S
C842 C843 1.369 . S
C842 C846 1.531 . S
C843 C842 1.369 . S
C843 C844 1.410 . S
C843 C851 1.503 . S
C844 C843 1.410 . S
C844 C845 1.392 . S
C844 C847 1.511 . S
C845 C841 1.376 . S
C845 C844 1.392 . S
C845 H857 0.929 . S
C846 C842 1.531 . S
C846 H858 0.960 . S
C846 H859 0.962 . S
C846 H860 0.960 . S
C847 C844 1.511 . S
C847 H861 0.961 . S
C847 H862 0.961 . S
C847 H863 0.961 . S
C848 C849 1.370 . S
C848 C850 1.363 . S
C848 H864 0.931 . S
C849 C848 1.370 . S
C849 C853 1.408 1_556 S
C850 C848 1.363 . S
C850 C851 1.370 . S
C850 C854 1.524 . S
C851 C843 1.503 . S
C851 C850 1.370 . S
C851 C852 1.403 . S
C852 C851 1.403 . S
C852 C853 1.404 1_556 S
C852 C855 1.536 1_556 S
C853 C849 1.408 1_554 S
C853 C852 1.404 1_554 S
C853 H865 0.930 . S
C854 C850 1.524 . S
C854 H866 0.956 . S
C854 H867 0.961 . S
C854 H868 0.961 . S
C855 C852 1.536 1_554 S
C855 H869 0.958 . S
C855 H870 0.969 . S
C855 H871 0.955 1_554 S
H856 C840 0.931 . S
H857 C845 0.929 . S
H858 C846 0.960 . S
H859 C846 0.962 . S
H860 C846 0.960 . S
H861 C847 0.961 . S
H862 C847 0.961 . S
H863 C847 0.961 . S
H864 C848 0.931 . S
H865 C853 0.930 . S
H866 C854 0.956 . S
H867 C854 0.961 . S
H868 C854 0.961 . S
H869 C855 0.958 . S
H870 C855 0.969 . S
H871 C855 0.955 1_556 S
C872 C873 1.391 . S
C872 C874 1.394 1_554 S
C872 H888 0.931 . S
C873 C872 1.391 . S
C873 C877 1.376 1_554 S
C874 C872 1.394 1_556 S
C874 C875 1.369 . S
C874 C878 1.531 . S
C875 C874 1.369 . S
C875 C876 1.410 . S
C875 C883 1.503 . S
C876 C875 1.410 . S
C876 C877 1.392 . S
C876 C879 1.511 . S
C877 C873 1.376 1_556 S
C877 C876 1.392 . S
C877 H889 0.929 . S
C878 C874 1.531 . S
C878 H890 0.960 . S
C878 H891 0.962 1_556 S
C878 H892 0.960 1_556 S
C879 C876 1.511 . S
C879 H893 0.961 . S
C879 H894 0.961 . S
C879 H895 0.961 . S
C880 C881 1.370 . S
C880 C882 1.363 . S
C880 H896 0.931 . S
C881 C880 1.370 . S
C881 C885 1.408 . S
C882 C880 1.363 . S
C882 C883 1.370 . S
C882 C886 1.524 . S
C883 C875 1.503 . S
C883 C882 1.370 . S
C883 C884 1.403 . S
C884 C883 1.403 . S
C884 C885 1.404 . S
C884 C887 1.539 . S
C885 C881 1.408 . S
C885 C884 1.404 . S
C885 H897 0.930 . S
C886 C882 1.524 . S
C886 H898 0.956 1_556 S
C886 H899 0.961 . S
C886 H900 0.961 . S
C887 C884 1.539 . S
C887 H901 0.958 . S
C887 H902 0.961 . S
C887 H903 0.960 . S
H888 C872 0.931 . S
H889 C877 0.929 . S
H890 C878 0.960 . S
H891 C878 0.962 1_554 S
H892 C878 0.960 1_554 S
H893 C879 0.961 . S
H894 C879 0.961 . S
H895 C879 0.961 . S
H896 C880 0.931 . S
H897 C885 0.930 . S
H898 C886 0.956 1_554 S
H899 C886 0.961 . S
H900 C886 0.961 . S
H901 C887 0.958 . S
H902 C887 0.961 . S
H903 C887 0.960 . S
C904 C905 1.391 . S
C904 C906 1.394 . S
C904 H920 0.931 . S
C905 C904 1.391 . S
C905 C909 1.376 . S
C906 C904 1.394 . S
C906 C907 1.369 . S
C906 C910 1.531 . S
C907 C906 1.369 . S
C907 C908 1.410 . S
C907 C915 1.503 . S
C908 C907 1.410 . S
C908 C909 1.392 . S
C908 C911 1.511 . S
C909 C905 1.376 . S
C909 C908 1.392 . S
C909 H921 0.929 . S
C910 C906 1.531 . S
C910 H922 0.960 . S
C910 H923 0.962 . S
C910 H924 0.960 . S
C911 C908 1.511 . S
C911 H925 0.961 . S
C911 H926 0.961 . S
C911 H927 0.961 1_556 S
C912 C913 1.370 1_556 S
C912 C914 1.363 . S
C912 H928 0.931 . S
C913 C912 1.370 1_554 S
C913 C917 1.408 . S
C914 C912 1.363 . S
C914 C915 1.370 . S
C914 C918 1.524 . S
C915 C907 1.503 . S
C915 C914 1.370 . S
C915 C916 1.403 1_556 S
C916 C915 1.403 1_554 S
C916 C917 1.404 . S
C916 C919 1.539 . S
C917 C913 1.408 . S
C917 C916 1.404 . S
C917 H929 0.930 . S
C918 C914 1.524 . S
C918 H930 0.956 . S
C918 H931 0.961 . S
C918 H932 0.961 . S
C919 C916 1.539 . S
C919 H933 0.958 . S
C919 H934 0.961 . S
C919 H935 0.960 . S
H920 C904 0.931 . S
H921 C909 0.929 . S
H922 C910 0.960 . S
H923 C910 0.962 . S
H924 C910 0.960 . S
H925 C911 0.961 . S
H926 C911 0.961 . S
H927 C911 0.961 1_554 S
H928 C912 0.931 . S
H929 C917 0.930 . S
H930 C918 0.956 . S
H931 C918 0.961 . S
H932 C918 0.961 . S
H933 C919 0.958 . S
H934 C919 0.961 . S
H935 C919 0.960 . S
C936 C937 1.391 . S
C936 C938 1.394 . S
C936 H952 0.931 . S
C937 C936 1.391 . S
C937 C941 1.376 . S
C938 C936 1.394 . S
C938 C939 1.369 . S
C938 C942 1.531 . S
C939 C938 1.369 . S
C939 C940 1.410 . S
C939 C947 1.503 . S
C940 C939 1.410 . S
C940 C941 1.392 . S
C940 C943 1.511 1_545 S
C941 C937 1.376 . S
C941 C940 1.392 . S
C941 H953 0.929 . S
C942 C938 1.531 . S
C942 H954 0.960 . S
C942 H955 0.962 . S
C942 H956 0.960 . S
C943 C940 1.511 1_565 S
C943 H957 0.961 . S
C943 H958 0.961 . S
C943 H959 0.961 . S
C944 C945 1.370 1_545 S
C944 C946 1.363 . S
C944 H960 0.931 . S
C945 C944 1.370 1_565 S
C945 C949 1.408 . S
C946 C944 1.363 . S
C946 C947 1.370 . S
C946 C950 1.524 . S
C947 C939 1.503 . S
C947 C946 1.370 . S
C947 C948 1.403 1_545 S
C948 C947 1.403 1_565 S
C948 C949 1.404 . S
C948 C951 1.539 . S
C949 C945 1.408 . S
C949 C948 1.404 . S
C949 H961 0.930 . S
C950 C946 1.524 . S
C950 H962 0.956 . S
C950 H963 0.961 . S
C950 H964 0.961 . S
C951 C948 1.539 . S
C951 H965 0.958 . S
C951 H966 0.961 . S
C951 H967 0.960 . S
H952 C936 0.931 . S
H953 C941 0.929 . S
H954 C942 0.960 . S
H955 C942 0.962 . S
H956 C942 0.960 . S
H957 C943 0.961 . S
H958 C943 0.961 . S
H959 C943 0.961 . S
H960 C944 0.931 . S
H961 C949 0.930 . S
H962 C950 0.956 . S
H963 C950 0.961 . S
H964 C950 0.961 . S
H965 C951 0.958 . S
H966 C951 0.961 . S
H967 C951 0.960 . S
C968 C969 1.391 . S
C968 C970 1.394 . S
C968 H984 0.931 . S
C969 C968 1.391 . S
C969 C973 1.376 . S
C970 C968 1.394 . S
C970 C971 1.369 . S
C970 C974 1.531 . S
C971 C970 1.369 . S
C971 C972 1.410 . S
C971 C979 1.503 . S
C972 C971 1.410 . S
C972 C973 1.392 . S
C972 C975 1.511 . S
C973 C969 1.376 . S
C973 C972 1.392 . S
C973 H985 0.929 . S
C974 C970 1.531 . S
C974 H986 0.960 . S
C974 H987 0.962 . S
C974 H988 0.960 . S
C975 C972 1.511 . S
C975 H989 0.961 . S
C975 H990 0.961 . S
C975 H991 0.961 . S
C976 C977 1.370 . S
C976 C978 1.363 . S
C976 H992 0.931 . S
C977 C976 1.370 . S
C977 C981 1.408 . S
C978 C976 1.363 . S
C978 C979 1.370 . S
C978 C982 1.524 . S
C979 C971 1.503 . S
C979 C978 1.370 . S
C979 C980 1.403 . S
C980 C979 1.403 . S
C980 C981 1.404 . S
C980 C983 1.539 . S
C981 C977 1.408 . S
C981 C980 1.404 . S
C981 H993 0.930 . S
C982 C978 1.524 . S
C982 H994 0.956 . S
C982 H995 0.961 . S
C982 H996 0.961 . S
C983 C980 1.539 . S
C983 H997 0.958 1_554 S
C983 H998 0.961 . S
C983 H999 0.960 . S
H984 C968 0.931 . S
H985 C973 0.929 . S
H986 C974 0.960 . S
H987 C974 0.962 . S
H988 C974 0.960 . S
H989 C975 0.961 . S
H990 C975 0.961 . S
H991 C975 0.961 . S
H992 C976 0.931 . S
H993 C981 0.930 . S
H994 C982 0.956 . S
H995 C982 0.961 . S
H996 C982 0.961 . S
H997 C983 0.958 1_556 S
H998 C983 0.961 . S
H999 C983 0.960 . S
C1000 C1001 1.391 . S
C1000 C1002 1.394 . S
C1000 H1016 0.931 . S
C1001 C1000 1.391 . S
C1001 C1005 1.376 . S
C1002 C1000 1.394 . S
C1002 C1003 1.369 . S
C1002 C1006 1.531 . S
C1003 C1002 1.369 . S
C1003 C1004 1.410 . S
C1003 C1011 1.503 . S
C1004 C1003 1.410 . S
C1004 C1005 1.392 . S
C1004 C1007 1.511 . S
C1005 C1001 1.376 . S
C1005 C1004 1.392 . S
C1005 H1017 0.929 . S
C1006 C1002 1.531 . S
C1006 H1018 0.960 . S
C1006 H1019 0.962 . S
C1006 H1020 0.960 . S
C1007 C1004 1.511 . S
C1007 H1021 0.961 . S
C1007 H1022 0.961 . S
C1007 H1023 0.961 . S
C1008 C1009 1.370 . S
C1008 C1010 1.363 . S
C1008 H1024 0.931 . S
C1009 C1008 1.370 . S
C1009 C1013 1.408 . S
C1010 C1008 1.363 . S
C1010 C1011 1.370 . S
C1010 C1014 1.524 . S
C1011 C1003 1.503 . S
C1011 C1010 1.370 . S
C1011 C1012 1.403 . S
C1012 C1011 1.403 . S
C1012 C1013 1.404 . S
C1012 C1015 1.539 . S
C1013 C1009 1.408 . S
C1013 C1012 1.404 . S
C1013 H1025 0.930 . S
C1014 C1010 1.524 . S
C1014 H1026 0.956 . S
C1014 H1027 0.961 . S
C1014 H1028 0.961 . S
C1015 C1012 1.539 . S
C1015 H1029 0.958 . S
C1015 H1030 0.961 . S
C1015 H1031 0.960 . S
H1016 C1000 0.931 . S
H1017 C1005 0.929 . S
H1018 C1006 0.960 . S
H1019 C1006 0.962 . S
H1020 C1006 0.960 . S
H1021 C1007 0.961 . S
H1022 C1007 0.961 . S
H1023 C1007 0.961 . S
H1024 C1008 0.931 . S
H1025 C1013 0.930 . S
H1026 C1014 0.956 . S
H1027 C1014 0.961 . S
H1028 C1014 0.961 . S
H1029 C1015 0.958 . S
H1030 C1015 0.961 . S
H1031 C1015 0.960 . S
C1032 C1033 1.391 . S
C1032 C1034 1.394 . S
C1032 H1048 0.931 . S
C1033 C1032 1.391 . S
C1033 C1037 1.376 . S
C1034 C1032 1.394 . S
C1034 C1035 1.369 . S
C1034 C1038 1.531 . S
C1035 C1034 1.369 . S
C1035 C1036 1.410 . S
C1035 C1043 1.503 . S
C1036 C1035 1.410 . S
C1036 C1037 1.392 . S
C1036 C1039 1.511 . S
C1037 C1033 1.376 . S
C1037 C1036 1.392 . S
C1037 H1049 0.929 . S
C1038 C1034 1.531 . S
C1038 H1050 0.960 . S
C1038 H1051 0.962 . S
C1038 H1052 0.960 . S
C1039 C1036 1.511 . S
C1039 H1053 0.961 . S
C1039 H1054 0.961 . S
C1039 H1055 0.961 . S
C1040 C1041 1.370 . S
C1040 C1042 1.363 . S
C1040 H1056 0.931 . S
C1041 C1040 1.370 . S
C1041 C1045 1.408 . S
C1042 C1040 1.363 . S
C1042 C1043 1.370 . S
C1042 C1046 1.524 . S
C1043 C1035 1.503 . S
C1043 C1042 1.370 . S
C1043 C1044 1.403 . S
C1044 C1043 1.403 . S
C1044 C1045 1.404 . S
C1044 C1047 1.539 . S
C1045 C1041 1.408 . S
C1045 C1044 1.404 . S
C1045 H1057 0.930 . S
C1046 C1042 1.524 . S
C1046 H1058 0.956 . S
C1046 H1059 0.961 . S
C1046 H1060 0.961 . S
C1047 C1044 1.539 . S
C1047 H1061 0.958 . S
C1047 H1062 0.961 . S
C1047 H1063 0.960 . S
H1048 C1032 0.931 . S
H1049 C1037 0.929 . S
H1050 C1038 0.960 . S
H1051 C1038 0.962 . S
H1052 C1038 0.960 . S
H1053 C1039 0.961 . S
H1054 C1039 0.961 . S
H1055 C1039 0.961 . S
H1056 C1040 0.931 . S
H1057 C1045 0.930 . S
H1058 C1046 0.956 . S
H1059 C1046 0.961 . S
H1060 C1046 0.961 . S
H1061 C1047 0.958 . S
H1062 C1047 0.961 . S
H1063 C1047 0.960 . S
C1064 C1065 1.391 . S
C1064 C1066 1.394 . S
C1064 H1080 0.931 . S
C1065 C1064 1.391 . S
C1065 C1069 1.376 . S
C1066 C1064 1.394 . S
C1066 C1067 1.369 . S
C1066 C1070 1.531 . S
C1067 C1066 1.369 . S
C1067 C1068 1.410 . S
C1067 C1075 1.503 1_545 S
C1068 C1067 1.410 . S
C1068 C1069 1.392 . S
C1068 C1071 1.511 . S
C1069 C1065 1.376 . S
C1069 C1068 1.392 . S
C1069 H1081 0.929 . S
C1070 C1066 1.531 . S
C1070 H1082 0.960 1_545 S
C1070 H1083 0.962 . S
C1070 H1084 0.960 . S
C1071 C1068 1.511 . S
C1071 H1085 0.961 . S
C1071 H1086 0.961 . S
C1071 H1087 0.961 . S
C1072 C1073 1.370 . S
C1072 C1074 1.363 . S
C1072 H1088 0.931 . S
C1073 C1072 1.370 . S
C1073 C1077 1.408 . S
C1074 C1072 1.363 . S
C1074 C1075 1.370 . S
C1074 C1078 1.524 1_565 S
C1075 C1067 1.503 1_565 S
C1075 C1074 1.370 . S
C1075 C1076 1.403 . S
C1076 C1075 1.403 . S
C1076 C1077 1.404 . S
C1076 C1079 1.539 . S
C1077 C1073 1.408 . S
C1077 C1076 1.404 . S
C1077 H1089 0.930 . S
C1078 C1074 1.524 1_545 S
C1078 H1090 0.956 . S
C1078 H1091 0.961 . S
C1078 H1092 0.961 . S
C1079 C1076 1.539 . S
C1079 H1093 0.958 . S
C1079 H1094 0.961 . S
C1079 H1095 0.960 . S
H1080 C1064 0.931 . S
H1081 C1069 0.929 . S
H1082 C1070 0.960 1_565 S
H1083 C1070 0.962 . S
H1084 C1070 0.960 . S
H1085 C1071 0.961 . S
H1086 C1071 0.961 . S
H1087 C1071 0.961 . S
H1088 C1072 0.931 . S
H1089 C1077 0.930 . S
H1090 C1078 0.956 . S
H1091 C1078 0.961 . S
H1092 C1078 0.961 . S
H1093 C1079 0.958 . S
H1094 C1079 0.961 . S
H1095 C1079 0.960 . S
C1096 C1097 1.391 . S
C1096 C1098 1.442 . S
C1096 H1112 0.931 . S
C1097 C1096 1.391 . S
C1097 C1101 1.376 . S
C1098 C1096 1.442 . S
C1098 C1099 1.355 . S
C1098 C1102 1.498 1_655 S
C1099 C1098 1.355 . S
C1099 C1100 1.410 . S
C1099 C1107 1.503 1_655 S
C1100 C1099 1.410 . S
C1100 C1101 1.392 . S
C1100 C1103 1.511 . S
C1101 C1097 1.376 . S
C1101 C1100 1.392 . S
C1101 H1113 0.929 . S
C1102 C1098 1.498 1_455 S
C1102 H1114 0.960 . S
C1102 H1115 0.962 . S
C1102 H1116 0.960 . S
C1103 C1100 1.511 . S
C1103 H1117 0.961 . S
C1103 H1118 0.961 . S
C1103 H1119 0.961 . S
C1104 C1105 1.370 . S
C1104 C1106 1.328 1_455 S
C1104 H1120 0.931 . S
C1105 C1104 1.370 . S
C1105 C1109 1.408 . S
C1106 C1104 1.328 1_655 S
C1106 C1107 1.363 1_655 S
C1106 C1110 1.568 . S
C1107 C1099 1.503 1_455 S
C1107 C1106 1.363 1_455 S
C1107 C1108 1.403 . S
C1108 C1107 1.403 . S
C1108 C1109 1.404 . S
C1108 C1111 1.539 . S
C1109 C1105 1.408 . S
C1109 C1108 1.404 . S
C1109 H1121 0.930 . S
C1110 C1106 1.568 . S
C1110 H1122 0.956 . S
C1110 H1123 0.961 . S
C1110 H1124 0.961 . S
C1111 C1108 1.539 . S
C1111 H1125 0.958 . S
C1111 H1126 0.961 . S
C1111 H1127 0.960 . S
H1112 C1096 0.931 . S
H1113 C1101 0.929 . S
H1114 C1102 0.960 . S
H1115 C1102 0.962 . S
H1116 C1102 0.960 . S
H1117 C1103 0.961 . S
H1118 C1103 0.961 . S
H1119 C1103 0.961 . S
H1120 C1104 0.931 . S
H1121 C1109 0.930 . S
H1122 C1110 0.956 . S
H1123 C1110 0.961 . S
H1124 C1110 0.961 . S
H1125 C1111 0.958 . S
H1126 C1111 0.961 . S
H1127 C1111 0.960 . S
C1128 C1129 1.391 . S
C1128 C1130 1.394 . S
C1128 H1144 0.931 . S
C1129 C1128 1.391 . S
C1129 C1133 1.376 . S
C1130 C1128 1.394 . S
C1130 C1131 1.369 . S
C1130 C1134 1.531 . S
C1131 C1130 1.369 . S
C1131 C1132 1.410 . S
C1131 C1139 1.503 . S
C1132 C1131 1.410 . S
C1132 C1133 1.392 . S
C1132 C1135 1.511 . S
C1133 C1129 1.376 . S
C1133 C1132 1.392 . S
C1133 H1145 0.929 . S
C1134 C1130 1.531 . S
C1134 H1146 0.960 . S
C1134 H1147 0.962 . S
C1134 H1148 0.960 . S
C1135 C1132 1.511 . S
C1135 H1149 0.961 . S
C1135 H1150 0.961 . S
C1135 H1151 0.961 . S
C1136 C1137 1.370 . S
C1136 C1138 1.363 . S
C1136 H1152 0.931 . S
C1137 C1136 1.370 . S
C1137 C1141 1.408 . S
C1138 C1136 1.363 . S
C1138 C1139 1.370 . S
C1138 C1142 1.524 . S
C1139 C1131 1.503 . S
C1139 C1138 1.370 . S
C1139 C1140 1.403 . S
C1140 C1139 1.403 . S
C1140 C1141 1.404 . S
C1140 C1143 1.539 . S
C1141 C1137 1.408 . S
C1141 C1140 1.404 . S
C1141 H1153 0.930 . S
C1142 C1138 1.524 . S
C1142 H1154 0.956 . S
C1142 H1155 0.961 . S
C1142 H1156 0.961 . S
C1143 C1140 1.539 . S
C1143 H1157 0.958 . S
C1143 H1158 0.961 . S
C1143 H1159 0.960 . S
H1144 C1128 0.931 . S
H1145 C1133 0.929 . S
H1146 C1134 0.960 . S
H1147 C1134 0.962 . S
H1148 C1134 0.960 . S
H1149 C1135 0.961 . S
H1150 C1135 0.961 . S
H1151 C1135 0.961 . S
H1152 C1136 0.931 . S
H1153 C1141 0.930 . S
H1154 C1142 0.956 . S
H1155 C1142 0.961 . S
H1156 C1142 0.961 . S
H1157 C1143 0.958 . S
H1158 C1143 0.961 . S
H1159 C1143 0.960 . S
C1160 C1161 1.391 . S
C1160 C1162 1.394 . S
C1160 H1176 0.931 . S
C1161 C1160 1.391 . S
C1161 C1165 1.376 . S
C1162 C1160 1.394 . S
C1162 C1163 1.369 1_565 S
C1162 C1166 1.531 1_565 S
C1163 C1162 1.369 1_545 S
C1163 C1164 1.410 1_545 S
C1163 C1171 1.503 . S
C1164 C1163 1.410 1_565 S
C1164 C1165 1.392 . S
C1164 C1167 1.511 1_565 S
C1165 C1161 1.376 . S
C1165 C1164 1.392 . S
C1165 H1177 0.929 . S
C1166 C1162 1.531 1_545 S
C1166 H1178 0.960 . S
C1166 H1179 0.962 . S
C1166 H1180 0.960 . S
C1167 C1164 1.511 1_545 S
C1167 H1181 0.961 1_545 S
C1167 H1182 0.961 . S
C1167 H1183 0.961 . S
C1168 C1169 1.370 . S
C1168 C1170 1.363 . S
C1168 H1184 0.931 . S
C1169 C1168 1.370 . S
C1169 C1173 1.408 . S
C1170 C1168 1.363 . S
C1170 C1171 1.370 . S
C1170 C1174 1.524 . S
C1171 C1163 1.503 . S
C1171 C1170 1.370 . S
C1171 C1172 1.403 . S
C1172 C1171 1.403 . S
C1172 C1173 1.404 . S
C1172 C1175 1.539 . S
C1173 C1169 1.408 . S
C1173 C1172 1.404 . S
C1173 H1185 0.930 . S
C1174 C1170 1.524 . S
C1174 H1186 0.956 . S
C1174 H1187 0.955 1_545 S
C1174 H1188 0.961 . S
C1175 C1172 1.539 . S
C1175 H1189 0.958 . S
C1175 H1190 0.961 . S
C1175 H1191 0.960 . S
H1176 C1160 0.931 . S
H1177 C1165 0.929 . S
H1178 C1166 0.960 . S
H1179 C1166 0.962 . S
H1180 C1166 0.960 . S
H1181 C1167 0.961 1_565 S
H1182 C1167 0.961 . S
H1183 C1167 0.961 . S
H1184 C1168 0.931 . S
H1185 C1173 0.930 . S
H1186 C1174 0.956 . S
H1187 C1174 0.955 1_565 S
H1188 C1174 0.961 . S
H1189 C1175 0.958 . S
H1190 C1175 0.961 . S
H1191 C1175 0.960 . S
C1192 C1193 1.391 . S
C1192 C1194 1.394 . S
C1192 H1208 0.931 . S
C1193 C1192 1.391 . S
C1193 C1197 1.376 . S
C1194 C1192 1.394 . S
C1194 C1195 1.369 . S
C1194 C1198 1.531 . S
C1195 C1194 1.369 . S
C1195 C1196 1.410 . S
C1195 C1203 1.503 1_655 S
C1196 C1195 1.410 . S
C1196 C1197 1.392 . S
C1196 C1199 1.511 1_655 S
C1197 C1193 1.376 . S
C1197 C1196 1.392 . S
C1197 H1209 0.929 . S
C1198 C1194 1.531 . S
C1198 H1210 0.960 . S
C1198 H1211 0.962 . S
C1198 H1212 0.960 . S
C1199 C1196 1.511 1_455 S
C1199 H1213 0.961 . S
C1199 H1214 0.961 . S
C1199 H1215 0.961 . S
C1200 C1201 1.370 . S
C1200 C1202 1.376 . S
C1200 H1216 0.931 . S
C1201 C1200 1.370 . S
C1201 C1205 1.408 . S
C1202 C1200 1.376 . S
C1202 C1203 1.361 . S
C1202 C1206 1.521 1_455 S
C1203 C1195 1.503 1_455 S
C1203 C1202 1.361 . S
C1203 C1204 1.403 . S
C1204 C1203 1.403 . S
C1204 C1205 1.404 . S
C1204 C1207 1.539 . S
C1205 C1201 1.408 . S
C1205 C1204 1.404 . S
C1205 H1217 0.930 . S
C1206 C1202 1.521 1_655 S
C1206 H1218 0.956 . S
C1206 H1219 0.961 . S
C1206 H1220 0.961 . S
C1207 C1204 1.539 . S
C1207 H1221 0.958 . S
C1207 H1222 0.961 . S
C1207 H1223 0.960 . S
H1208 C1192 0.931 . S
H1209 C1197 0.929 . S
H1210 C1198 0.960 . S
H1211 C1198 0.962 . S
H1212 C1198 0.960 . S
H1213 C1199 0.961 . S
H1214 C1199 0.961 . S
H1215 C1199 0.961 . S
H1216 C1200 0.931 . S
H1217 C1205 0.930 . S
H1218 C1206 0.956 . S
H1219 C1206 0.961 . S
H1220 C1206 0.961 . S
H1221 C1207 0.958 . S
H1222 C1207 0.961 . S
H1223 C1207 0.960 . S
C361 C2 3.432 . S
C369 C15 3.434 . S
C393 C55 3.487 . S
C401 C42 3.499 . S
C425 C82 3.519 . S
C433 C95 3.526 . S
C457 C135 3.424 . S
C465 C122 3.437 . S
C489 C162 3.494 . S
C497 C175 3.496 1_556 S
C521 C215 3.515 . S
C529 C202 3.528 1_556 S
C553 C249 2.589 . S
C561 C266 2.537 . S
C585 C306 2.837 . S
C593 C289 2.870 . S
C617 C329 2.076 . S
C625 C346 2.108 . S
C649 C222 1.706 . S
C657 C9 1.699 . S
C681 C62 2.651 . S
C689 C142 2.683 . S
C713 C89 1.138 . S
C721 C169 1.144 . S
C745 C102 2.979 . S
C753 C243 3.056 . S
C777 C295 1.256 . S
C785 C22 1.252 1_556 S
C809 C323 1.808 . S
C817 C49 1.705 . S
C841 C322 0.847 . S
C849 C26 0.856 . S
C873 C43 2.228 . S
C881 C242 2.249 . S
C905 C302 2.688 . S
C913 C106 2.619 . S
C937 C83 1.700 . S
C945 C146 1.698 . S
C969 C163 2.655 . S
C977 C3 2.683 . S
C1001 C66 1.124 . S
C1009 C226 1.130 . S
C1033 C335 0.846 . S
C1041 C129 0.849 . S
C1065 C255 2.242 . S
C1073 C182 2.244 . S
C1097 C283 2.697 . S
C1105 C209 2.607 . S
C1129 C262 3.040 . S
C1137 C203 2.998 . S
C1161 C123 1.271 . S
C1169 C282 1.267 . S
C1193 C342 1.807 . S
C1201 C186 1.708 . S
