# Generated by pormake.
# Topology mok, (4)-cn, num edge types: 1
# Building blocks:
#     Node 0, Type 0, BuildingBlock: GALJAG_clean_sbu_0, # of connection points: 4
#     Node 1, Type 0, BuildingBlock: GALJAG_clean_sbu_0, # of connection points: 4
#     Node 2, Type 0, BuildingBlock: GALJAG_clean_sbu_0, # of connection points: 4
#     Node 3, Type 0, BuildingBlock: GALJAG_clean_sbu_0, # of connection points: 4
#     Node 4, Type 0, BuildingBlock: GALJAG_clean_sbu_0, # of connection points: 4
#     Node 5, Type 0, BuildingBlock: GALJAG_clean_sbu_0, # of connection points: 4
#     Node 6, Type 0, BuildingBlock: GALJAG_clean_sbu_0, # of connection points: 4
#     Node 7, Type 0, BuildingBlock: GALJAG_clean_sbu_0, # of connection points: 4
#     Edge 8, Type (0, 0), BuildingBlock: XIVTED_clean_linker_0, # of connection points: 2
#     Edge 9, Type (0, 0), BuildingBlock: XIVTED_clean_linker_0, # of connection points: 2
#     Edge 10, Type (0, 0), BuildingBlock: XIVTED_clean_linker_0, # of connection points: 2
#     Edge 11, Type (0, 0), BuildingBlock: XIVTED_clean_linker_0, # of connection points: 2
#     Edge 12, Type (0, 0), BuildingBlock: XIVTED_clean_linker_0, # of connection points: 2
#     Edge 13, Type (0, 0), BuildingBlock: XIVTED_clean_linker_0, # of connection points: 2
#     Edge 14, Type (0, 0), BuildingBlock: XIVTED_clean_linker_0, # of connection points: 2
#     Edge 15, Type (0, 0), BuildingBlock: XIVTED_clean_linker_0, # of connection points: 2
#     Edge 16, Type (0, 0), BuildingBlock: XIVTED_clean_linker_0, # of connection points: 2
#     Edge 17, Type (0, 0), BuildingBlock: XIVTED_clean_linker_0, # of connection points: 2
#     Edge 18, Type (0, 0), BuildingBlock: XIVTED_clean_linker_0, # of connection points: 2
#     Edge 19, Type (0, 0), BuildingBlock: XIVTED_clean_linker_0, # of connection points: 2
#     Edge 20, Type (0, 0), BuildingBlock: XIVTED_clean_linker_0, # of connection points: 2
#     Edge 21, Type (0, 0), BuildingBlock: XIVTED_clean_linker_0, # of connection points: 2
#     Edge 22, Type (0, 0), BuildingBlock: XIVTED_clean_linker_0, # of connection points: 2
#     Edge 23, Type (0, 0), BuildingBlock: XIVTED_clean_linker_0, # of connection points: 2
# Relax obj value: 0.070
# Max RMSD: 0.103
# Mean RMSD: 0.103
data_MOF--net-mok--node1-GALJAG_clean_sbu_0--edge1-XIVTED_clean_linker_0
_symmetry_space_group_name_H-M    P1
_symmetry_Int_Tables_number       1
_symmetry_cell_setting            triclinic
loop_
_symmetry_equiv_pos_as_xyz
'x, y, z'
_cell_length_a     55.509032
_cell_length_b     13.96653
_cell_length_c     28.890634
_cell_angle_alpha  90.034455
_cell_angle_beta   89.769208
_cell_angle_gamma 89.964885
loop_
_atom_site_label
_atom_site_type_symbol
_atom_site_fract_x
_atom_site_fract_y
_atom_site_fract_z
_atom_type_partial_charge
In0 In 0.60406 0.31601 0.01142 0.0
O1 O 0.59884 0.44007 0.96068 0.0
O2 O 0.60545 0.29991 0.934 0.0
C3 C 0.59678 0.38278 0.0974 0.0
C4 C 0.56499 0.2046 0.0061 0.0
C5 C 0.6518 0.28534 0.01384 0.0
O6 O 0.59539 0.43672 0.06228 0.0
O7 O 0.60193 0.29654 0.0888 0.0
O8 O 0.63685 0.21695 0.01274 0.0
O9 O 0.64255 0.36788 0.0143 0.0
C10 C 0.6015 0.38703 0.92542 0.0
O11 O 0.58601 0.16965 0.00847 0.0
O12 O 0.56391 0.2949 0.00681 0.0
In13 In 0.3785 0.6834 0.99009 0.0
O14 O 0.39613 0.83075 0.98911 0.0
O15 O 0.41856 0.70656 0.98522 0.0
C16 C 0.33073 0.7111 -0.00377 0.0
C17 C 0.38125 0.61521 0.90345 0.0
C18 C 0.38651 0.6156 0.0755 0.0
O19 O 0.34537 0.78038 -0.00634 0.0
O20 O 0.34028 0.6291 -0.00443 0.0
O21 O 0.38734 0.56156 0.04028 0.0
O22 O 0.38153 0.70204 0.06723 0.0
C23 C 0.41727 0.7968 0.98643 0.0
O24 O 0.38448 0.56179 0.93831 0.0
O25 O 0.37655 0.70156 0.91267 0.0
In26 In 0.60612 0.67831 0.50972 0.0
O27 O 0.59977 0.5576 0.56167 0.0
O28 O 0.60885 0.69648 0.58706 0.0
C29 C 0.59761 0.60894 0.42478 0.0
C30 C 0.56771 0.7939 0.51418 0.0
C31 C 0.65396 0.70292 0.50255 0.0
O32 O 0.59681 0.55582 0.46029 0.0
O33 O 0.60272 0.69546 0.43254 0.0
O34 O 0.63959 0.77317 0.5052 0.0
O35 O 0.64411 0.62157 0.50365 0.0
C36 C 0.60364 0.6107 0.59641 0.0
O37 O 0.58892 0.82671 0.51081 0.0
O38 O 0.56617 0.70376 0.51556 0.0
In39 In 0.38197 0.31952 0.48824 0.0
O40 O 0.39979 0.17279 0.49219 0.0
O41 O 0.42206 0.29749 0.49404 0.0
C42 C 0.33417 0.29147 0.48444 0.0
C43 C 0.384 0.39101 0.57427 0.0
C44 C 0.38966 0.38353 0.40195 0.0
O45 O 0.34887 0.22225 0.48657 0.0
O46 O 0.3437 0.37347 0.48372 0.0
O47 O 0.39066 0.43881 0.43668 0.0
O48 O 0.38481 0.29731 0.41112 0.0
C49 C 0.42085 0.20723 0.49505 0.0
O50 O 0.38751 0.44344 0.53908 0.0
O51 O 0.37948 0.30438 0.56558 0.0
In52 In 0.10349 0.81275 0.01417 0.0
O53 O 0.08573 0.66578 0.01224 0.0
O54 O 0.0633 0.79018 0.01356 0.0
C55 C 0.15132 0.78424 0.01386 0.0
C56 C 0.09911 0.88238 0.92811 0.0
C57 C 0.09805 0.87966 0.1006 0.0
O58 O 0.13657 0.71514 0.01431 0.0
O59 O 0.14184 0.86636 0.01381 0.0
O60 O 0.09553 0.93328 0.06559 0.0
O61 O 0.10328 0.79367 0.09163 0.0
C62 C 0.06458 0.69993 0.01219 0.0
O63 O 0.09725 0.93608 0.96332 0.0
O64 O 0.10314 0.79533 0.93676 0.0
In65 In 0.87864 0.17573 0.98754 0.0
O66 O 0.88576 0.05446 0.93609 0.0
O67 O 0.87811 0.19402 0.90994 0.0
C68 C 0.88464 0.10617 0.07323 0.0
C69 C 0.91747 0.28914 0.98769 0.0
C70 C 0.83085 0.20504 0.99122 0.0
O71 O 0.88606 0.05261 0.0379 0.0
O72 O 0.88015 0.19297 0.06489 0.0
O73 O 0.84568 0.27379 0.98983 0.0
O74 O 0.8402 0.12271 0.99024 0.0
C75 C 0.88311 0.10779 0.90102 0.0
O76 O 0.8963 0.32303 0.98813 0.0
O77 O 0.9188 0.19891 0.98662 0.0
In78 In 0.10753 0.17916 0.5135 0.0
O79 O 0.10042 0.06046 0.56617 0.0
O80 O 0.10892 0.20044 0.59089 0.0
C81 C 0.10085 0.1072 0.42846 0.0
C82 C 0.06856 0.29201 0.51393 0.0
C83 C 0.15535 0.20594 0.5081 0.0
O84 O 0.09977 0.05464 0.46416 0.0
O85 O 0.10533 0.1943 0.43613 0.0
O86 O 0.14074 0.27557 0.50921 0.0
O87 O 0.14576 0.12418 0.51025 0.0
C88 C 0.1036 0.11494 0.60068 0.0
O89 O 0.08968 0.32634 0.51255 0.0
O90 O 0.06739 0.2018 0.51555 0.0
In91 In 0.88111 0.80841 0.48694 0.0
O92 O 0.89914 0.66183 0.49014 0.0
O93 O 0.92129 0.78689 0.48823 0.0
C94 C 0.83322 0.78194 0.48633 0.0
C95 C 0.88524 0.87992 0.57269 0.0
C96 C 0.88675 0.87233 0.40011 0.0
O97 O 0.84778 0.71209 0.48672 0.0
O98 O 0.84292 0.86361 0.48611 0.0
O99 O 0.88881 0.92743 0.43473 0.0
O100 O 0.8819 0.78628 0.40966 0.0
C101 C 0.92022 0.69667 0.49021 0.0
O102 O 0.8878 0.93231 0.5372 0.0
O103 O 0.88056 0.79319 0.56447 0.0
H104 H 0.80577 0.37374 -0.00338 0.0
H105 H 0.67682 0.11625 0.01007 0.0
H106 H 0.79614 0.06718 -0.0059 0.0
H107 H 0.68664 0.42259 0.01507 0.0
H108 H 0.72059 0.09639 0.0052 0.0
H109 H 0.76209 0.39323 0.00377 0.0
C110 C 0.79445 0.31061 -0.00251 0.0
C111 C 0.80455 0.21879 -0.00528 0.0
C112 C 0.71316 0.16795 0.00749 0.0
C113 C 0.75465 0.24029 0.003 0.0
C114 C 0.6882 0.17923 0.01034 0.0
C115 C 0.67813 0.27113 0.01289 0.0
C116 C 0.72811 0.24922 0.00712 0.0
C117 C 0.69367 0.35037 0.01308 0.0
C118 C 0.76953 0.32168 0.00165 0.0
C119 C 0.78908 0.13935 -0.0039 0.0
N120 N 0.71787 0.3376 0.01012 0.0
N121 N 0.76491 0.15193 0.00013 0.0
H122 H 0.17688 0.6162 0.01317 0.0
H123 H 0.30514 0.8789 -0.00141 0.0
H124 H 0.18573 0.92318 0.01184 0.0
H125 H 0.29645 0.57192 0.00185 0.0
H126 H 0.26135 0.89676 0.00404 0.0
H127 H 0.22074 0.59817 0.00978 0.0
C128 C 0.18806 0.67972 0.01225 0.0
C129 C 0.17769 0.77124 0.01273 0.0
C130 C 0.26903 0.82548 0.0036 0.0
C131 C 0.22777 0.75141 0.00876 0.0
C132 C 0.29401 0.81534 0.00047 0.0
C133 C 0.3044 0.72387 -0.00029 0.0
C134 C 0.25437 0.74351 0.00594 0.0
C135 C 0.28917 0.64384 0.00228 0.0
C136 C 0.21307 0.66948 0.0103 0.0
C137 C 0.19299 0.85121 0.01149 0.0
N138 N 0.26493 0.65552 0.00524 0.0
N139 N 0.21724 0.83944 0.0095 0.0
H140 H 0.79929 0.92283 0.48619 0.0
H141 H 0.68766 0.56136 0.49646 0.0
H142 H 0.80704 0.61536 0.48766 0.0
H143 H 0.68024 0.86892 0.49969 0.0
H144 H 0.7313 0.57954 0.49087 0.0
H145 H 0.75563 0.90423 0.48867 0.0
C146 C 0.79178 0.85126 0.48695 0.0
C147 C 0.8068 0.77042 0.48682 0.0
C148 C 0.72016 0.6431 0.49277 0.0
C149 C 0.75676 0.74863 0.48972 0.0
C150 C 0.69523 0.63283 0.49596 0.0
C151 C 0.68033 0.71385 0.49866 0.0
C152 C 0.7303 0.73513 0.49225 0.0
C153 C 0.69109 0.8046 0.49777 0.0
C154 C 0.76683 0.84074 0.48839 0.0
C155 C 0.7961 0.67954 0.48779 0.0
N156 N 0.71545 0.81279 0.49469 0.0
N157 N 0.77171 0.67109 0.48926 0.0
H158 H 0.18953 0.06586 0.5059 0.0
H159 H 0.29982 0.43053 0.47954 0.0
H160 H 0.18104 0.37279 0.50002 0.0
H161 H 0.30849 0.12425 0.49022 0.0
H162 H 0.25622 0.41032 0.48389 0.0
H163 H 0.23301 0.08553 0.49777 0.0
C164 C 0.19684 0.13752 0.50295 0.0
C165 C 0.18167 0.21792 0.50375 0.0
C166 C 0.26762 0.34745 0.48517 0.0
C167 C 0.23147 0.24091 0.49428 0.0
C168 C 0.29253 0.35888 0.48262 0.0
C169 C 0.30779 0.27887 0.48468 0.0
C170 C 0.25785 0.25529 0.48988 0.0
C171 C 0.29736 0.18782 0.48858 0.0
C172 C 0.22168 0.14864 0.49825 0.0
C173 C 0.1921 0.30894 0.49968 0.0
N174 N 0.27302 0.17851 0.49119 0.0
N175 N 0.21638 0.31797 0.49513 0.0
H176 H 0.58936 0.56686 0.12716 0.0
H177 H 0.59163 0.4234 0.3958 0.0
H178 H 0.5962 0.27647 0.17641 0.0
H179 H 0.59463 0.71434 0.34586 0.0
H180 H 0.588 0.36744 0.31571 0.0
H181 H 0.58601 0.62175 0.20745 0.0
C182 C 0.59002 0.51469 0.15486 0.0
C183 C 0.5933 0.4172 0.14522 0.0
C184 C 0.58932 0.44356 0.32235 0.0
C185 C 0.58949 0.47912 0.23694 0.0
C186 C 0.59135 0.47542 0.36801 0.0
C187 C 0.59368 0.57345 0.37735 0.0
C188 C 0.58955 0.51036 0.28594 0.0
C189 C 0.59311 0.63797 0.34014 0.0
C190 C 0.58813 0.54596 0.20065 0.0
C191 C 0.59391 0.35247 0.18236 0.0
N192 N 0.59122 0.60528 0.29608 0.0
N193 N 0.59214 0.38462 0.22658 0.0
H194 H 0.39006 0.72358 0.15354 0.0
H195 H 0.39167 0.27427 0.32388 0.0
H196 H 0.39208 0.43073 0.10593 0.0
H197 H 0.39511 0.56748 0.37058 0.0
H198 H 0.39422 0.32966 0.24392 0.0
H199 H 0.39425 0.66753 0.23297 0.0
C200 C 0.39148 0.64731 0.15983 0.0
C201 C 0.3905 0.58153 0.12316 0.0
C202 C 0.39458 0.38194 0.2716 0.0
C203 C 0.39522 0.5168 0.21417 0.0
C204 C 0.3931 0.35042 0.31728 0.0
C205 C 0.39296 0.41657 0.35386 0.0
C206 C 0.39577 0.48045 0.26236 0.0
C207 C 0.39503 0.51418 0.34336 0.0
C208 C 0.39393 0.6154 0.20522 0.0
C209 C 0.39264 0.48374 0.13326 0.0
N210 N 0.39615 0.54325 0.29851 0.0
N211 N 0.39471 0.45423 0.17792 0.0
H212 H 0.38676 0.43072 0.87284 0.0
H213 H 0.38844 0.57664 0.60445 0.0
H214 H 0.37942 0.72162 0.82456 0.0
H215 H 0.38173 0.28584 0.65329 0.0
H216 H 0.38891 0.63195 0.68505 0.0
H217 H 0.38868 0.37642 0.79228 0.0
C218 C 0.38561 0.48307 0.84528 0.0
C219 C 0.38284 0.58064 0.8553 0.0
C220 C 0.38735 0.55604 0.67804 0.0
C221 C 0.38509 0.51944 0.76329 0.0
C222 C 0.38714 0.52456 0.63211 0.0
C223 C 0.38495 0.42669 0.62227 0.0
C224 C 0.38554 0.48898 0.71419 0.0
C225 C 0.38333 0.36207 0.65935 0.0
C226 C 0.38666 0.45215 0.79935 0.0
C227 C 0.38146 0.6456 0.81833 0.0
N228 N 0.38367 0.39434 0.70363 0.0
N229 N 0.38261 0.61386 0.77396 0.0
H230 H 0.5987 0.57314 0.89545 0.0
H231 H 0.5965 0.42727 0.62707 0.0
H232 H 0.6017 0.28141 0.84636 0.0
H233 H 0.60731 0.71658 0.67527 0.0
H234 H 0.59464 0.37323 0.70762 0.0
H235 H 0.59807 0.62849 0.81492 0.0
C236 C 0.59914 0.52087 0.86774 0.0
C237 C 0.60035 0.42271 0.87748 0.0
C238 C 0.59741 0.44855 0.70053 0.0
C239 C 0.59958 0.48505 0.78565 0.0
C240 C 0.59844 0.47933 0.65461 0.0
C241 C 0.60215 0.57635 0.64457 0.0
C242 C 0.59997 0.51546 0.73657 0.0
C243 C 0.60451 0.64097 0.68152 0.0
C244 C 0.59883 0.55236 0.82186 0.0
C245 C 0.60087 0.35785 0.84036 0.0
N246 N 0.60337 0.60937 0.72589 0.0
N247 N 0.60048 0.39016 0.79611 0.0
H248 H 0.09063 0.06338 0.13089 0.0
H249 H 0.09652 0.92076 0.39953 0.0
H250 H 0.09999 0.77374 0.17964 0.0
H251 H 0.09783 0.21172 0.34935 0.0
H252 H 0.09327 0.8642 0.31942 0.0
H253 H 0.08868 0.1182 0.21135 0.0
C254 C 0.09215 0.01136 0.15853 0.0
C255 C 0.09564 0.91409 0.14867 0.0
C256 C 0.09418 0.94044 0.32603 0.0
C257 C 0.09345 0.97594 0.24058 0.0
C258 C 0.09599 0.97262 0.37169 0.0
C259 C 0.09762 0.07089 0.38097 0.0
C260 C 0.09389 0.00717 0.28958 0.0
C261 C 0.0968 0.1352 0.34368 0.0
C262 C 0.09108 0.0426 0.20441 0.0
C263 C 0.09744 0.84956 0.18574 0.0
N264 N 0.09505 0.10222 0.29966 0.0
N265 N 0.0964 0.88166 0.23006 0.0
H266 H 0.88611 0.76343 0.32183 0.0
H267 H 0.88708 0.21321 0.15168 0.0
H268 H 0.89275 0.05578 0.36852 0.0
H269 H 0.88885 0.92064 0.10362 0.0
H270 H 0.89003 0.1564 0.23117 0.0
H271 H 0.88799 0.8189 0.24179 0.0
C272 C 0.88807 0.83939 0.31521 0.0
C273 C 0.88914 0.9053 0.35183 0.0
C274 C 0.8899 0.10448 0.20332 0.0
C275 C 0.89121 0.96922 0.26028 0.0
C276 C 0.88817 0.13683 0.15789 0.0
C277 C 0.88758 0.07138 0.12105 0.0
C278 C 0.89088 0.00579 0.21214 0.0
C279 C 0.88919 0.97341 0.13107 0.0
C280 C 0.88918 0.87092 0.26949 0.0
C281 C 0.89179 0.00266 0.34129 0.0
N282 N 0.89061 0.94347 0.17577 0.0
N283 N 0.89258 0.03176 0.29643 0.0
H284 H 0.88973 0.06598 0.60211 0.0
H285 H 0.88993 0.92354 0.87103 0.0
H286 H 0.88516 0.77536 0.65206 0.0
H287 H 0.88175 0.21339 0.8218 0.0
H288 H 0.89254 0.86842 0.79068 0.0
H289 H 0.89118 0.12236 0.68247 0.0
C290 C 0.88915 0.01414 0.62997 0.0
C291 C 0.88717 0.91604 0.62051 0.0
C292 C 0.89022 0.94411 0.79749 0.0
C293 C 0.88886 0.97957 0.71219 0.0
C294 C 0.88876 0.97552 0.84331 0.0
C295 C 0.88547 0.07298 0.853 0.0
C296 C 0.88849 0.0108 0.7612 0.0
C297 C 0.88414 0.13744 0.81582 0.0
C298 C 0.88992 0.04624 0.67576 0.0
C299 C 0.88652 0.85176 0.65783 0.0
N300 N 0.88562 0.1052 0.77156 0.0
N301 N 0.88733 0.88465 0.70199 0.0
H302 H 0.09665 0.77546 0.84963 0.0
H303 H 0.1065 0.22311 0.67905 0.0
H304 H 0.09766 0.0683 0.89733 0.0
H305 H 0.09528 0.93302 0.63236 0.0
H306 H 0.10335 0.16838 0.7591 0.0
H307 H 0.09596 0.83228 0.76992 0.0
C308 C 0.09665 0.85192 0.84329 0.0
C309 C 0.09735 0.9174 0.8801 0.0
C310 C 0.10148 0.11672 0.73139 0.0
C311 C 0.09669 0.98298 0.78877 0.0
C312 C 0.10334 0.1478 0.68567 0.0
C313 C 0.10126 0.0823 0.64904 0.0
C314 C 0.09765 0.01925 0.7406 0.0
C315 C 0.09706 0.98579 0.65959 0.0
C316 C 0.09621 0.88428 0.79773 0.0
C317 C 0.09716 0.01551 0.8699 0.0
N318 N 0.09551 0.95709 0.70444 0.0
N319 N 0.09702 0.04541 0.8251 0.0
H320 H 0.46394 0.73753 0.98155 0.0
H321 H 0.51843 0.26562 0.00193 0.0
H322 H 0.42018 0.99237 0.99138 0.0
H323 H 0.56188 0.00921 0.00096 0.0
H324 H 0.48231 0.1673 -0.00514 0.0
H325 H 0.50005 0.83659 0.98485 0.0
C326 C 0.46194 0.81452 0.98424 0.0
C327 C 0.43905 0.85694 0.98635 0.0
C328 C 0.49973 0.13245 -0.00381 0.0
C329 C 0.48033 0.97071 0.9903 0.0
C330 C 0.52036 0.18848 0.00025 0.0
C331 C 0.54316 0.14532 0.00214 0.0
C332 C 0.5019 0.03245 -0.00607 0.0
C333 C 0.54463 0.04526 -0.00027 0.0
C334 C 0.48258 0.87098 0.9862 0.0
C335 C 0.4375 0.95687 0.98974 0.0
N336 N 0.52425 0.99213 -0.00424 0.0
N337 N 0.4579 0.01044 -0.00828 0.0
H338 H 0.52094 0.73696 0.52093 0.0
H339 H 0.4675 0.26686 0.50007 0.0
H340 H 0.56526 0.98962 0.50885 0.0
H341 H 0.4236 0.01185 0.50081 0.0
H342 H 0.50343 0.16741 0.50761 0.0
H343 H 0.48506 0.83756 0.51846 0.0
C344 C 0.52312 0.8138 0.51792 0.0
C345 C 0.5461 0.85513 0.51488 0.0
C346 C 0.48596 0.13313 0.50614 0.0
C347 C 0.50507 0.97068 0.51188 0.0
C348 C 0.46543 0.18981 0.50181 0.0
C349 C 0.44256 0.14736 0.49964 0.0
C350 C 0.48361 0.03321 0.50838 0.0
C351 C 0.44092 0.04737 0.5022 0.0
C352 C 0.50261 0.87115 0.51644 0.0
C353 C 0.54786 0.95495 0.51117 0.0
N354 N 0.46119 0.99362 0.50641 0.0
N355 N 0.52759 0.00941 0.50964 0.0
H356 H 0.0178 0.75907 0.01238 0.0
H357 H 0.96426 0.23031 0.98686 0.0
H358 H 0.06185 0.50463 0.00555 0.0
H359 H 0.92015 0.48458 -0.00619 0.0
H360 H 0.0002 0.32976 -0.00686 0.0
H361 H 0.98184 0.65976 0.00574 0.0
C362 C 0.01989 0.68214 0.00958 0.0
C363 C 0.04282 0.63986 0.00949 0.0
C364 C 0.98268 0.36393 -0.00678 0.0
C365 C 0.00174 0.52583 0.00172 0.0
C366 C 0.96215 0.30724 0.98957 0.0
C367 C 0.93921 0.34941 0.98984 0.0
C368 C 0.98028 0.46364 -0.00279 0.0
C369 C 0.93752 0.44928 -0.00656 0.0
C370 C -0.00065 0.62553 0.00573 0.0
C371 C 0.04449 0.54001 0.00578 0.0
N372 N 0.95781 0.50307 -0.00294 0.0
N373 N 0.0242 0.48632 0.00199 0.0
H374 H 0.02195 0.2318 0.51701 0.0
H375 H 0.9668 0.75768 0.48984 0.0
H376 H 0.06536 0.48728 0.50676 0.0
H377 H 0.92351 0.5016 0.49806 0.0
H378 H 0.00306 0.66007 0.49671 0.0
H379 H 0.98571 0.32978 0.51145 0.0
C380 C 0.02384 0.3087 0.51372 0.0
C381 C 0.04668 0.35162 0.51228 0.0
C382 C 0.98566 0.62511 0.49699 0.0
C383 C 0.00524 0.46418 0.50573 0.0
C384 C 0.96494 0.68075 0.49302 0.0
C385 C 0.94213 0.63751 0.49337 0.0
C386 C 0.98358 0.5254 0.50139 0.0
C387 C 0.94076 0.5377 0.49759 0.0
C388 C 0.00313 0.36456 0.51048 0.0
C389 C 0.04808 0.45142 0.50801 0.0
N390 N 0.96123 0.48495 0.50148 0.0
N391 N 0.02761 0.5044 0.50479 0.0
loop_
_geom_bond_atom_site_label_1
_geom_bond_atom_site_label_2
_geom_bond_distance
_geom_bond_site_symmetry_2
_ccdc_geom_bond_type
In0 O1 2.294 1_554 S
In0 O2 2.326 1_554 S
In0 O6 2.266 . S
In0 O7 2.326 . S
In0 O8 2.266 . S
In0 O9 2.326 . S
In0 O11 2.292 1_554 S
In0 O12 2.326 . S
O1 In0 2.294 1_556 S
O1 C10 1.240 . S
O2 In0 2.326 1_556 S
O2 C10 1.252 . S
C3 O6 1.252 . S
C3 O7 1.260 . S
C4 O11 1.240 . S
C4 O12 1.252 1_556 S
C5 O8 1.252 . S
C5 O9 1.260 . S
O6 In0 2.266 . S
O6 C3 1.252 . S
O7 In0 2.326 . S
O7 C3 1.260 . S
O8 In0 2.266 . S
O8 C5 1.252 . S
O9 In0 2.326 . S
O9 C5 1.260 . S
C10 O1 1.240 . S
C10 O2 1.252 . S
O11 In0 2.292 1_556 S
O11 C4 1.240 . S
O12 In0 2.326 . S
O12 C4 1.252 1_554 S
In13 O14 2.292 1_554 S
In13 O15 2.326 . S
In13 O19 2.266 . S
In13 O20 2.326 . S
In13 O21 2.266 . S
In13 O22 2.326 . S
In13 O24 2.294 1_554 S
In13 O25 2.326 1_554 S
O14 In13 2.292 1_556 S
O14 C23 1.240 . S
O15 In13 2.326 . S
O15 C23 1.252 1_554 S
C16 O19 1.252 . S
C16 O20 1.260 . S
C17 O24 1.240 . S
C17 O25 1.252 . S
C18 O21 1.252 . S
C18 O22 1.260 . S
O19 In13 2.266 . S
O19 C16 1.252 . S
O20 In13 2.326 . S
O20 C16 1.260 . S
O21 In13 2.266 . S
O21 C18 1.252 . S
O22 In13 2.326 . S
O22 C18 1.260 . S
C23 O14 1.240 . S
C23 O15 1.252 1_556 S
O24 In13 2.294 1_556 S
O24 C17 1.240 . S
O25 In13 2.326 1_556 S
O25 C17 1.252 . S
In26 O27 2.294 . S
In26 O28 2.326 . S
In26 O32 2.266 . S
In26 O33 2.326 . S
In26 O34 2.266 . S
In26 O35 2.326 . S
In26 O37 2.294 . S
In26 O38 2.326 . S
O27 In26 2.294 . S
O27 C36 1.240 . S
O28 In26 2.326 . S
O28 C36 1.252 . S
C29 O32 1.252 . S
C29 O33 1.260 . S
C30 O37 1.240 . S
C30 O38 1.252 . S
C31 O34 1.252 . S
C31 O35 1.260 . S
O32 In26 2.266 . S
O32 C29 1.252 . S
O33 In26 2.326 . S
O33 C29 1.260 . S
O34 In26 2.266 . S
O34 C31 1.252 . S
O35 In26 2.326 . S
O35 C31 1.260 . S
C36 O27 1.240 . S
C36 O28 1.252 . S
O37 In26 2.294 . S
O37 C30 1.240 . S
O38 In26 2.326 . S
O38 C30 1.252 . S
In39 O40 2.294 . S
In39 O41 2.326 . S
In39 O45 2.266 . S
In39 O46 2.326 . S
In39 O47 2.266 . S
In39 O48 2.326 . S
In39 O50 2.294 . S
In39 O51 2.326 . S
O40 In39 2.294 . S
O40 C49 1.240 . S
O41 In39 2.326 . S
O41 C49 1.252 . S
C42 O45 1.252 . S
C42 O46 1.260 . S
C43 O50 1.240 . S
C43 O51 1.252 . S
C44 O47 1.252 . S
C44 O48 1.260 . S
O45 In39 2.266 . S
O45 C42 1.252 . S
O46 In39 2.326 . S
O46 C42 1.260 . S
O47 In39 2.266 . S
O47 C44 1.252 . S
O48 In39 2.326 . S
O48 C44 1.260 . S
C49 O40 1.240 . S
C49 O41 1.252 . S
O50 In39 2.294 . S
O50 C43 1.240 . S
O51 In39 2.326 . S
O51 C43 1.252 . S
In52 O53 2.292 1_554 S
In52 O54 2.326 . S
In52 O58 2.266 . S
In52 O59 2.326 . S
In52 O60 2.266 . S
In52 O61 2.326 . S
In52 O63 2.294 1_554 S
In52 O64 2.326 1_554 S
O53 In52 2.292 1_556 S
O53 C62 1.240 . S
O54 In52 2.326 . S
O54 C62 1.252 1_554 S
C55 O58 1.252 . S
C55 O59 1.260 . S
C56 O63 1.240 . S
C56 O64 1.252 . S
C57 O60 1.252 . S
C57 O61 1.260 . S
O58 In52 2.266 . S
O58 C55 1.252 . S
O59 In52 2.326 . S
O59 C55 1.260 . S
O60 In52 2.266 . S
O60 C57 1.252 . S
O61 In52 2.326 . S
O61 C57 1.260 . S
C62 O53 1.240 . S
C62 O54 1.252 1_556 S
O63 In52 2.294 1_556 S
O63 C56 1.240 . S
O64 In52 2.326 1_556 S
O64 C56 1.252 . S
In65 O66 2.294 1_554 S
In65 O67 2.326 1_554 S
In65 O71 2.266 . S
In65 O72 2.326 . S
In65 O73 2.266 . S
In65 O74 2.326 . S
In65 O76 2.292 1_554 S
In65 O77 2.326 . S
O66 In65 2.294 1_556 S
O66 C75 1.240 . S
O67 In65 2.326 1_556 S
O67 C75 1.252 . S
C68 O71 1.252 . S
C68 O72 1.260 . S
C69 O76 1.240 . S
C69 O77 1.252 1_556 S
C70 O73 1.252 . S
C70 O74 1.260 . S
O71 In65 2.266 . S
O71 C68 1.252 . S
O72 In65 2.326 . S
O72 C68 1.260 . S
O73 In65 2.266 . S
O73 C70 1.252 . S
O74 In65 2.326 . S
O74 C70 1.260 . S
C75 O66 1.240 . S
C75 O67 1.252 . S
O76 In65 2.292 1_556 S
O76 C69 1.240 . S
O77 In65 2.326 . S
O77 C69 1.252 1_554 S
In78 O79 2.294 . S
In78 O80 2.326 . S
In78 O84 2.266 . S
In78 O85 2.326 . S
In78 O86 2.266 . S
In78 O87 2.326 . S
In78 O89 2.294 . S
In78 O90 2.326 . S
O79 In78 2.294 . S
O79 C88 1.240 . S
O80 In78 2.326 . S
O80 C88 1.252 . S
C81 O84 1.252 . S
C81 O85 1.260 . S
C82 O89 1.240 . S
C82 O90 1.252 . S
C83 O86 1.252 . S
C83 O87 1.260 . S
O84 In78 2.266 . S
O84 C81 1.252 . S
O85 In78 2.326 . S
O85 C81 1.260 . S
O86 In78 2.266 . S
O86 C83 1.252 . S
O87 In78 2.326 . S
O87 C83 1.260 . S
C88 O79 1.240 . S
C88 O80 1.252 . S
O89 In78 2.294 . S
O89 C82 1.240 . S
O90 In78 2.326 . S
O90 C82 1.252 . S
In91 O92 2.294 . S
In91 O93 2.326 . S
In91 O97 2.266 . S
In91 O98 2.326 . S
In91 O99 2.266 . S
In91 O100 2.326 . S
In91 O102 2.294 . S
In91 O103 2.326 . S
O92 In91 2.294 . S
O92 C101 1.240 . S
O93 In91 2.326 . S
O93 C101 1.252 . S
C94 O97 1.252 . S
C94 O98 1.260 . S
C95 O102 1.240 . S
C95 O103 1.252 . S
C96 O99 1.252 . S
C96 O100 1.260 . S
O97 In91 2.266 . S
O97 C94 1.252 . S
O98 In91 2.326 . S
O98 C94 1.260 . S
O99 In91 2.266 . S
O99 C96 1.252 . S
O100 In91 2.326 . S
O100 C96 1.260 . S
C101 O92 1.240 . S
C101 O93 1.252 . S
O102 In91 2.294 . S
O102 C95 1.240 . S
O103 In91 2.326 . S
O103 C95 1.252 . S
H104 C110 0.930 1_556 S
H105 C114 0.930 . S
H106 C119 0.929 . S
H107 C117 0.929 1_556 S
H108 C112 0.929 . S
H109 C118 0.929 1_556 S
C110 H104 0.930 1_554 S
C110 C111 1.367 . S
C110 C118 1.378 . S
C111 C110 1.367 . S
C111 C119 1.433 . S
C112 H108 0.929 . S
C112 C114 1.378 . S
C112 C116 1.350 . S
C113 C116 1.463 . S
C113 C118 1.350 . S
C113 N121 1.427 . S
C114 H105 0.930 . S
C114 C112 1.378 . S
C114 C115 1.367 . S
C115 C114 1.367 . S
C115 C117 1.433 . S
C116 C112 1.350 . S
C116 C113 1.463 . S
C116 N120 1.427 . S
C117 H107 0.929 1_554 S
C117 C115 1.433 . S
C117 N120 1.384 . S
C118 H109 0.929 1_554 S
C118 C110 1.378 . S
C118 C113 1.350 . S
C119 H106 0.929 . S
C119 C111 1.433 . S
C119 N121 1.384 . S
N120 C116 1.427 . S
N120 C117 1.384 . S
N121 C113 1.427 . S
N121 C119 1.384 . S
H122 C128 0.930 . S
H123 C132 0.930 1_556 S
H124 C137 0.929 1_556 S
H125 C135 0.929 . S
H126 C130 0.929 1_556 S
H127 C136 0.929 . S
C128 H122 0.930 . S
C128 C129 1.367 . S
C128 C136 1.378 . S
C129 C128 1.367 . S
C129 C137 1.433 . S
C130 H126 0.929 1_554 S
C130 C132 1.378 . S
C130 C134 1.350 . S
C131 C134 1.463 . S
C131 C136 1.350 . S
C131 N139 1.427 . S
C132 H123 0.930 1_554 S
C132 C130 1.378 . S
C132 C133 1.367 . S
C133 C132 1.367 . S
C133 C135 1.433 . S
C134 C130 1.350 . S
C134 C131 1.463 . S
C134 N138 1.427 . S
C135 H125 0.929 . S
C135 C133 1.433 . S
C135 N138 1.384 . S
C136 H127 0.929 . S
C136 C128 1.378 . S
C136 C131 1.350 . S
C137 H124 0.929 1_554 S
C137 C129 1.433 . S
C137 N139 1.384 . S
N138 C134 1.427 . S
N138 C135 1.384 . S
N139 C131 1.427 . S
N139 C137 1.384 . S
H140 C146 0.930 . S
H141 C150 0.930 . S
H142 C155 0.929 . S
H143 C153 0.929 . S
H144 C148 0.929 . S
H145 C154 0.929 . S
C146 H140 0.930 . S
C146 C147 1.367 . S
C146 C154 1.378 . S
C147 C146 1.367 . S
C147 C155 1.433 . S
C148 H144 0.929 . S
C148 C150 1.378 . S
C148 C152 1.350 . S
C149 C152 1.463 . S
C149 C154 1.350 . S
C149 N157 1.427 . S
C150 H141 0.930 . S
C150 C148 1.378 . S
C150 C151 1.367 . S
C151 C150 1.367 . S
C151 C153 1.433 . S
C152 C148 1.350 . S
C152 C149 1.463 . S
C152 N156 1.427 . S
C153 H143 0.929 . S
C153 C151 1.433 . S
C153 N156 1.384 . S
C154 H145 0.929 . S
C154 C146 1.378 . S
C154 C149 1.350 . S
C155 H142 0.929 . S
C155 C147 1.433 . S
C155 N157 1.384 . S
N156 C152 1.427 . S
N156 C153 1.384 . S
N157 C149 1.427 . S
N157 C155 1.384 . S
H158 C164 0.930 . S
H159 C168 0.930 . S
H160 C173 0.929 . S
H161 C171 0.929 . S
H162 C166 0.929 . S
H163 C172 0.929 . S
C164 H158 0.930 . S
C164 C165 1.367 . S
C164 C172 1.378 . S
C165 C164 1.367 . S
C165 C173 1.433 . S
C166 H162 0.929 . S
C166 C168 1.378 . S
C166 C170 1.350 . S
C167 C170 1.463 . S
C167 C172 1.350 . S
C167 N175 1.427 . S
C168 H159 0.930 . S
C168 C166 1.378 . S
C168 C169 1.367 . S
C169 C168 1.367 . S
C169 C171 1.433 . S
C170 C166 1.350 . S
C170 C167 1.463 . S
C170 N174 1.427 . S
C171 H161 0.929 . S
C171 C169 1.433 . S
C171 N174 1.384 . S
C172 H163 0.929 . S
C172 C164 1.378 . S
C172 C167 1.350 . S
C173 H160 0.929 . S
C173 C165 1.433 . S
C173 N175 1.384 . S
N174 C170 1.427 . S
N174 C171 1.384 . S
N175 C167 1.427 . S
N175 C173 1.384 . S
H176 C182 0.930 . S
H177 C186 0.930 . S
H178 C191 0.929 . S
H179 C189 0.929 . S
H180 C184 0.929 . S
H181 C190 0.929 . S
C182 H176 0.930 . S
C182 C183 1.367 . S
C182 C190 1.378 . S
C183 C182 1.367 . S
C183 C191 1.433 . S
C184 H180 0.929 . S
C184 C186 1.378 . S
C184 C188 1.350 . S
C185 C188 1.463 . S
C185 C190 1.350 . S
C185 N193 1.427 . S
C186 H177 0.930 . S
C186 C184 1.378 . S
C186 C187 1.367 . S
C187 C186 1.367 . S
C187 C189 1.433 . S
C188 C184 1.350 . S
C188 C185 1.463 . S
C188 N192 1.427 . S
C189 H179 0.929 . S
C189 C187 1.433 . S
C189 N192 1.384 . S
C190 H181 0.929 . S
C190 C182 1.378 . S
C190 C185 1.350 . S
C191 H178 0.929 . S
C191 C183 1.433 . S
C191 N193 1.384 . S
N192 C188 1.427 . S
N192 C189 1.384 . S
N193 C185 1.427 . S
N193 C191 1.384 . S
H194 C200 0.930 . S
H195 C204 0.930 . S
H196 C209 0.929 . S
H197 C207 0.929 . S
H198 C202 0.929 . S
H199 C208 0.929 . S
C200 H194 0.930 . S
C200 C201 1.367 . S
C200 C208 1.378 . S
C201 C200 1.367 . S
C201 C209 1.433 . S
C202 H198 0.929 . S
C202 C204 1.378 . S
C202 C206 1.350 . S
C203 C206 1.463 . S
C203 C208 1.350 . S
C203 N211 1.427 . S
C204 H195 0.930 . S
C204 C202 1.378 . S
C204 C205 1.367 . S
C205 C204 1.367 . S
C205 C207 1.433 . S
C206 C202 1.350 . S
C206 C203 1.463 . S
C206 N210 1.427 . S
C207 H197 0.929 . S
C207 C205 1.433 . S
C207 N210 1.384 . S
C208 H199 0.929 . S
C208 C200 1.378 . S
C208 C203 1.350 . S
C209 H196 0.929 . S
C209 C201 1.433 . S
C209 N211 1.384 . S
N210 C206 1.427 . S
N210 C207 1.384 . S
N211 C203 1.427 . S
N211 C209 1.384 . S
H212 C218 0.930 . S
H213 C222 0.930 . S
H214 C227 0.929 . S
H215 C225 0.929 . S
H216 C220 0.929 . S
H217 C226 0.929 . S
C218 H212 0.930 . S
C218 C219 1.367 . S
C218 C226 1.378 . S
C219 C218 1.367 . S
C219 C227 1.433 . S
C220 H216 0.929 . S
C220 C222 1.378 . S
C220 C224 1.350 . S
C221 C224 1.463 . S
C221 C226 1.350 . S
C221 N229 1.427 . S
C222 H213 0.930 . S
C222 C220 1.378 . S
C222 C223 1.367 . S
C223 C222 1.367 . S
C223 C225 1.433 . S
C224 C220 1.350 . S
C224 C221 1.463 . S
C224 N228 1.427 . S
C225 H215 0.929 . S
C225 C223 1.433 . S
C225 N228 1.384 . S
C226 H217 0.929 . S
C226 C218 1.378 . S
C226 C221 1.350 . S
C227 H214 0.929 . S
C227 C219 1.433 . S
C227 N229 1.384 . S
N228 C224 1.427 . S
N228 C225 1.384 . S
N229 C221 1.427 . S
N229 C227 1.384 . S
H230 C236 0.930 . S
H231 C240 0.930 . S
H232 C245 0.929 . S
H233 C243 0.929 . S
H234 C238 0.929 . S
H235 C244 0.929 . S
C236 H230 0.930 . S
C236 C237 1.367 . S
C236 C244 1.378 . S
C237 C236 1.367 . S
C237 C245 1.433 . S
C238 H234 0.929 . S
C238 C240 1.378 . S
C238 C242 1.350 . S
C239 C242 1.463 . S
C239 C244 1.350 . S
C239 N247 1.427 . S
C240 H231 0.930 . S
C240 C238 1.378 . S
C240 C241 1.367 . S
C241 C240 1.367 . S
C241 C243 1.433 . S
C242 C238 1.350 . S
C242 C239 1.463 . S
C242 N246 1.427 . S
C243 H233 0.929 . S
C243 C241 1.433 . S
C243 N246 1.384 . S
C244 H235 0.929 . S
C244 C236 1.378 . S
C244 C239 1.350 . S
C245 H232 0.929 . S
C245 C237 1.433 . S
C245 N247 1.384 . S
N246 C242 1.427 . S
N246 C243 1.384 . S
N247 C239 1.427 . S
N247 C245 1.384 . S
H248 C254 0.930 . S
H249 C258 0.930 . S
H250 C263 0.929 . S
H251 C261 0.929 . S
H252 C256 0.929 . S
H253 C262 0.929 . S
C254 H248 0.930 . S
C254 C255 1.367 1_545 S
C254 C262 1.378 . S
C255 C254 1.367 1_565 S
C255 C263 1.433 . S
C256 H252 0.929 . S
C256 C258 1.378 . S
C256 C260 1.350 1_565 S
C257 C260 1.463 1_565 S
C257 C262 1.350 1_565 S
C257 N265 1.427 . S
C258 H249 0.930 . S
C258 C256 1.378 . S
C258 C259 1.367 1_565 S
C259 C258 1.367 1_545 S
C259 C261 1.433 . S
C260 C256 1.350 1_545 S
C260 C257 1.463 1_545 S
C260 N264 1.427 . S
C261 H251 0.929 . S
C261 C259 1.433 . S
C261 N264 1.384 . S
C262 H253 0.929 . S
C262 C254 1.378 . S
C262 C257 1.350 1_545 S
C263 H250 0.929 . S
C263 C255 1.433 . S
C263 N265 1.384 . S
N264 C260 1.427 . S
N264 C261 1.384 . S
N265 C257 1.427 . S
N265 C263 1.384 . S
H266 C272 0.930 . S
H267 C276 0.930 . S
H268 C281 0.929 . S
H269 C279 0.929 . S
H270 C274 0.929 . S
H271 C280 0.929 . S
C272 H266 0.930 . S
C272 C273 1.367 . S
C272 C280 1.378 . S
C273 C272 1.367 . S
C273 C281 1.433 1_565 S
C274 H270 0.929 . S
C274 C276 1.378 . S
C274 C278 1.350 . S
C275 C278 1.463 1_565 S
C275 C280 1.350 . S
C275 N283 1.427 1_565 S
C276 H267 0.930 . S
C276 C274 1.378 . S
C276 C277 1.367 . S
C277 C276 1.367 . S
C277 C279 1.433 1_545 S
C278 C274 1.350 . S
C278 C275 1.463 1_545 S
C278 N282 1.427 1_545 S
C279 H269 0.929 . S
C279 C277 1.433 1_565 S
C279 N282 1.384 . S
C280 H271 0.929 . S
C280 C272 1.378 . S
C280 C275 1.350 . S
C281 H268 0.929 . S
C281 C273 1.433 1_545 S
C281 N283 1.384 . S
N282 C278 1.427 1_565 S
N282 C279 1.384 . S
N283 C275 1.427 1_545 S
N283 C281 1.384 . S
H284 C290 0.930 1_545 S
H285 C294 0.930 1_565 S
H286 C299 0.929 . S
H287 C297 0.929 . S
H288 C292 0.929 . S
H289 C298 0.929 . S
C290 H284 0.930 1_565 S
C290 C291 1.367 . S
C290 C298 1.378 1_565 S
C291 C290 1.367 . S
C291 C299 1.433 . S
C292 H288 0.929 . S
C292 C294 1.378 1_565 S
C292 C296 1.350 1_565 S
C293 C296 1.463 1_565 S
C293 C298 1.350 1_565 S
C293 N301 1.427 . S
C294 H285 0.930 1_545 S
C294 C292 1.378 1_545 S
C294 C295 1.367 . S
C295 C294 1.367 . S
C295 C297 1.433 . S
C296 C292 1.350 1_545 S
C296 C293 1.463 1_545 S
C296 N300 1.427 . S
C297 H287 0.929 . S
C297 C295 1.433 . S
C297 N300 1.384 . S
C298 H289 0.929 . S
C298 C290 1.378 1_545 S
C298 C293 1.350 1_545 S
C299 H286 0.929 . S
C299 C291 1.433 . S
C299 N301 1.384 . S
N300 C296 1.427 . S
N300 C297 1.384 . S
N301 C293 1.427 . S
N301 C299 1.384 . S
H302 C308 0.930 . S
H303 C312 0.930 . S
H304 C317 0.929 . S
H305 C315 0.929 . S
H306 C310 0.929 . S
H307 C316 0.929 . S
C308 H302 0.930 . S
C308 C309 1.367 . S
C308 C316 1.378 . S
C309 C308 1.367 . S
C309 C317 1.433 1_565 S
C310 H306 0.929 . S
C310 C312 1.378 . S
C310 C314 1.350 . S
C311 C314 1.463 1_565 S
C311 C316 1.350 . S
C311 N319 1.427 1_565 S
C312 H303 0.930 . S
C312 C310 1.378 . S
C312 C313 1.367 . S
C313 C312 1.367 . S
C313 C315 1.433 1_545 S
C314 C310 1.350 . S
C314 C311 1.463 1_545 S
C314 N318 1.427 1_545 S
C315 H305 0.929 . S
C315 C313 1.433 1_565 S
C315 N318 1.384 . S
C316 H307 0.929 . S
C316 C308 1.378 . S
C316 C311 1.350 . S
C317 H304 0.929 . S
C317 C309 1.433 1_545 S
C317 N319 1.384 . S
N318 C314 1.427 1_565 S
N318 C315 1.384 . S
N319 C311 1.427 1_545 S
N319 C317 1.384 . S
H320 C326 0.930 . S
H321 C330 0.930 . S
H322 C335 0.929 . S
H323 C333 0.929 . S
H324 C328 0.929 . S
H325 C334 0.929 . S
C326 H320 0.930 . S
C326 C327 1.367 . S
C326 C334 1.378 . S
C327 C326 1.367 . S
C327 C335 1.433 1_556 S
C328 H324 0.929 . S
C328 C330 1.378 . S
C328 C332 1.337 1_554 S
C329 C332 1.463 1_565 S
C329 C334 1.350 . S
C329 N337 1.427 1_556 S
C330 H321 0.930 . S
C330 C328 1.378 . S
C330 C331 1.367 1_554 S
C331 C330 1.367 1_556 S
C331 C333 1.433 . S
C332 C328 1.337 1_556 S
C332 C329 1.463 1_545 S
C332 N336 1.440 . S
C333 H323 0.929 . S
C333 C331 1.433 . S
C333 N336 1.384 . S
C334 H325 0.929 . S
C334 C326 1.378 . S
C334 C329 1.350 . S
C335 H322 0.929 . S
C335 C327 1.433 1_554 S
C335 N337 1.384 . S
N336 C332 1.440 . S
N336 C333 1.384 . S
N337 C329 1.427 1_554 S
N337 C335 1.384 . S
H338 C344 0.930 . S
H339 C348 0.930 . S
H340 C353 0.929 . S
H341 C351 0.929 . S
H342 C346 0.929 . S
H343 C352 0.929 . S
C344 H338 0.930 . S
C344 C345 1.367 . S
C344 C352 1.378 . S
C345 C344 1.367 . S
C345 C353 1.433 . S
C346 H342 0.929 . S
C346 C348 1.378 . S
C346 C350 1.350 . S
C347 C350 1.463 1_565 S
C347 C352 1.350 . S
C347 N355 1.427 1_565 S
C348 H339 0.930 . S
C348 C346 1.378 . S
C348 C349 1.367 . S
C349 C348 1.367 . S
C349 C351 1.433 . S
C350 C346 1.350 . S
C350 C347 1.463 1_545 S
C350 N354 1.427 1_545 S
C351 H341 0.929 . S
C351 C349 1.433 . S
C351 N354 1.384 1_545 S
C352 H343 0.929 . S
C352 C344 1.378 . S
C352 C347 1.350 . S
C353 H340 0.929 . S
C353 C345 1.433 . S
C353 N355 1.384 1_565 S
N354 C350 1.427 1_565 S
N354 C351 1.384 1_565 S
N355 C347 1.427 1_545 S
N355 C353 1.384 1_545 S
H356 C362 0.930 . S
H357 C366 0.930 . S
H358 C371 0.929 . S
H359 C369 0.929 . S
H360 C364 0.929 . S
H361 C370 0.929 . S
C362 H356 0.930 . S
C362 C363 1.367 1_554 S
C362 C370 1.378 . S
C363 C362 1.367 1_556 S
C363 C371 1.433 . S
C364 H360 0.929 . S
C364 C366 1.378 . S
C364 C368 1.350 . S
C365 C368 1.463 1_455 S
C365 C370 1.336 1_556 S
C365 N373 1.441 . S
C366 H357 0.930 . S
C366 C364 1.378 . S
C366 C367 1.367 . S
C367 C366 1.367 . S
C367 C369 1.433 1_556 S
C368 C364 1.350 . S
C368 C365 1.463 1_655 S
C368 N372 1.427 1_556 S
C369 H359 0.929 . S
C369 C367 1.433 1_554 S
C369 N372 1.384 . S
C370 H361 0.929 . S
C370 C362 1.378 . S
C370 C365 1.336 1_554 S
C371 H358 0.929 . S
C371 C363 1.433 . S
C371 N373 1.384 . S
N372 C368 1.427 1_554 S
N372 C369 1.384 . S
N373 C365 1.441 . S
N373 C371 1.384 . S
H374 C380 0.930 . S
H375 C384 0.930 . S
H376 C389 0.929 . S
H377 C387 0.929 . S
H378 C382 0.929 . S
H379 C388 0.929 . S
C380 H374 0.930 . S
C380 C381 1.367 . S
C380 C388 1.378 . S
C381 C380 1.367 . S
C381 C389 1.433 . S
C382 H378 0.929 . S
C382 C384 1.378 . S
C382 C386 1.350 . S
C383 C386 1.463 1_455 S
C383 C388 1.350 . S
C383 N391 1.427 . S
C384 H375 0.930 . S
C384 C382 1.378 . S
C384 C385 1.367 . S
C385 C384 1.367 . S
C385 C387 1.433 . S
C386 C382 1.350 . S
C386 C383 1.463 1_655 S
C386 N390 1.427 . S
C387 H377 0.929 . S
C387 C385 1.433 . S
C387 N390 1.384 . S
C388 H379 0.929 . S
C388 C380 1.378 . S
C388 C383 1.350 . S
C389 H376 0.929 . S
C389 C381 1.433 . S
C389 N391 1.384 . S
N390 C386 1.427 . S
N390 C387 1.384 . S
N391 C383 1.427 . S
N391 C389 1.384 . S
C111 C70 1.516 . S
C115 C5 1.517 . S
C129 C55 1.517 . S
C133 C16 1.516 . S
C147 C94 1.514 . S
C151 C31 1.516 . S
C165 C83 1.514 . S
C169 C42 1.516 . S
C183 C3 1.419 . S
C187 C29 1.418 . S
C201 C18 1.415 . S
C205 C44 1.415 . S
C219 C17 1.460 . S
C223 C43 1.458 . S
C237 C10 1.457 . S
C241 C36 1.460 . S
C255 C57 1.419 . S
C259 C81 1.419 . S
C273 C96 1.415 . S
C277 C68 1.415 . S
C291 C95 1.458 . S
C295 C75 1.460 . S
C309 C56 1.459 . S
C313 C88 1.457 . S
C327 C23 1.515 . S
C331 C4 1.514 . S
C345 C30 1.515 . S
C349 C49 1.515 . S
C363 C62 1.514 . S
C367 C69 1.515 . S
C381 C82 1.515 . S
C385 C101 1.514 . S
