# Generated by pormake.
# Topology neb, (4)-cn, num edge types: 1
# Building blocks:
#     Node 0, Type 0, BuildingBlock: NAHDIM_clean_sbu_0, # of connection points: 4
#     Node 1, Type 0, BuildingBlock: NAHDIM_clean_sbu_0, # of connection points: 4
#     Node 2, Type 0, BuildingBlock: NAHDIM_clean_sbu_0, # of connection points: 4
#     Node 3, Type 0, BuildingBlock: NAHDIM_clean_sbu_0, # of connection points: 4
#     Node 4, Type 0, BuildingBlock: NAHDIM_clean_sbu_0, # of connection points: 4
#     Node 5, Type 0, BuildingBlock: NAHDIM_clean_sbu_0, # of connection points: 4
#     Node 6, Type 0, BuildingBlock: NAHDIM_clean_sbu_0, # of connection points: 4
#     Node 7, Type 0, BuildingBlock: NAHDIM_clean_sbu_0, # of connection points: 4
#     Node 8, Type 0, BuildingBlock: NAHDIM_clean_sbu_0, # of connection points: 4
#     Node 9, Type 0, BuildingBlock: NAHDIM_clean_sbu_0, # of connection points: 4
#     Node 10, Type 0, BuildingBlock: NAHDIM_clean_sbu_0, # of connection points: 4
#     Node 11, Type 0, BuildingBlock: NAHDIM_clean_sbu_0, # of connection points: 4
#     Node 12, Type 0, BuildingBlock: NAHDIM_clean_sbu_0, # of connection points: 4
#     Node 13, Type 0, BuildingBlock: NAHDIM_clean_sbu_0, # of connection points: 4
#     Node 14, Type 0, BuildingBlock: NAHDIM_clean_sbu_0, # of connection points: 4
#     Node 15, Type 0, BuildingBlock: NAHDIM_clean_sbu_0, # of connection points: 4
#     Edge 16, Type (0, 0), BuildingBlock: EZIPEK_clean_linker_0, # of connection points: 2
#     Edge 17, Type (0, 0), BuildingBlock: EZIPEK_clean_linker_0, # of connection points: 2
#     Edge 18, Type (0, 0), BuildingBlock: EZIPEK_clean_linker_0, # of connection points: 2
#     Edge 19, Type (0, 0), BuildingBlock: EZIPEK_clean_linker_0, # of connection points: 2
#     Edge 20, Type (0, 0), BuildingBlock: EZIPEK_clean_linker_0, # of connection points: 2
#     Edge 21, Type (0, 0), BuildingBlock: EZIPEK_clean_linker_0, # of connection points: 2
#     Edge 22, Type (0, 0), BuildingBlock: EZIPEK_clean_linker_0, # of connection points: 2
#     Edge 23, Type (0, 0), BuildingBlock: EZIPEK_clean_linker_0, # of connection points: 2
#     Edge 24, Type (0, 0), BuildingBlock: EZIPEK_clean_linker_0, # of connection points: 2
#     Edge 25, Type (0, 0), BuildingBlock: EZIPEK_clean_linker_0, # of connection points: 2
#     Edge 26, Type (0, 0), BuildingBlock: EZIPEK_clean_linker_0, # of connection points: 2
#     Edge 27, Type (0, 0), BuildingBlock: EZIPEK_clean_linker_0, # of connection points: 2
#     Edge 28, Type (0, 0), BuildingBlock: EZIPEK_clean_linker_0, # of connection points: 2
#     Edge 29, Type (0, 0), BuildingBlock: EZIPEK_clean_linker_0, # of connection points: 2
#     Edge 30, Type (0, 0), BuildingBlock: EZIPEK_clean_linker_0, # of connection points: 2
#     Edge 31, Type (0, 0), BuildingBlock: EZIPEK_clean_linker_0, # of connection points: 2
#     Edge 32, Type (0, 0), BuildingBlock: EZIPEK_clean_linker_0, # of connection points: 2
#     Edge 33, Type (0, 0), BuildingBlock: EZIPEK_clean_linker_0, # of connection points: 2
#     Edge 34, Type (0, 0), BuildingBlock: EZIPEK_clean_linker_0, # of connection points: 2
#     Edge 35, Type (0, 0), BuildingBlock: EZIPEK_clean_linker_0, # of connection points: 2
#     Edge 36, Type (0, 0), BuildingBlock: EZIPEK_clean_linker_0, # of connection points: 2
#     Edge 37, Type (0, 0), BuildingBlock: EZIPEK_clean_linker_0, # of connection points: 2
#     Edge 38, Type (0, 0), BuildingBlock: EZIPEK_clean_linker_0, # of connection points: 2
#     Edge 39, Type (0, 0), BuildingBlock: EZIPEK_clean_linker_0, # of connection points: 2
#     Edge 40, Type (0, 0), BuildingBlock: EZIPEK_clean_linker_0, # of connection points: 2
#     Edge 41, Type (0, 0), BuildingBlock: EZIPEK_clean_linker_0, # of connection points: 2
#     Edge 42, Type (0, 0), BuildingBlock: EZIPEK_clean_linker_0, # of connection points: 2
#     Edge 43, Type (0, 0), BuildingBlock: EZIPEK_clean_linker_0, # of connection points: 2
#     Edge 44, Type (0, 0), BuildingBlock: EZIPEK_clean_linker_0, # of connection points: 2
#     Edge 45, Type (0, 0), BuildingBlock: EZIPEK_clean_linker_0, # of connection points: 2
#     Edge 46, Type (0, 0), BuildingBlock: EZIPEK_clean_linker_0, # of connection points: 2
#     Edge 47, Type (0, 0), BuildingBlock: EZIPEK_clean_linker_0, # of connection points: 2
# Relax obj value: 0.077
# Max RMSD: 0.132
# Mean RMSD: 0.132
data_MOF--net-neb--node1-NAHDIM_clean_sbu_0--edge1-EZIPEK_clean_linker_0
_symmetry_space_group_name_H-M    P1
_symmetry_Int_Tables_number       1
_symmetry_cell_setting            triclinic
loop_
_symmetry_equiv_pos_as_xyz
'x, y, z'
_cell_length_a     33.952854
_cell_length_b     16.285945
_cell_length_c     53.130045
_cell_angle_alpha  89.985726
_cell_angle_beta   94.426468
_cell_angle_gamma 90.087316
loop_
_atom_site_label
_atom_site_type_symbol
_atom_site_fract_x
_atom_site_fract_y
_atom_site_fract_z
_atom_type_partial_charge
C0 C 0.06488 0.0696 0.47716 0.0
O1 O 0.10029 0.04159 0.48418 0.0
O2 O 0.15307 0.18152 0.46903 0.0
Zn3 Zn 0.10951 0.15349 0.44242 0.0
O4 O 0.12673 0.05558 0.42289 0.0
C5 C 0.11341 0.31835 0.42039 0.0
O6 O 0.13047 0.34013 0.44234 0.0
O7 O 0.06059 0.1214 0.45924 0.0
C8 C 0.11705 0.05093 0.39934 0.0
O9 O 0.09649 0.11025 0.38796 0.0
C10 C 0.18706 0.2003 0.46239 0.0
O11 O 0.19334 0.2013 0.43833 0.0
O12 O 0.09998 0.24604 0.41721 0.0
C13 C 0.18982 0.02622 0.7642 0.0
O14 O 0.15688 0.98357 0.76296 0.0
O15 O 0.1051 0.18531 0.77263 0.0
Zn16 Zn 0.14611 0.12864 0.79558 0.0
O17 O 0.12236 0.03207 0.81289 0.0
C18 C 0.13491 0.23514 0.83485 0.0
O19 O 0.10037 0.19888 0.83133 0.0
O20 O 0.19236 0.09228 0.77691 0.0
C21 C 0.13908 0.00913 0.83391 0.0
O22 O 0.17064 0.04827 0.84341 0.0
C23 C 0.07023 0.15837 0.76784 0.0
O24 O 0.06045 0.08562 0.77604 0.0
O25 O 0.16272 0.21368 0.82161 0.0
C26 C 0.92972 0.95288 0.52686 0.0
O27 O 0.89682 -0.00447 0.52483 0.0
O28 O 0.83924 0.83255 0.53017 0.0
Zn29 Zn 0.8828 0.85726 0.5572 0.0
O30 O 0.87109 0.95406 0.57914 0.0
C31 C 0.86409 0.71508 0.58598 0.0
O32 O 0.82812 0.73469 0.5774 0.0
O33 O 0.93146 0.88754 0.53999 0.0
C34 C 0.85181 0.95084 0.59869 0.0
O35 O 0.83544 0.88181 0.60515 0.0
C36 C 0.8027 0.84162 0.53298 0.0
O37 O 0.79148 0.8745 0.55382 0.0
O38 O 0.89321 0.75733 0.57956 0.0
C39 C 0.80932 0.93256 0.22106 0.0
O40 O 0.83836 0.98217 0.21634 0.0
O41 O 0.90291 0.78486 0.21895 0.0
Zn42 Zn 0.85619 0.81869 0.19555 0.0
O43 O 0.87206 0.90786 0.17211 0.0
C44 C 0.86986 0.69342 0.16251 0.0
O45 O 0.90398 0.73153 0.16536 0.0
O46 O 0.81046 0.85771 0.21441 0.0
C47 C 0.85236 0.91527 0.15096 0.0
O48 O 0.82147 0.86811 0.14554 0.0
C49 C 0.93684 0.81721 0.21792 0.0
O50 O 0.94143 0.88023 0.203 0.0
O51 O 0.84116 0.71995 0.17415 0.0
C52 C 0.06265 0.54055 0.97397 0.0
O53 O 0.09844 0.52584 0.98415 0.0
O54 O 0.1472 0.67025 0.96279 0.0
Zn55 Zn 0.10533 0.6261 0.93731 0.0
O56 O 0.12762 0.53194 0.91845 0.0
C57 C 0.1153 0.73782 0.89783 0.0
O58 O 0.14843 0.69641 0.89803 0.0
O59 O 0.05805 0.58406 0.9541 0.0
C60 C 0.11001 0.50996 0.89762 0.0
O61 O 0.07823 0.54949 0.88876 0.0
C62 C 0.18341 0.66116 0.95888 0.0
O63 O 0.19312 0.61993 0.93906 0.0
O64 O 0.08979 0.71805 0.91303 0.0
C65 C 0.18511 0.54636 0.26845 0.0
O66 O 0.14951 0.51427 0.26569 0.0
O67 O 0.10151 0.69394 0.27616 0.0
Zn68 Zn 0.14549 0.65276 0.30032 0.0
O69 O 0.12568 0.56289 0.32205 0.0
C70 C 0.13142 0.77485 0.33402 0.0
O71 O 0.09672 0.74005 0.32932 0.0
O72 O 0.19115 0.60948 0.28228 0.0
C73 C 0.14361 0.55323 0.34369 0.0
O74 O 0.17474 0.59839 0.35037 0.0
C75 C 0.06888 0.65608 0.27244 0.0
O76 O 0.06417 0.58405 0.28291 0.0
O77 O 0.16084 0.74744 0.32324 0.0
C78 C 0.92627 0.40337 0.01818 0.0
O79 O 0.89053 0.43055 0.01164 0.0
O80 O 0.83767 0.28542 0.02909 0.0
Zn81 Zn 0.88377 0.31486 0.05349 0.0
O82 O 0.86893 0.41062 0.07467 0.0
C83 C 0.87902 0.14961 0.0731 0.0
O84 O 0.85883 0.13473 0.05152 0.0
O85 O 0.93116 0.34924 0.0354 0.0
C86 C 0.88075 0.4133 0.09795 0.0
O87 O 0.90213 0.35304 0.10811 0.0
C88 C 0.803 0.29033 0.03644 0.0
O89 O 0.79794 0.31836 0.05914 0.0
O90 O 0.89485 0.21951 0.07714 0.0
C91 C 0.8235 0.46199 0.7327 0.0
O92 O 0.85718 0.50148 0.73221 0.0
O93 O 0.91167 0.33027 0.724 0.0
Zn94 Zn 0.86292 0.35415 0.70116 0.0
O95 O 0.87496 0.44312 0.67683 0.0
C96 C 0.86827 0.23435 0.66325 0.0
O97 O 0.89813 0.28172 0.65854 0.0
O98 O 0.81872 0.39401 0.72111 0.0
C99 C 0.84985 0.45948 0.65861 0.0
O100 O 0.81641 0.41862 0.6561 0.0
C101 C 0.94569 0.34555 0.71664 0.0
O102 O 0.94761 0.37262 0.69353 0.0
O103 O 0.84745 0.25202 0.68136 0.0
C104 C 0.54718 0.09497 0.95687 0.0
O105 O 0.57093 0.04761 0.945 0.0
O106 O 0.64333 0.24255 0.96475 0.0
Zn107 Zn 0.59744 0.22193 0.93958 0.0
O108 O 0.61462 0.1437 0.91317 0.0
C109 C 0.60899 0.38102 0.92009 0.0
O110 O 0.64457 0.36674 0.93061 0.0
O111 O 0.55235 0.17233 0.95708 0.0
C112 C 0.63897 0.16078 0.89691 0.0
O113 O 0.65566 0.23347 0.89671 0.0
C114 C 0.66536 0.1856 0.97406 0.0
O115 O 0.65731 0.10872 0.96822 0.0
O116 O 0.5817 0.32876 0.9225 0.0
C117 C 0.67572 0.07187 0.26707 0.0
O118 O 0.64083 0.03675 0.26397 0.0
O119 O 0.5916 0.22162 0.27182 0.0
Zn120 Zn 0.63316 0.17863 0.29749 0.0
O121 O 0.61114 0.08635 0.31745 0.0
C122 C 0.62461 0.28865 0.3375 0.0
O123 O 0.59309 0.24289 0.33906 0.0
O124 O 0.68008 0.13618 0.28055 0.0
C125 C 0.63127 0.06238 0.33721 0.0
O126 O 0.66503 0.09858 0.34398 0.0
C127 C 0.55545 0.21891 0.27641 0.0
O128 O 0.54526 0.184 0.29721 0.0
O129 O 0.64847 0.27271 0.32089 0.0
C130 C 0.42335 0.94004 0.00883 0.0
O131 O 0.38614 0.95999 0.00367 0.0
O132 O 0.3445 0.80125 0.02037 0.0
Zn133 Zn 0.39012 0.83554 0.04509 0.0
O134 O 0.37458 0.92019 0.07036 0.0
C135 C 0.38939 0.68184 0.07126 0.0
O136 O 0.35126 0.68953 0.06579 0.0
O137 O 0.4325 0.8868 0.02576 0.0
C138 C 0.35712 0.90608 0.09026 0.0
O139 O 0.34495 0.83159 0.09506 0.0
C140 C 0.30862 0.79997 0.02566 0.0
O141 O 0.29918 0.82589 0.04778 0.0
O142 O 0.4128 0.73611 0.06386 0.0
C143 C 0.32429 0.89935 0.71635 0.0
O144 O 0.3587 0.93652 0.71928 0.0
O145 O 0.41295 0.77859 0.71329 0.0
Zn146 Zn 0.36756 0.79042 0.6866 0.0
O147 O 0.38122 0.87138 0.65974 0.0
C148 C 0.37933 0.63018 0.66555 0.0
O149 O 0.41636 0.64574 0.67285 0.0
O150 O 0.32061 0.83456 0.70306 0.0
C151 C 0.39836 0.85368 0.63998 0.0
O152 O 0.41018 0.77829 0.63623 0.0
C153 C 0.44888 0.78108 0.70816 0.0
O154 O 0.45767 0.79184 0.68477 0.0
O155 O 0.35277 0.68133 0.6704 0.0
C156 C 0.5632 0.57302 0.47352 0.0
O157 O 0.59891 0.54175 0.47613 0.0
O158 O 0.64441 0.72266 0.46605 0.0
Zn159 Zn 0.6017 0.67963 0.44113 0.0
O160 O 0.6235 0.58805 0.42082 0.0
C161 C 0.60804 0.79112 0.40155 0.0
O162 O 0.64003 0.74696 0.3999 0.0
O163 O 0.55644 0.63498 0.45931 0.0
C164 C 0.60244 0.56074 0.4019 0.0
O165 O 0.56775 0.59391 0.39584 0.0
C166 C 0.6805 0.71355 0.46192 0.0
O167 O 0.69001 0.67374 0.44179 0.0
O168 O 0.58434 0.77314 0.41807 0.0
C169 C 0.6951 0.61409 0.78079 0.0
O170 O 0.65932 0.58343 0.77713 0.0
O171 O 0.61084 0.74472 0.78281 0.0
Zn172 Zn 0.65438 0.72579 0.81045 0.0
O173 O 0.63751 0.64335 0.83604 0.0
C174 C 0.6435 0.88363 0.83238 0.0
O175 O 0.60677 0.86903 0.82413 0.0
O176 O 0.70098 0.67737 0.79457 0.0
C177 C 0.6183 0.65951 0.85507 0.0
O178 O 0.60634 0.73474 0.85893 0.0
C179 C 0.57449 0.73842 0.78668 0.0
O180 O 0.5641 0.71965 0.80924 0.0
O181 O 0.67019 0.83213 0.82803 0.0
C182 C 0.44086 0.41235 0.52537 0.0
O183 O 0.40799 0.45117 0.52924 0.0
O184 O 0.35547 0.26976 0.52709 0.0
Zn185 Zn 0.40263 0.28868 0.55206 0.0
O186 O 0.38987 0.36904 0.57927 0.0
C187 C 0.39535 0.13026 0.5743 0.0
O188 O 0.35784 0.14523 0.56844 0.0
O189 O 0.44592 0.3393 0.5334 0.0
C190 C 0.37493 0.35162 0.59985 0.0
O191 O 0.36442 0.27588 0.60451 0.0
C192 C 0.32018 0.2719 0.53347 0.0
O193 O 0.31344 0.28857 0.55691 0.0
O194 O 0.42116 0.18167 0.56825 0.0
C195 C 0.31309 0.38843 0.22112 0.0
O196 O 0.34101 0.34935 0.23476 0.0
O197 O 0.40419 0.31109 0.20253 0.0
Zn198 Zn 0.35779 0.34202 0.17866 0.0
O199 O 0.37463 0.42477 0.15351 0.0
C200 C 0.36386 0.18686 0.15519 0.0
O201 O 0.40057 0.1964 0.16441 0.0
O202 O 0.31408 0.39193 0.19729 0.0
C203 C 0.4009 0.41189 0.13818 0.0
O204 O 0.42018 0.34208 0.13867 0.0
C205 C 0.42913 0.36233 0.21223 0.0
O206 O 0.42481 0.44101 0.20739 0.0
O207 O 0.33831 0.24082 0.15963 0.0
C208 C 0.25508 0.31037 0.51149 0.0
C209 C 0.28663 0.25348 0.51486 0.0
C210 C 0.2531 0.16218 0.4833 0.0
C211 C 0.22021 0.2162 0.48151 0.0
N212 N 0.1865 0.33333 0.49764 0.0
N213 N 0.31279 0.11843 0.50739 0.0
C214 C 0.22007 0.28754 0.49684 0.0
C215 C 0.28504 0.17765 0.50159 0.0
N216 N 0.25934 0.38792 0.52123 0.0
N217 N 0.25371 0.09551 0.46768 0.0
H218 H 0.33662 0.12657 0.52068 0.0
H219 H 0.31055 0.05849 0.50062 0.0
H220 H 0.22949 0.07714 0.45573 0.0
H221 H 0.27893 0.06058 0.46562 0.0
H222 H 0.23906 0.43485 0.5171 0.0
H223 H 0.28511 0.40818 0.53131 0.0
H224 H 0.18357 0.38062 0.51056 0.0
H225 H 0.16024 0.31948 0.48711 0.0
C226 C 0.98183 0.93149 0.49647 0.0
C227 C 0.96467 0.98214 0.51437 0.0
C228 C 0.01115 0.09285 0.50621 0.0
C229 C 0.0303 0.03976 0.48987 0.0
N230 N 0.03809 0.90444 0.47236 0.0
N231 N 0.96746 0.10462 0.54001 0.0
C232 C 0.01701 0.95767 0.48597 0.0
C233 C 0.98041 0.06133 0.52019 0.0
N234 N 0.96344 0.86028 0.4885 0.0
N235 N 0.02243 0.17332 0.50846 0.0
H236 H 0.94583 0.08268 0.55121 0.0
H237 H 0.98064 0.15867 0.54692 0.0
H238 H 0.04632 0.19768 0.49973 0.0
H239 H 0.00654 0.21732 0.51764 0.0
H240 H 0.97208 0.82542 0.47346 0.0
H241 H 0.93722 0.8396 0.49535 0.0
H242 H 0.03249 0.84159 0.47136 0.0
H243 H 0.06318 0.92179 0.46357 0.0
C244 C 0.2722 0.00686 0.71987 0.0
C245 C 0.29006 0.93235 0.7287 0.0
C246 C 0.24426 0.92379 0.76213 0.0
C247 C 0.22456 0.99473 0.75212 0.0
N248 N 0.21594 0.09878 0.71994 0.0
N249 N 0.2915 0.81503 0.75651 0.0
C250 C 0.23762 0.03529 0.73065 0.0
C251 C 0.27549 0.88919 0.74927 0.0
N252 N 0.28835 0.05043 0.70119 0.0
N253 N 0.23428 0.89183 0.78461 0.0
H254 H 0.31609 0.79005 0.74873 0.0
H255 H 0.27913 0.77571 0.7692 0.0
H256 H 0.21187 0.9161 0.79472 0.0
H257 H 0.25017 0.84574 0.7944 0.0
H258 H 0.27978 0.10976 0.69598 0.0
H259 H 0.31213 0.02924 0.69172 0.0
H260 H 0.22117 0.12527 0.70269 0.0
H261 H 0.19059 0.12148 0.72741 0.0
C262 C 0.04504 0.24616 0.73144 0.0
C263 C 0.03991 0.21387 0.75576 0.0
C264 C 0.97944 0.29546 0.75783 0.0
C265 C 0.98208 0.31855 0.73226 0.0
N266 N 0.02859 0.35593 0.70201 0.0
N267 N 0.00408 0.21146 0.79335 0.0
C268 C 0.01818 0.30593 0.72104 0.0
C269 C 0.0077 0.23992 0.76941 0.0
N270 N 0.07458 0.21732 0.71776 0.0
N271 N 0.95216 0.333 0.77156 0.0
H272 H 0.02585 0.17712 0.80342 0.0
H273 H 0.97886 0.21899 0.80304 0.0
H274 H 0.93484 0.38173 0.76434 0.0
H275 H 0.94986 0.32389 0.79076 0.0
H276 H 0.07679 0.23211 0.69884 0.0
H277 H 0.09472 0.17268 0.72451 0.0
H278 H 0.05589 0.35279 0.69436 0.0
H279 H 0.01309 0.40934 0.69694 0.0
C280 C 0.74538 0.86418 0.50104 0.0
C281 C 0.77268 0.80938 0.51375 0.0
C282 C 0.73751 0.69179 0.49373 0.0
C283 C 0.71191 0.74673 0.47985 0.0
N284 N 0.69521 0.88461 0.46655 0.0
N285 N 0.79903 0.67169 0.51891 0.0
C286 C 0.71673 0.83288 0.48254 0.0
C287 C 0.77018 0.72342 0.50901 0.0
N288 N 0.74697 0.94622 0.50653 0.0
N289 N 0.7295 0.60939 0.49323 0.0
H290 H 0.82287 0.69084 0.53092 0.0
H291 H 0.80118 0.61041 0.51361 0.0
H292 H 0.70569 0.58379 0.48235 0.0
H293 H 0.7442 0.56707 0.50526 0.0
H294 H 0.72498 0.98765 0.50036 0.0
H295 H 0.76941 0.97267 0.51838 0.0
H296 H 0.70013 0.94761 0.46566 0.0
H297 H 0.67449 0.86358 0.45252 0.0
C298 C 0.74348 0.00925 0.27086 0.0
C299 C 0.70986 0.0354 0.25537 0.0
C300 C 0.73957 0.98339 0.21786 0.0
C301 C 0.77468 0.96506 0.23304 0.0
N302 N 0.81235 0.96843 0.27339 0.0
N303 N 0.67824 0.05994 0.21381 0.0
C304 C 0.77736 0.98062 0.25937 0.0
C305 C 0.70841 0.0255 0.22876 0.0
N306 N 0.7423 0.00782 0.29653 0.0
N307 N 0.73591 0.96019 0.19305 0.0
H308 H 0.65528 0.09277 0.22101 0.0
H309 H 0.67775 0.06264 0.19421 0.0
H310 H 0.75847 0.93126 0.18419 0.0
H311 H 0.7095 0.96363 0.18176 0.0
H312 H 0.7642 0.98128 0.3087 0.0
H313 H 0.7177 0.02631 0.30568 0.0
H314 H 0.81754 0.98782 0.29203 0.0
H315 H 0.83724 0.94366 0.26589 0.0
C316 C 0.9723 0.77133 0.25854 0.0
C317 C 0.97154 0.77914 0.23192 0.0
C318 C 0.03622 0.71174 0.23217 0.0
C319 C 0.03518 0.69724 0.25842 0.0
N320 N 0.00125 0.70662 0.29666 0.0
N321 N -0.00029 0.74657 0.19271 0.0
C322 C 0.00281 0.72474 0.27161 0.0
C323 C 0.00282 0.74722 0.21853 0.0
N324 N 0.94491 0.81195 0.27144 0.0
N325 N 0.06916 0.69157 0.22024 0.0
H326 H 0.97595 0.77183 0.18182 0.0
H327 H 0.0191 0.71517 0.18191 0.0
H328 H 0.09318 0.66033 0.2291 0.0
H329 H 0.07385 0.71031 0.20197 0.0
H330 H 0.94621 0.81623 0.29103 0.0
H331 H 0.9226 0.84805 0.26255 0.0
H332 H 0.97627 0.71567 0.3065 0.0
H333 H 0.02415 0.67779 0.30746 0.0
C334 C 0.24682 0.81713 -0.00292 0.0
C335 C 0.27757 0.76553 0.00753 0.0
C336 C 0.2438 0.6451 0.98838 0.0
C337 C 0.21483 0.69727 0.9763 0.0
N338 N 0.19233 0.83398 0.96522 0.0
N339 N 0.30922 0.63239 0.00932 0.0
C340 C 0.21713 0.78366 0.97966 0.0
C341 C 0.27735 0.68017 0.00194 0.0
N342 N 0.24612 0.89826 0.00366 0.0
N343 N 0.23833 0.56184 0.98789 0.0
H344 H 0.33426 0.65471 0.01959 0.0
H345 H 0.31243 0.57206 0.00332 0.0
H346 H 0.21367 0.53379 0.97861 0.0
H347 H 0.25612 0.52102 -0.00129 0.0
H348 H 0.222 0.93646 -0.00077 0.0
H349 H 0.26886 0.92671 0.01477 0.0
H350 H 0.1953 0.89759 0.96477 0.0
H351 H 0.17073 0.81191 0.95191 0.0
C352 C 0.00052 0.55861 0.99606 0.0
C353 C 0.02781 0.50549 0.98534 0.0
C354 C 0.98637 0.38646 0.99394 0.0
C355 C 0.96082 0.43872 0.00649 0.0
N356 N 0.94635 0.57283 0.02283 0.0
N357 N 0.04954 0.36819 0.97635 0.0
C358 C 0.96846 0.52448 0.00829 0.0
C359 C 0.02167 0.41914 0.98509 0.0
N360 N 0.00529 0.64187 0.99462 0.0
N361 N 0.97582 0.30646 0.98928 0.0
H362 H 0.07459 0.38948 0.96824 0.0
H363 H 0.04922 0.30469 0.97857 0.0
H364 H 0.9498 0.2807 0.99497 0.0
H365 H 0.99082 0.26745 0.97782 0.0
H366 H 0.98374 0.68387 -0.00104 0.0
H367 H 0.02994 0.66953 0.98766 0.0
H368 H 0.95343 0.63339 0.02754 0.0
H369 H 0.92244 0.55089 0.03199 0.0
C370 C 0.25586 0.38219 0.24828 0.0
C371 C 0.28068 0.42914 0.23349 0.0
C372 C 0.24072 0.55169 0.23986 0.0
C373 C 0.21826 0.50649 0.25657 0.0
N374 N 0.20962 0.38294 0.28073 0.0
N375 N 0.30174 0.56181 0.21926 0.0
C376 C 0.22724 0.42284 0.26192 0.0
C377 C 0.27452 0.51488 0.23039 0.0
N378 N 0.25844 0.29841 0.2485 0.0
N379 N 0.22889 0.62852 0.23219 0.0
H380 H 0.32731 0.53753 0.21251 0.0
H381 H 0.30094 0.62573 0.21891 0.0
H382 H 0.20391 0.65718 0.23834 0.0
H383 H 0.24165 0.66071 0.21794 0.0
H384 H 0.23819 0.26069 0.25671 0.0
H385 H 0.27853 0.26603 0.23843 0.0
H386 H 0.21829 0.32498 0.28732 0.0
H387 H 0.18891 0.41064 0.29147 0.0
C388 C 0.7077 0.17941 0.01488 0.0
C389 C 0.70183 0.20728 0.98961 0.0
C390 C 0.76111 0.2931 0.99543 0.0
C391 C 0.76868 0.26059 0.0201 0.0
N392 N 0.75428 0.15839 0.0511 0.0
N393 N 0.728 0.27391 0.95388 0.0
C394 C 0.74343 0.19955 0.02923 0.0
C395 C 0.73005 0.25923 0.97928 0.0
N396 N 0.67858 0.13653 0.02553 0.0
N397 N 0.78233 0.35871 0.98777 0.0
H398 H 0.70644 0.24776 0.94129 0.0
H399 H 0.74999 0.30475 0.945 0.0
H400 H 0.80473 0.38687 -0.00077 0.0
H401 H 0.77517 0.39022 0.97098 0.0
H402 H 0.6795 0.12275 0.04471 0.0
H403 H 0.6519 0.12073 0.01567 0.0
H404 H 0.73899 0.1076 0.05725 0.0
H405 H 0.78075 0.16949 0.06182 0.0
C406 C 0.72828 0.57721 0.74187 0.0
C407 C 0.72818 0.57562 0.76857 0.0
C408 C 0.7918 0.50353 0.77181 0.0
C409 C 0.79044 0.49983 0.74508 0.0
N410 N 0.7563 0.52578 0.70432 0.0
N411 N 0.7562 0.52777 0.809 0.0
C412 C 0.75823 0.53418 0.73 0.0
C413 C 0.75907 0.53656 0.7836 0.0
N414 N 0.70081 0.62322 0.72797 0.0
N415 N 0.8245 0.47584 0.78593 0.0
H416 H 0.73264 0.55094 0.8183 0.0
H417 H 0.7754 0.4921 0.82063 0.0
H418 H 0.8481 0.44715 0.77806 0.0
H419 H 0.82946 0.48566 0.80527 0.0
H420 H 0.70173 0.63456 0.70875 0.0
H421 H 0.67861 0.65611 0.736 0.0
H422 H 0.73141 0.54023 0.69249 0.0
H423 H 0.77884 0.49964 0.69475 0.0
C424 C 0.51511 0.06383 -0.00323 0.0
C425 C 0.51478 0.0578 0.97011 0.0
C426 C 0.45606 0.96964 0.96907 0.0
C427 C 0.45459 0.98104 0.99546 0.0
N428 N 0.47807 0.05092 0.03377 0.0
N429 N 0.48147 0.01759 0.93027 0.0
C430 C 0.48284 0.03149 0.00915 0.0
C431 C 0.48427 0.01417 0.95606 0.0
N432 N 0.547 0.09738 0.01036 0.0
N433 N 0.43153 0.91384 0.95662 0.0
H434 H 0.50141 0.05011 0.92007 0.0
H435 H 0.4575 0.99447 0.91903 0.0
H436 H 0.41056 0.87978 0.9655 0.0
H437 H 0.43418 0.89607 0.938 0.0
H438 H 0.55094 0.09504 0.02999 0.0
H439 H 0.57134 0.12145 0.00203 0.0
H440 H 0.49522 0.09456 0.0439 0.0
H441 H 0.45466 0.02895 0.04348 0.0
C442 C 0.46915 0.35493 0.25392 0.0
C443 C 0.46371 0.33199 0.22814 0.0
C444 C 0.51836 0.23398 0.23396 0.0
C445 C 0.52514 0.26005 0.25938 0.0
N446 N 0.51348 0.35876 0.29187 0.0
N447 N 0.48871 0.26517 0.19214 0.0
C448 C 0.50245 0.32458 0.26889 0.0
C449 C 0.49001 0.27606 0.2177 0.0
N450 N 0.44165 0.40258 0.26443 0.0
N451 N 0.5377 0.16685 0.22561 0.0
H452 H 0.46901 0.29675 0.17961 0.0
H453 H 0.50964 0.23145 0.18322 0.0
H454 H 0.55854 0.1339 0.23696 0.0
H455 H 0.53066 0.13956 0.20811 0.0
H456 H 0.44175 0.41327 0.28377 0.0
H457 H 0.41679 0.42608 0.25415 0.0
H458 H 0.50056 0.41158 0.29858 0.0
H459 H 0.53813 0.33924 0.30321 0.0
C460 C 0.50753 0.83646 0.73426 0.0
C461 C 0.48093 0.77057 0.72836 0.0
C462 C 0.51907 0.68145 0.75837 0.0
C463 C 0.54371 0.74901 0.76572 0.0
N464 N 0.55981 0.89286 0.76286 0.0
N465 N 0.45836 0.63288 0.73637 0.0
C466 C 0.53777 0.82698 0.75411 0.0
C467 C 0.48571 0.69389 0.74097 0.0
N468 N 0.50371 0.90834 0.72097 0.0
N469 N 0.52878 0.60447 0.76712 0.0
H470 H 0.43476 0.63717 0.72272 0.0
H471 H 0.45747 0.57975 0.74721 0.0
H472 H 0.55354 0.59265 0.77944 0.0
H473 H 0.51463 0.55113 0.76046 0.0
H474 H 0.52501 0.95448 0.72189 0.0
H475 H 0.47989 0.92079 0.70798 0.0
H476 H 0.55385 0.95328 0.75748 0.0
H477 H 0.58287 0.88817 0.77688 0.0
C478 C 0.48966 0.52688 0.52208 0.0
C479 C 0.47185 0.45395 0.51188 0.0
C480 C 0.51478 0.45814 0.47682 0.0
C481 C 0.5308 0.53369 0.4862 0.0
N482 N 0.53003 0.64684 0.5154 0.0
N483 N 0.46211 0.35758 0.47749 0.0
C484 C 0.51703 0.57035 0.50807 0.0
C485 C 0.48307 0.42128 0.48873 0.0
N486 N 0.48197 0.55224 0.54576 0.0
N487 N 0.52993 0.42157 0.45651 0.0
H488 H 0.4383 0.32972 0.48542 0.0
H489 H 0.46597 0.33664 0.45934 0.0
H490 H 0.55107 0.44951 0.44612 0.0
H491 H 0.52321 0.36174 0.45075 0.0
H492 H 0.49716 0.59969 0.55539 0.0
H493 H 0.46269 0.52127 0.55684 0.0
H494 H 0.51773 0.68096 0.52938 0.0
H495 H 0.55132 0.67909 0.50625 0.0
C496 C 0.14845 0.92143 0.34532 0.0
C497 C 0.13551 0.84258 0.35252 0.0
C498 C 0.11269 0.89919 0.39144 0.0
C499 C 0.12687 0.97754 0.38475 0.0
N500 N 0.16764 0.05859 0.35903 0.0
N501 N 0.11686 0.75231 0.38556 0.0
C502 C 0.14782 0.98715 0.36284 0.0
C503 C 0.12142 0.83018 0.37665 0.0
N504 N 0.15911 0.93497 0.32138 0.0
N505 N 0.08871 0.89115 0.4108 0.0
H506 H 0.12439 0.7005 0.37546 0.0
H507 H 0.10995 0.73961 0.40393 0.0
H508 H 0.08014 0.94067 0.4215 0.0
H509 H 0.07421 0.83668 0.41466 0.0
H510 H 0.16432 0.99333 0.31432 0.0
H511 H 0.15978 0.88884 0.30784 0.0
H512 H 0.18645 0.0664 0.34462 0.0
H513 H 0.16849 0.10702 0.37188 0.0
C514 C 0.14648 0.35579 0.38152 0.0
C515 C 0.11689 0.37244 0.39832 0.0
C516 C 0.09865 0.49805 0.37487 0.0
C517 C 0.13191 0.48729 0.36061 0.0
N518 N 0.18884 0.40901 0.35062 0.0
N519 N 0.06551 0.45974 0.41205 0.0
C520 C 0.15607 0.41672 0.3639 0.0
C521 C 0.09298 0.44354 0.39521 0.0
N522 N 0.16527 0.28156 0.38226 0.0
N523 N 0.07244 0.55992 0.36883 0.0
H524 H 0.05934 0.41906 0.42641 0.0
H525 H 0.05035 0.51511 0.4127 0.0
H526 H 0.07587 0.601 0.35411 0.0
H527 H 0.04568 0.56663 0.37693 0.0
H528 H 0.18394 0.26244 0.36877 0.0
H529 H 0.15969 0.2356 0.3951 0.0
H530 H 0.21056 0.36474 0.35447 0.0
H531 H 0.19571 0.45013 0.33655 0.0
C532 C 0.13773 0.29431 0.87806 0.0
C533 C 0.13898 0.30669 0.8518 0.0
C534 C 0.13492 0.45481 0.85805 0.0
C535 C 0.12504 0.44084 0.88312 0.0
N536 N 0.11514 0.34605 0.9171 0.0
N537 N 0.13728 0.39859 0.81606 0.0
C538 C 0.12651 0.36033 0.89337 0.0
C539 C 0.13771 0.38704 0.84156 0.0
N540 N 0.14794 0.21976 0.88831 0.0
N541 N 0.14275 0.53264 0.85029 0.0
H542 H 0.14008 0.3506 0.80333 0.0
H543 H 0.13157 0.45521 0.80741 0.0
H544 H 0.14325 0.58251 0.86259 0.0
H545 H 0.1532 0.54609 0.83283 0.0
H546 H 0.15058 0.20847 0.90767 0.0
H547 H 0.15818 0.1721 0.87745 0.0
H548 H 0.1114 0.28734 0.92433 0.0
H549 H 0.10651 0.39262 0.92891 0.0
C550 C 0.10996 0.88979 0.89026 0.0
C551 C 0.10944 0.80867 0.8806 0.0
C552 C 0.1211 0.86009 0.83857 0.0
C553 C 0.12273 0.94112 0.84837 0.0
N554 N 0.10427 0.03471 0.88045 0.0
N555 N 0.09964 0.71993 0.84455 0.0
C556 C 0.11251 0.9565 0.87329 0.0
C557 C 0.11017 0.79496 0.85434 0.0
N558 N 0.11009 0.90324 0.91565 0.0
N559 N 0.13206 0.84443 0.81485 0.0
H560 H 0.08938 0.67312 0.85576 0.0
H561 H 0.09665 0.70757 0.82526 0.0
H562 H 0.14002 0.89039 0.80259 0.0
H563 H 0.13586 0.7853 0.80797 0.0
H564 H 0.11547 0.96061 0.92389 0.0
H565 H 0.10714 0.85626 0.92869 0.0
H566 H 0.09364 0.04921 0.89777 0.0
H567 H 0.10368 0.08363 0.86777 0.0
C568 C 0.82667 0.147 0.63255 0.0
C569 C 0.86155 0.15758 0.64876 0.0
C570 C 0.88966 0.0321 0.63224 0.0
C571 C 0.85434 0.0202 0.61656 0.0
N572 N 0.78669 0.05631 0.60469 0.0
N573 N 0.92207 0.10199 0.66844 0.0
C574 C 0.82193 0.0744 0.61773 0.0
C575 C 0.89188 0.09766 0.64988 0.0
N576 N 0.79905 0.2081 0.63039 0.0
N577 N 0.92132 0.98148 0.63 0.0
H578 H 0.92421 0.14841 0.68202 0.0
H579 H 0.94293 0.05578 0.67195 0.0
H580 H 0.92038 0.93025 0.6182 0.0
H581 H 0.94938 0.99306 0.6386 0.0
H582 H 0.77529 0.20852 0.61678 0.0
H583 H 0.80126 0.26165 0.64114 0.0
H584 H 0.7607 0.08854 0.60683 0.0
H585 H 0.78267 0.00499 0.59302 0.0
C586 C 0.85921 0.50217 0.61422 0.0
C587 C 0.85846 0.52338 0.64009 0.0
C588 C 0.87482 0.66585 0.63038 0.0
C589 C 0.86941 0.64719 0.60431 0.0
N590 N 0.85636 0.54912 0.57079 0.0
N591 N 0.86079 0.62686 0.67273 0.0
C592 C 0.86178 0.56557 0.59605 0.0
C593 C 0.86554 0.60543 0.64826 0.0
N594 N 0.85873 0.42138 0.60716 0.0
N595 N 0.88851 0.74146 0.63804 0.0
H596 H 0.8528 0.58508 0.6863 0.0
H597 H 0.86117 0.68733 0.6791 0.0
H598 H 0.89547 0.78721 0.62541 0.0
H599 H 0.89667 0.75611 0.6568 0.0
H600 H 0.86311 0.40159 0.58896 0.0
H601 H 0.85732 0.37322 0.61999 0.0
H602 H 0.84552 0.4935 0.56348 0.0
H603 H 0.86136 0.59281 0.55703 0.0
C604 C 0.88561 0.56491 0.10552 0.0
C605 C 0.87306 0.48641 0.11326 0.0
C606 C 0.85482 0.54442 0.15328 0.0
C607 C 0.86535 0.62354 0.1448 0.0
N608 N 0.8791 0.71176 0.1101 0.0
N609 N 0.83698 0.40462 0.1416 0.0
C610 C 0.87693 0.63458 0.11998 0.0
C611 C 0.85485 0.47713 0.13625 0.0
N612 N 0.90814 0.57267 0.08542 0.0
N613 N 0.84696 0.53242 0.17786 0.0
H614 H 0.83591 0.35456 0.12932 0.0
H615 H 0.81996 0.39689 0.15692 0.0
H616 H 0.8468 0.57983 0.19101 0.0
H617 H 0.84364 0.47443 0.1857 0.0
H618 H 0.92129 0.62778 0.08064 0.0
H619 H 0.91733 0.52257 0.0752 0.0
H620 H 0.88413 0.72294 0.0913 0.0
H621 H 0.87135 0.76396 0.11993 0.0
C622 C 0.8948 0.96898 0.1181 0.0
C623 C 0.86234 0.97995 0.13306 0.0
C624 C 0.84575 0.10973 0.11157 0.0
C625 C 0.87506 0.09341 0.09454 0.0
N626 N 0.92589 0.00633 0.08005 0.0
N627 N 0.80593 0.05799 0.1441 0.0
C628 C 0.89928 0.02279 0.09742 0.0
C629 C 0.83761 0.04977 0.12987 0.0
N630 N 0.92153 0.90786 0.12387 0.0
N631 N 0.82609 0.18306 0.11045 0.0
H632 H 0.80073 0.01861 0.15896 0.0
H633 H 0.78367 0.10124 0.1405 0.0
H634 H 0.83042 0.22786 0.09695 0.0
H635 H 0.80756 0.20253 0.12397 0.0
H636 H 0.94785 0.9013 0.11525 0.0
H637 H 0.91907 0.86731 0.13884 0.0
H638 H 0.94125 0.95122 0.07933 0.0
H639 H 0.9309 0.04614 0.06523 0.0
C640 C 0.64109 0.03548 0.83675 0.0
C641 C 0.65255 0.95859 0.84741 0.0
C642 C 0.6681 0.02446 0.8884 0.0
C643 C 0.64925 0.09673 0.87889 0.0
N644 N 0.61825 0.17366 0.84399 0.0
N645 N 0.67704 0.8782 0.88355 0.0
C646 C 0.63652 0.10366 0.85292 0.0
C647 C 0.66688 0.95273 0.87319 0.0
N648 N 0.63504 0.04305 0.81112 0.0
N649 N 0.68761 0.02513 0.91189 0.0
H650 H 0.67782 0.8244 0.87305 0.0
H651 H 0.68256 0.86866 0.90288 0.0
H652 H 0.68961 0.07769 0.92316 0.0
H653 H 0.70509 0.97683 0.91911 0.0
H654 H 0.63004 0.09892 0.8019 0.0
H655 H 0.63888 0.99411 0.79886 0.0
H656 H 0.60381 0.17876 0.82605 0.0
H657 H 0.61573 0.22584 0.85504 0.0
C658 C 0.58977 0.44956 0.87841 0.0
C659 C 0.60237 0.45566 0.90447 0.0
C660 C 0.62236 0.59841 0.89871 0.0
C661 C 0.60939 0.59278 0.8727 0.0
N662 N 0.57058 0.52165 0.83955 0.0
N663 N 0.61906 0.54143 0.94062 0.0
C664 C 0.58981 0.52103 0.86312 0.0
C665 C 0.61481 0.53215 0.91499 0.0
N666 N 0.58003 0.37509 0.86781 0.0
N667 N 0.64412 0.66435 0.90763 0.0
H668 H 0.61297 0.49414 0.95302 0.0
H669 H 0.62445 0.59787 0.94947 0.0
H670 H 0.65127 0.71353 0.89634 0.0
H671 H 0.6581 0.66696 0.92577 0.0
H672 H 0.5758 0.3658 0.84839 0.0
H673 H 0.5788 0.32097 0.87812 0.0
H674 H 0.55231 0.47411 0.83256 0.0
H675 H 0.56962 0.57322 0.82792 0.0
C676 C 0.63779 0.35283 0.37974 0.0
C677 C 0.62936 0.36252 0.35343 0.0
C678 C 0.61751 0.5086 0.35956 0.0
C679 C 0.61722 0.49487 0.38589 0.0
N680 N 0.62621 0.40211 0.42146 0.0
N681 N 0.60987 0.44905 0.31775 0.0
C682 C 0.6278 0.4168 0.39624 0.0
C683 C 0.61934 0.44052 0.34309 0.0
N684 N 0.6559 0.28289 0.38882 0.0
N685 N 0.61738 0.58696 0.35044 0.0
H686 H 0.61184 0.401 0.30494 0.0
H687 H 0.59767 0.50248 0.3097 0.0
H688 H 0.6189 0.6377 0.36241 0.0
H689 H 0.62067 0.60122 0.33161 0.0
H690 H 0.66579 0.27464 0.40769 0.0
H691 H 0.66492 0.23697 0.37683 0.0
H692 H 0.629 0.3437 0.42938 0.0
H693 H 0.61936 0.44708 0.43432 0.0
C694 C 0.59692 0.85334 0.35901 0.0
C695 C 0.6022 0.86447 0.38541 0.0
C696 C 0.61296 0.01112 0.37912 0.0
C697 C 0.61658 -0.00395 0.35308 0.0
N698 N 0.6142 0.90036 0.31815 0.0
N699 N 0.61468 0.95414 0.42128 0.0
C700 C 0.60849 0.91676 0.34283 0.0
C701 C 0.60947 0.94371 0.39572 0.0
N702 N 0.58021 0.78247 0.34953 0.0
N703 N 0.61172 0.08992 0.38778 0.0
H704 H 0.61024 0.90712 0.43407 0.0
H705 H 0.62528 0.00832 0.42975 0.0
H706 H 0.61225 0.14032 0.37576 0.0
H707 H 0.60578 0.10509 0.40615 0.0
H708 H 0.57275 0.7729 0.33037 0.0
H709 H 0.5696 0.73752 0.36129 0.0
H710 H 0.61281 0.84132 0.31059 0.0
H711 H 0.6236 0.94436 0.3057 0.0
C712 C 0.33797 0.1199 0.1144 0.0
C713 C 0.35326 0.11292 0.13996 0.0
C714 C 0.36732 0.96739 0.13382 0.0
C715 C 0.35182 0.9739 0.10827 0.0
N716 N 0.31211 0.04901 0.07653 0.0
N717 N 0.37048 0.02615 0.1758 0.0
C718 C 0.33382 0.04796 0.09929 0.0
C719 C 0.36394 0.03518 0.15024 0.0
N720 N 0.32951 0.1953 0.10409 0.0
N721 N 0.38765 0.89895 0.14209 0.0
H722 H 0.36744 0.07463 0.18835 0.0
H723 H 0.37465 0.96933 0.18461 0.0
H724 H 0.39167 0.84812 0.13076 0.0
H725 H 0.40353 0.89535 0.15963 0.0
H726 H 0.32325 0.20473 0.0848 0.0
H727 H 0.33128 0.24956 0.11446 0.0
H728 H 0.29515 0.09907 0.07006 0.0
H729 H 0.30778 -0.00316 0.06525 0.0
C730 C 0.39467 0.4635 0.09362 0.0
C731 C 0.40832 0.47532 0.11927 0.0
C732 C 0.42021 0.62105 0.11153 0.0
C733 C 0.40398 0.61033 0.08632 0.0
N734 N 0.38781 0.52019 0.05123 0.0
N735 N 0.44484 0.55648 0.15086 0.0
C736 C 0.3952 0.53083 0.07667 0.0
C737 C 0.4247 0.55146 0.12762 0.0
N738 N 0.3793 0.38937 0.08579 0.0
N739 N 0.42925 0.698 0.12045 0.0
H740 H 0.44897 0.50569 0.16275 0.0
H741 H 0.46053 0.60819 0.15738 0.0
H742 H 0.42821 0.74984 0.10895 0.0
H743 H 0.43622 0.71126 0.13944 0.0
H744 H 0.36425 0.37977 0.06822 0.0
H745 H 0.37996 0.33775 0.09738 0.0
H746 H 0.38433 0.46303 0.04258 0.0
H747 H 0.38913 0.5687 0.03848 0.0
C748 C 0.38472 0.4791 0.66008 0.0
C749 C 0.36976 0.55511 0.65062 0.0
C750 C 0.34776 0.48854 0.61063 0.0
C751 C 0.36956 0.41757 0.61842 0.0
N752 N 0.41187 0.34711 0.65013 0.0
N753 N 0.33849 0.63423 0.61604 0.0
C754 C 0.38839 0.41262 0.64318 0.0
C755 C 0.35104 0.56031 0.6258 0.0
N756 N 0.39503 0.47044 0.68532 0.0
N757 N 0.32336 0.48684 0.58894 0.0
H758 H 0.33926 0.6884 0.62641 0.0
H759 H 0.32967 0.64303 0.59701 0.0
H760 H 0.31987 0.43485 0.57755 0.0
H761 H 0.30362 0.53376 0.58362 0.0
H762 H 0.40264 0.41432 0.69375 0.0
H763 H 0.39183 0.51782 0.69823 0.0
H764 H 0.42988 0.34506 0.6669 0.0
H765 H 0.41608 0.2976 0.63829 0.0
C766 C 0.39153 0.97919 0.57938 0.0
C767 C 0.40617 0.05537 0.58891 0.0
C768 C 0.42661 0.98995 0.62931 0.0
C769 C 0.40494 0.91884 0.62135 0.0
N770 N 0.36458 0.8465 0.58903 0.0
N771 N 0.43743 0.13514 0.62327 0.0
C772 C 0.38738 0.91286 0.59628 0.0
C773 C 0.42437 0.06111 0.61382 0.0
N774 N 0.38181 0.97054 0.55407 0.0
N775 N 0.44986 0.98884 0.65148 0.0
H776 H 0.43787 0.18831 0.61244 0.0
H777 H 0.44585 0.14502 0.6423 0.0
H778 H 0.45248 0.9372 0.66306 0.0
H779 H 0.46945 0.03576 0.65713 0.0
H780 H 0.37434 0.91449 0.54554 0.0
H781 H 0.38532 0.01811 0.54126 0.0
H782 H 0.34731 0.8435 0.57199 0.0
H783 H 0.36035 0.7968 0.60082 0.0
loop_
_geom_bond_atom_site_label_1
_geom_bond_atom_site_label_2
_geom_bond_distance
_geom_bond_site_symmetry_2
_ccdc_geom_bond_type
C0 O1 1.160 . S
C0 O7 1.185 . S
O1 C0 1.160 . S
O2 Zn3 1.899 . S
O2 C10 1.284 . S
Zn3 O2 1.899 . S
Zn3 O4 2.032 . S
Zn3 O7 2.086 . S
Zn3 O12 1.977 . S
O4 Zn3 2.032 . S
O4 C8 1.278 . S
C5 O6 1.203 . S
C5 O12 1.267 . S
O6 C5 1.203 . S
O7 C0 1.185 . S
O7 Zn3 2.086 . S
C8 O4 1.278 . S
C8 O9 1.211 . S
O9 C8 1.211 . S
C10 O2 1.284 . S
C10 O11 1.273 . S
O11 C10 1.273 . S
O12 Zn3 1.977 . S
O12 C5 1.267 . S
C13 O14 1.160 . S
C13 O20 1.185 . S
O14 C13 1.160 . S
O15 Zn16 1.899 . S
O15 C23 1.284 . S
Zn16 O15 1.899 . S
Zn16 O17 2.032 . S
Zn16 O20 2.086 . S
Zn16 O25 1.977 . S
O17 Zn16 2.032 . S
O17 C21 1.278 . S
C18 O19 1.203 . S
C18 O25 1.267 . S
O19 C18 1.203 . S
O20 C13 1.185 . S
O20 Zn16 2.086 . S
C21 O17 1.278 . S
C21 O22 1.211 . S
O22 C21 1.211 . S
C23 O15 1.284 . S
C23 O24 1.273 . S
O24 C23 1.273 . S
O25 Zn16 1.977 . S
O25 C18 1.267 . S
C26 O27 1.160 . S
C26 O33 1.185 . S
O27 C26 1.160 . S
O28 Zn29 1.899 . S
O28 C36 1.284 . S
Zn29 O28 1.899 . S
Zn29 O30 2.032 . S
Zn29 O33 2.086 . S
Zn29 O38 1.977 . S
O30 Zn29 2.032 . S
O30 C34 1.278 . S
C31 O32 1.203 . S
C31 O38 1.267 . S
O32 C31 1.203 . S
O33 C26 1.185 . S
O33 Zn29 2.086 . S
C34 O30 1.278 . S
C34 O35 1.211 . S
O35 C34 1.211 . S
C36 O28 1.284 . S
C36 O37 1.273 . S
O37 C36 1.273 . S
O38 Zn29 1.977 . S
O38 C31 1.267 . S
C39 O40 1.160 . S
C39 O46 1.185 . S
O40 C39 1.160 . S
O41 Zn42 1.899 . S
O41 C49 1.284 . S
Zn42 O41 1.899 . S
Zn42 O43 2.032 . S
Zn42 O46 2.086 . S
Zn42 O51 1.977 . S
O43 Zn42 2.032 . S
O43 C47 1.278 . S
C44 O45 1.203 . S
C44 O51 1.267 . S
O45 C44 1.203 . S
O46 C39 1.185 . S
O46 Zn42 2.086 . S
C47 O43 1.278 . S
C47 O48 1.211 . S
O48 C47 1.211 . S
C49 O41 1.284 . S
C49 O50 1.273 . S
O50 C49 1.273 . S
O51 Zn42 1.977 . S
O51 C44 1.267 . S
C52 O53 1.160 . S
C52 O59 1.185 . S
O53 C52 1.160 . S
O54 Zn55 1.899 . S
O54 C62 1.284 . S
Zn55 O54 1.899 . S
Zn55 O56 2.032 . S
Zn55 O59 2.086 . S
Zn55 O64 1.977 . S
O56 Zn55 2.032 . S
O56 C60 1.278 . S
C57 O58 1.203 . S
C57 O64 1.267 . S
O58 C57 1.203 . S
O59 C52 1.185 . S
O59 Zn55 2.086 . S
C60 O56 1.278 . S
C60 O61 1.211 . S
O61 C60 1.211 . S
C62 O54 1.284 . S
C62 O63 1.273 . S
O63 C62 1.273 . S
O64 Zn55 1.977 . S
O64 C57 1.267 . S
C65 O66 1.160 . S
C65 O72 1.185 . S
O66 C65 1.160 . S
O67 Zn68 1.899 . S
O67 C75 1.284 . S
Zn68 O67 1.899 . S
Zn68 O69 2.032 . S
Zn68 O72 2.086 . S
Zn68 O77 1.977 . S
O69 Zn68 2.032 . S
O69 C73 1.278 . S
C70 O71 1.203 . S
C70 O77 1.267 . S
O71 C70 1.203 . S
O72 C65 1.185 . S
O72 Zn68 2.086 . S
C73 O69 1.278 . S
C73 O74 1.211 . S
O74 C73 1.211 . S
C75 O67 1.284 . S
C75 O76 1.273 . S
O76 C75 1.273 . S
O77 Zn68 1.977 . S
O77 C70 1.267 . S
C78 O79 1.160 . S
C78 O85 1.185 . S
O79 C78 1.160 . S
O80 Zn81 1.899 . S
O80 C88 1.284 . S
Zn81 O80 1.899 . S
Zn81 O82 2.032 . S
Zn81 O85 2.086 . S
Zn81 O90 1.977 . S
O82 Zn81 2.032 . S
O82 C86 1.278 . S
C83 O84 1.203 . S
C83 O90 1.267 . S
O84 C83 1.203 . S
O85 C78 1.185 . S
O85 Zn81 2.086 . S
C86 O82 1.278 . S
C86 O87 1.211 . S
O87 C86 1.211 . S
C88 O80 1.284 . S
C88 O89 1.273 . S
O89 C88 1.273 . S
O90 Zn81 1.977 . S
O90 C83 1.267 . S
C91 O92 1.160 . S
C91 O98 1.185 . S
O92 C91 1.160 . S
O93 Zn94 1.899 . S
O93 C101 1.284 . S
Zn94 O93 1.899 . S
Zn94 O95 2.032 . S
Zn94 O98 2.086 . S
Zn94 O103 1.977 . S
O95 Zn94 2.032 . S
O95 C99 1.278 . S
C96 O97 1.203 . S
C96 O103 1.267 . S
O97 C96 1.203 . S
O98 C91 1.185 . S
O98 Zn94 2.086 . S
C99 O95 1.278 . S
C99 O100 1.211 . S
O100 C99 1.211 . S
C101 O93 1.284 . S
C101 O102 1.273 . S
O102 C101 1.273 . S
O103 Zn94 1.977 . S
O103 C96 1.267 . S
C104 O105 1.160 . S
C104 O111 1.185 . S
O105 C104 1.160 . S
O106 Zn107 1.899 . S
O106 C114 1.284 . S
Zn107 O106 1.899 . S
Zn107 O108 2.032 . S
Zn107 O111 2.086 . S
Zn107 O116 1.977 . S
O108 Zn107 2.032 . S
O108 C112 1.278 . S
C109 O110 1.203 . S
C109 O116 1.267 . S
O110 C109 1.203 . S
O111 C104 1.185 . S
O111 Zn107 2.086 . S
C112 O108 1.278 . S
C112 O113 1.211 . S
O113 C112 1.211 . S
C114 O106 1.284 . S
C114 O115 1.273 . S
O115 C114 1.273 . S
O116 Zn107 1.977 . S
O116 C109 1.267 . S
C117 O118 1.160 . S
C117 O124 1.185 . S
O118 C117 1.160 . S
O119 Zn120 1.899 . S
O119 C127 1.284 . S
Zn120 O119 1.899 . S
Zn120 O121 2.032 . S
Zn120 O124 2.086 . S
Zn120 O129 1.977 . S
O121 Zn120 2.032 . S
O121 C125 1.278 . S
C122 O123 1.203 . S
C122 O129 1.267 . S
O123 C122 1.203 . S
O124 C117 1.185 . S
O124 Zn120 2.086 . S
C125 O121 1.278 . S
C125 O126 1.211 . S
O126 C125 1.211 . S
C127 O119 1.284 . S
C127 O128 1.273 . S
O128 C127 1.273 . S
O129 Zn120 1.977 . S
O129 C122 1.267 . S
C130 O131 1.160 . S
C130 O137 1.185 . S
O131 C130 1.160 . S
O132 Zn133 1.899 . S
O132 C140 1.284 . S
Zn133 O132 1.899 . S
Zn133 O134 2.032 . S
Zn133 O137 2.086 . S
Zn133 O142 1.977 . S
O134 Zn133 2.032 . S
O134 C138 1.278 . S
C135 O136 1.203 . S
C135 O142 1.267 . S
O136 C135 1.203 . S
O137 C130 1.185 . S
O137 Zn133 2.086 . S
C138 O134 1.278 . S
C138 O139 1.211 . S
O139 C138 1.211 . S
C140 O132 1.284 . S
C140 O141 1.273 . S
O141 C140 1.273 . S
O142 Zn133 1.977 . S
O142 C135 1.267 . S
C143 O144 1.160 . S
C143 O150 1.185 . S
O144 C143 1.160 . S
O145 Zn146 1.899 . S
O145 C153 1.284 . S
Zn146 O145 1.899 . S
Zn146 O147 2.032 . S
Zn146 O150 2.086 . S
Zn146 O155 1.977 . S
O147 Zn146 2.032 . S
O147 C151 1.278 . S
C148 O149 1.203 . S
C148 O155 1.267 . S
O149 C148 1.203 . S
O150 C143 1.185 . S
O150 Zn146 2.086 . S
C151 O147 1.278 . S
C151 O152 1.211 . S
O152 C151 1.211 . S
C153 O145 1.284 . S
C153 O154 1.273 . S
O154 C153 1.273 . S
O155 Zn146 1.977 . S
O155 C148 1.267 . S
C156 O157 1.160 . S
C156 O163 1.185 . S
O157 C156 1.160 . S
O158 Zn159 1.899 . S
O158 C166 1.284 . S
Zn159 O158 1.899 . S
Zn159 O160 2.032 . S
Zn159 O163 2.086 . S
Zn159 O168 1.977 . S
O160 Zn159 2.032 . S
O160 C164 1.278 . S
C161 O162 1.203 . S
C161 O168 1.267 . S
O162 C161 1.203 . S
O163 C156 1.185 . S
O163 Zn159 2.086 . S
C164 O160 1.278 . S
C164 O165 1.211 . S
O165 C164 1.211 . S
C166 O158 1.284 . S
C166 O167 1.273 . S
O167 C166 1.273 . S
O168 Zn159 1.977 . S
O168 C161 1.267 . S
C169 O170 1.160 . S
C169 O176 1.185 . S
O170 C169 1.160 . S
O171 Zn172 1.899 . S
O171 C179 1.284 . S
Zn172 O171 1.899 . S
Zn172 O173 2.032 . S
Zn172 O176 2.086 . S
Zn172 O181 1.977 . S
O173 Zn172 2.032 . S
O173 C177 1.278 . S
C174 O175 1.203 . S
C174 O181 1.267 . S
O175 C174 1.203 . S
O176 C169 1.185 . S
O176 Zn172 2.086 . S
C177 O173 1.278 . S
C177 O178 1.211 . S
O178 C177 1.211 . S
C179 O171 1.284 . S
C179 O180 1.273 . S
O180 C179 1.273 . S
O181 Zn172 1.977 . S
O181 C174 1.267 . S
C182 O183 1.160 . S
C182 O189 1.185 . S
O183 C182 1.160 . S
O184 Zn185 1.899 . S
O184 C192 1.284 . S
Zn185 O184 1.899 . S
Zn185 O186 2.032 . S
Zn185 O189 2.086 . S
Zn185 O194 1.977 . S
O186 Zn185 2.032 . S
O186 C190 1.278 . S
C187 O188 1.203 . S
C187 O194 1.267 . S
O188 C187 1.203 . S
O189 C182 1.185 . S
O189 Zn185 2.086 . S
C190 O186 1.278 . S
C190 O191 1.211 . S
O191 C190 1.211 . S
C192 O184 1.284 . S
C192 O193 1.273 . S
O193 C192 1.273 . S
O194 Zn185 1.977 . S
O194 C187 1.267 . S
C195 O196 1.160 . S
C195 O202 1.185 . S
O196 C195 1.160 . S
O197 Zn198 1.899 . S
O197 C205 1.284 . S
Zn198 O197 1.899 . S
Zn198 O199 2.032 . S
Zn198 O202 2.086 . S
Zn198 O207 1.977 . S
O199 Zn198 2.032 . S
O199 C203 1.278 . S
C200 O201 1.203 . S
C200 O207 1.267 . S
O201 C200 1.203 . S
O202 C195 1.185 . S
O202 Zn198 2.086 . S
C203 O199 1.278 . S
C203 O204 1.211 . S
O204 C203 1.211 . S
C205 O197 1.284 . S
C205 O206 1.273 . S
O206 C205 1.273 . S
O207 Zn198 1.977 . S
O207 C200 1.267 . S
C208 C209 1.363 . S
C208 C214 1.379 . S
C208 N216 1.356 . S
C209 C208 1.363 . S
C209 C215 1.363 . S
C210 C211 1.363 . S
C210 C215 1.379 . S
C210 N217 1.356 . S
C211 C210 1.363 . S
C211 C214 1.363 . S
N212 C214 1.356 . S
N212 H224 0.984 . S
N212 H225 0.985 . S
N213 C215 1.356 . S
N213 H218 0.984 . S
N213 H219 0.985 . S
C214 C208 1.379 . S
C214 C211 1.363 . S
C214 N212 1.356 . S
C215 C209 1.363 . S
C215 C210 1.379 . S
C215 N213 1.356 . S
N216 C208 1.356 . S
N216 H222 0.984 . S
N216 H223 0.984 . S
N217 C210 1.356 . S
N217 H220 0.984 . S
N217 H221 0.985 . S
H218 N213 0.984 . S
H219 N213 0.985 . S
H220 N217 0.984 . S
H221 N217 0.985 . S
H222 N216 0.984 . S
H223 N216 0.984 . S
H224 N212 0.984 . S
H225 N212 0.985 . S
C226 C227 1.363 1_455 S
C226 C232 1.379 . S
C226 N234 1.356 . S
C227 C226 1.363 1_655 S
C227 C233 1.363 1_565 S
C228 C229 1.363 1_655 S
C228 C233 1.379 . S
C228 N235 1.356 . S
C229 C228 1.363 1_455 S
C229 C232 1.363 1_545 S
N230 C232 1.356 . S
N230 H242 0.984 . S
N230 H243 0.985 1_565 S
N231 C233 1.356 . S
N231 H236 0.984 1_545 S
N231 H237 0.985 . S
C232 C226 1.379 . S
C232 C229 1.363 1_565 S
C232 N230 1.356 . S
C233 C227 1.363 1_545 S
C233 C228 1.379 . S
C233 N231 1.356 . S
N234 C226 1.356 . S
N234 H240 0.984 . S
N234 H241 0.984 1_455 S
N235 C228 1.356 . S
N235 H238 0.984 1_655 S
N235 H239 0.985 . S
H236 N231 0.984 1_565 S
H237 N231 0.985 . S
H238 N235 0.984 1_455 S
H239 N235 0.985 . S
H240 N234 0.984 . S
H241 N234 0.984 1_655 S
H242 N230 0.984 . S
H243 N230 0.985 1_545 S
C244 C245 1.363 1_545 S
C244 C250 1.379 . S
C244 N252 1.356 . S
C245 C244 1.363 1_565 S
C245 C251 1.363 . S
C246 C247 1.363 1_565 S
C246 C251 1.379 . S
C246 N253 1.356 . S
C247 C246 1.363 1_545 S
C247 C250 1.363 . S
N248 C250 1.356 . S
N248 H260 0.984 . S
N248 H261 0.985 . S
N249 C251 1.356 . S
N249 H254 0.984 . S
N249 H255 0.985 . S
C250 C244 1.379 . S
C250 C247 1.363 . S
C250 N248 1.356 . S
C251 C245 1.363 . S
C251 C246 1.379 . S
C251 N249 1.356 . S
N252 C244 1.356 . S
N252 H258 0.984 . S
N252 H259 0.984 1_545 S
N253 C246 1.356 . S
N253 H256 0.984 1_565 S
N253 H257 0.985 . S
H254 N249 0.984 . S
H255 N249 0.985 . S
H256 N253 0.984 1_545 S
H257 N253 0.985 . S
H258 N252 0.984 . S
H259 N252 0.984 1_565 S
H260 N248 0.984 . S
H261 N248 0.985 . S
C262 C263 1.363 . S
C262 C268 1.379 . S
C262 N270 1.356 . S
C263 C262 1.363 . S
C263 C269 1.363 1_455 S
C264 C265 1.363 . S
C264 C269 1.379 . S
C264 N271 1.356 . S
C265 C264 1.363 . S
C265 C268 1.363 1_655 S
N266 C268 1.356 . S
N266 H278 0.984 . S
N266 H279 0.985 1_455 S
N267 C269 1.356 . S
N267 H272 0.984 1_655 S
N267 H273 0.985 . S
C268 C262 1.379 . S
C268 C265 1.363 1_455 S
C268 N266 1.356 . S
C269 C263 1.363 1_655 S
C269 C264 1.379 . S
C269 N267 1.356 . S
N270 C262 1.356 . S
N270 H276 0.984 . S
N270 H277 0.984 . S
N271 C264 1.356 . S
N271 H274 0.984 . S
N271 H275 0.985 . S
H272 N267 0.984 1_455 S
H273 N267 0.985 . S
H274 N271 0.984 . S
H275 N271 0.985 . S
H276 N270 0.984 . S
H277 N270 0.984 . S
H278 N266 0.984 . S
H279 N266 0.985 1_655 S
C280 C281 1.363 . S
C280 C286 1.379 . S
C280 N288 1.356 . S
C281 C280 1.363 . S
C281 C287 1.363 . S
C282 C283 1.363 . S
C282 C287 1.379 . S
C282 N289 1.356 . S
C283 C282 1.363 . S
C283 C286 1.363 . S
N284 C286 1.356 . S
N284 H296 0.984 . S
N284 H297 0.985 . S
N285 C287 1.356 . S
N285 H290 0.984 . S
N285 H291 0.985 . S
C286 C280 1.379 . S
C286 C283 1.363 . S
C286 N284 1.356 . S
C287 C281 1.363 . S
C287 C282 1.379 . S
C287 N285 1.356 . S
N288 C280 1.356 . S
N288 H294 0.984 . S
N288 H295 0.984 . S
N289 C282 1.356 . S
N289 H292 0.984 . S
N289 H293 0.985 . S
H290 N285 0.984 . S
H291 N285 0.985 . S
H292 N289 0.984 . S
H293 N289 0.985 . S
H294 N288 0.984 . S
H295 N288 0.984 . S
H296 N284 0.984 . S
H297 N284 0.985 . S
C298 C299 1.363 . S
C298 C304 1.379 1_545 S
C298 N306 1.356 . S
C299 C298 1.363 . S
C299 C305 1.363 . S
C300 C301 1.363 . S
C300 C305 1.379 1_565 S
C300 N307 1.356 . S
C301 C300 1.363 . S
C301 C304 1.363 . S
N302 C304 1.356 . S
N302 H314 0.984 . S
N302 H315 0.985 . S
N303 C305 1.356 . S
N303 H308 0.984 . S
N303 H309 0.985 . S
C304 C298 1.379 1_565 S
C304 C301 1.363 . S
C304 N302 1.356 . S
C305 C299 1.363 . S
C305 C300 1.379 1_545 S
C305 N303 1.356 . S
N306 C298 1.356 . S
N306 H312 0.984 . S
N306 H313 0.984 . S
N307 C300 1.356 . S
N307 H310 0.984 . S
N307 H311 0.985 . S
H308 N303 0.984 . S
H309 N303 0.985 . S
H310 N307 0.984 . S
H311 N307 0.985 . S
H312 N306 0.984 . S
H313 N306 0.984 . S
H314 N302 0.984 . S
H315 N302 0.985 . S
C316 C317 1.363 . S
C316 C322 1.379 . S
C316 N324 1.356 . S
C317 C316 1.363 . S
C317 C323 1.363 1_655 S
C318 C319 1.363 . S
C318 C323 1.379 . S
C318 N325 1.356 . S
C319 C318 1.363 . S
C319 C322 1.363 1_455 S
N320 C322 1.356 . S
N320 H332 0.984 . S
N320 H333 0.985 1_655 S
N321 C323 1.356 . S
N321 H326 0.984 1_455 S
N321 H327 0.985 . S
C322 C316 1.379 . S
C322 C319 1.363 1_655 S
C322 N320 1.356 . S
C323 C317 1.363 1_455 S
C323 C318 1.379 . S
C323 N321 1.356 . S
N324 C316 1.356 . S
N324 H330 0.984 . S
N324 H331 0.984 . S
N325 C318 1.356 . S
N325 H328 0.984 . S
N325 H329 0.985 . S
H326 N321 0.984 1_655 S
H327 N321 0.985 . S
H328 N325 0.984 . S
H329 N325 0.985 . S
H330 N324 0.984 . S
H331 N324 0.984 . S
H332 N320 0.984 . S
H333 N320 0.985 1_455 S
C334 C335 1.363 . S
C334 C340 1.379 1_554 S
C334 N342 1.356 . S
C335 C334 1.363 . S
C335 C341 1.363 . S
C336 C337 1.363 . S
C336 C341 1.379 1_556 S
C336 N343 1.356 . S
C337 C336 1.363 . S
C337 C340 1.363 . S
N338 C340 1.356 . S
N338 H350 0.984 . S
N338 H351 0.985 . S
N339 C341 1.356 . S
N339 H344 0.984 . S
N339 H345 0.985 . S
C340 C334 1.379 1_556 S
C340 C337 1.363 . S
C340 N338 1.356 . S
C341 C335 1.363 . S
C341 C336 1.379 1_554 S
C341 N339 1.356 . S
N342 C334 1.356 . S
N342 H348 0.984 . S
N342 H349 0.984 . S
N343 C336 1.356 . S
N343 H346 0.984 . S
N343 H347 0.985 . S
H344 N339 0.984 . S
H345 N339 0.985 . S
H346 N343 0.984 . S
H347 N343 0.985 . S
H348 N342 0.984 . S
H349 N342 0.984 . S
H350 N338 0.984 . S
H351 N338 0.985 . S
C352 C353 1.363 1_655 S
C352 C358 1.379 1_556 S
C352 N360 1.356 . S
C353 C352 1.363 1_455 S
C353 C359 1.363 . S
C354 C355 1.363 1_455 S
C354 C359 1.379 1_554 S
C354 N361 1.356 . S
C355 C354 1.363 1_655 S
C355 C358 1.363 . S
N356 C358 1.356 . S
N356 H368 0.984 . S
N356 H369 0.985 . S
N357 C359 1.356 . S
N357 H362 0.984 . S
N357 H363 0.985 . S
C358 C352 1.379 1_554 S
C358 C355 1.363 . S
C358 N356 1.356 . S
C359 C353 1.363 . S
C359 C354 1.379 1_556 S
C359 N357 1.356 . S
N360 C352 1.356 . S
N360 H366 0.984 . S
N360 H367 0.984 1_655 S
N361 C354 1.356 . S
N361 H364 0.984 1_455 S
N361 H365 0.985 . S
H362 N357 0.984 . S
H363 N357 0.985 . S
H364 N361 0.984 1_655 S
H365 N361 0.985 . S
H366 N360 0.984 . S
H367 N360 0.984 1_455 S
H368 N356 0.984 . S
H369 N356 0.985 . S
C370 C371 1.363 . S
C370 C376 1.379 . S
C370 N378 1.356 . S
C371 C370 1.363 . S
C371 C377 1.363 . S
C372 C373 1.363 . S
C372 C377 1.379 . S
C372 N379 1.356 . S
C373 C372 1.363 . S
C373 C376 1.363 . S
N374 C376 1.356 . S
N374 H386 0.984 . S
N374 H387 0.985 . S
N375 C377 1.356 . S
N375 H380 0.984 . S
N375 H381 0.985 . S
C376 C370 1.379 . S
C376 C373 1.363 . S
C376 N374 1.356 . S
C377 C371 1.363 . S
C377 C372 1.379 . S
C377 N375 1.356 . S
N378 C370 1.356 . S
N378 H384 0.984 . S
N378 H385 0.984 . S
N379 C372 1.356 . S
N379 H382 0.984 . S
N379 H383 0.985 . S
H380 N375 0.984 . S
H381 N375 0.985 . S
H382 N379 0.984 . S
H383 N379 0.985 . S
H384 N378 0.984 . S
H385 N378 0.984 . S
H386 N374 0.984 . S
H387 N374 0.985 . S
C388 C389 1.363 1_554 S
C388 C394 1.379 . S
C388 N396 1.356 . S
C389 C388 1.363 1_556 S
C389 C395 1.363 . S
C390 C391 1.363 1_556 S
C390 C395 1.379 . S
C390 N397 1.356 . S
C391 C390 1.363 1_554 S
C391 C394 1.363 . S
N392 C394 1.356 . S
N392 H404 0.984 . S
N392 H405 0.985 . S
N393 C395 1.356 . S
N393 H398 0.984 . S
N393 H399 0.985 . S
C394 C388 1.379 . S
C394 C391 1.363 . S
C394 N392 1.356 . S
C395 C389 1.363 . S
C395 C390 1.379 . S
C395 N393 1.356 . S
N396 C388 1.356 . S
N396 H402 0.984 . S
N396 H403 0.988 1_554 S
N397 C390 1.356 . S
N397 H400 0.988 1_556 S
N397 H401 0.985 . S
H398 N393 0.984 . S
H399 N393 0.985 . S
H400 N397 0.988 1_554 S
H401 N397 0.985 . S
H402 N396 0.984 . S
H403 N396 0.988 1_556 S
H404 N392 0.984 . S
H405 N392 0.985 . S
C406 C407 1.363 . S
C406 C412 1.379 . S
C406 N414 1.356 . S
C407 C406 1.363 . S
C407 C413 1.363 . S
C408 C409 1.363 . S
C408 C413 1.379 . S
C408 N415 1.356 . S
C409 C408 1.363 . S
C409 C412 1.363 . S
N410 C412 1.356 . S
N410 H422 0.984 . S
N410 H423 0.985 . S
N411 C413 1.356 . S
N411 H416 0.984 . S
N411 H417 0.985 . S
C412 C406 1.379 . S
C412 C409 1.363 . S
C412 N410 1.356 . S
C413 C407 1.363 . S
C413 C408 1.379 . S
C413 N411 1.356 . S
N414 C406 1.356 . S
N414 H420 0.984 . S
N414 H421 0.984 . S
N415 C408 1.356 . S
N415 H418 0.984 . S
N415 H419 0.985 . S
H416 N411 0.984 . S
H417 N411 0.985 . S
H418 N415 0.984 . S
H419 N415 0.985 . S
H420 N414 0.984 . S
H421 N414 0.984 . S
H422 N410 0.984 . S
H423 N410 0.985 . S
C424 C425 1.363 1_554 S
C424 C430 1.379 . S
C424 N432 1.356 . S
C425 C424 1.363 1_556 S
C425 C431 1.363 1_545 S
C426 C427 1.363 1_556 S
C426 C431 1.379 . S
C426 N433 1.356 . S
C427 C426 1.363 1_554 S
C427 C430 1.363 1_565 S
N428 C430 1.356 1_565 S
N428 H440 0.984 1_565 S
N428 H441 0.985 . S
N429 C431 1.356 1_545 S
N429 H434 0.984 . S
N429 H435 0.985 1_545 S
C430 C424 1.379 . S
C430 C427 1.363 1_545 S
C430 N428 1.356 1_545 S
C431 C425 1.363 1_565 S
C431 C426 1.379 . S
C431 N429 1.356 1_565 S
N432 C424 1.356 . S
N432 H438 0.984 . S
N432 H439 0.984 . S
N433 C426 1.356 . S
N433 H436 0.984 . S
N433 H437 0.985 . S
H434 N429 0.984 . S
H435 N429 0.985 1_565 S
H436 N433 0.984 . S
H437 N433 0.985 . S
H438 N432 0.984 . S
H439 N432 0.984 . S
H440 N428 0.984 1_545 S
H441 N428 0.985 . S
C442 C443 1.363 . S
C442 C448 1.379 . S
C442 N450 1.356 . S
C443 C442 1.363 . S
C443 C449 1.363 . S
C444 C445 1.363 . S
C444 C449 1.379 . S
C444 N451 1.356 . S
C445 C444 1.363 . S
C445 C448 1.363 . S
N446 C448 1.356 . S
N446 H458 0.984 . S
N446 H459 0.985 . S
N447 C449 1.356 . S
N447 H452 0.984 . S
N447 H453 0.985 . S
C448 C442 1.379 . S
C448 C445 1.363 . S
C448 N446 1.356 . S
C449 C443 1.363 . S
C449 C444 1.379 . S
C449 N447 1.356 . S
N450 C442 1.356 . S
N450 H456 0.984 . S
N450 H457 0.984 . S
N451 C444 1.356 . S
N451 H454 0.984 . S
N451 H455 0.985 . S
H452 N447 0.984 . S
H453 N447 0.985 . S
H454 N451 0.984 . S
H455 N451 0.985 . S
H456 N450 0.984 . S
H457 N450 0.984 . S
H458 N446 0.984 . S
H459 N446 0.985 . S
C460 C461 1.363 . S
C460 C466 1.379 . S
C460 N468 1.356 . S
C461 C460 1.363 . S
C461 C467 1.363 . S
C462 C463 1.363 . S
C462 C467 1.379 . S
C462 N469 1.356 . S
C463 C462 1.363 . S
C463 C466 1.363 . S
N464 C466 1.356 . S
N464 H476 0.984 . S
N464 H477 0.985 . S
N465 C467 1.356 . S
N465 H470 0.984 . S
N465 H471 0.985 . S
C466 C460 1.379 . S
C466 C463 1.363 . S
C466 N464 1.356 . S
C467 C461 1.363 . S
C467 C462 1.379 . S
C467 N465 1.356 . S
N468 C460 1.356 . S
N468 H474 0.984 . S
N468 H475 0.984 . S
N469 C462 1.356 . S
N469 H472 0.984 . S
N469 H473 0.985 . S
H470 N465 0.984 . S
H471 N465 0.985 . S
H472 N469 0.984 . S
H473 N469 0.985 . S
H474 N468 0.984 . S
H475 N468 0.984 . S
H476 N464 0.984 . S
H477 N464 0.985 . S
C478 C479 1.363 . S
C478 C484 1.379 . S
C478 N486 1.356 . S
C479 C478 1.363 . S
C479 C485 1.363 . S
C480 C481 1.363 . S
C480 C485 1.379 . S
C480 N487 1.356 . S
C481 C480 1.363 . S
C481 C484 1.363 . S
N482 C484 1.356 . S
N482 H494 0.984 . S
N482 H495 0.985 . S
N483 C485 1.356 . S
N483 H488 0.984 . S
N483 H489 0.985 . S
C484 C478 1.379 . S
C484 C481 1.363 . S
C484 N482 1.356 . S
C485 C479 1.363 . S
C485 C480 1.379 . S
C485 N483 1.356 . S
N486 C478 1.356 . S
N486 H492 0.984 . S
N486 H493 0.984 . S
N487 C480 1.356 . S
N487 H490 0.984 . S
N487 H491 0.985 . S
H488 N483 0.984 . S
H489 N483 0.985 . S
H490 N487 0.984 . S
H491 N487 0.985 . S
H492 N486 0.984 . S
H493 N486 0.984 . S
H494 N482 0.984 . S
H495 N482 0.985 . S
C496 C497 1.363 . S
C496 C502 1.379 . S
C496 N504 1.356 . S
C497 C496 1.363 . S
C497 C503 1.363 . S
C498 C499 1.363 . S
C498 C503 1.379 . S
C498 N505 1.356 . S
C499 C498 1.363 . S
C499 C502 1.363 . S
N500 C502 1.356 1_545 S
N500 H512 0.984 . S
N500 H513 0.985 . S
N501 C503 1.356 . S
N501 H506 0.984 . S
N501 H507 0.985 . S
C502 C496 1.379 . S
C502 C499 1.363 . S
C502 N500 1.356 1_565 S
C503 C497 1.363 . S
C503 C498 1.379 . S
C503 N501 1.356 . S
N504 C496 1.356 . S
N504 H510 0.984 . S
N504 H511 0.984 . S
N505 C498 1.356 . S
N505 H508 0.984 . S
N505 H509 0.985 . S
H506 N501 0.984 . S
H507 N501 0.985 . S
H508 N505 0.984 . S
H509 N505 0.985 . S
H510 N504 0.984 . S
H511 N504 0.984 . S
H512 N500 0.984 . S
H513 N500 0.985 . S
C514 C515 1.363 . S
C514 C520 1.379 . S
C514 N522 1.356 . S
C515 C514 1.363 . S
C515 C521 1.363 . S
C516 C517 1.363 . S
C516 C521 1.379 . S
C516 N523 1.356 . S
C517 C516 1.363 . S
C517 C520 1.363 . S
N518 C520 1.356 . S
N518 H530 0.984 . S
N518 H531 0.985 . S
N519 C521 1.356 . S
N519 H524 0.984 . S
N519 H525 0.985 . S
C520 C514 1.379 . S
C520 C517 1.363 . S
C520 N518 1.356 . S
C521 C515 1.363 . S
C521 C516 1.379 . S
C521 N519 1.356 . S
N522 C514 1.356 . S
N522 H528 0.984 . S
N522 H529 0.984 . S
N523 C516 1.356 . S
N523 H526 0.984 . S
N523 H527 0.985 . S
H524 N519 0.984 . S
H525 N519 0.985 . S
H526 N523 0.984 . S
H527 N523 0.985 . S
H528 N522 0.984 . S
H529 N522 0.984 . S
H530 N518 0.984 . S
H531 N518 0.985 . S
C532 C533 1.363 . S
C532 C538 1.379 . S
C532 N540 1.356 . S
C533 C532 1.363 . S
C533 C539 1.363 . S
C534 C535 1.363 . S
C534 C539 1.379 . S
C534 N541 1.356 . S
C535 C534 1.363 . S
C535 C538 1.363 . S
N536 C538 1.356 . S
N536 H548 0.984 . S
N536 H549 0.985 . S
N537 C539 1.356 . S
N537 H542 0.984 . S
N537 H543 0.985 . S
C538 C532 1.379 . S
C538 C535 1.363 . S
C538 N536 1.356 . S
C539 C533 1.363 . S
C539 C534 1.379 . S
C539 N537 1.356 . S
N540 C532 1.356 . S
N540 H546 0.984 . S
N540 H547 0.984 . S
N541 C534 1.356 . S
N541 H544 0.984 . S
N541 H545 0.985 . S
H542 N537 0.984 . S
H543 N537 0.985 . S
H544 N541 0.984 . S
H545 N541 0.985 . S
H546 N540 0.984 . S
H547 N540 0.984 . S
H548 N536 0.984 . S
H549 N536 0.985 . S
C550 C551 1.363 . S
C550 C556 1.379 . S
C550 N558 1.356 . S
C551 C550 1.363 . S
C551 C557 1.363 . S
C552 C553 1.363 . S
C552 C557 1.379 . S
C552 N559 1.356 . S
C553 C552 1.363 . S
C553 C556 1.363 . S
N554 C556 1.356 1_545 S
N554 H566 0.984 . S
N554 H567 0.985 . S
N555 C557 1.356 . S
N555 H560 0.984 . S
N555 H561 0.985 . S
C556 C550 1.379 . S
C556 C553 1.363 . S
C556 N554 1.356 1_565 S
C557 C551 1.363 . S
C557 C552 1.379 . S
C557 N555 1.356 . S
N558 C550 1.356 . S
N558 H564 0.984 . S
N558 H565 0.984 . S
N559 C552 1.356 . S
N559 H562 0.984 . S
N559 H563 0.985 . S
H560 N555 0.984 . S
H561 N555 0.985 . S
H562 N559 0.984 . S
H563 N559 0.985 . S
H564 N558 0.984 . S
H565 N558 0.984 . S
H566 N554 0.984 . S
H567 N554 0.985 . S
C568 C569 1.363 . S
C568 C574 1.379 . S
C568 N576 1.356 . S
C569 C568 1.363 . S
C569 C575 1.363 . S
C570 C571 1.363 . S
C570 C575 1.379 . S
C570 N577 1.356 1_545 S
C571 C570 1.363 . S
C571 C574 1.363 . S
N572 C574 1.356 . S
N572 H584 0.984 . S
N572 H585 0.985 . S
N573 C575 1.356 . S
N573 H578 0.984 . S
N573 H579 0.985 . S
C574 C568 1.379 . S
C574 C571 1.363 . S
C574 N572 1.356 . S
C575 C569 1.363 . S
C575 C570 1.379 . S
C575 N573 1.356 . S
N576 C568 1.356 . S
N576 H582 0.984 . S
N576 H583 0.984 . S
N577 C570 1.356 1_565 S
N577 H580 0.984 . S
N577 H581 0.985 . S
H578 N573 0.984 . S
H579 N573 0.985 . S
H580 N577 0.984 . S
H581 N577 0.985 . S
H582 N576 0.984 . S
H583 N576 0.984 . S
H584 N572 0.984 . S
H585 N572 0.985 . S
C586 C587 1.363 . S
C586 C592 1.379 . S
C586 N594 1.356 . S
C587 C586 1.363 . S
C587 C593 1.363 . S
C588 C589 1.363 . S
C588 C593 1.379 . S
C588 N595 1.356 . S
C589 C588 1.363 . S
C589 C592 1.363 . S
N590 C592 1.356 . S
N590 H602 0.984 . S
N590 H603 0.985 . S
N591 C593 1.356 . S
N591 H596 0.984 . S
N591 H597 0.985 . S
C592 C586 1.379 . S
C592 C589 1.363 . S
C592 N590 1.356 . S
C593 C587 1.363 . S
C593 C588 1.379 . S
C593 N591 1.356 . S
N594 C586 1.356 . S
N594 H600 0.984 . S
N594 H601 0.984 . S
N595 C588 1.356 . S
N595 H598 0.984 . S
N595 H599 0.985 . S
H596 N591 0.984 . S
H597 N591 0.985 . S
H598 N595 0.984 . S
H599 N595 0.985 . S
H600 N594 0.984 . S
H601 N594 0.984 . S
H602 N590 0.984 . S
H603 N590 0.985 . S
C604 C605 1.363 . S
C604 C610 1.379 . S
C604 N612 1.356 . S
C605 C604 1.363 . S
C605 C611 1.363 . S
C606 C607 1.363 . S
C606 C611 1.379 . S
C606 N613 1.356 . S
C607 C606 1.363 . S
C607 C610 1.363 . S
N608 C610 1.356 . S
N608 H620 0.984 . S
N608 H621 0.985 . S
N609 C611 1.356 . S
N609 H614 0.984 . S
N609 H615 0.985 . S
C610 C604 1.379 . S
C610 C607 1.363 . S
C610 N608 1.356 . S
C611 C605 1.363 . S
C611 C606 1.379 . S
C611 N609 1.356 . S
N612 C604 1.356 . S
N612 H618 0.984 . S
N612 H619 0.984 . S
N613 C606 1.356 . S
N613 H616 0.984 . S
N613 H617 0.985 . S
H614 N609 0.984 . S
H615 N609 0.985 . S
H616 N613 0.984 . S
H617 N613 0.985 . S
H618 N612 0.984 . S
H619 N612 0.984 . S
H620 N608 0.984 . S
H621 N608 0.985 . S
C622 C623 1.363 . S
C622 C628 1.379 . S
C622 N630 1.356 1_545 S
C623 C622 1.363 . S
C623 C629 1.363 . S
C624 C625 1.363 . S
C624 C629 1.379 . S
C624 N631 1.356 . S
C625 C624 1.363 . S
C625 C628 1.363 . S
N626 C628 1.356 . S
N626 H638 0.984 . S
N626 H639 0.985 . S
N627 C629 1.356 . S
N627 H632 0.984 . S
N627 H633 0.985 . S
C628 C622 1.379 . S
C628 C625 1.363 . S
C628 N626 1.356 . S
C629 C623 1.363 . S
C629 C624 1.379 . S
C629 N627 1.356 . S
N630 C622 1.356 1_565 S
N630 H636 0.984 . S
N630 H637 0.984 . S
N631 C624 1.356 . S
N631 H634 0.984 . S
N631 H635 0.985 . S
H632 N627 0.984 . S
H633 N627 0.985 . S
H634 N631 0.984 . S
H635 N631 0.985 . S
H636 N630 0.984 . S
H637 N630 0.984 . S
H638 N626 0.984 . S
H639 N626 0.985 . S
C640 C641 1.363 . S
C640 C646 1.379 . S
C640 N648 1.356 . S
C641 C640 1.363 . S
C641 C647 1.363 . S
C642 C643 1.363 . S
C642 C647 1.379 . S
C642 N649 1.356 . S
C643 C642 1.363 . S
C643 C646 1.363 . S
N644 C646 1.356 1_545 S
N644 H656 0.984 . S
N644 H657 0.985 . S
N645 C647 1.356 . S
N645 H650 0.984 . S
N645 H651 0.985 . S
C646 C640 1.379 . S
C646 C643 1.363 . S
C646 N644 1.356 1_565 S
C647 C641 1.363 . S
C647 C642 1.379 . S
C647 N645 1.356 . S
N648 C640 1.356 . S
N648 H654 0.984 . S
N648 H655 0.984 . S
N649 C642 1.356 . S
N649 H652 0.984 . S
N649 H653 0.985 . S
H650 N645 0.984 . S
H651 N645 0.985 . S
H652 N649 0.984 . S
H653 N649 0.985 . S
H654 N648 0.984 . S
H655 N648 0.984 . S
H656 N644 0.984 . S
H657 N644 0.985 . S
C658 C659 1.363 . S
C658 C664 1.379 . S
C658 N666 1.356 . S
C659 C658 1.363 . S
C659 C665 1.363 . S
C660 C661 1.363 . S
C660 C665 1.379 . S
C660 N667 1.356 . S
C661 C660 1.363 . S
C661 C664 1.363 . S
N662 C664 1.356 . S
N662 H674 0.984 . S
N662 H675 0.985 . S
N663 C665 1.356 . S
N663 H668 0.984 . S
N663 H669 0.985 . S
C664 C658 1.379 . S
C664 C661 1.363 . S
C664 N662 1.356 . S
C665 C659 1.363 . S
C665 C660 1.379 . S
C665 N663 1.356 . S
N666 C658 1.356 . S
N666 H672 0.984 . S
N666 H673 0.984 . S
N667 C660 1.356 . S
N667 H670 0.984 . S
N667 H671 0.985 . S
H668 N663 0.984 . S
H669 N663 0.985 . S
H670 N667 0.984 . S
H671 N667 0.985 . S
H672 N666 0.984 . S
H673 N666 0.984 . S
H674 N662 0.984 . S
H675 N662 0.985 . S
C676 C677 1.363 . S
C676 C682 1.379 . S
C676 N684 1.356 . S
C677 C676 1.363 . S
C677 C683 1.363 . S
C678 C679 1.363 . S
C678 C683 1.379 . S
C678 N685 1.356 . S
C679 C678 1.363 . S
C679 C682 1.363 . S
N680 C682 1.356 . S
N680 H692 0.984 . S
N680 H693 0.985 . S
N681 C683 1.356 . S
N681 H686 0.984 . S
N681 H687 0.985 . S
C682 C676 1.379 . S
C682 C679 1.363 . S
C682 N680 1.356 . S
C683 C677 1.363 . S
C683 C678 1.379 . S
C683 N681 1.356 . S
N684 C676 1.356 . S
N684 H690 0.984 . S
N684 H691 0.984 . S
N685 C678 1.356 . S
N685 H688 0.984 . S
N685 H689 0.985 . S
H686 N681 0.984 . S
H687 N681 0.985 . S
H688 N685 0.984 . S
H689 N685 0.985 . S
H690 N684 0.984 . S
H691 N684 0.984 . S
H692 N680 0.984 . S
H693 N680 0.985 . S
C694 C695 1.363 . S
C694 C700 1.379 . S
C694 N702 1.356 . S
C695 C694 1.363 . S
C695 C701 1.363 . S
C696 C697 1.363 . S
C696 C701 1.379 . S
C696 N703 1.356 1_565 S
C697 C696 1.363 . S
C697 C700 1.363 . S
N698 C700 1.356 . S
N698 H710 0.984 . S
N698 H711 0.985 . S
N699 C701 1.356 . S
N699 H704 0.984 . S
N699 H705 0.985 . S
C700 C694 1.379 . S
C700 C697 1.363 . S
C700 N698 1.356 . S
C701 C695 1.363 . S
C701 C696 1.379 . S
C701 N699 1.356 . S
N702 C694 1.356 . S
N702 H708 0.984 . S
N702 H709 0.984 . S
N703 C696 1.356 1_545 S
N703 H706 0.984 . S
N703 H707 0.985 . S
H704 N699 0.984 . S
H705 N699 0.985 . S
H706 N703 0.984 . S
H707 N703 0.985 . S
H708 N702 0.984 . S
H709 N702 0.984 . S
H710 N698 0.984 . S
H711 N698 0.985 . S
C712 C713 1.363 . S
C712 C718 1.379 . S
C712 N720 1.356 . S
C713 C712 1.363 . S
C713 C719 1.363 . S
C714 C715 1.363 . S
C714 C719 1.379 . S
C714 N721 1.356 1_545 S
C715 C714 1.363 . S
C715 C718 1.363 . S
N716 C718 1.356 . S
N716 H728 0.984 . S
N716 H729 0.985 . S
N717 C719 1.356 . S
N717 H722 0.984 . S
N717 H723 0.985 . S
C718 C712 1.379 . S
C718 C715 1.363 . S
C718 N716 1.356 . S
C719 C713 1.363 . S
C719 C714 1.379 . S
C719 N717 1.356 . S
N720 C712 1.356 . S
N720 H726 0.984 . S
N720 H727 0.984 . S
N721 C714 1.356 1_565 S
N721 H724 0.984 . S
N721 H725 0.985 . S
H722 N717 0.984 . S
H723 N717 0.985 . S
H724 N721 0.984 . S
H725 N721 0.985 . S
H726 N720 0.984 . S
H727 N720 0.984 . S
H728 N716 0.984 . S
H729 N716 0.985 . S
C730 C731 1.363 . S
C730 C736 1.379 . S
C730 N738 1.356 . S
C731 C730 1.363 . S
C731 C737 1.363 . S
C732 C733 1.363 . S
C732 C737 1.379 . S
C732 N739 1.356 . S
C733 C732 1.363 . S
C733 C736 1.363 . S
N734 C736 1.356 . S
N734 H746 0.984 . S
N734 H747 0.985 . S
N735 C737 1.356 . S
N735 H740 0.984 . S
N735 H741 0.985 . S
C736 C730 1.379 . S
C736 C733 1.363 . S
C736 N734 1.356 . S
C737 C731 1.363 . S
C737 C732 1.379 . S
C737 N735 1.356 . S
N738 C730 1.356 . S
N738 H744 0.984 . S
N738 H745 0.984 . S
N739 C732 1.356 . S
N739 H742 0.984 . S
N739 H743 0.985 . S
H740 N735 0.984 . S
H741 N735 0.985 . S
H742 N739 0.984 . S
H743 N739 0.985 . S
H744 N738 0.984 . S
H745 N738 0.984 . S
H746 N734 0.984 . S
H747 N734 0.985 . S
C748 C749 1.363 . S
C748 C754 1.379 . S
C748 N756 1.356 . S
C749 C748 1.363 . S
C749 C755 1.363 . S
C750 C751 1.363 . S
C750 C755 1.379 . S
C750 N757 1.356 . S
C751 C750 1.363 . S
C751 C754 1.363 . S
N752 C754 1.356 . S
N752 H764 0.984 . S
N752 H765 0.985 . S
N753 C755 1.356 . S
N753 H758 0.984 . S
N753 H759 0.985 . S
C754 C748 1.379 . S
C754 C751 1.363 . S
C754 N752 1.356 . S
C755 C749 1.363 . S
C755 C750 1.379 . S
C755 N753 1.356 . S
N756 C748 1.356 . S
N756 H762 0.984 . S
N756 H763 0.984 . S
N757 C750 1.356 . S
N757 H760 0.984 . S
N757 H761 0.985 . S
H758 N753 0.984 . S
H759 N753 0.985 . S
H760 N757 0.984 . S
H761 N757 0.985 . S
H762 N756 0.984 . S
H763 N756 0.984 . S
H764 N752 0.984 . S
H765 N752 0.985 . S
C766 C767 1.363 . S
C766 C772 1.379 . S
C766 N774 1.356 . S
C767 C766 1.363 . S
C767 C773 1.363 . S
C768 C769 1.363 . S
C768 C773 1.379 . S
C768 N775 1.356 . S
C769 C768 1.363 . S
C769 C772 1.363 . S
N770 C772 1.356 1_565 S
N770 H782 0.984 . S
N770 H783 0.985 . S
N771 C773 1.356 . S
N771 H776 0.984 . S
N771 H777 0.985 . S
C772 C766 1.379 . S
C772 C769 1.363 . S
C772 N770 1.356 1_545 S
C773 C767 1.363 . S
C773 C768 1.379 . S
C773 N771 1.356 . S
N774 C766 1.356 . S
N774 H780 0.984 . S
N774 H781 0.984 . S
N775 C768 1.356 . S
N775 H778 0.984 . S
N775 H779 0.985 . S
H776 N771 0.984 . S
H777 N771 0.985 . S
H778 N775 0.984 . S
H779 N775 0.985 . S
H780 N774 0.984 . S
H781 N774 0.984 . S
H782 N770 0.984 . S
H783 N770 0.985 . S
C209 C192 1.540 . S
C211 C10 1.540 . S
C227 C26 1.508 . S
C229 C0 1.508 . S
C245 C143 1.508 . S
C247 C13 1.508 . S
C263 C23 1.540 . S
C265 C101 1.540 . S
C281 C36 1.540 . S
C283 C166 1.540 . S
C299 C117 1.509 . S
C301 C39 1.509 . S
C317 C49 1.540 . S
C319 C75 1.540 . S
C335 C140 1.540 . S
C337 C62 1.540 . S
C353 C52 1.508 . S
C355 C78 1.508 . S
C371 C195 1.509 . S
C373 C65 1.509 . S
C389 C114 1.540 . S
C391 C88 1.540 . S
C407 C169 1.508 . S
C409 C91 1.508 . S
C425 C104 1.508 . S
C427 C130 1.508 . S
C443 C205 1.540 . S
C445 C127 1.540 . S
C461 C153 1.540 . S
C463 C179 1.540 . S
C479 C182 1.508 . S
C481 C156 1.508 . S
C497 C70 1.246 . S
C499 C8 1.242 1_565 S
C515 C5 1.246 . S
C517 C73 1.242 . S
C533 C18 1.246 . S
C535 C60 1.242 . S
C551 C57 1.246 . S
C553 C21 1.242 1_565 S
C569 C96 1.246 . S
C571 C34 1.242 1_545 S
C587 C99 1.242 . S
C589 C31 1.246 . S
C605 C86 1.242 . S
C607 C44 1.246 . S
C623 C47 1.242 1_545 S
C625 C83 1.246 . S
C641 C174 1.246 . S
C643 C112 1.242 1_565 S
C659 C109 1.246 . S
C661 C177 1.242 . S
C677 C122 1.246 . S
C679 C164 1.242 . S
C695 C161 1.246 . S
C697 C125 1.242 1_565 S
C713 C200 1.246 . S
C715 C138 1.242 1_545 S
C731 C203 1.242 . S
C733 C135 1.246 . S
C749 C148 1.246 . S
C751 C190 1.242 . S
C767 C187 1.246 . S
C769 C151 1.242 1_545 S
