# Generated by pormake.
# Topology ukh, (4)-cn, num edge types: 1
# Building blocks:
#     Node 0, Type 0, BuildingBlock: QUQFOY_clean_sbu_3, # of connection points: 4
#     Node 1, Type 0, BuildingBlock: QUQFOY_clean_sbu_3, # of connection points: 4
#     Node 2, Type 0, BuildingBlock: QUQFOY_clean_sbu_3, # of connection points: 4
#     Node 3, Type 0, BuildingBlock: QUQFOY_clean_sbu_3, # of connection points: 4
#     Node 4, Type 0, BuildingBlock: QUQFOY_clean_sbu_3, # of connection points: 4
#     Node 5, Type 0, BuildingBlock: QUQFOY_clean_sbu_3, # of connection points: 4
#     Node 6, Type 0, BuildingBlock: QUQFOY_clean_sbu_3, # of connection points: 4
#     Node 7, Type 0, BuildingBlock: QUQFOY_clean_sbu_3, # of connection points: 4
#     Node 8, Type 0, BuildingBlock: QUQFOY_clean_sbu_3, # of connection points: 4
#     Node 9, Type 0, BuildingBlock: QUQFOY_clean_sbu_3, # of connection points: 4
#     Node 10, Type 0, BuildingBlock: QUQFOY_clean_sbu_3, # of connection points: 4
#     Node 11, Type 0, BuildingBlock: QUQFOY_clean_sbu_3, # of connection points: 4
#     Edge 12, Type (0, 0), BuildingBlock: XUDNAN_clean_linker_2, # of connection points: 2
#     Edge 13, Type (0, 0), BuildingBlock: XUDNAN_clean_linker_2, # of connection points: 2
#     Edge 14, Type (0, 0), BuildingBlock: XUDNAN_clean_linker_2, # of connection points: 2
#     Edge 15, Type (0, 0), BuildingBlock: XUDNAN_clean_linker_2, # of connection points: 2
#     Edge 16, Type (0, 0), BuildingBlock: XUDNAN_clean_linker_2, # of connection points: 2
#     Edge 17, Type (0, 0), BuildingBlock: XUDNAN_clean_linker_2, # of connection points: 2
#     Edge 18, Type (0, 0), BuildingBlock: XUDNAN_clean_linker_2, # of connection points: 2
#     Edge 19, Type (0, 0), BuildingBlock: XUDNAN_clean_linker_2, # of connection points: 2
#     Edge 20, Type (0, 0), BuildingBlock: XUDNAN_clean_linker_2, # of connection points: 2
#     Edge 21, Type (0, 0), BuildingBlock: XUDNAN_clean_linker_2, # of connection points: 2
#     Edge 22, Type (0, 0), BuildingBlock: XUDNAN_clean_linker_2, # of connection points: 2
#     Edge 23, Type (0, 0), BuildingBlock: XUDNAN_clean_linker_2, # of connection points: 2
#     Edge 24, Type (0, 0), BuildingBlock: XUDNAN_clean_linker_2, # of connection points: 2
#     Edge 25, Type (0, 0), BuildingBlock: XUDNAN_clean_linker_2, # of connection points: 2
#     Edge 26, Type (0, 0), BuildingBlock: XUDNAN_clean_linker_2, # of connection points: 2
#     Edge 27, Type (0, 0), BuildingBlock: XUDNAN_clean_linker_2, # of connection points: 2
#     Edge 28, Type (0, 0), BuildingBlock: XUDNAN_clean_linker_2, # of connection points: 2
#     Edge 29, Type (0, 0), BuildingBlock: XUDNAN_clean_linker_2, # of connection points: 2
#     Edge 30, Type (0, 0), BuildingBlock: XUDNAN_clean_linker_2, # of connection points: 2
#     Edge 31, Type (0, 0), BuildingBlock: XUDNAN_clean_linker_2, # of connection points: 2
#     Edge 32, Type (0, 0), BuildingBlock: XUDNAN_clean_linker_2, # of connection points: 2
#     Edge 33, Type (0, 0), BuildingBlock: XUDNAN_clean_linker_2, # of connection points: 2
#     Edge 34, Type (0, 0), BuildingBlock: XUDNAN_clean_linker_2, # of connection points: 2
#     Edge 35, Type (0, 0), BuildingBlock: XUDNAN_clean_linker_2, # of connection points: 2
# Relax obj value: 0.081
# Max RMSD: 0.104
# Mean RMSD: 0.098
data_MOF--net-ukh--node1-QUQFOY_clean_sbu_3--edge1-XUDNAN_clean_linker_2
_symmetry_space_group_name_H-M    P1
_symmetry_Int_Tables_number       1
_symmetry_cell_setting            triclinic
loop_
_symmetry_equiv_pos_as_xyz
'x, y, z'
_cell_length_a     32.440483
_cell_length_b     32.985151
_cell_length_c     65.020052
_cell_angle_alpha  89.981668
_cell_angle_beta   90.000808
_cell_angle_gamma 119.43856
loop_
_atom_site_label
_atom_site_type_symbol
_atom_site_fract_x
_atom_site_fract_y
_atom_site_fract_z
_atom_type_partial_charge
C0 C 0.1741 0.17138 0.04364 0.0
O1 O 0.16911 0.14366 0.0582 0.0
Cd2 Cd 0.23284 0.14935 0.07908 0.0
O3 O 0.21477 0.2049 0.03896 0.0
Cd4 Cd 0.29805 0.23619 0.04975 0.0
C5 C 0.2889 0.13082 0.03879 0.0
O6 O 0.28335 0.22946 0.08663 0.0
O7 O 0.35421 0.24754 0.07747 0.0
O8 O 0.30269 0.31029 0.04157 0.0
C9 C 0.32525 0.24083 0.09189 0.0
O10 O 0.26945 0.11784 0.05635 0.0
C11 C 0.34325 0.32845 0.03321 0.0
O12 O 0.2999 0.17094 0.03162 0.0
O13 O 0.36243 0.30296 0.03169 0.0
C14 C 0.17124 0.34984 0.35476 0.0
O15 O 0.15842 0.36676 0.34019 0.0
Cd16 Cd 0.08332 0.36498 0.341 0.0
O17 O 0.14482 0.33196 0.37038 0.0
Cd18 Cd 0.0683 0.31668 0.38459 0.0
C19 C 0.0077 0.24727 0.34447 0.0
O20 O 0.06859 0.388 0.37425 0.0
O21 O 0.00215 0.33079 0.38497 0.0
O22 O 0.10138 0.34081 0.41896 0.0
C23 C 0.0254 0.37268 0.37894 0.0
O24 O 0.02481 0.28416 0.33363 0.0
C25 C 0.07782 0.30077 0.42702 0.0
O26 O 0.01911 0.24864 0.36331 0.0
O27 O 0.04903 0.26812 0.4154 0.0
C28 C 0.83833 0.16919 0.68466 0.0
O29 O 0.81275 0.15335 0.66873 0.0
Cd30 Cd 0.73661 0.08547 0.67042 0.0
O31 O 0.8232 0.14975 0.70205 0.0
Cd32 Cd 0.75108 0.08458 0.71732 0.0
C33 C 0.76565 0.00598 0.69027 0.0
O34 O 0.69293 0.09615 0.69785 0.0
O35 O 0.66692 0.03056 0.7137 0.0
O36 O 0.7742 0.13924 0.74609 0.0
C37 C 0.65785 0.05829 0.7038 0.0
O38 O 0.75122 0.01983 0.67501 0.0
C39 C 0.75873 0.10824 0.75996 0.0
O40 O 0.77176 0.02542 0.70777 0.0
O41 O 0.74032 0.0662 0.75416 0.0
C42 C 0.7517 0.77808 0.03328 0.0
O43 O 0.77316 0.80077 0.04927 0.0
Cd44 Cd 0.73469 0.81758 0.0769 0.0
O45 O 0.70684 0.75936 0.03175 0.0
Cd46 Cd 0.63693 0.74669 0.05231 0.0
C47 C 0.67645 0.86266 0.04802 0.0
O48 O 0.66898 0.74477 0.08553 0.0
O49 O 0.60501 0.74905 0.08666 0.0
O50 O 0.60305 0.66572 0.04217 0.0
C51 C 0.63751 0.74644 0.0964 0.0
O52 O 0.70729 0.86795 0.06148 0.0
C53 C 0.56312 0.66032 0.03668 0.0
O54 O 0.64786 0.82252 0.04075 0.0
O55 O 0.55751 0.69581 0.03793 0.0
C56 C 0.79772 0.65853 0.3492 0.0
O57 O 0.80622 0.64113 0.33344 0.0
Cd58 Cd 0.87592 0.63362 0.33129 0.0
O59 O 0.82641 0.67284 0.3643 0.0
Cd60 Cd 0.90173 0.67867 0.37553 0.0
C61 C 0.96365 0.74719 0.33514 0.0
O62 O 0.88218 0.60161 0.36378 0.0
O63 O 0.95373 0.64447 0.37484 0.0
O64 O 0.86908 0.65816 0.40999 0.0
C65 C 0.92162 0.60503 0.36861 0.0
O66 O 0.94119 0.71161 0.32371 0.0
C67 C 0.89941 0.69564 0.41851 0.0
O68 O 0.95505 0.74506 0.35433 0.0
O69 O 0.93184 0.72558 0.40707 0.0
C70 C 0.14805 0.77834 0.67227 0.0
O71 O 0.1778 0.79518 0.65772 0.0
Cd72 Cd 0.24767 0.86993 0.66096 0.0
O73 O 0.15581 0.79981 0.68931 0.0
Cd74 Cd 0.21707 0.87079 0.7064 0.0
C75 C 0.19912 0.93909 0.67372 0.0
O76 O 0.29115 0.87997 0.69229 0.0
O77 O 0.29267 0.94084 0.7058 0.0
O78 O 0.22199 0.82984 0.73634 0.0
C79 C 0.31515 0.92215 0.69807 0.0
O80 O 0.21892 0.92558 0.66059 0.0
C81 C 0.2037 0.84588 0.74889 0.0
O82 O 0.19154 0.92363 0.6921 0.0
O83 O 0.19132 0.87418 0.74175 0.0
C84 C 0.82242 0.61938 0.63698 0.0
O85 O 0.78581 0.59729 0.64807 0.0
Cd86 Cd 0.71626 0.60447 0.64272 0.0
O87 O 0.82187 0.64339 0.62176 0.0
Cd88 Cd 0.76842 0.66376 0.60305 0.0
C89 C 0.76538 0.72385 0.64461 0.0
O90 O 0.69234 0.59239 0.60716 0.0
O91 O 0.6905 0.65427 0.59752 0.0
O92 O 0.78918 0.64595 0.56966 0.0
C93 C 0.66806 0.61097 0.60131 0.0
O94 O 0.74033 0.6844 0.65317 0.0
C95 C 0.80907 0.68742 0.56292 0.0
O96 O 0.78187 0.72689 0.62654 0.0
O97 O 0.81003 0.71835 0.57486 0.0
C98 C -0.0099 0.78799 0.93794 0.0
O99 O 0.00539 0.81485 0.92245 0.0
Cd100 Cd 0.07943 0.83592 0.90612 0.0
O101 O 0.01151 0.76685 0.9445 0.0
Cd102 Cd 0.07905 0.75492 0.93464 0.0
C103 C 0.15322 0.86717 0.94867 0.0
O104 O 0.07504 0.76384 0.89762 0.0
O105 O 0.13674 0.76174 0.90844 0.0
O106 O 0.02401 0.67183 0.93939 0.0
C107 C 0.11336 0.76433 0.89337 0.0
O108 O 0.13958 0.87854 0.93235 0.0
C109 C 0.05202 0.66356 0.94991 0.0
O110 O 0.13588 0.82449 0.95375 0.0
O111 O 0.0924 0.69815 0.95394 0.0
C112 C 0.34555 0.197 0.31948 0.0
O113 O 0.35568 0.17331 0.33183 0.0
Cd114 Cd 0.36103 0.10545 0.32266 0.0
O115 O 0.33893 0.18668 0.30042 0.0
Cd116 Cd 0.34065 0.13056 0.27568 0.0
C117 C 0.25088 0.03804 0.30076 0.0
O118 O 0.40521 0.12529 0.29155 0.0
O119 O 0.37234 0.07969 0.26567 0.0
O120 O 0.38158 0.19072 0.24981 0.0
C121 C 0.40325 0.09378 0.27978 0.0
O122 O 0.27972 0.04551 0.31547 0.0
C123 C 0.34876 0.17263 0.23651 0.0
O124 O 0.26338 0.06431 0.28494 0.0
O125 O 0.31169 0.13532 0.2416 0.0
C126 C 0.16776 0.33834 0.64969 0.0
O127 O 0.20242 0.35054 0.6619 0.0
Cd128 Cd 0.2745 0.35318 0.65156 0.0
O129 O 0.17081 0.3281 0.63105 0.0
Cd130 Cd 0.2293 0.3238 0.60807 0.0
C131 C 0.23073 0.24001 0.63831 0.0
O132 O 0.29622 0.39599 0.61934 0.0
O133 O 0.31377 0.35355 0.59991 0.0
O134 O 0.20018 0.34605 0.57745 0.0
C135 C 0.32698 0.39222 0.6088 0.0
O136 O 0.25566 0.2709 0.65152 0.0
C137 C 0.1883 0.30814 0.56801 0.0
O138 O 0.21651 0.25112 0.6222 0.0
O139 O 0.19641 0.27869 0.57703 0.0
C140 C 0.9371 0.16829 0.94911 0.0
O141 O 0.91468 0.13961 0.93482 0.0
Cd142 Cd 0.85059 0.13878 0.91667 0.0
O143 O 0.92803 0.20068 0.95372 0.0
Cd144 Cd 0.87399 0.23031 0.94256 0.0
C145 C 0.78725 0.12765 0.96104 0.0
O146 O 0.87444 0.21632 0.90602 0.0
O147 O 0.81503 0.22259 0.91657 0.0
O148 O 0.94358 0.30682 0.94676 0.0
C149 C 0.83765 0.21853 0.90154 0.0
O150 O 0.79155 0.1106 0.94411 0.0
C151 C 0.92184 0.32663 0.95418 0.0
O152 O 0.81436 0.17058 0.96526 0.0
O153 O 0.87739 0.30152 0.95665 0.0
C154 C 0.61568 0.80637 0.32189 0.0
O155 O 0.60613 0.83067 0.33414 0.0
Cd156 Cd 0.6028 0.89973 0.32486 0.0
O157 O 0.62419 0.81732 0.30294 0.0
Cd158 Cd 0.63031 0.87564 0.27766 0.0
C159 C 0.71602 0.96629 0.3061 0.0
O160 O 0.56563 0.88134 0.29201 0.0
O161 O 0.59739 0.9245 0.26536 0.0
O162 O 0.60002 0.82201 0.24831 0.0
C163 C 0.56734 0.91206 0.27982 0.0
O164 O 0.68593 0.95889 0.32026 0.0
C165 C 0.63981 0.83991 0.23919 0.0
O166 O 0.70451 0.94103 0.29 0.0
O167 O 0.67442 0.87423 0.24787 0.0
H168 H 0.56739 0.58009 0.03199 0.0
H169 H 0.47075 0.63536 0.02823 0.0
H170 H 0.40432 0.55592 0.02221 0.0
H171 H 0.50663 0.48561 0.99315 0.0
H172 H 0.51878 0.44604 0.00762 0.0
H173 H 0.55941 0.50778 0.00864 0.0
H174 H 0.55243 0.50562 0.04838 0.0
H175 H 0.51183 0.44409 0.04749 0.0
H176 H 0.49479 0.48232 0.06006 0.0
H177 H 0.3474 0.46991 0.02167 0.0
H178 H 0.30477 0.38444 0.02589 0.0
H179 H 0.43877 0.38535 0.02895 0.0
C180 C 0.53245 0.5757 0.0294 0.0
C181 C 0.52426 0.61396 0.03051 0.0
C182 C 0.47791 0.60661 0.02731 0.0
C183 C 0.43997 0.56162 0.02385 0.0
C184 C 0.44911 0.52448 0.02337 0.0
C185 C 0.49434 0.53114 0.02585 0.0
C186 C 0.49428 0.48519 0.02633 0.0
C187 C 0.52138 0.48091 0.00783 0.0
C188 C 0.51451 0.47896 0.04678 0.0
C189 C 0.44174 0.45149 0.02458 0.0
C190 C 0.41631 0.47483 0.02266 0.0
C191 C 0.36698 0.45125 0.02271 0.0
C192 C 0.34307 0.40272 0.02516 0.0
C193 C 0.36848 0.37827 0.02748 0.0
C194 C 0.41842 0.40298 0.02668 0.0
H195 H 0.06636 0.46778 0.37714 0.0
H196 H 0.93108 0.3403 0.37406 0.0
H197 H 0.89056 0.38623 0.36917 0.0
H198 H 0.0244 0.53141 0.40649 0.0
H199 H 0.06142 0.58617 0.39383 0.0
H200 H 0.08037 0.54334 0.39559 0.0
H201 H 0.08979 0.54506 0.35596 0.0
H202 H 0.07079 0.58789 0.35407 0.0
H203 H 0.04031 0.53431 0.33978 0.0
H204 H 0.86461 0.44521 0.3649 0.0
H205 H 0.85389 0.5142 0.36408 0.0
H206 H 0.00538 0.60381 0.37177 0.0
C207 C 0.02828 0.44964 0.37523 0.0
C208 C 0.0018 0.40058 0.37584 0.0
C209 C 0.95196 0.37793 0.37365 0.0
C210 C 0.92867 0.40366 0.37077 0.0
C211 C 0.9557 0.45197 0.37033 0.0
C212 C 0.00433 0.47484 0.37268 0.0
C213 C 0.02456 0.52715 0.37281 0.0
C214 C 0.04912 0.54824 0.39341 0.0
C215 C 0.05836 0.54993 0.35457 0.0
C216 C 0.97963 0.52998 0.37032 0.0
C217 C 0.94045 0.4862 0.36863 0.0
C218 C 0.89497 0.47972 0.36621 0.0
C219 C 0.88928 0.5191 0.36573 0.0
C220 C 0.92878 0.56426 0.36793 0.0
C221 C 0.97454 0.56968 0.37012 0.0
H222 H 0.37924 0.89125 0.69936 0.0
H223 H 0.36659 0.015 0.69055 0.0
H224 H 0.45355 0.06265 0.68765 0.0
H225 H 0.47722 0.94438 0.73214 0.0
H226 H 0.50539 0.9125 0.72287 0.0
H227 H 0.44212 0.88712 0.72126 0.0
H228 H 0.4456 0.87557 0.68198 0.0
H229 H 0.50899 0.90084 0.68349 0.0
H230 H 0.4833 0.92478 0.66606 0.0
H231 H 0.54168 0.09729 0.68747 0.0
H232 H 0.62511 0.11739 0.69283 0.0
H233 H 0.58001 0.97184 0.70422 0.0
C234 C 0.39486 0.9282 0.69635 0.0
C235 C 0.36654 0.94955 0.69492 0.0
C236 C 0.38796 -0.00186 0.6916 0.0
C237 C 0.43719 0.02539 0.68982 0.0
C238 C 0.46435 0.00349 0.69165 0.0
C239 C 0.44402 0.95606 0.695 0.0
C240 C 0.48132 0.94193 0.69851 0.0
C241 C 0.47619 0.92022 0.71997 0.0
C242 C 0.4797 0.90882 0.68149 0.0
C243 C 0.52567 0.98889 0.69698 0.0
C244 C 0.5152 0.02381 0.6926 0.0
C245 C 0.55039 0.07024 0.69082 0.0
C246 C 0.59758 0.08132 0.69387 0.0
C247 C 0.60878 0.04618 0.69901 0.0
C248 C 0.57236 -0.00059 0.70037 0.0
H249 H 0.60888 0.51628 0.59943 0.0
H250 H 0.60953 0.64792 0.60385 0.0
H251 H 0.52241 0.60597 0.60579 0.0
H252 H 0.5037 0.4594 0.56704 0.0
H253 H 0.48225 0.40334 0.57907 0.0
H254 H 0.54491 0.44362 0.57801 0.0
H255 H 0.55014 0.43874 0.61762 0.0
H256 H 0.48751 0.39856 0.61881 0.0
H257 H 0.51265 0.45141 0.63374 0.0
H258 H 0.43645 0.55045 0.60964 0.0
H259 H 0.35514 0.48417 0.61198 0.0
H260 H 0.40862 0.38813 0.60246 0.0
C261 C 0.59057 0.53616 0.60074 0.0
C262 C 0.61586 0.5853 0.60158 0.0
C263 C 0.59081 0.61025 0.60312 0.0
C264 C 0.54136 0.58676 0.6043 0.0
C265 C 0.51746 0.53835 0.60356 0.0
C266 C 0.54103 0.51325 0.60153 0.0
C267 C 0.50652 0.4614 0.60075 0.0
C268 C 0.50953 0.44073 0.57998 0.0
C269 C 0.5147 0.43605 0.61881 0.0
C270 C 0.46 0.46137 0.60298 0.0
C271 C 0.46729 0.50618 0.60475 0.0
C272 C 0.43015 0.51521 0.608 0.0
C273 C 0.3842 0.47739 0.60939 0.0
C274 C 0.37576 0.43124 0.60722 0.0
C275 C 0.41413 0.42317 0.60386 0.0
H276 H 0.88768 0.38767 0.95155 0.0
H277 H 0.01387 0.37944 0.96589 0.0
H278 H 0.05893 0.46489 0.97026 0.0
H279 H 0.94528 0.48633 0.92051 0.0
H280 H 0.90951 0.51178 0.92803 0.0
H281 H 0.88537 0.44971 0.92924 0.0
H282 H 0.86543 0.4503 0.96779 0.0
H283 H 0.88947 0.5125 0.96669 0.0
H284 H 0.91155 0.48752 0.98539 0.0
H285 H 0.09157 0.55146 0.97074 0.0
H286 H 0.11085 0.63287 0.96472 0.0
H287 H 0.96463 0.58519 0.94791 0.0
C288 C 0.92446 0.40383 0.95616 0.0
C289 C 0.94721 0.37703 0.95872 0.0
C290 C -0.00422 0.39942 0.96404 0.0
C291 C 0.02157 0.44787 0.96663 0.0
C292 C -0.0016 0.47351 0.96362 0.0
C293 C 0.95099 0.45232 0.95838 0.0
C294 C 0.93586 0.48819 0.95385 0.0
C295 C 0.91797 0.48373 0.93159 0.0
C296 C 0.89836 0.48439 0.96936 0.0
C297 C 0.98234 0.53278 0.95693 0.0
C298 C 0.01774 0.52356 0.96297 0.0
C299 C 0.06406 0.55912 0.96616 0.0
C300 C 0.07467 0.60528 0.96272 0.0
C301 C 0.03929 0.61542 0.95585 0.0
C302 C -0.00758 0.57859 0.95323 0.0
H303 H 0.43628 0.05522 0.25183 0.0
H304 H 0.4307 0.0782 0.31719 0.0
H305 H 0.47046 0.03207 0.32445 0.0
H306 H 0.41659 0.93939 0.25429 0.0
H307 H 0.45826 0.94718 0.23426 0.0
H308 H 0.42901 0.98155 0.2342 0.0
H309 H 0.51027 0.05732 0.23355 0.0
H310 H 0.53977 0.02318 0.23339 0.0
H311 H 0.55364 0.06661 0.25301 0.0
H312 H 0.50495 0.97842 0.3245 0.0
H313 H 0.54325 0.93103 0.31729 0.0
H314 H 0.53342 0.94984 0.2518 0.0
C315 C 0.44372 0.05067 0.26764 0.0
C316 C 0.43038 0.06984 0.284 0.0
C317 C 0.44095 0.0638 0.3045 0.0
C318 C 0.46319 0.03748 0.30875 0.0
C319 C 0.47538 0.01846 0.29227 0.0
C320 C 0.46698 0.0256 0.27211 0.0
C321 C 0.48536 0.003 0.25719 0.0
C322 C 0.44488 0.96556 0.24423 0.0
C323 C 0.5246 0.03973 0.24348 0.0
C324 C 0.50488 0.98151 0.27212 0.0
C325 C 0.49805 0.99015 0.29228 0.0
C326 C 0.5111 0.97196 0.30879 0.0
C327 C 0.53252 0.94491 0.30455 0.0
C328 C 0.54147 0.93728 0.28402 0.0
C329 C 0.52735 0.95569 0.26764 0.0
H330 H 0.27946 0.15309 0.20794 0.0
H331 H 0.43069 0.23741 0.21819 0.0
H332 H 0.44093 0.26708 0.18259 0.0
H333 H 0.28495 0.12028 0.15697 0.0
H334 H 0.23416 0.12384 0.14813 0.0
H335 H 0.23842 0.11112 0.17471 0.0
H336 H 0.22855 0.1813 0.18589 0.0
H337 H 0.22407 0.19415 0.15932 0.0
H338 H 0.26805 0.23832 0.17569 0.0
H339 H 0.43546 0.28177 0.14498 0.0
H340 H 0.41374 0.28497 0.10876 0.0
H341 H 0.26572 0.19474 0.12379 0.0
C342 C 0.31466 0.17816 0.20275 0.0
C343 C 0.35432 0.19291 0.21577 0.0
C344 C 0.3998 0.2258 0.20847 0.0
C345 C 0.40599 0.24278 0.18828 0.0
C346 C 0.36622 0.22705 0.17574 0.0
C347 C 0.32136 0.19597 0.18277 0.0
C348 C 0.28458 0.18414 0.16612 0.0
C349 C 0.25905 0.13174 0.1612 0.0
C350 C 0.24923 0.20047 0.17212 0.0
C351 C 0.31588 0.21259 0.14849 0.0
C352 C 0.36289 0.237 0.15432 0.0
C353 C 0.39871 0.26343 0.14031 0.0
C354 C 0.3861 0.26493 0.1198 0.0
C355 C 0.33809 0.24055 0.11361 0.0
C356 C 0.30263 0.21443 0.12821 0.0
H357 H 0.12595 0.36567 0.45688 0.0
H358 H 0.04729 0.2167 0.44586 0.0
H359 H 0.06503 0.20251 0.48122 0.0
H360 H 0.21786 0.3671 0.48642 0.0
H361 H 0.22261 0.41125 0.50411 0.0
H362 H 0.20186 0.40981 0.47831 0.0
H363 H 0.12524 0.40562 0.49254 0.0
H364 H 0.14588 0.40732 0.51842 0.0
H365 H 0.08912 0.36037 0.51054 0.0
H366 H 0.09675 0.20472 0.51652 0.0
H367 H 0.13517 0.22283 0.5506 0.0
H368 H 0.18994 0.37026 0.53942 0.0
C369 C 0.11205 0.33005 0.46198 0.0
C370 C 0.08531 0.29225 0.44863 0.0
C371 C 0.0677 0.24615 0.45586 0.0
C372 C 0.07767 0.23775 0.47589 0.0
C373 C 0.10473 0.27582 0.48855 0.0
C374 C 0.12117 0.32103 0.48199 0.0
C375 C 0.14991 0.35572 0.4986 0.0
C376 C 0.20109 0.38785 0.49142 0.0
C377 C 0.1261 0.38391 0.50543 0.0
C378 C 0.14781 0.32294 0.51539 0.0
C379 C 0.12172 0.27702 0.50922 0.0
C380 C 0.11673 0.24049 0.52163 0.0
C381 C 0.13886 0.25114 0.54091 0.0
C382 C 0.16523 0.2979 0.54766 0.0
C383 C 0.16948 0.33418 0.53475 0.0
H384 H 0.83485 0.17421 0.78099 0.0
H385 H 0.68741 0.06939 0.78788 0.0
H386 H 0.68977 0.09173 0.82443 0.0
H387 H 0.8702 0.15117 0.82978 0.0
H388 H 0.91412 0.21097 0.83441 0.0
H389 H 0.89928 0.18976 0.80845 0.0
H390 H 0.87969 0.25532 0.80018 0.0
H391 H 0.89406 0.27646 0.8262 0.0
H392 H 0.83684 0.2612 0.81568 0.0
H393 H 0.70804 0.12691 0.85989 0.0
H394 H 0.74392 0.16251 0.89333 0.0
H395 H 0.88163 0.23794 0.86422 0.0
C396 C 0.80308 0.15634 0.79023 0.0
C397 C 0.76077 0.12058 0.78178 0.0
C398 C 0.72004 0.09699 0.79425 0.0
C399 C 0.721 0.10966 0.81491 0.0
C400 C 0.76328 0.14526 0.82285 0.0
C401 C 0.80387 0.16754 0.81103 0.0
C402 C 0.84581 0.20143 0.82378 0.0
C403 C 0.88463 0.18748 0.82413 0.0
C404 C 0.86523 0.25158 0.81599 0.0
C405 C 0.82249 0.19471 0.84461 0.0
C406 C 0.77464 0.16304 0.84363 0.0
C407 C 0.7455 0.15161 0.86088 0.0
C408 C 0.76608 0.17219 0.87974 0.0
C409 C 0.81541 0.20287 0.88123 0.0
C410 C 0.84379 0.21457 0.86341 0.0
H411 H 0.57368 0.74597 0.12432 0.0
H412 H 0.71594 0.76603 0.119 0.0
H413 H 0.72994 0.7872 0.15569 0.0
H414 H 0.60086 0.83988 0.15706 0.0
H415 H 0.54796 0.81072 0.17245 0.0
H416 H 0.54737 0.79334 0.14617 0.0
H417 H 0.51835 0.70849 0.15796 0.0
H418 H 0.51858 0.72557 0.1843 0.0
H419 H 0.55163 0.69705 0.17705 0.0
H420 H 0.73206 0.81518 0.19143 0.0
H421 H 0.71963 0.84183 0.22519 0.0
H422 H 0.57452 0.79903 0.20839 0.0
C423 C 0.60749 0.7541 0.13097 0.0
C424 C 0.64375 0.75444 0.11881 0.0
C425 C 0.68758 0.76538 0.12804 0.0
C426 C 0.69591 0.7775 0.14886 0.0
C427 C 0.6598 0.77776 0.16033 0.0
C428 C 0.6162 0.76567 0.15184 0.0
C429 C 0.58399 0.77012 0.16748 0.0
C430 C 0.5692 0.80563 0.16036 0.0
C431 C 0.54057 0.72246 0.17196 0.0
C432 C 0.61682 0.78791 0.18588 0.0
C433 C 0.6604 0.79212 0.18137 0.0
C434 C 0.69782 0.8112 0.19531 0.0
C435 C 0.69052 0.82643 0.21437 0.0
C436 C 0.64602 0.82193 0.21939 0.0
C437 C 0.60858 0.80194 0.20504 0.0
H438 H 0.79358 0.62687 0.53147 0.0
H439 H 0.87117 0.7735 0.54731 0.0
H440 H 0.9062 0.7917 0.5124 0.0
H441 H 0.8831 0.62395 0.49962 0.0
H442 H 0.84096 0.58407 0.48131 0.0
H443 H 0.82392 0.5827 0.50778 0.0
H444 H 0.75371 0.59411 0.49636 0.0
H445 H 0.77042 0.59534 0.46988 0.0
H446 H 0.76492 0.64308 0.48032 0.0
H447 H 0.93284 0.7933 0.47553 0.0
H448 H 0.94402 0.77891 0.43911 0.0
H449 H 0.84591 0.63165 0.44758 0.0
C450 C 0.81818 0.6628 0.52766 0.0
C451 C 0.82995 0.69878 0.5421 0.0
C452 C 0.86174 0.74542 0.53644 0.0
C453 C 0.88192 0.75604 0.5167 0.0
C454 C 0.86957 0.71965 0.50282 0.0
C455 C 0.83809 0.67402 0.50802 0.0
C456 C 0.82887 0.64148 0.49008 0.0
C457 C 0.8452 0.60596 0.495 0.0
C458 C 0.77637 0.61709 0.48379 0.0
C459 C 0.85994 0.67589 0.47391 0.0
C460 C 0.8836 0.72074 0.48157 0.0
C461 C 0.91443 0.75832 0.46938 0.0
C462 C 0.92067 0.74982 0.44875 0.0
C463 C 0.89572 0.70422 0.44054 0.0
C464 C 0.86533 0.66691 0.4534 0.0
H465 H 0.09017 0.80292 0.86126 0.0
H466 H 0.17967 0.74449 0.878 0.0
H467 H 0.21252 0.75912 0.84276 0.0
H468 H 0.06453 0.75971 0.80935 0.0
H469 H 0.0675 0.81186 0.7991 0.0
H470 H 0.05008 0.79549 0.82544 0.0
H471 H 0.11693 0.87598 0.83757 0.0
H472 H 0.13467 0.89256 0.81127 0.0
H473 H 0.17712 0.89516 0.82985 0.0
H474 H 0.23415 0.77845 0.80571 0.0
H475 H 0.24611 0.80441 0.76955 0.0
H476 H 0.14579 0.85441 0.77736 0.0
C477 C 0.11642 0.79289 0.85744 0.0
C478 C 0.1322 0.77223 0.87224 0.0
C479 C 0.16714 0.76029 0.86683 0.0
C480 C 0.18592 0.76842 0.84688 0.0
C481 C 0.16979 0.78906 0.83266 0.0
C482 C 0.13611 0.80148 0.83771 0.0
C483 C 0.126 0.82453 0.81973 0.0
C484 C 0.07394 0.79619 0.81301 0.0
C485 C 0.1395 0.87506 0.82492 0.0
C486 C 0.15892 0.82269 0.80372 0.0
C487 C 0.18363 0.80186 0.81148 0.0
C488 C 0.21525 0.79507 0.79948 0.0
C489 C 0.22173 0.80988 0.77896 0.0
C490 C 0.19706 0.83163 0.77071 0.0
C491 C 0.16547 0.83831 0.78333 0.0
H492 H 0.18733 0.96113 0.94521 0.0
H493 H 0.19549 0.85757 0.98358 0.0
H494 H 0.24592 0.91918 0.00816 0.0
H495 H 0.30902 0.05995 0.95655 0.0
H496 H 0.28807 0.10144 0.95674 0.0
H497 H 0.26011 0.05091 0.94035 0.0
H498 H 0.17876 0.02798 0.95682 0.0
H499 H 0.20636 0.07839 0.97309 0.0
H500 H 0.17215 0.02141 0.98435 0.0
H501 H 0.28397 0.9888 0.031 0.0
H502 H 0.30355 0.05983 0.05081 0.0
H503 H 0.27233 0.11892 -0.00249 0.0
C504 C 0.20076 0.95147 0.95849 0.0
C505 C 0.18759 0.90443 0.96238 0.0
C506 C 0.20519 0.89331 0.98019 0.0
C507 C 0.23413 0.92815 -0.00581 0.0
C508 C 0.24553 0.97403 0.9901 0.0
C509 C 0.22951 0.98576 0.97262 0.0
C510 C 0.242 0.03649 0.97296 0.0
C511 C 0.27689 0.06381 0.95562 0.0
C512 C 0.19716 0.04131 0.97175 0.0
C513 C 0.26555 0.05096 -0.00617 0.0
C514 C 0.26808 0.01465 0.00329 0.0
C515 C 0.2833 0.01783 0.02356 0.0
C516 C 0.29442 0.05832 0.0347 0.0
C517 C 0.29029 0.09513 0.02555 0.0
C518 C 0.27744 0.09203 0.00463 0.0
H519 H 0.20988 0.33922 0.31937 0.0
H520 H 0.22627 0.34647 0.38564 0.0
H521 H 0.28684 0.32219 0.38271 0.0
H522 H 0.20766 0.2376 0.31403 0.0
H523 H 0.23912 0.24948 0.28996 0.0
H524 H 0.20763 0.27978 0.29638 0.0
H525 H 0.28421 0.35901 0.29167 0.0
H526 H 0.31602 0.32885 0.285 0.0
H527 H 0.33691 0.37069 0.30565 0.0
H528 H 0.33248 0.28284 0.37353 0.0
H529 H 0.35875 0.23038 0.35894 0.0
H530 H 0.31125 0.24624 0.29856 0.0
C531 C 0.22793 0.33784 0.33314 0.0
C532 C 0.21406 0.34534 0.3527 0.0
C533 C 0.23685 0.34128 0.3705 0.0
C534 C 0.27143 0.32773 0.36897 0.0
C535 C 0.28276 0.31834 0.34952 0.0
C536 C 0.26194 0.32354 0.33187 0.0
C537 C 0.27434 0.30403 0.31326 0.0
C538 C 0.22953 0.26544 0.30282 0.0
C539 C 0.30469 0.34298 0.298 0.0
C540 C 0.30297 0.28461 0.3234 0.0
C541 C 0.3085 0.29433 0.34421 0.0
C542 C 0.32938 0.27591 0.35717 0.0
C543 C 0.34399 0.24593 0.34875 0.0
C544 C 0.33715 0.23422 0.32759 0.0
C545 C 0.31763 0.25501 0.31473 0.0
H546 H 0.89007 0.20344 0.6495 0.0
H547 H 0.89745 0.22183 0.71573 0.0
H548 H 0.98221 0.27999 0.71289 0.0
H549 H -0.00726 0.20141 0.64468 0.0
H550 H 0.01072 0.23172 0.62044 0.0
H551 H 0.94908 0.19987 0.62705 0.0
H552 H 0.94216 0.27422 0.62178 0.0
H553 H 0.00405 0.30641 0.61509 0.0
H554 H 0.98131 0.32665 0.63558 0.0
H555 H 0.06759 0.32582 0.70363 0.0
H556 H 0.14697 0.35295 0.68896 0.0
H557 H 0.08408 0.30387 0.62878 0.0
C558 C 0.90911 0.22085 0.66334 0.0
C559 C 0.88714 0.20837 0.68281 0.0
C560 C 0.91357 0.23099 0.70063 0.0
C561 C 0.96165 0.26431 0.69916 0.0
C562 C 0.98265 0.27474 0.67976 0.0
C563 C 0.95714 0.2538 0.66214 0.0
C564 C -0.01088 0.26614 0.64354 0.0
C565 C -0.01482 0.22218 0.63335 0.0
C566 C 0.97852 0.29509 0.62808 0.0
C567 C 0.03684 0.29522 0.65362 0.0
C568 C 0.03231 0.30079 0.67442 0.0
C569 C 0.0716 0.32253 0.6873 0.0
C570 C 0.11657 0.33773 0.67882 0.0
C571 C 0.12178 0.33056 0.65771 0.0
C572 C 0.0814 0.31042 0.64491 0.0
H573 H 0.65873 0.87707 0.00843 0.0
H574 H 0.701 0.94412 0.06794 0.0
H575 H 0.71816 0.01899 0.05227 0.0
H576 H 0.74998 0.9615 0.98242 0.0
H577 H 0.71869 0.9581 0.959 0.0
H578 H 0.69768 0.90809 0.97542 0.0
H579 H 0.61568 0.90337 0.97774 0.0
H580 H 0.63652 0.95357 0.96121 0.0
H581 H 0.61184 0.95355 0.98604 0.0
H582 H 0.7443 0.08829 0.02959 0.0
H583 H 0.78144 0.14612 0.00184 0.0
H584 H 0.72441 0.03473 0.95677 0.0
C585 C 0.66952 0.90711 0.01826 0.0
C586 C 0.67779 0.90476 0.03942 0.0
C587 C 0.69396 0.94517 0.05171 0.0
C588 C 0.70356 0.98779 0.04296 0.0
C589 C 0.69692 0.9895 0.02186 0.0
C590 C 0.68009 0.95013 0.00966 0.0
C591 C 0.68343 0.96252 0.98706 0.0
C592 C 0.71429 0.94664 0.97531 0.0
C593 C 0.63391 0.94204 0.97745 0.0
C594 C 0.70715 0.0151 0.98841 0.0
C595 C 0.71337 0.02994 0.00861 0.0
C596 C 0.73872 0.07709 0.0137 0.0
C597 C 0.7597 0.10978 -0.0022 0.0
C598 C 0.75586 0.09509 0.97708 0.0
C599 C 0.72761 0.04723 0.9724 0.0
H600 H 0.63841 0.74924 0.30017 0.0
H601 H 0.61311 0.7805 0.3622 0.0
H602 H 0.64388 0.73107 0.37608 0.0
H603 H 0.61701 0.62628 0.31144 0.0
H604 H 0.66394 0.63508 0.29403 0.0
H605 H 0.62841 0.6622 0.28893 0.0
H606 H 0.70456 0.7426 0.28706 0.0
H607 H 0.74018 0.71606 0.2924 0.0
H608 H 0.74467 0.76235 0.30863 0.0
H609 H 0.69403 0.6953 0.38318 0.0
H610 H 0.7557 0.67219 0.38291 0.0
H611 H 0.74755 0.66266 0.31635 0.0
C612 C 0.63756 0.74424 0.31665 0.0
C613 C 0.62344 0.76883 0.33009 0.0
C614 C 0.62355 0.76189 0.35158 0.0
C615 C 0.64086 0.73373 0.35962 0.0
C616 C 0.65711 0.71214 0.34596 0.0
C617 C 0.65474 0.71632 0.32489 0.0
C618 C 0.68036 0.69513 0.31358 0.0
C619 C 0.64533 0.6521 0.30127 0.0
C620 C 0.71976 0.7312 0.29962 0.0
C621 C 0.70051 0.68152 0.33157 0.0
C622 C 0.68583 0.69064 0.35013 0.0
C623 C 0.70462 0.68665 0.3688 0.0
C624 C 0.73989 0.67384 0.36848 0.0
C625 C 0.75605 0.66532 0.34961 0.0
C626 C 0.73503 0.66789 0.33102 0.0
H627 H 0.09922 0.75176 0.63629 0.0
H628 H 0.09073 0.71434 0.70064 0.0
H629 H 0.00684 0.65476 0.69603 0.0
H630 H -0.00264 0.75363 0.63553 0.0
H631 H 0.97906 0.7314 0.60986 0.0
H632 H 0.04072 0.76077 0.61642 0.0
H633 H 0.04712 0.68889 0.60485 0.0
H634 H -0.01479 0.65923 0.5981 0.0
H635 H 0.00773 0.63253 0.61569 0.0
H636 H 0.92183 0.61057 0.68629 0.0
H637 H 0.84259 0.58964 0.67308 0.0
H638 H 0.90545 0.65862 0.6154 0.0
C639 C 0.08024 0.72945 0.64914 0.0
C640 C 0.10149 0.7369 0.66872 0.0
C641 C 0.07511 0.70864 0.68546 0.0
C642 C 0.02754 0.67458 0.68294 0.0
C643 C 0.00689 0.6694 0.66361 0.0
C644 C 0.03248 0.69605 0.64696 0.0
C645 C 0.00043 0.68987 0.6289 0.0
C646 C 0.00464 0.73667 0.62232 0.0
C647 C 0.01074 0.6662 0.61082 0.0
C648 C 0.95263 0.6578 0.63837 0.0
C649 C 0.95716 0.64514 0.65816 0.0
C650 C 0.91783 0.61941 0.67067 0.0
C651 C 0.87289 0.6077 0.66302 0.0
C652 C 0.8678 0.62252 0.6432 0.0
C653 C 0.90812 0.6464 0.63054 0.0
H654 H 0.01727 0.23355 0.96895 0.0
H655 H 0.92992 0.08502 0.95867 0.0
H656 H 0.97964 0.06987 0.98271 0.0
H657 H 0.12872 0.23156 0.97086 0.0
H658 H 0.1541 0.27634 0.99022 0.0
H659 H 0.1111 0.27549 0.97244 0.0
H660 H 0.05944 0.27443 0.00305 0.0
H661 H 0.10203 0.27476 0.02093 0.0
H662 H 0.04109 0.22933 0.02223 0.0
H663 H 0.03472 0.07036 0.00958 0.0
H664 H 0.09994 0.08688 0.03371 0.0
H665 H 0.15644 0.23509 0.02425 0.0
C666 C 0.00892 0.19793 0.97171 0.0
C667 C 0.96979 0.16041 0.96205 0.0
C668 C 0.96 0.11424 0.96583 0.0
C669 C -0.01222 0.10526 0.97956 0.0
C670 C 0.02575 0.1429 0.98905 0.0
C671 C 0.03709 0.18837 0.98497 0.0
C672 C 0.08114 0.22242 -0.00341 0.0
C673 C 0.12113 0.25327 0.98163 0.0
C674 C 0.07025 0.25197 0.01159 0.0
C675 C 0.09232 0.18892 0.00799 0.0
C676 C 0.05941 0.14323 0.00367 0.0
C677 C 0.06105 0.10598 0.01293 0.0
C678 C 0.09796 0.11567 0.02671 0.0
C679 C 0.13311 0.16217 0.03073 0.0
C680 C 0.13011 0.19922 0.0213 0.0
H681 H 0.76056 0.01336 0.34126 0.0
H682 H 0.78174 0.0081 0.27559 0.0
H683 H 0.8617 0.07634 0.2787 0.0
H684 H 0.81718 0.1349 0.34604 0.0
H685 H 0.84394 0.13707 0.37061 0.0
H686 H 0.78966 0.08609 0.36341 0.0
H687 H 0.82875 0.03488 0.36944 0.0
H688 H 0.88325 0.0858 0.37665 0.0
H689 H 0.88297 0.0487 0.35624 0.0
H690 H 0.93556 0.14975 0.28835 0.0
H691 H 0.0001 0.22069 0.30428 0.0
H692 H 0.93302 0.1752 0.36392 0.0
C693 C 0.78216 0.0263 0.32756 0.0
C694 C 0.76486 0.00552 0.30817 0.0
C695 C 0.79431 0.02337 0.29062 0.0
C696 C 0.83977 0.06211 0.29223 0.0
C697 C 0.85553 0.08206 0.31154 0.0
C698 C 0.82786 0.06446 0.32893 0.0
C699 C 0.85272 0.09302 0.34778 0.0
C700 C 0.82418 0.11401 0.35752 0.0
C701 C 0.86251 0.06385 0.36345 0.0
C702 C 0.89815 0.13023 0.33816 0.0
C703 C 0.89908 0.12328 0.31724 0.0
C704 C 0.93569 0.15509 0.30478 0.0
C705 C 0.97207 0.19528 0.31393 0.0
C706 C 0.97177 0.20295 0.33533 0.0
C707 C 0.93469 0.16959 0.3476 0.0
H708 H 0.77813 0.80501 0.62761 0.0
H709 H 0.76838 0.73763 0.68611 0.0
H710 H 0.77522 0.80642 0.70437 0.0
H711 H 0.8595 0.92585 0.64387 0.0
H712 H 0.82917 0.9489 0.62874 0.0
H713 H 0.82997 0.89718 0.62041 0.0
H714 H 0.73828 0.85266 0.61903 0.0
H715 H 0.73718 0.90409 0.62741 0.0
H716 H 0.70512 0.85057 0.64165 0.0
H717 H 0.77851 0.88051 0.71614 0.0
H718 H 0.77251 0.95181 0.72055 0.0
H719 H 0.77547 0.9685 0.65424 0.0
C720 C 0.7786 0.80525 0.64427 0.0
C721 C 0.77334 0.76636 0.65549 0.0
C722 C 0.77262 0.76726 0.67726 0.0
C723 C 0.77669 0.80621 0.68774 0.0
C724 C 0.78101 0.84373 0.67622 0.0
C725 C 0.78172 0.84347 0.65495 0.0
C726 C 0.78208 0.88616 0.64618 0.0
C727 C 0.82792 0.9163 0.63409 0.0
C728 C 0.73804 0.87253 0.63279 0.0
C729 C 0.78056 0.91003 0.66581 0.0
C730 C 0.78085 0.88547 0.68297 0.0
C731 C 0.77853 0.90018 0.70282 0.0
C732 C 0.77518 0.94074 0.70517 0.0
C733 C 0.7734 0.96565 0.68775 0.0
C734 C 0.77668 0.9502 0.66786 0.0
H735 H 0.8366 0.77929 0.03509 0.0
H736 H 0.72894 0.76916 0.99251 0.0
H737 H 0.77719 0.76802 0.96331 0.0
H738 H 0.93695 0.85292 0.00522 0.0
H739 H 0.97022 0.82433 0.01203 0.0
H740 H 0.92675 0.82326 0.02956 0.0
H741 H 0.88427 0.73309 0.0303 0.0
H742 H 0.92772 0.73388 0.01279 0.0
H743 H 0.86568 0.70112 0.00648 0.0
H744 H 0.84063 0.77567 0.9388 0.0
H745 H 0.91123 0.78317 0.92073 0.0
H746 H 0.97399 0.78101 0.9793 0.0
C747 C 0.82312 0.77657 0.01961 0.0
C748 C 0.77924 0.77457 0.01599 0.0
C749 C 0.76245 0.77058 -0.00442 0.0
C750 C 0.78963 0.77004 0.97892 0.0
C751 C 0.83298 0.77252 0.983 0.0
C752 C 0.84926 0.77489 0.00285 0.0
C753 C 0.89682 0.77672 0.00305 0.0
C754 C 0.93493 0.822 0.01305 0.0
C755 C 0.89339 0.73363 0.01379 0.0
C756 C 0.90524 0.77604 0.98019 0.0
C757 C 0.86818 0.77403 0.96888 0.0
C758 C 0.86945 0.77637 0.94747 0.0
C759 C 0.90964 0.78079 0.93735 0.0
C760 C 0.94747 0.78195 0.94866 0.0
C761 C 0.94499 0.77914 0.97032 0.0
H762 H 0.03741 0.81939 0.35511 0.0
H763 H 0.97466 0.7738 0.29469 0.0
H764 H 0.03858 0.84626 0.27949 0.0
H765 H 0.0802 0.94355 0.34815 0.0
H766 H 0.13417 0.96032 0.36216 0.0
H767 H 0.0813 0.90682 0.36844 0.0
H768 H 0.12629 0.86096 0.36284 0.0
H769 H 0.17923 0.91424 0.35657 0.0
H770 H 0.15587 0.86629 0.33869 0.0
H771 H 0.1108 0.92308 0.27084 0.0
H772 H 0.18836 -0.00481 0.26909 0.0
H773 H 0.20504 0.98796 0.33501 0.0
C774 C 0.0367 0.82494 0.33872 0.0
C775 C 0.00088 0.79118 0.32609 0.0
C776 C 0.00176 0.79928 0.30465 0.0
C777 C 0.03778 0.84039 0.2959 0.0
C778 C 0.07279 0.87283 0.30878 0.0
C779 C 0.07268 0.86538 0.32971 0.0
C780 C 0.11603 0.9041 0.33998 0.0
C781 C 0.10207 0.93024 0.3556 0.0
C782 C 0.14612 0.88526 0.35011 0.0
C783 C 0.14085 0.93424 0.32153 0.0
C784 C 0.11507 0.91605 0.30372 0.0
C785 C 0.13125 0.9377 0.28471 0.0
C786 C 0.17527 0.97868 0.28387 0.0
C787 C 0.20282 -0.00289 0.30189 0.0
C788 C 0.18494 0.97468 0.32094 0.0
H789 H 0.22122 0.0194 0.69428 0.0
H790 H 0.15671 0.94251 0.63845 0.0
H791 H 0.1514 0.00968 0.62481 0.0
H792 H 0.15776 0.08878 0.69614 0.0
H793 H 0.21002 0.14031 0.70481 0.0
H794 H 0.20077 0.08354 0.7118 0.0
H795 H 0.28251 0.10474 0.69634 0.0
H796 H 0.29174 0.16121 0.68902 0.0
H797 H 0.29497 0.12331 0.66989 0.0
H798 H 0.1609 0.08635 0.61566 0.0
H799 H 0.18398 0.16872 0.61124 0.0
H800 H 0.24654 0.19899 0.67231 0.0
C801 C 0.20431 0.01631 0.67955 0.0
C802 C 0.18833 0.97569 0.66752 0.0
C803 C 0.16838 0.97324 0.64793 0.0
C804 C 0.16526 0.01114 0.6401 0.0
C805 C 0.18278 0.05136 0.65199 0.0
C806 C 0.20181 0.05431 0.67132 0.0
C807 C 0.22283 0.10333 0.67985 0.0
C808 C 0.19625 0.10402 0.6993 0.0
C809 C 0.27617 0.12437 0.68401 0.0
C810 C 0.21369 0.12762 0.66207 0.0
C811 C 0.18993 0.09669 0.64633 0.0
C812 C 0.17901 0.11085 0.62796 0.0
C813 C 0.19251 0.15787 0.62559 0.0
C814 C 0.21713 0.1905 0.64143 0.0
C815 C 0.22772 0.17497 0.65994 0.0
loop_
_geom_bond_atom_site_label_1
_geom_bond_atom_site_label_2
_geom_bond_distance
_geom_bond_site_symmetry_2
_ccdc_geom_bond_type
C0 O1 1.306 . S
C0 O3 1.160 . S
O1 C0 1.306 . S
O1 Cd2 2.228 . S
Cd2 O1 2.228 . S
Cd2 O6 2.273 . S
Cd2 O10 2.277 . S
O3 C0 1.160 . S
O3 Cd4 2.203 . S
Cd4 O3 2.203 . S
Cd4 O6 2.411 . S
Cd4 O7 2.333 . S
Cd4 O8 2.352 . S
Cd4 O12 2.277 . S
Cd4 O13 2.356 . S
C5 O10 1.209 . S
C5 O12 1.226 . S
O6 Cd2 2.273 . S
O6 Cd4 2.411 . S
O6 C9 1.320 . S
O7 Cd4 2.333 . S
O7 C9 1.214 . S
O8 Cd4 2.352 . S
O8 C11 1.258 . S
C9 O6 1.320 . S
C9 O7 1.214 . S
O10 Cd2 2.277 . S
O10 C5 1.209 . S
C11 O8 1.258 . S
C11 O13 1.282 . S
O12 Cd4 2.277 . S
O12 C5 1.226 . S
O13 Cd4 2.356 . S
O13 C11 1.282 . S
C14 O15 1.306 . S
C14 O17 1.160 . S
O15 C14 1.306 . S
O15 Cd16 2.228 . S
Cd16 O15 2.228 . S
Cd16 O20 2.273 . S
Cd16 O24 2.277 . S
O17 C14 1.160 . S
O17 Cd18 2.203 . S
Cd18 O17 2.203 . S
Cd18 O20 2.411 . S
Cd18 O21 2.333 . S
Cd18 O22 2.352 . S
Cd18 O26 2.277 . S
Cd18 O27 2.356 . S
C19 O24 1.209 . S
C19 O26 1.226 . S
O20 Cd16 2.273 . S
O20 Cd18 2.411 . S
O20 C23 1.320 . S
O21 Cd18 2.333 . S
O21 C23 1.214 . S
O22 Cd18 2.352 . S
O22 C25 1.258 . S
C23 O20 1.320 . S
C23 O21 1.214 . S
O24 Cd16 2.277 . S
O24 C19 1.209 . S
C25 O22 1.258 . S
C25 O27 1.282 . S
O26 Cd18 2.277 . S
O26 C19 1.226 . S
O27 Cd18 2.356 . S
O27 C25 1.282 . S
C28 O29 1.306 . S
C28 O31 1.160 . S
O29 C28 1.306 . S
O29 Cd30 2.228 . S
Cd30 O29 2.228 . S
Cd30 O34 2.273 . S
Cd30 O38 2.277 . S
O31 C28 1.160 . S
O31 Cd32 2.203 . S
Cd32 O31 2.203 . S
Cd32 O34 2.411 . S
Cd32 O35 2.333 . S
Cd32 O36 2.352 . S
Cd32 O40 2.277 . S
Cd32 O41 2.356 . S
C33 O38 1.209 . S
C33 O40 1.226 . S
O34 Cd30 2.273 . S
O34 Cd32 2.411 . S
O34 C37 1.320 . S
O35 Cd32 2.333 . S
O35 C37 1.214 . S
O36 Cd32 2.352 . S
O36 C39 1.258 . S
C37 O34 1.320 . S
C37 O35 1.214 . S
O38 Cd30 2.277 . S
O38 C33 1.209 . S
C39 O36 1.258 . S
C39 O41 1.282 . S
O40 Cd32 2.277 . S
O40 C33 1.226 . S
O41 Cd32 2.356 . S
O41 C39 1.282 . S
C42 O43 1.306 . S
C42 O45 1.160 . S
O43 C42 1.306 . S
O43 Cd44 2.228 . S
Cd44 O43 2.228 . S
Cd44 O48 2.273 . S
Cd44 O52 2.277 . S
O45 C42 1.160 . S
O45 Cd46 2.203 . S
Cd46 O45 2.203 . S
Cd46 O48 2.411 . S
Cd46 O49 2.333 . S
Cd46 O50 2.352 . S
Cd46 O54 2.277 . S
Cd46 O55 2.356 . S
C47 O52 1.209 . S
C47 O54 1.226 . S
O48 Cd44 2.273 . S
O48 Cd46 2.411 . S
O48 C51 1.320 . S
O49 Cd46 2.333 . S
O49 C51 1.214 . S
O50 Cd46 2.352 . S
O50 C53 1.258 . S
C51 O48 1.320 . S
C51 O49 1.214 . S
O52 Cd44 2.277 . S
O52 C47 1.209 . S
C53 O50 1.258 . S
C53 O55 1.282 . S
O54 Cd46 2.277 . S
O54 C47 1.226 . S
O55 Cd46 2.356 . S
O55 C53 1.282 . S
C56 O57 1.306 . S
C56 O59 1.160 . S
O57 C56 1.306 . S
O57 Cd58 2.228 . S
Cd58 O57 2.228 . S
Cd58 O62 2.273 . S
Cd58 O66 2.277 . S
O59 C56 1.160 . S
O59 Cd60 2.203 . S
Cd60 O59 2.203 . S
Cd60 O62 2.411 . S
Cd60 O63 2.333 . S
Cd60 O64 2.352 . S
Cd60 O68 2.277 . S
Cd60 O69 2.356 . S
C61 O66 1.209 . S
C61 O68 1.226 . S
O62 Cd58 2.273 . S
O62 Cd60 2.411 . S
O62 C65 1.320 . S
O63 Cd60 2.333 . S
O63 C65 1.214 . S
O64 Cd60 2.352 . S
O64 C67 1.258 . S
C65 O62 1.320 . S
C65 O63 1.214 . S
O66 Cd58 2.277 . S
O66 C61 1.209 . S
C67 O64 1.258 . S
C67 O69 1.282 . S
O68 Cd60 2.277 . S
O68 C61 1.226 . S
O69 Cd60 2.356 . S
O69 C67 1.282 . S
C70 O71 1.306 . S
C70 O73 1.160 . S
O71 C70 1.306 . S
O71 Cd72 2.228 . S
Cd72 O71 2.228 . S
Cd72 O76 2.273 . S
Cd72 O80 2.277 . S
O73 C70 1.160 . S
O73 Cd74 2.203 . S
Cd74 O73 2.203 . S
Cd74 O76 2.411 . S
Cd74 O77 2.333 . S
Cd74 O78 2.352 . S
Cd74 O82 2.277 . S
Cd74 O83 2.356 . S
C75 O80 1.209 . S
C75 O82 1.226 . S
O76 Cd72 2.273 . S
O76 Cd74 2.411 . S
O76 C79 1.320 . S
O77 Cd74 2.333 . S
O77 C79 1.214 . S
O78 Cd74 2.352 . S
O78 C81 1.258 . S
C79 O76 1.320 . S
C79 O77 1.214 . S
O80 Cd72 2.277 . S
O80 C75 1.209 . S
C81 O78 1.258 . S
C81 O83 1.282 . S
O82 Cd74 2.277 . S
O82 C75 1.226 . S
O83 Cd74 2.356 . S
O83 C81 1.282 . S
C84 O85 1.306 . S
C84 O87 1.160 . S
O85 C84 1.306 . S
O85 Cd86 2.228 . S
Cd86 O85 2.228 . S
Cd86 O90 2.273 . S
Cd86 O94 2.277 . S
O87 C84 1.160 . S
O87 Cd88 2.203 . S
Cd88 O87 2.203 . S
Cd88 O90 2.411 . S
Cd88 O91 2.333 . S
Cd88 O92 2.352 . S
Cd88 O96 2.277 . S
Cd88 O97 2.356 . S
C89 O94 1.209 . S
C89 O96 1.226 . S
O90 Cd86 2.273 . S
O90 Cd88 2.411 . S
O90 C93 1.320 . S
O91 Cd88 2.333 . S
O91 C93 1.214 . S
O92 Cd88 2.352 . S
O92 C95 1.258 . S
C93 O90 1.320 . S
C93 O91 1.214 . S
O94 Cd86 2.277 . S
O94 C89 1.209 . S
C95 O92 1.258 . S
C95 O97 1.282 . S
O96 Cd88 2.277 . S
O96 C89 1.226 . S
O97 Cd88 2.356 . S
O97 C95 1.282 . S
C98 O99 1.306 . S
C98 O101 1.160 . S
O99 C98 1.306 . S
O99 Cd100 2.228 . S
Cd100 O99 2.228 . S
Cd100 O104 2.273 . S
Cd100 O108 2.277 . S
O101 C98 1.160 . S
O101 Cd102 2.203 . S
Cd102 O101 2.203 . S
Cd102 O104 2.411 . S
Cd102 O105 2.333 . S
Cd102 O106 2.352 . S
Cd102 O110 2.277 . S
Cd102 O111 2.356 . S
C103 O108 1.209 . S
C103 O110 1.226 . S
O104 Cd100 2.273 . S
O104 Cd102 2.411 . S
O104 C107 1.320 . S
O105 Cd102 2.333 . S
O105 C107 1.214 . S
O106 Cd102 2.352 . S
O106 C109 1.258 . S
C107 O104 1.320 . S
C107 O105 1.214 . S
O108 Cd100 2.277 . S
O108 C103 1.209 . S
C109 O106 1.258 . S
C109 O111 1.282 . S
O110 Cd102 2.277 . S
O110 C103 1.226 . S
O111 Cd102 2.356 . S
O111 C109 1.282 . S
C112 O113 1.306 . S
C112 O115 1.160 . S
O113 C112 1.306 . S
O113 Cd114 2.228 . S
Cd114 O113 2.228 . S
Cd114 O118 2.273 . S
Cd114 O122 2.277 . S
O115 C112 1.160 . S
O115 Cd116 2.203 . S
Cd116 O115 2.203 . S
Cd116 O118 2.411 . S
Cd116 O119 2.333 . S
Cd116 O120 2.352 . S
Cd116 O124 2.277 . S
Cd116 O125 2.356 . S
C117 O122 1.209 . S
C117 O124 1.226 . S
O118 Cd114 2.273 . S
O118 Cd116 2.411 . S
O118 C121 1.320 . S
O119 Cd116 2.333 . S
O119 C121 1.214 . S
O120 Cd116 2.352 . S
O120 C123 1.258 . S
C121 O118 1.320 . S
C121 O119 1.214 . S
O122 Cd114 2.277 . S
O122 C117 1.209 . S
C123 O120 1.258 . S
C123 O125 1.282 . S
O124 Cd116 2.277 . S
O124 C117 1.226 . S
O125 Cd116 2.356 . S
O125 C123 1.282 . S
C126 O127 1.306 . S
C126 O129 1.160 . S
O127 C126 1.306 . S
O127 Cd128 2.228 . S
Cd128 O127 2.228 . S
Cd128 O132 2.273 . S
Cd128 O136 2.277 . S
O129 C126 1.160 . S
O129 Cd130 2.203 . S
Cd130 O129 2.203 . S
Cd130 O132 2.411 . S
Cd130 O133 2.333 . S
Cd130 O134 2.352 . S
Cd130 O138 2.277 . S
Cd130 O139 2.356 . S
C131 O136 1.209 . S
C131 O138 1.226 . S
O132 Cd128 2.273 . S
O132 Cd130 2.411 . S
O132 C135 1.320 . S
O133 Cd130 2.333 . S
O133 C135 1.214 . S
O134 Cd130 2.352 . S
O134 C137 1.258 . S
C135 O132 1.320 . S
C135 O133 1.214 . S
O136 Cd128 2.277 . S
O136 C131 1.209 . S
C137 O134 1.258 . S
C137 O139 1.282 . S
O138 Cd130 2.277 . S
O138 C131 1.226 . S
O139 Cd130 2.356 . S
O139 C137 1.282 . S
C140 O141 1.306 . S
C140 O143 1.160 . S
O141 C140 1.306 . S
O141 Cd142 2.228 . S
Cd142 O141 2.228 . S
Cd142 O146 2.273 . S
Cd142 O150 2.277 . S
O143 C140 1.160 . S
O143 Cd144 2.203 . S
Cd144 O143 2.203 . S
Cd144 O146 2.411 . S
Cd144 O147 2.333 . S
Cd144 O148 2.352 . S
Cd144 O152 2.277 . S
Cd144 O153 2.356 . S
C145 O150 1.209 . S
C145 O152 1.226 . S
O146 Cd142 2.273 . S
O146 Cd144 2.411 . S
O146 C149 1.320 . S
O147 Cd144 2.333 . S
O147 C149 1.214 . S
O148 Cd144 2.352 . S
O148 C151 1.258 . S
C149 O146 1.320 . S
C149 O147 1.214 . S
O150 Cd142 2.277 . S
O150 C145 1.209 . S
C151 O148 1.258 . S
C151 O153 1.282 . S
O152 Cd144 2.277 . S
O152 C145 1.226 . S
O153 Cd144 2.356 . S
O153 C151 1.282 . S
C154 O155 1.306 . S
C154 O157 1.160 . S
O155 C154 1.306 . S
O155 Cd156 2.228 . S
Cd156 O155 2.228 . S
Cd156 O160 2.273 . S
Cd156 O164 2.277 . S
O157 C154 1.160 . S
O157 Cd158 2.203 . S
Cd158 O157 2.203 . S
Cd158 O160 2.411 . S
Cd158 O161 2.333 . S
Cd158 O162 2.352 . S
Cd158 O166 2.277 . S
Cd158 O167 2.356 . S
C159 O164 1.209 . S
C159 O166 1.226 . S
O160 Cd156 2.273 . S
O160 Cd158 2.411 . S
O160 C163 1.320 . S
O161 Cd158 2.333 . S
O161 C163 1.214 . S
O162 Cd158 2.352 . S
O162 C165 1.258 . S
C163 O160 1.320 . S
C163 O161 1.214 . S
O164 Cd156 2.277 . S
O164 C159 1.209 . S
C165 O162 1.258 . S
C165 O167 1.282 . S
O166 Cd158 2.277 . S
O166 C159 1.226 . S
O167 Cd158 2.356 . S
O167 C165 1.282 . S
H168 C180 0.930 . S
H169 C182 0.930 . S
H170 C183 0.930 . S
H171 C187 0.959 . S
H172 C187 0.959 . S
H173 C187 0.961 . S
H174 C188 0.960 . S
H175 C188 0.961 . S
H176 C188 0.959 . S
H177 C191 0.929 . S
H178 C192 0.931 . S
H179 C194 0.930 . S
C180 H168 0.930 . S
C180 C181 1.399 . S
C180 C185 1.399 . S
C181 C180 1.399 . S
C181 C182 1.376 . S
C182 H169 0.930 . S
C182 C181 1.376 . S
C182 C183 1.388 . S
C183 H170 0.930 . S
C183 C182 1.388 . S
C183 C184 1.390 . S
C184 C183 1.390 . S
C184 C185 1.394 . S
C184 C190 1.465 . S
C185 C180 1.399 . S
C185 C184 1.394 . S
C185 C186 1.516 . S
C186 C185 1.516 . S
C186 C187 1.502 . S
C186 C188 1.561 . S
C186 C189 1.526 . S
C187 H171 0.959 . S
C187 H172 0.959 . S
C187 H173 0.961 . S
C187 C186 1.502 . S
C188 H174 0.960 . S
C188 H175 0.961 . S
C188 H176 0.959 . S
C188 C186 1.561 . S
C189 C186 1.526 . S
C189 C190 1.396 . S
C189 C194 1.390 . S
C190 C184 1.465 . S
C190 C189 1.396 . S
C190 C191 1.399 . S
C191 H177 0.929 . S
C191 C190 1.399 . S
C191 C192 1.385 . S
C192 H178 0.931 . S
C192 C191 1.385 . S
C192 C193 1.389 . S
C193 C192 1.389 . S
C193 C194 1.387 . S
C194 H179 0.930 . S
C194 C189 1.390 . S
C194 C193 1.387 . S
H195 C207 0.930 . S
H196 C209 0.930 . S
H197 C210 0.930 1_655 S
H198 C214 0.959 . S
H199 C214 0.959 . S
H200 C214 0.961 . S
H201 C215 0.960 . S
H202 C215 0.961 . S
H203 C215 0.959 . S
H204 C218 0.929 . S
H205 C219 0.931 . S
H206 C221 0.930 . S
C207 H195 0.930 . S
C207 C208 1.399 . S
C207 C212 1.399 . S
C208 C207 1.399 . S
C208 C209 1.376 . S
C209 H196 0.930 . S
C209 C208 1.376 . S
C209 C210 1.388 . S
C210 H197 0.930 1_455 S
C210 C209 1.388 . S
C210 C211 1.390 . S
C211 C210 1.390 . S
C211 C212 1.394 . S
C211 C217 1.465 1_455 S
C212 C207 1.399 . S
C212 C211 1.394 . S
C212 C213 1.516 . S
C213 C212 1.516 . S
C213 C214 1.502 . S
C213 C215 1.561 1_455 S
C213 C216 1.526 1_455 S
C214 H198 0.959 . S
C214 H199 0.959 . S
C214 H200 0.961 . S
C214 C213 1.502 . S
C215 H201 0.960 . S
C215 H202 0.961 . S
C215 H203 0.959 . S
C215 C213 1.561 1_655 S
C216 C213 1.526 1_655 S
C216 C217 1.396 . S
C216 C221 1.390 . S
C217 C211 1.465 1_655 S
C217 C216 1.396 . S
C217 C218 1.399 . S
C218 H204 0.929 . S
C218 C217 1.399 . S
C218 C219 1.385 . S
C219 H205 0.931 . S
C219 C218 1.385 . S
C219 C220 1.389 . S
C220 C219 1.389 . S
C220 C221 1.387 . S
C221 H206 0.930 . S
C221 C216 1.390 . S
C221 C220 1.387 . S
H222 C234 0.930 . S
H223 C236 0.930 . S
H224 C237 0.930 . S
H225 C241 0.959 . S
H226 C241 0.959 . S
H227 C241 0.961 . S
H228 C242 0.960 . S
H229 C242 0.961 1_545 S
H230 C242 0.959 1_545 S
H231 C245 0.929 . S
H232 C246 0.931 . S
H233 C248 0.930 . S
C234 H222 0.930 . S
C234 C235 1.399 . S
C234 C239 1.399 . S
C235 C234 1.399 . S
C235 C236 1.376 . S
C236 H223 0.930 . S
C236 C235 1.376 . S
C236 C237 1.388 1_565 S
C237 H224 0.930 . S
C237 C236 1.388 1_545 S
C237 C238 1.390 . S
C238 C237 1.390 . S
C238 C239 1.394 1_545 S
C238 C244 1.465 . S
C239 C234 1.399 . S
C239 C238 1.394 1_565 S
C239 C240 1.516 . S
C240 C239 1.516 . S
C240 C241 1.502 . S
C240 C242 1.561 . S
C240 C243 1.526 1_565 S
C241 H225 0.959 . S
C241 H226 0.959 . S
C241 H227 0.961 . S
C241 C240 1.502 . S
C242 H228 0.960 . S
C242 H229 0.961 1_565 S
C242 H230 0.959 1_565 S
C242 C240 1.561 . S
C243 C240 1.526 1_545 S
C243 C244 1.396 . S
C243 C248 1.390 . S
C244 C238 1.465 . S
C244 C243 1.396 . S
C244 C245 1.399 . S
C245 H231 0.929 . S
C245 C244 1.399 . S
C245 C246 1.385 . S
C246 H232 0.931 . S
C246 C245 1.385 . S
C246 C247 1.389 . S
C247 C246 1.389 . S
C247 C248 1.387 . S
C248 H233 0.930 . S
C248 C243 1.390 . S
C248 C247 1.387 . S
H249 C261 0.930 . S
H250 C263 0.930 . S
H251 C264 0.930 . S
H252 C268 0.959 . S
H253 C268 0.959 . S
H254 C268 0.961 . S
H255 C269 0.960 . S
H256 C269 0.961 . S
H257 C269 0.959 . S
H258 C272 0.929 . S
H259 C273 0.931 . S
H260 C275 0.930 . S
C261 H249 0.930 . S
C261 C262 1.399 . S
C261 C266 1.399 . S
C262 C261 1.399 . S
C262 C263 1.376 . S
C263 H250 0.930 . S
C263 C262 1.376 . S
C263 C264 1.388 . S
C264 H251 0.930 . S
C264 C263 1.388 . S
C264 C265 1.390 . S
C265 C264 1.390 . S
C265 C266 1.394 . S
C265 C271 1.465 . S
C266 C261 1.399 . S
C266 C265 1.394 . S
C266 C267 1.516 . S
C267 C266 1.516 . S
C267 C268 1.502 . S
C267 C269 1.561 . S
C267 C270 1.526 . S
C268 H252 0.959 . S
C268 H253 0.959 . S
C268 H254 0.961 . S
C268 C267 1.502 . S
C269 H255 0.960 . S
C269 H256 0.961 . S
C269 H257 0.959 . S
C269 C267 1.561 . S
C270 C267 1.526 . S
C270 C271 1.396 . S
C270 C275 1.390 . S
C271 C265 1.465 . S
C271 C270 1.396 . S
C271 C272 1.399 . S
C272 H258 0.929 . S
C272 C271 1.399 . S
C272 C273 1.385 . S
C273 H259 0.931 . S
C273 C272 1.385 . S
C273 C274 1.389 . S
C274 C273 1.389 . S
C274 C275 1.387 . S
C275 H260 0.930 . S
C275 C270 1.390 . S
C275 C274 1.387 . S
H276 C288 0.930 . S
H277 C290 0.930 . S
H278 C291 0.940 . S
H279 C295 0.959 . S
H280 C295 0.959 . S
H281 C295 0.961 . S
H282 C296 0.970 1_655 S
H283 C296 0.971 . S
H284 C296 0.956 1_556 S
H285 C299 0.929 . S
H286 C300 0.931 . S
H287 C302 0.930 . S
C288 H276 0.930 . S
C288 C289 1.399 . S
C288 C293 1.399 . S
C289 C288 1.399 . S
C289 C290 1.376 . S
C290 H277 0.930 . S
C290 C289 1.376 . S
C290 C291 1.385 1_655 S
C291 H278 0.940 . S
C291 C290 1.385 1_455 S
C291 C292 1.392 . S
C292 C291 1.392 . S
C292 C293 1.381 1_455 S
C292 C298 1.466 . S
C293 C288 1.399 . S
C293 C292 1.381 1_655 S
C293 C294 1.516 . S
C294 C293 1.516 . S
C294 C295 1.502 . S
C294 C296 1.545 1_656 S
C294 C297 1.526 1_655 S
C295 H279 0.959 . S
C295 H280 0.959 . S
C295 H281 0.961 . S
C295 C294 1.502 . S
C296 H282 0.970 1_455 S
C296 H283 0.971 . S
C296 H284 0.956 1_554 S
C296 C294 1.545 1_454 S
C297 C294 1.526 1_455 S
C297 C298 1.396 . S
C297 C302 1.390 . S
C298 C292 1.466 . S
C298 C297 1.396 . S
C298 C299 1.399 . S
C299 H285 0.929 . S
C299 C298 1.399 . S
C299 C300 1.385 . S
C300 H286 0.931 . S
C300 C299 1.385 . S
C300 C301 1.389 . S
C301 C300 1.389 . S
C301 C302 1.387 . S
C302 H287 0.930 . S
C302 C297 1.390 . S
C302 C301 1.387 . S
H303 C315 0.930 . S
H304 C317 0.930 . S
H305 C318 0.930 . S
H306 C322 0.959 . S
H307 C322 0.959 . S
H308 C322 0.961 . S
H309 C323 0.960 . S
H310 C323 0.961 . S
H311 C323 0.959 . S
H312 C326 0.929 . S
H313 C327 0.931 . S
H314 C329 0.930 . S
C315 H303 0.930 . S
C315 C316 1.399 . S
C315 C320 1.399 . S
C316 C315 1.399 . S
C316 C317 1.376 . S
C317 H304 0.930 . S
C317 C316 1.376 . S
C317 C318 1.388 . S
C318 H305 0.930 . S
C318 C317 1.388 . S
C318 C319 1.390 . S
C319 C318 1.390 . S
C319 C320 1.394 . S
C319 C325 1.465 1_545 S
C320 C315 1.399 . S
C320 C319 1.394 . S
C320 C321 1.516 1_545 S
C321 C320 1.516 1_565 S
C321 C322 1.502 . S
C321 C323 1.561 1_565 S
C321 C324 1.526 . S
C322 H306 0.959 . S
C322 H307 0.959 . S
C322 H308 0.961 . S
C322 C321 1.502 . S
C323 H309 0.960 . S
C323 H310 0.961 . S
C323 H311 0.959 . S
C323 C321 1.561 1_545 S
C324 C321 1.526 . S
C324 C325 1.396 . S
C324 C329 1.390 . S
C325 C319 1.465 1_565 S
C325 C324 1.396 . S
C325 C326 1.399 . S
C326 H312 0.929 . S
C326 C325 1.399 . S
C326 C327 1.385 . S
C327 H313 0.931 . S
C327 C326 1.385 . S
C327 C328 1.389 . S
C328 C327 1.389 . S
C328 C329 1.387 . S
C329 H314 0.930 . S
C329 C324 1.390 . S
C329 C328 1.387 . S
H330 C342 0.930 . S
H331 C344 0.930 . S
H332 C345 0.930 . S
H333 C349 0.959 . S
H334 C349 0.959 . S
H335 C349 0.961 . S
H336 C350 0.960 . S
H337 C350 0.961 . S
H338 C350 0.959 . S
H339 C353 0.929 . S
H340 C354 0.931 . S
H341 C356 0.930 . S
C342 H330 0.930 . S
C342 C343 1.399 . S
C342 C347 1.399 . S
C343 C342 1.399 . S
C343 C344 1.376 . S
C344 H331 0.930 . S
C344 C343 1.376 . S
C344 C345 1.388 . S
C345 H332 0.930 . S
C345 C344 1.388 . S
C345 C346 1.390 . S
C346 C345 1.390 . S
C346 C347 1.394 . S
C346 C352 1.465 . S
C347 C342 1.399 . S
C347 C346 1.394 . S
C347 C348 1.516 . S
C348 C347 1.516 . S
C348 C349 1.502 . S
C348 C350 1.561 . S
C348 C351 1.526 . S
C349 H333 0.959 . S
C349 H334 0.959 . S
C349 H335 0.961 . S
C349 C348 1.502 . S
C350 H336 0.960 . S
C350 H337 0.961 . S
C350 H338 0.959 . S
C350 C348 1.561 . S
C351 C348 1.526 . S
C351 C352 1.396 . S
C351 C356 1.390 . S
C352 C346 1.465 . S
C352 C351 1.396 . S
C352 C353 1.399 . S
C353 H339 0.929 . S
C353 C352 1.399 . S
C353 C354 1.385 . S
C354 H340 0.931 . S
C354 C353 1.385 . S
C354 C355 1.389 . S
C355 C354 1.389 . S
C355 C356 1.387 . S
C356 H341 0.930 . S
C356 C351 1.390 . S
C356 C355 1.387 . S
H357 C369 0.930 . S
H358 C371 0.930 . S
H359 C372 0.930 . S
H360 C376 0.959 . S
H361 C376 0.959 . S
H362 C376 0.961 . S
H363 C377 0.960 . S
H364 C377 0.961 . S
H365 C377 0.959 . S
H366 C380 0.929 . S
H367 C381 0.931 . S
H368 C383 0.930 . S
C369 H357 0.930 . S
C369 C370 1.399 . S
C369 C374 1.399 . S
C370 C369 1.399 . S
C370 C371 1.376 . S
C371 H358 0.930 . S
C371 C370 1.376 . S
C371 C372 1.388 . S
C372 H359 0.930 . S
C372 C371 1.388 . S
C372 C373 1.390 . S
C373 C372 1.390 . S
C373 C374 1.394 . S
C373 C379 1.465 . S
C374 C369 1.399 . S
C374 C373 1.394 . S
C374 C375 1.516 . S
C375 C374 1.516 . S
C375 C376 1.502 . S
C375 C377 1.561 . S
C375 C378 1.526 . S
C376 H360 0.959 . S
C376 H361 0.959 . S
C376 H362 0.961 . S
C376 C375 1.502 . S
C377 H363 0.960 . S
C377 H364 0.961 . S
C377 H365 0.959 . S
C377 C375 1.561 . S
C378 C375 1.526 . S
C378 C379 1.396 . S
C378 C383 1.390 . S
C379 C373 1.465 . S
C379 C378 1.396 . S
C379 C380 1.399 . S
C380 H366 0.929 . S
C380 C379 1.399 . S
C380 C381 1.385 . S
C381 H367 0.931 . S
C381 C380 1.385 . S
C381 C382 1.389 . S
C382 C381 1.389 . S
C382 C383 1.387 . S
C383 H368 0.930 . S
C383 C378 1.390 . S
C383 C382 1.387 . S
H384 C396 0.930 . S
H385 C398 0.930 . S
H386 C399 0.930 . S
H387 C403 0.959 . S
H388 C403 0.959 . S
H389 C403 0.961 . S
H390 C404 0.960 . S
H391 C404 0.961 . S
H392 C404 0.959 . S
H393 C407 0.929 . S
H394 C408 0.931 . S
H395 C410 0.930 . S
C396 H384 0.930 . S
C396 C397 1.399 . S
C396 C401 1.399 . S
C397 C396 1.399 . S
C397 C398 1.376 . S
C398 H385 0.930 . S
C398 C397 1.376 . S
C398 C399 1.388 . S
C399 H386 0.930 . S
C399 C398 1.388 . S
C399 C400 1.390 . S
C400 C399 1.390 . S
C400 C401 1.394 . S
C400 C406 1.465 . S
C401 C396 1.399 . S
C401 C400 1.394 . S
C401 C402 1.516 . S
C402 C401 1.516 . S
C402 C403 1.502 . S
C402 C404 1.561 . S
C402 C405 1.526 . S
C403 H387 0.959 . S
C403 H388 0.959 . S
C403 H389 0.961 . S
C403 C402 1.502 . S
C404 H390 0.960 . S
C404 H391 0.961 . S
C404 H392 0.959 . S
C404 C402 1.561 . S
C405 C402 1.526 . S
C405 C406 1.396 . S
C405 C410 1.390 . S
C406 C400 1.465 . S
C406 C405 1.396 . S
C406 C407 1.399 . S
C407 H393 0.929 . S
C407 C406 1.399 . S
C407 C408 1.385 . S
C408 H394 0.931 . S
C408 C407 1.385 . S
C408 C409 1.389 . S
C409 C408 1.389 . S
C409 C410 1.387 . S
C410 H395 0.930 . S
C410 C405 1.390 . S
C410 C409 1.387 . S
H411 C423 0.930 . S
H412 C425 0.930 . S
H413 C426 0.930 . S
H414 C430 0.959 . S
H415 C430 0.959 . S
H416 C430 0.961 . S
H417 C431 0.960 . S
H418 C431 0.961 . S
H419 C431 0.959 . S
H420 C434 0.929 . S
H421 C435 0.931 . S
H422 C437 0.930 . S
C423 H411 0.930 . S
C423 C424 1.399 . S
C423 C428 1.399 . S
C424 C423 1.399 . S
C424 C425 1.376 . S
C425 H412 0.930 . S
C425 C424 1.376 . S
C425 C426 1.388 . S
C426 H413 0.930 . S
C426 C425 1.388 . S
C426 C427 1.390 . S
C427 C426 1.390 . S
C427 C428 1.394 . S
C427 C433 1.465 . S
C428 C423 1.399 . S
C428 C427 1.394 . S
C428 C429 1.516 . S
C429 C428 1.516 . S
C429 C430 1.502 . S
C429 C431 1.561 . S
C429 C432 1.526 . S
C430 H414 0.959 . S
C430 H415 0.959 . S
C430 H416 0.961 . S
C430 C429 1.502 . S
C431 H417 0.960 . S
C431 H418 0.961 . S
C431 H419 0.959 . S
C431 C429 1.561 . S
C432 C429 1.526 . S
C432 C433 1.396 . S
C432 C437 1.390 . S
C433 C427 1.465 . S
C433 C432 1.396 . S
C433 C434 1.399 . S
C434 H420 0.929 . S
C434 C433 1.399 . S
C434 C435 1.385 . S
C435 H421 0.931 . S
C435 C434 1.385 . S
C435 C436 1.389 . S
C436 C435 1.389 . S
C436 C437 1.387 . S
C437 H422 0.930 . S
C437 C432 1.390 . S
C437 C436 1.387 . S
H438 C450 0.930 . S
H439 C452 0.930 . S
H440 C453 0.930 . S
H441 C457 0.959 . S
H442 C457 0.959 . S
H443 C457 0.961 . S
H444 C458 0.960 . S
H445 C458 0.961 . S
H446 C458 0.959 . S
H447 C461 0.929 . S
H448 C462 0.931 . S
H449 C464 0.930 . S
C450 H438 0.930 . S
C450 C451 1.399 . S
C450 C455 1.399 . S
C451 C450 1.399 . S
C451 C452 1.376 . S
C452 H439 0.930 . S
C452 C451 1.376 . S
C452 C453 1.388 . S
C453 H440 0.930 . S
C453 C452 1.388 . S
C453 C454 1.390 . S
C454 C453 1.390 . S
C454 C455 1.394 . S
C454 C460 1.465 . S
C455 C450 1.399 . S
C455 C454 1.394 . S
C455 C456 1.516 . S
C456 C455 1.516 . S
C456 C457 1.502 . S
C456 C458 1.561 . S
C456 C459 1.526 . S
C457 H441 0.959 . S
C457 H442 0.959 . S
C457 H443 0.961 . S
C457 C456 1.502 . S
C458 H444 0.960 . S
C458 H445 0.961 . S
C458 H446 0.959 . S
C458 C456 1.561 . S
C459 C456 1.526 . S
C459 C460 1.396 . S
C459 C464 1.390 . S
C460 C454 1.465 . S
C460 C459 1.396 . S
C460 C461 1.399 . S
C461 H447 0.929 . S
C461 C460 1.399 . S
C461 C462 1.385 . S
C462 H448 0.931 . S
C462 C461 1.385 . S
C462 C463 1.389 . S
C463 C462 1.389 . S
C463 C464 1.387 . S
C464 H449 0.930 . S
C464 C459 1.390 . S
C464 C463 1.387 . S
H465 C477 0.930 . S
H466 C479 0.930 . S
H467 C480 0.930 . S
H468 C484 0.959 . S
H469 C484 0.959 . S
H470 C484 0.961 . S
H471 C485 0.960 . S
H472 C485 0.961 . S
H473 C485 0.959 . S
H474 C488 0.929 . S
H475 C489 0.931 . S
H476 C491 0.930 . S
C477 H465 0.930 . S
C477 C478 1.399 . S
C477 C482 1.399 . S
C478 C477 1.399 . S
C478 C479 1.376 . S
C479 H466 0.930 . S
C479 C478 1.376 . S
C479 C480 1.388 . S
C480 H467 0.930 . S
C480 C479 1.388 . S
C480 C481 1.390 . S
C481 C480 1.390 . S
C481 C482 1.394 . S
C481 C487 1.465 . S
C482 C477 1.399 . S
C482 C481 1.394 . S
C482 C483 1.516 . S
C483 C482 1.516 . S
C483 C484 1.502 . S
C483 C485 1.561 . S
C483 C486 1.526 . S
C484 H468 0.959 . S
C484 H469 0.959 . S
C484 H470 0.961 . S
C484 C483 1.502 . S
C485 H471 0.960 . S
C485 H472 0.961 . S
C485 H473 0.959 . S
C485 C483 1.561 . S
C486 C483 1.526 . S
C486 C487 1.396 . S
C486 C491 1.390 . S
C487 C481 1.465 . S
C487 C486 1.396 . S
C487 C488 1.399 . S
C488 H474 0.929 . S
C488 C487 1.399 . S
C488 C489 1.385 . S
C489 H475 0.931 . S
C489 C488 1.385 . S
C489 C490 1.389 . S
C490 C489 1.389 . S
C490 C491 1.387 . S
C491 H476 0.930 . S
C491 C486 1.390 . S
C491 C490 1.387 . S
H492 C504 0.930 . S
H493 C506 0.930 . S
H494 C507 0.930 . S
H495 C511 0.959 . S
H496 C511 0.959 . S
H497 C511 0.958 1_565 S
H498 C512 0.960 . S
H499 C512 0.961 1_545 S
H500 C512 0.959 . S
H501 C515 0.929 . S
H502 C516 0.931 . S
H503 C518 0.930 . S
C504 H492 0.930 . S
C504 C505 1.399 . S
C504 C509 1.399 . S
C505 C504 1.399 . S
C505 C506 1.376 . S
C506 H493 0.930 . S
C506 C505 1.376 . S
C506 C507 1.388 1_556 S
C507 H494 0.930 . S
C507 C506 1.388 1_554 S
C507 C508 1.390 . S
C508 C507 1.390 . S
C508 C509 1.394 1_554 S
C508 C514 1.465 1_565 S
C509 C504 1.399 . S
C509 C508 1.394 1_556 S
C509 C510 1.516 1_565 S
C510 C509 1.516 1_545 S
C510 C511 1.502 . S
C510 C512 1.561 1_546 S
C510 C513 1.526 1_556 S
C511 H495 0.959 . S
C511 H496 0.959 . S
C511 H497 0.958 1_545 S
C511 C510 1.502 . S
C512 H498 0.960 . S
C512 H499 0.961 1_565 S
C512 H500 0.959 . S
C512 C510 1.561 1_564 S
C513 C510 1.526 1_554 S
C513 C514 1.396 . S
C513 C518 1.390 . S
C514 C508 1.465 1_545 S
C514 C513 1.396 . S
C514 C515 1.399 . S
C515 H501 0.929 . S
C515 C514 1.399 . S
C515 C516 1.385 . S
C516 H502 0.931 . S
C516 C515 1.385 . S
C516 C517 1.389 . S
C517 C516 1.389 . S
C517 C518 1.387 . S
C518 H503 0.930 . S
C518 C513 1.390 . S
C518 C517 1.387 . S
H519 C531 0.930 . S
H520 C533 0.930 . S
H521 C534 0.930 . S
H522 C538 0.959 . S
H523 C538 0.959 . S
H524 C538 0.961 . S
H525 C539 0.960 . S
H526 C539 0.961 . S
H527 C539 0.959 . S
H528 C542 0.929 . S
H529 C543 0.931 . S
H530 C545 0.930 . S
C531 H519 0.930 . S
C531 C532 1.399 . S
C531 C536 1.399 . S
C532 C531 1.399 . S
C532 C533 1.376 . S
C533 H520 0.930 . S
C533 C532 1.376 . S
C533 C534 1.388 . S
C534 H521 0.930 . S
C534 C533 1.388 . S
C534 C535 1.390 . S
C535 C534 1.390 . S
C535 C536 1.394 . S
C535 C541 1.465 . S
C536 C531 1.399 . S
C536 C535 1.394 . S
C536 C537 1.516 . S
C537 C536 1.516 . S
C537 C538 1.502 . S
C537 C539 1.561 . S
C537 C540 1.526 . S
C538 H522 0.959 . S
C538 H523 0.959 . S
C538 H524 0.961 . S
C538 C537 1.502 . S
C539 H525 0.960 . S
C539 H526 0.961 . S
C539 H527 0.959 . S
C539 C537 1.561 . S
C540 C537 1.526 . S
C540 C541 1.396 . S
C540 C545 1.390 . S
C541 C535 1.465 . S
C541 C540 1.396 . S
C541 C542 1.399 . S
C542 H528 0.929 . S
C542 C541 1.399 . S
C542 C543 1.385 . S
C543 H529 0.931 . S
C543 C542 1.385 . S
C543 C544 1.389 . S
C544 C543 1.389 . S
C544 C545 1.387 . S
C545 H530 0.930 . S
C545 C540 1.390 . S
C545 C544 1.387 . S
H546 C558 0.930 . S
H547 C560 0.930 . S
H548 C561 0.930 . S
H549 C565 0.959 . S
H550 C565 0.959 . S
H551 C565 0.961 . S
H552 C566 0.960 1_655 S
H553 C566 0.961 . S
H554 C566 0.959 . S
H555 C569 0.929 . S
H556 C570 0.931 . S
H557 C572 0.930 . S
C558 H546 0.930 . S
C558 C559 1.399 . S
C558 C563 1.399 . S
C559 C558 1.399 . S
C559 C560 1.376 . S
C560 H547 0.930 . S
C560 C559 1.376 . S
C560 C561 1.388 . S
C561 H548 0.930 . S
C561 C560 1.388 . S
C561 C562 1.390 . S
C562 C561 1.390 . S
C562 C563 1.394 . S
C562 C568 1.465 1_655 S
C563 C558 1.399 . S
C563 C562 1.394 . S
C563 C564 1.516 . S
C564 C563 1.516 . S
C564 C565 1.502 . S
C564 C566 1.561 1_655 S
C564 C567 1.526 1_655 S
C565 H549 0.959 . S
C565 H550 0.959 . S
C565 H551 0.961 . S
C565 C564 1.502 . S
C566 H552 0.960 1_455 S
C566 H553 0.961 . S
C566 H554 0.959 . S
C566 C564 1.561 1_455 S
C567 C564 1.526 1_455 S
C567 C568 1.396 . S
C567 C572 1.390 . S
C568 C562 1.465 1_455 S
C568 C567 1.396 . S
C568 C569 1.399 . S
C569 H555 0.929 . S
C569 C568 1.399 . S
C569 C570 1.385 . S
C570 H556 0.931 . S
C570 C569 1.385 . S
C570 C571 1.389 . S
C571 C570 1.389 . S
C571 C572 1.387 . S
C572 H557 0.930 . S
C572 C567 1.390 . S
C572 C571 1.387 . S
H573 C585 0.930 1_556 S
H574 C587 0.930 . S
H575 C588 0.930 . S
H576 C592 0.959 . S
H577 C592 0.959 . S
H578 C592 0.961 . S
H579 C593 0.960 . S
H580 C593 0.961 . S
H581 C593 0.959 . S
H582 C596 0.929 . S
H583 C597 0.931 . S
H584 C599 0.930 . S
C585 H573 0.930 1_554 S
C585 C586 1.399 . S
C585 C590 1.399 1_554 S
C586 C585 1.399 . S
C586 C587 1.376 . S
C587 H574 0.930 . S
C587 C586 1.376 . S
C587 C588 1.388 . S
C588 H575 0.930 . S
C588 C587 1.388 . S
C588 C589 1.390 . S
C589 C588 1.390 . S
C589 C590 1.394 1_554 S
C589 C595 1.465 1_565 S
C590 C585 1.399 1_556 S
C590 C589 1.394 1_556 S
C590 C591 1.516 . S
C591 C590 1.516 . S
C591 C592 1.502 . S
C591 C593 1.561 . S
C591 C594 1.526 1_565 S
C592 H576 0.959 . S
C592 H577 0.959 . S
C592 H578 0.961 . S
C592 C591 1.502 . S
C593 H579 0.960 . S
C593 H580 0.961 . S
C593 H581 0.959 . S
C593 C591 1.561 . S
C594 C591 1.526 1_545 S
C594 C595 1.396 1_556 S
C594 C599 1.390 . S
C595 C589 1.465 1_545 S
C595 C594 1.396 1_554 S
C595 C596 1.399 . S
C596 H582 0.929 . S
C596 C595 1.399 . S
C596 C597 1.385 . S
C597 H583 0.931 . S
C597 C596 1.385 . S
C597 C598 1.389 1_554 S
C598 C597 1.389 1_556 S
C598 C599 1.387 . S
C599 H584 0.930 . S
C599 C594 1.390 . S
C599 C598 1.387 . S
H600 C612 0.930 . S
H601 C614 0.930 . S
H602 C615 0.930 . S
H603 C619 0.959 . S
H604 C619 0.959 . S
H605 C619 0.961 . S
H606 C620 0.960 . S
H607 C620 0.961 . S
H608 C620 0.959 . S
H609 C623 0.929 . S
H610 C624 0.931 . S
H611 C626 0.930 . S
C612 H600 0.930 . S
C612 C613 1.399 . S
C612 C617 1.399 . S
C613 C612 1.399 . S
C613 C614 1.376 . S
C614 H601 0.930 . S
C614 C613 1.376 . S
C614 C615 1.388 . S
C615 H602 0.930 . S
C615 C614 1.388 . S
C615 C616 1.390 . S
C616 C615 1.390 . S
C616 C617 1.394 . S
C616 C622 1.465 . S
C617 C612 1.399 . S
C617 C616 1.394 . S
C617 C618 1.516 . S
C618 C617 1.516 . S
C618 C619 1.502 . S
C618 C620 1.561 . S
C618 C621 1.526 . S
C619 H603 0.959 . S
C619 H604 0.959 . S
C619 H605 0.961 . S
C619 C618 1.502 . S
C620 H606 0.960 . S
C620 H607 0.961 . S
C620 H608 0.959 . S
C620 C618 1.561 . S
C621 C618 1.526 . S
C621 C622 1.396 . S
C621 C626 1.390 . S
C622 C616 1.465 . S
C622 C621 1.396 . S
C622 C623 1.399 . S
C623 H609 0.929 . S
C623 C622 1.399 . S
C623 C624 1.385 . S
C624 H610 0.931 . S
C624 C623 1.385 . S
C624 C625 1.389 . S
C625 C624 1.389 . S
C625 C626 1.387 . S
C626 H611 0.930 . S
C626 C621 1.390 . S
C626 C625 1.387 . S
H627 C639 0.930 . S
H628 C641 0.930 . S
H629 C642 0.930 . S
H630 C646 0.959 . S
H631 C646 0.959 . S
H632 C646 0.961 . S
H633 C647 0.960 1_455 S
H634 C647 0.961 . S
H635 C647 0.959 . S
H636 C650 0.929 . S
H637 C651 0.931 . S
H638 C653 0.930 . S
C639 H627 0.930 . S
C639 C640 1.399 . S
C639 C644 1.399 . S
C640 C639 1.399 . S
C640 C641 1.376 . S
C641 H628 0.930 . S
C641 C640 1.376 . S
C641 C642 1.388 . S
C642 H629 0.930 . S
C642 C641 1.388 . S
C642 C643 1.390 . S
C643 C642 1.390 . S
C643 C644 1.394 . S
C643 C649 1.465 1_455 S
C644 C639 1.399 . S
C644 C643 1.394 . S
C644 C645 1.516 . S
C645 C644 1.516 . S
C645 C646 1.502 . S
C645 C647 1.561 1_455 S
C645 C648 1.526 1_455 S
C646 H630 0.959 . S
C646 H631 0.959 . S
C646 H632 0.961 . S
C646 C645 1.502 . S
C647 H633 0.960 1_655 S
C647 H634 0.961 . S
C647 H635 0.959 . S
C647 C645 1.561 1_655 S
C648 C645 1.526 1_655 S
C648 C649 1.396 . S
C648 C653 1.390 . S
C649 C643 1.465 1_655 S
C649 C648 1.396 . S
C649 C650 1.399 . S
C650 H636 0.929 . S
C650 C649 1.399 . S
C650 C651 1.385 . S
C651 H637 0.931 . S
C651 C650 1.385 . S
C651 C652 1.389 . S
C652 C651 1.389 . S
C652 C653 1.387 . S
C653 H638 0.930 . S
C653 C648 1.390 . S
C653 C652 1.387 . S
H654 C666 0.930 . S
H655 C668 0.930 1_655 S
H656 C669 0.930 . S
H657 C673 0.959 . S
H658 C673 0.959 . S
H659 C673 0.961 . S
H660 C674 0.960 . S
H661 C674 0.961 . S
H662 C674 0.959 . S
H663 C677 0.929 . S
H664 C678 0.931 . S
H665 C680 0.930 . S
C666 H654 0.930 . S
C666 C667 1.399 . S
C666 C671 1.399 . S
C667 C666 1.399 . S
C667 C668 1.376 . S
C668 H655 0.930 1_455 S
C668 C667 1.376 . S
C668 C669 1.388 . S
C669 H656 0.930 . S
C669 C668 1.388 . S
C669 C670 1.390 . S
C670 C669 1.390 . S
C670 C671 1.394 . S
C670 C676 1.465 1_556 S
C671 C666 1.399 . S
C671 C670 1.394 . S
C671 C672 1.516 1_556 S
C672 C671 1.516 1_554 S
C672 C673 1.502 1_554 S
C672 C674 1.561 . S
C672 C675 1.526 . S
C673 H657 0.959 . S
C673 H658 0.959 . S
C673 H659 0.961 . S
C673 C672 1.502 1_556 S
C674 H660 0.960 . S
C674 H661 0.961 . S
C674 H662 0.959 . S
C674 C672 1.561 . S
C675 C672 1.526 . S
C675 C676 1.396 . S
C675 C680 1.390 . S
C676 C670 1.465 1_554 S
C676 C675 1.396 . S
C676 C677 1.399 . S
C677 H663 0.929 . S
C677 C676 1.399 . S
C677 C678 1.385 . S
C678 H664 0.931 . S
C678 C677 1.385 . S
C678 C679 1.389 . S
C679 C678 1.389 . S
C679 C680 1.387 . S
C680 H665 0.930 . S
C680 C675 1.390 . S
C680 C679 1.387 . S
H681 C693 0.930 . S
H682 C695 0.930 . S
H683 C696 0.930 . S
H684 C700 0.959 . S
H685 C700 0.959 . S
H686 C700 0.961 . S
H687 C701 0.960 . S
H688 C701 0.961 . S
H689 C701 0.959 . S
H690 C704 0.929 . S
H691 C705 0.931 1_455 S
H692 C707 0.930 . S
C693 H681 0.930 . S
C693 C694 1.399 . S
C693 C698 1.399 . S
C694 C693 1.399 . S
C694 C695 1.376 . S
C695 H682 0.930 . S
C695 C694 1.376 . S
C695 C696 1.388 . S
C696 H683 0.930 . S
C696 C695 1.388 . S
C696 C697 1.390 . S
C697 C696 1.390 . S
C697 C698 1.394 . S
C697 C703 1.465 . S
C698 C693 1.399 . S
C698 C697 1.394 . S
C698 C699 1.516 . S
C699 C698 1.516 . S
C699 C700 1.502 . S
C699 C701 1.561 . S
C699 C702 1.526 . S
C700 H684 0.959 . S
C700 H685 0.959 . S
C700 H686 0.961 . S
C700 C699 1.502 . S
C701 H687 0.960 . S
C701 H688 0.961 . S
C701 H689 0.959 . S
C701 C699 1.561 . S
C702 C699 1.526 . S
C702 C703 1.396 . S
C702 C707 1.390 . S
C703 C697 1.465 . S
C703 C702 1.396 . S
C703 C704 1.399 . S
C704 H690 0.929 . S
C704 C703 1.399 . S
C704 C705 1.385 . S
C705 H691 0.931 1_655 S
C705 C704 1.385 . S
C705 C706 1.389 . S
C706 C705 1.389 . S
C706 C707 1.387 . S
C707 H692 0.930 . S
C707 C702 1.390 . S
C707 C706 1.387 . S
H708 C720 0.930 . S
H709 C722 0.930 . S
H710 C723 0.930 . S
H711 C727 0.959 . S
H712 C727 0.959 . S
H713 C727 0.961 . S
H714 C728 0.960 . S
H715 C728 0.961 . S
H716 C728 0.959 . S
H717 C731 0.929 . S
H718 C732 0.931 . S
H719 C734 0.930 . S
C720 H708 0.930 . S
C720 C721 1.399 . S
C720 C725 1.399 . S
C721 C720 1.399 . S
C721 C722 1.376 . S
C722 H709 0.930 . S
C722 C721 1.376 . S
C722 C723 1.388 . S
C723 H710 0.930 . S
C723 C722 1.388 . S
C723 C724 1.390 . S
C724 C723 1.390 . S
C724 C725 1.394 . S
C724 C730 1.465 . S
C725 C720 1.399 . S
C725 C724 1.394 . S
C725 C726 1.516 . S
C726 C725 1.516 . S
C726 C727 1.502 . S
C726 C728 1.561 . S
C726 C729 1.526 . S
C727 H711 0.959 . S
C727 H712 0.959 . S
C727 H713 0.961 . S
C727 C726 1.502 . S
C728 H714 0.960 . S
C728 H715 0.961 . S
C728 H716 0.959 . S
C728 C726 1.561 . S
C729 C726 1.526 . S
C729 C730 1.396 . S
C729 C734 1.390 . S
C730 C724 1.465 . S
C730 C729 1.396 . S
C730 C731 1.399 . S
C731 H717 0.929 . S
C731 C730 1.399 . S
C731 C732 1.385 . S
C732 H718 0.931 . S
C732 C731 1.385 . S
C732 C733 1.389 . S
C733 C732 1.389 . S
C733 C734 1.387 . S
C734 H719 0.930 . S
C734 C729 1.390 . S
C734 C733 1.387 . S
H735 C747 0.930 . S
H736 C749 0.933 . S
H737 C750 0.930 . S
H738 C754 0.959 . S
H739 C754 0.959 . S
H740 C754 0.961 . S
H741 C755 0.960 . S
H742 C755 0.961 . S
H743 C755 0.959 1_556 S
H744 C758 0.929 . S
H745 C759 0.931 . S
H746 C761 0.930 . S
C747 H735 0.930 . S
C747 C748 1.399 . S
C747 C752 1.399 . S
C748 C747 1.399 . S
C748 C749 1.376 . S
C749 H736 0.933 . S
C749 C748 1.376 . S
C749 C750 1.388 1_554 S
C750 H737 0.930 . S
C750 C749 1.388 1_556 S
C750 C751 1.390 . S
C751 C750 1.390 . S
C751 C752 1.394 1_556 S
C751 C757 1.465 . S
C752 C747 1.399 . S
C752 C751 1.394 1_554 S
C752 C753 1.516 . S
C753 C752 1.516 . S
C753 C754 1.502 . S
C753 C755 1.561 . S
C753 C756 1.526 1_554 S
C754 H738 0.959 . S
C754 H739 0.959 . S
C754 H740 0.961 . S
C754 C753 1.502 . S
C755 H741 0.960 . S
C755 H742 0.961 . S
C755 H743 0.959 1_554 S
C755 C753 1.561 . S
C756 C753 1.526 1_556 S
C756 C757 1.396 . S
C756 C761 1.390 . S
C757 C751 1.465 . S
C757 C756 1.396 . S
C757 C758 1.399 . S
C758 H744 0.929 . S
C758 C757 1.399 . S
C758 C759 1.385 . S
C759 H745 0.931 . S
C759 C758 1.385 . S
C759 C760 1.389 . S
C760 C759 1.389 . S
C760 C761 1.387 . S
C761 H746 0.930 . S
C761 C756 1.390 . S
C761 C760 1.387 . S
H762 C774 0.930 . S
H763 C776 0.930 . S
H764 C777 0.930 . S
H765 C781 0.959 . S
H766 C781 0.959 . S
H767 C781 0.961 . S
H768 C782 0.960 . S
H769 C782 0.961 . S
H770 C782 0.959 . S
H771 C785 0.929 . S
H772 C786 0.931 . S
H773 C788 0.930 . S
C774 H762 0.930 . S
C774 C775 1.399 . S
C774 C779 1.399 . S
C775 C774 1.399 . S
C775 C776 1.376 . S
C776 H763 0.930 . S
C776 C775 1.376 . S
C776 C777 1.388 . S
C777 H764 0.930 . S
C777 C776 1.388 . S
C777 C778 1.390 . S
C778 C777 1.390 . S
C778 C779 1.394 . S
C778 C784 1.465 . S
C779 C774 1.399 . S
C779 C778 1.394 . S
C779 C780 1.516 . S
C780 C779 1.516 . S
C780 C781 1.502 . S
C780 C782 1.561 . S
C780 C783 1.526 . S
C781 H765 0.959 . S
C781 H766 0.959 . S
C781 H767 0.961 . S
C781 C780 1.502 . S
C782 H768 0.960 . S
C782 H769 0.961 . S
C782 H770 0.959 . S
C782 C780 1.561 . S
C783 C780 1.526 . S
C783 C784 1.396 . S
C783 C788 1.390 . S
C784 C778 1.465 . S
C784 C783 1.396 . S
C784 C785 1.399 . S
C785 H771 0.929 . S
C785 C784 1.399 . S
C785 C786 1.385 . S
C786 H772 0.931 . S
C786 C785 1.385 . S
C786 C787 1.389 . S
C787 C786 1.389 . S
C787 C788 1.387 . S
C788 H773 0.930 . S
C788 C783 1.390 . S
C788 C787 1.387 . S
H789 C801 0.930 . S
H790 C803 0.930 . S
H791 C804 0.930 . S
H792 C808 0.959 . S
H793 C808 0.959 . S
H794 C808 0.961 . S
H795 C809 0.960 . S
H796 C809 0.961 . S
H797 C809 0.959 . S
H798 C812 0.929 . S
H799 C813 0.931 . S
H800 C815 0.930 . S
C801 H789 0.930 . S
C801 C802 1.399 . S
C801 C806 1.399 . S
C802 C801 1.399 . S
C802 C803 1.376 . S
C803 H790 0.930 . S
C803 C802 1.376 . S
C803 C804 1.388 . S
C804 H791 0.930 . S
C804 C803 1.388 . S
C804 C805 1.390 . S
C805 C804 1.390 . S
C805 C806 1.394 . S
C805 C811 1.465 . S
C806 C801 1.399 . S
C806 C805 1.394 . S
C806 C807 1.516 . S
C807 C806 1.516 . S
C807 C808 1.502 . S
C807 C809 1.561 . S
C807 C810 1.526 . S
C808 H792 0.959 . S
C808 H793 0.959 . S
C808 H794 0.961 . S
C808 C807 1.502 . S
C809 H795 0.960 . S
C809 H796 0.961 . S
C809 H797 0.959 . S
C809 C807 1.561 . S
C810 C807 1.526 . S
C810 C811 1.396 . S
C810 C815 1.390 . S
C811 C805 1.465 . S
C811 C810 1.396 . S
C811 C812 1.399 . S
C812 H798 0.929 . S
C812 C811 1.399 . S
C812 C813 1.385 . S
C813 H799 0.931 . S
C813 C812 1.385 . S
C813 C814 1.389 . S
C814 C813 1.389 . S
C814 C815 1.387 . S
C815 H800 0.930 . S
C815 C810 1.390 . S
C815 C814 1.387 . S
C181 C53 1.330 . S
C193 C11 1.297 . S
C208 C23 1.377 . S
C220 C65 1.409 . S
C235 C79 1.284 . S
C247 C37 1.327 . S
C262 C93 1.429 . S
C274 C135 1.439 . S
C289 C151 1.284 . S
C301 C109 1.321 . S
C316 C121 1.355 . S
C328 C163 1.330 . S
C343 C123 1.612 . S
C355 C9 1.633 . S
C370 C25 1.634 . S
C382 C137 1.643 . S
C397 C39 1.614 . S
C409 C149 1.633 . S
C424 C51 1.634 . S
C436 C165 1.605 . S
C451 C95 1.634 . S
C463 C67 1.644 . S
C478 C107 1.622 . S
C490 C81 1.632 . S
C505 C103 1.236 . S
C517 C5 1.227 . S
C532 C14 1.355 . S
C544 C112 1.349 . S
C559 C28 1.325 . S
C571 C126 1.309 . S
C586 C47 1.209 . S
C598 C145 1.223 . S
C613 C154 1.320 . S
C625 C56 1.307 . S
C640 C70 1.326 . S
C652 C84 1.310 . S
C667 C140 1.300 1_455 S
C679 C0 1.298 . S
C694 C159 1.474 1_545 S
C706 C19 1.472 1_655 S
C721 C89 1.487 . S
C733 C33 1.484 1_565 S
C748 C42 1.315 . S
C760 C98 1.300 1_655 S
C775 C61 1.485 1_455 S
C787 C117 1.482 1_565 S
C802 C75 1.486 1_545 S
C814 C131 1.487 . S
