# Generated by pormake.
# Topology fnd, (5)-cn, num edge types: 1
# Building blocks:
#     Node 0, Type 0, BuildingBlock: XOMCOT_clean_sbu_0, # of connection points: 5
#     Node 1, Type 0, BuildingBlock: XOMCOT_clean_sbu_0, # of connection points: 5
#     Node 2, Type 0, BuildingBlock: XOMCOT_clean_sbu_0, # of connection points: 5
#     Node 3, Type 0, BuildingBlock: XOMCOT_clean_sbu_0, # of connection points: 5
#     Node 4, Type 0, BuildingBlock: XOMCOT_clean_sbu_0, # of connection points: 5
#     Node 5, Type 0, BuildingBlock: XOMCOT_clean_sbu_0, # of connection points: 5
#     Node 6, Type 0, BuildingBlock: XOMCOT_clean_sbu_0, # of connection points: 5
#     Node 7, Type 0, BuildingBlock: XOMCOT_clean_sbu_0, # of connection points: 5
#     Node 8, Type 0, BuildingBlock: XOMCOT_clean_sbu_0, # of connection points: 5
#     Node 9, Type 0, BuildingBlock: XOMCOT_clean_sbu_0, # of connection points: 5
#     Node 10, Type 0, BuildingBlock: XOMCOT_clean_sbu_0, # of connection points: 5
#     Node 11, Type 0, BuildingBlock: XOMCOT_clean_sbu_0, # of connection points: 5
#     Node 12, Type 0, BuildingBlock: XOMCOT_clean_sbu_0, # of connection points: 5
#     Node 13, Type 0, BuildingBlock: XOMCOT_clean_sbu_0, # of connection points: 5
#     Node 14, Type 0, BuildingBlock: XOMCOT_clean_sbu_0, # of connection points: 5
#     Node 15, Type 0, BuildingBlock: XOMCOT_clean_sbu_0, # of connection points: 5
#     Node 16, Type 0, BuildingBlock: XOMCOT_clean_sbu_0, # of connection points: 5
#     Node 17, Type 0, BuildingBlock: XOMCOT_clean_sbu_0, # of connection points: 5
#     Edge 18, Type (0, 0), BuildingBlock: AJUNOK_clean_linker_0, # of connection points: 2
#     Edge 19, Type (0, 0), BuildingBlock: AJUNOK_clean_linker_0, # of connection points: 2
#     Edge 20, Type (0, 0), BuildingBlock: AJUNOK_clean_linker_0, # of connection points: 2
#     Edge 21, Type (0, 0), BuildingBlock: AJUNOK_clean_linker_0, # of connection points: 2
#     Edge 22, Type (0, 0), BuildingBlock: AJUNOK_clean_linker_0, # of connection points: 2
#     Edge 23, Type (0, 0), BuildingBlock: AJUNOK_clean_linker_0, # of connection points: 2
#     Edge 24, Type (0, 0), BuildingBlock: AJUNOK_clean_linker_0, # of connection points: 2
#     Edge 25, Type (0, 0), BuildingBlock: AJUNOK_clean_linker_0, # of connection points: 2
#     Edge 26, Type (0, 0), BuildingBlock: AJUNOK_clean_linker_0, # of connection points: 2
#     Edge 27, Type (0, 0), BuildingBlock: AJUNOK_clean_linker_0, # of connection points: 2
#     Edge 28, Type (0, 0), BuildingBlock: AJUNOK_clean_linker_0, # of connection points: 2
#     Edge 29, Type (0, 0), BuildingBlock: AJUNOK_clean_linker_0, # of connection points: 2
#     Edge 30, Type (0, 0), BuildingBlock: AJUNOK_clean_linker_0, # of connection points: 2
#     Edge 31, Type (0, 0), BuildingBlock: AJUNOK_clean_linker_0, # of connection points: 2
#     Edge 32, Type (0, 0), BuildingBlock: AJUNOK_clean_linker_0, # of connection points: 2
#     Edge 33, Type (0, 0), BuildingBlock: AJUNOK_clean_linker_0, # of connection points: 2
#     Edge 34, Type (0, 0), BuildingBlock: AJUNOK_clean_linker_0, # of connection points: 2
#     Edge 35, Type (0, 0), BuildingBlock: AJUNOK_clean_linker_0, # of connection points: 2
#     Edge 36, Type (0, 0), BuildingBlock: AJUNOK_clean_linker_0, # of connection points: 2
#     Edge 37, Type (0, 0), BuildingBlock: AJUNOK_clean_linker_0, # of connection points: 2
#     Edge 38, Type (0, 0), BuildingBlock: AJUNOK_clean_linker_0, # of connection points: 2
#     Edge 39, Type (0, 0), BuildingBlock: AJUNOK_clean_linker_0, # of connection points: 2
#     Edge 40, Type (0, 0), BuildingBlock: AJUNOK_clean_linker_0, # of connection points: 2
#     Edge 41, Type (0, 0), BuildingBlock: AJUNOK_clean_linker_0, # of connection points: 2
#     Edge 42, Type (0, 0), BuildingBlock: AJUNOK_clean_linker_0, # of connection points: 2
#     Edge 43, Type (0, 0), BuildingBlock: AJUNOK_clean_linker_0, # of connection points: 2
#     Edge 44, Type (0, 0), BuildingBlock: AJUNOK_clean_linker_0, # of connection points: 2
#     Edge 45, Type (0, 0), BuildingBlock: AJUNOK_clean_linker_0, # of connection points: 2
#     Edge 46, Type (0, 0), BuildingBlock: AJUNOK_clean_linker_0, # of connection points: 2
#     Edge 47, Type (0, 0), BuildingBlock: AJUNOK_clean_linker_0, # of connection points: 2
#     Edge 48, Type (0, 0), BuildingBlock: AJUNOK_clean_linker_0, # of connection points: 2
#     Edge 49, Type (0, 0), BuildingBlock: AJUNOK_clean_linker_0, # of connection points: 2
#     Edge 50, Type (0, 0), BuildingBlock: AJUNOK_clean_linker_0, # of connection points: 2
#     Edge 51, Type (0, 0), BuildingBlock: AJUNOK_clean_linker_0, # of connection points: 2
#     Edge 52, Type (0, 0), BuildingBlock: AJUNOK_clean_linker_0, # of connection points: 2
#     Edge 53, Type (0, 0), BuildingBlock: AJUNOK_clean_linker_0, # of connection points: 2
#     Edge 54, Type (0, 0), BuildingBlock: AJUNOK_clean_linker_0, # of connection points: 2
#     Edge 55, Type (0, 0), BuildingBlock: AJUNOK_clean_linker_0, # of connection points: 2
#     Edge 56, Type (0, 0), BuildingBlock: AJUNOK_clean_linker_0, # of connection points: 2
#     Edge 57, Type (0, 0), BuildingBlock: AJUNOK_clean_linker_0, # of connection points: 2
#     Edge 58, Type (0, 0), BuildingBlock: AJUNOK_clean_linker_0, # of connection points: 2
#     Edge 59, Type (0, 0), BuildingBlock: AJUNOK_clean_linker_0, # of connection points: 2
#     Edge 60, Type (0, 0), BuildingBlock: AJUNOK_clean_linker_0, # of connection points: 2
#     Edge 61, Type (0, 0), BuildingBlock: AJUNOK_clean_linker_0, # of connection points: 2
#     Edge 62, Type (0, 0), BuildingBlock: AJUNOK_clean_linker_0, # of connection points: 2
# Relax obj value: 0.027
# Max RMSD: 0.057
# Mean RMSD: 0.057
data_MOF--net-fnd--node1-XOMCOT_clean_sbu_0--edge1-AJUNOK_clean_linker_0
_symmetry_space_group_name_H-M    P1
_symmetry_Int_Tables_number       1
_symmetry_cell_setting            triclinic
loop_
_symmetry_equiv_pos_as_xyz
'x, y, z'
_cell_length_a     62.564152
_cell_length_b     62.583064
_cell_length_c     13.627118
_cell_angle_alpha  90.006051
_cell_angle_beta   89.988307
_cell_angle_gamma 120.18253
loop_
_atom_site_label
_atom_site_type_symbol
_atom_site_fract_x
_atom_site_fract_y
_atom_site_fract_z
_atom_type_partial_charge
Co0 Co 0.12718 0.25987 0.51082 0.0
C1 C 0.12681 0.26019 0.73097 0.0
C2 C 0.13672 0.29545 0.66977 0.0
C3 C 0.13606 0.29708 0.77034 0.0
N4 N 0.1317 0.2725 0.6447 0.0
N5 N 0.12974 0.27484 0.80856 0.0
H6 H 0.11968 0.24064 0.7381 0.0
H7 H 0.14004 0.30996 0.61843 0.0
C8 C 0.17467 0.30868 0.49722 0.0
O9 O 0.18266 0.30177 0.57321 0.0
N10 N 0.1221 0.24773 0.37781 0.0
C11 C 0.11599 0.22478 0.34882 0.0
C12 C 0.11493 0.22389 0.24784 0.0
C13 C 0.1245 0.26045 0.29472 0.0
N14 N 0.12019 0.24629 0.21405 0.0
C15 C 0.14575 0.23 0.59179 0.0
C16 C 0.18563 0.24503 0.46745 0.0
C17 C 0.18008 0.2258 0.53402 0.0
C18 C 0.16026 0.21894 0.59859 0.0
C19 C 0.17087 0.25613 0.46475 0.0
N20 N 0.15135 0.24887 0.5278 0.0
H21 H 0.12897 0.22195 0.63364 0.0
H22 H 0.1744 0.2696 0.40821 0.0
H23 H 0.11287 0.20987 0.39771 0.0
H24 H 0.12996 0.27982 0.29333 0.0
O25 O 0.09771 0.22978 0.55065 0.0
O26 O 0.09814 0.26356 0.50028 0.0
O27 O 0.15317 0.29392 0.46222 0.0
C28 C 0.08531 0.24086 0.53173 0.0
H29 H 0.13991 0.31338 0.8118 0.0
H30 H 0.11067 0.208 0.20264 0.0
H31 H 0.20045 0.25062 0.41469 0.0
H32 H 0.15523 0.2043 0.65168 0.0
Co33 Co 0.7975 0.88493 0.45172 0.0
C34 C 0.797 0.88676 0.66874 0.0
C35 C 0.76209 0.85909 0.60981 0.0
C36 C 0.76063 0.85791 0.71052 0.0
N37 N 0.7848 0.87726 0.58378 0.0
N38 N 0.78254 0.87534 0.74743 0.0
H39 H 0.81613 0.90138 0.67285 0.0
H40 H 0.74787 0.84689 0.55928 0.0
C41 C 0.75508 0.8848 0.34077 0.0
O42 O 0.77052 0.90585 0.29801 0.0
N43 N 0.81005 0.89193 0.31763 0.0
C44 C 0.83324 0.90787 0.28667 0.0
C45 C 0.83387 0.90737 0.18583 0.0
C46 C 0.79731 0.88103 0.23483 0.0
N47 N 0.81115 0.89075 0.15323 0.0
C48 C 0.83232 0.93621 0.48073 0.0
C49 C 0.79969 0.95357 0.49511 0.0
C50 C 0.82516 0.97068 0.49029 0.0
C51 C 0.84145 0.96155 0.48708 0.0
C52 C 0.79126 0.92806 0.48818 0.0
N53 N 0.80755 0.91979 0.47355 0.0
H54 H 0.84548 0.92994 0.48132 0.0
H55 H 0.77169 0.91514 0.49406 0.0
H56 H 0.84896 0.91895 0.33288 0.0
H57 H 0.77831 0.86611 0.23428 0.0
O58 O 0.82752 0.88609 0.4943 0.0
O59 O 0.79435 0.85236 0.44196 0.0
O60 O 0.76306 0.8754 0.40415 0.0
C61 C 0.81689 0.86263 0.47524 0.0
H62 H 0.74501 0.84452 0.75317 0.0
H63 H 0.84973 0.91873 0.13995 0.0
H64 H 0.78647 0.95983 0.50222 0.0
H65 H 0.86128 0.97399 0.48928 0.0
Co66 Co 0.17098 0.92587 0.46009 0.0
C67 C 0.1712 0.92457 0.68095 0.0
C68 C 0.20059 0.92122 0.61693 0.0
C69 C 0.20289 0.92143 0.71754 0.0
N70 N 0.18032 0.92256 0.59354 0.0
N71 N 0.18431 0.92348 0.75747 0.0
H72 H 0.15585 0.92754 0.69028 0.0
H73 H 0.21327 0.92076 0.56415 0.0
C74 C 0.17493 0.88003 0.45219 0.0
O75 O 0.16288 0.87291 0.53576 0.0
N76 N 0.16281 0.92963 0.32717 0.0
C77 C 0.14463 0.93357 0.29659 0.0
C78 C 0.14473 0.93397 0.19536 0.0
C79 C 0.17385 0.9279 0.24497 0.0
N80 N 0.163 0.93021 0.16308 0.0
C81 C 0.12313 0.9083 0.54375 0.0
C82 C 0.09768 0.86511 0.43755 0.0
C83 C 0.08443 0.87177 0.50184 0.0
C84 C 0.09782 0.89324 0.55792 0.0
C85 C 0.1235 0.88034 0.42878 0.0
N86 N 0.13606 0.90155 0.48303 0.0
H87 H 0.13196 0.92618 0.57814 0.0
H88 H 0.13304 0.87571 0.37424 0.0
H89 H 0.13197 0.93561 0.34443 0.0
H90 H 0.18965 0.92526 0.24545 0.0
O91 O 0.17041 0.95533 0.49799 0.0
O92 O 0.20356 0.95496 0.44418 0.0
O93 O 0.17897 0.9001 0.41159 0.0
C94 C 0.19379 0.96774 0.47655 0.0
H95 H 0.21762 0.92111 0.7579 0.0
H96 H 0.132 0.93631 0.14903 0.0
H97 H 0.0881 0.84894 0.39118 0.0
H98 H 0.08868 0.8991 0.60978 0.0
Co99 Co 0.26574 0.11633 0.55596 0.0
C100 C 0.26648 0.11843 0.33614 0.0
C101 C 0.30033 0.12353 0.39589 0.0
C102 C 0.30203 0.12394 0.29503 0.0
N103 N 0.27826 0.12076 0.42203 0.0
N104 N 0.28075 0.12094 0.25775 0.0
H105 H 0.24739 0.11335 0.32964 0.0
H106 H 0.31413 0.12465 0.44676 0.0
C107 C 0.31504 0.16269 0.56461 0.0
O108 O 0.30807 0.17029 0.48763 0.0
N109 N 0.25359 0.11144 0.68891 0.0
C110 C 0.2305 0.10512 0.71678 0.0
C111 C 0.2296 0.10515 0.81772 0.0
C112 C 0.26642 0.11502 0.77279 0.0
N113 N 0.25223 0.11154 0.8526 0.0
C114 C 0.23508 0.13445 0.47933 0.0
C115 C 0.25274 0.17616 0.59494 0.0
C116 C 0.23274 0.1702 0.53197 0.0
C117 C 0.22448 0.14937 0.47186 0.0
C118 C 0.26334 0.16097 0.59826 0.0
N119 N 0.25489 0.14061 0.53896 0.0
H120 H 0.22611 0.11706 0.4413 0.0
H121 H 0.27746 0.16494 0.65238 0.0
H122 H 0.21548 0.10119 0.66708 0.0
H123 H 0.28585 0.12069 0.77555 0.0
O124 O 0.23568 0.08692 0.51603 0.0
O125 O 0.26951 0.08745 0.56673 0.0
O126 O 0.29987 0.14194 0.60383 0.0
C127 C 0.2469 0.07465 0.53453 0.0
H128 H 0.31757 0.12602 0.25248 0.0
H129 H 0.21355 0.10077 0.86202 0.0
H130 H 0.25938 0.19174 0.64457 0.0
H131 H 0.20917 0.14394 0.42173 0.0
Co132 Co 0.93572 0.16247 0.59607 0.0
C133 C 0.93572 0.16256 0.37899 0.0
C134 C 0.92675 0.1889 0.43806 0.0
C135 C 0.92736 0.1907 0.33723 0.0
N136 N 0.93193 0.17123 0.46398 0.0
N137 N 0.93322 0.17428 0.30025 0.0
H138 H 0.94084 0.14843 0.37499 0.0
H139 H 0.92315 0.19999 0.48886 0.0
C140 C 0.8924 0.15979 0.706 0.0
O141 O 0.88854 0.13914 0.74696 0.0
N142 N 0.94007 0.15428 0.72996 0.0
C143 C 0.9455 0.137 0.76008 0.0
C144 C 0.94692 0.13744 0.86083 0.0
C145 C 0.93943 0.16573 0.81327 0.0
N146 N 0.94301 0.15543 0.89434 0.0
C147 C 0.9201 0.11181 0.55316 0.0
C148 C 0.8701 0.09434 0.53181 0.0
C149 C 0.87875 0.07762 0.5248 0.0
C150 C 0.90416 0.08679 0.53396 0.0
C151 C 0.8869 0.11951 0.54965 0.0
N152 N 0.91143 0.12775 0.56662 0.0
H153 H 0.93962 0.11831 0.55622 0.0
H154 H 0.88006 0.13225 0.54828 0.0
H155 H 0.94871 0.12503 0.7134 0.0
H156 H 0.93563 0.18078 0.81457 0.0
O157 O 0.96563 0.16264 0.55718 0.0
O158 O 0.96462 0.19523 0.61292 0.0
O159 O 0.90964 0.17052 0.64226 0.0
C160 C 0.97776 0.18595 0.5799 0.0
H161 H 0.92359 0.20302 0.29458 0.0
H162 H 0.95074 0.12553 0.90607 0.0
H163 H 0.85068 0.08812 0.52128 0.0
H164 H 0.91172 0.07463 0.52662 0.0
Co165 Co 0.88964 0.78683 0.55403 0.0
C166 C 0.88968 0.78601 0.33422 0.0
C167 C 0.86177 0.75166 0.3943 0.0
C168 C 0.86033 0.75002 0.29323 0.0
N169 N 0.88077 0.77402 0.42035 0.0
N170 N 0.87815 0.77161 0.25585 0.0
H171 H 0.90307 0.80531 0.32734 0.0
H172 H 0.84946 0.73758 0.44524 0.0
C173 C 0.88476 0.73644 0.57046 0.0
O174 O 0.89736 0.74056 0.48866 0.0
N175 N 0.89766 0.79924 0.68674 0.0
C176 C 0.91525 0.82204 0.71463 0.0
C177 C 0.91604 0.82294 0.8157 0.0
C178 C 0.88781 0.78664 0.77076 0.0
N179 N 0.89892 0.80061 0.85077 0.0
C180 C 0.93795 0.81554 0.47135 0.0
C181 C 0.96223 0.79829 0.58687 0.0
C182 C 0.97605 0.81761 0.52055 0.0
C183 C 0.96324 0.82536 0.45969 0.0
C184 C 0.93641 0.78804 0.59305 0.0
N185 N 0.92443 0.79648 0.53438 0.0
H186 H 0.92976 0.82473 0.43399 0.0
H187 H 0.92642 0.77442 0.64912 0.0
H188 H 0.92691 0.83684 0.66491 0.0
H189 H 0.87325 0.76748 0.7735 0.0
O190 O 0.89168 0.81729 0.51325 0.0
O191 O 0.8575 0.7846 0.56624 0.0
O192 O 0.88051 0.7529 0.60534 0.0
C193 C 0.86834 0.80729 0.53389 0.0
H194 H 0.84716 0.73426 0.25064 0.0
H195 H 0.92821 0.83885 0.85988 0.0
H196 H 0.97139 0.79198 0.63674 0.0
H197 H 0.97288 0.83997 0.4064 0.0
Co198 Co 0.79682 0.5908 0.79676 0.0
C199 C 0.80066 0.59265 1.01594 0.0
C200 C 0.80033 0.62412 0.95641 0.0
C201 C 0.80063 0.62572 0.05739 0.0
N202 N 0.80087 0.60362 0.93008 0.0
N203 N 0.80098 0.60595 0.0947 0.0
H204 H 0.79864 0.5746 1.02189 0.0
H205 H 0.79916 0.63676 0.90553 0.0
C206 C 0.841 0.64282 0.78163 0.0
O207 O 0.84873 0.64101 0.86917 0.0
N208 N 0.79236 0.57824 0.66424 0.0
C209 C 0.78889 0.55608 0.63619 0.0
C210 C 0.78923 0.55537 0.53511 0.0
C211 C 0.79438 0.59057 0.58024 0.0
N212 N 0.79289 0.57714 0.50021 0.0
C213 C 0.81525 0.56033 0.87196 0.0
C214 C 0.86026 0.58288 0.77646 0.0
C215 C 0.85403 0.56224 0.83587 0.0
C216 C 0.83122 0.55106 0.88412 0.0
C217 C 0.84379 0.59186 0.76737 0.0
N218 N 0.8218 0.58103 0.81721 0.0
H219 H 0.79712 0.55011 0.90425 0.0
H220 H 0.84843 0.6068 0.71678 0.0
H221 H 0.78684 0.54167 0.68575 0.0
H222 H 0.79763 0.60925 0.57764 0.0
O223 O 0.76766 0.56058 0.83816 0.0
O224 O 0.76754 0.59378 0.78368 0.0
O225 O 0.82167 0.62463 0.74438 0.0
C226 C 0.75506 0.57137 0.818 0.0
H227 H 0.80022 0.6401 0.10001 0.0
H228 H 0.78703 0.54004 0.49076 0.0
H229 H 0.87752 0.59177 0.73616 0.0
H230 H 0.82527 0.53455 0.92782 0.0
Co231 Co 0.4619 0.21612 0.80204 0.0
C232 C 0.46023 0.20667 1.01847 0.0
C233 C 0.42887 0.20878 0.96849 0.0
C234 C 0.4277 0.20656 0.06902 0.0
N235 N 0.44922 0.20875 0.93612 0.0
N236 N 0.44735 0.20511 0.1008 0.0
H237 H 0.47783 0.2073 1.01902 0.0
H238 H 0.41643 0.21179 0.92336 0.0
C239 C 0.41945 0.2116 0.67371 0.0
O240 O 0.43525 0.22613 0.60726 0.0
N241 N 0.47496 0.22352 0.66888 0.0
C242 C 0.49324 0.24528 0.63473 0.0
C243 C 0.49476 0.24358 0.53443 0.0
C244 C 0.46656 0.20848 0.58953 0.0
N245 N 0.4776 0.22061 0.50542 0.0
C246 C 0.49081 0.26276 0.89475 0.0
C247 C 0.47379 0.28963 0.79517 0.0
C248 C 0.49355 0.3021 0.86082 0.0
C249 C 0.50151 0.28806 0.91285 0.0
C250 C 0.46314 0.26409 0.78106 0.0
N251 N 0.47234 0.251 0.8272 0.0
H252 H 0.49776 0.25267 0.93484 0.0
H253 H 0.44792 0.25553 0.73177 0.0
H254 H 0.504 0.26166 0.67865 0.0
H255 H 0.45145 0.18959 0.59303 0.0
O256 O 0.49213 0.21734 0.84145 0.0
O257 O 0.4587 0.18348 0.7915 0.0
O258 O 0.42717 0.20694 0.75392 0.0
C259 C 0.48152 0.19391 0.82199 0.0
H260 H 0.41428 0.20775 0.11531 0.0
H261 H 0.50646 0.25869 0.48584 0.0
H262 H 0.46702 0.29955 0.75222 0.0
H263 H 0.5163 0.29662 0.96621 0.0
Co264 Co 0.83817 0.25751 0.84866 0.0
C265 C 0.83826 0.2564 0.06957 0.0
C266 C 0.86736 0.25251 1.00562 0.0
C267 C 0.86962 0.25265 0.10612 0.0
N268 N 0.84731 0.25425 0.98227 0.0
N269 N 0.85123 0.25501 0.14601 0.0
H270 H 0.82308 0.25966 0.07878 0.0
H271 H 0.87993 0.25186 0.95287 0.0
C272 C 0.84139 0.21125 0.84287 0.0
O273 O 0.82757 0.20398 0.92215 0.0
N274 N 0.83021 0.26121 0.71551 0.0
C275 C 0.81231 0.26559 0.68499 0.0
C276 C 0.81244 0.26605 0.58386 0.0
C277 C 0.84112 0.25928 0.6334 0.0
N278 N 0.83044 0.2619 0.55162 0.0
C279 C 0.7899 0.23954 0.93004 0.0
C280 C 0.76493 0.19745 0.81698 0.0
C281 C 0.75128 0.20388 0.88001 0.0
C282 C 0.76436 0.22479 0.93941 0.0
C283 C 0.79083 0.21241 0.81233 0.0
N284 N 0.80316 0.23307 0.86983 0.0
H285 H 0.79865 0.25712 0.96677 0.0
H286 H 0.80069 0.20813 0.75804 0.0
H287 H 0.79985 0.26795 0.73285 0.0
H288 H 0.85673 0.25632 0.63386 0.0
O289 O 0.83734 0.28695 0.88537 0.0
O290 O 0.87068 0.28671 0.83335 0.0
O291 O 0.84659 0.23177 0.80258 0.0
C292 C 0.86073 0.29946 0.86402 0.0
H293 H 0.88422 0.25207 0.14647 0.0
H294 H 0.79991 0.26872 0.53756 0.0
H295 H 0.75562 0.18176 0.7681 0.0
H296 H 0.75482 0.23049 0.99 0.0
Co297 Co 0.93294 0.44887 0.92241 0.0
C298 C 0.93355 0.45004 0.70294 0.0
C299 C 0.9663 0.45239 0.76274 0.0
C300 C 0.96746 0.45161 0.66184 0.0
N301 N 0.94527 0.45199 0.78872 0.0
N302 N 0.94672 0.4499 0.62469 0.0
H303 H 0.9155 0.44804 0.69669 0.0
H304 H 0.9796 0.45254 0.81388 0.0
C305 C 0.98428 0.49357 0.93024 0.0
O306 O 0.98063 0.50091 0.84475 0.0
N307 N 0.92085 0.44521 0.05518 0.0
C308 C 0.89856 0.44136 0.08337 0.0
C309 C 0.89734 0.44017 0.1843 0.0
C310 C 0.93287 0.44621 0.13882 0.0
N311 N 0.91886 0.44307 0.21905 0.0
C312 C 0.90265 0.46728 0.84386 0.0
C313 C 0.92549 0.51259 0.93709 0.0
C314 C 0.90549 0.50675 0.8745 0.0
C315 C 0.89391 0.48362 0.82852 0.0
C316 C 0.93389 0.49575 0.94947 0.0
N317 N 0.92313 0.47374 0.89983 0.0
H318 H 0.89221 0.44899 0.81316 0.0
H319 H 0.9484 0.50017 1.00203 0.0
H320 H 0.88432 0.43984 0.03405 0.0
H321 H 0.95141 0.44904 0.14091 0.0
O322 O 0.90255 0.41932 0.88459 0.0
O323 O 0.9361 0.41979 0.93858 0.0
O324 O 0.96702 0.47415 0.97106 0.0
C325 C 0.91352 0.40695 0.90639 0.0
H326 H 0.98192 0.45131 0.61925 0.0
H327 H 0.88203 0.43803 0.22859 0.0
H328 H 0.93437 0.52989 0.97707 0.0
H329 H 0.87756 0.47777 0.78391 0.0
Co330 Co 0.60686 0.49669 0.91058 0.0
C331 C 0.60345 0.49486 0.69088 0.0
C332 C 0.60203 0.52568 0.75118 0.0
C333 C 0.60161 0.52703 0.65028 0.0
N334 N 0.60262 0.50516 0.77702 0.0
N335 N 0.60234 0.50751 0.61257 0.0
H336 H 0.60646 0.47947 0.68417 0.0
H337 H 0.60246 0.5391 0.80235 0.0
C338 C 0.56176 0.50225 0.92329 0.0
O339 O 0.55399 0.49071 0.83895 0.0
N340 N 0.61155 0.48902 0.04333 0.0
C341 C 0.6156 0.47073 0.07158 0.0
C342 C 0.61528 0.46974 0.17261 0.0
C343 C 0.6092 0.49916 0.12714 0.0
N344 N 0.61103 0.48747 0.20726 0.0
C345 C 0.58772 0.44766 0.83524 0.0
C346 C 0.54483 0.42484 0.94482 0.0
C347 C 0.55029 0.41029 0.88273 0.0
C348 C 0.57201 0.42222 0.82695 0.0
C349 C 0.5609 0.45051 0.94924 0.0
N350 N 0.58181 0.46182 0.89268 0.0
H351 H 0.60536 0.45564 0.79898 0.0
H352 H 0.55713 0.46093 1.00258 0.0
H353 H 0.61799 0.45858 1.02212 0.0
H354 H 0.60549 0.51427 0.12955 0.0
O355 O 0.63575 0.49533 0.86933 0.0
O356 O 0.63634 0.52906 0.92176 0.0
O357 O 0.5819 0.5056 0.96123 0.0
C358 C 0.64858 0.51884 0.88834 0.0
H359 H 0.60117 0.54144 0.60797 0.0
H360 H 0.61786 0.45689 0.21711 0.0
H361 H 0.52895 0.4164 0.99315 0.0
H362 H 0.57736 0.41185 0.77928 0.0
Co363 Co 0.5561 0.11988 0.90318 0.0
C364 C 0.55576 0.11948 0.68339 0.0
C365 C 0.52878 0.08465 0.74344 0.0
C366 C 0.52648 0.08339 0.64265 0.0
N367 N 0.54771 0.10707 0.76931 0.0
N368 N 0.54335 0.10542 0.60527 0.0
H369 H 0.56965 0.13864 0.67701 0.0
H370 H 0.51678 0.0704 0.79442 0.0
C371 C 0.55114 0.06949 0.92108 0.0
O372 O 0.56409 0.07367 0.84022 0.0
N373 N 0.56352 0.13232 0.03597 0.0
C374 C 0.58109 0.15506 0.0646 0.0
C375 C 0.5807 0.15623 0.16556 0.0
C376 C 0.55264 0.11998 0.11936 0.0
N377 N 0.56275 0.1342 0.19979 0.0
C378 C 0.60492 0.14859 0.82384 0.0
C379 C 0.62839 0.13135 0.94447 0.0
C380 C 0.64273 0.15079 0.87938 0.0
C381 C 0.6304 0.15866 0.81627 0.0
C382 C 0.60256 0.12111 0.9474 0.0
N383 N 0.59098 0.12954 0.88639 0.0
H384 H 0.59688 0.15754 0.78377 0.0
H385 H 0.59218 0.10748 1.00296 0.0
H386 H 0.59358 0.1696 1.01557 0.0
H387 H 0.53762 0.10101 0.12127 0.0
O388 O 0.55811 0.15029 0.86115 0.0
O389 O 0.52386 0.11748 0.91275 0.0
O390 O 0.54679 0.08595 0.95528 0.0
C391 C 0.53464 0.14011 0.87996 0.0
H392 H 0.5128 0.06787 0.6004 0.0
H393 H 0.5932 0.17186 0.21034 0.0
H394 H 0.63713 0.12497 0.99601 0.0
H395 H 0.64049 0.17342 0.76401 0.0
Co396 Co 0.46004 0.92395 0.14486 0.0
C397 C 0.46326 0.92568 0.36477 0.0
C398 C 0.4659 0.95841 0.30405 0.0
C399 C 0.46623 0.9602 0.40504 0.0
N400 N 0.46466 0.93698 0.27835 0.0
N401 N 0.46478 0.93964 0.44297 0.0
H402 H 0.45943 0.907 0.37198 0.0
H403 H 0.46591 0.97161 0.25277 0.0
C404 C 0.50508 0.9751 0.12693 0.0
O405 O 0.51345 0.97237 0.21159 0.0
N406 N 0.45499 0.91135 1.01222 0.0
C407 C 0.45077 0.88894 0.98389 0.0
C408 C 0.45094 0.88823 0.88278 0.0
C409 C 0.45731 0.92384 0.92836 0.0
N410 N 0.4553 0.91027 0.84812 0.0
C411 C 0.47919 0.89445 0.22204 0.0
C412 C 0.52106 0.91276 0.10708 0.0
C413 C 0.51515 0.89261 0.16924 0.0
C414 C 0.49444 0.8843 0.23007 0.0
C415 C 0.50572 0.92322 0.10442 0.0
N416 N 0.48507 0.91417 0.16239 0.0
H417 H 0.46176 0.88514 0.25968 0.0
H418 H 0.50967 0.93747 0.05102 0.0
H419 H 0.44839 0.87438 0.0333 0.0
H420 H 0.46119 0.94274 0.92598 0.0
O421 O 0.43129 0.89366 0.18755 0.0
O422 O 0.43048 0.92664 0.13473 0.0
O423 O 0.48481 0.95773 0.09186 0.0
C424 C 0.41835 0.90415 0.16881 0.0
H425 H 0.4671 0.97528 0.44722 0.0
H426 H 0.44823 0.87274 0.83828 0.0
H427 H 0.53666 0.91958 0.05745 0.0
H428 H 0.48922 0.86913 0.28067 0.0
Co429 Co 0.13071 0.54719 0.14312 0.0
C430 C 0.12931 0.54764 0.36308 0.0
C431 C 0.09678 0.51733 0.3008 0.0
C432 C 0.09511 0.51517 0.40146 0.0
N433 N 0.11799 0.53801 0.27637 0.0
N434 N 0.1157 0.53417 0.44053 0.0
H435 H 0.14765 0.56332 0.37054 0.0
H436 H 0.08358 0.50437 0.24872 0.0
C437 C 0.0794 0.54057 0.13052 0.0
O438 O 0.08233 0.55111 0.2167 0.0
N439 N 0.14302 0.55549 1.01043 0.0
C440 C 0.16478 0.57467 0.9809 0.0
C441 C 0.16541 0.57488 0.87972 0.0
C442 C 0.13085 0.54411 0.92745 0.0
N443 N 0.14409 0.55563 0.84632 0.0
C444 C 0.16069 0.59603 0.22194 0.0
C445 C 0.13867 0.61851 0.12365 0.0
C446 C 0.15885 0.63293 0.18532 0.0
C447 C 0.1698 0.62129 0.23486 0.0
C448 C 0.12999 0.59313 0.11327 0.0
N449 N 0.14044 0.58191 0.16479 0.0
H450 H 0.17078 0.58813 0.25495 0.0
H451 H 0.11557 0.58292 0.06039 0.0
H452 H 0.17896 0.58787 0.02941 0.0
H453 H 0.11238 0.52822 0.92658 0.0
O454 O 0.16101 0.54836 0.18286 0.0
O455 O 0.12769 0.51493 0.1285 0.0
O456 O 0.09679 0.53824 0.09251 0.0
C457 C 0.15018 0.52493 0.16194 0.0
H458 H 0.0799 0.50068 0.44234 0.0
H459 H 0.18033 0.58824 0.83414 0.0
H460 H 0.12993 0.62683 0.08241 0.0
H461 H 0.18602 0.63186 0.28016 0.0
Co462 Co 0.50506 0.59353 0.11173 0.0
C463 C 0.50374 0.59093 0.33119 0.0
C464 C 0.53617 0.59266 0.27034 0.0
C465 C 0.53779 0.59255 0.37103 0.0
N466 N 0.51458 0.59113 0.24513 0.0
N467 N 0.51737 0.59143 0.40888 0.0
H468 H 0.48663 0.59099 0.33815 0.0
H469 H 0.55004 0.59427 0.21876 0.0
C470 C 0.51249 0.5495 0.11065 0.0
O471 O 0.5018 0.54289 0.19701 0.0
N472 N 0.49634 0.59643 0.97882 0.0
C473 C 0.47768 0.59976 0.94945 0.0
C474 C 0.47721 0.59977 0.8484 0.0
C475 C 0.50711 0.59468 0.89594 0.0
N476 N 0.49562 0.59641 0.81483 0.0
C477 C 0.45604 0.57568 0.18605 0.0
C478 C 0.43355 0.52967 0.09797 0.0
C479 C 0.41894 0.53678 0.15083 0.0
C480 C 0.43052 0.5601 0.19517 0.0
C481 C 0.45911 0.54604 0.08932 0.0
N482 N 0.47029 0.56856 0.13543 0.0
H483 H 0.46413 0.594 0.21674 0.0
H484 H 0.46945 0.54091 0.04117 0.0
H485 H 0.46513 0.60177 0.99804 0.0
H486 H 0.52321 0.59252 0.89543 0.0
O487 O 0.50422 0.62315 0.14728 0.0
O488 O 0.53735 0.62278 0.09377 0.0
O489 O 0.514 0.56819 0.06604 0.0
C490 C 0.5276 0.63561 0.12524 0.0
H491 H 0.5532 0.59415 0.41311 0.0
H492 H 0.46404 0.60164 0.80311 0.0
H493 H 0.42512 0.51213 0.05968 0.0
H494 H 0.41979 0.5665 0.23487 0.0
Co495 Co 0.60234 0.78501 0.19287 0.0
C496 C 0.60717 0.79259 0.97394 0.0
C497 C 0.6333 0.78399 0.03652 0.0
C498 C 0.63552 0.78429 0.93627 0.0
N499 N 0.6153 0.78889 0.06054 0.0
N500 N 0.61912 0.78983 0.89673 0.0
H501 H 0.59253 0.79667 0.96576 0.0
H502 H 0.64324 0.77915 0.08848 0.0
C503 C 0.65288 0.83044 0.19881 0.0
O504 O 0.64731 0.83854 0.1194 0.0
N505 N 0.59018 0.78068 0.3261 0.0
C506 C 0.56678 0.76625 0.35745 0.0
C507 C 0.56679 0.76589 0.45842 0.0
C508 C 0.60395 0.78927 0.40818 0.0
N509 N 0.59024 0.78028 0.49058 0.0
C510 C 0.57184 0.80284 0.11529 0.0
C511 C 0.58991 0.84517 0.22729 0.0
C512 C 0.56944 0.83864 0.16609 0.0
C513 C 0.56117 0.81763 0.10698 0.0
C514 C 0.60081 0.83024 0.23043 0.0
N515 N 0.59197 0.80947 0.1735 0.0
H516 H 0.56331 0.78553 0.07605 0.0
H517 H 0.61542 0.83473 0.28275 0.0
H518 H 0.55085 0.756 0.3106 0.0
H519 H 0.62356 0.80198 0.4071 0.0
O520 O 0.57207 0.75568 0.15235 0.0
O521 O 0.6052 0.75556 0.20705 0.0
O522 O 0.63663 0.8103 0.23898 0.0
C523 C 0.58268 0.743 0.17371 0.0
H524 H 0.64715 0.7791 0.89637 0.0
H525 H 0.55076 0.7551 0.50423 0.0
H526 H 0.59671 0.861 0.27567 0.0
H527 H 0.54587 0.812 0.05666 0.0
Co528 Co 0.27039 0.8261 0.26741 0.0
C529 C 0.26963 0.82517 0.04832 0.0
C530 C 0.26346 0.85348 0.10547 0.0
C531 C 0.26416 0.85503 1.00442 0.0
N532 N 0.26611 0.83422 0.13324 0.0
N533 N 0.26827 0.83735 0.96904 0.0
H534 H 0.27402 0.81064 0.04343 0.0
H535 H 0.26189 0.86607 0.15531 0.0
C536 C 0.22483 0.83134 0.28045 0.0
O537 O 0.21675 0.81905 0.19774 0.0
N538 N 0.2754 0.81848 0.40012 0.0
C539 C 0.28135 0.80138 0.42678 0.0
C540 C 0.28309 0.80137 0.52765 0.0
C541 C 0.2737 0.82872 0.48479 0.0
N542 N 0.27828 0.81857 0.56387 0.0
C543 C 0.25194 0.77718 0.19122 0.0
C544 C 0.20742 0.75418 0.29025 0.0
C545 C 0.21297 0.74016 0.22577 0.0
C546 C 0.23574 0.75197 0.17717 0.0
C547 C 0.22416 0.7796 0.30148 0.0
N548 N 0.24571 0.7911 0.24877 0.0
H549 H 0.26999 0.78519 0.15838 0.0
H550 H 0.22003 0.78969 0.35505 0.0
H551 H 0.28394 0.78952 0.37638 0.0
H552 H 0.26943 0.84343 0.48863 0.0
O553 O 0.2997 0.82545 0.22617 0.0
O554 O 0.29945 0.85876 0.2784 0.0
O555 O 0.24508 0.83479 0.31821 0.0
C556 C 0.31209 0.84901 0.24458 0.0
H557 H 0.26278 0.86871 0.96048 0.0
H558 H 0.28686 0.78916 0.57109 0.0
H559 H 0.19042 0.74555 0.33229 0.0
H560 H 0.24146 0.7416 0.13123 0.0
Co561 Co 0.22606 0.45305 0.25637 0.0
C562 C 0.22839 0.45336 0.04011 0.0
C563 C 0.20405 0.41693 0.09608 0.0
C564 C 0.2037 0.41587 0.9952 0.0
N565 N 0.21963 0.4404 0.12396 0.0
N566 N 0.21902 0.43878 0.96004 0.0
H567 H 0.24058 0.47318 0.03819 0.0
H568 H 0.19324 0.40168 0.14528 0.0
C569 C 0.22912 0.41123 0.35731 0.0
O570 O 0.25108 0.42719 0.39177 0.0
N571 N 0.2318 0.46573 0.39097 0.0
C572 C 0.24139 0.48956 0.41923 0.0
C573 C 0.24199 0.49088 0.51989 0.0
C574 C 0.2252 0.45283 0.47611 0.0
N575 N 0.232 0.46778 0.55526 0.0
C576 C 0.27771 0.48861 0.25021 0.0
C577 C 0.29456 0.45821 0.18172 0.0
C578 C 0.31176 0.48335 0.19791 0.0
C579 C 0.30285 0.49844 0.2328 0.0
C580 C 0.26928 0.44899 0.20116 0.0
N581 N 0.2612 0.46404 0.23819 0.0
H582 H 0.27156 0.50124 0.26957 0.0
H583 H 0.25617 0.42987 0.18465 0.0
H584 H 0.24683 0.50512 0.37086 0.0
H585 H 0.21519 0.43294 0.48131 0.0
O586 O 0.2268 0.4827 0.21125 0.0
O587 O 0.19314 0.44896 0.26155 0.0
O588 O 0.2174 0.41886 0.30437 0.0
C589 C 0.20314 0.47146 0.2277 0.0
H590 H 0.19281 0.39952 0.9511 0.0
H591 H 0.24854 0.50744 0.56377 0.0
H592 H 0.30041 0.44597 0.1516 0.0
H593 H 0.31522 0.518 0.24531 0.0
C594 C 0.23214 0.21037 0.53064 0.0
C595 C 0.21925 0.18432 0.53358 0.0
C596 C 0.21948 0.22372 0.52939 0.0
C597 C 0.19344 0.21155 0.53191 0.0
H598 H 0.25215 0.22052 0.52813 0.0
H599 H 0.23017 0.24373 0.52771 0.0
S600 S 0.15095 0.14356 0.54028 0.0
N601 N 0.17887 0.14698 0.54184 0.0
N602 N 0.15528 0.17179 0.53432 0.0
C603 C 0.18039 0.18551 0.53426 0.0
C604 C 0.19322 0.172 0.53648 0.0
C605 C 0.84327 0.0359 0.57371 0.0
C606 C 0.86191 0.05077 0.50598 0.0
C607 C 0.83022 1.00989 0.56555 0.0
C608 C 0.83542 0.99797 0.48935 0.0
H609 H 0.83968 0.04434 0.63618 0.0
H610 H 0.81698 0.99905 0.622 0.0
S611 S 0.87966 0.02877 0.2849 0.0
N612 N 0.88281 0.05178 0.35453 0.0
N613 N 0.85836 1.00323 0.33869 0.0
C614 C 0.85281 1.01279 0.41775 0.0
C615 C 0.86604 0.03909 0.42621 0.0
C616 C 1.01716 0.81883 0.51741 0.0
C617 C 1.00371 0.83136 0.51934 0.0
C618 C 0.0432 0.83185 0.51055 0.0
C619 C 0.05676 0.85789 0.5056 0.0
H620 H 1.00748 0.79882 0.51971 0.0
H621 H 0.05278 0.82147 0.51007 0.0
S622 S 1.03034 0.89946 0.50888 0.0
N623 N 1.0062 0.87144 0.52049 0.0
N624 N 0.05442 0.89554 0.49949 0.0
C625 C 0.04342 0.87053 0.50684 0.0
C626 C 1.01715 0.8574 0.51597 0.0
C627 C 0.81701 0.82258 0.49482 0.0
C628 C 0.83006 0.84862 0.49061 0.0
C629 C 0.82934 0.80924 0.51068 0.0
C630 C 0.85523 0.82142 0.52126 0.0
H631 H 0.79709 0.81242 0.48653 0.0
H632 H 0.81856 0.78924 0.51313 0.0
S633 S 0.89802 0.88936 0.51691 0.0
N634 N 0.8704 0.886 0.49944 0.0
N635 N 0.89341 0.8611 0.52799 0.0
C636 C 0.86844 0.84743 0.51731 0.0
C637 C 0.85592 0.86097 0.50234 0.0
C638 C 0.2083 0.03391 0.51144 0.0
C639 C 0.23423 0.04746 0.51961 0.0
C640 C 0.19556 1.00824 0.49745 0.0
C641 C 0.20819 0.995 0.48941 0.0
H642 H 0.19763 0.04315 0.5169 0.0
H643 H 0.17558 0.99872 0.49236 0.0
S644 S 0.27615 1.02168 0.5042 0.0
N645 N 0.27218 0.04568 0.51819 0.0
N646 N 0.24821 0.99743 0.49029 0.0
C647 C 0.23415 1.0083 0.49643 0.0
C648 C 0.24715 0.03449 0.51209 0.0
C649 C 1.01883 0.18858 0.56139 0.0
C650 C 1.00515 0.20078 0.56874 0.0
C651 C 0.04463 0.20176 0.55018 0.0
C652 C 0.05794 0.22775 0.54408 0.0
H653 H 1.00956 0.1686 0.5651 0.0
H654 H 0.05418 0.19138 0.54523 0.0
S655 S 1.03099 0.26867 0.55809 0.0
N656 N 1.00693 0.24049 0.56913 0.0
N657 N 0.05538 0.26524 0.54615 0.0
C658 C 0.04452 0.24024 0.55064 0.0
C659 C 1.01819 0.22678 0.56359 0.0
C660 C 0.88845 0.53215 0.94589 0.0
C661 C 0.89528 0.5236 0.8628 0.0
C662 C 0.87593 0.54544 0.93646 0.0
C663 C 0.8701 0.55103 0.8436 0.0
H664 H 0.89187 0.52764 1.0188 0.0
H665 H 0.87026 0.55091 1.00246 0.0
S666 S 0.88539 0.53428 0.60314 0.0
N667 N 0.89643 0.52278 0.68465 0.0
N668 N 0.873 0.54777 0.667 0.0
C669 C 0.87774 0.54348 0.75999 0.0
C670 C 0.89025 0.52973 0.76958 0.0
C671 C 0.53308 0.34267 0.87506 0.0
C672 C 0.50707 0.32966 0.87056 0.0
C673 C 0.54663 0.3685 0.88083 0.0
C674 C 0.5349 0.3827 0.88111 0.0
H675 H 0.54323 0.33287 0.87231 0.0
H676 H 0.56658 0.3774 0.88495 0.0
S677 S 0.46712 0.35787 0.87398 0.0
N678 N 0.46997 0.33303 0.87167 0.0
N679 N 0.49556 0.38173 0.87761 0.0
C680 C 0.50888 0.37001 0.87785 0.0
C681 C 0.49497 0.34354 0.87318 0.0
C682 C 0.70969 0.1643 0.88107 0.0
C683 C 0.72359 0.19034 0.87879 0.0
C684 C 0.68361 0.15154 0.88283 0.0
C685 C 0.67041 0.16433 0.88173 0.0
H686 H 0.71904 0.15369 0.88261 0.0
H687 H 0.6737 0.13152 0.88371 0.0
S688 S 0.69797 0.23258 0.87559 0.0
N689 N 0.72193 0.22834 0.87209 0.0
N690 N 0.67345 0.20466 0.88186 0.0
C691 C 0.68415 0.19037 0.88032 0.0
C692 C 0.71054 0.20327 0.87708 0.0
C693 C 0.48234 0.15429 0.84528 0.0
C694 C 0.49508 0.18019 0.83463 0.0
C695 C 0.49515 0.14139 0.8609 0.0
C696 C 0.52119 0.15387 0.86483 0.0
H697 H 0.46233 0.14394 0.84299 0.0
H698 H 0.48457 0.1215 0.86921 0.0
S699 S 0.56328 0.2216 0.83851 0.0
N700 N 0.5353 0.21775 0.82776 0.0
N701 N 0.55918 0.19369 0.85579 0.0
C702 C 0.53409 0.17973 0.85311 0.0
C703 C 0.5211 0.19283 0.8384 0.0
C704 C 0.86216 0.34003 0.87923 0.0
C705 C 0.87492 0.32686 0.87363 0.0
C706 C 0.87482 0.36586 0.88886 0.0
C707 C 0.90077 0.37962 0.89507 0.0
H708 H 0.84216 0.33033 0.87542 0.0
H709 H 0.8641 0.37507 0.89263 0.0
S710 S 0.94302 0.35414 0.8839 0.0
N711 N 0.9151 0.32963 0.87409 0.0
N712 N 0.93887 0.37811 0.89396 0.0
C713 C 0.91381 0.36672 0.88979 0.0
C714 C 0.9009 0.34039 0.87851 0.0
C715 C 0.68882 0.52022 0.86219 0.0
C716 C 0.67573 0.53297 0.87149 0.0
C717 C 0.71441 0.53283 0.84522 0.0
C718 C 0.72794 0.5587 0.83508 0.0
H719 H 0.67928 0.50027 0.86884 0.0
H720 H 0.7236 0.52212 0.83917 0.0
S721 S 0.70249 0.60087 0.85247 0.0
N722 N 0.67829 0.57304 0.86946 0.0
N723 N 0.7263 0.59672 0.83595 0.0
C724 C 0.71509 0.57172 0.84362 0.0
C725 C 0.68903 0.55888 0.86236 0.0
C726 C 0.55505 0.89143 0.16618 0.0
C727 C 0.52899 0.87885 0.16608 0.0
C728 C 0.56808 0.87845 0.16726 0.0
C729 C 0.55557 0.85239 0.16802 0.0
H730 H 0.56546 0.91145 0.16671 0.0
H731 H 0.5881 0.88891 0.16646 0.0
S732 S 0.48736 0.81065 0.16757 0.0
N733 N 0.49125 0.83871 0.16243 0.0
N734 N 0.51546 0.8146 0.17235 0.0
C735 C 0.52951 0.83967 0.1687 0.0
C736 C 0.51633 0.8528 0.16559 0.0
C737 C 0.18826 0.69745 0.2969 0.0
C738 C 0.19628 0.71298 0.21408 0.0
C739 C 0.17542 0.67159 0.28696 0.0
C740 C 0.16981 0.66023 0.19385 0.0
H741 H 0.19289 0.70534 0.36992 0.0
H742 H 0.17031 0.66035 0.35273 0.0
S743 S 0.18521 0.69269 0.954 0.0
N744 N 0.19643 0.71516 0.03602 0.0
N745 N 0.17247 0.66666 1.01733 0.0
C746 C 0.17682 0.67557 0.11056 0.0
C747 C 0.19003 0.70189 0.12069 0.0
C748 C 0.37703 0.53087 0.11822 0.0
C749 C 0.3915 0.52118 0.15363 0.0
C750 C 0.35124 0.51785 0.1283 0.0
C751 C 0.33874 0.49469 0.1757 0.0
H752 H 0.38579 0.54892 0.08382 0.0
H753 H 0.34102 0.52633 0.10064 0.0
S754 S 0.36825 0.46086 0.2784 0.0
N755 N 0.3916 0.4866 0.23381 0.0
N756 N 0.34306 0.46228 0.25545 0.0
C757 C 0.35297 0.48435 0.20825 0.0
C758 C 0.37934 0.49758 0.1968 0.0
C759 C 0.18881 0.52306 0.18743 0.0
C760 C 0.16293 0.51054 0.17706 0.0
C761 C 0.2015 0.51019 0.20301 0.0
C762 C 0.18885 0.48423 0.21053 0.0
H763 H 0.19946 0.54304 0.18291 0.0
H764 H 0.22144 0.52078 0.21031 0.0
S765 S 0.12101 0.44256 0.18948 0.0
N766 N 0.12504 0.47056 0.17522 0.0
N767 N 0.14889 0.44641 0.20618 0.0
C768 C 0.16295 0.47142 0.20081 0.0
C769 C 0.15002 0.48455 0.18351 0.0
C770 C 0.5434 0.70249 0.154 0.0
C771 C 0.56937 0.71565 0.16176 0.0
C772 C 0.53014 0.67669 0.1427 0.0
C773 C 0.54229 0.66295 0.1369 0.0
H774 H 0.53312 0.71216 0.15762 0.0
H775 H 0.51017 0.66747 0.13761 0.0
S776 S 0.61011 0.68844 0.153 0.0
N777 N 0.60676 0.71289 0.16338 0.0
N778 N 0.58192 0.6645 0.14041 0.0
C779 C 0.56828 0.67586 0.14403 0.0
C780 C 0.58178 0.70215 0.15703 0.0
C781 C 0.37837 0.86499 0.19725 0.0
C782 C 0.39123 0.89087 0.18661 0.0
C783 C 0.35286 0.85173 0.21565 0.0
C784 C 0.33914 0.86381 0.22591 0.0
H785 H 0.38805 0.85476 0.19067 0.0
H786 H 0.34387 0.83182 0.22275 0.0
S787 S 0.3639 0.93138 0.20464 0.0
N788 N 0.38822 0.92812 0.18702 0.0
N789 N 0.34033 0.90325 0.22321 0.0
C790 C 0.35174 0.88971 0.21578 0.0
C791 C 0.37773 0.90321 0.19559 0.0
C792 C 0.17904 0.34357 0.39076 0.0
C793 C 0.18967 0.33432 0.45724 0.0
C794 C 0.19208 0.36816 0.35753 0.0
C795 C 0.21644 0.38472 0.38882 0.0
H796 H 0.16021 0.33188 0.36557 0.0
H797 H 0.18271 0.37431 0.30804 0.0
S798 S 0.25361 0.36931 0.5565 0.0
N799 N 0.22671 0.34346 0.54879 0.0
N800 N 0.25114 0.38947 0.48641 0.0
C801 C 0.22761 0.37549 0.45282 0.0
C802 C 0.21428 0.35043 0.48693 0.0
C803 C 0.69427 0.86929 0.21592 0.0
C804 C 0.6784 0.84426 0.24004 0.0
C805 C 0.71876 0.88237 0.25052 0.0
C806 C 0.72855 0.87093 0.31007 0.0
H807 H 0.68777 0.87891 0.16954 0.0
H808 H 0.73019 0.90154 0.22923 0.0
S809 S 0.69504 0.80522 0.39014 0.0
N810 N 0.67447 0.80837 0.32566 0.0
N811 N 0.72036 0.83264 0.38908 0.0
C812 C 0.71282 0.84587 0.33477 0.0
C813 C 0.68784 0.83263 0.3002 0.0
C814 C 0.1968 0.84922 0.26857 0.0
C815 C 0.21116 0.84255 0.32688 0.0
C816 C 0.18494 0.86122 0.30933 0.0
C817 C 0.18641 0.86635 0.41034 0.0
H818 H 0.19523 0.84577 0.19028 0.0
H819 H 0.17449 0.86646 0.26165 0.0
S820 S 0.22134 0.85299 0.59529 0.0
N821 N 0.22605 0.8423 0.49156 0.0
N822 N 0.20325 0.8642 0.56747 0.0
C823 C 0.20025 0.85946 0.46961 0.0
C824 C 0.21276 0.84776 0.4281 0.0
C825 C 0.37485 0.17887 0.7001 0.0
C826 C 0.39254 0.20081 0.65376 0.0
C827 C 0.34972 0.16708 0.67327 0.0
C828 C 0.34122 0.17682 0.5994 0.0
H829 H 0.38056 0.17024 0.75499 0.0
H830 H 0.337 0.14981 0.70898 0.0
S831 S 0.37969 0.23554 0.4639 0.0
N832 N 0.39938 0.23294 0.53629 0.0
N833 N 0.3525 0.211 0.48649 0.0
C834 C 0.35859 0.19941 0.55606 0.0
C835 C 0.38411 0.21131 0.58301 0.0
C836 C 0.86998 0.20622 0.72728 0.0
C837 C 0.85258 0.19671 0.80424 0.0
C838 C 0.88227 0.19391 0.69466 0.0
C839 C 0.87769 0.17146 0.7372 0.0
H840 H 0.87462 0.22364 0.69297 0.0
H841 H 0.8958 0.20238 0.63659 0.0
S842 S 0.83245 0.13761 0.93623 0.0
N843 N 0.83044 0.16261 0.91848 0.0
N844 N 0.85339 0.13957 0.85741 0.0
C845 C 0.85972 0.1613 0.81202 0.0
C846 C 0.84723 0.17387 0.84539 0.0
C847 C 0.86336 0.68913 0.77708 0.0
C848 C 0.85389 0.66652 0.72683 0.0
C849 C 0.87345 0.71166 0.72593 0.0
C850 C 0.87503 0.71249 0.62273 0.0
H851 H 0.86221 0.68937 0.85636 0.0
H852 H 0.88003 0.72857 0.76759 0.0
S853 S 0.85393 0.65851 0.45696 0.0
N854 N 0.84738 0.6464 0.5682 0.0
N855 N 0.86681 0.68868 0.4724 0.0
C856 C 0.86633 0.69006 0.57184 0.0
C857 C 0.85561 0.66711 0.62378 0.0
C858 C 0.03315 0.51966 0.13091 0.0
C859 C 0.05547 0.53044 0.07793 0.0
C860 C 1.0102 0.50802 0.08252 0.0
C861 C 1.00872 0.50731 0.97933 0.0
H862 H 0.03338 0.51946 0.2104 0.0
H863 H 0.99347 0.49941 0.12633 0.0
S864 S 0.0618 0.53385 0.80668 0.0
N865 N 0.07466 0.54026 0.91658 0.0
N866 N 1.03164 0.51892 0.82582 0.0
C867 C 1.03091 0.5187 0.92552 0.0
C868 C 0.05425 0.5301 0.97476 0.0
C869 C 0.52431 0.53412 0.96223 0.0
C870 C 0.52355 0.53574 0.06507 0.0
C871 C 0.53593 0.52245 0.917 0.0
C872 C 0.54776 0.5125 0.9729 0.0
H873 H 0.5159 0.54199 0.91635 0.0
H874 H 0.53634 0.52193 0.83759 0.0
S875 S 0.55049 0.51127 0.24475 0.0
N876 N 0.535 0.52567 0.22159 0.0
N877 N 0.55718 0.5042 0.13666 0.0
C878 C 0.54681 0.51366 0.0758 0.0
C879 C 0.53459 0.52513 0.12188 0.0
C880 C 0.53922 0.04419 0.07522 0.0
C881 C 0.54076 0.04532 0.97204 0.0
C882 C 0.52855 1.02144 0.12507 0.0
C883 C 0.51837 0.99895 0.07345 0.0
H884 H 0.54633 0.06103 0.1178 0.0
H885 H 0.52751 1.02143 0.20444 0.0
S886 S 0.51778 0.99173 0.80302 0.0
N887 N 0.53162 0.02192 0.82021 0.0
N888 N 0.51099 0.97926 0.91361 0.0
C889 C 0.51994 0.99984 0.9704 0.0
C890 C 0.5313 0.023 0.91977 0.0
C891 C 0.13436 0.25132 0.94399 0.0
C892 C 0.12692 0.26787 0.91073 0.0
C893 C 0.13208 0.24437 0.04293 0.0
C894 C 0.12227 0.2537 0.11263 0.0
H895 H 0.14239 0.24398 0.89328 0.0
H896 H 0.13841 0.23189 0.06536 0.0
S897 S 0.09789 0.29573 0.06192 0.0
N898 N 0.1079 0.29219 0.95438 0.0
N899 N 0.10366 0.27916 0.14045 0.0
C900 C 0.11441 0.26997 0.08023 0.0
C901 C 0.11672 0.27704 0.97931 0.0
C902 C 0.81302 0.88419 0.87913 0.0
C903 C 0.78947 0.87935 0.84949 0.0
C904 C 0.81979 0.88743 0.97854 0.0
C905 C 0.80329 0.88601 0.05205 0.0
H906 H 0.82615 0.88509 0.82518 0.0
H907 H 0.83804 0.89092 0.99813 0.0
S908 S 0.74017 0.87587 1.01137 0.0
N909 N 0.75012 0.87459 0.90055 0.0
N910 N 0.76282 0.88085 0.08701 0.0
C911 C 0.77978 0.88147 1.02303 0.0
C912 C 0.77289 0.87813 0.92189 0.0
C913 C 0.17172 0.94162 0.8908 0.0
C914 C 0.17987 0.92544 0.86012 0.0
C915 C 0.1665 0.94324 0.98976 0.0
C916 C 0.16918 0.9287 0.0621 0.0
H917 H 0.16952 0.95328 0.83788 0.0
H918 H 0.16047 0.9561 1.00994 0.0
S919 S 0.18827 0.88207 1.01877 0.0
N920 N 0.18942 0.89387 0.90918 0.0
N921 N 0.17943 0.89668 0.09492 0.0
C922 C 0.17721 0.91233 0.03227 0.0
C923 C 0.1826 0.91076 0.93143 0.0
C924 C 0.27535 0.10604 0.98773 0.0
C925 C 0.2598 0.11466 0.95391 0.0
C926 C 0.2823 0.1083 0.08687 0.0
C927 C 0.27404 0.11937 0.15557 0.0
H928 H 0.28173 0.09702 0.93751 0.0
H929 H 0.2938 0.10087 0.11027 0.0
S930 S 0.23574 0.14786 0.10107 0.0
N931 N 0.23808 0.13652 0.99482 0.0
N932 N 0.25134 0.14106 0.1805 0.0
C933 C 0.25915 0.12879 0.12176 0.0
C934 C 0.25199 0.12636 1.02113 0.0
C935 C 0.93045 0.14143 0.06515 0.0
C936 C 0.94098 0.16076 0.99596 0.0
C937 C 0.92812 0.146 0.16424 0.0
C938 C 0.93615 0.17008 0.19818 0.0
H939 H 0.92358 0.12251 0.04222 0.0
H940 H 0.91957 0.13051 0.21444 0.0
S941 S 0.96713 0.22744 0.04894 0.0
N942 N 0.9609 0.20508 0.96976 0.0
N943 N 0.95652 0.21371 0.15584 0.0
C944 C 0.94707 0.18965 0.13017 0.0
C945 C 0.94947 0.18498 0.02917 0.0
C946 C 0.86451 0.77022 0.08392 0.0
C947 C 0.88362 0.77839 0.15374 0.0
C948 C 0.86962 0.77738 0.98493 0.0
C949 C 0.89401 0.79299 0.95223 0.0
H950 H 0.84545 0.75863 0.10638 0.0
H951 H 0.85435 0.77105 0.93393 0.0
S952 S 0.95084 0.8167 0.10305 0.0
N953 N 0.92802 0.80104 0.18116 0.0
N954 N 0.93756 0.81451 0.99594 0.0
C955 C 0.9133 0.80065 1.02074 0.0
C956 C 0.90813 0.79334 0.1212 0.0
C957 C 0.78668 0.60528 0.26514 0.0
C958 C 0.79986 0.59933 0.1971 0.0
C959 C 0.78472 0.59826 0.36422 0.0
C960 C 0.7957 0.58486 0.39891 0.0
H961 H 0.77735 0.61499 0.24128 0.0
H962 H 0.77407 0.60284 0.41366 0.0
S963 S 0.83497 0.56756 0.25441 0.0
N964 N 0.82606 0.58132 0.17433 0.0
N965 N 0.82206 0.56788 0.35968 0.0
C966 C 0.80953 0.57945 0.33253 0.0
C967 C 0.81168 0.58672 0.23193 0.0
C968 C 0.48724 0.22305 0.32793 0.0
C969 C 0.4698 0.21325 0.40474 0.0
C970 C 0.47992 0.2194 0.22888 0.0
C971 C 0.45479 0.20586 0.20216 0.0
H972 H 0.50673 0.23428 0.34469 0.0
H973 H 0.49402 0.22824 0.17311 0.0
S974 S 0.4017 0.17444 0.37384 0.0
N975 N 0.42613 0.18825 0.44595 0.0
N976 N 0.41255 0.18076 0.26071 0.0
C977 C 0.43722 0.19489 0.27795 0.0
C978 C 0.44466 0.19867 0.37883 0.0
C979 C 0.83417 0.27517 0.37875 0.0
C980 C 0.83654 0.26036 0.45067 0.0
C981 C 0.8392 0.27348 0.27971 0.0
C982 C 0.84688 0.25696 0.24866 0.0
H983 H 0.8285 0.28829 0.39931 0.0
H984 H 0.83726 0.28534 0.22704 0.0
S985 S 0.85449 0.21293 0.40628 0.0
N986 N 0.84607 0.2278 0.48289 0.0
N987 N 0.85576 0.22486 0.29687 0.0
C988 C 0.84935 0.24204 0.31958 0.0
C989 C 0.84413 0.24367 0.4205 0.0
C990 C 0.95701 0.46182 0.45064 0.0
C991 C 0.93962 0.44734 0.52277 0.0
C992 C 0.95022 0.46013 0.3514 0.0
C993 C 0.92579 0.4438 0.32066 0.0
H994 H 0.97586 0.47493 0.47155 0.0
H995 H 0.96403 0.47208 0.29871 0.0
S996 S 0.87425 0.39938 0.47915 0.0
N997 N 0.8976 0.41458 0.55554 0.0
N998 N 0.88485 0.41122 0.36951 0.0
C999 C 0.90848 0.42861 0.39179 0.0
C1000 C 0.91539 0.43042 0.49267 0.0
C1001 C 0.61628 0.52151 0.4422 0.0
C1002 C 0.60354 0.50219 0.51014 0.0
C1003 C 0.61839 0.51661 0.34311 0.0
C1004 C 0.60799 0.49221 0.30844 0.0
H1005 H 0.62515 0.54057 0.46621 0.0
H1006 H 0.62872 0.53198 0.29366 0.0
S1007 S 0.56988 0.43512 0.45288 0.0
N1008 N 0.5783 0.45775 0.53302 0.0
N1009 N 0.58253 0.4486 0.34756 0.0
C1010 C 0.59454 0.47276 0.37475 0.0
C1011 C 0.59227 0.47773 0.47534 0.0
C1012 C 0.54592 0.09599 0.43087 0.0
C1013 C 0.54706 0.11259 0.50318 0.0
C1014 C 0.55067 0.10301 0.33173 0.0
C1015 C 0.55672 0.1269 0.30118 0.0
H1016 H 0.54195 0.07765 0.45157 0.0
H1017 H 0.55023 0.08986 0.27897 0.0
S1018 S 0.5586 0.17605 0.45949 0.0
N1019 N 0.55226 0.15312 0.53578 0.0
N1020 N 0.56125 0.16631 0.34998 0.0
C1021 C 0.55704 0.14335 0.37227 0.0
C1022 C 0.55219 0.13621 0.47307 0.0
C1023 C 0.45092 0.93981 0.6135 0.0
C1024 C 0.46338 0.933 0.5454 0.0
C1025 C 0.44856 0.93258 0.71249 0.0
C1026 C 0.45847 0.91817 0.74693 0.0
H1027 H 0.44244 0.95033 0.58967 0.0
H1028 H 0.43845 0.93782 0.76203 0.0
S1029 S 0.4958 0.8985 0.60194 0.0
N1030 N 0.48787 0.91313 0.52215 0.0
N1031 N 0.48325 0.89942 0.70729 0.0
C1032 C 0.47168 0.91196 0.68042 0.0
C1033 C 0.47417 0.91939 0.57998 0.0
C1034 C 0.13597 0.56353 0.57735 0.0
C1035 C 0.12238 0.53902 0.54309 0.0
C1036 C 0.14294 0.56878 0.67624 0.0
C1037 C 0.13657 0.54974 0.74507 0.0
H1038 H 0.14104 0.5788 0.52742 0.0
H1039 H 0.15315 0.58792 0.69932 0.0
S1040 S 0.10293 0.48251 0.69217 0.0
N1041 N 0.10407 0.49553 0.58545 0.0
N1042 N 0.11698 0.50546 0.77119 0.0
C1043 C 0.12317 0.52517 0.71188 0.0
C1044 C 0.11613 0.5198 0.61103 0.0
C1045 C 0.49741 0.60873 0.64132 0.0
C1046 C 0.50147 0.59501 0.71332 0.0
C1047 C 0.50251 0.60738 0.54203 0.0
C1048 C 0.51204 0.5924 0.511 0.0
H1049 H 0.49048 0.62083 0.66199 0.0
H1050 H 0.49935 0.61843 0.48925 0.0
S1051 S 0.52404 0.55119 0.66774 0.0
N1052 N 0.51413 0.56469 0.74476 0.0
N1053 N 0.52417 0.56264 0.55845 0.0
C1054 C 0.516 0.57844 0.58164 0.0
C1055 C 0.51062 0.57962 0.68269 0.0
C1056 C 0.58867 0.78255 0.76644 0.0
C1057 C 0.61292 0.78922 0.79418 0.0
C1058 C 0.58175 0.7803 0.66772 0.0
C1059 C 0.59856 0.78415 0.59171 0.0
H1060 H 0.57459 0.77838 0.8212 0.0
H1061 H 0.56289 0.77532 0.65129 0.0
S1062 S 0.6649 0.80321 0.62535 0.0
N1063 N 0.65438 0.80161 0.73759 0.0
N1064 N 0.64101 0.79525 0.5525 0.0
C1065 C 0.62306 0.79115 0.61843 0.0
C1066 C 0.63027 0.79413 0.71934 0.0
C1067 C 0.25673 0.82658 0.69794 0.0
C1068 C 0.27642 0.82361 0.6659 0.0
C1069 C 0.25436 0.83144 0.79671 0.0
C1070 C 0.27135 0.83291 0.86763 0.0
H1071 H 0.24271 0.82439 0.64628 0.0
H1072 H 0.23882 0.83347 0.81838 0.0
S1073 S 0.32669 0.82722 0.82183 0.0
N1074 N 0.31367 0.8232 0.71276 0.0
N1075 N 0.3089 0.83164 0.899 0.0
C1076 C 0.29109 0.82984 0.8369 0.0
C1077 C 0.29367 0.82527 0.73599 0.0
C1078 C 0.20675 0.44069 0.69055 0.0
C1079 C 0.22913 0.46059 0.65675 0.0
C1080 C 0.2036 0.4337 0.78961 0.0
C1081 C 0.22284 0.44616 0.85825 0.0
H1082 H 0.19145 0.43081 0.64032 0.0
H1083 H 0.18581 0.41866 0.8128 0.0
S1084 S 0.28604 0.49769 0.80304 0.0
N1085 N 0.27132 0.49164 0.69706 0.0
N1086 N 0.26574 0.47813 0.88273 0.0
C1087 C 0.24556 0.46569 0.82438 0.0
C1088 C 0.24862 0.47297 0.72375 0.0
loop_
_geom_bond_atom_site_label_1
_geom_bond_atom_site_label_2
_geom_bond_distance
_geom_bond_site_symmetry_2
_ccdc_geom_bond_type
Co0 N4 2.148 . S
Co0 N10 2.128 . S
Co0 N20 2.194 . S
Co0 O25 2.351 . S
Co0 O26 2.155 . S
Co0 O27 2.096 . S
C1 N4 1.301 . S
C1 N5 1.328 . S
C1 H6 0.930 . S
C2 C3 1.333 . S
C2 N4 1.317 . S
C2 H7 0.930 . S
C3 C2 1.333 . S
C3 N5 1.350 . S
C3 H29 0.931 . S
N4 Co0 2.148 . S
N4 C1 1.301 . S
N4 C2 1.317 . S
N5 C1 1.328 . S
N5 C3 1.350 . S
H6 C1 0.930 . S
H7 C2 0.930 . S
C8 O9 1.224 . S
C8 O27 1.247 . S
O9 C8 1.224 . S
N10 Co0 2.128 . S
N10 C11 1.355 . S
N10 C13 1.311 . S
C11 N10 1.355 . S
C11 C12 1.363 . S
C11 H23 0.929 . S
C12 C11 1.363 . S
C12 N14 1.375 . S
C12 H30 0.931 . S
C13 N10 1.311 . S
C13 N14 1.347 . S
C13 H24 0.929 . S
N14 C12 1.375 . S
N14 C13 1.347 . S
C15 C18 1.365 . S
C15 N20 1.328 . S
C15 H21 0.929 . S
C16 C17 1.362 . S
C16 C19 1.378 . S
C16 H31 0.929 . S
C17 C16 1.362 . S
C17 C18 1.366 . S
C18 C15 1.365 . S
C18 C17 1.366 . S
C18 H32 0.930 . S
C19 C16 1.378 . S
C19 N20 1.315 . S
C19 H22 0.930 . S
N20 Co0 2.194 . S
N20 C15 1.328 . S
N20 C19 1.315 . S
H21 C15 0.929 . S
H22 C19 0.930 . S
H23 C11 0.929 . S
H24 C13 0.929 . S
O25 Co0 2.351 . S
O25 C28 1.244 . S
O26 Co0 2.155 . S
O26 C28 1.240 . S
O27 Co0 2.096 . S
O27 C8 1.247 . S
C28 O25 1.244 . S
C28 O26 1.240 . S
H29 C3 0.931 . S
H30 C12 0.931 . S
H31 C16 0.929 . S
H32 C18 0.930 . S
Co33 N37 2.148 . S
Co33 N43 2.128 . S
Co33 N53 2.194 . S
Co33 O58 2.351 . S
Co33 O59 2.155 . S
Co33 O60 2.096 . S
C34 N37 1.301 . S
C34 N38 1.328 . S
C34 H39 0.930 . S
C35 C36 1.333 . S
C35 N37 1.317 . S
C35 H40 0.930 . S
C36 C35 1.333 . S
C36 N38 1.350 . S
C36 H62 0.931 . S
N37 Co33 2.148 . S
N37 C34 1.301 . S
N37 C35 1.317 . S
N38 C34 1.328 . S
N38 C36 1.350 . S
H39 C34 0.930 . S
H40 C35 0.930 . S
C41 O42 1.224 . S
C41 O60 1.247 . S
O42 C41 1.224 . S
N43 Co33 2.128 . S
N43 C44 1.355 . S
N43 C46 1.311 . S
C44 N43 1.355 . S
C44 C45 1.363 . S
C44 H56 0.929 . S
C45 C44 1.363 . S
C45 N47 1.375 . S
C45 H63 0.931 . S
C46 N43 1.311 . S
C46 N47 1.347 . S
C46 H57 0.929 . S
N47 C45 1.375 . S
N47 C46 1.347 . S
C48 C51 1.365 . S
C48 N53 1.328 . S
C48 H54 0.929 . S
C49 C50 1.362 . S
C49 C52 1.378 . S
C49 H64 0.929 . S
C50 C49 1.362 . S
C50 C51 1.366 . S
C51 C48 1.365 . S
C51 C50 1.366 . S
C51 H65 0.930 . S
C52 C49 1.378 . S
C52 N53 1.315 . S
C52 H55 0.930 . S
N53 Co33 2.194 . S
N53 C48 1.328 . S
N53 C52 1.315 . S
H54 C48 0.929 . S
H55 C52 0.930 . S
H56 C44 0.929 . S
H57 C46 0.929 . S
O58 Co33 2.351 . S
O58 C61 1.244 . S
O59 Co33 2.155 . S
O59 C61 1.240 . S
O60 Co33 2.096 . S
O60 C41 1.247 . S
C61 O58 1.244 . S
C61 O59 1.240 . S
H62 C36 0.931 . S
H63 C45 0.931 . S
H64 C49 0.929 . S
H65 C51 0.930 . S
Co66 N70 2.148 . S
Co66 N76 2.128 . S
Co66 N86 2.194 . S
Co66 O91 2.351 . S
Co66 O92 2.155 . S
Co66 O93 2.096 . S
C67 N70 1.301 . S
C67 N71 1.328 . S
C67 H72 0.930 . S
C68 C69 1.333 . S
C68 N70 1.317 . S
C68 H73 0.930 . S
C69 C68 1.333 . S
C69 N71 1.350 . S
C69 H95 0.931 . S
N70 Co66 2.148 . S
N70 C67 1.301 . S
N70 C68 1.317 . S
N71 C67 1.328 . S
N71 C69 1.350 . S
H72 C67 0.930 . S
H73 C68 0.930 . S
C74 O75 1.224 . S
C74 O93 1.247 . S
O75 C74 1.224 . S
N76 Co66 2.128 . S
N76 C77 1.355 . S
N76 C79 1.311 . S
C77 N76 1.355 . S
C77 C78 1.363 . S
C77 H89 0.929 . S
C78 C77 1.363 . S
C78 N80 1.375 . S
C78 H96 0.931 . S
C79 N76 1.311 . S
C79 N80 1.347 . S
C79 H90 0.929 . S
N80 C78 1.375 . S
N80 C79 1.347 . S
C81 C84 1.365 . S
C81 N86 1.328 . S
C81 H87 0.929 . S
C82 C83 1.362 . S
C82 C85 1.378 . S
C82 H97 0.929 . S
C83 C82 1.362 . S
C83 C84 1.366 . S
C84 C81 1.365 . S
C84 C83 1.366 . S
C84 H98 0.930 . S
C85 C82 1.378 . S
C85 N86 1.315 . S
C85 H88 0.930 . S
N86 Co66 2.194 . S
N86 C81 1.328 . S
N86 C85 1.315 . S
H87 C81 0.929 . S
H88 C85 0.930 . S
H89 C77 0.929 . S
H90 C79 0.929 . S
O91 Co66 2.351 . S
O91 C94 1.244 . S
O92 Co66 2.155 . S
O92 C94 1.240 . S
O93 Co66 2.096 . S
O93 C74 1.247 . S
C94 O91 1.244 . S
C94 O92 1.240 . S
H95 C69 0.931 . S
H96 C78 0.931 . S
H97 C82 0.929 . S
H98 C84 0.930 . S
Co99 N103 2.148 . S
Co99 N109 2.128 . S
Co99 N119 2.194 . S
Co99 O124 2.351 . S
Co99 O125 2.155 . S
Co99 O126 2.096 . S
C100 N103 1.301 . S
C100 N104 1.328 . S
C100 H105 0.930 . S
C101 C102 1.333 . S
C101 N103 1.317 . S
C101 H106 0.930 . S
C102 C101 1.333 . S
C102 N104 1.350 . S
C102 H128 0.931 . S
N103 Co99 2.148 . S
N103 C100 1.301 . S
N103 C101 1.317 . S
N104 C100 1.328 . S
N104 C102 1.350 . S
H105 C100 0.930 . S
H106 C101 0.930 . S
C107 O108 1.224 . S
C107 O126 1.247 . S
O108 C107 1.224 . S
N109 Co99 2.128 . S
N109 C110 1.355 . S
N109 C112 1.311 . S
C110 N109 1.355 . S
C110 C111 1.363 . S
C110 H122 0.929 . S
C111 C110 1.363 . S
C111 N113 1.375 . S
C111 H129 0.931 . S
C112 N109 1.311 . S
C112 N113 1.347 . S
C112 H123 0.929 . S
N113 C111 1.375 . S
N113 C112 1.347 . S
C114 C117 1.365 . S
C114 N119 1.328 . S
C114 H120 0.929 . S
C115 C116 1.362 . S
C115 C118 1.378 . S
C115 H130 0.929 . S
C116 C115 1.362 . S
C116 C117 1.366 . S
C117 C114 1.365 . S
C117 C116 1.366 . S
C117 H131 0.930 . S
C118 C115 1.378 . S
C118 N119 1.315 . S
C118 H121 0.930 . S
N119 Co99 2.194 . S
N119 C114 1.328 . S
N119 C118 1.315 . S
H120 C114 0.929 . S
H121 C118 0.930 . S
H122 C110 0.929 . S
H123 C112 0.929 . S
O124 Co99 2.351 . S
O124 C127 1.244 . S
O125 Co99 2.155 . S
O125 C127 1.240 . S
O126 Co99 2.096 . S
O126 C107 1.247 . S
C127 O124 1.244 . S
C127 O125 1.240 . S
H128 C102 0.931 . S
H129 C111 0.931 . S
H130 C115 0.929 . S
H131 C117 0.930 . S
Co132 N136 2.148 . S
Co132 N142 2.128 . S
Co132 N152 2.194 . S
Co132 O157 2.351 . S
Co132 O158 2.155 . S
Co132 O159 2.096 . S
C133 N136 1.301 . S
C133 N137 1.328 . S
C133 H138 0.930 . S
C134 C135 1.333 . S
C134 N136 1.317 . S
C134 H139 0.930 . S
C135 C134 1.333 . S
C135 N137 1.350 . S
C135 H161 0.931 . S
N136 Co132 2.148 . S
N136 C133 1.301 . S
N136 C134 1.317 . S
N137 C133 1.328 . S
N137 C135 1.350 . S
H138 C133 0.930 . S
H139 C134 0.930 . S
C140 O141 1.224 . S
C140 O159 1.247 . S
O141 C140 1.224 . S
N142 Co132 2.128 . S
N142 C143 1.355 . S
N142 C145 1.311 . S
C143 N142 1.355 . S
C143 C144 1.363 . S
C143 H155 0.929 . S
C144 C143 1.363 . S
C144 N146 1.375 . S
C144 H162 0.931 . S
C145 N142 1.311 . S
C145 N146 1.347 . S
C145 H156 0.929 . S
N146 C144 1.375 . S
N146 C145 1.347 . S
C147 C150 1.365 . S
C147 N152 1.328 . S
C147 H153 0.929 . S
C148 C149 1.362 . S
C148 C151 1.378 . S
C148 H163 0.929 . S
C149 C148 1.362 . S
C149 C150 1.366 . S
C150 C147 1.365 . S
C150 C149 1.366 . S
C150 H164 0.930 . S
C151 C148 1.378 . S
C151 N152 1.315 . S
C151 H154 0.930 . S
N152 Co132 2.194 . S
N152 C147 1.328 . S
N152 C151 1.315 . S
H153 C147 0.929 . S
H154 C151 0.930 . S
H155 C143 0.929 . S
H156 C145 0.929 . S
O157 Co132 2.351 . S
O157 C160 1.244 . S
O158 Co132 2.155 . S
O158 C160 1.240 . S
O159 Co132 2.096 . S
O159 C140 1.247 . S
C160 O157 1.244 . S
C160 O158 1.240 . S
H161 C135 0.931 . S
H162 C144 0.931 . S
H163 C148 0.929 . S
H164 C150 0.930 . S
Co165 N169 2.148 . S
Co165 N175 2.128 . S
Co165 N185 2.194 . S
Co165 O190 2.351 . S
Co165 O191 2.155 . S
Co165 O192 2.096 . S
C166 N169 1.301 . S
C166 N170 1.328 . S
C166 H171 0.930 . S
C167 C168 1.333 . S
C167 N169 1.317 . S
C167 H172 0.930 . S
C168 C167 1.333 . S
C168 N170 1.350 . S
C168 H194 0.931 . S
N169 Co165 2.148 . S
N169 C166 1.301 . S
N169 C167 1.317 . S
N170 C166 1.328 . S
N170 C168 1.350 . S
H171 C166 0.930 . S
H172 C167 0.930 . S
C173 O174 1.224 . S
C173 O192 1.247 . S
O174 C173 1.224 . S
N175 Co165 2.128 . S
N175 C176 1.355 . S
N175 C178 1.311 . S
C176 N175 1.355 . S
C176 C177 1.363 . S
C176 H188 0.929 . S
C177 C176 1.363 . S
C177 N179 1.375 . S
C177 H195 0.931 . S
C178 N175 1.311 . S
C178 N179 1.347 . S
C178 H189 0.929 . S
N179 C177 1.375 . S
N179 C178 1.347 . S
C180 C183 1.365 . S
C180 N185 1.328 . S
C180 H186 0.929 . S
C181 C182 1.362 . S
C181 C184 1.378 . S
C181 H196 0.929 . S
C182 C181 1.362 . S
C182 C183 1.366 . S
C183 C180 1.365 . S
C183 C182 1.366 . S
C183 H197 0.930 . S
C184 C181 1.378 . S
C184 N185 1.315 . S
C184 H187 0.930 . S
N185 Co165 2.194 . S
N185 C180 1.328 . S
N185 C184 1.315 . S
H186 C180 0.929 . S
H187 C184 0.930 . S
H188 C176 0.929 . S
H189 C178 0.929 . S
O190 Co165 2.351 . S
O190 C193 1.244 . S
O191 Co165 2.155 . S
O191 C193 1.240 . S
O192 Co165 2.096 . S
O192 C173 1.247 . S
C193 O190 1.244 . S
C193 O191 1.240 . S
H194 C168 0.931 . S
H195 C177 0.931 . S
H196 C181 0.929 . S
H197 C183 0.930 . S
Co198 N202 2.148 . S
Co198 N208 2.128 . S
Co198 N218 2.194 . S
Co198 O223 2.351 . S
Co198 O224 2.155 . S
Co198 O225 2.096 . S
C199 N202 1.308 . S
C199 N203 1.321 1_556 S
C199 H204 0.930 . S
C200 C201 1.333 1_556 S
C200 N202 1.317 . S
C200 H205 0.930 . S
C201 C200 1.333 1_554 S
C201 N203 1.350 . S
C201 H227 0.931 . S
N202 Co198 2.148 . S
N202 C199 1.308 . S
N202 C200 1.317 . S
N203 C199 1.321 1_554 S
N203 C201 1.350 . S
H204 C199 0.930 . S
H205 C200 0.930 . S
C206 O207 1.224 . S
C206 O225 1.247 . S
O207 C206 1.224 . S
N208 Co198 2.128 . S
N208 C209 1.355 . S
N208 C211 1.311 . S
C209 N208 1.355 . S
C209 C210 1.363 . S
C209 H221 0.929 . S
C210 C209 1.363 . S
C210 N212 1.375 . S
C210 H228 0.931 . S
C211 N208 1.311 . S
C211 N212 1.347 . S
C211 H222 0.929 . S
N212 C210 1.375 . S
N212 C211 1.347 . S
C213 C216 1.365 . S
C213 N218 1.328 . S
C213 H219 0.929 . S
C214 C215 1.362 . S
C214 C217 1.378 . S
C214 H229 0.929 . S
C215 C214 1.362 . S
C215 C216 1.366 . S
C216 C213 1.365 . S
C216 C215 1.366 . S
C216 H230 0.930 . S
C217 C214 1.378 . S
C217 N218 1.315 . S
C217 H220 0.930 . S
N218 Co198 2.194 . S
N218 C213 1.328 . S
N218 C217 1.315 . S
H219 C213 0.929 . S
H220 C217 0.930 . S
H221 C209 0.929 . S
H222 C211 0.929 . S
O223 Co198 2.351 . S
O223 C226 1.244 . S
O224 Co198 2.155 . S
O224 C226 1.240 . S
O225 Co198 2.096 . S
O225 C206 1.247 . S
C226 O223 1.244 . S
C226 O224 1.240 . S
H227 C201 0.931 . S
H228 C210 0.931 . S
H229 C214 0.929 . S
H230 C216 0.930 . S
Co231 N235 2.148 . S
Co231 N241 2.128 . S
Co231 N251 2.194 . S
Co231 O256 2.351 . S
Co231 O257 2.155 . S
Co231 O258 2.096 . S
C232 N235 1.307 . S
C232 N236 1.322 1_556 S
C232 H237 0.930 . S
C233 C234 1.333 1_556 S
C233 N235 1.317 . S
C233 H238 0.930 . S
C234 C233 1.333 1_554 S
C234 N236 1.350 . S
C234 H260 0.931 . S
N235 Co231 2.148 . S
N235 C232 1.307 . S
N235 C233 1.317 . S
N236 C232 1.322 1_554 S
N236 C234 1.350 . S
H237 C232 0.930 . S
H238 C233 0.930 . S
C239 O240 1.224 . S
C239 O258 1.247 . S
O240 C239 1.224 . S
N241 Co231 2.128 . S
N241 C242 1.355 . S
N241 C244 1.311 . S
C242 N241 1.355 . S
C242 C243 1.363 . S
C242 H254 0.929 . S
C243 C242 1.363 . S
C243 N245 1.375 . S
C243 H261 0.931 . S
C244 N241 1.311 . S
C244 N245 1.347 . S
C244 H255 0.929 . S
N245 C243 1.375 . S
N245 C244 1.347 . S
C246 C249 1.365 . S
C246 N251 1.328 . S
C246 H252 0.929 . S
C247 C248 1.362 . S
C247 C250 1.378 . S
C247 H262 0.929 . S
C248 C247 1.362 . S
C248 C249 1.366 . S
C249 C246 1.365 . S
C249 C248 1.366 . S
C249 H263 0.930 . S
C250 C247 1.378 . S
C250 N251 1.315 . S
C250 H253 0.930 . S
N251 Co231 2.194 . S
N251 C246 1.328 . S
N251 C250 1.315 . S
H252 C246 0.929 . S
H253 C250 0.930 . S
H254 C242 0.929 . S
H255 C244 0.929 . S
O256 Co231 2.351 . S
O256 C259 1.244 . S
O257 Co231 2.155 . S
O257 C259 1.240 . S
O258 Co231 2.096 . S
O258 C239 1.247 . S
C259 O256 1.244 . S
C259 O257 1.240 . S
H260 C234 0.931 . S
H261 C243 0.931 . S
H262 C247 0.929 . S
H263 C249 0.930 . S
Co264 N268 2.148 . S
Co264 N274 2.128 . S
Co264 N284 2.194 . S
Co264 O289 2.351 . S
Co264 O290 2.155 . S
Co264 O291 2.096 . S
C265 N268 1.307 . S
C265 N269 1.322 1_556 S
C265 H270 0.930 . S
C266 C267 1.333 1_556 S
C266 N268 1.317 . S
C266 H271 0.930 . S
C267 C266 1.333 1_554 S
C267 N269 1.350 . S
C267 H293 0.931 . S
N268 Co264 2.148 . S
N268 C265 1.307 . S
N268 C266 1.317 . S
N269 C265 1.322 1_554 S
N269 C267 1.350 . S
H270 C265 0.930 . S
H271 C266 0.930 . S
C272 O273 1.224 . S
C272 O291 1.247 . S
O273 C272 1.224 . S
N274 Co264 2.128 . S
N274 C275 1.355 . S
N274 C277 1.311 . S
C275 N274 1.355 . S
C275 C276 1.363 . S
C275 H287 0.929 . S
C276 C275 1.363 . S
C276 N278 1.375 . S
C276 H294 0.931 . S
C277 N274 1.311 . S
C277 N278 1.347 . S
C277 H288 0.929 . S
N278 C276 1.375 . S
N278 C277 1.347 . S
C279 C282 1.365 . S
C279 N284 1.328 . S
C279 H285 0.929 . S
C280 C281 1.362 . S
C280 C283 1.378 . S
C280 H295 0.929 . S
C281 C280 1.362 . S
C281 C282 1.366 . S
C282 C279 1.365 . S
C282 C281 1.366 . S
C282 H296 0.930 . S
C283 C280 1.378 . S
C283 N284 1.315 . S
C283 H286 0.930 . S
N284 Co264 2.194 . S
N284 C279 1.328 . S
N284 C283 1.315 . S
H285 C279 0.929 . S
H286 C283 0.930 . S
H287 C275 0.929 . S
H288 C277 0.929 . S
O289 Co264 2.351 . S
O289 C292 1.244 . S
O290 Co264 2.155 . S
O290 C292 1.240 . S
O291 Co264 2.096 . S
O291 C272 1.247 . S
C292 O289 1.244 . S
C292 O290 1.240 . S
H293 C267 0.931 . S
H294 C276 0.931 . S
H295 C280 0.929 . S
H296 C282 0.930 . S
Co297 N301 2.148 . S
Co297 N307 2.128 1_556 S
Co297 N317 2.194 . S
Co297 O322 2.351 . S
Co297 O323 2.155 . S
Co297 O324 2.096 . S
C298 N301 1.301 . S
C298 N302 1.328 . S
C298 H303 0.930 . S
C299 C300 1.333 . S
C299 N301 1.317 . S
C299 H304 0.930 . S
C300 C299 1.333 . S
C300 N302 1.350 . S
C300 H326 0.931 . S
N301 Co297 2.148 . S
N301 C298 1.301 . S
N301 C299 1.317 . S
N302 C298 1.328 . S
N302 C300 1.350 . S
H303 C298 0.930 . S
H304 C299 0.930 . S
C305 O306 1.224 . S
C305 O324 1.247 . S
O306 C305 1.224 . S
N307 Co297 2.128 1_554 S
N307 C308 1.355 . S
N307 C310 1.311 . S
C308 N307 1.355 . S
C308 C309 1.363 . S
C308 H320 0.929 . S
C309 C308 1.363 . S
C309 N311 1.375 . S
C309 H327 0.931 . S
C310 N307 1.311 . S
C310 N311 1.347 . S
C310 H321 0.929 . S
N311 C309 1.375 . S
N311 C310 1.347 . S
C312 C315 1.365 . S
C312 N317 1.328 . S
C312 H318 0.929 . S
C313 C314 1.362 . S
C313 C316 1.378 . S
C313 H328 0.929 . S
C314 C313 1.362 . S
C314 C315 1.366 . S
C315 C312 1.365 . S
C315 C314 1.366 . S
C315 H329 0.930 . S
C316 C313 1.378 . S
C316 N317 1.315 . S
C316 H319 0.930 . S
N317 Co297 2.194 . S
N317 C312 1.328 . S
N317 C316 1.315 . S
H318 C312 0.929 . S
H319 C316 0.930 . S
H320 C308 0.929 . S
H321 C310 0.929 . S
O322 Co297 2.351 . S
O322 C325 1.244 . S
O323 Co297 2.155 . S
O323 C325 1.240 . S
O324 Co297 2.096 . S
O324 C305 1.247 . S
C325 O322 1.244 . S
C325 O323 1.240 . S
H326 C300 0.931 . S
H327 C309 0.931 . S
H328 C313 0.929 . S
H329 C315 0.930 . S
Co330 N334 2.148 . S
Co330 N340 2.128 1_556 S
Co330 N350 2.194 . S
Co330 O355 2.351 . S
Co330 O356 2.155 . S
Co330 O357 2.096 . S
C331 N334 1.301 . S
C331 N335 1.328 . S
C331 H336 0.930 . S
C332 C333 1.333 . S
C332 N334 1.317 . S
C332 H337 0.930 . S
C333 C332 1.333 . S
C333 N335 1.350 . S
C333 H359 0.931 . S
N334 Co330 2.148 . S
N334 C331 1.301 . S
N334 C332 1.317 . S
N335 C331 1.328 . S
N335 C333 1.350 . S
H336 C331 0.930 . S
H337 C332 0.930 . S
C338 O339 1.224 . S
C338 O357 1.247 . S
O339 C338 1.224 . S
N340 Co330 2.128 1_554 S
N340 C341 1.355 . S
N340 C343 1.311 . S
C341 N340 1.355 . S
C341 C342 1.363 . S
C341 H353 0.929 . S
C342 C341 1.363 . S
C342 N344 1.375 . S
C342 H360 0.931 . S
C343 N340 1.311 . S
C343 N344 1.347 . S
C343 H354 0.929 . S
N344 C342 1.375 . S
N344 C343 1.347 . S
C345 C348 1.365 . S
C345 N350 1.328 . S
C345 H351 0.929 . S
C346 C347 1.362 . S
C346 C349 1.378 . S
C346 H361 0.929 . S
C347 C346 1.362 . S
C347 C348 1.366 . S
C348 C345 1.365 . S
C348 C347 1.366 . S
C348 H362 0.930 . S
C349 C346 1.378 . S
C349 N350 1.315 . S
C349 H352 0.930 . S
N350 Co330 2.194 . S
N350 C345 1.328 . S
N350 C349 1.315 . S
H351 C345 0.929 . S
H352 C349 0.930 . S
H353 C341 0.929 . S
H354 C343 0.929 . S
O355 Co330 2.351 . S
O355 C358 1.244 . S
O356 Co330 2.155 . S
O356 C358 1.240 . S
O357 Co330 2.096 . S
O357 C338 1.247 . S
C358 O355 1.244 . S
C358 O356 1.240 . S
H359 C333 0.931 . S
H360 C342 0.931 . S
H361 C346 0.929 . S
H362 C348 0.930 . S
Co363 N367 2.148 . S
Co363 N373 2.128 1_556 S
Co363 N383 2.194 . S
Co363 O388 2.351 . S
Co363 O389 2.155 . S
Co363 O390 2.096 . S
C364 N367 1.301 . S
C364 N368 1.328 . S
C364 H369 0.930 . S
C365 C366 1.333 . S
C365 N367 1.317 . S
C365 H370 0.930 . S
C366 C365 1.333 . S
C366 N368 1.350 . S
C366 H392 0.931 . S
N367 Co363 2.148 . S
N367 C364 1.301 . S
N367 C365 1.317 . S
N368 C364 1.328 . S
N368 C366 1.350 . S
H369 C364 0.930 . S
H370 C365 0.930 . S
C371 O372 1.224 . S
C371 O390 1.247 . S
O372 C371 1.224 . S
N373 Co363 2.128 1_554 S
N373 C374 1.355 . S
N373 C376 1.311 . S
C374 N373 1.355 . S
C374 C375 1.363 . S
C374 H386 0.929 . S
C375 C374 1.363 . S
C375 N377 1.375 . S
C375 H393 0.931 . S
C376 N373 1.311 . S
C376 N377 1.347 . S
C376 H387 0.929 . S
N377 C375 1.375 . S
N377 C376 1.347 . S
C378 C381 1.365 . S
C378 N383 1.328 . S
C378 H384 0.929 . S
C379 C380 1.362 . S
C379 C382 1.378 . S
C379 H394 0.929 . S
C380 C379 1.362 . S
C380 C381 1.366 . S
C381 C378 1.365 . S
C381 C380 1.366 . S
C381 H395 0.930 . S
C382 C379 1.378 . S
C382 N383 1.315 . S
C382 H385 0.930 . S
N383 Co363 2.194 . S
N383 C378 1.328 . S
N383 C382 1.315 . S
H384 C378 0.929 . S
H385 C382 0.930 . S
H386 C374 0.929 . S
H387 C376 0.929 . S
O388 Co363 2.351 . S
O388 C391 1.244 . S
O389 Co363 2.155 . S
O389 C391 1.240 . S
O390 Co363 2.096 . S
O390 C371 1.247 . S
C391 O388 1.244 . S
C391 O389 1.240 . S
H392 C366 0.931 . S
H393 C375 0.931 . S
H394 C379 0.929 . S
H395 C381 0.930 . S
Co396 N400 2.148 . S
Co396 N406 2.128 1_554 S
Co396 N416 2.194 . S
Co396 O421 2.351 . S
Co396 O422 2.155 . S
Co396 O423 2.096 . S
C397 N400 1.301 . S
C397 N401 1.328 . S
C397 H402 0.930 . S
C398 C399 1.333 . S
C398 N400 1.317 . S
C398 H403 0.930 . S
C399 C398 1.333 . S
C399 N401 1.350 . S
C399 H425 0.931 . S
N400 Co396 2.148 . S
N400 C397 1.301 . S
N400 C398 1.317 . S
N401 C397 1.328 . S
N401 C399 1.350 . S
H402 C397 0.930 . S
H403 C398 0.930 . S
C404 O405 1.224 . S
C404 O423 1.247 . S
O405 C404 1.224 . S
N406 Co396 2.128 1_556 S
N406 C407 1.355 . S
N406 C409 1.311 . S
C407 N406 1.355 . S
C407 C408 1.363 . S
C407 H419 0.929 . S
C408 C407 1.363 . S
C408 N410 1.375 . S
C408 H426 0.931 . S
C409 N406 1.311 . S
C409 N410 1.347 . S
C409 H420 0.929 . S
N410 C408 1.375 . S
N410 C409 1.347 . S
C411 C414 1.365 . S
C411 N416 1.328 . S
C411 H417 0.929 . S
C412 C413 1.362 . S
C412 C415 1.378 . S
C412 H427 0.929 . S
C413 C412 1.362 . S
C413 C414 1.366 . S
C414 C411 1.365 . S
C414 C413 1.366 . S
C414 H428 0.930 . S
C415 C412 1.378 . S
C415 N416 1.315 . S
C415 H418 0.930 . S
N416 Co396 2.194 . S
N416 C411 1.328 . S
N416 C415 1.315 . S
H417 C411 0.929 . S
H418 C415 0.930 . S
H419 C407 0.929 . S
H420 C409 0.929 . S
O421 Co396 2.351 . S
O421 C424 1.244 . S
O422 Co396 2.155 . S
O422 C424 1.240 . S
O423 Co396 2.096 . S
O423 C404 1.247 . S
C424 O421 1.244 . S
C424 O422 1.240 . S
H425 C399 0.931 . S
H426 C408 0.931 . S
H427 C412 0.929 . S
H428 C414 0.930 . S
Co429 N433 2.148 . S
Co429 N439 2.128 1_554 S
Co429 N449 2.194 . S
Co429 O454 2.351 . S
Co429 O455 2.155 . S
Co429 O456 2.096 . S
C430 N433 1.301 . S
C430 N434 1.328 . S
C430 H435 0.930 . S
C431 C432 1.333 . S
C431 N433 1.317 . S
C431 H436 0.930 . S
C432 C431 1.333 . S
C432 N434 1.350 . S
C432 H458 0.931 . S
N433 Co429 2.148 . S
N433 C430 1.301 . S
N433 C431 1.317 . S
N434 C430 1.328 . S
N434 C432 1.350 . S
H435 C430 0.930 . S
H436 C431 0.930 . S
C437 O438 1.224 . S
C437 O456 1.247 . S
O438 C437 1.224 . S
N439 Co429 2.128 1_556 S
N439 C440 1.355 . S
N439 C442 1.311 . S
C440 N439 1.355 . S
C440 C441 1.363 . S
C440 H452 0.929 . S
C441 C440 1.363 . S
C441 N443 1.375 . S
C441 H459 0.931 . S
C442 N439 1.311 . S
C442 N443 1.347 . S
C442 H453 0.929 . S
N443 C441 1.375 . S
N443 C442 1.347 . S
C444 C447 1.365 . S
C444 N449 1.328 . S
C444 H450 0.929 . S
C445 C446 1.362 . S
C445 C448 1.378 . S
C445 H460 0.929 . S
C446 C445 1.362 . S
C446 C447 1.366 . S
C447 C444 1.365 . S
C447 C446 1.366 . S
C447 H461 0.930 . S
C448 C445 1.378 . S
C448 N449 1.315 . S
C448 H451 0.930 . S
N449 Co429 2.194 . S
N449 C444 1.328 . S
N449 C448 1.315 . S
H450 C444 0.929 . S
H451 C448 0.930 . S
H452 C440 0.929 . S
H453 C442 0.929 . S
O454 Co429 2.351 . S
O454 C457 1.244 . S
O455 Co429 2.155 . S
O455 C457 1.240 . S
O456 Co429 2.096 . S
O456 C437 1.247 . S
C457 O454 1.244 . S
C457 O455 1.240 . S
H458 C432 0.931 . S
H459 C441 0.931 . S
H460 C445 0.929 . S
H461 C447 0.930 . S
Co462 N466 2.148 . S
Co462 N472 2.128 1_554 S
Co462 N482 2.194 . S
Co462 O487 2.351 . S
Co462 O488 2.155 . S
Co462 O489 2.096 . S
C463 N466 1.301 . S
C463 N467 1.328 . S
C463 H468 0.930 . S
C464 C465 1.333 . S
C464 N466 1.317 . S
C464 H469 0.930 . S
C465 C464 1.333 . S
C465 N467 1.350 . S
C465 H491 0.931 . S
N466 Co462 2.148 . S
N466 C463 1.301 . S
N466 C464 1.317 . S
N467 C463 1.328 . S
N467 C465 1.350 . S
H468 C463 0.930 . S
H469 C464 0.930 . S
C470 O471 1.224 . S
C470 O489 1.247 . S
O471 C470 1.224 . S
N472 Co462 2.128 1_556 S
N472 C473 1.355 . S
N472 C475 1.311 . S
C473 N472 1.355 . S
C473 C474 1.363 . S
C473 H485 0.929 . S
C474 C473 1.363 . S
C474 N476 1.375 . S
C474 H492 0.931 . S
C475 N472 1.311 . S
C475 N476 1.347 . S
C475 H486 0.929 . S
N476 C474 1.375 . S
N476 C475 1.347 . S
C477 C480 1.365 . S
C477 N482 1.328 . S
C477 H483 0.929 . S
C478 C479 1.362 . S
C478 C481 1.378 . S
C478 H493 0.929 . S
C479 C478 1.362 . S
C479 C480 1.366 . S
C480 C477 1.365 . S
C480 C479 1.366 . S
C480 H494 0.930 . S
C481 C478 1.378 . S
C481 N482 1.315 . S
C481 H484 0.930 . S
N482 Co462 2.194 . S
N482 C477 1.328 . S
N482 C481 1.315 . S
H483 C477 0.929 . S
H484 C481 0.930 . S
H485 C473 0.929 . S
H486 C475 0.929 . S
O487 Co462 2.351 . S
O487 C490 1.244 . S
O488 Co462 2.155 . S
O488 C490 1.240 . S
O489 Co462 2.096 . S
O489 C470 1.247 . S
C490 O487 1.244 . S
C490 O488 1.240 . S
H491 C465 0.931 . S
H492 C474 0.931 . S
H493 C478 0.929 . S
H494 C480 0.930 . S
Co495 N499 2.148 . S
Co495 N505 2.128 . S
Co495 N515 2.194 . S
Co495 O520 2.351 . S
Co495 O521 2.155 . S
Co495 O522 2.096 . S
C496 N499 1.308 . S
C496 N500 1.321 1_554 S
C496 H501 0.930 . S
C497 C498 1.333 1_554 S
C497 N499 1.317 . S
C497 H502 0.930 . S
C498 C497 1.333 1_556 S
C498 N500 1.350 . S
C498 H524 0.931 . S
N499 Co495 2.148 . S
N499 C496 1.308 . S
N499 C497 1.317 . S
N500 C496 1.321 1_556 S
N500 C498 1.350 . S
H501 C496 0.930 . S
H502 C497 0.930 . S
C503 O504 1.224 . S
C503 O522 1.247 . S
O504 C503 1.224 . S
N505 Co495 2.128 . S
N505 C506 1.355 . S
N505 C508 1.311 . S
C506 N505 1.355 . S
C506 C507 1.363 . S
C506 H518 0.929 . S
C507 C506 1.363 . S
C507 N509 1.375 . S
C507 H525 0.931 . S
C508 N505 1.311 . S
C508 N509 1.347 . S
C508 H519 0.929 . S
N509 C507 1.375 . S
N509 C508 1.347 . S
C510 C513 1.365 . S
C510 N515 1.328 . S
C510 H516 0.929 . S
C511 C512 1.362 . S
C511 C514 1.378 . S
C511 H526 0.929 . S
C512 C511 1.362 . S
C512 C513 1.366 . S
C513 C510 1.365 . S
C513 C512 1.366 . S
C513 H527 0.930 . S
C514 C511 1.378 . S
C514 N515 1.315 . S
C514 H517 0.930 . S
N515 Co495 2.194 . S
N515 C510 1.328 . S
N515 C514 1.315 . S
H516 C510 0.929 . S
H517 C514 0.930 . S
H518 C506 0.929 . S
H519 C508 0.929 . S
O520 Co495 2.351 . S
O520 C523 1.244 . S
O521 Co495 2.155 . S
O521 C523 1.240 . S
O522 Co495 2.096 . S
O522 C503 1.247 . S
C523 O520 1.244 . S
C523 O521 1.240 . S
H524 C498 0.931 . S
H525 C507 0.931 . S
H526 C511 0.929 . S
H527 C513 0.930 . S
Co528 N532 2.148 . S
Co528 N538 2.128 . S
Co528 N548 2.194 . S
Co528 O553 2.351 . S
Co528 O554 2.155 . S
Co528 O555 2.096 . S
C529 N532 1.307 . S
C529 N533 1.322 1_554 S
C529 H534 0.930 . S
C530 C531 1.333 1_554 S
C530 N532 1.317 . S
C530 H535 0.930 . S
C531 C530 1.333 1_556 S
C531 N533 1.350 . S
C531 H557 0.931 . S
N532 Co528 2.148 . S
N532 C529 1.307 . S
N532 C530 1.317 . S
N533 C529 1.322 1_556 S
N533 C531 1.350 . S
H534 C529 0.930 . S
H535 C530 0.930 . S
C536 O537 1.224 . S
C536 O555 1.247 . S
O537 C536 1.224 . S
N538 Co528 2.128 . S
N538 C539 1.355 . S
N538 C541 1.311 . S
C539 N538 1.355 . S
C539 C540 1.363 . S
C539 H551 0.929 . S
C540 C539 1.363 . S
C540 N542 1.375 . S
C540 H558 0.931 . S
C541 N538 1.311 . S
C541 N542 1.347 . S
C541 H552 0.929 . S
N542 C540 1.375 . S
N542 C541 1.347 . S
C543 C546 1.365 . S
C543 N548 1.328 . S
C543 H549 0.929 . S
C544 C545 1.362 . S
C544 C547 1.378 . S
C544 H559 0.929 . S
C545 C544 1.362 . S
C545 C546 1.366 . S
C546 C543 1.365 . S
C546 C545 1.366 . S
C546 H560 0.930 . S
C547 C544 1.378 . S
C547 N548 1.315 . S
C547 H550 0.930 . S
N548 Co528 2.194 . S
N548 C543 1.328 . S
N548 C547 1.315 . S
H549 C543 0.929 . S
H550 C547 0.930 . S
H551 C539 0.929 . S
H552 C541 0.929 . S
O553 Co528 2.351 . S
O553 C556 1.244 . S
O554 Co528 2.155 . S
O554 C556 1.240 . S
O555 Co528 2.096 . S
O555 C536 1.247 . S
C556 O553 1.244 . S
C556 O554 1.240 . S
H557 C531 0.931 . S
H558 C540 0.931 . S
H559 C544 0.929 . S
H560 C546 0.930 . S
Co561 N565 2.148 . S
Co561 N571 2.128 . S
Co561 N581 2.194 . S
Co561 O586 2.351 . S
Co561 O587 2.155 . S
Co561 O588 2.096 . S
C562 N565 1.307 . S
C562 N566 1.322 1_554 S
C562 H567 0.930 . S
C563 C564 1.333 1_554 S
C563 N565 1.317 . S
C563 H568 0.930 . S
C564 C563 1.333 1_556 S
C564 N566 1.350 . S
C564 H590 0.931 . S
N565 Co561 2.148 . S
N565 C562 1.307 . S
N565 C563 1.317 . S
N566 C562 1.322 1_556 S
N566 C564 1.350 . S
H567 C562 0.930 . S
H568 C563 0.930 . S
C569 O570 1.224 . S
C569 O588 1.247 . S
O570 C569 1.224 . S
N571 Co561 2.128 . S
N571 C572 1.355 . S
N571 C574 1.311 . S
C572 N571 1.355 . S
C572 C573 1.363 . S
C572 H584 0.929 . S
C573 C572 1.363 . S
C573 N575 1.375 . S
C573 H591 0.931 . S
C574 N571 1.311 . S
C574 N575 1.347 . S
C574 H585 0.929 . S
N575 C573 1.375 . S
N575 C574 1.347 . S
C576 C579 1.365 . S
C576 N581 1.328 . S
C576 H582 0.929 . S
C577 C578 1.362 . S
C577 C580 1.378 . S
C577 H592 0.929 . S
C578 C577 1.362 . S
C578 C579 1.366 . S
C579 C576 1.365 . S
C579 C578 1.366 . S
C579 H593 0.930 . S
C580 C577 1.378 . S
C580 N581 1.315 . S
C580 H583 0.930 . S
N581 Co561 2.194 . S
N581 C576 1.328 . S
N581 C580 1.315 . S
H582 C576 0.929 . S
H583 C580 0.930 . S
H584 C572 0.929 . S
H585 C574 0.929 . S
O586 Co561 2.351 . S
O586 C589 1.244 . S
O587 Co561 2.155 . S
O587 C589 1.240 . S
O588 Co561 2.096 . S
O588 C569 1.247 . S
C589 O586 1.244 . S
C589 O587 1.240 . S
H590 C564 0.931 . S
H591 C573 0.931 . S
H592 C577 0.929 . S
H593 C579 0.930 . S
C594 C595 1.369 . S
C594 C596 1.419 . S
C594 H598 0.930 . S
C595 C594 1.369 . S
C595 C604 1.429 . S
C596 C594 1.419 . S
C596 C597 1.363 . S
C596 H599 0.929 . S
C597 C596 1.363 . S
C597 C603 1.428 . S
H598 C594 0.930 . S
H599 C596 0.929 . S
S600 N601 1.613 . S
S600 N602 1.610 . S
N601 S600 1.613 . S
N601 C604 1.350 . S
N602 S600 1.610 . S
N602 C603 1.351 . S
C603 C597 1.428 . S
C603 N602 1.351 . S
C603 C604 1.434 . S
C604 C595 1.429 . S
C604 N601 1.350 . S
C604 C603 1.434 . S
C605 C606 1.369 . S
C605 C607 1.419 1_545 S
C605 H609 0.930 . S
C606 C605 1.369 . S
C606 C615 1.429 . S
C607 C605 1.419 1_565 S
C607 C608 1.363 . S
C607 H610 0.929 . S
C608 C607 1.363 . S
C608 C614 1.428 . S
H609 C605 0.930 . S
H610 C607 0.929 . S
S611 N612 1.613 . S
S611 N613 1.610 1_545 S
N612 S611 1.613 . S
N612 C615 1.350 . S
N613 S611 1.610 1_565 S
N613 C614 1.351 . S
C614 C608 1.428 . S
C614 N613 1.351 . S
C614 C615 1.434 1_565 S
C615 C606 1.429 . S
C615 N612 1.350 . S
C615 C614 1.434 1_545 S
C616 C617 1.369 . S
C616 C618 1.419 1_655 S
C616 H620 0.930 . S
C617 C616 1.369 . S
C617 C626 1.429 . S
C618 C616 1.419 1_455 S
C618 C619 1.363 . S
C618 H621 0.929 . S
C619 C618 1.363 . S
C619 C625 1.428 . S
H620 C616 0.930 . S
H621 C618 0.929 . S
S622 N623 1.613 . S
S622 N624 1.610 1_655 S
N623 S622 1.613 . S
N623 C626 1.350 . S
N624 S622 1.610 1_455 S
N624 C625 1.351 . S
C625 C619 1.428 . S
C625 N624 1.351 . S
C625 C626 1.434 1_455 S
C626 C617 1.429 . S
C626 N623 1.350 . S
C626 C625 1.434 1_655 S
C627 C628 1.369 . S
C627 C629 1.419 . S
C627 H631 0.930 . S
C628 C627 1.369 . S
C628 C637 1.429 . S
C629 C627 1.419 . S
C629 C630 1.363 . S
C629 H632 0.929 . S
C630 C629 1.363 . S
C630 C636 1.428 . S
H631 C627 0.930 . S
H632 C629 0.929 . S
S633 N634 1.613 . S
S633 N635 1.610 . S
N634 S633 1.613 . S
N634 C637 1.350 . S
N635 S633 1.610 . S
N635 C636 1.351 . S
C636 C630 1.428 . S
C636 N635 1.351 . S
C636 C637 1.434 . S
C637 C628 1.429 . S
C637 N634 1.350 . S
C637 C636 1.434 . S
C638 C639 1.369 . S
C638 C640 1.419 1_545 S
C638 H642 0.930 . S
C639 C638 1.369 . S
C639 C648 1.429 . S
C640 C638 1.419 1_565 S
C640 C641 1.363 . S
C640 H643 0.929 . S
C641 C640 1.363 . S
C641 C647 1.428 . S
H642 C638 0.930 . S
H643 C640 0.929 . S
S644 N645 1.656 . S
S644 N646 1.594 1_545 S
N645 S644 1.656 . S
N645 C648 1.350 . S
N646 S644 1.594 1_565 S
N646 C647 1.351 . S
C647 C641 1.428 . S
C647 N646 1.351 . S
C647 C648 1.434 1_565 S
C648 C639 1.429 . S
C648 N645 1.350 . S
C648 C647 1.434 1_545 S
C649 C650 1.369 . S
C649 C651 1.419 1_655 S
C649 H653 0.930 . S
C650 C649 1.369 . S
C650 C659 1.429 . S
C651 C649 1.419 1_455 S
C651 C652 1.363 . S
C651 H654 0.929 . S
C652 C651 1.363 . S
C652 C658 1.428 . S
H653 C649 0.930 . S
H654 C651 0.929 . S
S655 N656 1.613 1_455 S
S655 N657 1.610 . S
N656 S655 1.613 1_655 S
N656 C659 1.350 . S
N657 S655 1.610 . S
N657 C658 1.351 . S
C658 C652 1.428 . S
C658 N657 1.351 . S
C658 C659 1.434 1_455 S
C659 C650 1.429 . S
C659 N656 1.350 . S
C659 C658 1.434 1_655 S
C660 C661 1.369 . S
C660 C662 1.419 . S
C660 H664 0.930 . S
C661 C660 1.369 . S
C661 C670 1.429 . S
C662 C660 1.419 . S
C662 C663 1.363 . S
C662 H665 0.929 . S
C663 C662 1.363 . S
C663 C669 1.428 . S
H664 C660 0.930 . S
H665 C662 0.929 . S
S666 N667 1.613 . S
S666 N668 1.610 . S
N667 S666 1.613 . S
N667 C670 1.350 . S
N668 S666 1.610 . S
N668 C669 1.351 . S
C669 C663 1.428 . S
C669 N668 1.351 . S
C669 C670 1.434 . S
C670 C661 1.429 . S
C670 N667 1.350 . S
C670 C669 1.434 . S
C671 C672 1.369 . S
C671 C673 1.419 . S
C671 H675 0.930 . S
C672 C671 1.369 . S
C672 C681 1.429 . S
C673 C671 1.419 . S
C673 C674 1.363 . S
C673 H676 0.929 . S
C674 C673 1.363 . S
C674 C680 1.428 . S
H675 C671 0.930 . S
H676 C673 0.929 . S
S677 N678 1.613 . S
S677 N679 1.610 . S
N678 S677 1.613 . S
N678 C681 1.350 . S
N679 S677 1.610 . S
N679 C680 1.351 . S
C680 C674 1.428 . S
C680 N679 1.351 . S
C680 C681 1.434 . S
C681 C672 1.429 . S
C681 N678 1.350 . S
C681 C680 1.434 . S
C682 C683 1.369 . S
C682 C684 1.419 . S
C682 H686 0.930 . S
C683 C682 1.369 . S
C683 C692 1.429 . S
C684 C682 1.419 . S
C684 C685 1.363 . S
C684 H687 0.929 . S
C685 C684 1.363 . S
C685 C691 1.428 . S
H686 C682 0.930 . S
H687 C684 0.929 . S
S688 N689 1.613 . S
S688 N690 1.610 . S
N689 S688 1.613 . S
N689 C692 1.350 . S
N690 S688 1.610 . S
N690 C691 1.351 . S
C691 C685 1.428 . S
C691 N690 1.351 . S
C691 C692 1.434 . S
C692 C683 1.429 . S
C692 N689 1.350 . S
C692 C691 1.434 . S
C693 C694 1.369 . S
C693 C695 1.419 . S
C693 H697 0.930 . S
C694 C693 1.369 . S
C694 C703 1.429 . S
C695 C693 1.419 . S
C695 C696 1.363 . S
C695 H698 0.929 . S
C696 C695 1.363 . S
C696 C702 1.428 . S
H697 C693 0.930 . S
H698 C695 0.929 . S
S699 N700 1.613 . S
S699 N701 1.610 . S
N700 S699 1.613 . S
N700 C703 1.350 . S
N701 S699 1.610 . S
N701 C702 1.351 . S
C702 C696 1.428 . S
C702 N701 1.351 . S
C702 C703 1.434 . S
C703 C694 1.429 . S
C703 N700 1.350 . S
C703 C702 1.434 . S
C704 C705 1.369 . S
C704 C706 1.419 . S
C704 H708 0.930 . S
C705 C704 1.369 . S
C705 C714 1.429 . S
C706 C704 1.419 . S
C706 C707 1.363 . S
C706 H709 0.929 . S
C707 C706 1.363 . S
C707 C713 1.428 . S
H708 C704 0.930 . S
H709 C706 0.929 . S
S710 N711 1.613 . S
S710 N712 1.610 . S
N711 S710 1.613 . S
N711 C714 1.350 . S
N712 S710 1.610 . S
N712 C713 1.351 . S
C713 C707 1.428 . S
C713 N712 1.351 . S
C713 C714 1.434 . S
C714 C705 1.429 . S
C714 N711 1.350 . S
C714 C713 1.434 . S
C715 C716 1.369 . S
C715 C717 1.419 . S
C715 H719 0.930 . S
C716 C715 1.369 . S
C716 C725 1.429 . S
C717 C715 1.419 . S
C717 C718 1.363 . S
C717 H720 0.929 . S
C718 C717 1.363 . S
C718 C724 1.428 . S
H719 C715 0.930 . S
H720 C717 0.929 . S
S721 N722 1.613 . S
S721 N723 1.610 . S
N722 S721 1.613 . S
N722 C725 1.350 . S
N723 S721 1.610 . S
N723 C724 1.351 . S
C724 C718 1.428 . S
C724 N723 1.351 . S
C724 C725 1.434 . S
C725 C716 1.429 . S
C725 N722 1.350 . S
C725 C724 1.434 . S
C726 C727 1.369 . S
C726 C728 1.419 . S
C726 H730 0.930 . S
C727 C726 1.369 . S
C727 C736 1.429 . S
C728 C726 1.419 . S
C728 C729 1.363 . S
C728 H731 0.929 . S
C729 C728 1.363 . S
C729 C735 1.428 . S
H730 C726 0.930 . S
H731 C728 0.929 . S
S732 N733 1.613 . S
S732 N734 1.610 . S
N733 S732 1.613 . S
N733 C736 1.350 . S
N734 S732 1.610 . S
N734 C735 1.351 . S
C735 C729 1.428 . S
C735 N734 1.351 . S
C735 C736 1.434 . S
C736 C727 1.429 . S
C736 N733 1.350 . S
C736 C735 1.434 . S
C737 C738 1.369 . S
C737 C739 1.419 . S
C737 H741 0.930 . S
C738 C737 1.369 . S
C738 C747 1.429 . S
C739 C737 1.419 . S
C739 C740 1.363 . S
C739 H742 0.929 . S
C740 C739 1.363 . S
C740 C746 1.428 . S
H741 C737 0.930 . S
H742 C739 0.929 . S
S743 N744 1.613 1_556 S
S743 N745 1.610 . S
N744 S743 1.613 1_554 S
N744 C747 1.350 . S
N745 S743 1.610 . S
N745 C746 1.351 1_556 S
C746 C740 1.428 . S
C746 N745 1.351 1_554 S
C746 C747 1.434 . S
C747 C738 1.429 . S
C747 N744 1.350 . S
C747 C746 1.434 . S
C748 C749 1.369 . S
C748 C750 1.419 . S
C748 H752 0.930 . S
C749 C748 1.369 . S
C749 C758 1.429 . S
C750 C748 1.419 . S
C750 C751 1.363 . S
C750 H753 0.929 . S
C751 C750 1.363 . S
C751 C757 1.428 . S
H752 C748 0.930 . S
H753 C750 0.929 . S
S754 N755 1.613 . S
S754 N756 1.610 . S
N755 S754 1.613 . S
N755 C758 1.350 . S
N756 S754 1.610 . S
N756 C757 1.351 . S
C757 C751 1.428 . S
C757 N756 1.351 . S
C757 C758 1.434 . S
C758 C749 1.429 . S
C758 N755 1.350 . S
C758 C757 1.434 . S
C759 C760 1.369 . S
C759 C761 1.419 . S
C759 H763 0.930 . S
C760 C759 1.369 . S
C760 C769 1.429 . S
C761 C759 1.419 . S
C761 C762 1.363 . S
C761 H764 0.929 . S
C762 C761 1.363 . S
C762 C768 1.428 . S
H763 C759 0.930 . S
H764 C761 0.929 . S
S765 N766 1.613 . S
S765 N767 1.610 . S
N766 S765 1.613 . S
N766 C769 1.350 . S
N767 S765 1.610 . S
N767 C768 1.351 . S
C768 C762 1.428 . S
C768 N767 1.351 . S
C768 C769 1.434 . S
C769 C760 1.429 . S
C769 N766 1.350 . S
C769 C768 1.434 . S
C770 C771 1.369 . S
C770 C772 1.419 . S
C770 H774 0.930 . S
C771 C770 1.369 . S
C771 C780 1.429 . S
C772 C770 1.419 . S
C772 C773 1.363 . S
C772 H775 0.929 . S
C773 C772 1.363 . S
C773 C779 1.428 . S
H774 C770 0.930 . S
H775 C772 0.929 . S
S776 N777 1.613 1_556 S
S776 N778 1.610 1_556 S
N777 S776 1.613 1_554 S
N777 C780 1.350 . S
N778 S776 1.610 1_554 S
N778 C779 1.351 . S
C779 C773 1.428 . S
C779 N778 1.351 . S
C779 C780 1.434 . S
C780 C771 1.429 . S
C780 N777 1.350 . S
C780 C779 1.434 . S
C781 C782 1.369 . S
C781 C783 1.419 . S
C781 H785 0.930 . S
C782 C781 1.369 . S
C782 C791 1.429 . S
C783 C781 1.419 . S
C783 C784 1.363 . S
C783 H786 0.929 . S
C784 C783 1.363 . S
C784 C790 1.428 . S
H785 C781 0.930 . S
H786 C783 0.929 . S
S787 N788 1.613 . S
S787 N789 1.610 . S
N788 S787 1.613 . S
N788 C791 1.350 . S
N789 S787 1.610 . S
N789 C790 1.351 . S
C790 C784 1.428 . S
C790 N789 1.351 . S
C790 C791 1.434 . S
C791 C782 1.429 . S
C791 N788 1.350 . S
C791 C790 1.434 . S
C792 C793 1.369 . S
C792 C794 1.419 . S
C792 H796 0.930 . S
C793 C792 1.369 . S
C793 C802 1.429 . S
C794 C792 1.419 . S
C794 C795 1.363 . S
C794 H797 0.929 . S
C795 C794 1.363 . S
C795 C801 1.428 . S
H796 C792 0.930 . S
H797 C794 0.929 . S
S798 N799 1.613 . S
S798 N800 1.610 . S
N799 S798 1.613 . S
N799 C802 1.350 . S
N800 S798 1.610 . S
N800 C801 1.351 . S
C801 C795 1.428 . S
C801 N800 1.351 . S
C801 C802 1.434 . S
C802 C793 1.429 . S
C802 N799 1.350 . S
C802 C801 1.434 . S
C803 C804 1.369 . S
C803 C805 1.419 . S
C803 H807 0.930 . S
C804 C803 1.369 . S
C804 C813 1.429 . S
C805 C803 1.419 . S
C805 C806 1.363 . S
C805 H808 0.929 . S
C806 C805 1.363 . S
C806 C812 1.428 . S
H807 C803 0.930 . S
H808 C805 0.929 . S
S809 N810 1.613 . S
S809 N811 1.610 . S
N810 S809 1.613 . S
N810 C813 1.350 . S
N811 S809 1.610 . S
N811 C812 1.351 . S
C812 C806 1.428 . S
C812 N811 1.351 . S
C812 C813 1.434 . S
C813 C804 1.429 . S
C813 N810 1.350 . S
C813 C812 1.434 . S
C814 C815 1.369 . S
C814 C816 1.419 . S
C814 H818 0.930 . S
C815 C814 1.369 . S
C815 C824 1.429 . S
C816 C814 1.419 . S
C816 C817 1.363 . S
C816 H819 0.929 . S
C817 C816 1.363 . S
C817 C823 1.428 . S
H818 C814 0.930 . S
H819 C816 0.929 . S
S820 N821 1.613 . S
S820 N822 1.610 . S
N821 S820 1.613 . S
N821 C824 1.350 . S
N822 S820 1.610 . S
N822 C823 1.351 . S
C823 C817 1.428 . S
C823 N822 1.351 . S
C823 C824 1.434 . S
C824 C815 1.429 . S
C824 N821 1.350 . S
C824 C823 1.434 . S
C825 C826 1.369 . S
C825 C827 1.419 . S
C825 H829 0.930 . S
C826 C825 1.369 . S
C826 C835 1.429 . S
C827 C825 1.419 . S
C827 C828 1.363 . S
C827 H830 0.929 . S
C828 C827 1.363 . S
C828 C834 1.428 . S
H829 C825 0.930 . S
H830 C827 0.929 . S
S831 N832 1.613 . S
S831 N833 1.610 . S
N832 S831 1.613 . S
N832 C835 1.350 . S
N833 S831 1.610 . S
N833 C834 1.351 . S
C834 C828 1.428 . S
C834 N833 1.351 . S
C834 C835 1.434 . S
C835 C826 1.429 . S
C835 N832 1.350 . S
C835 C834 1.434 . S
C836 C837 1.369 . S
C836 C838 1.419 . S
C836 H840 0.930 . S
C837 C836 1.369 . S
C837 C846 1.429 . S
C838 C836 1.419 . S
C838 C839 1.363 . S
C838 H841 0.929 . S
C839 C838 1.363 . S
C839 C845 1.428 . S
H840 C836 0.930 . S
H841 C838 0.929 . S
S842 N843 1.613 . S
S842 N844 1.610 . S
N843 S842 1.613 . S
N843 C846 1.350 . S
N844 S842 1.610 . S
N844 C845 1.351 . S
C845 C839 1.428 . S
C845 N844 1.351 . S
C845 C846 1.434 . S
C846 C837 1.429 . S
C846 N843 1.350 . S
C846 C845 1.434 . S
C847 C848 1.369 . S
C847 C849 1.419 . S
C847 H851 0.930 . S
C848 C847 1.369 . S
C848 C857 1.429 . S
C849 C847 1.419 . S
C849 C850 1.363 . S
C849 H852 0.929 . S
C850 C849 1.363 . S
C850 C856 1.428 . S
H851 C847 0.930 . S
H852 C849 0.929 . S
S853 N854 1.613 . S
S853 N855 1.610 . S
N854 S853 1.613 . S
N854 C857 1.350 . S
N855 S853 1.610 . S
N855 C856 1.351 . S
C856 C850 1.428 . S
C856 N855 1.351 . S
C856 C857 1.434 . S
C857 C848 1.429 . S
C857 N854 1.350 . S
C857 C856 1.434 . S
C858 C859 1.369 . S
C858 C860 1.419 1_455 S
C858 H862 0.930 . S
C859 C858 1.369 . S
C859 C868 1.429 1_554 S
C860 C858 1.419 1_655 S
C860 C861 1.363 1_554 S
C860 H863 0.929 . S
C861 C860 1.363 1_556 S
C861 C867 1.428 . S
H862 C858 0.930 . S
H863 C860 0.929 . S
S864 N865 1.613 . S
S864 N866 1.610 1_455 S
N865 S864 1.613 . S
N865 C868 1.350 . S
N866 S864 1.610 1_655 S
N866 C867 1.351 . S
C867 C861 1.428 . S
C867 N866 1.351 . S
C867 C868 1.434 1_655 S
C868 C859 1.429 1_556 S
C868 N865 1.350 . S
C868 C867 1.434 1_455 S
C869 C870 1.369 1_556 S
C869 C871 1.419 . S
C869 H873 0.930 . S
C870 C869 1.369 1_554 S
C870 C879 1.429 . S
C871 C869 1.419 . S
C871 C872 1.363 . S
C871 H874 0.929 . S
C872 C871 1.363 . S
C872 C878 1.428 1_556 S
H873 C869 0.930 . S
H874 C871 0.929 . S
S875 N876 1.613 . S
S875 N877 1.610 . S
N876 S875 1.613 . S
N876 C879 1.350 . S
N877 S875 1.610 . S
N877 C878 1.351 . S
C878 C872 1.428 1_554 S
C878 N877 1.351 . S
C878 C879 1.434 . S
C879 C870 1.429 . S
C879 N876 1.350 . S
C879 C878 1.434 . S
C880 C881 1.369 1_554 S
C880 C882 1.419 1_545 S
C880 H884 0.930 . S
C881 C880 1.369 1_556 S
C881 C890 1.429 . S
C882 C880 1.419 1_565 S
C882 C883 1.363 . S
C882 H885 0.929 . S
C883 C882 1.363 . S
C883 C889 1.428 1_554 S
H884 C880 0.930 . S
H885 C882 0.929 . S
S886 N887 1.613 1_565 S
S886 N888 1.610 . S
N887 S886 1.613 1_545 S
N887 C890 1.350 . S
N888 S886 1.610 . S
N888 C889 1.351 . S
C889 C883 1.428 1_556 S
C889 N888 1.351 . S
C889 C890 1.434 1_565 S
C890 C881 1.429 . S
C890 N887 1.350 . S
C890 C889 1.434 1_545 S
C891 C892 1.369 . S
C891 C893 1.419 . S
C891 H895 0.930 . S
C892 C891 1.369 . S
C892 C901 1.429 . S
C893 C891 1.419 . S
C893 C894 1.363 1_556 S
C893 H896 0.929 1_556 S
C894 C893 1.363 1_554 S
C894 C900 1.428 . S
H895 C891 0.930 . S
H896 C893 0.929 1_554 S
S897 N898 1.613 . S
S897 N899 1.610 1_556 S
N898 S897 1.613 . S
N898 C901 1.350 . S
N899 S897 1.610 1_554 S
N899 C900 1.351 . S
C900 C894 1.428 . S
C900 N899 1.351 . S
C900 C901 1.434 1_554 S
C901 C892 1.429 . S
C901 N898 1.350 . S
C901 C900 1.434 1_556 S
C902 C903 1.369 . S
C902 C904 1.419 1_556 S
C902 H906 0.930 . S
C903 C902 1.369 . S
C903 C912 1.429 . S
C904 C902 1.419 1_554 S
C904 C905 1.363 . S
C904 H907 0.929 . S
C905 C904 1.363 . S
C905 C911 1.428 1_554 S
H906 C902 0.930 . S
H907 C904 0.929 . S
S908 N909 1.613 . S
S908 N910 1.610 1_556 S
N909 S908 1.613 . S
N909 C912 1.350 . S
N910 S908 1.610 1_554 S
N910 C911 1.351 1_554 S
C911 C905 1.428 1_556 S
C911 N910 1.351 1_556 S
C911 C912 1.434 . S
C912 C903 1.429 . S
C912 N909 1.350 . S
C912 C911 1.434 . S
C913 C914 1.369 . S
C913 C915 1.419 . S
C913 H917 0.930 . S
C914 C913 1.369 . S
C914 C923 1.429 . S
C915 C913 1.419 . S
C915 C916 1.363 1_556 S
C915 H918 0.929 1_556 S
C916 C915 1.363 1_554 S
C916 C922 1.428 1_554 S
H917 C913 0.930 . S
H918 C915 0.929 1_554 S
S919 N920 1.613 . S
S919 N921 1.610 1_556 S
N920 S919 1.613 . S
N920 C923 1.350 . S
N921 S919 1.610 1_554 S
N921 C922 1.351 1_554 S
C922 C916 1.428 1_556 S
C922 N921 1.351 1_556 S
C922 C923 1.434 . S
C923 C914 1.429 . S
C923 N920 1.350 . S
C923 C922 1.434 . S
C924 C925 1.369 . S
C924 C926 1.419 1_556 S
C924 H928 0.930 . S
C925 C924 1.369 . S
C925 C934 1.429 1_556 S
C926 C924 1.419 1_554 S
C926 C927 1.363 . S
C926 H929 0.929 . S
C927 C926 1.363 . S
C927 C933 1.428 . S
H928 C924 0.930 . S
H929 C926 0.929 . S
S930 N931 1.613 1_554 S
S930 N932 1.610 . S
N931 S930 1.613 1_556 S
N931 C934 1.350 1_556 S
N932 S930 1.610 . S
N932 C933 1.351 . S
C933 C927 1.428 . S
C933 N932 1.351 . S
C933 C934 1.434 . S
C934 C925 1.429 1_554 S
C934 N931 1.350 1_554 S
C934 C933 1.434 . S
C935 C936 1.369 1_554 S
C935 C937 1.419 . S
C935 H939 0.930 1_554 S
C936 C935 1.369 1_556 S
C936 C945 1.429 . S
C937 C935 1.419 . S
C937 C938 1.363 . S
C937 H940 0.929 . S
C938 C937 1.363 . S
C938 C944 1.428 . S
H939 C935 0.930 1_556 S
H940 C937 0.929 . S
S941 N942 1.613 1_554 S
S941 N943 1.610 . S
N942 S941 1.613 1_556 S
N942 C945 1.350 . S
N943 S941 1.610 . S
N943 C944 1.351 . S
C944 C938 1.428 . S
C944 N943 1.351 . S
C944 C945 1.434 1_554 S
C945 C936 1.429 . S
C945 N942 1.350 . S
C945 C944 1.434 1_556 S
C946 C947 1.369 . S
C946 C948 1.419 1_554 S
C946 H950 0.930 . S
C947 C946 1.369 . S
C947 C956 1.429 . S
C948 C946 1.419 1_556 S
C948 C949 1.363 . S
C948 H951 0.929 . S
C949 C948 1.363 . S
C949 C955 1.428 1_556 S
H950 C946 0.930 . S
H951 C948 0.929 . S
S952 N953 1.613 . S
S952 N954 1.610 1_554 S
N953 S952 1.613 . S
N953 C956 1.350 . S
N954 S952 1.610 1_556 S
N954 C955 1.351 1_556 S
C955 C949 1.428 1_554 S
C955 N954 1.351 1_554 S
C955 C956 1.434 . S
C956 C947 1.429 . S
C956 N953 1.350 . S
C956 C955 1.434 . S
C957 C958 1.369 . S
C957 C959 1.419 . S
C957 H961 0.930 . S
C958 C957 1.369 . S
C958 C967 1.429 . S
C959 C957 1.419 . S
C959 C960 1.363 . S
C959 H962 0.929 . S
C960 C959 1.363 . S
C960 C966 1.428 . S
H961 C957 0.930 . S
H962 C959 0.929 . S
S963 N964 1.613 . S
S963 N965 1.610 . S
N964 S963 1.613 . S
N964 C967 1.350 . S
N965 S963 1.610 . S
N965 C966 1.351 . S
C966 C960 1.428 . S
C966 N965 1.351 . S
C966 C967 1.434 . S
C967 C958 1.429 . S
C967 N964 1.350 . S
C967 C966 1.434 . S
C968 C969 1.369 . S
C968 C970 1.419 . S
C968 H972 0.930 . S
C969 C968 1.369 . S
C969 C978 1.429 . S
C970 C968 1.419 . S
C970 C971 1.363 . S
C970 H973 0.929 . S
C971 C970 1.363 . S
C971 C977 1.428 . S
H972 C968 0.930 . S
H973 C970 0.929 . S
S974 N975 1.613 . S
S974 N976 1.610 . S
N975 S974 1.613 . S
N975 C978 1.350 . S
N976 S974 1.610 . S
N976 C977 1.351 . S
C977 C971 1.428 . S
C977 N976 1.351 . S
C977 C978 1.434 . S
C978 C969 1.429 . S
C978 N975 1.350 . S
C978 C977 1.434 . S
C979 C980 1.369 . S
C979 C981 1.419 . S
C979 H983 0.930 . S
C980 C979 1.369 . S
C980 C989 1.429 . S
C981 C979 1.419 . S
C981 C982 1.363 . S
C981 H984 0.929 . S
C982 C981 1.363 . S
C982 C988 1.428 . S
H983 C979 0.930 . S
H984 C981 0.929 . S
S985 N986 1.613 . S
S985 N987 1.610 . S
N986 S985 1.613 . S
N986 C989 1.350 . S
N987 S985 1.610 . S
N987 C988 1.351 . S
C988 C982 1.428 . S
C988 N987 1.351 . S
C988 C989 1.434 . S
C989 C980 1.429 . S
C989 N986 1.350 . S
C989 C988 1.434 . S
C990 C991 1.369 . S
C990 C992 1.419 . S
C990 H994 0.930 . S
C991 C990 1.369 . S
C991 C1000 1.429 . S
C992 C990 1.419 . S
C992 C993 1.363 . S
C992 H995 0.929 . S
C993 C992 1.363 . S
C993 C999 1.428 . S
H994 C990 0.930 . S
H995 C992 0.929 . S
S996 N997 1.613 . S
S996 N998 1.610 . S
N997 S996 1.613 . S
N997 C1000 1.350 . S
N998 S996 1.610 . S
N998 C999 1.351 . S
C999 C993 1.428 . S
C999 N998 1.351 . S
C999 C1000 1.434 . S
C1000 C991 1.429 . S
C1000 N997 1.350 . S
C1000 C999 1.434 . S
C1001 C1002 1.369 . S
C1001 C1003 1.419 . S
C1001 H1005 0.930 . S
C1002 C1001 1.369 . S
C1002 C1011 1.429 . S
C1003 C1001 1.419 . S
C1003 C1004 1.363 . S
C1003 H1006 0.929 . S
C1004 C1003 1.363 . S
C1004 C1010 1.428 . S
H1005 C1001 0.930 . S
H1006 C1003 0.929 . S
S1007 N1008 1.613 . S
S1007 N1009 1.610 . S
N1008 S1007 1.613 . S
N1008 C1011 1.350 . S
N1009 S1007 1.610 . S
N1009 C1010 1.351 . S
C1010 C1004 1.428 . S
C1010 N1009 1.351 . S
C1010 C1011 1.434 . S
C1011 C1002 1.429 . S
C1011 N1008 1.350 . S
C1011 C1010 1.434 . S
C1012 C1013 1.369 . S
C1012 C1014 1.419 . S
C1012 H1016 0.930 . S
C1013 C1012 1.369 . S
C1013 C1022 1.429 . S
C1014 C1012 1.419 . S
C1014 C1015 1.363 . S
C1014 H1017 0.929 . S
C1015 C1014 1.363 . S
C1015 C1021 1.428 . S
H1016 C1012 0.930 . S
H1017 C1014 0.929 . S
S1018 N1019 1.613 . S
S1018 N1020 1.610 . S
N1019 S1018 1.613 . S
N1019 C1022 1.350 . S
N1020 S1018 1.610 . S
N1020 C1021 1.351 . S
C1021 C1015 1.428 . S
C1021 N1020 1.351 . S
C1021 C1022 1.434 . S
C1022 C1013 1.429 . S
C1022 N1019 1.350 . S
C1022 C1021 1.434 . S
C1023 C1024 1.369 . S
C1023 C1025 1.419 . S
C1023 H1027 0.930 . S
C1024 C1023 1.369 . S
C1024 C1033 1.429 . S
C1025 C1023 1.419 . S
C1025 C1026 1.363 . S
C1025 H1028 0.929 . S
C1026 C1025 1.363 . S
C1026 C1032 1.428 . S
H1027 C1023 0.930 . S
H1028 C1025 0.929 . S
S1029 N1030 1.613 . S
S1029 N1031 1.610 . S
N1030 S1029 1.613 . S
N1030 C1033 1.350 . S
N1031 S1029 1.610 . S
N1031 C1032 1.351 . S
C1032 C1026 1.428 . S
C1032 N1031 1.351 . S
C1032 C1033 1.434 . S
C1033 C1024 1.429 . S
C1033 N1030 1.350 . S
C1033 C1032 1.434 . S
C1034 C1035 1.369 . S
C1034 C1036 1.419 . S
C1034 H1038 0.930 . S
C1035 C1034 1.369 . S
C1035 C1044 1.429 . S
C1036 C1034 1.419 . S
C1036 C1037 1.363 . S
C1036 H1039 0.929 . S
C1037 C1036 1.363 . S
C1037 C1043 1.428 . S
H1038 C1034 0.930 . S
H1039 C1036 0.929 . S
S1040 N1041 1.613 . S
S1040 N1042 1.610 . S
N1041 S1040 1.613 . S
N1041 C1044 1.350 . S
N1042 S1040 1.610 . S
N1042 C1043 1.351 . S
C1043 C1037 1.428 . S
C1043 N1042 1.351 . S
C1043 C1044 1.434 . S
C1044 C1035 1.429 . S
C1044 N1041 1.350 . S
C1044 C1043 1.434 . S
C1045 C1046 1.369 . S
C1045 C1047 1.419 . S
C1045 H1049 0.930 . S
C1046 C1045 1.369 . S
C1046 C1055 1.429 . S
C1047 C1045 1.419 . S
C1047 C1048 1.363 . S
C1047 H1050 0.929 . S
C1048 C1047 1.363 . S
C1048 C1054 1.428 . S
H1049 C1045 0.930 . S
H1050 C1047 0.929 . S
S1051 N1052 1.613 . S
S1051 N1053 1.610 . S
N1052 S1051 1.613 . S
N1052 C1055 1.350 . S
N1053 S1051 1.610 . S
N1053 C1054 1.351 . S
C1054 C1048 1.428 . S
C1054 N1053 1.351 . S
C1054 C1055 1.434 . S
C1055 C1046 1.429 . S
C1055 N1052 1.350 . S
C1055 C1054 1.434 . S
C1056 C1057 1.369 . S
C1056 C1058 1.419 . S
C1056 H1060 0.930 . S
C1057 C1056 1.369 . S
C1057 C1066 1.429 . S
C1058 C1056 1.419 . S
C1058 C1059 1.363 . S
C1058 H1061 0.929 . S
C1059 C1058 1.363 . S
C1059 C1065 1.428 . S
H1060 C1056 0.930 . S
H1061 C1058 0.929 . S
S1062 N1063 1.613 . S
S1062 N1064 1.610 . S
N1063 S1062 1.613 . S
N1063 C1066 1.350 . S
N1064 S1062 1.610 . S
N1064 C1065 1.351 . S
C1065 C1059 1.428 . S
C1065 N1064 1.351 . S
C1065 C1066 1.434 . S
C1066 C1057 1.429 . S
C1066 N1063 1.350 . S
C1066 C1065 1.434 . S
C1067 C1068 1.369 . S
C1067 C1069 1.419 . S
C1067 H1071 0.930 . S
C1068 C1067 1.369 . S
C1068 C1077 1.429 . S
C1069 C1067 1.419 . S
C1069 C1070 1.363 . S
C1069 H1072 0.929 . S
C1070 C1069 1.363 . S
C1070 C1076 1.428 . S
H1071 C1067 0.930 . S
H1072 C1069 0.929 . S
S1073 N1074 1.613 . S
S1073 N1075 1.610 . S
N1074 S1073 1.613 . S
N1074 C1077 1.350 . S
N1075 S1073 1.610 . S
N1075 C1076 1.351 . S
C1076 C1070 1.428 . S
C1076 N1075 1.351 . S
C1076 C1077 1.434 . S
C1077 C1068 1.429 . S
C1077 N1074 1.350 . S
C1077 C1076 1.434 . S
C1078 C1079 1.369 . S
C1078 C1080 1.419 . S
C1078 H1082 0.930 . S
C1079 C1078 1.369 . S
C1079 C1088 1.429 . S
C1080 C1078 1.419 . S
C1080 C1081 1.363 . S
C1080 H1083 0.929 . S
C1081 C1080 1.363 . S
C1081 C1087 1.428 . S
H1082 C1078 0.930 . S
H1083 C1080 0.929 . S
S1084 N1085 1.613 . S
S1084 N1086 1.610 . S
N1085 S1084 1.613 . S
N1085 C1088 1.350 . S
N1086 S1084 1.610 . S
N1086 C1087 1.351 . S
C1087 C1081 1.428 . S
C1087 N1086 1.351 . S
C1087 C1088 1.434 . S
C1088 C1079 1.429 . S
C1088 N1085 1.350 . S
C1088 C1087 1.434 . S
C595 C116 1.540 . S
C597 C17 1.540 . S
C606 C149 1.538 . S
C608 C50 1.541 . S
C617 C182 1.538 . S
C619 C83 1.540 . S
C628 C61 1.519 . S
C630 C193 1.519 . S
C639 C127 1.519 . S
C641 C94 1.518 . S
C650 C160 1.518 . S
C652 C28 1.519 . S
C661 C314 1.539 . S
C663 C215 1.541 . S
C672 C248 1.540 . S
C674 C347 1.539 . S
C683 C281 1.538 . S
C685 C380 1.541 . S
C694 C259 1.519 . S
C696 C391 1.519 . S
C705 C292 1.520 . S
C707 C325 1.518 . S
C716 C358 1.519 . S
C718 C226 1.518 . S
C727 C413 1.538 . S
C729 C512 1.540 . S
C738 C545 1.538 . S
C740 C446 1.541 . S
C749 C479 1.540 . S
C751 C578 1.540 . S
C760 C457 1.520 . S
C762 C589 1.518 . S
C771 C523 1.520 . S
C773 C490 1.518 . S
C782 C424 1.520 . S
C784 C556 1.518 . S
C793 C8 1.467 . S
C795 C569 1.467 . S
C804 C503 1.466 . S
C806 C41 1.468 . S
C815 C536 1.466 . S
C817 C74 1.469 . S
C826 C239 1.468 . S
C828 C107 1.467 . S
C837 C272 1.467 . S
C839 C140 1.468 . S
C848 C206 1.466 . S
C850 C173 1.468 . S
C859 C437 1.466 . S
C861 C305 1.468 . S
C870 C470 1.468 . S
C872 C338 1.467 . S
C881 C371 1.469 . S
C883 C404 1.467 . S
C892 N5 1.451 . S
C894 N14 1.452 . S
C903 N38 1.452 . S
C905 N47 1.451 . S
C914 N71 1.451 . S
C916 N80 1.452 . S
C925 N113 1.452 . S
C927 N104 1.452 . S
C936 N146 1.451 . S
C938 N137 1.453 . S
C947 N170 1.456 . S
C949 N179 1.448 . S
C958 N203 1.453 . S
C960 N212 1.450 . S
C969 N245 1.453 . S
C971 N236 1.452 . S
C980 N278 1.453 . S
C982 N269 1.452 . S
C991 N302 1.456 . S
C993 N311 1.448 . S
C1002 N335 1.456 . S
C1004 N344 1.448 . S
C1013 N368 1.456 . S
C1015 N377 1.448 . S
C1024 N401 1.455 . S
C1026 N410 1.449 . S
C1035 N434 1.451 . S
C1037 N443 1.452 . S
C1046 N476 1.453 . S
C1048 N467 1.451 . S
C1057 N500 1.450 . S
C1059 N509 1.453 . S
C1068 N542 1.447 . S
C1070 N533 1.455 . S
C1079 N575 1.451 . S
C1081 N566 1.453 . S
