# Generated by pormake.
# Topology umq, (4)-cn, num edge types: 1
# Building blocks:
#     Node 0, Type 0, BuildingBlock: NAHDIM_clean_sbu_0, # of connection points: 4
#     Node 1, Type 0, BuildingBlock: NAHDIM_clean_sbu_0, # of connection points: 4
#     Node 2, Type 0, BuildingBlock: NAHDIM_clean_sbu_0, # of connection points: 4
#     Node 3, Type 0, BuildingBlock: NAHDIM_clean_sbu_0, # of connection points: 4
#     Node 4, Type 0, BuildingBlock: NAHDIM_clean_sbu_0, # of connection points: 4
#     Node 5, Type 0, BuildingBlock: NAHDIM_clean_sbu_0, # of connection points: 4
#     Node 6, Type 0, BuildingBlock: NAHDIM_clean_sbu_0, # of connection points: 4
#     Node 7, Type 0, BuildingBlock: NAHDIM_clean_sbu_0, # of connection points: 4
#     Node 8, Type 0, BuildingBlock: NAHDIM_clean_sbu_0, # of connection points: 4
#     Node 9, Type 0, BuildingBlock: NAHDIM_clean_sbu_0, # of connection points: 4
#     Node 10, Type 0, BuildingBlock: NAHDIM_clean_sbu_0, # of connection points: 4
#     Node 11, Type 0, BuildingBlock: NAHDIM_clean_sbu_0, # of connection points: 4
#     Node 12, Type 0, BuildingBlock: NAHDIM_clean_sbu_0, # of connection points: 4
#     Node 13, Type 0, BuildingBlock: NAHDIM_clean_sbu_0, # of connection points: 4
#     Node 14, Type 0, BuildingBlock: NAHDIM_clean_sbu_0, # of connection points: 4
#     Node 15, Type 0, BuildingBlock: NAHDIM_clean_sbu_0, # of connection points: 4
#     Node 16, Type 0, BuildingBlock: NAHDIM_clean_sbu_0, # of connection points: 4
#     Node 17, Type 0, BuildingBlock: NAHDIM_clean_sbu_0, # of connection points: 4
#     Node 18, Type 0, BuildingBlock: NAHDIM_clean_sbu_0, # of connection points: 4
#     Node 19, Type 0, BuildingBlock: NAHDIM_clean_sbu_0, # of connection points: 4
#     Node 20, Type 0, BuildingBlock: NAHDIM_clean_sbu_0, # of connection points: 4
#     Node 21, Type 0, BuildingBlock: NAHDIM_clean_sbu_0, # of connection points: 4
#     Node 22, Type 0, BuildingBlock: NAHDIM_clean_sbu_0, # of connection points: 4
#     Node 23, Type 0, BuildingBlock: NAHDIM_clean_sbu_0, # of connection points: 4
#     Node 24, Type 0, BuildingBlock: NAHDIM_clean_sbu_0, # of connection points: 4
#     Node 25, Type 0, BuildingBlock: NAHDIM_clean_sbu_0, # of connection points: 4
#     Node 26, Type 0, BuildingBlock: NAHDIM_clean_sbu_0, # of connection points: 4
#     Node 27, Type 0, BuildingBlock: NAHDIM_clean_sbu_0, # of connection points: 4
#     Node 28, Type 0, BuildingBlock: NAHDIM_clean_sbu_0, # of connection points: 4
#     Node 29, Type 0, BuildingBlock: NAHDIM_clean_sbu_0, # of connection points: 4
#     Node 30, Type 0, BuildingBlock: NAHDIM_clean_sbu_0, # of connection points: 4
#     Node 31, Type 0, BuildingBlock: NAHDIM_clean_sbu_0, # of connection points: 4
#     Edge 32, Type (0, 0), BuildingBlock: TEMPAE_clean_linker_10, # of connection points: 2
#     Edge 33, Type (0, 0), BuildingBlock: TEMPAE_clean_linker_10, # of connection points: 2
#     Edge 34, Type (0, 0), BuildingBlock: TEMPAE_clean_linker_10, # of connection points: 2
#     Edge 35, Type (0, 0), BuildingBlock: TEMPAE_clean_linker_10, # of connection points: 2
#     Edge 36, Type (0, 0), BuildingBlock: TEMPAE_clean_linker_10, # of connection points: 2
#     Edge 37, Type (0, 0), BuildingBlock: TEMPAE_clean_linker_10, # of connection points: 2
#     Edge 38, Type (0, 0), BuildingBlock: TEMPAE_clean_linker_10, # of connection points: 2
#     Edge 39, Type (0, 0), BuildingBlock: TEMPAE_clean_linker_10, # of connection points: 2
#     Edge 40, Type (0, 0), BuildingBlock: TEMPAE_clean_linker_10, # of connection points: 2
#     Edge 41, Type (0, 0), BuildingBlock: TEMPAE_clean_linker_10, # of connection points: 2
#     Edge 42, Type (0, 0), BuildingBlock: TEMPAE_clean_linker_10, # of connection points: 2
#     Edge 43, Type (0, 0), BuildingBlock: TEMPAE_clean_linker_10, # of connection points: 2
#     Edge 44, Type (0, 0), BuildingBlock: TEMPAE_clean_linker_10, # of connection points: 2
#     Edge 45, Type (0, 0), BuildingBlock: TEMPAE_clean_linker_10, # of connection points: 2
#     Edge 46, Type (0, 0), BuildingBlock: TEMPAE_clean_linker_10, # of connection points: 2
#     Edge 47, Type (0, 0), BuildingBlock: TEMPAE_clean_linker_10, # of connection points: 2
#     Edge 48, Type (0, 0), BuildingBlock: TEMPAE_clean_linker_10, # of connection points: 2
#     Edge 49, Type (0, 0), BuildingBlock: TEMPAE_clean_linker_10, # of connection points: 2
#     Edge 50, Type (0, 0), BuildingBlock: TEMPAE_clean_linker_10, # of connection points: 2
#     Edge 51, Type (0, 0), BuildingBlock: TEMPAE_clean_linker_10, # of connection points: 2
#     Edge 52, Type (0, 0), BuildingBlock: TEMPAE_clean_linker_10, # of connection points: 2
#     Edge 53, Type (0, 0), BuildingBlock: TEMPAE_clean_linker_10, # of connection points: 2
#     Edge 54, Type (0, 0), BuildingBlock: TEMPAE_clean_linker_10, # of connection points: 2
#     Edge 55, Type (0, 0), BuildingBlock: TEMPAE_clean_linker_10, # of connection points: 2
#     Edge 56, Type (0, 0), BuildingBlock: TEMPAE_clean_linker_10, # of connection points: 2
#     Edge 57, Type (0, 0), BuildingBlock: TEMPAE_clean_linker_10, # of connection points: 2
#     Edge 58, Type (0, 0), BuildingBlock: TEMPAE_clean_linker_10, # of connection points: 2
#     Edge 59, Type (0, 0), BuildingBlock: TEMPAE_clean_linker_10, # of connection points: 2
#     Edge 60, Type (0, 0), BuildingBlock: TEMPAE_clean_linker_10, # of connection points: 2
#     Edge 61, Type (0, 0), BuildingBlock: TEMPAE_clean_linker_10, # of connection points: 2
#     Edge 62, Type (0, 0), BuildingBlock: TEMPAE_clean_linker_10, # of connection points: 2
#     Edge 63, Type (0, 0), BuildingBlock: TEMPAE_clean_linker_10, # of connection points: 2
#     Edge 64, Type (0, 0), BuildingBlock: TEMPAE_clean_linker_10, # of connection points: 2
#     Edge 65, Type (0, 0), BuildingBlock: TEMPAE_clean_linker_10, # of connection points: 2
#     Edge 66, Type (0, 0), BuildingBlock: TEMPAE_clean_linker_10, # of connection points: 2
#     Edge 67, Type (0, 0), BuildingBlock: TEMPAE_clean_linker_10, # of connection points: 2
#     Edge 68, Type (0, 0), BuildingBlock: TEMPAE_clean_linker_10, # of connection points: 2
#     Edge 69, Type (0, 0), BuildingBlock: TEMPAE_clean_linker_10, # of connection points: 2
#     Edge 70, Type (0, 0), BuildingBlock: TEMPAE_clean_linker_10, # of connection points: 2
#     Edge 71, Type (0, 0), BuildingBlock: TEMPAE_clean_linker_10, # of connection points: 2
#     Edge 72, Type (0, 0), BuildingBlock: TEMPAE_clean_linker_10, # of connection points: 2
#     Edge 73, Type (0, 0), BuildingBlock: TEMPAE_clean_linker_10, # of connection points: 2
#     Edge 74, Type (0, 0), BuildingBlock: TEMPAE_clean_linker_10, # of connection points: 2
#     Edge 75, Type (0, 0), BuildingBlock: TEMPAE_clean_linker_10, # of connection points: 2
#     Edge 76, Type (0, 0), BuildingBlock: TEMPAE_clean_linker_10, # of connection points: 2
#     Edge 77, Type (0, 0), BuildingBlock: TEMPAE_clean_linker_10, # of connection points: 2
#     Edge 78, Type (0, 0), BuildingBlock: TEMPAE_clean_linker_10, # of connection points: 2
#     Edge 79, Type (0, 0), BuildingBlock: TEMPAE_clean_linker_10, # of connection points: 2
#     Edge 80, Type (0, 0), BuildingBlock: TEMPAE_clean_linker_10, # of connection points: 2
#     Edge 81, Type (0, 0), BuildingBlock: TEMPAE_clean_linker_10, # of connection points: 2
#     Edge 82, Type (0, 0), BuildingBlock: TEMPAE_clean_linker_10, # of connection points: 2
#     Edge 83, Type (0, 0), BuildingBlock: TEMPAE_clean_linker_10, # of connection points: 2
#     Edge 84, Type (0, 0), BuildingBlock: TEMPAE_clean_linker_10, # of connection points: 2
#     Edge 85, Type (0, 0), BuildingBlock: TEMPAE_clean_linker_10, # of connection points: 2
#     Edge 86, Type (0, 0), BuildingBlock: TEMPAE_clean_linker_10, # of connection points: 2
#     Edge 87, Type (0, 0), BuildingBlock: TEMPAE_clean_linker_10, # of connection points: 2
#     Edge 88, Type (0, 0), BuildingBlock: TEMPAE_clean_linker_10, # of connection points: 2
#     Edge 89, Type (0, 0), BuildingBlock: TEMPAE_clean_linker_10, # of connection points: 2
#     Edge 90, Type (0, 0), BuildingBlock: TEMPAE_clean_linker_10, # of connection points: 2
#     Edge 91, Type (0, 0), BuildingBlock: TEMPAE_clean_linker_10, # of connection points: 2
#     Edge 92, Type (0, 0), BuildingBlock: TEMPAE_clean_linker_10, # of connection points: 2
#     Edge 93, Type (0, 0), BuildingBlock: TEMPAE_clean_linker_10, # of connection points: 2
#     Edge 94, Type (0, 0), BuildingBlock: TEMPAE_clean_linker_10, # of connection points: 2
#     Edge 95, Type (0, 0), BuildingBlock: TEMPAE_clean_linker_10, # of connection points: 2
# Relax obj value: 0.091
# Max RMSD: 0.104
# Mean RMSD: 0.104
data_MOF--net-umq--node1-NAHDIM_clean_sbu_0--edge1-TEMPAE_clean_linker_10
_symmetry_space_group_name_H-M    P1
_symmetry_Int_Tables_number       1
_symmetry_cell_setting            triclinic
loop_
_symmetry_equiv_pos_as_xyz
'x, y, z'
_cell_length_a     68.109483
_cell_length_b     68.073052
_cell_length_c     43.810468
_cell_angle_alpha  89.984703
_cell_angle_beta   89.98023
_cell_angle_gamma 90.008393
loop_
_atom_site_label
_atom_site_type_symbol
_atom_site_fract_x
_atom_site_fract_y
_atom_site_fract_z
_atom_type_partial_charge
C0 C 0.23572 0.05495 0.1821 0.0
O1 O 0.22099 0.05679 0.16296 0.0
O2 O 0.2356 0.08841 0.11876 0.0
Zn3 Zn 0.24302 0.09405 0.16223 0.0
O4 O 0.22192 0.1094 0.1833 0.0
C5 C 0.2827 0.10585 0.14735 0.0
O6 O 0.28317 0.08907 0.13256 0.0
O7 O 0.24763 0.06915 0.18532 0.0
C8 C 0.21918 0.12722 0.17586 0.0
O9 O 0.22988 0.13488 0.1539 0.0
C10 C 0.21831 0.09023 0.10823 0.0
O11 O 0.204 0.09554 0.12658 0.0
O12 O 0.26732 0.11057 0.16201 0.0
C13 C 0.92572 0.23298 0.19831 0.0
O14 O 0.91587 0.21655 0.20192 0.0
O15 O 0.89107 0.23645 0.12498 0.0
Zn16 Zn 0.89013 0.24502 0.16879 0.0
O17 O 0.8746 0.2259 0.19409 0.0
C18 C 0.86146 0.27367 0.15447 0.0
O19 O 0.85518 0.259 0.13761 0.0
O20 O 0.91754 0.24737 0.18495 0.0
C21 C 0.86113 0.21534 0.18254 0.0
O22 O 0.85749 0.21664 0.15317 0.0
C23 C 0.9033 0.22425 0.114 0.0
O24 O 0.91635 0.21608 0.13204 0.0
O25 O 0.87681 0.27133 0.17052 0.0
C26 C 0.75952 0.93814 0.18288 0.0
O27 O 0.77467 0.93476 0.16506 0.0
O28 O 0.75688 0.90744 0.11703 0.0
Zn29 Zn 0.74974 0.90083 0.16031 0.0
O30 O 0.77116 0.88562 0.18062 0.0
C31 C 0.7133 0.88382 0.13879 0.0
O32 O 0.71597 0.89569 0.11551 0.0
O33 O 0.74588 0.92545 0.18432 0.0
C34 C 0.77369 0.86753 0.17481 0.0
O35 O 0.76253 0.859 0.15424 0.0
C36 C 0.77384 0.90515 0.10544 0.0
O37 O 0.78815 0.89819 0.12237 0.0
O38 O 0.72546 0.88411 0.16077 0.0
C39 C 0.0712 0.76572 0.21919 0.0
O40 O 0.08052 0.7826 0.22046 0.0
O41 O 0.09882 0.76023 0.136 0.0
Zn42 Zn 0.10356 0.75536 0.1804 0.0
O43 O 0.11922 0.77766 0.19769 0.0
C44 C 0.1163 0.71589 0.16755 0.0
O45 O 0.10115 0.71599 0.14899 0.0
O46 O 0.07827 0.7519 0.20311 0.0
C47 C 0.12886 0.77488 0.22211 0.0
O48 O 0.12793 0.75766 0.23558 0.0
C49 C 0.08651 0.77232 0.12498 0.0
O50 O 0.07546 0.78272 0.14349 0.0
O51 O 0.11977 0.73096 0.18376 0.0
C52 C 0.23936 0.93646 0.31937 0.0
O53 O 0.22589 0.93507 0.34073 0.0
O54 O 0.24294 0.90448 0.38418 0.0
Zn55 Zn 0.24746 0.89781 0.34008 0.0
O56 O 0.22458 0.8827 0.32361 0.0
C57 C 0.28463 0.87954 0.35638 0.0
O58 O 0.28415 0.89163 0.37973 0.0
O59 O 0.25096 0.92214 0.31502 0.0
C60 C 0.22678 0.87402 0.29819 0.0
O61 O 0.24356 0.87582 0.28364 0.0
C62 C 0.22609 0.90388 0.39663 0.0
O63 O 0.21072 0.89918 0.38005 0.0
O64 O 0.271 0.88022 0.33663 0.0
C65 C 0.06679 0.23985 0.26649 0.0
O66 O 0.08107 0.23494 0.24781 0.0
O67 O 0.09804 0.23584 0.35442 0.0
Zn68 Zn 0.0983 0.2412 0.30959 0.0
O69 O 0.11233 0.21934 0.28829 0.0
C70 C 0.11165 0.28106 0.31868 0.0
O71 O 0.09769 0.28148 0.33939 0.0
O72 O 0.0708 0.24362 0.29418 0.0
C73 C 0.12997 0.21609 0.29618 0.0
O74 O 0.13766 0.22661 0.31831 0.0
C75 C 0.09057 0.22043 0.36593 0.0
O76 O 0.08237 0.20738 0.3479 0.0
O77 O 0.11381 0.26574 0.3025 0.0
C78 C 0.76356 0.05678 0.3197 0.0
O79 O 0.7766 0.05765 0.34175 0.0
O80 O 0.76466 0.09068 0.38083 0.0
Zn81 Zn 0.75569 0.09651 0.33808 0.0
O82 O 0.7751 0.11367 0.31599 0.0
C83 C 0.72413 0.11953 0.36324 0.0
O84 O 0.73593 0.12025 0.38693 0.0
O85 O 0.75281 0.07163 0.31438 0.0
C86 C 0.77368 0.13228 0.31596 0.0
O87 O 0.75944 0.14066 0.33142 0.0
C88 C 0.7808 0.09661 0.39206 0.0
O89 O 0.79302 0.10663 0.37485 0.0
O90 O 0.72944 0.11005 0.33965 0.0
C91 C 0.93854 0.75347 0.31825 0.0
O92 O 0.93562 0.74641 0.3458 0.0
O93 O 0.89663 0.76842 0.36459 0.0
Zn94 Zn 0.89692 0.76219 0.31996 0.0
O95 O 0.88208 0.78277 0.29714 0.0
C96 C 0.88233 0.72332 0.33349 0.0
O97 O 0.89336 0.72504 0.35795 0.0
O98 O 0.92418 0.76061 0.30348 0.0
C99 C 0.8641 0.78514 0.3038 0.0
O100 O 0.85645 0.77473 0.32611 0.0
C101 C 0.90746 0.78102 0.37774 0.0
O102 O 0.92016 0.79116 0.36157 0.0
O103 O 0.88244 0.73696 0.31371 0.0
C104 C 0.76697 0.93947 0.7937 0.0
O105 O 0.78372 0.92993 0.79246 0.0
O106 O 0.76357 0.90436 0.86523 0.0
Zn107 Zn 0.7546 0.90366 0.82158 0.0
O108 O 0.77375 0.88814 0.79643 0.0
C109 C 0.72466 0.87685 0.84 0.0
O110 O 0.73718 0.87411 0.86239 0.0
O111 O 0.75207 0.93102 0.8052 0.0
C112 C 0.7808 0.87233 0.80724 0.0
O113 O 0.77591 0.86695 0.83502 0.0
C114 C 0.77444 0.9171 0.87799 0.0
O115 O 0.78118 0.93196 0.862 0.0
O116 O 0.7286 0.88953 0.81957 0.0
C117 C 0.05248 0.76431 0.81617 0.0
O118 O 0.05503 0.77911 0.83501 0.0
O119 O 0.0824 0.76065 0.88322 0.0
Zn120 Zn 0.08971 0.75403 0.83997 0.0
O121 O 0.10637 0.77519 0.82139 0.0
C122 C 0.12031 0.72803 0.85657 0.0
O123 O 0.12517 0.74342 0.87301 0.0
O124 O 0.06558 0.75109 0.81454 0.0
C125 C 0.11541 0.77151 0.79669 0.0
O126 O 0.11359 0.75403 0.7843 0.0
C127 C 0.08832 0.7761 0.89662 0.0
O128 O 0.09929 0.7887 0.88161 0.0
O129 O 0.10502 0.72887 0.84002 0.0
C130 C 0.22975 0.06864 0.78127 0.0
O131 O 0.22766 0.08294 0.76139 0.0
O132 O 0.22324 0.10161 0.86759 0.0
Zn133 Zn 0.23177 0.10066 0.82379 0.0
O134 O 0.21354 0.11681 0.79826 0.0
C135 C 0.26998 0.11451 0.84283 0.0
O136 O 0.26431 0.10793 0.86961 0.0
O137 O 0.23199 0.07281 0.80929 0.0
C138 C 0.2116 0.13491 0.80456 0.0
O139 O 0.22103 0.14216 0.82817 0.0
C140 C 0.21309 0.08815 0.88003 0.0
O141 O 0.2072 0.07316 0.86351 0.0
O142 O 0.2587 0.11243 0.81995 0.0
C143 C 0.93872 0.24203 0.80832 0.0
O144 O 0.93417 0.22643 0.82451 0.0
O145 O 0.90922 0.24559 0.87634 0.0
Zn146 Zn 0.90291 0.25466 0.83379 0.0
O147 O 0.88549 0.2353 0.81255 0.0
C148 C 0.88057 0.28645 0.85972 0.0
O149 O 0.88218 0.27574 0.88454 0.0
O150 O 0.92746 0.25689 0.80916 0.0
C151 C 0.86763 0.23294 0.82002 0.0
O152 O 0.8604 0.2431 0.8429 0.0
C153 C 0.90574 0.22842 0.88639 0.0
O154 O 0.89822 0.21517 0.86802 0.0
O155 O 0.88876 0.28061 0.83527 0.0
C156 C 0.76079 0.07941 0.71938 0.0
O157 O 0.76315 0.09419 0.73831 0.0
O158 O 0.76842 0.11 0.63105 0.0
Zn159 Zn 0.76071 0.11033 0.67508 0.0
O160 O 0.78013 0.12602 0.69913 0.0
C161 C 0.71941 0.11751 0.66463 0.0
O162 O 0.72038 0.1012 0.64868 0.0
O163 O 0.75917 0.08285 0.69101 0.0
C164 C 0.78117 0.14435 0.69398 0.0
O165 O 0.77004 0.15201 0.67256 0.0
C166 C 0.78099 0.09818 0.62006 0.0
O167 O 0.78979 0.08561 0.63826 0.0
O168 O 0.73465 0.12366 0.67834 0.0
C169 C 0.93342 0.76381 0.68005 0.0
O170 O 0.93183 0.7772 0.6586 0.0
O171 O 0.90014 0.76299 0.61825 0.0
Zn172 Zn 0.89406 0.75611 0.66187 0.0
O173 O 0.87859 0.77748 0.68217 0.0
C174 C 0.88193 0.71705 0.64479 0.0
O175 O 0.89696 0.71836 0.62609 0.0
O176 O 0.91898 0.7525 0.68533 0.0
C177 C 0.86005 0.77838 0.67938 0.0
O178 O 0.85103 0.76536 0.66226 0.0
C179 C 0.89571 0.77926 0.60583 0.0
O180 O 0.88674 0.79281 0.62198 0.0
O181 O 0.87822 0.73127 0.66265 0.0
C182 C 0.22415 0.92761 0.71216 0.0
O183 O 0.20729 0.9183 0.71041 0.0
O184 O 0.23152 0.89458 0.63868 0.0
Zn185 Zn 0.23867 0.89257 0.6831 0.0
O186 O 0.21955 0.87497 0.7049 0.0
C187 C 0.26713 0.86386 0.67116 0.0
O188 O 0.25183 0.85653 0.65687 0.0
O189 O 0.23958 0.91929 0.70225 0.0
C190 C 0.20213 0.87236 0.69536 0.0
O191 O 0.19614 0.88186 0.67097 0.0
C192 C 0.22563 0.91007 0.62534 0.0
O193 O 0.22346 0.92632 0.64113 0.0
O194 O 0.26527 0.88007 0.68521 0.0
C195 C 0.05498 0.2358 0.66676 0.0
O196 O 0.05486 0.22363 0.6435 0.0
O197 O 0.08896 0.2322 0.60642 0.0
Zn198 Zn 0.09512 0.2423 0.64848 0.0
O199 O 0.11245 0.22372 0.67175 0.0
C200 C 0.11783 0.27362 0.62141 0.0
O201 O 0.11904 0.26127 0.59845 0.0
O202 O 0.07045 0.2455 0.67263 0.0
C203 C 0.13106 0.22389 0.6698 0.0
O204 O 0.1396 0.23629 0.65104 0.0
C205 C 0.09797 0.21805 0.59372 0.0
O206 O 0.11179 0.20875 0.60881 0.0
O207 O 0.10832 0.26865 0.64516 0.0
C208 C 0.73938 0.54973 0.67977 0.0
O209 O 0.72256 0.55782 0.67224 0.0
O210 O 0.7465 0.57471 0.60052 0.0
Zn211 Zn 0.75299 0.58145 0.64394 0.0
O212 O 0.73189 0.59857 0.66165 0.0
C213 C 0.77842 0.61227 0.62824 0.0
O214 O 0.76295 0.61651 0.61158 0.0
O215 O 0.7552 0.55716 0.6696 0.0
C216 C 0.73482 0.60622 0.68768 0.0
O217 O 0.75153 0.60284 0.70172 0.0
C218 C 0.72898 0.57423 0.59053 0.0
O219 O 0.71438 0.57746 0.60946 0.0
O220 O 0.77808 0.5969 0.64468 0.0
C221 C 0.43823 0.72744 0.70845 0.0
O222 O 0.42876 0.71068 0.71048 0.0
O223 O 0.40212 0.73372 0.63619 0.0
Zn224 Zn 0.40213 0.73948 0.68103 0.0
O225 O 0.38789 0.71817 0.7035 0.0
C226 C 0.38679 0.7783 0.66889 0.0
O227 O 0.3981 0.77727 0.64464 0.0
O228 O 0.42969 0.74214 0.69649 0.0
C229 C 0.36992 0.71542 0.69707 0.0
O230 O 0.36184 0.72602 0.67539 0.0
C231 C 0.4101 0.71871 0.62426 0.0
O232 O 0.4191 0.70595 0.64186 0.0
O233 O 0.38691 0.76425 0.68797 0.0
C234 C 0.25533 0.43851 0.68403 0.0
O235 O 0.27328 0.43205 0.67949 0.0
O236 O 0.25625 0.41019 0.60747 0.0
Zn237 Zn 0.24744 0.40427 0.6502 0.0
O238 O 0.26809 0.3896 0.67346 0.0
C239 C 0.20894 0.38927 0.63203 0.0
O240 O 0.20759 0.40528 0.6154 0.0
O241 O 0.24104 0.42899 0.67274 0.0
C242 C 0.27124 0.37164 0.66735 0.0
O243 O 0.26157 0.36339 0.64478 0.0
C244 C 0.27394 0.40883 0.59845 0.0
O245 O 0.28768 0.40386 0.61801 0.0
O246 O 0.22405 0.38656 0.64845 0.0
C247 C 0.55466 0.2577 0.71891 0.0
O248 O 0.56322 0.27492 0.71626 0.0
O249 O 0.58247 0.25849 0.64324 0.0
Zn250 Zn 0.588 0.24672 0.68459 0.0
O251 O 0.60497 0.26469 0.70982 0.0
C252 C 0.61078 0.21617 0.65552 0.0
O253 O 0.61046 0.22842 0.63238 0.0
O254 O 0.56264 0.2428 0.70667 0.0
C255 C 0.6236 0.26373 0.70931 0.0
O256 O 0.63218 0.25086 0.69139 0.0
C257 C 0.5934 0.27146 0.6311 0.0
O258 O 0.60859 0.27815 0.64635 0.0
O259 O 0.60177 0.22069 0.67995 0.0
C260 C 0.73724 0.4337 0.82242 0.0
O261 O 0.73929 0.43589 0.85204 0.0
O262 O 0.72313 0.4008 0.88114 0.0
Zn263 Zn 0.72995 0.39307 0.83817 0.0
O264 O 0.70938 0.3757 0.81971 0.0
C265 C 0.77126 0.38478 0.84818 0.0
O266 O 0.77207 0.40318 0.85713 0.0
O267 O 0.73329 0.41682 0.81172 0.0
C268 C 0.70713 0.35826 0.82943 0.0
O269 O 0.71775 0.35219 0.85263 0.0
C270 C 0.70653 0.39819 0.89375 0.0
O271 O 0.69217 0.3902 0.87806 0.0
O272 O 0.75501 0.37775 0.83907 0.0
C273 C 0.57433 0.73827 0.79661 0.0
O274 O 0.57673 0.74608 0.82375 0.0
O275 O 0.61289 0.72355 0.84792 0.0
Zn276 Zn 0.61549 0.73013 0.8033 0.0
O277 O 0.63309 0.71069 0.78229 0.0
C278 C 0.6242 0.77074 0.81766 0.0
O279 O 0.61031 0.76843 0.83815 0.0
O280 O 0.58898 0.73061 0.78316 0.0
C281 C 0.63315 0.69239 0.78798 0.0
O282 O 0.62088 0.68533 0.80834 0.0
C283 C 0.59986 0.71228 0.85914 0.0
O284 O 0.58729 0.70357 0.84087 0.0
O285 O 0.62846 0.75655 0.80002 0.0
C286 C 0.24179 0.55829 0.81614 0.0
O287 O 0.23849 0.55698 0.84562 0.0
O288 O 0.258 0.59063 0.87396 0.0
Zn289 Zn 0.25282 0.59826 0.83049 0.0
O290 O 0.27588 0.6124 0.8126 0.0
C291 C 0.21544 0.615 0.84762 0.0
O292 O 0.21524 0.60048 0.86739 0.0
O293 O 0.24759 0.5745 0.80498 0.0
C294 C 0.28016 0.62962 0.82155 0.0
O295 O 0.2698 0.6376 0.84361 0.0
C296 C 0.2749 0.58745 0.88517 0.0
O297 O 0.29048 0.58912 0.86767 0.0
O298 O 0.22978 0.61656 0.82924 0.0
C299 C 0.4235 0.25131 0.82399 0.0
O300 O 0.42151 0.24714 0.85311 0.0
O301 O 0.38422 0.26896 0.87114 0.0
Zn302 Zn 0.38205 0.26113 0.82722 0.0
O303 O 0.36827 0.28198 0.80329 0.0
C304 C 0.37283 0.21916 0.82705 0.0
O305 O 0.39188 0.21661 0.82957 0.0
O306 O 0.40867 0.25709 0.80887 0.0
C307 C 0.3502 0.28541 0.80799 0.0
O308 O 0.34097 0.27559 0.82946 0.0
C309 C 0.39596 0.28188 0.88136 0.0
O310 O 0.40743 0.29139 0.86231 0.0
O311 O 0.36596 0.23647 0.82521 0.0
C312 C 0.25614 0.42953 0.30842 0.0
O313 O 0.24601 0.42699 0.33365 0.0
O314 O 0.27247 0.39039 0.36021 0.0
Zn315 Zn 0.26424 0.38848 0.3163 0.0
O316 O 0.28212 0.3704 0.2933 0.0
C317 C 0.2312 0.36558 0.33468 0.0
O318 O 0.24347 0.36069 0.35652 0.0
O319 O 0.26508 0.41499 0.29676 0.0
C320 C 0.28813 0.35435 0.30477 0.0
O321 O 0.28285 0.34969 0.33269 0.0
C322 C 0.28386 0.40337 0.37119 0.0
O323 O 0.29164 0.4166 0.353 0.0
O324 O 0.23674 0.37773 0.3144 0.0
C325 C 0.55637 0.25568 0.33221 0.0
O326 O 0.55479 0.26452 0.35875 0.0
O327 O 0.59361 0.25913 0.39097 0.0
Zn328 Zn 0.59801 0.25464 0.3463 0.0
O329 O 0.61156 0.27761 0.32729 0.0
C330 C 0.61204 0.21507 0.35461 0.0
O331 O 0.5955 0.21294 0.36968 0.0
O332 O 0.57311 0.24985 0.32324 0.0
C333 C 0.62915 0.28163 0.3345 0.0
O334 O 0.63786 0.27117 0.35577 0.0
C335 C 0.59005 0.27568 0.40318 0.0
O336 O 0.58819 0.29131 0.38583 0.0
O337 O 0.61585 0.23148 0.34213 0.0
C338 C 0.72559 0.57893 0.26673 0.0
O339 O 0.71017 0.58993 0.26109 0.0
O340 O 0.727 0.60316 0.35441 0.0
Zn341 Zn 0.73516 0.60906 0.31135 0.0
O342 O 0.71631 0.62788 0.29175 0.0
C343 C 0.76333 0.63705 0.33 0.0
O344 O 0.74796 0.64353 0.34509 0.0
O345 O 0.7378 0.58428 0.287 0.0
C346 C 0.69811 0.6282 0.29809 0.0
O347 O 0.69107 0.61556 0.31795 0.0
C348 C 0.72078 0.58663 0.3638 0.0
O349 O 0.71868 0.57213 0.34429 0.0
O350 O 0.76149 0.62196 0.31323 0.0
C351 C 0.44236 0.73816 0.3216 0.0
O352 O 0.44516 0.74024 0.35109 0.0
O353 O 0.40862 0.72543 0.38106 0.0
Zn354 Zn 0.40134 0.73292 0.33813 0.0
O355 O 0.38383 0.7126 0.31928 0.0
C356 C 0.37117 0.75987 0.35385 0.0
O357 O 0.36444 0.74408 0.3676 0.0
O358 O 0.42512 0.73518 0.31161 0.0
C359 C 0.37512 0.71668 0.29445 0.0
O360 O 0.37755 0.73418 0.28235 0.0
C361 C 0.39884 0.71286 0.3962 0.0
O362 O 0.38403 0.70385 0.38306 0.0
O363 O 0.38723 0.75879 0.33922 0.0
C364 C 0.26919 0.56218 0.20836 0.0
O365 O 0.28447 0.57338 0.21399 0.0
O366 O 0.26668 0.59198 0.12579 0.0
Zn367 Zn 0.2578 0.59443 0.16932 0.0
O368 O 0.27575 0.61264 0.19209 0.0
C369 C 0.22892 0.62189 0.15227 0.0
O370 O 0.24377 0.62795 0.13558 0.0
O371 O 0.25614 0.56814 0.18985 0.0
C372 C 0.29353 0.61541 0.18444 0.0
O373 O 0.30082 0.60562 0.16121 0.0
C374 C 0.27284 0.57646 0.11285 0.0
O375 O 0.27408 0.56008 0.12859 0.0
O376 O 0.23119 0.60693 0.16922 0.0
C377 C 0.442 0.25603 0.18676 0.0
O378 O 0.43674 0.27278 0.17429 0.0
O379 O 0.41245 0.25398 0.11609 0.0
Zn380 Zn 0.4068 0.24365 0.15821 0.0
O381 O 0.38932 0.26228 0.18115 0.0
C382 C 0.3839 0.21243 0.1316 0.0
O383 O 0.38335 0.2245 0.10821 0.0
O384 O 0.43153 0.24088 0.1822 0.0
C385 C 0.37074 0.26197 0.17877 0.0
O386 O 0.36247 0.24923 0.16029 0.0
C387 C 0.40804 0.27128 0.10757 0.0
O388 O 0.4002 0.28351 0.1273 0.0
O389 O 0.39339 0.21739 0.15536 0.0
C390 C 0.73931 0.44393 0.17619 0.0
O391 O 0.74657 0.44028 0.14899 0.0
O392 O 0.72372 0.40055 0.1337 0.0
Zn393 Zn 0.73148 0.40205 0.17776 0.0
O394 O 0.71196 0.38747 0.20316 0.0
C395 C 0.77084 0.38925 0.16291 0.0
O396 O 0.76847 0.40061 0.13895 0.0
O397 O 0.73257 0.42987 0.19211 0.0
C398 C 0.71008 0.36914 0.19878 0.0
O399 O 0.72041 0.36071 0.17709 0.0
C400 C 0.71083 0.41144 0.12133 0.0
O401 O 0.70163 0.42462 0.13792 0.0
O402 O 0.75734 0.38842 0.18288 0.0
C403 C 0.55647 0.73068 0.17573 0.0
O404 O 0.56429 0.71343 0.16988 0.0
O405 O 0.58437 0.73492 0.09793 0.0
Zn406 Zn 0.58952 0.743 0.14133 0.0
O407 O 0.60625 0.72301 0.1627 0.0
C408 C 0.62097 0.76872 0.12866 0.0
O409 O 0.62775 0.75242 0.11652 0.0
O410 O 0.5645 0.74598 0.16482 0.0
C411 C 0.61183 0.72635 0.18986 0.0
O412 O 0.60667 0.7429 0.20305 0.0
C413 C 0.58993 0.71848 0.08723 0.0
O414 O 0.59855 0.70578 0.1054 0.0
O415 O 0.60411 0.76855 0.14104 0.0
C416 C 0.35813 0.19104 0.10831 0.0
C417 C 0.37178 0.1944 0.1317 0.0
C418 C 0.34497 0.17523 0.10985 0.0
C419 C 0.34559 0.1624 0.13526 0.0
C420 C 0.36003 0.16508 0.15811 0.0
C421 C 0.37291 0.18111 0.15612 0.0
C422 C 0.32973 0.17288 0.08508 0.0
C423 C 0.36129 0.15156 0.18536 0.0
C424 C 0.2975 0.13866 0.15809 0.0
C425 C 0.29931 0.11983 0.14542 0.0
C426 C 0.31257 0.15253 0.15517 0.0
C427 C 0.32996 0.14742 0.13939 0.0
C428 C 0.3321 0.12832 0.12708 0.0
C429 C 0.31669 0.11474 0.13014 0.0
C430 C 0.3097 0.1728 0.16851 0.0
C431 C 0.35053 0.12234 0.11033 0.0
H432 H 0.35721 0.20119 0.0893 0.0
H433 H 0.38354 0.18351 0.17414 0.0
H434 H 0.32967 0.15758 0.07638 0.0
H435 H 0.31493 0.17586 0.09463 0.0
H436 H 0.33228 0.18303 0.06561 0.0
H437 H 0.37464 0.15432 0.19927 0.0
H438 H 0.3482 0.15368 0.20008 0.0
H439 H 0.36132 0.13599 0.17789 0.0
H440 H 0.28412 0.14274 0.1699 0.0
H441 H 0.31821 0.1002 0.12036 0.0
H442 H 0.31042 0.18398 0.15011 0.0
H443 H 0.32164 0.17614 0.18492 0.0
H444 H 0.29539 0.17432 0.18048 0.0
H445 H 0.35237 0.13155 0.08963 0.0
H446 H 0.35025 0.10666 0.10334 0.0
H447 H 0.36358 0.12485 0.12498 0.0
C448 C 0.83211 0.29372 0.14079 0.0
C449 C 0.85035 0.29233 0.15544 0.0
C450 C 0.82089 0.31093 0.14249 0.0
C451 C 0.82815 0.32723 0.15905 0.0
C452 C 0.84678 0.32615 0.17324 0.0
C453 C 0.85764 0.30865 0.17139 0.0
C454 C 0.80102 0.31147 0.12716 0.0
C455 C 0.85505 0.34333 0.19081 0.0
C456 C 0.8017 0.37488 0.14127 0.0
C457 C 0.78746 0.37528 0.1644 0.0
C458 C 0.81586 0.3599 0.14018 0.0
C459 C 0.81564 0.34495 0.16264 0.0
C460 C 0.80202 0.34591 0.18699 0.0
C461 C 0.78815 0.3611 0.18764 0.0
C462 C 0.83034 0.3595 0.11409 0.0
C463 C 0.80129 0.33022 0.21136 0.0
H464 H 0.82637 0.2812 0.12839 0.0
H465 H 0.87179 0.30773 0.18262 0.0
H466 H 0.78938 0.31372 0.14455 0.0
H467 H 0.80026 0.324 0.11101 0.0
H468 H 0.79776 0.29773 0.11446 0.0
H469 H 0.87031 0.3406 0.19873 0.0
H470 H 0.85495 0.35674 0.17642 0.0
H471 H 0.84571 0.34637 0.21102 0.0
H472 H 0.80138 0.38587 0.12336 0.0
H473 H 0.77729 0.36134 0.20573 0.0
H474 H 0.8266 0.34729 0.09838 0.0
H475 H 0.84542 0.35679 0.12269 0.0
H476 H 0.83029 0.37344 0.10089 0.0
H477 H 0.79645 0.31613 0.20109 0.0
H478 H 0.79104 0.33405 0.23017 0.0
H479 H 0.81611 0.32779 0.22116 0.0
C480 C 0.62583 0.80425 0.14147 0.0
C481 C 0.63312 0.78674 0.1289 0.0
C482 C 0.63754 0.8212 0.14286 0.0
C483 C 0.65698 0.82057 0.13153 0.0
C484 C 0.66429 0.80306 0.11833 0.0
C485 C 0.65226 0.78637 0.11713 0.0
C486 C 0.62923 0.83965 0.15696 0.0
C487 C 0.68498 0.80182 0.10604 0.0
C488 C 0.68515 0.86715 0.1127 0.0
C489 C 0.69755 0.86884 0.13813 0.0
C490 C 0.6714 0.85185 0.11063 0.0
C491 C 0.67006 0.83793 0.13455 0.0
C492 C 0.68205 0.83995 0.16073 0.0
C493 C 0.69563 0.85539 0.16222 0.0
C494 C 0.65878 0.85019 0.08242 0.0
C495 C 0.68102 0.82541 0.18673 0.0
H496 H 0.61102 0.80468 0.15051 0.0
H497 H 0.658 0.77292 0.10733 0.0
H498 H 0.6377 0.84351 0.17774 0.0
H499 H 0.63065 0.85214 0.14083 0.0
H500 H 0.61353 0.83801 0.16333 0.0
H501 H 0.6882 0.78731 0.09559 0.0
H502 H 0.68741 0.81341 0.08863 0.0
H503 H 0.69564 0.80443 0.12476 0.0
H504 H 0.68649 0.87751 0.09402 0.0
H505 H 0.7051 0.85661 0.18201 0.0
H506 H 0.64307 0.84894 0.08886 0.0
H507 H 0.66271 0.83666 0.0697 0.0
H508 H 0.66057 0.86299 0.06693 0.0
H509 H 0.66569 0.82404 0.19505 0.0
H510 H 0.69055 0.82969 0.2062 0.0
H511 H 0.68565 0.81069 0.17859 0.0
C512 C 0.19494 0.62762 0.17227 0.0
C513 C 0.21039 0.6332 0.15291 0.0
C514 C 0.17796 0.63918 0.1748 0.0
C515 C 0.17646 0.65672 0.15761 0.0
C516 C 0.19167 0.66201 0.13718 0.0
C517 C 0.20844 0.65018 0.13506 0.0
C518 C 0.16196 0.63302 0.19666 0.0
C519 C 0.19058 0.6806 0.1184 0.0
C520 C 0.12837 0.6839 0.14647 0.0
C521 C 0.13044 0.69941 0.1673 0.0
C522 C 0.14287 0.66934 0.14388 0.0
C523 C 0.15979 0.67039 0.16255 0.0
C524 C 0.16152 0.6855 0.18456 0.0
C525 C 0.14681 0.6998 0.1867 0.0
C526 C 0.14049 0.65335 0.1203 0.0
C527 C 0.17933 0.68707 0.20498 0.0
H528 H 0.19629 0.61445 0.18602 0.0
H529 H 0.22024 0.65453 0.11989 0.0
H530 H 0.1612 0.6436 0.21589 0.0
H531 H 0.14747 0.63325 0.1851 0.0
H532 H 0.1645 0.6181 0.20613 0.0
H533 H 0.20307 0.68198 0.10222 0.0
H534 H 0.17668 0.68102 0.10524 0.0
H535 H 0.19064 0.69357 0.13375 0.0
H536 H 0.11571 0.68344 0.13149 0.0
H537 H 0.14846 0.71165 0.20303 0.0
H538 H 0.14317 0.63873 0.13067 0.0
H539 H 0.15151 0.65538 0.10191 0.0
H540 H 0.12563 0.6534 0.10986 0.0
H541 H 0.18192 0.67295 0.21697 0.0
H542 H 0.17779 0.69889 0.22228 0.0
H543 H 0.19253 0.69017 0.19093 0.0
C544 C 0.31375 0.86172 0.37769 0.0
C545 C 0.29963 0.86384 0.35462 0.0
C546 C 0.32679 0.84575 0.37769 0.0
C547 C 0.32563 0.83158 0.35411 0.0
C548 C 0.3119 0.83404 0.33018 0.0
C549 C 0.2991 0.85014 0.33069 0.0
C550 C 0.34134 0.84366 0.40349 0.0
C551 C 0.31023 0.81925 0.3046 0.0
C552 C 0.36718 0.79543 0.34047 0.0
C553 C 0.35995 0.77848 0.35485 0.0
C554 C 0.35637 0.81298 0.34058 0.0
C555 C 0.33789 0.81355 0.35532 0.0
C556 C 0.33066 0.79659 0.37027 0.0
C557 C 0.3418 0.77927 0.36989 0.0
C558 C 0.36455 0.83082 0.3245 0.0
C559 C 0.31099 0.79662 0.3862 0.0
H560 H 0.31431 0.87226 0.3962 0.0
H561 H 0.2883 0.8517 0.31269 0.0
H562 H 0.33766 0.8305 0.4173 0.0
H563 H 0.35636 0.84145 0.3943 0.0
H564 H 0.34143 0.85669 0.41874 0.0
H565 H 0.29958 0.8239 0.28681 0.0
H566 H 0.32475 0.81696 0.29368 0.0
H567 H 0.30543 0.80488 0.31394 0.0
H568 H 0.38124 0.79496 0.32889 0.0
H569 H 0.33612 0.76626 0.38111 0.0
H570 H 0.36505 0.8435 0.34039 0.0
H571 H 0.35479 0.83498 0.30528 0.0
H572 H 0.37955 0.82823 0.31538 0.0
H573 H 0.31052 0.80844 0.4036 0.0
H574 H 0.30777 0.78238 0.39757 0.0
H575 H 0.29917 0.79969 0.36944 0.0
C576 C 0.19779 0.3623 0.31122 0.0
C577 C 0.21173 0.35603 0.3327 0.0
C578 C 0.1798 0.35244 0.30797 0.0
C579 C 0.17582 0.33582 0.32637 0.0
C580 C 0.18959 0.3298 0.34867 0.0
C581 C 0.20733 0.34004 0.35168 0.0
C582 C 0.16531 0.35945 0.28429 0.0
C583 C 0.18595 0.31205 0.36862 0.0
C584 C 0.12531 0.31325 0.33656 0.0
C585 C 0.12661 0.29682 0.31734 0.0
C586 C 0.14081 0.32681 0.33848 0.0
C587 C 0.15801 0.32371 0.32099 0.0
C588 C 0.15893 0.30776 0.30034 0.0
C589 C 0.14319 0.29457 0.29865 0.0
C590 C 0.13918 0.34385 0.36039 0.0
C591 C 0.17705 0.30391 0.28133 0.0
H592 H 0.20104 0.37475 0.29665 0.0
H593 H 0.21799 0.33512 0.36837 0.0
H594 H 0.16411 0.3484 0.26579 0.0
H595 H 0.1505 0.36107 0.29455 0.0
H596 H 0.16971 0.37371 0.27403 0.0
H597 H 0.19776 0.30983 0.38576 0.0
H598 H 0.17175 0.31359 0.3808 0.0
H599 H 0.18496 0.29868 0.3542 0.0
H600 H 0.11249 0.31518 0.3509 0.0
H601 H 0.14428 0.28199 0.28358 0.0
H602 H 0.14388 0.35769 0.3492 0.0
H603 H 0.14908 0.34136 0.38012 0.0
H604 H 0.12398 0.34573 0.36911 0.0
H605 H 0.18137 0.31734 0.26867 0.0
H606 H 0.17483 0.2918 0.26469 0.0
H607 H 0.18946 0.29994 0.29653 0.0
C608 C 0.70167 0.14428 0.38671 0.0
C609 C 0.70574 0.13108 0.36297 0.0
C610 C 0.68521 0.15661 0.38551 0.0
C611 C 0.67244 0.1556 0.36007 0.0
C612 C 0.67598 0.14171 0.33668 0.0
C613 C 0.69265 0.12966 0.33834 0.0
C614 C 0.68195 0.1713 0.41084 0.0
C615 C 0.66255 0.14008 0.30938 0.0
C616 C 0.62308 0.18104 0.36812 0.0
C617 C 0.62688 0.1992 0.35416 0.0
C618 C 0.6376 0.16643 0.36953 0.0
C619 C 0.65635 0.17017 0.35686 0.0
C620 C 0.66011 0.18827 0.3421 0.0
C621 C 0.64531 0.20254 0.34085 0.0
C622 C 0.63305 0.1472 0.38519 0.0
C623 C 0.67995 0.19282 0.32837 0.0
H624 H 0.71167 0.14543 0.40586 0.0
H625 H 0.69562 0.11938 0.32002 0.0
H626 H 0.68359 0.18643 0.40173 0.0
H627 H 0.66682 0.16998 0.41996 0.0
H628 H 0.69249 0.16934 0.42995 0.0
H629 H 0.66627 0.1273 0.29471 0.0
H630 H 0.64706 0.13868 0.31689 0.0
H631 H 0.66363 0.15364 0.29542 0.0
H632 H 0.60884 0.17833 0.37836 0.0
H633 H 0.64839 0.21651 0.32997 0.0
H634 H 0.6423 0.14566 0.40589 0.0
H635 H 0.63663 0.13471 0.36991 0.0
H636 H 0.61739 0.14609 0.39204 0.0
H637 H 0.69132 0.19271 0.3465 0.0
H638 H 0.68028 0.20736 0.31685 0.0
H639 H 0.68402 0.18137 0.3115 0.0
C640 C 0.79912 0.63977 0.31772 0.0
C641 C 0.7823 0.64755 0.33171 0.0
C642 C 0.81698 0.65005 0.3181 0.0
C643 C 0.81794 0.6686 0.33257 0.0
C644 C 0.80113 0.67631 0.34734 0.0
C645 C 0.78353 0.66565 0.34683 0.0
C646 C 0.83468 0.6413 0.3024 0.0
C647 C 0.80156 0.6961 0.36291 0.0
C648 C 0.86581 0.69333 0.3544 0.0
C649 C 0.86765 0.70738 0.33114 0.0
C650 C 0.85018 0.67988 0.35443 0.0
C651 C 0.83607 0.68063 0.33075 0.0
C652 C 0.83844 0.69408 0.30641 0.0
C653 C 0.85424 0.70724 0.30684 0.0
C654 C 0.84824 0.66554 0.38056 0.0
C655 C 0.8237 0.69532 0.28072 0.0
H656 H 0.79832 0.62571 0.30619 0.0
H657 H 0.77061 0.67174 0.35776 0.0
H658 H 0.83879 0.65049 0.28249 0.0
H659 H 0.84744 0.64115 0.31814 0.0
H660 H 0.83193 0.62608 0.29432 0.0
H661 H 0.78745 0.69964 0.37439 0.0
H662 H 0.81348 0.69651 0.38016 0.0
H663 H 0.80474 0.70775 0.34588 0.0
H664 H 0.87618 0.69326 0.37317 0.0
H665 H 0.85561 0.71796 0.28866 0.0
H666 H 0.84546 0.6505 0.37182 0.0
H667 H 0.8355 0.6697 0.39495 0.0
H668 H 0.86158 0.66525 0.39515 0.0
H669 H 0.82128 0.6806 0.27052 0.0
H670 H 0.82844 0.70557 0.26241 0.0
H671 H 0.80938 0.70044 0.28981 0.0
C672 C 0.69345 0.86686 0.8139 0.0
C673 C 0.70732 0.86391 0.83712 0.0
C674 C 0.67792 0.85357 0.80957 0.0
C675 C 0.67644 0.83686 0.82867 0.0
C676 C 0.69001 0.83419 0.85277 0.0
C677 C 0.7052 0.8478 0.8568 0.0
C678 C 0.6635 0.85704 0.78397 0.0
C679 C 0.689 0.8165 0.87356 0.0
C680 C 0.631 0.805 0.83549 0.0
C681 C 0.63625 0.78881 0.81743 0.0
C682 C 0.64345 0.82135 0.83801 0.0
C683 C 0.66165 0.82135 0.82243 0.0
C684 C 0.6666 0.80546 0.80307 0.0
C685 C 0.65378 0.78944 0.80066 0.0
C686 C 0.63754 0.8382 0.85845 0.0
C687 C 0.68595 0.80486 0.78621 0.0
H688 H 0.69491 0.87936 0.79874 0.0
H689 H 0.71581 0.84542 0.87486 0.0
H690 H 0.66548 0.84566 0.76612 0.0
H691 H 0.64822 0.85577 0.79252 0.0
H692 H 0.66542 0.87172 0.7733 0.0
H693 H 0.70017 0.81704 0.89201 0.0
H694 H 0.67424 0.81541 0.88415 0.0
H695 H 0.69135 0.80291 0.86005 0.0
H696 H 0.61738 0.80471 0.84827 0.0
H697 H 0.65793 0.77703 0.78656 0.0
H698 H 0.63981 0.85244 0.84664 0.0
H699 H 0.6469 0.83825 0.87916 0.0
H700 H 0.62194 0.83715 0.86571 0.0
H701 H 0.68811 0.81857 0.77295 0.0
H702 H 0.68694 0.79216 0.77036 0.0
H703 H 0.69817 0.80384 0.80288 0.0
C704 C 0.15007 0.70975 0.87405 0.0
C705 C 0.1329 0.71031 0.85641 0.0
C706 C 0.16265 0.69346 0.8731 0.0
C707 C 0.15794 0.67733 0.85407 0.0
C708 C 0.14041 0.67759 0.83674 0.0
C709 C 0.1281 0.6941 0.83809 0.0
C710 C 0.18122 0.6937 0.89194 0.0
C711 C 0.1349 0.66063 0.81625 0.0
C712 C 0.20079 0.64612 0.82775 0.0
C713 C 0.19992 0.63022 0.84808 0.0
C714 C 0.18697 0.66135 0.82908 0.0
C715 C 0.17187 0.66065 0.85126 0.0
C716 C 0.17059 0.64442 0.87137 0.0
C717 C 0.18465 0.62938 0.86954 0.0
C718 C 0.1888 0.67842 0.80722 0.0
C719 C 0.15465 0.64317 0.89525 0.0
H720 H 0.15386 0.72218 0.88834 0.0
H721 H 0.11482 0.69439 0.82446 0.0
H722 H 0.18186 0.68051 0.90677 0.0
H723 H 0.19421 0.69322 0.87666 0.0
H724 H 0.18232 0.707 0.90654 0.0
H725 H 0.12027 0.66267 0.80551 0.0
H726 H 0.14602 0.659 0.79792 0.0
H727 H 0.13478 0.64672 0.82945 0.0
H728 H 0.21251 0.64689 0.81103 0.0
H729 H 0.18385 0.61713 0.8853 0.0
H730 H 0.19151 0.69216 0.82017 0.0
H731 H 0.17489 0.68041 0.79443 0.0
H732 H 0.20094 0.67636 0.79058 0.0
H733 H 0.15623 0.65547 0.91168 0.0
H734 H 0.1551 0.62911 0.9081 0.0
H735 H 0.14001 0.64466 0.88441 0.0
C736 C 0.33893 0.20531 0.82851 0.0
C737 C 0.35928 0.20218 0.8279 0.0
C738 C 0.32579 0.18955 0.83052 0.0
C739 C 0.33315 0.17012 0.83175 0.0
C740 C 0.35365 0.16678 0.83068 0.0
C741 C 0.36651 0.18288 0.82887 0.0
C742 C 0.30401 0.19372 0.83173 0.0
C743 C 0.36197 0.14624 0.83168 0.0
C744 C 0.29744 0.13365 0.86613 0.0
C745 C 0.28803 0.12643 0.83997 0.0
C746 C 0.31289 0.14719 0.86376 0.0
C747 C 0.31919 0.15346 0.83454 0.0
C748 C 0.31059 0.14526 0.80805 0.0
C749 C 0.29503 0.13192 0.81108 0.0
C750 C 0.32164 0.15568 0.89255 0.0
C751 C 0.31711 0.15137 0.7765 0.0
H752 H 0.3332 0.22016 0.8278 0.0
H753 H 0.38221 0.18034 0.82834 0.0
H754 H 0.29647 0.18624 0.81254 0.0
H755 H 0.29773 0.1878 0.85322 0.0
H756 H 0.30071 0.20968 0.83048 0.0
H757 H 0.37823 0.14611 0.82966 0.0
H758 H 0.35781 0.13901 0.85343 0.0
H759 H 0.3557 0.13729 0.8129 0.0
H760 H 0.29216 0.12945 0.88854 0.0
H761 H 0.28796 0.12622 0.79076 0.0
H762 H 0.31747 0.17139 0.89453 0.0
H763 H 0.3379 0.15502 0.8917 0.0
H764 H 0.31653 0.14787 0.91335 0.0
H765 H 0.31254 0.16676 0.77216 0.0
H766 H 0.3107 0.14188 0.75843 0.0
H767 H 0.33335 0.15083 0.77466 0.0
C768 C 0.86505 0.31483 0.83255 0.0
C769 C 0.86746 0.30378 0.85933 0.0
C770 C 0.85094 0.3298 0.83084 0.0
C771 C 0.83892 0.33372 0.85648 0.0
C772 C 0.84197 0.32333 0.88405 0.0
C773 C 0.85625 0.30851 0.88516 0.0
C774 C 0.84823 0.34071 0.80113 0.0
C775 C 0.82944 0.3271 0.91188 0.0
C776 C 0.80706 0.37956 0.85882 0.0
C777 C 0.78883 0.37204 0.84954 0.0
C778 C 0.82364 0.36734 0.86085 0.0
C779 C 0.82185 0.34716 0.85355 0.0
C780 C 0.80354 0.33955 0.84393 0.0
C781 C 0.78729 0.35208 0.84198 0.0
C782 C 0.84298 0.37595 0.87104 0.0
C783 C 0.80104 0.31809 0.83603 0.0
H784 H 0.87377 0.31138 0.81255 0.0
H785 H 0.85808 0.30013 0.90601 0.0
H786 H 0.83402 0.33642 0.79067 0.0
H787 H 0.84771 0.35678 0.80522 0.0
H788 H 0.86016 0.33752 0.78456 0.0
H789 H 0.83491 0.31915 0.93233 0.0
H790 H 0.82895 0.34304 0.91709 0.0
H791 H 0.81416 0.32228 0.9073 0.0
H792 H 0.80838 0.39497 0.86464 0.0
H793 H 0.77327 0.34612 0.8348 0.0
H794 H 0.85446 0.37305 0.85365 0.0
H795 H 0.8478 0.36879 0.89252 0.0
H796 H 0.84206 0.39205 0.87494 0.0
H797 H 0.81132 0.31395 0.81747 0.0
H798 H 0.78585 0.31456 0.82859 0.0
H799 H 0.80465 0.30887 0.85614 0.0
C800 C 0.62329 0.18498 0.67866 0.0
C801 C 0.62358 0.19863 0.65467 0.0
C802 C 0.63704 0.16966 0.67995 0.0
C803 C 0.65152 0.16813 0.65691 0.0
C804 C 0.65123 0.18123 0.63182 0.0
C805 C 0.63718 0.19627 0.63092 0.0
C806 C 0.6367 0.15575 0.7068 0.0
C807 C 0.66649 0.18014 0.60685 0.0
C808 C 0.70157 0.14828 0.67821 0.0
C809 C 0.7014 0.12966 0.66452 0.0
C810 C 0.68526 0.16073 0.67636 0.0
C811 C 0.66825 0.15436 0.66067 0.0
C812 C 0.66769 0.13535 0.64765 0.0
C813 C 0.68434 0.12322 0.64961 0.0
C814 C 0.68646 0.18096 0.69045 0.0
C815 C 0.64971 0.12801 0.63107 0.0
H816 H 0.61268 0.18659 0.69693 0.0
H817 H 0.63746 0.20671 0.61223 0.0
H818 H 0.638 0.14031 0.69894 0.0
H819 H 0.64944 0.15879 0.72184 0.0
H820 H 0.62306 0.15725 0.72051 0.0
H821 H 0.66316 0.19021 0.58759 0.0
H822 H 0.68108 0.1841 0.61631 0.0
H823 H 0.6676 0.16495 0.59788 0.0
H824 H 0.71467 0.15339 0.6898 0.0
H825 H 0.68407 0.10882 0.63908 0.0
H826 H 0.67427 0.1831 0.70691 0.0
H827 H 0.68487 0.19231 0.67243 0.0
H828 H 0.70058 0.18346 0.70253 0.0
H829 H 0.6365 0.12972 0.64566 0.0
H830 H 0.65107 0.11234 0.62431 0.0
H831 H 0.64728 0.13692 0.61021 0.0
C832 C 0.79514 0.64314 0.61174 0.0
C833 C 0.79534 0.62591 0.62928 0.0
C834 C 0.81035 0.65694 0.61392 0.0
C835 C 0.82617 0.65341 0.63412 0.0
C836 C 0.82679 0.63578 0.65122 0.0
C837 C 0.81134 0.62222 0.64862 0.0
C838 C 0.80918 0.67557 0.59527 0.0
C839 C 0.84348 0.6315 0.67289 0.0
C840 C 0.87166 0.6848 0.62234 0.0
C841 C 0.86858 0.69989 0.6436 0.0
C842 C 0.85827 0.66921 0.61957 0.0
C843 C 0.84144 0.66875 0.63851 0.0
C844 C 0.83857 0.68362 0.66063 0.0
C845 C 0.85218 0.699 0.66292 0.0
C846 C 0.86183 0.65356 0.59578 0.0
C847 C 0.8208 0.68362 0.68128 0.0
H848 H 0.78288 0.64608 0.59664 0.0
H849 H 0.81164 0.60891 0.66218 0.0
H850 H 0.80796 0.68844 0.6107 0.0
H851 H 0.82278 0.67748 0.58165 0.0
H852 H 0.79641 0.67562 0.57951 0.0
H853 H 0.84247 0.61655 0.68294 0.0
H854 H 0.85777 0.63291 0.66091 0.0
H855 H 0.84343 0.6424 0.69172 0.0
H856 H 0.88433 0.68534 0.60738 0.0
H857 H 0.84971 0.71056 0.6795 0.0
H858 H 0.85015 0.65424 0.57816 0.0
H859 H 0.86113 0.63876 0.60633 0.0
H860 H 0.87629 0.65528 0.58435 0.0
H861 H 0.80728 0.68527 0.6674 0.0
H862 H 0.82126 0.69569 0.69834 0.0
H863 H 0.81969 0.66942 0.69359 0.0
C864 C 0.28752 0.83487 0.65677 0.0
C865 C 0.28608 0.85324 0.67106 0.0
C866 C 0.30517 0.8243 0.65696 0.0
C867 C 0.32183 0.83232 0.67171 0.0
C868 C 0.32061 0.85101 0.68574 0.0
C869 C 0.30271 0.86124 0.68531 0.0
C870 C 0.30588 0.80438 0.6418 0.0
C871 C 0.33812 0.86003 0.70153 0.0
C872 C 0.35878 0.79401 0.69644 0.0
C873 C 0.37198 0.7941 0.67183 0.0
C874 C 0.34291 0.80709 0.69744 0.0
C875 C 0.34021 0.82064 0.67332 0.0
C876 C 0.35412 0.82162 0.64935 0.0
C877 C 0.36985 0.8083 0.64886 0.0
C878 C 0.32842 0.80563 0.72345 0.0
C879 C 0.3518 0.83601 0.62337 0.0
H880 H 0.27477 0.82859 0.64565 0.0
H881 H 0.30173 0.87548 0.69629 0.0
H882 H 0.31765 0.80409 0.6243 0.0
H883 H 0.30943 0.79294 0.65897 0.0
H884 H 0.29175 0.80046 0.63068 0.0
H885 H 0.33502 0.87508 0.71006 0.0
H886 H 0.34258 0.85072 0.72111 0.0
H887 H 0.35079 0.86071 0.68564 0.0
H888 H 0.36038 0.78319 0.71442 0.0
H889 H 0.38005 0.80856 0.62987 0.0
H890 H 0.31418 0.80004 0.71473 0.0
H891 H 0.32567 0.82033 0.73348 0.0
H892 H 0.33359 0.79562 0.7418 0.0
H893 H 0.33901 0.83172 0.60918 0.0
H894 H 0.36502 0.83652 0.60851 0.0
H895 H 0.34889 0.85099 0.63225 0.0
C896 C 0.14235 0.29616 0.59745 0.0
C897 C 0.12865 0.29244 0.62065 0.0
C898 C 0.15403 0.31312 0.59796 0.0
C899 C 0.15182 0.32675 0.62212 0.0
C900 C 0.13734 0.32357 0.64476 0.0
C901 C 0.12599 0.30639 0.64384 0.0
C902 C 0.1694 0.31595 0.5735 0.0
C903 C 0.13441 0.3379 0.67067 0.0
C904 C 0.19704 0.35561 0.64465 0.0
C905 C 0.19377 0.37376 0.63034 0.0
C906 C 0.18341 0.3403 0.64226 0.0
C907 C 0.16596 0.34322 0.62537 0.0
C908 C 0.16234 0.3616 0.61132 0.0
C909 C 0.17635 0.37666 0.61385 0.0
C910 C 0.18788 0.32086 0.65743 0.0
C911 C 0.14377 0.36525 0.59339 0.0
H912 H 0.14445 0.28548 0.57938 0.0
H913 H 0.11528 0.30372 0.66168 0.0
H914 H 0.1682 0.33084 0.56337 0.0
H915 H 0.18424 0.31474 0.58377 0.0
H916 H 0.16813 0.3049 0.55495 0.0
H917 H 0.12118 0.3344 0.68447 0.0
H918 H 0.14742 0.3376 0.6859 0.0
H919 H 0.13301 0.35309 0.66175 0.0
H920 H 0.21047 0.35319 0.65738 0.0
H921 H 0.17371 0.39066 0.60281 0.0
H922 H 0.18841 0.30903 0.64003 0.0
H923 H 0.17604 0.31704 0.67379 0.0
H924 H 0.20208 0.32105 0.66989 0.0
H925 H 0.1431 0.35512 0.57359 0.0
H926 H 0.14281 0.38059 0.58485 0.0
H927 H 0.13073 0.36219 0.60782 0.0
C928 C 0.22981 0.08076 0.05622 0.0
C929 C 0.21477 0.08779 0.07515 0.0
C930 C 0.2274 0.07993 0.0245 0.0
C931 C 0.20955 0.08637 0.01136 0.0
C932 C 0.19402 0.09279 0.03037 0.0
C933 C 0.19681 0.0934 0.06212 0.0
C934 C 0.24426 0.07284 0.00498 0.0
C935 C 0.17479 0.09976 0.01713 0.0
C936 C 0.21541 0.10495 0.9305 0.0
C937 C 0.2098 0.08847 0.91339 0.0
C938 C 0.21447 0.10477 0.96244 0.0
C939 C 0.20784 0.08766 0.97764 0.0
C940 C 0.20127 0.07131 0.9605 0.0
C941 C 0.20229 0.07192 0.92851 0.0
C942 C 0.22146 0.12257 0.97993 0.0
C943 C 0.19408 0.05284 0.97596 0.0
H944 H 0.24368 0.07624 0.06612 0.0
H945 H 0.1851 0.09881 0.07661 0.0
H946 H 0.23924 0.06105 0.98935 0.0
H947 H 0.24976 0.0851 0.99063 0.0
H948 H 0.25666 0.06713 0.01885 0.0
H949 H 0.16358 0.10254 0.03505 0.0
H950 H 0.17719 0.11357 0.00419 0.0
H951 H 0.16891 0.08876 0.00084 0.0
H952 H 0.22105 0.11786 0.91898 0.0
H953 H 0.19787 0.05915 0.91544 0.0
H954 H 0.23507 0.11887 0.9926 0.0
H955 H 0.21029 0.12707 0.99698 0.0
H956 H 0.22458 0.13525 0.96472 0.0
H957 H 0.20654 0.0455 0.98764 0.0
H958 H 0.1875 0.04231 0.95951 0.0
H959 H 0.183 0.05643 0.99366 0.0
C960 C 0.91728 0.23811 0.93825 0.0
C961 C 0.9082 0.22424 0.91928 0.0
C962 C 0.91767 0.2356 0.96997 0.0
C963 C 0.9087 0.21884 0.98305 0.0
C964 C 0.90045 0.20425 0.96396 0.0
C965 C 0.90032 0.20711 0.93222 0.0
C966 C 0.92678 0.25143 0.98956 0.0
C967 C 0.89082 0.18615 0.97711 0.0
C968 C 0.91954 0.21083 0.06711 0.0
C969 C 0.90372 0.22071 0.08071 0.0
C970 C 0.92099 0.20929 0.03521 0.0
C971 C 0.90624 0.21778 0.01667 0.0
C972 C 0.88977 0.22688 0.03036 0.0
C973 C 0.88872 0.22825 0.0622 0.0
C974 C 0.93873 0.19941 0.02138 0.0
C975 C 0.87364 0.23597 0.01135 0.0
H976 H 0.92359 0.25129 0.92841 0.0
H977 H 0.89335 0.19627 0.91769 0.0
H978 H 0.91513 0.25894 0.00291 0.0
H979 H 0.93722 0.24488 0.0061 0.0
H980 H 0.93468 0.26262 0.97578 0.0
H981 H 0.8874 0.17508 0.95926 0.0
H982 H 0.90041 0.17927 0.99456 0.0
H983 H 0.87693 0.19036 0.98862 0.0
H984 H 0.93115 0.20489 0.08129 0.0
H985 H 0.87633 0.2357 0.07255 0.0
H986 H 0.94813 0.21061 0.0102 0.0
H987 H 0.93419 0.18879 0.00353 0.0
H988 H 0.94764 0.19157 0.03876 0.0
H989 H 0.87957 0.24868 -0.00156 0.0
H990 H 0.86113 0.24114 0.02551 0.0
H991 H 0.86805 0.22521 0.99444 0.0
C992 C 0.77194 0.89898 0.92726 0.0
C993 C 0.77819 0.91566 0.91116 0.0
C994 C 0.77363 0.89794 0.95905 0.0
C995 C 0.78175 0.914 0.9752 0.0
C996 C 0.78892 0.93052 0.95904 0.0
C997 C 0.78707 0.93116 0.92712 0.0
C998 C 0.7659 0.88 0.97545 0.0
C999 C 0.79776 0.94785 0.97555 0.0
C1000 C 0.76209 0.91838 0.0556 0.0
C1001 C 0.77694 0.90926 0.07265 0.0
C1002 C 0.76395 0.92088 0.02402 0.0
C1003 C 0.78104 0.91402 0.00906 0.0
C1004 C 0.79647 0.90558 0.02627 0.0
C1005 C 0.79425 0.90332 0.05795 0.0
C1006 C 0.74722 0.93008 0.00647 0.0
C1007 C 0.81491 0.89811 0.01107 0.0
H1008 H 0.76527 0.88683 0.91509 0.0
H1009 H 0.79202 0.94406 0.91481 0.0
H1010 H 0.77724 0.87402 0.99105 0.0
H1011 H 0.75303 0.88413 0.9896 0.0
H1012 H 0.76135 0.86822 0.9594 0.0
H1013 H 0.80458 0.95854 0.95958 0.0
H1014 H 0.78615 0.95553 0.98874 0.0
H1015 H 0.80903 0.94286 0.99209 0.0
H1016 H 0.74875 0.9232 0.06684 0.0
H1017 H 0.80582 0.89633 0.071 0.0
H1018 H 0.7404 0.91891 0.99137 0.0
H1019 H 0.75273 0.9421 0.99169 0.0
H1020 H 0.73568 0.93609 0.02177 0.0
H1021 H 0.81137 0.88497 0.99714 0.0
H1022 H 0.82639 0.89402 0.02792 0.0
H1023 H 0.82098 0.90937 0.99539 0.0
C1024 C 0.09487 0.79305 0.94621 0.0
C1025 C 0.08465 0.7787 0.92965 0.0
C1026 C 0.09347 0.79396 0.97813 0.0
C1027 C 0.08145 0.78028 0.99374 0.0
C1028 C 0.07012 0.7666 0.97699 0.0
C1029 C 0.07191 0.76593 0.94512 0.0
C1030 C 0.1058 0.80875 0.99523 0.0
C1031 C 0.05698 0.75191 0.9928 0.0
C1032 C 0.09774 0.76406 0.07237 0.0
C1033 C 0.08501 0.77462 0.09147 0.0
C1034 C 0.09675 0.76592 0.0406 0.0
C1035 C 0.08263 0.77862 0.02749 0.0
C1036 C 0.06972 0.78936 0.04653 0.0
C1037 C 0.07108 0.78726 0.07839 0.0
C1038 C 0.11083 0.75424 0.02106 0.0
C1039 C 0.05444 0.80296 0.03326 0.0
H1040 H 0.10467 0.80305 0.93441 0.0
H1041 H 0.06376 0.75495 0.93244 0.0
H1042 H 0.09683 0.8165 0.0126 0.0
H1043 H 0.11777 0.80101 0.00749 0.0
H1044 H 0.11249 0.81981 0.97975 0.0
H1045 H 0.04735 0.74397 0.97648 0.0
H1046 H 0.06614 0.74096 0.00503 0.0
H1047 H 0.04764 0.75932 0.01005 0.0
H1048 H 0.10858 0.75428 0.08223 0.0
H1049 H 0.0612 0.79546 0.09299 0.0
H1050 H 0.11954 0.76429 0.00643 0.0
H1051 H 0.10251 0.74431 0.00569 0.0
H1052 H 0.12111 0.74523 0.03489 0.0
H1053 H 0.06162 0.81432 0.01893 0.0
H1054 H 0.04563 0.81039 0.05119 0.0
H1055 H 0.04437 0.79458 0.01821 0.0
C1056 C 0.20593 0.90474 0.44441 0.0
C1057 C 0.22411 0.90722 0.42984 0.0
C1058 C 0.20427 0.90638 0.47625 0.0
C1059 C 0.22119 0.91059 0.49381 0.0
C1060 C 0.23941 0.91383 0.47912 0.0
C1061 C 0.24065 0.91211 0.44732 0.0
C1062 C 0.18459 0.9029 0.49117 0.0
C1063 C 0.25778 0.91842 0.49709 0.0
C1064 C 0.21807 0.92739 0.57627 0.0
C1065 C 0.22267 0.91 0.5919 0.0
C1066 C 0.21683 0.92771 0.54429 0.0
C1067 C 0.22029 0.91023 0.52766 0.0
C1068 C 0.22421 0.89249 0.54336 0.0
C1069 C 0.22534 0.89259 0.57528 0.0
C1070 C 0.21252 0.94686 0.52826 0.0
C1071 C 0.22791 0.87352 0.52641 0.0
H1072 H 0.19306 0.90105 0.43105 0.0
H1073 H 0.25473 0.91418 0.43624 0.0
H1074 H 0.18516 0.88924 0.50494 0.0
H1075 H 0.18101 0.91512 0.50697 0.0
H1076 H 0.17256 0.90148 0.47418 0.0
H1077 H 0.27051 0.92174 0.48209 0.0
H1078 H 0.25522 0.93117 0.51235 0.0
H1079 H 0.26162 0.9057 0.51177 0.0
H1080 H 0.2159 0.94089 0.58896 0.0
H1081 H 0.22876 0.87905 0.58716 0.0
H1082 H 0.20035 0.94494 0.5117 0.0
H1083 H 0.22563 0.95161 0.51514 0.0
H1084 H 0.20852 0.95874 0.54451 0.0
H1085 H 0.21566 0.87044 0.51045 0.0
H1086 H 0.2296 0.8608 0.54207 0.0
H1087 H 0.24149 0.87489 0.51255 0.0
C1088 C 0.07884 0.22282 0.54573 0.0
C1089 C 0.09462 0.21397 0.561 0.0
C1090 C 0.07697 0.22142 0.51396 0.0
C1091 C 0.09132 0.21103 0.49707 0.0
C1092 C 0.10661 0.20105 0.51251 0.0
C1093 C 0.10804 0.20259 0.54437 0.0
C1094 C 0.06033 0.23208 0.49834 0.0
C1095 C 0.12218 0.18983 0.49526 0.0
C1096 C 0.08145 0.2015 0.41297 0.0
C1097 C 0.09112 0.21746 0.39936 0.0
C1098 C 0.08157 0.19898 0.4448 0.0
C1099 C 0.09166 0.21271 0.46329 0.0
C1100 C 0.10171 0.22864 0.44962 0.0
C1101 C 0.10128 0.23084 0.41787 0.0
C1102 C 0.07068 0.18185 0.45867 0.0
C1103 C 0.11272 0.24357 0.46858 0.0
H1104 H 0.06826 0.23143 0.55849 0.0
H1105 H 0.12023 0.19563 0.55603 0.0
H1106 H 0.06622 0.24489 0.48564 0.0
H1107 H 0.05302 0.22233 0.48153 0.0
H1108 H 0.04915 0.23743 0.51484 0.0
H1109 H 0.13151 0.18085 0.51067 0.0
H1110 H 0.11538 0.18003 0.47802 0.0
H1111 H 0.13175 0.20033 0.48283 0.0
H1112 H 0.07358 0.19109 0.3988 0.0
H1113 H 0.10889 0.24316 0.40756 0.0
H1114 H 0.05867 0.18734 0.47351 0.0
H1115 H 0.0807 0.17311 0.47331 0.0
H1116 H 0.06425 0.17202 0.44107 0.0
H1117 H 0.1024 0.25122 0.48414 0.0
H1118 H 0.12027 0.25475 0.45431 0.0
H1119 H 0.12384 0.23609 0.48298 0.0
C1120 C 0.79632 0.08321 0.5735 0.0
C1121 C 0.78456 0.09783 0.58675 0.0
C1122 C 0.79842 0.08194 0.54166 0.0
C1123 C 0.78851 0.0956 0.52278 0.0
C1124 C 0.77725 0.11081 0.53611 0.0
C1125 C 0.77542 0.11174 0.5679 0.0
C1126 C 0.81061 0.06558 0.5282 0.0
C1127 C 0.76652 0.12572 0.51675 0.0
C1128 C 0.80029 0.10389 0.43918 0.0
C1129 C 0.78459 0.09411 0.42507 0.0
C1130 C 0.80245 0.10363 0.47105 0.0
C1131 C 0.7886 0.09334 0.48908 0.0
C1132 C 0.77344 0.08249 0.47482 0.0
C1133 C 0.77161 0.08302 0.44299 0.0
C1134 C 0.81887 0.11527 0.48548 0.0
C1135 C 0.75845 0.07122 0.49326 0.0
H1136 H 0.80349 0.07245 0.58792 0.0
H1137 H 0.76643 0.12318 0.57794 0.0
H1138 H 0.80091 0.05511 0.51599 0.0
H1139 H 0.82116 0.07152 0.51124 0.0
H1140 H 0.81891 0.05738 0.54593 0.0
H1141 H 0.75933 0.13729 0.53071 0.0
H1142 H 0.77684 0.13288 0.50062 0.0
H1143 H 0.7551 0.11823 0.50295 0.0
H1144 H 0.81045 0.1124 0.42548 0.0
H1145 H 0.75957 0.07524 0.43224 0.0
H1146 H 0.82649 0.10637 0.50308 0.0
H1147 H 0.81269 0.12838 0.49707 0.0
H1148 H 0.82982 0.12028 0.46837 0.0
H1149 H 0.76585 0.06157 0.5101 0.0
H1150 H 0.74876 0.06205 0.47866 0.0
H1151 H 0.74914 0.08168 0.50623 0.0
C1152 C 0.891 0.79809 0.55731 0.0
C1153 C 0.89958 0.7823 0.57296 0.0
C1154 C 0.89313 0.80002 0.52558 0.0
C1155 C 0.90421 0.78591 0.50927 0.0
C1156 C 0.91368 0.7705 0.52517 0.0
C1157 C 0.91119 0.76884 0.55681 0.0
C1158 C 0.88276 0.81662 0.50935 0.0
C1159 C 0.92576 0.75525 0.5086 0.0
C1160 C 0.89108 0.77403 0.42744 0.0
C1161 C 0.90611 0.78349 0.41121 0.0
C1162 C 0.89001 0.77521 0.45929 0.0
C1163 C 0.9044 0.78605 0.47539 0.0
C1164 C 0.91935 0.79605 0.45917 0.0
C1165 C 0.92 0.79469 0.42718 0.0
C1166 C 0.87376 0.76444 0.47576 0.0
C1167 C 0.93494 0.8077 0.47564 0.0
H1168 H 0.88205 0.80859 0.56966 0.0
H1169 H 0.91804 0.75671 0.5688 0.0
H1170 H 0.89304 0.82438 0.49384 0.0
H1171 H 0.87073 0.81058 0.49508 0.0
H1172 H 0.8764 0.82743 0.52555 0.0
H1173 H 0.9336 0.74528 0.52456 0.0
H1174 H 0.91606 0.74625 0.49382 0.0
H1175 H 0.93672 0.76245 0.49357 0.0
H1176 H 0.88018 0.76546 0.41527 0.0
H1177 H 0.93165 0.80205 0.41477 0.0
H1178 H 0.86562 0.77469 0.49084 0.0
H1179 H 0.88011 0.7528 0.49047 0.0
H1180 H 0.86317 0.75751 0.45976 0.0
H1181 H 0.92805 0.81851 0.49127 0.0
H1182 H 0.94479 0.81565 0.45964 0.0
H1183 H 0.94397 0.79768 0.48985 0.0
C1184 C 0.74114 0.56925 0.53733 0.0
C1185 C 0.72536 0.57225 0.55737 0.0
C1186 C 0.73841 0.5697 0.50565 0.0
C1187 C 0.71943 0.57321 0.49368 0.0
C1188 C 0.70325 0.57515 0.51372 0.0
C1189 C 0.70641 0.57466 0.54539 0.0
C1190 C 0.75604 0.56745 0.48501 0.0
C1191 C 0.68278 0.57876 0.50178 0.0
C1192 C 0.72018 0.5991 0.41732 0.0
C1193 C 0.71794 0.58339 0.39691 0.0
C1194 C 0.71979 0.59606 0.44892 0.0
C1195 C 0.71706 0.57683 0.46046 0.0
C1196 C 0.71378 0.56104 0.44006 0.0
C1197 C 0.71427 0.56451 0.40846 0.0
C1198 C 0.72324 0.61331 0.46994 0.0
C1199 C 0.71067 0.54037 0.45157 0.0
H1200 H 0.75581 0.56719 0.54637 0.0
H1201 H 0.69411 0.57686 0.56071 0.0
H1202 H 0.75314 0.55621 0.46724 0.0
H1203 H 0.75895 0.58155 0.47312 0.0
H1204 H 0.76947 0.56316 0.49779 0.0
H1205 H 0.6715 0.5774 0.51998 0.0
H1206 H 0.68191 0.59378 0.49202 0.0
H1207 H 0.67923 0.56828 0.4832 0.0
H1208 H 0.72283 0.61377 0.40862 0.0
H1209 H 0.71242 0.5523 0.39284 0.0
H1210 H 0.73739 0.61136 0.48213 0.0
H1211 H 0.7115 0.61411 0.48744 0.0
H1212 H 0.72372 0.6275 0.45743 0.0
H1213 H 0.72455 0.53474 0.46151 0.0
H1214 H 0.70597 0.53023 0.4331 0.0
H1215 H 0.69945 0.54017 0.46994 0.0
C1216 C 0.41853 0.71978 0.44314 0.0
C1217 C 0.40266 0.71019 0.42919 0.0
C1218 C 0.42099 0.71931 0.4749 0.0
C1219 C 0.40721 0.70908 0.49313 0.0
C1220 C 0.39176 0.69852 0.47909 0.0
C1221 C 0.38969 0.69917 0.44724 0.0
C1222 C 0.43776 0.73061 0.48905 0.0
C1223 C 0.37678 0.68743 0.49778 0.0
C1224 C 0.41906 0.70015 0.57681 0.0
C1225 C 0.40925 0.71588 0.5908 0.0
C1226 C 0.41848 0.69763 0.54499 0.0
C1227 C 0.4078 0.71112 0.52687 0.0
C1228 C 0.39774 0.7269 0.54091 0.0
C1229 C 0.39862 0.7291 0.57265 0.0
C1230 C 0.42941 0.68065 0.53073 0.0
C1231 C 0.38612 0.74157 0.52237 0.0
H1232 H 0.42873 0.72818 0.42932 0.0
H1233 H 0.37744 0.69163 0.43664 0.0
H1234 H 0.43189 0.74342 0.50178 0.0
H1235 H 0.44578 0.72127 0.50563 0.0
H1236 H 0.44832 0.73605 0.47166 0.0
H1237 H 0.36693 0.67833 0.48334 0.0
H1238 H 0.38418 0.67775 0.51459 0.0
H1239 H 0.36765 0.69801 0.51083 0.0
H1240 H 0.42731 0.68987 0.59067 0.0
H1241 H 0.39094 0.74127 0.58325 0.0
H1242 H 0.44067 0.68628 0.51465 0.0
H1243 H 0.41914 0.67141 0.51733 0.0
H1244 H 0.43677 0.67128 0.54805 0.0
H1245 H 0.39593 0.74914 0.50592 0.0
H1246 H 0.37889 0.75284 0.53686 0.0
H1247 H 0.37466 0.73387 0.50892 0.0
C1248 C 0.28024 0.38903 0.42323 0.0
C1249 C 0.28663 0.40453 0.40461 0.0
C1250 C 0.28066 0.39061 0.45508 0.0
C1251 C 0.28754 0.40816 0.46869 0.0
C1252 C 0.29488 0.42352 0.4501 0.0
C1253 C 0.29439 0.42149 0.4182 0.0
C1254 C 0.27289 0.37381 0.47413 0.0
C1255 C 0.30234 0.44243 0.46383 0.0
C1256 C 0.26416 0.41802 0.54547 0.0
C1257 C 0.27852 0.41097 0.56561 0.0
C1258 C 0.26737 0.41814 0.51389 0.0
C1259 C 0.28534 0.41092 0.50214 0.0
C1260 C 0.30027 0.40468 0.52239 0.0
C1261 C 0.2967 0.40483 0.55397 0.0
C1262 C 0.25114 0.4251 0.49304 0.0
C1263 C 0.31961 0.39691 0.51067 0.0
H1264 H 0.27442 0.37579 0.41289 0.0
H1265 H 0.29938 0.43351 0.40394 0.0
H1266 H 0.2837 0.36971 0.49196 0.0
H1267 H 0.25924 0.37845 0.48594 0.0
H1268 H 0.26957 0.36061 0.46016 0.0
H1269 H 0.30959 0.45196 0.4466 0.0
H1270 H 0.28988 0.45066 0.47397 0.0
H1271 H 0.31291 0.43935 0.48248 0.0
H1272 H 0.25015 0.42299 0.55432 0.0
H1273 H 0.3079 0.39941 0.5694 0.0
H1274 H 0.24534 0.41249 0.47975 0.0
H1275 H 0.25688 0.436 0.47646 0.0
H1276 H 0.23878 0.43187 0.50584 0.0
H1277 H 0.31721 0.38254 0.49933 0.0
H1278 H 0.33049 0.39486 0.52929 0.0
H1279 H 0.32589 0.40702 0.49337 0.0
C1280 C 0.57341 0.27141 0.58329 0.0
C1281 C 0.5907 0.27668 0.59862 0.0
C1282 C 0.57175 0.27376 0.55159 0.0
C1283 C 0.58786 0.28127 0.53485 0.0
C1284 C 0.6049 0.28768 0.55043 0.0
C1285 C 0.60606 0.28543 0.5822 0.0
C1286 C 0.5532 0.26708 0.53583 0.0
C1287 C 0.62246 0.29563 0.53336 0.0
C1288 C 0.59491 0.26135 0.45496 0.0
C1289 C 0.58891 0.27722 0.4368 0.0
C1290 C 0.59462 0.26257 0.48684 0.0
C1291 C 0.58792 0.28 0.50101 0.0
C1292 C 0.58157 0.29601 0.4829 0.0
C1293 C 0.58226 0.29448 0.45092 0.0
C1294 C 0.6017 0.24522 0.50535 0.0
C1295 C 0.57411 0.31472 0.4973 0.0
H1296 H 0.56139 0.26487 0.59592 0.0
H1297 H 0.61945 0.28959 0.59391 0.0
H1298 H 0.54824 0.27825 0.51908 0.0
H1299 H 0.55615 0.25333 0.52304 0.0
H1300 H 0.54111 0.26425 0.55229 0.0
H1301 H 0.6336 0.30205 0.54896 0.0
H1302 H 0.62946 0.28358 0.52022 0.0
H1303 H 0.61787 0.30704 0.51676 0.0
H1304 H 0.60016 0.24799 0.44425 0.0
H1305 H 0.57754 0.30677 0.43701 0.0
H1306 H 0.58977 0.23991 0.5205 0.0
H1307 H 0.61411 0.24974 0.52017 0.0
H1308 H 0.60661 0.23281 0.49076 0.0
H1309 H 0.56161 0.31141 0.51272 0.0
H1310 H 0.56924 0.32562 0.48002 0.0
H1311 H 0.58581 0.32146 0.51145 0.0
C1312 C 0.68817 0.395 0.94303 0.0
C1313 C 0.70412 0.40261 0.92658 0.0
C1314 C 0.68699 0.39731 0.97483 0.0
C1315 C 0.70203 0.4076 0.99037 0.0
C1316 C 0.7176 0.41619 0.97365 0.0
C1317 C 0.7185 0.41352 0.94198 0.0
C1318 C 0.67019 0.38791 0.99193 0.0
C1319 C 0.73382 0.42744 0.98937 0.0
C1320 C 0.69621 0.42417 0.0727 0.0
C1321 C 0.70714 0.40982 0.08816 0.0
C1322 C 0.6939 0.42339 0.04085 0.0
C1323 C 0.70262 0.40783 0.02426 0.0
C1324 C 0.71307 0.39295 0.0399 0.0
C1325 C 0.71526 0.39416 0.07162 0.0
C1326 C 0.68272 0.43954 0.02488 0.0
C1327 C 0.72247 0.37602 0.02304 0.0
H1328 H 0.67699 0.38658 0.93126 0.0
H1329 H 0.73076 0.41964 0.92936 0.0
H1330 H 0.67581 0.37549 0.00581 0.0
H1331 H 0.66341 0.39859 0.00789 0.0
H1332 H 0.65865 0.38225 0.97631 0.0
H1333 H 0.74386 0.43471 0.97287 0.0
H1334 H 0.72756 0.43879 0.0047 0.0
H1335 H 0.74258 0.41726 0.00373 0.0
H1336 H 0.6899 0.43631 0.08534 0.0
H1337 H 0.72358 0.38292 0.08343 0.0
H1338 H 0.67131 0.4332 0.00973 0.0
H1339 H 0.6929 0.44811 0.01026 0.0
H1340 H 0.67555 0.44975 0.04123 0.0
H1341 H 0.71144 0.36851 0.00852 0.0
H1342 H 0.72905 0.36505 0.03877 0.0
H1343 H 0.73417 0.38164 0.00772 0.0
C1344 C 0.57933 0.72821 0.03476 0.0
C1345 C 0.58868 0.71468 0.05403 0.0
C1346 C 0.57994 0.72602 0.00296 0.0
C1347 C 0.5902 0.70994 0.99012 0.0
C1348 C 0.59886 0.69571 0.00944 0.0
C1349 C 0.59797 0.69823 0.04121 0.0
C1350 C 0.57038 0.74143 0.9831 0.0
C1351 C 0.60989 0.67835 0.99655 0.0
C1352 C 0.58221 0.70012 0.90566 0.0
C1353 C 0.59807 0.71029 0.89266 0.0
C1354 C 0.57967 0.69942 0.93746 0.0
C1355 C 0.59334 0.70909 0.9566 0.0
C1356 C 0.60968 0.71885 0.94363 0.0
C1357 C 0.61184 0.71935 0.91184 0.0
C1358 C 0.56209 0.68885 0.95053 0.0
C1359 C 0.62464 0.72926 0.9633 0.0
H1360 H 0.57197 0.74087 0.04448 0.0
H1361 H 0.60517 0.68766 0.05593 0.0
H1362 H 0.58186 0.74969 0.97049 0.0
H1363 H 0.56072 0.73441 0.9659 0.0
H1364 H 0.56154 0.75205 0.99659 0.0
H1365 H 0.614 0.66758 0.0145 0.0
H1366 H 0.60092 0.67076 0.97902 0.0
H1367 H 0.62349 0.68355 0.98519 0.0
H1368 H 0.57151 0.69306 0.89099 0.0
H1369 H 0.62419 0.72715 0.90202 0.0
H1370 H 0.55224 0.69957 0.96189 0.0
H1371 H 0.56682 0.67814 0.96814 0.0
H1372 H 0.55358 0.68094 0.93273 0.0
H1373 H 0.61748 0.74147 0.97585 0.0
H1374 H 0.63699 0.73539 0.94972 0.0
H1375 H 0.63071 0.719 0.98056 0.0
C1376 C 0.28042 0.55928 0.06359 0.0
C1377 C 0.27699 0.57675 0.07969 0.0
C1378 C 0.28231 0.55937 0.03165 0.0
C1379 C 0.28076 0.57735 0.01559 0.0
C1380 C 0.2783 0.59512 0.03189 0.0
C1381 C 0.27644 0.59461 0.06371 0.0
C1382 C 0.28504 0.54015 0.01502 0.0
C1383 C 0.27667 0.61463 0.01562 0.0
C1384 C 0.29528 0.58319 0.93237 0.0
C1385 C 0.27685 0.58297 0.91807 0.0
C1386 C 0.29694 0.58057 0.96408 0.0
C1387 C 0.27978 0.57759 0.98173 0.0
C1388 C 0.26126 0.5765 0.9672 0.0
C1389 C 0.26002 0.57923 0.93558 0.0
C1390 C 0.31693 0.5818 0.97881 0.0
C1391 C 0.24261 0.57323 0.9852 0.0
H1392 H 0.28097 0.54544 0.07579 0.0
H1393 H 0.27401 0.60822 0.07598 0.0
H1394 H 0.27148 0.53657 0.00214 0.0
H1395 H 0.29717 0.54132 -0.0018 0.0
H1396 H 0.28826 0.52783 0.03088 0.0
H1397 H 0.27637 0.62722 0.03174 0.0
H1398 H 0.28917 0.61662 -0.00031 0.0
H1399 H 0.26301 0.61494 0.00183 0.0
H1400 H 0.30835 0.586 0.91896 0.0
H1401 H 0.24574 0.57882 0.92467 0.0
H1402 H 0.31926 0.56916 0.99438 0.0
H1403 H 0.31786 0.59535 0.9928 0.0
H1404 H 0.32896 0.58207 0.96169 0.0
H1405 H 0.24406 0.56003 -0.00012 0.0
H1406 H 0.22959 0.57133 0.97023 0.0
H1407 H 0.23997 0.58597 0.00045 0.0
C1408 C 0.38429 0.27568 0.93439 0.0
C1409 C 0.39792 0.28452 0.91472 0.0
C1410 C 0.38689 0.27615 0.96607 0.0
C1411 C 0.40357 0.28564 0.97844 0.0
C1412 C 0.41695 0.29536 0.95885 0.0
C1413 C 0.41394 0.29471 0.92713 0.0
C1414 C 0.37218 0.26574 0.98623 0.0
C1415 C 0.43486 0.30567 0.97126 0.0
C1416 C 0.40051 0.29377 0.06389 0.0
C1417 C 0.40948 0.27663 0.07492 0.0
C1418 C 0.39944 0.29756 0.03243 0.0
C1419 C 0.4076 0.2839 0.01164 0.0
C1420 C 0.41776 0.26724 0.02275 0.0
C1421 C 0.41854 0.26378 0.05425 0.0
C1422 C 0.38855 0.31553 0.02143 0.0
C1423 C 0.42682 0.25241 0.0013 0.0
H1424 H 0.37175 0.26795 0.925 0.0
H1425 H 0.42452 0.30161 0.91206 0.0
H1426 H 0.37934 0.25308 -0.00233 0.0
H1427 H 0.36684 0.27578 0.00436 0.0
H1428 H 0.35933 0.26022 0.97318 0.0
H1429 H 0.44257 0.31438 0.95346 0.0
H1430 H 0.43075 0.31559 0.99031 0.0
H1431 H 0.44526 0.29464 0.98055 0.0
H1432 H 0.39356 0.30384 0.07973 0.0
H1433 H 0.4257 0.25061 0.0626 0.0
H1434 H 0.37437 0.311 0.01116 0.0
H1435 H 0.39707 0.32323 0.00346 0.0
H1436 H 0.38548 0.32601 0.04028 0.0
H1437 H 0.41503 0.24454 0.98881 0.0
H1438 H 0.43591 0.2414 0.01355 0.0
H1439 H 0.43612 0.2599 0.98407 0.0
C1440 C 0.25192 0.03618 0.22419 0.0
C1441 C 0.23773 0.03708 0.20101 0.0
C1442 C 0.25323 0.01978 0.24345 0.0
C1443 C 0.24012 0.00388 0.23928 0.0
C1444 C 0.22609 0.00448 0.21547 0.0
C1445 C 0.22504 0.02111 0.19665 0.0
C1446 C 0.26834 0.01965 0.26868 0.0
C1447 C 0.21196 0.98772 0.21023 0.0
C1448 C 0.25237 0.95424 0.27367 0.0
C1449 C 0.24029 0.95404 0.29962 0.0
C1450 C 0.25262 0.97046 0.25393 0.0
C1451 C 0.2406 0.98688 0.26046 0.0
C1452 C 0.22869 0.98694 0.28692 0.0
C1453 C 0.22862 0.97048 0.30614 0.0
C1454 C 0.26544 0.96987 0.22582 0.0
C1455 C 0.2158 0.00429 0.29473 0.0
H1456 H 0.26179 0.04846 0.2277 0.0
H1457 H 0.2141 0.02166 0.17871 0.0
H1458 H 0.26086 0.01901 0.29116 0.0
H1459 H 0.27772 0.00639 0.26686 0.0
H1460 H 0.2779 0.03287 0.26816 0.0
H1461 H 0.20251 0.99012 0.18991 0.0
H1462 H 0.22017 0.97378 0.20714 0.0
H1463 H 0.20239 0.98587 0.23053 0.0
H1464 H 0.2614 0.94156 0.26846 0.0
H1465 H 0.21932 0.97046 0.32622 0.0
H1466 H 0.27556 0.98264 0.22566 0.0
H1467 H 0.25618 0.97096 0.20505 0.0
H1468 H 0.27428 0.95619 0.22443 0.0
H1469 H 0.2248 0.01784 0.29624 0.0
H1470 H 0.20789 0.00225 0.31668 0.0
H1471 H 0.20483 0.00662 0.27638 0.0
C1472 C 0.95573 0.21828 0.22188 0.0
C1473 C 0.94634 0.23449 0.20858 0.0
C1474 C 0.9754 0.21939 0.23115 0.0
C1475 C 0.98589 0.23714 0.22706 0.0
C1476 C 0.97649 0.25359 0.21378 0.0
C1477 C 0.95682 0.25206 0.20468 0.0
C1478 C 0.98498 0.20155 0.24523 0.0
C1479 C 0.98723 0.27277 0.20915 0.0
C1480 C 0.03101 0.2451 0.27611 0.0
C1481 C 0.04618 0.23997 0.25595 0.0
C1482 C 0.01132 0.24445 0.26689 0.0
C1483 C 0.0067 0.23851 0.2368 0.0
C1484 C 0.02192 0.23358 0.21619 0.0
C1485 C 0.04151 0.23438 0.22601 0.0
C1486 C 0.99545 0.24988 0.28946 0.0
C1487 C 0.01751 0.22718 0.18391 0.0
H1488 H 0.94774 0.20465 0.22494 0.0
H1489 H 0.94967 0.26466 0.19442 0.0
H1490 H -0.00206 0.19713 0.23152 0.0
H1491 H 0.99031 0.20511 0.26851 0.0
H1492 H 0.97478 0.18884 0.24677 0.0
H1493 H 0.97779 0.28419 0.19854 0.0
H1494 H 0.99265 0.27838 0.23137 0.0
H1495 H 0.00025 0.27043 0.19436 0.0
H1496 H 0.0345 0.24947 0.29928 0.0
H1497 H 0.05313 0.23039 0.2103 0.0
H1498 H 0.98565 0.2371 0.29335 0.0
H1499 H 0.98627 0.26192 0.28012 0.0
H1500 H 0.00155 0.25464 0.31178 0.0
H1501 H 0.00844 0.21363 0.18423 0.0
H1502 H 0.03105 0.22424 0.17053 0.0
H1503 H 0.00886 0.23867 0.172 0.0
C1504 C 0.74992 0.0393 0.27431 0.0
C1505 C 0.76192 0.03909 0.30034 0.0
C1506 C 0.74879 0.02294 0.255 0.0
C1507 C 0.75982 0.00593 0.26204 0.0
C1508 C 0.77168 0.00547 0.28855 0.0
C1509 C 0.77264 0.02211 0.30736 0.0
C1510 C 0.73608 0.02397 0.2268 0.0
C1511 C 0.78352 0.98749 0.29685 0.0
C1512 C 0.74505 0.95759 0.22571 0.0
C1513 C 0.75901 0.95584 0.20232 0.0
C1514 C 0.74511 0.97386 0.24533 0.0
C1515 C 0.75933 0.98877 0.24122 0.0
C1516 C 0.77323 0.98727 0.21731 0.0
C1517 C 0.77294 0.97077 0.19821 0.0
C1518 C 0.73015 0.97495 0.27073 0.0
C1519 C 0.78849 0.00302 0.21206 0.0
H1520 H 0.7416 0.05239 0.2687 0.0
H1521 H 0.78188 0.02182 0.3275 0.0
H1522 H 0.74529 0.02206 0.20612 0.0
H1523 H 0.72518 0.01187 0.22697 0.0
H1524 H 0.72811 0.03816 0.22495 0.0
H1525 H 0.79147 0.98927 0.31882 0.0
H1526 H 0.77376 0.97449 0.29858 0.0
H1527 H 0.79441 0.98437 0.27864 0.0
H1528 H 0.73428 0.94606 0.22907 0.0
H1529 H 0.78372 0.96954 0.18009 0.0
H1530 H 0.7214 0.98863 0.26864 0.0
H1531 H 0.73773 0.97547 0.29312 0.0
H1532 H 0.71995 0.96221 0.27063 0.0
H1533 H 0.78123 0.01743 0.2085 0.0
H1534 H 0.79794 -0.00016 0.192 0.0
H1535 H 0.79798 0.00443 0.23252 0.0
C1536 C 0.04245 0.74499 0.23407 0.0
C1537 C 0.05254 0.76292 0.23584 0.0
C1538 C 0.02437 0.74239 0.24884 0.0
C1539 C 0.01622 0.7581 0.26574 0.0
C1540 C 0.02654 0.77607 0.26825 0.0
C1541 C 0.04459 0.77827 0.25324 0.0
C1542 C 0.01376 0.72301 0.24569 0.0
C1543 C 0.01827 0.79315 0.28611 0.0
C1544 C 0.96101 0.76048 0.27466 0.0
C1545 C 0.95842 0.75389 0.30473 0.0
C1546 C 0.97974 0.76169 0.26164 0.0
C1547 C 0.99631 0.75621 0.27913 0.0
C1548 C 0.99383 0.74931 0.30937 0.0
C1549 C 0.97487 0.7482 0.32183 0.0
C1550 C 0.98181 0.76905 0.22925 0.0
C1551 C 0.01121 0.74336 0.32865 0.0
H1552 H 0.04854 0.73302 0.22078 0.0
H1553 H 0.05234 0.79214 0.25485 0.0
H1554 H 0.00995 0.7171 0.26854 0.0
H1555 H -0.00021 0.72523 0.23313 0.0
H1556 H 0.02264 0.71188 0.23331 0.0
H1557 H 0.02865 0.80571 0.2873 0.0
H1558 H 0.00446 0.79827 0.2753 0.0
H1559 H 0.01461 0.78847 0.30969 0.0
H1560 H 0.94838 0.76484 0.26123 0.0
H1561 H 0.97297 0.74311 0.34509 0.0
H1562 H 0.9895 0.75794 0.2151 0.0
H1563 H 0.99086 0.7826 0.22892 0.0
H1564 H 0.9674 0.77234 0.21855 0.0
H1565 H 0.01976 0.73174 0.31688 0.0
H1566 H 0.00675 0.73783 0.35148 0.0
H1567 H 0.02115 0.75611 0.33181 0.0
C1568 C 0.74763 0.96999 0.78342 0.0
C1569 C 0.76562 0.95997 0.78275 0.0
C1570 C 0.74621 0.98951 0.77341 0.0
C1571 C 0.76321 -0.00078 0.76256 0.0
C1572 C 0.78141 0.98921 0.76183 0.0
C1573 C 0.78239 0.96968 0.7719 0.0
C1574 C 0.72654 -0.00027 0.7744 0.0
C1575 C 0.79985 -0.00087 0.75045 0.0
C1576 C 0.75754 0.04331 0.71046 0.0
C1577 C 0.76074 0.05895 0.7307 0.0
C1578 C 0.75807 0.02379 0.72062 0.0
C1579 C 0.76195 0.01983 0.75173 0.0
C1580 C 0.76498 0.03554 0.77237 0.0
C1581 C 0.7643 0.05493 0.76161 0.0
C1582 C 0.75469 0.0074 0.69798 0.0
C1583 C 0.7692 0.03183 0.80572 0.0
H1584 H 0.7346 0.96259 0.79177 0.0
H1585 H 0.79636 0.96205 0.77136 0.0
H1586 H 0.7275 0.01306 0.78889 0.0
H1587 H 0.72234 0.00461 0.75114 0.0
H1588 H 0.71474 0.99011 0.78351 0.0
H1589 H 0.81287 0.98933 0.75156 0.0
H1590 H 0.79782 0.00395 0.72647 0.0
H1591 H 0.80288 0.01247 0.76422 0.0
H1592 H 0.75473 0.04629 0.68655 0.0
H1593 H 0.7668 0.06694 0.77738 0.0
H1594 H 0.7423 -0.00198 0.70564 0.0
H1595 H 0.7679 -0.00209 0.69671 0.0
H1596 H 0.75137 0.01299 0.67472 0.0
H1597 H 0.75717 0.02307 0.81602 0.0
H1598 H 0.77084 0.04568 0.81889 0.0
H1599 H 0.78289 0.02315 0.80808 0.0
C1600 C 0.96785 0.774 0.69165 0.0
C1601 C 0.95132 0.76267 0.69902 0.0
C1602 C 0.9846 0.77376 0.71024 0.0
C1603 C 0.98473 0.76203 0.73692 0.0
C1604 C 0.9682 0.75035 0.74425 0.0
C1605 C 0.95171 0.75075 0.72513 0.0
C1606 C 0.00206 0.78626 0.70157 0.0
C1607 C 0.9678 0.73774 0.77262 0.0
C1608 C 0.03371 0.74937 0.773 0.0
C1609 C 0.03495 0.76341 0.79635 0.0
C1610 C 0.01743 0.74873 0.75346 0.0
C1611 C 0.00198 0.76236 0.75756 0.0
C1612 C 0.00303 0.77643 0.78129 0.0
C1613 C 0.01956 0.77683 0.80034 0.0
C1614 C 0.01684 0.73361 0.72825 0.0
C1615 C 0.98673 0.7911 0.78647 0.0
H1616 H 0.96768 0.78318 0.67144 0.0
H1617 H 0.93897 0.74198 0.731 0.0
H1618 H 0.00479 0.7974 0.71955 0.0
H1619 H 0.01543 0.77702 0.69991 0.0
H1620 H -0.00011 0.79397 0.67947 0.0
H1621 H 0.95398 0.72917 0.77468 0.0
H1622 H 0.98036 0.72737 0.7725 0.0
H1623 H 0.96937 0.74714 0.79317 0.0
H1624 H 0.0456 0.73899 0.76972 0.0
H1625 H 0.02039 0.78769 0.8184 0.0
H1626 H 0.01581 0.74105 0.70578 0.0
H1627 H 0.0036 0.72425 0.73071 0.0
H1628 H 0.03003 0.724 0.72823 0.0
H1629 H 0.98481 0.80036 0.76584 0.0
H1630 H 0.98966 0.80085 0.80629 0.0
H1631 H 0.97266 0.78329 0.79042 0.0
C1632 C 0.24299 0.95806 0.72458 0.0
C1633 C 0.22502 0.94801 0.72361 0.0
C1634 C 0.24396 0.97766 0.73425 0.0
C1635 C 0.22654 0.98743 0.74314 0.0
C1636 C 0.20839 0.97733 0.74254 0.0
C1637 C 0.20784 0.95771 0.73279 0.0
C1638 C 0.2636 0.98798 0.73469 0.0
C1639 C 0.18952 0.9873 0.75192 0.0
C1640 C 0.23117 0.03273 0.79289 0.0
C1641 C 0.22908 0.04789 0.77141 0.0
C1642 C 0.23034 0.01298 0.784 0.0
C1643 C 0.22733 0.00828 0.75291 0.0
C1644 C 0.22521 0.02347 0.7311 0.0
C1645 C 0.22612 0.04312 0.74062 0.0
C1646 C 0.23268 0.99714 0.80788 0.0
C1647 C 0.22198 0.01897 0.69772 0.0
H1648 H 0.25634 0.95067 0.71755 0.0
H1649 H 0.1939 0.95005 0.73209 0.0
H1650 H 0.26322 0.00091 0.71928 0.0
H1651 H 0.26678 0.99349 0.758 0.0
H1652 H 0.27581 0.9782 0.72745 0.0
H1653 H 0.17666 0.97731 0.7505 0.0
H1654 H 0.19076 0.9928 0.77568 0.0
H1655 H 0.18678 0.00021 0.73705 0.0
H1656 H 0.23344 0.03629 0.81674 0.0
H1657 H 0.22447 0.05474 0.7239 0.0
H1658 H 0.24545 0.9877 0.80219 0.0
H1659 H 0.2195 0.98756 0.80816 0.0
H1660 H 0.23486 0.00327 0.83113 0.0
H1661 H 0.23443 0.01018 0.68876 0.0
H1662 H 0.22053 0.03249 0.68369 0.0
H1663 H 0.2085 0.01001 0.69489 0.0
C1664 C 0.9587 0.25671 0.76627 0.0
C1665 C 0.95605 0.24185 0.78807 0.0
C1666 C 0.97462 0.25622 0.746 0.0
C1667 C 0.98828 0.24062 0.74783 0.0
C1668 C 0.98585 0.22573 0.77006 0.0
C1669 C 0.96969 0.22648 0.78984 0.0
C1670 C 0.9767 0.27228 0.72241 0.0
C1671 C 0.00028 0.20897 0.77287 0.0
C1672 C 0.01991 0.22845 0.67914 0.0
C1673 C 0.03767 0.23757 0.6869 0.0
C1674 C 0.00359 0.22955 0.6986 0.0
C1675 C 0.00519 0.23987 0.72654 0.0
C1676 C 0.02302 0.24921 0.7344 0.0
C1677 C 0.03904 0.24802 0.71441 0.0
C1678 C 0.9847 0.21956 0.68939 0.0
C1679 C 0.02529 0.26021 0.76413 0.0
H1680 H 0.94815 0.26859 0.76469 0.0
H1681 H 0.96776 0.21498 0.80671 0.0
H1682 H 0.991 0.27986 0.72526 0.0
H1683 H 0.97656 0.26581 0.69917 0.0
H1684 H 0.96477 0.28336 0.72398 0.0
H1685 H 0.99643 0.19875 0.79171 0.0
H1686 H 0.00078 0.20055 0.75121 0.0
H1687 H 0.01526 0.21481 0.77701 0.0
H1688 H 0.01874 0.22041 0.65787 0.0
H1689 H 0.05274 0.25506 0.72062 0.0
H1690 H 0.9725 0.23036 0.68918 0.0
H1691 H 0.98086 0.20806 0.70632 0.0
H1692 H 0.98571 0.21263 0.66649 0.0
H1693 H 0.01416 0.27207 0.76567 0.0
H1694 H 0.0401 0.26685 0.76667 0.0
H1695 H 0.02271 0.25011 0.7836 0.0
C1696 C 0.75771 0.52364 0.70825 0.0
C1697 C 0.73985 0.53265 0.7006 0.0
C1698 C 0.75826 0.50759 0.72833 0.0
C1699 C 0.74054 0.50045 0.74105 0.0
C1700 C 0.72249 0.5095 0.73349 0.0
C1701 C 0.72236 0.52547 0.71331 0.0
C1702 C 0.77777 0.49823 0.73584 0.0
C1703 C 0.7033 0.50229 0.74667 0.0
C1704 C 0.73761 0.44807 0.76996 0.0
C1705 C 0.73896 0.45074 0.80165 0.0
C1706 C 0.73851 0.46411 0.74995 0.0
C1707 C 0.74076 0.48327 0.76191 0.0
C1708 C 0.74248 0.48606 0.79382 0.0
C1709 C 0.74159 0.46974 0.81333 0.0
C1710 C 0.7367 0.46057 0.71602 0.0
C1711 C 0.74486 0.50632 0.80736 0.0
H1712 H 0.77128 0.52912 0.69854 0.0
H1713 H 0.7085 0.53238 0.7076 0.0
H1714 H 0.78032 0.49866 0.76084 0.0
H1715 H 0.77765 0.48254 0.72894 0.0
H1716 H 0.79023 0.50566 0.72423 0.0
H1717 H 0.69057 0.51113 0.7388 0.0
H1718 H 0.70085 0.48675 0.74008 0.0
H1719 H 0.70385 0.50283 0.77197 0.0
H1720 H 0.73567 0.43343 0.76072 0.0
H1721 H 0.74268 0.47191 0.83778 0.0
H1722 H 0.74947 0.467 0.7039 0.0
H1723 H 0.72334 0.46795 0.70718 0.0
H1724 H 0.73581 0.44469 0.71034 0.0
H1725 H 0.75779 0.51376 0.79716 0.0
H1726 H 0.74673 0.50591 0.83254 0.0
H1727 H 0.73179 0.51539 0.80192 0.0
C1728 C 0.5381 0.74357 0.79927 0.0
C1729 C 0.55461 0.73751 0.78261 0.0
C1730 C 0.51921 0.74227 0.78678 0.0
C1731 C 0.5168 0.73485 0.75685 0.0
C1732 C 0.53341 0.729 0.73971 0.0
C1733 C 0.55213 0.73034 0.75284 0.0
C1734 C 0.5018 0.74856 0.80577 0.0
C1735 C 0.53137 0.72113 0.70764 0.0
C1736 C 0.46713 0.71358 0.73612 0.0
C1737 C 0.45846 0.72924 0.72029 0.0
C1738 C 0.48617 0.71518 0.74799 0.0
C1739 C 0.49682 0.73282 0.74375 0.0
C1740 C 0.48826 0.74861 0.7275 0.0
C1741 C 0.46915 0.74665 0.71602 0.0
C1742 C 0.49481 0.69806 0.76534 0.0
C1743 C 0.49926 0.7676 0.72242 0.0
H1744 H 0.53989 0.74909 0.8223 0.0
H1745 H 0.56483 0.72569 0.73979 0.0
H1746 H 0.49338 0.76012 0.79363 0.0
H1747 H 0.49175 0.73592 0.80923 0.0
H1748 H 0.50622 0.75432 0.82848 0.0
H1749 H 0.54581 0.71777 0.69705 0.0
H1750 H 0.5224 0.70753 0.70784 0.0
H1751 H 0.52359 0.73196 0.69309 0.0
H1752 H 0.45896 0.70009 0.73954 0.0
H1753 H 0.46257 0.75879 0.7037 0.0
H1754 H 0.49837 0.70263 0.78901 0.0
H1755 H 0.50873 0.6933 0.75446 0.0
H1756 H 0.48467 0.6853 0.76634 0.0
H1757 H 0.50287 0.77444 0.7447 0.0
H1758 H 0.49068 0.7783 0.70867 0.0
H1759 H 0.51334 0.76464 0.71056 0.0
C1760 C 0.23279 0.46354 0.70695 0.0
C1761 C 0.25185 0.45614 0.70295 0.0
C1762 C 0.22936 0.48009 0.72528 0.0
C1763 C 0.24536 0.48936 0.73998 0.0
C1764 C 0.26461 0.48194 0.73607 0.0
C1765 C 0.26762 0.46545 0.71754 0.0
C1766 C 0.20866 0.48769 0.72885 0.0
C1767 C 0.28205 0.49143 0.75146 0.0
C1768 C 0.24303 0.54256 0.76472 0.0
C1769 C 0.24057 0.54073 0.79639 0.0
C1770 C 0.24381 0.52595 0.7459 0.0
C1771 C 0.24218 0.50705 0.75911 0.0
C1772 C 0.23892 0.50511 0.79087 0.0
C1773 C 0.23809 0.522 0.80917 0.0
C1774 C 0.24715 0.5286 0.71206 0.0
C1775 C 0.23712 0.48517 0.80572 0.0
H1776 H 0.22052 0.45641 0.69573 0.0
H1777 H 0.28238 0.45979 0.71465 0.0
H1778 H 0.20447 0.48778 0.75332 0.0
H1779 H 0.20779 0.50307 0.7206 0.0
H1780 H 0.19782 0.4787 0.71606 0.0
H1781 H 0.29602 0.48366 0.74642 0.0
H1782 H 0.28346 0.50691 0.74384 0.0
H1783 H 0.27984 0.49164 0.77655 0.0
H1784 H 0.24478 0.557 0.75463 0.0
H1785 H 0.23615 0.52048 0.83361 0.0
H1786 H 0.236 0.52028 0.69888 0.0
H1787 H 0.26176 0.52264 0.70575 0.0
H1788 H 0.24653 0.54427 0.70507 0.0
H1789 H 0.22589 0.4762 0.79379 0.0
H1790 H 0.2331 0.48621 0.83024 0.0
H1791 H 0.2513 0.47724 0.80383 0.0
C1792 C 0.44468 0.254 0.77771 0.0
C1793 C 0.44294 0.25034 0.80911 0.0
C1794 C 0.46307 0.25427 0.76344 0.0
C1795 C 0.48015 0.25085 0.78101 0.0
C1796 C 0.47851 0.24672 0.81257 0.0
C1797 C 0.45989 0.24649 0.82627 0.0
C1798 C 0.46426 0.25865 0.72968 0.0
C1799 C 0.49645 0.243 0.83197 0.0
C1800 C 0.52644 0.2375 0.73762 0.0
C1801 C 0.53593 0.25575 0.73567 0.0
C1802 C 0.50843 0.23558 0.75284 0.0
C1803 C 0.49975 0.25232 0.76642 0.0
C1804 C 0.5094 0.27071 0.76498 0.0
C1805 C 0.52738 0.2722 0.74959 0.0
C1806 C 0.49851 0.21575 0.75393 0.0
C1807 C 0.50057 0.28887 0.77924 0.0
H1808 H 0.43165 0.2569 0.76425 0.0
H1809 H 0.45866 0.24365 0.85054 0.0
H1810 H 0.47258 0.27245 0.72594 0.0
H1811 H 0.4723 0.24674 0.71773 0.0
H1812 H 0.44953 0.26022 0.71907 0.0
H1813 H 0.49261 0.23915 0.85588 0.0
H1814 H 0.5053 0.23088 0.82209 0.0
H1815 H 0.50588 0.25629 0.83223 0.0
H1816 H 0.53298 0.2247 0.72699 0.0
H1817 H 0.53465 0.28634 0.74829 0.0
H1818 H 0.48424 0.21645 0.74178 0.0
H1819 H 0.49536 0.21159 0.77792 0.0
H1820 H 0.5076 0.20403 0.74334 0.0
H1821 H 0.48633 0.29229 0.76814 0.0
H1822 H 0.51031 0.30189 0.7771 0.0
H1823 H 0.49755 0.28626 0.8038 0.0
C1824 C 0.28115 0.53649 0.24466 0.0
C1825 C 0.26705 0.54291 0.22358 0.0
C1826 C 0.27928 0.51823 0.25923 0.0
C1827 C 0.26295 0.50614 0.25249 0.0
C1828 C 0.24861 0.51258 0.23138 0.0
C1829 C 0.25083 0.5309 0.21718 0.0
C1830 C 0.29486 0.51182 0.28165 0.0
C1831 C 0.23101 0.50004 0.2236 0.0
C1832 C 0.26775 0.45143 0.26641 0.0
C1833 C 0.25764 0.44913 0.29409 0.0
C1834 C 0.26956 0.46991 0.25263 0.0
C1835 C 0.26111 0.48651 0.26692 0.0
C1836 C 0.25087 0.48433 0.29484 0.0
C1837 C 0.24923 0.46563 0.30809 0.0
C1838 C 0.28053 0.47168 0.22277 0.0
C1839 C 0.24171 0.50175 0.31073 0.0
H1840 H 0.2937 0.5457 0.24978 0.0
H1841 H 0.23986 0.53576 0.20094 0.0
H1842 H 0.28807 0.50857 0.30412 0.0
H1843 H 0.30191 0.49809 0.27354 0.0
H1844 H 0.30642 0.52314 0.28488 0.0
H1845 H 0.221 0.50736 0.20714 0.0
H1846 H 0.23594 0.4859 0.21361 0.0
H1847 H 0.22263 0.49653 0.24462 0.0
H1848 H 0.27428 0.43875 0.25541 0.0
H1849 H 0.24144 0.46398 0.32951 0.0
H1850 H 0.29308 0.48193 0.22539 0.0
H1851 H 0.27074 0.47788 0.20499 0.0
H1852 H 0.28621 0.45731 0.21462 0.0
H1853 H 0.25314 0.51288 0.31589 0.0
H1854 H 0.23429 0.49757 0.33236 0.0
H1855 H 0.2308 0.50883 0.29549 0.0
C1856 C 0.54162 0.24678 0.2819 0.0
C1857 C 0.53923 0.25402 0.31166 0.0
C1858 C 0.52587 0.24641 0.26134 0.0
C1859 C 0.50727 0.25333 0.27085 0.0
C1860 C 0.50461 0.26018 0.30107 0.0
C1861 C 0.52066 0.26049 0.32113 0.0
C1862 C 0.52925 0.23904 0.22924 0.0
C1863 C 0.48491 0.26752 0.31203 0.0
C1864 C 0.47165 0.27128 0.21049 0.0
C1865 C 0.4591 0.25508 0.20744 0.0
C1866 C 0.48748 0.27085 0.23093 0.0
C1867 C 0.49071 0.25386 0.24888 0.0
C1868 C 0.47818 0.23742 0.2458 0.0
C1869 C 0.46256 0.23819 0.225 0.0
C1870 C 0.50069 0.2886 0.23342 0.0
C1871 C 0.48114 0.2191 0.2647 0.0
H1872 H 0.55592 0.24175 0.27438 0.0
H1873 H 0.5187 0.26605 0.34411 0.0
H1874 H 0.51889 0.22694 0.22395 0.0
H1875 H 0.52637 0.25103 0.21267 0.0
H1876 H 0.54448 0.23365 0.22574 0.0
H1877 H 0.4851 0.27159 0.33658 0.0
H1878 H 0.48047 0.28058 0.29855 0.0
H1879 H 0.47353 0.25608 0.30845 0.0
H1880 H 0.46909 0.28436 0.19694 0.0
H1881 H 0.45287 0.22563 0.22286 0.0
H1882 H 0.5161 0.28437 0.22845 0.0
H1883 H 0.50033 0.29442 0.25707 0.0
H1884 H 0.49634 0.30054 0.21751 0.0
H1885 H 0.496 0.21298 0.26056 0.0
H1886 H 0.47009 0.20756 0.25951 0.0
H1887 H 0.4802 0.22276 0.28933 0.0
C1888 C 0.71398 0.55283 0.23083 0.0
C1889 C 0.72849 0.56013 0.2505 0.0
C1890 C 0.71614 0.53447 0.21671 0.0
C1891 C 0.73324 0.52323 0.22233 0.0
C1892 C 0.74822 0.53079 0.24135 0.0
C1893 C 0.74564 0.54913 0.25527 0.0
C1894 C 0.69984 0.52681 0.19661 0.0
C1895 C 0.7667 0.51924 0.24776 0.0
C1896 C 0.72947 0.4679 0.21642 0.0
C1897 C 0.7381 0.46426 0.1879 0.0
C1898 C 0.72774 0.48704 0.22775 0.0
C1899 C 0.73486 0.50296 0.21019 0.0
C1900 C 0.74366 0.49944 0.18143 0.0
C1901 C 0.74516 0.48009 0.17058 0.0
C1902 C 0.71826 0.49023 0.25855 0.0
C1903 C 0.75146 0.5161 0.16218 0.0
H1904 H 0.70072 0.56127 0.22697 0.0
H1905 H 0.757 0.55473 0.27026 0.0
H1906 H 0.70578 0.52229 0.1741 0.0
H1907 H 0.69318 0.5136 0.20723 0.0
H1908 H 0.68812 0.5379 0.1929 0.0
H1909 H 0.77753 0.5278 0.26128 0.0
H1910 H 0.76298 0.50569 0.2606 0.0
H1911 H 0.77371 0.51463 0.22605 0.0
H1912 H 0.72395 0.45577 0.22995 0.0
H1913 H 0.75183 0.47739 0.14851 0.0
H1914 H 0.70539 0.50011 0.25619 0.0
H1915 H 0.72878 0.4975 0.27422 0.0
H1916 H 0.71331 0.47626 0.26919 0.0
H1917 H 0.73951 0.52666 0.15706 0.0
H1918 H 0.75785 0.51089 0.14029 0.0
H1919 H 0.76293 0.52423 0.17497 0.0
C1920 C 0.45578 0.73656 0.26861 0.0
C1921 C 0.4591 0.73842 0.3001 0.0
C1922 C 0.47146 0.73592 0.24792 0.0
C1923 C 0.49092 0.73715 0.25897 0.0
C1924 C 0.4944 0.73937 0.29064 0.0
C1925 C 0.47842 0.74 0.31086 0.0
C1926 C 0.46718 0.73361 0.21427 0.0
C1927 C 0.515 0.74074 0.30319 0.0
C1928 C 0.53133 0.71548 0.20988 0.0
C1929 C 0.53934 0.73233 0.1963 0.0
C1930 C 0.51558 0.71687 0.23038 0.0
C1931 C 0.50765 0.73554 0.2374 0.0
C1932 C 0.51555 0.75259 0.22362 0.0
C1933 C 0.53132 0.75079 0.20322 0.0
C1934 C 0.50749 0.69835 0.24464 0.0
C1935 C 0.5074 0.77274 0.23051 0.0
H1936 H 0.4409 0.7354 0.26007 0.0
H1937 H 0.48111 0.74147 0.33514 0.0
H1938 H 0.4741 0.74574 0.20121 0.0
H1939 H 0.47363 0.71967 0.20582 0.0
H1940 H 0.45119 0.73351 0.20932 0.0
H1941 H 0.51518 0.74306 0.32829 0.0
H1942 H 0.52316 0.72705 0.29794 0.0
H1943 H 0.523 0.75303 0.29212 0.0
H1944 H 0.53745 0.70117 0.2047 0.0
H1945 H 0.53745 0.76388 0.19283 0.0
H1946 H 0.4917 0.69677 0.23894 0.0
H1947 H 0.50861 0.69924 0.26986 0.0
H1948 H 0.51535 0.68497 0.23682 0.0
H1949 H 0.49159 0.77331 0.22448 0.0
H1950 H 0.51519 0.78453 0.21783 0.0
H1951 H 0.50856 0.77581 0.25531 0.0
C1952 C 0.19391 0.13134 0.21679 0.0
C1953 C 0.20479 0.13939 0.19262 0.0
C1954 C 0.18092 0.14297 0.23384 0.0
C1955 C 0.17878 0.1631 0.22652 0.0
C1956 C 0.18942 0.17122 0.20179 0.0
C1957 C 0.2023 0.15926 0.18512 0.0
C1958 C 0.16979 0.13381 0.26006 0.0
C1959 C 0.18747 0.19264 0.1933 0.0
C1960 C 0.13426 0.19135 0.25448 0.0
C1961 C 0.14208 0.20165 0.27942 0.0
C1962 C 0.14596 0.17848 0.23732 0.0
C1963 C 0.16591 0.17586 0.24533 0.0
C1964 C 0.17377 0.18589 0.27085 0.0
C1965 C 0.16176 0.19866 0.28759 0.0
C1966 C 0.13708 0.16799 0.21027 0.0
C1967 C 0.19499 0.18341 0.28011 0.0
H1968 H 0.19571 0.11598 0.22269 0.0
H1969 H 0.21061 0.16557 0.16644 0.0
H1970 H 0.17414 0.14094 0.2818 0.0
H1971 H 0.15379 0.13624 0.25714 0.0
H1972 H 0.17253 0.11778 0.26203 0.0
H1973 H 0.19626 0.1965 0.17279 0.0
H1974 H 0.17186 0.19627 0.18879 0.0
H1975 H 0.19237 0.20196 0.2126 0.0
H1976 H 0.11906 0.19357 0.24804 0.0
H1977 H 0.1679 0.20653 0.30687 0.0
H1978 H 0.13919 0.1519 0.21257 0.0
H1979 H 0.14465 0.17263 0.18903 0.0
H1980 H 0.12114 0.17104 0.2078 0.0
H1981 H 0.19829 0.16765 0.28408 0.0
H1982 H 0.19865 0.19176 0.30114 0.0
H1983 H 0.20473 0.18851 0.26141 0.0
C1984 C 0.85383 0.2001 0.23325 0.0
C1985 C 0.84917 0.20236 0.20225 0.0
C1986 C 0.8422 0.18839 0.25243 0.0
C1987 C 0.82549 0.17882 0.24035 0.0
C1988 C 0.82083 0.18085 0.20902 0.0
C1989 C 0.83277 0.19256 0.19032 0.0
C1990 C 0.84768 0.18645 0.2857 0.0
C1991 C 0.80308 0.17089 0.19536 0.0
C1992 C 0.80337 0.1355 0.28271 0.0
C1993 C 0.7874 0.1443 0.2976 0.0
C1994 C 0.81606 0.14661 0.2643 0.0
C1995 C 0.81261 0.16697 0.26059 0.0
C1996 C 0.79665 0.17598 0.27582 0.0
C1997 C 0.78426 0.16455 0.29423 0.0
C1998 C 0.83302 0.13653 0.24856 0.0
C1999 C 0.79248 0.19766 0.27231 0.0
H2000 H 0.86652 0.20756 0.24262 0.0
H2001 H 0.82906 0.19425 0.1664 0.0
H2002 H 0.8357 0.19237 0.3002 0.0
H2003 H 0.84951 0.17073 0.29176 0.0
H2004 H 0.86148 0.19437 0.29131 0.0
H2005 H 0.80169 0.17368 0.17047 0.0
H2006 H 0.80392 0.15479 0.19913 0.0
H2007 H 0.78955 0.17619 0.20684 0.0
H2008 H 0.80594 0.11987 0.28529 0.0
H2009 H 0.77194 0.17145 0.30562 0.0
H2010 H 0.84704 0.14377 0.25488 0.0
H2011 H 0.83141 0.13788 0.22345 0.0
H2012 H 0.83401 0.1207 0.25452 0.0
H2013 H 0.80549 0.20635 0.27937 0.0
H2014 H 0.77965 0.20247 0.28608 0.0
H2015 H 0.78958 0.20113 0.24798 0.0
C2016 C 0.83184 0.80112 0.29298 0.0
C2017 C 0.85163 0.79835 0.28533 0.0
C2018 C 0.81957 0.81279 0.27478 0.0
C2019 C 0.82728 0.82183 0.24827 0.0
C2020 C 0.84731 0.81932 0.24063 0.0
C2021 C 0.85927 0.80764 0.25931 0.0
C2022 C 0.79829 0.81525 0.28373 0.0
C2023 C 0.85602 0.82874 0.21249 0.0
C2024 C 0.79076 0.83592 0.18673 0.0
C2025 C 0.78822 0.85603 0.19239 0.0
C2026 C 0.8037 0.82466 0.20444 0.0
C2027 C 0.8143 0.83375 0.22838 0.0
C2028 C 0.81209 0.8541 0.23384 0.0
C2029 C 0.7991 0.86501 0.21574 0.0
C2030 C 0.80578 0.80298 0.19789 0.0
C2031 C 0.82315 0.86427 0.2592 0.0
H2032 H 0.82584 0.79403 0.31308 0.0
H2033 H 0.87455 0.80554 0.25322 0.0
H2034 H 0.79477 0.83108 0.28635 0.0
H2035 H 0.78867 0.80938 0.26544 0.0
H2036 H 0.7947 0.80759 0.30541 0.0
H2037 H 0.87195 0.82563 0.21008 0.0
H2038 H 0.84834 0.82328 0.19183 0.0
H2039 H 0.85388 0.84488 0.21329 0.0
H2040 H 0.78244 0.82889 0.16869 0.0
H2041 H 0.79724 0.88056 0.22025 0.0
H2042 H 0.80089 0.79435 0.218 0.0
H2043 H 0.82142 0.79927 0.19376 0.0
H2044 H 0.79704 0.79831 0.17775 0.0
H2045 H 0.81889 0.85787 0.28153 0.0
H2046 H 0.82025 0.88033 0.25982 0.0
H2047 H 0.83917 0.86192 0.25643 0.0
C2048 C 0.19281 0.86012 0.30046 0.0
C2049 C 0.21122 0.86103 0.28615 0.0
C2050 C 0.17832 0.84704 0.29024 0.0
C2051 C 0.18243 0.83449 0.2653 0.0
C2052 C 0.20083 0.83561 0.25039 0.0
C2053 C 0.21498 0.84893 0.26093 0.0
C2054 C 0.15876 0.84638 0.30647 0.0
C2055 C 0.20577 0.82238 0.2238 0.0
C2056 C 0.15493 0.78632 0.25801 0.0
C2057 C 0.14174 0.79049 0.23432 0.0
C2058 C 0.16804 0.80063 0.26865 0.0
C2059 C 0.16782 0.81961 0.25546 0.0
C2060 C 0.15418 0.82409 0.23212 0.0
C2061 C 0.14134 0.80944 0.22172 0.0
C2062 C 0.18246 0.7953 0.29349 0.0
C2063 C 0.15341 0.84424 0.21774 0.0
H2064 H 0.18976 0.86951 0.31988 0.0
H2065 H 0.22917 0.84954 0.24976 0.0
H2066 H 0.14663 0.84835 0.28985 0.0
H2067 H 0.15673 0.83179 0.31731 0.0
H2068 H 0.1575 0.85786 0.32437 0.0
H2069 H 0.22053 0.82551 0.21415 0.0
H2070 H 0.20535 0.8068 0.23124 0.0
H2071 H 0.19469 0.82411 0.20545 0.0
H2072 H 0.15533 0.77171 0.26784 0.0
H2073 H 0.1311 0.8128 0.20353 0.0
H2074 H 0.18098 0.80558 0.313 0.0
H2075 H 0.19768 0.79671 0.28472 0.0
H2076 H 0.18033 0.78007 0.30198 0.0
H2077 H 0.15157 0.85563 0.23563 0.0
H2078 H 0.14122 0.84566 0.20103 0.0
H2079 H 0.16745 0.84734 0.20585 0.0
C2080 C 0.82817 0.79319 0.69587 0.0
C2081 C 0.84875 0.79337 0.69638 0.0
C2082 C 0.81728 0.80667 0.71319 0.0
C2083 C 0.82724 0.82069 0.73133 0.0
C2084 C 0.848 0.82125 0.73141 0.0
C2085 C 0.85852 0.80756 0.71396 0.0
C2086 C 0.79514 0.80563 0.71258 0.0
C2087 C 0.85911 0.83606 0.75039 0.0
C2088 C 0.79848 0.86516 0.7584 0.0
C2089 C 0.79341 0.85957 0.78821 0.0
C2090 C 0.80969 0.85274 0.7397 0.0
C2091 C 0.81592 0.83431 0.75109 0.0
C2092 C 0.81108 0.82871 0.78128 0.0
C2093 C 0.79991 0.84142 0.79949 0.0
C2094 C 0.81466 0.85922 0.70765 0.0
C2095 C 0.81748 0.80916 0.79421 0.0
H2096 H 0.82051 0.78228 0.68233 0.0
H2097 H 0.87443 0.80786 0.71438 0.0
H2098 H 0.78952 0.80218 0.73574 0.0
H2099 H 0.78893 0.82008 0.70592 0.0
H2100 H 0.78964 0.7943 0.69646 0.0
H2101 H 0.87524 0.8351 0.7469 0.0
H2102 H 0.85423 0.85117 0.74466 0.0
H2103 H 0.85592 0.83367 0.77495 0.0
H2104 H 0.79355 0.87918 0.74954 0.0
H2105 H 0.79606 0.83699 0.82249 0.0
H2106 H 0.80818 0.84884 0.69093 0.0
H2107 H 0.8308 0.859 0.70423 0.0
H2108 H 0.80915 0.87423 0.70254 0.0
H2109 H 0.81121 0.79704 0.78036 0.0
H2110 H 0.8128 0.80717 0.8183 0.0
H2111 H 0.8337 0.80782 0.79304 0.0
C2112 C 0.19604 0.84678 0.73523 0.0
C2113 C 0.18897 0.85831 0.71106 0.0
C2114 C 0.18396 0.8329 0.74964 0.0
C2115 C 0.16433 0.83057 0.73974 0.0
C2116 C 0.157 0.84235 0.71567 0.0
C2117 C 0.16944 0.85606 0.70156 0.0
C2118 C 0.1923 0.82055 0.77517 0.0
C2119 C 0.1361 0.84032 0.70463 0.0
C2120 C 0.13908 0.78203 0.75626 0.0
C2121 C 0.12782 0.78668 0.78206 0.0
C2122 C 0.151 0.7962 0.74223 0.0
C2123 C 0.15158 0.8155 0.7542 0.0
C2124 C 0.14016 0.82033 0.78013 0.0
C2125 C 0.12845 0.80584 0.79382 0.0
C2126 C 0.16307 0.79049 0.71469 0.0
C2127 C 0.14035 0.84079 0.79344 0.0
H2128 H 0.21112 0.84841 0.7427 0.0
H2129 H 0.16385 0.86494 0.68296 0.0
H2130 H 0.18336 0.82242 0.79614 0.0
H2131 H 0.19167 0.80478 0.76885 0.0
H2132 H 0.20777 0.82441 0.78049 0.0
H2133 H 0.13252 0.85097 0.68624 0.0
H2134 H 0.13362 0.82524 0.69585 0.0
H2135 H 0.12575 0.8426 0.72387 0.0
H2136 H 0.1387 0.76726 0.74707 0.0
H2137 H 0.11975 0.80956 0.81371 0.0
H2138 H 0.17888 0.79292 0.71943 0.0
H2139 H 0.15911 0.7999 0.69495 0.0
H2140 H 0.16091 0.77488 0.70815 0.0
H2141 H 0.15546 0.84472 0.80066 0.0
H2142 H 0.13041 0.84223 0.81342 0.0
H2143 H 0.13583 0.85161 0.77584 0.0
C2144 C 0.16333 0.20949 0.68542 0.0
C2145 C 0.1429 0.21052 0.68902 0.0
C2146 C 0.17472 0.1971 0.70392 0.0
C2147 C 0.16543 0.18559 0.72664 0.0
C2148 C 0.14482 0.18654 0.73035 0.0
C2149 C 0.1338 0.19894 0.71143 0.0
C2150 C 0.19667 0.19635 0.69921 0.0
C2151 C 0.13443 0.17455 0.75447 0.0
C2152 C 0.19172 0.14063 0.75742 0.0
C2153 C 0.19953 0.14778 0.78489 0.0
C2154 C 0.18069 0.15282 0.73814 0.0
C2155 C 0.17727 0.17258 0.74666 0.0
C2156 C 0.185 0.17986 0.77443 0.0
C2157 C 0.1961 0.16738 0.79317 0.0
C2158 C 0.17276 0.14459 0.70861 0.0
C2159 C 0.18152 0.20082 0.78434 0.0
H2160 H 0.17047 0.21836 0.66812 0.0
H2161 H 0.11802 0.19969 0.71443 0.0
H2162 H 0.20431 0.2009 0.72042 0.0
H2163 H 0.20131 0.18108 0.69412 0.0
H2164 H 0.20159 0.20603 0.68026 0.0
H2165 H 0.1183 0.17698 0.7544 0.0
H2166 H 0.1373 0.15869 0.7508 0.0
H2167 H 0.14021 0.17836 0.77739 0.0
H2168 H 0.19438 0.12552 0.75079 0.0
H2169 H 0.20206 0.173 0.81438 0.0
H2170 H 0.17836 0.15329 0.68904 0.0
H2171 H 0.15651 0.14573 0.70831 0.0
H2172 H 0.1769 0.12896 0.70518 0.0
H2173 H 0.18744 0.21109 0.76697 0.0
H2174 H 0.1885 0.20417 0.80666 0.0
H2175 H 0.16553 0.20367 0.78621 0.0
C2176 C 0.8354 0.21633 0.81072 0.0
C2177 C 0.85508 0.21927 0.80248 0.0
C2178 C 0.82325 0.20383 0.79365 0.0
C2179 C 0.83097 0.19412 0.76772 0.0
C2180 C 0.85086 0.19688 0.75947 0.0
C2181 C 0.86269 0.20939 0.77698 0.0
C2182 C 0.80211 0.20115 0.80318 0.0
C2183 C 0.85959 0.1868 0.73191 0.0
C2184 C 0.80476 0.14907 0.7371 0.0
C2185 C 0.79413 0.157 0.71259 0.0
C2186 C 0.81674 0.16101 0.75536 0.0
C2187 C 0.81817 0.18132 0.74886 0.0
C2188 C 0.80755 0.1894 0.7241 0.0
C2189 C 0.79563 0.17714 0.70628 0.0
C2190 C 0.82784 0.15191 0.78164 0.0
C2191 C 0.8088 0.211 0.71641 0.0
H2192 H 0.82943 0.22388 0.83042 0.0
H2193 H 0.87788 0.21158 0.77045 0.0
H2194 H 0.79222 0.20623 0.78467 0.0
H2195 H 0.79897 0.18535 0.80703 0.0
H2196 H 0.7985 0.20939 0.82434 0.0
H2197 H 0.87541 0.19026 0.72888 0.0
H2198 H 0.85793 0.17064 0.73406 0.0
H2199 H 0.85159 0.19135 0.71102 0.0
H2200 H 0.80363 0.13353 0.74219 0.0
H2201 H 0.78747 0.18337 0.68738 0.0
H2202 H 0.82363 0.15917 0.80334 0.0
H2203 H 0.84384 0.1542 0.77853 0.0
H2204 H 0.825 0.13589 0.7838 0.0
H2205 H 0.80402 0.21991 0.73627 0.0
H2206 H 0.79958 0.21497 0.69643 0.0
H2207 H 0.82424 0.21507 0.71139 0.0
C2208 C 0.72345 0.62824 0.72976 0.0
C2209 C 0.71957 0.61858 0.70214 0.0
C2210 C 0.70916 0.64003 0.74373 0.0
C2211 C 0.69053 0.64214 0.72981 0.0
C2212 C 0.68647 0.63235 0.70203 0.0
C2213 C 0.70107 0.62071 0.68847 0.0
C2214 C 0.71404 0.65033 0.7733 0.0
C2215 C 0.66674 0.63422 0.68658 0.0
C2216 C 0.64823 0.65929 0.7796 0.0
C2217 C 0.6474 0.67936 0.77247 0.0
C2218 C 0.66209 0.64694 0.76568 0.0
C2219 C 0.6754 0.65487 0.74411 0.0
C2220 C 0.67449 0.67505 0.73656 0.0
C2221 C 0.6605 0.68705 0.75082 0.0
C2222 C 0.66264 0.62546 0.77426 0.0
C2223 C 0.68844 0.68402 0.71365 0.0
H2224 H 0.73771 0.62668 0.74044 0.0
H2225 H 0.69794 0.61324 0.66718 0.0
H2226 H 0.71262 0.66646 0.77034 0.0
H2227 H 0.70349 0.64589 0.79134 0.0
H2228 H 0.72915 0.64702 0.78131 0.0
H2229 H 0.66584 0.62541 0.66528 0.0
H2230 H 0.65493 0.62934 0.7023 0.0
H2231 H 0.66384 0.64983 0.68089 0.0
H2232 H 0.63817 0.65322 0.79629 0.0
H2233 H 0.65995 0.70254 0.74512 0.0
H2234 H 0.67713 0.62179 0.78433 0.0
H2235 H 0.66083 0.61623 0.75358 0.0
H2236 H 0.651 0.62151 0.79093 0.0
H2237 H 0.7038 0.68224 0.72161 0.0
H2238 H 0.68557 0.69991 0.70991 0.0
H2239 H 0.68719 0.6763 0.69144 0.0
C2240 C 0.30579 0.63277 0.78095 0.0
C2241 C 0.29539 0.64112 0.80538 0.0
C2242 C 0.31903 0.64399 0.76369 0.0
C2243 C 0.32193 0.66401 0.77106 0.0
C2244 C 0.312 0.67234 0.79632 0.0
C2245 C 0.29885 0.66079 0.8132 0.0
C2246 C 0.32942 0.63458 0.73698 0.0
C2247 C 0.31479 0.69365 0.80491 0.0
C2248 C 0.36625 0.69113 0.73961 0.0
C2249 C 0.35795 0.70147 0.71508 0.0
C2250 C 0.35476 0.67868 0.75787 0.0
C2251 C 0.33453 0.67653 0.75138 0.0
C2252 C 0.32615 0.68664 0.72633 0.0
C2253 C 0.33797 0.69899 0.70848 0.0
C2254 C 0.36419 0.66809 0.78437 0.0
C2255 C 0.30462 0.68464 0.71865 0.0
H2256 H 0.30327 0.61755 0.77482 0.0
H2257 H 0.29093 0.66733 0.8321 0.0
H2258 H 0.32452 0.64158 0.71542 0.0
H2259 H 0.3455 0.63691 0.73878 0.0
H2260 H 0.32652 0.61855 0.73547 0.0
H2261 H 0.30686 0.69758 0.82622 0.0
H2262 H 0.33062 0.69692 0.80804 0.0
H2263 H 0.30937 0.7032 0.7862 0.0
H2264 H 0.3817 0.69296 0.74485 0.0
H2265 H 0.33145 0.70689 0.68955 0.0
H2266 H 0.36173 0.65204 0.78231 0.0
H2267 H 0.35729 0.67289 0.80607 0.0
H2268 H 0.38024 0.67087 0.78577 0.0
H2269 H 0.30089 0.66897 0.7148 0.0
H2270 H 0.30049 0.69315 0.69798 0.0
H2271 H 0.29558 0.68985 0.7381 0.0
C2272 C 0.31935 0.30267 0.7926 0.0
C2273 C 0.33946 0.29935 0.78818 0.0
C2274 C 0.30878 0.31504 0.77297 0.0
C2275 C 0.31857 0.32429 0.74834 0.0
C2276 C 0.33894 0.32129 0.74408 0.0
C2277 C 0.34915 0.30887 0.76407 0.0
C2278 C 0.28706 0.31796 0.77827 0.0
C2279 C 0.34987 0.33093 0.71806 0.0
C2280 C 0.28711 0.33975 0.68111 0.0
C2281 C 0.28442 0.35982 0.6869 0.0
C2282 C 0.29848 0.32807 0.70067 0.0
C2283 C 0.30736 0.3367 0.72662 0.0
C2284 C 0.3051 0.35704 0.73221 0.0
C2285 C 0.29366 0.36837 0.71225 0.0
C2286 C 0.30066 0.30642 0.69392 0.0
C2287 C 0.3144 0.36674 0.75962 0.0
H2288 H 0.31176 0.29541 0.8112 0.0
H2289 H 0.36471 0.30641 0.7605 0.0
H2290 H 0.28373 0.33384 0.78069 0.0
H2291 H 0.27868 0.3125 0.75829 0.0
H2292 H 0.28177 0.31019 0.799 0.0
H2293 H 0.36583 0.32759 0.7185 0.0
H2294 H 0.34376 0.32585 0.69596 0.0
H2295 H 0.34791 0.3471 0.71899 0.0
H2296 H 0.28005 0.33304 0.66154 0.0
H2297 H 0.29169 0.38389 0.71686 0.0
H2298 H 0.29416 0.29768 0.71277 0.0
H2299 H 0.31643 0.30245 0.6925 0.0
H2300 H 0.29339 0.30214 0.67222 0.0
H2301 H 0.30834 0.36027 0.78088 0.0
H2302 H 0.31183 0.38285 0.76007 0.0
H2303 H 0.33046 0.36402 0.75974 0.0
C2304 C 0.62636 0.28946 0.74981 0.0
C2305 C 0.63545 0.27728 0.72818 0.0
C2306 C 0.6374 0.30256 0.7676 0.0
C2307 C 0.65798 0.3036 0.76345 0.0
C2308 C 0.66725 0.29127 0.74179 0.0
C2309 C 0.65588 0.2782 0.72449 0.0
C2310 C 0.62704 0.31537 0.79067 0.0
C2311 C 0.68916 0.29208 0.7366 0.0
C2312 C 0.68471 0.35023 0.78604 0.0
C2313 C 0.69366 0.34462 0.81353 0.0
C2314 C 0.67288 0.33708 0.76969 0.0
C2315 C 0.6698 0.31791 0.78124 0.0
C2316 C 0.67839 0.31229 0.80933 0.0
C2317 C 0.69029 0.32571 0.8251 0.0
C2318 C 0.66403 0.34356 0.73972 0.0
C2319 C 0.67526 0.29202 0.82246 0.0
H2320 H 0.61059 0.28877 0.7529 0.0
H2321 H 0.663 0.26885 0.70779 0.0
H2322 H 0.63344 0.31305 0.81368 0.0
H2323 H 0.62919 0.33108 0.78478 0.0
H2324 H 0.61103 0.31233 0.79177 0.0
H2325 H 0.69413 0.28133 0.71915 0.0
H2326 H 0.69347 0.30703 0.72905 0.0
H2327 H 0.69704 0.28906 0.75825 0.0
H2328 H 0.68726 0.36481 0.77692 0.0
H2329 H 0.6971 0.32129 0.84639 0.0
H2330 H 0.64784 0.34179 0.74036 0.0
H2331 H 0.66961 0.33414 0.72096 0.0
H2332 H 0.66749 0.35911 0.73426 0.0
H2333 H 0.65932 0.28897 0.82476 0.0
H2334 H 0.68229 0.29024 0.84517 0.0
H2335 H 0.6814 0.28082 0.80674 0.0
C2336 C 0.33806 0.27443 0.19621 0.0
C2337 C 0.3586 0.27562 0.19704 0.0
C2338 C 0.32642 0.28712 0.21381 0.0
C2339 C 0.33556 0.30135 0.23257 0.0
C2340 C 0.35629 0.30268 0.23343 0.0
C2341 C 0.36756 0.28979 0.21568 0.0
C2342 C 0.30434 0.28527 0.21236 0.0
C2343 C 0.36655 0.31773 0.2531 0.0
C2344 C 0.30593 0.3459 0.25662 0.0
C2345 C 0.30048 0.34088 0.28651 0.0
C2346 C 0.31735 0.33316 0.23881 0.0
C2347 C 0.32345 0.31496 0.25119 0.0
C2348 C 0.31806 0.30981 0.28135 0.0
C2349 C 0.30664 0.32284 0.29867 0.0
C2350 C 0.32285 0.33916 0.20673 0.0
C2351 C 0.32432 0.29051 0.29528 0.0
H2352 H 0.33102 0.26351 0.18192 0.0
H2353 H 0.38343 0.29083 0.21642 0.0
H2354 H 0.29839 0.28223 0.23546 0.0
H2355 H 0.2978 0.29932 0.20453 0.0
H2356 H 0.29953 0.27337 0.19671 0.0
H2357 H 0.38279 0.31683 0.2512 0.0
H2358 H 0.36184 0.33274 0.24646 0.0
H2359 H 0.36238 0.31563 0.27737 0.0
H2360 H 0.30124 0.35981 0.24703 0.0
H2361 H 0.30247 0.31884 0.32173 0.0
H2362 H 0.3172 0.32821 0.19017 0.0
H2363 H 0.33906 0.33949 0.2043 0.0
H2364 H 0.31695 0.35384 0.20053 0.0
H2365 H 0.31873 0.27813 0.28129 0.0
H2366 H 0.31889 0.2887 0.31903 0.0
H2367 H 0.34058 0.28945 0.29543 0.0
C2368 C 0.63126 0.3064 0.29254 0.0
C2369 C 0.64024 0.29648 0.3169 0.0
C2370 C 0.64202 0.31917 0.27382 0.0
C2371 C 0.66223 0.32212 0.27968 0.0
C2372 C 0.67124 0.3127 0.30485 0.0
C2373 C 0.66012 0.29997 0.32317 0.0
C2374 C 0.63192 0.329 0.2472 0.0
C2375 C 0.69275 0.31561 0.31187 0.0
C2376 C 0.69501 0.33709 0.21371 0.0
C2377 C 0.69729 0.35728 0.2189 0.0
C2378 C 0.68352 0.32551 0.23324 0.0
C2379 C 0.67416 0.33434 0.25862 0.0
C2380 C 0.67625 0.35473 0.26387 0.0
C2381 C 0.68778 0.36598 0.24389 0.0
C2382 C 0.68153 0.3038 0.22685 0.0
C2383 C 0.66649 0.36462 0.29074 0.0
H2384 H 0.61588 0.30384 0.28758 0.0
H2385 H 0.66715 0.29242 0.34201 0.0
H2386 H 0.6342 0.34512 0.24813 0.0
H2387 H 0.63844 0.32372 0.22548 0.0
H2388 H 0.61589 0.32599 0.24675 0.0
H2389 H 0.69724 0.30812 0.33329 0.0
H2390 H 0.70177 0.30977 0.29283 0.0
H2391 H 0.69612 0.3315 0.31396 0.0
H2392 H 0.70229 0.33027 0.19443 0.0
H2393 H 0.6895 0.38158 0.24809 0.0
H2394 H 0.66581 0.29989 0.22413 0.0
H2395 H 0.68727 0.29522 0.24645 0.0
H2396 H 0.68955 0.29927 0.20593 0.0
H2397 H 0.65038 0.36228 0.2898 0.0
H2398 H 0.66942 0.38067 0.29142 0.0
H2399 H 0.6718 0.35797 0.31234 0.0
C2400 C 0.66471 0.64212 0.2879 0.0
C2401 C 0.68505 0.64257 0.28291 0.0
C2402 C 0.65223 0.6556 0.27336 0.0
C2403 C 0.66031 0.66988 0.2535 0.0
C2404 C 0.68083 0.67048 0.24853 0.0
C2405 C 0.69294 0.6568 0.26324 0.0
C2406 C 0.63039 0.65451 0.27911 0.0
C2407 C 0.68999 0.68555 0.22759 0.0
C2408 C 0.62817 0.69353 0.19308 0.0
C2409 C 0.62391 0.71177 0.20641 0.0
C2410 C 0.63976 0.67963 0.20837 0.0
C2411 C 0.64733 0.68413 0.23762 0.0
C2412 C 0.64297 0.70245 0.25131 0.0
C2413 C 0.63127 0.71604 0.23556 0.0
C2414 C 0.64405 0.66021 0.19311 0.0
C2415 C 0.65087 0.70777 0.28244 0.0
H2416 H 0.6585 0.63117 0.30304 0.0
H2417 H 0.70865 0.65729 0.25931 0.0
H2418 H 0.62505 0.66869 0.28842 0.0
H2419 H 0.62253 0.65193 0.2573 0.0
H2420 H 0.62646 0.64261 0.29535 0.0
H2421 H 0.70623 0.6842 0.22649 0.0
H2422 H 0.68399 0.68391 0.20419 0.0
H2423 H 0.68624 0.70058 0.23549 0.0
H2424 H 0.62248 0.69008 0.17061 0.0
H2425 H 0.62804 0.7301 0.24602 0.0
H2426 H 0.63929 0.64792 0.20802 0.0
H2427 H 0.6601 0.6586 0.18953 0.0
H2428 H 0.63657 0.65876 0.17069 0.0
H2429 H 0.64626 0.69664 0.29949 0.0
H2430 H 0.64575 0.72245 0.29019 0.0
H2431 H 0.66716 0.70779 0.28194 0.0
C2432 C 0.29742 0.64103 0.22484 0.0
C2433 C 0.30568 0.62983 0.20121 0.0
C2434 C 0.30856 0.65512 0.24048 0.0
C2435 C 0.32846 0.65802 0.23237 0.0
C2436 C 0.33695 0.64666 0.20875 0.0
C2437 C 0.32544 0.63271 0.1934 0.0
C2438 C 0.299 0.667 0.26552 0.0
C2439 C 0.35816 0.64933 0.19957 0.0
C2440 C 0.35237 0.70666 0.25249 0.0
C2441 C 0.36293 0.70176 0.27889 0.0
C2442 C 0.34104 0.69257 0.23717 0.0
C2443 C 0.34034 0.6731 0.24845 0.0
C2444 C 0.35091 0.66805 0.27512 0.0
C2445 C 0.36204 0.68246 0.29009 0.0
C2446 C 0.32984 0.69851 0.20888 0.0
C2447 C 0.35054 0.64741 0.28775 0.0
H2448 H 0.28215 0.63893 0.23102 0.0
H2449 H 0.33193 0.6241 0.1752 0.0
H2450 H 0.3071 0.66498 0.28725 0.0
H2451 H 0.29963 0.68287 0.25976 0.0
H2452 H 0.28341 0.66283 0.26921 0.0
H2453 H 0.36262 0.63911 0.18106 0.0
H2454 H 0.36061 0.66462 0.19168 0.0
H2455 H 0.36786 0.64689 0.21956 0.0
H2456 H 0.35294 0.72155 0.24374 0.0
H2457 H 0.37018 0.67855 0.31045 0.0
H2458 H 0.31394 0.69562 0.21212 0.0
H2459 H 0.33475 0.68957 0.18913 0.0
H2460 H 0.33183 0.71429 0.20321 0.0
H2461 H 0.33523 0.64309 0.29324 0.0
H2462 H 0.35961 0.64588 0.30869 0.0
H2463 H 0.35604 0.63694 0.27034 0.0
loop_
_geom_bond_atom_site_label_1
_geom_bond_atom_site_label_2
_geom_bond_distance
_geom_bond_site_symmetry_2
_ccdc_geom_bond_type
C0 O1 1.160 . S
C0 O7 1.185 . S
O1 C0 1.160 . S
O2 Zn3 1.899 . S
O2 C10 1.284 . S
Zn3 O2 1.899 . S
Zn3 O4 2.032 . S
Zn3 O7 2.086 . S
Zn3 O12 1.977 . S
O4 Zn3 2.032 . S
O4 C8 1.278 . S
C5 O6 1.203 . S
C5 O12 1.267 . S
O6 C5 1.203 . S
O7 C0 1.185 . S
O7 Zn3 2.086 . S
C8 O4 1.278 . S
C8 O9 1.211 . S
O9 C8 1.211 . S
C10 O2 1.284 . S
C10 O11 1.273 . S
O11 C10 1.273 . S
O12 Zn3 1.977 . S
O12 C5 1.267 . S
C13 O14 1.160 . S
C13 O20 1.185 . S
O14 C13 1.160 . S
O15 Zn16 1.899 . S
O15 C23 1.284 . S
Zn16 O15 1.899 . S
Zn16 O17 2.032 . S
Zn16 O20 2.086 . S
Zn16 O25 1.977 . S
O17 Zn16 2.032 . S
O17 C21 1.278 . S
C18 O19 1.203 . S
C18 O25 1.267 . S
O19 C18 1.203 . S
O20 C13 1.185 . S
O20 Zn16 2.086 . S
C21 O17 1.278 . S
C21 O22 1.211 . S
O22 C21 1.211 . S
C23 O15 1.284 . S
C23 O24 1.273 . S
O24 C23 1.273 . S
O25 Zn16 1.977 . S
O25 C18 1.267 . S
C26 O27 1.160 . S
C26 O33 1.185 . S
O27 C26 1.160 . S
O28 Zn29 1.899 . S
O28 C36 1.284 . S
Zn29 O28 1.899 . S
Zn29 O30 2.032 . S
Zn29 O33 2.086 . S
Zn29 O38 1.977 . S
O30 Zn29 2.032 . S
O30 C34 1.278 . S
C31 O32 1.203 . S
C31 O38 1.267 . S
O32 C31 1.203 . S
O33 C26 1.185 . S
O33 Zn29 2.086 . S
C34 O30 1.278 . S
C34 O35 1.211 . S
O35 C34 1.211 . S
C36 O28 1.284 . S
C36 O37 1.273 . S
O37 C36 1.273 . S
O38 Zn29 1.977 . S
O38 C31 1.267 . S
C39 O40 1.160 . S
C39 O46 1.185 . S
O40 C39 1.160 . S
O41 Zn42 1.899 . S
O41 C49 1.284 . S
Zn42 O41 1.899 . S
Zn42 O43 2.032 . S
Zn42 O46 2.086 . S
Zn42 O51 1.977 . S
O43 Zn42 2.032 . S
O43 C47 1.278 . S
C44 O45 1.203 . S
C44 O51 1.267 . S
O45 C44 1.203 . S
O46 C39 1.185 . S
O46 Zn42 2.086 . S
C47 O43 1.278 . S
C47 O48 1.211 . S
O48 C47 1.211 . S
C49 O41 1.284 . S
C49 O50 1.273 . S
O50 C49 1.273 . S
O51 Zn42 1.977 . S
O51 C44 1.267 . S
C52 O53 1.160 . S
C52 O59 1.185 . S
O53 C52 1.160 . S
O54 Zn55 1.899 . S
O54 C62 1.284 . S
Zn55 O54 1.899 . S
Zn55 O56 2.032 . S
Zn55 O59 2.086 . S
Zn55 O64 1.977 . S
O56 Zn55 2.032 . S
O56 C60 1.278 . S
C57 O58 1.203 . S
C57 O64 1.267 . S
O58 C57 1.203 . S
O59 C52 1.185 . S
O59 Zn55 2.086 . S
C60 O56 1.278 . S
C60 O61 1.211 . S
O61 C60 1.211 . S
C62 O54 1.284 . S
C62 O63 1.273 . S
O63 C62 1.273 . S
O64 Zn55 1.977 . S
O64 C57 1.267 . S
C65 O66 1.160 . S
C65 O72 1.185 . S
O66 C65 1.160 . S
O67 Zn68 1.899 . S
O67 C75 1.284 . S
Zn68 O67 1.899 . S
Zn68 O69 2.032 . S
Zn68 O72 2.086 . S
Zn68 O77 1.977 . S
O69 Zn68 2.032 . S
O69 C73 1.278 . S
C70 O71 1.203 . S
C70 O77 1.267 . S
O71 C70 1.203 . S
O72 C65 1.185 . S
O72 Zn68 2.086 . S
C73 O69 1.278 . S
C73 O74 1.211 . S
O74 C73 1.211 . S
C75 O67 1.284 . S
C75 O76 1.273 . S
O76 C75 1.273 . S
O77 Zn68 1.977 . S
O77 C70 1.267 . S
C78 O79 1.160 . S
C78 O85 1.185 . S
O79 C78 1.160 . S
O80 Zn81 1.899 . S
O80 C88 1.284 . S
Zn81 O80 1.899 . S
Zn81 O82 2.032 . S
Zn81 O85 2.086 . S
Zn81 O90 1.977 . S
O82 Zn81 2.032 . S
O82 C86 1.278 . S
C83 O84 1.203 . S
C83 O90 1.267 . S
O84 C83 1.203 . S
O85 C78 1.185 . S
O85 Zn81 2.086 . S
C86 O82 1.278 . S
C86 O87 1.211 . S
O87 C86 1.211 . S
C88 O80 1.284 . S
C88 O89 1.273 . S
O89 C88 1.273 . S
O90 Zn81 1.977 . S
O90 C83 1.267 . S
C91 O92 1.160 . S
C91 O98 1.185 . S
O92 C91 1.160 . S
O93 Zn94 1.899 . S
O93 C101 1.284 . S
Zn94 O93 1.899 . S
Zn94 O95 2.032 . S
Zn94 O98 2.086 . S
Zn94 O103 1.977 . S
O95 Zn94 2.032 . S
O95 C99 1.278 . S
C96 O97 1.203 . S
C96 O103 1.267 . S
O97 C96 1.203 . S
O98 C91 1.185 . S
O98 Zn94 2.086 . S
C99 O95 1.278 . S
C99 O100 1.211 . S
O100 C99 1.211 . S
C101 O93 1.284 . S
C101 O102 1.273 . S
O102 C101 1.273 . S
O103 Zn94 1.977 . S
O103 C96 1.267 . S
C104 O105 1.160 . S
C104 O111 1.185 . S
O105 C104 1.160 . S
O106 Zn107 1.899 . S
O106 C114 1.284 . S
Zn107 O106 1.899 . S
Zn107 O108 2.032 . S
Zn107 O111 2.086 . S
Zn107 O116 1.977 . S
O108 Zn107 2.032 . S
O108 C112 1.278 . S
C109 O110 1.203 . S
C109 O116 1.267 . S
O110 C109 1.203 . S
O111 C104 1.185 . S
O111 Zn107 2.086 . S
C112 O108 1.278 . S
C112 O113 1.211 . S
O113 C112 1.211 . S
C114 O106 1.284 . S
C114 O115 1.273 . S
O115 C114 1.273 . S
O116 Zn107 1.977 . S
O116 C109 1.267 . S
C117 O118 1.160 . S
C117 O124 1.185 . S
O118 C117 1.160 . S
O119 Zn120 1.899 . S
O119 C127 1.284 . S
Zn120 O119 1.899 . S
Zn120 O121 2.032 . S
Zn120 O124 2.086 . S
Zn120 O129 1.977 . S
O121 Zn120 2.032 . S
O121 C125 1.278 . S
C122 O123 1.203 . S
C122 O129 1.267 . S
O123 C122 1.203 . S
O124 C117 1.185 . S
O124 Zn120 2.086 . S
C125 O121 1.278 . S
C125 O126 1.211 . S
O126 C125 1.211 . S
C127 O119 1.284 . S
C127 O128 1.273 . S
O128 C127 1.273 . S
O129 Zn120 1.977 . S
O129 C122 1.267 . S
C130 O131 1.160 . S
C130 O137 1.185 . S
O131 C130 1.160 . S
O132 Zn133 1.899 . S
O132 C140 1.284 . S
Zn133 O132 1.899 . S
Zn133 O134 2.032 . S
Zn133 O137 2.086 . S
Zn133 O142 1.977 . S
O134 Zn133 2.032 . S
O134 C138 1.278 . S
C135 O136 1.203 . S
C135 O142 1.267 . S
O136 C135 1.203 . S
O137 C130 1.185 . S
O137 Zn133 2.086 . S
C138 O134 1.278 . S
C138 O139 1.211 . S
O139 C138 1.211 . S
C140 O132 1.284 . S
C140 O141 1.273 . S
O141 C140 1.273 . S
O142 Zn133 1.977 . S
O142 C135 1.267 . S
C143 O144 1.160 . S
C143 O150 1.185 . S
O144 C143 1.160 . S
O145 Zn146 1.899 . S
O145 C153 1.284 . S
Zn146 O145 1.899 . S
Zn146 O147 2.032 . S
Zn146 O150 2.086 . S
Zn146 O155 1.977 . S
O147 Zn146 2.032 . S
O147 C151 1.278 . S
C148 O149 1.203 . S
C148 O155 1.267 . S
O149 C148 1.203 . S
O150 C143 1.185 . S
O150 Zn146 2.086 . S
C151 O147 1.278 . S
C151 O152 1.211 . S
O152 C151 1.211 . S
C153 O145 1.284 . S
C153 O154 1.273 . S
O154 C153 1.273 . S
O155 Zn146 1.977 . S
O155 C148 1.267 . S
C156 O157 1.160 . S
C156 O163 1.185 . S
O157 C156 1.160 . S
O158 Zn159 1.899 . S
O158 C166 1.284 . S
Zn159 O158 1.899 . S
Zn159 O160 2.032 . S
Zn159 O163 2.086 . S
Zn159 O168 1.977 . S
O160 Zn159 2.032 . S
O160 C164 1.278 . S
C161 O162 1.203 . S
C161 O168 1.267 . S
O162 C161 1.203 . S
O163 C156 1.185 . S
O163 Zn159 2.086 . S
C164 O160 1.278 . S
C164 O165 1.211 . S
O165 C164 1.211 . S
C166 O158 1.284 . S
C166 O167 1.273 . S
O167 C166 1.273 . S
O168 Zn159 1.977 . S
O168 C161 1.267 . S
C169 O170 1.160 . S
C169 O176 1.185 . S
O170 C169 1.160 . S
O171 Zn172 1.899 . S
O171 C179 1.284 . S
Zn172 O171 1.899 . S
Zn172 O173 2.032 . S
Zn172 O176 2.086 . S
Zn172 O181 1.977 . S
O173 Zn172 2.032 . S
O173 C177 1.278 . S
C174 O175 1.203 . S
C174 O181 1.267 . S
O175 C174 1.203 . S
O176 C169 1.185 . S
O176 Zn172 2.086 . S
C177 O173 1.278 . S
C177 O178 1.211 . S
O178 C177 1.211 . S
C179 O171 1.284 . S
C179 O180 1.273 . S
O180 C179 1.273 . S
O181 Zn172 1.977 . S
O181 C174 1.267 . S
C182 O183 1.160 . S
C182 O189 1.185 . S
O183 C182 1.160 . S
O184 Zn185 1.899 . S
O184 C192 1.284 . S
Zn185 O184 1.899 . S
Zn185 O186 2.032 . S
Zn185 O189 2.086 . S
Zn185 O194 1.977 . S
O186 Zn185 2.032 . S
O186 C190 1.278 . S
C187 O188 1.203 . S
C187 O194 1.267 . S
O188 C187 1.203 . S
O189 C182 1.185 . S
O189 Zn185 2.086 . S
C190 O186 1.278 . S
C190 O191 1.211 . S
O191 C190 1.211 . S
C192 O184 1.284 . S
C192 O193 1.273 . S
O193 C192 1.273 . S
O194 Zn185 1.977 . S
O194 C187 1.267 . S
C195 O196 1.160 . S
C195 O202 1.185 . S
O196 C195 1.160 . S
O197 Zn198 1.899 . S
O197 C205 1.284 . S
Zn198 O197 1.899 . S
Zn198 O199 2.032 . S
Zn198 O202 2.086 . S
Zn198 O207 1.977 . S
O199 Zn198 2.032 . S
O199 C203 1.278 . S
C200 O201 1.203 . S
C200 O207 1.267 . S
O201 C200 1.203 . S
O202 C195 1.185 . S
O202 Zn198 2.086 . S
C203 O199 1.278 . S
C203 O204 1.211 . S
O204 C203 1.211 . S
C205 O197 1.284 . S
C205 O206 1.273 . S
O206 C205 1.273 . S
O207 Zn198 1.977 . S
O207 C200 1.267 . S
C208 O209 1.160 . S
C208 O215 1.185 . S
O209 C208 1.160 . S
O210 Zn211 1.899 . S
O210 C218 1.284 . S
Zn211 O210 1.899 . S
Zn211 O212 2.032 . S
Zn211 O215 2.086 . S
Zn211 O220 1.977 . S
O212 Zn211 2.032 . S
O212 C216 1.278 . S
C213 O214 1.203 . S
C213 O220 1.267 . S
O214 C213 1.203 . S
O215 C208 1.185 . S
O215 Zn211 2.086 . S
C216 O212 1.278 . S
C216 O217 1.211 . S
O217 C216 1.211 . S
C218 O210 1.284 . S
C218 O219 1.273 . S
O219 C218 1.273 . S
O220 Zn211 1.977 . S
O220 C213 1.267 . S
C221 O222 1.160 . S
C221 O228 1.185 . S
O222 C221 1.160 . S
O223 Zn224 1.899 . S
O223 C231 1.284 . S
Zn224 O223 1.899 . S
Zn224 O225 2.032 . S
Zn224 O228 2.086 . S
Zn224 O233 1.977 . S
O225 Zn224 2.032 . S
O225 C229 1.278 . S
C226 O227 1.203 . S
C226 O233 1.267 . S
O227 C226 1.203 . S
O228 C221 1.185 . S
O228 Zn224 2.086 . S
C229 O225 1.278 . S
C229 O230 1.211 . S
O230 C229 1.211 . S
C231 O223 1.284 . S
C231 O232 1.273 . S
O232 C231 1.273 . S
O233 Zn224 1.977 . S
O233 C226 1.267 . S
C234 O235 1.160 . S
C234 O241 1.185 . S
O235 C234 1.160 . S
O236 Zn237 1.899 . S
O236 C244 1.284 . S
Zn237 O236 1.899 . S
Zn237 O238 2.032 . S
Zn237 O241 2.086 . S
Zn237 O246 1.977 . S
O238 Zn237 2.032 . S
O238 C242 1.278 . S
C239 O240 1.203 . S
C239 O246 1.267 . S
O240 C239 1.203 . S
O241 C234 1.185 . S
O241 Zn237 2.086 . S
C242 O238 1.278 . S
C242 O243 1.211 . S
O243 C242 1.211 . S
C244 O236 1.284 . S
C244 O245 1.273 . S
O245 C244 1.273 . S
O246 Zn237 1.977 . S
O246 C239 1.267 . S
C247 O248 1.160 . S
C247 O254 1.185 . S
O248 C247 1.160 . S
O249 Zn250 1.899 . S
O249 C257 1.284 . S
Zn250 O249 1.899 . S
Zn250 O251 2.032 . S
Zn250 O254 2.086 . S
Zn250 O259 1.977 . S
O251 Zn250 2.032 . S
O251 C255 1.278 . S
C252 O253 1.203 . S
C252 O259 1.267 . S
O253 C252 1.203 . S
O254 C247 1.185 . S
O254 Zn250 2.086 . S
C255 O251 1.278 . S
C255 O256 1.211 . S
O256 C255 1.211 . S
C257 O249 1.284 . S
C257 O258 1.273 . S
O258 C257 1.273 . S
O259 Zn250 1.977 . S
O259 C252 1.267 . S
C260 O261 1.160 . S
C260 O267 1.185 . S
O261 C260 1.160 . S
O262 Zn263 1.899 . S
O262 C270 1.284 . S
Zn263 O262 1.899 . S
Zn263 O264 2.032 . S
Zn263 O267 2.086 . S
Zn263 O272 1.977 . S
O264 Zn263 2.032 . S
O264 C268 1.278 . S
C265 O266 1.203 . S
C265 O272 1.267 . S
O266 C265 1.203 . S
O267 C260 1.185 . S
O267 Zn263 2.086 . S
C268 O264 1.278 . S
C268 O269 1.211 . S
O269 C268 1.211 . S
C270 O262 1.284 . S
C270 O271 1.273 . S
O271 C270 1.273 . S
O272 Zn263 1.977 . S
O272 C265 1.267 . S
C273 O274 1.160 . S
C273 O280 1.185 . S
O274 C273 1.160 . S
O275 Zn276 1.899 . S
O275 C283 1.284 . S
Zn276 O275 1.899 . S
Zn276 O277 2.032 . S
Zn276 O280 2.086 . S
Zn276 O285 1.977 . S
O277 Zn276 2.032 . S
O277 C281 1.278 . S
C278 O279 1.203 . S
C278 O285 1.267 . S
O279 C278 1.203 . S
O280 C273 1.185 . S
O280 Zn276 2.086 . S
C281 O277 1.278 . S
C281 O282 1.211 . S
O282 C281 1.211 . S
C283 O275 1.284 . S
C283 O284 1.273 . S
O284 C283 1.273 . S
O285 Zn276 1.977 . S
O285 C278 1.267 . S
C286 O287 1.160 . S
C286 O293 1.185 . S
O287 C286 1.160 . S
O288 Zn289 1.899 . S
O288 C296 1.284 . S
Zn289 O288 1.899 . S
Zn289 O290 2.032 . S
Zn289 O293 2.086 . S
Zn289 O298 1.977 . S
O290 Zn289 2.032 . S
O290 C294 1.278 . S
C291 O292 1.203 . S
C291 O298 1.267 . S
O292 C291 1.203 . S
O293 C286 1.185 . S
O293 Zn289 2.086 . S
C294 O290 1.278 . S
C294 O295 1.211 . S
O295 C294 1.211 . S
C296 O288 1.284 . S
C296 O297 1.273 . S
O297 C296 1.273 . S
O298 Zn289 1.977 . S
O298 C291 1.267 . S
C299 O300 1.160 . S
C299 O306 1.185 . S
O300 C299 1.160 . S
O301 Zn302 1.899 . S
O301 C309 1.284 . S
Zn302 O301 1.899 . S
Zn302 O303 2.032 . S
Zn302 O306 2.086 . S
Zn302 O311 1.977 . S
O303 Zn302 2.032 . S
O303 C307 1.278 . S
C304 O305 1.203 . S
C304 O311 1.267 . S
O305 C304 1.203 . S
O306 C299 1.185 . S
O306 Zn302 2.086 . S
C307 O303 1.278 . S
C307 O308 1.211 . S
O308 C307 1.211 . S
C309 O301 1.284 . S
C309 O310 1.273 . S
O310 C309 1.273 . S
O311 Zn302 1.977 . S
O311 C304 1.267 . S
C312 O313 1.160 . S
C312 O319 1.185 . S
O313 C312 1.160 . S
O314 Zn315 1.899 . S
O314 C322 1.284 . S
Zn315 O314 1.899 . S
Zn315 O316 2.032 . S
Zn315 O319 2.086 . S
Zn315 O324 1.977 . S
O316 Zn315 2.032 . S
O316 C320 1.278 . S
C317 O318 1.203 . S
C317 O324 1.267 . S
O318 C317 1.203 . S
O319 C312 1.185 . S
O319 Zn315 2.086 . S
C320 O316 1.278 . S
C320 O321 1.211 . S
O321 C320 1.211 . S
C322 O314 1.284 . S
C322 O323 1.273 . S
O323 C322 1.273 . S
O324 Zn315 1.977 . S
O324 C317 1.267 . S
C325 O326 1.160 . S
C325 O332 1.185 . S
O326 C325 1.160 . S
O327 Zn328 1.899 . S
O327 C335 1.284 . S
Zn328 O327 1.899 . S
Zn328 O329 2.032 . S
Zn328 O332 2.086 . S
Zn328 O337 1.977 . S
O329 Zn328 2.032 . S
O329 C333 1.278 . S
C330 O331 1.203 . S
C330 O337 1.267 . S
O331 C330 1.203 . S
O332 C325 1.185 . S
O332 Zn328 2.086 . S
C333 O329 1.278 . S
C333 O334 1.211 . S
O334 C333 1.211 . S
C335 O327 1.284 . S
C335 O336 1.273 . S
O336 C335 1.273 . S
O337 Zn328 1.977 . S
O337 C330 1.267 . S
C338 O339 1.160 . S
C338 O345 1.185 . S
O339 C338 1.160 . S
O340 Zn341 1.899 . S
O340 C348 1.284 . S
Zn341 O340 1.899 . S
Zn341 O342 2.032 . S
Zn341 O345 2.086 . S
Zn341 O350 1.977 . S
O342 Zn341 2.032 . S
O342 C346 1.278 . S
C343 O344 1.203 . S
C343 O350 1.267 . S
O344 C343 1.203 . S
O345 C338 1.185 . S
O345 Zn341 2.086 . S
C346 O342 1.278 . S
C346 O347 1.211 . S
O347 C346 1.211 . S
C348 O340 1.284 . S
C348 O349 1.273 . S
O349 C348 1.273 . S
O350 Zn341 1.977 . S
O350 C343 1.267 . S
C351 O352 1.160 . S
C351 O358 1.185 . S
O352 C351 1.160 . S
O353 Zn354 1.899 . S
O353 C361 1.284 . S
Zn354 O353 1.899 . S
Zn354 O355 2.032 . S
Zn354 O358 2.086 . S
Zn354 O363 1.977 . S
O355 Zn354 2.032 . S
O355 C359 1.278 . S
C356 O357 1.203 . S
C356 O363 1.267 . S
O357 C356 1.203 . S
O358 C351 1.185 . S
O358 Zn354 2.086 . S
C359 O355 1.278 . S
C359 O360 1.211 . S
O360 C359 1.211 . S
C361 O353 1.284 . S
C361 O362 1.273 . S
O362 C361 1.273 . S
O363 Zn354 1.977 . S
O363 C356 1.267 . S
C364 O365 1.160 . S
C364 O371 1.185 . S
O365 C364 1.160 . S
O366 Zn367 1.899 . S
O366 C374 1.284 . S
Zn367 O366 1.899 . S
Zn367 O368 2.032 . S
Zn367 O371 2.086 . S
Zn367 O376 1.977 . S
O368 Zn367 2.032 . S
O368 C372 1.278 . S
C369 O370 1.203 . S
C369 O376 1.267 . S
O370 C369 1.203 . S
O371 C364 1.185 . S
O371 Zn367 2.086 . S
C372 O368 1.278 . S
C372 O373 1.211 . S
O373 C372 1.211 . S
C374 O366 1.284 . S
C374 O375 1.273 . S
O375 C374 1.273 . S
O376 Zn367 1.977 . S
O376 C369 1.267 . S
C377 O378 1.160 . S
C377 O384 1.185 . S
O378 C377 1.160 . S
O379 Zn380 1.899 . S
O379 C387 1.284 . S
Zn380 O379 1.899 . S
Zn380 O381 2.032 . S
Zn380 O384 2.086 . S
Zn380 O389 1.977 . S
O381 Zn380 2.032 . S
O381 C385 1.278 . S
C382 O383 1.203 . S
C382 O389 1.267 . S
O383 C382 1.203 . S
O384 C377 1.185 . S
O384 Zn380 2.086 . S
C385 O381 1.278 . S
C385 O386 1.211 . S
O386 C385 1.211 . S
C387 O379 1.284 . S
C387 O388 1.273 . S
O388 C387 1.273 . S
O389 Zn380 1.977 . S
O389 C382 1.267 . S
C390 O391 1.160 . S
C390 O397 1.185 . S
O391 C390 1.160 . S
O392 Zn393 1.899 . S
O392 C400 1.284 . S
Zn393 O392 1.899 . S
Zn393 O394 2.032 . S
Zn393 O397 2.086 . S
Zn393 O402 1.977 . S
O394 Zn393 2.032 . S
O394 C398 1.278 . S
C395 O396 1.203 . S
C395 O402 1.267 . S
O396 C395 1.203 . S
O397 C390 1.185 . S
O397 Zn393 2.086 . S
C398 O394 1.278 . S
C398 O399 1.211 . S
O399 C398 1.211 . S
C400 O392 1.284 . S
C400 O401 1.273 . S
O401 C400 1.273 . S
O402 Zn393 1.977 . S
O402 C395 1.267 . S
C403 O404 1.160 . S
C403 O410 1.185 . S
O404 C403 1.160 . S
O405 Zn406 1.899 . S
O405 C413 1.284 . S
Zn406 O405 1.899 . S
Zn406 O407 2.032 . S
Zn406 O410 2.086 . S
Zn406 O415 1.977 . S
O407 Zn406 2.032 . S
O407 C411 1.278 . S
C408 O409 1.203 . S
C408 O415 1.267 . S
O409 C408 1.203 . S
O410 C403 1.185 . S
O410 Zn406 2.086 . S
C411 O407 1.278 . S
C411 O412 1.211 . S
O412 C411 1.211 . S
C413 O405 1.284 . S
C413 O414 1.273 . S
O414 C413 1.273 . S
O415 Zn406 1.977 . S
O415 C408 1.267 . S
C416 C417 1.391 . S
C416 C418 1.394 . S
C416 H432 0.931 . S
C417 C416 1.391 . S
C417 C421 1.376 . S
C418 C416 1.394 . S
C418 C419 1.369 . S
C418 C422 1.531 . S
C419 C418 1.369 . S
C419 C420 1.410 . S
C419 C427 1.503 . S
C420 C419 1.410 . S
C420 C421 1.392 . S
C420 C423 1.511 . S
C421 C417 1.376 . S
C421 C420 1.392 . S
C421 H433 0.929 . S
C422 C418 1.531 . S
C422 H434 0.960 . S
C422 H435 0.962 . S
C422 H436 0.960 . S
C423 C420 1.511 . S
C423 H437 0.961 . S
C423 H438 0.961 . S
C423 H439 0.961 . S
C424 C425 1.370 . S
C424 C426 1.363 . S
C424 H440 0.931 . S
C425 C424 1.370 . S
C425 C429 1.408 . S
C426 C424 1.363 . S
C426 C427 1.370 . S
C426 C430 1.524 . S
C427 C419 1.503 . S
C427 C426 1.370 . S
C427 C428 1.403 . S
C428 C427 1.403 . S
C428 C429 1.404 . S
C428 C431 1.539 . S
C429 C425 1.408 . S
C429 C428 1.404 . S
C429 H441 0.930 . S
C430 C426 1.524 . S
C430 H442 0.956 . S
C430 H443 0.961 . S
C430 H444 0.961 . S
C431 C428 1.539 . S
C431 H445 0.958 . S
C431 H446 0.961 . S
C431 H447 0.960 . S
H432 C416 0.931 . S
H433 C421 0.929 . S
H434 C422 0.960 . S
H435 C422 0.962 . S
H436 C422 0.960 . S
H437 C423 0.961 . S
H438 C423 0.961 . S
H439 C423 0.961 . S
H440 C424 0.931 . S
H441 C429 0.930 . S
H442 C430 0.956 . S
H443 C430 0.961 . S
H444 C430 0.961 . S
H445 C431 0.958 . S
H446 C431 0.961 . S
H447 C431 0.960 . S
C448 C449 1.391 . S
C448 C450 1.394 . S
C448 H464 0.931 . S
C449 C448 1.391 . S
C449 C453 1.376 . S
C450 C448 1.394 . S
C450 C451 1.369 . S
C450 C454 1.531 . S
C451 C450 1.369 . S
C451 C452 1.410 . S
C451 C459 1.503 . S
C452 C451 1.410 . S
C452 C453 1.392 . S
C452 C455 1.511 . S
C453 C449 1.376 . S
C453 C452 1.392 . S
C453 H465 0.929 . S
C454 C450 1.531 . S
C454 H466 0.960 . S
C454 H467 0.962 . S
C454 H468 0.960 . S
C455 C452 1.511 . S
C455 H469 0.961 . S
C455 H470 0.961 . S
C455 H471 0.961 . S
C456 C457 1.370 . S
C456 C458 1.363 . S
C456 H472 0.931 . S
C457 C456 1.370 . S
C457 C461 1.408 . S
C458 C456 1.363 . S
C458 C459 1.370 . S
C458 C462 1.524 . S
C459 C451 1.503 . S
C459 C458 1.370 . S
C459 C460 1.403 . S
C460 C459 1.403 . S
C460 C461 1.404 . S
C460 C463 1.539 . S
C461 C457 1.408 . S
C461 C460 1.404 . S
C461 H473 0.930 . S
C462 C458 1.524 . S
C462 H474 0.956 . S
C462 H475 0.961 . S
C462 H476 0.961 . S
C463 C460 1.539 . S
C463 H477 0.958 . S
C463 H478 0.961 . S
C463 H479 0.960 . S
H464 C448 0.931 . S
H465 C453 0.929 . S
H466 C454 0.960 . S
H467 C454 0.962 . S
H468 C454 0.960 . S
H469 C455 0.961 . S
H470 C455 0.961 . S
H471 C455 0.961 . S
H472 C456 0.931 . S
H473 C461 0.930 . S
H474 C462 0.956 . S
H475 C462 0.961 . S
H476 C462 0.961 . S
H477 C463 0.958 . S
H478 C463 0.961 . S
H479 C463 0.960 . S
C480 C481 1.391 . S
C480 C482 1.394 . S
C480 H496 0.931 . S
C481 C480 1.391 . S
C481 C485 1.376 . S
C482 C480 1.394 . S
C482 C483 1.369 . S
C482 C486 1.531 . S
C483 C482 1.369 . S
C483 C484 1.410 . S
C483 C491 1.503 . S
C484 C483 1.410 . S
C484 C485 1.392 . S
C484 C487 1.511 . S
C485 C481 1.376 . S
C485 C484 1.392 . S
C485 H497 0.929 . S
C486 C482 1.531 . S
C486 H498 0.960 . S
C486 H499 0.962 . S
C486 H500 0.960 . S
C487 C484 1.511 . S
C487 H501 0.961 . S
C487 H502 0.961 . S
C487 H503 0.961 . S
C488 C489 1.370 . S
C488 C490 1.363 . S
C488 H504 0.931 . S
C489 C488 1.370 . S
C489 C493 1.408 . S
C490 C488 1.363 . S
C490 C491 1.370 . S
C490 C494 1.524 . S
C491 C483 1.503 . S
C491 C490 1.370 . S
C491 C492 1.403 . S
C492 C491 1.403 . S
C492 C493 1.404 . S
C492 C495 1.539 . S
C493 C489 1.408 . S
C493 C492 1.404 . S
C493 H505 0.930 . S
C494 C490 1.524 . S
C494 H506 0.956 . S
C494 H507 0.961 . S
C494 H508 0.961 . S
C495 C492 1.539 . S
C495 H509 0.958 . S
C495 H510 0.961 . S
C495 H511 0.960 . S
H496 C480 0.931 . S
H497 C485 0.929 . S
H498 C486 0.960 . S
H499 C486 0.962 . S
H500 C486 0.960 . S
H501 C487 0.961 . S
H502 C487 0.961 . S
H503 C487 0.961 . S
H504 C488 0.931 . S
H505 C493 0.930 . S
H506 C494 0.956 . S
H507 C494 0.961 . S
H508 C494 0.961 . S
H509 C495 0.958 . S
H510 C495 0.961 . S
H511 C495 0.960 . S
C512 C513 1.391 . S
C512 C514 1.394 . S
C512 H528 0.931 . S
C513 C512 1.391 . S
C513 C517 1.376 . S
C514 C512 1.394 . S
C514 C515 1.369 . S
C514 C518 1.531 . S
C515 C514 1.369 . S
C515 C516 1.410 . S
C515 C523 1.503 . S
C516 C515 1.410 . S
C516 C517 1.392 . S
C516 C519 1.511 . S
C517 C513 1.376 . S
C517 C516 1.392 . S
C517 H529 0.929 . S
C518 C514 1.531 . S
C518 H530 0.960 . S
C518 H531 0.962 . S
C518 H532 0.960 . S
C519 C516 1.511 . S
C519 H533 0.961 . S
C519 H534 0.961 . S
C519 H535 0.961 . S
C520 C521 1.370 . S
C520 C522 1.363 . S
C520 H536 0.931 . S
C521 C520 1.370 . S
C521 C525 1.408 . S
C522 C520 1.363 . S
C522 C523 1.370 . S
C522 C526 1.524 . S
C523 C515 1.503 . S
C523 C522 1.370 . S
C523 C524 1.403 . S
C524 C523 1.403 . S
C524 C525 1.404 . S
C524 C527 1.539 . S
C525 C521 1.408 . S
C525 C524 1.404 . S
C525 H537 0.930 . S
C526 C522 1.524 . S
C526 H538 0.956 . S
C526 H539 0.961 . S
C526 H540 0.961 . S
C527 C524 1.539 . S
C527 H541 0.958 . S
C527 H542 0.961 . S
C527 H543 0.960 . S
H528 C512 0.931 . S
H529 C517 0.929 . S
H530 C518 0.960 . S
H531 C518 0.962 . S
H532 C518 0.960 . S
H533 C519 0.961 . S
H534 C519 0.961 . S
H535 C519 0.961 . S
H536 C520 0.931 . S
H537 C525 0.930 . S
H538 C526 0.956 . S
H539 C526 0.961 . S
H540 C526 0.961 . S
H541 C527 0.958 . S
H542 C527 0.961 . S
H543 C527 0.960 . S
C544 C545 1.391 . S
C544 C546 1.394 . S
C544 H560 0.931 . S
C545 C544 1.391 . S
C545 C549 1.376 . S
C546 C544 1.394 . S
C546 C547 1.369 . S
C546 C550 1.531 . S
C547 C546 1.369 . S
C547 C548 1.410 . S
C547 C555 1.503 . S
C548 C547 1.410 . S
C548 C549 1.392 . S
C548 C551 1.511 . S
C549 C545 1.376 . S
C549 C548 1.392 . S
C549 H561 0.929 . S
C550 C546 1.531 . S
C550 H562 0.960 . S
C550 H563 0.962 . S
C550 H564 0.960 . S
C551 C548 1.511 . S
C551 H565 0.961 . S
C551 H566 0.961 . S
C551 H567 0.961 . S
C552 C553 1.370 . S
C552 C554 1.363 . S
C552 H568 0.931 . S
C553 C552 1.370 . S
C553 C557 1.408 . S
C554 C552 1.363 . S
C554 C555 1.370 . S
C554 C558 1.524 . S
C555 C547 1.503 . S
C555 C554 1.370 . S
C555 C556 1.403 . S
C556 C555 1.403 . S
C556 C557 1.404 . S
C556 C559 1.539 . S
C557 C553 1.408 . S
C557 C556 1.404 . S
C557 H569 0.930 . S
C558 C554 1.524 . S
C558 H570 0.956 . S
C558 H571 0.961 . S
C558 H572 0.961 . S
C559 C556 1.539 . S
C559 H573 0.958 . S
C559 H574 0.961 . S
C559 H575 0.960 . S
H560 C544 0.931 . S
H561 C549 0.929 . S
H562 C550 0.960 . S
H563 C550 0.962 . S
H564 C550 0.960 . S
H565 C551 0.961 . S
H566 C551 0.961 . S
H567 C551 0.961 . S
H568 C552 0.931 . S
H569 C557 0.930 . S
H570 C558 0.956 . S
H571 C558 0.961 . S
H572 C558 0.961 . S
H573 C559 0.958 . S
H574 C559 0.961 . S
H575 C559 0.960 . S
C576 C577 1.391 . S
C576 C578 1.394 . S
C576 H592 0.931 . S
C577 C576 1.391 . S
C577 C581 1.376 . S
C578 C576 1.394 . S
C578 C579 1.369 . S
C578 C582 1.531 . S
C579 C578 1.369 . S
C579 C580 1.410 . S
C579 C587 1.503 . S
C580 C579 1.410 . S
C580 C581 1.392 . S
C580 C583 1.511 . S
C581 C577 1.376 . S
C581 C580 1.392 . S
C581 H593 0.929 . S
C582 C578 1.531 . S
C582 H594 0.960 . S
C582 H595 0.962 . S
C582 H596 0.960 . S
C583 C580 1.511 . S
C583 H597 0.961 . S
C583 H598 0.961 . S
C583 H599 0.961 . S
C584 C585 1.370 . S
C584 C586 1.363 . S
C584 H600 0.931 . S
C585 C584 1.370 . S
C585 C589 1.408 . S
C586 C584 1.363 . S
C586 C587 1.370 . S
C586 C590 1.524 . S
C587 C579 1.503 . S
C587 C586 1.370 . S
C587 C588 1.403 . S
C588 C587 1.403 . S
C588 C589 1.404 . S
C588 C591 1.539 . S
C589 C585 1.408 . S
C589 C588 1.404 . S
C589 H601 0.930 . S
C590 C586 1.524 . S
C590 H602 0.956 . S
C590 H603 0.961 . S
C590 H604 0.961 . S
C591 C588 1.539 . S
C591 H605 0.958 . S
C591 H606 0.961 . S
C591 H607 0.960 . S
H592 C576 0.931 . S
H593 C581 0.929 . S
H594 C582 0.960 . S
H595 C582 0.962 . S
H596 C582 0.960 . S
H597 C583 0.961 . S
H598 C583 0.961 . S
H599 C583 0.961 . S
H600 C584 0.931 . S
H601 C589 0.930 . S
H602 C590 0.956 . S
H603 C590 0.961 . S
H604 C590 0.961 . S
H605 C591 0.958 . S
H606 C591 0.961 . S
H607 C591 0.960 . S
C608 C609 1.391 . S
C608 C610 1.394 . S
C608 H624 0.931 . S
C609 C608 1.391 . S
C609 C613 1.376 . S
C610 C608 1.394 . S
C610 C611 1.369 . S
C610 C614 1.531 . S
C611 C610 1.369 . S
C611 C612 1.410 . S
C611 C619 1.503 . S
C612 C611 1.410 . S
C612 C613 1.392 . S
C612 C615 1.511 . S
C613 C609 1.376 . S
C613 C612 1.392 . S
C613 H625 0.929 . S
C614 C610 1.531 . S
C614 H626 0.960 . S
C614 H627 0.962 . S
C614 H628 0.960 . S
C615 C612 1.511 . S
C615 H629 0.961 . S
C615 H630 0.961 . S
C615 H631 0.961 . S
C616 C617 1.370 . S
C616 C618 1.363 . S
C616 H632 0.931 . S
C617 C616 1.370 . S
C617 C621 1.408 . S
C618 C616 1.363 . S
C618 C619 1.370 . S
C618 C622 1.524 . S
C619 C611 1.503 . S
C619 C618 1.370 . S
C619 C620 1.403 . S
C620 C619 1.403 . S
C620 C621 1.404 . S
C620 C623 1.539 . S
C621 C617 1.408 . S
C621 C620 1.404 . S
C621 H633 0.930 . S
C622 C618 1.524 . S
C622 H634 0.956 . S
C622 H635 0.961 . S
C622 H636 0.961 . S
C623 C620 1.539 . S
C623 H637 0.958 . S
C623 H638 0.961 . S
C623 H639 0.960 . S
H624 C608 0.931 . S
H625 C613 0.929 . S
H626 C614 0.960 . S
H627 C614 0.962 . S
H628 C614 0.960 . S
H629 C615 0.961 . S
H630 C615 0.961 . S
H631 C615 0.961 . S
H632 C616 0.931 . S
H633 C621 0.930 . S
H634 C622 0.956 . S
H635 C622 0.961 . S
H636 C622 0.961 . S
H637 C623 0.958 . S
H638 C623 0.961 . S
H639 C623 0.960 . S
C640 C641 1.391 . S
C640 C642 1.394 . S
C640 H656 0.931 . S
C641 C640 1.391 . S
C641 C645 1.376 . S
C642 C640 1.394 . S
C642 C643 1.369 . S
C642 C646 1.531 . S
C643 C642 1.369 . S
C643 C644 1.410 . S
C643 C651 1.503 . S
C644 C643 1.410 . S
C644 C645 1.392 . S
C644 C647 1.511 . S
C645 C641 1.376 . S
C645 C644 1.392 . S
C645 H657 0.929 . S
C646 C642 1.531 . S
C646 H658 0.960 . S
C646 H659 0.962 . S
C646 H660 0.960 . S
C647 C644 1.511 . S
C647 H661 0.961 . S
C647 H662 0.961 . S
C647 H663 0.961 . S
C648 C649 1.370 . S
C648 C650 1.363 . S
C648 H664 0.931 . S
C649 C648 1.370 . S
C649 C653 1.408 . S
C650 C648 1.363 . S
C650 C651 1.370 . S
C650 C654 1.524 . S
C651 C643 1.503 . S
C651 C650 1.370 . S
C651 C652 1.403 . S
C652 C651 1.403 . S
C652 C653 1.404 . S
C652 C655 1.539 . S
C653 C649 1.408 . S
C653 C652 1.404 . S
C653 H665 0.930 . S
C654 C650 1.524 . S
C654 H666 0.956 . S
C654 H667 0.961 . S
C654 H668 0.961 . S
C655 C652 1.539 . S
C655 H669 0.958 . S
C655 H670 0.961 . S
C655 H671 0.960 . S
H656 C640 0.931 . S
H657 C645 0.929 . S
H658 C646 0.960 . S
H659 C646 0.962 . S
H660 C646 0.960 . S
H661 C647 0.961 . S
H662 C647 0.961 . S
H663 C647 0.961 . S
H664 C648 0.931 . S
H665 C653 0.930 . S
H666 C654 0.956 . S
H667 C654 0.961 . S
H668 C654 0.961 . S
H669 C655 0.958 . S
H670 C655 0.961 . S
H671 C655 0.960 . S
C672 C673 1.391 . S
C672 C674 1.394 . S
C672 H688 0.931 . S
C673 C672 1.391 . S
C673 C677 1.376 . S
C674 C672 1.394 . S
C674 C675 1.369 . S
C674 C678 1.531 . S
C675 C674 1.369 . S
C675 C676 1.410 . S
C675 C683 1.503 . S
C676 C675 1.410 . S
C676 C677 1.392 . S
C676 C679 1.511 . S
C677 C673 1.376 . S
C677 C676 1.392 . S
C677 H689 0.929 . S
C678 C674 1.531 . S
C678 H690 0.960 . S
C678 H691 0.962 . S
C678 H692 0.960 . S
C679 C676 1.511 . S
C679 H693 0.961 . S
C679 H694 0.961 . S
C679 H695 0.961 . S
C680 C681 1.370 . S
C680 C682 1.363 . S
C680 H696 0.931 . S
C681 C680 1.370 . S
C681 C685 1.408 . S
C682 C680 1.363 . S
C682 C683 1.370 . S
C682 C686 1.524 . S
C683 C675 1.503 . S
C683 C682 1.370 . S
C683 C684 1.403 . S
C684 C683 1.403 . S
C684 C685 1.404 . S
C684 C687 1.539 . S
C685 C681 1.408 . S
C685 C684 1.404 . S
C685 H697 0.930 . S
C686 C682 1.524 . S
C686 H698 0.956 . S
C686 H699 0.961 . S
C686 H700 0.961 . S
C687 C684 1.539 . S
C687 H701 0.958 . S
C687 H702 0.961 . S
C687 H703 0.960 . S
H688 C672 0.931 . S
H689 C677 0.929 . S
H690 C678 0.960 . S
H691 C678 0.962 . S
H692 C678 0.960 . S
H693 C679 0.961 . S
H694 C679 0.961 . S
H695 C679 0.961 . S
H696 C680 0.931 . S
H697 C685 0.930 . S
H698 C686 0.956 . S
H699 C686 0.961 . S
H700 C686 0.961 . S
H701 C687 0.958 . S
H702 C687 0.961 . S
H703 C687 0.960 . S
C704 C705 1.391 . S
C704 C706 1.394 . S
C704 H720 0.931 . S
C705 C704 1.391 . S
C705 C709 1.376 . S
C706 C704 1.394 . S
C706 C707 1.369 . S
C706 C710 1.531 . S
C707 C706 1.369 . S
C707 C708 1.410 . S
C707 C715 1.503 . S
C708 C707 1.410 . S
C708 C709 1.392 . S
C708 C711 1.511 . S
C709 C705 1.376 . S
C709 C708 1.392 . S
C709 H721 0.929 . S
C710 C706 1.531 . S
C710 H722 0.960 . S
C710 H723 0.962 . S
C710 H724 0.960 . S
C711 C708 1.511 . S
C711 H725 0.961 . S
C711 H726 0.961 . S
C711 H727 0.961 . S
C712 C713 1.370 . S
C712 C714 1.363 . S
C712 H728 0.931 . S
C713 C712 1.370 . S
C713 C717 1.408 . S
C714 C712 1.363 . S
C714 C715 1.370 . S
C714 C718 1.524 . S
C715 C707 1.503 . S
C715 C714 1.370 . S
C715 C716 1.403 . S
C716 C715 1.403 . S
C716 C717 1.404 . S
C716 C719 1.539 . S
C717 C713 1.408 . S
C717 C716 1.404 . S
C717 H729 0.930 . S
C718 C714 1.524 . S
C718 H730 0.956 . S
C718 H731 0.961 . S
C718 H732 0.961 . S
C719 C716 1.539 . S
C719 H733 0.958 . S
C719 H734 0.961 . S
C719 H735 0.960 . S
H720 C704 0.931 . S
H721 C709 0.929 . S
H722 C710 0.960 . S
H723 C710 0.962 . S
H724 C710 0.960 . S
H725 C711 0.961 . S
H726 C711 0.961 . S
H727 C711 0.961 . S
H728 C712 0.931 . S
H729 C717 0.930 . S
H730 C718 0.956 . S
H731 C718 0.961 . S
H732 C718 0.961 . S
H733 C719 0.958 . S
H734 C719 0.961 . S
H735 C719 0.960 . S
C736 C737 1.391 . S
C736 C738 1.394 . S
C736 H752 0.931 . S
C737 C736 1.391 . S
C737 C741 1.376 . S
C738 C736 1.394 . S
C738 C739 1.369 . S
C738 C742 1.531 . S
C739 C738 1.369 . S
C739 C740 1.410 . S
C739 C747 1.503 . S
C740 C739 1.410 . S
C740 C741 1.392 . S
C740 C743 1.511 . S
C741 C737 1.376 . S
C741 C740 1.392 . S
C741 H753 0.929 . S
C742 C738 1.531 . S
C742 H754 0.960 . S
C742 H755 0.962 . S
C742 H756 0.960 . S
C743 C740 1.511 . S
C743 H757 0.961 . S
C743 H758 0.961 . S
C743 H759 0.961 . S
C744 C745 1.370 . S
C744 C746 1.363 . S
C744 H760 0.931 . S
C745 C744 1.370 . S
C745 C749 1.408 . S
C746 C744 1.363 . S
C746 C747 1.370 . S
C746 C750 1.524 . S
C747 C739 1.503 . S
C747 C746 1.370 . S
C747 C748 1.403 . S
C748 C747 1.403 . S
C748 C749 1.404 . S
C748 C751 1.539 . S
C749 C745 1.408 . S
C749 C748 1.404 . S
C749 H761 0.930 . S
C750 C746 1.524 . S
C750 H762 0.956 . S
C750 H763 0.961 . S
C750 H764 0.961 . S
C751 C748 1.539 . S
C751 H765 0.958 . S
C751 H766 0.961 . S
C751 H767 0.960 . S
H752 C736 0.931 . S
H753 C741 0.929 . S
H754 C742 0.960 . S
H755 C742 0.962 . S
H756 C742 0.960 . S
H757 C743 0.961 . S
H758 C743 0.961 . S
H759 C743 0.961 . S
H760 C744 0.931 . S
H761 C749 0.930 . S
H762 C750 0.956 . S
H763 C750 0.961 . S
H764 C750 0.961 . S
H765 C751 0.958 . S
H766 C751 0.961 . S
H767 C751 0.960 . S
C768 C769 1.391 . S
C768 C770 1.394 . S
C768 H784 0.931 . S
C769 C768 1.391 . S
C769 C773 1.376 . S
C770 C768 1.394 . S
C770 C771 1.369 . S
C770 C774 1.531 . S
C771 C770 1.369 . S
C771 C772 1.410 . S
C771 C779 1.503 . S
C772 C771 1.410 . S
C772 C773 1.392 . S
C772 C775 1.511 . S
C773 C769 1.376 . S
C773 C772 1.392 . S
C773 H785 0.929 . S
C774 C770 1.531 . S
C774 H786 0.960 . S
C774 H787 0.962 . S
C774 H788 0.960 . S
C775 C772 1.511 . S
C775 H789 0.961 . S
C775 H790 0.961 . S
C775 H791 0.961 . S
C776 C777 1.370 . S
C776 C778 1.363 . S
C776 H792 0.931 . S
C777 C776 1.370 . S
C777 C781 1.408 . S
C778 C776 1.363 . S
C778 C779 1.370 . S
C778 C782 1.524 . S
C779 C771 1.503 . S
C779 C778 1.370 . S
C779 C780 1.403 . S
C780 C779 1.403 . S
C780 C781 1.404 . S
C780 C783 1.539 . S
C781 C777 1.408 . S
C781 C780 1.404 . S
C781 H793 0.930 . S
C782 C778 1.524 . S
C782 H794 0.956 . S
C782 H795 0.961 . S
C782 H796 0.961 . S
C783 C780 1.539 . S
C783 H797 0.958 . S
C783 H798 0.961 . S
C783 H799 0.960 . S
H784 C768 0.931 . S
H785 C773 0.929 . S
H786 C774 0.960 . S
H787 C774 0.962 . S
H788 C774 0.960 . S
H789 C775 0.961 . S
H790 C775 0.961 . S
H791 C775 0.961 . S
H792 C776 0.931 . S
H793 C781 0.930 . S
H794 C782 0.956 . S
H795 C782 0.961 . S
H796 C782 0.961 . S
H797 C783 0.958 . S
H798 C783 0.961 . S
H799 C783 0.960 . S
C800 C801 1.391 . S
C800 C802 1.394 . S
C800 H816 0.931 . S
C801 C800 1.391 . S
C801 C805 1.376 . S
C802 C800 1.394 . S
C802 C803 1.369 . S
C802 C806 1.531 . S
C803 C802 1.369 . S
C803 C804 1.410 . S
C803 C811 1.503 . S
C804 C803 1.410 . S
C804 C805 1.392 . S
C804 C807 1.511 . S
C805 C801 1.376 . S
C805 C804 1.392 . S
C805 H817 0.929 . S
C806 C802 1.531 . S
C806 H818 0.960 . S
C806 H819 0.962 . S
C806 H820 0.960 . S
C807 C804 1.511 . S
C807 H821 0.961 . S
C807 H822 0.961 . S
C807 H823 0.961 . S
C808 C809 1.370 . S
C808 C810 1.363 . S
C808 H824 0.931 . S
C809 C808 1.370 . S
C809 C813 1.408 . S
C810 C808 1.363 . S
C810 C811 1.370 . S
C810 C814 1.524 . S
C811 C803 1.503 . S
C811 C810 1.370 . S
C811 C812 1.403 . S
C812 C811 1.403 . S
C812 C813 1.404 . S
C812 C815 1.539 . S
C813 C809 1.408 . S
C813 C812 1.404 . S
C813 H825 0.930 . S
C814 C810 1.524 . S
C814 H826 0.956 . S
C814 H827 0.961 . S
C814 H828 0.961 . S
C815 C812 1.539 . S
C815 H829 0.958 . S
C815 H830 0.961 . S
C815 H831 0.960 . S
H816 C800 0.931 . S
H817 C805 0.929 . S
H818 C806 0.960 . S
H819 C806 0.962 . S
H820 C806 0.960 . S
H821 C807 0.961 . S
H822 C807 0.961 . S
H823 C807 0.961 . S
H824 C808 0.931 . S
H825 C813 0.930 . S
H826 C814 0.956 . S
H827 C814 0.961 . S
H828 C814 0.961 . S
H829 C815 0.958 . S
H830 C815 0.961 . S
H831 C815 0.960 . S
C832 C833 1.391 . S
C832 C834 1.394 . S
C832 H848 0.931 . S
C833 C832 1.391 . S
C833 C837 1.376 . S
C834 C832 1.394 . S
C834 C835 1.369 . S
C834 C838 1.531 . S
C835 C834 1.369 . S
C835 C836 1.410 . S
C835 C843 1.503 . S
C836 C835 1.410 . S
C836 C837 1.392 . S
C836 C839 1.511 . S
C837 C833 1.376 . S
C837 C836 1.392 . S
C837 H849 0.929 . S
C838 C834 1.531 . S
C838 H850 0.960 . S
C838 H851 0.962 . S
C838 H852 0.960 . S
C839 C836 1.511 . S
C839 H853 0.961 . S
C839 H854 0.961 . S
C839 H855 0.961 . S
C840 C841 1.370 . S
C840 C842 1.363 . S
C840 H856 0.931 . S
C841 C840 1.370 . S
C841 C845 1.408 . S
C842 C840 1.363 . S
C842 C843 1.370 . S
C842 C846 1.524 . S
C843 C835 1.503 . S
C843 C842 1.370 . S
C843 C844 1.403 . S
C844 C843 1.403 . S
C844 C845 1.404 . S
C844 C847 1.539 . S
C845 C841 1.408 . S
C845 C844 1.404 . S
C845 H857 0.930 . S
C846 C842 1.524 . S
C846 H858 0.956 . S
C846 H859 0.961 . S
C846 H860 0.961 . S
C847 C844 1.539 . S
C847 H861 0.958 . S
C847 H862 0.961 . S
C847 H863 0.960 . S
H848 C832 0.931 . S
H849 C837 0.929 . S
H850 C838 0.960 . S
H851 C838 0.962 . S
H852 C838 0.960 . S
H853 C839 0.961 . S
H854 C839 0.961 . S
H855 C839 0.961 . S
H856 C840 0.931 . S
H857 C845 0.930 . S
H858 C846 0.956 . S
H859 C846 0.961 . S
H860 C846 0.961 . S
H861 C847 0.958 . S
H862 C847 0.961 . S
H863 C847 0.960 . S
C864 C865 1.391 . S
C864 C866 1.394 . S
C864 H880 0.931 . S
C865 C864 1.391 . S
C865 C869 1.376 . S
C866 C864 1.394 . S
C866 C867 1.369 . S
C866 C870 1.531 . S
C867 C866 1.369 . S
C867 C868 1.410 . S
C867 C875 1.503 . S
C868 C867 1.410 . S
C868 C869 1.392 . S
C868 C871 1.511 . S
C869 C865 1.376 . S
C869 C868 1.392 . S
C869 H881 0.929 . S
C870 C866 1.531 . S
C870 H882 0.960 . S
C870 H883 0.962 . S
C870 H884 0.960 . S
C871 C868 1.511 . S
C871 H885 0.961 . S
C871 H886 0.961 . S
C871 H887 0.961 . S
C872 C873 1.370 . S
C872 C874 1.363 . S
C872 H888 0.931 . S
C873 C872 1.370 . S
C873 C877 1.408 . S
C874 C872 1.363 . S
C874 C875 1.370 . S
C874 C878 1.524 . S
C875 C867 1.503 . S
C875 C874 1.370 . S
C875 C876 1.403 . S
C876 C875 1.403 . S
C876 C877 1.404 . S
C876 C879 1.539 . S
C877 C873 1.408 . S
C877 C876 1.404 . S
C877 H889 0.930 . S
C878 C874 1.524 . S
C878 H890 0.956 . S
C878 H891 0.961 . S
C878 H892 0.961 . S
C879 C876 1.539 . S
C879 H893 0.958 . S
C879 H894 0.961 . S
C879 H895 0.960 . S
H880 C864 0.931 . S
H881 C869 0.929 . S
H882 C870 0.960 . S
H883 C870 0.962 . S
H884 C870 0.960 . S
H885 C871 0.961 . S
H886 C871 0.961 . S
H887 C871 0.961 . S
H888 C872 0.931 . S
H889 C877 0.930 . S
H890 C878 0.956 . S
H891 C878 0.961 . S
H892 C878 0.961 . S
H893 C879 0.958 . S
H894 C879 0.961 . S
H895 C879 0.960 . S
C896 C897 1.391 . S
C896 C898 1.394 . S
C896 H912 0.931 . S
C897 C896 1.391 . S
C897 C901 1.376 . S
C898 C896 1.394 . S
C898 C899 1.369 . S
C898 C902 1.531 . S
C899 C898 1.369 . S
C899 C900 1.410 . S
C899 C907 1.503 . S
C900 C899 1.410 . S
C900 C901 1.392 . S
C900 C903 1.511 . S
C901 C897 1.376 . S
C901 C900 1.392 . S
C901 H913 0.929 . S
C902 C898 1.531 . S
C902 H914 0.960 . S
C902 H915 0.962 . S
C902 H916 0.960 . S
C903 C900 1.511 . S
C903 H917 0.961 . S
C903 H918 0.961 . S
C903 H919 0.961 . S
C904 C905 1.370 . S
C904 C906 1.363 . S
C904 H920 0.931 . S
C905 C904 1.370 . S
C905 C909 1.408 . S
C906 C904 1.363 . S
C906 C907 1.370 . S
C906 C910 1.524 . S
C907 C899 1.503 . S
C907 C906 1.370 . S
C907 C908 1.403 . S
C908 C907 1.403 . S
C908 C909 1.404 . S
C908 C911 1.539 . S
C909 C905 1.408 . S
C909 C908 1.404 . S
C909 H921 0.930 . S
C910 C906 1.524 . S
C910 H922 0.956 . S
C910 H923 0.961 . S
C910 H924 0.961 . S
C911 C908 1.539 . S
C911 H925 0.958 . S
C911 H926 0.961 . S
C911 H927 0.960 . S
H912 C896 0.931 . S
H913 C901 0.929 . S
H914 C902 0.960 . S
H915 C902 0.962 . S
H916 C902 0.960 . S
H917 C903 0.961 . S
H918 C903 0.961 . S
H919 C903 0.961 . S
H920 C904 0.931 . S
H921 C909 0.930 . S
H922 C910 0.956 . S
H923 C910 0.961 . S
H924 C910 0.961 . S
H925 C911 0.958 . S
H926 C911 0.961 . S
H927 C911 0.960 . S
C928 C929 1.391 . S
C928 C930 1.394 . S
C928 H944 0.931 . S
C929 C928 1.391 . S
C929 C933 1.376 . S
C930 C928 1.394 . S
C930 C931 1.369 . S
C930 C934 1.531 . S
C931 C930 1.369 . S
C931 C932 1.410 . S
C931 C939 1.503 1_554 S
C932 C931 1.410 . S
C932 C933 1.392 . S
C932 C935 1.511 . S
C933 C929 1.376 . S
C933 C932 1.392 . S
C933 H945 0.929 . S
C934 C930 1.531 . S
C934 H946 0.960 1_554 S
C934 H947 0.962 . S
C934 H948 0.960 . S
C935 C932 1.511 . S
C935 H949 0.961 . S
C935 H950 0.961 1_554 S
C935 H951 0.961 . S
C936 C937 1.370 . S
C936 C938 1.363 . S
C936 H952 0.931 . S
C937 C936 1.370 . S
C937 C941 1.408 . S
C938 C936 1.363 . S
C938 C939 1.370 . S
C938 C942 1.524 . S
C939 C931 1.503 1_556 S
C939 C938 1.370 . S
C939 C940 1.403 . S
C940 C939 1.403 . S
C940 C941 1.404 . S
C940 C943 1.539 . S
C941 C937 1.408 . S
C941 C940 1.404 . S
C941 H953 0.930 . S
C942 C938 1.524 . S
C942 H954 0.956 . S
C942 H955 0.961 1_556 S
C942 H956 0.961 . S
C943 C940 1.539 . S
C943 H957 0.958 . S
C943 H958 0.961 . S
C943 H959 0.972 . S
H944 C928 0.931 . S
H945 C933 0.929 . S
H946 C934 0.960 1_556 S
H947 C934 0.962 . S
H948 C934 0.960 . S
H949 C935 0.961 . S
H950 C935 0.961 1_556 S
H951 C935 0.961 . S
H952 C936 0.931 . S
H953 C941 0.930 . S
H954 C942 0.956 . S
H955 C942 0.961 1_554 S
H956 C942 0.961 . S
H957 C943 0.958 . S
H958 C943 0.961 . S
H959 C943 0.972 . S
C960 C961 1.391 . S
C960 C962 1.394 . S
C960 H976 0.931 . S
C961 C960 1.391 . S
C961 C965 1.376 . S
C962 C960 1.394 . S
C962 C963 1.369 . S
C962 C966 1.531 . S
C963 C962 1.369 . S
C963 C964 1.410 . S
C963 C971 1.503 1_556 S
C964 C963 1.410 . S
C964 C965 1.392 . S
C964 C967 1.511 . S
C965 C961 1.376 . S
C965 C964 1.392 . S
C965 H977 0.929 . S
C966 C962 1.531 . S
C966 H978 0.960 1_556 S
C966 H979 0.962 . S
C966 H980 0.960 . S
C967 C964 1.511 . S
C967 H981 0.961 . S
C967 H982 0.961 1_556 S
C967 H983 0.961 . S
C968 C969 1.370 . S
C968 C970 1.363 . S
C968 H984 0.931 . S
C969 C968 1.370 . S
C969 C973 1.408 . S
C970 C968 1.363 . S
C970 C971 1.370 . S
C970 C974 1.524 . S
C971 C963 1.503 1_554 S
C971 C970 1.370 . S
C971 C972 1.403 . S
C972 C971 1.403 . S
C972 C973 1.404 . S
C972 C975 1.539 . S
C973 C969 1.408 . S
C973 C972 1.404 . S
C973 H985 0.930 . S
C974 C970 1.524 . S
C974 H986 0.956 . S
C974 H987 0.961 1_554 S
C974 H988 0.961 . S
C975 C972 1.539 . S
C975 H989 0.958 . S
C975 H990 0.961 . S
C975 H991 0.972 . S
H976 C960 0.931 . S
H977 C965 0.929 . S
H978 C966 0.960 1_554 S
H979 C966 0.962 . S
H980 C966 0.960 . S
H981 C967 0.961 . S
H982 C967 0.961 1_554 S
H983 C967 0.961 . S
H984 C968 0.931 . S
H985 C973 0.930 . S
H986 C974 0.956 . S
H987 C974 0.961 1_556 S
H988 C974 0.961 . S
H989 C975 0.958 . S
H990 C975 0.961 . S
H991 C975 0.972 . S
C992 C993 1.391 . S
C992 C994 1.394 . S
C992 H1008 0.931 . S
C993 C992 1.391 . S
C993 C997 1.376 . S
C994 C992 1.394 . S
C994 C995 1.369 . S
C994 C998 1.531 . S
C995 C994 1.369 . S
C995 C996 1.410 . S
C995 C1003 1.503 1_556 S
C996 C995 1.410 . S
C996 C997 1.392 . S
C996 C999 1.511 . S
C997 C993 1.376 . S
C997 C996 1.392 . S
C997 H1009 0.929 . S
C998 C994 1.531 . S
C998 H1010 0.960 1_556 S
C998 H1011 0.962 . S
C998 H1012 0.960 . S
C999 C996 1.511 . S
C999 H1013 0.961 . S
C999 H1014 0.961 1_556 S
C999 H1015 0.961 . S
C1000 C1001 1.370 . S
C1000 C1002 1.363 . S
C1000 H1016 0.931 . S
C1001 C1000 1.370 . S
C1001 C1005 1.408 . S
C1002 C1000 1.363 . S
C1002 C1003 1.370 . S
C1002 C1006 1.524 . S
C1003 C995 1.503 1_554 S
C1003 C1002 1.370 . S
C1003 C1004 1.403 . S
C1004 C1003 1.403 . S
C1004 C1005 1.404 . S
C1004 C1007 1.539 . S
C1005 C1001 1.408 . S
C1005 C1004 1.404 . S
C1005 H1017 0.930 . S
C1006 C1002 1.524 . S
C1006 H1018 0.956 . S
C1006 H1019 0.961 1_554 S
C1006 H1020 0.961 . S
C1007 C1004 1.539 . S
C1007 H1021 0.958 . S
C1007 H1022 0.961 . S
C1007 H1023 0.972 . S
H1008 C992 0.931 . S
H1009 C997 0.929 . S
H1010 C998 0.960 1_554 S
H1011 C998 0.962 . S
H1012 C998 0.960 . S
H1013 C999 0.961 . S
H1014 C999 0.961 1_554 S
H1015 C999 0.961 . S
H1016 C1000 0.931 . S
H1017 C1005 0.930 . S
H1018 C1006 0.956 . S
H1019 C1006 0.961 1_556 S
H1020 C1006 0.961 . S
H1021 C1007 0.958 . S
H1022 C1007 0.961 . S
H1023 C1007 0.972 . S
C1024 C1025 1.391 . S
C1024 C1026 1.394 . S
C1024 H1040 0.931 . S
C1025 C1024 1.391 . S
C1025 C1029 1.376 . S
C1026 C1024 1.394 . S
C1026 C1027 1.369 . S
C1026 C1030 1.531 . S
C1027 C1026 1.369 . S
C1027 C1028 1.410 . S
C1027 C1035 1.503 1_556 S
C1028 C1027 1.410 . S
C1028 C1029 1.392 . S
C1028 C1031 1.511 . S
C1029 C1025 1.376 . S
C1029 C1028 1.392 . S
C1029 H1041 0.929 . S
C1030 C1026 1.531 . S
C1030 H1042 0.960 1_556 S
C1030 H1043 0.962 . S
C1030 H1044 0.960 . S
C1031 C1028 1.511 . S
C1031 H1045 0.961 . S
C1031 H1046 0.961 1_556 S
C1031 H1047 0.961 . S
C1032 C1033 1.370 . S
C1032 C1034 1.363 . S
C1032 H1048 0.931 . S
C1033 C1032 1.370 . S
C1033 C1037 1.408 . S
C1034 C1032 1.363 . S
C1034 C1035 1.370 . S
C1034 C1038 1.524 . S
C1035 C1027 1.503 1_554 S
C1035 C1034 1.370 . S
C1035 C1036 1.403 . S
C1036 C1035 1.403 . S
C1036 C1037 1.404 . S
C1036 C1039 1.539 . S
C1037 C1033 1.408 . S
C1037 C1036 1.404 . S
C1037 H1049 0.930 . S
C1038 C1034 1.524 . S
C1038 H1050 0.956 . S
C1038 H1051 0.961 1_554 S
C1038 H1052 0.961 . S
C1039 C1036 1.539 . S
C1039 H1053 0.958 . S
C1039 H1054 0.961 . S
C1039 H1055 0.972 . S
H1040 C1024 0.931 . S
H1041 C1029 0.929 . S
H1042 C1030 0.960 1_554 S
H1043 C1030 0.962 . S
H1044 C1030 0.960 . S
H1045 C1031 0.961 . S
H1046 C1031 0.961 1_554 S
H1047 C1031 0.961 . S
H1048 C1032 0.931 . S
H1049 C1037 0.930 . S
H1050 C1038 0.956 . S
H1051 C1038 0.961 1_556 S
H1052 C1038 0.961 . S
H1053 C1039 0.958 . S
H1054 C1039 0.961 . S
H1055 C1039 0.972 . S
C1056 C1057 1.391 . S
C1056 C1058 1.394 . S
C1056 H1072 0.931 . S
C1057 C1056 1.391 . S
C1057 C1061 1.376 . S
C1058 C1056 1.394 . S
C1058 C1059 1.369 . S
C1058 C1062 1.531 . S
C1059 C1058 1.369 . S
C1059 C1060 1.410 . S
C1059 C1067 1.503 . S
C1060 C1059 1.410 . S
C1060 C1061 1.392 . S
C1060 C1063 1.511 . S
C1061 C1057 1.376 . S
C1061 C1060 1.392 . S
C1061 H1073 0.929 . S
C1062 C1058 1.531 . S
C1062 H1074 0.960 . S
C1062 H1075 0.962 . S
C1062 H1076 0.960 . S
C1063 C1060 1.511 . S
C1063 H1077 0.961 . S
C1063 H1078 0.961 . S
C1063 H1079 0.961 . S
C1064 C1065 1.370 . S
C1064 C1066 1.363 . S
C1064 H1080 0.931 . S
C1065 C1064 1.370 . S
C1065 C1069 1.408 . S
C1066 C1064 1.363 . S
C1066 C1067 1.370 . S
C1066 C1070 1.524 . S
C1067 C1059 1.503 . S
C1067 C1066 1.370 . S
C1067 C1068 1.403 . S
C1068 C1067 1.403 . S
C1068 C1069 1.404 . S
C1068 C1071 1.539 . S
C1069 C1065 1.408 . S
C1069 C1068 1.404 . S
C1069 H1081 0.930 . S
C1070 C1066 1.524 . S
C1070 H1082 0.956 . S
C1070 H1083 0.961 . S
C1070 H1084 0.961 . S
C1071 C1068 1.539 . S
C1071 H1085 0.958 . S
C1071 H1086 0.961 . S
C1071 H1087 0.960 . S
H1072 C1056 0.931 . S
H1073 C1061 0.929 . S
H1074 C1062 0.960 . S
H1075 C1062 0.962 . S
H1076 C1062 0.960 . S
H1077 C1063 0.961 . S
H1078 C1063 0.961 . S
H1079 C1063 0.961 . S
H1080 C1064 0.931 . S
H1081 C1069 0.930 . S
H1082 C1070 0.956 . S
H1083 C1070 0.961 . S
H1084 C1070 0.961 . S
H1085 C1071 0.958 . S
H1086 C1071 0.961 . S
H1087 C1071 0.960 . S
C1088 C1089 1.391 . S
C1088 C1090 1.394 . S
C1088 H1104 0.931 . S
C1089 C1088 1.391 . S
C1089 C1093 1.376 . S
C1090 C1088 1.394 . S
C1090 C1091 1.369 . S
C1090 C1094 1.531 . S
C1091 C1090 1.369 . S
C1091 C1092 1.410 . S
C1091 C1099 1.503 . S
C1092 C1091 1.410 . S
C1092 C1093 1.392 . S
C1092 C1095 1.511 . S
C1093 C1089 1.376 . S
C1093 C1092 1.392 . S
C1093 H1105 0.929 . S
C1094 C1090 1.531 . S
C1094 H1106 0.960 . S
C1094 H1107 0.962 . S
C1094 H1108 0.960 . S
C1095 C1092 1.511 . S
C1095 H1109 0.961 . S
C1095 H1110 0.961 . S
C1095 H1111 0.961 . S
C1096 C1097 1.370 . S
C1096 C1098 1.363 . S
C1096 H1112 0.931 . S
C1097 C1096 1.370 . S
C1097 C1101 1.408 . S
C1098 C1096 1.363 . S
C1098 C1099 1.370 . S
C1098 C1102 1.524 . S
C1099 C1091 1.503 . S
C1099 C1098 1.370 . S
C1099 C1100 1.403 . S
C1100 C1099 1.403 . S
C1100 C1101 1.404 . S
C1100 C1103 1.539 . S
C1101 C1097 1.408 . S
C1101 C1100 1.404 . S
C1101 H1113 0.930 . S
C1102 C1098 1.524 . S
C1102 H1114 0.956 . S
C1102 H1115 0.961 . S
C1102 H1116 0.961 . S
C1103 C1100 1.539 . S
C1103 H1117 0.958 . S
C1103 H1118 0.961 . S
C1103 H1119 0.960 . S
H1104 C1088 0.931 . S
H1105 C1093 0.929 . S
H1106 C1094 0.960 . S
H1107 C1094 0.962 . S
H1108 C1094 0.960 . S
H1109 C1095 0.961 . S
H1110 C1095 0.961 . S
H1111 C1095 0.961 . S
H1112 C1096 0.931 . S
H1113 C1101 0.930 . S
H1114 C1102 0.956 . S
H1115 C1102 0.961 . S
H1116 C1102 0.961 . S
H1117 C1103 0.958 . S
H1118 C1103 0.961 . S
H1119 C1103 0.960 . S
C1120 C1121 1.391 . S
C1120 C1122 1.394 . S
C1120 H1136 0.931 . S
C1121 C1120 1.391 . S
C1121 C1125 1.376 . S
C1122 C1120 1.394 . S
C1122 C1123 1.369 . S
C1122 C1126 1.531 . S
C1123 C1122 1.369 . S
C1123 C1124 1.410 . S
C1123 C1131 1.503 . S
C1124 C1123 1.410 . S
C1124 C1125 1.392 . S
C1124 C1127 1.511 . S
C1125 C1121 1.376 . S
C1125 C1124 1.392 . S
C1125 H1137 0.929 . S
C1126 C1122 1.531 . S
C1126 H1138 0.960 . S
C1126 H1139 0.962 . S
C1126 H1140 0.960 . S
C1127 C1124 1.511 . S
C1127 H1141 0.961 . S
C1127 H1142 0.961 . S
C1127 H1143 0.961 . S
C1128 C1129 1.370 . S
C1128 C1130 1.363 . S
C1128 H1144 0.931 . S
C1129 C1128 1.370 . S
C1129 C1133 1.408 . S
C1130 C1128 1.363 . S
C1130 C1131 1.370 . S
C1130 C1134 1.524 . S
C1131 C1123 1.503 . S
C1131 C1130 1.370 . S
C1131 C1132 1.403 . S
C1132 C1131 1.403 . S
C1132 C1133 1.404 . S
C1132 C1135 1.539 . S
C1133 C1129 1.408 . S
C1133 C1132 1.404 . S
C1133 H1145 0.930 . S
C1134 C1130 1.524 . S
C1134 H1146 0.956 . S
C1134 H1147 0.961 . S
C1134 H1148 0.961 . S
C1135 C1132 1.539 . S
C1135 H1149 0.958 . S
C1135 H1150 0.961 . S
C1135 H1151 0.960 . S
H1136 C1120 0.931 . S
H1137 C1125 0.929 . S
H1138 C1126 0.960 . S
H1139 C1126 0.962 . S
H1140 C1126 0.960 . S
H1141 C1127 0.961 . S
H1142 C1127 0.961 . S
H1143 C1127 0.961 . S
H1144 C1128 0.931 . S
H1145 C1133 0.930 . S
H1146 C1134 0.956 . S
H1147 C1134 0.961 . S
H1148 C1134 0.961 . S
H1149 C1135 0.958 . S
H1150 C1135 0.961 . S
H1151 C1135 0.960 . S
C1152 C1153 1.391 . S
C1152 C1154 1.394 . S
C1152 H1168 0.931 . S
C1153 C1152 1.391 . S
C1153 C1157 1.376 . S
C1154 C1152 1.394 . S
C1154 C1155 1.369 . S
C1154 C1158 1.531 . S
C1155 C1154 1.369 . S
C1155 C1156 1.410 . S
C1155 C1163 1.503 . S
C1156 C1155 1.410 . S
C1156 C1157 1.392 . S
C1156 C1159 1.511 . S
C1157 C1153 1.376 . S
C1157 C1156 1.392 . S
C1157 H1169 0.929 . S
C1158 C1154 1.531 . S
C1158 H1170 0.960 . S
C1158 H1171 0.962 . S
C1158 H1172 0.960 . S
C1159 C1156 1.511 . S
C1159 H1173 0.961 . S
C1159 H1174 0.961 . S
C1159 H1175 0.961 . S
C1160 C1161 1.370 . S
C1160 C1162 1.363 . S
C1160 H1176 0.931 . S
C1161 C1160 1.370 . S
C1161 C1165 1.408 . S
C1162 C1160 1.363 . S
C1162 C1163 1.370 . S
C1162 C1166 1.524 . S
C1163 C1155 1.503 . S
C1163 C1162 1.370 . S
C1163 C1164 1.403 . S
C1164 C1163 1.403 . S
C1164 C1165 1.404 . S
C1164 C1167 1.539 . S
C1165 C1161 1.408 . S
C1165 C1164 1.404 . S
C1165 H1177 0.930 . S
C1166 C1162 1.524 . S
C1166 H1178 0.956 . S
C1166 H1179 0.961 . S
C1166 H1180 0.961 . S
C1167 C1164 1.539 . S
C1167 H1181 0.958 . S
C1167 H1182 0.961 . S
C1167 H1183 0.960 . S
H1168 C1152 0.931 . S
H1169 C1157 0.929 . S
H1170 C1158 0.960 . S
H1171 C1158 0.962 . S
H1172 C1158 0.960 . S
H1173 C1159 0.961 . S
H1174 C1159 0.961 . S
H1175 C1159 0.961 . S
H1176 C1160 0.931 . S
H1177 C1165 0.930 . S
H1178 C1166 0.956 . S
H1179 C1166 0.961 . S
H1180 C1166 0.961 . S
H1181 C1167 0.958 . S
H1182 C1167 0.961 . S
H1183 C1167 0.960 . S
C1184 C1185 1.391 . S
C1184 C1186 1.394 . S
C1184 H1200 0.931 . S
C1185 C1184 1.391 . S
C1185 C1189 1.376 . S
C1186 C1184 1.394 . S
C1186 C1187 1.369 . S
C1186 C1190 1.531 . S
C1187 C1186 1.369 . S
C1187 C1188 1.410 . S
C1187 C1195 1.503 . S
C1188 C1187 1.410 . S
C1188 C1189 1.392 . S
C1188 C1191 1.511 . S
C1189 C1185 1.376 . S
C1189 C1188 1.392 . S
C1189 H1201 0.929 . S
C1190 C1186 1.531 . S
C1190 H1202 0.960 . S
C1190 H1203 0.962 . S
C1190 H1204 0.960 . S
C1191 C1188 1.511 . S
C1191 H1205 0.961 . S
C1191 H1206 0.961 . S
C1191 H1207 0.961 . S
C1192 C1193 1.370 . S
C1192 C1194 1.363 . S
C1192 H1208 0.931 . S
C1193 C1192 1.370 . S
C1193 C1197 1.408 . S
C1194 C1192 1.363 . S
C1194 C1195 1.370 . S
C1194 C1198 1.524 . S
C1195 C1187 1.503 . S
C1195 C1194 1.370 . S
C1195 C1196 1.403 . S
C1196 C1195 1.403 . S
C1196 C1197 1.404 . S
C1196 C1199 1.539 . S
C1197 C1193 1.408 . S
C1197 C1196 1.404 . S
C1197 H1209 0.930 . S
C1198 C1194 1.524 . S
C1198 H1210 0.956 . S
C1198 H1211 0.961 . S
C1198 H1212 0.961 . S
C1199 C1196 1.539 . S
C1199 H1213 0.958 . S
C1199 H1214 0.961 . S
C1199 H1215 0.960 . S
H1200 C1184 0.931 . S
H1201 C1189 0.929 . S
H1202 C1190 0.960 . S
H1203 C1190 0.962 . S
H1204 C1190 0.960 . S
H1205 C1191 0.961 . S
H1206 C1191 0.961 . S
H1207 C1191 0.961 . S
H1208 C1192 0.931 . S
H1209 C1197 0.930 . S
H1210 C1198 0.956 . S
H1211 C1198 0.961 . S
H1212 C1198 0.961 . S
H1213 C1199 0.958 . S
H1214 C1199 0.961 . S
H1215 C1199 0.960 . S
C1216 C1217 1.391 . S
C1216 C1218 1.394 . S
C1216 H1232 0.931 . S
C1217 C1216 1.391 . S
C1217 C1221 1.376 . S
C1218 C1216 1.394 . S
C1218 C1219 1.369 . S
C1218 C1222 1.531 . S
C1219 C1218 1.369 . S
C1219 C1220 1.410 . S
C1219 C1227 1.503 . S
C1220 C1219 1.410 . S
C1220 C1221 1.392 . S
C1220 C1223 1.511 . S
C1221 C1217 1.376 . S
C1221 C1220 1.392 . S
C1221 H1233 0.929 . S
C1222 C1218 1.531 . S
C1222 H1234 0.960 . S
C1222 H1235 0.962 . S
C1222 H1236 0.960 . S
C1223 C1220 1.511 . S
C1223 H1237 0.961 . S
C1223 H1238 0.961 . S
C1223 H1239 0.961 . S
C1224 C1225 1.370 . S
C1224 C1226 1.363 . S
C1224 H1240 0.931 . S
C1225 C1224 1.370 . S
C1225 C1229 1.408 . S
C1226 C1224 1.363 . S
C1226 C1227 1.370 . S
C1226 C1230 1.524 . S
C1227 C1219 1.503 . S
C1227 C1226 1.370 . S
C1227 C1228 1.403 . S
C1228 C1227 1.403 . S
C1228 C1229 1.404 . S
C1228 C1231 1.539 . S
C1229 C1225 1.408 . S
C1229 C1228 1.404 . S
C1229 H1241 0.930 . S
C1230 C1226 1.524 . S
C1230 H1242 0.956 . S
C1230 H1243 0.961 . S
C1230 H1244 0.961 . S
C1231 C1228 1.539 . S
C1231 H1245 0.958 . S
C1231 H1246 0.961 . S
C1231 H1247 0.960 . S
H1232 C1216 0.931 . S
H1233 C1221 0.929 . S
H1234 C1222 0.960 . S
H1235 C1222 0.962 . S
H1236 C1222 0.960 . S
H1237 C1223 0.961 . S
H1238 C1223 0.961 . S
H1239 C1223 0.961 . S
H1240 C1224 0.931 . S
H1241 C1229 0.930 . S
H1242 C1230 0.956 . S
H1243 C1230 0.961 . S
H1244 C1230 0.961 . S
H1245 C1231 0.958 . S
H1246 C1231 0.961 . S
H1247 C1231 0.960 . S
C1248 C1249 1.391 . S
C1248 C1250 1.394 . S
C1248 H1264 0.931 . S
C1249 C1248 1.391 . S
C1249 C1253 1.376 . S
C1250 C1248 1.394 . S
C1250 C1251 1.369 . S
C1250 C1254 1.531 . S
C1251 C1250 1.369 . S
C1251 C1252 1.410 . S
C1251 C1259 1.503 . S
C1252 C1251 1.410 . S
C1252 C1253 1.392 . S
C1252 C1255 1.511 . S
C1253 C1249 1.376 . S
C1253 C1252 1.392 . S
C1253 H1265 0.929 . S
C1254 C1250 1.531 . S
C1254 H1266 0.960 . S
C1254 H1267 0.962 . S
C1254 H1268 0.960 . S
C1255 C1252 1.511 . S
C1255 H1269 0.961 . S
C1255 H1270 0.961 . S
C1255 H1271 0.961 . S
C1256 C1257 1.370 . S
C1256 C1258 1.363 . S
C1256 H1272 0.931 . S
C1257 C1256 1.370 . S
C1257 C1261 1.408 . S
C1258 C1256 1.363 . S
C1258 C1259 1.370 . S
C1258 C1262 1.524 . S
C1259 C1251 1.503 . S
C1259 C1258 1.370 . S
C1259 C1260 1.403 . S
C1260 C1259 1.403 . S
C1260 C1261 1.404 . S
C1260 C1263 1.539 . S
C1261 C1257 1.408 . S
C1261 C1260 1.404 . S
C1261 H1273 0.930 . S
C1262 C1258 1.524 . S
C1262 H1274 0.956 . S
C1262 H1275 0.961 . S
C1262 H1276 0.961 . S
C1263 C1260 1.539 . S
C1263 H1277 0.958 . S
C1263 H1278 0.961 . S
C1263 H1279 0.960 . S
H1264 C1248 0.931 . S
H1265 C1253 0.929 . S
H1266 C1254 0.960 . S
H1267 C1254 0.962 . S
H1268 C1254 0.960 . S
H1269 C1255 0.961 . S
H1270 C1255 0.961 . S
H1271 C1255 0.961 . S
H1272 C1256 0.931 . S
H1273 C1261 0.930 . S
H1274 C1262 0.956 . S
H1275 C1262 0.961 . S
H1276 C1262 0.961 . S
H1277 C1263 0.958 . S
H1278 C1263 0.961 . S
H1279 C1263 0.960 . S
C1280 C1281 1.391 . S
C1280 C1282 1.394 . S
C1280 H1296 0.931 . S
C1281 C1280 1.391 . S
C1281 C1285 1.376 . S
C1282 C1280 1.394 . S
C1282 C1283 1.369 . S
C1282 C1286 1.531 . S
C1283 C1282 1.369 . S
C1283 C1284 1.410 . S
C1283 C1291 1.503 . S
C1284 C1283 1.410 . S
C1284 C1285 1.392 . S
C1284 C1287 1.511 . S
C1285 C1281 1.376 . S
C1285 C1284 1.392 . S
C1285 H1297 0.929 . S
C1286 C1282 1.531 . S
C1286 H1298 0.960 . S
C1286 H1299 0.962 . S
C1286 H1300 0.960 . S
C1287 C1284 1.511 . S
C1287 H1301 0.961 . S
C1287 H1302 0.961 . S
C1287 H1303 0.961 . S
C1288 C1289 1.370 . S
C1288 C1290 1.363 . S
C1288 H1304 0.931 . S
C1289 C1288 1.370 . S
C1289 C1293 1.408 . S
C1290 C1288 1.363 . S
C1290 C1291 1.370 . S
C1290 C1294 1.524 . S
C1291 C1283 1.503 . S
C1291 C1290 1.370 . S
C1291 C1292 1.403 . S
C1292 C1291 1.403 . S
C1292 C1293 1.404 . S
C1292 C1295 1.539 . S
C1293 C1289 1.408 . S
C1293 C1292 1.404 . S
C1293 H1305 0.930 . S
C1294 C1290 1.524 . S
C1294 H1306 0.956 . S
C1294 H1307 0.961 . S
C1294 H1308 0.961 . S
C1295 C1292 1.539 . S
C1295 H1309 0.958 . S
C1295 H1310 0.961 . S
C1295 H1311 0.960 . S
H1296 C1280 0.931 . S
H1297 C1285 0.929 . S
H1298 C1286 0.960 . S
H1299 C1286 0.962 . S
H1300 C1286 0.960 . S
H1301 C1287 0.961 . S
H1302 C1287 0.961 . S
H1303 C1287 0.961 . S
H1304 C1288 0.931 . S
H1305 C1293 0.930 . S
H1306 C1294 0.956 . S
H1307 C1294 0.961 . S
H1308 C1294 0.961 . S
H1309 C1295 0.958 . S
H1310 C1295 0.961 . S
H1311 C1295 0.960 . S
C1312 C1313 1.391 . S
C1312 C1314 1.394 . S
C1312 H1328 0.931 . S
C1313 C1312 1.391 . S
C1313 C1317 1.376 . S
C1314 C1312 1.394 . S
C1314 C1315 1.369 . S
C1314 C1318 1.531 . S
C1315 C1314 1.369 . S
C1315 C1316 1.410 . S
C1315 C1323 1.503 1_556 S
C1316 C1315 1.410 . S
C1316 C1317 1.392 . S
C1316 C1319 1.511 . S
C1317 C1313 1.376 . S
C1317 C1316 1.392 . S
C1317 H1329 0.929 . S
C1318 C1314 1.531 . S
C1318 H1330 0.960 1_556 S
C1318 H1331 0.962 . S
C1318 H1332 0.960 . S
C1319 C1316 1.511 . S
C1319 H1333 0.961 . S
C1319 H1334 0.961 1_556 S
C1319 H1335 0.961 . S
C1320 C1321 1.370 . S
C1320 C1322 1.363 . S
C1320 H1336 0.931 . S
C1321 C1320 1.370 . S
C1321 C1325 1.408 . S
C1322 C1320 1.363 . S
C1322 C1323 1.370 . S
C1322 C1326 1.524 . S
C1323 C1315 1.503 1_554 S
C1323 C1322 1.370 . S
C1323 C1324 1.403 . S
C1324 C1323 1.403 . S
C1324 C1325 1.404 . S
C1324 C1327 1.539 . S
C1325 C1321 1.408 . S
C1325 C1324 1.404 . S
C1325 H1337 0.930 . S
C1326 C1322 1.524 . S
C1326 H1338 0.956 . S
C1326 H1339 0.961 1_554 S
C1326 H1340 0.961 . S
C1327 C1324 1.539 . S
C1327 H1341 0.958 . S
C1327 H1342 0.961 . S
C1327 H1343 0.972 . S
H1328 C1312 0.931 . S
H1329 C1317 0.929 . S
H1330 C1318 0.960 1_554 S
H1331 C1318 0.962 . S
H1332 C1318 0.960 . S
H1333 C1319 0.961 . S
H1334 C1319 0.961 1_554 S
H1335 C1319 0.961 . S
H1336 C1320 0.931 . S
H1337 C1325 0.930 . S
H1338 C1326 0.956 . S
H1339 C1326 0.961 1_556 S
H1340 C1326 0.961 . S
H1341 C1327 0.958 . S
H1342 C1327 0.961 . S
H1343 C1327 0.972 . S
C1344 C1345 1.391 . S
C1344 C1346 1.394 . S
C1344 H1360 0.931 . S
C1345 C1344 1.391 . S
C1345 C1349 1.376 . S
C1346 C1344 1.394 . S
C1346 C1347 1.369 . S
C1346 C1350 1.531 . S
C1347 C1346 1.369 . S
C1347 C1348 1.410 . S
C1347 C1355 1.503 1_554 S
C1348 C1347 1.410 . S
C1348 C1349 1.392 . S
C1348 C1351 1.511 . S
C1349 C1345 1.376 . S
C1349 C1348 1.392 . S
C1349 H1361 0.929 . S
C1350 C1346 1.531 . S
C1350 H1362 0.960 1_554 S
C1350 H1363 0.962 . S
C1350 H1364 0.960 . S
C1351 C1348 1.511 . S
C1351 H1365 0.961 . S
C1351 H1366 0.961 1_554 S
C1351 H1367 0.961 . S
C1352 C1353 1.370 . S
C1352 C1354 1.363 . S
C1352 H1368 0.931 . S
C1353 C1352 1.370 . S
C1353 C1357 1.408 . S
C1354 C1352 1.363 . S
C1354 C1355 1.370 . S
C1354 C1358 1.524 . S
C1355 C1347 1.503 1_556 S
C1355 C1354 1.370 . S
C1355 C1356 1.403 . S
C1356 C1355 1.403 . S
C1356 C1357 1.404 . S
C1356 C1359 1.539 . S
C1357 C1353 1.408 . S
C1357 C1356 1.404 . S
C1357 H1369 0.930 . S
C1358 C1354 1.524 . S
C1358 H1370 0.956 . S
C1358 H1371 0.961 1_556 S
C1358 H1372 0.961 . S
C1359 C1356 1.539 . S
C1359 H1373 0.958 . S
C1359 H1374 0.961 . S
C1359 H1375 0.972 . S
H1360 C1344 0.931 . S
H1361 C1349 0.929 . S
H1362 C1350 0.960 1_556 S
H1363 C1350 0.962 . S
H1364 C1350 0.960 . S
H1365 C1351 0.961 . S
H1366 C1351 0.961 1_556 S
H1367 C1351 0.961 . S
H1368 C1352 0.931 . S
H1369 C1357 0.930 . S
H1370 C1358 0.956 . S
H1371 C1358 0.961 1_554 S
H1372 C1358 0.961 . S
H1373 C1359 0.958 . S
H1374 C1359 0.961 . S
H1375 C1359 0.972 . S
C1376 C1377 1.391 . S
C1376 C1378 1.394 . S
C1376 H1392 0.931 . S
C1377 C1376 1.391 . S
C1377 C1381 1.376 . S
C1378 C1376 1.394 . S
C1378 C1379 1.369 . S
C1378 C1382 1.531 . S
C1379 C1378 1.369 . S
C1379 C1380 1.410 . S
C1379 C1387 1.503 1_554 S
C1380 C1379 1.410 . S
C1380 C1381 1.392 . S
C1380 C1383 1.511 . S
C1381 C1377 1.376 . S
C1381 C1380 1.392 . S
C1381 H1393 0.929 . S
C1382 C1378 1.531 . S
C1382 H1394 0.960 1_554 S
C1382 H1395 0.962 . S
C1382 H1396 0.960 . S
C1383 C1380 1.511 . S
C1383 H1397 0.961 . S
C1383 H1398 0.961 1_554 S
C1383 H1399 0.961 . S
C1384 C1385 1.370 . S
C1384 C1386 1.363 . S
C1384 H1400 0.931 . S
C1385 C1384 1.370 . S
C1385 C1389 1.408 . S
C1386 C1384 1.363 . S
C1386 C1387 1.370 . S
C1386 C1390 1.524 . S
C1387 C1379 1.503 1_556 S
C1387 C1386 1.370 . S
C1387 C1388 1.403 . S
C1388 C1387 1.403 . S
C1388 C1389 1.404 . S
C1388 C1391 1.539 . S
C1389 C1385 1.408 . S
C1389 C1388 1.404 . S
C1389 H1401 0.930 . S
C1390 C1386 1.524 . S
C1390 H1402 0.956 . S
C1390 H1403 0.961 1_556 S
C1390 H1404 0.961 . S
C1391 C1388 1.539 . S
C1391 H1405 0.958 . S
C1391 H1406 0.961 . S
C1391 H1407 0.972 . S
H1392 C1376 0.931 . S
H1393 C1381 0.929 . S
H1394 C1382 0.960 1_556 S
H1395 C1382 0.962 . S
H1396 C1382 0.960 . S
H1397 C1383 0.961 . S
H1398 C1383 0.961 1_556 S
H1399 C1383 0.961 . S
H1400 C1384 0.931 . S
H1401 C1389 0.930 . S
H1402 C1390 0.956 . S
H1403 C1390 0.961 1_554 S
H1404 C1390 0.961 . S
H1405 C1391 0.958 . S
H1406 C1391 0.961 . S
H1407 C1391 0.972 . S
C1408 C1409 1.391 . S
C1408 C1410 1.394 . S
C1408 H1424 0.931 . S
C1409 C1408 1.391 . S
C1409 C1413 1.376 . S
C1410 C1408 1.394 . S
C1410 C1411 1.369 . S
C1410 C1414 1.531 . S
C1411 C1410 1.369 . S
C1411 C1412 1.410 . S
C1411 C1419 1.503 1_556 S
C1412 C1411 1.410 . S
C1412 C1413 1.392 . S
C1412 C1415 1.511 . S
C1413 C1409 1.376 . S
C1413 C1412 1.392 . S
C1413 H1425 0.929 . S
C1414 C1410 1.531 . S
C1414 H1426 0.960 1_556 S
C1414 H1427 0.962 . S
C1414 H1428 0.960 . S
C1415 C1412 1.511 . S
C1415 H1429 0.961 . S
C1415 H1430 0.961 1_556 S
C1415 H1431 0.961 . S
C1416 C1417 1.370 . S
C1416 C1418 1.363 . S
C1416 H1432 0.931 . S
C1417 C1416 1.370 . S
C1417 C1421 1.408 . S
C1418 C1416 1.363 . S
C1418 C1419 1.370 . S
C1418 C1422 1.524 . S
C1419 C1411 1.503 1_554 S
C1419 C1418 1.370 . S
C1419 C1420 1.403 . S
C1420 C1419 1.403 . S
C1420 C1421 1.404 . S
C1420 C1423 1.539 . S
C1421 C1417 1.408 . S
C1421 C1420 1.404 . S
C1421 H1433 0.930 . S
C1422 C1418 1.524 . S
C1422 H1434 0.956 . S
C1422 H1435 0.961 1_554 S
C1422 H1436 0.961 . S
C1423 C1420 1.539 . S
C1423 H1437 0.958 . S
C1423 H1438 0.961 . S
C1423 H1439 0.972 . S
H1424 C1408 0.931 . S
H1425 C1413 0.929 . S
H1426 C1414 0.960 1_554 S
H1427 C1414 0.962 . S
H1428 C1414 0.960 . S
H1429 C1415 0.961 . S
H1430 C1415 0.961 1_554 S
H1431 C1415 0.961 . S
H1432 C1416 0.931 . S
H1433 C1421 0.930 . S
H1434 C1422 0.956 . S
H1435 C1422 0.961 1_556 S
H1436 C1422 0.961 . S
H1437 C1423 0.958 . S
H1438 C1423 0.961 . S
H1439 C1423 0.972 . S
C1440 C1441 1.391 . S
C1440 C1442 1.394 . S
C1440 H1456 0.931 . S
C1441 C1440 1.391 . S
C1441 C1445 1.376 . S
C1442 C1440 1.394 . S
C1442 C1443 1.369 . S
C1442 C1446 1.531 . S
C1443 C1442 1.369 . S
C1443 C1444 1.410 . S
C1443 C1451 1.503 1_545 S
C1444 C1443 1.410 . S
C1444 C1445 1.392 . S
C1444 C1447 1.511 . S
C1445 C1441 1.376 . S
C1445 C1444 1.392 . S
C1445 H1457 0.929 . S
C1446 C1442 1.531 . S
C1446 H1458 0.960 . S
C1446 H1459 0.962 . S
C1446 H1460 0.960 . S
C1447 C1444 1.511 . S
C1447 H1461 0.961 . S
C1447 H1462 0.961 1_545 S
C1447 H1463 0.961 . S
C1448 C1449 1.370 . S
C1448 C1450 1.363 . S
C1448 H1464 0.931 . S
C1449 C1448 1.370 . S
C1449 C1453 1.408 . S
C1450 C1448 1.363 . S
C1450 C1451 1.370 . S
C1450 C1454 1.524 . S
C1451 C1443 1.503 1_565 S
C1451 C1450 1.370 . S
C1451 C1452 1.403 . S
C1452 C1451 1.403 . S
C1452 C1453 1.404 . S
C1452 C1455 1.539 1_565 S
C1453 C1449 1.408 . S
C1453 C1452 1.404 . S
C1453 H1465 0.930 . S
C1454 C1450 1.524 . S
C1454 H1466 0.956 . S
C1454 H1467 0.961 . S
C1454 H1468 0.961 . S
C1455 C1452 1.539 1_545 S
C1455 H1469 0.958 . S
C1455 H1470 0.961 . S
C1455 H1471 0.960 . S
H1456 C1440 0.931 . S
H1457 C1445 0.929 . S
H1458 C1446 0.960 . S
H1459 C1446 0.962 . S
H1460 C1446 0.960 . S
H1461 C1447 0.961 . S
H1462 C1447 0.961 1_565 S
H1463 C1447 0.961 . S
H1464 C1448 0.931 . S
H1465 C1453 0.930 . S
H1466 C1454 0.956 . S
H1467 C1454 0.961 . S
H1468 C1454 0.961 . S
H1469 C1455 0.958 . S
H1470 C1455 0.961 . S
H1471 C1455 0.960 . S
C1472 C1473 1.391 . S
C1472 C1474 1.394 . S
C1472 H1488 0.931 . S
C1473 C1472 1.391 . S
C1473 C1477 1.376 . S
C1474 C1472 1.394 . S
C1474 C1475 1.369 . S
C1474 C1478 1.531 . S
C1475 C1474 1.369 . S
C1475 C1476 1.410 . S
C1475 C1483 1.503 1_655 S
C1476 C1475 1.410 . S
C1476 C1477 1.392 . S
C1476 C1479 1.511 1_655 S
C1477 C1473 1.376 . S
C1477 C1476 1.392 . S
C1477 H1489 0.929 . S
C1478 C1474 1.531 . S
C1478 H1490 0.960 . S
C1478 H1491 0.962 . S
C1478 H1492 0.960 . S
C1479 C1476 1.511 1_455 S
C1479 H1493 0.947 1_455 S
C1479 H1494 0.961 . S
C1479 H1495 0.961 . S
C1480 C1481 1.370 . S
C1480 C1482 1.363 . S
C1480 H1496 0.931 . S
C1481 C1480 1.370 . S
C1481 C1485 1.408 . S
C1482 C1480 1.363 . S
C1482 C1483 1.370 . S
C1482 C1486 1.524 1_455 S
C1483 C1475 1.503 1_455 S
C1483 C1482 1.370 . S
C1483 C1484 1.403 . S
C1484 C1483 1.403 . S
C1484 C1485 1.404 . S
C1484 C1487 1.539 . S
C1485 C1481 1.408 . S
C1485 C1484 1.404 . S
C1485 H1497 0.930 . S
C1486 C1482 1.524 1_655 S
C1486 H1498 0.956 . S
C1486 H1499 0.961 . S
C1486 H1500 0.961 1_655 S
C1487 C1484 1.539 . S
C1487 H1501 0.958 . S
C1487 H1502 0.961 . S
C1487 H1503 0.960 . S
H1488 C1472 0.931 . S
H1489 C1477 0.929 . S
H1490 C1478 0.960 . S
H1491 C1478 0.962 . S
H1492 C1478 0.960 . S
H1493 C1479 0.947 1_655 S
H1494 C1479 0.961 . S
H1495 C1479 0.961 . S
H1496 C1480 0.931 . S
H1497 C1485 0.930 . S
H1498 C1486 0.956 . S
H1499 C1486 0.961 . S
H1500 C1486 0.961 1_455 S
H1501 C1487 0.958 . S
H1502 C1487 0.961 . S
H1503 C1487 0.960 . S
C1504 C1505 1.391 . S
C1504 C1506 1.394 . S
C1504 H1520 0.931 . S
C1505 C1504 1.391 . S
C1505 C1509 1.376 . S
C1506 C1504 1.394 . S
C1506 C1507 1.369 . S
C1506 C1510 1.531 . S
C1507 C1506 1.369 . S
C1507 C1508 1.410 . S
C1507 C1515 1.503 1_545 S
C1508 C1507 1.410 . S
C1508 C1509 1.392 . S
C1508 C1511 1.508 1_545 S
C1509 C1505 1.376 . S
C1509 C1508 1.392 . S
C1509 H1521 0.929 . S
C1510 C1506 1.531 . S
C1510 H1522 0.960 . S
C1510 H1523 0.962 . S
C1510 H1524 0.960 . S
C1511 C1508 1.508 1_565 S
C1511 H1525 0.960 1_565 S
C1511 H1526 0.965 . S
C1511 H1527 0.960 1_565 S
C1512 C1513 1.370 . S
C1512 C1514 1.363 . S
C1512 H1528 0.931 . S
C1513 C1512 1.370 . S
C1513 C1517 1.408 . S
C1514 C1512 1.363 . S
C1514 C1515 1.370 . S
C1514 C1518 1.524 . S
C1515 C1507 1.503 1_565 S
C1515 C1514 1.370 . S
C1515 C1516 1.403 . S
C1516 C1515 1.403 . S
C1516 C1517 1.404 . S
C1516 C1519 1.539 1_565 S
C1517 C1513 1.408 . S
C1517 C1516 1.404 . S
C1517 H1529 0.930 . S
C1518 C1514 1.524 . S
C1518 H1530 0.956 . S
C1518 H1531 0.961 . S
C1518 H1532 0.961 . S
C1519 C1516 1.539 1_545 S
C1519 H1533 0.958 . S
C1519 H1534 0.961 1_545 S
C1519 H1535 0.960 . S
H1520 C1504 0.931 . S
H1521 C1509 0.929 . S
H1522 C1510 0.960 . S
H1523 C1510 0.962 . S
H1524 C1510 0.960 . S
H1525 C1511 0.960 1_545 S
H1526 C1511 0.965 . S
H1527 C1511 0.960 1_545 S
H1528 C1512 0.931 . S
H1529 C1517 0.930 . S
H1530 C1518 0.956 . S
H1531 C1518 0.961 . S
H1532 C1518 0.961 . S
H1533 C1519 0.958 . S
H1534 C1519 0.961 1_565 S
H1535 C1519 0.960 . S
C1536 C1537 1.391 . S
C1536 C1538 1.394 . S
C1536 H1552 0.931 . S
C1537 C1536 1.391 . S
C1537 C1541 1.376 . S
C1538 C1536 1.394 . S
C1538 C1539 1.369 . S
C1538 C1542 1.531 . S
C1539 C1538 1.369 . S
C1539 C1540 1.410 . S
C1539 C1547 1.503 1_455 S
C1540 C1539 1.410 . S
C1540 C1541 1.392 . S
C1540 C1543 1.511 . S
C1541 C1537 1.376 . S
C1541 C1540 1.392 . S
C1541 H1553 0.929 . S
C1542 C1538 1.531 . S
C1542 H1554 0.960 . S
C1542 H1555 0.962 . S
C1542 H1556 0.960 . S
C1543 C1540 1.511 . S
C1543 H1557 0.961 . S
C1543 H1558 0.961 1_455 S
C1543 H1559 0.961 . S
C1544 C1545 1.370 . S
C1544 C1546 1.363 . S
C1544 H1560 0.931 . S
C1545 C1544 1.370 . S
C1545 C1549 1.408 . S
C1546 C1544 1.363 . S
C1546 C1547 1.370 . S
C1546 C1550 1.524 . S
C1547 C1539 1.503 1_655 S
C1547 C1546 1.370 . S
C1547 C1548 1.403 . S
C1548 C1547 1.403 . S
C1548 C1549 1.404 . S
C1548 C1551 1.539 1_655 S
C1549 C1545 1.408 . S
C1549 C1548 1.404 . S
C1549 H1561 0.930 . S
C1550 C1546 1.524 . S
C1550 H1562 0.956 . S
C1550 H1563 0.961 . S
C1550 H1564 0.961 . S
C1551 C1548 1.539 1_455 S
C1551 H1565 0.958 . S
C1551 H1566 0.961 . S
C1551 H1567 0.960 . S
H1552 C1536 0.931 . S
H1553 C1541 0.929 . S
H1554 C1542 0.960 . S
H1555 C1542 0.962 . S
H1556 C1542 0.960 . S
H1557 C1543 0.961 . S
H1558 C1543 0.961 1_655 S
H1559 C1543 0.961 . S
H1560 C1544 0.931 . S
H1561 C1549 0.930 . S
H1562 C1550 0.956 . S
H1563 C1550 0.961 . S
H1564 C1550 0.961 . S
H1565 C1551 0.958 . S
H1566 C1551 0.961 . S
H1567 C1551 0.960 . S
C1568 C1569 1.391 . S
C1568 C1570 1.394 . S
C1568 H1584 0.931 . S
C1569 C1568 1.391 . S
C1569 C1573 1.376 . S
C1570 C1568 1.394 . S
C1570 C1571 1.369 . S
C1570 C1574 1.531 1_565 S
C1571 C1570 1.369 . S
C1571 C1572 1.410 . S
C1571 C1579 1.503 1_565 S
C1572 C1571 1.410 . S
C1572 C1573 1.392 . S
C1572 C1575 1.511 . S
C1573 C1569 1.376 . S
C1573 C1572 1.392 . S
C1573 H1585 0.929 . S
C1574 C1570 1.531 1_545 S
C1574 H1586 0.960 . S
C1574 H1587 0.962 . S
C1574 H1588 0.960 . S
C1575 C1572 1.511 . S
C1575 H1589 0.961 . S
C1575 H1590 0.961 . S
C1575 H1591 0.961 . S
C1576 C1577 1.370 . S
C1576 C1578 1.363 . S
C1576 H1592 0.931 . S
C1577 C1576 1.370 . S
C1577 C1581 1.408 . S
C1578 C1576 1.363 . S
C1578 C1579 1.370 . S
C1578 C1582 1.524 1_545 S
C1579 C1571 1.503 1_545 S
C1579 C1578 1.370 . S
C1579 C1580 1.403 . S
C1580 C1579 1.403 . S
C1580 C1581 1.404 . S
C1580 C1583 1.539 . S
C1581 C1577 1.408 . S
C1581 C1580 1.404 . S
C1581 H1593 0.930 . S
C1582 C1578 1.524 1_565 S
C1582 H1594 0.956 . S
C1582 H1595 0.961 . S
C1582 H1596 0.961 1_565 S
C1583 C1580 1.539 . S
C1583 H1597 0.958 . S
C1583 H1598 0.961 . S
C1583 H1599 0.960 . S
H1584 C1568 0.931 . S
H1585 C1573 0.929 . S
H1586 C1574 0.960 . S
H1587 C1574 0.962 . S
H1588 C1574 0.960 . S
H1589 C1575 0.961 . S
H1590 C1575 0.961 . S
H1591 C1575 0.961 . S
H1592 C1576 0.931 . S
H1593 C1581 0.930 . S
H1594 C1582 0.956 . S
H1595 C1582 0.961 . S
H1596 C1582 0.961 1_545 S
H1597 C1583 0.958 . S
H1598 C1583 0.961 . S
H1599 C1583 0.960 . S
C1600 C1601 1.391 . S
C1600 C1602 1.394 . S
C1600 H1616 0.931 . S
C1601 C1600 1.391 . S
C1601 C1605 1.376 . S
C1602 C1600 1.394 . S
C1602 C1603 1.369 . S
C1602 C1606 1.531 . S
C1603 C1602 1.369 . S
C1603 C1604 1.410 . S
C1603 C1611 1.503 1_655 S
C1604 C1603 1.410 . S
C1604 C1605 1.392 . S
C1604 C1607 1.511 . S
C1605 C1601 1.376 . S
C1605 C1604 1.392 . S
C1605 H1617 0.929 . S
C1606 C1602 1.531 . S
C1606 H1618 0.960 1_655 S
C1606 H1619 0.962 1_655 S
C1606 H1620 0.960 . S
C1607 C1604 1.511 . S
C1607 H1621 0.961 . S
C1607 H1622 0.961 . S
C1607 H1623 0.961 . S
C1608 C1609 1.370 . S
C1608 C1610 1.363 . S
C1608 H1624 0.931 . S
C1609 C1608 1.370 . S
C1609 C1613 1.408 . S
C1610 C1608 1.363 . S
C1610 C1611 1.370 . S
C1610 C1614 1.524 . S
C1611 C1603 1.503 1_455 S
C1611 C1610 1.370 . S
C1611 C1612 1.403 . S
C1612 C1611 1.403 . S
C1612 C1613 1.404 . S
C1612 C1615 1.539 1_455 S
C1613 C1609 1.408 . S
C1613 C1612 1.404 . S
C1613 H1625 0.930 . S
C1614 C1610 1.524 . S
C1614 H1626 0.956 . S
C1614 H1627 0.961 . S
C1614 H1628 0.961 . S
C1615 C1612 1.539 1_655 S
C1615 H1629 0.958 . S
C1615 H1630 0.961 . S
C1615 H1631 0.960 . S
H1616 C1600 0.931 . S
H1617 C1605 0.929 . S
H1618 C1606 0.960 1_455 S
H1619 C1606 0.962 1_455 S
H1620 C1606 0.960 . S
H1621 C1607 0.961 . S
H1622 C1607 0.961 . S
H1623 C1607 0.961 . S
H1624 C1608 0.931 . S
H1625 C1613 0.930 . S
H1626 C1614 0.956 . S
H1627 C1614 0.961 . S
H1628 C1614 0.961 . S
H1629 C1615 0.958 . S
H1630 C1615 0.961 . S
H1631 C1615 0.960 . S
C1632 C1633 1.391 . S
C1632 C1634 1.394 . S
C1632 H1648 0.931 . S
C1633 C1632 1.391 . S
C1633 C1637 1.376 . S
C1634 C1632 1.394 . S
C1634 C1635 1.369 . S
C1634 C1638 1.531 1_565 S
C1635 C1634 1.369 . S
C1635 C1636 1.410 . S
C1635 C1643 1.503 1_565 S
C1636 C1635 1.410 . S
C1636 C1637 1.392 . S
C1636 C1639 1.511 . S
C1637 C1633 1.376 . S
C1637 C1636 1.392 . S
C1637 H1649 0.929 . S
C1638 C1634 1.531 1_545 S
C1638 H1650 0.960 . S
C1638 H1651 0.968 . S
C1638 H1652 0.957 1_545 S
C1639 C1636 1.511 . S
C1639 H1653 0.961 . S
C1639 H1654 0.961 . S
C1639 H1655 0.961 . S
C1640 C1641 1.370 . S
C1640 C1642 1.363 . S
C1640 H1656 0.931 . S
C1641 C1640 1.370 . S
C1641 C1645 1.408 . S
C1642 C1640 1.363 . S
C1642 C1643 1.370 . S
C1642 C1646 1.524 1_545 S
C1643 C1635 1.503 1_545 S
C1643 C1642 1.370 . S
C1643 C1644 1.403 . S
C1644 C1643 1.403 . S
C1644 C1645 1.404 . S
C1644 C1647 1.539 . S
C1645 C1641 1.408 . S
C1645 C1644 1.404 . S
C1645 H1657 0.930 . S
C1646 C1642 1.524 1_565 S
C1646 H1658 0.956 . S
C1646 H1659 0.961 . S
C1646 H1660 0.961 . S
C1647 C1644 1.539 . S
C1647 H1661 0.958 . S
C1647 H1662 0.961 . S
C1647 H1663 0.960 . S
H1648 C1632 0.931 . S
H1649 C1637 0.929 . S
H1650 C1638 0.960 . S
H1651 C1638 0.968 . S
H1652 C1638 0.957 1_565 S
H1653 C1639 0.961 . S
H1654 C1639 0.961 . S
H1655 C1639 0.961 . S
H1656 C1640 0.931 . S
H1657 C1645 0.930 . S
H1658 C1646 0.956 . S
H1659 C1646 0.961 . S
H1660 C1646 0.961 . S
H1661 C1647 0.958 . S
H1662 C1647 0.961 . S
H1663 C1647 0.960 . S
C1664 C1665 1.391 . S
C1664 C1666 1.394 . S
C1664 H1680 0.931 . S
C1665 C1664 1.391 . S
C1665 C1669 1.376 . S
C1666 C1664 1.394 . S
C1666 C1667 1.369 . S
C1666 C1670 1.531 . S
C1667 C1666 1.369 . S
C1667 C1668 1.410 . S
C1667 C1675 1.503 1_655 S
C1668 C1667 1.410 . S
C1668 C1669 1.392 . S
C1668 C1671 1.529 . S
C1669 C1665 1.376 . S
C1669 C1668 1.392 . S
C1669 H1681 0.929 . S
C1670 C1666 1.531 . S
C1670 H1682 0.933 1_655 S
C1670 H1683 0.962 . S
C1670 H1684 0.960 . S
C1671 C1668 1.529 . S
C1671 H1685 0.977 . S
C1671 H1686 0.944 1_655 S
C1671 H1687 0.944 1_655 S
C1672 C1673 1.370 . S
C1672 C1674 1.363 . S
C1672 H1688 0.931 . S
C1673 C1672 1.370 . S
C1673 C1677 1.408 . S
C1674 C1672 1.363 . S
C1674 C1675 1.370 . S
C1674 C1678 1.524 1_455 S
C1675 C1667 1.503 1_455 S
C1675 C1674 1.370 . S
C1675 C1676 1.403 . S
C1676 C1675 1.403 . S
C1676 C1677 1.404 . S
C1676 C1679 1.539 . S
C1677 C1673 1.408 . S
C1677 C1676 1.404 . S
C1677 H1689 0.930 . S
C1678 C1674 1.524 1_655 S
C1678 H1690 0.956 . S
C1678 H1691 0.961 . S
C1678 H1692 0.961 . S
C1679 C1676 1.539 . S
C1679 H1693 0.958 . S
C1679 H1694 0.961 . S
C1679 H1695 0.960 . S
H1680 C1664 0.931 . S
H1681 C1669 0.929 . S
H1682 C1670 0.933 1_455 S
H1683 C1670 0.962 . S
H1684 C1670 0.960 . S
H1685 C1671 0.977 . S
H1686 C1671 0.944 1_455 S
H1687 C1671 0.944 1_455 S
H1688 C1672 0.931 . S
H1689 C1677 0.930 . S
H1690 C1678 0.956 . S
H1691 C1678 0.961 . S
H1692 C1678 0.961 . S
H1693 C1679 0.958 . S
H1694 C1679 0.961 . S
H1695 C1679 0.960 . S
C1696 C1697 1.391 . S
C1696 C1698 1.394 . S
C1696 H1712 0.931 . S
C1697 C1696 1.391 . S
C1697 C1701 1.376 . S
C1698 C1696 1.394 . S
C1698 C1699 1.369 . S
C1698 C1702 1.531 . S
C1699 C1698 1.369 . S
C1699 C1700 1.410 . S
C1699 C1707 1.503 . S
C1700 C1699 1.410 . S
C1700 C1701 1.392 . S
C1700 C1703 1.511 . S
C1701 C1697 1.376 . S
C1701 C1700 1.392 . S
C1701 H1713 0.929 . S
C1702 C1698 1.531 . S
C1702 H1714 0.960 . S
C1702 H1715 0.962 . S
C1702 H1716 0.960 . S
C1703 C1700 1.511 . S
C1703 H1717 0.961 . S
C1703 H1718 0.961 . S
C1703 H1719 0.961 . S
C1704 C1705 1.370 . S
C1704 C1706 1.363 . S
C1704 H1720 0.931 . S
C1705 C1704 1.370 . S
C1705 C1709 1.408 . S
C1706 C1704 1.363 . S
C1706 C1707 1.370 . S
C1706 C1710 1.524 . S
C1707 C1699 1.503 . S
C1707 C1706 1.370 . S
C1707 C1708 1.403 . S
C1708 C1707 1.403 . S
C1708 C1709 1.404 . S
C1708 C1711 1.539 . S
C1709 C1705 1.408 . S
C1709 C1708 1.404 . S
C1709 H1721 0.930 . S
C1710 C1706 1.524 . S
C1710 H1722 0.956 . S
C1710 H1723 0.961 . S
C1710 H1724 0.961 . S
C1711 C1708 1.539 . S
C1711 H1725 0.958 . S
C1711 H1726 0.961 . S
C1711 H1727 0.960 . S
H1712 C1696 0.931 . S
H1713 C1701 0.929 . S
H1714 C1702 0.960 . S
H1715 C1702 0.962 . S
H1716 C1702 0.960 . S
H1717 C1703 0.961 . S
H1718 C1703 0.961 . S
H1719 C1703 0.961 . S
H1720 C1704 0.931 . S
H1721 C1709 0.930 . S
H1722 C1710 0.956 . S
H1723 C1710 0.961 . S
H1724 C1710 0.961 . S
H1725 C1711 0.958 . S
H1726 C1711 0.961 . S
H1727 C1711 0.960 . S
C1728 C1729 1.391 . S
C1728 C1730 1.394 . S
C1728 H1744 0.931 . S
C1729 C1728 1.391 . S
C1729 C1733 1.376 . S
C1730 C1728 1.394 . S
C1730 C1731 1.369 . S
C1730 C1734 1.531 . S
C1731 C1730 1.369 . S
C1731 C1732 1.410 . S
C1731 C1739 1.503 . S
C1732 C1731 1.410 . S
C1732 C1733 1.392 . S
C1732 C1735 1.511 . S
C1733 C1729 1.376 . S
C1733 C1732 1.392 . S
C1733 H1745 0.929 . S
C1734 C1730 1.531 . S
C1734 H1746 0.960 . S
C1734 H1747 0.962 . S
C1734 H1748 0.960 . S
C1735 C1732 1.511 . S
C1735 H1749 0.961 . S
C1735 H1750 0.961 . S
C1735 H1751 0.961 . S
C1736 C1737 1.370 . S
C1736 C1738 1.363 . S
C1736 H1752 0.931 . S
C1737 C1736 1.370 . S
C1737 C1741 1.408 . S
C1738 C1736 1.363 . S
C1738 C1739 1.370 . S
C1738 C1742 1.524 . S
C1739 C1731 1.503 . S
C1739 C1738 1.370 . S
C1739 C1740 1.403 . S
C1740 C1739 1.403 . S
C1740 C1741 1.404 . S
C1740 C1743 1.539 . S
C1741 C1737 1.408 . S
C1741 C1740 1.404 . S
C1741 H1753 0.930 . S
C1742 C1738 1.524 . S
C1742 H1754 0.956 . S
C1742 H1755 0.961 . S
C1742 H1756 0.961 . S
C1743 C1740 1.539 . S
C1743 H1757 0.958 . S
C1743 H1758 0.961 . S
C1743 H1759 0.960 . S
H1744 C1728 0.931 . S
H1745 C1733 0.929 . S
H1746 C1734 0.960 . S
H1747 C1734 0.962 . S
H1748 C1734 0.960 . S
H1749 C1735 0.961 . S
H1750 C1735 0.961 . S
H1751 C1735 0.961 . S
H1752 C1736 0.931 . S
H1753 C1741 0.930 . S
H1754 C1742 0.956 . S
H1755 C1742 0.961 . S
H1756 C1742 0.961 . S
H1757 C1743 0.958 . S
H1758 C1743 0.961 . S
H1759 C1743 0.960 . S
C1760 C1761 1.391 . S
C1760 C1762 1.394 . S
C1760 H1776 0.931 . S
C1761 C1760 1.391 . S
C1761 C1765 1.376 . S
C1762 C1760 1.394 . S
C1762 C1763 1.369 . S
C1762 C1766 1.531 . S
C1763 C1762 1.369 . S
C1763 C1764 1.410 . S
C1763 C1771 1.503 . S
C1764 C1763 1.410 . S
C1764 C1765 1.392 . S
C1764 C1767 1.511 . S
C1765 C1761 1.376 . S
C1765 C1764 1.392 . S
C1765 H1777 0.929 . S
C1766 C1762 1.531 . S
C1766 H1778 0.960 . S
C1766 H1779 0.962 . S
C1766 H1780 0.960 . S
C1767 C1764 1.511 . S
C1767 H1781 0.961 . S
C1767 H1782 0.961 . S
C1767 H1783 0.961 . S
C1768 C1769 1.370 . S
C1768 C1770 1.363 . S
C1768 H1784 0.931 . S
C1769 C1768 1.370 . S
C1769 C1773 1.408 . S
C1770 C1768 1.363 . S
C1770 C1771 1.370 . S
C1770 C1774 1.524 . S
C1771 C1763 1.503 . S
C1771 C1770 1.370 . S
C1771 C1772 1.403 . S
C1772 C1771 1.403 . S
C1772 C1773 1.404 . S
C1772 C1775 1.539 . S
C1773 C1769 1.408 . S
C1773 C1772 1.404 . S
C1773 H1785 0.930 . S
C1774 C1770 1.524 . S
C1774 H1786 0.956 . S
C1774 H1787 0.961 . S
C1774 H1788 0.961 . S
C1775 C1772 1.539 . S
C1775 H1789 0.958 . S
C1775 H1790 0.961 . S
C1775 H1791 0.960 . S
H1776 C1760 0.931 . S
H1777 C1765 0.929 . S
H1778 C1766 0.960 . S
H1779 C1766 0.962 . S
H1780 C1766 0.960 . S
H1781 C1767 0.961 . S
H1782 C1767 0.961 . S
H1783 C1767 0.961 . S
H1784 C1768 0.931 . S
H1785 C1773 0.930 . S
H1786 C1774 0.956 . S
H1787 C1774 0.961 . S
H1788 C1774 0.961 . S
H1789 C1775 0.958 . S
H1790 C1775 0.961 . S
H1791 C1775 0.960 . S
C1792 C1793 1.391 . S
C1792 C1794 1.394 . S
C1792 H1808 0.931 . S
C1793 C1792 1.391 . S
C1793 C1797 1.376 . S
C1794 C1792 1.394 . S
C1794 C1795 1.369 . S
C1794 C1798 1.531 . S
C1795 C1794 1.369 . S
C1795 C1796 1.410 . S
C1795 C1803 1.503 . S
C1796 C1795 1.410 . S
C1796 C1797 1.392 . S
C1796 C1799 1.511 . S
C1797 C1793 1.376 . S
C1797 C1796 1.392 . S
C1797 H1809 0.929 . S
C1798 C1794 1.531 . S
C1798 H1810 0.960 . S
C1798 H1811 0.962 . S
C1798 H1812 0.960 . S
C1799 C1796 1.511 . S
C1799 H1813 0.961 . S
C1799 H1814 0.961 . S
C1799 H1815 0.961 . S
C1800 C1801 1.370 . S
C1800 C1802 1.363 . S
C1800 H1816 0.931 . S
C1801 C1800 1.370 . S
C1801 C1805 1.408 . S
C1802 C1800 1.363 . S
C1802 C1803 1.370 . S
C1802 C1806 1.524 . S
C1803 C1795 1.503 . S
C1803 C1802 1.370 . S
C1803 C1804 1.403 . S
C1804 C1803 1.403 . S
C1804 C1805 1.404 . S
C1804 C1807 1.539 . S
C1805 C1801 1.408 . S
C1805 C1804 1.404 . S
C1805 H1817 0.930 . S
C1806 C1802 1.524 . S
C1806 H1818 0.956 . S
C1806 H1819 0.961 . S
C1806 H1820 0.961 . S
C1807 C1804 1.539 . S
C1807 H1821 0.958 . S
C1807 H1822 0.961 . S
C1807 H1823 0.960 . S
H1808 C1792 0.931 . S
H1809 C1797 0.929 . S
H1810 C1798 0.960 . S
H1811 C1798 0.962 . S
H1812 C1798 0.960 . S
H1813 C1799 0.961 . S
H1814 C1799 0.961 . S
H1815 C1799 0.961 . S
H1816 C1800 0.931 . S
H1817 C1805 0.930 . S
H1818 C1806 0.956 . S
H1819 C1806 0.961 . S
H1820 C1806 0.961 . S
H1821 C1807 0.958 . S
H1822 C1807 0.961 . S
H1823 C1807 0.960 . S
C1824 C1825 1.391 . S
C1824 C1826 1.394 . S
C1824 H1840 0.931 . S
C1825 C1824 1.391 . S
C1825 C1829 1.376 . S
C1826 C1824 1.394 . S
C1826 C1827 1.369 . S
C1826 C1830 1.531 . S
C1827 C1826 1.369 . S
C1827 C1828 1.410 . S
C1827 C1835 1.503 . S
C1828 C1827 1.410 . S
C1828 C1829 1.392 . S
C1828 C1831 1.511 . S
C1829 C1825 1.376 . S
C1829 C1828 1.392 . S
C1829 H1841 0.929 . S
C1830 C1826 1.531 . S
C1830 H1842 0.960 . S
C1830 H1843 0.962 . S
C1830 H1844 0.960 . S
C1831 C1828 1.511 . S
C1831 H1845 0.961 . S
C1831 H1846 0.961 . S
C1831 H1847 0.961 . S
C1832 C1833 1.370 . S
C1832 C1834 1.363 . S
C1832 H1848 0.931 . S
C1833 C1832 1.370 . S
C1833 C1837 1.408 . S
C1834 C1832 1.363 . S
C1834 C1835 1.370 . S
C1834 C1838 1.524 . S
C1835 C1827 1.503 . S
C1835 C1834 1.370 . S
C1835 C1836 1.403 . S
C1836 C1835 1.403 . S
C1836 C1837 1.404 . S
C1836 C1839 1.539 . S
C1837 C1833 1.408 . S
C1837 C1836 1.404 . S
C1837 H1849 0.930 . S
C1838 C1834 1.524 . S
C1838 H1850 0.956 . S
C1838 H1851 0.961 . S
C1838 H1852 0.961 . S
C1839 C1836 1.539 . S
C1839 H1853 0.958 . S
C1839 H1854 0.961 . S
C1839 H1855 0.960 . S
H1840 C1824 0.931 . S
H1841 C1829 0.929 . S
H1842 C1830 0.960 . S
H1843 C1830 0.962 . S
H1844 C1830 0.960 . S
H1845 C1831 0.961 . S
H1846 C1831 0.961 . S
H1847 C1831 0.961 . S
H1848 C1832 0.931 . S
H1849 C1837 0.930 . S
H1850 C1838 0.956 . S
H1851 C1838 0.961 . S
H1852 C1838 0.961 . S
H1853 C1839 0.958 . S
H1854 C1839 0.961 . S
H1855 C1839 0.960 . S
C1856 C1857 1.391 . S
C1856 C1858 1.394 . S
C1856 H1872 0.931 . S
C1857 C1856 1.391 . S
C1857 C1861 1.376 . S
C1858 C1856 1.394 . S
C1858 C1859 1.369 . S
C1858 C1862 1.531 . S
C1859 C1858 1.369 . S
C1859 C1860 1.410 . S
C1859 C1867 1.503 . S
C1860 C1859 1.410 . S
C1860 C1861 1.392 . S
C1860 C1863 1.511 . S
C1861 C1857 1.376 . S
C1861 C1860 1.392 . S
C1861 H1873 0.929 . S
C1862 C1858 1.531 . S
C1862 H1874 0.960 . S
C1862 H1875 0.962 . S
C1862 H1876 0.960 . S
C1863 C1860 1.511 . S
C1863 H1877 0.961 . S
C1863 H1878 0.961 . S
C1863 H1879 0.961 . S
C1864 C1865 1.370 . S
C1864 C1866 1.363 . S
C1864 H1880 0.931 . S
C1865 C1864 1.370 . S
C1865 C1869 1.408 . S
C1866 C1864 1.363 . S
C1866 C1867 1.370 . S
C1866 C1870 1.524 . S
C1867 C1859 1.503 . S
C1867 C1866 1.370 . S
C1867 C1868 1.403 . S
C1868 C1867 1.403 . S
C1868 C1869 1.404 . S
C1868 C1871 1.539 . S
C1869 C1865 1.408 . S
C1869 C1868 1.404 . S
C1869 H1881 0.930 . S
C1870 C1866 1.524 . S
C1870 H1882 0.956 . S
C1870 H1883 0.961 . S
C1870 H1884 0.961 . S
C1871 C1868 1.539 . S
C1871 H1885 0.958 . S
C1871 H1886 0.961 . S
C1871 H1887 0.960 . S
H1872 C1856 0.931 . S
H1873 C1861 0.929 . S
H1874 C1862 0.960 . S
H1875 C1862 0.962 . S
H1876 C1862 0.960 . S
H1877 C1863 0.961 . S
H1878 C1863 0.961 . S
H1879 C1863 0.961 . S
H1880 C1864 0.931 . S
H1881 C1869 0.930 . S
H1882 C1870 0.956 . S
H1883 C1870 0.961 . S
H1884 C1870 0.961 . S
H1885 C1871 0.958 . S
H1886 C1871 0.961 . S
H1887 C1871 0.960 . S
C1888 C1889 1.391 . S
C1888 C1890 1.394 . S
C1888 H1904 0.931 . S
C1889 C1888 1.391 . S
C1889 C1893 1.376 . S
C1890 C1888 1.394 . S
C1890 C1891 1.369 . S
C1890 C1894 1.531 . S
C1891 C1890 1.369 . S
C1891 C1892 1.410 . S
C1891 C1899 1.503 . S
C1892 C1891 1.410 . S
C1892 C1893 1.392 . S
C1892 C1895 1.511 . S
C1893 C1889 1.376 . S
C1893 C1892 1.392 . S
C1893 H1905 0.929 . S
C1894 C1890 1.531 . S
C1894 H1906 0.960 . S
C1894 H1907 0.962 . S
C1894 H1908 0.960 . S
C1895 C1892 1.511 . S
C1895 H1909 0.961 . S
C1895 H1910 0.961 . S
C1895 H1911 0.961 . S
C1896 C1897 1.370 . S
C1896 C1898 1.363 . S
C1896 H1912 0.931 . S
C1897 C1896 1.370 . S
C1897 C1901 1.408 . S
C1898 C1896 1.363 . S
C1898 C1899 1.370 . S
C1898 C1902 1.524 . S
C1899 C1891 1.503 . S
C1899 C1898 1.370 . S
C1899 C1900 1.403 . S
C1900 C1899 1.403 . S
C1900 C1901 1.404 . S
C1900 C1903 1.539 . S
C1901 C1897 1.408 . S
C1901 C1900 1.404 . S
C1901 H1913 0.930 . S
C1902 C1898 1.524 . S
C1902 H1914 0.956 . S
C1902 H1915 0.961 . S
C1902 H1916 0.961 . S
C1903 C1900 1.539 . S
C1903 H1917 0.958 . S
C1903 H1918 0.961 . S
C1903 H1919 0.960 . S
H1904 C1888 0.931 . S
H1905 C1893 0.929 . S
H1906 C1894 0.960 . S
H1907 C1894 0.962 . S
H1908 C1894 0.960 . S
H1909 C1895 0.961 . S
H1910 C1895 0.961 . S
H1911 C1895 0.961 . S
H1912 C1896 0.931 . S
H1913 C1901 0.930 . S
H1914 C1902 0.956 . S
H1915 C1902 0.961 . S
H1916 C1902 0.961 . S
H1917 C1903 0.958 . S
H1918 C1903 0.961 . S
H1919 C1903 0.960 . S
C1920 C1921 1.391 . S
C1920 C1922 1.394 . S
C1920 H1936 0.931 . S
C1921 C1920 1.391 . S
C1921 C1925 1.376 . S
C1922 C1920 1.394 . S
C1922 C1923 1.369 . S
C1922 C1926 1.531 . S
C1923 C1922 1.369 . S
C1923 C1924 1.410 . S
C1923 C1931 1.503 . S
C1924 C1923 1.410 . S
C1924 C1925 1.392 . S
C1924 C1927 1.511 . S
C1925 C1921 1.376 . S
C1925 C1924 1.392 . S
C1925 H1937 0.929 . S
C1926 C1922 1.531 . S
C1926 H1938 0.960 . S
C1926 H1939 0.962 . S
C1926 H1940 0.960 . S
C1927 C1924 1.511 . S
C1927 H1941 0.961 . S
C1927 H1942 0.961 . S
C1927 H1943 0.961 . S
C1928 C1929 1.370 . S
C1928 C1930 1.363 . S
C1928 H1944 0.931 . S
C1929 C1928 1.370 . S
C1929 C1933 1.408 . S
C1930 C1928 1.363 . S
C1930 C1931 1.370 . S
C1930 C1934 1.524 . S
C1931 C1923 1.503 . S
C1931 C1930 1.370 . S
C1931 C1932 1.403 . S
C1932 C1931 1.403 . S
C1932 C1933 1.404 . S
C1932 C1935 1.539 . S
C1933 C1929 1.408 . S
C1933 C1932 1.404 . S
C1933 H1945 0.930 . S
C1934 C1930 1.524 . S
C1934 H1946 0.956 . S
C1934 H1947 0.961 . S
C1934 H1948 0.961 . S
C1935 C1932 1.539 . S
C1935 H1949 0.958 . S
C1935 H1950 0.961 . S
C1935 H1951 0.960 . S
H1936 C1920 0.931 . S
H1937 C1925 0.929 . S
H1938 C1926 0.960 . S
H1939 C1926 0.962 . S
H1940 C1926 0.960 . S
H1941 C1927 0.961 . S
H1942 C1927 0.961 . S
H1943 C1927 0.961 . S
H1944 C1928 0.931 . S
H1945 C1933 0.930 . S
H1946 C1934 0.956 . S
H1947 C1934 0.961 . S
H1948 C1934 0.961 . S
H1949 C1935 0.958 . S
H1950 C1935 0.961 . S
H1951 C1935 0.960 . S
C1952 C1953 1.391 . S
C1952 C1954 1.394 . S
C1952 H1968 0.931 . S
C1953 C1952 1.391 . S
C1953 C1957 1.376 . S
C1954 C1952 1.394 . S
C1954 C1955 1.369 . S
C1954 C1958 1.531 . S
C1955 C1954 1.369 . S
C1955 C1956 1.410 . S
C1955 C1963 1.503 . S
C1956 C1955 1.410 . S
C1956 C1957 1.392 . S
C1956 C1959 1.511 . S
C1957 C1953 1.376 . S
C1957 C1956 1.392 . S
C1957 H1969 0.929 . S
C1958 C1954 1.531 . S
C1958 H1970 0.960 . S
C1958 H1971 0.962 . S
C1958 H1972 0.960 . S
C1959 C1956 1.511 . S
C1959 H1973 0.961 . S
C1959 H1974 0.961 . S
C1959 H1975 0.961 . S
C1960 C1961 1.370 . S
C1960 C1962 1.363 . S
C1960 H1976 0.931 . S
C1961 C1960 1.370 . S
C1961 C1965 1.408 . S
C1962 C1960 1.363 . S
C1962 C1963 1.370 . S
C1962 C1966 1.524 . S
C1963 C1955 1.503 . S
C1963 C1962 1.370 . S
C1963 C1964 1.403 . S
C1964 C1963 1.403 . S
C1964 C1965 1.404 . S
C1964 C1967 1.539 . S
C1965 C1961 1.408 . S
C1965 C1964 1.404 . S
C1965 H1977 0.930 . S
C1966 C1962 1.524 . S
C1966 H1978 0.956 . S
C1966 H1979 0.961 . S
C1966 H1980 0.961 . S
C1967 C1964 1.539 . S
C1967 H1981 0.958 . S
C1967 H1982 0.961 . S
C1967 H1983 0.960 . S
H1968 C1952 0.931 . S
H1969 C1957 0.929 . S
H1970 C1958 0.960 . S
H1971 C1958 0.962 . S
H1972 C1958 0.960 . S
H1973 C1959 0.961 . S
H1974 C1959 0.961 . S
H1975 C1959 0.961 . S
H1976 C1960 0.931 . S
H1977 C1965 0.930 . S
H1978 C1966 0.956 . S
H1979 C1966 0.961 . S
H1980 C1966 0.961 . S
H1981 C1967 0.958 . S
H1982 C1967 0.961 . S
H1983 C1967 0.960 . S
C1984 C1985 1.391 . S
C1984 C1986 1.394 . S
C1984 H2000 0.931 . S
C1985 C1984 1.391 . S
C1985 C1989 1.376 . S
C1986 C1984 1.394 . S
C1986 C1987 1.369 . S
C1986 C1990 1.531 . S
C1987 C1986 1.369 . S
C1987 C1988 1.410 . S
C1987 C1995 1.503 . S
C1988 C1987 1.410 . S
C1988 C1989 1.392 . S
C1988 C1991 1.511 . S
C1989 C1985 1.376 . S
C1989 C1988 1.392 . S
C1989 H2001 0.929 . S
C1990 C1986 1.531 . S
C1990 H2002 0.960 . S
C1990 H2003 0.962 . S
C1990 H2004 0.960 . S
C1991 C1988 1.511 . S
C1991 H2005 0.961 . S
C1991 H2006 0.961 . S
C1991 H2007 0.961 . S
C1992 C1993 1.370 . S
C1992 C1994 1.363 . S
C1992 H2008 0.931 . S
C1993 C1992 1.370 . S
C1993 C1997 1.408 . S
C1994 C1992 1.363 . S
C1994 C1995 1.370 . S
C1994 C1998 1.524 . S
C1995 C1987 1.503 . S
C1995 C1994 1.370 . S
C1995 C1996 1.403 . S
C1996 C1995 1.403 . S
C1996 C1997 1.404 . S
C1996 C1999 1.539 . S
C1997 C1993 1.408 . S
C1997 C1996 1.404 . S
C1997 H2009 0.930 . S
C1998 C1994 1.524 . S
C1998 H2010 0.956 . S
C1998 H2011 0.961 . S
C1998 H2012 0.961 . S
C1999 C1996 1.539 . S
C1999 H2013 0.958 . S
C1999 H2014 0.961 . S
C1999 H2015 0.960 . S
H2000 C1984 0.931 . S
H2001 C1989 0.929 . S
H2002 C1990 0.960 . S
H2003 C1990 0.962 . S
H2004 C1990 0.960 . S
H2005 C1991 0.961 . S
H2006 C1991 0.961 . S
H2007 C1991 0.961 . S
H2008 C1992 0.931 . S
H2009 C1997 0.930 . S
H2010 C1998 0.956 . S
H2011 C1998 0.961 . S
H2012 C1998 0.961 . S
H2013 C1999 0.958 . S
H2014 C1999 0.961 . S
H2015 C1999 0.960 . S
C2016 C2017 1.391 . S
C2016 C2018 1.394 . S
C2016 H2032 0.931 . S
C2017 C2016 1.391 . S
C2017 C2021 1.376 . S
C2018 C2016 1.394 . S
C2018 C2019 1.369 . S
C2018 C2022 1.531 . S
C2019 C2018 1.369 . S
C2019 C2020 1.410 . S
C2019 C2027 1.503 . S
C2020 C2019 1.410 . S
C2020 C2021 1.392 . S
C2020 C2023 1.511 . S
C2021 C2017 1.376 . S
C2021 C2020 1.392 . S
C2021 H2033 0.929 . S
C2022 C2018 1.531 . S
C2022 H2034 0.960 . S
C2022 H2035 0.962 . S
C2022 H2036 0.960 . S
C2023 C2020 1.511 . S
C2023 H2037 0.961 . S
C2023 H2038 0.961 . S
C2023 H2039 0.961 . S
C2024 C2025 1.370 . S
C2024 C2026 1.363 . S
C2024 H2040 0.931 . S
C2025 C2024 1.370 . S
C2025 C2029 1.408 . S
C2026 C2024 1.363 . S
C2026 C2027 1.370 . S
C2026 C2030 1.524 . S
C2027 C2019 1.503 . S
C2027 C2026 1.370 . S
C2027 C2028 1.403 . S
C2028 C2027 1.403 . S
C2028 C2029 1.404 . S
C2028 C2031 1.539 . S
C2029 C2025 1.408 . S
C2029 C2028 1.404 . S
C2029 H2041 0.930 . S
C2030 C2026 1.524 . S
C2030 H2042 0.956 . S
C2030 H2043 0.961 . S
C2030 H2044 0.961 . S
C2031 C2028 1.539 . S
C2031 H2045 0.958 . S
C2031 H2046 0.961 . S
C2031 H2047 0.960 . S
H2032 C2016 0.931 . S
H2033 C2021 0.929 . S
H2034 C2022 0.960 . S
H2035 C2022 0.962 . S
H2036 C2022 0.960 . S
H2037 C2023 0.961 . S
H2038 C2023 0.961 . S
H2039 C2023 0.961 . S
H2040 C2024 0.931 . S
H2041 C2029 0.930 . S
H2042 C2030 0.956 . S
H2043 C2030 0.961 . S
H2044 C2030 0.961 . S
H2045 C2031 0.958 . S
H2046 C2031 0.961 . S
H2047 C2031 0.960 . S
C2048 C2049 1.391 . S
C2048 C2050 1.394 . S
C2048 H2064 0.931 . S
C2049 C2048 1.391 . S
C2049 C2053 1.376 . S
C2050 C2048 1.394 . S
C2050 C2051 1.369 . S
C2050 C2054 1.531 . S
C2051 C2050 1.369 . S
C2051 C2052 1.410 . S
C2051 C2059 1.503 . S
C2052 C2051 1.410 . S
C2052 C2053 1.392 . S
C2052 C2055 1.511 . S
C2053 C2049 1.376 . S
C2053 C2052 1.392 . S
C2053 H2065 0.929 . S
C2054 C2050 1.531 . S
C2054 H2066 0.960 . S
C2054 H2067 0.962 . S
C2054 H2068 0.960 . S
C2055 C2052 1.511 . S
C2055 H2069 0.961 . S
C2055 H2070 0.961 . S
C2055 H2071 0.961 . S
C2056 C2057 1.370 . S
C2056 C2058 1.363 . S
C2056 H2072 0.931 . S
C2057 C2056 1.370 . S
C2057 C2061 1.408 . S
C2058 C2056 1.363 . S
C2058 C2059 1.370 . S
C2058 C2062 1.524 . S
C2059 C2051 1.503 . S
C2059 C2058 1.370 . S
C2059 C2060 1.403 . S
C2060 C2059 1.403 . S
C2060 C2061 1.404 . S
C2060 C2063 1.539 . S
C2061 C2057 1.408 . S
C2061 C2060 1.404 . S
C2061 H2073 0.930 . S
C2062 C2058 1.524 . S
C2062 H2074 0.956 . S
C2062 H2075 0.961 . S
C2062 H2076 0.961 . S
C2063 C2060 1.539 . S
C2063 H2077 0.958 . S
C2063 H2078 0.961 . S
C2063 H2079 0.960 . S
H2064 C2048 0.931 . S
H2065 C2053 0.929 . S
H2066 C2054 0.960 . S
H2067 C2054 0.962 . S
H2068 C2054 0.960 . S
H2069 C2055 0.961 . S
H2070 C2055 0.961 . S
H2071 C2055 0.961 . S
H2072 C2056 0.931 . S
H2073 C2061 0.930 . S
H2074 C2062 0.956 . S
H2075 C2062 0.961 . S
H2076 C2062 0.961 . S
H2077 C2063 0.958 . S
H2078 C2063 0.961 . S
H2079 C2063 0.960 . S
C2080 C2081 1.391 . S
C2080 C2082 1.394 . S
C2080 H2096 0.931 . S
C2081 C2080 1.391 . S
C2081 C2085 1.376 . S
C2082 C2080 1.394 . S
C2082 C2083 1.369 . S
C2082 C2086 1.531 . S
C2083 C2082 1.369 . S
C2083 C2084 1.410 . S
C2083 C2091 1.503 . S
C2084 C2083 1.410 . S
C2084 C2085 1.392 . S
C2084 C2087 1.511 . S
C2085 C2081 1.376 . S
C2085 C2084 1.392 . S
C2085 H2097 0.929 . S
C2086 C2082 1.531 . S
C2086 H2098 0.960 . S
C2086 H2099 0.962 . S
C2086 H2100 0.960 . S
C2087 C2084 1.511 . S
C2087 H2101 0.961 . S
C2087 H2102 0.961 . S
C2087 H2103 0.961 . S
C2088 C2089 1.370 . S
C2088 C2090 1.363 . S
C2088 H2104 0.931 . S
C2089 C2088 1.370 . S
C2089 C2093 1.408 . S
C2090 C2088 1.363 . S
C2090 C2091 1.370 . S
C2090 C2094 1.524 . S
C2091 C2083 1.503 . S
C2091 C2090 1.370 . S
C2091 C2092 1.403 . S
C2092 C2091 1.403 . S
C2092 C2093 1.404 . S
C2092 C2095 1.539 . S
C2093 C2089 1.408 . S
C2093 C2092 1.404 . S
C2093 H2105 0.930 . S
C2094 C2090 1.524 . S
C2094 H2106 0.956 . S
C2094 H2107 0.961 . S
C2094 H2108 0.961 . S
C2095 C2092 1.539 . S
C2095 H2109 0.958 . S
C2095 H2110 0.961 . S
C2095 H2111 0.960 . S
H2096 C2080 0.931 . S
H2097 C2085 0.929 . S
H2098 C2086 0.960 . S
H2099 C2086 0.962 . S
H2100 C2086 0.960 . S
H2101 C2087 0.961 . S
H2102 C2087 0.961 . S
H2103 C2087 0.961 . S
H2104 C2088 0.931 . S
H2105 C2093 0.930 . S
H2106 C2094 0.956 . S
H2107 C2094 0.961 . S
H2108 C2094 0.961 . S
H2109 C2095 0.958 . S
H2110 C2095 0.961 . S
H2111 C2095 0.960 . S
C2112 C2113 1.391 . S
C2112 C2114 1.394 . S
C2112 H2128 0.931 . S
C2113 C2112 1.391 . S
C2113 C2117 1.376 . S
C2114 C2112 1.394 . S
C2114 C2115 1.369 . S
C2114 C2118 1.531 . S
C2115 C2114 1.369 . S
C2115 C2116 1.410 . S
C2115 C2123 1.503 . S
C2116 C2115 1.410 . S
C2116 C2117 1.392 . S
C2116 C2119 1.511 . S
C2117 C2113 1.376 . S
C2117 C2116 1.392 . S
C2117 H2129 0.929 . S
C2118 C2114 1.531 . S
C2118 H2130 0.960 . S
C2118 H2131 0.962 . S
C2118 H2132 0.960 . S
C2119 C2116 1.511 . S
C2119 H2133 0.961 . S
C2119 H2134 0.961 . S
C2119 H2135 0.961 . S
C2120 C2121 1.370 . S
C2120 C2122 1.363 . S
C2120 H2136 0.931 . S
C2121 C2120 1.370 . S
C2121 C2125 1.408 . S
C2122 C2120 1.363 . S
C2122 C2123 1.370 . S
C2122 C2126 1.524 . S
C2123 C2115 1.503 . S
C2123 C2122 1.370 . S
C2123 C2124 1.403 . S
C2124 C2123 1.403 . S
C2124 C2125 1.404 . S
C2124 C2127 1.539 . S
C2125 C2121 1.408 . S
C2125 C2124 1.404 . S
C2125 H2137 0.930 . S
C2126 C2122 1.524 . S
C2126 H2138 0.956 . S
C2126 H2139 0.961 . S
C2126 H2140 0.961 . S
C2127 C2124 1.539 . S
C2127 H2141 0.958 . S
C2127 H2142 0.961 . S
C2127 H2143 0.960 . S
H2128 C2112 0.931 . S
H2129 C2117 0.929 . S
H2130 C2118 0.960 . S
H2131 C2118 0.962 . S
H2132 C2118 0.960 . S
H2133 C2119 0.961 . S
H2134 C2119 0.961 . S
H2135 C2119 0.961 . S
H2136 C2120 0.931 . S
H2137 C2125 0.930 . S
H2138 C2126 0.956 . S
H2139 C2126 0.961 . S
H2140 C2126 0.961 . S
H2141 C2127 0.958 . S
H2142 C2127 0.961 . S
H2143 C2127 0.960 . S
C2144 C2145 1.391 . S
C2144 C2146 1.394 . S
C2144 H2160 0.931 . S
C2145 C2144 1.391 . S
C2145 C2149 1.376 . S
C2146 C2144 1.394 . S
C2146 C2147 1.369 . S
C2146 C2150 1.531 . S
C2147 C2146 1.369 . S
C2147 C2148 1.410 . S
C2147 C2155 1.503 . S
C2148 C2147 1.410 . S
C2148 C2149 1.392 . S
C2148 C2151 1.511 . S
C2149 C2145 1.376 . S
C2149 C2148 1.392 . S
C2149 H2161 0.929 . S
C2150 C2146 1.531 . S
C2150 H2162 0.960 . S
C2150 H2163 0.962 . S
C2150 H2164 0.960 . S
C2151 C2148 1.511 . S
C2151 H2165 0.961 . S
C2151 H2166 0.961 . S
C2151 H2167 0.961 . S
C2152 C2153 1.370 . S
C2152 C2154 1.363 . S
C2152 H2168 0.931 . S
C2153 C2152 1.370 . S
C2153 C2157 1.408 . S
C2154 C2152 1.363 . S
C2154 C2155 1.370 . S
C2154 C2158 1.524 . S
C2155 C2147 1.503 . S
C2155 C2154 1.370 . S
C2155 C2156 1.403 . S
C2156 C2155 1.403 . S
C2156 C2157 1.404 . S
C2156 C2159 1.539 . S
C2157 C2153 1.408 . S
C2157 C2156 1.404 . S
C2157 H2169 0.930 . S
C2158 C2154 1.524 . S
C2158 H2170 0.956 . S
C2158 H2171 0.961 . S
C2158 H2172 0.961 . S
C2159 C2156 1.539 . S
C2159 H2173 0.958 . S
C2159 H2174 0.961 . S
C2159 H2175 0.960 . S
H2160 C2144 0.931 . S
H2161 C2149 0.929 . S
H2162 C2150 0.960 . S
H2163 C2150 0.962 . S
H2164 C2150 0.960 . S
H2165 C2151 0.961 . S
H2166 C2151 0.961 . S
H2167 C2151 0.961 . S
H2168 C2152 0.931 . S
H2169 C2157 0.930 . S
H2170 C2158 0.956 . S
H2171 C2158 0.961 . S
H2172 C2158 0.961 . S
H2173 C2159 0.958 . S
H2174 C2159 0.961 . S
H2175 C2159 0.960 . S
C2176 C2177 1.391 . S
C2176 C2178 1.394 . S
C2176 H2192 0.931 . S
C2177 C2176 1.391 . S
C2177 C2181 1.376 . S
C2178 C2176 1.394 . S
C2178 C2179 1.369 . S
C2178 C2182 1.531 . S
C2179 C2178 1.369 . S
C2179 C2180 1.410 . S
C2179 C2187 1.503 . S
C2180 C2179 1.410 . S
C2180 C2181 1.392 . S
C2180 C2183 1.511 . S
C2181 C2177 1.376 . S
C2181 C2180 1.392 . S
C2181 H2193 0.929 . S
C2182 C2178 1.531 . S
C2182 H2194 0.960 . S
C2182 H2195 0.962 . S
C2182 H2196 0.960 . S
C2183 C2180 1.511 . S
C2183 H2197 0.961 . S
C2183 H2198 0.961 . S
C2183 H2199 0.961 . S
C2184 C2185 1.370 . S
C2184 C2186 1.363 . S
C2184 H2200 0.931 . S
C2185 C2184 1.370 . S
C2185 C2189 1.408 . S
C2186 C2184 1.363 . S
C2186 C2187 1.370 . S
C2186 C2190 1.524 . S
C2187 C2179 1.503 . S
C2187 C2186 1.370 . S
C2187 C2188 1.403 . S
C2188 C2187 1.403 . S
C2188 C2189 1.404 . S
C2188 C2191 1.539 . S
C2189 C2185 1.408 . S
C2189 C2188 1.404 . S
C2189 H2201 0.930 . S
C2190 C2186 1.524 . S
C2190 H2202 0.956 . S
C2190 H2203 0.961 . S
C2190 H2204 0.961 . S
C2191 C2188 1.539 . S
C2191 H2205 0.958 . S
C2191 H2206 0.961 . S
C2191 H2207 0.960 . S
H2192 C2176 0.931 . S
H2193 C2181 0.929 . S
H2194 C2182 0.960 . S
H2195 C2182 0.962 . S
H2196 C2182 0.960 . S
H2197 C2183 0.961 . S
H2198 C2183 0.961 . S
H2199 C2183 0.961 . S
H2200 C2184 0.931 . S
H2201 C2189 0.930 . S
H2202 C2190 0.956 . S
H2203 C2190 0.961 . S
H2204 C2190 0.961 . S
H2205 C2191 0.958 . S
H2206 C2191 0.961 . S
H2207 C2191 0.960 . S
C2208 C2209 1.391 . S
C2208 C2210 1.394 . S
C2208 H2224 0.931 . S
C2209 C2208 1.391 . S
C2209 C2213 1.376 . S
C2210 C2208 1.394 . S
C2210 C2211 1.369 . S
C2210 C2214 1.531 . S
C2211 C2210 1.369 . S
C2211 C2212 1.410 . S
C2211 C2219 1.503 . S
C2212 C2211 1.410 . S
C2212 C2213 1.392 . S
C2212 C2215 1.511 . S
C2213 C2209 1.376 . S
C2213 C2212 1.392 . S
C2213 H2225 0.929 . S
C2214 C2210 1.531 . S
C2214 H2226 0.960 . S
C2214 H2227 0.962 . S
C2214 H2228 0.960 . S
C2215 C2212 1.511 . S
C2215 H2229 0.961 . S
C2215 H2230 0.961 . S
C2215 H2231 0.961 . S
C2216 C2217 1.370 . S
C2216 C2218 1.363 . S
C2216 H2232 0.931 . S
C2217 C2216 1.370 . S
C2217 C2221 1.408 . S
C2218 C2216 1.363 . S
C2218 C2219 1.370 . S
C2218 C2222 1.524 . S
C2219 C2211 1.503 . S
C2219 C2218 1.370 . S
C2219 C2220 1.403 . S
C2220 C2219 1.403 . S
C2220 C2221 1.404 . S
C2220 C2223 1.539 . S
C2221 C2217 1.408 . S
C2221 C2220 1.404 . S
C2221 H2233 0.930 . S
C2222 C2218 1.524 . S
C2222 H2234 0.956 . S
C2222 H2235 0.961 . S
C2222 H2236 0.961 . S
C2223 C2220 1.539 . S
C2223 H2237 0.958 . S
C2223 H2238 0.961 . S
C2223 H2239 0.960 . S
H2224 C2208 0.931 . S
H2225 C2213 0.929 . S
H2226 C2214 0.960 . S
H2227 C2214 0.962 . S
H2228 C2214 0.960 . S
H2229 C2215 0.961 . S
H2230 C2215 0.961 . S
H2231 C2215 0.961 . S
H2232 C2216 0.931 . S
H2233 C2221 0.930 . S
H2234 C2222 0.956 . S
H2235 C2222 0.961 . S
H2236 C2222 0.961 . S
H2237 C2223 0.958 . S
H2238 C2223 0.961 . S
H2239 C2223 0.960 . S
C2240 C2241 1.391 . S
C2240 C2242 1.394 . S
C2240 H2256 0.931 . S
C2241 C2240 1.391 . S
C2241 C2245 1.376 . S
C2242 C2240 1.394 . S
C2242 C2243 1.369 . S
C2242 C2246 1.531 . S
C2243 C2242 1.369 . S
C2243 C2244 1.410 . S
C2243 C2251 1.503 . S
C2244 C2243 1.410 . S
C2244 C2245 1.392 . S
C2244 C2247 1.511 . S
C2245 C2241 1.376 . S
C2245 C2244 1.392 . S
C2245 H2257 0.929 . S
C2246 C2242 1.531 . S
C2246 H2258 0.960 . S
C2246 H2259 0.962 . S
C2246 H2260 0.960 . S
C2247 C2244 1.511 . S
C2247 H2261 0.961 . S
C2247 H2262 0.961 . S
C2247 H2263 0.961 . S
C2248 C2249 1.370 . S
C2248 C2250 1.363 . S
C2248 H2264 0.931 . S
C2249 C2248 1.370 . S
C2249 C2253 1.408 . S
C2250 C2248 1.363 . S
C2250 C2251 1.370 . S
C2250 C2254 1.524 . S
C2251 C2243 1.503 . S
C2251 C2250 1.370 . S
C2251 C2252 1.403 . S
C2252 C2251 1.403 . S
C2252 C2253 1.404 . S
C2252 C2255 1.539 . S
C2253 C2249 1.408 . S
C2253 C2252 1.404 . S
C2253 H2265 0.930 . S
C2254 C2250 1.524 . S
C2254 H2266 0.956 . S
C2254 H2267 0.961 . S
C2254 H2268 0.961 . S
C2255 C2252 1.539 . S
C2255 H2269 0.958 . S
C2255 H2270 0.961 . S
C2255 H2271 0.960 . S
H2256 C2240 0.931 . S
H2257 C2245 0.929 . S
H2258 C2246 0.960 . S
H2259 C2246 0.962 . S
H2260 C2246 0.960 . S
H2261 C2247 0.961 . S
H2262 C2247 0.961 . S
H2263 C2247 0.961 . S
H2264 C2248 0.931 . S
H2265 C2253 0.930 . S
H2266 C2254 0.956 . S
H2267 C2254 0.961 . S
H2268 C2254 0.961 . S
H2269 C2255 0.958 . S
H2270 C2255 0.961 . S
H2271 C2255 0.960 . S
C2272 C2273 1.391 . S
C2272 C2274 1.394 . S
C2272 H2288 0.931 . S
C2273 C2272 1.391 . S
C2273 C2277 1.376 . S
C2274 C2272 1.394 . S
C2274 C2275 1.369 . S
C2274 C2278 1.531 . S
C2275 C2274 1.369 . S
C2275 C2276 1.410 . S
C2275 C2283 1.503 . S
C2276 C2275 1.410 . S
C2276 C2277 1.392 . S
C2276 C2279 1.511 . S
C2277 C2273 1.376 . S
C2277 C2276 1.392 . S
C2277 H2289 0.929 . S
C2278 C2274 1.531 . S
C2278 H2290 0.960 . S
C2278 H2291 0.962 . S
C2278 H2292 0.960 . S
C2279 C2276 1.511 . S
C2279 H2293 0.961 . S
C2279 H2294 0.961 . S
C2279 H2295 0.961 . S
C2280 C2281 1.370 . S
C2280 C2282 1.363 . S
C2280 H2296 0.931 . S
C2281 C2280 1.370 . S
C2281 C2285 1.408 . S
C2282 C2280 1.363 . S
C2282 C2283 1.370 . S
C2282 C2286 1.524 . S
C2283 C2275 1.503 . S
C2283 C2282 1.370 . S
C2283 C2284 1.403 . S
C2284 C2283 1.403 . S
C2284 C2285 1.404 . S
C2284 C2287 1.539 . S
C2285 C2281 1.408 . S
C2285 C2284 1.404 . S
C2285 H2297 0.930 . S
C2286 C2282 1.524 . S
C2286 H2298 0.956 . S
C2286 H2299 0.961 . S
C2286 H2300 0.961 . S
C2287 C2284 1.539 . S
C2287 H2301 0.958 . S
C2287 H2302 0.961 . S
C2287 H2303 0.960 . S
H2288 C2272 0.931 . S
H2289 C2277 0.929 . S
H2290 C2278 0.960 . S
H2291 C2278 0.962 . S
H2292 C2278 0.960 . S
H2293 C2279 0.961 . S
H2294 C2279 0.961 . S
H2295 C2279 0.961 . S
H2296 C2280 0.931 . S
H2297 C2285 0.930 . S
H2298 C2286 0.956 . S
H2299 C2286 0.961 . S
H2300 C2286 0.961 . S
H2301 C2287 0.958 . S
H2302 C2287 0.961 . S
H2303 C2287 0.960 . S
C2304 C2305 1.391 . S
C2304 C2306 1.394 . S
C2304 H2320 0.931 . S
C2305 C2304 1.391 . S
C2305 C2309 1.376 . S
C2306 C2304 1.394 . S
C2306 C2307 1.369 . S
C2306 C2310 1.531 . S
C2307 C2306 1.369 . S
C2307 C2308 1.410 . S
C2307 C2315 1.503 . S
C2308 C2307 1.410 . S
C2308 C2309 1.392 . S
C2308 C2311 1.511 . S
C2309 C2305 1.376 . S
C2309 C2308 1.392 . S
C2309 H2321 0.929 . S
C2310 C2306 1.531 . S
C2310 H2322 0.960 . S
C2310 H2323 0.962 . S
C2310 H2324 0.960 . S
C2311 C2308 1.511 . S
C2311 H2325 0.961 . S
C2311 H2326 0.961 . S
C2311 H2327 0.961 . S
C2312 C2313 1.370 . S
C2312 C2314 1.363 . S
C2312 H2328 0.931 . S
C2313 C2312 1.370 . S
C2313 C2317 1.408 . S
C2314 C2312 1.363 . S
C2314 C2315 1.370 . S
C2314 C2318 1.524 . S
C2315 C2307 1.503 . S
C2315 C2314 1.370 . S
C2315 C2316 1.403 . S
C2316 C2315 1.403 . S
C2316 C2317 1.404 . S
C2316 C2319 1.539 . S
C2317 C2313 1.408 . S
C2317 C2316 1.404 . S
C2317 H2329 0.930 . S
C2318 C2314 1.524 . S
C2318 H2330 0.956 . S
C2318 H2331 0.961 . S
C2318 H2332 0.961 . S
C2319 C2316 1.539 . S
C2319 H2333 0.958 . S
C2319 H2334 0.961 . S
C2319 H2335 0.960 . S
H2320 C2304 0.931 . S
H2321 C2309 0.929 . S
H2322 C2310 0.960 . S
H2323 C2310 0.962 . S
H2324 C2310 0.960 . S
H2325 C2311 0.961 . S
H2326 C2311 0.961 . S
H2327 C2311 0.961 . S
H2328 C2312 0.931 . S
H2329 C2317 0.930 . S
H2330 C2318 0.956 . S
H2331 C2318 0.961 . S
H2332 C2318 0.961 . S
H2333 C2319 0.958 . S
H2334 C2319 0.961 . S
H2335 C2319 0.960 . S
C2336 C2337 1.391 . S
C2336 C2338 1.394 . S
C2336 H2352 0.931 . S
C2337 C2336 1.391 . S
C2337 C2341 1.376 . S
C2338 C2336 1.394 . S
C2338 C2339 1.369 . S
C2338 C2342 1.531 . S
C2339 C2338 1.369 . S
C2339 C2340 1.410 . S
C2339 C2347 1.503 . S
C2340 C2339 1.410 . S
C2340 C2341 1.392 . S
C2340 C2343 1.511 . S
C2341 C2337 1.376 . S
C2341 C2340 1.392 . S
C2341 H2353 0.929 . S
C2342 C2338 1.531 . S
C2342 H2354 0.960 . S
C2342 H2355 0.962 . S
C2342 H2356 0.960 . S
C2343 C2340 1.511 . S
C2343 H2357 0.961 . S
C2343 H2358 0.961 . S
C2343 H2359 0.961 . S
C2344 C2345 1.370 . S
C2344 C2346 1.363 . S
C2344 H2360 0.931 . S
C2345 C2344 1.370 . S
C2345 C2349 1.408 . S
C2346 C2344 1.363 . S
C2346 C2347 1.370 . S
C2346 C2350 1.524 . S
C2347 C2339 1.503 . S
C2347 C2346 1.370 . S
C2347 C2348 1.403 . S
C2348 C2347 1.403 . S
C2348 C2349 1.404 . S
C2348 C2351 1.539 . S
C2349 C2345 1.408 . S
C2349 C2348 1.404 . S
C2349 H2361 0.930 . S
C2350 C2346 1.524 . S
C2350 H2362 0.956 . S
C2350 H2363 0.961 . S
C2350 H2364 0.961 . S
C2351 C2348 1.539 . S
C2351 H2365 0.958 . S
C2351 H2366 0.961 . S
C2351 H2367 0.960 . S
H2352 C2336 0.931 . S
H2353 C2341 0.929 . S
H2354 C2342 0.960 . S
H2355 C2342 0.962 . S
H2356 C2342 0.960 . S
H2357 C2343 0.961 . S
H2358 C2343 0.961 . S
H2359 C2343 0.961 . S
H2360 C2344 0.931 . S
H2361 C2349 0.930 . S
H2362 C2350 0.956 . S
H2363 C2350 0.961 . S
H2364 C2350 0.961 . S
H2365 C2351 0.958 . S
H2366 C2351 0.961 . S
H2367 C2351 0.960 . S
C2368 C2369 1.391 . S
C2368 C2370 1.394 . S
C2368 H2384 0.931 . S
C2369 C2368 1.391 . S
C2369 C2373 1.376 . S
C2370 C2368 1.394 . S
C2370 C2371 1.369 . S
C2370 C2374 1.531 . S
C2371 C2370 1.369 . S
C2371 C2372 1.410 . S
C2371 C2379 1.503 . S
C2372 C2371 1.410 . S
C2372 C2373 1.392 . S
C2372 C2375 1.511 . S
C2373 C2369 1.376 . S
C2373 C2372 1.392 . S
C2373 H2385 0.929 . S
C2374 C2370 1.531 . S
C2374 H2386 0.960 . S
C2374 H2387 0.962 . S
C2374 H2388 0.960 . S
C2375 C2372 1.511 . S
C2375 H2389 0.961 . S
C2375 H2390 0.961 . S
C2375 H2391 0.961 . S
C2376 C2377 1.370 . S
C2376 C2378 1.363 . S
C2376 H2392 0.931 . S
C2377 C2376 1.370 . S
C2377 C2381 1.408 . S
C2378 C2376 1.363 . S
C2378 C2379 1.370 . S
C2378 C2382 1.524 . S
C2379 C2371 1.503 . S
C2379 C2378 1.370 . S
C2379 C2380 1.403 . S
C2380 C2379 1.403 . S
C2380 C2381 1.404 . S
C2380 C2383 1.539 . S
C2381 C2377 1.408 . S
C2381 C2380 1.404 . S
C2381 H2393 0.930 . S
C2382 C2378 1.524 . S
C2382 H2394 0.956 . S
C2382 H2395 0.961 . S
C2382 H2396 0.961 . S
C2383 C2380 1.539 . S
C2383 H2397 0.958 . S
C2383 H2398 0.961 . S
C2383 H2399 0.960 . S
H2384 C2368 0.931 . S
H2385 C2373 0.929 . S
H2386 C2374 0.960 . S
H2387 C2374 0.962 . S
H2388 C2374 0.960 . S
H2389 C2375 0.961 . S
H2390 C2375 0.961 . S
H2391 C2375 0.961 . S
H2392 C2376 0.931 . S
H2393 C2381 0.930 . S
H2394 C2382 0.956 . S
H2395 C2382 0.961 . S
H2396 C2382 0.961 . S
H2397 C2383 0.958 . S
H2398 C2383 0.961 . S
H2399 C2383 0.960 . S
C2400 C2401 1.391 . S
C2400 C2402 1.394 . S
C2400 H2416 0.931 . S
C2401 C2400 1.391 . S
C2401 C2405 1.376 . S
C2402 C2400 1.394 . S
C2402 C2403 1.369 . S
C2402 C2406 1.531 . S
C2403 C2402 1.369 . S
C2403 C2404 1.410 . S
C2403 C2411 1.503 . S
C2404 C2403 1.410 . S
C2404 C2405 1.392 . S
C2404 C2407 1.511 . S
C2405 C2401 1.376 . S
C2405 C2404 1.392 . S
C2405 H2417 0.929 . S
C2406 C2402 1.531 . S
C2406 H2418 0.960 . S
C2406 H2419 0.962 . S
C2406 H2420 0.960 . S
C2407 C2404 1.511 . S
C2407 H2421 0.961 . S
C2407 H2422 0.961 . S
C2407 H2423 0.961 . S
C2408 C2409 1.370 . S
C2408 C2410 1.363 . S
C2408 H2424 0.931 . S
C2409 C2408 1.370 . S
C2409 C2413 1.408 . S
C2410 C2408 1.363 . S
C2410 C2411 1.370 . S
C2410 C2414 1.524 . S
C2411 C2403 1.503 . S
C2411 C2410 1.370 . S
C2411 C2412 1.403 . S
C2412 C2411 1.403 . S
C2412 C2413 1.404 . S
C2412 C2415 1.539 . S
C2413 C2409 1.408 . S
C2413 C2412 1.404 . S
C2413 H2425 0.930 . S
C2414 C2410 1.524 . S
C2414 H2426 0.956 . S
C2414 H2427 0.961 . S
C2414 H2428 0.961 . S
C2415 C2412 1.539 . S
C2415 H2429 0.958 . S
C2415 H2430 0.961 . S
C2415 H2431 0.960 . S
H2416 C2400 0.931 . S
H2417 C2405 0.929 . S
H2418 C2406 0.960 . S
H2419 C2406 0.962 . S
H2420 C2406 0.960 . S
H2421 C2407 0.961 . S
H2422 C2407 0.961 . S
H2423 C2407 0.961 . S
H2424 C2408 0.931 . S
H2425 C2413 0.930 . S
H2426 C2414 0.956 . S
H2427 C2414 0.961 . S
H2428 C2414 0.961 . S
H2429 C2415 0.958 . S
H2430 C2415 0.961 . S
H2431 C2415 0.960 . S
C2432 C2433 1.391 . S
C2432 C2434 1.394 . S
C2432 H2448 0.931 . S
C2433 C2432 1.391 . S
C2433 C2437 1.376 . S
C2434 C2432 1.394 . S
C2434 C2435 1.369 . S
C2434 C2438 1.531 . S
C2435 C2434 1.369 . S
C2435 C2436 1.410 . S
C2435 C2443 1.503 . S
C2436 C2435 1.410 . S
C2436 C2437 1.392 . S
C2436 C2439 1.511 . S
C2437 C2433 1.376 . S
C2437 C2436 1.392 . S
C2437 H2449 0.929 . S
C2438 C2434 1.531 . S
C2438 H2450 0.960 . S
C2438 H2451 0.962 . S
C2438 H2452 0.960 . S
C2439 C2436 1.511 . S
C2439 H2453 0.961 . S
C2439 H2454 0.961 . S
C2439 H2455 0.961 . S
C2440 C2441 1.370 . S
C2440 C2442 1.363 . S
C2440 H2456 0.931 . S
C2441 C2440 1.370 . S
C2441 C2445 1.408 . S
C2442 C2440 1.363 . S
C2442 C2443 1.370 . S
C2442 C2446 1.524 . S
C2443 C2435 1.503 . S
C2443 C2442 1.370 . S
C2443 C2444 1.403 . S
C2444 C2443 1.403 . S
C2444 C2445 1.404 . S
C2444 C2447 1.539 . S
C2445 C2441 1.408 . S
C2445 C2444 1.404 . S
C2445 H2457 0.930 . S
C2446 C2442 1.524 . S
C2446 H2458 0.956 . S
C2446 H2459 0.961 . S
C2446 H2460 0.961 . S
C2447 C2444 1.539 . S
C2447 H2461 0.958 . S
C2447 H2462 0.961 . S
C2447 H2463 0.960 . S
H2448 C2432 0.931 . S
H2449 C2437 0.929 . S
H2450 C2438 0.960 . S
H2451 C2438 0.962 . S
H2452 C2438 0.960 . S
H2453 C2439 0.961 . S
H2454 C2439 0.961 . S
H2455 C2439 0.961 . S
H2456 C2440 0.931 . S
H2457 C2445 0.930 . S
H2458 C2446 0.956 . S
H2459 C2446 0.961 . S
H2460 C2446 0.961 . S
H2461 C2447 0.958 . S
H2462 C2447 0.961 . S
H2463 C2447 0.960 . S
C417 C382 1.340 . S
C425 C5 1.353 . S
C449 C18 1.372 . S
C457 C395 1.366 . S
C481 C408 1.378 . S
C489 C31 1.365 . S
C513 C369 1.363 . S
C521 C44 1.358 . S
C545 C57 1.320 . S
C553 C356 1.343 . S
C577 C317 1.355 . S
C585 C70 1.354 . S
C609 C83 1.375 . S
C617 C330 1.366 . S
C641 C343 1.370 . S
C649 C96 1.361 . S
C673 C109 1.366 . S
C681 C278 1.359 . S
C705 C122 1.354 . S
C713 C291 1.358 . S
C737 C304 1.384 . S
C745 C135 1.369 . S
C769 C148 1.361 . S
C777 C265 1.357 . S
C801 C252 1.324 . S
C809 C161 1.343 . S
C833 C213 1.377 . S
C841 C174 1.367 . S
C865 C187 1.342 . S
C873 C226 1.354 . S
C897 C200 1.327 . S
C905 C239 1.347 . S
C929 C10 1.394 . S
C937 C140 1.391 . S
C961 C153 1.380 . S
C969 C23 1.385 . S
C993 C114 1.369 . S
C1001 C36 1.382 . S
C1025 C127 1.389 . S
C1033 C49 1.391 . S
C1057 C62 1.382 . S
C1065 C192 1.388 . S
C1089 C205 1.390 . S
C1097 C75 1.389 . S
C1121 C166 1.400 . S
C1129 C88 1.394 . S
C1153 C179 1.386 . S
C1161 C101 1.390 . S
C1185 C218 1.394 . S
C1193 C348 1.391 . S
C1217 C361 1.383 . S
C1225 C231 1.386 . S
C1249 C322 1.368 . S
C1257 C244 1.381 . S
C1281 C257 1.373 . S
C1289 C335 1.382 . S
C1313 C270 1.377 . S
C1321 C400 1.386 . S
C1345 C413 1.384 . S
C1353 C283 1.387 . S
C1377 C374 1.400 . S
C1385 C296 1.394 . S
C1409 C309 1.397 . S
C1417 C387 1.394 . S
C1441 C0 1.229 . S
C1449 C52 1.197 . S
C1473 C13 1.184 . S
C1481 C65 1.216 . S
C1505 C78 1.222 . S
C1513 C26 1.200 . S
C1537 C39 1.232 . S
C1545 C91 1.197 . S
C1569 C104 1.185 . S
C1577 C156 1.212 . S
C1601 C169 1.226 . S
C1609 C117 1.197 . S
C1633 C182 1.180 . S
C1641 C130 1.215 . S
C1665 C143 1.182 . S
C1673 C195 1.220 . S
C1697 C208 1.231 . S
C1705 C260 1.197 . S
C1729 C273 1.220 . S
C1737 C221 1.204 . S
C1761 C234 1.232 . S
C1769 C286 1.198 . S
C1793 C299 1.192 . S
C1801 C247 1.212 . S
C1825 C364 1.223 . S
C1833 C312 1.198 . S
C1857 C325 1.186 . S
C1865 C377 1.219 . S
C1889 C338 1.231 . S
C1897 C390 1.197 . S
C1921 C351 1.208 . S
C1929 C403 1.213 . S
C1953 C8 1.361 . S
C1961 C73 1.384 . S
C1985 C21 1.367 . S
C1993 C86 1.387 . S
C2017 C99 1.424 . S
C2025 C34 1.410 . S
C2049 C60 1.420 . S
C2057 C47 1.409 . S
C2081 C177 1.365 . S
C2089 C112 1.389 . S
C2113 C190 1.424 . S
C2121 C125 1.412 . S
C2145 C203 1.359 . S
C2153 C138 1.385 . S
C2177 C151 1.361 . S
C2185 C164 1.383 . S
C2209 C216 1.390 . S
C2217 C281 1.396 . S
C2241 C294 1.366 . S
C2249 C229 1.386 . S
C2273 C307 1.388 . S
C2281 C242 1.395 . S
C2305 C255 1.365 . S
C2313 C268 1.386 . S
C2337 C385 1.380 . S
C2345 C320 1.397 . S
C2369 C333 1.391 . S
C2377 C398 1.392 . S
C2401 C346 1.366 . S
C2409 C411 1.384 . S
C2433 C372 1.428 . S
C2441 C359 1.413 . S
