# Generated by pormake.
# Topology umu, (4)-cn, num edge types: 1
# Building blocks:
#     Node 0, Type 0, BuildingBlock: QUQFOY_clean_sbu_3, # of connection points: 4
#     Node 1, Type 0, BuildingBlock: QUQFOY_clean_sbu_3, # of connection points: 4
#     Node 2, Type 0, BuildingBlock: QUQFOY_clean_sbu_3, # of connection points: 4
#     Node 3, Type 0, BuildingBlock: QUQFOY_clean_sbu_3, # of connection points: 4
#     Node 4, Type 0, BuildingBlock: QUQFOY_clean_sbu_3, # of connection points: 4
#     Node 5, Type 0, BuildingBlock: QUQFOY_clean_sbu_3, # of connection points: 4
#     Node 6, Type 0, BuildingBlock: QUQFOY_clean_sbu_3, # of connection points: 4
#     Node 7, Type 0, BuildingBlock: QUQFOY_clean_sbu_3, # of connection points: 4
#     Node 8, Type 0, BuildingBlock: QUQFOY_clean_sbu_3, # of connection points: 4
#     Node 9, Type 0, BuildingBlock: QUQFOY_clean_sbu_3, # of connection points: 4
#     Node 10, Type 0, BuildingBlock: QUQFOY_clean_sbu_3, # of connection points: 4
#     Node 11, Type 0, BuildingBlock: QUQFOY_clean_sbu_3, # of connection points: 4
#     Node 12, Type 0, BuildingBlock: QUQFOY_clean_sbu_3, # of connection points: 4
#     Node 13, Type 0, BuildingBlock: QUQFOY_clean_sbu_3, # of connection points: 4
#     Node 14, Type 0, BuildingBlock: QUQFOY_clean_sbu_3, # of connection points: 4
#     Node 15, Type 0, BuildingBlock: QUQFOY_clean_sbu_3, # of connection points: 4
#     Node 16, Type 0, BuildingBlock: QUQFOY_clean_sbu_3, # of connection points: 4
#     Node 17, Type 0, BuildingBlock: QUQFOY_clean_sbu_3, # of connection points: 4
#     Node 18, Type 0, BuildingBlock: QUQFOY_clean_sbu_3, # of connection points: 4
#     Node 19, Type 0, BuildingBlock: QUQFOY_clean_sbu_3, # of connection points: 4
#     Node 20, Type 0, BuildingBlock: QUQFOY_clean_sbu_3, # of connection points: 4
#     Node 21, Type 0, BuildingBlock: QUQFOY_clean_sbu_3, # of connection points: 4
#     Node 22, Type 0, BuildingBlock: QUQFOY_clean_sbu_3, # of connection points: 4
#     Node 23, Type 0, BuildingBlock: QUQFOY_clean_sbu_3, # of connection points: 4
#     Node 24, Type 0, BuildingBlock: QUQFOY_clean_sbu_3, # of connection points: 4
#     Node 25, Type 0, BuildingBlock: QUQFOY_clean_sbu_3, # of connection points: 4
#     Node 26, Type 0, BuildingBlock: QUQFOY_clean_sbu_3, # of connection points: 4
#     Node 27, Type 0, BuildingBlock: QUQFOY_clean_sbu_3, # of connection points: 4
#     Node 28, Type 0, BuildingBlock: QUQFOY_clean_sbu_3, # of connection points: 4
#     Node 29, Type 0, BuildingBlock: QUQFOY_clean_sbu_3, # of connection points: 4
#     Node 30, Type 0, BuildingBlock: QUQFOY_clean_sbu_3, # of connection points: 4
#     Node 31, Type 0, BuildingBlock: QUQFOY_clean_sbu_3, # of connection points: 4
#     Edge 32, Type (0, 0), BuildingBlock: KIFKEQ_clean_linker_1, # of connection points: 2
#     Edge 33, Type (0, 0), BuildingBlock: KIFKEQ_clean_linker_1, # of connection points: 2
#     Edge 34, Type (0, 0), BuildingBlock: KIFKEQ_clean_linker_1, # of connection points: 2
#     Edge 35, Type (0, 0), BuildingBlock: KIFKEQ_clean_linker_1, # of connection points: 2
#     Edge 36, Type (0, 0), BuildingBlock: KIFKEQ_clean_linker_1, # of connection points: 2
#     Edge 37, Type (0, 0), BuildingBlock: KIFKEQ_clean_linker_1, # of connection points: 2
#     Edge 38, Type (0, 0), BuildingBlock: KIFKEQ_clean_linker_1, # of connection points: 2
#     Edge 39, Type (0, 0), BuildingBlock: KIFKEQ_clean_linker_1, # of connection points: 2
#     Edge 40, Type (0, 0), BuildingBlock: KIFKEQ_clean_linker_1, # of connection points: 2
#     Edge 41, Type (0, 0), BuildingBlock: KIFKEQ_clean_linker_1, # of connection points: 2
#     Edge 42, Type (0, 0), BuildingBlock: KIFKEQ_clean_linker_1, # of connection points: 2
#     Edge 43, Type (0, 0), BuildingBlock: KIFKEQ_clean_linker_1, # of connection points: 2
#     Edge 44, Type (0, 0), BuildingBlock: KIFKEQ_clean_linker_1, # of connection points: 2
#     Edge 45, Type (0, 0), BuildingBlock: KIFKEQ_clean_linker_1, # of connection points: 2
#     Edge 46, Type (0, 0), BuildingBlock: KIFKEQ_clean_linker_1, # of connection points: 2
#     Edge 47, Type (0, 0), BuildingBlock: KIFKEQ_clean_linker_1, # of connection points: 2
#     Edge 48, Type (0, 0), BuildingBlock: KIFKEQ_clean_linker_1, # of connection points: 2
#     Edge 49, Type (0, 0), BuildingBlock: KIFKEQ_clean_linker_1, # of connection points: 2
#     Edge 50, Type (0, 0), BuildingBlock: KIFKEQ_clean_linker_1, # of connection points: 2
#     Edge 51, Type (0, 0), BuildingBlock: KIFKEQ_clean_linker_1, # of connection points: 2
#     Edge 52, Type (0, 0), BuildingBlock: KIFKEQ_clean_linker_1, # of connection points: 2
#     Edge 53, Type (0, 0), BuildingBlock: KIFKEQ_clean_linker_1, # of connection points: 2
#     Edge 54, Type (0, 0), BuildingBlock: KIFKEQ_clean_linker_1, # of connection points: 2
#     Edge 55, Type (0, 0), BuildingBlock: KIFKEQ_clean_linker_1, # of connection points: 2
#     Edge 56, Type (0, 0), BuildingBlock: KIFKEQ_clean_linker_1, # of connection points: 2
#     Edge 57, Type (0, 0), BuildingBlock: KIFKEQ_clean_linker_1, # of connection points: 2
#     Edge 58, Type (0, 0), BuildingBlock: KIFKEQ_clean_linker_1, # of connection points: 2
#     Edge 59, Type (0, 0), BuildingBlock: KIFKEQ_clean_linker_1, # of connection points: 2
#     Edge 60, Type (0, 0), BuildingBlock: KIFKEQ_clean_linker_1, # of connection points: 2
#     Edge 61, Type (0, 0), BuildingBlock: KIFKEQ_clean_linker_1, # of connection points: 2
#     Edge 62, Type (0, 0), BuildingBlock: KIFKEQ_clean_linker_1, # of connection points: 2
#     Edge 63, Type (0, 0), BuildingBlock: KIFKEQ_clean_linker_1, # of connection points: 2
#     Edge 64, Type (0, 0), BuildingBlock: KIFKEQ_clean_linker_1, # of connection points: 2
#     Edge 65, Type (0, 0), BuildingBlock: KIFKEQ_clean_linker_1, # of connection points: 2
#     Edge 66, Type (0, 0), BuildingBlock: KIFKEQ_clean_linker_1, # of connection points: 2
#     Edge 67, Type (0, 0), BuildingBlock: KIFKEQ_clean_linker_1, # of connection points: 2
#     Edge 68, Type (0, 0), BuildingBlock: KIFKEQ_clean_linker_1, # of connection points: 2
#     Edge 69, Type (0, 0), BuildingBlock: KIFKEQ_clean_linker_1, # of connection points: 2
#     Edge 70, Type (0, 0), BuildingBlock: KIFKEQ_clean_linker_1, # of connection points: 2
#     Edge 71, Type (0, 0), BuildingBlock: KIFKEQ_clean_linker_1, # of connection points: 2
#     Edge 72, Type (0, 0), BuildingBlock: KIFKEQ_clean_linker_1, # of connection points: 2
#     Edge 73, Type (0, 0), BuildingBlock: KIFKEQ_clean_linker_1, # of connection points: 2
#     Edge 74, Type (0, 0), BuildingBlock: KIFKEQ_clean_linker_1, # of connection points: 2
#     Edge 75, Type (0, 0), BuildingBlock: KIFKEQ_clean_linker_1, # of connection points: 2
#     Edge 76, Type (0, 0), BuildingBlock: KIFKEQ_clean_linker_1, # of connection points: 2
#     Edge 77, Type (0, 0), BuildingBlock: KIFKEQ_clean_linker_1, # of connection points: 2
#     Edge 78, Type (0, 0), BuildingBlock: KIFKEQ_clean_linker_1, # of connection points: 2
#     Edge 79, Type (0, 0), BuildingBlock: KIFKEQ_clean_linker_1, # of connection points: 2
#     Edge 80, Type (0, 0), BuildingBlock: KIFKEQ_clean_linker_1, # of connection points: 2
#     Edge 81, Type (0, 0), BuildingBlock: KIFKEQ_clean_linker_1, # of connection points: 2
#     Edge 82, Type (0, 0), BuildingBlock: KIFKEQ_clean_linker_1, # of connection points: 2
#     Edge 83, Type (0, 0), BuildingBlock: KIFKEQ_clean_linker_1, # of connection points: 2
#     Edge 84, Type (0, 0), BuildingBlock: KIFKEQ_clean_linker_1, # of connection points: 2
#     Edge 85, Type (0, 0), BuildingBlock: KIFKEQ_clean_linker_1, # of connection points: 2
#     Edge 86, Type (0, 0), BuildingBlock: KIFKEQ_clean_linker_1, # of connection points: 2
#     Edge 87, Type (0, 0), BuildingBlock: KIFKEQ_clean_linker_1, # of connection points: 2
#     Edge 88, Type (0, 0), BuildingBlock: KIFKEQ_clean_linker_1, # of connection points: 2
#     Edge 89, Type (0, 0), BuildingBlock: KIFKEQ_clean_linker_1, # of connection points: 2
#     Edge 90, Type (0, 0), BuildingBlock: KIFKEQ_clean_linker_1, # of connection points: 2
#     Edge 91, Type (0, 0), BuildingBlock: KIFKEQ_clean_linker_1, # of connection points: 2
#     Edge 92, Type (0, 0), BuildingBlock: KIFKEQ_clean_linker_1, # of connection points: 2
#     Edge 93, Type (0, 0), BuildingBlock: KIFKEQ_clean_linker_1, # of connection points: 2
#     Edge 94, Type (0, 0), BuildingBlock: KIFKEQ_clean_linker_1, # of connection points: 2
#     Edge 95, Type (0, 0), BuildingBlock: KIFKEQ_clean_linker_1, # of connection points: 2
# Relax obj value: 0.122
# Max RMSD: 0.093
# Mean RMSD: 0.093
data_MOF--net-umu--node1-QUQFOY_clean_sbu_3--edge1-KIFKEQ_clean_linker_1
_symmetry_space_group_name_H-M    P1
_symmetry_Int_Tables_number       1
_symmetry_cell_setting            triclinic
loop_
_symmetry_equiv_pos_as_xyz
'x, y, z'
_cell_length_a     86.649269
_cell_length_b     86.694426
_cell_length_c     27.119506
_cell_angle_alpha  89.978044
_cell_angle_beta   90.109722
_cell_angle_gamma 90.001452
loop_
_atom_site_label
_atom_site_type_symbol
_atom_site_fract_x
_atom_site_fract_y
_atom_site_fract_z
_atom_type_partial_charge
C0 C 0.22858 0.14651 0.14216 0.0
O1 O 0.23855 0.15184 0.11256 0.0
Cd2 Cd 0.23336 0.16533 0.03994 0.0
O3 O 0.21413 0.14771 0.1329 0.0
Cd4 Cd 0.19797 0.15789 0.06222 0.0
C5 C 0.20918 0.19398 0.08603 0.0
O6 O 0.21543 0.14897 0.00059 0.0
O7 O 0.20018 0.1668 0.97557 0.0
O8 O 0.18225 0.13469 0.0651 0.0
C9 C 0.21014 0.15666 0.96496 0.0
O10 O 0.22201 0.18946 0.06834 0.0
C11 C 0.16974 0.14121 0.05257 0.0
O12 O 0.19783 0.18475 0.09038 0.0
O13 O 0.16994 0.15583 0.04987 0.0
C14 C 0.10112 0.98456 0.39851 0.0
O15 O 0.09464 0.99565 0.37608 0.0
Cd16 Cd 0.07635 0.99321 0.31234 0.0
O17 O 0.09908 0.97059 0.38481 0.0
Cd18 Cd 0.08661 0.95717 0.3124 0.0
C19 C 0.05159 0.96488 0.35854 0.0
O20 O 0.0897 0.97807 0.25484 0.0
O21 O 0.07398 0.96029 0.23152 0.0
O22 O 0.111 0.94449 0.29597 0.0
C23 C 0.08107 0.97267 0.22152 0.0
O24 O 0.05474 0.97877 0.34687 0.0
C25 C 0.10532 0.93139 0.28568 0.0
O26 O 0.06127 0.95404 0.3514 0.0
O27 O 0.09089 0.92977 0.29222 0.0
C28 C 0.2648 0.85766 0.62576 0.0
O29 O 0.25516 0.85263 0.59442 0.0
Cd30 Cd 0.26118 0.84073 0.51937 0.0
O31 O 0.27933 0.85674 0.6179 0.0
Cd32 Cd 0.29599 0.84693 0.5483 0.0
C33 C 0.28364 0.81076 0.5648 0.0
O34 O 0.27984 0.85738 0.48507 0.0
O35 O 0.29429 0.83888 0.46056 0.0
O36 O 0.31281 0.86929 0.55489 0.0
C37 C 0.28517 0.84976 0.44944 0.0
O38 O 0.27151 0.81569 0.54333 0.0
C39 C 0.32513 0.86221 0.54367 0.0
O40 O 0.29469 0.81992 0.57508 0.0
O41 O 0.32423 0.84763 0.54027 0.0
C42 C 0.39228 0.01413 0.8716 0.0
O43 O 0.39726 0.00447 0.84034 0.0
Cd44 Cd 0.41158 0.01102 0.76978 0.0
O45 O 0.39385 0.02864 0.86449 0.0
Cd46 Cd 0.40357 0.04566 0.79576 0.0
C47 C 0.43955 0.03508 0.82179 0.0
O48 O 0.39592 0.02918 0.72877 0.0
O49 O 0.41428 0.04497 0.71166 0.0
O50 O 0.37989 0.06057 0.79655 0.0
C51 C 0.40438 0.03533 0.69639 0.0
O52 O 0.43549 0.02256 0.80083 0.0
C53 C 0.38624 0.07348 0.78787 0.0
O54 O 0.42987 0.04595 0.82828 0.0
O55 O 0.4009 0.07377 0.78842 0.0
C56 C 0.22991 0.86095 0.96776 0.0
O57 O 0.24072 0.856 -0.00491 0.0
Cd58 Cd 0.23837 0.84304 0.07007 0.0
O59 O 0.21579 0.85969 0.98098 0.0
Cd60 Cd 0.20227 0.85016 0.05799 0.0
C61 C 0.21312 0.8138 0.03486 0.0
O62 O 0.22166 0.85954 0.11337 0.0
O63 O 0.20724 0.84197 0.14427 0.0
O64 O 0.18597 0.87302 0.0605 0.0
C65 C 0.21763 0.85203 0.15095 0.0
O66 O 0.22641 0.81851 0.04828 0.0
C67 C 0.17392 0.86607 0.07506 0.0
O68 O 0.20168 0.82302 0.03272 0.0
O69 O 0.17457 0.85145 0.07674 0.0
C70 C 0.39729 0.97587 0.20428 0.0
O71 O 0.40219 0.98805 0.22485 0.0
Cd72 Cd 0.41798 0.98899 0.29475 0.0
O73 O 0.39996 0.96256 0.22276 0.0
Cd74 Cd 0.41125 0.95329 0.30374 0.0
C75 C 0.44695 0.9624 0.26821 0.0
O76 O 0.40293 0.97513 0.35172 0.0
O77 O 0.42104 0.96185 0.38517 0.0
O78 O 0.38803 0.93829 0.31771 0.0
C79 C 0.41109 0.97247 0.38927 0.0
O80 O 0.44223 0.97618 0.27433 0.0
C81 C 0.3947 0.92656 0.33585 0.0
O82 O 0.43792 0.95098 0.27469 0.0
O83 O 0.40936 0.92657 0.33497 0.0
C84 C 0.26228 0.1472 0.4824 0.0
O85 O 0.25171 0.15294 0.50891 0.0
Cd86 Cd 0.25498 0.16703 0.5813 0.0
O87 O 0.27648 0.14837 0.49498 0.0
Cd88 Cd 0.29068 0.15901 0.56927 0.0
C89 C 0.28059 0.19512 0.54027 0.0
O90 O 0.27145 0.15045 0.62576 0.0
O91 O 0.28618 0.16807 0.65506 0.0
O92 O 0.30635 0.13579 0.57258 0.0
C93 C 0.27583 0.15805 0.66276 0.0
O94 O 0.26726 0.1909 0.55468 0.0
C95 C 0.31858 0.14241 0.58728 0.0
O96 O 0.29186 0.18568 0.53968 0.0
O97 O 0.31835 0.15705 0.58857 0.0
C98 C 0.10099 0.02029 0.72739 0.0
O99 O 0.09462 0.00896 0.74881 0.0
Cd100 Cd 0.07616 0.0107 0.81202 0.0
O101 O 0.09869 0.03413 0.74192 0.0
Cd102 Cd 0.08578 0.04665 0.81502 0.0
C103 C 0.05094 0.03884 0.76748 0.0
O104 O 0.08917 0.02545 0.87161 0.0
O105 O 0.07289 0.0427 0.89485 0.0
O106 O 0.10968 0.05992 0.83428 0.0
C107 C 0.0803 0.0305 0.90475 0.0
O108 O 0.05424 0.02491 0.77819 0.0
C109 C 0.10355 0.07282 0.8444 0.0
O110 O 0.06051 0.04972 0.77556 0.0
O111 O 0.08914 0.07405 0.83653 0.0
C112 C 0.76282 0.86019 0.97357 0.0
O113 O 0.75193 0.85261 -0.00678 0.0
Cd114 Cd 0.75471 0.83299 0.05276 0.0
O115 O 0.77673 0.85846 -0.01162 0.0
Cd116 Cd 0.79007 0.84418 0.05717 0.0
C117 C 0.78369 0.81047 0.00061 0.0
O118 O 0.76926 0.84419 0.11693 0.0
O119 O 0.78768 0.82806 0.13063 0.0
O120 O 0.80205 0.86799 0.08446 0.0
C121 C 0.77528 0.83425 0.14516 0.0
O122 O 0.76971 0.81275 0.01307 0.0
C123 C 0.81549 0.86246 0.09026 0.0
O124 O 0.79418 0.82033 0.01039 0.0
O125 O 0.81751 0.84856 0.07691 0.0
C126 C 0.88856 0.02174 0.72927 0.0
O127 O 0.8933 0.01049 0.75506 0.0
Cd128 Cd 0.90889 0.01283 0.82536 0.0
O129 O 0.89118 0.03567 0.74234 0.0
Cd130 Cd 0.90237 0.04859 0.81767 0.0
C131 C 0.93761 0.03786 0.78346 0.0
O132 O 0.89401 0.0293 0.87511 0.0
O133 O 0.91281 0.04319 0.90125 0.0
O134 O 0.87924 0.06428 0.82253 0.0
C135 C 0.90257 0.03318 0.91061 0.0
O136 O 0.93304 0.02465 0.79804 0.0
C137 C 0.8859 0.07638 0.83807 0.0
O138 O 0.92848 0.04937 0.78366 0.0
O139 O 0.90055 0.0761 0.83957 0.0
C140 C 0.72964 0.14459 0.48048 0.0
O141 O 0.74005 0.15152 0.50488 0.0
Cd142 Cd 0.73699 0.16808 0.57246 0.0
O143 O 0.71543 0.14554 0.49297 0.0
Cd144 Cd 0.70047 0.15737 0.56358 0.0
C145 C 0.70924 0.19321 0.52464 0.0
O146 O 0.72065 0.15335 0.62244 0.0
O147 O 0.70266 0.16844 0.64743 0.0
O148 O 0.68665 0.13329 0.5754 0.0
C149 C 0.71507 0.16132 0.65693 0.0
O150 O 0.7229 0.19002 0.53882 0.0
C151 C 0.6736 0.1394 0.58372 0.0
O152 O 0.69835 0.18337 0.52791 0.0
O153 O 0.67266 0.15392 0.57797 0.0
C154 C 0.60529 0.99323 0.2689 0.0
O155 O 0.59892 0.00169 0.30113 0.0
Cd156 Cd 0.58629 0.99202 0.37137 0.0
O157 O 0.60561 0.97856 0.27374 0.0
Cd158 Cd 0.59718 0.95896 0.3365 0.0
C159 C 0.56019 0.9672 0.31416 0.0
O160 O 0.60393 0.9743 0.40643 0.0
O161 O 0.5874 0.95648 0.42188 0.0
O162 O 0.62239 0.94721 0.33051 0.0
C163 C 0.59659 0.96665 0.43822 0.0
O164 O 0.5634 0.9794 0.33825 0.0
C165 C 0.61786 0.93337 0.3349 0.0
O166 O 0.57064 0.95728 0.30464 0.0
O167 O 0.60335 0.93117 0.33477 0.0
C168 C 0.76117 0.14983 0.14563 0.0
O169 O 0.75107 0.15772 0.12291 0.0
Cd170 Cd 0.7544 0.17434 0.05564 0.0
O171 O 0.77533 0.15001 0.13216 0.0
Cd172 Cd 0.79051 0.16197 0.06216 0.0
C173 C 0.78332 0.19815 0.10221 0.0
O174 O 0.76971 0.15854 0.00554 0.0
O175 O 0.78829 0.17218 0.97678 0.0
O176 O 0.8039 0.13757 0.051 0.0
C177 C 0.77541 0.16568 0.96947 0.0
O178 O 0.76946 0.19563 0.0888 0.0
C179 C 0.817 0.14345 0.0419 0.0
O180 O 0.79372 0.18783 0.09802 0.0
O181 O 0.81817 0.15798 0.04674 0.0
C182 C 0.6022 0.02496 0.929 0.0
O183 O 0.59681 0.01305 0.90802 0.0
Cd184 Cd 0.58222 0.01192 0.83576 0.0
O185 O 0.60036 0.03836 0.9101 0.0
Cd186 Cd 0.58924 0.04817 0.82962 0.0
C187 C 0.55328 0.03844 0.86232 0.0
O188 O 0.59786 0.02642 0.78237 0.0
O189 O 0.58029 0.03987 0.74683 0.0
O190 O 0.61227 0.06375 0.81863 0.0
C191 C 0.59009 0.02907 0.744 0.0
O192 O 0.55798 0.02472 0.85499 0.0
C193 C 0.60549 0.07531 0.79979 0.0
O194 O 0.56238 0.0499 0.85768 0.0
O195 O 0.59084 0.0749 0.79892 0.0
C196 C 0.73938 0.85514 0.64126 0.0
O197 O 0.74911 0.84513 0.62732 0.0
Cd198 Cd 0.74465 0.82478 0.57167 0.0
O199 O 0.72577 0.85538 0.62307 0.0
Cd200 Cd 0.7119 0.84102 0.5554 0.0
C201 C 0.7117 0.80763 0.61858 0.0
O202 O 0.73391 0.83703 0.5021 0.0
O203 O 0.71353 0.82387 0.48366 0.0
O204 O 0.70434 0.86429 0.51241 0.0
C205 C 0.72706 0.82812 0.47229 0.0
O206 O 0.72618 0.80765 0.61073 0.0
C207 C 0.68994 0.86173 0.5128 0.0
O208 O 0.70314 0.81858 0.60327 0.0
O209 O 0.6854 0.84993 0.5365 0.0
C210 C 0.88957 0.9838 0.39581 0.0
O211 O 0.89453 0.99448 0.36809 0.0
Cd212 Cd 0.90968 0.99038 0.29781 0.0
O213 O 0.89182 0.96962 0.38507 0.0
Cd214 Cd 0.90269 0.95505 0.3125 0.0
C215 C 0.93824 0.9658 0.34355 0.0
O216 O 0.89421 0.97329 0.25174 0.0
O217 O 0.91282 0.95883 0.22774 0.0
O218 O 0.87941 0.93943 0.31239 0.0
C219 C 0.90255 0.96865 0.21674 0.0
O220 O 0.9338 0.97878 0.32656 0.0
C221 C 0.88585 0.92712 0.29774 0.0
O222 O 0.92893 0.95445 0.34591 0.0
O223 O 0.90048 0.92731 0.29468 0.0
C224 C 0.72304 0.64699 0.65613 0.0
O225 O 0.73462 0.65261 0.63399 0.0
Cd226 Cd 0.73314 0.67072 0.57 0.0
O227 O 0.7093 0.64998 0.64179 0.0
Cd228 Cd 0.69758 0.66327 0.5678 0.0
C229 C 0.7065 0.69736 0.61571 0.0
O230 O 0.71811 0.65761 0.51113 0.0
O231 O 0.70381 0.67671 0.48955 0.0
O232 O 0.68299 0.64009 0.54972 0.0
C233 C 0.71432 0.66719 0.47829 0.0
O234 O 0.72014 0.69347 0.60327 0.0
C235 C 0.67074 0.64687 0.53603 0.0
O236 O 0.69521 0.68817 0.60923 0.0
O237 O 0.67034 0.66142 0.54163 0.0
C238 C 0.5992 0.48914 0.86456 0.0
O239 O 0.5946 0.49866 0.83222 0.0
Cd240 Cd 0.58517 0.49261 0.75336 0.0
O241 O 0.59913 0.47462 0.85604 0.0
Cd242 Cd 0.59163 0.45799 0.78366 0.0
C243 C 0.55475 0.46921 0.78873 0.0
O244 O 0.60314 0.47451 0.72316 0.0
O245 O 0.58567 0.45951 0.69445 0.0
O246 O 0.61405 0.44147 0.79439 0.0
C247 C 0.59644 0.46902 0.68582 0.0
O248 O 0.55983 0.4814 0.76814 0.0
C249 C 0.60728 0.42909 0.78195 0.0
O250 O 0.56399 0.45866 0.8029 0.0
O251 O 0.59275 0.42983 0.77612 0.0
C252 C 0.76911 0.3601 0.14928 0.0
O253 O 0.75814 0.3554 0.1221 0.0
Cd254 Cd 0.76028 0.34041 0.05014 0.0
O255 O 0.78322 0.35781 0.13744 0.0
Cd256 Cd 0.79745 0.34721 0.06385 0.0
C257 C 0.78539 0.31156 0.09253 0.0
O258 O 0.77821 0.35477 0.00526 0.0
O259 O 0.79454 0.3383 0.97772 0.0
O260 O 0.81307 0.37036 0.06017 0.0
C261 C 0.78311 0.34701 0.96923 0.0
O262 O 0.77233 0.31638 0.07717 0.0
C263 C 0.82551 0.36361 0.04825 0.0
O264 O 0.79702 0.32057 0.09439 0.0
O265 O 0.82538 0.34895 0.049 0.0
C266 C 0.8898 0.52142 0.37712 0.0
O267 O 0.89425 0.51138 0.3462 0.0
Cd268 Cd 0.90645 0.51584 0.27016 0.0
O269 O 0.89118 0.53587 0.36831 0.0
Cd270 Cd 0.89984 0.5524 0.29703 0.0
C271 C 0.93639 0.53985 0.31015 0.0
O272 O 0.89005 0.53473 0.23764 0.0
O273 O 0.90521 0.5517 0.2071 0.0
O274 O 0.8771 0.56846 0.30642 0.0
C275 C 0.89617 0.54046 0.19977 0.0
O276 O 0.9313 0.52728 0.29188 0.0
C277 C 0.8837 0.58099 0.29441 0.0
O278 O 0.92731 0.55108 0.31906 0.0
O279 O 0.89826 0.58053 0.28932 0.0
C280 C 0.73118 0.35538 0.48259 0.0
O281 O 0.74219 0.3496 0.50737 0.0
Cd282 Cd 0.74035 0.3341 0.57824 0.0
O283 O 0.71711 0.3537 0.49591 0.0
Cd284 Cd 0.70338 0.3426 0.56989 0.0
C285 C 0.71366 0.30652 0.53824 0.0
O286 O 0.72376 0.34951 0.6249 0.0
O287 O 0.70705 0.33425 0.6568 0.0
O288 O 0.68833 0.36612 0.57524 0.0
C289 C 0.71899 0.34247 0.66251 0.0
O290 O 0.72711 0.31065 0.55201 0.0
C291 C 0.67585 0.35965 0.5883 0.0
O292 O 0.70246 0.31606 0.53837 0.0
O293 O 0.67567 0.34499 0.58784 0.0
C294 C 0.89196 0.48304 0.71305 0.0
O295 O 0.89643 0.49482 0.73689 0.0
Cd296 Cd 0.91085 0.49552 0.81012 0.0
O297 O 0.89444 0.46936 0.72897 0.0
Cd298 Cd 0.90502 0.45793 0.80768 0.0
C299 C 0.94086 0.47032 0.78064 0.0
O300 O 0.89586 0.47873 0.85763 0.0
O301 O 0.91158 0.46352 0.89472 0.0
O302 O 0.88269 0.44115 0.8136 0.0
C303 C 0.90256 0.47497 0.89707 0.0
O304 O 0.9356 0.48373 0.78989 0.0
C305 C 0.89001 0.42947 0.8294 0.0
O306 O 0.93218 0.45846 0.78264 0.0
O307 O 0.90464 0.43045 0.83001 0.0
C308 C 0.75961 0.6493 0.9837 0.0
O309 O 0.74868 0.65568 0.00705 0.0
Cd310 Cd 0.75201 0.67346 0.07134 0.0
O311 O 0.77369 0.65154 -0.00387 0.0
Cd312 Cd 0.78723 0.6647 0.06717 0.0
C313 C 0.77861 0.6992 0.02093 0.0
O314 O 0.76746 0.65924 0.12652 0.0
O315 O 0.78268 0.67774 0.14723 0.0
O316 O 0.80177 0.64119 0.08119 0.0
C317 C 0.77221 0.6683 0.15958 0.0
O318 O 0.76511 0.69594 0.0363 0.0
C319 C 0.8143 0.64776 0.09328 0.0
O320 O 0.78955 0.68947 0.02488 0.0
O321 O 0.81476 0.66234 0.08866 0.0
C322 C 0.60007 0.52531 0.21012 0.0
O323 O 0.59622 0.51466 0.23969 0.0
Cd324 Cd 0.58576 0.51727 0.31851 0.0
O325 O 0.5989 0.53952 0.22253 0.0
Cd326 Cd 0.59101 0.55335 0.30073 0.0
C327 C 0.55457 0.54097 0.29042 0.0
O328 O 0.60273 0.53502 0.35554 0.0
O329 O 0.58512 0.54883 0.38883 0.0
O330 O 0.61309 0.57064 0.29757 0.0
C331 C 0.59586 0.53907 0.39433 0.0
O332 O 0.56019 0.5281 0.30429 0.0
C333 C 0.60589 0.58245 0.31292 0.0
O334 O 0.56324 0.55262 0.28325 0.0
O335 O 0.59135 0.5812 0.31699 0.0
C336 C 0.26715 0.35787 0.47846 0.0
O337 O 0.2563 0.35426 0.50757 0.0
Cd338 Cd 0.25915 0.34114 0.58268 0.0
O339 O 0.28125 0.35527 0.48985 0.0
Cd340 Cd 0.29508 0.34557 0.5657 0.0
C341 C 0.28197 0.31001 0.54628 0.0
O342 O 0.27742 0.35626 0.62468 0.0
O343 O 0.29071 0.33719 0.65172 0.0
O344 O 0.3122 0.36767 0.56561 0.0
C345 C 0.28146 0.34812 0.66099 0.0
O346 O 0.26938 0.31565 0.56246 0.0
C347 C 0.32409 0.36041 0.58012 0.0
O348 O 0.29376 0.31857 0.53989 0.0
O349 O 0.323 0.34581 0.58221 0.0
C350 C 0.39498 0.51958 0.24724 0.0
O351 O 0.39971 0.51014 0.27965 0.0
Cd352 Cd 0.409 0.51634 0.35855 0.0
O353 O 0.39488 0.5341 0.25561 0.0
Cd354 Cd 0.40227 0.55088 0.32777 0.0
C355 C 0.43926 0.53998 0.32341 0.0
O356 O 0.39086 0.53433 0.38839 0.0
O357 O 0.40819 0.54949 0.41702 0.0
O358 O 0.37968 0.56718 0.31701 0.0
C359 C 0.3975 0.53992 0.4257 0.0
O360 O 0.43424 0.52778 0.34407 0.0
C361 C 0.38631 0.57963 0.32963 0.0
O362 O 0.42997 0.55044 0.30886 0.0
O363 O 0.40085 0.57903 0.33536 0.0
C364 C 0.22965 0.65087 0.00347 0.0
O365 O 0.23939 0.65511 0.03568 0.0
Cd366 Cd 0.23324 0.66864 0.10811 0.0
O367 O 0.2152 0.65312 0.00989 0.0
Cd368 Cd 0.19845 0.66337 0.07838 0.0
C369 C 0.21152 0.69901 0.0602 0.0
O370 O 0.21386 0.65338 0.14482 0.0
O371 O 0.19935 0.67242 0.16479 0.0
O372 O 0.18194 0.64087 0.0722 0.0
C373 C 0.20816 0.66159 0.17858 0.0
O374 O 0.22353 0.69376 0.08164 0.0
C375 C 0.16947 0.64784 0.08243 0.0
O376 O 0.20018 0.69016 0.05036 0.0
O377 O 0.17014 0.66245 0.08484 0.0
C378 C 0.10313 0.48935 0.74565 0.0
O379 O 0.09911 0.49929 0.7774 0.0
Cd380 Cd 0.08615 0.49382 0.85138 0.0
O381 O 0.10111 0.47494 0.75354 0.0
Cd382 Cd 0.09167 0.45885 0.82487 0.0
C383 C 0.05579 0.4714 0.80711 0.0
O384 O 0.1017 0.47497 0.88948 0.0
O385 O 0.08272 0.46064 0.91108 0.0
O386 O 0.11407 0.4421 0.82157 0.0
C387 C 0.09347 0.4697 0.92388 0.0
O388 O 0.06092 0.48366 0.82725 0.0
C389 C 0.10686 0.42978 0.83197 0.0
O390 O 0.06478 0.46013 0.79798 0.0
O391 O 0.09223 0.43064 0.8331 0.0
C392 C 0.26808 0.64757 0.6693 0.0
O393 O 0.25602 0.65205 0.64703 0.0
Cd394 Cd 0.25531 0.66717 0.57556 0.0
O395 O 0.28151 0.65015 0.6516 0.0
Cd396 Cd 0.29117 0.66062 0.57019 0.0
C397 C 0.28155 0.69644 0.60262 0.0
O398 O 0.26971 0.65222 0.52008 0.0
O399 O 0.28307 0.6707 0.48911 0.0
O400 O 0.30664 0.63776 0.55531 0.0
C401 C 0.27259 0.66069 0.48338 0.0
O402 O 0.26783 0.69171 0.59505 0.0
C403 C 0.31842 0.64486 0.53933 0.0
O404 O 0.293 0.68732 0.59844 0.0
O405 O 0.31817 0.65948 0.5422 0.0
C406 C 0.1002 0.52835 0.40942 0.0
O407 O 0.09616 0.51664 0.38462 0.0
Cd408 Cd 0.08205 0.5169 0.31106 0.0
O409 O 0.09749 0.54203 0.39392 0.0
Cd410 Cd 0.08726 0.55313 0.31393 0.0
C411 C 0.05148 0.54141 0.33977 0.0
O412 O 0.09741 0.53313 0.26188 0.0
O413 O 0.079 0.54618 0.22935 0.0
O414 O 0.10962 0.56982 0.30707 0.0
C415 C 0.08957 0.53624 0.22398 0.0
O416 O 0.05686 0.52808 0.32998 0.0
C417 C 0.10241 0.58143 0.29033 0.0
O418 O 0.06016 0.55327 0.33906 0.0
O419 O 0.08778 0.5805 0.28938 0.0
C420 C 0.22809 0.35648 0.14067 0.0
O421 O 0.23881 0.35231 0.11186 0.0
Cd422 Cd 0.23542 0.33919 0.03705 0.0
O423 O 0.21391 0.35438 0.12931 0.0
Cd424 Cd 0.19983 0.34479 0.05374 0.0
C425 C 0.2117 0.30883 0.07378 0.0
O426 O 0.2178 0.35518 -0.00475 0.0
O427 O 0.20412 0.33651 0.9674 0.0
O428 O 0.18327 0.36733 0.05459 0.0
C429 C 0.21355 0.34732 0.95858 0.0
O430 O 0.22446 0.31402 0.05736 0.0
C431 C 0.17125 0.36046 0.03929 0.0
O432 O 0.20023 0.31781 0.08018 0.0
O433 O 0.17198 0.34585 0.03631 0.0
C434 C 0.39361 0.48323 0.90219 0.0
O435 O 0.39744 0.49397 0.87295 0.0
Cd436 Cd 0.40816 0.49169 0.7944 0.0
O437 O 0.39496 0.46906 0.88951 0.0
Cd438 Cd 0.40317 0.45558 0.811 0.0
C439 C 0.43948 0.4682 0.82241 0.0
O440 O 0.39144 0.47394 0.75626 0.0
O441 O 0.40935 0.46044 0.72331 0.0
O442 O 0.38127 0.43809 0.81202 0.0
C443 C 0.39849 0.47006 0.71764 0.0
O444 O 0.4338 0.48107 0.80877 0.0
C445 C 0.38869 0.42637 0.79706 0.0
O446 O 0.43087 0.45648 0.8291 0.0
O447 O 0.40325 0.42774 0.7943 0.0
H448 H 0.09263 0.09926 0.88771 0.0
H449 H 0.13444 0.07332 0.86224 0.0
H450 H 0.1067 0.11636 0.94385 0.0
H451 H 0.14843 0.09042 0.91748 0.0
H452 H 0.16577 0.11008 0.05764 0.0
H453 H 0.14856 0.09453 0.00699 0.0
H454 H 0.12769 0.13593 0.94853 0.0
H455 H 0.14478 0.15156 1e-05 0.0
C456 C 0.10487 0.0974 0.89327 0.0
C457 C 0.11241 0.08487 0.87076 0.0
C458 C 0.1129 0.10715 0.92558 0.0
C459 C 0.12858 0.10451 0.93602 0.0
C460 C 0.13625 0.09249 0.91135 0.0
C461 C 0.12827 0.08279 0.87918 0.0
C462 C 0.15725 0.11588 0.03497 0.0
C463 C 0.15676 0.13205 0.03244 0.0
C464 C 0.14751 0.10697 0.00549 0.0
C465 C 0.13708 0.11402 0.9727 0.0
C466 C 0.13566 0.13016 0.97322 0.0
C467 C 0.14542 0.13911 0.00288 0.0
H468 H 0.13638 0.93164 0.27142 0.0
H469 H 0.09549 0.90475 0.24089 0.0
H470 H 0.15126 0.91514 0.21684 0.0
H471 H 0.11045 0.88825 0.18545 0.0
H472 H 0.16942 0.89717 0.07467 0.0
H473 H 0.15189 0.91176 0.12689 0.0
H474 H 0.1321 0.86929 0.18088 0.0
H475 H 0.14954 0.85461 0.12788 0.0
C476 C 0.1306 0.92207 0.25358 0.0
C477 C 0.11473 0.91957 0.26028 0.0
C478 C 0.13909 0.91271 0.22181 0.0
C479 C 0.13194 0.90063 0.19585 0.0
C480 C 0.11626 0.89752 0.20475 0.0
C481 C 0.10772 0.90693 0.23665 0.0
C482 C 0.16111 0.89093 0.0968 0.0
C483 C 0.16098 0.87473 0.09745 0.0
C484 C 0.15118 0.89929 0.12717 0.0
C485 C 0.1409 0.89166 0.15899 0.0
C486 C 0.13994 0.87549 0.15695 0.0
C487 C 0.1499 0.86709 0.12644 0.0
H488 H 0.36352 0.92479 0.34515 0.0
H489 H 0.40566 0.90202 0.38982 0.0
H490 H 0.34893 0.90868 0.40166 0.0
H491 H 0.39087 0.88575 0.44674 0.0
H492 H 0.32971 0.89329 0.54484 0.0
H493 H 0.34801 0.9077 0.49478 0.0
H494 H 0.36929 0.86513 0.44823 0.0
H495 H 0.35095 0.85059 0.49863 0.0
C496 C 0.36966 0.91618 0.36649 0.0
C497 C 0.38578 0.91477 0.36318 0.0
C498 C 0.36131 0.90706 0.39929 0.0
C499 C 0.36882 0.89623 0.42946 0.0
C500 C 0.38481 0.8941 0.42416 0.0
C501 C 0.39324 0.90336 0.39143 0.0
C502 C 0.33853 0.88698 0.52504 0.0
C503 C 0.33873 0.87078 0.52521 0.0
C504 C 0.34892 0.89524 0.49598 0.0
C505 C 0.35979 0.8875 0.46661 0.0
C506 C 0.36096 0.87138 0.47027 0.0
C507 C 0.35049 0.86307 0.4993 0.0
H508 H 0.39678 0.10011 0.74504 0.0
H509 H 0.35494 0.07595 0.78424 0.0
H510 H 0.38175 0.11789 0.69392 0.0
H511 H 0.34001 0.09373 0.73371 0.0
H512 H 0.32173 0.11119 0.58942 0.0
H513 H 0.33882 0.09625 0.64228 0.0
H514 H 0.36071 0.13819 0.69227 0.0
H515 H 0.34359 0.15325 0.63884 0.0
C516 C 0.38435 0.09887 0.74393 0.0
C517 C 0.37707 0.08651 0.76825 0.0
C518 C 0.37576 0.10901 0.71445 0.0
C519 C 0.35978 0.10692 0.70877 0.0
C520 C 0.35239 0.09535 0.73629 0.0
C521 C 0.36093 0.08526 0.76571 0.0
C522 C 0.33038 0.11724 0.61087 0.0
C523 C 0.3312 0.13342 0.61023 0.0
C524 C 0.34005 0.10869 0.64162 0.0
C525 C 0.35081 0.11609 0.67241 0.0
C526 C 0.35245 0.13219 0.6692 0.0
C527 C 0.3427 0.14079 0.63841 0.0
H528 H 0.81474 0.89278 0.11576 0.0
H529 H 0.84314 0.85196 0.12655 0.0
H530 H 0.83237 0.90646 0.1701 0.0
H531 H 0.86073 0.86564 0.18209 0.0
H532 H 0.89565 0.90347 0.23876 0.0
H533 H 0.87943 0.88689 0.18755 0.0
H534 H 0.83876 0.90571 0.25709 0.0
H535 H 0.85492 0.92251 0.30724 0.0
C536 C 0.82483 0.88676 0.12942 0.0
C537 C 0.8275 0.87127 0.11699 0.0
C538 C 0.83485 0.89455 0.1611 0.0
C539 C 0.84777 0.88703 0.1814 0.0
C540 C 0.85086 0.87174 0.16719 0.0
C541 C 0.84082 0.86393 0.13526 0.0
C542 C 0.88327 0.90377 0.24399 0.0
C543 C 0.87655 0.91443 0.27663 0.0
C544 C 0.87396 0.89429 0.2145 0.0
C545 C 0.85779 0.89528 0.21732 0.0
C546 C 0.85118 0.90502 0.25295 0.0
C547 C 0.86044 0.91452 0.28213 0.0
H548 H 0.85475 0.08027 0.83578 0.0
H549 H 0.89655 0.10047 0.8941 0.0
H550 H 0.83943 0.0972 0.88779 0.0
H551 H 0.88112 0.11737 0.94687 0.0
H552 H 0.84419 0.15357 0.00167 0.0
H553 H 0.86174 0.13878 0.94926 0.0
H554 H 0.83516 0.09759 0.97755 0.0
H555 H 0.81758 0.11231 0.02915 0.0
C556 C 0.86067 0.08851 0.85908 0.0
C557 C 0.87686 0.08893 0.8611 0.0
C558 C 0.85189 0.0981 0.88933 0.0
C559 C 0.85908 0.10833 0.92238 0.0
C560 C 0.87526 0.10955 0.92195 0.0
C561 C 0.88408 0.09991 0.89158 0.0
C562 C 0.8423 0.14129 -0.0025 0.0
C563 C 0.82941 0.13413 0.0192 0.0
C564 C 0.85232 0.13284 0.96735 0.0
C565 C 0.84961 0.11711 0.95833 0.0
C566 C 0.83731 0.10979 0.98268 0.0
C567 C 0.82733 0.1182 0.01272 0.0
H568 H 0.6466 0.15014 0.62374 0.0
H569 H 0.67254 0.10834 0.59805 0.0
H570 H 0.62909 0.13593 0.678 0.0
H571 H 0.65502 0.09422 0.6516 0.0
H572 H 0.59444 0.09839 0.74009 0.0
H573 H 0.60949 0.11446 0.68354 0.0
H574 H 0.65158 0.09504 0.74222 0.0
H575 H 0.63666 0.07898 0.79811 0.0
C576 C 0.64834 0.13786 0.62864 0.0
C577 C 0.66106 0.13039 0.60699 0.0
C578 C 0.63834 0.12975 0.65985 0.0
C579 C 0.64092 0.11406 0.67 0.0
C580 C 0.65299 0.10641 0.64554 0.0
C581 C 0.66293 0.11447 0.61442 0.0
C582 C 0.60692 0.09781 0.7416 0.0
C583 C 0.61436 0.08731 0.77328 0.0
C584 C 0.61552 0.10697 0.70908 0.0
C585 C 0.63168 0.10572 0.70762 0.0
C586 C 0.63911 0.09595 0.74154 0.0
C587 C 0.63056 0.08686 0.77396 0.0
H588 H 0.61179 0.90291 0.35501 0.0
H589 H 0.64881 0.9362 0.34796 0.0
H590 H 0.62931 0.88436 0.39351 0.0
H591 H 0.66595 0.9182 0.38834 0.0
H592 H 0.69742 0.88067 0.43702 0.0
H593 H 0.6803 0.89583 0.3854 0.0
H594 H 0.64122 0.88019 0.47091 0.0
H595 H 0.65845 0.86421 0.5209 0.0
C596 C 0.62372 0.90617 0.36091 0.0
C597 C 0.62889 0.92104 0.34852 0.0
C598 C 0.63371 0.89563 0.38366 0.0
C599 C 0.64904 0.89979 0.39484 0.0
C600 C 0.65434 0.91441 0.37995 0.0
C601 C 0.64444 0.92483 0.35678 0.0
C602 C 0.68517 0.8805 0.44492 0.0
C603 C 0.67929 0.87141 0.48343 0.0
C604 C 0.67532 0.88923 0.4153 0.0
C605 C 0.65932 0.8894 0.42401 0.0
C606 C 0.65342 0.8802 0.46248 0.0
C607 C 0.6633 0.87118 0.4916 0.0
H608 H 0.66942 0.61605 0.51811 0.0
H609 H 0.64531 0.65871 0.48851 0.0
H610 H 0.65306 0.60279 0.45887 0.0
H611 H 0.62882 0.64527 0.42877 0.0
H612 H 0.6369 0.58758 0.31146 0.0
H613 H 0.65134 0.60453 0.36623 0.0
H614 H 0.60871 0.62354 0.42153 0.0
H615 H 0.59415 0.60658 0.36636 0.0
C616 C 0.66046 0.62256 0.49955 0.0
C617 C 0.65875 0.63847 0.5078 0.0
C618 C 0.6512 0.61499 0.46517 0.0
C619 C 0.63994 0.62309 0.4383 0.0
C620 C 0.6375 0.63878 0.44871 0.0
C621 C 0.64688 0.64643 0.48307 0.0
C622 C 0.63058 0.59565 0.33426 0.0
C623 C 0.61437 0.59557 0.33501 0.0
C624 C 0.63885 0.60525 0.36602 0.0
C625 C 0.63112 0.61503 0.39908 0.0
C626 C 0.61495 0.61603 0.39666 0.0
C627 C 0.60663 0.60636 0.3649 0.0
H628 H 0.63837 0.42484 0.78773 0.0
H629 H 0.59656 0.40325 0.73473 0.0
H630 H 0.65366 0.40678 0.73953 0.0
H631 H 0.61197 0.38519 0.68612 0.0
H632 H 0.67381 0.39088 0.59524 0.0
H633 H 0.65645 0.40564 0.64743 0.0
H634 H 0.63238 0.36388 0.68733 0.0
H635 H 0.64981 0.34896 0.63468 0.0
C636 C 0.63244 0.416 0.76679 0.0
C637 C 0.61625 0.41562 0.76458 0.0
C638 C 0.6412 0.40576 0.73874 0.0
C639 C 0.63398 0.39488 0.70799 0.0
C640 C 0.61783 0.39354 0.70921 0.0
C641 C 0.60902 0.40385 0.73725 0.0
C642 C 0.66466 0.38484 0.61436 0.0
C643 C 0.66328 0.36873 0.61109 0.0
C644 C 0.65483 0.39328 0.64474 0.0
C645 C 0.64333 0.38585 0.67246 0.0
C646 C 0.64122 0.36988 0.66667 0.0
C647 C 0.65115 0.36137 0.63633 0.0
H648 H 0.85897 0.42521 0.8355 0.0
H649 H 0.90238 0.40533 0.88185 0.0
H650 H 0.84533 0.40838 0.89247 0.0
H651 H 0.88858 0.38839 0.93915 0.0
H652 H 0.82846 0.39478 0.04188 0.0
H653 H 0.84527 0.409 -0.0137 0.0
H654 H 0.86791 0.36664 0.94463 0.0
H655 H 0.85102 0.35226 0.00054 0.0
C656 C 0.86559 0.41702 0.85705 0.0
C657 C 0.88178 0.41674 0.85449 0.0
C658 C 0.85778 0.40749 0.89008 0.0
C659 C 0.86595 0.39739 0.92112 0.0
C660 C 0.88203 0.39617 0.91589 0.0
C661 C 0.8899 0.40582 0.88292 0.0
C662 C 0.83725 0.3885 0.02182 0.0
C663 C 0.83827 0.37236 0.02521 0.0
C664 C 0.84677 0.39663 -0.0104 0.0
C665 C 0.85759 0.38885 0.9602 0.0
C666 C 0.85957 0.37289 0.96661 0.0
C667 C 0.84995 0.36469 -0.0012 0.0
H668 H 0.81585 0.61676 0.1076 0.0
H669 H 0.84035 0.65911 0.13821 0.0
H670 H 0.83323 0.60284 0.16219 0.0
H671 H 0.85781 0.64506 0.19344 0.0
H672 H 0.85263 0.58513 0.30202 0.0
H673 H 0.83688 0.60269 0.2532 0.0
H674 H 0.87806 0.62402 0.19525 0.0
H675 H 0.89391 0.60652 0.24465 0.0
C676 C 0.82508 0.62308 0.12544 0.0
C677 C 0.82665 0.63906 0.11875 0.0
C678 C 0.83494 0.61513 0.15722 0.0
C679 C 0.84663 0.62294 0.18308 0.0
C680 C 0.84883 0.63877 0.17425 0.0
C681 C 0.83888 0.64678 0.14245 0.0
C682 C 0.85835 0.59383 0.27996 0.0
C683 C 0.87452 0.59428 0.27671 0.0
C684 C 0.84932 0.60378 0.25156 0.0
C685 C 0.85625 0.61441 0.21932 0.0
C686 C 0.8724 0.61587 0.21951 0.0
C687 C 0.88147 0.60588 0.248 0.0
H688 H 0.3487 0.34834 0.63115 0.0
H689 H 0.32847 0.39145 0.58374 0.0
H690 H 0.36571 0.36245 0.68768 0.0
H691 H 0.3453 0.40537 0.64018 0.0
H692 H 0.40114 0.40169 0.74768 0.0
H693 H 0.38738 0.38434 0.69141 0.0
H694 H 0.34409 0.40452 0.73606 0.0
H695 H 0.35766 0.42171 0.79226 0.0
C696 C 0.34818 0.36082 0.6317 0.0
C697 C 0.3371 0.36877 0.60337 0.0
C698 C 0.35785 0.36886 0.66426 0.0
C699 C 0.35648 0.38492 0.66916 0.0
C700 C 0.34631 0.39293 0.63793 0.0
C701 C 0.33678 0.38496 0.60524 0.0
C702 C 0.38866 0.4021 0.74656 0.0
C703 C 0.3805 0.41322 0.77402 0.0
C704 C 0.38081 0.39222 0.71416 0.0
C705 C 0.36475 0.39342 0.70853 0.0
C706 C 0.35654 0.40364 0.7389 0.0
C707 C 0.36431 0.41337 0.77146 0.0
H708 H 0.32072 0.61391 0.52476 0.0
H709 H 0.34329 0.65702 0.49006 0.0
H710 H 0.3376 0.60053 0.46748 0.0
H711 H 0.36029 0.64347 0.43232 0.0
H712 H 0.39676 0.60533 0.37813 0.0
H713 H 0.38122 0.62263 0.42906 0.0
H714 H 0.33972 0.60084 0.37501 0.0
H715 H 0.35515 0.58352 0.32446 0.0
C716 C 0.32944 0.62051 0.50546 0.0
C717 C 0.33059 0.63655 0.5118 0.0
C718 C 0.339 0.61286 0.47217 0.0
C719 C 0.35 0.62103 0.44453 0.0
C720 C 0.35182 0.63692 0.45288 0.0
C721 C 0.34215 0.64464 0.48611 0.0
C722 C 0.3843 0.60456 0.3759 0.0
C723 C 0.37719 0.59289 0.34781 0.0
C724 C 0.37542 0.61443 0.40526 0.0
C725 C 0.35931 0.61276 0.40701 0.0
C726 C 0.35216 0.60209 0.37534 0.0
C727 C 0.361 0.59228 0.34597 0.0
H728 H 0.09037 0.60573 0.23765 0.0
H729 H 0.13349 0.58528 0.2843 0.0
H730 H 0.1045 0.62278 0.18138 0.0
H731 H 0.14742 0.60215 0.22826 0.0
H732 H 0.14361 0.65922 0.12805 0.0
H733 H 0.12578 0.6445 0.17992 0.0
H734 H 0.14756 0.60218 0.13353 0.0
H735 H 0.16529 0.61673 0.08186 0.0
C736 C 0.10285 0.60511 0.23678 0.0
C737 C 0.1108 0.59404 0.26513 0.0
C738 C 0.1109 0.61481 0.2044 0.0
C739 C 0.12699 0.61347 0.1996 0.0
C740 C 0.13497 0.60314 0.23034 0.0
C741 C 0.12699 0.59358 0.26283 0.0
C742 C 0.14426 0.64674 0.12768 0.0
C743 C 0.15602 0.63915 0.10137 0.0
C744 C 0.1341 0.63835 0.15759 0.0
C745 C 0.13561 0.62227 0.16171 0.0
C746 C 0.14642 0.61462 0.13193 0.0
C747 C 0.15648 0.62295 0.10196 0.0
H748 H 0.13794 0.42547 0.83632 0.0
H749 H 0.09468 0.40397 0.87575 0.0
H750 H 0.15165 0.40743 0.88935 0.0
H751 H 0.10856 0.38581 0.929 0.0
H752 H 0.16743 0.3916 0.03865 0.0
H753 H 0.15083 0.40639 0.98379 0.0
H754 H 0.12987 0.36432 0.93125 0.0
H755 H 0.1466 0.34935 -0.01368 0.0
C756 C 0.13138 0.41665 0.85528 0.0
C757 C 0.1152 0.4163 0.85228 0.0
C758 C 0.13923 0.40642 0.88607 0.0
C759 C 0.1311 0.39553 0.9143 0.0
C760 C 0.11507 0.3942 0.90795 0.0
C761 C 0.10716 0.40454 0.87724 0.0
C762 C 0.15906 0.38547 0.01632 0.0
C763 C 0.15847 0.36928 0.01647 0.0
C764 C 0.14967 0.39394 -0.0155 0.0
C765 C 0.13939 0.38645 0.95234 0.0
C766 C 0.13781 0.37035 0.95538 0.0
C767 C 0.14732 0.36182 -0.01288 0.0
H768 H 0.22759 0.13353 0.92885 0.0
H769 H 0.21119 0.17945 0.89532 0.0
H770 H 0.24373 0.13401 0.85546 0.0
H771 H 0.22747 0.1799 0.82149 0.0
H772 H 0.27443 0.17979 0.73575 0.0
H773 H 0.25733 0.17953 0.80768 0.0
H774 H 0.23953 0.13515 0.7628 0.0
H775 H 0.2565 0.13536 0.69138 0.0
C776 C 0.22733 0.14365 0.90539 0.0
C777 C 0.21821 0.15646 0.91756 0.0
C778 C 0.23654 0.14391 0.86352 0.0
C779 C 0.23687 0.15704 0.83335 0.0
C780 C 0.22748 0.16974 0.84473 0.0
C781 C 0.21809 0.16941 0.88647 0.0
C782 C 0.26695 0.16995 0.74165 0.0
C783 C 0.26674 0.1576 0.70824 0.0
C784 C 0.25709 0.16988 0.78231 0.0
C785 C 0.24711 0.15737 0.79025 0.0
C786 C 0.24717 0.1449 0.75739 0.0
C787 C 0.25686 0.14504 0.71664 0.0
H788 H 0.06779 0.96207 0.13679 0.0
H789 H 0.08805 0.00263 0.20329 0.0
H790 H 0.06479 0.97614 0.059 0.0
H791 H 0.08497 0.0166 0.12598 0.0
H792 H 0.06642 0.0405 -0.01095 0.0
H793 H 0.0638 0.02627 0.06663 0.0
H794 H 0.08563 0.98665 7e-05 0.0
H795 H 0.08834 0.00079 0.92292 0.0
C796 C 0.07143 0.97401 0.13489 0.0
C797 C 0.07828 0.98124 0.1757 0.0
C798 C 0.06972 0.98202 0.09056 0.0
C799 C 0.07463 -0.00259 0.08683 0.0
C800 C 0.08094 0.00479 0.1282 0.0
C801 C 0.08284 -0.00325 0.17221 0.0
C802 C 0.0705 0.0287 -0.00902 0.0
C803 C 0.07771 0.02177 0.95035 0.0
C804 C 0.06901 0.0206 0.03519 0.0
C805 C 0.07451 0.00541 0.03899 0.0
C806 C 0.08116 -0.0017 -0.00223 0.0
C807 C 0.08284 0.00644 0.95388 0.0
H808 H 0.21902 0.83046 0.22442 0.0
H809 H 0.23845 0.87388 0.17653 0.0
H810 H 0.23706 0.83001 0.29398 0.0
H811 H 0.2564 0.87338 0.24577 0.0
H812 H 0.26991 0.87428 0.41215 0.0
H813 H 0.25376 0.87494 0.33857 0.0
H814 H 0.26667 0.82797 0.30515 0.0
H815 H 0.28295 0.82729 0.3791 0.0
C816 C 0.22704 0.83994 0.22902 0.0
C817 C 0.22737 0.85221 0.19528 0.0
C818 C 0.23745 0.83959 0.26834 0.0
C819 C 0.24815 0.85159 0.27468 0.0
C820 C 0.24823 0.864 0.24156 0.0
C821 C 0.23796 0.86428 0.20208 0.0
C822 C 0.26949 0.86418 0.38863 0.0
C823 C 0.27759 0.85072 0.40119 0.0
C824 C 0.26028 0.86457 0.34662 0.0
C825 C 0.2589 0.85145 0.31673 0.0
C826 C 0.26745 0.83815 0.32816 0.0
C827 C 0.27685 0.83783 0.37 0.0
H828 H 0.42867 0.03578 0.63232 0.0
H829 H 0.38184 0.01952 0.64957 0.0
H830 H 0.43073 0.0215 0.55462 0.0
H831 H 0.38388 0.00543 0.5721 0.0
H832 H 0.38914 0.99381 0.40924 0.0
H833 H 0.3878 0.01104 0.48008 0.0
H834 H 0.43025 0.99181 0.53668 0.0
H835 H 0.43164 0.97444 0.46564 0.0
C836 C 0.41876 0.0294 0.61903 0.0
C837 C 0.40512 0.02865 0.6468 0.0
C838 C 0.41998 0.02117 0.57496 0.0
C839 C 0.40748 0.01237 0.55783 0.0
C840 C 0.39363 0.01222 0.58451 0.0
C841 C 0.39249 0.02022 0.62878 0.0
C842 C 0.39822 0.99328 0.43671 0.0
C843 C 0.41046 0.98276 0.4322 0.0
C844 C 0.39743 0.00313 0.47711 0.0
C845 C 0.40895 0.00273 0.51345 0.0
C846 C 0.42134 0.99241 0.50867 0.0
C847 C 0.42205 0.98241 0.46842 0.0
H848 H 0.74631 0.84157 0.17543 0.0
H849 H 0.78699 0.81587 0.21773 0.0
H850 H 0.73438 0.83534 0.25412 0.0
H851 H 0.77495 0.80959 0.29672 0.0
H852 H 0.75738 0.83022 0.44869 0.0
H853 H 0.76876 0.82748 0.36723 0.0
H854 H 0.72452 0.81369 0.30826 0.0
H855 H 0.71305 0.81645 0.39015 0.0
C856 C 0.75261 0.83443 0.20134 0.0
C857 C 0.76764 0.82937 0.1909 0.0
C858 C 0.74571 0.83071 0.2461 0.0
C859 C 0.75376 0.82197 0.28132 0.0
C860 C 0.76856 0.81638 0.27011 0.0
C861 C 0.77542 0.82 0.22508 0.0
C862 C 0.75014 0.82629 0.41853 0.0
C863 C 0.73429 0.82377 0.42539 0.0
C864 C 0.7567 0.8246 0.37204 0.0
C865 C 0.74747 0.82048 0.33155 0.0
C866 C 0.73182 0.81699 0.33898 0.0
C867 C 0.72528 0.81852 0.38573 0.0
H868 H 0.92506 0.0318 0.98154 0.0
H869 H 0.88018 0.01382 0.9419 0.0
H870 H 0.92531 0.01519 0.05472 0.0
H871 H 0.88049 -0.00266 0.01454 0.0
H872 H 0.8796 0.98651 0.18082 0.0
H873 H 0.87993 0.00228 0.10657 0.0
H874 H 0.92564 0.98562 0.07229 0.0
H875 H 0.92535 0.96971 0.14707 0.0
C876 C 0.91525 0.02439 -0.01135 0.0
C877 C 0.90259 0.02408 0.95626 0.0
C878 C 0.91546 0.01482 0.03008 0.0
C879 C 0.90294 0.005 0.03986 0.0
C880 C 0.89024 0.00487 0.00781 0.0
C881 C 0.89008 0.01429 0.96631 0.0
C882 C 0.88968 0.98611 0.15725 0.0
C883 C 0.90246 0.97693 0.16955 0.0
C884 C 0.88984 0.9951 0.11482 0.0
C885 C 0.90283 0.99517 0.08409 0.0
C886 C 0.91556 0.98583 0.09586 0.0
C887 C 0.91533 0.97666 0.13821 0.0
H888 H 0.78563 0.17657 0.88077 0.0
H889 H 0.74508 0.15943 0.95559 0.0
H890 H 0.77087 0.17814 0.80377 0.0
H891 H 0.73048 0.16099 0.87914 0.0
H892 H 0.70557 0.17615 0.74035 0.0
H893 H 0.72046 0.18008 0.81615 0.0
H894 H 0.75948 0.15694 0.75037 0.0
H895 H 0.74474 0.15305 0.67499 0.0
C896 C 0.77357 0.17331 0.88082 0.0
C897 C 0.76652 0.16774 0.92382 0.0
C898 C 0.76516 0.17419 0.83694 0.0
C899 C 0.74958 0.16969 0.83578 0.0
C900 C 0.74243 0.16469 0.87925 0.0
C901 C 0.75084 0.16366 0.92283 0.0
C902 C 0.71736 0.17202 0.74211 0.0
C903 C 0.72397 0.16419 0.70212 0.0
C904 C 0.72584 0.17427 0.78529 0.0
C905 C 0.74109 0.16885 0.78879 0.0
C906 C 0.74781 0.16141 0.74829 0.0
C907 C 0.73931 0.15904 0.70541 0.0
H908 H 0.56984 0.0269 0.66686 0.0
H909 H 0.61146 0.00687 0.72752 0.0
H910 H 0.57107 0.0088 0.59772 0.0
H911 H 0.61264 0.9889 0.65856 0.0
H912 H 0.61936 0.98098 0.48791 0.0
H913 H 0.61731 0.99436 0.56662 0.0
H914 H 0.57013 0.9789 0.58094 0.0
H915 H 0.57226 0.96527 0.50195 0.0
C916 C 0.57919 0.01862 0.66546 0.0
C917 C 0.59061 0.01833 0.70221 0.0
C918 C 0.57979 0.00819 0.62634 0.0
C919 C 0.5919 -0.00253 0.62329 0.0
C920 C 0.6032 -0.00292 0.66029 0.0
C921 C 0.60252 0.00738 0.69955 0.0
C922 C 0.60867 0.98017 0.50844 0.0
C923 C 0.59595 0.97221 0.48911 0.0
C924 C 0.60751 0.98777 0.55339 0.0
C925 C 0.59353 0.98769 0.57935 0.0
C926 C 0.58098 0.97916 0.56117 0.0
C927 C 0.58224 0.9713 0.51641 0.0
H928 H 0.71394 0.69051 0.41005 0.0
H929 H 0.73482 0.6464 0.44342 0.0
H930 H 0.72892 0.69178 0.33337 0.0
H931 H 0.74956 0.64771 0.36734 0.0
H932 H 0.75369 0.64649 0.19853 0.0
H933 H 0.73996 0.64726 0.27657 0.0
H934 H 0.75893 0.69234 0.30683 0.0
H935 H 0.77292 0.69158 0.22809 0.0
C936 C 0.72173 0.68114 0.40103 0.0
C937 C 0.72319 0.66832 0.43238 0.0
C938 C 0.73034 0.68194 0.35758 0.0
C939 C 0.7403 0.66983 0.34483 0.0
C940 C 0.74187 0.65713 0.37643 0.0
C941 C 0.73344 0.65641 0.4199 0.0
C942 C 0.75497 0.65657 0.22177 0.0
C943 C 0.76437 0.66896 0.20746 0.0
C944 C 0.74715 0.65697 0.26639 0.0
C945 C 0.74847 0.66983 0.29738 0.0
C946 C 0.75774 0.68234 0.28315 0.0
C947 C 0.76578 0.68185 0.23852 0.0
H948 H 0.61946 0.52008 0.41914 0.0
H949 H 0.57493 0.53625 0.46885 0.0
H950 H 0.62028 0.50168 0.48729 0.0
H951 H 0.57577 0.51776 0.53689 0.0
H952 H 0.57495 0.47051 0.61229 0.0
H953 H 0.57547 0.48773 0.54083 0.0
H954 H 0.62113 0.50307 0.58207 0.0
H955 H 0.62061 0.48596 0.65357 0.0
C956 C 0.60994 0.51979 0.44496 0.0
C957 C 0.59712 0.52953 0.43883 0.0
C958 C 0.61041 0.50928 0.48375 0.0
C959 C 0.59799 0.50823 0.51661 0.0
C960 C 0.58536 0.51824 0.51135 0.0
C961 C 0.58497 0.5289 0.47289 0.0
C962 C 0.5852 0.47733 0.60547 0.0
C963 C 0.59771 0.47703 0.6384 0.0
C964 C 0.58543 0.48726 0.56502 0.0
C965 C 0.59825 0.4968 0.55667 0.0
C966 C 0.61112 0.4958 0.58792 0.0
C967 C 0.61081 0.48605 0.62867 0.0
H968 H 0.74882 0.35135 0.67234 0.0
H969 H 0.7104 0.33237 0.75384 0.0
H970 H 0.7645 0.3512 0.7469 0.0
H971 H 0.72621 0.33236 0.82894 0.0
H972 H 0.75389 0.3573 0.95434 0.0
H973 H 0.73824 0.3547 0.8801 0.0
H974 H 0.77576 0.33105 0.80772 0.0
H975 H 0.7915 0.33353 0.88242 0.0
C976 C 0.74374 0.34711 0.70622 0.0
C977 C 0.72839 0.34193 0.70755 0.0
C978 C 0.75276 0.34692 0.74868 0.0
C979 C 0.74652 0.34174 0.79331 0.0
C980 C 0.7312 0.33645 0.79475 0.0
C981 C 0.72221 0.33643 0.75198 0.0
C982 C 0.75882 0.35154 0.92261 0.0
C983 C 0.77392 0.34565 0.92392 0.0
C984 C 0.74981 0.34994 0.88042 0.0
C985 C 0.75582 0.3426 0.83863 0.0
C986 C 0.77093 0.33676 0.8397 0.0
C987 C 0.7799 0.33818 0.88224 0.0
H988 H 0.90835 0.54925 0.11109 0.0
H989 H 0.884 0.51209 0.1837 0.0
H990 H 0.91006 0.53355 0.03609 0.0
H991 H 0.88591 0.49653 0.10938 0.0
H992 H 0.91153 0.46805 -0.0092 0.0
H993 H 0.90973 0.48472 0.06341 0.0
H994 H 0.89025 0.521 0.97365 0.0
H995 H 0.89187 0.50438 0.90124 0.0
C996 C 0.9033 0.53782 0.11089 0.0
C997 C 0.89613 0.53185 0.15316 0.0
C998 C 0.90427 0.52889 0.06818 0.0
C999 C 0.89827 0.51384 0.0676 0.0
C1000 C 0.89081 0.50804 0.10941 0.0
C1001 C 0.88964 0.51699 0.15171 0.0
C1002 C 0.9069 0.47959 -0.01332 0.0
C1003 C 0.90178 0.48493 0.94068 0.0
C1004 C 0.90584 0.48907 0.02804 0.0
C1005 C 0.89985 0.50406 0.0237 0.0
C1006 C 0.89499 0.5095 0.9776 0.0
C1007 C 0.89583 0.49996 0.93643 0.0
H1008 H 0.26327 0.37151 0.69242 0.0
H1009 H 0.27933 0.32596 0.7323 0.0
H1010 H 0.24608 0.37155 0.76345 0.0
H1011 H 0.26208 0.32606 0.80361 0.0
H1012 H 0.21548 0.32553 0.88607 0.0
H1013 H 0.23256 0.32602 0.81432 0.0
H1014 H 0.24859 0.37134 0.85634 0.0
H1015 H 0.23158 0.3709 0.92776 0.0
C1016 C 0.26323 0.36158 0.7167 0.0
C1017 C 0.27257 0.34871 0.70693 0.0
C1018 C 0.25341 0.36162 0.75724 0.0
C1019 C 0.2527 0.34875 0.78846 0.0
C1020 C 0.26231 0.33602 0.77949 0.0
C1021 C 0.27227 0.33604 0.73913 0.0
C1022 C 0.22251 0.33565 0.87953 0.0
C1023 C 0.22228 0.34816 0.91238 0.0
C1024 C 0.23236 0.33586 0.83891 0.0
C1025 C 0.24194 0.34865 0.83035 0.0
C1026 C 0.24128 0.36137 0.8622 0.0
C1027 C 0.23157 0.36109 0.90298 0.0
H1028 H 0.41891 0.53877 0.49952 0.0
H1029 H 0.37348 0.52275 0.45793 0.0
H1030 H 0.4185 0.52165 0.57121 0.0
H1031 H 0.37307 0.50574 0.52965 0.0
H1032 H 0.37473 0.48881 0.69256 0.0
H1033 H 0.37379 0.5072 0.62438 0.0
H1034 H 0.41856 0.49164 0.57546 0.0
H1035 H 0.41952 0.47317 0.64353 0.0
C1036 C 0.40873 0.53185 0.50632 0.0
C1037 C 0.39626 0.53196 0.47323 0.0
C1038 C 0.40857 0.52197 0.5469 0.0
C1039 C 0.39584 0.5123 0.55523 0.0
C1040 C 0.383 0.51311 0.52383 0.0
C1041 C 0.38325 0.52281 0.48294 0.0
C1042 C 0.38429 0.48921 0.66689 0.0
C1043 C 0.39721 0.47963 0.67321 0.0
C1044 C 0.38375 0.49972 0.62809 0.0
C1045 C 0.3962 0.50091 0.5954 0.0
C1046 C 0.40895 0.49106 0.60088 0.0
C1047 C 0.40941 0.4804 0.63935 0.0
H1048 H 0.27076 0.68235 0.41034 0.0
H1049 H 0.25072 0.63945 0.46047 0.0
H1050 H 0.25284 0.68261 0.34055 0.0
H1051 H 0.23289 0.63977 0.39084 0.0
H1052 H 0.22262 0.63737 0.2211 0.0
H1053 H 0.23704 0.6373 0.29832 0.0
H1054 H 0.22342 0.68449 0.32494 0.0
H1055 H 0.20886 0.68457 0.24743 0.0
C1056 C 0.26254 0.673 0.40644 0.0
C1057 C 0.26214 0.66083 0.4406 0.0
C1058 C 0.25221 0.67324 0.36691 0.0
C1059 C 0.24149 0.66126 0.36076 0.0
C1060 C 0.2411 0.64912 0.39489 0.0
C1061 C 0.2513 0.64894 0.43461 0.0
C1062 C 0.2225 0.64764 0.24387 0.0
C1063 C 0.21475 0.66101 0.22837 0.0
C1064 C 0.23069 0.64758 0.28802 0.0
C1065 C 0.23138 0.66093 0.31711 0.0
C1066 C 0.22312 0.67412 0.30269 0.0
C1067 C 0.21473 0.67412 0.25871 0.0
H1068 H 0.06871 0.53367 0.14877 0.0
H1069 H 0.11258 0.51634 0.20111 0.0
H1070 H 0.0699 0.51588 0.07889 0.0
H1071 H 0.11371 0.49863 0.13141 0.0
H1072 H 0.11687 0.48614 0.96399 0.0
H1073 H 0.11605 0.50185 0.03847 0.0
H1074 H 0.06955 0.48628 0.06681 0.0
H1075 H 0.07035 0.47047 -0.00787 0.0
C1076 C 0.07861 0.52613 0.14517 0.0
C1077 C 0.09055 0.52635 0.18019 0.0
C1078 C 0.07921 0.51588 0.1056 0.0
C1079 C 0.09183 0.50586 0.10028 0.0
C1080 C 0.10388 0.50627 0.13483 0.0
C1081 C 0.10321 0.51639 0.17458 0.0
C1082 C 0.10656 0.4859 -0.01345 0.0
C1083 C 0.09364 0.4772 0.97233 0.0
C1084 C 0.10612 0.49485 0.0291 0.0
C1085 C 0.09269 0.49534 0.05782 0.0
C1086 C 0.07996 0.48619 0.04472 0.0
C1087 C 0.08047 0.47707 0.00239 0.0
H1088 H 0.18395 0.21264 0.0741 0.0
H1089 H 0.23104 0.21236 0.12617 0.0
H1090 H 0.1836 0.24085 0.0791 0.0
H1091 H 0.23052 0.24031 0.13355 0.0
H1092 H 0.23355 0.28686 0.05874 0.0
H1093 H 0.23155 0.25938 0.0712 0.0
H1094 H 0.18501 0.26493 0.12554 0.0
H1095 H 0.18687 0.2928 0.11151 0.0
C1096 C 0.19403 0.2186 0.0881 0.0
C1097 C 0.2076 0.21042 0.09897 0.0
C1098 C 0.19384 0.23474 0.09107 0.0
C1099 C 0.20717 0.24287 0.10561 0.0
C1100 C 0.22022 0.23446 0.1207 0.0
C1101 C 0.2205 0.21845 0.11683 0.0
C1102 C 0.22288 0.28234 0.07368 0.0
C1103 C 0.21037 0.2921 0.08412 0.0
C1104 C 0.22178 0.26651 0.08129 0.0
C1105 C 0.20818 0.25991 0.10001 0.0
C1106 C 0.19564 0.26964 0.11091 0.0
C1107 C 0.19673 0.2856 0.10306 0.0
H1108 H 0.03359 0.94016 0.33433 0.0
H1109 H 0.03385 0.98231 0.41883 0.0
H1110 H 0.00554 0.93869 0.34251 0.0
H1111 H 0.006 0.98051 0.42923 0.0
H1112 H 0.95976 0.98845 0.35162 0.0
H1113 H 0.98698 0.98587 0.36852 0.0
H1114 H 0.98139 0.9367 0.38818 0.0
H1115 H 0.95379 0.93927 0.36978 0.0
C1116 C 0.0277 0.94875 0.35638 0.0
C1117 C 0.03578 0.96148 0.37527 0.0
C1118 C 0.01162 0.94791 0.36114 0.0
C1119 C 0.00346 0.95971 0.38545 0.0
C1120 C 0.01187 0.97149 0.40897 0.0
C1121 C 0.02783 0.97247 0.40339 0.0
C1122 C 0.96421 0.97707 0.35998 0.0
C1123 C 0.95457 0.96405 0.35893 0.0
C1124 C 0.97988 0.9756 0.37029 0.0
C1125 C 0.98642 0.96108 0.3801 0.0
C1126 C 0.97673 0.94805 0.38053 0.0
C1127 C 0.96092 0.94953 0.3702 0.0
H1128 H 0.26121 0.78916 0.55301 0.0
H1129 H 0.30798 0.79474 0.60604 0.0
H1130 H 0.26226 0.76196 0.57197 0.0
H1131 H 0.30891 0.76714 0.62598 0.0
H1132 H 0.30733 0.71372 0.58302 0.0
H1133 H 0.30899 0.7419 0.58176 0.0
H1134 H 0.26298 0.74475 0.64215 0.0
H1135 H 0.26116 0.71675 0.64198 0.0
C1136 C 0.27172 0.78462 0.56911 0.0
C1137 C 0.28452 0.79418 0.57796 0.0
C1138 C 0.27226 0.76898 0.58046 0.0
C1139 C 0.2856 0.7624 0.60111 0.0
C1140 C 0.29847 0.77189 0.61008 0.0
C1141 C 0.29792 0.78768 0.59878 0.0
C1142 C 0.29773 0.72039 0.59707 0.0
C1143 C 0.28401 0.71307 0.61171 0.0
C1144 C 0.29869 0.73652 0.59644 0.0
C1145 C 0.28598 0.74554 0.61083 0.0
C1146 C 0.27281 0.73812 0.62957 0.0
C1147 C 0.27179 0.72208 0.62968 0.0
H1148 H 0.46182 0.01302 0.82226 0.0
H1149 H 0.45421 0.06111 0.8567 0.0
H1150 H 0.48884 0.01577 0.84278 0.0
H1151 H 0.48158 0.06381 0.87832 0.0
H1152 H 0.53508 0.0629 0.83543 0.0
H1153 H 0.50682 0.06344 0.83487 0.0
H1154 H 0.506 0.01976 0.91163 0.0
H1155 H 0.53406 0.01901 0.91058 0.0
C1156 C 0.46587 0.02418 0.83476 0.0
C1157 C 0.45582 0.03686 0.83766 0.0
C1158 C 0.48139 0.02572 0.84703 0.0
C1159 C 0.48736 0.03998 0.86268 0.0
C1160 C 0.47732 0.05268 0.86628 0.0
C1161 C 0.46166 0.05112 0.85409 0.0
C1162 C 0.52882 0.05364 0.85328 0.0
C1163 C 0.53671 0.04078 0.87223 0.0
C1164 C 0.51265 0.05395 0.85304 0.0
C1165 C 0.50418 0.04146 0.8722 0.0
C1166 C 0.51218 0.02935 0.89536 0.0
C1167 C 0.52825 0.02895 0.89499 0.0
H1168 H 0.18731 0.79602 0.04842 0.0
H1169 H 0.23456 0.79414 -0.00137 0.0
H1170 H 0.18603 0.7678 0.04652 0.0
H1171 H 0.23315 0.76616 -0.00523 0.0
H1172 H 0.23398 0.72035 0.07555 0.0
H1173 H 0.23306 0.74777 0.06017 0.0
H1174 H 0.18694 0.74325 0.00099 0.0
H1175 H 0.1877 0.71546 0.0177 0.0
C1176 C 0.19725 0.78958 0.03574 0.0
C1177 C 0.21112 0.79721 0.02455 0.0
C1178 C 0.19652 0.77344 0.03451 0.0
C1179 C 0.20961 0.76472 0.02154 0.0
C1180 C 0.22301 0.7725 0.00634 0.0
C1181 C 0.22381 0.78854 0.0083 0.0
C1182 C 0.22363 0.72509 0.05896 0.0
C1183 C 0.2109 0.71566 0.04791 0.0
C1184 C 0.22316 0.74087 0.04969 0.0
C1185 C 0.20998 0.74772 0.0288 0.0
C1186 C 0.19724 0.73832 0.01727 0.0
C1187 C 0.19771 0.72241 0.02664 0.0
H1188 H 0.46515 0.93807 0.29646 0.0
H1189 H 0.46622 0.9815 0.21862 0.0
H1190 H 0.49341 0.93761 0.29772 0.0
H1191 H 0.49429 0.98083 0.21843 0.0
H1192 H 0.5374 0.9886 0.31245 0.0
H1193 H 0.51063 0.98527 0.28991 0.0
H1194 H 0.51919 0.93744 0.25461 0.0
H1195 H 0.54641 0.94076 0.27807 0.0
C1196 C 0.47142 0.94722 0.27813 0.0
C1197 C 0.46353 0.95997 0.25829 0.0
C1198 C 0.4876 0.94696 0.27877 0.0
C1199 C 0.49607 0.95937 0.25918 0.0
C1200 C 0.48809 0.97129 0.23496 0.0
C1201 C 0.47201 0.97165 0.23489 0.0
C1202 C 0.5337 0.97735 0.29964 0.0
C1203 C 0.54408 0.96492 0.29727 0.0
C1204 C 0.51832 0.97549 0.28617 0.0
C1205 C 0.5128 0.96113 0.26991 0.0
C1206 C 0.52314 0.94865 0.26699 0.0
C1207 C 0.5387 0.95056 0.28023 0.0
H1208 H 0.3062 0.21308 0.55481 0.0
H1209 H 0.25987 0.21397 0.49618 0.0
H1210 H 0.30755 0.24121 0.54797 0.0
H1211 H 0.26141 0.24183 0.4871 0.0
H1212 H 0.25909 0.28896 0.55897 0.0
H1213 H 0.26023 0.26136 0.54805 0.0
H1214 H 0.30757 0.26496 0.49947 0.0
H1215 H 0.30658 0.29294 0.51192 0.0
C1216 C 0.29651 0.21926 0.53906 0.0
C1217 C 0.28283 0.21144 0.52684 0.0
C1218 C 0.29728 0.23536 0.53501 0.0
C1219 C 0.28445 0.24381 0.51805 0.0
C1220 C 0.27132 0.23573 0.50176 0.0
C1221 C 0.27046 0.21976 0.50665 0.0
C1222 C 0.26976 0.28397 0.5456 0.0
C1223 C 0.28275 0.29322 0.53638 0.0
C1224 C 0.27037 0.26808 0.53887 0.0
C1225 C 0.28395 0.26091 0.52231 0.0
C1226 C 0.29696 0.27012 0.51247 0.0
C1227 C 0.29636 0.28614 0.51939 0.0
H1228 H 0.9532 0.06452 0.759 0.0
H1229 H 0.95903 0.01519 0.7733 0.0
H1230 H 0.98073 0.06712 0.74026 0.0
H1231 H 0.98621 0.0178 0.75621 0.0
H1232 H 0.03309 0.02157 0.70671 0.0
H1233 H 0.00522 0.02342 0.69647 0.0
H1234 H 0.0049 0.0649 0.7849 0.0
H1235 H 0.03295 0.06341 0.7928 0.0
C1236 C 0.96029 0.05424 0.7577 0.0
C1237 C 0.95391 0.03966 0.76797 0.0
C1238 C 0.97606 0.05574 0.74716 0.0
C1239 C 0.98571 0.04268 0.74648 0.0
C1240 C 0.97915 0.02811 0.75528 0.0
C1241 C 0.9635 0.02662 0.76571 0.0
C1242 C 0.02709 0.03135 0.72257 0.0
C1243 C 0.03509 0.04224 0.75105 0.0
C1244 C 0.01111 0.03235 0.71709 0.0
C1245 C 0.00275 0.04404 0.74113 0.0
C1246 C 0.01095 0.05574 0.76585 0.0
C1247 C 0.02703 0.0549 0.77047 0.0
H1248 H 0.75729 0.72103 -0.00208 0.0
H1249 H 0.80649 0.71287 -0.00079 0.0
H1250 H 0.76164 0.74769 0.97664 0.0
H1251 H 0.81091 0.73983 0.97621 0.0
H1252 H 0.80764 0.79213 0.0284 0.0
H1253 H 0.80869 0.76419 0.01848 0.0
H1254 H 0.76973 0.7663 0.91886 0.0
H1255 H 0.76821 0.79409 0.93133 0.0
C1256 C 0.76907 0.72486 -0.00731 0.0
C1257 C 0.78154 0.71484 0.00097 0.0
C1258 C 0.77159 0.74019 0.9798 0.0
C1259 C 0.78666 0.74599 0.97454 0.0
C1260 C 0.79917 0.73578 0.98037 0.0
C1261 C 0.79663 0.72033 -0.00666 0.0
C1262 C 0.7997 0.78664 0.00297 0.0
C1263 C 0.7877 0.79514 0.9812 0.0
C1264 C 0.80028 0.77061 -0.00278 0.0
C1265 C 0.78899 0.76292 0.96899 0.0
C1266 C 0.77828 0.77179 0.94216 0.0
C1267 C 0.77749 0.78772 0.94884 0.0
H1268 H 0.68524 0.2118 0.55114 0.0
H1269 H 0.72667 0.2105 0.46333 0.0
H1270 H 0.68449 0.2399 0.54333 0.0
H1271 H 0.72553 0.23838 0.45301 0.0
H1272 H 0.73554 0.28431 0.52832 0.0
H1273 H 0.73198 0.25719 0.51256 0.0
H1274 H 0.68277 0.26416 0.49844 0.0
H1275 H 0.68634 0.29168 0.51589 0.0
C1276 C 0.6938 0.21749 0.52844 0.0
C1277 C 0.70613 0.2091 0.50839 0.0
C1278 C 0.69338 0.23359 0.52388 0.0
C1279 C 0.70519 0.24145 0.4986 0.0
C1280 C 0.71653 0.23275 0.47405 0.0
C1281 C 0.71713 0.21678 0.47953 0.0
C1282 C 0.72393 0.28019 0.52144 0.0
C1283 C 0.71122 0.29021 0.52374 0.0
C1284 C 0.72189 0.26456 0.51178 0.0
C1285 C 0.70708 0.25844 0.50376 0.0
C1286 C 0.69433 0.2685 0.50468 0.0
C1287 C 0.69638 0.28426 0.51447 0.0
H1288 H 0.76226 0.2906 0.10067 0.0
H1289 H 0.81174 0.29517 0.11564 0.0
H1290 H 0.76424 0.26325 0.11551 0.0
H1291 H 0.81369 0.26742 0.13208 0.0
H1292 H 0.80836 0.21548 0.07666 0.0
H1293 H 0.8107 0.24347 0.08562 0.0
H1294 H 0.76944 0.24394 0.17499 0.0
H1295 H 0.76674 0.21621 0.16362 0.0
C1296 C 0.77359 0.28581 0.10791 0.0
C1297 C 0.78686 0.29511 0.1066 0.0
C1298 C 0.77471 0.27006 0.11703 0.0
C1299 C 0.78912 0.26309 0.12545 0.0
C1300 C 0.80242 0.27242 0.12552 0.0
C1301 C 0.80129 0.28831 0.11633 0.0
C1302 C 0.80009 0.22157 0.09938 0.0
C1303 C 0.78725 0.21382 0.11885 0.0
C1304 C 0.80142 0.2376 0.10461 0.0
C1305 C 0.79003 0.24601 0.12997 0.0
C1306 C 0.77815 0.23789 0.15392 0.0
C1307 C 0.77666 0.222 0.1478 0.0
H1308 H 0.72819 0.71723 0.64998 0.0
H1309 H 0.67914 0.71333 0.62376 0.0
H1310 H 0.72527 0.74436 0.66709 0.0
H1311 H 0.67607 0.7408 0.64248 0.0
H1312 H 0.72155 0.79184 0.69884 0.0
H1313 H 0.71631 0.76476 0.71638 0.0
H1314 H 0.68267 0.76398 0.59843 0.0
H1315 H 0.68731 0.79131 0.58329 0.0
C1316 C 0.71668 0.72212 0.64895 0.0
C1317 C 0.70394 0.71316 0.63466 0.0
C1318 C 0.71495 0.73773 0.65945 0.0
C1319 C 0.70041 0.74488 0.65613 0.0
C1320 C 0.68746 0.73571 0.6449 0.0
C1321 C 0.6892 0.71996 0.63441 0.0
C1322 C 0.71254 0.786 0.67828 0.0
C1323 C 0.70493 0.79352 0.63945 0.0
C1324 C 0.70964 0.77046 0.6879 0.0
C1325 C 0.69947 0.76203 0.65767 0.0
C1326 C 0.69059 0.77006 0.62247 0.0
C1327 C 0.69323 0.78575 0.61369 0.0
H1328 H 0.53228 0.48827 0.7545 0.0
H1329 H 0.53902 0.44681 0.8406 0.0
H1330 H 0.50478 0.48684 0.76878 0.0
H1331 H 0.51113 0.44557 0.85577 0.0
H1332 H 0.45955 0.4915 0.84051 0.0
H1333 H 0.48754 0.49065 0.83781 0.0
H1334 H 0.48592 0.44149 0.81229 0.0
H1335 H 0.45766 0.44228 0.81639 0.0
C1336 C 0.52791 0.47886 0.77675 0.0
C1337 C 0.53791 0.46772 0.79675 0.0
C1338 C 0.5121 0.4781 0.78522 0.0
C1339 C 0.5058 0.46625 0.81417 0.0
C1340 C 0.51568 0.45485 0.83335 0.0
C1341 C 0.53162 0.45559 0.82476 0.0
C1342 C 0.46514 0.48046 0.83494 0.0
C1343 C 0.45641 0.467 0.82788 0.0
C1344 C 0.48119 0.47998 0.83318 0.0
C1345 C 0.48893 0.46606 0.82366 0.0
C1346 C 0.48027 0.45239 0.81964 0.0
C1347 C 0.46411 0.45285 0.8219 0.0
H1348 H 0.9585 0.51832 0.29228 0.0
H1349 H 0.95231 0.56422 0.35141 0.0
H1350 H 0.98592 0.52002 0.30751 0.0
H1351 H 0.9801 0.56577 0.36782 0.0
H1352 H 0.03313 0.56672 0.3239 0.0
H1353 H 0.00488 0.5673 0.32305 0.0
H1354 H 0.00391 0.52017 0.37484 0.0
H1355 H 0.03195 0.51944 0.37405 0.0
C1356 C 0.96295 0.52876 0.309 0.0
C1357 C 0.95314 0.54113 0.32072 0.0
C1358 C 0.97874 0.52968 0.31814 0.0
C1359 C 0.98521 0.54294 0.33955 0.0
C1360 C 0.97546 0.5554 0.35121 0.0
C1361 C 0.95955 0.55448 0.34196 0.0
C1362 C 0.02684 0.55661 0.336 0.0
C1363 C 0.03471 0.54295 0.34821 0.0
C1364 C 0.01067 0.55694 0.33561 0.0
C1365 C 0.00215 0.54367 0.34785 0.0
C1366 C 0.01012 0.53045 0.36384 0.0
C1367 C 0.02619 0.53006 0.36364 0.0
H1368 H 0.95929 0.44514 0.79737 0.0
H1369 H 0.96013 0.49195 0.7429 0.0
H1370 H 0.98753 0.44454 0.79625 0.0
H1371 H 0.98816 0.49119 0.74013 0.0
H1372 H 0.034 0.49351 0.82145 0.0
H1373 H 0.00656 0.49195 0.80618 0.0
H1374 H 0.01198 0.44563 0.75008 0.0
H1375 H 0.03976 0.44704 0.76657 0.0
C1376 C 0.9655 0.45513 0.7839 0.0
C1377 C 0.95755 0.46869 0.77108 0.0
C1378 C 0.98166 0.45478 0.78313 0.0
C1379 C 0.99009 0.46794 0.76908 0.0
C1380 C 0.98203 0.48102 0.75247 0.0
C1381 C 0.96596 0.48143 0.75382 0.0
C1382 C 0.02945 0.48298 0.80558 0.0
C1383 C 0.03913 0.4704 0.79528 0.0
C1384 C 0.01366 0.48214 0.7964 0.0
C1385 C 0.00707 0.46872 0.77639 0.0
C1386 C 0.01671 0.45611 0.76568 0.0
C1387 C 0.03261 0.45695 0.77493 0.0
H1388 H 0.45498 0.5623 0.27109 0.0
H1389 H 0.46178 0.52122 0.35894 0.0
H1390 H 0.4829 0.56361 0.25631 0.0
H1391 H 0.48929 0.5227 0.345 0.0
H1392 H 0.53442 0.5177 0.2729 0.0
H1393 H 0.50644 0.51864 0.27565 0.0
H1394 H 0.50819 0.56784 0.3001 0.0
H1395 H 0.53646 0.56696 0.296 0.0
C1396 C 0.4624 0.55363 0.28741 0.0
C1397 C 0.45612 0.54156 0.31574 0.0
C1398 C 0.47836 0.5544 0.27904 0.0
C1399 C 0.48825 0.54311 0.29877 0.0
C1400 C 0.48195 0.53135 0.32814 0.0
C1401 C 0.46613 0.53056 0.33639 0.0
C1402 C 0.52887 0.52877 0.27826 0.0
C1403 C 0.53764 0.54222 0.28503 0.0
C1404 C 0.51282 0.5293 0.28004 0.0
C1405 C 0.50512 0.54325 0.28927 0.0
C1406 C 0.51381 0.55691 0.29299 0.0
C1407 C 0.52997 0.55641 0.29074 0.0
H1408 H 0.21219 0.13047 0.21233 0.0
H1409 H 0.25772 0.14786 0.17864 0.0
H1410 H 0.22109 0.12334 0.29472 0.0
H1411 H 0.26626 0.14181 0.26072 0.0
H1412 H 0.28077 0.13416 0.41102 0.0
H1413 H 0.27292 0.12685 0.32768 0.0
H1414 H 0.22558 0.13807 0.36362 0.0
H1415 H 0.23319 0.14426 0.44635 0.0
C1416 C 0.22409 0.13266 0.22236 0.0
C1417 C 0.23412 0.14007 0.18941 0.0
C1418 C 0.22922 0.12863 0.2696 0.0
C1419 C 0.24434 0.1323 0.28508 0.0
C1420 C 0.25461 0.13861 0.25052 0.0
C1421 C 0.2496 0.14232 0.20326 0.0
C1422 C 0.26865 0.13467 0.40122 0.0
C1423 C 0.2577 0.14022 0.43485 0.0
C1424 C 0.26413 0.13056 0.35341 0.0
C1425 C 0.24864 0.13223 0.33823 0.0
C1426 C 0.23758 0.13648 0.37347 0.0
C1427 C 0.24204 0.1403 0.42116 0.0
H1428 H 0.10317 0.96725 0.48213 0.0
H1429 H 0.1178 0.01036 0.41782 0.0
H1430 H 0.11015 0.97675 0.56343 0.0
H1431 H 0.12551 0.01973 0.49891 0.0
H1432 H 0.1023 0.03781 0.64413 0.0
H1433 H 0.10932 0.0286 0.56259 0.0
H1434 H 0.12637 0.98615 0.62646 0.0
H1435 H 0.11861 0.99519 0.70778 0.0
C1436 C 0.10852 0.9785 0.48521 0.0
C1437 C 0.10963 0.98821 0.44407 0.0
C1438 C 0.1126 0.98399 0.53188 0.0
C1439 C 0.11807 -0.0008 0.53796 0.0
C1440 C 0.12091 0.00815 0.49575 0.0
C1441 C 0.11659 0.00276 0.44929 0.0
C1442 C 0.10804 0.02676 0.64084 0.0
C1443 C 0.10961 0.01706 0.68186 0.0
C1444 C 0.11214 0.02144 0.59403 0.0
C1445 C 0.11808 0.00642 0.58772 0.0
C1446 C 0.1214 -0.00244 0.6298 0.0
C1447 C 0.11706 0.00278 0.67639 0.0
H1448 H 0.21082 0.87025 0.89184 0.0
H1449 H 0.25885 0.86531 0.93235 0.0
H1450 H 0.21853 0.87554 0.80688 0.0
H1451 H 0.26641 0.86951 0.84831 0.0
H1452 H 0.27964 0.87553 0.69483 0.0
H1453 H 0.26998 0.88287 0.77605 0.0
H1454 H 0.22695 0.85946 0.74451 0.0
H1455 H 0.23619 0.85313 0.66329 0.0
C1456 C 0.22299 0.87047 0.88281 0.0
C1457 C 0.23417 0.86694 0.91856 0.0
C1458 C 0.22744 0.8734 0.83407 0.0
C1459 C 0.2431 0.87258 0.82018 0.0
C1460 C 0.25426 0.87036 0.8571 0.0
C1461 C 0.24986 0.8677 0.9056 0.0
C1462 C 0.26804 0.87223 0.7052 0.0
C1463 C 0.25879 0.86354 0.67305 0.0
C1464 C 0.26248 0.87638 0.75175 0.0
C1465 C 0.24773 0.87157 0.76745 0.0
C1466 C 0.23825 0.86362 0.73392 0.0
C1467 C 0.24366 0.85979 0.68726 0.0
H1468 H 0.38906 0.02951 0.95895 0.0
H1469 H 0.38194 0.98504 0.89068 0.0
H1470 H 0.38463 0.01806 0.03947 0.0
H1471 H 0.37709 0.97362 0.97122 0.0
H1472 H 0.40139 0.95906 0.12037 0.0
H1473 H 0.39459 0.96753 0.0373 0.0
H1474 H 0.36853 0.0055 0.09845 0.0
H1475 H 0.37591 -0.00269 0.18115 0.0
C1476 C 0.38606 0.0174 0.961 0.0
C1477 C 0.38616 0.00814 0.91864 0.0
C1478 C 0.38343 0.0108 0.00721 0.0
C1479 C 0.38071 0.99483 0.01188 0.0
C1480 C 0.37948 0.98587 0.96898 0.0
C1481 C 0.38221 0.99244 0.92285 0.0
C1482 C 0.39375 0.96885 0.11591 0.0
C1483 C 0.38935 0.97769 0.15675 0.0
C1484 C 0.38982 0.97375 0.06835 0.0
C1485 C 0.3813 0.98744 0.06124 0.0
C1486 C 0.37545 0.99517 0.10263 0.0
C1487 C 0.37956 0.99042 0.14994 0.0
H1488 H 0.78293 0.87579 0.91277 0.0
H1489 H 0.73458 0.86542 0.93289 0.0
H1490 H 0.77752 0.8843 0.82879 0.0
H1491 H 0.72935 0.87276 0.84913 0.0
H1492 H 0.72082 0.87462 0.69531 0.0
H1493 H 0.72703 0.88565 0.77573 0.0
H1494 H 0.77381 0.86867 0.76189 0.0
H1495 H 0.76787 0.85875 0.68147 0.0
C1496 C 0.77112 0.8756 0.89966 0.0
C1497 C 0.75931 0.86931 0.92877 0.0
C1498 C 0.768 0.88039 0.85135 0.0
C1499 C 0.75311 0.87859 0.83103 0.0
C1500 C 0.74101 0.87427 0.86266 0.0
C1501 C 0.74406 0.86979 0.911 0.0
C1502 C 0.73255 0.87375 0.70894 0.0
C1503 C 0.74369 0.86527 0.68297 0.0
C1504 C 0.73611 0.87998 0.75523 0.0
C1505 C 0.75078 0.87755 0.7766 0.0
C1506 C 0.76236 0.8708 0.74745 0.0
C1507 C 0.75887 0.86483 0.70116 0.0
H1508 H 0.88988 0.03859 0.64443 0.0
H1509 H 0.8714 0.99659 0.70625 0.0
H1510 H 0.88433 0.02908 0.56184 0.0
H1511 H 0.86528 0.98725 0.62381 0.0
H1512 H 0.8887 0.9674 0.48172 0.0
H1513 H 0.88254 0.97753 0.56299 0.0
H1514 H 0.86778 0.02051 0.49706 0.0
H1515 H 0.87448 0.01051 0.41598 0.0
C1516 C 0.88407 0.0276 0.64036 0.0
C1517 C 0.88136 0.01818 0.68144 0.0
C1518 C 0.88083 0.02212 0.59302 0.0
C1519 C 0.87465 0.00723 0.58617 0.0
C1520 C 0.87042 -0.00142 0.62777 0.0
C1521 C 0.87384 0.00396 0.67495 0.0
C1522 C 0.88374 0.97884 0.48454 0.0
C1523 C 0.88237 0.98828 0.44283 0.0
C1524 C 0.88013 0.98466 0.53112 0.0
C1525 C 0.87491 -3e-05 0.53662 0.0
C1526 C 0.87213 0.00883 0.4942 0.0
C1527 C 0.87591 0.00307 0.44779 0.0
H1528 H 0.77871 0.13226 0.20948 0.0
H1529 H 0.73213 0.14801 0.1825 0.0
H1530 H 0.7707 0.12244 0.28989 0.0
H1531 H 0.72444 0.13932 0.26267 0.0
H1532 H 0.71127 0.13039 0.41086 0.0
H1533 H 0.71894 0.12329 0.32736 0.0
H1534 H 0.76622 0.1352 0.36237 0.0
H1535 H 0.75879 0.14108 0.44545 0.0
C1536 C 0.76676 0.13348 0.22042 0.0
C1537 C 0.75621 0.14137 0.19027 0.0
C1538 C 0.76215 0.12791 0.2666 0.0
C1539 C 0.74699 0.13044 0.28378 0.0
C1540 C 0.73618 0.13701 0.25131 0.0
C1541 C 0.7407 0.14229 0.20516 0.0
C1542 C 0.72336 0.13101 0.40094 0.0
C1543 C 0.7343 0.13686 0.43421 0.0
C1544 C 0.72778 0.12704 0.35296 0.0
C1545 C 0.74314 0.12923 0.33719 0.0
C1546 C 0.75429 0.13336 0.37246 0.0
C1547 C 0.74994 0.137 0.42039 0.0
H1548 H 0.62673 0.98211 0.20388 0.0
H1549 H 0.59682 0.02099 0.23145 0.0
H1550 H 0.63316 0.99277 0.12323 0.0
H1551 H 0.60223 0.03105 0.1503 0.0
H1552 H 0.60877 0.04673 0.00017 0.0
H1553 H 0.61623 0.04148 0.08561 0.0
H1554 H 0.61927 0.9928 0.05141 0.0
H1555 H 0.61287 -0.00184 0.96702 0.0
C1556 C 0.62162 0.99297 0.19277 0.0
C1557 C 0.61102 0.00053 0.22338 0.0
C1558 C 0.62525 -0.00091 0.14654 0.0
C1559 C 0.61792 0.01261 0.12941 0.0
C1560 C 0.60825 0.02073 0.1619 0.0
C1561 C 0.60497 0.01483 0.20848 0.0
C1562 C 0.61152 0.03501 0.01088 0.0
C1563 C 0.60976 0.02281 0.97734 0.0
C1564 C 0.61568 0.03195 0.05988 0.0
C1565 C 0.61797 0.01665 0.07605 0.0
C1566 C 0.6177 0.00475 0.04093 0.0
C1567 C 0.61375 0.00781 -0.00774 0.0
H1568 H 0.73346 0.63289 0.96691 0.0
H1569 H 0.77648 0.64637 0.89941 0.0
H1570 H 0.72362 0.62455 0.88705 0.0
H1571 H 0.76652 0.63864 0.81927 0.0
H1572 H 0.74745 0.62852 0.67699 0.0
H1573 H 0.75654 0.62144 0.759 0.0
H1574 H 0.71486 0.64057 0.82175 0.0
H1575 H 0.70562 0.64702 0.73962 0.0
C1576 C 0.74094 0.63372 0.93504 0.0
C1577 C 0.75561 0.64056 0.93895 0.0
C1578 C 0.73528 0.62901 0.8893 0.0
C1579 C 0.74409 0.63128 0.84651 0.0
C1580 C 0.75939 0.63663 0.85138 0.0
C1581 C 0.76513 0.64114 0.89734 0.0
C1582 C 0.74001 0.63067 0.70832 0.0
C1583 C 0.72598 0.63858 0.70231 0.0
C1584 C 0.74526 0.62671 0.75528 0.0
C1585 C 0.73666 0.63083 0.7971 0.0
C1586 C 0.72181 0.63716 0.79046 0.0
C1587 C 0.71647 0.64092 0.74332 0.0
H1588 H 0.60882 0.5439 0.13246 0.0
H1589 H 0.60235 0.49619 0.17422 0.0
H1590 H 0.61356 0.53578 0.0475 0.0
H1591 H 0.60617 0.48826 0.09023 0.0
H1592 H 0.61561 0.47459 0.93779 0.0
H1593 H 0.62108 0.48442 0.02039 0.0
H1594 H 0.59766 0.52701 0.98376 0.0
H1595 H 0.59306 0.51758 0.90131 0.0
C1596 C 0.60853 0.53171 0.12367 0.0
C1597 C 0.60492 0.52075 0.15995 0.0
C1598 C 0.61117 0.52704 0.07498 0.0
C1599 C 0.61005 0.51135 0.06168 0.0
C1600 C 0.60735 0.5004 0.09879 0.0
C1601 C 0.60494 0.50502 0.14721 0.0
C1602 C 0.61186 0.48613 0.94738 0.0
C1603 C 0.60373 0.49521 0.91332 0.0
C1604 C 0.61495 0.49177 -0.00531 0.0
C1605 C 0.60966 0.50647 0.00913 0.0
C1606 C 0.60216 0.51576 0.97407 0.0
C1607 C 0.59934 0.51025 0.92672 0.0
H1608 H 0.71446 0.35608 0.39718 0.0
H1609 H 0.75703 0.37183 0.46305 0.0
H1610 H 0.7242 0.36306 0.31597 0.0
H1611 H 0.76659 0.37941 0.38224 0.0
H1612 H 0.7858 0.35908 0.23463 0.0
H1613 H 0.77589 0.36362 0.31721 0.0
H1614 H 0.73317 0.38078 0.25532 0.0
H1615 H 0.74295 0.37568 0.17278 0.0
C1616 C 0.72566 0.36158 0.3944 0.0
C1617 C 0.73512 0.36314 0.43603 0.0
C1618 C 0.73127 0.36565 0.34788 0.0
C1619 C 0.74634 0.37153 0.34248 0.0
C1620 C 0.75512 0.37454 0.38496 0.0
C1621 C 0.74961 0.37027 0.43123 0.0
C1622 C 0.77449 0.36426 0.2387 0.0
C1623 C 0.76503 0.36673 0.19751 0.0
C1624 C 0.76878 0.36692 0.28607 0.0
C1625 C 0.75358 0.37229 0.29293 0.0
C1626 C 0.74476 0.37627 0.25135 0.0
C1627 C 0.7504 0.37342 0.20411 0.0
H1628 H 0.89571 0.46624 0.62888 0.0
H1629 H 0.87277 0.50634 0.68804 0.0
H1630 H 0.89017 0.47521 0.54543 0.0
H1631 H 0.86669 0.51508 0.60489 0.0
H1632 H 0.88851 0.53719 0.46431 0.0
H1633 H 0.8838 0.52629 0.54562 0.0
H1634 H 0.87304 0.48223 0.47933 0.0
H1635 H 0.87817 0.49303 0.39818 0.0
C1636 C 0.88893 0.47663 0.62396 0.0
C1637 C 0.88489 0.48575 0.66455 0.0
C1638 C 0.88572 0.4818 0.57619 0.0
C1639 C 0.87827 0.49607 0.56856 0.0
C1640 C 0.8728 0.50428 0.60954 0.0
C1641 C 0.87619 0.49922 0.65709 0.0
C1642 C 0.88479 0.52529 0.46707 0.0
C1643 C 0.884 0.5159 0.42508 0.0
C1644 C 0.88201 0.51902 0.51366 0.0
C1645 C 0.87822 0.5033 0.51899 0.0
C1646 C 0.87624 0.49427 0.47654 0.0
C1647 C 0.87915 0.50049 0.43008 0.0
H1648 H 0.25467 0.37138 0.1637 0.0
H1649 H 0.21183 0.35543 0.22692 0.0
H1650 H 0.26461 0.37699 0.24573 0.0
H1651 H 0.22193 0.36058 0.30924 0.0
H1652 H 0.24098 0.37325 0.45376 0.0
H1653 H 0.23115 0.37812 0.37107 0.0
H1654 H 0.27346 0.36004 0.30969 0.0
H1655 H 0.28344 0.35562 0.39255 0.0
C1656 C 0.24729 0.3693 0.19521 0.0
C1657 C 0.23257 0.36273 0.18913 0.0
C1658 C 0.25302 0.37245 0.24217 0.0
C1659 C 0.24421 0.36897 0.28406 0.0
C1660 C 0.22901 0.36351 0.27774 0.0
C1661 C 0.2232 0.3605 0.2306 0.0
C1662 C 0.24831 0.37066 0.42253 0.0
C1663 C 0.26288 0.36383 0.42942 0.0
C1664 C 0.24264 0.37338 0.37521 0.0
C1665 C 0.25137 0.3692 0.33379 0.0
C1666 C 0.26645 0.3635 0.34079 0.0
C1667 C 0.27219 0.36092 0.38827 0.0
H1668 H 0.38575 0.46441 0.98025 0.0
H1669 H 0.39015 0.51228 0.9377 0.0
H1670 H 0.38111 0.47243 0.06536 0.0
H1671 H 0.38647 0.52015 0.0218 0.0
H1672 H 0.37776 0.53361 0.17491 0.0
H1673 H 0.37206 0.52357 0.09273 0.0
H1674 H 0.39708 0.48178 0.12793 0.0
H1675 H 0.4019 0.49139 0.21004 0.0
C1676 C 0.38559 0.4766 -0.0111 0.0
C1677 C 0.38863 0.48765 0.95236 0.0
C1678 C 0.38302 0.48122 0.03768 0.0
C1679 C 0.38365 0.49696 0.0508 0.0
C1680 C 0.3857 0.50796 0.01343 0.0
C1681 C 0.38804 0.50338 0.96493 0.0
C1682 C 0.38182 0.5222 0.16508 0.0
C1683 C 0.39044 0.51339 0.19864 0.0
C1684 C 0.3786 0.51643 0.11801 0.0
C1685 C 0.38425 0.50189 0.10329 0.0
C1686 C 0.39229 0.49288 0.13787 0.0
C1687 C 0.39524 0.4985 0.185 0.0
H1688 H 0.21431 0.64761 0.91582 0.0
H1689 H 0.25843 0.63948 -0.01426 0.0
H1690 H 0.22555 0.64131 0.83623 0.0
H1691 H 0.26959 0.6328 0.90629 0.0
H1692 H 0.28524 0.65275 0.75202 0.0
H1693 H 0.27649 0.6485 0.83638 0.0
H1694 H 0.23719 0.62295 0.78152 0.0
H1695 H 0.24571 0.62773 0.69733 0.0
C1696 C 0.22629 0.64408 0.91438 0.0
C1697 C 0.23553 0.64433 0.95686 0.0
C1698 C 0.23275 0.64036 0.86876 0.0
C1699 C 0.24855 0.63668 0.86484 0.0
C1700 C 0.25748 0.63584 0.90795 0.0
C1701 C 0.25105 0.63965 0.95346 0.0
C1702 C 0.27508 0.64573 0.75822 0.0
C1703 C 0.266 0.64077 0.71847 0.0
C1704 C 0.27002 0.64329 0.80653 0.0
C1705 C 0.25591 0.6357 0.81557 0.0
C1706 C 0.24786 0.6292 0.77571 0.0
C1707 C 0.2528 0.63182 0.72758 0.0
H1708 H 0.09604 0.54483 0.49421 0.0
H1709 H 0.11947 0.50512 0.43439 0.0
H1710 H 0.10163 0.53574 0.57756 0.0
H1711 H 0.12555 0.49625 0.51738 0.0
H1712 H 0.11452 0.51787 0.72455 0.0
H1713 H 0.11914 0.52885 0.64331 0.0
H1714 H 0.10858 0.48477 0.57685 0.0
H1715 H 0.10432 0.47371 0.65816 0.0
C1716 C 0.10291 0.5345 0.49896 0.0
C1717 C 0.1071 0.52553 0.45817 0.0
C1718 C 0.10614 0.52925 0.54666 0.0
C1719 C 0.11377 0.51507 0.55406 0.0
C1720 C 0.11931 0.50699 0.51292 0.0
C1721 C 0.11592 0.51212 0.46545 0.0
C1722 C 0.11349 0.51044 0.6926 0.0
C1723 C 0.10881 0.49497 0.69761 0.0
C1724 C 0.11609 0.51677 0.64608 0.0
C1725 C 0.11402 0.50778 0.60357 0.0
C1726 C 0.11043 0.49201 0.60885 0.0
C1727 C 0.10792 0.48565 0.65547 0.0
loop_
_geom_bond_atom_site_label_1
_geom_bond_atom_site_label_2
_geom_bond_distance
_geom_bond_site_symmetry_2
_ccdc_geom_bond_type
C0 O1 1.306 . S
C0 O3 1.160 . S
O1 C0 1.306 . S
O1 Cd2 2.228 . S
Cd2 O1 2.228 . S
Cd2 O6 2.273 . S
Cd2 O10 2.277 . S
O3 C0 1.160 . S
O3 Cd4 2.203 . S
Cd4 O3 2.203 . S
Cd4 O6 2.411 . S
Cd4 O7 2.333 1_554 S
Cd4 O8 2.352 . S
Cd4 O12 2.277 . S
Cd4 O13 2.356 . S
C5 O10 1.209 . S
C5 O12 1.226 . S
O6 Cd2 2.273 . S
O6 Cd4 2.411 . S
O6 C9 1.320 1_554 S
O7 Cd4 2.333 1_556 S
O7 C9 1.214 . S
O8 Cd4 2.352 . S
O8 C11 1.258 . S
C9 O6 1.320 1_556 S
C9 O7 1.214 . S
O10 Cd2 2.277 . S
O10 C5 1.209 . S
C11 O8 1.258 . S
C11 O13 1.282 . S
O12 Cd4 2.277 . S
O12 C5 1.226 . S
O13 Cd4 2.356 . S
O13 C11 1.282 . S
C14 O15 1.306 . S
C14 O17 1.160 . S
O15 C14 1.306 . S
O15 Cd16 2.228 1_565 S
Cd16 O15 2.228 1_545 S
Cd16 O20 2.273 1_545 S
Cd16 O24 2.277 1_545 S
O17 C14 1.160 . S
O17 Cd18 2.203 . S
Cd18 O17 2.203 . S
Cd18 O20 2.411 . S
Cd18 O21 2.333 . S
Cd18 O22 2.352 . S
Cd18 O26 2.277 . S
Cd18 O27 2.356 . S
C19 O24 1.209 . S
C19 O26 1.226 . S
O20 Cd16 2.273 1_565 S
O20 Cd18 2.411 . S
O20 C23 1.320 . S
O21 Cd18 2.333 . S
O21 C23 1.214 . S
O22 Cd18 2.352 . S
O22 C25 1.258 . S
C23 O20 1.320 . S
C23 O21 1.214 . S
O24 Cd16 2.277 1_565 S
O24 C19 1.209 . S
C25 O22 1.258 . S
C25 O27 1.282 . S
O26 Cd18 2.277 . S
O26 C19 1.226 . S
O27 Cd18 2.356 . S
O27 C25 1.282 . S
C28 O29 1.306 . S
C28 O31 1.160 . S
O29 C28 1.306 . S
O29 Cd30 2.228 . S
Cd30 O29 2.228 . S
Cd30 O34 2.273 . S
Cd30 O38 2.277 . S
O31 C28 1.160 . S
O31 Cd32 2.203 . S
Cd32 O31 2.203 . S
Cd32 O34 2.411 . S
Cd32 O35 2.333 . S
Cd32 O36 2.352 . S
Cd32 O40 2.277 . S
Cd32 O41 2.356 . S
C33 O38 1.209 . S
C33 O40 1.226 . S
O34 Cd30 2.273 . S
O34 Cd32 2.411 . S
O34 C37 1.320 . S
O35 Cd32 2.333 . S
O35 C37 1.214 . S
O36 Cd32 2.352 . S
O36 C39 1.258 . S
C37 O34 1.320 . S
C37 O35 1.214 . S
O38 Cd30 2.277 . S
O38 C33 1.209 . S
C39 O36 1.258 . S
C39 O41 1.282 . S
O40 Cd32 2.277 . S
O40 C33 1.226 . S
O41 Cd32 2.356 . S
O41 C39 1.282 . S
C42 O43 1.306 . S
C42 O45 1.160 . S
O43 C42 1.306 . S
O43 Cd44 2.228 . S
Cd44 O43 2.228 . S
Cd44 O48 2.273 . S
Cd44 O52 2.277 . S
O45 C42 1.160 . S
O45 Cd46 2.203 . S
Cd46 O45 2.203 . S
Cd46 O48 2.411 . S
Cd46 O49 2.333 . S
Cd46 O50 2.352 . S
Cd46 O54 2.277 . S
Cd46 O55 2.356 . S
C47 O52 1.209 . S
C47 O54 1.226 . S
O48 Cd44 2.273 . S
O48 Cd46 2.411 . S
O48 C51 1.320 . S
O49 Cd46 2.333 . S
O49 C51 1.214 . S
O50 Cd46 2.352 . S
O50 C53 1.258 . S
C51 O48 1.320 . S
C51 O49 1.214 . S
O52 Cd44 2.277 . S
O52 C47 1.209 . S
C53 O50 1.258 . S
C53 O55 1.282 . S
O54 Cd46 2.277 . S
O54 C47 1.226 . S
O55 Cd46 2.356 . S
O55 C53 1.282 . S
C56 O57 1.306 . S
C56 O59 1.160 . S
O57 C56 1.306 . S
O57 Cd58 2.228 . S
Cd58 O57 2.228 . S
Cd58 O62 2.273 . S
Cd58 O66 2.277 . S
O59 C56 1.160 . S
O59 Cd60 2.203 . S
Cd60 O59 2.203 . S
Cd60 O62 2.411 . S
Cd60 O63 2.333 . S
Cd60 O64 2.352 . S
Cd60 O68 2.277 . S
Cd60 O69 2.356 . S
C61 O66 1.209 . S
C61 O68 1.226 . S
O62 Cd58 2.273 . S
O62 Cd60 2.411 . S
O62 C65 1.320 . S
O63 Cd60 2.333 . S
O63 C65 1.214 . S
O64 Cd60 2.352 . S
O64 C67 1.258 . S
C65 O62 1.320 . S
C65 O63 1.214 . S
O66 Cd58 2.277 . S
O66 C61 1.209 . S
C67 O64 1.258 . S
C67 O69 1.282 . S
O68 Cd60 2.277 . S
O68 C61 1.226 . S
O69 Cd60 2.356 . S
O69 C67 1.282 . S
C70 O71 1.306 . S
C70 O73 1.160 . S
O71 C70 1.306 . S
O71 Cd72 2.228 1_565 S
Cd72 O71 2.228 1_545 S
Cd72 O76 2.273 1_545 S
Cd72 O80 2.277 1_545 S
O73 C70 1.160 . S
O73 Cd74 2.203 . S
Cd74 O73 2.203 . S
Cd74 O76 2.411 . S
Cd74 O77 2.333 . S
Cd74 O78 2.352 . S
Cd74 O82 2.277 . S
Cd74 O83 2.356 . S
C75 O80 1.209 . S
C75 O82 1.226 . S
O76 Cd72 2.273 1_565 S
O76 Cd74 2.411 . S
O76 C79 1.320 . S
O77 Cd74 2.333 . S
O77 C79 1.214 . S
O78 Cd74 2.352 . S
O78 C81 1.258 . S
C79 O76 1.320 . S
C79 O77 1.214 . S
O80 Cd72 2.277 1_565 S
O80 C75 1.209 . S
C81 O78 1.258 . S
C81 O83 1.282 . S
O82 Cd74 2.277 . S
O82 C75 1.226 . S
O83 Cd74 2.356 . S
O83 C81 1.282 . S
C84 O85 1.306 . S
C84 O87 1.160 . S
O85 C84 1.306 . S
O85 Cd86 2.228 . S
Cd86 O85 2.228 . S
Cd86 O90 2.273 . S
Cd86 O94 2.277 . S
O87 C84 1.160 . S
O87 Cd88 2.203 . S
Cd88 O87 2.203 . S
Cd88 O90 2.411 . S
Cd88 O91 2.333 . S
Cd88 O92 2.352 . S
Cd88 O96 2.277 . S
Cd88 O97 2.356 . S
C89 O94 1.209 . S
C89 O96 1.226 . S
O90 Cd86 2.273 . S
O90 Cd88 2.411 . S
O90 C93 1.320 . S
O91 Cd88 2.333 . S
O91 C93 1.214 . S
O92 Cd88 2.352 . S
O92 C95 1.258 . S
C93 O90 1.320 . S
C93 O91 1.214 . S
O94 Cd86 2.277 . S
O94 C89 1.209 . S
C95 O92 1.258 . S
C95 O97 1.282 . S
O96 Cd88 2.277 . S
O96 C89 1.226 . S
O97 Cd88 2.356 . S
O97 C95 1.282 . S
C98 O99 1.306 . S
C98 O101 1.160 . S
O99 C98 1.306 . S
O99 Cd100 2.228 . S
Cd100 O99 2.228 . S
Cd100 O104 2.273 . S
Cd100 O108 2.277 . S
O101 C98 1.160 . S
O101 Cd102 2.203 . S
Cd102 O101 2.203 . S
Cd102 O104 2.411 . S
Cd102 O105 2.333 . S
Cd102 O106 2.352 . S
Cd102 O110 2.277 . S
Cd102 O111 2.356 . S
C103 O108 1.209 . S
C103 O110 1.226 . S
O104 Cd100 2.273 . S
O104 Cd102 2.411 . S
O104 C107 1.320 . S
O105 Cd102 2.333 . S
O105 C107 1.214 . S
O106 Cd102 2.352 . S
O106 C109 1.258 . S
C107 O104 1.320 . S
C107 O105 1.214 . S
O108 Cd100 2.277 . S
O108 C103 1.209 . S
C109 O106 1.258 . S
C109 O111 1.282 . S
O110 Cd102 2.277 . S
O110 C103 1.226 . S
O111 Cd102 2.356 . S
O111 C109 1.282 . S
C112 O113 1.306 . S
C112 O115 1.160 . S
O113 C112 1.306 . S
O113 Cd114 2.228 . S
Cd114 O113 2.228 . S
Cd114 O118 2.273 . S
Cd114 O122 2.277 . S
O115 C112 1.160 . S
O115 Cd116 2.203 . S
Cd116 O115 2.203 . S
Cd116 O118 2.411 . S
Cd116 O119 2.333 . S
Cd116 O120 2.352 . S
Cd116 O124 2.277 . S
Cd116 O125 2.356 . S
C117 O122 1.209 . S
C117 O124 1.226 . S
O118 Cd114 2.273 . S
O118 Cd116 2.411 . S
O118 C121 1.320 . S
O119 Cd116 2.333 . S
O119 C121 1.214 . S
O120 Cd116 2.352 . S
O120 C123 1.258 . S
C121 O118 1.320 . S
C121 O119 1.214 . S
O122 Cd114 2.277 . S
O122 C117 1.209 . S
C123 O120 1.258 . S
C123 O125 1.282 . S
O124 Cd116 2.277 . S
O124 C117 1.226 . S
O125 Cd116 2.356 . S
O125 C123 1.282 . S
C126 O127 1.306 . S
C126 O129 1.160 . S
O127 C126 1.306 . S
O127 Cd128 2.228 . S
Cd128 O127 2.228 . S
Cd128 O132 2.273 . S
Cd128 O136 2.277 . S
O129 C126 1.160 . S
O129 Cd130 2.203 . S
Cd130 O129 2.203 . S
Cd130 O132 2.411 . S
Cd130 O133 2.333 . S
Cd130 O134 2.352 . S
Cd130 O138 2.277 . S
Cd130 O139 2.356 . S
C131 O136 1.209 . S
C131 O138 1.226 . S
O132 Cd128 2.273 . S
O132 Cd130 2.411 . S
O132 C135 1.320 . S
O133 Cd130 2.333 . S
O133 C135 1.214 . S
O134 Cd130 2.352 . S
O134 C137 1.258 . S
C135 O132 1.320 . S
C135 O133 1.214 . S
O136 Cd128 2.277 . S
O136 C131 1.209 . S
C137 O134 1.258 . S
C137 O139 1.282 . S
O138 Cd130 2.277 . S
O138 C131 1.226 . S
O139 Cd130 2.356 . S
O139 C137 1.282 . S
C140 O141 1.306 . S
C140 O143 1.160 . S
O141 C140 1.306 . S
O141 Cd142 2.228 . S
Cd142 O141 2.228 . S
Cd142 O146 2.273 . S
Cd142 O150 2.277 . S
O143 C140 1.160 . S
O143 Cd144 2.203 . S
Cd144 O143 2.203 . S
Cd144 O146 2.411 . S
Cd144 O147 2.333 . S
Cd144 O148 2.352 . S
Cd144 O152 2.277 . S
Cd144 O153 2.356 . S
C145 O150 1.209 . S
C145 O152 1.226 . S
O146 Cd142 2.273 . S
O146 Cd144 2.411 . S
O146 C149 1.320 . S
O147 Cd144 2.333 . S
O147 C149 1.214 . S
O148 Cd144 2.352 . S
O148 C151 1.258 . S
C149 O146 1.320 . S
C149 O147 1.214 . S
O150 Cd142 2.277 . S
O150 C145 1.209 . S
C151 O148 1.258 . S
C151 O153 1.282 . S
O152 Cd144 2.277 . S
O152 C145 1.226 . S
O153 Cd144 2.356 . S
O153 C151 1.282 . S
C154 O155 1.306 . S
C154 O157 1.160 . S
O155 C154 1.306 . S
O155 Cd156 2.228 1_565 S
Cd156 O155 2.228 1_545 S
Cd156 O160 2.273 1_545 S
Cd156 O164 2.277 1_545 S
O157 C154 1.160 . S
O157 Cd158 2.203 . S
Cd158 O157 2.203 . S
Cd158 O160 2.411 . S
Cd158 O161 2.333 . S
Cd158 O162 2.352 . S
Cd158 O166 2.277 . S
Cd158 O167 2.356 . S
C159 O164 1.209 . S
C159 O166 1.226 . S
O160 Cd156 2.273 1_565 S
O160 Cd158 2.411 . S
O160 C163 1.320 . S
O161 Cd158 2.333 . S
O161 C163 1.214 . S
O162 Cd158 2.352 . S
O162 C165 1.258 . S
C163 O160 1.320 . S
C163 O161 1.214 . S
O164 Cd156 2.277 1_565 S
O164 C159 1.209 . S
C165 O162 1.258 . S
C165 O167 1.282 . S
O166 Cd158 2.277 . S
O166 C159 1.226 . S
O167 Cd158 2.356 . S
O167 C165 1.282 . S
C168 O169 1.306 . S
C168 O171 1.160 . S
O169 C168 1.306 . S
O169 Cd170 2.228 . S
Cd170 O169 2.228 . S
Cd170 O174 2.273 . S
Cd170 O178 2.277 . S
O171 C168 1.160 . S
O171 Cd172 2.203 . S
Cd172 O171 2.203 . S
Cd172 O174 2.411 . S
Cd172 O175 2.333 1_554 S
Cd172 O176 2.352 . S
Cd172 O180 2.277 . S
Cd172 O181 2.356 . S
C173 O178 1.209 . S
C173 O180 1.226 . S
O174 Cd170 2.273 . S
O174 Cd172 2.411 . S
O174 C177 1.320 1_554 S
O175 Cd172 2.333 1_556 S
O175 C177 1.214 . S
O176 Cd172 2.352 . S
O176 C179 1.258 . S
C177 O174 1.320 1_556 S
C177 O175 1.214 . S
O178 Cd170 2.277 . S
O178 C173 1.209 . S
C179 O176 1.258 . S
C179 O181 1.282 . S
O180 Cd172 2.277 . S
O180 C173 1.226 . S
O181 Cd172 2.356 . S
O181 C179 1.282 . S
C182 O183 1.306 . S
C182 O185 1.160 . S
O183 C182 1.306 . S
O183 Cd184 2.228 . S
Cd184 O183 2.228 . S
Cd184 O188 2.273 . S
Cd184 O192 2.277 . S
O185 C182 1.160 . S
O185 Cd186 2.203 . S
Cd186 O185 2.203 . S
Cd186 O188 2.411 . S
Cd186 O189 2.333 . S
Cd186 O190 2.352 . S
Cd186 O194 2.277 . S
Cd186 O195 2.356 . S
C187 O192 1.209 . S
C187 O194 1.226 . S
O188 Cd184 2.273 . S
O188 Cd186 2.411 . S
O188 C191 1.320 . S
O189 Cd186 2.333 . S
O189 C191 1.214 . S
O190 Cd186 2.352 . S
O190 C193 1.258 . S
C191 O188 1.320 . S
C191 O189 1.214 . S
O192 Cd184 2.277 . S
O192 C187 1.209 . S
C193 O190 1.258 . S
C193 O195 1.282 . S
O194 Cd186 2.277 . S
O194 C187 1.226 . S
O195 Cd186 2.356 . S
O195 C193 1.282 . S
C196 O197 1.306 . S
C196 O199 1.160 . S
O197 C196 1.306 . S
O197 Cd198 2.228 . S
Cd198 O197 2.228 . S
Cd198 O202 2.273 . S
Cd198 O206 2.277 . S
O199 C196 1.160 . S
O199 Cd200 2.203 . S
Cd200 O199 2.203 . S
Cd200 O202 2.411 . S
Cd200 O203 2.333 . S
Cd200 O204 2.352 . S
Cd200 O208 2.277 . S
Cd200 O209 2.356 . S
C201 O206 1.209 . S
C201 O208 1.226 . S
O202 Cd198 2.273 . S
O202 Cd200 2.411 . S
O202 C205 1.320 . S
O203 Cd200 2.333 . S
O203 C205 1.214 . S
O204 Cd200 2.352 . S
O204 C207 1.258 . S
C205 O202 1.320 . S
C205 O203 1.214 . S
O206 Cd198 2.277 . S
O206 C201 1.209 . S
C207 O204 1.258 . S
C207 O209 1.282 . S
O208 Cd200 2.277 . S
O208 C201 1.226 . S
O209 Cd200 2.356 . S
O209 C207 1.282 . S
C210 O211 1.306 . S
C210 O213 1.160 . S
O211 C210 1.306 . S
O211 Cd212 2.228 1_565 S
Cd212 O211 2.228 1_545 S
Cd212 O216 2.273 1_545 S
Cd212 O220 2.277 1_545 S
O213 C210 1.160 . S
O213 Cd214 2.203 . S
Cd214 O213 2.203 . S
Cd214 O216 2.411 . S
Cd214 O217 2.333 . S
Cd214 O218 2.352 . S
Cd214 O222 2.277 . S
Cd214 O223 2.356 . S
C215 O220 1.209 . S
C215 O222 1.226 . S
O216 Cd212 2.273 1_565 S
O216 Cd214 2.411 . S
O216 C219 1.320 . S
O217 Cd214 2.333 . S
O217 C219 1.214 . S
O218 Cd214 2.352 . S
O218 C221 1.258 . S
C219 O216 1.320 . S
C219 O217 1.214 . S
O220 Cd212 2.277 1_565 S
O220 C215 1.209 . S
C221 O218 1.258 . S
C221 O223 1.282 . S
O222 Cd214 2.277 . S
O222 C215 1.226 . S
O223 Cd214 2.356 . S
O223 C221 1.282 . S
C224 O225 1.306 . S
C224 O227 1.160 . S
O225 C224 1.306 . S
O225 Cd226 2.228 . S
Cd226 O225 2.228 . S
Cd226 O230 2.273 . S
Cd226 O234 2.277 . S
O227 C224 1.160 . S
O227 Cd228 2.203 . S
Cd228 O227 2.203 . S
Cd228 O230 2.411 . S
Cd228 O231 2.333 . S
Cd228 O232 2.352 . S
Cd228 O236 2.277 . S
Cd228 O237 2.356 . S
C229 O234 1.209 . S
C229 O236 1.226 . S
O230 Cd226 2.273 . S
O230 Cd228 2.411 . S
O230 C233 1.320 . S
O231 Cd228 2.333 . S
O231 C233 1.214 . S
O232 Cd228 2.352 . S
O232 C235 1.258 . S
C233 O230 1.320 . S
C233 O231 1.214 . S
O234 Cd226 2.277 . S
O234 C229 1.209 . S
C235 O232 1.258 . S
C235 O237 1.282 . S
O236 Cd228 2.277 . S
O236 C229 1.226 . S
O237 Cd228 2.356 . S
O237 C235 1.282 . S
C238 O239 1.306 . S
C238 O241 1.160 . S
O239 C238 1.306 . S
O239 Cd240 2.228 . S
Cd240 O239 2.228 . S
Cd240 O244 2.273 . S
Cd240 O248 2.277 . S
O241 C238 1.160 . S
O241 Cd242 2.203 . S
Cd242 O241 2.203 . S
Cd242 O244 2.411 . S
Cd242 O245 2.333 . S
Cd242 O246 2.352 . S
Cd242 O250 2.277 . S
Cd242 O251 2.356 . S
C243 O248 1.209 . S
C243 O250 1.226 . S
O244 Cd240 2.273 . S
O244 Cd242 2.411 . S
O244 C247 1.320 . S
O245 Cd242 2.333 . S
O245 C247 1.214 . S
O246 Cd242 2.352 . S
O246 C249 1.258 . S
C247 O244 1.320 . S
C247 O245 1.214 . S
O248 Cd240 2.277 . S
O248 C243 1.209 . S
C249 O246 1.258 . S
C249 O251 1.282 . S
O250 Cd242 2.277 . S
O250 C243 1.226 . S
O251 Cd242 2.356 . S
O251 C249 1.282 . S
C252 O253 1.306 . S
C252 O255 1.160 . S
O253 C252 1.306 . S
O253 Cd254 2.228 . S
Cd254 O253 2.228 . S
Cd254 O258 2.273 . S
Cd254 O262 2.277 . S
O255 C252 1.160 . S
O255 Cd256 2.203 . S
Cd256 O255 2.203 . S
Cd256 O258 2.411 . S
Cd256 O259 2.333 1_554 S
Cd256 O260 2.352 . S
Cd256 O264 2.277 . S
Cd256 O265 2.356 . S
C257 O262 1.209 . S
C257 O264 1.226 . S
O258 Cd254 2.273 . S
O258 Cd256 2.411 . S
O258 C261 1.320 1_554 S
O259 Cd256 2.333 1_556 S
O259 C261 1.214 . S
O260 Cd256 2.352 . S
O260 C263 1.258 . S
C261 O258 1.320 1_556 S
C261 O259 1.214 . S
O262 Cd254 2.277 . S
O262 C257 1.209 . S
C263 O260 1.258 . S
C263 O265 1.282 . S
O264 Cd256 2.277 . S
O264 C257 1.226 . S
O265 Cd256 2.356 . S
O265 C263 1.282 . S
C266 O267 1.306 . S
C266 O269 1.160 . S
O267 C266 1.306 . S
O267 Cd268 2.228 . S
Cd268 O267 2.228 . S
Cd268 O272 2.273 . S
Cd268 O276 2.277 . S
O269 C266 1.160 . S
O269 Cd270 2.203 . S
Cd270 O269 2.203 . S
Cd270 O272 2.411 . S
Cd270 O273 2.333 . S
Cd270 O274 2.352 . S
Cd270 O278 2.277 . S
Cd270 O279 2.356 . S
C271 O276 1.209 . S
C271 O278 1.226 . S
O272 Cd268 2.273 . S
O272 Cd270 2.411 . S
O272 C275 1.320 . S
O273 Cd270 2.333 . S
O273 C275 1.214 . S
O274 Cd270 2.352 . S
O274 C277 1.258 . S
C275 O272 1.320 . S
C275 O273 1.214 . S
O276 Cd268 2.277 . S
O276 C271 1.209 . S
C277 O274 1.258 . S
C277 O279 1.282 . S
O278 Cd270 2.277 . S
O278 C271 1.226 . S
O279 Cd270 2.356 . S
O279 C277 1.282 . S
C280 O281 1.306 . S
C280 O283 1.160 . S
O281 C280 1.306 . S
O281 Cd282 2.228 . S
Cd282 O281 2.228 . S
Cd282 O286 2.273 . S
Cd282 O290 2.277 . S
O283 C280 1.160 . S
O283 Cd284 2.203 . S
Cd284 O283 2.203 . S
Cd284 O286 2.411 . S
Cd284 O287 2.333 . S
Cd284 O288 2.352 . S
Cd284 O292 2.277 . S
Cd284 O293 2.356 . S
C285 O290 1.209 . S
C285 O292 1.226 . S
O286 Cd282 2.273 . S
O286 Cd284 2.411 . S
O286 C289 1.320 . S
O287 Cd284 2.333 . S
O287 C289 1.214 . S
O288 Cd284 2.352 . S
O288 C291 1.258 . S
C289 O286 1.320 . S
C289 O287 1.214 . S
O290 Cd282 2.277 . S
O290 C285 1.209 . S
C291 O288 1.258 . S
C291 O293 1.282 . S
O292 Cd284 2.277 . S
O292 C285 1.226 . S
O293 Cd284 2.356 . S
O293 C291 1.282 . S
C294 O295 1.306 . S
C294 O297 1.160 . S
O295 C294 1.306 . S
O295 Cd296 2.228 . S
Cd296 O295 2.228 . S
Cd296 O300 2.273 . S
Cd296 O304 2.277 . S
O297 C294 1.160 . S
O297 Cd298 2.203 . S
Cd298 O297 2.203 . S
Cd298 O300 2.411 . S
Cd298 O301 2.333 . S
Cd298 O302 2.352 . S
Cd298 O306 2.277 . S
Cd298 O307 2.356 . S
C299 O304 1.209 . S
C299 O306 1.226 . S
O300 Cd296 2.273 . S
O300 Cd298 2.411 . S
O300 C303 1.320 . S
O301 Cd298 2.333 . S
O301 C303 1.214 . S
O302 Cd298 2.352 . S
O302 C305 1.258 . S
C303 O300 1.320 . S
C303 O301 1.214 . S
O304 Cd296 2.277 . S
O304 C299 1.209 . S
C305 O302 1.258 . S
C305 O307 1.282 . S
O306 Cd298 2.277 . S
O306 C299 1.226 . S
O307 Cd298 2.356 . S
O307 C305 1.282 . S
C308 O309 1.306 . S
C308 O311 1.160 . S
O309 C308 1.306 . S
O309 Cd310 2.228 . S
Cd310 O309 2.228 . S
Cd310 O314 2.273 . S
Cd310 O318 2.277 . S
O311 C308 1.160 . S
O311 Cd312 2.203 . S
Cd312 O311 2.203 . S
Cd312 O314 2.411 . S
Cd312 O315 2.333 . S
Cd312 O316 2.352 . S
Cd312 O320 2.277 . S
Cd312 O321 2.356 . S
C313 O318 1.209 . S
C313 O320 1.226 . S
O314 Cd310 2.273 . S
O314 Cd312 2.411 . S
O314 C317 1.320 . S
O315 Cd312 2.333 . S
O315 C317 1.214 . S
O316 Cd312 2.352 . S
O316 C319 1.258 . S
C317 O314 1.320 . S
C317 O315 1.214 . S
O318 Cd310 2.277 . S
O318 C313 1.209 . S
C319 O316 1.258 . S
C319 O321 1.282 . S
O320 Cd312 2.277 . S
O320 C313 1.226 . S
O321 Cd312 2.356 . S
O321 C319 1.282 . S
C322 O323 1.306 . S
C322 O325 1.160 . S
O323 C322 1.306 . S
O323 Cd324 2.228 . S
Cd324 O323 2.228 . S
Cd324 O328 2.273 . S
Cd324 O332 2.277 . S
O325 C322 1.160 . S
O325 Cd326 2.203 . S
Cd326 O325 2.203 . S
Cd326 O328 2.411 . S
Cd326 O329 2.333 . S
Cd326 O330 2.352 . S
Cd326 O334 2.277 . S
Cd326 O335 2.356 . S
C327 O332 1.209 . S
C327 O334 1.226 . S
O328 Cd324 2.273 . S
O328 Cd326 2.411 . S
O328 C331 1.320 . S
O329 Cd326 2.333 . S
O329 C331 1.214 . S
O330 Cd326 2.352 . S
O330 C333 1.258 . S
C331 O328 1.320 . S
C331 O329 1.214 . S
O332 Cd324 2.277 . S
O332 C327 1.209 . S
C333 O330 1.258 . S
C333 O335 1.282 . S
O334 Cd326 2.277 . S
O334 C327 1.226 . S
O335 Cd326 2.356 . S
O335 C333 1.282 . S
C336 O337 1.306 . S
C336 O339 1.160 . S
O337 C336 1.306 . S
O337 Cd338 2.228 . S
Cd338 O337 2.228 . S
Cd338 O342 2.273 . S
Cd338 O346 2.277 . S
O339 C336 1.160 . S
O339 Cd340 2.203 . S
Cd340 O339 2.203 . S
Cd340 O342 2.411 . S
Cd340 O343 2.333 . S
Cd340 O344 2.352 . S
Cd340 O348 2.277 . S
Cd340 O349 2.356 . S
C341 O346 1.209 . S
C341 O348 1.226 . S
O342 Cd338 2.273 . S
O342 Cd340 2.411 . S
O342 C345 1.320 . S
O343 Cd340 2.333 . S
O343 C345 1.214 . S
O344 Cd340 2.352 . S
O344 C347 1.258 . S
C345 O342 1.320 . S
C345 O343 1.214 . S
O346 Cd338 2.277 . S
O346 C341 1.209 . S
C347 O344 1.258 . S
C347 O349 1.282 . S
O348 Cd340 2.277 . S
O348 C341 1.226 . S
O349 Cd340 2.356 . S
O349 C347 1.282 . S
C350 O351 1.306 . S
C350 O353 1.160 . S
O351 C350 1.306 . S
O351 Cd352 2.228 . S
Cd352 O351 2.228 . S
Cd352 O356 2.273 . S
Cd352 O360 2.277 . S
O353 C350 1.160 . S
O353 Cd354 2.203 . S
Cd354 O353 2.203 . S
Cd354 O356 2.411 . S
Cd354 O357 2.333 . S
Cd354 O358 2.352 . S
Cd354 O362 2.277 . S
Cd354 O363 2.356 . S
C355 O360 1.209 . S
C355 O362 1.226 . S
O356 Cd352 2.273 . S
O356 Cd354 2.411 . S
O356 C359 1.320 . S
O357 Cd354 2.333 . S
O357 C359 1.214 . S
O358 Cd354 2.352 . S
O358 C361 1.258 . S
C359 O356 1.320 . S
C359 O357 1.214 . S
O360 Cd352 2.277 . S
O360 C355 1.209 . S
C361 O358 1.258 . S
C361 O363 1.282 . S
O362 Cd354 2.277 . S
O362 C355 1.226 . S
O363 Cd354 2.356 . S
O363 C361 1.282 . S
C364 O365 1.306 . S
C364 O367 1.160 . S
O365 C364 1.306 . S
O365 Cd366 2.228 . S
Cd366 O365 2.228 . S
Cd366 O370 2.273 . S
Cd366 O374 2.277 . S
O367 C364 1.160 . S
O367 Cd368 2.203 . S
Cd368 O367 2.203 . S
Cd368 O370 2.411 . S
Cd368 O371 2.333 . S
Cd368 O372 2.352 . S
Cd368 O376 2.277 . S
Cd368 O377 2.356 . S
C369 O374 1.209 . S
C369 O376 1.226 . S
O370 Cd366 2.273 . S
O370 Cd368 2.411 . S
O370 C373 1.320 . S
O371 Cd368 2.333 . S
O371 C373 1.214 . S
O372 Cd368 2.352 . S
O372 C375 1.258 . S
C373 O370 1.320 . S
C373 O371 1.214 . S
O374 Cd366 2.277 . S
O374 C369 1.209 . S
C375 O372 1.258 . S
C375 O377 1.282 . S
O376 Cd368 2.277 . S
O376 C369 1.226 . S
O377 Cd368 2.356 . S
O377 C375 1.282 . S
C378 O379 1.306 . S
C378 O381 1.160 . S
O379 C378 1.306 . S
O379 Cd380 2.228 . S
Cd380 O379 2.228 . S
Cd380 O384 2.273 . S
Cd380 O388 2.277 . S
O381 C378 1.160 . S
O381 Cd382 2.203 . S
Cd382 O381 2.203 . S
Cd382 O384 2.411 . S
Cd382 O385 2.333 . S
Cd382 O386 2.352 . S
Cd382 O390 2.277 . S
Cd382 O391 2.356 . S
C383 O388 1.209 . S
C383 O390 1.226 . S
O384 Cd380 2.273 . S
O384 Cd382 2.411 . S
O384 C387 1.320 . S
O385 Cd382 2.333 . S
O385 C387 1.214 . S
O386 Cd382 2.352 . S
O386 C389 1.258 . S
C387 O384 1.320 . S
C387 O385 1.214 . S
O388 Cd380 2.277 . S
O388 C383 1.209 . S
C389 O386 1.258 . S
C389 O391 1.282 . S
O390 Cd382 2.277 . S
O390 C383 1.226 . S
O391 Cd382 2.356 . S
O391 C389 1.282 . S
C392 O393 1.306 . S
C392 O395 1.160 . S
O393 C392 1.306 . S
O393 Cd394 2.228 . S
Cd394 O393 2.228 . S
Cd394 O398 2.273 . S
Cd394 O402 2.277 . S
O395 C392 1.160 . S
O395 Cd396 2.203 . S
Cd396 O395 2.203 . S
Cd396 O398 2.411 . S
Cd396 O399 2.333 . S
Cd396 O400 2.352 . S
Cd396 O404 2.277 . S
Cd396 O405 2.356 . S
C397 O402 1.209 . S
C397 O404 1.226 . S
O398 Cd394 2.273 . S
O398 Cd396 2.411 . S
O398 C401 1.320 . S
O399 Cd396 2.333 . S
O399 C401 1.214 . S
O400 Cd396 2.352 . S
O400 C403 1.258 . S
C401 O398 1.320 . S
C401 O399 1.214 . S
O402 Cd394 2.277 . S
O402 C397 1.209 . S
C403 O400 1.258 . S
C403 O405 1.282 . S
O404 Cd396 2.277 . S
O404 C397 1.226 . S
O405 Cd396 2.356 . S
O405 C403 1.282 . S
C406 O407 1.306 . S
C406 O409 1.160 . S
O407 C406 1.306 . S
O407 Cd408 2.228 . S
Cd408 O407 2.228 . S
Cd408 O412 2.273 . S
Cd408 O416 2.277 . S
O409 C406 1.160 . S
O409 Cd410 2.203 . S
Cd410 O409 2.203 . S
Cd410 O412 2.411 . S
Cd410 O413 2.333 . S
Cd410 O414 2.352 . S
Cd410 O418 2.277 . S
Cd410 O419 2.356 . S
C411 O416 1.209 . S
C411 O418 1.226 . S
O412 Cd408 2.273 . S
O412 Cd410 2.411 . S
O412 C415 1.320 . S
O413 Cd410 2.333 . S
O413 C415 1.214 . S
O414 Cd410 2.352 . S
O414 C417 1.258 . S
C415 O412 1.320 . S
C415 O413 1.214 . S
O416 Cd408 2.277 . S
O416 C411 1.209 . S
C417 O414 1.258 . S
C417 O419 1.282 . S
O418 Cd410 2.277 . S
O418 C411 1.226 . S
O419 Cd410 2.356 . S
O419 C417 1.282 . S
C420 O421 1.306 . S
C420 O423 1.160 . S
O421 C420 1.306 . S
O421 Cd422 2.228 . S
Cd422 O421 2.228 . S
Cd422 O426 2.273 . S
Cd422 O430 2.277 . S
O423 C420 1.160 . S
O423 Cd424 2.203 . S
Cd424 O423 2.203 . S
Cd424 O426 2.411 . S
Cd424 O427 2.333 1_554 S
Cd424 O428 2.352 . S
Cd424 O432 2.277 . S
Cd424 O433 2.356 . S
C425 O430 1.209 . S
C425 O432 1.226 . S
O426 Cd422 2.273 . S
O426 Cd424 2.411 . S
O426 C429 1.320 1_554 S
O427 Cd424 2.333 1_556 S
O427 C429 1.214 . S
O428 Cd424 2.352 . S
O428 C431 1.258 . S
C429 O426 1.320 1_556 S
C429 O427 1.214 . S
O430 Cd422 2.277 . S
O430 C425 1.209 . S
C431 O428 1.258 . S
C431 O433 1.282 . S
O432 Cd424 2.277 . S
O432 C425 1.226 . S
O433 Cd424 2.356 . S
O433 C431 1.282 . S
C434 O435 1.306 . S
C434 O437 1.160 . S
O435 C434 1.306 . S
O435 Cd436 2.228 . S
Cd436 O435 2.228 . S
Cd436 O440 2.273 . S
Cd436 O444 2.277 . S
O437 C434 1.160 . S
O437 Cd438 2.203 . S
Cd438 O437 2.203 . S
Cd438 O440 2.411 . S
Cd438 O441 2.333 . S
Cd438 O442 2.352 . S
Cd438 O446 2.277 . S
Cd438 O447 2.356 . S
C439 O444 1.209 . S
C439 O446 1.226 . S
O440 Cd436 2.273 . S
O440 Cd438 2.411 . S
O440 C443 1.320 . S
O441 Cd438 2.333 . S
O441 C443 1.214 . S
O442 Cd438 2.352 . S
O442 C445 1.258 . S
C443 O440 1.320 . S
C443 O441 1.214 . S
O444 Cd436 2.277 . S
O444 C439 1.209 . S
C445 O442 1.258 . S
C445 O447 1.282 . S
O446 Cd438 2.277 . S
O446 C439 1.226 . S
O447 Cd438 2.356 . S
O447 C445 1.282 . S
H448 C456 0.950 . S
H449 C461 0.950 . S
H450 C458 0.950 . S
H451 C460 0.950 . S
H452 C462 0.950 . S
H453 C464 0.950 . S
H454 C466 0.950 . S
H455 C467 0.950 . S
C456 H448 0.950 . S
C456 C457 1.386 . S
C456 C458 1.391 . S
C457 C456 1.386 . S
C457 C461 1.393 . S
C458 H450 0.950 . S
C458 C456 1.391 . S
C458 C459 1.400 . S
C459 C458 1.400 . S
C459 C460 1.398 . S
C459 C465 1.491 . S
C460 H451 0.950 . S
C460 C459 1.398 . S
C460 C461 1.391 . S
C461 H449 0.950 . S
C461 C457 1.393 . S
C461 C460 1.391 . S
C462 H452 0.950 . S
C462 C463 1.386 . S
C462 C464 1.391 . S
C463 C462 1.386 . S
C463 C467 1.393 1_554 S
C464 H453 0.950 . S
C464 C462 1.391 . S
C464 C465 1.400 1_554 S
C465 C459 1.491 . S
C465 C464 1.400 1_556 S
C465 C466 1.398 . S
C466 H454 0.950 . S
C466 C465 1.398 . S
C466 C467 1.391 . S
C467 H455 0.950 . S
C467 C463 1.393 1_556 S
C467 C466 1.391 . S
H468 C476 0.950 . S
H469 C481 0.950 . S
H470 C478 0.950 . S
H471 C480 0.950 . S
H472 C482 0.950 . S
H473 C484 0.950 . S
H474 C486 0.950 . S
H475 C487 0.950 . S
C476 H468 0.950 . S
C476 C477 1.386 . S
C476 C478 1.391 . S
C477 C476 1.386 . S
C477 C481 1.393 . S
C478 H470 0.950 . S
C478 C476 1.391 . S
C478 C479 1.400 . S
C479 C478 1.400 . S
C479 C480 1.398 . S
C479 C485 1.491 . S
C480 H471 0.950 . S
C480 C479 1.398 . S
C480 C481 1.391 . S
C481 H469 0.950 . S
C481 C477 1.393 . S
C481 C480 1.391 . S
C482 H472 0.950 . S
C482 C483 1.386 . S
C482 C484 1.391 . S
C483 C482 1.386 . S
C483 C487 1.393 . S
C484 H473 0.950 . S
C484 C482 1.391 . S
C484 C485 1.400 . S
C485 C479 1.491 . S
C485 C484 1.400 . S
C485 C486 1.398 . S
C486 H474 0.950 . S
C486 C485 1.398 . S
C486 C487 1.391 . S
C487 H475 0.950 . S
C487 C483 1.393 . S
C487 C486 1.391 . S
H488 C496 0.950 . S
H489 C501 0.950 . S
H490 C498 0.950 . S
H491 C500 0.950 . S
H492 C502 0.950 . S
H493 C504 0.950 . S
H494 C506 0.950 . S
H495 C507 0.950 . S
C496 H488 0.950 . S
C496 C497 1.386 . S
C496 C498 1.391 . S
C497 C496 1.386 . S
C497 C501 1.393 . S
C498 H490 0.950 . S
C498 C496 1.391 . S
C498 C499 1.400 . S
C499 C498 1.400 . S
C499 C500 1.398 . S
C499 C505 1.491 . S
C500 H491 0.950 . S
C500 C499 1.398 . S
C500 C501 1.391 . S
C501 H489 0.950 . S
C501 C497 1.393 . S
C501 C500 1.391 . S
C502 H492 0.950 . S
C502 C503 1.386 . S
C502 C504 1.391 . S
C503 C502 1.386 . S
C503 C507 1.393 . S
C504 H493 0.950 . S
C504 C502 1.391 . S
C504 C505 1.400 . S
C505 C499 1.491 . S
C505 C504 1.400 . S
C505 C506 1.398 . S
C506 H494 0.950 . S
C506 C505 1.398 . S
C506 C507 1.391 . S
C507 H495 0.950 . S
C507 C503 1.393 . S
C507 C506 1.391 . S
H508 C516 0.950 . S
H509 C521 0.950 . S
H510 C518 0.950 . S
H511 C520 0.950 . S
H512 C522 0.950 . S
H513 C524 0.950 . S
H514 C526 0.950 . S
H515 C527 0.950 . S
C516 H508 0.950 . S
C516 C517 1.386 . S
C516 C518 1.391 . S
C517 C516 1.386 . S
C517 C521 1.393 . S
C518 H510 0.950 . S
C518 C516 1.391 . S
C518 C519 1.400 . S
C519 C518 1.400 . S
C519 C520 1.398 . S
C519 C525 1.491 . S
C520 H511 0.950 . S
C520 C519 1.398 . S
C520 C521 1.391 . S
C521 H509 0.950 . S
C521 C517 1.393 . S
C521 C520 1.391 . S
C522 H512 0.950 . S
C522 C523 1.386 . S
C522 C524 1.391 . S
C523 C522 1.386 . S
C523 C527 1.393 . S
C524 H513 0.950 . S
C524 C522 1.391 . S
C524 C525 1.400 . S
C525 C519 1.491 . S
C525 C524 1.400 . S
C525 C526 1.398 . S
C526 H514 0.950 . S
C526 C525 1.398 . S
C526 C527 1.391 . S
C527 H515 0.950 . S
C527 C523 1.393 . S
C527 C526 1.391 . S
H528 C536 0.950 . S
H529 C541 0.950 . S
H530 C538 0.950 . S
H531 C540 0.950 . S
H532 C542 0.950 . S
H533 C544 0.950 . S
H534 C546 0.950 . S
H535 C547 0.950 . S
C536 H528 0.950 . S
C536 C537 1.386 . S
C536 C538 1.391 . S
C537 C536 1.386 . S
C537 C541 1.393 . S
C538 H530 0.950 . S
C538 C536 1.391 . S
C538 C539 1.400 . S
C539 C538 1.400 . S
C539 C540 1.398 . S
C539 C545 1.491 . S
C540 H531 0.950 . S
C540 C539 1.398 . S
C540 C541 1.391 . S
C541 H529 0.950 . S
C541 C537 1.393 . S
C541 C540 1.391 . S
C542 H532 0.950 . S
C542 C543 1.386 . S
C542 C544 1.391 . S
C543 C542 1.386 . S
C543 C547 1.393 . S
C544 H533 0.950 . S
C544 C542 1.391 . S
C544 C545 1.400 . S
C545 C539 1.491 . S
C545 C544 1.400 . S
C545 C546 1.398 . S
C546 H534 0.950 . S
C546 C545 1.398 . S
C546 C547 1.391 . S
C547 H535 0.950 . S
C547 C543 1.393 . S
C547 C546 1.391 . S
H548 C556 0.950 . S
H549 C561 0.950 . S
H550 C558 0.950 . S
H551 C560 0.950 . S
H552 C562 0.950 . S
H553 C564 0.950 . S
H554 C566 0.950 . S
H555 C567 0.949 1_554 S
C556 H548 0.950 . S
C556 C557 1.386 . S
C556 C558 1.391 . S
C557 C556 1.386 . S
C557 C561 1.393 . S
C558 H550 0.950 . S
C558 C556 1.391 . S
C558 C559 1.400 . S
C559 C558 1.400 . S
C559 C560 1.398 . S
C559 C565 1.491 . S
C560 H551 0.950 . S
C560 C559 1.398 . S
C560 C561 1.391 . S
C561 H549 0.950 . S
C561 C557 1.393 . S
C561 C560 1.391 . S
C562 H552 0.950 . S
C562 C563 1.386 . S
C562 C564 1.391 1_554 S
C563 C562 1.386 . S
C563 C567 1.393 1_554 S
C564 H553 0.950 . S
C564 C562 1.391 1_556 S
C564 C565 1.400 . S
C565 C559 1.491 . S
C565 C564 1.400 . S
C565 C566 1.398 . S
C566 H554 0.950 . S
C566 C565 1.398 . S
C566 C567 1.391 . S
C567 H555 0.949 1_556 S
C567 C563 1.393 1_556 S
C567 C566 1.391 . S
H568 C576 0.950 . S
H569 C581 0.950 . S
H570 C578 0.950 . S
H571 C580 0.950 . S
H572 C582 0.950 . S
H573 C584 0.950 . S
H574 C586 0.950 . S
H575 C587 0.950 . S
C576 H568 0.950 . S
C576 C577 1.386 . S
C576 C578 1.391 . S
C577 C576 1.386 . S
C577 C581 1.393 . S
C578 H570 0.950 . S
C578 C576 1.391 . S
C578 C579 1.400 . S
C579 C578 1.400 . S
C579 C580 1.398 . S
C579 C585 1.491 . S
C580 H571 0.950 . S
C580 C579 1.398 . S
C580 C581 1.391 . S
C581 H569 0.950 . S
C581 C577 1.393 . S
C581 C580 1.391 . S
C582 H572 0.950 . S
C582 C583 1.386 . S
C582 C584 1.391 . S
C583 C582 1.386 . S
C583 C587 1.393 . S
C584 H573 0.950 . S
C584 C582 1.391 . S
C584 C585 1.400 . S
C585 C579 1.491 . S
C585 C584 1.400 . S
C585 C586 1.398 . S
C586 H574 0.950 . S
C586 C585 1.398 . S
C586 C587 1.391 . S
C587 H575 0.950 . S
C587 C583 1.393 . S
C587 C586 1.391 . S
H588 C596 0.950 . S
H589 C601 0.950 . S
H590 C598 0.950 . S
H591 C600 0.950 . S
H592 C602 0.950 . S
H593 C604 0.950 . S
H594 C606 0.950 . S
H595 C607 0.950 . S
C596 H588 0.950 . S
C596 C597 1.386 . S
C596 C598 1.391 . S
C597 C596 1.386 . S
C597 C601 1.393 . S
C598 H590 0.950 . S
C598 C596 1.391 . S
C598 C599 1.400 . S
C599 C598 1.400 . S
C599 C600 1.398 . S
C599 C605 1.491 . S
C600 H591 0.950 . S
C600 C599 1.398 . S
C600 C601 1.391 . S
C601 H589 0.950 . S
C601 C597 1.393 . S
C601 C600 1.391 . S
C602 H592 0.950 . S
C602 C603 1.386 . S
C602 C604 1.391 . S
C603 C602 1.386 . S
C603 C607 1.393 . S
C604 H593 0.950 . S
C604 C602 1.391 . S
C604 C605 1.400 . S
C605 C599 1.491 . S
C605 C604 1.400 . S
C605 C606 1.398 . S
C606 H594 0.950 . S
C606 C605 1.398 . S
C606 C607 1.391 . S
C607 H595 0.950 . S
C607 C603 1.393 . S
C607 C606 1.391 . S
H608 C616 0.950 . S
H609 C621 0.950 . S
H610 C618 0.950 . S
H611 C620 0.950 . S
H612 C622 0.950 . S
H613 C624 0.950 . S
H614 C626 0.950 . S
H615 C627 0.950 . S
C616 H608 0.950 . S
C616 C617 1.386 . S
C616 C618 1.391 . S
C617 C616 1.386 . S
C617 C621 1.393 . S
C618 H610 0.950 . S
C618 C616 1.391 . S
C618 C619 1.400 . S
C619 C618 1.400 . S
C619 C620 1.398 . S
C619 C625 1.491 . S
C620 H611 0.950 . S
C620 C619 1.398 . S
C620 C621 1.391 . S
C621 H609 0.950 . S
C621 C617 1.393 . S
C621 C620 1.391 . S
C622 H612 0.950 . S
C622 C623 1.386 . S
C622 C624 1.391 . S
C623 C622 1.386 . S
C623 C627 1.393 . S
C624 H613 0.950 . S
C624 C622 1.391 . S
C624 C625 1.400 . S
C625 C619 1.491 . S
C625 C624 1.400 . S
C625 C626 1.398 . S
C626 H614 0.950 . S
C626 C625 1.398 . S
C626 C627 1.391 . S
C627 H615 0.950 . S
C627 C623 1.393 . S
C627 C626 1.391 . S
H628 C636 0.950 . S
H629 C641 0.950 . S
H630 C638 0.950 . S
H631 C640 0.950 . S
H632 C642 0.950 . S
H633 C644 0.950 . S
H634 C646 0.950 . S
H635 C647 0.950 . S
C636 H628 0.950 . S
C636 C637 1.386 . S
C636 C638 1.391 . S
C637 C636 1.386 . S
C637 C641 1.393 . S
C638 H630 0.950 . S
C638 C636 1.391 . S
C638 C639 1.400 . S
C639 C638 1.400 . S
C639 C640 1.398 . S
C639 C645 1.491 . S
C640 H631 0.950 . S
C640 C639 1.398 . S
C640 C641 1.391 . S
C641 H629 0.950 . S
C641 C637 1.393 . S
C641 C640 1.391 . S
C642 H632 0.950 . S
C642 C643 1.386 . S
C642 C644 1.391 . S
C643 C642 1.386 . S
C643 C647 1.393 . S
C644 H633 0.950 . S
C644 C642 1.391 . S
C644 C645 1.400 . S
C645 C639 1.491 . S
C645 C644 1.400 . S
C645 C646 1.398 . S
C646 H634 0.950 . S
C646 C645 1.398 . S
C646 C647 1.391 . S
C647 H635 0.950 . S
C647 C643 1.393 . S
C647 C646 1.391 . S
H648 C656 0.950 . S
H649 C661 0.950 . S
H650 C658 0.950 . S
H651 C660 0.950 . S
H652 C662 0.950 . S
H653 C664 0.950 . S
H654 C666 0.950 . S
H655 C667 0.950 . S
C656 H648 0.950 . S
C656 C657 1.386 . S
C656 C658 1.391 . S
C657 C656 1.386 . S
C657 C661 1.393 . S
C658 H650 0.950 . S
C658 C656 1.391 . S
C658 C659 1.400 . S
C659 C658 1.400 . S
C659 C660 1.398 . S
C659 C665 1.491 . S
C660 H651 0.950 . S
C660 C659 1.398 . S
C660 C661 1.391 . S
C661 H649 0.950 . S
C661 C657 1.393 . S
C661 C660 1.391 . S
C662 H652 0.950 . S
C662 C663 1.386 . S
C662 C664 1.391 . S
C663 C662 1.386 . S
C663 C667 1.393 1_554 S
C664 H653 0.950 . S
C664 C662 1.391 . S
C664 C665 1.400 1_554 S
C665 C659 1.491 . S
C665 C664 1.400 1_556 S
C665 C666 1.398 . S
C666 H654 0.950 . S
C666 C665 1.398 . S
C666 C667 1.391 . S
C667 H655 0.950 . S
C667 C663 1.393 1_556 S
C667 C666 1.391 . S
H668 C676 0.950 . S
H669 C681 0.950 . S
H670 C678 0.950 . S
H671 C680 0.950 . S
H672 C682 0.950 . S
H673 C684 0.950 . S
H674 C686 0.950 . S
H675 C687 0.950 . S
C676 H668 0.950 . S
C676 C677 1.386 . S
C676 C678 1.391 . S
C677 C676 1.386 . S
C677 C681 1.393 . S
C678 H670 0.950 . S
C678 C676 1.391 . S
C678 C679 1.400 . S
C679 C678 1.400 . S
C679 C680 1.398 . S
C679 C685 1.491 . S
C680 H671 0.950 . S
C680 C679 1.398 . S
C680 C681 1.391 . S
C681 H669 0.950 . S
C681 C677 1.393 . S
C681 C680 1.391 . S
C682 H672 0.950 . S
C682 C683 1.386 . S
C682 C684 1.391 . S
C683 C682 1.386 . S
C683 C687 1.393 . S
C684 H673 0.950 . S
C684 C682 1.391 . S
C684 C685 1.400 . S
C685 C679 1.491 . S
C685 C684 1.400 . S
C685 C686 1.398 . S
C686 H674 0.950 . S
C686 C685 1.398 . S
C686 C687 1.391 . S
C687 H675 0.950 . S
C687 C683 1.393 . S
C687 C686 1.391 . S
H688 C696 0.950 . S
H689 C701 0.950 . S
H690 C698 0.950 . S
H691 C700 0.950 . S
H692 C702 0.950 . S
H693 C704 0.950 . S
H694 C706 0.950 . S
H695 C707 0.950 . S
C696 H688 0.950 . S
C696 C697 1.386 . S
C696 C698 1.391 . S
C697 C696 1.386 . S
C697 C701 1.393 . S
C698 H690 0.950 . S
C698 C696 1.391 . S
C698 C699 1.400 . S
C699 C698 1.400 . S
C699 C700 1.398 . S
C699 C705 1.491 . S
C700 H691 0.950 . S
C700 C699 1.398 . S
C700 C701 1.391 . S
C701 H689 0.950 . S
C701 C697 1.393 . S
C701 C700 1.391 . S
C702 H692 0.950 . S
C702 C703 1.386 . S
C702 C704 1.391 . S
C703 C702 1.386 . S
C703 C707 1.393 . S
C704 H693 0.950 . S
C704 C702 1.391 . S
C704 C705 1.400 . S
C705 C699 1.491 . S
C705 C704 1.400 . S
C705 C706 1.398 . S
C706 H694 0.950 . S
C706 C705 1.398 . S
C706 C707 1.391 . S
C707 H695 0.950 . S
C707 C703 1.393 . S
C707 C706 1.391 . S
H708 C716 0.950 . S
H709 C721 0.950 . S
H710 C718 0.950 . S
H711 C720 0.950 . S
H712 C722 0.950 . S
H713 C724 0.950 . S
H714 C726 0.950 . S
H715 C727 0.950 . S
C716 H708 0.950 . S
C716 C717 1.386 . S
C716 C718 1.391 . S
C717 C716 1.386 . S
C717 C721 1.393 . S
C718 H710 0.950 . S
C718 C716 1.391 . S
C718 C719 1.400 . S
C719 C718 1.400 . S
C719 C720 1.398 . S
C719 C725 1.491 . S
C720 H711 0.950 . S
C720 C719 1.398 . S
C720 C721 1.391 . S
C721 H709 0.950 . S
C721 C717 1.393 . S
C721 C720 1.391 . S
C722 H712 0.950 . S
C722 C723 1.386 . S
C722 C724 1.391 . S
C723 C722 1.386 . S
C723 C727 1.393 . S
C724 H713 0.950 . S
C724 C722 1.391 . S
C724 C725 1.400 . S
C725 C719 1.491 . S
C725 C724 1.400 . S
C725 C726 1.398 . S
C726 H714 0.950 . S
C726 C725 1.398 . S
C726 C727 1.391 . S
C727 H715 0.950 . S
C727 C723 1.393 . S
C727 C726 1.391 . S
H728 C736 0.950 . S
H729 C741 0.950 . S
H730 C738 0.950 . S
H731 C740 0.950 . S
H732 C742 0.950 . S
H733 C744 0.950 . S
H734 C746 0.950 . S
H735 C747 0.950 . S
C736 H728 0.950 . S
C736 C737 1.386 . S
C736 C738 1.391 . S
C737 C736 1.386 . S
C737 C741 1.393 . S
C738 H730 0.950 . S
C738 C736 1.391 . S
C738 C739 1.400 . S
C739 C738 1.400 . S
C739 C740 1.398 . S
C739 C745 1.491 . S
C740 H731 0.950 . S
C740 C739 1.398 . S
C740 C741 1.391 . S
C741 H729 0.950 . S
C741 C737 1.393 . S
C741 C740 1.391 . S
C742 H732 0.950 . S
C742 C743 1.386 . S
C742 C744 1.391 . S
C743 C742 1.386 . S
C743 C747 1.393 . S
C744 H733 0.950 . S
C744 C742 1.391 . S
C744 C745 1.400 . S
C745 C739 1.491 . S
C745 C744 1.400 . S
C745 C746 1.398 . S
C746 H734 0.950 . S
C746 C745 1.398 . S
C746 C747 1.391 . S
C747 H735 0.950 . S
C747 C743 1.393 . S
C747 C746 1.391 . S
H748 C756 0.950 . S
H749 C761 0.950 . S
H750 C758 0.950 . S
H751 C760 0.950 . S
H752 C762 0.950 . S
H753 C764 0.950 . S
H754 C766 0.950 . S
H755 C767 0.950 . S
C756 H748 0.950 . S
C756 C757 1.386 . S
C756 C758 1.391 . S
C757 C756 1.386 . S
C757 C761 1.393 . S
C758 H750 0.950 . S
C758 C756 1.391 . S
C758 C759 1.400 . S
C759 C758 1.400 . S
C759 C760 1.398 . S
C759 C765 1.491 . S
C760 H751 0.950 . S
C760 C759 1.398 . S
C760 C761 1.391 . S
C761 H749 0.950 . S
C761 C757 1.393 . S
C761 C760 1.391 . S
C762 H752 0.950 . S
C762 C763 1.386 . S
C762 C764 1.391 1_554 S
C763 C762 1.386 . S
C763 C767 1.393 . S
C764 H753 0.950 . S
C764 C762 1.391 1_556 S
C764 C765 1.400 . S
C765 C759 1.491 . S
C765 C764 1.400 . S
C765 C766 1.398 . S
C766 H754 0.950 . S
C766 C765 1.398 . S
C766 C767 1.391 1_556 S
C767 H755 0.950 . S
C767 C763 1.393 . S
C767 C766 1.391 1_554 S
H768 C776 0.950 . S
H769 C781 0.950 . S
H770 C778 0.950 . S
H771 C780 0.950 . S
H772 C782 0.950 . S
H773 C784 0.950 . S
H774 C786 0.950 . S
H775 C787 0.950 . S
C776 H768 0.950 . S
C776 C777 1.386 . S
C776 C778 1.391 . S
C777 C776 1.386 . S
C777 C781 1.393 . S
C778 H770 0.950 . S
C778 C776 1.391 . S
C778 C779 1.400 . S
C779 C778 1.400 . S
C779 C780 1.398 . S
C779 C785 1.491 . S
C780 H771 0.950 . S
C780 C779 1.398 . S
C780 C781 1.391 . S
C781 H769 0.950 . S
C781 C777 1.393 . S
C781 C780 1.391 . S
C782 H772 0.950 . S
C782 C783 1.386 . S
C782 C784 1.391 . S
C783 C782 1.386 . S
C783 C787 1.393 . S
C784 H773 0.950 . S
C784 C782 1.391 . S
C784 C785 1.400 . S
C785 C779 1.491 . S
C785 C784 1.400 . S
C785 C786 1.398 . S
C786 H774 0.950 . S
C786 C785 1.398 . S
C786 C787 1.391 . S
C787 H775 0.950 . S
C787 C783 1.393 . S
C787 C786 1.391 . S
H788 C796 0.950 . S
H789 C801 0.950 . S
H790 C798 0.950 . S
H791 C800 0.950 . S
H792 C802 0.950 . S
H793 C804 0.950 . S
H794 C806 0.950 1_565 S
H795 C807 0.950 . S
C796 H788 0.950 . S
C796 C797 1.386 . S
C796 C798 1.391 . S
C797 C796 1.386 . S
C797 C801 1.393 1_565 S
C798 H790 0.950 . S
C798 C796 1.391 . S
C798 C799 1.400 1_565 S
C799 C798 1.400 1_545 S
C799 C800 1.398 . S
C799 C805 1.491 . S
C800 H791 0.950 . S
C800 C799 1.398 . S
C800 C801 1.391 . S
C801 H789 0.950 . S
C801 C797 1.393 1_545 S
C801 C800 1.391 . S
C802 H792 0.950 . S
C802 C803 1.386 . S
C802 C804 1.391 1_556 S
C803 C802 1.386 . S
C803 C807 1.393 . S
C804 H793 0.950 . S
C804 C802 1.391 1_554 S
C804 C805 1.400 . S
C805 C799 1.491 . S
C805 C804 1.400 . S
C805 C806 1.398 . S
C806 H794 0.950 1_545 S
C806 C805 1.398 . S
C806 C807 1.391 1_554 S
C807 H795 0.950 . S
C807 C803 1.393 . S
C807 C806 1.391 1_556 S
H808 C816 0.950 . S
H809 C821 0.950 . S
H810 C818 0.950 . S
H811 C820 0.950 . S
H812 C822 0.950 . S
H813 C824 0.950 . S
H814 C826 0.950 . S
H815 C827 0.950 . S
C816 H808 0.950 . S
C816 C817 1.386 . S
C816 C818 1.391 . S
C817 C816 1.386 . S
C817 C821 1.393 . S
C818 H810 0.950 . S
C818 C816 1.391 . S
C818 C819 1.400 . S
C819 C818 1.400 . S
C819 C820 1.398 . S
C819 C825 1.491 . S
C820 H811 0.950 . S
C820 C819 1.398 . S
C820 C821 1.391 . S
C821 H809 0.950 . S
C821 C817 1.393 . S
C821 C820 1.391 . S
C822 H812 0.950 . S
C822 C823 1.386 . S
C822 C824 1.391 . S
C823 C822 1.386 . S
C823 C827 1.393 . S
C824 H813 0.950 . S
C824 C822 1.391 . S
C824 C825 1.400 . S
C825 C819 1.491 . S
C825 C824 1.400 . S
C825 C826 1.398 . S
C826 H814 0.950 . S
C826 C825 1.398 . S
C826 C827 1.391 . S
C827 H815 0.950 . S
C827 C823 1.393 . S
C827 C826 1.391 . S
H828 C836 0.950 . S
H829 C841 0.950 . S
H830 C838 0.950 . S
H831 C840 0.950 1_565 S
H832 C842 0.950 . S
H833 C844 0.950 . S
H834 C846 0.950 . S
H835 C847 0.950 . S
C836 H828 0.950 . S
C836 C837 1.386 . S
C836 C838 1.391 . S
C837 C836 1.386 . S
C837 C841 1.393 . S
C838 H830 0.950 . S
C838 C836 1.391 . S
C838 C839 1.400 . S
C839 C838 1.400 . S
C839 C840 1.398 . S
C839 C845 1.491 . S
C840 H831 0.950 1_545 S
C840 C839 1.398 . S
C840 C841 1.391 . S
C841 H829 0.950 . S
C841 C837 1.393 . S
C841 C840 1.391 . S
C842 H832 0.950 . S
C842 C843 1.386 . S
C842 C844 1.391 . S
C843 C842 1.386 . S
C843 C847 1.393 1_565 S
C844 H833 0.950 . S
C844 C842 1.391 . S
C844 C845 1.400 1_565 S
C845 C839 1.491 . S
C845 C844 1.400 1_545 S
C845 C846 1.398 . S
C846 H834 0.950 . S
C846 C845 1.398 . S
C846 C847 1.391 . S
C847 H835 0.950 . S
C847 C843 1.393 1_545 S
C847 C846 1.391 . S
H848 C856 0.950 . S
H849 C861 0.950 . S
H850 C858 0.950 . S
H851 C860 0.950 . S
H852 C862 0.950 . S
H853 C864 0.950 . S
H854 C866 0.950 . S
H855 C867 0.950 . S
C856 H848 0.950 . S
C856 C857 1.386 . S
C856 C858 1.391 . S
C857 C856 1.386 . S
C857 C861 1.393 . S
C858 H850 0.950 . S
C858 C856 1.391 . S
C858 C859 1.400 . S
C859 C858 1.400 . S
C859 C860 1.398 . S
C859 C865 1.491 . S
C860 H851 0.950 . S
C860 C859 1.398 . S
C860 C861 1.391 . S
C861 H849 0.950 . S
C861 C857 1.393 . S
C861 C860 1.391 . S
C862 H852 0.950 . S
C862 C863 1.386 . S
C862 C864 1.391 . S
C863 C862 1.386 . S
C863 C867 1.393 . S
C864 H853 0.950 . S
C864 C862 1.391 . S
C864 C865 1.400 . S
C865 C859 1.491 . S
C865 C864 1.400 . S
C865 C866 1.398 . S
C866 H854 0.950 . S
C866 C865 1.398 . S
C866 C867 1.391 . S
C867 H855 0.950 . S
C867 C863 1.393 . S
C867 C866 1.391 . S
H868 C876 0.950 . S
H869 C881 0.950 . S
H870 C878 0.950 . S
H871 C880 0.950 . S
H872 C882 0.950 . S
H873 C884 0.955 . S
H874 C886 0.950 . S
H875 C887 0.950 . S
C876 H868 0.950 . S
C876 C877 1.386 . S
C876 C878 1.391 1_556 S
C877 C876 1.386 . S
C877 C881 1.393 . S
C878 H870 0.950 . S
C878 C876 1.391 1_554 S
C878 C879 1.400 . S
C879 C878 1.400 . S
C879 C880 1.398 . S
C879 C885 1.491 . S
C880 H871 0.950 . S
C880 C879 1.398 . S
C880 C881 1.391 1_554 S
C881 H869 0.950 . S
C881 C877 1.393 . S
C881 C880 1.391 1_556 S
C882 H872 0.950 . S
C882 C883 1.386 . S
C882 C884 1.384 1_565 S
C883 C882 1.386 . S
C883 C887 1.393 . S
C884 H873 0.955 . S
C884 C882 1.384 1_545 S
C884 C885 1.403 . S
C885 C879 1.491 . S
C885 C884 1.403 . S
C885 C886 1.398 1_545 S
C886 H874 0.950 . S
C886 C885 1.398 1_565 S
C886 C887 1.391 . S
C887 H875 0.950 . S
C887 C883 1.393 . S
C887 C886 1.391 . S
H888 C896 0.950 . S
H889 C901 0.950 . S
H890 C898 0.950 . S
H891 C900 0.950 . S
H892 C902 0.950 . S
H893 C904 0.950 . S
H894 C906 0.950 . S
H895 C907 0.950 . S
C896 H888 0.950 . S
C896 C897 1.386 . S
C896 C898 1.391 . S
C897 C896 1.386 . S
C897 C901 1.393 . S
C898 H890 0.950 . S
C898 C896 1.391 . S
C898 C899 1.400 . S
C899 C898 1.400 . S
C899 C900 1.398 . S
C899 C905 1.491 . S
C900 H891 0.950 . S
C900 C899 1.398 . S
C900 C901 1.391 . S
C901 H889 0.950 . S
C901 C897 1.393 . S
C901 C900 1.391 . S
C902 H892 0.950 . S
C902 C903 1.386 . S
C902 C904 1.391 . S
C903 C902 1.386 . S
C903 C907 1.393 . S
C904 H893 0.950 . S
C904 C902 1.391 . S
C904 C905 1.400 . S
C905 C899 1.491 . S
C905 C904 1.400 . S
C905 C906 1.398 . S
C906 H894 0.950 . S
C906 C905 1.398 . S
C906 C907 1.391 . S
C907 H895 0.950 . S
C907 C903 1.393 . S
C907 C906 1.391 . S
H908 C916 0.950 . S
H909 C921 0.950 . S
H910 C918 0.950 . S
H911 C920 0.950 1_565 S
H912 C922 0.950 . S
H913 C924 0.950 . S
H914 C926 0.950 . S
H915 C927 0.950 . S
C916 H908 0.950 . S
C916 C917 1.386 . S
C916 C918 1.391 . S
C917 C916 1.386 . S
C917 C921 1.393 . S
C918 H910 0.950 . S
C918 C916 1.391 . S
C918 C919 1.400 . S
C919 C918 1.400 . S
C919 C920 1.398 . S
C919 C925 1.491 . S
C920 H911 0.950 1_545 S
C920 C919 1.398 . S
C920 C921 1.391 . S
C921 H909 0.950 . S
C921 C917 1.393 . S
C921 C920 1.391 . S
C922 H912 0.950 . S
C922 C923 1.386 . S
C922 C924 1.391 . S
C923 C922 1.386 . S
C923 C927 1.393 1_565 S
C924 H913 0.950 . S
C924 C922 1.391 . S
C924 C925 1.400 1_565 S
C925 C919 1.491 . S
C925 C924 1.400 1_545 S
C925 C926 1.398 . S
C926 H914 0.950 . S
C926 C925 1.398 . S
C926 C927 1.391 . S
C927 H915 0.950 . S
C927 C923 1.393 1_545 S
C927 C926 1.391 . S
H928 C936 0.950 . S
H929 C941 0.950 . S
H930 C938 0.950 . S
H931 C940 0.950 . S
H932 C942 0.950 . S
H933 C944 0.950 . S
H934 C946 0.950 . S
H935 C947 0.950 . S
C936 H928 0.950 . S
C936 C937 1.386 . S
C936 C938 1.391 . S
C937 C936 1.386 . S
C937 C941 1.393 . S
C938 H930 0.950 . S
C938 C936 1.391 . S
C938 C939 1.400 . S
C939 C938 1.400 . S
C939 C940 1.398 . S
C939 C945 1.491 . S
C940 H931 0.950 . S
C940 C939 1.398 . S
C940 C941 1.391 . S
C941 H929 0.950 . S
C941 C937 1.393 . S
C941 C940 1.391 . S
C942 H932 0.950 . S
C942 C943 1.386 . S
C942 C944 1.391 . S
C943 C942 1.386 . S
C943 C947 1.393 . S
C944 H933 0.950 . S
C944 C942 1.391 . S
C944 C945 1.400 . S
C945 C939 1.491 . S
C945 C944 1.400 . S
C945 C946 1.398 . S
C946 H934 0.950 . S
C946 C945 1.398 . S
C946 C947 1.391 . S
C947 H935 0.950 . S
C947 C943 1.393 . S
C947 C946 1.391 . S
H948 C956 0.950 . S
H949 C961 0.950 . S
H950 C958 0.950 . S
H951 C960 0.950 . S
H952 C962 0.950 . S
H953 C964 0.950 . S
H954 C966 0.950 . S
H955 C967 0.950 . S
C956 H948 0.950 . S
C956 C957 1.386 . S
C956 C958 1.391 . S
C957 C956 1.386 . S
C957 C961 1.393 . S
C958 H950 0.950 . S
C958 C956 1.391 . S
C958 C959 1.400 . S
C959 C958 1.400 . S
C959 C960 1.398 . S
C959 C965 1.491 . S
C960 H951 0.950 . S
C960 C959 1.398 . S
C960 C961 1.391 . S
C961 H949 0.950 . S
C961 C957 1.393 . S
C961 C960 1.391 . S
C962 H952 0.950 . S
C962 C963 1.386 . S
C962 C964 1.391 . S
C963 C962 1.386 . S
C963 C967 1.393 . S
C964 H953 0.950 . S
C964 C962 1.391 . S
C964 C965 1.400 . S
C965 C959 1.491 . S
C965 C964 1.400 . S
C965 C966 1.398 . S
C966 H954 0.950 . S
C966 C965 1.398 . S
C966 C967 1.391 . S
C967 H955 0.950 . S
C967 C963 1.393 . S
C967 C966 1.391 . S
H968 C976 0.950 . S
H969 C981 0.950 . S
H970 C978 0.950 . S
H971 C980 0.950 . S
H972 C982 0.950 . S
H973 C984 0.950 . S
H974 C986 0.950 . S
H975 C987 0.950 . S
C976 H968 0.950 . S
C976 C977 1.386 . S
C976 C978 1.391 . S
C977 C976 1.386 . S
C977 C981 1.393 . S
C978 H970 0.950 . S
C978 C976 1.391 . S
C978 C979 1.400 . S
C979 C978 1.400 . S
C979 C980 1.398 . S
C979 C985 1.491 . S
C980 H971 0.950 . S
C980 C979 1.398 . S
C980 C981 1.391 . S
C981 H969 0.950 . S
C981 C977 1.393 . S
C981 C980 1.391 . S
C982 H972 0.950 . S
C982 C983 1.386 . S
C982 C984 1.391 . S
C983 C982 1.386 . S
C983 C987 1.393 . S
C984 H973 0.950 . S
C984 C982 1.391 . S
C984 C985 1.400 . S
C985 C979 1.491 . S
C985 C984 1.400 . S
C985 C986 1.398 . S
C986 H974 0.950 . S
C986 C985 1.398 . S
C986 C987 1.391 . S
C987 H975 0.950 . S
C987 C983 1.393 . S
C987 C986 1.391 . S
H988 C996 0.950 . S
H989 C1001 0.950 . S
H990 C998 0.950 . S
H991 C1000 0.950 . S
H992 C1002 0.950 . S
H993 C1004 0.950 . S
H994 C1006 0.950 . S
H995 C1007 0.950 . S
C996 H988 0.950 . S
C996 C997 1.386 . S
C996 C998 1.391 . S
C997 C996 1.386 . S
C997 C1001 1.393 . S
C998 H990 0.950 . S
C998 C996 1.391 . S
C998 C999 1.400 . S
C999 C998 1.400 . S
C999 C1000 1.398 . S
C999 C1005 1.491 . S
C1000 H991 0.950 . S
C1000 C999 1.398 . S
C1000 C1001 1.391 . S
C1001 H989 0.950 . S
C1001 C997 1.393 . S
C1001 C1000 1.391 . S
C1002 H992 0.950 . S
C1002 C1003 1.386 . S
C1002 C1004 1.391 1_556 S
C1003 C1002 1.386 . S
C1003 C1007 1.393 . S
C1004 H993 0.950 . S
C1004 C1002 1.391 1_554 S
C1004 C1005 1.400 . S
C1005 C999 1.491 . S
C1005 C1004 1.400 . S
C1005 C1006 1.398 . S
C1006 H994 0.950 . S
C1006 C1005 1.398 . S
C1006 C1007 1.391 1_554 S
C1007 H995 0.950 . S
C1007 C1003 1.393 . S
C1007 C1006 1.391 1_556 S
H1008 C1016 0.950 . S
H1009 C1021 0.950 . S
H1010 C1018 0.950 . S
H1011 C1020 0.950 . S
H1012 C1022 0.950 . S
H1013 C1024 0.950 . S
H1014 C1026 0.950 . S
H1015 C1027 0.950 . S
C1016 H1008 0.950 . S
C1016 C1017 1.386 . S
C1016 C1018 1.391 . S
C1017 C1016 1.386 . S
C1017 C1021 1.393 . S
C1018 H1010 0.950 . S
C1018 C1016 1.391 . S
C1018 C1019 1.400 . S
C1019 C1018 1.400 . S
C1019 C1020 1.398 . S
C1019 C1025 1.491 . S
C1020 H1011 0.950 . S
C1020 C1019 1.398 . S
C1020 C1021 1.391 . S
C1021 H1009 0.950 . S
C1021 C1017 1.393 . S
C1021 C1020 1.391 . S
C1022 H1012 0.950 . S
C1022 C1023 1.386 . S
C1022 C1024 1.391 . S
C1023 C1022 1.386 . S
C1023 C1027 1.393 . S
C1024 H1013 0.950 . S
C1024 C1022 1.391 . S
C1024 C1025 1.400 . S
C1025 C1019 1.491 . S
C1025 C1024 1.400 . S
C1025 C1026 1.398 . S
C1026 H1014 0.950 . S
C1026 C1025 1.398 . S
C1026 C1027 1.391 . S
C1027 H1015 0.950 . S
C1027 C1023 1.393 . S
C1027 C1026 1.391 . S
H1028 C1036 0.950 . S
H1029 C1041 0.950 . S
H1030 C1038 0.950 . S
H1031 C1040 0.950 . S
H1032 C1042 0.950 . S
H1033 C1044 0.950 . S
H1034 C1046 0.950 . S
H1035 C1047 0.950 . S
C1036 H1028 0.950 . S
C1036 C1037 1.386 . S
C1036 C1038 1.391 . S
C1037 C1036 1.386 . S
C1037 C1041 1.393 . S
C1038 H1030 0.950 . S
C1038 C1036 1.391 . S
C1038 C1039 1.400 . S
C1039 C1038 1.400 . S
C1039 C1040 1.398 . S
C1039 C1045 1.491 . S
C1040 H1031 0.950 . S
C1040 C1039 1.398 . S
C1040 C1041 1.391 . S
C1041 H1029 0.950 . S
C1041 C1037 1.393 . S
C1041 C1040 1.391 . S
C1042 H1032 0.950 . S
C1042 C1043 1.386 . S
C1042 C1044 1.391 . S
C1043 C1042 1.386 . S
C1043 C1047 1.393 . S
C1044 H1033 0.950 . S
C1044 C1042 1.391 . S
C1044 C1045 1.400 . S
C1045 C1039 1.491 . S
C1045 C1044 1.400 . S
C1045 C1046 1.398 . S
C1046 H1034 0.950 . S
C1046 C1045 1.398 . S
C1046 C1047 1.391 . S
C1047 H1035 0.950 . S
C1047 C1043 1.393 . S
C1047 C1046 1.391 . S
H1048 C1056 0.950 . S
H1049 C1061 0.950 . S
H1050 C1058 0.950 . S
H1051 C1060 0.950 . S
H1052 C1062 0.950 . S
H1053 C1064 0.950 . S
H1054 C1066 0.950 . S
H1055 C1067 0.950 . S
C1056 H1048 0.950 . S
C1056 C1057 1.386 . S
C1056 C1058 1.391 . S
C1057 C1056 1.386 . S
C1057 C1061 1.393 . S
C1058 H1050 0.950 . S
C1058 C1056 1.391 . S
C1058 C1059 1.400 . S
C1059 C1058 1.400 . S
C1059 C1060 1.398 . S
C1059 C1065 1.491 . S
C1060 H1051 0.950 . S
C1060 C1059 1.398 . S
C1060 C1061 1.391 . S
C1061 H1049 0.950 . S
C1061 C1057 1.393 . S
C1061 C1060 1.391 . S
C1062 H1052 0.950 . S
C1062 C1063 1.386 . S
C1062 C1064 1.391 . S
C1063 C1062 1.386 . S
C1063 C1067 1.393 . S
C1064 H1053 0.950 . S
C1064 C1062 1.391 . S
C1064 C1065 1.400 . S
C1065 C1059 1.491 . S
C1065 C1064 1.400 . S
C1065 C1066 1.398 . S
C1066 H1054 0.950 . S
C1066 C1065 1.398 . S
C1066 C1067 1.391 . S
C1067 H1055 0.950 . S
C1067 C1063 1.393 . S
C1067 C1066 1.391 . S
H1068 C1076 0.950 . S
H1069 C1081 0.950 . S
H1070 C1078 0.950 . S
H1071 C1080 0.950 . S
H1072 C1082 0.950 . S
H1073 C1084 0.950 . S
H1074 C1086 0.950 . S
H1075 C1087 0.950 . S
C1076 H1068 0.950 . S
C1076 C1077 1.386 . S
C1076 C1078 1.391 . S
C1077 C1076 1.386 . S
C1077 C1081 1.393 . S
C1078 H1070 0.950 . S
C1078 C1076 1.391 . S
C1078 C1079 1.400 . S
C1079 C1078 1.400 . S
C1079 C1080 1.398 . S
C1079 C1085 1.491 . S
C1080 H1071 0.950 . S
C1080 C1079 1.398 . S
C1080 C1081 1.391 . S
C1081 H1069 0.950 . S
C1081 C1077 1.393 . S
C1081 C1080 1.391 . S
C1082 H1072 0.950 . S
C1082 C1083 1.386 . S
C1082 C1084 1.391 1_556 S
C1083 C1082 1.386 . S
C1083 C1087 1.393 . S
C1084 H1073 0.950 . S
C1084 C1082 1.391 1_554 S
C1084 C1085 1.400 . S
C1085 C1079 1.491 . S
C1085 C1084 1.400 . S
C1085 C1086 1.398 . S
C1086 H1074 0.950 . S
C1086 C1085 1.398 . S
C1086 C1087 1.391 1_554 S
C1087 H1075 0.950 . S
C1087 C1083 1.393 . S
C1087 C1086 1.391 1_556 S
H1088 C1096 0.950 . S
H1089 C1101 0.950 . S
H1090 C1098 0.950 . S
H1091 C1100 0.950 . S
H1092 C1102 0.950 . S
H1093 C1104 0.950 . S
H1094 C1106 0.950 . S
H1095 C1107 0.950 . S
C1096 H1088 0.950 . S
C1096 C1097 1.386 . S
C1096 C1098 1.391 . S
C1097 C1096 1.386 . S
C1097 C1101 1.393 . S
C1098 H1090 0.950 . S
C1098 C1096 1.391 . S
C1098 C1099 1.400 . S
C1099 C1098 1.400 . S
C1099 C1100 1.398 . S
C1099 C1105 1.491 . S
C1100 H1091 0.950 . S
C1100 C1099 1.398 . S
C1100 C1101 1.391 . S
C1101 H1089 0.950 . S
C1101 C1097 1.393 . S
C1101 C1100 1.391 . S
C1102 H1092 0.950 . S
C1102 C1103 1.386 . S
C1102 C1104 1.391 . S
C1103 C1102 1.386 . S
C1103 C1107 1.393 . S
C1104 H1093 0.950 . S
C1104 C1102 1.391 . S
C1104 C1105 1.400 . S
C1105 C1099 1.491 . S
C1105 C1104 1.400 . S
C1105 C1106 1.398 . S
C1106 H1094 0.950 . S
C1106 C1105 1.398 . S
C1106 C1107 1.391 . S
C1107 H1095 0.950 . S
C1107 C1103 1.393 . S
C1107 C1106 1.391 . S
H1108 C1116 0.950 . S
H1109 C1121 0.950 . S
H1110 C1118 0.950 . S
H1111 C1120 0.950 . S
H1112 C1122 0.950 . S
H1113 C1124 0.950 . S
H1114 C1126 0.950 . S
H1115 C1127 0.950 . S
C1116 H1108 0.950 . S
C1116 C1117 1.386 . S
C1116 C1118 1.391 . S
C1117 C1116 1.386 . S
C1117 C1121 1.393 . S
C1118 H1110 0.950 . S
C1118 C1116 1.391 . S
C1118 C1119 1.400 . S
C1119 C1118 1.400 . S
C1119 C1120 1.398 . S
C1119 C1125 1.491 1_455 S
C1120 H1111 0.950 . S
C1120 C1119 1.398 . S
C1120 C1121 1.391 . S
C1121 H1109 0.950 . S
C1121 C1117 1.393 . S
C1121 C1120 1.391 . S
C1122 H1112 0.950 . S
C1122 C1123 1.386 . S
C1122 C1124 1.391 . S
C1123 C1122 1.386 . S
C1123 C1127 1.393 . S
C1124 H1113 0.950 . S
C1124 C1122 1.391 . S
C1124 C1125 1.400 . S
C1125 C1119 1.491 1_655 S
C1125 C1124 1.400 . S
C1125 C1126 1.398 . S
C1126 H1114 0.950 . S
C1126 C1125 1.398 . S
C1126 C1127 1.391 . S
C1127 H1115 0.950 . S
C1127 C1123 1.393 . S
C1127 C1126 1.391 . S
H1128 C1136 0.950 . S
H1129 C1141 0.950 . S
H1130 C1138 0.950 . S
H1131 C1140 0.950 . S
H1132 C1142 0.950 . S
H1133 C1144 0.950 . S
H1134 C1146 0.950 . S
H1135 C1147 0.950 . S
C1136 H1128 0.950 . S
C1136 C1137 1.386 . S
C1136 C1138 1.391 . S
C1137 C1136 1.386 . S
C1137 C1141 1.393 . S
C1138 H1130 0.950 . S
C1138 C1136 1.391 . S
C1138 C1139 1.400 . S
C1139 C1138 1.400 . S
C1139 C1140 1.398 . S
C1139 C1145 1.491 . S
C1140 H1131 0.950 . S
C1140 C1139 1.398 . S
C1140 C1141 1.391 . S
C1141 H1129 0.950 . S
C1141 C1137 1.393 . S
C1141 C1140 1.391 . S
C1142 H1132 0.950 . S
C1142 C1143 1.386 . S
C1142 C1144 1.391 . S
C1143 C1142 1.386 . S
C1143 C1147 1.393 . S
C1144 H1133 0.950 . S
C1144 C1142 1.391 . S
C1144 C1145 1.400 . S
C1145 C1139 1.491 . S
C1145 C1144 1.400 . S
C1145 C1146 1.398 . S
C1146 H1134 0.950 . S
C1146 C1145 1.398 . S
C1146 C1147 1.391 . S
C1147 H1135 0.950 . S
C1147 C1143 1.393 . S
C1147 C1146 1.391 . S
H1148 C1156 0.950 . S
H1149 C1161 0.950 . S
H1150 C1158 0.950 . S
H1151 C1160 0.950 . S
H1152 C1162 0.950 . S
H1153 C1164 0.950 . S
H1154 C1166 0.950 . S
H1155 C1167 0.950 . S
C1156 H1148 0.950 . S
C1156 C1157 1.386 . S
C1156 C1158 1.391 . S
C1157 C1156 1.386 . S
C1157 C1161 1.393 . S
C1158 H1150 0.950 . S
C1158 C1156 1.391 . S
C1158 C1159 1.400 . S
C1159 C1158 1.400 . S
C1159 C1160 1.398 . S
C1159 C1165 1.491 . S
C1160 H1151 0.950 . S
C1160 C1159 1.398 . S
C1160 C1161 1.391 . S
C1161 H1149 0.950 . S
C1161 C1157 1.393 . S
C1161 C1160 1.391 . S
C1162 H1152 0.950 . S
C1162 C1163 1.386 . S
C1162 C1164 1.391 . S
C1163 C1162 1.386 . S
C1163 C1167 1.393 . S
C1164 H1153 0.950 . S
C1164 C1162 1.391 . S
C1164 C1165 1.400 . S
C1165 C1159 1.491 . S
C1165 C1164 1.400 . S
C1165 C1166 1.398 . S
C1166 H1154 0.950 . S
C1166 C1165 1.398 . S
C1166 C1167 1.391 . S
C1167 H1155 0.950 . S
C1167 C1163 1.393 . S
C1167 C1166 1.391 . S
H1168 C1176 0.950 . S
H1169 C1181 0.950 . S
H1170 C1178 0.950 . S
H1171 C1180 0.950 . S
H1172 C1182 0.950 . S
H1173 C1184 0.950 . S
H1174 C1186 0.950 . S
H1175 C1187 0.950 . S
C1176 H1168 0.950 . S
C1176 C1177 1.386 . S
C1176 C1178 1.391 . S
C1177 C1176 1.386 . S
C1177 C1181 1.393 . S
C1178 H1170 0.950 . S
C1178 C1176 1.391 . S
C1178 C1179 1.400 . S
C1179 C1178 1.400 . S
C1179 C1180 1.398 . S
C1179 C1185 1.491 . S
C1180 H1171 0.950 . S
C1180 C1179 1.398 . S
C1180 C1181 1.391 . S
C1181 H1169 0.950 . S
C1181 C1177 1.393 . S
C1181 C1180 1.391 . S
C1182 H1172 0.950 . S
C1182 C1183 1.386 . S
C1182 C1184 1.391 . S
C1183 C1182 1.386 . S
C1183 C1187 1.393 . S
C1184 H1173 0.950 . S
C1184 C1182 1.391 . S
C1184 C1185 1.400 . S
C1185 C1179 1.491 . S
C1185 C1184 1.400 . S
C1185 C1186 1.398 . S
C1186 H1174 0.950 . S
C1186 C1185 1.398 . S
C1186 C1187 1.391 . S
C1187 H1175 0.950 . S
C1187 C1183 1.393 . S
C1187 C1186 1.391 . S
H1188 C1196 0.950 . S
H1189 C1201 0.950 . S
H1190 C1198 0.950 . S
H1191 C1200 0.950 . S
H1192 C1202 0.950 . S
H1193 C1204 0.950 . S
H1194 C1206 0.950 . S
H1195 C1207 0.950 . S
C1196 H1188 0.950 . S
C1196 C1197 1.386 . S
C1196 C1198 1.391 . S
C1197 C1196 1.386 . S
C1197 C1201 1.393 . S
C1198 H1190 0.950 . S
C1198 C1196 1.391 . S
C1198 C1199 1.400 . S
C1199 C1198 1.400 . S
C1199 C1200 1.398 . S
C1199 C1205 1.491 . S
C1200 H1191 0.950 . S
C1200 C1199 1.398 . S
C1200 C1201 1.391 . S
C1201 H1189 0.950 . S
C1201 C1197 1.393 . S
C1201 C1200 1.391 . S
C1202 H1192 0.950 . S
C1202 C1203 1.386 . S
C1202 C1204 1.391 . S
C1203 C1202 1.386 . S
C1203 C1207 1.393 . S
C1204 H1193 0.950 . S
C1204 C1202 1.391 . S
C1204 C1205 1.400 . S
C1205 C1199 1.491 . S
C1205 C1204 1.400 . S
C1205 C1206 1.398 . S
C1206 H1194 0.950 . S
C1206 C1205 1.398 . S
C1206 C1207 1.391 . S
C1207 H1195 0.950 . S
C1207 C1203 1.393 . S
C1207 C1206 1.391 . S
H1208 C1216 0.950 . S
H1209 C1221 0.950 . S
H1210 C1218 0.950 . S
H1211 C1220 0.950 . S
H1212 C1222 0.950 . S
H1213 C1224 0.950 . S
H1214 C1226 0.950 . S
H1215 C1227 0.950 . S
C1216 H1208 0.950 . S
C1216 C1217 1.386 . S
C1216 C1218 1.391 . S
C1217 C1216 1.386 . S
C1217 C1221 1.393 . S
C1218 H1210 0.950 . S
C1218 C1216 1.391 . S
C1218 C1219 1.400 . S
C1219 C1218 1.400 . S
C1219 C1220 1.398 . S
C1219 C1225 1.491 . S
C1220 H1211 0.950 . S
C1220 C1219 1.398 . S
C1220 C1221 1.391 . S
C1221 H1209 0.950 . S
C1221 C1217 1.393 . S
C1221 C1220 1.391 . S
C1222 H1212 0.950 . S
C1222 C1223 1.386 . S
C1222 C1224 1.391 . S
C1223 C1222 1.386 . S
C1223 C1227 1.393 . S
C1224 H1213 0.950 . S
C1224 C1222 1.391 . S
C1224 C1225 1.400 . S
C1225 C1219 1.491 . S
C1225 C1224 1.400 . S
C1225 C1226 1.398 . S
C1226 H1214 0.950 . S
C1226 C1225 1.398 . S
C1226 C1227 1.391 . S
C1227 H1215 0.950 . S
C1227 C1223 1.393 . S
C1227 C1226 1.391 . S
H1228 C1236 0.950 . S
H1229 C1241 0.950 . S
H1230 C1238 0.950 . S
H1231 C1240 0.950 . S
H1232 C1242 0.950 . S
H1233 C1244 0.950 . S
H1234 C1246 0.950 . S
H1235 C1247 0.950 . S
C1236 H1228 0.950 . S
C1236 C1237 1.386 . S
C1236 C1238 1.391 . S
C1237 C1236 1.386 . S
C1237 C1241 1.393 . S
C1238 H1230 0.950 . S
C1238 C1236 1.391 . S
C1238 C1239 1.400 . S
C1239 C1238 1.400 . S
C1239 C1240 1.398 . S
C1239 C1245 1.491 1_655 S
C1240 H1231 0.950 . S
C1240 C1239 1.398 . S
C1240 C1241 1.391 . S
C1241 H1229 0.950 . S
C1241 C1237 1.393 . S
C1241 C1240 1.391 . S
C1242 H1232 0.950 . S
C1242 C1243 1.386 . S
C1242 C1244 1.391 . S
C1243 C1242 1.386 . S
C1243 C1247 1.393 . S
C1244 H1233 0.950 . S
C1244 C1242 1.391 . S
C1244 C1245 1.400 . S
C1245 C1239 1.491 1_455 S
C1245 C1244 1.400 . S
C1245 C1246 1.398 . S
C1246 H1234 0.950 . S
C1246 C1245 1.398 . S
C1246 C1247 1.391 . S
C1247 H1235 0.950 . S
C1247 C1243 1.393 . S
C1247 C1246 1.391 . S
H1248 C1256 0.950 . S
H1249 C1261 0.950 . S
H1250 C1258 0.950 . S
H1251 C1260 0.950 . S
H1252 C1262 0.950 . S
H1253 C1264 0.950 . S
H1254 C1266 0.950 . S
H1255 C1267 0.950 . S
C1256 H1248 0.950 . S
C1256 C1257 1.386 . S
C1256 C1258 1.391 . S
C1257 C1256 1.386 . S
C1257 C1261 1.393 . S
C1258 H1250 0.950 . S
C1258 C1256 1.391 . S
C1258 C1259 1.400 . S
C1259 C1258 1.400 . S
C1259 C1260 1.398 . S
C1259 C1265 1.491 . S
C1260 H1251 0.950 . S
C1260 C1259 1.398 . S
C1260 C1261 1.391 . S
C1261 H1249 0.950 . S
C1261 C1257 1.393 . S
C1261 C1260 1.391 . S
C1262 H1252 0.950 . S
C1262 C1263 1.386 . S
C1262 C1264 1.391 . S
C1263 C1262 1.386 . S
C1263 C1267 1.393 . S
C1264 H1253 0.950 . S
C1264 C1262 1.391 . S
C1264 C1265 1.400 . S
C1265 C1259 1.491 . S
C1265 C1264 1.400 . S
C1265 C1266 1.398 . S
C1266 H1254 0.950 . S
C1266 C1265 1.398 . S
C1266 C1267 1.391 . S
C1267 H1255 0.950 . S
C1267 C1263 1.393 . S
C1267 C1266 1.391 . S
H1268 C1276 0.950 . S
H1269 C1281 0.950 . S
H1270 C1278 0.950 . S
H1271 C1280 0.950 . S
H1272 C1282 0.950 . S
H1273 C1284 0.950 . S
H1274 C1286 0.950 . S
H1275 C1287 0.950 . S
C1276 H1268 0.950 . S
C1276 C1277 1.386 . S
C1276 C1278 1.391 . S
C1277 C1276 1.386 . S
C1277 C1281 1.393 . S
C1278 H1270 0.950 . S
C1278 C1276 1.391 . S
C1278 C1279 1.400 . S
C1279 C1278 1.400 . S
C1279 C1280 1.398 . S
C1279 C1285 1.491 . S
C1280 H1271 0.950 . S
C1280 C1279 1.398 . S
C1280 C1281 1.391 . S
C1281 H1269 0.950 . S
C1281 C1277 1.393 . S
C1281 C1280 1.391 . S
C1282 H1272 0.950 . S
C1282 C1283 1.386 . S
C1282 C1284 1.391 . S
C1283 C1282 1.386 . S
C1283 C1287 1.393 . S
C1284 H1273 0.950 . S
C1284 C1282 1.391 . S
C1284 C1285 1.400 . S
C1285 C1279 1.491 . S
C1285 C1284 1.400 . S
C1285 C1286 1.398 . S
C1286 H1274 0.950 . S
C1286 C1285 1.398 . S
C1286 C1287 1.391 . S
C1287 H1275 0.950 . S
C1287 C1283 1.393 . S
C1287 C1286 1.391 . S
H1288 C1296 0.950 . S
H1289 C1301 0.950 . S
H1290 C1298 0.950 . S
H1291 C1300 0.950 . S
H1292 C1302 0.950 . S
H1293 C1304 0.950 . S
H1294 C1306 0.950 . S
H1295 C1307 0.950 . S
C1296 H1288 0.950 . S
C1296 C1297 1.386 . S
C1296 C1298 1.391 . S
C1297 C1296 1.386 . S
C1297 C1301 1.393 . S
C1298 H1290 0.950 . S
C1298 C1296 1.391 . S
C1298 C1299 1.400 . S
C1299 C1298 1.400 . S
C1299 C1300 1.398 . S
C1299 C1305 1.491 . S
C1300 H1291 0.950 . S
C1300 C1299 1.398 . S
C1300 C1301 1.391 . S
C1301 H1289 0.950 . S
C1301 C1297 1.393 . S
C1301 C1300 1.391 . S
C1302 H1292 0.950 . S
C1302 C1303 1.386 . S
C1302 C1304 1.391 . S
C1303 C1302 1.386 . S
C1303 C1307 1.393 . S
C1304 H1293 0.950 . S
C1304 C1302 1.391 . S
C1304 C1305 1.400 . S
C1305 C1299 1.491 . S
C1305 C1304 1.400 . S
C1305 C1306 1.398 . S
C1306 H1294 0.950 . S
C1306 C1305 1.398 . S
C1306 C1307 1.391 . S
C1307 H1295 0.950 . S
C1307 C1303 1.393 . S
C1307 C1306 1.391 . S
H1308 C1316 0.950 . S
H1309 C1321 0.950 . S
H1310 C1318 0.950 . S
H1311 C1320 0.950 . S
H1312 C1322 0.950 . S
H1313 C1324 0.950 . S
H1314 C1326 0.950 . S
H1315 C1327 0.950 . S
C1316 H1308 0.950 . S
C1316 C1317 1.386 . S
C1316 C1318 1.391 . S
C1317 C1316 1.386 . S
C1317 C1321 1.393 . S
C1318 H1310 0.950 . S
C1318 C1316 1.391 . S
C1318 C1319 1.400 . S
C1319 C1318 1.400 . S
C1319 C1320 1.398 . S
C1319 C1325 1.491 . S
C1320 H1311 0.950 . S
C1320 C1319 1.398 . S
C1320 C1321 1.391 . S
C1321 H1309 0.950 . S
C1321 C1317 1.393 . S
C1321 C1320 1.391 . S
C1322 H1312 0.950 . S
C1322 C1323 1.386 . S
C1322 C1324 1.391 . S
C1323 C1322 1.386 . S
C1323 C1327 1.393 . S
C1324 H1313 0.950 . S
C1324 C1322 1.391 . S
C1324 C1325 1.400 . S
C1325 C1319 1.491 . S
C1325 C1324 1.400 . S
C1325 C1326 1.398 . S
C1326 H1314 0.950 . S
C1326 C1325 1.398 . S
C1326 C1327 1.391 . S
C1327 H1315 0.950 . S
C1327 C1323 1.393 . S
C1327 C1326 1.391 . S
H1328 C1336 0.950 . S
H1329 C1341 0.950 . S
H1330 C1338 0.950 . S
H1331 C1340 0.950 . S
H1332 C1342 0.950 . S
H1333 C1344 0.950 . S
H1334 C1346 0.950 . S
H1335 C1347 0.950 . S
C1336 H1328 0.950 . S
C1336 C1337 1.386 . S
C1336 C1338 1.391 . S
C1337 C1336 1.386 . S
C1337 C1341 1.393 . S
C1338 H1330 0.950 . S
C1338 C1336 1.391 . S
C1338 C1339 1.400 . S
C1339 C1338 1.400 . S
C1339 C1340 1.398 . S
C1339 C1345 1.491 . S
C1340 H1331 0.950 . S
C1340 C1339 1.398 . S
C1340 C1341 1.391 . S
C1341 H1329 0.950 . S
C1341 C1337 1.393 . S
C1341 C1340 1.391 . S
C1342 H1332 0.950 . S
C1342 C1343 1.386 . S
C1342 C1344 1.391 . S
C1343 C1342 1.386 . S
C1343 C1347 1.393 . S
C1344 H1333 0.950 . S
C1344 C1342 1.391 . S
C1344 C1345 1.400 . S
C1345 C1339 1.491 . S
C1345 C1344 1.400 . S
C1345 C1346 1.398 . S
C1346 H1334 0.950 . S
C1346 C1345 1.398 . S
C1346 C1347 1.391 . S
C1347 H1335 0.950 . S
C1347 C1343 1.393 . S
C1347 C1346 1.391 . S
H1348 C1356 0.950 . S
H1349 C1361 0.950 . S
H1350 C1358 0.950 . S
H1351 C1360 0.950 . S
H1352 C1362 0.950 . S
H1353 C1364 0.950 . S
H1354 C1366 0.950 . S
H1355 C1367 0.950 . S
C1356 H1348 0.950 . S
C1356 C1357 1.386 . S
C1356 C1358 1.391 . S
C1357 C1356 1.386 . S
C1357 C1361 1.393 . S
C1358 H1350 0.950 . S
C1358 C1356 1.391 . S
C1358 C1359 1.400 . S
C1359 C1358 1.400 . S
C1359 C1360 1.398 . S
C1359 C1365 1.491 1_655 S
C1360 H1351 0.950 . S
C1360 C1359 1.398 . S
C1360 C1361 1.391 . S
C1361 H1349 0.950 . S
C1361 C1357 1.393 . S
C1361 C1360 1.391 . S
C1362 H1352 0.950 . S
C1362 C1363 1.386 . S
C1362 C1364 1.391 . S
C1363 C1362 1.386 . S
C1363 C1367 1.393 . S
C1364 H1353 0.950 . S
C1364 C1362 1.391 . S
C1364 C1365 1.400 . S
C1365 C1359 1.491 1_455 S
C1365 C1364 1.400 . S
C1365 C1366 1.398 . S
C1366 H1354 0.950 . S
C1366 C1365 1.398 . S
C1366 C1367 1.391 . S
C1367 H1355 0.950 . S
C1367 C1363 1.393 . S
C1367 C1366 1.391 . S
H1368 C1376 0.950 . S
H1369 C1381 0.950 . S
H1370 C1378 0.950 . S
H1371 C1380 0.950 . S
H1372 C1382 0.950 . S
H1373 C1384 0.950 . S
H1374 C1386 0.950 . S
H1375 C1387 0.950 . S
C1376 H1368 0.950 . S
C1376 C1377 1.386 . S
C1376 C1378 1.391 . S
C1377 C1376 1.386 . S
C1377 C1381 1.393 . S
C1378 H1370 0.950 . S
C1378 C1376 1.391 . S
C1378 C1379 1.400 . S
C1379 C1378 1.400 . S
C1379 C1380 1.398 . S
C1379 C1385 1.491 1_655 S
C1380 H1371 0.950 . S
C1380 C1379 1.398 . S
C1380 C1381 1.391 . S
C1381 H1369 0.950 . S
C1381 C1377 1.393 . S
C1381 C1380 1.391 . S
C1382 H1372 0.950 . S
C1382 C1383 1.386 . S
C1382 C1384 1.391 . S
C1383 C1382 1.386 . S
C1383 C1387 1.393 . S
C1384 H1373 0.950 . S
C1384 C1382 1.391 . S
C1384 C1385 1.400 . S
C1385 C1379 1.491 1_455 S
C1385 C1384 1.400 . S
C1385 C1386 1.398 . S
C1386 H1374 0.950 . S
C1386 C1385 1.398 . S
C1386 C1387 1.391 . S
C1387 H1375 0.950 . S
C1387 C1383 1.393 . S
C1387 C1386 1.391 . S
H1388 C1396 0.950 . S
H1389 C1401 0.950 . S
H1390 C1398 0.950 . S
H1391 C1400 0.950 . S
H1392 C1402 0.950 . S
H1393 C1404 0.950 . S
H1394 C1406 0.950 . S
H1395 C1407 0.950 . S
C1396 H1388 0.950 . S
C1396 C1397 1.386 . S
C1396 C1398 1.391 . S
C1397 C1396 1.386 . S
C1397 C1401 1.393 . S
C1398 H1390 0.950 . S
C1398 C1396 1.391 . S
C1398 C1399 1.400 . S
C1399 C1398 1.400 . S
C1399 C1400 1.398 . S
C1399 C1405 1.491 . S
C1400 H1391 0.950 . S
C1400 C1399 1.398 . S
C1400 C1401 1.391 . S
C1401 H1389 0.950 . S
C1401 C1397 1.393 . S
C1401 C1400 1.391 . S
C1402 H1392 0.950 . S
C1402 C1403 1.386 . S
C1402 C1404 1.391 . S
C1403 C1402 1.386 . S
C1403 C1407 1.393 . S
C1404 H1393 0.950 . S
C1404 C1402 1.391 . S
C1404 C1405 1.400 . S
C1405 C1399 1.491 . S
C1405 C1404 1.400 . S
C1405 C1406 1.398 . S
C1406 H1394 0.950 . S
C1406 C1405 1.398 . S
C1406 C1407 1.391 . S
C1407 H1395 0.950 . S
C1407 C1403 1.393 . S
C1407 C1406 1.391 . S
H1408 C1416 0.950 . S
H1409 C1421 0.950 . S
H1410 C1418 0.950 . S
H1411 C1420 0.950 . S
H1412 C1422 0.950 . S
H1413 C1424 0.950 . S
H1414 C1426 0.950 . S
H1415 C1427 0.950 . S
C1416 H1408 0.950 . S
C1416 C1417 1.386 . S
C1416 C1418 1.391 . S
C1417 C1416 1.386 . S
C1417 C1421 1.393 . S
C1418 H1410 0.950 . S
C1418 C1416 1.391 . S
C1418 C1419 1.400 . S
C1419 C1418 1.400 . S
C1419 C1420 1.398 . S
C1419 C1425 1.491 . S
C1420 H1411 0.950 . S
C1420 C1419 1.398 . S
C1420 C1421 1.391 . S
C1421 H1409 0.950 . S
C1421 C1417 1.393 . S
C1421 C1420 1.391 . S
C1422 H1412 0.950 . S
C1422 C1423 1.386 . S
C1422 C1424 1.391 . S
C1423 C1422 1.386 . S
C1423 C1427 1.393 . S
C1424 H1413 0.950 . S
C1424 C1422 1.391 . S
C1424 C1425 1.400 . S
C1425 C1419 1.491 . S
C1425 C1424 1.400 . S
C1425 C1426 1.398 . S
C1426 H1414 0.950 . S
C1426 C1425 1.398 . S
C1426 C1427 1.391 . S
C1427 H1415 0.950 . S
C1427 C1423 1.393 . S
C1427 C1426 1.391 . S
H1428 C1436 0.950 . S
H1429 C1441 0.950 . S
H1430 C1438 0.950 . S
H1431 C1440 0.950 . S
H1432 C1442 0.950 . S
H1433 C1444 0.950 . S
H1434 C1446 0.950 1_565 S
H1435 C1447 0.950 . S
C1436 H1428 0.950 . S
C1436 C1437 1.386 . S
C1436 C1438 1.391 . S
C1437 C1436 1.386 . S
C1437 C1441 1.393 1_565 S
C1438 H1430 0.950 . S
C1438 C1436 1.391 . S
C1438 C1439 1.400 1_565 S
C1439 C1438 1.400 1_545 S
C1439 C1440 1.398 . S
C1439 C1445 1.491 . S
C1440 H1431 0.950 . S
C1440 C1439 1.398 . S
C1440 C1441 1.391 . S
C1441 H1429 0.950 . S
C1441 C1437 1.393 1_545 S
C1441 C1440 1.391 . S
C1442 H1432 0.950 . S
C1442 C1443 1.386 . S
C1442 C1444 1.391 . S
C1443 C1442 1.386 . S
C1443 C1447 1.393 . S
C1444 H1433 0.950 . S
C1444 C1442 1.391 . S
C1444 C1445 1.400 . S
C1445 C1439 1.491 . S
C1445 C1444 1.400 . S
C1445 C1446 1.398 . S
C1446 H1434 0.950 1_545 S
C1446 C1445 1.398 . S
C1446 C1447 1.391 . S
C1447 H1435 0.950 . S
C1447 C1443 1.393 . S
C1447 C1446 1.391 . S
H1448 C1456 0.950 . S
H1449 C1461 0.950 . S
H1450 C1458 0.950 . S
H1451 C1460 0.950 . S
H1452 C1462 0.950 . S
H1453 C1464 0.950 . S
H1454 C1466 0.950 . S
H1455 C1467 0.950 . S
C1456 H1448 0.950 . S
C1456 C1457 1.386 . S
C1456 C1458 1.391 . S
C1457 C1456 1.386 . S
C1457 C1461 1.393 . S
C1458 H1450 0.950 . S
C1458 C1456 1.391 . S
C1458 C1459 1.400 . S
C1459 C1458 1.400 . S
C1459 C1460 1.398 . S
C1459 C1465 1.491 . S
C1460 H1451 0.950 . S
C1460 C1459 1.398 . S
C1460 C1461 1.391 . S
C1461 H1449 0.950 . S
C1461 C1457 1.393 . S
C1461 C1460 1.391 . S
C1462 H1452 0.950 . S
C1462 C1463 1.386 . S
C1462 C1464 1.391 . S
C1463 C1462 1.386 . S
C1463 C1467 1.393 . S
C1464 H1453 0.950 . S
C1464 C1462 1.391 . S
C1464 C1465 1.400 . S
C1465 C1459 1.491 . S
C1465 C1464 1.400 . S
C1465 C1466 1.398 . S
C1466 H1454 0.950 . S
C1466 C1465 1.398 . S
C1466 C1467 1.391 . S
C1467 H1455 0.950 . S
C1467 C1463 1.393 . S
C1467 C1466 1.391 . S
H1468 C1476 0.951 . S
H1469 C1481 0.950 . S
H1470 C1478 0.950 . S
H1471 C1480 0.950 1_565 S
H1472 C1482 0.950 . S
H1473 C1484 0.950 . S
H1474 C1486 0.950 . S
H1475 C1487 0.950 . S
C1476 H1468 0.951 . S
C1476 C1477 1.399 . S
C1476 C1478 1.377 1_556 S
C1477 C1476 1.399 . S
C1477 C1481 1.393 . S
C1478 H1470 0.950 . S
C1478 C1476 1.377 1_554 S
C1478 C1479 1.400 . S
C1479 C1478 1.400 . S
C1479 C1480 1.398 . S
C1479 C1485 1.491 . S
C1480 H1471 0.950 1_545 S
C1480 C1479 1.398 . S
C1480 C1481 1.391 1_554 S
C1481 H1469 0.950 . S
C1481 C1477 1.393 . S
C1481 C1480 1.391 1_556 S
C1482 H1472 0.950 . S
C1482 C1483 1.386 . S
C1482 C1484 1.391 . S
C1483 C1482 1.386 . S
C1483 C1487 1.393 1_565 S
C1484 H1473 0.950 . S
C1484 C1482 1.391 . S
C1484 C1485 1.400 1_565 S
C1485 C1479 1.491 . S
C1485 C1484 1.400 1_545 S
C1485 C1486 1.398 . S
C1486 H1474 0.950 . S
C1486 C1485 1.398 . S
C1486 C1487 1.391 . S
C1487 H1475 0.950 . S
C1487 C1483 1.393 1_545 S
C1487 C1486 1.391 . S
H1488 C1496 0.950 . S
H1489 C1501 0.950 . S
H1490 C1498 0.950 . S
H1491 C1500 0.950 . S
H1492 C1502 0.950 . S
H1493 C1504 0.950 . S
H1494 C1506 0.950 . S
H1495 C1507 0.950 . S
C1496 H1488 0.950 . S
C1496 C1497 1.386 . S
C1496 C1498 1.391 . S
C1497 C1496 1.386 . S
C1497 C1501 1.393 . S
C1498 H1490 0.950 . S
C1498 C1496 1.391 . S
C1498 C1499 1.400 . S
C1499 C1498 1.400 . S
C1499 C1500 1.398 . S
C1499 C1505 1.491 . S
C1500 H1491 0.950 . S
C1500 C1499 1.398 . S
C1500 C1501 1.391 . S
C1501 H1489 0.950 . S
C1501 C1497 1.393 . S
C1501 C1500 1.391 . S
C1502 H1492 0.950 . S
C1502 C1503 1.386 . S
C1502 C1504 1.391 . S
C1503 C1502 1.386 . S
C1503 C1507 1.393 . S
C1504 H1493 0.950 . S
C1504 C1502 1.391 . S
C1504 C1505 1.400 . S
C1505 C1499 1.491 . S
C1505 C1504 1.400 . S
C1505 C1506 1.398 . S
C1506 H1494 0.950 . S
C1506 C1505 1.398 . S
C1506 C1507 1.391 . S
C1507 H1495 0.950 . S
C1507 C1503 1.393 . S
C1507 C1506 1.391 . S
H1508 C1516 0.950 . S
H1509 C1521 0.950 . S
H1510 C1518 0.950 . S
H1511 C1520 0.950 1_565 S
H1512 C1522 0.950 . S
H1513 C1524 0.950 . S
H1514 C1526 0.950 . S
H1515 C1527 0.950 . S
C1516 H1508 0.950 . S
C1516 C1517 1.386 . S
C1516 C1518 1.391 . S
C1517 C1516 1.386 . S
C1517 C1521 1.393 . S
C1518 H1510 0.950 . S
C1518 C1516 1.391 . S
C1518 C1519 1.400 . S
C1519 C1518 1.400 . S
C1519 C1520 1.398 . S
C1519 C1525 1.491 . S
C1520 H1511 0.950 1_545 S
C1520 C1519 1.398 . S
C1520 C1521 1.391 . S
C1521 H1509 0.950 . S
C1521 C1517 1.393 . S
C1521 C1520 1.391 . S
C1522 H1512 0.950 . S
C1522 C1523 1.386 . S
C1522 C1524 1.391 . S
C1523 C1522 1.386 . S
C1523 C1527 1.393 1_565 S
C1524 H1513 0.950 . S
C1524 C1522 1.391 . S
C1524 C1525 1.400 1_565 S
C1525 C1519 1.491 . S
C1525 C1524 1.400 1_545 S
C1525 C1526 1.398 . S
C1526 H1514 0.950 . S
C1526 C1525 1.398 . S
C1526 C1527 1.391 . S
C1527 H1515 0.950 . S
C1527 C1523 1.393 1_545 S
C1527 C1526 1.391 . S
H1528 C1536 0.950 . S
H1529 C1541 0.950 . S
H1530 C1538 0.950 . S
H1531 C1540 0.950 . S
H1532 C1542 0.950 . S
H1533 C1544 0.950 . S
H1534 C1546 0.950 . S
H1535 C1547 0.950 . S
C1536 H1528 0.950 . S
C1536 C1537 1.386 . S
C1536 C1538 1.391 . S
C1537 C1536 1.386 . S
C1537 C1541 1.393 . S
C1538 H1530 0.950 . S
C1538 C1536 1.391 . S
C1538 C1539 1.400 . S
C1539 C1538 1.400 . S
C1539 C1540 1.398 . S
C1539 C1545 1.491 . S
C1540 H1531 0.950 . S
C1540 C1539 1.398 . S
C1540 C1541 1.391 . S
C1541 H1529 0.950 . S
C1541 C1537 1.393 . S
C1541 C1540 1.391 . S
C1542 H1532 0.950 . S
C1542 C1543 1.386 . S
C1542 C1544 1.391 . S
C1543 C1542 1.386 . S
C1543 C1547 1.393 . S
C1544 H1533 0.950 . S
C1544 C1542 1.391 . S
C1544 C1545 1.400 . S
C1545 C1539 1.491 . S
C1545 C1544 1.400 . S
C1545 C1546 1.398 . S
C1546 H1534 0.950 . S
C1546 C1545 1.398 . S
C1546 C1547 1.391 . S
C1547 H1535 0.950 . S
C1547 C1543 1.393 . S
C1547 C1546 1.391 . S
H1548 C1556 0.950 . S
H1549 C1561 0.950 . S
H1550 C1558 0.950 . S
H1551 C1560 0.950 . S
H1552 C1562 0.950 . S
H1553 C1564 0.950 . S
H1554 C1566 0.950 . S
H1555 C1567 0.950 . S
C1556 H1548 0.950 . S
C1556 C1557 1.386 . S
C1556 C1558 1.391 . S
C1557 C1556 1.386 . S
C1557 C1561 1.393 . S
C1558 H1550 0.950 . S
C1558 C1556 1.391 . S
C1558 C1559 1.400 1_565 S
C1559 C1558 1.400 1_545 S
C1559 C1560 1.398 . S
C1559 C1565 1.491 . S
C1560 H1551 0.950 . S
C1560 C1559 1.398 . S
C1560 C1561 1.391 1_545 S
C1561 H1549 0.950 . S
C1561 C1557 1.393 . S
C1561 C1560 1.391 1_565 S
C1562 H1552 0.950 . S
C1562 C1563 1.386 . S
C1562 C1564 1.391 1_556 S
C1563 C1562 1.386 . S
C1563 C1567 1.393 . S
C1564 H1553 0.950 . S
C1564 C1562 1.391 1_554 S
C1564 C1565 1.400 . S
C1565 C1559 1.491 . S
C1565 C1564 1.400 . S
C1565 C1566 1.398 . S
C1566 H1554 0.950 . S
C1566 C1565 1.398 . S
C1566 C1567 1.391 1_554 S
C1567 H1555 0.950 . S
C1567 C1563 1.393 . S
C1567 C1566 1.391 1_556 S
H1568 C1576 0.950 . S
H1569 C1581 0.950 . S
H1570 C1578 0.950 . S
H1571 C1580 0.950 . S
H1572 C1582 0.950 . S
H1573 C1584 0.950 . S
H1574 C1586 0.950 . S
H1575 C1587 0.950 . S
C1576 H1568 0.950 . S
C1576 C1577 1.386 . S
C1576 C1578 1.391 . S
C1577 C1576 1.386 . S
C1577 C1581 1.393 . S
C1578 H1570 0.950 . S
C1578 C1576 1.391 . S
C1578 C1579 1.400 . S
C1579 C1578 1.400 . S
C1579 C1580 1.398 . S
C1579 C1585 1.491 . S
C1580 H1571 0.950 . S
C1580 C1579 1.398 . S
C1580 C1581 1.391 . S
C1581 H1569 0.950 . S
C1581 C1577 1.393 . S
C1581 C1580 1.391 . S
C1582 H1572 0.950 . S
C1582 C1583 1.386 . S
C1582 C1584 1.391 . S
C1583 C1582 1.386 . S
C1583 C1587 1.393 . S
C1584 H1573 0.950 . S
C1584 C1582 1.391 . S
C1584 C1585 1.400 . S
C1585 C1579 1.491 . S
C1585 C1584 1.400 . S
C1585 C1586 1.398 . S
C1586 H1574 0.950 . S
C1586 C1585 1.398 . S
C1586 C1587 1.391 . S
C1587 H1575 0.950 . S
C1587 C1583 1.393 . S
C1587 C1586 1.391 . S
H1588 C1596 0.950 . S
H1589 C1601 0.950 . S
H1590 C1598 0.950 . S
H1591 C1600 0.950 . S
H1592 C1602 0.950 . S
H1593 C1604 0.950 . S
H1594 C1606 0.950 . S
H1595 C1607 0.950 . S
C1596 H1588 0.950 . S
C1596 C1597 1.386 . S
C1596 C1598 1.391 . S
C1597 C1596 1.386 . S
C1597 C1601 1.393 . S
C1598 H1590 0.950 . S
C1598 C1596 1.391 . S
C1598 C1599 1.400 . S
C1599 C1598 1.400 . S
C1599 C1600 1.398 . S
C1599 C1605 1.491 . S
C1600 H1591 0.950 . S
C1600 C1599 1.398 . S
C1600 C1601 1.391 . S
C1601 H1589 0.950 . S
C1601 C1597 1.393 . S
C1601 C1600 1.391 . S
C1602 H1592 0.950 . S
C1602 C1603 1.386 . S
C1602 C1604 1.391 1_556 S
C1603 C1602 1.386 . S
C1603 C1607 1.393 . S
C1604 H1593 0.950 . S
C1604 C1602 1.391 1_554 S
C1604 C1605 1.400 . S
C1605 C1599 1.491 . S
C1605 C1604 1.400 . S
C1605 C1606 1.398 . S
C1606 H1594 0.950 . S
C1606 C1605 1.398 . S
C1606 C1607 1.391 1_554 S
C1607 H1595 0.950 . S
C1607 C1603 1.393 . S
C1607 C1606 1.391 1_556 S
H1608 C1616 0.950 . S
H1609 C1621 0.950 . S
H1610 C1618 0.950 . S
H1611 C1620 0.950 . S
H1612 C1622 0.950 . S
H1613 C1624 0.950 . S
H1614 C1626 0.950 . S
H1615 C1627 0.950 . S
C1616 H1608 0.950 . S
C1616 C1617 1.386 . S
C1616 C1618 1.391 . S
C1617 C1616 1.386 . S
C1617 C1621 1.393 . S
C1618 H1610 0.950 . S
C1618 C1616 1.391 . S
C1618 C1619 1.400 . S
C1619 C1618 1.400 . S
C1619 C1620 1.398 . S
C1619 C1625 1.491 . S
C1620 H1611 0.950 . S
C1620 C1619 1.398 . S
C1620 C1621 1.391 . S
C1621 H1609 0.950 . S
C1621 C1617 1.393 . S
C1621 C1620 1.391 . S
C1622 H1612 0.950 . S
C1622 C1623 1.386 . S
C1622 C1624 1.391 . S
C1623 C1622 1.386 . S
C1623 C1627 1.393 . S
C1624 H1613 0.950 . S
C1624 C1622 1.391 . S
C1624 C1625 1.400 . S
C1625 C1619 1.491 . S
C1625 C1624 1.400 . S
C1625 C1626 1.398 . S
C1626 H1614 0.950 . S
C1626 C1625 1.398 . S
C1626 C1627 1.391 . S
C1627 H1615 0.950 . S
C1627 C1623 1.393 . S
C1627 C1626 1.391 . S
H1628 C1636 0.950 . S
H1629 C1641 0.950 . S
H1630 C1638 0.950 . S
H1631 C1640 0.950 . S
H1632 C1642 0.950 . S
H1633 C1644 0.950 . S
H1634 C1646 0.950 . S
H1635 C1647 0.950 . S
C1636 H1628 0.950 . S
C1636 C1637 1.386 . S
C1636 C1638 1.391 . S
C1637 C1636 1.386 . S
C1637 C1641 1.393 . S
C1638 H1630 0.950 . S
C1638 C1636 1.391 . S
C1638 C1639 1.400 . S
C1639 C1638 1.400 . S
C1639 C1640 1.398 . S
C1639 C1645 1.491 . S
C1640 H1631 0.950 . S
C1640 C1639 1.398 . S
C1640 C1641 1.391 . S
C1641 H1629 0.950 . S
C1641 C1637 1.393 . S
C1641 C1640 1.391 . S
C1642 H1632 0.950 . S
C1642 C1643 1.386 . S
C1642 C1644 1.391 . S
C1643 C1642 1.386 . S
C1643 C1647 1.393 . S
C1644 H1633 0.950 . S
C1644 C1642 1.391 . S
C1644 C1645 1.400 . S
C1645 C1639 1.491 . S
C1645 C1644 1.400 . S
C1645 C1646 1.398 . S
C1646 H1634 0.950 . S
C1646 C1645 1.398 . S
C1646 C1647 1.391 . S
C1647 H1635 0.950 . S
C1647 C1643 1.393 . S
C1647 C1646 1.391 . S
H1648 C1656 0.950 . S
H1649 C1661 0.950 . S
H1650 C1658 0.950 . S
H1651 C1660 0.950 . S
H1652 C1662 0.950 . S
H1653 C1664 0.950 . S
H1654 C1666 0.950 . S
H1655 C1667 0.950 . S
C1656 H1648 0.950 . S
C1656 C1657 1.386 . S
C1656 C1658 1.391 . S
C1657 C1656 1.386 . S
C1657 C1661 1.393 . S
C1658 H1650 0.950 . S
C1658 C1656 1.391 . S
C1658 C1659 1.400 . S
C1659 C1658 1.400 . S
C1659 C1660 1.398 . S
C1659 C1665 1.491 . S
C1660 H1651 0.950 . S
C1660 C1659 1.398 . S
C1660 C1661 1.391 . S
C1661 H1649 0.950 . S
C1661 C1657 1.393 . S
C1661 C1660 1.391 . S
C1662 H1652 0.950 . S
C1662 C1663 1.386 . S
C1662 C1664 1.391 . S
C1663 C1662 1.386 . S
C1663 C1667 1.393 . S
C1664 H1653 0.950 . S
C1664 C1662 1.391 . S
C1664 C1665 1.400 . S
C1665 C1659 1.491 . S
C1665 C1664 1.400 . S
C1665 C1666 1.398 . S
C1666 H1654 0.950 . S
C1666 C1665 1.398 . S
C1666 C1667 1.391 . S
C1667 H1655 0.950 . S
C1667 C1663 1.393 . S
C1667 C1666 1.391 . S
H1668 C1676 0.950 . S
H1669 C1681 0.950 . S
H1670 C1678 0.950 . S
H1671 C1680 0.950 . S
H1672 C1682 0.950 . S
H1673 C1684 0.950 . S
H1674 C1686 0.950 . S
H1675 C1687 0.950 . S
C1676 H1668 0.950 . S
C1676 C1677 1.386 . S
C1676 C1678 1.391 1_556 S
C1677 C1676 1.386 . S
C1677 C1681 1.393 . S
C1678 H1670 0.950 . S
C1678 C1676 1.391 1_554 S
C1678 C1679 1.400 . S
C1679 C1678 1.400 . S
C1679 C1680 1.398 . S
C1679 C1685 1.491 . S
C1680 H1671 0.950 . S
C1680 C1679 1.398 . S
C1680 C1681 1.391 1_554 S
C1681 H1669 0.950 . S
C1681 C1677 1.393 . S
C1681 C1680 1.391 1_556 S
C1682 H1672 0.950 . S
C1682 C1683 1.386 . S
C1682 C1684 1.391 . S
C1683 C1682 1.386 . S
C1683 C1687 1.393 . S
C1684 H1673 0.950 . S
C1684 C1682 1.391 . S
C1684 C1685 1.400 . S
C1685 C1679 1.491 . S
C1685 C1684 1.400 . S
C1685 C1686 1.398 . S
C1686 H1674 0.950 . S
C1686 C1685 1.398 . S
C1686 C1687 1.391 . S
C1687 H1675 0.950 . S
C1687 C1683 1.393 . S
C1687 C1686 1.391 . S
H1688 C1696 0.950 . S
H1689 C1701 0.950 . S
H1690 C1698 0.950 . S
H1691 C1700 0.950 . S
H1692 C1702 0.950 . S
H1693 C1704 0.950 . S
H1694 C1706 0.950 . S
H1695 C1707 0.950 . S
C1696 H1688 0.950 . S
C1696 C1697 1.386 . S
C1696 C1698 1.391 . S
C1697 C1696 1.386 . S
C1697 C1701 1.393 . S
C1698 H1690 0.950 . S
C1698 C1696 1.391 . S
C1698 C1699 1.400 . S
C1699 C1698 1.400 . S
C1699 C1700 1.398 . S
C1699 C1705 1.491 . S
C1700 H1691 0.950 . S
C1700 C1699 1.398 . S
C1700 C1701 1.391 . S
C1701 H1689 0.950 . S
C1701 C1697 1.393 . S
C1701 C1700 1.391 . S
C1702 H1692 0.950 . S
C1702 C1703 1.386 . S
C1702 C1704 1.391 . S
C1703 C1702 1.386 . S
C1703 C1707 1.393 . S
C1704 H1693 0.950 . S
C1704 C1702 1.391 . S
C1704 C1705 1.400 . S
C1705 C1699 1.491 . S
C1705 C1704 1.400 . S
C1705 C1706 1.398 . S
C1706 H1694 0.950 . S
C1706 C1705 1.398 . S
C1706 C1707 1.391 . S
C1707 H1695 0.950 . S
C1707 C1703 1.393 . S
C1707 C1706 1.391 . S
H1708 C1716 0.950 . S
H1709 C1721 0.950 . S
H1710 C1718 0.950 . S
H1711 C1720 0.950 . S
H1712 C1722 0.950 . S
H1713 C1724 0.950 . S
H1714 C1726 0.950 . S
H1715 C1727 0.950 . S
C1716 H1708 0.950 . S
C1716 C1717 1.386 . S
C1716 C1718 1.391 . S
C1717 C1716 1.386 . S
C1717 C1721 1.393 . S
C1718 H1710 0.950 . S
C1718 C1716 1.391 . S
C1718 C1719 1.400 . S
C1719 C1718 1.400 . S
C1719 C1720 1.398 . S
C1719 C1725 1.491 . S
C1720 H1711 0.950 . S
C1720 C1719 1.398 . S
C1720 C1721 1.391 . S
C1721 H1709 0.950 . S
C1721 C1717 1.393 . S
C1721 C1720 1.391 . S
C1722 H1712 0.950 . S
C1722 C1723 1.386 . S
C1722 C1724 1.391 . S
C1723 C1722 1.386 . S
C1723 C1727 1.393 . S
C1724 H1713 0.950 . S
C1724 C1722 1.391 . S
C1724 C1725 1.400 . S
C1725 C1719 1.491 . S
C1725 C1724 1.400 . S
C1725 C1726 1.398 . S
C1726 H1714 0.950 . S
C1726 C1725 1.398 . S
C1726 C1727 1.391 . S
C1727 H1715 0.950 . S
C1727 C1723 1.393 . S
C1727 C1726 1.391 . S
C457 C109 1.514 . S
C463 C11 1.517 . S
C477 C25 1.523 . S
C483 C67 1.528 . S
C497 C81 1.529 . S
C503 C39 1.533 . S
C517 C53 1.516 . S
C523 C95 1.514 . S
C537 C123 1.514 . S
C543 C221 1.516 . S
C557 C137 1.514 . S
C563 C179 1.514 . S
C577 C151 1.522 . S
C583 C193 1.527 . S
C597 C165 1.533 . S
C603 C207 1.529 . S
C617 C235 1.524 . S
C623 C333 1.529 . S
C637 C249 1.524 . S
C643 C291 1.529 . S
C657 C305 1.526 . S
C663 C263 1.531 . S
C677 C319 1.530 . S
C683 C277 1.533 . S
C697 C347 1.523 . S
C703 C445 1.528 . S
C717 C403 1.516 . S
C723 C361 1.514 . S
C737 C417 1.527 . S
C743 C375 1.531 . S
C757 C389 1.535 . S
C763 C431 1.534 . S
C777 C9 0.583 . S
C783 C93 0.587 . S
C797 C23 0.604 . S
C803 C107 0.607 . S
C817 C65 0.610 . S
C823 C37 0.610 . S
C837 C51 0.607 . S
C843 C79 0.609 . S
C857 C121 0.597 . S
C863 C205 0.601 . S
C877 C135 0.577 . S
C883 C219 0.576 . S
C897 C177 0.588 . S
C903 C149 0.584 . S
C917 C191 0.586 . S
C923 C163 0.582 . S
C937 C233 0.609 . S
C943 C317 0.608 . S
C957 C331 0.578 . S
C963 C247 0.576 . S
C977 C289 0.601 . S
C983 C261 0.596 . S
C997 C275 0.595 . S
C1003 C303 0.600 . S
C1017 C345 0.607 . S
C1023 C429 0.604 . S
C1037 C359 0.586 . S
C1043 C443 0.582 . S
C1057 C401 0.583 . S
C1063 C373 0.580 . S
C1077 C415 0.578 . S
C1083 C387 0.580 . S
C1097 C5 1.524 . S
C1103 C425 1.519 . S
C1117 C19 1.521 . S
C1123 C215 1.522 . S
C1137 C33 1.519 . S
C1143 C397 1.524 . S
C1157 C47 1.524 . S
C1163 C187 1.519 . S
C1177 C61 1.522 . S
C1183 C369 1.521 . S
C1197 C75 1.524 . S
C1203 C159 1.519 . S
C1217 C89 1.518 . S
C1223 C341 1.524 . S
C1237 C131 1.524 . S
C1243 C103 1.519 . S
C1257 C313 1.519 . S
C1263 C117 1.524 . S
C1277 C145 1.523 . S
C1283 C285 1.520 . S
C1297 C257 1.519 . S
C1303 C173 1.524 . S
C1317 C229 1.524 . S
C1323 C201 1.518 . S
C1337 C243 1.524 . S
C1343 C439 1.518 . S
C1357 C271 1.522 . S
C1363 C411 1.521 . S
C1377 C299 1.520 . S
C1383 C383 1.523 . S
C1397 C355 1.519 . S
C1403 C327 1.523 . S
C1417 C0 1.602 . S
C1423 C84 1.596 . S
C1437 C14 1.607 . S
C1443 C98 1.596 . S
C1457 C56 1.604 1_556 S
C1463 C28 1.596 . S
C1477 C42 1.607 . S
C1483 C70 1.596 . S
C1497 C112 1.600 1_556 S
C1503 C196 1.613 . S
C1517 C126 1.599 . S
C1523 C210 1.612 . S
C1537 C168 1.601 . S
C1543 C140 1.613 . S
C1557 C154 1.597 . S
C1563 C182 1.600 . S
C1577 C308 1.599 1_556 S
C1583 C224 1.612 . S
C1597 C322 1.613 . S
C1603 C238 1.602 . S
C1617 C280 1.607 . S
C1623 C252 1.596 . S
C1637 C294 1.608 . S
C1643 C266 1.596 . S
C1657 C420 1.609 . S
C1663 C336 1.596 . S
C1677 C434 1.606 . S
C1683 C350 1.613 . S
C1697 C364 1.596 1_556 S
C1703 C392 1.608 . S
C1717 C406 1.601 . S
C1723 C378 1.597 . S
