# Generated by pormake.
# Topology fnk, (5)-cn, num edge types: 1
# Building blocks:
#     Node 0, Type 0, BuildingBlock: XOMCOT_clean_sbu_1, # of connection points: 5
#     Node 1, Type 0, BuildingBlock: XOMCOT_clean_sbu_1, # of connection points: 5
#     Node 2, Type 0, BuildingBlock: XOMCOT_clean_sbu_1, # of connection points: 5
#     Node 3, Type 0, BuildingBlock: XOMCOT_clean_sbu_1, # of connection points: 5
#     Node 4, Type 0, BuildingBlock: XOMCOT_clean_sbu_1, # of connection points: 5
#     Node 5, Type 0, BuildingBlock: XOMCOT_clean_sbu_1, # of connection points: 5
#     Node 6, Type 0, BuildingBlock: XOMCOT_clean_sbu_1, # of connection points: 5
#     Node 7, Type 0, BuildingBlock: XOMCOT_clean_sbu_1, # of connection points: 5
#     Node 8, Type 0, BuildingBlock: XOMCOT_clean_sbu_1, # of connection points: 5
#     Node 9, Type 0, BuildingBlock: XOMCOT_clean_sbu_1, # of connection points: 5
#     Node 10, Type 0, BuildingBlock: XOMCOT_clean_sbu_1, # of connection points: 5
#     Node 11, Type 0, BuildingBlock: XOMCOT_clean_sbu_1, # of connection points: 5
#     Node 12, Type 0, BuildingBlock: XOMCOT_clean_sbu_1, # of connection points: 5
#     Node 13, Type 0, BuildingBlock: XOMCOT_clean_sbu_1, # of connection points: 5
#     Node 14, Type 0, BuildingBlock: XOMCOT_clean_sbu_1, # of connection points: 5
#     Node 15, Type 0, BuildingBlock: XOMCOT_clean_sbu_1, # of connection points: 5
#     Edge 16, Type (0, 0), BuildingBlock: UVAHIK_clean_linker_0, # of connection points: 2
#     Edge 17, Type (0, 0), BuildingBlock: UVAHIK_clean_linker_0, # of connection points: 2
#     Edge 18, Type (0, 0), BuildingBlock: UVAHIK_clean_linker_0, # of connection points: 2
#     Edge 19, Type (0, 0), BuildingBlock: UVAHIK_clean_linker_0, # of connection points: 2
#     Edge 20, Type (0, 0), BuildingBlock: UVAHIK_clean_linker_0, # of connection points: 2
#     Edge 21, Type (0, 0), BuildingBlock: UVAHIK_clean_linker_0, # of connection points: 2
#     Edge 22, Type (0, 0), BuildingBlock: UVAHIK_clean_linker_0, # of connection points: 2
#     Edge 23, Type (0, 0), BuildingBlock: UVAHIK_clean_linker_0, # of connection points: 2
#     Edge 24, Type (0, 0), BuildingBlock: UVAHIK_clean_linker_0, # of connection points: 2
#     Edge 25, Type (0, 0), BuildingBlock: UVAHIK_clean_linker_0, # of connection points: 2
#     Edge 26, Type (0, 0), BuildingBlock: UVAHIK_clean_linker_0, # of connection points: 2
#     Edge 27, Type (0, 0), BuildingBlock: UVAHIK_clean_linker_0, # of connection points: 2
#     Edge 28, Type (0, 0), BuildingBlock: UVAHIK_clean_linker_0, # of connection points: 2
#     Edge 29, Type (0, 0), BuildingBlock: UVAHIK_clean_linker_0, # of connection points: 2
#     Edge 30, Type (0, 0), BuildingBlock: UVAHIK_clean_linker_0, # of connection points: 2
#     Edge 31, Type (0, 0), BuildingBlock: UVAHIK_clean_linker_0, # of connection points: 2
#     Edge 32, Type (0, 0), BuildingBlock: UVAHIK_clean_linker_0, # of connection points: 2
#     Edge 33, Type (0, 0), BuildingBlock: UVAHIK_clean_linker_0, # of connection points: 2
#     Edge 34, Type (0, 0), BuildingBlock: UVAHIK_clean_linker_0, # of connection points: 2
#     Edge 35, Type (0, 0), BuildingBlock: UVAHIK_clean_linker_0, # of connection points: 2
#     Edge 36, Type (0, 0), BuildingBlock: UVAHIK_clean_linker_0, # of connection points: 2
#     Edge 37, Type (0, 0), BuildingBlock: UVAHIK_clean_linker_0, # of connection points: 2
#     Edge 38, Type (0, 0), BuildingBlock: UVAHIK_clean_linker_0, # of connection points: 2
#     Edge 39, Type (0, 0), BuildingBlock: UVAHIK_clean_linker_0, # of connection points: 2
#     Edge 40, Type (0, 0), BuildingBlock: UVAHIK_clean_linker_0, # of connection points: 2
#     Edge 41, Type (0, 0), BuildingBlock: UVAHIK_clean_linker_0, # of connection points: 2
#     Edge 42, Type (0, 0), BuildingBlock: UVAHIK_clean_linker_0, # of connection points: 2
#     Edge 43, Type (0, 0), BuildingBlock: UVAHIK_clean_linker_0, # of connection points: 2
#     Edge 44, Type (0, 0), BuildingBlock: UVAHIK_clean_linker_0, # of connection points: 2
#     Edge 45, Type (0, 0), BuildingBlock: UVAHIK_clean_linker_0, # of connection points: 2
#     Edge 46, Type (0, 0), BuildingBlock: UVAHIK_clean_linker_0, # of connection points: 2
#     Edge 47, Type (0, 0), BuildingBlock: UVAHIK_clean_linker_0, # of connection points: 2
#     Edge 48, Type (0, 0), BuildingBlock: UVAHIK_clean_linker_0, # of connection points: 2
#     Edge 49, Type (0, 0), BuildingBlock: UVAHIK_clean_linker_0, # of connection points: 2
#     Edge 50, Type (0, 0), BuildingBlock: UVAHIK_clean_linker_0, # of connection points: 2
#     Edge 51, Type (0, 0), BuildingBlock: UVAHIK_clean_linker_0, # of connection points: 2
#     Edge 52, Type (0, 0), BuildingBlock: UVAHIK_clean_linker_0, # of connection points: 2
#     Edge 53, Type (0, 0), BuildingBlock: UVAHIK_clean_linker_0, # of connection points: 2
#     Edge 54, Type (0, 0), BuildingBlock: UVAHIK_clean_linker_0, # of connection points: 2
#     Edge 55, Type (0, 0), BuildingBlock: UVAHIK_clean_linker_0, # of connection points: 2
# Relax obj value: 0.619
# Max RMSD: 0.261
# Mean RMSD: 0.261
data_MOF--net-fnk--node1-XOMCOT_clean_sbu_1--edge1-UVAHIK_clean_linker_0
_symmetry_space_group_name_H-M    P1
_symmetry_Int_Tables_number       1
_symmetry_cell_setting            triclinic
loop_
_symmetry_equiv_pos_as_xyz
'x, y, z'
_cell_length_a     56.270291
_cell_length_b     56.280884
_cell_length_c     60.791177
_cell_angle_alpha  89.988543
_cell_angle_beta   89.971975
_cell_angle_gamma 89.986176
loop_
_atom_site_label
_atom_site_type_symbol
_atom_site_fract_x
_atom_site_fract_y
_atom_site_fract_z
_atom_type_partial_charge
C0 C 0.13599 0.33219 0.16745 0.0
C1 C 0.15091 0.31309 0.16967 0.0
N2 N 0.17348 0.32044 0.16646 0.0
N3 N 0.14889 0.35185 0.16336 0.0
C4 C 0.17149 0.34387 0.16151 0.0
H5 H 0.11705 0.33215 0.17048 0.0
Co6 Co 0.13495 0.3822 0.16445 0.0
C7 C 0.18435 0.39693 0.18478 0.0
O8 O 0.19319 0.37636 0.19077 0.0
N9 N 0.12016 0.41239 0.16541 0.0
C10 C 0.10787 0.44704 0.17882 0.0
C11 C 0.12343 0.42852 0.18155 0.0
C12 C 0.10221 0.42151 0.15315 0.0
N13 N 0.09435 0.44267 0.16098 0.0
O14 O 0.14362 0.38692 0.13429 0.0
H15 H 0.13538 0.4263 0.19532 0.0
H16 H 0.09444 0.41241 0.13926 0.0
O17 O 0.164 0.39805 0.17537 0.0
C18 C 0.12689 0.37754 0.12306 0.0
O19 O 0.10857 0.36868 0.1337 0.0
N20 N 0.12436 0.37592 0.1932 0.0
C21 C 0.10256 0.35286 0.22814 0.0
C22 C 0.12732 0.35371 0.22685 0.0
C23 C 0.13797 0.36573 0.20929 0.0
C24 C 0.10022 0.37622 0.19505 0.0
C25 C 0.08898 0.36518 0.21264 0.0
H26 H 0.15685 0.36429 0.20743 0.0
H27 H 0.08944 0.38315 0.18182 0.0
H28 H 0.1863 0.35518 0.15737 0.0
H29 H 0.14551 0.29567 0.17528 0.0
H30 H 0.10575 0.46183 0.19001 0.0
H31 H 0.13821 0.34384 0.23835 0.0
H32 H 0.06974 0.36433 0.21296 0.0
C33 C 0.68703 0.16753 0.18859 0.0
C34 C 0.7014 0.18254 0.20036 0.0
N35 N 0.68925 0.20259 0.20433 0.0
N36 N 0.66563 0.17788 0.18517 0.0
C37 C 0.66787 0.19961 0.19464 0.0
H38 H 0.69241 0.1503 0.18273 0.0
Co39 Co 0.63949 0.16526 0.16901 0.0
C40 C 0.61522 0.18641 0.2085 0.0
O41 O 0.63258 0.17964 0.22153 0.0
N42 N 0.61362 0.15323 0.15295 0.0
C43 C 0.57709 0.15106 0.13911 0.0
C44 C 0.59428 0.16601 0.14726 0.0
C45 C 0.60797 0.13061 0.14746 0.0
N46 N 0.58566 0.12874 0.13946 0.0
O47 O 0.64129 0.19107 0.1484 0.0
H48 H 0.59233 0.18492 0.14991 0.0
H49 H 0.61924 0.11547 0.15068 0.0
O50 O 0.61652 0.18221 0.18783 0.0
C51 C 0.65924 0.1897 0.13557 0.0
O52 O 0.67726 0.17638 0.14158 0.0
N53 N 0.63871 0.13801 0.18667 0.0
C54 C 0.63488 0.09018 0.19826 0.0
C55 C 0.61901 0.10708 0.20682 0.0
C56 C 0.62082 0.13082 0.20035 0.0
C57 C 0.65473 0.12192 0.17889 0.0
C58 C 0.6533 0.09806 0.18458 0.0
H59 H 0.60643 0.14248 0.20471 0.0
H60 H 0.6669 0.12706 0.16599 0.0
H61 H 0.65405 0.21299 0.1946 0.0
H62 H 0.71924 0.17879 0.20607 0.0
H63 H 0.55933 0.15613 0.13414 0.0
H64 H 0.60441 0.10186 0.21737 0.0
H65 H 0.66534 0.08571 0.1767 0.0
C66 C 0.82381 0.67753 0.15742 0.0
C67 C 0.80598 0.69267 0.16376 0.0
N68 N 0.78579 0.68009 0.16556 0.0
N69 N 0.81523 0.65516 0.15561 0.0
C70 C 0.79167 0.65767 0.15978 0.0
H71 H 0.84183 0.68298 0.15428 0.0
Co72 Co 0.83228 0.6273 0.14716 0.0
C73 C 0.80069 0.60861 0.18273 0.0
O74 O 0.8042 0.62804 0.19428 0.0
N75 N 0.84886 0.60006 0.13822 0.0
C76 C 0.85627 0.56295 0.12785 0.0
C77 C 0.8388 0.57954 0.1316 0.0
C78 C 0.87251 0.59562 0.13802 0.0
N79 N 0.87757 0.573 0.13199 0.0
O80 O 0.8137 0.62562 0.12092 0.0
H81 H 0.81987 0.57663 0.13016 0.0
H82 H 0.88573 0.60865 0.14255 0.0
O83 O 0.81011 0.60664 0.1636 0.0
C84 C 0.82204 0.6411 0.10768 0.0
O85 O 0.8392 0.65506 0.11457 0.0
N86 N 0.85273 0.62985 0.17137 0.0
C87 C 0.89035 0.63422 0.20086 0.0
C88 C 0.87331 0.61629 0.20357 0.0
C89 C 0.85507 0.61392 0.18822 0.0
C90 C 0.86971 0.64669 0.16809 0.0
C91 C 0.88836 0.64952 0.18279 0.0
H92 H 0.84404 0.59834 0.18923 0.0
H93 H 0.86989 0.65674 0.15298 0.0
H94 H 0.77905 0.64319 0.15912 0.0
H95 H 0.80801 0.71131 0.16773 0.0
H96 H 0.85332 0.54463 0.12324 0.0
H97 H 0.87462 0.60352 0.21685 0.0
H98 H 0.90195 0.66257 0.17914 0.0
C99 C 0.36686 0.83127 0.12671 0.0
C100 C 0.35108 0.81589 0.13669 0.0
N101 N 0.35971 0.81026 0.15669 0.0
N102 N 0.38539 0.83512 0.1403 0.0
C103 C 0.38052 0.82198 0.15837 0.0
H104 H 0.36473 0.83946 0.11074 0.0
Co105 Co 0.4112 0.8553 0.13543 0.0
C106 C 0.44312 0.84695 0.17286 0.0
O107 O 0.44584 0.87011 0.17406 0.0
N108 N 0.43789 0.87536 0.13024 0.0
C109 C 0.47558 0.88455 0.12303 0.0
C110 C 0.45961 0.8664 0.12569 0.0
C111 C 0.44121 0.89925 0.12998 0.0
N112 N 0.46406 0.90532 0.12571 0.0
O113 O 0.42173 0.83478 0.11209 0.0
H114 H 0.46377 0.84766 0.12488 0.0
H115 H 0.42729 0.91204 0.13286 0.0
O116 O 0.4298 0.83803 0.15791 0.0
C117 C 0.41515 0.84569 0.09469 0.0
O118 O 0.40457 0.86637 0.09667 0.0
N119 N 0.39797 0.87655 0.15575 0.0
C120 C 0.36672 0.90742 0.17707 0.0
C121 C 0.37845 0.88944 0.18885 0.0
C122 C 0.39376 0.87385 0.17778 0.0
C123 C 0.38644 0.89376 0.14421 0.0
C124 C 0.37124 0.90964 0.15453 0.0
H125 H 0.40104 0.85906 0.1868 0.0
H126 H 0.38861 0.8948 0.12658 0.0
H127 H 0.39189 0.82106 0.17267 0.0
H128 H 0.33423 0.80998 0.1301 0.0
H129 H 0.4944 0.88242 0.11999 0.0
H130 H 0.37506 0.8868 0.20622 0.0
H131 H 0.36284 0.92336 0.14475 0.0
C132 C 0.19393 0.68005 0.33787 0.0
C133 C 0.21001 0.696 0.32951 0.0
N134 N 0.22731 0.6837 0.31945 0.0
N135 N 0.2005 0.65759 0.33271 0.0
C136 C 0.22166 0.66059 0.32231 0.0
H137 H 0.1782 0.68482 0.34704 0.0
Co138 Co 0.18264 0.63025 0.34147 0.0
C139 C 0.21214 0.60731 0.3066 0.0
O140 O 0.20669 0.6246 0.29296 0.0
N141 N 0.16508 0.60388 0.35114 0.0
C142 C 0.15597 0.56778 0.36319 0.0
C143 C 0.1742 0.58323 0.3585 0.0
C144 C 0.14124 0.60076 0.35192 0.0
N145 N 0.13513 0.57874 0.35897 0.0
O146 O 0.20012 0.62947 0.36837 0.0
H147 H 0.19298 0.57948 0.35999 0.0
H148 H 0.12868 0.61433 0.34704 0.0
O149 O 0.2049 0.60816 0.32661 0.0
C150 C 0.18834 0.64246 0.38166 0.0
O151 O 0.16873 0.6526 0.37466 0.0
N152 N 0.16324 0.63189 0.31627 0.0
C153 C 0.12555 0.63323 0.28653 0.0
C154 C 0.13994 0.613 0.28816 0.0
C155 C 0.15827 0.61245 0.30354 0.0
C156 C 0.14966 0.65183 0.31447 0.0
C157 C 0.13099 0.65302 0.29955 0.0
H158 H 0.1672 0.59574 0.30629 0.0
H159 H 0.15168 0.66618 0.32595 0.0
H160 H 0.23329 0.64637 0.31729 0.0
H161 H 0.20859 0.71517 0.33004 0.0
H162 H 0.15808 0.5496 0.3686 0.0
H163 H 0.13619 0.59718 0.27865 0.0
H164 H 0.11975 0.66864 0.29963 0.0
C165 C 0.32173 0.18369 0.34762 0.0
C166 C 0.31231 0.20332 0.33745 0.0
N167 N 0.3236 0.20659 0.31812 0.0
N168 N 0.33906 0.17441 0.33495 0.0
C169 C 0.34016 0.18914 0.31734 0.0
H170 H 0.31481 0.17568 0.36242 0.0
Co171 Co 0.35164 0.14373 0.33859 0.0
C172 C 0.39603 0.14347 0.31206 0.0
O173 O 0.39044 0.12216 0.30489 0.0
N174 N 0.36359 0.11249 0.34304 0.0
C175 C 0.3646 0.07371 0.35049 0.0
C176 C 0.35034 0.09254 0.34497 0.0
C177 C 0.3859 0.10524 0.34832 0.0
N178 N 0.38698 0.08168 0.35242 0.0
O179 O 0.36229 0.1515 0.36778 0.0
H180 H 0.33129 0.09157 0.34345 0.0
H181 H 0.40101 0.11703 0.34966 0.0
O182 O 0.38223 0.15422 0.32559 0.0
C183 C 0.3464 0.14371 0.38097 0.0
O184 O 0.32742 0.13361 0.37252 0.0
N185 N 0.33844 0.13518 0.31111 0.0
C186 C 0.31603 0.11327 0.2756 0.0
C187 C 0.33493 0.12919 0.27219 0.0
C188 C 0.34591 0.14001 0.29019 0.0
C189 C 0.3175 0.12358 0.31419 0.0
C190 C 0.30643 0.11176 0.29689 0.0
H191 H 0.36066 0.15169 0.28703 0.0
H192 H 0.31008 0.12226 0.33054 0.0
H193 H 0.35191 0.18634 0.30358 0.0
H194 H 0.29679 0.21297 0.343 0.0
H195 H 0.35898 0.0555 0.35293 0.0
H196 H 0.34196 0.13254 0.2559 0.0
H197 H 0.2915 0.10041 0.30072 0.0
C198 C 0.86636 0.34462 0.34529 0.0
C199 C 0.84988 0.32665 0.34456 0.0
N200 N 0.82803 0.33613 0.34714 0.0
N201 N 0.8551 0.36557 0.34783 0.0
C202 C 0.83195 0.35966 0.35021 0.0
H203 H 0.88523 0.34275 0.34238 0.0
Co204 Co 0.87067 0.39498 0.34501 0.0
C205 C 0.82298 0.4096 0.32157 0.0
O206 O 0.81414 0.38879 0.31642 0.0
N207 N 0.88684 0.42438 0.34228 0.0
C208 C 0.9002 0.45733 0.3263 0.0
C209 C 0.88429 0.43901 0.32483 0.0
C210 C 0.90487 0.43417 0.35402 0.0
N211 N 0.9133 0.45435 0.34462 0.0
O212 O 0.86086 0.40257 0.37436 0.0
H213 H 0.87261 0.43579 0.31104 0.0
H214 H 0.91228 0.42622 0.36868 0.0
O215 O 0.84277 0.41108 0.33189 0.0
C216 C 0.87664 0.3932 0.38673 0.0
O217 O 0.89541 0.3837 0.37729 0.0
N218 N 0.88233 0.38565 0.31735 0.0
C219 C 0.90504 0.35848 0.28558 0.0
C220 C 0.88033 0.36072 0.28532 0.0
C221 C 0.86925 0.37475 0.30131 0.0
C222 C 0.90652 0.38453 0.31693 0.0
C223 C 0.91825 0.37138 0.30093 0.0
H224 H 0.85026 0.3744 0.30213 0.0
H225 H 0.9168 0.39205 0.33022 0.0
H226 H 0.81808 0.37253 0.3532 0.0
H227 H 0.85369 0.30838 0.34031 0.0
H228 H 0.9029 0.47097 0.31399 0.0
H229 H 0.86968 0.35048 0.27391 0.0
H230 H 0.93741 0.36954 0.30179 0.0
C231 C 0.65153 0.82193 0.35671 0.0
C232 C 0.66584 0.80722 0.3445 0.0
N233 N 0.65432 0.80133 0.32583 0.0
N234 N 0.63078 0.82527 0.34607 0.0
C235 C 0.6331 0.81258 0.32725 0.0
H236 H 0.65625 0.82969 0.37234 0.0
Co237 Co 0.60503 0.84428 0.35527 0.0
C238 C 0.58176 0.79601 0.34872 0.0
O239 O 0.60023 0.78253 0.35304 0.0
N240 N 0.57936 0.86287 0.36453 0.0
C241 C 0.54603 0.87291 0.38161 0.0
C242 C 0.56193 0.85493 0.37783 0.0
C243 C 0.57376 0.88585 0.36048 0.0
N244 N 0.55344 0.89245 0.37077 0.0
O245 O 0.61078 0.83558 0.38532 0.0
H246 H 0.56082 0.83708 0.38436 0.0
H247 H 0.58445 0.89747 0.35031 0.0
O248 O 0.5833 0.8185 0.35024 0.0
C249 C 0.62222 0.85293 0.39375 0.0
O250 O 0.62731 0.87112 0.381 0.0
N251 N 0.60049 0.85455 0.32651 0.0
C252 C 0.59837 0.87224 0.28394 0.0
C253 C 0.57885 0.8602 0.29293 0.0
C254 C 0.58027 0.85141 0.3144 0.0
C255 C 0.61926 0.86685 0.31822 0.0
C256 C 0.61873 0.87554 0.29686 0.0
H257 H 0.56498 0.84262 0.32138 0.0
H258 H 0.63479 0.86983 0.32834 0.0
H259 H 0.61945 0.81188 0.31476 0.0
H260 H 0.68338 0.80134 0.34928 0.0
H261 H 0.52995 0.87147 0.3913 0.0
H262 H 0.56263 0.85789 0.28358 0.0
H263 H 0.63383 0.88552 0.29079 0.0
C264 C 0.85227 0.65617 0.84518 0.0
C265 C 0.83203 0.66847 0.83988 0.0
N266 N 0.8384 0.68985 0.83192 0.0
N267 N 0.87163 0.66919 0.84002 0.0
C268 C 0.8624 0.69021 0.83322 0.0
H269 H 0.85282 0.63838 0.85187 0.0
Co270 Co 0.90267 0.65693 0.84478 0.0
C271 C 0.91675 0.69866 0.81773 0.0
O272 O 0.90082 0.69248 0.80299 0.0
N273 N 0.9327 0.64417 0.85077 0.0
C274 C 0.97043 0.63941 0.86057 0.0
C275 C 0.95215 0.6555 0.85839 0.0
C276 C 0.93932 0.62116 0.84904 0.0
N277 N 0.96227 0.61783 0.85474 0.0
O278 O 0.89973 0.66641 0.87487 0.0
H279 H 0.95288 0.67417 0.86248 0.0
H280 H 0.92754 0.60716 0.84354 0.0
O281 O 0.91817 0.6871 0.8359 0.0
C282 C 0.89326 0.64784 0.88534 0.0
O283 O 0.89182 0.62772 0.87443 0.0
N284 N 0.90492 0.64527 0.81559 0.0
C285 C 0.90831 0.62287 0.77478 0.0
C286 C 0.92718 0.63659 0.78271 0.0
C287 C 0.92521 0.64748 0.80327 0.0
C288 C 0.88681 0.63132 0.80824 0.0
C289 C 0.88791 0.62044 0.78777 0.0
H290 H 0.94033 0.65715 0.80956 0.0
H291 H 0.87185 0.62737 0.81859 0.0
H292 H 0.8728 0.70571 0.82942 0.0
H293 H 0.81405 0.6619 0.84147 0.0
H294 H 0.98815 0.64313 0.8666 0.0
H295 H 0.94353 0.63829 0.77343 0.0
H296 H 0.87344 0.60892 0.78281 0.0
C297 C 0.28203 0.86435 0.84379 0.0
C298 C 0.26512 0.8488 0.83602 0.0
N299 N 0.27561 0.83399 0.82157 0.0
N300 N 0.30331 0.85915 0.83466 0.0
C301 C 0.29866 0.84067 0.82109 0.0
H302 H 0.27878 0.87927 0.8546 0.0
Co303 Co 0.33061 0.87863 0.83417 0.0
C304 C 0.30101 0.90952 0.81432 0.0
O305 O 0.3027 0.89273 0.79938 0.0
N306 N 0.35697 0.89833 0.83173 0.0
C307 C 0.38263 0.92041 0.81305 0.0
C308 C 0.36485 0.90391 0.81146 0.0
C309 C 0.37027 0.91174 0.84556 0.0
N310 N 0.38603 0.92546 0.83445 0.0
O311 O 0.33209 0.88024 0.8668 0.0
H312 H 0.35751 0.8969 0.79637 0.0
H313 H 0.36775 0.91235 0.86318 0.0
O314 O 0.31097 0.90639 0.83292 0.0
C315 C 0.32413 0.86626 0.8818 0.0
O316 O 0.3121 0.84724 0.87617 0.0
N317 N 0.35102 0.85208 0.83336 0.0
C318 C 0.39041 0.8234 0.82474 0.0
C319 C 0.37596 0.83164 0.80754 0.0
C320 C 0.35641 0.84597 0.81226 0.0
C321 C 0.36398 0.84289 0.85038 0.0
C322 C 0.38331 0.82801 0.84641 0.0
H323 H 0.34665 0.85397 0.79884 0.0
H324 H 0.36128 0.84828 0.86707 0.0
H325 H 0.31136 0.83357 0.80955 0.0
H326 H 0.24638 0.84912 0.84002 0.0
H327 H 0.39219 0.92834 0.79943 0.0
H328 H 0.38086 0.82902 0.79049 0.0
H329 H 0.39382 0.82189 0.86022 0.0
C330 C 0.16419 0.30489 0.85449 0.0
C331 C 0.17612 0.28927 0.84098 0.0
N332 N 0.16367 0.28702 0.82222 0.0
N333 N 0.14416 0.31235 0.84438 0.0
C334 C 0.14433 0.3009 0.82479 0.0
H335 H 0.17043 0.31107 0.87027 0.0
Co336 Co 0.12287 0.33596 0.85406 0.0
C337 C 0.08144 0.33195 0.82473 0.0
O338 O 0.08117 0.35527 0.82373 0.0
N339 N 0.101 0.35946 0.86411 0.0
C340 C 0.06717 0.37327 0.87818 0.0
C341 C 0.08037 0.35337 0.87399 0.0
C342 C 0.09986 0.38354 0.86273 0.0
N343 N 0.07932 0.3924 0.87106 0.0
O344 O 0.11521 0.31729 0.87964 0.0
H345 H 0.07463 0.33533 0.87705 0.0
H346 H 0.11344 0.3944 0.85529 0.0
O347 O 0.09718 0.32133 0.83637 0.0
C348 C 0.12918 0.32526 0.89447 0.0
O349 O 0.14469 0.34165 0.88894 0.0
N350 N 0.1334 0.35539 0.83104 0.0
C351 C 0.15768 0.38625 0.80305 0.0
C352 C 0.14226 0.36892 0.79452 0.0
C353 C 0.13041 0.35348 0.8088 0.0
C354 C 0.14941 0.37109 0.83937 0.0
C355 C 0.16128 0.38702 0.82584 0.0
H356 H 0.11932 0.33989 0.80174 0.0
H357 H 0.15258 0.37161 0.8569 0.0
H358 H 0.13085 0.30303 0.8123 0.0
H359 H 0.19329 0.28129 0.84416 0.0
H360 H 0.04942 0.37333 0.885 0.0
H361 H 0.13951 0.36711 0.77697 0.0
H362 H 0.17273 0.40015 0.83337 0.0
C363 C 0.65704 0.17078 0.87524 0.0
C364 C 0.67207 0.18653 0.86493 0.0
N365 N 0.68261 0.17531 0.84793 0.0
N366 N 0.65803 0.14968 0.86484 0.0
C367 C 0.67397 0.1529 0.84841 0.0
H368 H 0.64537 0.17473 0.8889 0.0
Co369 Co 0.63778 0.12422 0.87079 0.0
C370 C 0.6489 0.08821 0.83779 0.0
O371 O 0.62587 0.08631 0.83473 0.0
N372 N 0.61727 0.0979 0.87723 0.0
C373 C 0.60741 0.06151 0.88853 0.0
C374 C 0.62559 0.07753 0.88616 0.0
C375 C 0.59371 0.0936 0.87429 0.0
N376 N 0.5873 0.07156 0.88102 0.0
O377 O 0.65613 0.11714 0.89669 0.0
H378 H 0.64401 0.07419 0.89015 0.0
H379 H 0.58141 0.10606 0.86709 0.0
O380 O 0.65703 0.10298 0.85195 0.0
C381 C 0.64353 0.12559 0.91234 0.0
O382 O 0.62291 0.13521 0.90753 0.0
N383 N 0.61859 0.13455 0.84763 0.0
C384 C 0.59034 0.16307 0.82083 0.0
C385 C 0.60989 0.15084 0.812 0.0
C386 C 0.62418 0.13701 0.82584 0.0
C387 C 0.5999 0.14666 0.85633 0.0
C388 C 0.58529 0.16055 0.84324 0.0
H389 H 0.64025 0.12943 0.81917 0.0
H390 H 0.59666 0.14602 0.87384 0.0
H391 H 0.67811 0.13955 0.8362 0.0
H392 H 0.67456 0.205 0.86931 0.0
H393 H 0.60911 0.04348 0.89452 0.0
H394 H 0.61464 0.15275 0.79483 0.0
H395 H 0.57028 0.16946 0.85076 0.0
C396 C 0.81812 0.3256 0.65491 0.0
C397 C 0.80055 0.31289 0.66517 0.0
N398 N 0.81079 0.2957 0.67721 0.0
N399 N 0.83972 0.31719 0.6608 0.0
C400 C 0.83439 0.298 0.6735 0.0
H401 H 0.81506 0.34053 0.64414 0.0
Co402 Co 0.86865 0.33205 0.65123 0.0
C403 C 0.8891 0.3032 0.68793 0.0
O404 O 0.87284 0.31159 0.70139 0.0
N405 N 0.8965 0.34666 0.6409 0.0
C406 C 0.93388 0.35249 0.63057 0.0
C407 C 0.91682 0.33568 0.63509 0.0
C408 C 0.90138 0.37011 0.63912 0.0
N409 N 0.92424 0.37425 0.63332 0.0
O410 O 0.86832 0.31301 0.62509 0.0
H411 H 0.91935 0.31663 0.63489 0.0
H412 H 0.88853 0.38384 0.64281 0.0
O413 O 0.88867 0.30901 0.66752 0.0
C414 C 0.85724 0.32559 0.61092 0.0
O415 O 0.84821 0.34599 0.61726 0.0
N416 N 0.86846 0.35346 0.67518 0.0
C417 C 0.87385 0.39755 0.69517 0.0
C418 C 0.89134 0.38014 0.69767 0.0
C419 C 0.88849 0.35826 0.68724 0.0
C420 C 0.85047 0.36969 0.67437 0.0
C421 C 0.85272 0.39177 0.6844 0.0
H422 H 0.90381 0.34678 0.68638 0.0
H423 H 0.83563 0.36713 0.66356 0.0
H424 H 0.84731 0.28587 0.68019 0.0
H425 H 0.78167 0.3164 0.66419 0.0
H426 H 0.95225 0.34881 0.6266 0.0
H427 H 0.90818 0.38432 0.7054 0.0
H428 H 0.839 0.40501 0.68195 0.0
C429 C 0.66704 0.83156 0.66011 0.0
C430 C 0.68171 0.8141 0.66806 0.0
N431 N 0.69753 0.82422 0.68171 0.0
N432 N 0.67284 0.85274 0.66914 0.0
C433 C 0.69241 0.84768 0.68131 0.0
H434 H 0.65246 0.82869 0.64887 0.0
Co435 Co 0.65544 0.88119 0.66315 0.0
C436 C 0.6844 0.9008 0.70036 0.0
O437 O 0.67776 0.88323 0.71322 0.0
N438 N 0.63871 0.90896 0.65613 0.0
C439 C 0.63182 0.94617 0.6459 0.0
C440 C 0.64905 0.92964 0.65038 0.0
C441 C 0.61509 0.91323 0.65469 0.0
N442 N 0.61036 0.93591 0.64857 0.0
O443 O 0.67309 0.88435 0.6364 0.0
H444 H 0.66803 0.93252 0.64943 0.0
H445 H 0.60172 0.89988 0.65797 0.0
O446 O 0.67794 0.90112 0.68012 0.0
C447 C 0.6598 0.87393 0.62239 0.0
O448 O 0.63896 0.86606 0.62894 0.0
N449 N 0.63585 0.87665 0.68804 0.0
C450 C 0.60445 0.86637 0.72216 0.0
C451 C 0.6145 0.88908 0.72034 0.0
C452 C 0.63004 0.89397 0.70293 0.0
C453 C 0.62457 0.85525 0.68878 0.0
C454 C 0.60942 0.8495 0.70596 0.0
H455 H 0.63726 0.91168 0.70131 0.0
H456 H 0.62649 0.84269 0.6756 0.0
H457 H 0.70299 0.86066 0.68977 0.0
H458 H 0.68049 0.79533 0.66436 0.0
H459 H 0.63499 0.9645 0.64141 0.0
H460 H 0.61026 0.90288 0.73212 0.0
H461 H 0.60082 0.83227 0.70604 0.0
C462 C 0.16236 0.65171 0.63664 0.0
C463 C 0.17928 0.6664 0.6458 0.0
N464 N 0.16873 0.67979 0.6614 0.0
N465 N 0.14127 0.65578 0.64644 0.0
C466 C 0.1457 0.67309 0.66129 0.0
H467 H 0.16537 0.63833 0.62417 0.0
Co468 Co 0.11362 0.63819 0.64211 0.0
C469 C 0.07999 0.65598 0.67486 0.0
O470 O 0.07499 0.63366 0.67921 0.0
N471 N 0.08509 0.6205 0.63734 0.0
C472 C 0.04704 0.61424 0.62888 0.0
C473 C 0.06484 0.63086 0.63017 0.0
C474 C 0.07912 0.59726 0.6398 0.0
N475 N 0.05604 0.59311 0.63494 0.0
O476 O 0.10811 0.65542 0.61536 0.0
H477 H 0.06299 0.64957 0.62648 0.0
H478 H 0.09107 0.58359 0.64551 0.0
O479 O 0.09528 0.66106 0.65998 0.0
C480 C 0.11466 0.64096 0.60033 0.0
O481 O 0.12096 0.61937 0.60614 0.0
N482 N 0.12219 0.61974 0.66637 0.0
C483 C 0.14858 0.5913 0.69477 0.0
C484 C 0.1383 0.61246 0.70235 0.0
C485 C 0.1256 0.62681 0.68768 0.0
C486 C 0.13233 0.59934 0.65889 0.0
C487 C 0.14517 0.58466 0.67282 0.0
H488 H 0.11994 0.64409 0.69325 0.0
H489 H 0.1313 0.59491 0.64163 0.0
H490 H 0.1326 0.67975 0.67274 0.0
H491 H 0.19796 0.66681 0.64158 0.0
H492 H 0.02889 0.61742 0.62376 0.0
H493 H 0.14105 0.6184 0.7191 0.0
H494 H 0.15275 0.56843 0.6663 0.0
C495 C 0.33963 0.17994 0.64963 0.0
C496 C 0.32068 0.19526 0.65133 0.0
N497 N 0.3009 0.18246 0.65525 0.0
N498 N 0.33215 0.15745 0.65298 0.0
C499 C 0.30826 0.15956 0.65486 0.0
H500 H 0.35791 0.18524 0.64742 0.0
Co501 Co 0.35188 0.13054 0.65786 0.0
C502 C 0.31116 0.11739 0.68906 0.0
O503 O 0.3085 0.13881 0.6973 0.0
N504 N 0.37147 0.1037 0.66285 0.0
C505 C 0.38599 0.07175 0.67973 0.0
C506 C 0.36976 0.08975 0.68089 0.0
C507 C 0.38944 0.09381 0.65106 0.0
N508 N 0.39836 0.07413 0.66095 0.0
O509 O 0.34148 0.11764 0.63028 0.0
H510 H 0.35761 0.0924 0.69439 0.0
H511 H 0.39576 0.10066 0.63551 0.0
O512 O 0.32651 0.11373 0.67388 0.0
C513 C 0.35626 0.12574 0.61621 0.0
O514 O 0.37354 0.13945 0.62326 0.0
N515 N 0.36467 0.14473 0.68318 0.0
C516 C 0.3904 0.1714 0.71365 0.0
C517 C 0.37259 0.15565 0.72066 0.0
C518 C 0.36021 0.14206 0.70515 0.0
C519 C 0.38289 0.15883 0.67639 0.0
C520 C 0.39571 0.17251 0.69118 0.0
H521 H 0.3479 0.12901 0.71116 0.0
H522 H 0.38759 0.1594 0.65919 0.0
H523 H 0.29645 0.14465 0.65703 0.0
H524 H 0.32186 0.21445 0.65169 0.0
H525 H 0.38882 0.05819 0.69209 0.0
H526 H 0.3685 0.15352 0.73796 0.0
H527 H 0.4102 0.18328 0.68501 0.0
C528 C 0.91981 0.5703 0.14388 0.0
C529 C 0.9005 0.56126 0.13174 0.0
C530 C 0.94151 0.55807 0.14461 0.0
C531 C 0.96656 0.49802 0.13876 0.0
H532 H 0.027 0.53065 0.13418 0.0
C533 C 0.0554 0.44618 0.14183 0.0
C534 C 0.07408 0.45656 0.15385 0.0
C535 C 0.03489 0.45926 0.13678 0.0
C536 C 0.0103 0.52124 0.13575 0.0
H537 H 0.88957 0.53255 0.11013 0.0
H538 H 0.92711 0.51118 0.1118 0.0
H539 H 0.9901 0.55306 0.13046 0.0
H540 H 0.08608 0.48942 0.16887 0.0
H541 H 0.05031 0.51173 0.16089 0.0
H542 H 0.98654 0.46635 0.14473 0.0
C543 C 0.92533 0.52761 0.12093 0.0
C544 C 0.98914 0.53413 0.13355 0.0
C545 C 0.90374 0.53991 0.12002 0.0
C546 C 0.07198 0.4806 0.15997 0.0
C547 C 0.05147 0.49358 0.15508 0.0
C548 C 0.9877 0.48516 0.14118 0.0
C549 C 0.94441 0.53642 0.13338 0.0
C550 C 0.967 0.52269 0.13513 0.0
C551 C 0.03245 0.48305 0.14367 0.0
C552 C 0.00991 0.49659 0.13984 0.0
H553 H 0.91805 0.58647 0.15335 0.0
H554 H 0.9558 0.56523 0.15453 0.0
H555 H 0.9498 0.48871 0.14034 0.0
H556 H 0.05624 0.42775 0.13686 0.0
H557 H 0.02085 0.45061 0.12762 0.0
C558 C 0.54813 0.106 0.14102 0.0
C559 C 0.57249 0.1071 0.13594 0.0
C560 C 0.5356 0.08467 0.13898 0.0
C561 C 0.53562 0.02714 0.11092 0.0
H562 H 0.49678 0.00617 0.15994 0.0
C563 C 0.49667 0.9325 0.11486 0.0
C564 C 0.47452 0.92881 0.12509 0.0
C565 C 0.50764 0.95474 0.11534 0.0
C566 C 0.50717 0.0119 0.14591 0.0
H567 H 0.60268 0.08678 0.12436 0.0
H568 H 0.58067 0.04945 0.12047 0.0
H569 H 0.51784 0.04394 0.1622 0.0
H570 H 0.44638 0.94624 0.14342 0.0
H571 H 0.46504 0.98523 0.14348 0.0
H572 H 0.52471 0.99546 0.09439 0.0
C573 C 0.57134 0.06516 0.1261 0.0
C574 C 0.51934 0.03352 0.14729 0.0
C575 C 0.58396 0.08645 0.12843 0.0
C576 C 0.46333 0.94829 0.13526 0.0
C577 C 0.47424 0.97066 0.13556 0.0
C578 C 0.52321 0.00567 0.10942 0.0
C579 C 0.54708 0.06401 0.13156 0.0
C580 C 0.53382 0.04128 0.12988 0.0
C581 C 0.49668 0.97413 0.12581 0.0
C582 C 0.50897 0.99762 0.12697 0.0
H583 H 0.53885 0.12148 0.14717 0.0
H584 H 0.5169 0.08434 0.14319 0.0
H585 H 0.54641 0.03284 0.09714 0.0
H586 H 0.50575 0.91817 0.10651 0.0
H587 H 0.52502 0.95652 0.10788 0.0
C588 C 0.95314 0.45844 0.36202 0.0
C589 C 0.93381 0.46845 0.35061 0.0
C590 C 0.97413 0.47151 0.36519 0.0
C591 C 0.00782 0.52028 0.33973 0.0
H592 H 0.04372 0.52128 0.39408 0.0
C593 C 0.09246 0.57779 0.34826 0.0
C594 C 0.11163 0.56828 0.36025 0.0
C595 C 0.07013 0.56675 0.34856 0.0
C596 C 0.03411 0.52098 0.37866 0.0
H597 H 0.92092 0.50069 0.33512 0.0
H598 H 0.95738 0.52317 0.34038 0.0
H599 H 0.00628 0.49941 0.3923 0.0
H600 H 0.12171 0.53993 0.38261 0.0
H601 H 0.0834 0.52032 0.38241 0.0
H602 H 0.03574 0.54115 0.32577 0.0
C603 C 0.95653 0.50511 0.34649 0.0
C604 C 0.01258 0.50847 0.3777 0.0
C605 C 0.93561 0.49218 0.34347 0.0
C606 C 0.10763 0.54768 0.37288 0.0
C607 C 0.0854 0.53654 0.37303 0.0
C608 C 0.02942 0.53255 0.34059 0.0
C609 C 0.97625 0.4948 0.35694 0.0
C610 C 0.99916 0.50803 0.35823 0.0
C611 C 0.06634 0.54576 0.36072 0.0
C612 C 0.04292 0.53312 0.36007 0.0
H613 H 0.95247 0.44021 0.36764 0.0
H614 H 0.98903 0.46304 0.37329 0.0
H615 H 0.9981 0.51998 0.32435 0.0
H616 H 0.09474 0.59348 0.3382 0.0
H617 H 0.05586 0.57468 0.33915 0.0
C618 C 0.52565 0.92144 0.38716 0.0
C619 C 0.54126 0.91506 0.37007 0.0
C620 C 0.51163 0.94179 0.3856 0.0
C621 C 0.5034 0.9996 0.35951 0.0
H622 H 0.43652 0.98644 0.36879 0.0
C623 C 0.42806 0.06912 0.34399 0.0
C624 C 0.40752 0.0673 0.35699 0.0
C625 C 0.4464 0.05236 0.34608 0.0
C626 C 0.45513 0.99067 0.36656 0.0
H627 H 0.55532 0.92607 0.33844 0.0
H628 H 0.5309 0.96215 0.33592 0.0
H629 H 0.4652 0.95441 0.37142 0.0
H630 H 0.39067 0.04794 0.38342 0.0
H631 H 0.42292 0.01951 0.38799 0.0
H632 H 0.49332 0.03607 0.35514 0.0
C633 C 0.52954 0.95107 0.35044 0.0
C634 C 0.47157 0.97218 0.3679 0.0
C635 C 0.54352 0.93044 0.35191 0.0
C636 C 0.40624 0.04946 0.37303 0.0
C637 C 0.42465 0.03306 0.37544 0.0
C638 C 0.48691 0.0183 0.35845 0.0
C639 C 0.51299 0.95653 0.36703 0.0
C640 C 0.49587 0.97643 0.3646 0.0
C641 C 0.44461 0.03369 0.36145 0.0
C642 C 0.46253 0.01409 0.36221 0.0
H643 H 0.52391 0.91047 0.40168 0.0
H644 H 0.49935 0.94582 0.39882 0.0
H645 H 0.52208 0.00333 0.35692 0.0
H646 H 0.4293 0.08267 0.33139 0.0
H647 H 0.46139 0.05343 0.33496 0.0
C648 C 0.99921 0.59488 0.84925 0.0
C649 C 0.97517 0.59575 0.85547 0.0
C650 C 0.01198 0.57358 0.85059 0.0
C651 C 0.01566 0.51902 0.88155 0.0
H652 H 0.04712 0.49128 0.83095 0.0
C653 C 0.0512 0.42335 0.88386 0.0
C654 C 0.07072 0.41668 0.87075 0.0
C655 C 0.04134 0.44604 0.88231 0.0
C656 C 0.03891 0.49895 0.8454 0.0
H657 H 0.94565 0.57519 0.86806 0.0
H658 H 0.9682 0.53801 0.87105 0.0
H659 H 0.0264 0.52922 0.82724 0.0
H660 H 0.09571 0.42958 0.84627 0.0
H661 H 0.0793 0.46953 0.84443 0.0
H662 H 0.02863 0.48953 0.90004 0.0
C663 C 0.97702 0.55376 0.86485 0.0
C664 C 0.02687 0.52062 0.84317 0.0
C665 C 0.96411 0.57492 0.86302 0.0
C666 C 0.08074 0.43387 0.85669 0.0
C667 C 0.07105 0.45681 0.8554 0.0
C668 C 0.02809 0.49767 0.88392 0.0
C669 C 0.00107 0.55292 0.85868 0.0
C670 C 0.01481 0.53061 0.86115 0.0
C671 C 0.05097 0.46312 0.86796 0.0
C672 C 0.03951 0.48702 0.86579 0.0
H673 H 0.00806 0.61069 0.84325 0.0
H674 H 0.03052 0.57337 0.84578 0.0
H675 H 0.0068 0.52659 0.89575 0.0
H676 H 0.04316 0.41098 0.89524 0.0
H677 H 0.0257 0.44987 0.89206 0.0
C678 C 0.40688 0.96369 0.83065 0.0
C679 C 0.40248 0.94292 0.8428 0.0
C680 C 0.42487 0.97937 0.83682 0.0
C681 C 0.46624 0.99618 0.88186 0.0
H682 H 0.50435 0.01962 0.8333 0.0
C683 C 0.55817 0.04134 0.8933 0.0
C684 C 0.5644 0.06008 0.87908 0.0
C685 C 0.537 0.02872 0.89034 0.0
C686 C 0.49372 0.01359 0.84706 0.0
H687 H 0.41274 0.92284 0.8716 0.0
H688 H 0.44468 0.95021 0.88242 0.0
H689 H 0.47027 0.99441 0.82592 0.0
H690 H 0.55269 0.08062 0.85094 0.0
H691 H 0.51557 0.05886 0.84596 0.0
H692 H 0.4901 0.0152 0.90299 0.0
C693 C 0.434 0.95445 0.86814 0.0
C694 C 0.47411 0.99906 0.84283 0.0
C695 C 0.41574 0.93876 0.86199 0.0
C696 C 0.54846 0.0664 0.86227 0.0
C697 C 0.52728 0.05372 0.85927 0.0
C698 C 0.48595 0.01075 0.8861 0.0
C699 C 0.43918 0.97465 0.85525 0.0
C700 C 0.46004 0.99019 0.86014 0.0
C701 C 0.52146 0.03445 0.87304 0.0
C702 C 0.49994 0.01965 0.86873 0.0
H703 H 0.39658 0.96763 0.81605 0.0
H704 H 0.42782 0.99506 0.82687 0.0
H705 H 0.4557 0.98987 0.89557 0.0
H706 H 0.56984 0.0362 0.90663 0.0
H707 H 0.53323 0.01393 0.9012 0.0
C708 C 0.92739 0.41689 0.64366 0.0
C709 C 0.93663 0.39682 0.63277 0.0
C710 C 0.94005 0.43831 0.64414 0.0
C711 C 0.00056 0.46222 0.64035 0.0
H712 H 0.96974 0.52199 0.62667 0.0
C713 C 0.05417 0.54946 0.63028 0.0
C714 C 0.04326 0.57095 0.63623 0.0
C715 C 0.04121 0.5282 0.63036 0.0
C716 C 0.97863 0.50556 0.63095 0.0
H717 H 0.96638 0.38411 0.61327 0.0
H718 H 0.98857 0.42119 0.61457 0.0
H719 H 0.94678 0.48531 0.62604 0.0
H720 H 0.01061 0.58691 0.64789 0.0
H721 H 0.98825 0.54991 0.64893 0.0
H722 H 0.03224 0.48232 0.64585 0.0
C723 C 0.97155 0.42022 0.62286 0.0
C724 C 0.96541 0.4845 0.63045 0.0
C725 C 0.95878 0.39892 0.62215 0.0
C726 C 0.01935 0.57065 0.64286 0.0
C727 C 0.00651 0.5494 0.64332 0.0
C728 C 0.01371 0.48331 0.64118 0.0
C729 C 0.9624 0.44011 0.63395 0.0
C730 C 0.97627 0.46258 0.63499 0.0
C731 C 0.01711 0.52786 0.63678 0.0
C732 C 0.00299 0.50532 0.63635 0.0
H733 H 0.91067 0.41598 0.65233 0.0
H734 H 0.93262 0.45329 0.65298 0.0
H735 H 0.00934 0.44561 0.64422 0.0
H736 H 0.07251 0.54924 0.6249 0.0
H737 H 0.04999 0.51214 0.62488 0.0
C738 C 0.41732 0.03471 0.66032 0.0
C739 C 0.41748 0.05876 0.65405 0.0
C740 C 0.43712 0.02031 0.65681 0.0
C741 C 0.49332 0.01366 0.62647 0.0
H742 H 0.51267 0.97842 0.67831 0.0
C743 C 0.58535 0.96844 0.63376 0.0
C744 C 0.58751 0.94741 0.64616 0.0
C745 C 0.56382 0.98076 0.6328 0.0
C746 C 0.50736 0.98772 0.66351 0.0
H747 H 0.43808 0.08616 0.6379 0.0
H748 H 0.47296 0.06076 0.63152 0.0
H749 H 0.47677 0.00237 0.67938 0.0
H750 H 0.5681 0.92247 0.66659 0.0
H751 H 0.53034 0.94348 0.66429 0.0
H752 H 0.52386 0.99884 0.61052 0.0
C753 C 0.45737 0.05318 0.63927 0.0
C754 C 0.48678 0.00158 0.66418 0.0
C755 C 0.43743 0.0677 0.64286 0.0
C756 C 0.5672 0.93854 0.65685 0.0
C757 C 0.54556 0.9508 0.65575 0.0
C758 C 0.51385 0.99957 0.62572 0.0
C759 C 0.45763 0.02952 0.64684 0.0
C760 C 0.47953 0.01475 0.6457 0.0
C761 C 0.54368 0.97232 0.64402 0.0
C762 C 0.52122 0.98648 0.64429 0.0
H763 H 0.40199 0.02711 0.66847 0.0
H764 H 0.43654 0.00202 0.66234 0.0
H765 H 0.48806 0.02345 0.61192 0.0
H766 H 0.60038 0.97564 0.62491 0.0
H767 H 0.56323 0.99732 0.62375 0.0
C768 C 0.19353 0.28323 0.17804 0.0
C769 C 0.19458 0.3078 0.17367 0.0
C770 C 0.21133 0.27204 0.19028 0.0
C771 C 0.23734 0.264 0.23367 0.0
H772 H 0.30582 0.26625 0.2265 0.0
C773 C 0.30025 0.24088 0.30451 0.0
C774 C 0.31534 0.22146 0.30023 0.0
C775 C 0.28857 0.25259 0.28736 0.0
C776 C 0.28672 0.26555 0.22864 0.0
H777 H 0.2173 0.33891 0.17639 0.0
H778 H 0.24843 0.31919 0.19737 0.0
H779 H 0.27984 0.28312 0.19783 0.0
H780 H 0.33122 0.20049 0.27401 0.0
H781 H 0.31137 0.22158 0.24413 0.0
H782 H 0.24401 0.24712 0.26461 0.0
C783 C 0.23339 0.30884 0.19172 0.0
C784 C 0.27192 0.27518 0.21232 0.0
C785 C 0.2154 0.32016 0.17968 0.0
C786 C 0.31988 0.21536 0.27811 0.0
C787 C 0.30844 0.22739 0.26091 0.0
C788 C 0.25206 0.2549 0.2501 0.0
C789 C 0.23094 0.28497 0.19802 0.0
C790 C 0.24707 0.27435 0.21466 0.0
C791 C 0.29205 0.24554 0.26546 0.0
C792 C 0.27687 0.25557 0.24779 0.0
H793 H 0.17836 0.27277 0.17303 0.0
H794 H 0.20926 0.25346 0.19452 0.0
H795 H 0.21826 0.26337 0.23603 0.0
H796 H 0.29673 0.24653 0.3212 0.0
H797 H 0.27626 0.26678 0.29127 0.0
C798 C 0.78719 0.33833 0.33176 0.0
C799 C 0.80599 0.32482 0.34059 0.0
C800 C 0.76891 0.32739 0.31993 0.0
C801 C 0.73979 0.27053 0.30618 0.0
H802 H 0.73801 0.29541 0.24665 0.0
C803 C 0.68271 0.22895 0.23618 0.0
C804 C 0.69696 0.22151 0.21849 0.0
C805 C 0.69194 0.24428 0.25222 0.0
C806 C 0.73808 0.28847 0.26328 0.0
H807 H 0.81804 0.2888 0.3467 0.0
H808 H 0.78597 0.26974 0.32632 0.0
H809 H 0.76047 0.31648 0.27501 0.0
H810 H 0.73136 0.22492 0.20301 0.0
H811 H 0.74723 0.25251 0.23049 0.0
H812 H 0.71779 0.24218 0.29419 0.0
C813 C 0.78584 0.2889 0.32802 0.0
C814 C 0.75081 0.30056 0.27953 0.0
C815 C 0.80434 0.29987 0.33958 0.0
C816 C 0.72007 0.23057 0.21646 0.0
C817 C 0.72908 0.24631 0.23214 0.0
C818 C 0.72666 0.25865 0.28998 0.0
C819 C 0.7686 0.30263 0.31717 0.0
C820 C 0.75227 0.29143 0.30103 0.0
C821 C 0.71533 0.25284 0.25046 0.0
C822 C 0.72618 0.26722 0.26826 0.0
H823 H 0.78722 0.35747 0.33267 0.0
H824 H 0.75554 0.33838 0.31211 0.0
H825 H 0.74062 0.26311 0.32261 0.0
H826 H 0.66494 0.22188 0.23819 0.0
H827 H 0.681 0.24908 0.2662 0.0
C828 C 0.64782 0.77791 0.29156 0.0
C829 C 0.66313 0.78653 0.30811 0.0
C830 C 0.65659 0.76368 0.27445 0.0
C831 C 0.68558 0.74782 0.23356 0.0
H832 H 0.73032 0.69779 0.24811 0.0
C833 C 0.75748 0.71211 0.17461 0.0
C834 C 0.76435 0.68816 0.17617 0.0
C835 C 0.73983 0.72128 0.18838 0.0
C836 C 0.71755 0.71139 0.24372 0.0
H837 H 0.69996 0.7869 0.31898 0.0
H838 H 0.7148 0.76187 0.28973 0.0
H839 H 0.71004 0.71916 0.27748 0.0
H840 H 0.75693 0.65466 0.19236 0.0
H841 H 0.72598 0.67064 0.21636 0.0
H842 H 0.69379 0.74053 0.19974 0.0
C843 C 0.696 0.766 0.29013 0.0
C844 C 0.70613 0.7238 0.26056 0.0
C845 C 0.68737 0.78041 0.307 0.0
C846 C 0.75196 0.67315 0.19068 0.0
C847 C 0.73441 0.68236 0.20458 0.0
C848 C 0.69722 0.73553 0.21665 0.0
C849 C 0.68074 0.75746 0.27368 0.0
C850 C 0.69045 0.74249 0.25569 0.0
C851 C 0.72874 0.70671 0.20411 0.0
C852 C 0.7137 0.71749 0.22158 0.0
H853 H 0.62903 0.78189 0.2918 0.0
H854 H 0.64442 0.75726 0.262 0.0
H855 H 0.67362 0.7622 0.22933 0.0
H856 H 0.76659 0.72401 0.16343 0.0
H857 H 0.73598 0.74012 0.18765 0.0
C858 C 0.25625 0.71521 0.3106 0.0
C859 C 0.24539 0.69351 0.30534 0.0
C860 C 0.27123 0.72651 0.2955 0.0
C861 C 0.30289 0.71814 0.24165 0.0
H862 H 0.29795 0.78683 0.23962 0.0
C863 C 0.33451 0.77635 0.16802 0.0
C864 C 0.34837 0.79624 0.17354 0.0
C865 C 0.32346 0.76287 0.18449 0.0
C866 C 0.29965 0.76766 0.24009 0.0
H867 H 0.24209 0.66629 0.28041 0.0
H868 H 0.26751 0.68622 0.25372 0.0
H869 H 0.27657 0.76488 0.26782 0.0
H870 H 0.36123 0.81782 0.20054 0.0
H871 H 0.34165 0.79454 0.22923 0.0
H872 H 0.32529 0.72118 0.21317 0.0
C873 C 0.26512 0.69435 0.2697 0.0
C874 C 0.28753 0.75501 0.25639 0.0
C875 C 0.2505 0.68286 0.28499 0.0
C876 C 0.35088 0.80244 0.19582 0.0
C877 C 0.33953 0.78923 0.21221 0.0
C878 C 0.31472 0.73082 0.2251 0.0
C879 C 0.27531 0.71662 0.27454 0.0
C880 C 0.28898 0.73004 0.25747 0.0
C881 C 0.32572 0.76931 0.20674 0.0
C882 C 0.31324 0.75571 0.2242 0.0
H883 H 0.25277 0.72366 0.32628 0.0
H884 H 0.27925 0.74324 0.30018 0.0
H885 H 0.30481 0.69901 0.24206 0.0
H886 H 0.3324 0.77113 0.151 0.0
H887 H 0.31278 0.74768 0.1798 0.0
C888 C 0.73355 0.82387 0.70531 0.0
C889 C 0.71357 0.81218 0.69654 0.0
C890 C 0.74767 0.81284 0.72131 0.0
C891 C 0.74436 0.7661 0.76374 0.0
H892 H 0.8132 0.7665 0.76138 0.0
C893 C 0.80128 0.69959 0.81202 0.0
C894 C 0.82328 0.70682 0.82077 0.0
C895 C 0.78782 0.71494 0.79901 0.0
C896 C 0.794 0.76658 0.7625 0.0
H897 H 0.69309 0.77952 0.69767 0.0
H898 H 0.71782 0.76028 0.72508 0.0
H899 H 0.79046 0.78831 0.7337 0.0
H900 H 0.8476 0.73664 0.82341 0.0
H901 H 0.82406 0.7634 0.80056 0.0
H902 H 0.74777 0.7442 0.79231 0.0
C903 C 0.72244 0.77807 0.71979 0.0
C904 C 0.78098 0.77902 0.7466 0.0
C905 C 0.70844 0.78901 0.70378 0.0
C906 C 0.83099 0.73022 0.81672 0.0
C907 C 0.8175 0.74561 0.80359 0.0
C908 C 0.75733 0.75375 0.77962 0.0
C909 C 0.74198 0.78997 0.729 0.0
C910 C 0.756 0.77848 0.74678 0.0
C911 C 0.79592 0.73801 0.79433 0.0
C912 C 0.78229 0.75341 0.77894 0.0
H913 H 0.73816 0.84162 0.69998 0.0
H914 H 0.76264 0.82245 0.7281 0.0
H915 H 0.72513 0.7658 0.76463 0.0
H916 H 0.7948 0.68169 0.81433 0.0
H917 H 0.77147 0.70834 0.79188 0.0
C918 C 0.16665 0.71422 0.68668 0.0
C919 C 0.17989 0.696 0.67666 0.0
C920 C 0.17704 0.72912 0.70238 0.0
C921 C 0.22707 0.73193 0.74168 0.0
H922 H 0.2129 0.79934 0.74244 0.0
C923 C 0.27728 0.7985 0.7975 0.0
C924 C 0.26422 0.8172 0.80698 0.0
C925 C 0.26679 0.78328 0.78212 0.0
C926 C 0.21681 0.7805 0.74266 0.0
H927 H 0.21463 0.67936 0.67528 0.0
H928 H 0.23287 0.70559 0.70234 0.0
H929 H 0.1954 0.77415 0.71416 0.0
H930 H 0.22959 0.83416 0.80785 0.0
H931 H 0.21119 0.80734 0.78149 0.0
H932 H 0.24847 0.73827 0.7702 0.0
C933 C 0.21432 0.70817 0.69823 0.0
C934 C 0.2068 0.76606 0.7264 0.0
C935 C 0.20393 0.69331 0.68248 0.0
C936 C 0.24019 0.81989 0.80108 0.0
C937 C 0.2297 0.80467 0.7857 0.0
C938 C 0.23707 0.74637 0.75796 0.0
C939 C 0.20096 0.72616 0.70849 0.0
C940 C 0.2118 0.74159 0.72569 0.0
C941 C 0.24294 0.78635 0.77582 0.0
C942 C 0.23207 0.77085 0.75867 0.0
H943 H 0.14818 0.71698 0.68244 0.0
H944 H 0.16616 0.74266 0.71005 0.0
H945 H 0.23101 0.71309 0.74184 0.0
H946 H 0.29572 0.79571 0.80184 0.0
H947 H 0.27758 0.76947 0.77476 0.0
C948 C 0.27241 0.21533 0.66205 0.0
C949 C 0.27925 0.19151 0.66508 0.0
C950 C 0.25472 0.22557 0.67524 0.0
C951 C 0.20976 0.21132 0.71957 0.0
H952 H 0.22362 0.27581 0.73792 0.0
C953 C 0.18303 0.25335 0.80333 0.0
C954 C 0.17151 0.27545 0.80237 0.0
C955 C 0.19217 0.2429 0.78421 0.0
C956 C 0.21939 0.25787 0.73276 0.0
H957 H 0.27084 0.15931 0.68316 0.0
H958 H 0.24136 0.17711 0.70657 0.0
H959 H 0.2463 0.25809 0.70805 0.0
H960 H 0.16053 0.30403 0.78078 0.0
H961 H 0.17725 0.28609 0.74739 0.0
H962 H 0.18392 0.21087 0.74559 0.0
C963 C 0.24923 0.18806 0.69387 0.0
C964 C 0.23225 0.24769 0.71547 0.0
C965 C 0.26652 0.17775 0.68041 0.0
C966 C 0.16908 0.28684 0.7819 0.0
C967 C 0.17874 0.27667 0.76287 0.0
C968 C 0.19729 0.22135 0.73721 0.0
C969 C 0.24361 0.21236 0.69206 0.0
C970 C 0.22792 0.22409 0.70878 0.0
C971 C 0.19047 0.25467 0.76388 0.0
C972 C 0.20219 0.24462 0.74411 0.0
H973 H 0.28135 0.22633 0.65002 0.0
H974 H 0.25035 0.24409 0.67267 0.0
H975 H 0.20534 0.19337 0.71467 0.0
H976 H 0.18509 0.24427 0.81892 0.0
H977 H 0.2013 0.22601 0.78543 0.0
C978 C 0.80814 0.25867 0.69949 0.0
C979 C 0.7992 0.28115 0.69363 0.0
C980 C 0.79729 0.24535 0.71629 0.0
C981 C 0.76131 0.25324 0.76611 0.0
H982 H 0.74145 0.18781 0.75856 0.0
C983 C 0.69528 0.21005 0.82593 0.0
C984 C 0.69759 0.18586 0.83124 0.0
C985 C 0.70934 0.22033 0.80955 0.0
C986 C 0.74722 0.20595 0.76113 0.0
H987 H 0.77202 0.30729 0.70109 0.0
H988 H 0.75335 0.28429 0.73016 0.0
H989 H 0.76343 0.20783 0.72914 0.0
H990 H 0.7167 0.15352 0.82346 0.0
H991 H 0.74167 0.17156 0.79503 0.0
H992 H 0.74547 0.25159 0.798 0.0
C993 C 0.76862 0.27685 0.72176 0.0
C994 C 0.75978 0.21741 0.74422 0.0
C995 C 0.77919 0.28992 0.70488 0.0
C996 C 0.71437 0.17217 0.81967 0.0
C997 C 0.72864 0.18252 0.80333 0.0
C998 C 0.74904 0.24178 0.78304 0.0
C999 C 0.77761 0.25452 0.7278 0.0
C1000 C 0.76647 0.24135 0.74637 0.0
C1001 C 0.72635 0.2068 0.79807 0.0
C1002 C 0.7413 0.21814 0.78063 0.0
H1003 H 0.82348 0.25141 0.69111 0.0
H1004 H 0.8046 0.22818 0.72063 0.0
H1005 H 0.76662 0.27158 0.76841 0.0
H1006 H 0.68218 0.22102 0.8341 0.0
H1007 H 0.70652 0.23888 0.80564 0.0
C1008 C 0.10633 0.37201 0.08733 0.0
C1009 C 0.12779 0.37463 0.09889 0.0
C1010 C 0.10625 0.3654 0.06523 0.0
C1011 C 0.14202 0.33326 0.02444 0.0
H1012 H 0.09741 0.36041 0.98283 0.0
C1013 C 0.14764 0.31885 0.93078 0.0
C1014 C 0.12683 0.31975 0.91807 0.0
C1015 C 0.14671 0.3217 0.95355 0.0
C1016 C 0.10964 0.35226 0.99433 0.0
H1017 H 0.16611 0.37312 0.09616 0.0
H1018 H 0.16607 0.36157 0.05715 0.0
H1019 H 0.09924 0.37589 0.02018 0.0
H1020 H 0.08853 0.32268 0.91926 0.0
H1021 H 0.0867 0.32721 0.95939 0.0
H1022 H 0.15245 0.30964 0.99855 0.0
C1023 C 0.14925 0.36452 0.06538 0.0
C1024 C 0.11084 0.3613 0.01573 0.0
C1025 C 0.14933 0.37142 0.0876 0.0
C1026 C 0.10479 0.32156 0.92873 0.0
C1027 C 0.10384 0.32458 0.95165 0.0
C1028 C 0.14076 0.32414 0.00304 0.0
C1029 C 0.12765 0.36105 0.05407 0.0
C1030 C 0.12711 0.352 0.03103 0.0
C1031 C 0.12491 0.32571 0.9642 0.0
C1032 C 0.12464 0.33361 0.98764 0.0
H1033 H 0.08942 0.37437 0.0956 0.0
H1034 H 0.0893 0.36273 0.05715 0.0
H1035 H 0.15442 0.32537 0.03595 0.0
H1036 H 0.16488 0.3177 0.92288 0.0
H1037 H 0.16331 0.3226 0.96252 0.0
C1038 C 0.63345 0.12142 0.95151 0.0
C1039 C 0.6509 0.12591 0.93557 0.0
C1040 C 0.63679 0.12832 0.97328 0.0
C1041 C 0.66958 0.17304 0.00568 0.0
H1042 H 0.63892 0.14065 0.05431 0.0
C1043 C 0.67744 0.19672 0.0989 0.0
C1044 C 0.65677 0.19405 0.11169 0.0
C1045 C 0.67712 0.19175 0.07635 0.0
C1046 C 0.64731 0.15004 0.04082 0.0
H1047 H 0.68615 0.13997 0.92999 0.0
H1048 H 0.69252 0.15155 0.96855 0.0
H1049 H 0.64096 0.12144 0.01853 0.0
H1050 H 0.61905 0.18648 0.11044 0.0
H1051 H 0.61851 0.17767 0.0711 0.0
H1052 H 0.67648 0.20138 0.02851 0.0
C1053 C 0.676 0.14296 0.96407 0.0
C1054 C 0.64858 0.139 0.02029 0.0
C1055 C 0.6726 0.13594 0.9421 0.0
C1056 C 0.63524 0.1888 0.10107 0.0
C1057 C 0.635 0.18345 0.07858 0.0
C1058 C 0.66863 0.18395 0.0264 0.0
C1059 C 0.65775 0.13996 0.97977 0.0
C1060 C 0.6593 0.1505 0.00228 0.0
C1061 C 0.65618 0.18372 0.06627 0.0
C1062 C 0.65707 0.17273 0.04407 0.0
H1063 H 0.61643 0.11395 0.94681 0.0
H1064 H 0.62216 0.12592 0.98464 0.0
H1065 H 0.67771 0.18262 0.99218 0.0
H1066 H 0.69431 0.20066 0.10668 0.0
H1067 H 0.69369 0.19219 0.06728 0.0
C1068 C 0.8798 0.66955 0.91951 0.0
C1069 C 0.88525 0.64828 0.90853 0.0
C1070 C 0.8698 0.66897 0.94068 0.0
C1071 C 0.8617 0.62886 0.98871 0.0
H1072 H 0.81015 0.67148 0.004 0.0
C1073 C 0.81606 0.61992 0.07208 0.0
C1074 C 0.81661 0.64123 0.08402 0.0
C1075 C 0.8193 0.62026 0.04923 0.0
C1076 C 0.82448 0.65942 0.9999 0.0
H1077 H 0.88507 0.6098 0.91135 0.0
H1078 H 0.86761 0.60883 0.94762 0.0
H1079 H 0.82867 0.67428 0.96764 0.0
H1080 H 0.8184 0.67956 0.08154 0.0
H1081 H 0.82359 0.68022 0.04182 0.0
H1082 H 0.85775 0.61411 0.02089 0.0
C1083 C 0.87118 0.62598 0.94025 0.0
C1084 C 0.83524 0.66117 0.97918 0.0
C1085 C 0.88111 0.62657 0.9193 0.0
C1086 C 0.81786 0.6629 0.07262 0.0
C1087 C 0.82083 0.66327 0.04985 0.0
C1088 C 0.85088 0.62702 0.00929 0.0
C1089 C 0.86521 0.64711 0.95119 0.0
C1090 C 0.85404 0.64593 0.97337 0.0
C1091 C 0.8229 0.64192 0.03806 0.0
C1092 C 0.83222 0.64232 0.0152 0.0
H1093 H 0.88269 0.68654 0.91157 0.0
H1094 H 0.86564 0.68559 0.94879 0.0
H1095 H 0.87641 0.61711 0.98498 0.0
H1096 H 0.81537 0.60299 0.08054 0.0
H1097 H 0.82047 0.60353 0.04048 0.0
C1098 C 0.35583 0.8782 0.9089 0.0
C1099 C 0.3341 0.86686 0.9044 0.0
C1100 C 0.3676 0.87421 0.9289 0.0
C1101 C 0.37118 0.82922 0.97331 0.0
H1102 H 0.40366 0.87868 0.00578 0.0
C1103 C 0.39777 0.82184 0.06482 0.0
C1104 C 0.41672 0.83576 0.07245 0.0
C1105 C 0.39172 0.82193 0.04247 0.0
C1106 C 0.39514 0.86449 0.99671 0.0
H1107 H 0.30693 0.84382 0.91802 0.0
H1108 H 0.3271 0.83732 0.95289 0.0
H1109 H 0.38382 0.88841 0.97137 0.0
H1110 H 0.44547 0.85894 0.06272 0.0
H1111 H 0.43579 0.85818 0.02359 0.0
H1112 H 0.38217 0.80536 0.99885 0.0
C1113 C 0.33544 0.84873 0.94078 0.0
C1114 C 0.38363 0.87015 0.97699 0.0
C1115 C 0.32373 0.85269 0.92086 0.0
C1116 C 0.43109 0.84764 0.05714 0.0
C1117 C 0.42518 0.84763 0.0348 0.0
C1118 C 0.38273 0.82354 0.99301 0.0
C1119 C 0.35785 0.85882 0.9448 0.0
C1120 C 0.37116 0.85267 0.96523 0.0
C1121 C 0.40454 0.83599 0.02741 0.0
C1122 C 0.39461 0.84116 0.00514 0.0
H1123 H 0.36444 0.88901 0.89653 0.0
H1124 H 0.38484 0.88228 0.93146 0.0
H1125 H 0.36218 0.81519 0.96442 0.0
H1126 H 0.386 0.81313 0.07641 0.0
H1127 H 0.37567 0.81281 0.03746 0.0
C1128 C 0.19421 0.66679 0.41492 0.0
C1129 C 0.19369 0.64419 0.40521 0.0
C1130 C 0.19065 0.66942 0.43752 0.0
C1131 C 0.18146 0.63561 0.48998 0.0
H1132 H 0.13702 0.68669 0.50244 0.0
C1133 C 0.12929 0.66961 0.57166 0.0
C1134 C 0.11864 0.64785 0.57724 0.0
C1135 C 0.13964 0.67263 0.55079 0.0
C1136 C 0.14966 0.67258 0.49926 0.0
H1137 H 0.19028 0.60654 0.41134 0.0
H1138 H 0.18356 0.61092 0.45076 0.0
H1139 H 0.1563 0.68461 0.46651 0.0
H1140 H 0.10849 0.61314 0.56501 0.0
H1141 H 0.12633 0.61845 0.52888 0.0
H1142 H 0.17354 0.62288 0.52237 0.0
C1143 C 0.18736 0.62671 0.44122 0.0
C1144 C 0.16088 0.67139 0.47872 0.0
C1145 C 0.19136 0.62409 0.41861 0.0
C1146 C 0.1167 0.63005 0.56115 0.0
C1147 C 0.12708 0.63298 0.54056 0.0
C1148 C 0.16999 0.63663 0.51034 0.0
C1149 C 0.18585 0.64952 0.45079 0.0
C1150 C 0.17656 0.65257 0.47363 0.0
C1151 C 0.13951 0.65385 0.53551 0.0
C1152 C 0.1536 0.65481 0.51496 0.0
H1153 H 0.19571 0.68255 0.40477 0.0
H1154 H 0.19029 0.68719 0.44435 0.0
H1155 H 0.19375 0.62118 0.48691 0.0
H1156 H 0.13128 0.68346 0.58389 0.0
H1157 H 0.14904 0.68896 0.54714 0.0
C1158 C 0.37079 0.14485 0.41581 0.0
C1159 C 0.34863 0.14458 0.4052 0.0
C1160 C 0.37211 0.14206 0.43876 0.0
C1161 C 0.33669 0.11797 0.48538 0.0
H1162 H 0.38099 0.15304 0.52168 0.0
C1163 C 0.33284 0.12003 0.58129 0.0
C1164 C 0.3547 0.12118 0.59233 0.0
C1165 C 0.33216 0.12084 0.55818 0.0
C1166 C 0.3687 0.14285 0.51175 0.0
H1167 H 0.31051 0.14269 0.41035 0.0
H1168 H 0.3128 0.13846 0.44997 0.0
H1169 H 0.38042 0.15975 0.48208 0.0
H1170 H 0.39294 0.12211 0.58805 0.0
H1171 H 0.39179 0.12285 0.54812 0.0
H1172 H 0.32484 0.10121 0.5151 0.0
C1173 C 0.3292 0.14001 0.44075 0.0
C1174 C 0.3684 0.14672 0.48902 0.0
C1175 C 0.3279 0.14265 0.418 0.0
C1176 C 0.3758 0.12149 0.57996 0.0
C1177 C 0.37514 0.12214 0.55706 0.0
C1178 C 0.33696 0.11412 0.50812 0.0
C1179 C 0.35129 0.13905 0.45141 0.0
C1180 C 0.3523 0.13444 0.47555 0.0
C1181 C 0.35334 0.1227 0.54586 0.0
C1182 C 0.35297 0.12652 0.5216 0.0
H1183 H 0.38704 0.14614 0.40634 0.0
H1184 H 0.38944 0.14138 0.44647 0.0
H1185 H 0.32432 0.10786 0.47545 0.0
H1186 H 0.31633 0.12 0.59046 0.0
H1187 H 0.31505 0.12124 0.55005 0.0
C1188 C 0.85069 0.3876 0.42022 0.0
C1189 C 0.87335 0.38941 0.41065 0.0
C1190 C 0.84818 0.3794 0.44195 0.0
C1191 C 0.88268 0.36775 0.49345 0.0
H1192 H 0.8326 0.32231 0.50562 0.0
C1193 C 0.87989 0.31881 0.57624 0.0
C1194 C 0.85799 0.32101 0.58708 0.0
C1195 C 0.88155 0.32355 0.55363 0.0
C1196 C 0.84669 0.33497 0.50246 0.0
H1197 H 0.9111 0.38526 0.41666 0.0
H1198 H 0.9068 0.37104 0.45402 0.0
H1199 H 0.83507 0.34089 0.46933 0.0
H1200 H 0.82047 0.32799 0.58274 0.0
H1201 H 0.82316 0.33552 0.54336 0.0
H1202 H 0.89435 0.36183 0.52649 0.0
C1203 C 0.8909 0.37598 0.44509 0.0
C1204 C 0.84797 0.34581 0.48172 0.0
C1205 C 0.89338 0.38407 0.42354 0.0
C1206 C 0.83751 0.32582 0.57465 0.0
C1207 C 0.83909 0.33025 0.55209 0.0
C1208 C 0.88149 0.35681 0.51407 0.0
C1209 C 0.86829 0.37302 0.4545 0.0
C1210 C 0.86601 0.36235 0.47692 0.0
C1211 C 0.86129 0.33035 0.54151 0.0
C1212 C 0.8635 0.34029 0.51887 0.0
H1213 H 0.83492 0.39139 0.41063 0.0
H1214 H 0.83049 0.37767 0.44878 0.0
H1215 H 0.89658 0.38068 0.49056 0.0
H1216 H 0.89601 0.31564 0.58554 0.0
H1217 H 0.89888 0.32318 0.54587 0.0
C1218 C 0.62536 0.83467 0.43162 0.0
C1219 C 0.63079 0.85303 0.41679 0.0
C1220 C 0.63337 0.83581 0.45346 0.0
C1221 C 0.65254 0.87962 0.49501 0.0
H1222 H 0.67574 0.82459 0.52673 0.0
C1223 C 0.67777 0.88694 0.58648 0.0
C1224 C 0.66676 0.86949 0.59941 0.0
C1225 C 0.67909 0.88406 0.56356 0.0
C1226 C 0.66932 0.84014 0.51808 0.0
H1227 H 0.64946 0.88662 0.41313 0.0
H1228 H 0.66335 0.88841 0.45075 0.0
H1229 H 0.66508 0.82085 0.48791 0.0
H1230 H 0.65037 0.83466 0.59909 0.0
H1231 H 0.65268 0.82962 0.55958 0.0
H1232 H 0.65601 0.89877 0.5252 0.0
C1233 C 0.65265 0.87335 0.44578 0.0
C1234 C 0.6631 0.83795 0.49589 0.0
C1235 C 0.6447 0.87223 0.42412 0.0
C1236 C 0.65885 0.84845 0.58942 0.0
C1237 C 0.66033 0.84548 0.56674 0.0
C1238 C 0.65868 0.8818 0.51718 0.0
C1239 C 0.64689 0.85535 0.46081 0.0
C1240 C 0.65434 0.8576 0.48418 0.0
C1241 C 0.66965 0.86359 0.5534 0.0
C1242 C 0.66677 0.86201 0.52911 0.0
H1243 H 0.61473 0.81964 0.42644 0.0
H1244 H 0.6285 0.82172 0.46473 0.0
H1245 H 0.64559 0.89507 0.48655 0.0
H1246 H 0.68389 0.90336 0.59385 0.0
H1247 H 0.68664 0.89822 0.55373 0.0
C1248 C 0.23274 0.58483 0.27686 0.0
C1249 C 0.22048 0.58465 0.29699 0.0
C1250 C 0.23554 0.56392 0.26472 0.0
C1251 C 0.22607 0.49799 0.26615 0.0
H1252 H 0.21378 0.50703 0.20394 0.0
C1253 C 0.21433 0.41761 0.20855 0.0
C1254 C 0.19538 0.41898 0.1935 0.0
C1255 C 0.22221 0.43788 0.21968 0.0
C1256 C 0.21713 0.50412 0.22127 0.0
H1257 H 0.20282 0.56216 0.32084 0.0
H1258 H 0.20713 0.52583 0.29956 0.0
H1259 H 0.21905 0.54138 0.22755 0.0
H1260 H 0.17146 0.44324 0.17686 0.0
H1261 H 0.18444 0.47832 0.19682 0.0
H1262 H 0.22259 0.46075 0.26009 0.0
C1263 C 0.21505 0.54196 0.29321 0.0
C1264 C 0.22056 0.52389 0.23483 0.0
C1265 C 0.21258 0.56285 0.3055 0.0
C1266 C 0.18566 0.4414 0.18874 0.0
C1267 C 0.19336 0.46163 0.20004 0.0
C1268 C 0.22241 0.47821 0.25262 0.0
C1269 C 0.22578 0.54238 0.27226 0.0
C1270 C 0.22472 0.52114 0.25754 0.0
C1271 C 0.21131 0.46004 0.21613 0.0
C1272 C 0.21749 0.48101 0.23005 0.0
H1273 H 0.23917 0.60138 0.26995 0.0
H1274 H 0.24453 0.56486 0.24899 0.0
H1275 H 0.22954 0.49509 0.28346 0.0
H1276 H 0.22252 0.40072 0.21244 0.0
H1277 H 0.23652 0.43603 0.23146 0.0
C1278 C 0.59074 0.20007 0.24055 0.0
C1279 C 0.592 0.19269 0.21849 0.0
C1280 C 0.56879 0.20182 0.25129 0.0
C1281 C 0.50277 0.1988 0.24197 0.0
H1282 H 0.50248 0.17367 0.3014 0.0
C1283 C 0.42376 0.14977 0.28074 0.0
C1284 C 0.41686 0.15554 0.3023 0.0
C1285 C 0.44399 0.15989 0.27138 0.0
C1286 C 0.5023 0.18112 0.28496 0.0
H1287 H 0.57106 0.18236 0.19015 0.0
H1288 H 0.53306 0.18465 0.20886 0.0
H1289 H 0.5402 0.18147 0.2831 0.0
H1290 H 0.42556 0.1767 0.33093 0.0
H1291 H 0.46182 0.19392 0.31469 0.0
H1292 H 0.46474 0.1968 0.24352 0.0
C1293 C 0.54884 0.1897 0.21789 0.0
C1294 C 0.52395 0.1857 0.27442 0.0
C1295 C 0.57075 0.18832 0.20708 0.0
C1296 C 0.43048 0.172 0.31426 0.0
C1297 C 0.45118 0.18176 0.30502 0.0
C1298 C 0.48116 0.19385 0.2524 0.0
C1299 C 0.54756 0.19586 0.24034 0.0
C1300 C 0.52453 0.19407 0.25256 0.0
C1301 C 0.45813 0.17572 0.28348 0.0
C1302 C 0.48072 0.18448 0.27382 0.0
H1303 H 0.60681 0.20375 0.24975 0.0
H1304 H 0.56858 0.20721 0.26838 0.0
H1305 H 0.50237 0.20579 0.22539 0.0
H1306 H 0.41351 0.13727 0.27105 0.0
H1307 H 0.44903 0.15472 0.25485 0.0
C1308 C 0.79379 0.42897 0.29609 0.0
C1309 C 0.81261 0.43114 0.31119 0.0
C1310 C 0.78651 0.44841 0.28346 0.0
C1311 C 0.79339 0.51413 0.27679 0.0
H1312 H 0.78151 0.49966 0.21541 0.0
C1313 C 0.77986 0.58951 0.21441 0.0
C1314 C 0.79237 0.58714 0.19453 0.0
C1315 C 0.77673 0.56998 0.22833 0.0
C1316 C 0.78484 0.50407 0.23247 0.0
H1317 H 0.8369 0.45616 0.32631 0.0
H1318 H 0.82503 0.48974 0.30369 0.0
H1319 H 0.7873 0.46747 0.24149 0.0
H1320 H 0.81013 0.56208 0.173 0.0
H1321 H 0.80517 0.52819 0.19736 0.0
H1322 H 0.79246 0.55072 0.26753 0.0
C1323 C 0.81573 0.47305 0.3016 0.0
C1324 C 0.78783 0.48554 0.24756 0.0
C1325 C 0.82281 0.45366 0.31444 0.0
C1326 C 0.80023 0.56448 0.18813 0.0
C1327 C 0.79737 0.54499 0.20217 0.0
C1328 C 0.79061 0.53265 0.26167 0.0
C1329 C 0.79795 0.47052 0.28547 0.0
C1330 C 0.79252 0.4903 0.26988 0.0
C1331 C 0.78631 0.54766 0.22282 0.0
C1332 C 0.78668 0.52789 0.23922 0.0
H1333 H 0.78519 0.412 0.29337 0.0
H1334 H 0.77229 0.44591 0.27169 0.0
H1335 H 0.7966 0.51854 0.29387 0.0
H1336 H 0.77341 0.60673 0.21971 0.0
H1337 H 0.76753 0.5726 0.2438 0.0
C1338 C 0.56535 0.76964 0.31922 0.0
C1339 C 0.56163 0.78687 0.33559 0.0
C1340 C 0.5486 0.76651 0.30238 0.0
C1341 C 0.48797 0.78581 0.28345 0.0
H1342 H 0.51821 0.78903 0.22618 0.0
C1343 C 0.45359 0.84182 0.21221 0.0
C1344 C 0.45255 0.83217 0.19094 0.0
C1345 C 0.46342 0.82891 0.22952 0.0
C1346 C 0.50942 0.78759 0.24198 0.0
H1347 H 0.53668 0.8127 0.34837 0.0
H1348 H 0.50771 0.80739 0.31933 0.0
H1349 H 0.54173 0.77841 0.25842 0.0
H1350 H 0.46061 0.80128 0.17108 0.0
H1351 H 0.47898 0.7788 0.20152 0.0
H1352 H 0.45611 0.79696 0.2671 0.0
C1353 C 0.52328 0.79609 0.31928 0.0
C1354 C 0.52287 0.78143 0.26051 0.0
C1355 C 0.53996 0.79922 0.336 0.0
C1356 C 0.46121 0.80907 0.18736 0.0
C1357 C 0.47169 0.79629 0.20469 0.0
C1358 C 0.47465 0.79226 0.26498 0.0
C1359 C 0.52782 0.78047 0.30169 0.0
C1360 C 0.51253 0.78142 0.28164 0.0
C1361 C 0.4729 0.80618 0.22592 0.0
C1362 C 0.48545 0.79407 0.24422 0.0
H1363 H 0.58199 0.76001 0.31837 0.0
H1364 H 0.55251 0.75405 0.2893 0.0
H1365 H 0.47926 0.78543 0.29933 0.0
H1366 H 0.44686 0.85951 0.2155 0.0
H1367 H 0.46436 0.83708 0.24563 0.0
C1368 C 0.93047 0.59274 0.75284 0.0
C1369 C 0.91077 0.60793 0.75494 0.0
C1370 C 0.92924 0.57296 0.73903 0.0
C1371 C 0.88365 0.53192 0.72899 0.0
H1372 H 0.9274 0.49793 0.69099 0.0
C1373 C 0.88745 0.42985 0.72048 0.0
C1374 C 0.87948 0.4226 0.6997 0.0
C1375 C 0.89314 0.45368 0.72419 0.0
C1376 C 0.91515 0.50738 0.7016 0.0
H1377 H 0.87603 0.61668 0.7419 0.0
H1378 H 0.87377 0.58189 0.71802 0.0
H1379 H 0.93453 0.54022 0.69937 0.0
H1380 H 0.87215 0.43394 0.66627 0.0
H1381 H 0.88272 0.47553 0.67271 0.0
H1382 H 0.86492 0.499 0.73213 0.0
C1383 C 0.88998 0.58514 0.72715 0.0
C1384 C 0.91912 0.5314 0.70626 0.0
C1385 C 0.89125 0.60494 0.74083 0.0
C1386 C 0.87793 0.43927 0.68254 0.0
C1387 C 0.88418 0.46289 0.68609 0.0
C1388 C 0.88002 0.50793 0.72476 0.0
C1389 C 0.90829 0.56822 0.72731 0.0
C1390 C 0.90334 0.5438 0.71998 0.0
C1391 C 0.89156 0.47024 0.70697 0.0
C1392 C 0.89579 0.49552 0.71119 0.0
H1393 H 0.94573 0.59463 0.76355 0.0
H1394 H 0.94355 0.56009 0.73941 0.0
H1395 H 0.87152 0.541 0.74 0.0
H1396 H 0.88892 0.41719 0.73384 0.0
H1397 H 0.89871 0.45922 0.74045 0.0
C1398 C 0.58844 0.83876 0.75061 0.0
C1399 C 0.58686 0.86049 0.7393 0.0
C1400 C 0.56936 0.83058 0.76316 0.0
C1401 C 0.50532 0.83412 0.76248 0.0
H1402 H 0.50688 0.80736 0.82127 0.0
C1403 C 0.434 0.82349 0.83253 0.0
C1404 C 0.41485 0.81486 0.81995 0.0
C1405 C 0.45723 0.82155 0.82481 0.0
C1406 C 0.50631 0.81451 0.80473 0.0
H1407 H 0.5649 0.89141 0.73324 0.0
H1408 H 0.53145 0.87712 0.75527 0.0
H1409 H 0.54364 0.82239 0.80455 0.0
H1410 H 0.40548 0.79453 0.79092 0.0
H1411 H 0.44619 0.79158 0.77719 0.0
H1412 H 0.4681 0.82699 0.76267 0.0
C1413 C 0.5474 0.86639 0.75429 0.0
C1414 C 0.52725 0.82313 0.79523 0.0
C1415 C 0.56658 0.87468 0.74193 0.0
C1416 C 0.41976 0.80189 0.80072 0.0
C1417 C 0.44305 0.80012 0.7929 0.0
C1418 C 0.48453 0.8253 0.77182 0.0
C1419 C 0.54834 0.84391 0.76435 0.0
C1420 C 0.52674 0.83359 0.77426 0.0
C1421 C 0.46178 0.81111 0.8043 0.0
C1422 C 0.48468 0.81589 0.79322 0.0
H1423 H 0.604 0.82758 0.74883 0.0
H1424 H 0.57049 0.81322 0.77079 0.0
H1425 H 0.50458 0.84167 0.7461 0.0
H1426 H 0.43104 0.83379 0.84732 0.0
H1427 H 0.47127 0.83031 0.83391 0.0
C1428 C 0.1561 0.41401 0.77087 0.0
C1429 C 0.16883 0.40446 0.78868 0.0
C1430 C 0.1647 0.43382 0.75966 0.0
C1431 C 0.19383 0.4877 0.77182 0.0
H1432 H 0.18991 0.49782 0.70886 0.0
C1433 C 0.15419 0.56907 0.72997 0.0
C1434 C 0.16289 0.57587 0.70929 0.0
C1435 C 0.16494 0.55044 0.74141 0.0
C1436 C 0.1917 0.4953 0.72645 0.0
H1437 H 0.20179 0.40694 0.80722 0.0
H1438 H 0.21605 0.44246 0.78828 0.0
H1439 H 0.19053 0.45742 0.72332 0.0
H1440 H 0.19133 0.57086 0.68563 0.0
H1441 H 0.20987 0.53803 0.70548 0.0
H1442 H 0.19297 0.52563 0.77503 0.0
C1443 C 0.19949 0.43441 0.78309 0.0
C1444 C 0.19193 0.4722 0.73467 0.0
C1445 C 0.19115 0.41426 0.79402 0.0
C1446 C 0.18393 0.56548 0.70132 0.0
C1447 C 0.19461 0.54683 0.71269 0.0
C1448 C 0.19325 0.51086 0.76361 0.0
C1449 C 0.186 0.44466 0.76623 0.0
C1450 C 0.19204 0.46827 0.75742 0.0
C1451 C 0.18452 0.5384 0.73228 0.0
C1452 C 0.19123 0.51481 0.74089 0.0
H1453 H 0.13877 0.4072 0.7664 0.0
H1454 H 0.15385 0.44164 0.74683 0.0
H1455 H 0.19374 0.48504 0.78947 0.0
H1456 H 0.13802 0.57683 0.73647 0.0
H1457 H 0.1567 0.54417 0.75644 0.0
C1458 C 0.41449 0.20721 0.72379 0.0
C1459 C 0.40545 0.18469 0.72944 0.0
C1460 C 0.43333 0.21705 0.73559 0.0
C1461 C 0.48591 0.21305 0.74742 0.0
H1462 H 0.49729 0.20778 0.8101 0.0
C1463 C 0.56658 0.16986 0.78663 0.0
C1464 C 0.57472 0.17811 0.80705 0.0
C1465 C 0.54792 0.18148 0.77598 0.0
C1466 C 0.49441 0.20998 0.7926 0.0
H1467 H 0.40727 0.1562 0.75345 0.0
H1468 H 0.4396 0.17369 0.77434 0.0
H1469 H 0.45656 0.2093 0.79641 0.0
H1470 H 0.57194 0.20663 0.83096 0.0
H1471 H 0.53885 0.22648 0.81262 0.0
H1472 H 0.52373 0.21157 0.74349 0.0
C1473 C 0.43228 0.18362 0.76065 0.0
C1474 C 0.47111 0.21074 0.78481 0.0
C1475 C 0.4137 0.17358 0.74866 0.0
C1476 C 0.56551 0.19949 0.81553 0.0
C1477 C 0.54673 0.21096 0.805 0.0
C1478 C 0.50921 0.21196 0.75519 0.0
C1479 C 0.44304 0.20479 0.75352 0.0
C1480 C 0.4667 0.21117 0.76212 0.0
C1481 C 0.53711 0.20145 0.78566 0.0
C1482 C 0.51358 0.20931 0.77777 0.0
H1483 H 0.40803 0.21653 0.70939 0.0
H1484 H 0.44122 0.23352 0.72993 0.0
H1485 H 0.48296 0.2132 0.72981 0.0
H1486 H 0.57332 0.15345 0.77972 0.0
H1487 H 0.54069 0.17366 0.76114 0.0
C1488 C 0.68346 0.06093 0.83114 0.0
C1489 C 0.66468 0.07475 0.82299 0.0
C1490 C 0.69501 0.04459 0.81732 0.0
C1491 C 0.70286 0.02619 0.75896 0.0
H1492 H 0.69753 0.96212 0.78168 0.0
C1493 C 0.68842 0.94498 0.70317 0.0
C1494 C 0.69451 0.92225 0.71083 0.0
C1495 C 0.69286 0.96507 0.71612 0.0
C1496 C 0.69984 0.97983 0.77508 0.0
H1497 H 0.6443 0.08381 0.79397 0.0
H1498 H 0.66471 0.05596 0.76985 0.0
H1499 H 0.69168 0.99561 0.80621 0.0
H1500 H 0.71202 0.90289 0.73699 0.0
H1501 H 0.72079 0.93792 0.7591 0.0
H1502 H 0.71043 0.01046 0.72766 0.0
C1503 C 0.67054 0.05743 0.78677 0.0
C1504 C 0.69644 0.99909 0.78925 0.0
C1505 C 0.65876 0.07329 0.80061 0.0
C1506 C 0.70695 0.9202 0.73077 0.0
C1507 C 0.71174 0.94029 0.74354 0.0
C1508 C 0.70655 0.00692 0.7448 0.0
C1509 C 0.68824 0.04232 0.7951 0.0
C1510 C 0.69707 0.02246 0.78119 0.0
C1511 C 0.70378 0.96289 0.7369 0.0
C1512 C 0.70424 0.98343 0.75249 0.0
H1513 H 0.68817 0.06166 0.8484 0.0
H1514 H 0.70862 0.03316 0.82415 0.0
H1515 H 0.70368 0.04405 0.75233 0.0
H1516 H 0.67859 0.94713 0.68801 0.0
H1517 H 0.68622 0.98204 0.71044 0.0
C1518 C 0.93366 0.72882 0.7922 0.0
C1519 C 0.93703 0.71304 0.80984 0.0
C1520 C 0.9529 0.73594 0.77922 0.0
C1521 C 0.01889 0.72787 0.77161 0.0
H1522 H 0.9999 0.71516 0.71144 0.0
C1523 C 0.0706 0.6696 0.71251 0.0
C1524 C 0.07069 0.67427 0.68985 0.0
C1525 C 0.05872 0.68465 0.727 0.0
C1526 C 0.0056 0.71941 0.72799 0.0
H1527 H 0.96353 0.69469 0.82926 0.0
H1528 H 0.99682 0.70638 0.80652 0.0
H1529 H 0.9699 0.72428 0.73872 0.0
H1530 H 0.05956 0.69883 0.6645 0.0
H1531 H 0.03781 0.72507 0.68997 0.0
H1532 H 0.05452 0.72081 0.76093 0.0
C1533 C 0.97951 0.71366 0.80267 0.0
C1534 C 0.98834 0.72471 0.74377 0.0
C1535 C 0.9603 0.70688 0.81585 0.0
C1536 C 0.05974 0.69498 0.68196 0.0
C1537 C 0.04732 0.70989 0.69649 0.0
C1538 C 0.03614 0.7223 0.75584 0.0
C1539 C 0.97584 0.72707 0.78339 0.0
C1540 C 0.99461 0.72788 0.76602 0.0
C1541 C 0.04625 0.70451 0.71911 0.0
C1542 C 0.02951 0.71693 0.7341 0.0
H1543 H 0.9159 0.7341 0.78734 0.0
H1544 H 0.94947 0.74694 0.76495 0.0
H1545 H 0.02448 0.73079 0.78843 0.0
H1546 H 0.07904 0.65375 0.71897 0.0
H1547 H 0.058 0.6798 0.74424 0.0
C1548 C 0.30683 0.07349 0.6946 0.0
C1549 C 0.30065 0.09677 0.70072 0.0
C1550 C 0.30041 0.0542 0.70779 0.0
C1551 C 0.28525 0.04023 0.76548 0.0
H1552 H 0.27526 0.97747 0.74106 0.0
C1553 C 0.30366 0.95381 0.81384 0.0
C1554 C 0.29186 0.93294 0.80753 0.0
C1555 C 0.29906 0.97523 0.80289 0.0
C1556 C 0.27752 0.99488 0.74833 0.0
H1557 H 0.28132 0.11781 0.7247 0.0
H1558 H 0.2696 0.08404 0.74741 0.0
H1559 H 0.27646 0.01156 0.71677 0.0
H1560 H 0.26453 0.91835 0.78646 0.0
H1561 H 0.25551 0.95583 0.76822 0.0
H1562 H 0.2861 0.02348 0.79711 0.0
C1563 C 0.28002 0.08078 0.73273 0.0
C1564 C 0.2786 0.01446 0.73426 0.0
C1565 C 0.28657 0.10013 0.71959 0.0
C1566 C 0.27397 0.93422 0.79151 0.0
C1567 C 0.26903 0.95566 0.78089 0.0
C1568 C 0.28396 0.02062 0.77961 0.0
C1569 C 0.28741 0.05763 0.72732 0.0
C1570 C 0.2831 0.03732 0.74256 0.0
C1571 C 0.28232 0.9762 0.78566 0.0
C1572 C 0.28063 0.99758 0.77118 0.0
H1573 H 0.31761 0.0702 0.68016 0.0
H1574 H 0.30668 0.03672 0.70315 0.0
H1575 H 0.28892 0.05752 0.7725 0.0
H1576 H 0.31776 0.95322 0.82596 0.0
H1577 H 0.3098 0.99056 0.80697 0.0
C1578 C 0.90908 0.28017 0.71768 0.0
C1579 C 0.91073 0.29277 0.69781 0.0
C1580 C 0.92941 0.27538 0.73014 0.0
C1581 C 0.99613 0.28178 0.73058 0.0
H1582 H 0.98554 0.29335 0.79271 0.0
C1583 C 0.06264 0.32748 0.78811 0.0
C1584 C 0.06589 0.31872 0.80952 0.0
C1585 C 0.04608 0.31711 0.77401 0.0
C1586 C 0.9888 0.28958 0.7755 0.0
H1587 H 0.93511 0.30912 0.67479 0.0
H1588 H 0.9704 0.30166 0.6967 0.0
H1589 H 0.95174 0.28807 0.76839 0.0
H1590 H 0.05497 0.29187 0.8329 0.0
H1591 H 0.02501 0.27407 0.80832 0.0
H1592 H 0.03331 0.28525 0.73775 0.0
C1593 C 0.95361 0.29476 0.70257 0.0
C1594 C 0.96937 0.28646 0.76144 0.0
C1595 C 0.93329 0.29908 0.68989 0.0
C1596 C 0.05281 0.29883 0.81641 0.0
C1597 C 0.03569 0.28876 0.80241 0.0
C1598 C 0.01554 0.28531 0.74461 0.0
C1599 C 0.95186 0.28364 0.72331 0.0
C1600 C 0.97269 0.28315 0.73864 0.0
C1601 C 0.03199 0.29804 0.78117 0.0
C1602 C 0.01202 0.28984 0.76711 0.0
H1603 H 0.89188 0.27499 0.72412 0.0
H1604 H 0.92733 0.26611 0.74563 0.0
H1605 H 0.99954 0.27871 0.71329 0.0
H1606 H 0.07261 0.34275 0.78238 0.0
H1607 H 0.04346 0.32481 0.75786 0.0
C1608 C 0.32922 0.93143 0.17657 0.0
C1609 C 0.34978 0.92396 0.18781 0.0
C1610 C 0.31544 0.95005 0.18471 0.0
C1611 C 0.3036 0.98826 0.23257 0.0
H1612 H 0.30568 0.04023 0.19062 0.0
C1613 C 0.3258 0.08776 0.24295 0.0
C1614 C 0.30882 0.09593 0.25823 0.0
C1615 C 0.32149 0.06756 0.23037 0.0
C1616 C 0.30433 0.02575 0.2023 0.0
H1617 H 0.37074 0.92874 0.2174 0.0
H1618 H 0.34635 0.96106 0.23184 0.0
H1619 H 0.31515 0.99992 0.17852 0.0
H1620 H 0.27255 0.09065 0.26976 0.0
H1621 H 0.26596 0.05421 0.24889 0.0
H1622 H 0.29412 0.01443 0.2566 0.0
C1623 C 0.34104 0.95254 0.21664 0.0
C1624 C 0.30973 0.00272 0.19543 0.0
C1625 C 0.35503 0.93406 0.20837 0.0
C1626 C 0.28651 0.08449 0.25893 0.0
C1627 C 0.2825 0.06378 0.24678 0.0
C1628 C 0.29777 0.01125 0.23935 0.0
C1629 C 0.32169 0.96127 0.20445 0.0
C1630 C 0.31046 0.984 0.21073 0.0
C1631 C 0.30034 0.05475 0.23304 0.0
C1632 C 0.29916 0.03029 0.22446 0.0
H1633 H 0.32429 0.92351 0.16099 0.0
H1634 H 0.30045 0.95633 0.17515 0.0
H1635 H 0.30398 0.97408 0.24461 0.0
H1636 H 0.3433 0.0956 0.24186 0.0
H1637 H 0.3356 0.06077 0.21999 0.0
C1638 C 0.07566 0.34411 0.25933 0.0
C1639 C 0.0903 0.33577 0.24241 0.0
C1640 C 0.05708 0.33001 0.26709 0.0
C1641 C 0.0164 0.29734 0.27933 0.0
H1642 H 0.98052 0.29651 0.22483 0.0
C1643 C 0.91923 0.31716 0.28276 0.0
C1644 C 0.91727 0.33977 0.27317 0.0
C1645 C 0.93782 0.30206 0.27673 0.0
C1646 C 0.99029 0.29582 0.24018 0.0
H1647 H 0.09884 0.3057 0.22168 0.0
H1648 H 0.06587 0.28116 0.23487 0.0
H1649 H 0.02377 0.29562 0.22366 0.0
H1650 H 0.93111 0.36351 0.24838 0.0
H1651 H 0.96319 0.33697 0.23727 0.0
H1652 H 0.98295 0.29994 0.29574 0.0
C1653 C 0.06898 0.2983 0.24245 0.0
C1654 C 0.01508 0.2952 0.23956 0.0
C1655 C 0.08785 0.31227 0.235 0.0
C1656 C 0.93218 0.34598 0.25568 0.0
C1657 C 0.9505 0.33073 0.24937 0.0
C1658 C 0.9916 0.29764 0.27996 0.0
C1659 C 0.05261 0.30764 0.25758 0.0
C1660 C 0.02829 0.29783 0.25905 0.0
C1661 C 0.95443 0.30937 0.26088 0.0
C1662 C 0.97845 0.29874 0.2603 0.0
H1663 H 0.07711 0.36232 0.26496 0.0
H1664 H 0.04461 0.3378 0.2786 0.0
H1665 H 0.02621 0.29925 0.29456 0.0
H1666 H 0.90802 0.31228 0.29654 0.0
H1667 H 0.9405 0.28573 0.28584 0.0
C1668 C 0.57851 0.90007 0.25795 0.0
C1669 C 0.59704 0.88405 0.2623 0.0
C1670 C 0.58118 0.91726 0.24157 0.0
C1671 C 0.63041 0.95224 0.22632 0.0
H1672 H 0.58621 0.98685 0.18942 0.0
C1673 C 0.65011 0.04844 0.20205 0.0
C1674 C 0.63084 0.06431 0.20138 0.0
C1675 C 0.64631 0.02401 0.2033 0.0
C1676 C 0.5987 0.97747 0.19983 0.0
H1677 H 0.63101 0.87074 0.25091 0.0
H1678 H 0.63573 0.90089 0.22236 0.0
H1679 H 0.57725 0.94589 0.20013 0.0
H1680 H 0.59228 0.06661 0.20114 0.0
H1681 H 0.58571 0.02434 0.20537 0.0
H1682 H 0.65083 0.98391 0.22798 0.0
C1683 C 0.61936 0.9004 0.23173 0.0
C1684 C 0.59366 0.95396 0.20567 0.0
C1685 C 0.61669 0.88325 0.24807 0.0
C1686 C 0.60762 0.05507 0.20221 0.0
C1687 C 0.60382 0.03065 0.20404 0.0
C1688 C 0.63518 0.97576 0.22092 0.0
C1689 C 0.60241 0.91854 0.22946 0.0
C1690 C 0.60931 0.94133 0.2193 0.0
C1691 C 0.62312 0.01478 0.2046 0.0
C1692 C 0.61916 0.98891 0.20801 0.0
H1693 H 0.56317 0.90102 0.2687 0.0
H1694 H 0.56787 0.93109 0.24015 0.0
H1695 H 0.64252 0.94312 0.2373 0.0
H1696 H 0.66825 0.05484 0.2016 0.0
H1697 H 0.66165 0.01241 0.20327 0.0
C1698 C 0.92259 0.65705 0.21977 0.0
C1699 C 0.91189 0.63512 0.21478 0.0
C1700 C 0.9451 0.65779 0.22929 0.0
C1701 C 0.99889 0.64933 0.22868 0.0
H1702 H 0.01842 0.61351 0.28005 0.0
C1703 C 0.08856 0.6121 0.2751 0.0
C1704 C 0.10285 0.63256 0.27428 0.0
C1705 C 0.06541 0.61261 0.26706 0.0
C1706 C 0.01332 0.6233 0.26546 0.0
H1707 H 0.9159 0.59679 0.21708 0.0
H1708 H 0.95478 0.59822 0.23448 0.0
H1709 H 0.97653 0.61475 0.26987 0.0
H1710 H 0.1046 0.66909 0.26302 0.0
H1711 H 0.06381 0.67031 0.24984 0.0
H1712 H 0.03563 0.65715 0.22363 0.0
C1713 C 0.94574 0.61476 0.23083 0.0
C1714 C 0.98935 0.62418 0.25983 0.0
C1715 C 0.92341 0.61399 0.22099 0.0
C1716 C 0.0939 0.65315 0.26416 0.0
C1717 C 0.07059 0.65377 0.25642 0.0
C1718 C 0.02292 0.64816 0.2341 0.0
C1719 C 0.95703 0.63663 0.23435 0.0
C1720 C 0.98201 0.63714 0.24138 0.0
C1721 C 0.05589 0.63369 0.25838 0.0
C1722 C 0.03042 0.635 0.25247 0.0
H1723 H 0.91395 0.67364 0.21555 0.0
H1724 H 0.95348 0.67485 0.23213 0.0
H1725 H 0.99356 0.65914 0.21415 0.0
H1726 H 0.09471 0.596 0.28302 0.0
H1727 H 0.05475 0.59665 0.26829 0.0
loop_
_geom_bond_atom_site_label_1
_geom_bond_atom_site_label_2
_geom_bond_distance
_geom_bond_site_symmetry_2
_ccdc_geom_bond_type
C0 C1 1.351 . S
C0 N3 1.368 . S
C0 H5 0.931 . S
C1 C0 1.351 . S
C1 N2 1.373 . S
C1 H29 0.930 . S
N2 C1 1.373 . S
N2 C4 1.340 . S
N3 C0 1.368 . S
N3 C4 1.321 . S
N3 Co6 2.135 . S
C4 N2 1.340 . S
C4 N3 1.321 . S
C4 H28 0.930 . S
H5 C0 0.931 . S
Co6 N3 2.135 . S
Co6 N9 2.121 . S
Co6 O14 2.055 . S
Co6 O17 2.039 . S
Co6 N20 2.140 . S
C7 O8 1.227 . S
C7 O17 1.265 . S
O8 C7 1.227 . S
N9 Co6 2.121 . S
N9 C11 1.375 . S
N9 C12 1.313 . S
C10 C11 1.338 . S
C10 N13 1.377 . S
C10 H30 0.930 . S
C11 N9 1.375 . S
C11 C10 1.338 . S
C11 H15 0.931 . S
C12 N9 1.313 . S
C12 N13 1.344 . S
C12 H16 0.930 . S
N13 C10 1.377 . S
N13 C12 1.344 . S
O14 Co6 2.055 . S
O14 C18 1.253 . S
H15 C11 0.931 . S
H16 C12 0.930 . S
O17 Co6 2.039 . S
O17 C7 1.265 . S
C18 O14 1.253 . S
C18 O19 1.227 . S
O19 C18 1.227 . S
N20 Co6 2.140 . S
N20 C23 1.346 . S
N20 C24 1.345 . S
C21 C22 1.387 . S
C21 C25 1.391 . S
C22 C21 1.387 . S
C22 C23 1.369 . S
C22 H31 0.929 . S
C23 N20 1.346 . S
C23 C22 1.369 . S
C23 H26 0.928 . S
C24 N20 1.345 . S
C24 C25 1.371 . S
C24 H27 0.931 . S
C25 C21 1.391 . S
C25 C24 1.371 . S
C25 H32 0.930 . S
H26 C23 0.928 . S
H27 C24 0.931 . S
H28 C4 0.930 . S
H29 C1 0.930 . S
H30 C10 0.930 . S
H31 C22 0.929 . S
H32 C25 0.930 . S
C33 C34 1.351 . S
C33 N36 1.368 . S
C33 H38 0.931 . S
C34 C33 1.351 . S
C34 N35 1.373 . S
C34 H62 0.930 . S
N35 C34 1.373 . S
N35 C37 1.340 . S
N36 C33 1.368 . S
N36 C37 1.321 . S
N36 Co39 2.135 . S
C37 N35 1.340 . S
C37 N36 1.321 . S
C37 H61 0.930 . S
H38 C33 0.931 . S
Co39 N36 2.135 . S
Co39 N42 2.121 . S
Co39 O47 2.055 . S
Co39 O50 2.039 . S
Co39 N53 2.140 . S
C40 O41 1.227 . S
C40 O50 1.265 . S
O41 C40 1.227 . S
N42 Co39 2.121 . S
N42 C44 1.375 . S
N42 C45 1.313 . S
C43 C44 1.338 . S
C43 N46 1.377 . S
C43 H63 0.930 . S
C44 N42 1.375 . S
C44 C43 1.338 . S
C44 H48 0.931 . S
C45 N42 1.313 . S
C45 N46 1.344 . S
C45 H49 0.930 . S
N46 C43 1.377 . S
N46 C45 1.344 . S
O47 Co39 2.055 . S
O47 C51 1.253 . S
H48 C44 0.931 . S
H49 C45 0.930 . S
O50 Co39 2.039 . S
O50 C40 1.265 . S
C51 O47 1.253 . S
C51 O52 1.227 . S
O52 C51 1.227 . S
N53 Co39 2.140 . S
N53 C56 1.346 . S
N53 C57 1.345 . S
C54 C55 1.387 . S
C54 C58 1.391 . S
C55 C54 1.387 . S
C55 C56 1.369 . S
C55 H64 0.929 . S
C56 N53 1.346 . S
C56 C55 1.369 . S
C56 H59 0.928 . S
C57 N53 1.345 . S
C57 C58 1.371 . S
C57 H60 0.931 . S
C58 C54 1.391 . S
C58 C57 1.371 . S
C58 H65 0.930 . S
H59 C56 0.928 . S
H60 C57 0.931 . S
H61 C37 0.930 . S
H62 C34 0.930 . S
H63 C43 0.930 . S
H64 C55 0.929 . S
H65 C58 0.930 . S
C66 C67 1.351 . S
C66 N69 1.368 . S
C66 H71 0.931 . S
C67 C66 1.351 . S
C67 N68 1.373 . S
C67 H95 0.930 . S
N68 C67 1.373 . S
N68 C70 1.340 . S
N69 C66 1.368 . S
N69 C70 1.321 . S
N69 Co72 2.135 . S
C70 N68 1.340 . S
C70 N69 1.321 . S
C70 H94 0.930 . S
H71 C66 0.931 . S
Co72 N69 2.135 . S
Co72 N75 2.121 . S
Co72 O80 2.055 . S
Co72 O83 2.039 . S
Co72 N86 2.140 . S
C73 O74 1.227 . S
C73 O83 1.265 . S
O74 C73 1.227 . S
N75 Co72 2.121 . S
N75 C77 1.375 . S
N75 C78 1.313 . S
C76 C77 1.338 . S
C76 N79 1.377 . S
C76 H96 0.930 . S
C77 N75 1.375 . S
C77 C76 1.338 . S
C77 H81 0.931 . S
C78 N75 1.313 . S
C78 N79 1.344 . S
C78 H82 0.930 . S
N79 C76 1.377 . S
N79 C78 1.344 . S
O80 Co72 2.055 . S
O80 C84 1.253 . S
H81 C77 0.931 . S
H82 C78 0.930 . S
O83 Co72 2.039 . S
O83 C73 1.265 . S
C84 O80 1.253 . S
C84 O85 1.227 . S
O85 C84 1.227 . S
N86 Co72 2.140 . S
N86 C89 1.346 . S
N86 C90 1.345 . S
C87 C88 1.387 . S
C87 C91 1.391 . S
C88 C87 1.387 . S
C88 C89 1.369 . S
C88 H97 0.929 . S
C89 N86 1.346 . S
C89 C88 1.369 . S
C89 H92 0.928 . S
C90 N86 1.345 . S
C90 C91 1.371 . S
C90 H93 0.931 . S
C91 C87 1.391 . S
C91 C90 1.371 . S
C91 H98 0.930 . S
H92 C89 0.928 . S
H93 C90 0.931 . S
H94 C70 0.930 . S
H95 C67 0.930 . S
H96 C76 0.930 . S
H97 C88 0.929 . S
H98 C91 0.930 . S
C99 C100 1.351 . S
C99 N102 1.368 . S
C99 H104 0.931 . S
C100 C99 1.351 . S
C100 N101 1.373 . S
C100 H128 0.930 . S
N101 C100 1.373 . S
N101 C103 1.340 . S
N102 C99 1.368 . S
N102 C103 1.321 . S
N102 Co105 2.135 . S
C103 N101 1.340 . S
C103 N102 1.321 . S
C103 H127 0.930 . S
H104 C99 0.931 . S
Co105 N102 2.135 . S
Co105 N108 2.121 . S
Co105 O113 2.055 . S
Co105 O116 2.039 . S
Co105 N119 2.140 . S
C106 O107 1.227 . S
C106 O116 1.265 . S
O107 C106 1.227 . S
N108 Co105 2.121 . S
N108 C110 1.375 . S
N108 C111 1.313 . S
C109 C110 1.338 . S
C109 N112 1.377 . S
C109 H129 0.930 . S
C110 N108 1.375 . S
C110 C109 1.338 . S
C110 H114 0.931 . S
C111 N108 1.313 . S
C111 N112 1.344 . S
C111 H115 0.930 . S
N112 C109 1.377 . S
N112 C111 1.344 . S
O113 Co105 2.055 . S
O113 C117 1.253 . S
H114 C110 0.931 . S
H115 C111 0.930 . S
O116 Co105 2.039 . S
O116 C106 1.265 . S
C117 O113 1.253 . S
C117 O118 1.227 . S
O118 C117 1.227 . S
N119 Co105 2.140 . S
N119 C122 1.346 . S
N119 C123 1.345 . S
C120 C121 1.387 . S
C120 C124 1.391 . S
C121 C120 1.387 . S
C121 C122 1.369 . S
C121 H130 0.929 . S
C122 N119 1.346 . S
C122 C121 1.369 . S
C122 H125 0.928 . S
C123 N119 1.345 . S
C123 C124 1.371 . S
C123 H126 0.931 . S
C124 C120 1.391 . S
C124 C123 1.371 . S
C124 H131 0.930 . S
H125 C122 0.928 . S
H126 C123 0.931 . S
H127 C103 0.930 . S
H128 C100 0.930 . S
H129 C109 0.930 . S
H130 C121 0.929 . S
H131 C124 0.930 . S
C132 C133 1.351 . S
C132 N135 1.368 . S
C132 H137 0.931 . S
C133 C132 1.351 . S
C133 N134 1.373 . S
C133 H161 0.930 . S
N134 C133 1.373 . S
N134 C136 1.340 . S
N135 C132 1.368 . S
N135 C136 1.321 . S
N135 Co138 2.135 . S
C136 N134 1.340 . S
C136 N135 1.321 . S
C136 H160 0.930 . S
H137 C132 0.931 . S
Co138 N135 2.135 . S
Co138 N141 2.121 . S
Co138 O146 2.055 . S
Co138 O149 2.039 . S
Co138 N152 2.140 . S
C139 O140 1.227 . S
C139 O149 1.265 . S
O140 C139 1.227 . S
N141 Co138 2.121 . S
N141 C143 1.375 . S
N141 C144 1.313 . S
C142 C143 1.338 . S
C142 N145 1.377 . S
C142 H162 0.930 . S
C143 N141 1.375 . S
C143 C142 1.338 . S
C143 H147 0.931 . S
C144 N141 1.313 . S
C144 N145 1.344 . S
C144 H148 0.930 . S
N145 C142 1.377 . S
N145 C144 1.344 . S
O146 Co138 2.055 . S
O146 C150 1.253 . S
H147 C143 0.931 . S
H148 C144 0.930 . S
O149 Co138 2.039 . S
O149 C139 1.265 . S
C150 O146 1.253 . S
C150 O151 1.227 . S
O151 C150 1.227 . S
N152 Co138 2.140 . S
N152 C155 1.346 . S
N152 C156 1.345 . S
C153 C154 1.387 . S
C153 C157 1.391 . S
C154 C153 1.387 . S
C154 C155 1.369 . S
C154 H163 0.929 . S
C155 N152 1.346 . S
C155 C154 1.369 . S
C155 H158 0.928 . S
C156 N152 1.345 . S
C156 C157 1.371 . S
C156 H159 0.931 . S
C157 C153 1.391 . S
C157 C156 1.371 . S
C157 H164 0.930 . S
H158 C155 0.928 . S
H159 C156 0.931 . S
H160 C136 0.930 . S
H161 C133 0.930 . S
H162 C142 0.930 . S
H163 C154 0.929 . S
H164 C157 0.930 . S
C165 C166 1.351 . S
C165 N168 1.368 . S
C165 H170 0.931 . S
C166 C165 1.351 . S
C166 N167 1.373 . S
C166 H194 0.930 . S
N167 C166 1.373 . S
N167 C169 1.340 . S
N168 C165 1.368 . S
N168 C169 1.321 . S
N168 Co171 2.135 . S
C169 N167 1.340 . S
C169 N168 1.321 . S
C169 H193 0.930 . S
H170 C165 0.931 . S
Co171 N168 2.135 . S
Co171 N174 2.121 . S
Co171 O179 2.055 . S
Co171 O182 2.039 . S
Co171 N185 2.140 . S
C172 O173 1.227 . S
C172 O182 1.265 . S
O173 C172 1.227 . S
N174 Co171 2.121 . S
N174 C176 1.375 . S
N174 C177 1.313 . S
C175 C176 1.338 . S
C175 N178 1.377 . S
C175 H195 0.930 . S
C176 N174 1.375 . S
C176 C175 1.338 . S
C176 H180 0.931 . S
C177 N174 1.313 . S
C177 N178 1.344 . S
C177 H181 0.930 . S
N178 C175 1.377 . S
N178 C177 1.344 . S
O179 Co171 2.055 . S
O179 C183 1.253 . S
H180 C176 0.931 . S
H181 C177 0.930 . S
O182 Co171 2.039 . S
O182 C172 1.265 . S
C183 O179 1.253 . S
C183 O184 1.227 . S
O184 C183 1.227 . S
N185 Co171 2.140 . S
N185 C188 1.346 . S
N185 C189 1.345 . S
C186 C187 1.387 . S
C186 C190 1.391 . S
C187 C186 1.387 . S
C187 C188 1.369 . S
C187 H196 0.929 . S
C188 N185 1.346 . S
C188 C187 1.369 . S
C188 H191 0.928 . S
C189 N185 1.345 . S
C189 C190 1.371 . S
C189 H192 0.931 . S
C190 C186 1.391 . S
C190 C189 1.371 . S
C190 H197 0.930 . S
H191 C188 0.928 . S
H192 C189 0.931 . S
H193 C169 0.930 . S
H194 C166 0.930 . S
H195 C175 0.930 . S
H196 C187 0.929 . S
H197 C190 0.930 . S
C198 C199 1.351 . S
C198 N201 1.368 . S
C198 H203 0.931 . S
C199 C198 1.351 . S
C199 N200 1.373 . S
C199 H227 0.930 . S
N200 C199 1.373 . S
N200 C202 1.340 . S
N201 C198 1.368 . S
N201 C202 1.321 . S
N201 Co204 2.135 . S
C202 N200 1.340 . S
C202 N201 1.321 . S
C202 H226 0.930 . S
H203 C198 0.931 . S
Co204 N201 2.135 . S
Co204 N207 2.121 . S
Co204 O212 2.055 . S
Co204 O215 2.039 . S
Co204 N218 2.140 . S
C205 O206 1.227 . S
C205 O215 1.265 . S
O206 C205 1.227 . S
N207 Co204 2.121 . S
N207 C209 1.375 . S
N207 C210 1.313 . S
C208 C209 1.338 . S
C208 N211 1.377 . S
C208 H228 0.930 . S
C209 N207 1.375 . S
C209 C208 1.338 . S
C209 H213 0.931 . S
C210 N207 1.313 . S
C210 N211 1.344 . S
C210 H214 0.930 . S
N211 C208 1.377 . S
N211 C210 1.344 . S
O212 Co204 2.055 . S
O212 C216 1.253 . S
H213 C209 0.931 . S
H214 C210 0.930 . S
O215 Co204 2.039 . S
O215 C205 1.265 . S
C216 O212 1.253 . S
C216 O217 1.227 . S
O217 C216 1.227 . S
N218 Co204 2.140 . S
N218 C221 1.346 . S
N218 C222 1.345 . S
C219 C220 1.387 . S
C219 C223 1.391 . S
C220 C219 1.387 . S
C220 C221 1.369 . S
C220 H229 0.929 . S
C221 N218 1.346 . S
C221 C220 1.369 . S
C221 H224 0.928 . S
C222 N218 1.345 . S
C222 C223 1.371 . S
C222 H225 0.931 . S
C223 C219 1.391 . S
C223 C222 1.371 . S
C223 H230 0.930 . S
H224 C221 0.928 . S
H225 C222 0.931 . S
H226 C202 0.930 . S
H227 C199 0.930 . S
H228 C208 0.930 . S
H229 C220 0.929 . S
H230 C223 0.930 . S
C231 C232 1.351 . S
C231 N234 1.368 . S
C231 H236 0.931 . S
C232 C231 1.351 . S
C232 N233 1.373 . S
C232 H260 0.930 . S
N233 C232 1.373 . S
N233 C235 1.340 . S
N234 C231 1.368 . S
N234 C235 1.321 . S
N234 Co237 2.135 . S
C235 N233 1.340 . S
C235 N234 1.321 . S
C235 H259 0.930 . S
H236 C231 0.931 . S
Co237 N234 2.135 . S
Co237 N240 2.121 . S
Co237 O245 2.055 . S
Co237 O248 2.039 . S
Co237 N251 2.140 . S
C238 O239 1.227 . S
C238 O248 1.265 . S
O239 C238 1.227 . S
N240 Co237 2.121 . S
N240 C242 1.375 . S
N240 C243 1.313 . S
C241 C242 1.338 . S
C241 N244 1.377 . S
C241 H261 0.930 . S
C242 N240 1.375 . S
C242 C241 1.338 . S
C242 H246 0.931 . S
C243 N240 1.313 . S
C243 N244 1.344 . S
C243 H247 0.930 . S
N244 C241 1.377 . S
N244 C243 1.344 . S
O245 Co237 2.055 . S
O245 C249 1.253 . S
H246 C242 0.931 . S
H247 C243 0.930 . S
O248 Co237 2.039 . S
O248 C238 1.265 . S
C249 O245 1.253 . S
C249 O250 1.227 . S
O250 C249 1.227 . S
N251 Co237 2.140 . S
N251 C254 1.346 . S
N251 C255 1.345 . S
C252 C253 1.387 . S
C252 C256 1.391 . S
C253 C252 1.387 . S
C253 C254 1.369 . S
C253 H262 0.929 . S
C254 N251 1.346 . S
C254 C253 1.369 . S
C254 H257 0.928 . S
C255 N251 1.345 . S
C255 C256 1.371 . S
C255 H258 0.931 . S
C256 C252 1.391 . S
C256 C255 1.371 . S
C256 H263 0.930 . S
H257 C254 0.928 . S
H258 C255 0.931 . S
H259 C235 0.930 . S
H260 C232 0.930 . S
H261 C241 0.930 . S
H262 C253 0.929 . S
H263 C256 0.930 . S
C264 C265 1.351 . S
C264 N267 1.368 . S
C264 H269 0.931 . S
C265 C264 1.351 . S
C265 N266 1.373 . S
C265 H293 0.930 . S
N266 C265 1.373 . S
N266 C268 1.340 . S
N267 C264 1.368 . S
N267 C268 1.321 . S
N267 Co270 2.135 . S
C268 N266 1.340 . S
C268 N267 1.321 . S
C268 H292 0.930 . S
H269 C264 0.931 . S
Co270 N267 2.135 . S
Co270 N273 2.121 . S
Co270 O278 2.055 . S
Co270 O281 2.039 . S
Co270 N284 2.140 . S
C271 O272 1.227 . S
C271 O281 1.265 . S
O272 C271 1.227 . S
N273 Co270 2.121 . S
N273 C275 1.375 . S
N273 C276 1.313 . S
C274 C275 1.338 . S
C274 N277 1.377 . S
C274 H294 0.930 . S
C275 N273 1.375 . S
C275 C274 1.338 . S
C275 H279 0.931 . S
C276 N273 1.313 . S
C276 N277 1.344 . S
C276 H280 0.930 . S
N277 C274 1.377 . S
N277 C276 1.344 . S
O278 Co270 2.055 . S
O278 C282 1.253 . S
H279 C275 0.931 . S
H280 C276 0.930 . S
O281 Co270 2.039 . S
O281 C271 1.265 . S
C282 O278 1.253 . S
C282 O283 1.227 . S
O283 C282 1.227 . S
N284 Co270 2.140 . S
N284 C287 1.346 . S
N284 C288 1.345 . S
C285 C286 1.387 . S
C285 C289 1.391 . S
C286 C285 1.387 . S
C286 C287 1.369 . S
C286 H295 0.929 . S
C287 N284 1.346 . S
C287 C286 1.369 . S
C287 H290 0.928 . S
C288 N284 1.345 . S
C288 C289 1.371 . S
C288 H291 0.931 . S
C289 C285 1.391 . S
C289 C288 1.371 . S
C289 H296 0.930 . S
H290 C287 0.928 . S
H291 C288 0.931 . S
H292 C268 0.930 . S
H293 C265 0.930 . S
H294 C274 0.930 . S
H295 C286 0.929 . S
H296 C289 0.930 . S
C297 C298 1.351 . S
C297 N300 1.368 . S
C297 H302 0.931 . S
C298 C297 1.351 . S
C298 N299 1.373 . S
C298 H326 0.930 . S
N299 C298 1.373 . S
N299 C301 1.340 . S
N300 C297 1.368 . S
N300 C301 1.321 . S
N300 Co303 2.135 . S
C301 N299 1.340 . S
C301 N300 1.321 . S
C301 H325 0.930 . S
H302 C297 0.931 . S
Co303 N300 2.135 . S
Co303 N306 2.121 . S
Co303 O311 2.055 . S
Co303 O314 2.039 . S
Co303 N317 2.140 . S
C304 O305 1.227 . S
C304 O314 1.265 . S
O305 C304 1.227 . S
N306 Co303 2.121 . S
N306 C308 1.375 . S
N306 C309 1.313 . S
C307 C308 1.338 . S
C307 N310 1.377 . S
C307 H327 0.930 . S
C308 N306 1.375 . S
C308 C307 1.338 . S
C308 H312 0.931 . S
C309 N306 1.313 . S
C309 N310 1.344 . S
C309 H313 0.930 . S
N310 C307 1.377 . S
N310 C309 1.344 . S
O311 Co303 2.055 . S
O311 C315 1.253 . S
H312 C308 0.931 . S
H313 C309 0.930 . S
O314 Co303 2.039 . S
O314 C304 1.265 . S
C315 O311 1.253 . S
C315 O316 1.227 . S
O316 C315 1.227 . S
N317 Co303 2.140 . S
N317 C320 1.346 . S
N317 C321 1.345 . S
C318 C319 1.387 . S
C318 C322 1.391 . S
C319 C318 1.387 . S
C319 C320 1.369 . S
C319 H328 0.929 . S
C320 N317 1.346 . S
C320 C319 1.369 . S
C320 H323 0.928 . S
C321 N317 1.345 . S
C321 C322 1.371 . S
C321 H324 0.931 . S
C322 C318 1.391 . S
C322 C321 1.371 . S
C322 H329 0.930 . S
H323 C320 0.928 . S
H324 C321 0.931 . S
H325 C301 0.930 . S
H326 C298 0.930 . S
H327 C307 0.930 . S
H328 C319 0.929 . S
H329 C322 0.930 . S
C330 C331 1.351 . S
C330 N333 1.368 . S
C330 H335 0.931 . S
C331 C330 1.351 . S
C331 N332 1.373 . S
C331 H359 0.930 . S
N332 C331 1.373 . S
N332 C334 1.340 . S
N333 C330 1.368 . S
N333 C334 1.321 . S
N333 Co336 2.135 . S
C334 N332 1.340 . S
C334 N333 1.321 . S
C334 H358 0.930 . S
H335 C330 0.931 . S
Co336 N333 2.135 . S
Co336 N339 2.121 . S
Co336 O344 2.055 . S
Co336 O347 2.039 . S
Co336 N350 2.140 . S
C337 O338 1.227 . S
C337 O347 1.265 . S
O338 C337 1.227 . S
N339 Co336 2.121 . S
N339 C341 1.375 . S
N339 C342 1.313 . S
C340 C341 1.338 . S
C340 N343 1.377 . S
C340 H360 0.930 . S
C341 N339 1.375 . S
C341 C340 1.338 . S
C341 H345 0.931 . S
C342 N339 1.313 . S
C342 N343 1.344 . S
C342 H346 0.930 . S
N343 C340 1.377 . S
N343 C342 1.344 . S
O344 Co336 2.055 . S
O344 C348 1.253 . S
H345 C341 0.931 . S
H346 C342 0.930 . S
O347 Co336 2.039 . S
O347 C337 1.265 . S
C348 O344 1.253 . S
C348 O349 1.227 . S
O349 C348 1.227 . S
N350 Co336 2.140 . S
N350 C353 1.346 . S
N350 C354 1.345 . S
C351 C352 1.387 . S
C351 C355 1.391 . S
C352 C351 1.387 . S
C352 C353 1.369 . S
C352 H361 0.929 . S
C353 N350 1.346 . S
C353 C352 1.369 . S
C353 H356 0.928 . S
C354 N350 1.345 . S
C354 C355 1.371 . S
C354 H357 0.931 . S
C355 C351 1.391 . S
C355 C354 1.371 . S
C355 H362 0.930 . S
H356 C353 0.928 . S
H357 C354 0.931 . S
H358 C334 0.930 . S
H359 C331 0.930 . S
H360 C340 0.930 . S
H361 C352 0.929 . S
H362 C355 0.930 . S
C363 C364 1.351 . S
C363 N366 1.368 . S
C363 H368 0.931 . S
C364 C363 1.351 . S
C364 N365 1.373 . S
C364 H392 0.930 . S
N365 C364 1.373 . S
N365 C367 1.340 . S
N366 C363 1.368 . S
N366 C367 1.321 . S
N366 Co369 2.135 . S
C367 N365 1.340 . S
C367 N366 1.321 . S
C367 H391 0.930 . S
H368 C363 0.931 . S
Co369 N366 2.135 . S
Co369 N372 2.121 . S
Co369 O377 2.055 . S
Co369 O380 2.039 . S
Co369 N383 2.140 . S
C370 O371 1.227 . S
C370 O380 1.265 . S
O371 C370 1.227 . S
N372 Co369 2.121 . S
N372 C374 1.375 . S
N372 C375 1.313 . S
C373 C374 1.338 . S
C373 N376 1.377 . S
C373 H393 0.930 . S
C374 N372 1.375 . S
C374 C373 1.338 . S
C374 H378 0.931 . S
C375 N372 1.313 . S
C375 N376 1.344 . S
C375 H379 0.930 . S
N376 C373 1.377 . S
N376 C375 1.344 . S
O377 Co369 2.055 . S
O377 C381 1.253 . S
H378 C374 0.931 . S
H379 C375 0.930 . S
O380 Co369 2.039 . S
O380 C370 1.265 . S
C381 O377 1.253 . S
C381 O382 1.227 . S
O382 C381 1.227 . S
N383 Co369 2.140 . S
N383 C386 1.346 . S
N383 C387 1.345 . S
C384 C385 1.387 . S
C384 C388 1.391 . S
C385 C384 1.387 . S
C385 C386 1.369 . S
C385 H394 0.929 . S
C386 N383 1.346 . S
C386 C385 1.369 . S
C386 H389 0.928 . S
C387 N383 1.345 . S
C387 C388 1.371 . S
C387 H390 0.931 . S
C388 C384 1.391 . S
C388 C387 1.371 . S
C388 H395 0.930 . S
H389 C386 0.928 . S
H390 C387 0.931 . S
H391 C367 0.930 . S
H392 C364 0.930 . S
H393 C373 0.930 . S
H394 C385 0.929 . S
H395 C388 0.930 . S
C396 C397 1.351 . S
C396 N399 1.368 . S
C396 H401 0.931 . S
C397 C396 1.351 . S
C397 N398 1.373 . S
C397 H425 0.930 . S
N398 C397 1.373 . S
N398 C400 1.340 . S
N399 C396 1.368 . S
N399 C400 1.321 . S
N399 Co402 2.135 . S
C400 N398 1.340 . S
C400 N399 1.321 . S
C400 H424 0.930 . S
H401 C396 0.931 . S
Co402 N399 2.135 . S
Co402 N405 2.121 . S
Co402 O410 2.055 . S
Co402 O413 2.039 . S
Co402 N416 2.140 . S
C403 O404 1.227 . S
C403 O413 1.265 . S
O404 C403 1.227 . S
N405 Co402 2.121 . S
N405 C407 1.375 . S
N405 C408 1.313 . S
C406 C407 1.338 . S
C406 N409 1.377 . S
C406 H426 0.930 . S
C407 N405 1.375 . S
C407 C406 1.338 . S
C407 H411 0.931 . S
C408 N405 1.313 . S
C408 N409 1.344 . S
C408 H412 0.930 . S
N409 C406 1.377 . S
N409 C408 1.344 . S
O410 Co402 2.055 . S
O410 C414 1.253 . S
H411 C407 0.931 . S
H412 C408 0.930 . S
O413 Co402 2.039 . S
O413 C403 1.265 . S
C414 O410 1.253 . S
C414 O415 1.227 . S
O415 C414 1.227 . S
N416 Co402 2.140 . S
N416 C419 1.346 . S
N416 C420 1.345 . S
C417 C418 1.387 . S
C417 C421 1.391 . S
C418 C417 1.387 . S
C418 C419 1.369 . S
C418 H427 0.929 . S
C419 N416 1.346 . S
C419 C418 1.369 . S
C419 H422 0.928 . S
C420 N416 1.345 . S
C420 C421 1.371 . S
C420 H423 0.931 . S
C421 C417 1.391 . S
C421 C420 1.371 . S
C421 H428 0.930 . S
H422 C419 0.928 . S
H423 C420 0.931 . S
H424 C400 0.930 . S
H425 C397 0.930 . S
H426 C406 0.930 . S
H427 C418 0.929 . S
H428 C421 0.930 . S
C429 C430 1.351 . S
C429 N432 1.368 . S
C429 H434 0.931 . S
C430 C429 1.351 . S
C430 N431 1.373 . S
C430 H458 0.930 . S
N431 C430 1.373 . S
N431 C433 1.340 . S
N432 C429 1.368 . S
N432 C433 1.321 . S
N432 Co435 2.135 . S
C433 N431 1.340 . S
C433 N432 1.321 . S
C433 H457 0.930 . S
H434 C429 0.931 . S
Co435 N432 2.135 . S
Co435 N438 2.121 . S
Co435 O443 2.055 . S
Co435 O446 2.039 . S
Co435 N449 2.140 . S
C436 O437 1.227 . S
C436 O446 1.265 . S
O437 C436 1.227 . S
N438 Co435 2.121 . S
N438 C440 1.375 . S
N438 C441 1.313 . S
C439 C440 1.338 . S
C439 N442 1.377 . S
C439 H459 0.930 . S
C440 N438 1.375 . S
C440 C439 1.338 . S
C440 H444 0.931 . S
C441 N438 1.313 . S
C441 N442 1.344 . S
C441 H445 0.930 . S
N442 C439 1.377 . S
N442 C441 1.344 . S
O443 Co435 2.055 . S
O443 C447 1.253 . S
H444 C440 0.931 . S
H445 C441 0.930 . S
O446 Co435 2.039 . S
O446 C436 1.265 . S
C447 O443 1.253 . S
C447 O448 1.227 . S
O448 C447 1.227 . S
N449 Co435 2.140 . S
N449 C452 1.346 . S
N449 C453 1.345 . S
C450 C451 1.387 . S
C450 C454 1.391 . S
C451 C450 1.387 . S
C451 C452 1.369 . S
C451 H460 0.929 . S
C452 N449 1.346 . S
C452 C451 1.369 . S
C452 H455 0.928 . S
C453 N449 1.345 . S
C453 C454 1.371 . S
C453 H456 0.931 . S
C454 C450 1.391 . S
C454 C453 1.371 . S
C454 H461 0.930 . S
H455 C452 0.928 . S
H456 C453 0.931 . S
H457 C433 0.930 . S
H458 C430 0.930 . S
H459 C439 0.930 . S
H460 C451 0.929 . S
H461 C454 0.930 . S
C462 C463 1.351 . S
C462 N465 1.368 . S
C462 H467 0.931 . S
C463 C462 1.351 . S
C463 N464 1.373 . S
C463 H491 0.930 . S
N464 C463 1.373 . S
N464 C466 1.340 . S
N465 C462 1.368 . S
N465 C466 1.321 . S
N465 Co468 2.135 . S
C466 N464 1.340 . S
C466 N465 1.321 . S
C466 H490 0.930 . S
H467 C462 0.931 . S
Co468 N465 2.135 . S
Co468 N471 2.121 . S
Co468 O476 2.055 . S
Co468 O479 2.039 . S
Co468 N482 2.140 . S
C469 O470 1.227 . S
C469 O479 1.265 . S
O470 C469 1.227 . S
N471 Co468 2.121 . S
N471 C473 1.375 . S
N471 C474 1.313 . S
C472 C473 1.338 . S
C472 N475 1.377 . S
C472 H492 0.930 . S
C473 N471 1.375 . S
C473 C472 1.338 . S
C473 H477 0.931 . S
C474 N471 1.313 . S
C474 N475 1.344 . S
C474 H478 0.930 . S
N475 C472 1.377 . S
N475 C474 1.344 . S
O476 Co468 2.055 . S
O476 C480 1.253 . S
H477 C473 0.931 . S
H478 C474 0.930 . S
O479 Co468 2.039 . S
O479 C469 1.265 . S
C480 O476 1.253 . S
C480 O481 1.227 . S
O481 C480 1.227 . S
N482 Co468 2.140 . S
N482 C485 1.346 . S
N482 C486 1.345 . S
C483 C484 1.387 . S
C483 C487 1.391 . S
C484 C483 1.387 . S
C484 C485 1.369 . S
C484 H493 0.929 . S
C485 N482 1.346 . S
C485 C484 1.369 . S
C485 H488 0.928 . S
C486 N482 1.345 . S
C486 C487 1.371 . S
C486 H489 0.931 . S
C487 C483 1.391 . S
C487 C486 1.371 . S
C487 H494 0.930 . S
H488 C485 0.928 . S
H489 C486 0.931 . S
H490 C466 0.930 . S
H491 C463 0.930 . S
H492 C472 0.930 . S
H493 C484 0.929 . S
H494 C487 0.930 . S
C495 C496 1.351 . S
C495 N498 1.368 . S
C495 H500 0.931 . S
C496 C495 1.351 . S
C496 N497 1.373 . S
C496 H524 0.930 . S
N497 C496 1.373 . S
N497 C499 1.340 . S
N498 C495 1.368 . S
N498 C499 1.321 . S
N498 Co501 2.135 . S
C499 N497 1.340 . S
C499 N498 1.321 . S
C499 H523 0.930 . S
H500 C495 0.931 . S
Co501 N498 2.135 . S
Co501 N504 2.121 . S
Co501 O509 2.055 . S
Co501 O512 2.039 . S
Co501 N515 2.140 . S
C502 O503 1.227 . S
C502 O512 1.265 . S
O503 C502 1.227 . S
N504 Co501 2.121 . S
N504 C506 1.375 . S
N504 C507 1.313 . S
C505 C506 1.338 . S
C505 N508 1.377 . S
C505 H525 0.930 . S
C506 N504 1.375 . S
C506 C505 1.338 . S
C506 H510 0.931 . S
C507 N504 1.313 . S
C507 N508 1.344 . S
C507 H511 0.930 . S
N508 C505 1.377 . S
N508 C507 1.344 . S
O509 Co501 2.055 . S
O509 C513 1.253 . S
H510 C506 0.931 . S
H511 C507 0.930 . S
O512 Co501 2.039 . S
O512 C502 1.265 . S
C513 O509 1.253 . S
C513 O514 1.227 . S
O514 C513 1.227 . S
N515 Co501 2.140 . S
N515 C518 1.346 . S
N515 C519 1.345 . S
C516 C517 1.387 . S
C516 C520 1.391 . S
C517 C516 1.387 . S
C517 C518 1.369 . S
C517 H526 0.929 . S
C518 N515 1.346 . S
C518 C517 1.369 . S
C518 H521 0.928 . S
C519 N515 1.345 . S
C519 C520 1.371 . S
C519 H522 0.931 . S
C520 C516 1.391 . S
C520 C519 1.371 . S
C520 H527 0.930 . S
H521 C518 0.928 . S
H522 C519 0.931 . S
H523 C499 0.930 . S
H524 C496 0.930 . S
H525 C505 0.930 . S
H526 C517 0.929 . S
H527 C520 0.930 . S
C528 C529 1.349 . S
C528 C530 1.327 . S
C528 H553 0.950 . S
C529 C528 1.349 . S
C529 C545 1.349 . S
C530 C528 1.327 . S
C530 C549 1.429 . S
C530 H554 0.950 . S
C531 C548 1.574 1_655 S
C531 C550 1.368 . S
C531 H555 0.949 . S
H532 C536 0.949 . S
C533 C534 1.349 . S
C533 C535 1.327 . S
C533 H556 0.950 . S
C534 C533 1.349 . S
C534 C546 1.349 . S
C535 C533 1.327 . S
C535 C551 1.429 . S
C535 H557 0.950 . S
C536 H532 0.949 . S
C536 C544 1.574 1_455 S
C536 C552 1.368 . S
H537 C545 0.950 . S
H538 C543 0.950 . S
H539 C544 0.949 . S
H540 C546 0.950 . S
H541 C547 0.950 . S
H542 C548 0.949 . S
C543 H538 0.950 . S
C543 C545 1.327 . S
C543 C549 1.429 . S
C544 C536 1.574 1_655 S
C544 H539 0.949 . S
C544 C550 1.368 . S
C545 C529 1.349 . S
C545 H537 0.950 . S
C545 C543 1.327 . S
C546 C534 1.349 . S
C546 H540 0.950 . S
C546 C547 1.327 . S
C547 H541 0.950 . S
C547 C546 1.327 . S
C547 C551 1.429 . S
C548 C531 1.574 1_455 S
C548 H542 0.949 . S
C548 C552 1.368 . S
C549 C530 1.429 . S
C549 C543 1.429 . S
C549 C550 1.523 . S
C550 C531 1.368 . S
C550 C544 1.368 . S
C550 C549 1.523 . S
C551 C535 1.429 . S
C551 C547 1.429 . S
C551 C552 1.523 . S
C552 C536 1.368 . S
C552 C548 1.368 . S
C552 C551 1.523 . S
H553 C528 0.950 . S
H554 C530 0.950 . S
H555 C531 0.949 . S
H556 C533 0.950 . S
H557 C535 0.950 . S
C558 C559 1.349 . S
C558 C560 1.327 . S
C558 H583 0.950 . S
C559 C558 1.349 . S
C559 C575 1.349 . S
C560 C558 1.327 . S
C560 C579 1.429 . S
C560 H584 0.950 . S
C561 C578 1.574 1_545 S
C561 C580 1.368 . S
C561 H585 0.949 . S
H562 C566 0.949 . S
C563 C564 1.349 . S
C563 C565 1.327 . S
C563 H586 0.950 . S
C564 C563 1.349 . S
C564 C576 1.349 . S
C565 C563 1.327 . S
C565 C581 1.429 . S
C565 H587 0.950 . S
C566 H562 0.949 . S
C566 C574 1.574 1_565 S
C566 C582 1.368 . S
H567 C575 0.950 . S
H568 C573 0.950 . S
H569 C574 0.949 . S
H570 C576 0.950 . S
H571 C577 0.950 . S
H572 C578 0.949 . S
C573 H568 0.950 . S
C573 C575 1.327 . S
C573 C579 1.429 . S
C574 C566 1.574 1_545 S
C574 H569 0.949 . S
C574 C580 1.368 . S
C575 C559 1.349 . S
C575 H567 0.950 . S
C575 C573 1.327 . S
C576 C564 1.349 . S
C576 H570 0.950 . S
C576 C577 1.327 . S
C577 H571 0.950 . S
C577 C576 1.327 . S
C577 C581 1.429 . S
C578 C561 1.574 1_565 S
C578 H572 0.949 . S
C578 C582 1.368 . S
C579 C560 1.429 . S
C579 C573 1.429 . S
C579 C580 1.523 . S
C580 C561 1.368 . S
C580 C574 1.368 . S
C580 C579 1.523 . S
C581 C565 1.429 . S
C581 C577 1.429 . S
C581 C582 1.523 . S
C582 C566 1.368 . S
C582 C578 1.368 . S
C582 C581 1.523 . S
H583 C558 0.950 . S
H584 C560 0.950 . S
H585 C561 0.949 . S
H586 C563 0.950 . S
H587 C565 0.950 . S
C588 C589 1.349 . S
C588 C590 1.327 . S
C588 H613 0.950 . S
C589 C588 1.349 . S
C589 C605 1.349 . S
C590 C588 1.327 . S
C590 C609 1.429 . S
C590 H614 0.950 . S
C591 C608 1.574 1_655 S
C591 C610 1.368 . S
C591 H615 0.949 . S
H592 C596 0.949 . S
C593 C594 1.349 . S
C593 C595 1.327 . S
C593 H616 0.950 . S
C594 C593 1.349 . S
C594 C606 1.349 . S
C595 C593 1.327 . S
C595 C611 1.429 . S
C595 H617 0.950 . S
C596 H592 0.949 . S
C596 C604 1.574 1_455 S
C596 C612 1.368 . S
H597 C605 0.950 . S
H598 C603 0.950 . S
H599 C604 0.949 . S
H600 C606 0.950 . S
H601 C607 0.950 . S
H602 C608 0.949 . S
C603 H598 0.950 . S
C603 C605 1.327 . S
C603 C609 1.429 . S
C604 C596 1.574 1_655 S
C604 H599 0.949 . S
C604 C610 1.368 . S
C605 C589 1.349 . S
C605 H597 0.950 . S
C605 C603 1.327 . S
C606 C594 1.349 . S
C606 H600 0.950 . S
C606 C607 1.327 . S
C607 H601 0.950 . S
C607 C606 1.327 . S
C607 C611 1.429 . S
C608 C591 1.574 1_455 S
C608 H602 0.949 . S
C608 C612 1.368 . S
C609 C590 1.429 . S
C609 C603 1.429 . S
C609 C610 1.523 . S
C610 C591 1.368 . S
C610 C604 1.368 . S
C610 C609 1.523 . S
C611 C595 1.429 . S
C611 C607 1.429 . S
C611 C612 1.523 . S
C612 C596 1.368 . S
C612 C608 1.368 . S
C612 C611 1.523 . S
H613 C588 0.950 . S
H614 C590 0.950 . S
H615 C591 0.949 . S
H616 C593 0.950 . S
H617 C595 0.950 . S
C618 C619 1.349 . S
C618 C620 1.327 . S
C618 H643 0.950 . S
C619 C618 1.349 . S
C619 C635 1.349 . S
C620 C618 1.327 . S
C620 C639 1.429 . S
C620 H644 0.950 . S
C621 C638 1.574 1_565 S
C621 C640 1.368 . S
C621 H645 0.949 . S
H622 C626 0.949 . S
C623 C624 1.349 . S
C623 C625 1.327 . S
C623 H646 0.950 . S
C624 C623 1.349 . S
C624 C636 1.349 . S
C625 C623 1.327 . S
C625 C641 1.429 . S
C625 H647 0.950 . S
C626 H622 0.949 . S
C626 C634 1.574 1_545 S
C626 C642 1.368 . S
H627 C635 0.950 . S
H628 C633 0.950 . S
H629 C634 0.949 . S
H630 C636 0.950 . S
H631 C637 0.950 . S
H632 C638 0.949 . S
C633 H628 0.950 . S
C633 C635 1.327 . S
C633 C639 1.429 . S
C634 C626 1.574 1_565 S
C634 H629 0.949 . S
C634 C640 1.368 . S
C635 C619 1.349 . S
C635 H627 0.950 . S
C635 C633 1.327 . S
C636 C624 1.349 . S
C636 H630 0.950 . S
C636 C637 1.327 . S
C637 H631 0.950 . S
C637 C636 1.327 . S
C637 C641 1.429 . S
C638 C621 1.574 1_545 S
C638 H632 0.949 . S
C638 C642 1.368 . S
C639 C620 1.429 . S
C639 C633 1.429 . S
C639 C640 1.523 . S
C640 C621 1.368 . S
C640 C634 1.368 . S
C640 C639 1.523 . S
C641 C625 1.429 . S
C641 C637 1.429 . S
C641 C642 1.523 . S
C642 C626 1.368 . S
C642 C638 1.368 . S
C642 C641 1.523 . S
H643 C618 0.950 . S
H644 C620 0.950 . S
H645 C621 0.949 . S
H646 C623 0.950 . S
H647 C625 0.950 . S
C648 C649 1.349 . S
C648 C650 1.327 . S
C648 H673 0.950 . S
C649 C648 1.349 . S
C649 C665 1.349 . S
C650 C648 1.327 . S
C650 C669 1.429 . S
C650 H674 0.950 . S
C651 C668 1.574 . S
C651 C670 1.368 . S
C651 H675 0.949 . S
H652 C656 0.949 . S
C653 C654 1.349 . S
C653 C655 1.327 . S
C653 H676 0.950 . S
C654 C653 1.349 . S
C654 C666 1.349 . S
C655 C653 1.327 . S
C655 C671 1.429 . S
C655 H677 0.950 . S
C656 H652 0.949 . S
C656 C664 1.574 . S
C656 C672 1.368 . S
H657 C665 0.950 . S
H658 C663 0.950 . S
H659 C664 0.949 . S
H660 C666 0.950 . S
H661 C667 0.950 . S
H662 C668 0.949 . S
C663 H658 0.950 . S
C663 C665 1.327 . S
C663 C669 1.429 . S
C664 C656 1.574 . S
C664 H659 0.949 . S
C664 C670 1.368 1_455 S
C665 C649 1.349 . S
C665 H657 0.950 . S
C665 C663 1.327 . S
C666 C654 1.349 . S
C666 H660 0.950 . S
C666 C667 1.327 . S
C667 H661 0.950 . S
C667 C666 1.327 . S
C667 C671 1.429 . S
C668 C651 1.574 . S
C668 H662 0.949 . S
C668 C672 1.368 1_655 S
C669 C650 1.429 . S
C669 C663 1.429 . S
C669 C670 1.523 . S
C670 C651 1.368 . S
C670 C664 1.368 1_655 S
C670 C669 1.523 . S
C671 C655 1.429 . S
C671 C667 1.429 . S
C671 C672 1.523 . S
C672 C656 1.368 . S
C672 C668 1.368 1_455 S
C672 C671 1.523 . S
H673 C648 0.950 . S
H674 C650 0.950 . S
H675 C651 0.949 . S
H676 C653 0.950 . S
H677 C655 0.950 . S
C678 C679 1.349 . S
C678 C680 1.327 . S
C678 H703 0.950 . S
C679 C678 1.349 . S
C679 C695 1.349 . S
C680 C678 1.327 . S
C680 C699 1.429 . S
C680 H704 0.950 . S
C681 C698 1.574 . S
C681 C700 1.368 . S
C681 H705 0.949 . S
H682 C686 0.949 . S
C683 C684 1.349 . S
C683 C685 1.327 . S
C683 H706 0.950 . S
C684 C683 1.349 . S
C684 C696 1.349 . S
C685 C683 1.327 . S
C685 C701 1.429 . S
C685 H707 0.950 . S
C686 H682 0.949 . S
C686 C694 1.574 . S
C686 C702 1.368 . S
H687 C695 0.950 . S
H688 C693 0.950 . S
H689 C694 0.949 . S
H690 C696 0.950 . S
H691 C697 0.950 . S
H692 C698 0.949 . S
C693 H688 0.950 . S
C693 C695 1.327 . S
C693 C699 1.429 . S
C694 C686 1.574 . S
C694 H689 0.949 . S
C694 C700 1.368 1_545 S
C695 C679 1.349 . S
C695 H687 0.950 . S
C695 C693 1.327 . S
C696 C684 1.349 . S
C696 H690 0.950 . S
C696 C697 1.327 . S
C697 H691 0.950 . S
C697 C696 1.327 . S
C697 C701 1.429 . S
C698 C681 1.574 . S
C698 H692 0.949 . S
C698 C702 1.368 1_565 S
C699 C680 1.429 . S
C699 C693 1.429 . S
C699 C700 1.523 . S
C700 C681 1.368 . S
C700 C694 1.368 1_565 S
C700 C699 1.523 . S
C701 C685 1.429 . S
C701 C697 1.429 . S
C701 C702 1.523 . S
C702 C686 1.368 . S
C702 C698 1.368 1_545 S
C702 C701 1.523 . S
H703 C678 0.950 . S
H704 C680 0.950 . S
H705 C681 0.949 . S
H706 C683 0.950 . S
H707 C685 0.950 . S
C708 C709 1.349 . S
C708 C710 1.327 . S
C708 H733 0.950 . S
C709 C708 1.349 . S
C709 C725 1.349 . S
C710 C708 1.327 . S
C710 C729 1.429 . S
C710 H734 0.950 . S
C711 C728 1.574 . S
C711 C730 1.368 1_455 S
C711 H735 0.949 . S
H712 C716 0.949 . S
C713 C714 1.349 . S
C713 C715 1.327 . S
C713 H736 0.950 . S
C714 C713 1.349 . S
C714 C726 1.349 . S
C715 C713 1.327 . S
C715 C731 1.429 . S
C715 H737 0.950 . S
C716 H712 0.949 . S
C716 C724 1.574 . S
C716 C732 1.368 1_655 S
H717 C725 0.950 . S
H718 C723 0.950 . S
H719 C724 0.949 . S
H720 C726 0.950 . S
H721 C727 0.950 . S
H722 C728 0.949 . S
C723 H718 0.950 . S
C723 C725 1.327 . S
C723 C729 1.429 . S
C724 C716 1.574 . S
C724 H719 0.949 . S
C724 C730 1.368 . S
C725 C709 1.349 . S
C725 H717 0.950 . S
C725 C723 1.327 . S
C726 C714 1.349 . S
C726 H720 0.950 . S
C726 C727 1.327 . S
C727 H721 0.950 . S
C727 C726 1.327 . S
C727 C731 1.429 . S
C728 C711 1.574 . S
C728 H722 0.949 . S
C728 C732 1.368 . S
C729 C710 1.429 . S
C729 C723 1.429 . S
C729 C730 1.523 . S
C730 C711 1.368 1_655 S
C730 C724 1.368 . S
C730 C729 1.523 . S
C731 C715 1.429 . S
C731 C727 1.429 . S
C731 C732 1.523 . S
C732 C716 1.368 1_455 S
C732 C728 1.368 . S
C732 C731 1.523 . S
H733 C708 0.950 . S
H734 C710 0.950 . S
H735 C711 0.949 . S
H736 C713 0.950 . S
H737 C715 0.950 . S
C738 C739 1.349 . S
C738 C740 1.327 . S
C738 H763 0.950 . S
C739 C738 1.349 . S
C739 C755 1.349 . S
C740 C738 1.327 . S
C740 C759 1.429 . S
C740 H764 0.950 . S
C741 C758 1.574 . S
C741 C760 1.368 . S
C741 H765 0.949 . S
H742 C746 0.949 . S
C743 C744 1.349 . S
C743 C745 1.327 . S
C743 H766 0.950 . S
C744 C743 1.349 . S
C744 C756 1.349 . S
C745 C743 1.327 . S
C745 C761 1.429 . S
C745 H767 0.950 . S
C746 H742 0.949 . S
C746 C754 1.574 . S
C746 C762 1.368 . S
H747 C755 0.950 . S
H748 C753 0.950 . S
H749 C754 0.949 . S
H750 C756 0.950 . S
H751 C757 0.950 . S
H752 C758 0.949 . S
C753 H748 0.950 . S
C753 C755 1.327 . S
C753 C759 1.429 . S
C754 C746 1.574 . S
C754 H749 0.949 . S
C754 C760 1.368 1_565 S
C755 C739 1.349 . S
C755 H747 0.950 . S
C755 C753 1.327 . S
C756 C744 1.349 . S
C756 H750 0.950 . S
C756 C757 1.327 . S
C757 H751 0.950 . S
C757 C756 1.327 . S
C757 C761 1.429 . S
C758 C741 1.574 . S
C758 H752 0.949 . S
C758 C762 1.368 1_545 S
C759 C740 1.429 . S
C759 C753 1.429 . S
C759 C760 1.523 . S
C760 C741 1.368 . S
C760 C754 1.368 1_545 S
C760 C759 1.523 . S
C761 C745 1.429 . S
C761 C757 1.429 . S
C761 C762 1.523 . S
C762 C746 1.368 . S
C762 C758 1.368 1_565 S
C762 C761 1.523 . S
H763 C738 0.950 . S
H764 C740 0.950 . S
H765 C741 0.949 . S
H766 C743 0.950 . S
H767 C745 0.950 . S
C768 C769 1.349 . S
C768 C770 1.327 . S
C768 H793 0.950 . S
C769 C768 1.349 . S
C769 C785 1.349 . S
C770 C768 1.327 . S
C770 C789 1.429 . S
C770 H794 0.950 . S
C771 C788 1.574 . S
C771 C790 1.368 . S
C771 H795 0.949 . S
H772 C776 0.949 . S
C773 C774 1.349 . S
C773 C775 1.327 . S
C773 H796 0.950 . S
C774 C773 1.349 . S
C774 C786 1.349 . S
C775 C773 1.327 . S
C775 C791 1.429 . S
C775 H797 0.950 . S
C776 H772 0.949 . S
C776 C784 1.574 . S
C776 C792 1.368 . S
H777 C785 0.950 . S
H778 C783 0.950 . S
H779 C784 0.949 . S
H780 C786 0.950 . S
H781 C787 0.950 . S
H782 C788 0.949 . S
C783 H778 0.950 . S
C783 C785 1.327 . S
C783 C789 1.429 . S
C784 C776 1.574 . S
C784 H779 0.949 . S
C784 C790 1.368 . S
C785 C769 1.349 . S
C785 H777 0.950 . S
C785 C783 1.327 . S
C786 C774 1.349 . S
C786 H780 0.950 . S
C786 C787 1.327 . S
C787 H781 0.950 . S
C787 C786 1.327 . S
C787 C791 1.429 . S
C788 C771 1.574 . S
C788 H782 0.949 . S
C788 C792 1.368 . S
C789 C770 1.429 . S
C789 C783 1.429 . S
C789 C790 1.523 . S
C790 C771 1.368 . S
C790 C784 1.368 . S
C790 C789 1.523 . S
C791 C775 1.429 . S
C791 C787 1.429 . S
C791 C792 1.523 . S
C792 C776 1.368 . S
C792 C788 1.368 . S
C792 C791 1.523 . S
H793 C768 0.950 . S
H794 C770 0.950 . S
H795 C771 0.949 . S
H796 C773 0.950 . S
H797 C775 0.950 . S
C798 C799 1.349 . S
C798 C800 1.327 . S
C798 H823 0.950 . S
C799 C798 1.349 . S
C799 C815 1.349 . S
C800 C798 1.327 . S
C800 C819 1.429 . S
C800 H824 0.950 . S
C801 C818 1.574 . S
C801 C820 1.368 . S
C801 H825 0.949 . S
H802 C806 0.949 . S
C803 C804 1.349 . S
C803 C805 1.327 . S
C803 H826 0.950 . S
C804 C803 1.349 . S
C804 C816 1.349 . S
C805 C803 1.327 . S
C805 C821 1.429 . S
C805 H827 0.950 . S
C806 H802 0.949 . S
C806 C814 1.574 . S
C806 C822 1.368 . S
H807 C815 0.950 . S
H808 C813 0.950 . S
H809 C814 0.949 . S
H810 C816 0.950 . S
H811 C817 0.950 . S
H812 C818 0.949 . S
C813 H808 0.950 . S
C813 C815 1.327 . S
C813 C819 1.429 . S
C814 C806 1.574 . S
C814 H809 0.949 . S
C814 C820 1.368 . S
C815 C799 1.349 . S
C815 H807 0.950 . S
C815 C813 1.327 . S
C816 C804 1.349 . S
C816 H810 0.950 . S
C816 C817 1.327 . S
C817 H811 0.950 . S
C817 C816 1.327 . S
C817 C821 1.429 . S
C818 C801 1.574 . S
C818 H812 0.949 . S
C818 C822 1.368 . S
C819 C800 1.429 . S
C819 C813 1.429 . S
C819 C820 1.523 . S
C820 C801 1.368 . S
C820 C814 1.368 . S
C820 C819 1.523 . S
C821 C805 1.429 . S
C821 C817 1.429 . S
C821 C822 1.523 . S
C822 C806 1.368 . S
C822 C818 1.368 . S
C822 C821 1.523 . S
H823 C798 0.950 . S
H824 C800 0.950 . S
H825 C801 0.949 . S
H826 C803 0.950 . S
H827 C805 0.950 . S
C828 C829 1.349 . S
C828 C830 1.327 . S
C828 H853 0.950 . S
C829 C828 1.349 . S
C829 C845 1.349 . S
C830 C828 1.327 . S
C830 C849 1.429 . S
C830 H854 0.950 . S
C831 C848 1.574 . S
C831 C850 1.368 . S
C831 H855 0.949 . S
H832 C836 0.949 . S
C833 C834 1.349 . S
C833 C835 1.327 . S
C833 H856 0.950 . S
C834 C833 1.349 . S
C834 C846 1.349 . S
C835 C833 1.327 . S
C835 C851 1.429 . S
C835 H857 0.950 . S
C836 H832 0.949 . S
C836 C844 1.574 . S
C836 C852 1.368 . S
H837 C845 0.950 . S
H838 C843 0.950 . S
H839 C844 0.949 . S
H840 C846 0.950 . S
H841 C847 0.950 . S
H842 C848 0.949 . S
C843 H838 0.950 . S
C843 C845 1.327 . S
C843 C849 1.429 . S
C844 C836 1.574 . S
C844 H839 0.949 . S
C844 C850 1.368 . S
C845 C829 1.349 . S
C845 H837 0.950 . S
C845 C843 1.327 . S
C846 C834 1.349 . S
C846 H840 0.950 . S
C846 C847 1.327 . S
C847 H841 0.950 . S
C847 C846 1.327 . S
C847 C851 1.429 . S
C848 C831 1.574 . S
C848 H842 0.949 . S
C848 C852 1.368 . S
C849 C830 1.429 . S
C849 C843 1.429 . S
C849 C850 1.523 . S
C850 C831 1.368 . S
C850 C844 1.368 . S
C850 C849 1.523 . S
C851 C835 1.429 . S
C851 C847 1.429 . S
C851 C852 1.523 . S
C852 C836 1.368 . S
C852 C848 1.368 . S
C852 C851 1.523 . S
H853 C828 0.950 . S
H854 C830 0.950 . S
H855 C831 0.949 . S
H856 C833 0.950 . S
H857 C835 0.950 . S
C858 C859 1.349 . S
C858 C860 1.327 . S
C858 H883 0.950 . S
C859 C858 1.349 . S
C859 C875 1.349 . S
C860 C858 1.327 . S
C860 C879 1.429 . S
C860 H884 0.950 . S
C861 C878 1.574 . S
C861 C880 1.368 . S
C861 H885 0.949 . S
H862 C866 0.949 . S
C863 C864 1.349 . S
C863 C865 1.327 . S
C863 H886 0.950 . S
C864 C863 1.349 . S
C864 C876 1.349 . S
C865 C863 1.327 . S
C865 C881 1.429 . S
C865 H887 0.950 . S
C866 H862 0.949 . S
C866 C874 1.574 . S
C866 C882 1.368 . S
H867 C875 0.950 . S
H868 C873 0.950 . S
H869 C874 0.949 . S
H870 C876 0.950 . S
H871 C877 0.950 . S
H872 C878 0.949 . S
C873 H868 0.950 . S
C873 C875 1.327 . S
C873 C879 1.429 . S
C874 C866 1.574 . S
C874 H869 0.949 . S
C874 C880 1.368 . S
C875 C859 1.349 . S
C875 H867 0.950 . S
C875 C873 1.327 . S
C876 C864 1.349 . S
C876 H870 0.950 . S
C876 C877 1.327 . S
C877 H871 0.950 . S
C877 C876 1.327 . S
C877 C881 1.429 . S
C878 C861 1.574 . S
C878 H872 0.949 . S
C878 C882 1.368 . S
C879 C860 1.429 . S
C879 C873 1.429 . S
C879 C880 1.523 . S
C880 C861 1.368 . S
C880 C874 1.368 . S
C880 C879 1.523 . S
C881 C865 1.429 . S
C881 C877 1.429 . S
C881 C882 1.523 . S
C882 C866 1.368 . S
C882 C878 1.368 . S
C882 C881 1.523 . S
H883 C858 0.950 . S
H884 C860 0.950 . S
H885 C861 0.949 . S
H886 C863 0.950 . S
H887 C865 0.950 . S
C888 C889 1.349 . S
C888 C890 1.327 . S
C888 H913 0.950 . S
C889 C888 1.349 . S
C889 C905 1.349 . S
C890 C888 1.327 . S
C890 C909 1.429 . S
C890 H914 0.950 . S
C891 C908 1.574 . S
C891 C910 1.368 . S
C891 H915 0.949 . S
H892 C896 0.949 . S
C893 C894 1.349 . S
C893 C895 1.327 . S
C893 H916 0.950 . S
C894 C893 1.349 . S
C894 C906 1.349 . S
C895 C893 1.327 . S
C895 C911 1.429 . S
C895 H917 0.950 . S
C896 H892 0.949 . S
C896 C904 1.574 . S
C896 C912 1.368 . S
H897 C905 0.950 . S
H898 C903 0.950 . S
H899 C904 0.949 . S
H900 C906 0.950 . S
H901 C907 0.950 . S
H902 C908 0.949 . S
C903 H898 0.950 . S
C903 C905 1.327 . S
C903 C909 1.429 . S
C904 C896 1.574 . S
C904 H899 0.949 . S
C904 C910 1.368 . S
C905 C889 1.349 . S
C905 H897 0.950 . S
C905 C903 1.327 . S
C906 C894 1.349 . S
C906 H900 0.950 . S
C906 C907 1.327 . S
C907 H901 0.950 . S
C907 C906 1.327 . S
C907 C911 1.429 . S
C908 C891 1.574 . S
C908 H902 0.949 . S
C908 C912 1.368 . S
C909 C890 1.429 . S
C909 C903 1.429 . S
C909 C910 1.523 . S
C910 C891 1.368 . S
C910 C904 1.368 . S
C910 C909 1.523 . S
C911 C895 1.429 . S
C911 C907 1.429 . S
C911 C912 1.523 . S
C912 C896 1.368 . S
C912 C908 1.368 . S
C912 C911 1.523 . S
H913 C888 0.950 . S
H914 C890 0.950 . S
H915 C891 0.949 . S
H916 C893 0.950 . S
H917 C895 0.950 . S
C918 C919 1.349 . S
C918 C920 1.327 . S
C918 H943 0.950 . S
C919 C918 1.349 . S
C919 C935 1.349 . S
C920 C918 1.327 . S
C920 C939 1.429 . S
C920 H944 0.950 . S
C921 C938 1.574 . S
C921 C940 1.368 . S
C921 H945 0.949 . S
H922 C926 0.949 . S
C923 C924 1.349 . S
C923 C925 1.327 . S
C923 H946 0.950 . S
C924 C923 1.349 . S
C924 C936 1.349 . S
C925 C923 1.327 . S
C925 C941 1.429 . S
C925 H947 0.950 . S
C926 H922 0.949 . S
C926 C934 1.574 . S
C926 C942 1.368 . S
H927 C935 0.950 . S
H928 C933 0.950 . S
H929 C934 0.949 . S
H930 C936 0.950 . S
H931 C937 0.950 . S
H932 C938 0.949 . S
C933 H928 0.950 . S
C933 C935 1.327 . S
C933 C939 1.429 . S
C934 C926 1.574 . S
C934 H929 0.949 . S
C934 C940 1.368 . S
C935 C919 1.349 . S
C935 H927 0.950 . S
C935 C933 1.327 . S
C936 C924 1.349 . S
C936 H930 0.950 . S
C936 C937 1.327 . S
C937 H931 0.950 . S
C937 C936 1.327 . S
C937 C941 1.429 . S
C938 C921 1.574 . S
C938 H932 0.949 . S
C938 C942 1.368 . S
C939 C920 1.429 . S
C939 C933 1.429 . S
C939 C940 1.523 . S
C940 C921 1.368 . S
C940 C934 1.368 . S
C940 C939 1.523 . S
C941 C925 1.429 . S
C941 C937 1.429 . S
C941 C942 1.523 . S
C942 C926 1.368 . S
C942 C938 1.368 . S
C942 C941 1.523 . S
H943 C918 0.950 . S
H944 C920 0.950 . S
H945 C921 0.949 . S
H946 C923 0.950 . S
H947 C925 0.950 . S
C948 C949 1.349 . S
C948 C950 1.327 . S
C948 H973 0.950 . S
C949 C948 1.349 . S
C949 C965 1.349 . S
C950 C948 1.327 . S
C950 C969 1.429 . S
C950 H974 0.950 . S
C951 C968 1.574 . S
C951 C970 1.368 . S
C951 H975 0.949 . S
H952 C956 0.949 . S
C953 C954 1.349 . S
C953 C955 1.327 . S
C953 H976 0.950 . S
C954 C953 1.349 . S
C954 C966 1.349 . S
C955 C953 1.327 . S
C955 C971 1.429 . S
C955 H977 0.950 . S
C956 H952 0.949 . S
C956 C964 1.574 . S
C956 C972 1.368 . S
H957 C965 0.950 . S
H958 C963 0.950 . S
H959 C964 0.949 . S
H960 C966 0.950 . S
H961 C967 0.950 . S
H962 C968 0.949 . S
C963 H958 0.950 . S
C963 C965 1.327 . S
C963 C969 1.429 . S
C964 C956 1.574 . S
C964 H959 0.949 . S
C964 C970 1.368 . S
C965 C949 1.349 . S
C965 H957 0.950 . S
C965 C963 1.327 . S
C966 C954 1.349 . S
C966 H960 0.950 . S
C966 C967 1.327 . S
C967 H961 0.950 . S
C967 C966 1.327 . S
C967 C971 1.429 . S
C968 C951 1.574 . S
C968 H962 0.949 . S
C968 C972 1.368 . S
C969 C950 1.429 . S
C969 C963 1.429 . S
C969 C970 1.523 . S
C970 C951 1.368 . S
C970 C964 1.368 . S
C970 C969 1.523 . S
C971 C955 1.429 . S
C971 C967 1.429 . S
C971 C972 1.523 . S
C972 C956 1.368 . S
C972 C968 1.368 . S
C972 C971 1.523 . S
H973 C948 0.950 . S
H974 C950 0.950 . S
H975 C951 0.949 . S
H976 C953 0.950 . S
H977 C955 0.950 . S
C978 C979 1.349 . S
C978 C980 1.327 . S
C978 H1003 0.950 . S
C979 C978 1.349 . S
C979 C995 1.349 . S
C980 C978 1.327 . S
C980 C999 1.429 . S
C980 H1004 0.950 . S
C981 C998 1.574 . S
C981 C1000 1.368 . S
C981 H1005 0.949 . S
H982 C986 0.949 . S
C983 C984 1.349 . S
C983 C985 1.327 . S
C983 H1006 0.950 . S
C984 C983 1.349 . S
C984 C996 1.349 . S
C985 C983 1.327 . S
C985 C1001 1.429 . S
C985 H1007 0.950 . S
C986 H982 0.949 . S
C986 C994 1.574 . S
C986 C1002 1.368 . S
H987 C995 0.950 . S
H988 C993 0.950 . S
H989 C994 0.949 . S
H990 C996 0.950 . S
H991 C997 0.950 . S
H992 C998 0.949 . S
C993 H988 0.950 . S
C993 C995 1.327 . S
C993 C999 1.429 . S
C994 C986 1.574 . S
C994 H989 0.949 . S
C994 C1000 1.368 . S
C995 C979 1.349 . S
C995 H987 0.950 . S
C995 C993 1.327 . S
C996 C984 1.349 . S
C996 H990 0.950 . S
C996 C997 1.327 . S
C997 H991 0.950 . S
C997 C996 1.327 . S
C997 C1001 1.429 . S
C998 C981 1.574 . S
C998 H992 0.949 . S
C998 C1002 1.368 . S
C999 C980 1.429 . S
C999 C993 1.429 . S
C999 C1000 1.523 . S
C1000 C981 1.368 . S
C1000 C994 1.368 . S
C1000 C999 1.523 . S
C1001 C985 1.429 . S
C1001 C997 1.429 . S
C1001 C1002 1.523 . S
C1002 C986 1.368 . S
C1002 C998 1.368 . S
C1002 C1001 1.523 . S
H1003 C978 0.950 . S
H1004 C980 0.950 . S
H1005 C981 0.949 . S
H1006 C983 0.950 . S
H1007 C985 0.950 . S
C1008 C1009 1.349 . S
C1008 C1010 1.327 . S
C1008 H1033 0.950 . S
C1009 C1008 1.349 . S
C1009 C1025 1.349 . S
C1010 C1008 1.327 . S
C1010 C1029 1.429 . S
C1010 H1034 0.950 . S
C1011 C1028 1.574 1_554 S
C1011 C1030 1.368 . S
C1011 H1035 0.949 . S
H1012 C1016 0.949 . S
C1013 C1014 1.349 . S
C1013 C1015 1.327 . S
C1013 H1036 0.950 . S
C1014 C1013 1.349 . S
C1014 C1026 1.349 . S
C1015 C1013 1.327 . S
C1015 C1031 1.429 . S
C1015 H1037 0.950 . S
C1016 H1012 0.949 . S
C1016 C1024 1.574 1_556 S
C1016 C1032 1.368 . S
H1017 C1025 0.950 . S
H1018 C1023 0.950 . S
H1019 C1024 0.949 . S
H1020 C1026 0.950 . S
H1021 C1027 0.950 . S
H1022 C1028 0.949 . S
C1023 H1018 0.950 . S
C1023 C1025 1.327 . S
C1023 C1029 1.429 . S
C1024 C1016 1.574 1_554 S
C1024 H1019 0.949 . S
C1024 C1030 1.368 . S
C1025 C1009 1.349 . S
C1025 H1017 0.950 . S
C1025 C1023 1.327 . S
C1026 C1014 1.349 . S
C1026 H1020 0.950 . S
C1026 C1027 1.327 . S
C1027 H1021 0.950 . S
C1027 C1026 1.327 . S
C1027 C1031 1.429 . S
C1028 C1011 1.574 1_556 S
C1028 H1022 0.949 . S
C1028 C1032 1.368 . S
C1029 C1010 1.429 . S
C1029 C1023 1.429 . S
C1029 C1030 1.523 . S
C1030 C1011 1.368 . S
C1030 C1024 1.368 . S
C1030 C1029 1.523 . S
C1031 C1015 1.429 . S
C1031 C1027 1.429 . S
C1031 C1032 1.523 . S
C1032 C1016 1.368 . S
C1032 C1028 1.368 . S
C1032 C1031 1.523 . S
H1033 C1008 0.950 . S
H1034 C1010 0.950 . S
H1035 C1011 0.949 . S
H1036 C1013 0.950 . S
H1037 C1015 0.950 . S
C1038 C1039 1.349 . S
C1038 C1040 1.327 . S
C1038 H1063 0.950 . S
C1039 C1038 1.349 . S
C1039 C1055 1.349 . S
C1040 C1038 1.327 . S
C1040 C1059 1.429 . S
C1040 H1064 0.950 . S
C1041 C1058 1.574 1_556 S
C1041 C1060 1.368 . S
C1041 H1065 0.949 . S
H1042 C1046 0.949 . S
C1043 C1044 1.349 . S
C1043 C1045 1.327 . S
C1043 H1066 0.950 . S
C1044 C1043 1.349 . S
C1044 C1056 1.349 . S
C1045 C1043 1.327 . S
C1045 C1061 1.429 . S
C1045 H1067 0.950 . S
C1046 H1042 0.949 . S
C1046 C1054 1.574 1_554 S
C1046 C1062 1.368 . S
H1047 C1055 0.950 . S
H1048 C1053 0.950 . S
H1049 C1054 0.949 . S
H1050 C1056 0.950 . S
H1051 C1057 0.950 . S
H1052 C1058 0.949 . S
C1053 H1048 0.950 . S
C1053 C1055 1.327 . S
C1053 C1059 1.429 . S
C1054 C1046 1.574 1_556 S
C1054 H1049 0.949 . S
C1054 C1060 1.368 . S
C1055 C1039 1.349 . S
C1055 H1047 0.950 . S
C1055 C1053 1.327 . S
C1056 C1044 1.349 . S
C1056 H1050 0.950 . S
C1056 C1057 1.327 . S
C1057 H1051 0.950 . S
C1057 C1056 1.327 . S
C1057 C1061 1.429 . S
C1058 C1041 1.574 1_554 S
C1058 H1052 0.949 . S
C1058 C1062 1.368 . S
C1059 C1040 1.429 . S
C1059 C1053 1.429 . S
C1059 C1060 1.523 . S
C1060 C1041 1.368 . S
C1060 C1054 1.368 . S
C1060 C1059 1.523 . S
C1061 C1045 1.429 . S
C1061 C1057 1.429 . S
C1061 C1062 1.523 . S
C1062 C1046 1.368 . S
C1062 C1058 1.368 . S
C1062 C1061 1.523 . S
H1063 C1038 0.950 . S
H1064 C1040 0.950 . S
H1065 C1041 0.949 . S
H1066 C1043 0.950 . S
H1067 C1045 0.950 . S
C1068 C1069 1.349 . S
C1068 C1070 1.327 . S
C1068 H1093 0.950 . S
C1069 C1068 1.349 . S
C1069 C1085 1.349 . S
C1070 C1068 1.327 . S
C1070 C1089 1.429 . S
C1070 H1094 0.950 . S
C1071 C1088 1.574 1_556 S
C1071 C1090 1.368 . S
C1071 H1095 0.949 . S
H1072 C1076 0.949 . S
C1073 C1074 1.349 . S
C1073 C1075 1.327 . S
C1073 H1096 0.950 . S
C1074 C1073 1.349 . S
C1074 C1086 1.349 . S
C1075 C1073 1.327 . S
C1075 C1091 1.429 . S
C1075 H1097 0.950 . S
C1076 H1072 0.949 . S
C1076 C1084 1.574 1_554 S
C1076 C1092 1.368 . S
H1077 C1085 0.950 . S
H1078 C1083 0.950 . S
H1079 C1084 0.949 . S
H1080 C1086 0.950 . S
H1081 C1087 0.950 . S
H1082 C1088 0.949 . S
C1083 H1078 0.950 . S
C1083 C1085 1.327 . S
C1083 C1089 1.429 . S
C1084 C1076 1.574 1_556 S
C1084 H1079 0.949 . S
C1084 C1090 1.368 . S
C1085 C1069 1.349 . S
C1085 H1077 0.950 . S
C1085 C1083 1.327 . S
C1086 C1074 1.349 . S
C1086 H1080 0.950 . S
C1086 C1087 1.327 . S
C1087 H1081 0.950 . S
C1087 C1086 1.327 . S
C1087 C1091 1.429 . S
C1088 C1071 1.574 1_554 S
C1088 H1082 0.949 . S
C1088 C1092 1.368 . S
C1089 C1070 1.429 . S
C1089 C1083 1.429 . S
C1089 C1090 1.523 . S
C1090 C1071 1.368 . S
C1090 C1084 1.368 . S
C1090 C1089 1.523 . S
C1091 C1075 1.429 . S
C1091 C1087 1.429 . S
C1091 C1092 1.523 . S
C1092 C1076 1.368 . S
C1092 C1088 1.368 . S
C1092 C1091 1.523 . S
H1093 C1068 0.950 . S
H1094 C1070 0.950 . S
H1095 C1071 0.949 . S
H1096 C1073 0.950 . S
H1097 C1075 0.950 . S
C1098 C1099 1.349 . S
C1098 C1100 1.327 . S
C1098 H1123 0.950 . S
C1099 C1098 1.349 . S
C1099 C1115 1.349 . S
C1100 C1098 1.327 . S
C1100 C1119 1.429 . S
C1100 H1124 0.950 . S
C1101 C1118 1.574 1_556 S
C1101 C1120 1.368 . S
C1101 H1125 0.949 . S
H1102 C1106 0.949 . S
C1103 C1104 1.349 . S
C1103 C1105 1.327 . S
C1103 H1126 0.950 . S
C1104 C1103 1.349 . S
C1104 C1116 1.349 . S
C1105 C1103 1.327 . S
C1105 C1121 1.429 . S
C1105 H1127 0.950 . S
C1106 H1102 0.949 . S
C1106 C1114 1.574 1_554 S
C1106 C1122 1.368 . S
H1107 C1115 0.950 . S
H1108 C1113 0.950 . S
H1109 C1114 0.949 . S
H1110 C1116 0.950 . S
H1111 C1117 0.950 . S
H1112 C1118 0.949 . S
C1113 H1108 0.950 . S
C1113 C1115 1.327 . S
C1113 C1119 1.429 . S
C1114 C1106 1.574 1_556 S
C1114 H1109 0.949 . S
C1114 C1120 1.368 . S
C1115 C1099 1.349 . S
C1115 H1107 0.950 . S
C1115 C1113 1.327 . S
C1116 C1104 1.349 . S
C1116 H1110 0.950 . S
C1116 C1117 1.327 . S
C1117 H1111 0.950 . S
C1117 C1116 1.327 . S
C1117 C1121 1.429 . S
C1118 C1101 1.574 1_554 S
C1118 H1112 0.949 . S
C1118 C1122 1.368 . S
C1119 C1100 1.429 . S
C1119 C1113 1.429 . S
C1119 C1120 1.523 . S
C1120 C1101 1.368 . S
C1120 C1114 1.368 . S
C1120 C1119 1.523 . S
C1121 C1105 1.429 . S
C1121 C1117 1.429 . S
C1121 C1122 1.523 . S
C1122 C1106 1.368 . S
C1122 C1118 1.368 . S
C1122 C1121 1.523 . S
H1123 C1098 0.950 . S
H1124 C1100 0.950 . S
H1125 C1101 0.949 . S
H1126 C1103 0.950 . S
H1127 C1105 0.950 . S
C1128 C1129 1.349 . S
C1128 C1130 1.327 . S
C1128 H1153 0.950 . S
C1129 C1128 1.349 . S
C1129 C1145 1.349 . S
C1130 C1128 1.327 . S
C1130 C1149 1.429 . S
C1130 H1154 0.950 . S
C1131 C1148 1.574 . S
C1131 C1150 1.368 . S
C1131 H1155 0.949 . S
H1132 C1136 0.949 . S
C1133 C1134 1.349 . S
C1133 C1135 1.327 . S
C1133 H1156 0.950 . S
C1134 C1133 1.349 . S
C1134 C1146 1.349 . S
C1135 C1133 1.327 . S
C1135 C1151 1.429 . S
C1135 H1157 0.950 . S
C1136 H1132 0.949 . S
C1136 C1144 1.574 . S
C1136 C1152 1.368 . S
H1137 C1145 0.950 . S
H1138 C1143 0.950 . S
H1139 C1144 0.949 . S
H1140 C1146 0.950 . S
H1141 C1147 0.950 . S
H1142 C1148 0.949 . S
C1143 H1138 0.950 . S
C1143 C1145 1.327 . S
C1143 C1149 1.429 . S
C1144 C1136 1.574 . S
C1144 H1139 0.949 . S
C1144 C1150 1.368 . S
C1145 C1129 1.349 . S
C1145 H1137 0.950 . S
C1145 C1143 1.327 . S
C1146 C1134 1.349 . S
C1146 H1140 0.950 . S
C1146 C1147 1.327 . S
C1147 H1141 0.950 . S
C1147 C1146 1.327 . S
C1147 C1151 1.429 . S
C1148 C1131 1.574 . S
C1148 H1142 0.949 . S
C1148 C1152 1.368 . S
C1149 C1130 1.429 . S
C1149 C1143 1.429 . S
C1149 C1150 1.523 . S
C1150 C1131 1.368 . S
C1150 C1144 1.368 . S
C1150 C1149 1.523 . S
C1151 C1135 1.429 . S
C1151 C1147 1.429 . S
C1151 C1152 1.523 . S
C1152 C1136 1.368 . S
C1152 C1148 1.368 . S
C1152 C1151 1.523 . S
H1153 C1128 0.950 . S
H1154 C1130 0.950 . S
H1155 C1131 0.949 . S
H1156 C1133 0.950 . S
H1157 C1135 0.950 . S
C1158 C1159 1.349 . S
C1158 C1160 1.327 . S
C1158 H1183 0.950 . S
C1159 C1158 1.349 . S
C1159 C1175 1.349 . S
C1160 C1158 1.327 . S
C1160 C1179 1.429 . S
C1160 H1184 0.950 . S
C1161 C1178 1.574 . S
C1161 C1180 1.368 . S
C1161 H1185 0.949 . S
H1162 C1166 0.949 . S
C1163 C1164 1.349 . S
C1163 C1165 1.327 . S
C1163 H1186 0.950 . S
C1164 C1163 1.349 . S
C1164 C1176 1.349 . S
C1165 C1163 1.327 . S
C1165 C1181 1.429 . S
C1165 H1187 0.950 . S
C1166 H1162 0.949 . S
C1166 C1174 1.574 . S
C1166 C1182 1.368 . S
H1167 C1175 0.950 . S
H1168 C1173 0.950 . S
H1169 C1174 0.949 . S
H1170 C1176 0.950 . S
H1171 C1177 0.950 . S
H1172 C1178 0.949 . S
C1173 H1168 0.950 . S
C1173 C1175 1.327 . S
C1173 C1179 1.429 . S
C1174 C1166 1.574 . S
C1174 H1169 0.949 . S
C1174 C1180 1.368 . S
C1175 C1159 1.349 . S
C1175 H1167 0.950 . S
C1175 C1173 1.327 . S
C1176 C1164 1.349 . S
C1176 H1170 0.950 . S
C1176 C1177 1.327 . S
C1177 H1171 0.950 . S
C1177 C1176 1.327 . S
C1177 C1181 1.429 . S
C1178 C1161 1.574 . S
C1178 H1172 0.949 . S
C1178 C1182 1.368 . S
C1179 C1160 1.429 . S
C1179 C1173 1.429 . S
C1179 C1180 1.523 . S
C1180 C1161 1.368 . S
C1180 C1174 1.368 . S
C1180 C1179 1.523 . S
C1181 C1165 1.429 . S
C1181 C1177 1.429 . S
C1181 C1182 1.523 . S
C1182 C1166 1.368 . S
C1182 C1178 1.368 . S
C1182 C1181 1.523 . S
H1183 C1158 0.950 . S
H1184 C1160 0.950 . S
H1185 C1161 0.949 . S
H1186 C1163 0.950 . S
H1187 C1165 0.950 . S
C1188 C1189 1.349 . S
C1188 C1190 1.327 . S
C1188 H1213 0.950 . S
C1189 C1188 1.349 . S
C1189 C1205 1.349 . S
C1190 C1188 1.327 . S
C1190 C1209 1.429 . S
C1190 H1214 0.950 . S
C1191 C1208 1.574 . S
C1191 C1210 1.368 . S
C1191 H1215 0.949 . S
H1192 C1196 0.949 . S
C1193 C1194 1.349 . S
C1193 C1195 1.327 . S
C1193 H1216 0.950 . S
C1194 C1193 1.349 . S
C1194 C1206 1.349 . S
C1195 C1193 1.327 . S
C1195 C1211 1.429 . S
C1195 H1217 0.950 . S
C1196 H1192 0.949 . S
C1196 C1204 1.574 . S
C1196 C1212 1.368 . S
H1197 C1205 0.950 . S
H1198 C1203 0.950 . S
H1199 C1204 0.949 . S
H1200 C1206 0.950 . S
H1201 C1207 0.950 . S
H1202 C1208 0.949 . S
C1203 H1198 0.950 . S
C1203 C1205 1.327 . S
C1203 C1209 1.429 . S
C1204 C1196 1.574 . S
C1204 H1199 0.949 . S
C1204 C1210 1.368 . S
C1205 C1189 1.349 . S
C1205 H1197 0.950 . S
C1205 C1203 1.327 . S
C1206 C1194 1.349 . S
C1206 H1200 0.950 . S
C1206 C1207 1.327 . S
C1207 H1201 0.950 . S
C1207 C1206 1.327 . S
C1207 C1211 1.429 . S
C1208 C1191 1.574 . S
C1208 H1202 0.949 . S
C1208 C1212 1.368 . S
C1209 C1190 1.429 . S
C1209 C1203 1.429 . S
C1209 C1210 1.523 . S
C1210 C1191 1.368 . S
C1210 C1204 1.368 . S
C1210 C1209 1.523 . S
C1211 C1195 1.429 . S
C1211 C1207 1.429 . S
C1211 C1212 1.523 . S
C1212 C1196 1.368 . S
C1212 C1208 1.368 . S
C1212 C1211 1.523 . S
H1213 C1188 0.950 . S
H1214 C1190 0.950 . S
H1215 C1191 0.949 . S
H1216 C1193 0.950 . S
H1217 C1195 0.950 . S
C1218 C1219 1.349 . S
C1218 C1220 1.327 . S
C1218 H1243 0.950 . S
C1219 C1218 1.349 . S
C1219 C1235 1.349 . S
C1220 C1218 1.327 . S
C1220 C1239 1.429 . S
C1220 H1244 0.950 . S
C1221 C1238 1.574 . S
C1221 C1240 1.368 . S
C1221 H1245 0.949 . S
H1222 C1226 0.949 . S
C1223 C1224 1.349 . S
C1223 C1225 1.327 . S
C1223 H1246 0.950 . S
C1224 C1223 1.349 . S
C1224 C1236 1.349 . S
C1225 C1223 1.327 . S
C1225 C1241 1.429 . S
C1225 H1247 0.950 . S
C1226 H1222 0.949 . S
C1226 C1234 1.574 . S
C1226 C1242 1.368 . S
H1227 C1235 0.950 . S
H1228 C1233 0.950 . S
H1229 C1234 0.949 . S
H1230 C1236 0.950 . S
H1231 C1237 0.950 . S
H1232 C1238 0.949 . S
C1233 H1228 0.950 . S
C1233 C1235 1.327 . S
C1233 C1239 1.429 . S
C1234 C1226 1.574 . S
C1234 H1229 0.949 . S
C1234 C1240 1.368 . S
C1235 C1219 1.349 . S
C1235 H1227 0.950 . S
C1235 C1233 1.327 . S
C1236 C1224 1.349 . S
C1236 H1230 0.950 . S
C1236 C1237 1.327 . S
C1237 H1231 0.950 . S
C1237 C1236 1.327 . S
C1237 C1241 1.429 . S
C1238 C1221 1.574 . S
C1238 H1232 0.949 . S
C1238 C1242 1.368 . S
C1239 C1220 1.429 . S
C1239 C1233 1.429 . S
C1239 C1240 1.523 . S
C1240 C1221 1.368 . S
C1240 C1234 1.368 . S
C1240 C1239 1.523 . S
C1241 C1225 1.429 . S
C1241 C1237 1.429 . S
C1241 C1242 1.523 . S
C1242 C1226 1.368 . S
C1242 C1238 1.368 . S
C1242 C1241 1.523 . S
H1243 C1218 0.950 . S
H1244 C1220 0.950 . S
H1245 C1221 0.949 . S
H1246 C1223 0.950 . S
H1247 C1225 0.950 . S
C1248 C1249 1.349 . S
C1248 C1250 1.327 . S
C1248 H1273 0.950 . S
C1249 C1248 1.349 . S
C1249 C1265 1.349 . S
C1250 C1248 1.327 . S
C1250 C1269 1.429 . S
C1250 H1274 0.950 . S
C1251 C1268 1.574 . S
C1251 C1270 1.368 . S
C1251 H1275 0.949 . S
H1252 C1256 0.949 . S
C1253 C1254 1.349 . S
C1253 C1255 1.327 . S
C1253 H1276 0.950 . S
C1254 C1253 1.349 . S
C1254 C1266 1.349 . S
C1255 C1253 1.327 . S
C1255 C1271 1.429 . S
C1255 H1277 0.950 . S
C1256 H1252 0.949 . S
C1256 C1264 1.574 . S
C1256 C1272 1.368 . S
H1257 C1265 0.950 . S
H1258 C1263 0.950 . S
H1259 C1264 0.949 . S
H1260 C1266 0.950 . S
H1261 C1267 0.950 . S
H1262 C1268 0.949 . S
C1263 H1258 0.950 . S
C1263 C1265 1.327 . S
C1263 C1269 1.429 . S
C1264 C1256 1.574 . S
C1264 H1259 0.949 . S
C1264 C1270 1.368 . S
C1265 C1249 1.349 . S
C1265 H1257 0.950 . S
C1265 C1263 1.327 . S
C1266 C1254 1.349 . S
C1266 H1260 0.950 . S
C1266 C1267 1.327 . S
C1267 H1261 0.950 . S
C1267 C1266 1.327 . S
C1267 C1271 1.429 . S
C1268 C1251 1.574 . S
C1268 H1262 0.949 . S
C1268 C1272 1.368 . S
C1269 C1250 1.429 . S
C1269 C1263 1.429 . S
C1269 C1270 1.523 . S
C1270 C1251 1.368 . S
C1270 C1264 1.368 . S
C1270 C1269 1.523 . S
C1271 C1255 1.429 . S
C1271 C1267 1.429 . S
C1271 C1272 1.523 . S
C1272 C1256 1.368 . S
C1272 C1268 1.368 . S
C1272 C1271 1.523 . S
H1273 C1248 0.950 . S
H1274 C1250 0.950 . S
H1275 C1251 0.949 . S
H1276 C1253 0.950 . S
H1277 C1255 0.950 . S
C1278 C1279 1.349 . S
C1278 C1280 1.327 . S
C1278 H1303 0.950 . S
C1279 C1278 1.349 . S
C1279 C1295 1.349 . S
C1280 C1278 1.327 . S
C1280 C1299 1.429 . S
C1280 H1304 0.950 . S
C1281 C1298 1.574 . S
C1281 C1300 1.368 . S
C1281 H1305 0.949 . S
H1282 C1286 0.949 . S
C1283 C1284 1.349 . S
C1283 C1285 1.327 . S
C1283 H1306 0.950 . S
C1284 C1283 1.349 . S
C1284 C1296 1.349 . S
C1285 C1283 1.327 . S
C1285 C1301 1.429 . S
C1285 H1307 0.950 . S
C1286 H1282 0.949 . S
C1286 C1294 1.574 . S
C1286 C1302 1.368 . S
H1287 C1295 0.950 . S
H1288 C1293 0.950 . S
H1289 C1294 0.949 . S
H1290 C1296 0.950 . S
H1291 C1297 0.950 . S
H1292 C1298 0.949 . S
C1293 H1288 0.950 . S
C1293 C1295 1.327 . S
C1293 C1299 1.429 . S
C1294 C1286 1.574 . S
C1294 H1289 0.949 . S
C1294 C1300 1.368 . S
C1295 C1279 1.349 . S
C1295 H1287 0.950 . S
C1295 C1293 1.327 . S
C1296 C1284 1.349 . S
C1296 H1290 0.950 . S
C1296 C1297 1.327 . S
C1297 H1291 0.950 . S
C1297 C1296 1.327 . S
C1297 C1301 1.429 . S
C1298 C1281 1.574 . S
C1298 H1292 0.949 . S
C1298 C1302 1.368 . S
C1299 C1280 1.429 . S
C1299 C1293 1.429 . S
C1299 C1300 1.523 . S
C1300 C1281 1.368 . S
C1300 C1294 1.368 . S
C1300 C1299 1.523 . S
C1301 C1285 1.429 . S
C1301 C1297 1.429 . S
C1301 C1302 1.523 . S
C1302 C1286 1.368 . S
C1302 C1298 1.368 . S
C1302 C1301 1.523 . S
H1303 C1278 0.950 . S
H1304 C1280 0.950 . S
H1305 C1281 0.949 . S
H1306 C1283 0.950 . S
H1307 C1285 0.950 . S
C1308 C1309 1.349 . S
C1308 C1310 1.327 . S
C1308 H1333 0.950 . S
C1309 C1308 1.349 . S
C1309 C1325 1.349 . S
C1310 C1308 1.327 . S
C1310 C1329 1.429 . S
C1310 H1334 0.950 . S
C1311 C1328 1.574 . S
C1311 C1330 1.368 . S
C1311 H1335 0.949 . S
H1312 C1316 0.949 . S
C1313 C1314 1.349 . S
C1313 C1315 1.327 . S
C1313 H1336 0.950 . S
C1314 C1313 1.349 . S
C1314 C1326 1.349 . S
C1315 C1313 1.327 . S
C1315 C1331 1.429 . S
C1315 H1337 0.950 . S
C1316 H1312 0.949 . S
C1316 C1324 1.574 . S
C1316 C1332 1.368 . S
H1317 C1325 0.950 . S
H1318 C1323 0.950 . S
H1319 C1324 0.949 . S
H1320 C1326 0.950 . S
H1321 C1327 0.950 . S
H1322 C1328 0.949 . S
C1323 H1318 0.950 . S
C1323 C1325 1.327 . S
C1323 C1329 1.429 . S
C1324 C1316 1.574 . S
C1324 H1319 0.949 . S
C1324 C1330 1.368 . S
C1325 C1309 1.349 . S
C1325 H1317 0.950 . S
C1325 C1323 1.327 . S
C1326 C1314 1.349 . S
C1326 H1320 0.950 . S
C1326 C1327 1.327 . S
C1327 H1321 0.950 . S
C1327 C1326 1.327 . S
C1327 C1331 1.429 . S
C1328 C1311 1.574 . S
C1328 H1322 0.949 . S
C1328 C1332 1.368 . S
C1329 C1310 1.429 . S
C1329 C1323 1.429 . S
C1329 C1330 1.523 . S
C1330 C1311 1.368 . S
C1330 C1324 1.368 . S
C1330 C1329 1.523 . S
C1331 C1315 1.429 . S
C1331 C1327 1.429 . S
C1331 C1332 1.523 . S
C1332 C1316 1.368 . S
C1332 C1328 1.368 . S
C1332 C1331 1.523 . S
H1333 C1308 0.950 . S
H1334 C1310 0.950 . S
H1335 C1311 0.949 . S
H1336 C1313 0.950 . S
H1337 C1315 0.950 . S
C1338 C1339 1.349 . S
C1338 C1340 1.327 . S
C1338 H1363 0.950 . S
C1339 C1338 1.349 . S
C1339 C1355 1.349 . S
C1340 C1338 1.327 . S
C1340 C1359 1.429 . S
C1340 H1364 0.950 . S
C1341 C1358 1.574 . S
C1341 C1360 1.368 . S
C1341 H1365 0.949 . S
H1342 C1346 0.949 . S
C1343 C1344 1.349 . S
C1343 C1345 1.327 . S
C1343 H1366 0.950 . S
C1344 C1343 1.349 . S
C1344 C1356 1.349 . S
C1345 C1343 1.327 . S
C1345 C1361 1.429 . S
C1345 H1367 0.950 . S
C1346 H1342 0.949 . S
C1346 C1354 1.574 . S
C1346 C1362 1.368 . S
H1347 C1355 0.950 . S
H1348 C1353 0.950 . S
H1349 C1354 0.949 . S
H1350 C1356 0.950 . S
H1351 C1357 0.950 . S
H1352 C1358 0.949 . S
C1353 H1348 0.950 . S
C1353 C1355 1.327 . S
C1353 C1359 1.429 . S
C1354 C1346 1.574 . S
C1354 H1349 0.949 . S
C1354 C1360 1.368 . S
C1355 C1339 1.349 . S
C1355 H1347 0.950 . S
C1355 C1353 1.327 . S
C1356 C1344 1.349 . S
C1356 H1350 0.950 . S
C1356 C1357 1.327 . S
C1357 H1351 0.950 . S
C1357 C1356 1.327 . S
C1357 C1361 1.429 . S
C1358 C1341 1.574 . S
C1358 H1352 0.949 . S
C1358 C1362 1.368 . S
C1359 C1340 1.429 . S
C1359 C1353 1.429 . S
C1359 C1360 1.523 . S
C1360 C1341 1.368 . S
C1360 C1354 1.368 . S
C1360 C1359 1.523 . S
C1361 C1345 1.429 . S
C1361 C1357 1.429 . S
C1361 C1362 1.523 . S
C1362 C1346 1.368 . S
C1362 C1358 1.368 . S
C1362 C1361 1.523 . S
H1363 C1338 0.950 . S
H1364 C1340 0.950 . S
H1365 C1341 0.949 . S
H1366 C1343 0.950 . S
H1367 C1345 0.950 . S
C1368 C1369 1.349 . S
C1368 C1370 1.327 . S
C1368 H1393 0.950 . S
C1369 C1368 1.349 . S
C1369 C1385 1.349 . S
C1370 C1368 1.327 . S
C1370 C1389 1.429 . S
C1370 H1394 0.950 . S
C1371 C1388 1.574 . S
C1371 C1390 1.368 . S
C1371 H1395 0.949 . S
H1372 C1376 0.949 . S
C1373 C1374 1.349 . S
C1373 C1375 1.327 . S
C1373 H1396 0.950 . S
C1374 C1373 1.349 . S
C1374 C1386 1.349 . S
C1375 C1373 1.327 . S
C1375 C1391 1.429 . S
C1375 H1397 0.950 . S
C1376 H1372 0.949 . S
C1376 C1384 1.574 . S
C1376 C1392 1.368 . S
H1377 C1385 0.950 . S
H1378 C1383 0.950 . S
H1379 C1384 0.949 . S
H1380 C1386 0.950 . S
H1381 C1387 0.950 . S
H1382 C1388 0.949 . S
C1383 H1378 0.950 . S
C1383 C1385 1.327 . S
C1383 C1389 1.429 . S
C1384 C1376 1.574 . S
C1384 H1379 0.949 . S
C1384 C1390 1.368 . S
C1385 C1369 1.349 . S
C1385 H1377 0.950 . S
C1385 C1383 1.327 . S
C1386 C1374 1.349 . S
C1386 H1380 0.950 . S
C1386 C1387 1.327 . S
C1387 H1381 0.950 . S
C1387 C1386 1.327 . S
C1387 C1391 1.429 . S
C1388 C1371 1.574 . S
C1388 H1382 0.949 . S
C1388 C1392 1.368 . S
C1389 C1370 1.429 . S
C1389 C1383 1.429 . S
C1389 C1390 1.523 . S
C1390 C1371 1.368 . S
C1390 C1384 1.368 . S
C1390 C1389 1.523 . S
C1391 C1375 1.429 . S
C1391 C1387 1.429 . S
C1391 C1392 1.523 . S
C1392 C1376 1.368 . S
C1392 C1388 1.368 . S
C1392 C1391 1.523 . S
H1393 C1368 0.950 . S
H1394 C1370 0.950 . S
H1395 C1371 0.949 . S
H1396 C1373 0.950 . S
H1397 C1375 0.950 . S
C1398 C1399 1.349 . S
C1398 C1400 1.327 . S
C1398 H1423 0.950 . S
C1399 C1398 1.349 . S
C1399 C1415 1.349 . S
C1400 C1398 1.327 . S
C1400 C1419 1.429 . S
C1400 H1424 0.950 . S
C1401 C1418 1.574 . S
C1401 C1420 1.368 . S
C1401 H1425 0.949 . S
H1402 C1406 0.949 . S
C1403 C1404 1.349 . S
C1403 C1405 1.327 . S
C1403 H1426 0.950 . S
C1404 C1403 1.349 . S
C1404 C1416 1.349 . S
C1405 C1403 1.327 . S
C1405 C1421 1.429 . S
C1405 H1427 0.950 . S
C1406 H1402 0.949 . S
C1406 C1414 1.574 . S
C1406 C1422 1.368 . S
H1407 C1415 0.950 . S
H1408 C1413 0.950 . S
H1409 C1414 0.949 . S
H1410 C1416 0.950 . S
H1411 C1417 0.950 . S
H1412 C1418 0.949 . S
C1413 H1408 0.950 . S
C1413 C1415 1.327 . S
C1413 C1419 1.429 . S
C1414 C1406 1.574 . S
C1414 H1409 0.949 . S
C1414 C1420 1.368 . S
C1415 C1399 1.349 . S
C1415 H1407 0.950 . S
C1415 C1413 1.327 . S
C1416 C1404 1.349 . S
C1416 H1410 0.950 . S
C1416 C1417 1.327 . S
C1417 H1411 0.950 . S
C1417 C1416 1.327 . S
C1417 C1421 1.429 . S
C1418 C1401 1.574 . S
C1418 H1412 0.949 . S
C1418 C1422 1.368 . S
C1419 C1400 1.429 . S
C1419 C1413 1.429 . S
C1419 C1420 1.523 . S
C1420 C1401 1.368 . S
C1420 C1414 1.368 . S
C1420 C1419 1.523 . S
C1421 C1405 1.429 . S
C1421 C1417 1.429 . S
C1421 C1422 1.523 . S
C1422 C1406 1.368 . S
C1422 C1418 1.368 . S
C1422 C1421 1.523 . S
H1423 C1398 0.950 . S
H1424 C1400 0.950 . S
H1425 C1401 0.949 . S
H1426 C1403 0.950 . S
H1427 C1405 0.950 . S
C1428 C1429 1.349 . S
C1428 C1430 1.327 . S
C1428 H1453 0.950 . S
C1429 C1428 1.349 . S
C1429 C1445 1.349 . S
C1430 C1428 1.327 . S
C1430 C1449 1.429 . S
C1430 H1454 0.950 . S
C1431 C1448 1.574 . S
C1431 C1450 1.368 . S
C1431 H1455 0.949 . S
H1432 C1436 0.949 . S
C1433 C1434 1.349 . S
C1433 C1435 1.327 . S
C1433 H1456 0.950 . S
C1434 C1433 1.349 . S
C1434 C1446 1.349 . S
C1435 C1433 1.327 . S
C1435 C1451 1.429 . S
C1435 H1457 0.950 . S
C1436 H1432 0.949 . S
C1436 C1444 1.574 . S
C1436 C1452 1.368 . S
H1437 C1445 0.950 . S
H1438 C1443 0.950 . S
H1439 C1444 0.949 . S
H1440 C1446 0.950 . S
H1441 C1447 0.950 . S
H1442 C1448 0.949 . S
C1443 H1438 0.950 . S
C1443 C1445 1.327 . S
C1443 C1449 1.429 . S
C1444 C1436 1.574 . S
C1444 H1439 0.949 . S
C1444 C1450 1.368 . S
C1445 C1429 1.349 . S
C1445 H1437 0.950 . S
C1445 C1443 1.327 . S
C1446 C1434 1.349 . S
C1446 H1440 0.950 . S
C1446 C1447 1.327 . S
C1447 H1441 0.950 . S
C1447 C1446 1.327 . S
C1447 C1451 1.429 . S
C1448 C1431 1.574 . S
C1448 H1442 0.949 . S
C1448 C1452 1.368 . S
C1449 C1430 1.429 . S
C1449 C1443 1.429 . S
C1449 C1450 1.523 . S
C1450 C1431 1.368 . S
C1450 C1444 1.368 . S
C1450 C1449 1.523 . S
C1451 C1435 1.429 . S
C1451 C1447 1.429 . S
C1451 C1452 1.523 . S
C1452 C1436 1.368 . S
C1452 C1448 1.368 . S
C1452 C1451 1.523 . S
H1453 C1428 0.950 . S
H1454 C1430 0.950 . S
H1455 C1431 0.949 . S
H1456 C1433 0.950 . S
H1457 C1435 0.950 . S
C1458 C1459 1.349 . S
C1458 C1460 1.327 . S
C1458 H1483 0.950 . S
C1459 C1458 1.349 . S
C1459 C1475 1.349 . S
C1460 C1458 1.327 . S
C1460 C1479 1.429 . S
C1460 H1484 0.950 . S
C1461 C1478 1.574 . S
C1461 C1480 1.368 . S
C1461 H1485 0.949 . S
H1462 C1466 0.949 . S
C1463 C1464 1.349 . S
C1463 C1465 1.327 . S
C1463 H1486 0.950 . S
C1464 C1463 1.349 . S
C1464 C1476 1.349 . S
C1465 C1463 1.327 . S
C1465 C1481 1.429 . S
C1465 H1487 0.950 . S
C1466 H1462 0.949 . S
C1466 C1474 1.574 . S
C1466 C1482 1.368 . S
H1467 C1475 0.950 . S
H1468 C1473 0.950 . S
H1469 C1474 0.949 . S
H1470 C1476 0.950 . S
H1471 C1477 0.950 . S
H1472 C1478 0.949 . S
C1473 H1468 0.950 . S
C1473 C1475 1.327 . S
C1473 C1479 1.429 . S
C1474 C1466 1.574 . S
C1474 H1469 0.949 . S
C1474 C1480 1.368 . S
C1475 C1459 1.349 . S
C1475 H1467 0.950 . S
C1475 C1473 1.327 . S
C1476 C1464 1.349 . S
C1476 H1470 0.950 . S
C1476 C1477 1.327 . S
C1477 H1471 0.950 . S
C1477 C1476 1.327 . S
C1477 C1481 1.429 . S
C1478 C1461 1.574 . S
C1478 H1472 0.949 . S
C1478 C1482 1.368 . S
C1479 C1460 1.429 . S
C1479 C1473 1.429 . S
C1479 C1480 1.523 . S
C1480 C1461 1.368 . S
C1480 C1474 1.368 . S
C1480 C1479 1.523 . S
C1481 C1465 1.429 . S
C1481 C1477 1.429 . S
C1481 C1482 1.523 . S
C1482 C1466 1.368 . S
C1482 C1478 1.368 . S
C1482 C1481 1.523 . S
H1483 C1458 0.950 . S
H1484 C1460 0.950 . S
H1485 C1461 0.949 . S
H1486 C1463 0.950 . S
H1487 C1465 0.950 . S
C1488 C1489 1.349 . S
C1488 C1490 1.327 . S
C1488 H1513 0.950 . S
C1489 C1488 1.349 . S
C1489 C1505 1.349 . S
C1490 C1488 1.327 . S
C1490 C1509 1.429 . S
C1490 H1514 0.950 . S
C1491 C1508 1.574 1_545 S
C1491 C1510 1.368 . S
C1491 H1515 0.949 . S
H1492 C1496 0.949 . S
C1493 C1494 1.349 . S
C1493 C1495 1.327 . S
C1493 H1516 0.950 . S
C1494 C1493 1.349 . S
C1494 C1506 1.349 . S
C1495 C1493 1.327 . S
C1495 C1511 1.429 . S
C1495 H1517 0.950 . S
C1496 H1492 0.949 . S
C1496 C1504 1.574 1_565 S
C1496 C1512 1.368 . S
H1497 C1505 0.950 . S
H1498 C1503 0.950 . S
H1499 C1504 0.949 . S
H1500 C1506 0.950 . S
H1501 C1507 0.950 . S
H1502 C1508 0.949 . S
C1503 H1498 0.950 . S
C1503 C1505 1.327 . S
C1503 C1509 1.429 . S
C1504 C1496 1.574 1_545 S
C1504 H1499 0.949 . S
C1504 C1510 1.368 . S
C1505 C1489 1.349 . S
C1505 H1497 0.950 . S
C1505 C1503 1.327 . S
C1506 C1494 1.349 . S
C1506 H1500 0.950 . S
C1506 C1507 1.327 . S
C1507 H1501 0.950 . S
C1507 C1506 1.327 . S
C1507 C1511 1.429 . S
C1508 C1491 1.574 1_565 S
C1508 H1502 0.949 . S
C1508 C1512 1.368 . S
C1509 C1490 1.429 . S
C1509 C1503 1.429 . S
C1509 C1510 1.523 . S
C1510 C1491 1.368 . S
C1510 C1504 1.368 . S
C1510 C1509 1.523 . S
C1511 C1495 1.429 . S
C1511 C1507 1.429 . S
C1511 C1512 1.523 . S
C1512 C1496 1.368 . S
C1512 C1508 1.368 . S
C1512 C1511 1.523 . S
H1513 C1488 0.950 . S
H1514 C1490 0.950 . S
H1515 C1491 0.949 . S
H1516 C1493 0.950 . S
H1517 C1495 0.950 . S
C1518 C1519 1.349 . S
C1518 C1520 1.327 . S
C1518 H1543 0.950 . S
C1519 C1518 1.349 . S
C1519 C1535 1.349 . S
C1520 C1518 1.327 . S
C1520 C1539 1.429 . S
C1520 H1544 0.950 . S
C1521 C1538 1.574 1_655 S
C1521 C1540 1.368 . S
C1521 H1545 0.949 . S
H1522 C1526 0.949 . S
C1523 C1524 1.349 . S
C1523 C1525 1.327 . S
C1523 H1546 0.950 . S
C1524 C1523 1.349 . S
C1524 C1536 1.349 . S
C1525 C1523 1.327 . S
C1525 C1541 1.429 . S
C1525 H1547 0.950 . S
C1526 H1522 0.949 . S
C1526 C1534 1.574 1_455 S
C1526 C1542 1.368 . S
H1527 C1535 0.950 . S
H1528 C1533 0.950 . S
H1529 C1534 0.949 . S
H1530 C1536 0.950 . S
H1531 C1537 0.950 . S
H1532 C1538 0.949 . S
C1533 H1528 0.950 . S
C1533 C1535 1.327 . S
C1533 C1539 1.429 . S
C1534 C1526 1.574 1_655 S
C1534 H1529 0.949 . S
C1534 C1540 1.368 . S
C1535 C1519 1.349 . S
C1535 H1527 0.950 . S
C1535 C1533 1.327 . S
C1536 C1524 1.349 . S
C1536 H1530 0.950 . S
C1536 C1537 1.327 . S
C1537 H1531 0.950 . S
C1537 C1536 1.327 . S
C1537 C1541 1.429 . S
C1538 C1521 1.574 1_455 S
C1538 H1532 0.949 . S
C1538 C1542 1.368 . S
C1539 C1520 1.429 . S
C1539 C1533 1.429 . S
C1539 C1540 1.523 . S
C1540 C1521 1.368 . S
C1540 C1534 1.368 . S
C1540 C1539 1.523 . S
C1541 C1525 1.429 . S
C1541 C1537 1.429 . S
C1541 C1542 1.523 . S
C1542 C1526 1.368 . S
C1542 C1538 1.368 . S
C1542 C1541 1.523 . S
H1543 C1518 0.950 . S
H1544 C1520 0.950 . S
H1545 C1521 0.949 . S
H1546 C1523 0.950 . S
H1547 C1525 0.950 . S
C1548 C1549 1.349 . S
C1548 C1550 1.327 . S
C1548 H1573 0.950 . S
C1549 C1548 1.349 . S
C1549 C1565 1.349 . S
C1550 C1548 1.327 . S
C1550 C1569 1.429 . S
C1550 H1574 0.950 . S
C1551 C1568 1.574 . S
C1551 C1570 1.368 . S
C1551 H1575 0.949 . S
H1552 C1556 0.949 . S
C1553 C1554 1.349 . S
C1553 C1555 1.327 . S
C1553 H1576 0.950 . S
C1554 C1553 1.349 . S
C1554 C1566 1.349 . S
C1555 C1553 1.327 . S
C1555 C1571 1.429 . S
C1555 H1577 0.950 . S
C1556 H1552 0.949 . S
C1556 C1564 1.574 . S
C1556 C1572 1.368 . S
H1557 C1565 0.950 . S
H1558 C1563 0.950 . S
H1559 C1564 0.949 . S
H1560 C1566 0.950 . S
H1561 C1567 0.950 . S
H1562 C1568 0.949 . S
C1563 H1558 0.950 . S
C1563 C1565 1.327 . S
C1563 C1569 1.429 . S
C1564 C1556 1.574 . S
C1564 H1559 0.949 . S
C1564 C1570 1.368 1_565 S
C1565 C1549 1.349 . S
C1565 H1557 0.950 . S
C1565 C1563 1.327 . S
C1566 C1554 1.349 . S
C1566 H1560 0.950 . S
C1566 C1567 1.327 . S
C1567 H1561 0.950 . S
C1567 C1566 1.327 . S
C1567 C1571 1.429 . S
C1568 C1551 1.574 . S
C1568 H1562 0.949 . S
C1568 C1572 1.368 1_545 S
C1569 C1550 1.429 . S
C1569 C1563 1.429 . S
C1569 C1570 1.523 . S
C1570 C1551 1.368 . S
C1570 C1564 1.368 1_545 S
C1570 C1569 1.523 . S
C1571 C1555 1.429 . S
C1571 C1567 1.429 . S
C1571 C1572 1.523 . S
C1572 C1556 1.368 . S
C1572 C1568 1.368 1_565 S
C1572 C1571 1.523 . S
H1573 C1548 0.950 . S
H1574 C1550 0.950 . S
H1575 C1551 0.949 . S
H1576 C1553 0.950 . S
H1577 C1555 0.950 . S
C1578 C1579 1.349 . S
C1578 C1580 1.327 . S
C1578 H1603 0.950 . S
C1579 C1578 1.349 . S
C1579 C1595 1.349 . S
C1580 C1578 1.327 . S
C1580 C1599 1.429 . S
C1580 H1604 0.950 . S
C1581 C1598 1.574 1_655 S
C1581 C1600 1.368 . S
C1581 H1605 0.949 . S
H1582 C1586 0.949 . S
C1583 C1584 1.349 . S
C1583 C1585 1.327 . S
C1583 H1606 0.950 . S
C1584 C1583 1.349 . S
C1584 C1596 1.349 . S
C1585 C1583 1.327 . S
C1585 C1601 1.429 . S
C1585 H1607 0.950 . S
C1586 H1582 0.949 . S
C1586 C1594 1.574 1_455 S
C1586 C1602 1.368 . S
H1587 C1595 0.950 . S
H1588 C1593 0.950 . S
H1589 C1594 0.949 . S
H1590 C1596 0.950 . S
H1591 C1597 0.950 . S
H1592 C1598 0.949 . S
C1593 H1588 0.950 . S
C1593 C1595 1.327 . S
C1593 C1599 1.429 . S
C1594 C1586 1.574 1_655 S
C1594 H1589 0.949 . S
C1594 C1600 1.368 . S
C1595 C1579 1.349 . S
C1595 H1587 0.950 . S
C1595 C1593 1.327 . S
C1596 C1584 1.349 . S
C1596 H1590 0.950 . S
C1596 C1597 1.327 . S
C1597 H1591 0.950 . S
C1597 C1596 1.327 . S
C1597 C1601 1.429 . S
C1598 C1581 1.574 1_455 S
C1598 H1592 0.949 . S
C1598 C1602 1.368 . S
C1599 C1580 1.429 . S
C1599 C1593 1.429 . S
C1599 C1600 1.523 . S
C1600 C1581 1.368 . S
C1600 C1594 1.368 . S
C1600 C1599 1.523 . S
C1601 C1585 1.429 . S
C1601 C1597 1.429 . S
C1601 C1602 1.523 . S
C1602 C1586 1.368 . S
C1602 C1598 1.368 . S
C1602 C1601 1.523 . S
H1603 C1578 0.950 . S
H1604 C1580 0.950 . S
H1605 C1581 0.949 . S
H1606 C1583 0.950 . S
H1607 C1585 0.950 . S
C1608 C1609 1.349 . S
C1608 C1610 1.327 . S
C1608 H1633 0.950 . S
C1609 C1608 1.349 . S
C1609 C1625 1.349 . S
C1610 C1608 1.327 . S
C1610 C1629 1.429 . S
C1610 H1634 0.950 . S
C1611 C1628 1.564 1_565 S
C1611 C1630 1.368 . S
C1611 H1635 0.949 . S
H1612 C1616 0.949 . S
C1613 C1614 1.349 . S
C1613 C1615 1.327 . S
C1613 H1636 0.950 . S
C1614 C1613 1.349 . S
C1614 C1626 1.349 . S
C1615 C1613 1.327 . S
C1615 C1631 1.429 . S
C1615 H1637 0.950 . S
C1616 H1612 0.949 . S
C1616 C1624 1.564 1_545 S
C1616 C1632 1.368 . S
H1617 C1625 0.950 . S
H1618 C1623 0.950 . S
H1619 C1624 0.948 . S
H1620 C1626 0.950 . S
H1621 C1627 0.950 . S
H1622 C1628 0.948 . S
C1623 H1618 0.950 . S
C1623 C1625 1.327 . S
C1623 C1629 1.429 . S
C1624 C1616 1.564 1_565 S
C1624 H1619 0.948 . S
C1624 C1630 1.377 . S
C1625 C1609 1.349 . S
C1625 H1617 0.950 . S
C1625 C1623 1.327 . S
C1626 C1614 1.349 . S
C1626 H1620 0.950 . S
C1626 C1627 1.327 . S
C1627 H1621 0.950 . S
C1627 C1626 1.327 . S
C1627 C1631 1.429 . S
C1628 C1611 1.564 1_545 S
C1628 H1622 0.948 . S
C1628 C1632 1.377 . S
C1629 C1610 1.429 . S
C1629 C1623 1.429 . S
C1629 C1630 1.523 . S
C1630 C1611 1.368 . S
C1630 C1624 1.377 . S
C1630 C1629 1.523 . S
C1631 C1615 1.429 . S
C1631 C1627 1.429 . S
C1631 C1632 1.523 . S
C1632 C1616 1.368 . S
C1632 C1628 1.377 . S
C1632 C1631 1.523 . S
H1633 C1608 0.950 . S
H1634 C1610 0.950 . S
H1635 C1611 0.949 . S
H1636 C1613 0.950 . S
H1637 C1615 0.950 . S
C1638 C1639 1.349 . S
C1638 C1640 1.327 . S
C1638 H1663 0.950 . S
C1639 C1638 1.349 . S
C1639 C1655 1.349 . S
C1640 C1638 1.327 . S
C1640 C1659 1.429 . S
C1640 H1664 0.950 . S
C1641 C1658 1.574 1_455 S
C1641 C1660 1.368 . S
C1641 H1665 0.949 . S
H1642 C1646 0.949 . S
C1643 C1644 1.349 . S
C1643 C1645 1.327 . S
C1643 H1666 0.950 . S
C1644 C1643 1.349 . S
C1644 C1656 1.349 . S
C1645 C1643 1.327 . S
C1645 C1661 1.429 . S
C1645 H1667 0.950 . S
C1646 H1642 0.949 . S
C1646 C1654 1.574 1_655 S
C1646 C1662 1.368 . S
H1647 C1655 0.950 . S
H1648 C1653 0.950 . S
H1649 C1654 0.949 . S
H1650 C1656 0.950 . S
H1651 C1657 0.950 . S
H1652 C1658 0.949 . S
C1653 H1648 0.950 . S
C1653 C1655 1.327 . S
C1653 C1659 1.429 . S
C1654 C1646 1.574 1_455 S
C1654 H1649 0.949 . S
C1654 C1660 1.368 . S
C1655 C1639 1.349 . S
C1655 H1647 0.950 . S
C1655 C1653 1.327 . S
C1656 C1644 1.349 . S
C1656 H1650 0.950 . S
C1656 C1657 1.327 . S
C1657 H1651 0.950 . S
C1657 C1656 1.327 . S
C1657 C1661 1.429 . S
C1658 C1641 1.574 1_655 S
C1658 H1652 0.949 . S
C1658 C1662 1.368 . S
C1659 C1640 1.429 . S
C1659 C1653 1.429 . S
C1659 C1660 1.523 . S
C1660 C1641 1.368 . S
C1660 C1654 1.368 . S
C1660 C1659 1.523 . S
C1661 C1645 1.429 . S
C1661 C1657 1.429 . S
C1661 C1662 1.523 . S
C1662 C1646 1.368 . S
C1662 C1658 1.368 . S
C1662 C1661 1.523 . S
H1663 C1638 0.950 . S
H1664 C1640 0.950 . S
H1665 C1641 0.949 . S
H1666 C1643 0.950 . S
H1667 C1645 0.950 . S
C1668 C1669 1.349 . S
C1668 C1670 1.327 . S
C1668 H1693 0.950 . S
C1669 C1668 1.349 . S
C1669 C1685 1.349 . S
C1670 C1668 1.327 . S
C1670 C1689 1.429 . S
C1670 H1694 0.950 . S
C1671 C1688 1.574 1_565 S
C1671 C1690 1.368 . S
C1671 H1695 0.949 . S
H1672 C1676 0.949 . S
C1673 C1674 1.349 . S
C1673 C1675 1.327 . S
C1673 H1696 0.950 . S
C1674 C1673 1.349 . S
C1674 C1686 1.349 . S
C1675 C1673 1.327 . S
C1675 C1691 1.429 . S
C1675 H1697 0.950 . S
C1676 H1672 0.949 . S
C1676 C1684 1.574 1_545 S
C1676 C1692 1.368 . S
H1677 C1685 0.950 . S
H1678 C1683 0.950 . S
H1679 C1684 0.949 . S
H1680 C1686 0.950 . S
H1681 C1687 0.950 . S
H1682 C1688 0.949 . S
C1683 H1678 0.950 . S
C1683 C1685 1.327 . S
C1683 C1689 1.429 . S
C1684 C1676 1.574 1_565 S
C1684 H1679 0.949 . S
C1684 C1690 1.368 . S
C1685 C1669 1.349 . S
C1685 H1677 0.950 . S
C1685 C1683 1.327 . S
C1686 C1674 1.349 . S
C1686 H1680 0.950 . S
C1686 C1687 1.327 . S
C1687 H1681 0.950 . S
C1687 C1686 1.327 . S
C1687 C1691 1.429 . S
C1688 C1671 1.574 1_545 S
C1688 H1682 0.949 . S
C1688 C1692 1.368 . S
C1689 C1670 1.429 . S
C1689 C1683 1.429 . S
C1689 C1690 1.523 . S
C1690 C1671 1.368 . S
C1690 C1684 1.368 . S
C1690 C1689 1.523 . S
C1691 C1675 1.429 . S
C1691 C1687 1.429 . S
C1691 C1692 1.523 . S
C1692 C1676 1.368 . S
C1692 C1688 1.368 . S
C1692 C1691 1.523 . S
H1693 C1668 0.950 . S
H1694 C1670 0.950 . S
H1695 C1671 0.949 . S
H1696 C1673 0.950 . S
H1697 C1675 0.950 . S
C1698 C1699 1.349 . S
C1698 C1700 1.327 . S
C1698 H1723 0.950 . S
C1699 C1698 1.349 . S
C1699 C1715 1.349 . S
C1700 C1698 1.327 . S
C1700 C1719 1.429 . S
C1700 H1724 0.950 . S
C1701 C1718 1.574 1_655 S
C1701 C1720 1.368 . S
C1701 H1725 0.949 . S
H1702 C1706 0.949 . S
C1703 C1704 1.349 . S
C1703 C1705 1.327 . S
C1703 H1726 0.950 . S
C1704 C1703 1.349 . S
C1704 C1716 1.349 . S
C1705 C1703 1.327 . S
C1705 C1721 1.429 . S
C1705 H1727 0.950 . S
C1706 H1702 0.949 . S
C1706 C1714 1.574 1_455 S
C1706 C1722 1.368 . S
H1707 C1715 0.950 . S
H1708 C1713 0.950 . S
H1709 C1714 0.949 . S
H1710 C1716 0.950 . S
H1711 C1717 0.950 . S
H1712 C1718 0.949 . S
C1713 H1708 0.950 . S
C1713 C1715 1.327 . S
C1713 C1719 1.429 . S
C1714 C1706 1.574 1_655 S
C1714 H1709 0.949 . S
C1714 C1720 1.368 . S
C1715 C1699 1.349 . S
C1715 H1707 0.950 . S
C1715 C1713 1.327 . S
C1716 C1704 1.349 . S
C1716 H1710 0.950 . S
C1716 C1717 1.327 . S
C1717 H1711 0.950 . S
C1717 C1716 1.327 . S
C1717 C1721 1.429 . S
C1718 C1701 1.574 1_455 S
C1718 H1712 0.949 . S
C1718 C1722 1.368 . S
C1719 C1700 1.429 . S
C1719 C1713 1.429 . S
C1719 C1720 1.523 . S
C1720 C1701 1.368 . S
C1720 C1714 1.368 . S
C1720 C1719 1.523 . S
C1721 C1705 1.429 . S
C1721 C1717 1.429 . S
C1721 C1722 1.523 . S
C1722 C1706 1.368 . S
C1722 C1718 1.368 . S
C1722 C1721 1.523 . S
H1723 C1698 0.950 . S
H1724 C1700 0.950 . S
H1725 C1701 0.949 . S
H1726 C1703 0.950 . S
H1727 C1705 0.950 . S
C529 N79 0.725 . S
C534 N13 0.725 . S
C559 N46 0.725 . S
C564 N112 0.725 . S
C589 N211 0.725 . S
C594 N145 0.725 . S
C619 N244 0.725 . S
C624 N178 0.725 . S
C649 N277 0.725 . S
C654 N343 0.725 . S
C679 N310 0.725 . S
C684 N376 0.725 . S
C709 N409 0.725 . S
C714 N475 0.725 . S
C739 N508 0.725 . S
C744 N442 0.725 . S
C769 N2 1.797 . S
C774 N167 1.797 . S
C799 N200 1.797 . S
C804 N35 1.797 . S
C829 N233 1.797 . S
C834 N68 1.797 . S
C859 N134 1.797 . S
C864 N101 1.797 . S
C889 N431 1.797 . S
C894 N266 1.797 . S
C919 N464 1.797 . S
C924 N299 1.797 . S
C949 N497 1.797 . S
C954 N332 1.797 . S
C979 N398 1.797 . S
C984 N365 1.797 . S
C1009 C18 1.076 . S
C1014 C348 1.076 . S
C1039 C381 1.076 . S
C1044 C51 1.076 . S
C1069 C282 1.076 . S
C1074 C84 1.076 . S
C1099 C315 1.076 . S
C1104 C117 1.076 . S
C1129 C150 1.076 . S
C1134 C480 1.076 . S
C1159 C183 1.076 . S
C1164 C513 1.076 . S
C1189 C216 1.076 . S
C1194 C414 1.076 . S
C1219 C249 1.076 . S
C1224 C447 1.076 . S
C1249 C139 0.654 . S
C1254 C7 0.654 . S
C1279 C40 0.654 . S
C1284 C172 0.654 . S
C1309 C205 0.654 . S
C1314 C73 0.654 . S
C1339 C238 0.654 . S
C1344 C106 0.654 . S
C1369 C285 0.370 . S
C1374 C417 0.370 . S
C1399 C450 0.370 . S
C1404 C318 0.370 . S
C1429 C351 0.370 . S
C1434 C483 0.370 . S
C1459 C516 0.370 . S
C1464 C384 0.370 . S
C1489 C370 0.654 . S
C1494 C436 0.654 . S
C1519 C271 0.654 . S
C1524 C469 0.654 . S
C1549 C502 0.654 . S
C1554 C304 0.654 . S
C1579 C403 0.654 . S
C1584 C337 0.654 . S
C1609 C120 0.370 . S
C1614 C186 0.370 . S
C1639 C21 0.370 . S
C1644 C219 0.370 . S
C1669 C252 0.370 . S
C1674 C54 0.370 . S
C1699 C87 0.370 . S
C1704 C153 0.370 . S
