# Generated by pormake.
# Topology lhb, (8)-cn, num edge types: 1
# Building blocks:
#     Node 0, Type 0, BuildingBlock: GIZVER_clean_sbu_0, # of connection points: 8
#     Node 1, Type 0, BuildingBlock: GIZVER_clean_sbu_0, # of connection points: 8
#     Node 2, Type 0, BuildingBlock: GIZVER_clean_sbu_0, # of connection points: 8
#     Node 3, Type 0, BuildingBlock: GIZVER_clean_sbu_0, # of connection points: 8
#     Node 4, Type 0, BuildingBlock: GIZVER_clean_sbu_0, # of connection points: 8
#     Node 5, Type 0, BuildingBlock: GIZVER_clean_sbu_0, # of connection points: 8
#     Node 6, Type 0, BuildingBlock: GIZVER_clean_sbu_0, # of connection points: 8
#     Node 7, Type 0, BuildingBlock: GIZVER_clean_sbu_0, # of connection points: 8
#     Edge 8, Type (0, 0), BuildingBlock: XUDNAN_clean_linker_2, # of connection points: 2
#     Edge 9, Type (0, 0), BuildingBlock: XUDNAN_clean_linker_2, # of connection points: 2
#     Edge 10, Type (0, 0), BuildingBlock: XUDNAN_clean_linker_2, # of connection points: 2
#     Edge 11, Type (0, 0), BuildingBlock: XUDNAN_clean_linker_2, # of connection points: 2
#     Edge 12, Type (0, 0), BuildingBlock: XUDNAN_clean_linker_2, # of connection points: 2
#     Edge 13, Type (0, 0), BuildingBlock: XUDNAN_clean_linker_2, # of connection points: 2
#     Edge 14, Type (0, 0), BuildingBlock: XUDNAN_clean_linker_2, # of connection points: 2
#     Edge 15, Type (0, 0), BuildingBlock: XUDNAN_clean_linker_2, # of connection points: 2
#     Edge 16, Type (0, 0), BuildingBlock: XUDNAN_clean_linker_2, # of connection points: 2
#     Edge 17, Type (0, 0), BuildingBlock: XUDNAN_clean_linker_2, # of connection points: 2
#     Edge 18, Type (0, 0), BuildingBlock: XUDNAN_clean_linker_2, # of connection points: 2
#     Edge 19, Type (0, 0), BuildingBlock: XUDNAN_clean_linker_2, # of connection points: 2
#     Edge 20, Type (0, 0), BuildingBlock: XUDNAN_clean_linker_2, # of connection points: 2
#     Edge 21, Type (0, 0), BuildingBlock: XUDNAN_clean_linker_2, # of connection points: 2
#     Edge 22, Type (0, 0), BuildingBlock: XUDNAN_clean_linker_2, # of connection points: 2
#     Edge 23, Type (0, 0), BuildingBlock: XUDNAN_clean_linker_2, # of connection points: 2
#     Edge 24, Type (0, 0), BuildingBlock: XUDNAN_clean_linker_2, # of connection points: 2
#     Edge 25, Type (0, 0), BuildingBlock: XUDNAN_clean_linker_2, # of connection points: 2
#     Edge 26, Type (0, 0), BuildingBlock: XUDNAN_clean_linker_2, # of connection points: 2
#     Edge 27, Type (0, 0), BuildingBlock: XUDNAN_clean_linker_2, # of connection points: 2
#     Edge 28, Type (0, 0), BuildingBlock: XUDNAN_clean_linker_2, # of connection points: 2
#     Edge 29, Type (0, 0), BuildingBlock: XUDNAN_clean_linker_2, # of connection points: 2
#     Edge 30, Type (0, 0), BuildingBlock: XUDNAN_clean_linker_2, # of connection points: 2
#     Edge 31, Type (0, 0), BuildingBlock: XUDNAN_clean_linker_2, # of connection points: 2
#     Edge 32, Type (0, 0), BuildingBlock: XUDNAN_clean_linker_2, # of connection points: 2
#     Edge 33, Type (0, 0), BuildingBlock: XUDNAN_clean_linker_2, # of connection points: 2
#     Edge 34, Type (0, 0), BuildingBlock: XUDNAN_clean_linker_2, # of connection points: 2
#     Edge 35, Type (0, 0), BuildingBlock: XUDNAN_clean_linker_2, # of connection points: 2
#     Edge 36, Type (0, 0), BuildingBlock: XUDNAN_clean_linker_2, # of connection points: 2
#     Edge 37, Type (0, 0), BuildingBlock: XUDNAN_clean_linker_2, # of connection points: 2
#     Edge 38, Type (0, 0), BuildingBlock: XUDNAN_clean_linker_2, # of connection points: 2
#     Edge 39, Type (0, 0), BuildingBlock: XUDNAN_clean_linker_2, # of connection points: 2
# Relax obj value: 0.096
# Max RMSD: 0.178
# Mean RMSD: 0.178
data_MOF--net-lhb--node1-GIZVER_clean_sbu_0--edge1-XUDNAN_clean_linker_2
_symmetry_space_group_name_H-M    P1
_symmetry_Int_Tables_number       1
_symmetry_cell_setting            triclinic
loop_
_symmetry_equiv_pos_as_xyz
'x, y, z'
_cell_length_a     24.872121
_cell_length_b     14.969742
_cell_length_c     74.485772
_cell_angle_alpha  98.179902
_cell_angle_beta   90.010266
_cell_angle_gamma 90.274911
loop_
_atom_site_label
_atom_site_type_symbol
_atom_site_fract_x
_atom_site_fract_y
_atom_site_fract_z
_atom_type_partial_charge
Co0 Co 0.02093 0.05528 1.00406 0.0
Co1 Co 0.92337 0.09897 1.01156 0.0
Co2 Co 0.98203 0.03935 0.04759 0.0
O3 O 0.96747 1.01481 1.02057 0.0
H4 H 0.95511 0.95378 1.01674 0.0
O5 O -0.00306 0.07049 0.07448 0.0
Co6 Co 0.95942 1.0128 0.09251 0.0
Co7 Co 0.05609 1.00297 0.07893 0.0
H8 H 0.00263 0.13414 0.0784 0.0
O9 O 0.88431 0.07143 0.99022 0.0
O10 O 0.9674 0.13275 0.99331 0.0
O11 O 0.91101 0.20982 1.02749 0.0
O12 O 0.96195 0.17106 0.0497 0.0
O13 O 0.90847 1.00143 0.05334 0.0
O14 O 0.92495 0.96304 0.10939 0.0
O15 O 0.96797 0.09673 0.11312 0.0
O16 O 0.94131 0.92089 0.07377 0.0
O17 O 0.0027 0.9073 0.04562 0.0
O18 O 0.07818 0.90418 0.06126 0.0
O19 O 0.02987 0.9581 0.09907 0.0
O20 O 0.10166 0.05022 0.09633 0.0
C21 C 0.05186 1.00642 0.97885 0.0
C22 C 0.06513 0.14295 1.03592 0.0
C23 C 0.93621 0.23003 0.04232 0.0
C24 C 0.92402 0.11304 0.98362 0.0
C25 C 0.93944 0.03548 0.11992 0.0
C26 C 0.9031 0.93928 0.0634 0.0
C27 C 0.0429 0.86436 0.05073 0.0
C28 C 0.07127 1.00585 0.10621 0.0
O29 O 0.06893 0.08093 0.98825 0.0
O30 O 0.01192 0.96279 0.98516 0.0
O31 O 0.05658 0.07132 0.04261 0.0
O32 O 0.04091 0.15614 1.02152 0.0
Co33 Co 0.31013 0.27173 0.34323 0.0
Co34 Co 0.21218 0.22367 0.33246 0.0
Co35 Co 0.27133 0.27542 0.29847 0.0
O36 O 0.26064 0.3104 0.32538 0.0
H37 H 0.24735 0.37109 0.32861 0.0
O38 O 0.28128 0.24068 0.27172 0.0
Co39 Co 0.22946 0.26966 0.25421 0.0
Co40 Co 0.32699 0.31649 0.26202 0.0
H41 H 0.29441 0.17974 0.26877 0.0
O42 O 0.16175 0.26324 0.34863 0.0
O43 O 0.24571 0.21053 0.35374 0.0
O44 O 0.20444 0.10605 0.31867 0.0
O45 O 0.26179 0.14381 0.29836 0.0
O46 O 0.1943 0.2882 0.29473 0.0
O47 O 0.18346 0.28292 0.23627 0.0
O48 O 0.24974 0.18088 0.23665 0.0
O49 O 0.19701 0.36381 0.27128 0.0
O50 O 0.283 0.40744 0.29767 0.0
O51 O 0.35331 0.41283 0.27936 0.0
O52 O 0.28091 0.35861 0.24514 0.0
O53 O 0.36176 0.29211 0.2399 0.0
C54 C 0.33641 0.31048 0.3696 0.0
C55 C 0.36415 0.2042 0.31342 0.0
C56 C 0.23509 0.08491 0.30524 0.0
C57 C 0.19962 0.24783 0.35978 0.0
C58 C 0.20847 0.21123 0.22861 0.0
C59 C 0.17445 0.34574 0.28576 0.0
C60 C 0.32255 0.44977 0.2918 0.0
C61 C 0.32282 0.33994 0.23463 0.0
O62 O 0.35375 0.23811 0.35987 0.0
O63 O 0.30219 0.36185 0.36249 0.0
O64 O 0.34779 0.25885 0.30296 0.0
O65 O 0.33249 0.17594 0.32508 0.0
Co66 Co 0.77672 0.7386 0.34053 0.0
Co67 Co 0.68003 0.72428 0.3261 0.0
Co68 Co 0.76048 0.75782 0.29527 0.0
O69 O 0.73969 0.79229 0.32151 0.0
H70 H 0.7325 0.85583 0.32487 0.0
O71 O 0.78493 0.72711 0.26925 0.0
Co72 Co 0.73821 0.74216 0.24929 0.0
Co73 Co 0.82365 0.81492 0.25992 0.0
H74 H 0.80385 0.67031 0.26734 0.0
O75 O 0.63097 0.77539 0.34203 0.0
O76 O 0.70431 0.69389 0.34784 0.0
O77 O 0.66335 0.61866 0.30964 0.0
O78 O 0.73715 0.62652 0.29306 0.0
O79 O 0.68812 0.79107 0.2876 0.0
O80 O 0.69538 0.74284 0.23007 0.0
O81 O 0.75833 0.6405 0.23463 0.0
O82 O 0.70852 0.84874 0.2626 0.0
O83 O 0.78164 0.88937 0.29772 0.0
O84 O 0.82128 0.93233 0.27354 0.0
O85 O 0.79224 0.81942 0.23756 0.0
O86 O 0.87926 0.79055 0.24443 0.0
C87 C 0.79722 0.76826 0.36773 0.0
C88 C 0.83272 0.65483 0.31282 0.0
C89 C 0.69756 0.58197 0.29836 0.0
C90 C 0.66282 0.74478 0.35355 0.0
C91 C 0.71953 0.66669 0.22482 0.0
C92 C 0.68032 0.84838 0.27686 0.0
C93 C 0.80103 0.95043 0.28919 0.0
C94 C 0.84382 0.81802 0.23359 0.0
O95 O 0.80835 0.6916 0.35821 0.0
O96 O 0.77265 0.83007 0.35995 0.0
O97 O 0.8309 0.72018 0.3035 0.0
O98 O 0.79332 0.63887 0.32303 0.0
Co99 Co 0.02102 0.55196 0.50383 0.0
Co100 Co 0.92366 0.59402 0.51167 0.0
Co101 Co 0.98283 0.53661 0.54751 0.0
O102 O 0.96943 0.51129 0.52041 0.0
H103 H 0.95872 0.4495 0.51651 0.0
O104 O -0.0056 0.56478 0.57442 0.0
Co105 Co 0.95396 0.50483 0.59184 0.0
Co106 Co 0.05331 0.4978 0.57953 0.0
H107 H 0.00063 0.62813 0.57855 0.0
O108 O 0.8836 0.56488 0.49064 0.0
O109 O 0.96615 0.62867 0.49319 0.0
O110 O 0.91103 0.7053 0.52751 0.0
O111 O 0.96337 0.66863 0.54955 0.0
O112 O 0.90885 0.50066 0.5525 0.0
O113 O 0.91934 0.45444 0.60862 0.0
O114 O 0.96264 0.58813 0.61242 0.0
O115 O 0.93341 0.41181 0.5727 0.0
O116 O 0.00334 0.40431 0.54579 0.0
O117 O 0.07858 0.40256 0.56158 0.0
O118 O 0.02307 0.44694 0.59838 0.0
O119 O 0.09505 0.54146 0.59859 0.0
C120 C 0.05091 0.50506 0.47839 0.0
C121 C 0.06781 0.63762 0.53518 0.0
C122 C 0.93679 0.72673 0.54219 0.0
C123 C 0.9223 0.60773 0.48378 0.0
C124 C 0.93509 0.52594 0.61922 0.0
C125 C 0.90179 0.4303 0.56013 0.0
C126 C 0.04352 0.36184 0.55107 0.0
C127 C 0.06288 0.49277 0.607 0.0
O128 O 0.06813 0.57924 0.48788 0.0
O129 O 0.01192 0.45994 0.48485 0.0
O130 O 0.05814 0.57028 0.54327 0.0
O131 O 0.04042 0.65106 0.52141 0.0
Co132 Co 0.30442 0.75296 0.84134 0.0
Co133 Co 0.20495 0.71689 0.83221 0.0
Co134 Co 0.26462 0.76885 0.79749 0.0
O135 O 0.25483 0.79928 0.82445 0.0
H136 H 0.24461 0.86132 0.8282 0.0
O137 O 0.27476 0.73766 0.77062 0.0
Co138 Co 0.22394 0.76958 0.75316 0.0
Co139 Co 0.3228 0.80846 0.76044 0.0
H140 H 0.2852 0.67537 0.76748 0.0
O141 O 0.15678 0.76164 0.84911 0.0
O142 O 0.23928 0.70171 0.85332 0.0
O143 O 0.19518 0.59924 0.81844 0.0
O144 O 0.24505 0.63752 0.79608 0.0
O145 O 0.18926 0.79834 0.79367 0.0
O146 O 0.17769 0.78401 0.73521 0.0
O147 O 0.24057 0.67688 0.73602 0.0
O148 O 0.19689 0.86982 0.76974 0.0
O149 O 0.28461 0.90055 0.79785 0.0
O150 O 0.34892 0.90747 0.77716 0.0
O151 O 0.27778 0.85216 0.74341 0.0
O152 O 0.35651 0.77959 0.73795 0.0
C153 C 0.33562 0.78928 0.86706 0.0
C154 C 0.3469 0.66596 0.80969 0.0
C155 C 0.21977 0.5785 0.80358 0.0
C156 C 0.19508 0.74338 0.85986 0.0
C157 C 0.19992 0.70873 0.72792 0.0
C158 C 0.17656 0.86276 0.78521 0.0
C159 C 0.32059 0.94434 0.79032 0.0
C160 C 0.31897 0.83048 0.7328 0.0
O161 O 0.34818 0.71381 0.85735 0.0
O162 O 0.30389 0.84538 0.86021 0.0
O163 O 0.33926 0.73608 0.8021 0.0
O164 O 0.31831 0.65114 0.82334 0.0
Co165 Co 0.78546 0.2463 0.84085 0.0
Co166 Co 0.68907 0.20388 0.82852 0.0
Co167 Co 0.75676 0.2567 0.79558 0.0
O168 O 0.74045 0.28884 0.82231 0.0
H169 H 0.72815 0.35017 0.82553 0.0
O170 O 0.77315 0.22591 0.76877 0.0
Co171 Co 0.72919 0.27453 0.75112 0.0
Co172 Co 0.82791 0.29844 0.76184 0.0
H173 H 0.7816 0.16294 0.76523 0.0
O174 O 0.63721 0.24605 0.84444 0.0
O175 O 0.71908 0.1897 0.8503 0.0
O176 O 0.68379 0.08561 0.81466 0.0
O177 O 0.73968 0.12447 0.79392 0.0
O178 O 0.68126 0.28351 0.79019 0.0
O179 O 0.68977 0.30976 0.73386 0.0
O180 O 0.74483 0.18976 0.73165 0.0
O181 O 0.70381 0.36528 0.76903 0.0
O182 O 0.77533 0.38862 0.79625 0.0
O183 O 0.85167 0.39118 0.7808 0.0
O184 O 0.78902 0.35562 0.74517 0.0
O185 O 0.86578 0.27817 0.73977 0.0
C186 C 0.80871 0.28244 0.86758 0.0
C187 C 0.84014 0.16817 0.81223 0.0
C188 C 0.7127 0.06501 0.80074 0.0
C189 C 0.67387 0.22997 0.85597 0.0
C190 C 0.70914 0.23761 0.72438 0.0
C191 C 0.66897 0.3402 0.77976 0.0
C192 C 0.81602 0.43115 0.79114 0.0
C193 C 0.83052 0.33352 0.73482 0.0
O194 O 0.82451 0.20857 0.85801 0.0
O195 O 0.77863 0.33835 0.85999 0.0
O196 O 0.83091 0.22645 0.80165 0.0
O197 O 0.80423 0.14801 0.82334 0.0
Co198 Co 0.51461 0.03863 0.50162 0.0
Co199 Co 0.41518 0.0691 0.51149 0.0
Co200 Co 0.48318 1.02385 0.54592 0.0
O201 O 0.46769 0.99399 0.51894 0.0
H202 H 0.45777 0.9315 0.51537 0.0
O203 O 0.49777 0.0535 0.57294 0.0
Co204 Co 0.45275 1.004 0.59113 0.0
Co205 Co 0.55018 0.96762 0.57802 0.0
H206 H 0.50977 0.11489 0.57661 0.0
O207 O 0.37929 0.0582 0.48876 0.0
O208 O 0.4589 0.12459 0.4956 0.0
O209 O 0.39154 0.15943 0.53074 0.0
O210 O 0.46706 0.1562 0.54667 0.0
O211 O 0.40843 0.99799 0.55155 0.0
O212 O 0.41431 0.95874 0.60771 0.0
O213 O 0.46053 0.08915 0.61156 0.0
O214 O 0.43237 0.91275 0.57234 0.0
O215 O 0.49703 0.89154 0.54412 0.0
O216 O 0.55784 0.85272 0.56316 0.0
O217 O 0.51989 0.94534 0.59924 0.0
O218 O 0.60154 1.00647 0.59417 0.0
C219 C 0.53519 0.99977 0.47489 0.0
C220 C 0.57402 0.10354 0.53076 0.0
C221 C 0.42622 0.19835 0.54172 0.0
C222 C 0.41856 0.10854 0.48451 0.0
C223 C 0.43079 0.02935 0.61831 0.0
C224 C 0.39633 0.94251 0.56243 0.0
C225 C 0.52583 0.83223 0.55004 0.0
C226 C 0.5648 0.98628 0.60534 0.0
O227 O 0.5566 0.07011 0.48452 0.0
O228 O 0.49735 0.95499 0.482 0.0
O229 O 0.55987 0.0478 0.54121 0.0
O230 O 0.54086 0.12821 0.51956 0.0
Co231 Co 0.5172 0.531 1.00273 0.0
Co232 Co 0.41944 0.58045 1.01164 0.0
Co233 Co 0.47876 0.51711 0.04661 0.0
O234 O 0.46436 0.49278 1.01966 0.0
H235 H 0.45069 0.43243 1.01587 0.0
O236 O 0.49268 0.54961 0.07357 0.0
Co237 Co 0.453 0.49705 0.09202 0.0
Co238 Co 0.54755 0.47568 0.07794 0.0
H239 H 0.50253 0.61219 0.07721 0.0
O240 O 0.3825 0.56379 0.98954 0.0
O241 O 0.46596 0.61984 0.9946 0.0
O242 O 0.40558 0.68719 1.02872 0.0
O243 O 0.46712 0.64931 0.04783 0.0
O244 O 0.40357 0.49381 0.05228 0.0
O245 O 0.41701 0.45205 0.10926 0.0
O246 O 0.46501 0.58093 0.11249 0.0
O247 O 0.42858 0.40873 0.07311 0.0
O248 O 0.49225 0.38384 0.04532 0.0
O249 O 0.56981 0.3802 0.05963 0.0
O250 O 0.52193 0.43352 0.09841 0.0
O251 O 0.59536 0.52039 0.09406 0.0
C252 C 0.53999 0.48783 0.97637 0.0
C253 C 0.57266 0.59673 1.03373 0.0
C254 C 0.43797 0.70796 0.0418 0.0
C255 C 0.42403 0.60518 0.98404 0.0
C256 C 0.43326 0.52435 0.11941 0.0
C257 C 0.39206 0.4381 0.06324 0.0
C258 C 0.53407 0.34144 0.0492 0.0
C259 C 0.56654 0.47624 0.10449 0.0
O260 O 0.56337 0.5557 0.98618 0.0
O261 O 0.49989 0.44685 0.9832 0.0
O262 O 0.55499 0.53491 0.04201 0.0
O263 O 0.54592 0.62225 1.02084 0.0
H264 H 0.10149 0.16017 0.12694 0.0
H265 H 0.06959 0.87747 0.12954 0.0
H266 H 0.10248 0.89827 0.16146 0.0
H267 H 0.2192 0.1889 0.1528 0.0
H268 H 0.20216 0.29909 0.16441 0.0
H269 H 0.17552 0.26151 0.14213 0.0
H270 H 0.07832 0.28957 0.15416 0.0
H271 H 0.10469 0.32866 0.17644 0.0
H272 H 0.05608 0.23804 0.17332 0.0
H273 H 0.15016 0.9495 0.19198 0.0
H274 H 0.191 0.03048 0.22012 0.0
H275 H 0.18041 0.2826 0.19815 0.0
C276 C 0.10116 0.10259 0.13426 0.0
C277 C 0.08356 1.01691 0.12581 0.0
C278 C 0.08275 0.94359 0.13585 0.0
C279 C 0.10167 0.95485 0.1539 0.0
C280 C 0.11987 0.04027 0.1617 0.0
C281 C 0.11817 0.11331 0.1523 0.0
C282 C 0.1373 0.19909 0.16383 0.0
C283 C 0.18646 0.23947 0.15528 0.0
C284 C 0.09136 0.2679 0.16714 0.0
C285 C 0.15228 0.16276 0.18106 0.0
C286 C 0.14263 0.0708 0.17955 0.0
C287 C 0.15682 1.02165 0.19339 0.0
C288 C 0.1804 0.06795 0.20923 0.0
C289 C 0.18843 0.16255 0.21125 0.0
C290 C 0.17412 0.21034 0.19698 0.0
H291 H 0.84953 0.97194 0.13489 0.0
H292 H 0.00124 0.10565 0.14938 0.0
H293 H -0.00766 0.06803 0.18058 0.0
H294 H 0.78527 0.05116 0.18095 0.0
H295 H 0.74613 0.94877 0.17965 0.0
H296 H 0.76272 0.99476 0.15924 0.0
H297 H 0.8044 0.84166 0.146 0.0
H298 H 0.78937 0.79789 0.16671 0.0
H299 H 0.85743 0.79478 0.1583 0.0
H300 H 0.97391 0.98853 0.2081 0.0
H301 H 0.94002 0.90436 0.23192 0.0
H302 H 0.79363 0.83901 0.20107 0.0
C303 C 0.88003 0.99608 0.14481 0.0
C304 C 0.92699 0.03985 0.13958 0.0
C305 C 0.9657 0.07063 0.15296 0.0
C306 C 0.96075 0.04954 0.17074 0.0
C307 C 0.91536 1.00151 0.17514 0.0
C308 C 0.8745 0.97892 0.16276 0.0
C309 C 0.82974 0.92796 0.17089 0.0
C310 C 0.7779 0.98403 0.1728 0.0
C311 C 0.8198 0.83497 0.15975 0.0
C312 C 0.85341 0.9192 0.18933 0.0
C313 C 0.90286 0.96224 0.1915 0.0
C314 C 0.93466 0.95675 0.20669 0.0
C315 C 0.91521 0.90761 0.22008 0.0
C316 C 0.864 0.86474 0.21844 0.0
C317 C 0.83264 0.87147 0.20284 0.0
H318 H 0.05044 0.335 0.45671 0.0
H319 H 0.10963 0.61032 0.45925 0.0
H320 H 0.15893 0.56825 0.43099 0.0
H321 H 0.169 0.22129 0.43871 0.0
H322 H 0.13682 0.13727 0.42251 0.0
H323 H 0.10209 0.18386 0.44293 0.0
H324 H 0.02262 0.23398 0.42496 0.0
H325 H 0.05452 0.1836 0.40428 0.0
H326 H 0.0346 0.30034 0.40696 0.0
H327 H 0.19381 0.506 0.4017 0.0
H328 H 0.21723 0.42186 0.37232 0.0
H329 H 0.14969 0.17792 0.38816 0.0
C330 C 0.07361 0.38619 0.45122 0.0
C331 C 0.07628 0.47611 0.4604 0.0
C332 C 0.10708 0.541 0.45271 0.0
C333 C 0.13545 0.51783 0.43659 0.0
C334 C 0.13306 0.42911 0.42811 0.0
C335 C 0.1029 0.36391 0.43493 0.0
C336 C 0.10675 0.27428 0.42232 0.0
C337 C 0.1301 0.19982 0.43219 0.0
C338 C 0.05133 0.24642 0.41415 0.0
C339 C 0.14505 0.29959 0.40779 0.0
C340 C 0.15844 0.39002 0.41143 0.0
C341 C 0.18648 0.43401 0.39912 0.0
C342 C 0.20132 0.38474 0.38257 0.0
C343 C 0.1917 0.29077 0.37874 0.0
C344 C 0.16196 0.24784 0.39141 0.0
H345 H 0.76886 0.65515 0.39125 0.0
H346 H 0.86125 0.89748 0.38755 0.0
H347 H 0.904 0.88442 0.41727 0.0
H348 H 0.74898 0.69265 0.44127 0.0
H349 H 0.75478 0.57378 0.44256 0.0
H350 H 0.72804 0.61069 0.42239 0.0
H351 H 0.79974 0.51515 0.4033 0.0
H352 H 0.82782 0.48017 0.42343 0.0
H353 H 0.86997 0.53474 0.40853 0.0
H354 H 0.94537 0.83014 0.44579 0.0
H355 H 0.97071 0.75532 0.47217 0.0
H356 H 0.84862 0.55071 0.45705 0.0
C357 C 0.79663 0.70741 0.39704 0.0
C358 C 0.81104 0.77841 0.38729 0.0
C359 C 0.84857 0.8441 0.39503 0.0
C360 C 0.87352 0.83631 0.41179 0.0
C361 C 0.86006 0.76286 0.42068 0.0
C362 C 0.8214 0.70084 0.41371 0.0
C363 C 0.81525 0.626 0.42532 0.0
C364 C 0.75837 0.62582 0.43337 0.0
C365 C 0.82903 0.53359 0.41449 0.0
C366 C 0.85687 0.65448 0.43989 0.0
C367 C 0.88279 0.73307 0.43696 0.0
C368 C 0.92462 0.76941 0.44828 0.0
C369 C 0.93912 0.72588 0.46317 0.0
C370 C 0.9116 0.64715 0.46679 0.0
C371 C 0.87028 0.61105 0.45479 0.0
H372 H 0.05635 0.64377 0.63131 0.0
H373 H 0.09028 0.35819 0.62672 0.0
H374 H 0.12464 0.3804 0.6584 0.0
H375 H 0.16739 0.72391 0.65453 0.0
H376 H 0.13565 0.81422 0.66931 0.0
H377 H 0.10639 0.77392 0.64757 0.0
H378 H 0.01621 0.74083 0.66278 0.0
H379 H 0.04454 0.78311 0.68464 0.0
H380 H 0.01564 0.67132 0.68064 0.0
H381 H 0.17016 0.44086 0.68841 0.0
H382 H 0.2098 0.52824 0.71595 0.0
H383 H 0.14 0.77327 0.70152 0.0
C384 C 0.06901 0.58536 0.63727 0.0
C385 C 0.07 0.49903 0.6268 0.0
C386 C 0.0882 0.42439 0.63473 0.0
C387 C 0.1081 0.43672 0.65263 0.0
C388 C 0.10838 0.52374 0.66241 0.0
C389 C 0.08775 0.59629 0.65514 0.0
C390 C 0.09457 0.68357 0.66802 0.0
C391 C 0.12799 0.75293 0.65933 0.0
C392 C 0.03947 0.72198 0.67441 0.0
C393 C 0.12492 0.65003 0.68334 0.0
C394 C 0.1325 0.55764 0.67989 0.0
C395 C 0.16332 0.51277 0.69141 0.0
C396 C 0.18617 0.56321 0.70694 0.0
C397 C 0.17781 0.65757 0.71095 0.0
C398 C 0.14656 0.70112 0.69896 0.0
H399 H 0.90004 0.2825 0.70645 0.0
H400 H 0.7858 0.49058 0.72674 0.0
H401 H 0.80794 0.57304 0.70114 0.0
H402 H 7e-05 0.42814 0.68913 0.0
H403 H 0.01434 0.34701 0.66946 0.0
H404 H -0.00764 0.30911 0.69017 0.0
H405 H 0.91372 0.22074 0.67263 0.0
H406 H 0.93608 0.25881 0.65202 0.0
H407 H 0.86802 0.27994 0.65974 0.0
H408 H 0.84382 0.63387 0.67272 0.0
H409 H 0.87866 0.65269 0.64216 0.0
H410 H 0.96478 0.40088 0.64002 0.0
C411 C 0.87979 0.3456 0.70557 0.0
C412 C 0.84136 0.38016 0.71874 0.0
C413 C 0.81531 0.46242 0.71686 0.0
C414 C 0.828 0.51027 0.70242 0.0
C415 C 0.86662 0.47491 0.6898 0.0
C416 C 0.89146 0.39358 0.69112 0.0
C417 C 0.92852 0.36651 0.67512 0.0
C418 C 0.9873 0.36248 0.68136 0.0
C419 C 0.91049 0.27618 0.66423 0.0
C420 C 0.92017 0.44441 0.66446 0.0
C421 C 0.88535 0.5076 0.67329 0.0
C422 C 0.87122 0.58476 0.66575 0.0
C423 C 0.89155 0.59557 0.64848 0.0
C424 C 0.92484 0.52888 0.63889 0.0
C425 C 0.94 0.45359 0.64721 0.0
H426 H 0.13639 0.67842 0.88694 0.0
H427 H 0.22714 0.90929 0.87472 0.0
H428 H 0.20879 0.98952 0.90479 0.0
H429 H 0.03183 0.81881 0.90636 0.0
H430 H 0.0123 0.75119 0.92347 0.0
H431 H 0.04291 0.69865 0.90273 0.0
H432 H 0.11886 0.63141 0.9208 0.0
H433 H 0.08505 0.6798 0.94128 0.0
H434 H 0.15475 0.70504 0.93804 0.0
H435 H 0.17503 0.05269 0.93419 0.0
H436 H 0.12435 0.1004 0.9619 0.0
H437 H 0.04202 0.84081 0.95581 0.0
C438 C 0.15464 0.7439 0.89111 0.0
C439 C 0.18932 0.78299 0.87918 0.0
C440 C 0.20733 0.87271 0.8843 0.0
C441 C 0.19534 0.92039 0.90129 0.0
C442 C 0.16205 0.88005 0.91281 0.0
C443 C 0.14098 0.79447 0.90799 0.0
C444 C 0.09908 0.77446 0.92192 0.0
C445 C 0.04323 0.75992 0.91309 0.0
C446 C 0.11548 0.69284 0.93103 0.0
C447 C 0.10092 0.86173 0.93529 0.0
C448 C 0.13784 0.92087 0.92959 0.0
C449 C 0.14633 1.00681 0.93894 0.0
C450 C 0.11699 0.0333 0.95474 0.0
C451 C 0.07909 0.97453 0.96127 0.0
C452 C 0.07067 0.88738 0.95126 0.0
H453 H 0.7769 0.17032 0.89061 0.0
H454 H 0.87315 0.40941 0.88783 0.0
H455 H 0.91394 0.39351 0.91773 0.0
H456 H 0.75516 0.2025 0.94039 0.0
H457 H 0.75993 0.08295 0.94109 0.0
H458 H 0.73475 0.12296 0.92102 0.0
H459 H 0.80692 0.0279 0.90206 0.0
H460 H 0.83367 0.99048 0.92215 0.0
H461 H 0.87693 0.04625 0.90777 0.0
H462 H 0.95224 0.33711 0.94643 0.0
H463 H 0.97482 0.26013 0.97276 0.0
H464 H 0.85201 0.05857 0.95625 0.0
C465 C 0.80494 0.22151 0.89669 0.0
C466 C 0.82084 0.29263 0.88721 0.0
C467 C 0.85914 0.35635 0.89518 0.0
C468 C 0.883 0.34684 0.91202 0.0
C469 C 0.86803 0.27325 0.92065 0.0
C470 C 0.829 0.21276 0.91334 0.0
C471 C 0.82174 0.13664 0.92456 0.0
C472 C 0.76446 0.13628 0.93223 0.0
C473 C 0.83565 0.04493 0.91347 0.0
C474 C 0.86264 0.16324 0.93943 0.0
C475 C 0.88951 0.2416 0.9369 0.0
C476 C 0.93078 0.2765 0.9486 0.0
C477 C 0.94369 0.23177 0.96346 0.0
C478 C 0.91508 0.15335 0.96667 0.0
C479 C 0.87444 0.11862 0.9543 0.0
H480 H 0.70004 0.06699 0.70411 0.0
H481 H 0.67092 0.35158 0.70251 0.0
H482 H 0.62435 0.31404 0.67333 0.0
H483 H 0.72241 1.00627 0.65499 0.0
H484 H 0.68905 0.89846 0.6539 0.0
H485 H 0.72222 0.94742 0.6745 0.0
H486 H 0.63362 0.93402 0.6921 0.0
H487 H 0.59964 0.8874 0.67149 0.0
H488 H 0.57375 0.98716 0.68515 0.0
H489 H 0.58251 0.25017 0.64481 0.0
H490 H 0.55242 0.16205 0.6163 0.0
H491 H 0.60135 0.91482 0.6355 0.0
C492 C 0.68471 0.12119 0.69739 0.0
C493 C 0.68907 0.21235 0.70561 0.0
C494 C 0.66786 0.28137 0.69655 0.0
C495 C 0.64113 0.26075 0.67998 0.0
C496 C 0.63569 0.17057 0.67255 0.0
C497 C 0.65737 0.10165 0.6807 0.0
C498 C 0.64545 1.01057 0.66944 0.0
C499 C 0.69791 0.96287 0.66281 0.0
C500 C 0.61105 0.95123 0.68019 0.0
C501 C 0.61377 0.03962 0.65376 0.0
C502 C 0.60876 0.13248 0.65604 0.0
C503 C 0.58479 0.17728 0.64306 0.0
C504 C 0.56679 0.12637 0.62702 0.0
C505 C 0.57095 0.03117 0.62419 0.0
C506 C 0.5947 0.98697 0.63779 0.0
H507 H 0.45755 0.90229 0.63885 0.0
H508 H 0.37348 0.15606 0.64122 0.0
H509 H 0.33494 0.13381 0.67112 0.0
H510 H 0.35454 0.78274 0.65615 0.0
H511 H 0.39706 0.71743 0.66889 0.0
H512 H 0.42284 0.75853 0.64901 0.0
H513 H 0.50134 0.84092 0.66763 0.0
H514 H 0.47686 0.79584 0.68728 0.0
H515 H 0.48639 0.91574 0.68821 0.0
H516 H 0.29713 0.07141 0.69938 0.0
H517 H 0.27425 0.98806 0.72482 0.0
H518 H 0.38547 0.77669 0.70376 0.0
C519 C 0.43252 0.95479 0.646 0.0
C520 C 0.41935 0.03193 0.63793 0.0
C521 C 0.38527 0.09787 0.64739 0.0
C522 C 0.36271 0.08496 0.66427 0.0
C523 C 0.37492 1.006 0.67151 0.0
C524 C 0.41008 0.94306 0.66278 0.0
C525 C 0.41544 0.8622 0.67284 0.0
C526 C 0.39633 0.77512 0.66101 0.0
C527 C 0.47349 0.85317 0.67938 0.0
C528 C 0.37763 0.88863 0.68863 0.0
C529 C 0.3541 0.97132 0.68759 0.0
C530 C 0.31602 1.00731 0.70036 0.0
C531 C 0.30288 0.95897 0.71472 0.0
C532 C 0.3281 0.87572 0.7164 0.0
C533 C 0.36562 0.84027 0.70299 0.0
H534 H 0.5401 0.31822 0.95522 0.0
H535 H 0.5851 0.59881 0.9551 0.0
H536 H 0.62787 0.55946 0.92538 0.0
H537 H 0.65956 0.22524 0.93574 0.0
H538 H 0.63072 0.13063 0.92109 0.0
H539 H 0.59707 0.17641 0.94178 0.0
H540 H 0.51056 0.2062 0.92485 0.0
H541 H 0.5413 0.15541 0.90398 0.0
H542 H 0.51393 0.2676 0.90574 0.0
H543 H 0.66315 0.49461 0.89588 0.0
H544 H 0.68913 0.40582 0.86701 0.0
H545 H 0.63191 0.16156 0.8858 0.0
C546 C 0.55814 0.37128 0.94873 0.0
C547 C 0.55922 0.46175 0.95752 0.0
C548 C 0.58391 0.52913 0.94872 0.0
C549 C 0.60842 0.50749 0.9318 0.0
C550 C 0.60831 0.41782 0.92376 0.0
C551 C 0.5835 0.35058 0.93171 0.0
C552 C 0.5906 0.25944 0.91994 0.0
C553 C 0.62135 0.19393 0.93024 0.0
C554 C 0.53584 0.21984 0.91323 0.0
C555 C 0.62385 0.28639 0.90434 0.0
C556 C 0.63284 0.37851 0.90692 0.0
C557 C 0.65812 0.42203 0.89394 0.0
C558 C 0.67393 0.37061 0.8777 0.0
C559 C 0.66682 0.27586 0.87473 0.0
C560 C 0.64105 0.23305 0.88822 0.0
H561 H 0.33668 0.60863 0.96141 0.0
H562 H 0.50276 0.69719 0.96804 0.0
H563 H 0.49515 0.77142 0.94051 0.0
H564 H 0.3367 0.5584 0.91337 0.0
H565 H 0.26922 0.59863 0.91095 0.0
H566 H 0.28852 0.55607 0.93139 0.0
H567 H 0.25685 0.70616 0.94967 0.0
H568 H 0.24121 0.75306 0.92927 0.0
H569 H 0.28725 0.81103 0.9456 0.0
H570 H 0.46953 0.83114 0.91096 0.0
H571 H 0.43066 0.85812 0.8815 0.0
H572 H 0.2822 0.73164 0.89485 0.0
C573 C 0.37159 0.6435 0.95712 0.0
C574 C 0.42046 0.64659 0.96697 0.0
C575 C 0.46493 0.69343 0.96077 0.0
C576 C 0.46086 0.73641 0.94518 0.0
C577 C 0.41185 0.73297 0.93594 0.0
C578 C 0.3681 0.68723 0.94168 0.0
C579 C 0.32044 0.69082 0.92911 0.0
C580 C 0.30272 0.59532 0.9207 0.0
C581 C 0.27365 0.74332 0.93903 0.0
C582 C 0.34455 0.74296 0.91505 0.0
C583 C 0.39702 0.76833 0.91933 0.0
C584 C 0.42813 0.81303 0.90771 0.0
C585 C 0.40558 0.8292 0.8911 0.0
C586 C 0.35241 0.80136 0.8863 0.0
C587 C 0.32161 0.75879 0.8986 0.0
H588 H 0.63181 0.60361 0.12224 0.0
H589 H 0.54804 0.35657 0.12945 0.0
H590 H 0.58411 0.37012 0.161 0.0
H591 H 0.74777 0.54447 0.14598 0.0
H592 H 0.76599 0.65582 0.15616 0.0
H593 H 0.73363 0.63909 0.13426 0.0
H594 H 0.65335 0.74078 0.14364 0.0
H595 H 0.68559 0.77375 0.16516 0.0
H596 H 0.61779 0.73015 0.16433 0.0
H597 H 0.62616 0.42196 0.19314 0.0
H598 H 0.66985 0.50172 0.22099 0.0
H599 H 0.72658 0.70959 0.19073 0.0
C600 C 0.62056 0.55196 0.13036 0.0
C601 C 0.58592 0.48001 0.12348 0.0
C602 C 0.57365 0.41324 0.13454 0.0
C603 C 0.59412 0.42039 0.15243 0.0
C604 C 0.62755 0.49369 0.15882 0.0
C605 C 0.64098 0.5574 0.14788 0.0
C606 C 0.67965 0.6273 0.15712 0.0
C607 C 0.73494 0.61628 0.14782 0.0
C608 C 0.65776 0.72364 0.15759 0.0
C609 C 0.68184 0.59938 0.17578 0.0
C610 C 0.6531 0.52041 0.17647 0.0
C611 C 0.64916 0.48305 0.19258 0.0
C612 C 0.67421 0.5285 0.2083 0.0
C613 C 0.70188 0.61107 0.20784 0.0
C614 C 0.70612 0.64605 0.19134 0.0
H615 H 0.41332 0.34069 0.21341 0.0
H616 H 0.24856 0.43535 0.21745 0.0
H617 H 0.26245 0.51052 0.19021 0.0
H618 H 0.472 0.53969 0.1987 0.0
H619 H 0.51869 0.47726 0.18331 0.0
H620 H 0.49681 0.43223 0.20328 0.0
H621 H 0.464 0.28569 0.18376 0.0
H622 H 0.48641 0.328 0.1636 0.0
H623 H 0.41763 0.29226 0.16539 0.0
H624 H 0.29439 0.5701 0.16119 0.0
H625 H 0.33854 0.5964 0.13254 0.0
H626 H 0.48191 0.46661 0.14838 0.0
C627 C 0.37998 0.37719 0.20863 0.0
C628 C 0.32973 0.38198 0.2177 0.0
C629 C 0.28745 0.4307 0.21085 0.0
C630 C 0.2951 0.47406 0.19541 0.0
C631 C 0.34546 0.46907 0.18699 0.0
C632 C 0.38706 0.42134 0.19337 0.0
C633 C 0.43669 0.4228 0.18156 0.0
C634 C 0.48383 0.47083 0.19236 0.0
C635 C 0.45207 0.32651 0.17308 0.0
C636 C 0.41649 0.47765 0.16734 0.0
C637 C 0.36394 0.50459 0.17074 0.0
C638 C 0.33588 0.55076 0.15867 0.0
C639 C 0.3615 0.56661 0.14251 0.0
C640 C 0.41479 0.5372 0.13855 0.0
C641 C 0.44253 0.49378 0.15137 0.0
H642 H 0.53437 0.83055 0.45359 0.0
H643 H 0.58239 0.11011 0.4538 0.0
H644 H 0.62502 0.07026 0.4241 0.0
H645 H 0.65516 0.73429 0.43293 0.0
H646 H 0.62323 0.64095 0.41886 0.0
H647 H 0.59287 0.68844 0.44004 0.0
H648 H 0.50459 0.71906 0.42377 0.0
H649 H 0.53344 0.6688 0.40255 0.0
H650 H 0.50669 0.78154 0.40479 0.0
H651 H 0.66035 1.00535 0.39468 0.0
H652 H 0.68423 0.91747 0.36546 0.0
H653 H 0.62123 0.67453 0.38337 0.0
C654 C 0.55317 0.88331 0.4472 0.0
C655 C 0.55482 0.97369 0.45606 0.0
C656 C 0.58052 0.04056 0.44737 0.0
C657 C 0.60511 1.01858 0.43048 0.0
C658 C 0.6042 0.92906 0.42235 0.0
C659 C 0.57867 0.86224 0.43021 0.0
C660 C 0.58439 0.77132 0.41824 0.0
C661 C 0.61578 0.70473 0.42811 0.0
C662 C 0.52898 0.73293 0.41196 0.0
C663 C 0.61672 0.79821 0.40245 0.0
C664 C 0.62752 0.88981 0.40531 0.0
C665 C 0.6534 0.93321 0.39243 0.0
C666 C 0.66759 0.88238 0.37596 0.0
C667 C 0.65762 0.78836 0.37255 0.0
C668 C 0.63192 0.74538 0.38601 0.0
H669 H 0.32871 0.13669 0.46424 0.0
H670 H 0.50012 0.19052 0.46815 0.0
H671 H 0.49524 0.26914 0.44124 0.0
H672 H 0.31499 0.09523 0.41715 0.0
H673 H 0.25258 0.15532 0.41629 0.0
H674 H 0.26991 0.10742 0.4363 0.0
H675 H 0.25725 0.26435 0.45515 0.0
H676 H 0.24387 0.31662 0.43519 0.0
H677 H 0.29754 0.35831 0.45028 0.0
H678 H 0.47276 0.33044 0.41207 0.0
H679 H 0.43514 0.36128 0.38281 0.0
H680 H 0.27842 0.2755 0.39887 0.0
C681 C 0.36525 0.1649 0.45943 0.0
C682 C 0.41509 0.15563 0.46818 0.0
C683 C 0.46165 0.19526 0.46159 0.0
C684 C 0.45918 0.24096 0.44637 0.0
C685 C 0.40948 0.24907 0.4381 0.0
C686 C 0.36325 0.21271 0.44449 0.0
C687 C 0.31498 0.23036 0.43304 0.0
C688 C 0.28648 0.14181 0.42522 0.0
C689 C 0.27606 0.29617 0.44408 0.0
C690 C 0.34193 0.27527 0.41835 0.0
C691 C 0.39621 0.2881 0.42181 0.0
C692 C 0.43005 0.32275 0.40949 0.0
C693 C 0.40825 0.34114 0.39297 0.0
C694 C 0.35315 0.32533 0.38887 0.0
C695 C 0.31963 0.2939 0.40198 0.0
H696 H 0.97169 0.74908 1.03036 0.0
H697 H 0.10518 0.75377 0.06819 0.0
H698 H 0.08596 0.59648 0.07186 0.0
H699 H 0.883 0.61442 0.0521 0.0
H700 H 0.85723 0.55081 1.03154 0.0
H701 H 0.88234 0.6638 1.03139 0.0
H702 H 0.94913 0.60342 1.00556 0.0
H703 H 0.92344 0.49087 1.00579 0.0
H704 H -0.00564 0.51332 1.00883 0.0
H705 H 0.04674 0.44641 0.07438 0.0
H706 H 0.0038 0.29716 0.06997 0.0
H707 H 0.90047 0.38128 1.02841 0.0
C708 C -0.00215 0.7163 1.03902 0.0
C709 C 0.0398 0.76452 0.04904 0.0
C710 C 0.07287 0.71887 0.0603 0.0
C711 C 0.062 0.62951 0.06264 0.0
C712 C 0.01879 0.58567 0.05331 0.0
C713 C 0.98832 0.62611 0.04124 0.0
C714 C 0.94504 0.56217 1.03259 0.0
C715 C 0.88856 0.60015 1.03717 0.0
C716 C 0.95352 0.54118 1.01197 0.0
C717 C 0.95574 0.48011 0.04188 0.0
C718 C -0.00223 0.49622 0.05404 0.0
C719 C 0.0143 0.43234 0.06469 0.0
C720 C 0.98919 0.34771 0.06215 0.0
C721 C 0.94912 0.32635 0.04862 0.0
C722 C 0.93092 0.39497 1.03884 0.0
H723 H 0.24991 0.56024 0.31146 0.0
H724 H 0.39963 0.56168 0.28131 0.0
H725 H 0.39115 0.72504 0.28141 0.0
H726 H 0.18067 0.70679 0.28896 0.0
H727 H 0.14645 0.76692 0.3083 0.0
H728 H 0.16681 0.65186 0.30849 0.0
H729 H 0.22141 0.69773 0.33805 0.0
H730 H 0.1996 0.81255 0.33837 0.0
H731 H 0.27033 0.78759 0.33908 0.0
H732 H 0.35876 0.87631 0.27941 0.0
H733 H 0.31766 0.02538 0.2829 0.0
H734 H 0.19078 0.93178 0.31606 0.0
C735 C 0.28184 0.59531 0.30541 0.0
C736 C 0.32496 0.54826 0.29612 0.0
C737 C 0.36591 0.59638 0.28832 0.0
C738 C 0.3614 0.68901 0.28823 0.0
C739 C 0.31633 0.73204 0.29629 0.0
C740 C 0.27819 0.68798 0.3053 0.0
C741 C 0.23292 0.75049 0.31237 0.0
C742 C 0.17853 0.71698 0.30403 0.0
C743 C 0.23098 0.76285 0.33321 0.0
C744 C 0.25113 0.83584 0.30545 0.0
C745 C 0.2989 0.82266 0.296 0.0
C746 C 0.32228 0.88875 0.28726 0.0
C747 C 0.29799 0.97296 0.28916 0.0
C748 C 0.25127 0.9907 0.30002 0.0
C749 C 0.22666 0.92039 0.30783 0.0
H750 H 0.84387 0.10531 0.27866 0.0
H751 H 0.72314 1.00944 0.31366 0.0
H752 H 0.68045 0.15817 0.31756 0.0
H753 H 0.85202 0.33835 0.30533 0.0
H754 H 0.86324 0.38923 0.28513 0.0
H755 H 0.88684 0.27665 0.28629 0.0
H756 H 0.83388 0.22026 0.25681 0.0
H757 H 0.80847 0.33205 0.25599 0.0
H758 H 0.76238 0.23881 0.2561 0.0
H759 H 0.64227 0.30652 0.3137 0.0
H760 H 0.62595 0.4653 0.31062 0.0
H761 H 0.77515 0.47253 0.28039 0.0
C762 C 0.80952 0.11654 0.28762 0.0
C763 C 0.78671 0.04522 0.29571 0.0
C764 C 0.74174 0.06272 0.30737 0.0
C765 C 0.71666 0.14687 0.30952 0.0
C766 C 0.73794 0.2136 0.30037 0.0
C767 C 0.78473 0.20119 0.29035 0.0
C768 C 0.79977 0.28591 0.28244 0.0
C769 C 0.85364 0.32483 0.29027 0.0
C770 C 0.80119 0.26813 0.26159 0.0
C771 C 0.75316 0.34646 0.28917 0.0
C772 C 0.71756 0.30247 0.29917 0.0
C773 C 0.67049 0.34272 0.3063 0.0
C774 C 0.66134 0.43281 0.30428 0.0
C775 C 0.69962 0.48218 0.29548 0.0
C776 C 0.74507 0.43701 0.28721 0.0
H777 H 0.90609 0.87538 0.52648 0.0
H778 H -0.00374 0.79752 0.57176 0.0
H779 H 0.03727 0.94847 0.57721 0.0
H780 H 0.00594 1.00387 0.50965 0.0
H781 H 0.96301 0.09276 0.50413 0.0
H782 H 0.93611 0.98092 0.50425 0.0
H783 H 0.86271 0.04244 0.52773 0.0
H784 H 0.88824 0.15418 0.52651 0.0
H785 H 0.88316 0.11426 0.54815 0.0
H786 H 0.07851 0.09813 0.57505 0.0
H787 H 0.09939 0.25472 0.57121 0.0
H788 H 0.97772 0.24339 0.52903 0.0
C789 C 0.93308 0.89079 0.53792 0.0
C790 C 0.94818 0.82362 0.54856 0.0
C791 C 0.98392 0.84714 0.56335 0.0
C792 C 0.00794 0.9327 0.56648 0.0
C793 C -0.00499 0.99494 0.55498 0.0
C794 C 0.95692 0.97664 0.54146 0.0
C795 C 0.94994 0.05681 0.53128 0.0
C796 C 0.96463 0.03205 0.51113 0.0
C797 C 0.89254 0.09406 0.53355 0.0
C798 C 0.99049 0.1224 0.5411 0.0
C799 C 0.01681 0.0842 0.55443 0.0
C800 C 0.05743 0.1296 0.56491 0.0
C801 C 0.06939 0.21848 0.56244 0.0
C802 C 0.04004 0.26211 0.54986 0.0
C803 C 0.00099 0.21219 0.53872 0.0
H804 H 0.25206 0.05585 0.81228 0.0
H805 H 0.38615 0.0588 0.77487 0.0
H806 H 0.36917 0.21842 0.77299 0.0
H807 H 0.16575 0.19177 0.7921 0.0
H808 H 0.13974 0.25545 0.8126 0.0
H809 H 0.16419 0.14261 0.81282 0.0
H810 H 0.23142 0.19856 0.83853 0.0
H811 H 0.20579 0.31124 0.83901 0.0
H812 H 0.27674 0.29024 0.83593 0.0
H813 H 0.3294 0.36635 0.77088 0.0
H814 H 0.28626 0.51424 0.7757 0.0
H815 H 0.18363 0.42556 0.81711 0.0
C816 C 0.27898 0.09071 0.80416 0.0
C817 C 0.31997 0.04407 0.79352 0.0
C818 C 0.35416 0.09243 0.78303 0.0
C819 C 0.34462 0.18309 0.78174 0.0
C820 C 0.30166 0.22508 0.79136 0.0
C821 C 0.27071 0.1821 0.80295 0.0
C822 C 0.22751 0.24438 0.81192 0.0
C823 C 0.17097 0.20626 0.80706 0.0
C824 C 0.23589 0.26219 0.83258 0.0
C825 C 0.23862 0.3283 0.80323 0.0
C826 C 0.28084 0.31434 0.79113 0.0
C827 C 0.29718 0.37919 0.78067 0.0
C828 C 0.27198 0.46302 0.78345 0.0
C829 C 0.23235 0.48275 0.79714 0.0
C830 C 0.21404 0.41308 0.80666 0.0
H831 H 0.74602 0.54548 0.8117 0.0
H832 H 0.8776 0.54139 0.77315 0.0
H833 H 0.85932 0.69927 0.76988 0.0
H834 H 0.65717 0.67886 0.79022 0.0
H835 H 0.63208 0.74372 0.81072 0.0
H836 H 0.65634 0.63079 0.81107 0.0
H837 H 0.72423 0.68874 0.83654 0.0
H838 H 0.69905 0.80142 0.83667 0.0
H839 H 0.76981 0.77927 0.83342 0.0
H840 H 0.82199 0.85016 0.76821 0.0
H841 H 0.78143 1.00038 0.7735 0.0
H842 H 0.67673 0.91311 0.8145 0.0
C843 C 0.77181 0.57839 0.8029 0.0
C844 C 0.81311 0.53057 0.79264 0.0
C845 C 0.84584 0.57624 0.78123 0.0
C846 C 0.83543 0.6658 0.7791 0.0
C847 C 0.79276 0.70927 0.78868 0.0
C848 C 0.76247 0.66842 0.80077 0.0
C849 C 0.71977 0.73185 0.80968 0.0
C850 C 0.66299 0.69402 0.80515 0.0
C851 C 0.72878 0.75151 0.8303 0.0
C852 C 0.73083 0.81454 0.8006 0.0
C853 C 0.77243 0.79892 0.78828 0.0
C854 C 0.78983 0.86385 0.77798 0.0
C855 C 0.76609 0.94898 0.78103 0.0
C856 C 0.72606 0.96928 0.79456 0.0
C857 C 0.70704 0.89994 0.80404 0.0
H858 H 0.56797 0.67986 0.56172 0.0
H859 H 0.44696 0.76946 0.52612 0.0
H860 H 0.40452 0.62028 0.52278 0.0
H861 H 0.5781 0.44854 0.53624 0.0
H862 H 0.58838 0.39874 0.55662 0.0
H863 H 0.61102 0.51231 0.55555 0.0
H864 H 0.55551 0.56719 0.58446 0.0
H865 H 0.53123 0.45423 0.58522 0.0
H866 H 0.4842 0.54496 0.58456 0.0
H867 H 0.36871 0.47042 0.52591 0.0
H868 H 0.35449 0.31049 0.52853 0.0
H869 H 0.50125 0.31127 0.56034 0.0
C870 C 0.53349 0.66737 0.55283 0.0
C871 C 0.51057 0.73702 0.5444 0.0
C872 C 0.46532 0.71773 0.53285 0.0
C873 C 0.44044 0.63329 0.53096 0.0
C874 C 0.46202 0.56811 0.54032 0.0
C875 C 0.50857 0.5825 0.55046 0.0
C876 C 0.52385 0.49896 0.55861 0.0
C877 C 0.57856 0.46247 0.55131 0.0
C878 C 0.52367 0.5175 0.57945 0.0
C879 C 0.47821 0.43628 0.55154 0.0
C880 C 0.44254 0.47855 0.54136 0.0
C881 C 0.39675 0.43571 0.53359 0.0
C882 C 0.38884 0.34497 0.53531 0.0
C883 C 0.42716 0.29781 0.54443 0.0
C884 C 0.47128 0.34526 0.55326 0.0
H885 H 0.39307 0.86032 1.031 0.0
H886 H 0.52229 0.77008 0.06343 0.0
H887 H 0.56533 0.91813 0.06534 0.0
H888 H 0.47144 0.99589 1.00595 0.0
H889 H 0.42365 0.08646 1.00665 0.0
H890 H 0.40056 0.97313 1.00778 0.0
H891 H 0.35123 0.02642 1.03808 0.0
H892 H 0.3726 0.1403 1.03667 0.0
H893 H 0.38789 0.0896 0.05661 0.0
H894 H 0.59923 0.06806 0.06162 0.0
H895 H 0.61051 0.22931 0.05969 0.0
H896 H 0.45712 0.22929 1.03162 0.0
C897 C 0.42965 0.87241 1.03888 0.0
C898 C 0.45443 0.8029 0.04684 0.0
C899 C 0.50235 0.82171 0.0571 0.0
C900 C 0.52766 0.90545 0.05813 0.0
C901 C 0.50392 0.97048 0.04925 0.0
C902 C 0.45508 0.95665 0.04042 0.0
C903 C 0.43736 0.04052 1.03288 0.0
C904 C 0.43301 1.02289 1.01208 0.0
C905 C 0.38414 0.07634 0.04158 0.0
C906 C 0.48399 0.10306 1.03891 0.0
C907 C 0.52245 0.06014 0.04791 0.0
C908 C 0.56921 0.10314 0.05481 0.0
C909 C 0.57533 0.19467 0.05352 0.0
C910 C 0.53427 0.24223 0.04575 0.0
C911 C 0.48915 0.19481 1.03765 0.0
H912 H 0.30982 0.46219 0.04051 0.0
H913 H 0.34734 0.35487 0.09015 0.0
H914 H 0.25311 0.30931 0.09267 0.0
H915 H 0.1615 0.52108 0.0517 0.0
H916 H 0.14153 0.48246 1.02864 0.0
H917 H 0.20625 0.53578 1.03333 0.0
H918 H 0.25435 0.39748 1.01574 0.0
H919 H 0.19051 0.34433 1.01049 0.0
H920 H 0.2413 0.28686 1.02175 0.0
H921 H 0.16527 0.24652 0.0868 0.0
H922 H 0.09527 0.15143 0.07102 0.0
H923 H 0.11192 0.28965 1.024 0.0
C924 C 0.29766 0.43195 0.05225 0.0
C925 C 0.3355 0.41377 0.06536 0.0
C926 C 0.31882 0.37116 0.08016 0.0
C927 C 0.26516 0.34596 0.08181 0.0
C928 C 0.22892 0.36318 0.06845 0.0
C929 C 0.24448 0.40464 0.05384 0.0
C930 C 0.20133 0.39706 0.03935 0.0
C931 C 0.17615 0.48961 1.03818 0.0
C932 C 0.22319 0.35377 1.02076 0.0
C933 C 0.16187 0.33599 0.04718 0.0
C934 C 0.17718 0.32204 0.06446 0.0
C935 C 0.15206 0.25858 0.07351 0.0
C936 C 0.11254 0.20415 0.06434 0.0
C937 C 0.09866 0.21297 0.04626 0.0
C938 C 0.12155 0.28267 1.03791 0.0
H939 H 0.81384 0.95338 0.04228 0.0
H940 H 0.8849 0.79343 0.0805 0.0
H941 H 0.8067 0.69224 0.07717 0.0
H942 H 0.67505 0.93087 0.05727 0.0
H943 H 0.64755 0.9232 1.03473 0.0
H944 H 0.70828 0.98704 0.04047 0.0
H945 H 0.7579 0.89174 1.01376 0.0
H946 H 0.69745 0.82744 1.00792 0.0
H947 H 0.75872 0.77052 1.01237 0.0
H948 H 0.72589 0.6056 0.06913 0.0
H949 H 0.64137 0.53687 0.05746 0.0
H950 H 0.61935 0.75138 1.02439 0.0
C951 C 0.81276 0.89729 0.05 0.0
C952 C 0.8554 0.88104 0.06161 0.0
C953 C 0.85265 0.80719 0.07153 0.0
C954 C 0.80843 0.74935 0.06976 0.0
C955 C 0.76749 0.76652 0.05808 0.0
C956 C 0.76873 0.83872 0.04844 0.0
C957 C 0.71915 0.84035 1.03668 0.0
C958 C 0.68553 0.92541 0.04265 0.0
C959 C 0.73423 0.83198 1.01648 0.0
C960 C 0.69068 0.75648 0.04098 0.0
C961 C 0.71948 0.71571 0.05343 0.0
C962 C 0.70257 0.63694 0.05949 0.0
C963 C 0.65442 0.59861 0.05273 0.0
C964 C 0.62371 0.63914 0.04004 0.0
C965 C 0.64212 0.71905 1.03404 0.0
H966 H 0.10916 0.46193 0.26988 0.0
H967 H 0.12553 0.32657 0.31753 0.0
H968 H 0.03878 0.38629 0.32882 0.0
H969 H 0.04754 0.66375 0.29351 0.0
H970 H 0.00268 0.67763 0.2751 0.0
H971 H 0.0667 0.62353 0.27045 0.0
H972 H 0.01818 0.48324 0.25304 0.0
H973 H 0.95405 0.53684 0.25781 0.0
H974 H 0.96646 0.42737 0.26433 0.0
H975 H 0.94924 0.45321 0.33465 0.0
H976 H 0.86519 0.54113 0.33625 0.0
H977 H 0.90714 0.63784 0.28573 0.0
C978 C 0.09456 0.44539 0.28271 0.0
C979 C 0.12397 0.38877 0.29266 0.0
C980 C 0.10362 0.36904 0.30949 0.0
C981 C 0.05421 0.40242 0.31608 0.0
C982 C 0.02562 0.45602 0.30578 0.0
C983 C 0.04508 0.47865 0.28961 0.0
C984 C 0.00628 0.53949 0.28156 0.0
C985 C 0.03235 0.63157 0.28008 0.0
C986 C 0.985 0.49398 0.26309 0.0
C987 C 0.96252 0.54744 0.29581 0.0
C988 C 0.97419 0.49768 0.30952 0.0
C989 C 0.93958 0.49317 0.32407 0.0
C990 C 0.89197 0.54285 0.32484 0.0
C991 C 0.8802 0.59674 0.31124 0.0
C992 C 0.91556 0.59794 0.29644 0.0
H993 H 0.35151 0.79063 0.5725 0.0
H994 H 0.31329 0.05237 0.55742 0.0
H995 H 0.2178 1.0108 0.55503 0.0
H996 H 0.27776 0.67022 0.54197 0.0
H997 H 0.25252 0.58654 0.55503 0.0
H998 H 0.31449 0.64409 0.56142 0.0
H999 H 0.27742 0.69765 0.59365 0.0
H1000 H 0.21525 0.63856 0.5875 0.0
H1001 H 0.21442 0.75709 0.5963 0.0
H1002 H 0.13572 0.93004 0.54547 0.0
H1003 H 0.06805 0.81771 0.53275 0.0
H1004 H 0.1549 0.609 0.55534 0.0
C1005 C 0.32245 0.84028 0.56958 0.0
C1006 C 0.3393 0.92403 0.56505 0.0
C1007 C 0.3009 0.98726 0.56078 0.0
C1008 C 0.24651 0.96471 0.55957 0.0
C1009 C 0.23124 0.8792 0.56289 0.0
C1010 C 0.26776 0.81841 0.56824 0.0
C1011 C 0.2423 0.7264 0.56816 0.0
C1012 C 0.27362 0.6526 0.55591 0.0
C1013 C 0.23703 0.70362 0.58756 0.0
C1014 C 0.18782 0.74316 0.5603 0.0
C1015 C 0.18182 0.83223 0.55774 0.0
C1016 C 0.13882 0.86085 0.54802 0.0
C1017 C 0.101 0.79661 0.54066 0.0
C1018 C 0.10627 0.70556 0.54334 0.0
C1019 C 0.14949 0.67899 0.55357 0.0
H1020 H 0.84243 0.30995 0.57634 0.0
H1021 H 0.87417 0.4014 0.52462 0.0
H1022 H 0.80189 0.30466 0.51053 0.0
H1023 H 0.79198 0.07068 0.55717 0.0
H1024 H 0.74203 0.07772 0.57478 0.0
H1025 H 0.80592 0.13416 0.57914 0.0
H1026 H 0.75279 0.28298 0.58934 0.0
H1027 H 0.68998 0.22573 0.58384 0.0
H1028 H 0.70728 0.32385 0.57353 0.0
H1029 H 0.71774 0.22894 0.50349 0.0
H1030 H 0.62631 0.16747 0.50323 0.0
H1031 H 0.64545 0.11897 0.55898 0.0
C1032 C 0.83525 0.30648 0.56191 0.0
C1033 C 0.86399 0.36218 0.5515 0.0
C1034 C 0.8528 0.35877 0.5328 0.0
C1035 C 0.81194 0.30367 0.52463 0.0
C1036 C 0.78265 0.25245 0.53536 0.0
C1037 C 0.79378 0.25231 0.55356 0.0
C1038 C 0.75092 0.20115 0.56244 0.0
C1039 C 0.77416 0.11589 0.56875 0.0
C1040 C 0.72365 0.26211 0.57821 0.0
C1041 C 0.7129 0.17725 0.5466 0.0
C1042 C 0.73267 0.20638 0.53108 0.0
C1043 C 0.70241 0.20279 0.51532 0.0
C1044 C 0.65035 0.1683 0.51535 0.0
C1045 C 0.62939 0.13699 0.53097 0.0
C1046 C 0.66126 0.14038 0.54672 0.0
H1047 H 0.91381 0.15455 0.78504 0.0
H1048 H 0.88737 0.09196 0.83951 0.0
H1049 H 0.97953 0.03304 0.84001 0.0
H1050 H 0.97956 0.9547 0.76962 0.0
H1051 H 0.02581 1.00303 0.75499 0.0
H1052 H 0.96151 0.05468 0.76012 0.0
H1053 H 0.00931 0.20565 0.77157 0.0
H1054 H 0.07441 0.15462 0.76716 0.0
H1055 H 0.05825 0.21092 0.78952 0.0
H1056 H 0.0698 0.97232 0.83412 0.0
H1057 H 0.14751 0.88836 0.82061 0.0
H1058 H 0.11477 0.98071 0.769 0.0
C1059 C 0.92786 0.12996 0.79719 0.0
C1060 C 0.89412 0.1296 0.81241 0.0
C1061 C 0.91295 0.09417 0.82784 0.0
C1062 C 0.96535 0.06137 0.82831 0.0
C1063 C -0.00215 0.06367 0.81315 0.0
C1064 C 0.97962 0.0954 0.79775 0.0
C1065 C 0.01986 0.07838 0.78241 0.0
C1066 C -0.00478 1.01915 0.76582 0.0
C1067 C 0.04177 0.16771 0.77737 0.0
C1068 C 0.06262 0.02855 0.79141 0.0
C1069 C 0.04974 1.02378 0.80932 0.0
C1070 C 0.08063 0.97604 0.82018 0.0
C1071 C 0.12456 0.92821 0.81231 0.0
C1072 C 0.13662 0.92731 0.79368 0.0
C1073 C 0.10658 0.98093 0.78328 0.0
H1074 H 0.59204 0.33881 0.80587 0.0
H1075 H 0.62162 0.41723 0.75282 0.0
H1076 H 0.52994 0.47622 0.75233 0.0
H1077 H 0.44096 0.29283 0.79951 0.0
H1078 H 0.4272 0.34198 0.82255 0.0
H1079 H 0.48947 0.28294 0.81709 0.0
H1080 H 0.54344 0.42392 0.83132 0.0
H1081 H 0.48179 0.48313 0.83695 0.0
H1082 H 0.53166 0.53065 0.82344 0.0
H1083 H 0.44565 0.54978 0.75927 0.0
H1084 H 0.3765 0.64823 0.77433 0.0
H1085 H 0.39788 0.52894 0.82366 0.0
C1086 C 0.57844 0.36595 0.79394 0.0
C1087 C 0.61346 0.37229 0.77925 0.0
C1088 C 0.59524 0.41078 0.76412 0.0
C1089 C 0.54298 0.44355 0.76363 0.0
C1090 C 0.50959 0.43768 0.77841 0.0
C1091 C 0.52648 0.40038 0.79337 0.0
C1092 C 0.48611 0.41717 0.80872 0.0
C1093 C 0.45935 0.32843 0.81217 0.0
C1094 C 0.51232 0.46671 0.82612 0.0
C1095 C 0.44646 0.47647 0.80056 0.0
C1096 C 0.45979 0.48376 0.78279 0.0
C1097 C 0.43384 0.54299 0.77299 0.0
C1098 C 0.39474 0.59919 0.78176 0.0
C1099 C 0.38179 0.59582 0.80018 0.0
C1100 C 0.40644 0.53133 0.80949 0.0
H1101 H 0.59168 0.83377 0.29748 0.0
H1102 H 0.67745 1.01865 0.26763 0.0
H1103 H 0.61078 0.13723 0.27776 0.0
H1104 H 0.46196 0.89765 0.28573 0.0
H1105 H 0.4322 0.88468 0.30729 0.0
H1106 H 0.48977 0.81854 0.29929 0.0
H1107 H 0.54036 0.87873 0.32902 0.0
H1108 H 0.48313 0.94645 0.33698 0.0
H1109 H 0.54818 0.99869 0.3356 0.0
H1110 H 0.53451 0.2316 0.28992 0.0
H1111 H 0.44607 0.29223 0.29971 0.0
H1112 H 0.40668 0.04342 0.32059 0.0
C1113 C 0.5966 0.89951 0.29319 0.0
C1114 C 0.6396 0.91779 0.28188 0.0
C1115 C 0.6444 1.0036 0.2762 0.0
C1116 C 0.6072 0.07139 0.28206 0.0
C1117 C 0.56549 0.05132 0.29336 0.0
C1118 C 0.55943 0.96713 0.29863 0.0
C1119 C 0.50821 0.96035 0.30935 0.0
C1120 C 0.47084 0.88595 0.29984 0.0
C1121 C 0.52074 0.94519 0.3289 0.0
C1122 C 0.48545 0.05337 0.30882 0.0
C1123 C 0.51999 0.10522 0.29993 0.0
C1124 C 0.50718 0.19195 0.29693 0.0
C1125 C 0.45679 0.2255 0.30251 0.0
C1126 C 0.41961 0.172 0.3108 0.0
C1127 C 0.43469 0.08592 0.3145 0.0
loop_
_geom_bond_atom_site_label_1
_geom_bond_atom_site_label_2
_geom_bond_distance
_geom_bond_site_symmetry_2
_ccdc_geom_bond_type
Co0 O3 2.045 1_455 S
Co0 O10 2.264 1_455 S
Co0 O29 2.286 . S
Co0 O30 2.069 1_545 S
Co0 O32 2.015 . S
Co1 O3 2.130 . S
Co1 O9 2.073 . S
Co1 O10 2.327 . S
Co1 O11 1.976 . S
Co2 O3 2.087 1_454 S
Co2 O5 2.087 . S
Co2 O12 2.120 1_455 S
Co2 O13 2.140 1_445 S
Co2 O17 2.103 1_545 S
Co2 O31 2.147 . S
O3 Co0 2.045 1_655 S
O3 Co1 2.130 . S
O3 Co2 2.087 1_656 S
O3 H4 0.971 1_545 S
H4 O3 0.971 1_565 S
O5 Co2 2.087 . S
O5 Co6 2.040 1_445 S
O5 Co7 2.116 1_545 S
O5 H8 0.987 . S
Co6 O5 2.040 1_665 S
Co6 O14 2.286 . S
Co6 O15 2.069 1_565 S
Co6 O16 2.015 . S
Co6 O19 2.264 1_655 S
Co7 O5 2.116 1_565 S
Co7 O18 1.976 . S
Co7 O19 2.327 . S
Co7 O20 2.073 . S
H8 O5 0.987 . S
O9 Co1 2.073 . S
O9 C24 1.245 . S
O10 Co0 2.264 1_655 S
O10 Co1 2.327 . S
O10 C24 1.257 . S
O11 Co1 1.976 . S
O11 C23 1.251 1_556 S
O12 Co2 2.120 1_655 S
O12 C23 1.274 . S
O13 Co2 2.140 1_665 S
O13 C26 1.246 . S
O14 Co6 2.286 . S
O14 C25 1.259 1_565 S
O15 Co6 2.069 1_545 S
O15 C25 1.289 . S
O16 Co6 2.015 . S
O16 C26 1.257 . S
O17 Co2 2.103 1_565 S
O17 C27 1.274 . S
O18 Co7 1.976 . S
O18 C27 1.251 . S
O19 Co6 2.264 1_455 S
O19 Co7 2.327 . S
O19 C28 1.257 . S
O20 Co7 2.073 . S
O20 C28 1.245 . S
C21 O29 1.259 1_565 S
C21 O30 1.289 . S
C22 O31 1.246 1_556 S
C22 O32 1.257 . S
C23 O11 1.251 1_554 S
C23 O12 1.274 . S
C24 O9 1.245 . S
C24 O10 1.257 . S
C25 O14 1.259 1_545 S
C25 O15 1.289 . S
C26 O13 1.246 . S
C26 O16 1.257 . S
C27 O17 1.274 . S
C27 O18 1.251 . S
C28 O19 1.257 . S
C28 O20 1.245 . S
O29 Co0 2.286 . S
O29 C21 1.259 1_545 S
O30 Co0 2.069 1_565 S
O30 C21 1.289 . S
O31 Co2 2.147 . S
O31 C22 1.246 1_554 S
O32 Co0 2.015 . S
O32 C22 1.257 . S
Co33 O36 2.042 . S
Co33 O43 2.264 . S
Co33 O62 2.286 . S
Co33 O63 2.069 . S
Co33 O65 2.015 . S
Co34 O36 2.122 . S
Co34 O42 2.073 . S
Co34 O43 2.327 . S
Co34 O44 1.976 . S
Co35 O36 2.087 . S
Co35 O38 2.087 . S
Co35 O45 2.111 . S
Co35 O46 2.143 . S
Co35 O50 2.111 . S
Co35 O64 2.143 . S
O36 Co33 2.042 . S
O36 Co34 2.122 . S
O36 Co35 2.087 . S
O36 H37 0.980 . S
H37 O36 0.980 . S
O38 Co35 2.087 . S
O38 Co39 2.042 . S
O38 Co40 2.122 . S
O38 H41 0.980 . S
Co39 O38 2.042 . S
Co39 O47 2.286 . S
Co39 O48 2.069 . S
Co39 O49 2.015 . S
Co39 O52 2.264 . S
Co40 O38 2.122 . S
Co40 O51 1.976 . S
Co40 O52 2.327 . S
Co40 O53 2.073 . S
H41 O38 0.980 . S
O42 Co34 2.073 . S
O42 C57 1.245 . S
O43 Co33 2.264 . S
O43 Co34 2.327 . S
O43 C57 1.257 . S
O44 Co34 1.976 . S
O44 C56 1.251 . S
O45 Co35 2.111 . S
O45 C56 1.274 . S
O46 Co35 2.143 . S
O46 C59 1.246 . S
O47 Co39 2.286 . S
O47 C58 1.259 . S
O48 Co39 2.069 . S
O48 C58 1.289 . S
O49 Co39 2.015 . S
O49 C59 1.257 . S
O50 Co35 2.111 . S
O50 C60 1.274 . S
O51 Co40 1.976 . S
O51 C60 1.251 . S
O52 Co39 2.264 . S
O52 Co40 2.327 . S
O52 C61 1.257 . S
O53 Co40 2.073 . S
O53 C61 1.245 . S
C54 O62 1.259 . S
C54 O63 1.289 . S
C55 O64 1.246 . S
C55 O65 1.257 . S
C56 O44 1.251 . S
C56 O45 1.274 . S
C57 O42 1.245 . S
C57 O43 1.257 . S
C58 O47 1.259 . S
C58 O48 1.289 . S
C59 O46 1.246 . S
C59 O49 1.257 . S
C60 O50 1.274 . S
C60 O51 1.251 . S
C61 O52 1.257 . S
C61 O53 1.245 . S
O62 Co33 2.286 . S
O62 C54 1.259 . S
O63 Co33 2.069 . S
O63 C54 1.289 . S
O64 Co35 2.143 . S
O64 C55 1.246 . S
O65 Co33 2.015 . S
O65 C55 1.257 . S
Co66 O69 2.042 . S
Co66 O76 2.264 . S
Co66 O95 2.286 . S
Co66 O96 2.069 . S
Co66 O98 2.015 . S
Co67 O69 2.122 . S
Co67 O75 2.073 . S
Co67 O76 2.327 . S
Co67 O77 1.976 . S
Co68 O69 2.087 . S
Co68 O71 2.087 . S
Co68 O78 2.111 . S
Co68 O79 2.143 . S
Co68 O83 2.111 . S
Co68 O97 2.143 . S
O69 Co66 2.042 . S
O69 Co67 2.122 . S
O69 Co68 2.087 . S
O69 H70 0.980 . S
H70 O69 0.980 . S
O71 Co68 2.087 . S
O71 Co72 2.042 . S
O71 Co73 2.122 . S
O71 H74 0.980 . S
Co72 O71 2.042 . S
Co72 O80 2.286 . S
Co72 O81 2.069 . S
Co72 O82 2.015 . S
Co72 O85 2.264 . S
Co73 O71 2.122 . S
Co73 O84 1.976 . S
Co73 O85 2.327 . S
Co73 O86 2.073 . S
H74 O71 0.980 . S
O75 Co67 2.073 . S
O75 C90 1.245 . S
O76 Co66 2.264 . S
O76 Co67 2.327 . S
O76 C90 1.257 . S
O77 Co67 1.976 . S
O77 C89 1.251 . S
O78 Co68 2.111 . S
O78 C89 1.274 . S
O79 Co68 2.143 . S
O79 C92 1.246 . S
O80 Co72 2.286 . S
O80 C91 1.259 . S
O81 Co72 2.069 . S
O81 C91 1.289 . S
O82 Co72 2.015 . S
O82 C92 1.257 . S
O83 Co68 2.111 . S
O83 C93 1.274 . S
O84 Co73 1.976 . S
O84 C93 1.251 . S
O85 Co72 2.264 . S
O85 Co73 2.327 . S
O85 C94 1.257 . S
O86 Co73 2.073 . S
O86 C94 1.245 . S
C87 O95 1.259 . S
C87 O96 1.289 . S
C88 O97 1.246 . S
C88 O98 1.257 . S
C89 O77 1.251 . S
C89 O78 1.274 . S
C90 O75 1.245 . S
C90 O76 1.257 . S
C91 O80 1.259 . S
C91 O81 1.289 . S
C92 O79 1.246 . S
C92 O82 1.257 . S
C93 O83 1.274 . S
C93 O84 1.251 . S
C94 O85 1.257 . S
C94 O86 1.245 . S
O95 Co66 2.286 . S
O95 C87 1.259 . S
O96 Co66 2.069 . S
O96 C87 1.289 . S
O97 Co68 2.143 . S
O97 C88 1.246 . S
O98 Co66 2.015 . S
O98 C88 1.257 . S
Co99 O102 2.042 1_455 S
Co99 O109 2.264 1_455 S
Co99 O128 2.286 . S
Co99 O129 2.069 . S
Co99 O131 2.015 . S
Co100 O102 2.122 . S
Co100 O108 2.073 . S
Co100 O109 2.327 . S
Co100 O110 1.976 . S
Co101 O102 2.087 1_455 S
Co101 O104 2.087 . S
Co101 O111 2.111 1_455 S
Co101 O112 2.143 1_455 S
Co101 O116 2.111 . S
Co101 O130 2.143 . S
O102 Co99 2.042 1_655 S
O102 Co100 2.122 . S
O102 Co101 2.087 1_655 S
O102 H103 0.980 . S
H103 O102 0.980 . S
O104 Co101 2.087 . S
O104 Co105 2.042 1_455 S
O104 Co106 2.122 . S
O104 H107 0.980 . S
Co105 O104 2.042 1_655 S
Co105 O113 2.286 . S
Co105 O114 2.069 . S
Co105 O115 2.015 . S
Co105 O118 2.264 1_655 S
Co106 O104 2.122 . S
Co106 O117 1.976 . S
Co106 O118 2.327 . S
Co106 O119 2.073 . S
H107 O104 0.980 . S
O108 Co100 2.073 . S
O108 C123 1.245 . S
O109 Co99 2.264 1_655 S
O109 Co100 2.327 . S
O109 C123 1.257 . S
O110 Co100 1.976 . S
O110 C122 1.251 . S
O111 Co101 2.111 1_655 S
O111 C122 1.274 . S
O112 Co101 2.143 1_655 S
O112 C125 1.246 . S
O113 Co105 2.286 . S
O113 C124 1.259 . S
O114 Co105 2.069 . S
O114 C124 1.289 . S
O115 Co105 2.015 . S
O115 C125 1.257 . S
O116 Co101 2.111 . S
O116 C126 1.274 . S
O117 Co106 1.976 . S
O117 C126 1.251 . S
O118 Co105 2.264 1_455 S
O118 Co106 2.327 . S
O118 C127 1.257 . S
O119 Co106 2.073 . S
O119 C127 1.245 . S
C120 O128 1.259 . S
C120 O129 1.289 . S
C121 O130 1.246 . S
C121 O131 1.257 . S
C122 O110 1.251 . S
C122 O111 1.274 . S
C123 O108 1.245 . S
C123 O109 1.257 . S
C124 O113 1.259 . S
C124 O114 1.289 . S
C125 O112 1.246 . S
C125 O115 1.257 . S
C126 O116 1.274 . S
C126 O117 1.251 . S
C127 O118 1.257 . S
C127 O119 1.245 . S
O128 Co99 2.286 . S
O128 C120 1.259 . S
O129 Co99 2.069 . S
O129 C120 1.289 . S
O130 Co101 2.143 . S
O130 C121 1.246 . S
O131 Co99 2.015 . S
O131 C121 1.257 . S
Co132 O135 2.042 . S
Co132 O142 2.264 . S
Co132 O161 2.286 . S
Co132 O162 2.069 . S
Co132 O164 2.015 . S
Co133 O135 2.122 . S
Co133 O141 2.073 . S
Co133 O142 2.327 . S
Co133 O143 1.976 . S
Co134 O135 2.087 . S
Co134 O137 2.087 . S
Co134 O144 2.111 . S
Co134 O145 2.143 . S
Co134 O149 2.111 . S
Co134 O163 2.143 . S
O135 Co132 2.042 . S
O135 Co133 2.122 . S
O135 Co134 2.087 . S
O135 H136 0.980 . S
H136 O135 0.980 . S
O137 Co134 2.087 . S
O137 Co138 2.042 . S
O137 Co139 2.122 . S
O137 H140 0.980 . S
Co138 O137 2.042 . S
Co138 O146 2.286 . S
Co138 O147 2.069 . S
Co138 O148 2.015 . S
Co138 O151 2.264 . S
Co139 O137 2.122 . S
Co139 O150 1.976 . S
Co139 O151 2.327 . S
Co139 O152 2.073 . S
H140 O137 0.980 . S
O141 Co133 2.073 . S
O141 C156 1.245 . S
O142 Co132 2.264 . S
O142 Co133 2.327 . S
O142 C156 1.257 . S
O143 Co133 1.976 . S
O143 C155 1.251 . S
O144 Co134 2.111 . S
O144 C155 1.274 . S
O145 Co134 2.143 . S
O145 C158 1.246 . S
O146 Co138 2.286 . S
O146 C157 1.259 . S
O147 Co138 2.069 . S
O147 C157 1.289 . S
O148 Co138 2.015 . S
O148 C158 1.257 . S
O149 Co134 2.111 . S
O149 C159 1.274 . S
O150 Co139 1.976 . S
O150 C159 1.251 . S
O151 Co138 2.264 . S
O151 Co139 2.327 . S
O151 C160 1.257 . S
O152 Co139 2.073 . S
O152 C160 1.245 . S
C153 O161 1.259 . S
C153 O162 1.289 . S
C154 O163 1.246 . S
C154 O164 1.257 . S
C155 O143 1.251 . S
C155 O144 1.274 . S
C156 O141 1.245 . S
C156 O142 1.257 . S
C157 O146 1.259 . S
C157 O147 1.289 . S
C158 O145 1.246 . S
C158 O148 1.257 . S
C159 O149 1.274 . S
C159 O150 1.251 . S
C160 O151 1.257 . S
C160 O152 1.245 . S
O161 Co132 2.286 . S
O161 C153 1.259 . S
O162 Co132 2.069 . S
O162 C153 1.289 . S
O163 Co134 2.143 . S
O163 C154 1.246 . S
O164 Co132 2.015 . S
O164 C154 1.257 . S
Co165 O168 2.042 . S
Co165 O175 2.264 . S
Co165 O194 2.286 . S
Co165 O195 2.069 . S
Co165 O197 2.015 . S
Co166 O168 2.122 . S
Co166 O174 2.073 . S
Co166 O175 2.327 . S
Co166 O176 1.976 . S
Co167 O168 2.087 . S
Co167 O170 2.087 . S
Co167 O177 2.111 . S
Co167 O178 2.143 . S
Co167 O182 2.111 . S
Co167 O196 2.143 . S
O168 Co165 2.042 . S
O168 Co166 2.122 . S
O168 Co167 2.087 . S
O168 H169 0.980 . S
H169 O168 0.980 . S
O170 Co167 2.087 . S
O170 Co171 2.042 . S
O170 Co172 2.122 . S
O170 H173 0.980 . S
Co171 O170 2.042 . S
Co171 O179 2.286 . S
Co171 O180 2.069 . S
Co171 O181 2.015 . S
Co171 O184 2.264 . S
Co172 O170 2.122 . S
Co172 O183 1.976 . S
Co172 O184 2.327 . S
Co172 O185 2.073 . S
H173 O170 0.980 . S
O174 Co166 2.073 . S
O174 C189 1.245 . S
O175 Co165 2.264 . S
O175 Co166 2.327 . S
O175 C189 1.257 . S
O176 Co166 1.976 . S
O176 C188 1.251 . S
O177 Co167 2.111 . S
O177 C188 1.274 . S
O178 Co167 2.143 . S
O178 C191 1.246 . S
O179 Co171 2.286 . S
O179 C190 1.259 . S
O180 Co171 2.069 . S
O180 C190 1.289 . S
O181 Co171 2.015 . S
O181 C191 1.257 . S
O182 Co167 2.111 . S
O182 C192 1.274 . S
O183 Co172 1.976 . S
O183 C192 1.251 . S
O184 Co171 2.264 . S
O184 Co172 2.327 . S
O184 C193 1.257 . S
O185 Co172 2.073 . S
O185 C193 1.245 . S
C186 O194 1.259 . S
C186 O195 1.289 . S
C187 O196 1.246 . S
C187 O197 1.257 . S
C188 O176 1.251 . S
C188 O177 1.274 . S
C189 O174 1.245 . S
C189 O175 1.257 . S
C190 O179 1.259 . S
C190 O180 1.289 . S
C191 O178 1.246 . S
C191 O181 1.257 . S
C192 O182 1.274 . S
C192 O183 1.251 . S
C193 O184 1.257 . S
C193 O185 1.245 . S
O194 Co165 2.286 . S
O194 C186 1.259 . S
O195 Co165 2.069 . S
O195 C186 1.289 . S
O196 Co167 2.143 . S
O196 C187 1.246 . S
O197 Co165 2.015 . S
O197 C187 1.257 . S
Co198 O201 2.044 . S
Co198 O208 2.264 . S
Co198 O227 2.286 . S
Co198 O228 2.069 1_545 S
Co198 O230 2.015 . S
Co199 O201 2.129 . S
Co199 O207 2.073 . S
Co199 O208 2.327 . S
Co199 O209 1.976 . S
Co200 O201 2.087 . S
Co200 O203 2.087 . S
Co200 O210 2.119 . S
Co200 O211 2.140 1_545 S
Co200 O215 2.104 1_545 S
Co200 O229 2.147 . S
O201 Co198 2.044 . S
O201 Co199 2.129 . S
O201 Co200 2.087 . S
O201 H202 0.972 1_545 S
H202 O201 0.972 1_565 S
O203 Co200 2.087 . S
O203 Co204 2.041 1_545 S
O203 Co205 2.117 1_545 S
O203 H206 0.986 . S
Co204 O203 2.041 1_565 S
Co204 O212 2.286 . S
Co204 O213 2.069 1_565 S
Co204 O214 2.015 . S
Co204 O217 2.264 . S
Co205 O203 2.117 1_565 S
Co205 O216 1.976 . S
Co205 O217 2.327 . S
Co205 O218 2.073 . S
H206 O203 0.986 . S
O207 Co199 2.073 . S
O207 C222 1.245 . S
O208 Co198 2.264 . S
O208 Co199 2.327 . S
O208 C222 1.257 . S
O209 Co199 1.976 . S
O209 C221 1.251 . S
O210 Co200 2.119 . S
O210 C221 1.274 . S
O211 Co200 2.140 1_565 S
O211 C224 1.246 . S
O212 Co204 2.286 . S
O212 C223 1.259 1_565 S
O213 Co204 2.069 1_545 S
O213 C223 1.289 . S
O214 Co204 2.015 . S
O214 C224 1.257 . S
O215 Co200 2.104 1_565 S
O215 C225 1.274 . S
O216 Co205 1.976 . S
O216 C225 1.251 . S
O217 Co204 2.264 . S
O217 Co205 2.327 . S
O217 C226 1.257 . S
O218 Co205 2.073 . S
O218 C226 1.245 . S
C219 O227 1.259 1_565 S
C219 O228 1.289 . S
C220 O229 1.246 . S
C220 O230 1.257 . S
C221 O209 1.251 . S
C221 O210 1.274 . S
C222 O207 1.245 . S
C222 O208 1.257 . S
C223 O212 1.259 1_545 S
C223 O213 1.289 . S
C224 O211 1.246 . S
C224 O214 1.257 . S
C225 O215 1.274 . S
C225 O216 1.251 . S
C226 O217 1.257 . S
C226 O218 1.245 . S
O227 Co198 2.286 . S
O227 C219 1.259 1_545 S
O228 Co198 2.069 1_565 S
O228 C219 1.289 . S
O229 Co200 2.147 . S
O229 C220 1.246 . S
O230 Co198 2.015 . S
O230 C220 1.257 . S
Co231 O234 2.042 . S
Co231 O241 2.264 . S
Co231 O260 2.286 . S
Co231 O261 2.069 . S
Co231 O263 2.015 . S
Co232 O234 2.122 . S
Co232 O240 2.073 . S
Co232 O241 2.327 . S
Co232 O242 1.976 . S
Co233 O234 2.087 1_554 S
Co233 O236 2.087 . S
Co233 O243 2.111 . S
Co233 O244 2.143 . S
Co233 O248 2.111 . S
Co233 O262 2.143 . S
O234 Co231 2.042 . S
O234 Co232 2.122 . S
O234 Co233 2.087 1_556 S
O234 H235 0.980 . S
H235 O234 0.980 . S
O236 Co233 2.087 . S
O236 Co237 2.042 . S
O236 Co238 2.122 . S
O236 H239 0.980 . S
Co237 O236 2.042 . S
Co237 O245 2.286 . S
Co237 O246 2.069 . S
Co237 O247 2.015 . S
Co237 O250 2.264 . S
Co238 O236 2.122 . S
Co238 O249 1.976 . S
Co238 O250 2.327 . S
Co238 O251 2.073 . S
H239 O236 0.980 . S
O240 Co232 2.073 . S
O240 C255 1.245 . S
O241 Co231 2.264 . S
O241 Co232 2.327 . S
O241 C255 1.257 . S
O242 Co232 1.976 . S
O242 C254 1.251 1_556 S
O243 Co233 2.111 . S
O243 C254 1.274 . S
O244 Co233 2.143 . S
O244 C257 1.246 . S
O245 Co237 2.286 . S
O245 C256 1.259 . S
O246 Co237 2.069 . S
O246 C256 1.289 . S
O247 Co237 2.015 . S
O247 C257 1.257 . S
O248 Co233 2.111 . S
O248 C258 1.274 . S
O249 Co238 1.976 . S
O249 C258 1.251 . S
O250 Co237 2.264 . S
O250 Co238 2.327 . S
O250 C259 1.257 . S
O251 Co238 2.073 . S
O251 C259 1.245 . S
C252 O260 1.259 . S
C252 O261 1.289 . S
C253 O262 1.246 1_556 S
C253 O263 1.257 . S
C254 O242 1.251 1_554 S
C254 O243 1.274 . S
C255 O240 1.245 . S
C255 O241 1.257 . S
C256 O245 1.259 . S
C256 O246 1.289 . S
C257 O244 1.246 . S
C257 O247 1.257 . S
C258 O248 1.274 . S
C258 O249 1.251 . S
C259 O250 1.257 . S
C259 O251 1.245 . S
O260 Co231 2.286 . S
O260 C252 1.259 . S
O261 Co231 2.069 . S
O261 C252 1.289 . S
O262 Co233 2.143 . S
O262 C253 1.246 1_554 S
O263 Co231 2.015 . S
O263 C253 1.257 . S
H264 C276 0.930 . S
H265 C278 0.930 . S
H266 C279 0.930 . S
H267 C283 0.959 . S
H268 C283 0.959 . S
H269 C283 0.961 . S
H270 C284 0.960 . S
H271 C284 0.961 . S
H272 C284 0.959 . S
H273 C287 0.929 1_565 S
H274 C288 0.931 . S
H275 C290 0.930 . S
C276 H264 0.930 . S
C276 C277 1.399 1_545 S
C276 C281 1.399 . S
C277 C276 1.399 1_565 S
C277 C278 1.376 . S
C278 H265 0.930 . S
C278 C277 1.376 . S
C278 C279 1.388 . S
C279 H266 0.930 . S
C279 C278 1.388 . S
C279 C280 1.390 1_565 S
C280 C279 1.390 1_545 S
C280 C281 1.394 . S
C280 C286 1.465 . S
C281 C276 1.399 . S
C281 C280 1.394 . S
C281 C282 1.516 . S
C282 C281 1.516 . S
C282 C283 1.502 . S
C282 C284 1.561 . S
C282 C285 1.526 . S
C283 H267 0.959 . S
C283 H268 0.959 . S
C283 H269 0.961 . S
C283 C282 1.502 . S
C284 H270 0.960 . S
C284 H271 0.961 . S
C284 H272 0.959 . S
C284 C282 1.561 . S
C285 C282 1.526 . S
C285 C286 1.396 . S
C285 C290 1.390 . S
C286 C280 1.465 . S
C286 C285 1.396 . S
C286 C287 1.399 . S
C287 H273 0.929 1_545 S
C287 C286 1.399 . S
C287 C288 1.385 . S
C288 H274 0.931 . S
C288 C287 1.385 . S
C288 C289 1.389 . S
C289 C288 1.389 . S
C289 C290 1.387 . S
C290 H275 0.930 . S
C290 C285 1.390 . S
C290 C289 1.387 . S
H291 C303 0.930 . S
H292 C305 0.930 . S
H293 C306 0.930 . S
H294 C310 0.959 . S
H295 C310 0.959 . S
H296 C310 0.961 . S
H297 C311 0.960 . S
H298 C311 0.961 . S
H299 C311 0.959 . S
H300 C314 0.929 . S
H301 C315 0.931 . S
H302 C317 0.930 . S
C303 H291 0.930 . S
C303 C304 1.399 . S
C303 C308 1.399 1_545 S
C304 C303 1.399 . S
C304 C305 1.376 1_545 S
C305 H292 0.930 . S
C305 C304 1.376 1_565 S
C305 C306 1.388 . S
C306 H293 0.930 . S
C306 C305 1.388 . S
C306 C307 1.390 . S
C307 C306 1.390 . S
C307 C308 1.394 . S
C307 C313 1.465 . S
C308 C303 1.399 1_565 S
C308 C307 1.394 . S
C308 C309 1.516 . S
C309 C308 1.516 . S
C309 C310 1.502 1_565 S
C309 C311 1.561 . S
C309 C312 1.526 . S
C310 H294 0.959 . S
C310 H295 0.959 . S
C310 H296 0.961 . S
C310 C309 1.502 1_545 S
C311 H297 0.960 . S
C311 H298 0.961 . S
C311 H299 0.959 . S
C311 C309 1.561 . S
C312 C309 1.526 . S
C312 C313 1.396 . S
C312 C317 1.390 . S
C313 C307 1.465 . S
C313 C312 1.396 . S
C313 C314 1.399 . S
C314 H300 0.929 . S
C314 C313 1.399 . S
C314 C315 1.385 . S
C315 H301 0.931 . S
C315 C314 1.385 . S
C315 C316 1.389 . S
C316 C315 1.389 . S
C316 C317 1.387 . S
C317 H302 0.930 . S
C317 C312 1.390 . S
C317 C316 1.387 . S
H318 C330 0.930 . S
H319 C332 0.930 . S
H320 C333 0.930 . S
H321 C337 0.959 . S
H322 C337 0.959 . S
H323 C337 0.961 . S
H324 C338 0.960 . S
H325 C338 0.961 . S
H326 C338 0.959 . S
H327 C341 0.929 . S
H328 C342 0.931 . S
H329 C344 0.930 . S
C330 H318 0.930 . S
C330 C331 1.399 . S
C330 C335 1.399 . S
C331 C330 1.399 . S
C331 C332 1.376 . S
C332 H319 0.930 . S
C332 C331 1.376 . S
C332 C333 1.388 . S
C333 H320 0.930 . S
C333 C332 1.388 . S
C333 C334 1.390 . S
C334 C333 1.390 . S
C334 C335 1.394 . S
C334 C340 1.465 . S
C335 C330 1.399 . S
C335 C334 1.394 . S
C335 C336 1.516 . S
C336 C335 1.516 . S
C336 C337 1.502 . S
C336 C338 1.561 . S
C336 C339 1.526 . S
C337 H321 0.959 . S
C337 H322 0.959 . S
C337 H323 0.961 . S
C337 C336 1.502 . S
C338 H324 0.960 . S
C338 H325 0.961 . S
C338 H326 0.959 . S
C338 C336 1.561 . S
C339 C336 1.526 . S
C339 C340 1.396 . S
C339 C344 1.390 . S
C340 C334 1.465 . S
C340 C339 1.396 . S
C340 C341 1.399 . S
C341 H327 0.929 . S
C341 C340 1.399 . S
C341 C342 1.385 . S
C342 H328 0.931 . S
C342 C341 1.385 . S
C342 C343 1.389 . S
C343 C342 1.389 . S
C343 C344 1.387 . S
C344 H329 0.930 . S
C344 C339 1.390 . S
C344 C343 1.387 . S
H345 C357 0.930 . S
H346 C359 0.930 . S
H347 C360 0.930 . S
H348 C364 0.959 . S
H349 C364 0.959 . S
H350 C364 0.961 . S
H351 C365 0.960 . S
H352 C365 0.961 . S
H353 C365 0.959 . S
H354 C368 0.929 . S
H355 C369 0.931 . S
H356 C371 0.930 . S
C357 H345 0.930 . S
C357 C358 1.399 . S
C357 C362 1.399 . S
C358 C357 1.399 . S
C358 C359 1.376 . S
C359 H346 0.930 . S
C359 C358 1.376 . S
C359 C360 1.388 . S
C360 H347 0.930 . S
C360 C359 1.388 . S
C360 C361 1.390 . S
C361 C360 1.390 . S
C361 C362 1.394 . S
C361 C367 1.465 . S
C362 C357 1.399 . S
C362 C361 1.394 . S
C362 C363 1.516 . S
C363 C362 1.516 . S
C363 C364 1.502 . S
C363 C365 1.561 . S
C363 C366 1.526 . S
C364 H348 0.959 . S
C364 H349 0.959 . S
C364 H350 0.961 . S
C364 C363 1.502 . S
C365 H351 0.960 . S
C365 H352 0.961 . S
C365 H353 0.959 . S
C365 C363 1.561 . S
C366 C363 1.526 . S
C366 C367 1.396 . S
C366 C371 1.390 . S
C367 C361 1.465 . S
C367 C366 1.396 . S
C367 C368 1.399 . S
C368 H354 0.929 . S
C368 C367 1.399 . S
C368 C369 1.385 . S
C369 H355 0.931 . S
C369 C368 1.385 . S
C369 C370 1.389 . S
C370 C369 1.389 . S
C370 C371 1.387 . S
C371 H356 0.930 . S
C371 C366 1.390 . S
C371 C370 1.387 . S
H372 C384 0.930 . S
H373 C386 0.930 . S
H374 C387 0.930 . S
H375 C391 0.959 . S
H376 C391 0.962 . S
H377 C391 0.961 1_655 S
H378 C392 0.960 . S
H379 C392 0.961 . S
H380 C392 0.959 . S
H381 C395 0.929 . S
H382 C396 0.931 . S
H383 C398 0.930 . S
C384 H372 0.930 . S
C384 C385 1.399 . S
C384 C389 1.399 . S
C385 C384 1.399 . S
C385 C386 1.376 . S
C386 H373 0.930 . S
C386 C385 1.376 . S
C386 C387 1.388 . S
C387 H374 0.930 . S
C387 C386 1.388 . S
C387 C388 1.390 . S
C388 C387 1.390 . S
C388 C389 1.394 . S
C388 C394 1.465 . S
C389 C384 1.399 . S
C389 C388 1.394 . S
C389 C390 1.516 . S
C390 C389 1.516 . S
C390 C391 1.502 . S
C390 C392 1.561 . S
C390 C393 1.526 . S
C391 H375 0.959 . S
C391 H376 0.962 . S
C391 H377 0.961 1_455 S
C391 C390 1.502 . S
C392 H378 0.960 . S
C392 H379 0.961 . S
C392 H380 0.959 . S
C392 C390 1.561 . S
C393 C390 1.526 . S
C393 C394 1.396 . S
C393 C398 1.390 . S
C394 C388 1.465 . S
C394 C393 1.396 . S
C394 C395 1.399 . S
C395 H381 0.929 . S
C395 C394 1.399 . S
C395 C396 1.385 . S
C396 H382 0.931 . S
C396 C395 1.385 . S
C396 C397 1.389 . S
C397 C396 1.389 . S
C397 C398 1.387 . S
C398 H383 0.930 . S
C398 C393 1.390 . S
C398 C397 1.387 . S
H399 C411 0.930 . S
H400 C413 0.930 . S
H401 C414 0.930 . S
H402 C418 0.959 . S
H403 C418 0.959 . S
H404 C418 0.961 . S
H405 C419 0.960 . S
H406 C419 0.961 . S
H407 C419 0.959 . S
H408 C422 0.929 . S
H409 C423 0.931 . S
H410 C425 0.930 . S
C411 H399 0.930 . S
C411 C412 1.399 . S
C411 C416 1.399 . S
C412 C411 1.399 . S
C412 C413 1.376 . S
C413 H400 0.930 . S
C413 C412 1.376 . S
C413 C414 1.388 . S
C414 H401 0.930 . S
C414 C413 1.388 . S
C414 C415 1.390 . S
C415 C414 1.390 . S
C415 C416 1.394 . S
C415 C421 1.465 . S
C416 C411 1.399 . S
C416 C415 1.394 . S
C416 C417 1.516 . S
C417 C416 1.516 . S
C417 C418 1.502 . S
C417 C419 1.561 . S
C417 C420 1.526 . S
C418 H402 0.959 . S
C418 H403 0.959 . S
C418 H404 0.961 . S
C418 C417 1.502 . S
C419 H405 0.960 . S
C419 H406 0.961 . S
C419 H407 0.959 . S
C419 C417 1.561 . S
C420 C417 1.526 . S
C420 C421 1.396 . S
C420 C425 1.390 . S
C421 C415 1.465 . S
C421 C420 1.396 . S
C421 C422 1.399 . S
C422 H408 0.929 . S
C422 C421 1.399 . S
C422 C423 1.385 . S
C423 H409 0.931 . S
C423 C422 1.385 . S
C423 C424 1.389 . S
C424 C423 1.389 . S
C424 C425 1.387 . S
C425 H410 0.930 . S
C425 C420 1.390 . S
C425 C424 1.387 . S
H426 C438 0.930 . S
H427 C440 0.930 . S
H428 C441 0.930 . S
H429 C445 0.959 . S
H430 C445 0.959 . S
H431 C445 0.961 . S
H432 C446 0.960 . S
H433 C446 0.961 . S
H434 C446 0.959 . S
H435 C449 0.929 1_545 S
H436 C450 0.931 1_545 S
H437 C452 0.930 . S
C438 H426 0.930 . S
C438 C439 1.399 . S
C438 C443 1.399 . S
C439 C438 1.399 . S
C439 C440 1.376 . S
C440 H427 0.930 . S
C440 C439 1.376 . S
C440 C441 1.388 . S
C441 H428 0.930 . S
C441 C440 1.388 . S
C441 C442 1.390 . S
C442 C441 1.390 . S
C442 C443 1.394 . S
C442 C448 1.465 . S
C443 C438 1.399 . S
C443 C442 1.394 . S
C443 C444 1.516 . S
C444 C443 1.516 . S
C444 C445 1.502 . S
C444 C446 1.561 . S
C444 C447 1.526 . S
C445 H429 0.959 . S
C445 H430 0.959 . S
C445 H431 0.961 . S
C445 C444 1.502 . S
C446 H432 0.960 . S
C446 H433 0.961 . S
C446 H434 0.959 . S
C446 C444 1.561 . S
C447 C444 1.526 . S
C447 C448 1.396 . S
C447 C452 1.390 . S
C448 C442 1.465 . S
C448 C447 1.396 . S
C448 C449 1.399 . S
C449 H435 0.929 1_565 S
C449 C448 1.399 . S
C449 C450 1.385 . S
C450 H436 0.931 1_565 S
C450 C449 1.385 . S
C450 C451 1.389 . S
C451 C450 1.389 . S
C451 C452 1.387 . S
C452 H437 0.930 . S
C452 C447 1.390 . S
C452 C451 1.387 . S
H453 C465 0.930 . S
H454 C467 0.930 . S
H455 C468 0.930 . S
H456 C472 0.959 . S
H457 C472 0.959 1_565 S
H458 C472 0.961 1_565 S
H459 C473 0.960 . S
H460 C473 0.961 1_565 S
H461 C473 0.959 . S
H462 C476 0.929 . S
H463 C477 0.931 . S
H464 C479 0.930 1_565 S
C465 H453 0.930 . S
C465 C466 1.399 . S
C465 C470 1.399 . S
C466 C465 1.399 . S
C466 C467 1.376 . S
C467 H454 0.930 . S
C467 C466 1.376 . S
C467 C468 1.388 . S
C468 H455 0.930 . S
C468 C467 1.388 . S
C468 C469 1.390 . S
C469 C468 1.390 . S
C469 C470 1.394 . S
C469 C475 1.465 . S
C470 C465 1.399 . S
C470 C469 1.394 . S
C470 C471 1.516 . S
C471 C470 1.516 . S
C471 C472 1.502 . S
C471 C473 1.561 . S
C471 C474 1.526 . S
C472 H456 0.959 . S
C472 H457 0.959 1_545 S
C472 H458 0.961 1_545 S
C472 C471 1.502 . S
C473 H459 0.960 . S
C473 H460 0.961 1_545 S
C473 H461 0.959 . S
C473 C471 1.561 . S
C474 C471 1.526 . S
C474 C475 1.396 . S
C474 C479 1.390 . S
C475 C469 1.465 . S
C475 C474 1.396 . S
C475 C476 1.399 . S
C476 H462 0.929 . S
C476 C475 1.399 . S
C476 C477 1.385 . S
C477 H463 0.931 . S
C477 C476 1.385 . S
C477 C478 1.389 . S
C478 C477 1.389 . S
C478 C479 1.387 . S
C479 H464 0.930 1_545 S
C479 C474 1.390 . S
C479 C478 1.387 . S
H480 C492 0.930 . S
H481 C494 0.930 . S
H482 C495 0.930 . S
H483 C499 0.959 . S
H484 C499 0.959 . S
H485 C499 0.961 . S
H486 C500 0.960 . S
H487 C500 0.961 . S
H488 C500 0.959 . S
H489 C503 0.929 . S
H490 C504 0.931 . S
H491 C506 0.930 . S
C492 H480 0.930 . S
C492 C493 1.399 . S
C492 C497 1.399 . S
C493 C492 1.399 . S
C493 C494 1.376 . S
C494 H481 0.930 . S
C494 C493 1.376 . S
C494 C495 1.388 . S
C495 H482 0.930 . S
C495 C494 1.388 . S
C495 C496 1.390 . S
C496 C495 1.390 . S
C496 C497 1.394 . S
C496 C502 1.465 . S
C497 C492 1.399 . S
C497 C496 1.394 . S
C497 C498 1.516 1_545 S
C498 C497 1.516 1_565 S
C498 C499 1.502 . S
C498 C500 1.561 . S
C498 C501 1.526 1_565 S
C499 H483 0.959 . S
C499 H484 0.959 . S
C499 H485 0.961 . S
C499 C498 1.502 . S
C500 H486 0.960 . S
C500 H487 0.961 . S
C500 H488 0.959 . S
C500 C498 1.561 . S
C501 C498 1.526 1_545 S
C501 C502 1.396 . S
C501 C506 1.390 1_545 S
C502 C496 1.465 . S
C502 C501 1.396 . S
C502 C503 1.399 . S
C503 H489 0.929 . S
C503 C502 1.399 . S
C503 C504 1.385 . S
C504 H490 0.931 . S
C504 C503 1.385 . S
C504 C505 1.389 1_545 S
C505 C504 1.389 1_565 S
C505 C506 1.387 . S
C506 H491 0.930 . S
C506 C501 1.390 1_565 S
C506 C505 1.387 . S
H507 C519 0.930 . S
H508 C521 0.930 . S
H509 C522 0.930 . S
H510 C526 0.959 . S
H511 C526 0.959 . S
H512 C526 0.961 . S
H513 C527 0.960 . S
H514 C527 0.961 . S
H515 C527 0.959 . S
H516 C530 0.929 1_545 S
H517 C531 0.931 . S
H518 C533 0.930 . S
C519 H507 0.930 . S
C519 C520 1.399 1_565 S
C519 C524 1.399 . S
C520 C519 1.399 1_545 S
C520 C521 1.376 . S
C521 H508 0.930 . S
C521 C520 1.376 . S
C521 C522 1.388 . S
C522 H509 0.930 . S
C522 C521 1.388 . S
C522 C523 1.390 1_545 S
C523 C522 1.390 1_565 S
C523 C524 1.394 . S
C523 C529 1.465 . S
C524 C519 1.399 . S
C524 C523 1.394 . S
C524 C525 1.516 . S
C525 C524 1.516 . S
C525 C526 1.502 . S
C525 C527 1.561 . S
C525 C528 1.526 . S
C526 H510 0.959 . S
C526 H511 0.959 . S
C526 H512 0.961 . S
C526 C525 1.502 . S
C527 H513 0.960 . S
C527 H514 0.961 . S
C527 H515 0.959 . S
C527 C525 1.561 . S
C528 C525 1.526 . S
C528 C529 1.396 . S
C528 C533 1.390 . S
C529 C523 1.465 . S
C529 C528 1.396 . S
C529 C530 1.399 . S
C530 H516 0.929 1_565 S
C530 C529 1.399 . S
C530 C531 1.385 . S
C531 H517 0.931 . S
C531 C530 1.385 . S
C531 C532 1.389 . S
C532 C531 1.389 . S
C532 C533 1.387 . S
C533 H518 0.930 . S
C533 C528 1.390 . S
C533 C532 1.387 . S
H534 C546 0.930 . S
H535 C548 0.930 . S
H536 C549 0.930 . S
H537 C553 0.959 . S
H538 C553 0.959 . S
H539 C553 0.961 . S
H540 C554 0.960 . S
H541 C554 0.961 . S
H542 C554 0.959 . S
H543 C557 0.929 . S
H544 C558 0.931 . S
H545 C560 0.930 . S
C546 H534 0.930 . S
C546 C547 1.399 . S
C546 C551 1.399 . S
C547 C546 1.399 . S
C547 C548 1.376 . S
C548 H535 0.930 . S
C548 C547 1.376 . S
C548 C549 1.388 . S
C549 H536 0.930 . S
C549 C548 1.388 . S
C549 C550 1.390 . S
C550 C549 1.390 . S
C550 C551 1.394 . S
C550 C556 1.465 . S
C551 C546 1.399 . S
C551 C550 1.394 . S
C551 C552 1.516 . S
C552 C551 1.516 . S
C552 C553 1.502 . S
C552 C554 1.561 . S
C552 C555 1.526 . S
C553 H537 0.959 . S
C553 H538 0.959 . S
C553 H539 0.961 . S
C553 C552 1.502 . S
C554 H540 0.960 . S
C554 H541 0.961 . S
C554 H542 0.959 . S
C554 C552 1.561 . S
C555 C552 1.526 . S
C555 C556 1.396 . S
C555 C560 1.390 . S
C556 C550 1.465 . S
C556 C555 1.396 . S
C556 C557 1.399 . S
C557 H543 0.929 . S
C557 C556 1.399 . S
C557 C558 1.385 . S
C558 H544 0.931 . S
C558 C557 1.385 . S
C558 C559 1.389 . S
C559 C558 1.389 . S
C559 C560 1.387 . S
C560 H545 0.930 . S
C560 C555 1.390 . S
C560 C559 1.387 . S
H561 C573 0.930 . S
H562 C575 0.930 . S
H563 C576 0.930 . S
H564 C580 0.959 . S
H565 C580 0.959 . S
H566 C580 0.961 . S
H567 C581 0.960 . S
H568 C581 0.961 . S
H569 C581 0.959 . S
H570 C584 0.929 . S
H571 C585 0.931 . S
H572 C587 0.930 . S
C573 H561 0.930 . S
C573 C574 1.399 . S
C573 C578 1.399 . S
C574 C573 1.399 . S
C574 C575 1.376 . S
C575 H562 0.930 . S
C575 C574 1.376 . S
C575 C576 1.388 . S
C576 H563 0.930 . S
C576 C575 1.388 . S
C576 C577 1.390 . S
C577 C576 1.390 . S
C577 C578 1.394 . S
C577 C583 1.465 . S
C578 C573 1.399 . S
C578 C577 1.394 . S
C578 C579 1.516 . S
C579 C578 1.516 . S
C579 C580 1.502 . S
C579 C581 1.561 . S
C579 C582 1.526 . S
C580 H564 0.959 . S
C580 H565 0.959 . S
C580 H566 0.961 . S
C580 C579 1.502 . S
C581 H567 0.960 . S
C581 H568 0.961 . S
C581 H569 0.959 . S
C581 C579 1.561 . S
C582 C579 1.526 . S
C582 C583 1.396 . S
C582 C587 1.390 . S
C583 C577 1.465 . S
C583 C582 1.396 . S
C583 C584 1.399 . S
C584 H570 0.929 . S
C584 C583 1.399 . S
C584 C585 1.385 . S
C585 H571 0.931 . S
C585 C584 1.385 . S
C585 C586 1.389 . S
C586 C585 1.389 . S
C586 C587 1.387 . S
C587 H572 0.930 . S
C587 C582 1.390 . S
C587 C586 1.387 . S
H588 C600 0.930 . S
H589 C602 0.930 . S
H590 C603 0.930 . S
H591 C607 0.959 . S
H592 C607 0.959 . S
H593 C607 0.961 . S
H594 C608 0.960 . S
H595 C608 0.961 . S
H596 C608 0.959 . S
H597 C611 0.929 . S
H598 C612 0.931 . S
H599 C614 0.930 . S
C600 H588 0.930 . S
C600 C601 1.399 . S
C600 C605 1.399 . S
C601 C600 1.399 . S
C601 C602 1.376 . S
C602 H589 0.930 . S
C602 C601 1.376 . S
C602 C603 1.388 . S
C603 H590 0.930 . S
C603 C602 1.388 . S
C603 C604 1.390 . S
C604 C603 1.390 . S
C604 C605 1.394 . S
C604 C610 1.465 . S
C605 C600 1.399 . S
C605 C604 1.394 . S
C605 C606 1.516 . S
C606 C605 1.516 . S
C606 C607 1.502 . S
C606 C608 1.561 . S
C606 C609 1.526 . S
C607 H591 0.959 . S
C607 H592 0.959 . S
C607 H593 0.961 . S
C607 C606 1.502 . S
C608 H594 0.960 . S
C608 H595 0.961 . S
C608 H596 0.959 . S
C608 C606 1.561 . S
C609 C606 1.526 . S
C609 C610 1.396 . S
C609 C614 1.390 . S
C610 C604 1.465 . S
C610 C609 1.396 . S
C610 C611 1.399 . S
C611 H597 0.929 . S
C611 C610 1.399 . S
C611 C612 1.385 . S
C612 H598 0.931 . S
C612 C611 1.385 . S
C612 C613 1.389 . S
C613 C612 1.389 . S
C613 C614 1.387 . S
C614 H599 0.930 . S
C614 C609 1.390 . S
C614 C613 1.387 . S
H615 C627 0.930 . S
H616 C629 0.930 . S
H617 C630 0.930 . S
H618 C634 0.959 . S
H619 C634 0.959 . S
H620 C634 0.961 . S
H621 C635 0.960 . S
H622 C635 0.961 . S
H623 C635 0.959 . S
H624 C638 0.929 . S
H625 C639 0.931 . S
H626 C641 0.930 . S
C627 H615 0.930 . S
C627 C628 1.399 . S
C627 C632 1.399 . S
C628 C627 1.399 . S
C628 C629 1.376 . S
C629 H616 0.930 . S
C629 C628 1.376 . S
C629 C630 1.388 . S
C630 H617 0.930 . S
C630 C629 1.388 . S
C630 C631 1.390 . S
C631 C630 1.390 . S
C631 C632 1.394 . S
C631 C637 1.465 . S
C632 C627 1.399 . S
C632 C631 1.394 . S
C632 C633 1.516 . S
C633 C632 1.516 . S
C633 C634 1.502 . S
C633 C635 1.561 . S
C633 C636 1.526 . S
C634 H618 0.959 . S
C634 H619 0.959 . S
C634 H620 0.961 . S
C634 C633 1.502 . S
C635 H621 0.960 . S
C635 H622 0.961 . S
C635 H623 0.959 . S
C635 C633 1.561 . S
C636 C633 1.526 . S
C636 C637 1.396 . S
C636 C641 1.390 . S
C637 C631 1.465 . S
C637 C636 1.396 . S
C637 C638 1.399 . S
C638 H624 0.929 . S
C638 C637 1.399 . S
C638 C639 1.385 . S
C639 H625 0.931 . S
C639 C638 1.385 . S
C639 C640 1.389 . S
C640 C639 1.389 . S
C640 C641 1.387 . S
C641 H626 0.930 . S
C641 C636 1.390 . S
C641 C640 1.387 . S
H642 C654 0.930 . S
H643 C656 0.930 1_545 S
H644 C657 0.930 . S
H645 C661 0.959 . S
H646 C661 0.959 . S
H647 C661 0.961 . S
H648 C662 0.960 . S
H649 C662 0.961 . S
H650 C662 0.959 . S
H651 C665 0.929 . S
H652 C666 0.931 . S
H653 C668 0.930 . S
C654 H642 0.930 . S
C654 C655 1.399 . S
C654 C659 1.399 . S
C655 C654 1.399 . S
C655 C656 1.376 . S
C656 H643 0.930 1_565 S
C656 C655 1.376 . S
C656 C657 1.388 . S
C657 H644 0.930 . S
C657 C656 1.388 . S
C657 C658 1.390 . S
C658 C657 1.390 . S
C658 C659 1.394 . S
C658 C664 1.465 . S
C659 C654 1.399 . S
C659 C658 1.394 . S
C659 C660 1.516 . S
C660 C659 1.516 . S
C660 C661 1.502 . S
C660 C662 1.561 . S
C660 C663 1.526 . S
C661 H645 0.959 . S
C661 H646 0.959 . S
C661 H647 0.961 . S
C661 C660 1.502 . S
C662 H648 0.960 . S
C662 H649 0.961 . S
C662 H650 0.959 . S
C662 C660 1.561 . S
C663 C660 1.526 . S
C663 C664 1.396 . S
C663 C668 1.390 . S
C664 C658 1.465 . S
C664 C663 1.396 . S
C664 C665 1.399 . S
C665 H651 0.929 . S
C665 C664 1.399 . S
C665 C666 1.385 . S
C666 H652 0.931 . S
C666 C665 1.385 . S
C666 C667 1.389 . S
C667 C666 1.389 . S
C667 C668 1.387 . S
C668 H653 0.930 . S
C668 C663 1.390 . S
C668 C667 1.387 . S
H669 C681 0.930 . S
H670 C683 0.930 1_565 S
H671 C684 0.930 . S
H672 C688 0.959 . S
H673 C688 0.959 . S
H674 C688 0.961 . S
H675 C689 0.960 . S
H676 C689 0.961 . S
H677 C689 0.959 . S
H678 C692 0.929 . S
H679 C693 0.931 . S
H680 C695 0.930 . S
C681 H669 0.930 . S
C681 C682 1.399 . S
C681 C686 1.399 . S
C682 C681 1.399 . S
C682 C683 1.376 . S
C683 H670 0.930 1_545 S
C683 C682 1.376 . S
C683 C684 1.388 . S
C684 H671 0.930 . S
C684 C683 1.388 . S
C684 C685 1.390 . S
C685 C684 1.390 . S
C685 C686 1.394 . S
C685 C691 1.465 . S
C686 C681 1.399 . S
C686 C685 1.394 . S
C686 C687 1.516 . S
C687 C686 1.516 . S
C687 C688 1.502 . S
C687 C689 1.561 . S
C687 C690 1.526 . S
C688 H672 0.959 . S
C688 H673 0.959 . S
C688 H674 0.961 . S
C688 C687 1.502 . S
C689 H675 0.960 . S
C689 H676 0.961 . S
C689 H677 0.959 . S
C689 C687 1.561 . S
C690 C687 1.526 . S
C690 C691 1.396 . S
C690 C695 1.390 . S
C691 C685 1.465 . S
C691 C690 1.396 . S
C691 C692 1.399 . S
C692 H678 0.929 . S
C692 C691 1.399 . S
C692 C693 1.385 . S
C693 H679 0.931 . S
C693 C692 1.385 . S
C693 C694 1.389 . S
C694 C693 1.389 . S
C694 C695 1.387 . S
C695 H680 0.930 . S
C695 C690 1.390 . S
C695 C694 1.387 . S
H696 C708 0.930 . S
H697 C710 0.930 . S
H698 C711 0.930 . S
H699 C715 0.959 1_655 S
H700 C715 0.959 . S
H701 C715 0.961 . S
H702 C716 0.960 . S
H703 C716 0.961 . S
H704 C716 0.966 1_554 S
H705 C719 0.929 . S
H706 C720 0.931 . S
H707 C722 0.929 1_556 S
C708 H696 0.930 . S
C708 C709 1.399 1_556 S
C708 C713 1.389 1_556 S
C709 C708 1.399 1_554 S
C709 C710 1.376 1_455 S
C710 H697 0.930 . S
C710 C709 1.376 1_655 S
C710 C711 1.388 . S
C711 H698 0.930 . S
C711 C710 1.388 . S
C711 C712 1.390 . S
C712 C711 1.390 . S
C712 C713 1.416 1_655 S
C712 C718 1.465 . S
C713 C708 1.389 1_554 S
C713 C712 1.416 1_455 S
C713 C714 1.507 1_554 S
C714 C713 1.507 1_556 S
C714 C715 1.502 . S
C714 C716 1.561 . S
C714 C717 1.526 1_556 S
C715 H699 0.959 1_455 S
C715 H700 0.959 . S
C715 H701 0.961 . S
C715 C714 1.502 . S
C716 H702 0.960 . S
C716 H703 0.961 . S
C716 H704 0.966 1_556 S
C716 C714 1.561 . S
C717 C714 1.526 1_554 S
C717 C718 1.396 1_455 S
C717 C722 1.389 . S
C718 C712 1.465 . S
C718 C717 1.396 1_655 S
C718 C719 1.399 . S
C719 H705 0.929 . S
C719 C718 1.399 . S
C719 C720 1.385 . S
C720 H706 0.931 . S
C720 C719 1.385 . S
C720 C721 1.389 . S
C721 C720 1.389 . S
C721 C722 1.387 1_655 S
C722 H707 0.929 1_554 S
C722 C717 1.389 . S
C722 C721 1.387 1_455 S
H723 C735 0.930 . S
H724 C737 0.930 . S
H725 C738 0.930 . S
H726 C742 0.959 . S
H727 C742 0.959 . S
H728 C742 0.961 . S
H729 C743 0.960 . S
H730 C743 0.961 . S
H731 C743 0.959 . S
H732 C746 0.929 . S
H733 C747 0.931 . S
H734 C749 0.930 . S
C735 H723 0.930 . S
C735 C736 1.399 . S
C735 C740 1.399 . S
C736 C735 1.399 . S
C736 C737 1.376 . S
C737 H724 0.930 . S
C737 C736 1.376 . S
C737 C738 1.388 . S
C738 H725 0.930 . S
C738 C737 1.388 . S
C738 C739 1.390 . S
C739 C738 1.390 . S
C739 C740 1.394 . S
C739 C745 1.465 . S
C740 C735 1.399 . S
C740 C739 1.394 . S
C740 C741 1.516 . S
C741 C740 1.516 . S
C741 C742 1.502 . S
C741 C743 1.561 . S
C741 C744 1.526 . S
C742 H726 0.959 . S
C742 H727 0.959 . S
C742 H728 0.961 . S
C742 C741 1.502 . S
C743 H729 0.960 . S
C743 H730 0.961 . S
C743 H731 0.959 . S
C743 C741 1.561 . S
C744 C741 1.526 . S
C744 C745 1.396 . S
C744 C749 1.390 . S
C745 C739 1.465 . S
C745 C744 1.396 . S
C745 C746 1.399 . S
C746 H732 0.929 . S
C746 C745 1.399 . S
C746 C747 1.385 . S
C747 H733 0.931 . S
C747 C746 1.385 . S
C747 C748 1.389 . S
C748 C747 1.389 . S
C748 C749 1.387 . S
C749 H734 0.930 . S
C749 C744 1.390 . S
C749 C748 1.387 . S
H750 C762 0.930 . S
H751 C764 0.930 . S
H752 C765 0.930 . S
H753 C769 0.959 . S
H754 C769 0.959 . S
H755 C769 0.961 . S
H756 C770 0.960 . S
H757 C770 0.961 . S
H758 C770 0.959 . S
H759 C773 0.929 . S
H760 C774 0.931 . S
H761 C776 0.930 . S
C762 H750 0.930 . S
C762 C763 1.399 . S
C762 C767 1.399 . S
C763 C762 1.399 . S
C763 C764 1.376 . S
C764 H751 0.930 . S
C764 C763 1.376 . S
C764 C765 1.388 . S
C765 H752 0.930 . S
C765 C764 1.388 . S
C765 C766 1.390 . S
C766 C765 1.390 . S
C766 C767 1.394 . S
C766 C772 1.465 . S
C767 C762 1.399 . S
C767 C766 1.394 . S
C767 C768 1.516 . S
C768 C767 1.516 . S
C768 C769 1.502 . S
C768 C770 1.561 . S
C768 C771 1.526 . S
C769 H753 0.959 . S
C769 H754 0.959 . S
C769 H755 0.961 . S
C769 C768 1.502 . S
C770 H756 0.960 . S
C770 H757 0.961 . S
C770 H758 0.959 . S
C770 C768 1.561 . S
C771 C768 1.526 . S
C771 C772 1.396 . S
C771 C776 1.390 . S
C772 C766 1.465 . S
C772 C771 1.396 . S
C772 C773 1.399 . S
C773 H759 0.929 . S
C773 C772 1.399 . S
C773 C774 1.385 . S
C774 H760 0.931 . S
C774 C773 1.385 . S
C774 C775 1.389 . S
C775 C774 1.389 . S
C775 C776 1.387 . S
C776 H761 0.930 . S
C776 C771 1.390 . S
C776 C775 1.387 . S
H777 C789 0.930 . S
H778 C791 0.930 . S
H779 C792 0.930 . S
H780 C796 0.959 . S
H781 C796 0.959 1_545 S
H782 C796 0.961 . S
H783 C797 0.960 . S
H784 C797 0.961 1_545 S
H785 C797 0.959 . S
H786 C800 0.929 . S
H787 C801 0.931 . S
H788 C803 0.930 . S
C789 H777 0.930 . S
C789 C790 1.399 . S
C789 C794 1.399 . S
C790 C789 1.399 . S
C790 C791 1.376 1_655 S
C791 H778 0.930 . S
C791 C790 1.376 1_455 S
C791 C792 1.388 . S
C792 H779 0.930 . S
C792 C791 1.388 . S
C792 C793 1.393 . S
C793 C792 1.393 . S
C793 C794 1.390 1_455 S
C793 C799 1.466 1_565 S
C794 C789 1.399 . S
C794 C793 1.390 1_655 S
C794 C795 1.516 . S
C795 C794 1.516 . S
C795 C796 1.502 1_655 S
C795 C797 1.561 . S
C795 C798 1.526 1_565 S
C796 H780 0.959 . S
C796 H781 0.959 1_565 S
C796 H782 0.961 . S
C796 C795 1.502 1_455 S
C797 H783 0.960 . S
C797 H784 0.961 1_565 S
C797 H785 0.959 . S
C797 C795 1.561 . S
C798 C795 1.526 1_545 S
C798 C799 1.396 1_655 S
C798 C803 1.390 . S
C799 C793 1.466 1_545 S
C799 C798 1.396 1_455 S
C799 C800 1.399 . S
C800 H786 0.929 . S
C800 C799 1.399 . S
C800 C801 1.385 . S
C801 H787 0.931 . S
C801 C800 1.385 . S
C801 C802 1.389 . S
C802 C801 1.389 . S
C802 C803 1.387 1_455 S
C803 H788 0.930 . S
C803 C798 1.390 . S
C803 C802 1.387 1_655 S
H804 C816 0.930 . S
H805 C818 0.930 1_565 S
H806 C819 0.930 . S
H807 C823 0.959 . S
H808 C823 0.959 . S
H809 C823 0.961 . S
H810 C824 0.960 . S
H811 C824 0.961 . S
H812 C824 0.959 . S
H813 C827 0.929 . S
H814 C828 0.931 . S
H815 C830 0.930 . S
C816 H804 0.930 . S
C816 C817 1.399 . S
C816 C821 1.399 . S
C817 C816 1.399 . S
C817 C818 1.376 . S
C818 H805 0.930 1_545 S
C818 C817 1.376 . S
C818 C819 1.388 . S
C819 H806 0.930 . S
C819 C818 1.388 . S
C819 C820 1.390 . S
C820 C819 1.390 . S
C820 C821 1.394 . S
C820 C826 1.465 . S
C821 C816 1.399 . S
C821 C820 1.394 . S
C821 C822 1.516 . S
C822 C821 1.516 . S
C822 C823 1.502 . S
C822 C824 1.561 . S
C822 C825 1.526 . S
C823 H807 0.959 . S
C823 H808 0.959 . S
C823 H809 0.961 . S
C823 C822 1.502 . S
C824 H810 0.960 . S
C824 H811 0.961 . S
C824 H812 0.959 . S
C824 C822 1.561 . S
C825 C822 1.526 . S
C825 C826 1.396 . S
C825 C830 1.390 . S
C826 C820 1.465 . S
C826 C825 1.396 . S
C826 C827 1.399 . S
C827 H813 0.929 . S
C827 C826 1.399 . S
C827 C828 1.385 . S
C828 H814 0.931 . S
C828 C827 1.385 . S
C828 C829 1.389 . S
C829 C828 1.389 . S
C829 C830 1.387 . S
C830 H815 0.930 . S
C830 C825 1.390 . S
C830 C829 1.387 . S
H831 C843 0.930 . S
H832 C845 0.930 . S
H833 C846 0.930 . S
H834 C850 0.959 . S
H835 C850 0.959 . S
H836 C850 0.961 . S
H837 C851 0.960 . S
H838 C851 0.961 . S
H839 C851 0.959 . S
H840 C854 0.929 . S
H841 C855 0.931 . S
H842 C857 0.930 . S
C843 H831 0.930 . S
C843 C844 1.399 . S
C843 C848 1.399 . S
C844 C843 1.399 . S
C844 C845 1.376 . S
C845 H832 0.930 . S
C845 C844 1.376 . S
C845 C846 1.388 . S
C846 H833 0.930 . S
C846 C845 1.388 . S
C846 C847 1.390 . S
C847 C846 1.390 . S
C847 C848 1.394 . S
C847 C853 1.465 . S
C848 C843 1.399 . S
C848 C847 1.394 . S
C848 C849 1.516 . S
C849 C848 1.516 . S
C849 C850 1.502 . S
C849 C851 1.561 . S
C849 C852 1.526 . S
C850 H834 0.959 . S
C850 H835 0.959 . S
C850 H836 0.961 . S
C850 C849 1.502 . S
C851 H837 0.960 . S
C851 H838 0.961 . S
C851 H839 0.959 . S
C851 C849 1.561 . S
C852 C849 1.526 . S
C852 C853 1.396 . S
C852 C857 1.390 . S
C853 C847 1.465 . S
C853 C852 1.396 . S
C853 C854 1.399 . S
C854 H840 0.929 . S
C854 C853 1.399 . S
C854 C855 1.385 . S
C855 H841 0.931 . S
C855 C854 1.385 . S
C855 C856 1.389 . S
C856 C855 1.389 . S
C856 C857 1.387 . S
C857 H842 0.930 . S
C857 C852 1.390 . S
C857 C856 1.387 . S
H858 C870 0.930 . S
H859 C872 0.930 . S
H860 C873 0.930 . S
H861 C877 0.959 . S
H862 C877 0.959 . S
H863 C877 0.961 . S
H864 C878 0.960 . S
H865 C878 0.961 . S
H866 C878 0.959 . S
H867 C881 0.929 . S
H868 C882 0.931 . S
H869 C884 0.930 . S
C870 H858 0.930 . S
C870 C871 1.399 . S
C870 C875 1.399 . S
C871 C870 1.399 . S
C871 C872 1.376 . S
C872 H859 0.930 . S
C872 C871 1.376 . S
C872 C873 1.388 . S
C873 H860 0.930 . S
C873 C872 1.388 . S
C873 C874 1.390 . S
C874 C873 1.390 . S
C874 C875 1.394 . S
C874 C880 1.465 . S
C875 C870 1.399 . S
C875 C874 1.394 . S
C875 C876 1.516 . S
C876 C875 1.516 . S
C876 C877 1.502 . S
C876 C878 1.561 . S
C876 C879 1.526 . S
C877 H861 0.959 . S
C877 H862 0.959 . S
C877 H863 0.961 . S
C877 C876 1.502 . S
C878 H864 0.960 . S
C878 H865 0.961 . S
C878 H866 0.959 . S
C878 C876 1.561 . S
C879 C876 1.526 . S
C879 C880 1.396 . S
C879 C884 1.390 . S
C880 C874 1.465 . S
C880 C879 1.396 . S
C880 C881 1.399 . S
C881 H867 0.929 . S
C881 C880 1.399 . S
C881 C882 1.385 . S
C882 H868 0.931 . S
C882 C881 1.385 . S
C882 C883 1.389 . S
C883 C882 1.389 . S
C883 C884 1.387 . S
C884 H869 0.930 . S
C884 C879 1.390 . S
C884 C883 1.387 . S
H885 C897 0.930 . S
H886 C899 0.930 . S
H887 C900 0.930 . S
H888 C904 0.959 . S
H889 C904 0.959 1_545 S
H890 C904 0.961 . S
H891 C905 0.960 . S
H892 C905 0.961 1_545 S
H893 C905 0.959 . S
H894 C908 0.929 . S
H895 C909 0.931 . S
H896 C911 0.930 . S
C897 H885 0.930 . S
C897 C898 1.399 1_556 S
C897 C902 1.403 1_556 S
C898 C897 1.399 1_554 S
C898 C899 1.376 . S
C899 H886 0.930 . S
C899 C898 1.376 . S
C899 C900 1.388 . S
C900 H887 0.930 . S
C900 C899 1.388 . S
C900 C901 1.390 . S
C901 C900 1.390 . S
C901 C902 1.454 . S
C901 C907 1.465 1_565 S
C902 C897 1.403 1_554 S
C902 C901 1.454 . S
C902 C903 1.461 1_554 S
C903 C902 1.461 1_556 S
C903 C904 1.502 . S
C903 C905 1.561 . S
C903 C906 1.552 1_565 S
C904 H888 0.959 . S
C904 H889 0.959 1_565 S
C904 H890 0.961 . S
C904 C903 1.502 . S
C905 H891 0.960 . S
C905 H892 0.961 1_565 S
C905 H893 0.959 . S
C905 C903 1.561 . S
C906 C903 1.552 1_545 S
C906 C907 1.341 1_556 S
C906 C911 1.413 . S
C907 C901 1.465 1_545 S
C907 C906 1.341 1_554 S
C907 C908 1.399 . S
C908 H894 0.929 . S
C908 C907 1.399 . S
C908 C909 1.385 . S
C909 H895 0.931 . S
C909 C908 1.385 . S
C909 C910 1.389 . S
C910 C909 1.389 . S
C910 C911 1.387 1_554 S
C911 H896 0.930 . S
C911 C906 1.413 . S
C911 C910 1.387 1_556 S
H912 C924 0.930 1_556 S
H913 C926 0.930 . S
H914 C927 0.930 . S
H915 C931 0.959 . S
H916 C931 0.959 . S
H917 C931 0.961 . S
H918 C932 0.960 . S
H919 C932 0.961 . S
H920 C932 0.959 . S
H921 C935 0.929 . S
H922 C936 0.931 . S
H923 C938 0.930 . S
C924 H912 0.930 1_554 S
C924 C925 1.399 . S
C924 C929 1.399 . S
C925 C924 1.399 . S
C925 C926 1.376 . S
C926 H913 0.930 . S
C926 C925 1.376 . S
C926 C927 1.388 . S
C927 H914 0.930 . S
C927 C926 1.388 . S
C927 C928 1.390 . S
C928 C927 1.390 . S
C928 C929 1.394 . S
C928 C934 1.465 . S
C929 C924 1.399 . S
C929 C928 1.394 . S
C929 C930 1.516 1_554 S
C930 C929 1.516 1_556 S
C930 C931 1.502 . S
C930 C932 1.561 . S
C930 C933 1.526 . S
C931 H915 0.959 . S
C931 H916 0.959 . S
C931 H917 0.961 . S
C931 C930 1.502 . S
C932 H918 0.960 . S
C932 H919 0.961 . S
C932 H920 0.959 . S
C932 C930 1.561 . S
C933 C930 1.526 . S
C933 C934 1.396 1_556 S
C933 C938 1.390 . S
C934 C928 1.465 . S
C934 C933 1.396 1_554 S
C934 C935 1.399 . S
C935 H921 0.929 . S
C935 C934 1.399 . S
C935 C936 1.385 . S
C936 H922 0.931 . S
C936 C935 1.385 . S
C936 C937 1.389 . S
C937 C936 1.389 . S
C937 C938 1.387 1_554 S
C938 H923 0.930 . S
C938 C933 1.390 . S
C938 C937 1.387 1_556 S
H939 C951 0.930 . S
H940 C953 0.930 . S
H941 C954 0.930 . S
H942 C958 0.959 . S
H943 C958 0.959 . S
H944 C958 0.961 . S
H945 C959 0.960 . S
H946 C959 0.961 . S
H947 C959 0.959 . S
H948 C962 0.929 . S
H949 C963 0.931 . S
H950 C965 0.938 . S
C951 H939 0.930 . S
C951 C952 1.399 . S
C951 C956 1.399 . S
C952 C951 1.399 . S
C952 C953 1.376 . S
C953 H940 0.930 . S
C953 C952 1.376 . S
C953 C954 1.388 . S
C954 H941 0.930 . S
C954 C953 1.388 . S
C954 C955 1.390 . S
C955 C954 1.390 . S
C955 C956 1.394 . S
C955 C961 1.465 . S
C956 C951 1.399 . S
C956 C955 1.394 . S
C956 C957 1.517 1_554 S
C957 C956 1.517 1_556 S
C957 C958 1.502 1_556 S
C957 C959 1.560 . S
C957 C960 1.526 1_556 S
C958 H942 0.959 . S
C958 H943 0.959 . S
C958 H944 0.961 . S
C958 C957 1.502 1_554 S
C959 H945 0.960 . S
C959 H946 0.961 . S
C959 H947 0.959 . S
C959 C957 1.560 . S
C960 C957 1.526 1_554 S
C960 C961 1.396 . S
C960 C965 1.387 1_554 S
C961 C955 1.465 . S
C961 C960 1.396 . S
C961 C962 1.399 . S
C962 H948 0.929 . S
C962 C961 1.399 . S
C962 C963 1.385 . S
C963 H949 0.931 . S
C963 C962 1.385 . S
C963 C964 1.389 . S
C964 C963 1.389 . S
C964 C965 1.381 1_554 S
C965 H950 0.938 . S
C965 C960 1.387 1_556 S
C965 C964 1.381 1_556 S
H966 C978 0.930 . S
H967 C980 0.930 . S
H968 C981 0.930 . S
H969 C985 0.959 . S
H970 C985 0.959 . S
H971 C985 0.961 . S
H972 C986 0.960 . S
H973 C986 0.961 1_655 S
H974 C986 0.959 1_655 S
H975 C989 0.929 . S
H976 C990 0.931 . S
H977 C992 0.930 . S
C978 H966 0.930 . S
C978 C979 1.399 . S
C978 C983 1.399 . S
C979 C978 1.399 . S
C979 C980 1.376 . S
C980 H967 0.930 . S
C980 C979 1.376 . S
C980 C981 1.388 . S
C981 H968 0.930 . S
C981 C980 1.388 . S
C981 C982 1.390 . S
C982 C981 1.390 . S
C982 C983 1.394 . S
C982 C988 1.465 1_455 S
C983 C978 1.399 . S
C983 C982 1.394 . S
C983 C984 1.516 . S
C984 C983 1.516 . S
C984 C985 1.502 . S
C984 C986 1.561 . S
C984 C987 1.526 1_455 S
C985 H969 0.959 . S
C985 H970 0.959 . S
C985 H971 0.961 . S
C985 C984 1.502 . S
C986 H972 0.960 . S
C986 H973 0.961 1_455 S
C986 H974 0.959 1_455 S
C986 C984 1.561 . S
C987 C984 1.526 1_655 S
C987 C988 1.396 . S
C987 C992 1.390 . S
C988 C982 1.465 1_655 S
C988 C987 1.396 . S
C988 C989 1.399 . S
C989 H975 0.929 . S
C989 C988 1.399 . S
C989 C990 1.385 . S
C990 H976 0.931 . S
C990 C989 1.385 . S
C990 C991 1.389 . S
C991 C990 1.389 . S
C991 C992 1.387 . S
C992 H977 0.930 . S
C992 C987 1.390 . S
C992 C991 1.387 . S
H993 C1005 0.930 . S
H994 C1007 0.930 . S
H995 C1008 0.930 . S
H996 C1012 0.959 . S
H997 C1012 0.959 . S
H998 C1012 0.961 . S
H999 C1013 0.960 . S
H1000 C1013 0.961 . S
H1001 C1013 0.959 . S
H1002 C1016 0.929 . S
H1003 C1017 0.931 . S
H1004 C1019 0.930 . S
C1005 H993 0.930 . S
C1005 C1006 1.399 . S
C1005 C1010 1.399 . S
C1006 C1005 1.399 . S
C1006 C1007 1.376 . S
C1007 H994 0.930 . S
C1007 C1006 1.376 . S
C1007 C1008 1.388 . S
C1008 H995 0.930 . S
C1008 C1007 1.388 . S
C1008 C1009 1.390 . S
C1009 C1008 1.390 . S
C1009 C1010 1.394 . S
C1009 C1015 1.465 . S
C1010 C1005 1.399 . S
C1010 C1009 1.394 . S
C1010 C1011 1.516 . S
C1011 C1010 1.516 . S
C1011 C1012 1.502 . S
C1011 C1013 1.561 . S
C1011 C1014 1.526 . S
C1012 H996 0.959 . S
C1012 H997 0.959 . S
C1012 H998 0.961 . S
C1012 C1011 1.502 . S
C1013 H999 0.960 . S
C1013 H1000 0.961 . S
C1013 H1001 0.959 . S
C1013 C1011 1.561 . S
C1014 C1011 1.526 . S
C1014 C1015 1.396 . S
C1014 C1019 1.390 . S
C1015 C1009 1.465 . S
C1015 C1014 1.396 . S
C1015 C1016 1.399 . S
C1016 H1002 0.929 . S
C1016 C1015 1.399 . S
C1016 C1017 1.385 . S
C1017 H1003 0.931 . S
C1017 C1016 1.385 . S
C1017 C1018 1.389 . S
C1018 C1017 1.389 . S
C1018 C1019 1.387 . S
C1019 H1004 0.930 . S
C1019 C1014 1.390 . S
C1019 C1018 1.387 . S
H1020 C1032 0.930 . S
H1021 C1034 0.930 . S
H1022 C1035 0.930 . S
H1023 C1039 0.959 . S
H1024 C1039 0.959 . S
H1025 C1039 0.961 . S
H1026 C1040 0.960 . S
H1027 C1040 0.961 . S
H1028 C1040 0.959 . S
H1029 C1043 0.929 . S
H1030 C1044 0.931 . S
H1031 C1046 0.930 . S
C1032 H1020 0.930 . S
C1032 C1033 1.399 . S
C1032 C1037 1.399 . S
C1033 C1032 1.399 . S
C1033 C1034 1.376 . S
C1034 H1021 0.930 . S
C1034 C1033 1.376 . S
C1034 C1035 1.388 . S
C1035 H1022 0.930 . S
C1035 C1034 1.388 . S
C1035 C1036 1.390 . S
C1036 C1035 1.390 . S
C1036 C1037 1.394 . S
C1036 C1042 1.465 . S
C1037 C1032 1.399 . S
C1037 C1036 1.394 . S
C1037 C1038 1.516 . S
C1038 C1037 1.516 . S
C1038 C1039 1.502 . S
C1038 C1040 1.561 . S
C1038 C1041 1.526 . S
C1039 H1023 0.959 . S
C1039 H1024 0.959 . S
C1039 H1025 0.961 . S
C1039 C1038 1.502 . S
C1040 H1026 0.960 . S
C1040 H1027 0.961 . S
C1040 H1028 0.959 . S
C1040 C1038 1.561 . S
C1041 C1038 1.526 . S
C1041 C1042 1.396 . S
C1041 C1046 1.390 . S
C1042 C1036 1.465 . S
C1042 C1041 1.396 . S
C1042 C1043 1.399 . S
C1043 H1029 0.929 . S
C1043 C1042 1.399 . S
C1043 C1044 1.385 . S
C1044 H1030 0.931 . S
C1044 C1043 1.385 . S
C1044 C1045 1.389 . S
C1045 C1044 1.389 . S
C1045 C1046 1.387 . S
C1046 H1031 0.930 . S
C1046 C1041 1.390 . S
C1046 C1045 1.387 . S
H1047 C1059 0.930 . S
H1048 C1061 0.930 . S
H1049 C1062 0.930 . S
H1050 C1066 0.959 . S
H1051 C1066 0.959 1_455 S
H1052 C1066 0.961 . S
H1053 C1067 0.960 . S
H1054 C1067 0.961 . S
H1055 C1067 0.959 . S
H1056 C1070 0.929 . S
H1057 C1071 0.931 . S
H1058 C1073 0.930 . S
C1059 H1047 0.930 . S
C1059 C1060 1.399 . S
C1059 C1064 1.399 . S
C1060 C1059 1.399 . S
C1060 C1061 1.376 . S
C1061 H1048 0.930 . S
C1061 C1060 1.376 . S
C1061 C1062 1.388 . S
C1062 H1049 0.930 . S
C1062 C1061 1.388 . S
C1062 C1063 1.390 . S
C1063 C1062 1.390 . S
C1063 C1064 1.394 . S
C1063 C1069 1.465 1_645 S
C1064 C1059 1.399 . S
C1064 C1063 1.394 . S
C1064 C1065 1.516 1_655 S
C1065 C1064 1.516 1_455 S
C1065 C1066 1.502 1_445 S
C1065 C1067 1.561 . S
C1065 C1068 1.526 1_545 S
C1066 H1050 0.959 . S
C1066 H1051 0.959 1_655 S
C1066 H1052 0.961 . S
C1066 C1065 1.502 1_665 S
C1067 H1053 0.960 . S
C1067 H1054 0.961 . S
C1067 H1055 0.959 . S
C1067 C1065 1.561 . S
C1068 C1065 1.526 1_565 S
C1068 C1069 1.396 . S
C1068 C1073 1.390 . S
C1069 C1063 1.465 1_465 S
C1069 C1068 1.396 . S
C1069 C1070 1.399 . S
C1070 H1056 0.929 . S
C1070 C1069 1.399 . S
C1070 C1071 1.385 . S
C1071 H1057 0.931 . S
C1071 C1070 1.385 . S
C1071 C1072 1.389 . S
C1072 C1071 1.389 . S
C1072 C1073 1.387 . S
C1073 H1058 0.930 . S
C1073 C1068 1.390 . S
C1073 C1072 1.387 . S
H1074 C1086 0.930 . S
H1075 C1088 0.930 . S
H1076 C1089 0.930 . S
H1077 C1093 0.959 . S
H1078 C1093 0.959 . S
H1079 C1093 0.961 . S
H1080 C1094 0.960 . S
H1081 C1094 0.961 . S
H1082 C1094 0.959 . S
H1083 C1097 0.929 . S
H1084 C1098 0.931 . S
H1085 C1100 0.930 . S
C1086 H1074 0.930 . S
C1086 C1087 1.399 . S
C1086 C1091 1.399 . S
C1087 C1086 1.399 . S
C1087 C1088 1.376 . S
C1088 H1075 0.930 . S
C1088 C1087 1.376 . S
C1088 C1089 1.388 . S
C1089 H1076 0.930 . S
C1089 C1088 1.388 . S
C1089 C1090 1.390 . S
C1090 C1089 1.390 . S
C1090 C1091 1.394 . S
C1090 C1096 1.465 . S
C1091 C1086 1.399 . S
C1091 C1090 1.394 . S
C1091 C1092 1.516 . S
C1092 C1091 1.516 . S
C1092 C1093 1.502 . S
C1092 C1094 1.561 . S
C1092 C1095 1.526 . S
C1093 H1077 0.959 . S
C1093 H1078 0.959 . S
C1093 H1079 0.961 . S
C1093 C1092 1.502 . S
C1094 H1080 0.960 . S
C1094 H1081 0.961 . S
C1094 H1082 0.959 . S
C1094 C1092 1.561 . S
C1095 C1092 1.526 . S
C1095 C1096 1.396 . S
C1095 C1100 1.390 . S
C1096 C1090 1.465 . S
C1096 C1095 1.396 . S
C1096 C1097 1.399 . S
C1097 H1083 0.929 . S
C1097 C1096 1.399 . S
C1097 C1098 1.385 . S
C1098 H1084 0.931 . S
C1098 C1097 1.385 . S
C1098 C1099 1.389 . S
C1099 C1098 1.389 . S
C1099 C1100 1.387 . S
C1100 H1085 0.930 . S
C1100 C1095 1.390 . S
C1100 C1099 1.387 . S
H1101 C1113 0.930 . S
H1102 C1115 0.930 1_545 S
H1103 C1116 0.930 . S
H1104 C1120 0.959 . S
H1105 C1120 0.959 . S
H1106 C1120 0.961 . S
H1107 C1121 0.960 . S
H1108 C1121 0.961 . S
H1109 C1121 0.959 . S
H1110 C1124 0.929 . S
H1111 C1125 0.931 . S
H1112 C1127 0.930 1_565 S
C1113 H1101 0.930 . S
C1113 C1114 1.399 . S
C1113 C1118 1.399 . S
C1114 C1113 1.399 . S
C1114 C1115 1.376 . S
C1115 H1102 0.930 1_565 S
C1115 C1114 1.376 . S
C1115 C1116 1.388 1_565 S
C1116 H1103 0.930 . S
C1116 C1115 1.388 1_545 S
C1116 C1117 1.390 . S
C1117 C1116 1.390 . S
C1117 C1118 1.394 1_545 S
C1117 C1123 1.465 . S
C1118 C1113 1.399 . S
C1118 C1117 1.394 1_565 S
C1118 C1119 1.516 . S
C1119 C1118 1.516 . S
C1119 C1120 1.502 . S
C1119 C1121 1.561 . S
C1119 C1122 1.526 . S
C1120 H1104 0.959 . S
C1120 H1105 0.959 . S
C1120 H1106 0.961 . S
C1120 C1119 1.502 . S
C1121 H1107 0.960 . S
C1121 H1108 0.961 . S
C1121 H1109 0.959 . S
C1121 C1119 1.561 . S
C1122 C1119 1.526 . S
C1122 C1123 1.396 1_565 S
C1122 C1127 1.390 1_565 S
C1123 C1117 1.465 . S
C1123 C1122 1.396 1_545 S
C1123 C1124 1.399 . S
C1124 H1110 0.929 . S
C1124 C1123 1.399 . S
C1124 C1125 1.385 . S
C1125 H1111 0.931 . S
C1125 C1124 1.385 . S
C1125 C1126 1.389 . S
C1126 C1125 1.389 . S
C1126 C1127 1.387 . S
C1127 H1112 0.930 1_545 S
C1127 C1122 1.390 1_545 S
C1127 C1126 1.387 . S
C277 C28 1.681 . S
C289 C58 1.676 . S
C304 C25 2.014 . S
C316 C94 2.049 . S
C331 C120 1.698 . S
C343 C57 1.635 . S
C358 C87 2.059 . S
C370 C123 2.030 . S
C385 C127 1.624 . S
C397 C157 1.702 . S
C412 C193 2.042 . S
C424 C124 2.065 . S
C439 C156 1.659 . S
C451 C21 1.687 . S
C466 C186 2.069 . S
C478 C24 2.020 . S
C493 C190 1.685 . S
C505 C226 1.645 . S
C520 C223 2.064 . S
C532 C160 2.014 . S
C547 C252 1.699 . S
C559 C189 1.634 . S
C574 C255 2.065 . S
C586 C153 2.022 . S
C601 C259 1.679 . S
C613 C91 1.679 . S
C628 C61 2.063 . S
C640 C256 2.005 . S
C655 C219 1.702 . S
C667 C90 1.626 . S
C682 C222 2.083 . S
C694 C54 2.003 . S
C709 C27 1.063 . S
C721 C23 1.155 . S
C736 C60 1.046 . S
C748 C56 1.183 1_565 S
C763 C93 1.182 1_545 S
C775 C89 1.048 . S
C790 C122 1.158 . S
C802 C126 1.062 . S
C817 C159 1.047 1_545 S
C829 C155 1.179 . S
C844 C192 1.049 . S
C856 C188 1.174 1_565 S
C871 C225 1.186 . S
C883 C221 1.050 . S
C898 C254 1.137 . S
C910 C258 1.080 . S
C925 C257 0.806 . S
C937 C22 0.844 1_554 S
C952 C26 0.854 . S
C964 C253 0.796 1_554 S
C979 C59 0.810 . S
C991 C88 0.807 . S
C1006 C224 0.790 . S
C1018 C121 0.828 . S
C1033 C125 0.816 . S
C1045 C220 0.803 . S
C1060 C187 0.760 . S
C1072 C158 0.864 . S
C1087 C191 0.779 . S
C1099 C154 0.864 . S
C1114 C92 0.869 . S
C1126 C55 0.772 . S
