# Generated by pormake.
# Topology mok, (4)-cn, num edge types: 1
# Building blocks:
#     Node 0, Type 0, BuildingBlock: CEKHIL_clean_sbu_0, # of connection points: 4
#     Node 1, Type 0, BuildingBlock: CEKHIL_clean_sbu_0, # of connection points: 4
#     Node 2, Type 0, BuildingBlock: CEKHIL_clean_sbu_0, # of connection points: 4
#     Node 3, Type 0, BuildingBlock: CEKHIL_clean_sbu_0, # of connection points: 4
#     Node 4, Type 0, BuildingBlock: CEKHIL_clean_sbu_0, # of connection points: 4
#     Node 5, Type 0, BuildingBlock: CEKHIL_clean_sbu_0, # of connection points: 4
#     Node 6, Type 0, BuildingBlock: CEKHIL_clean_sbu_0, # of connection points: 4
#     Node 7, Type 0, BuildingBlock: CEKHIL_clean_sbu_0, # of connection points: 4
#     Edge 8, Type (0, 0), BuildingBlock: OJICUG_clean_linker_0, # of connection points: 2
#     Edge 9, Type (0, 0), BuildingBlock: OJICUG_clean_linker_0, # of connection points: 2
#     Edge 10, Type (0, 0), BuildingBlock: OJICUG_clean_linker_0, # of connection points: 2
#     Edge 11, Type (0, 0), BuildingBlock: OJICUG_clean_linker_0, # of connection points: 2
#     Edge 12, Type (0, 0), BuildingBlock: OJICUG_clean_linker_0, # of connection points: 2
#     Edge 13, Type (0, 0), BuildingBlock: OJICUG_clean_linker_0, # of connection points: 2
#     Edge 14, Type (0, 0), BuildingBlock: OJICUG_clean_linker_0, # of connection points: 2
#     Edge 15, Type (0, 0), BuildingBlock: OJICUG_clean_linker_0, # of connection points: 2
#     Edge 16, Type (0, 0), BuildingBlock: OJICUG_clean_linker_0, # of connection points: 2
#     Edge 17, Type (0, 0), BuildingBlock: OJICUG_clean_linker_0, # of connection points: 2
#     Edge 18, Type (0, 0), BuildingBlock: OJICUG_clean_linker_0, # of connection points: 2
#     Edge 19, Type (0, 0), BuildingBlock: OJICUG_clean_linker_0, # of connection points: 2
#     Edge 20, Type (0, 0), BuildingBlock: OJICUG_clean_linker_0, # of connection points: 2
#     Edge 21, Type (0, 0), BuildingBlock: OJICUG_clean_linker_0, # of connection points: 2
#     Edge 22, Type (0, 0), BuildingBlock: OJICUG_clean_linker_0, # of connection points: 2
#     Edge 23, Type (0, 0), BuildingBlock: OJICUG_clean_linker_0, # of connection points: 2
# Relax obj value: 0.017
# Max RMSD: 0.041
# Mean RMSD: 0.041
data_MOF--net-mok--node1-CEKHIL_clean_sbu_0--edge1-OJICUG_clean_linker_0
_symmetry_space_group_name_H-M    P1
_symmetry_Int_Tables_number       1
_symmetry_cell_setting            triclinic
loop_
_symmetry_equiv_pos_as_xyz
'x, y, z'
_cell_length_a     38.511126
_cell_length_b     11.022763
_cell_length_c     19.622876
_cell_angle_alpha  89.998921
_cell_angle_beta   90.001036
_cell_angle_gamma 89.98027
loop_
_atom_site_label
_atom_site_type_symbol
_atom_site_fract_x
_atom_site_fract_y
_atom_site_fract_z
_atom_type_partial_charge
Co0 Co 0.62077 0.30982 0.05007 0.0
O1 O 0.57115 0.29134 0.04457 0.0
O2 O 0.60919 0.14839 0.01811 0.0
C3 C 0.62141 0.39491 0.15376 0.0
O4 O 0.67379 0.29577 0.05205 0.0
Co5 Co 0.65333 0.56747 0.05993 0.0
O6 O 0.69732 0.47804 0.07551 0.0
C7 C 0.62465 0.48123 0.92964 0.0
C8 C 0.57685 0.18118 0.0243 0.0
C9 C 0.70016 0.36427 0.06516 0.0
O10 O 0.62178 0.37366 0.95434 0.0
O11 O 0.63359 0.57329 0.96536 0.0
O12 O 0.61954 0.27773 0.14755 0.0
O13 O 0.61969 0.45617 0.09783 0.0
Co14 Co 0.41836 0.71644 0.04901 0.0
O15 O 0.46791 0.7362 0.04357 0.0
O16 O 0.42961 0.87845 0.01734 0.0
C17 C 0.41788 0.63094 0.1526 0.0
O18 O 0.3653 0.72867 0.05102 0.0
Co19 Co 0.38661 0.45737 0.05852 0.0
O20 O 0.34244 0.54537 0.07461 0.0
C21 C 0.41487 0.54558 0.92827 0.0
C22 C 0.46202 0.84634 0.02353 0.0
C23 C 0.33919 0.65902 0.06429 0.0
O24 O 0.41748 0.65309 0.95316 0.0
O25 O 0.40626 0.45297 0.96385 0.0
O26 O 0.41949 0.74817 0.14653 0.0
O27 O 0.41982 0.56996 0.09661 0.0
Co28 Co 0.62077 0.71641 0.51815 0.0
O29 O 0.57122 0.73625 0.52356 0.0
O30 O 0.60951 0.87848 0.54972 0.0
C31 C 0.62126 0.63077 0.41459 0.0
O32 O 0.67382 0.72855 0.51615 0.0
Co33 Co 0.65252 0.45726 0.50882 0.0
O34 O 0.69674 0.54505 0.49314 0.0
C35 C 0.62421 0.54572 0.63896 0.0
C36 C 0.5771 0.84642 0.54353 0.0
C37 C 0.69996 0.65877 0.50322 0.0
O38 O 0.62164 0.65321 0.61403 0.0
O39 O 0.6328 0.45301 0.60343 0.0
O40 O 0.61965 0.74801 0.42062 0.0
O41 O 0.61932 0.56985 0.47061 0.0
Co42 Co 0.41822 0.30985 0.51711 0.0
O43 O 0.46785 0.29142 0.5224 0.0
O44 O 0.42988 0.14842 0.54899 0.0
C45 C 0.41746 0.39505 0.41344 0.0
O46 O 0.36521 0.29571 0.51538 0.0
Co47 Co 0.38556 0.56741 0.50745 0.0
O48 O 0.34157 0.47793 0.49211 0.0
C49 C 0.4144 0.48109 0.6376 0.0
C50 C 0.46221 0.18125 0.54268 0.0
C51 C 0.33879 0.36415 0.50245 0.0
O52 O 0.41729 0.37357 0.61286 0.0
O53 O 0.4054 0.57318 0.60196 0.0
O54 O 0.41936 0.27787 0.41961 0.0
O55 O 0.41922 0.45626 0.46938 0.0
Co56 Co 0.12062 0.80338 0.05075 0.0
O57 O 0.07106 0.7836 0.04548 0.0
O58 O 0.10934 0.64149 0.01893 0.0
C59 C 0.12121 0.88858 0.15442 0.0
O60 O 0.17368 0.79121 0.05248 0.0
Co61 Co 0.15232 0.06253 0.06029 0.0
O62 O 0.19661 0.9747 0.07538 0.0
C63 C 0.12394 0.9746 0.93013 0.0
C64 C 0.07693 0.67358 0.02523 0.0
C65 C 0.19983 0.861 0.0652 0.0
O66 O 0.12138 0.86703 0.95495 0.0
O67 O 0.13254 0.06717 0.96574 0.0
O68 O 0.1196 0.77135 0.14826 0.0
O69 O 0.1192 0.9497 0.09848 0.0
Co70 Co 0.91813 0.21012 0.05001 0.0
O71 O 0.96774 0.22859 0.04463 0.0
O72 O 0.92973 0.37169 0.01831 0.0
C73 C 0.91746 0.12464 0.1536 0.0
O74 O 0.86511 0.22418 0.05194 0.0
Co75 Co 0.88556 0.95246 0.05953 0.0
O76 O 0.84158 0.04184 0.07523 0.0
C77 C 0.9143 0.03919 0.92939 0.0
C78 C 0.96207 0.33886 0.02456 0.0
C79 C 0.83874 0.15565 0.065 0.0
O80 O 0.91715 0.14668 0.95419 0.0
O81 O 0.90536 0.947 0.965 0.0
O82 O 0.91932 0.24184 0.14751 0.0
O83 O 0.9192 0.06356 0.09761 0.0
Co84 Co 0.1209 0.2099 0.51883 0.0
O85 O 0.07129 0.22848 0.52422 0.0
O86 O 0.10931 0.37149 0.55053 0.0
C87 C 0.1216 0.1244 0.41526 0.0
O88 O 0.17392 0.22388 0.51687 0.0
Co89 Co 0.15348 0.95219 0.50942 0.0
O90 O 0.19746 0.04148 0.49365 0.0
C91 C 0.12465 0.03899 0.63946 0.0
C92 C 0.07696 0.33874 0.5443 0.0
C93 C 0.20029 0.1553 0.5038 0.0
O94 O 0.12187 0.1465 0.61466 0.0
O95 O 0.13358 0.94674 0.60388 0.0
O96 O 0.11972 0.24159 0.42133 0.0
O97 O 0.11984 0.06332 0.47125 0.0
Co98 Co 0.91845 0.80354 0.5181 0.0
O99 O 0.968 0.78378 0.52361 0.0
O100 O 0.92971 0.64164 0.54994 0.0
C101 C 0.91797 0.88878 0.41444 0.0
O102 O 0.8654 0.79129 0.51608 0.0
Co103 Co 0.88664 0.06258 0.50837 0.0
O104 O 0.84246 0.97457 0.49256 0.0
C105 C 0.91488 0.9747 0.63871 0.0
C106 C 0.96212 0.67373 0.54379 0.0
C107 C 0.83926 0.86091 0.5029 0.0
O108 O 0.91753 0.86715 0.61389 0.0
O109 O 0.90625 0.06723 0.60306 0.0
O110 O 0.9196 0.77156 0.42059 0.0
O111 O 0.91988 0.94988 0.47039 0.0
C112 C 0.77373 0.13426 0.06691 0.0
C113 C 0.80333 0.20946 0.06642 0.0
H114 H 0.71818 0.12343 0.06654 0.0
C115 C 0.79859 0.33582 0.06643 0.0
H116 H 0.77631 0.03642 0.06673 0.0
C117 C 0.76516 0.38566 0.06682 0.0
C118 C 0.73557 0.31046 0.06651 0.0
H119 H 0.82071 0.39649 0.06623 0.0
H120 H 0.76259 0.4835 0.06656 0.0
C121 C 0.7403 0.1841 0.0666 0.0
C122 C 0.24066 0.68283 0.06761 0.0
C123 C 0.23544 0.8089 0.06628 0.0
H124 H 0.27724 0.53693 0.0686 0.0
C125 C 0.26473 0.88552 0.06518 0.0
H126 H 0.21878 0.62114 0.06868 0.0
C127 C 0.29835 0.8373 0.06464 0.0
C128 C 0.30358 0.71121 0.06588 0.0
H129 H 0.26176 0.9832 0.06389 0.0
H130 H 0.32021 0.89902 0.0633 0.0
C131 C 0.27429 0.63463 0.06775 0.0
C132 C 0.77434 0.88527 0.5005 0.0
C133 C 0.80366 0.80871 0.50154 0.0
H134 H 0.71884 0.8987 0.50056 0.0
C135 C 0.79848 0.68259 0.50223 0.0
H136 H 0.77727 0.98299 0.50013 0.0
C137 C 0.76487 0.63433 0.50199 0.0
C138 C 0.73555 0.71092 0.50176 0.0
H139 H 0.82037 0.62089 0.50289 0.0
H140 H 0.76194 0.53662 0.50281 0.0
C141 C 0.74074 0.83702 0.50095 0.0
C142 C 0.2653 0.13399 0.5019 0.0
C143 C 0.23568 0.20914 0.50215 0.0
H144 H 0.32085 0.12326 0.50213 0.0
C145 C 0.24037 0.3355 0.50159 0.0
H146 H 0.26275 0.03615 0.50251 0.0
C147 C 0.27378 0.3854 0.50087 0.0
C148 C 0.3034 0.31026 0.5014 0.0
H149 H 0.21823 0.39613 0.50158 0.0
H150 H 0.27632 0.48325 0.50069 0.0
C151 C 0.29871 0.18389 0.50187 0.0
C152 C 0.62486 0.58202 0.2246 0.0
C153 C 0.62406 0.45486 0.22043 0.0
H154 H 0.62473 0.73765 0.28969 0.0
C155 C 0.62429 0.38593 0.28054 0.0
H156 H 0.62482 0.63738 0.17898 0.0
C157 C 0.62424 0.44335 0.34387 0.0
C158 C 0.62396 0.57054 0.34801 0.0
H159 H 0.62378 0.28773 0.27874 0.0
H160 H 0.62371 0.38803 0.38948 0.0
C161 C 0.62481 0.63942 0.28791 0.0
C162 C 0.41427 0.63965 0.27929 0.0
C163 C 0.41511 0.57076 0.21919 0.0
H164 H 0.41419 0.63758 0.38822 0.0
C165 C 0.41473 0.44357 0.22334 0.0
H166 H 0.41441 0.73787 0.27751 0.0
C167 C 0.41461 0.38615 0.28666 0.0
C168 C 0.41485 0.45506 0.34677 0.0
H169 H 0.41525 0.38825 0.17772 0.0
H170 H 0.41505 0.28794 0.28846 0.0
C171 C 0.41413 0.58223 0.34261 0.0
C172 C 0.42 0.6305 0.81056 0.0
C173 C 0.4194 0.52934 0.85413 0.0
H174 H 0.41898 0.69471 0.70786 0.0
C175 C 0.42068 0.41237 0.82575 0.0
H176 H 0.41926 0.72193 0.83075 0.0
C177 C 0.42069 0.39678 0.75523 0.0
C178 C 0.41914 0.49783 0.71167 0.0
H179 H 0.42068 0.33252 0.85793 0.0
H180 H 0.42051 0.3053 0.73506 0.0
C181 C 0.41973 0.61489 0.74003 0.0
C182 C 0.61814 0.39708 0.81201 0.0
C183 C 0.61994 0.49808 0.85557 0.0
H184 H 0.61795 0.33284 0.70931 0.0
C185 C 0.6196 0.61516 0.8272 0.0
H186 H 0.61811 0.3056 0.83218 0.0
C187 C 0.61933 0.63078 0.75668 0.0
C188 C 0.61967 0.52961 0.71311 0.0
H189 H 0.62055 0.69497 0.85936 0.0
H190 H 0.62028 0.72217 0.73648 0.0
C191 C 0.61815 0.41268 0.74149 0.0
C192 C 0.12448 0.07581 0.2252 0.0
C193 C 0.124 0.94864 0.22104 0.0
H194 H 0.12422 0.23143 0.29031 0.0
C195 C 0.12473 0.87971 0.28113 0.0
H196 H 0.12405 0.13117 0.17959 0.0
C197 C 0.12485 0.93712 0.34446 0.0
C198 C 0.12422 0.06429 0.34862 0.0
H199 H 0.12451 0.78149 0.27933 0.0
H200 H 0.1247 0.88177 0.39008 0.0
C201 C 0.12458 0.13321 0.28851 0.0
C202 C 0.91467 0.07604 0.34367 0.0
C203 C 0.91519 0.94886 0.34782 0.0
H204 H 0.91485 0.23166 0.27856 0.0
C205 C 0.91447 0.87994 0.28772 0.0
H206 H 0.91509 0.13138 0.38928 0.0
C207 C 0.91432 0.93736 0.2244 0.0
C208 C 0.91489 0.06454 0.22025 0.0
H209 H 0.91473 0.78172 0.28952 0.0
H210 H 0.91447 0.88202 0.17878 0.0
C211 C 0.91453 0.13344 0.28035 0.0
C212 C 0.92009 0.8899 0.75643 0.0
C213 C 0.91937 0.99104 0.71285 0.0
H214 H 0.91915 0.82568 0.85912 0.0
C215 C 0.92048 0.10804 0.74124 0.0
H216 H 0.91947 0.79846 0.73625 0.0
C217 C 0.92046 0.12364 0.81176 0.0
C218 C 0.91904 0.02256 0.85532 0.0
H219 H 0.92037 0.18788 0.70905 0.0
H220 H 0.92015 0.21511 0.83193 0.0
C221 C 0.91979 0.90551 0.82695 0.0
C222 C 0.11868 0.88977 0.81242 0.0
C223 C 0.11941 0.99092 0.85598 0.0
H224 H 0.11967 0.82551 0.70974 0.0
C225 C 0.11832 0.10791 0.82758 0.0
H226 H 0.11927 0.79833 0.83262 0.0
C227 C 0.11839 0.12349 0.75706 0.0
C228 C 0.11983 0.02239 0.71352 0.0
H229 H 0.11843 0.18777 0.85976 0.0
H230 H 0.11872 0.21495 0.73688 0.0
C231 C 0.11903 0.90535 0.7419 0.0
C232 C 0.48523 0.0579 0.01236 0.0
C233 C 0.49113 0.93227 0.01369 0.0
H234 H 0.50785 0.2353 0.01468 0.0
C235 C 0.52553 0.88928 0.01157 0.0
H236 H 0.45905 0.09377 0.0139 0.0
C237 C 0.55351 0.97023 0.01138 0.0
C238 C 0.54763 0.09579 0.01416 0.0
H239 H 0.53092 0.79281 0.0121 0.0
H240 H 0.57969 0.93426 0.01211 0.0
C241 C 0.51322 0.13887 0.01301 0.0
C242 C 0.5136 0.88942 0.55561 0.0
C243 C 0.54799 0.9324 0.55331 0.0
H244 H 0.45944 0.93439 0.5552 0.0
C245 C 0.55386 0.05804 0.5544 0.0
H246 H 0.50823 0.79295 0.55526 0.0
C247 C 0.52586 0.139 0.55371 0.0
C248 C 0.49145 0.09591 0.55276 0.0
H249 H 0.58003 0.0939 0.5527 0.0
H250 H 0.53121 0.23542 0.55186 0.0
C251 C 0.48561 0.97036 0.55576 0.0
C252 C 1.01342 0.63085 0.01308 0.0
C253 C 0.04782 0.58778 0.01513 0.0
H254 H 0.95926 0.58593 0.01329 0.0
C255 C 0.0537 0.46216 0.01334 0.0
H256 H 1.00805 0.72731 0.01396 0.0
C257 C 0.02571 0.38123 0.0136 0.0
C258 C 0.99129 0.42434 0.01479 0.0
H259 H 0.07987 0.42624 0.01481 0.0
H260 H 0.03106 0.28477 0.01492 0.0
C261 C 0.98543 0.54994 0.01249 0.0
C262 C 0.05361 0.54984 0.55652 0.0
C263 C 0.04774 0.42427 0.55413 0.0
H264 H 0.03101 0.72728 0.55517 0.0
C265 C 1.01333 0.38125 0.5553 0.0
H266 H 0.07979 0.58576 0.55575 0.0
C267 C 0.98534 0.46225 0.55562 0.0
C268 C 0.99123 0.58786 0.55391 0.0
H269 H 1.00797 0.28481 0.55393 0.0
H270 H 0.95917 0.4264 0.55412 0.0
C271 C 0.02563 0.63083 0.55599 0.0
loop_
_geom_bond_atom_site_label_1
_geom_bond_atom_site_label_2
_geom_bond_distance
_geom_bond_site_symmetry_2
_ccdc_geom_bond_type
Co0 O1 2.216 . S
Co0 O2 2.091 . S
Co0 O4 2.004 . S
Co0 O10 2.021 1_554 S
Co0 O12 2.137 . S
Co0 O13 2.244 . S
O1 Co0 2.216 . S
O1 C8 1.247 . S
O2 Co0 2.091 . S
O2 C8 1.261 . S
C3 O12 1.247 . S
C3 O13 1.272 . S
O4 Co0 2.004 . S
O4 C9 1.259 . S
Co5 O6 2.061 . S
Co5 O11 2.052 1_554 S
Co5 O13 2.135 . S
O6 Co5 2.061 . S
O6 C9 1.235 . S
C7 O10 1.238 . S
C7 O11 1.241 . S
C8 O1 1.247 . S
C8 O2 1.261 . S
C9 O4 1.259 . S
C9 O6 1.235 . S
O10 Co0 2.021 1_556 S
O10 C7 1.238 . S
O11 Co5 2.052 1_556 S
O11 C7 1.241 . S
O12 Co0 2.137 . S
O12 C3 1.247 . S
O13 Co0 2.244 . S
O13 C3 1.272 . S
O13 Co5 2.135 . S
Co14 O15 2.216 . S
Co14 O16 2.091 . S
Co14 O18 2.004 . S
Co14 O24 2.021 1_554 S
Co14 O26 2.137 . S
Co14 O27 2.244 . S
O15 Co14 2.216 . S
O15 C22 1.247 . S
O16 Co14 2.091 . S
O16 C22 1.261 . S
C17 O26 1.247 . S
C17 O27 1.272 . S
O18 Co14 2.004 . S
O18 C23 1.259 . S
Co19 O20 2.061 . S
Co19 O25 2.052 1_554 S
Co19 O27 2.135 . S
O20 Co19 2.061 . S
O20 C23 1.235 . S
C21 O24 1.238 . S
C21 O25 1.241 . S
C22 O15 1.247 . S
C22 O16 1.261 . S
C23 O18 1.259 . S
C23 O20 1.235 . S
O24 Co14 2.021 1_556 S
O24 C21 1.238 . S
O25 Co19 2.052 1_556 S
O25 C21 1.241 . S
O26 Co14 2.137 . S
O26 C17 1.247 . S
O27 Co14 2.244 . S
O27 C17 1.272 . S
O27 Co19 2.135 . S
Co28 O29 2.216 . S
Co28 O30 2.091 . S
Co28 O32 2.004 . S
Co28 O38 2.021 . S
Co28 O40 2.137 . S
Co28 O41 2.244 . S
O29 Co28 2.216 . S
O29 C36 1.247 . S
O30 Co28 2.091 . S
O30 C36 1.261 . S
C31 O40 1.247 . S
C31 O41 1.272 . S
O32 Co28 2.004 . S
O32 C37 1.259 . S
Co33 O34 2.061 . S
Co33 O39 2.052 . S
Co33 O41 2.135 . S
O34 Co33 2.061 . S
O34 C37 1.235 . S
C35 O38 1.238 . S
C35 O39 1.241 . S
C36 O29 1.247 . S
C36 O30 1.261 . S
C37 O32 1.259 . S
C37 O34 1.235 . S
O38 Co28 2.021 . S
O38 C35 1.238 . S
O39 Co33 2.052 . S
O39 C35 1.241 . S
O40 Co28 2.137 . S
O40 C31 1.247 . S
O41 Co28 2.244 . S
O41 C31 1.272 . S
O41 Co33 2.135 . S
Co42 O43 2.216 . S
Co42 O44 2.091 . S
Co42 O46 2.004 . S
Co42 O52 2.021 . S
Co42 O54 2.137 . S
Co42 O55 2.244 . S
O43 Co42 2.216 . S
O43 C50 1.247 . S
O44 Co42 2.091 . S
O44 C50 1.261 . S
C45 O54 1.247 . S
C45 O55 1.272 . S
O46 Co42 2.004 . S
O46 C51 1.259 . S
Co47 O48 2.061 . S
Co47 O53 2.052 . S
Co47 O55 2.135 . S
O48 Co47 2.061 . S
O48 C51 1.235 . S
C49 O52 1.238 . S
C49 O53 1.241 . S
C50 O43 1.247 . S
C50 O44 1.261 . S
C51 O46 1.259 . S
C51 O48 1.235 . S
O52 Co42 2.021 . S
O52 C49 1.238 . S
O53 Co47 2.052 . S
O53 C49 1.241 . S
O54 Co42 2.137 . S
O54 C45 1.247 . S
O55 Co42 2.244 . S
O55 C45 1.272 . S
O55 Co47 2.135 . S
Co56 O57 2.216 . S
Co56 O58 2.091 . S
Co56 O60 2.004 . S
Co56 O66 2.021 1_554 S
Co56 O68 2.137 . S
Co56 O69 2.244 . S
O57 Co56 2.216 . S
O57 C64 1.247 . S
O58 Co56 2.091 . S
O58 C64 1.261 . S
C59 O68 1.247 . S
C59 O69 1.272 . S
O60 Co56 2.004 . S
O60 C65 1.259 . S
Co61 O62 2.061 1_545 S
Co61 O67 2.052 1_554 S
Co61 O69 2.135 1_545 S
O62 Co61 2.061 1_565 S
O62 C65 1.235 . S
C63 O66 1.238 . S
C63 O67 1.241 1_565 S
C64 O57 1.247 . S
C64 O58 1.261 . S
C65 O60 1.259 . S
C65 O62 1.235 . S
O66 Co56 2.021 1_556 S
O66 C63 1.238 . S
O67 Co61 2.052 1_556 S
O67 C63 1.241 1_545 S
O68 Co56 2.137 . S
O68 C59 1.247 . S
O69 Co56 2.244 . S
O69 C59 1.272 . S
O69 Co61 2.135 1_565 S
Co70 O71 2.216 . S
Co70 O72 2.091 . S
Co70 O74 2.004 . S
Co70 O80 2.021 1_554 S
Co70 O82 2.137 . S
Co70 O83 2.244 . S
O71 Co70 2.216 . S
O71 C78 1.247 . S
O72 Co70 2.091 . S
O72 C78 1.261 . S
C73 O82 1.247 . S
C73 O83 1.272 . S
O74 Co70 2.004 . S
O74 C79 1.259 . S
Co75 O76 2.061 1_565 S
Co75 O81 2.052 1_554 S
Co75 O83 2.135 1_565 S
O76 Co75 2.061 1_545 S
O76 C79 1.235 . S
C77 O80 1.238 . S
C77 O81 1.241 1_545 S
C78 O71 1.247 . S
C78 O72 1.261 . S
C79 O74 1.259 . S
C79 O76 1.235 . S
O80 Co70 2.021 1_556 S
O80 C77 1.238 . S
O81 Co75 2.052 1_556 S
O81 C77 1.241 1_565 S
O82 Co70 2.137 . S
O82 C73 1.247 . S
O83 Co70 2.244 . S
O83 C73 1.272 . S
O83 Co75 2.135 1_545 S
Co84 O85 2.216 . S
Co84 O86 2.091 . S
Co84 O88 2.004 . S
Co84 O94 2.021 . S
Co84 O96 2.137 . S
Co84 O97 2.244 . S
O85 Co84 2.216 . S
O85 C92 1.247 . S
O86 Co84 2.091 . S
O86 C92 1.261 . S
C87 O96 1.247 . S
C87 O97 1.272 . S
O88 Co84 2.004 . S
O88 C93 1.259 . S
Co89 O90 2.061 1_565 S
Co89 O95 2.052 . S
Co89 O97 2.135 1_565 S
O90 Co89 2.061 1_545 S
O90 C93 1.235 . S
C91 O94 1.238 . S
C91 O95 1.241 1_545 S
C92 O85 1.247 . S
C92 O86 1.261 . S
C93 O88 1.259 . S
C93 O90 1.235 . S
O94 Co84 2.021 . S
O94 C91 1.238 . S
O95 Co89 2.052 . S
O95 C91 1.241 1_565 S
O96 Co84 2.137 . S
O96 C87 1.247 . S
O97 Co84 2.244 . S
O97 C87 1.272 . S
O97 Co89 2.135 1_545 S
Co98 O99 2.216 . S
Co98 O100 2.091 . S
Co98 O102 2.004 . S
Co98 O108 2.021 . S
Co98 O110 2.137 . S
Co98 O111 2.244 . S
O99 Co98 2.216 . S
O99 C106 1.247 . S
O100 Co98 2.091 . S
O100 C106 1.261 . S
C101 O110 1.247 . S
C101 O111 1.272 . S
O102 Co98 2.004 . S
O102 C107 1.259 . S
Co103 O104 2.061 1_545 S
Co103 O109 2.052 . S
Co103 O111 2.135 1_545 S
O104 Co103 2.061 1_565 S
O104 C107 1.235 . S
C105 O108 1.238 . S
C105 O109 1.241 1_565 S
C106 O99 1.247 . S
C106 O100 1.261 . S
C107 O102 1.259 . S
C107 O104 1.235 . S
O108 Co98 2.021 . S
O108 C105 1.238 . S
O109 Co103 2.052 . S
O109 C105 1.241 1_545 S
O110 Co98 2.137 . S
O110 C101 1.247 . S
O111 Co98 2.244 . S
O111 C101 1.272 . S
O111 Co103 2.135 1_565 S
C112 C113 1.387 . S
C112 H116 0.950 . S
C112 C121 1.390 . S
C113 C112 1.387 . S
C113 C115 1.387 1_554 S
H114 C121 0.950 . S
C115 C113 1.387 1_556 S
C115 C117 1.390 . S
C115 H119 0.950 . S
H116 C112 0.950 . S
C117 C115 1.390 . S
C117 C118 1.387 1_556 S
C117 H120 0.950 . S
C118 C117 1.387 1_554 S
C118 C121 1.387 . S
H119 C115 0.950 . S
H120 C117 0.950 . S
C121 C112 1.390 . S
C121 H114 0.950 . S
C121 C118 1.387 . S
C122 C123 1.387 . S
C122 H126 0.950 . S
C122 C131 1.390 . S
C123 C122 1.387 . S
C123 C125 1.387 1_554 S
H124 C131 0.950 . S
C125 C123 1.387 1_556 S
C125 C127 1.390 . S
C125 H129 0.950 . S
H126 C122 0.950 . S
C127 C125 1.390 . S
C127 C128 1.387 1_556 S
C127 H130 0.950 . S
C128 C127 1.387 1_554 S
C128 C131 1.387 . S
H129 C125 0.950 . S
H130 C127 0.950 . S
C131 C122 1.390 . S
C131 H124 0.950 . S
C131 C128 1.387 . S
C132 C133 1.387 . S
C132 H136 0.950 . S
C132 C141 1.390 . S
C133 C132 1.387 . S
C133 C135 1.387 . S
H134 C141 0.950 . S
C135 C133 1.387 . S
C135 C137 1.390 . S
C135 H139 0.950 . S
H136 C132 0.950 . S
C137 C135 1.390 . S
C137 C138 1.387 . S
C137 H140 0.950 . S
C138 C137 1.387 . S
C138 C141 1.387 . S
H139 C135 0.950 . S
H140 C137 0.950 . S
C141 C132 1.390 . S
C141 H134 0.950 . S
C141 C138 1.387 . S
C142 C143 1.387 . S
C142 H146 0.950 . S
C142 C151 1.390 . S
C143 C142 1.387 . S
C143 C145 1.387 . S
H144 C151 0.950 . S
C145 C143 1.387 . S
C145 C147 1.390 . S
C145 H149 0.950 . S
H146 C142 0.950 . S
C147 C145 1.390 . S
C147 C148 1.387 . S
C147 H150 0.950 . S
C148 C147 1.387 . S
C148 C151 1.387 . S
H149 C145 0.950 . S
H150 C147 0.950 . S
C151 C142 1.390 . S
C151 H144 0.950 . S
C151 C148 1.387 . S
C152 C153 1.387 . S
C152 H156 0.950 . S
C152 C161 1.390 . S
C153 C152 1.387 . S
C153 C155 1.387 . S
H154 C161 0.950 . S
C155 C153 1.387 . S
C155 C157 1.390 . S
C155 H159 0.950 . S
H156 C152 0.950 . S
C157 C155 1.390 . S
C157 C158 1.387 . S
C157 H160 0.950 . S
C158 C157 1.387 . S
C158 C161 1.387 . S
H159 C155 0.950 . S
H160 C157 0.950 . S
C161 C152 1.390 . S
C161 H154 0.950 . S
C161 C158 1.387 . S
C162 C163 1.387 . S
C162 H166 0.950 . S
C162 C171 1.390 . S
C163 C162 1.387 . S
C163 C165 1.387 . S
H164 C171 0.950 . S
C165 C163 1.387 . S
C165 C167 1.390 . S
C165 H169 0.950 . S
H166 C162 0.950 . S
C167 C165 1.390 . S
C167 C168 1.387 . S
C167 H170 0.950 . S
C168 C167 1.387 . S
C168 C171 1.387 . S
H169 C165 0.950 . S
H170 C167 0.950 . S
C171 C162 1.390 . S
C171 H164 0.950 . S
C171 C168 1.387 . S
C172 C173 1.387 . S
C172 H176 0.950 . S
C172 C181 1.390 . S
C173 C172 1.387 . S
C173 C175 1.387 . S
H174 C181 0.950 . S
C175 C173 1.387 . S
C175 C177 1.390 . S
C175 H179 0.950 . S
H176 C172 0.950 . S
C177 C175 1.390 . S
C177 C178 1.387 . S
C177 H180 0.950 . S
C178 C177 1.387 . S
C178 C181 1.387 . S
H179 C175 0.950 . S
H180 C177 0.950 . S
C181 C172 1.390 . S
C181 H174 0.950 . S
C181 C178 1.387 . S
C182 C183 1.387 . S
C182 H186 0.950 . S
C182 C191 1.390 . S
C183 C182 1.387 . S
C183 C185 1.387 . S
H184 C191 0.950 . S
C185 C183 1.387 . S
C185 C187 1.390 . S
C185 H189 0.950 . S
H186 C182 0.950 . S
C187 C185 1.390 . S
C187 C188 1.387 . S
C187 H190 0.950 . S
C188 C187 1.387 . S
C188 C191 1.387 . S
H189 C185 0.950 . S
H190 C187 0.950 . S
C191 C182 1.390 . S
C191 H184 0.950 . S
C191 C188 1.387 . S
C192 C193 1.387 . S
C192 H196 0.950 . S
C192 C201 1.390 1_565 S
C193 C192 1.387 . S
C193 C195 1.387 . S
H194 C201 0.950 . S
C195 C193 1.387 . S
C195 C197 1.390 1_565 S
C195 H199 0.950 . S
H196 C192 0.950 . S
C197 C195 1.390 1_545 S
C197 C198 1.387 . S
C197 H200 0.950 . S
C198 C197 1.387 . S
C198 C201 1.387 . S
H199 C195 0.950 . S
H200 C197 0.950 . S
C201 C192 1.390 1_545 S
C201 H194 0.950 . S
C201 C198 1.387 . S
C202 C203 1.387 . S
C202 H206 0.950 . S
C202 C211 1.390 1_565 S
C203 C202 1.387 . S
C203 C205 1.387 . S
H204 C211 0.950 . S
C205 C203 1.387 . S
C205 C207 1.390 1_565 S
C205 H209 0.950 . S
H206 C202 0.950 . S
C207 C205 1.390 1_545 S
C207 C208 1.387 . S
C207 H210 0.950 . S
C208 C207 1.387 . S
C208 C211 1.387 . S
H209 C205 0.950 . S
H210 C207 0.950 . S
C211 C202 1.390 1_545 S
C211 H204 0.950 . S
C211 C208 1.387 . S
C212 C213 1.387 . S
C212 H216 0.950 . S
C212 C221 1.390 1_565 S
C213 C212 1.387 . S
C213 C215 1.387 . S
H214 C221 0.950 . S
C215 C213 1.387 . S
C215 C217 1.390 1_565 S
C215 H219 0.950 . S
H216 C212 0.950 . S
C217 C215 1.390 1_545 S
C217 C218 1.387 . S
C217 H220 0.950 . S
C218 C217 1.387 . S
C218 C221 1.387 . S
H219 C215 0.950 . S
H220 C217 0.950 . S
C221 C212 1.390 1_545 S
C221 H214 0.950 . S
C221 C218 1.387 . S
C222 C223 1.387 . S
C222 H226 0.950 . S
C222 C231 1.390 1_565 S
C223 C222 1.387 . S
C223 C225 1.387 . S
H224 C231 0.950 . S
C225 C223 1.387 . S
C225 C227 1.390 1_565 S
C225 H229 0.950 . S
H226 C222 0.950 . S
C227 C225 1.390 1_545 S
C227 C228 1.387 . S
C227 H230 0.950 . S
C228 C227 1.387 . S
C228 C231 1.387 . S
H229 C225 0.950 . S
H230 C227 0.950 . S
C231 C222 1.390 1_545 S
C231 H224 0.950 . S
C231 C228 1.387 . S
C232 C233 1.387 1_556 S
C232 H236 0.950 . S
C232 C241 1.390 1_565 S
C233 C232 1.387 1_554 S
C233 C235 1.387 . S
H234 C241 0.950 . S
C235 C233 1.387 . S
C235 C237 1.390 1_565 S
C235 H239 0.950 . S
H236 C232 0.950 . S
C237 C235 1.390 1_545 S
C237 C238 1.387 . S
C237 H240 0.950 . S
C238 C237 1.387 . S
C238 C241 1.387 1_554 S
H239 C235 0.950 . S
H240 C237 0.950 . S
C241 C232 1.390 1_545 S
C241 H234 0.950 . S
C241 C238 1.387 1_556 S
C242 C243 1.387 . S
C242 H246 0.950 . S
C242 C251 1.390 1_565 S
C243 C242 1.387 . S
C243 C245 1.387 . S
H244 C251 0.950 . S
C245 C243 1.387 . S
C245 C247 1.390 1_565 S
C245 H249 0.950 . S
H246 C242 0.950 . S
C247 C245 1.390 1_545 S
C247 C248 1.387 . S
C247 H250 0.950 . S
C248 C247 1.387 . S
C248 C251 1.387 . S
H249 C245 0.950 . S
H250 C247 0.950 . S
C251 C242 1.390 1_545 S
C251 H244 0.950 . S
C251 C248 1.387 . S
C252 C253 1.387 1_556 S
C252 H256 0.950 . S
C252 C261 1.390 1_455 S
C253 C252 1.387 1_554 S
C253 C255 1.387 . S
H254 C261 0.950 . S
C255 C253 1.387 . S
C255 C257 1.390 1_455 S
C255 H259 0.950 . S
H256 C252 0.950 . S
C257 C255 1.390 1_655 S
C257 C258 1.387 . S
C257 H260 0.950 . S
C258 C257 1.387 . S
C258 C261 1.387 1_554 S
H259 C255 0.950 . S
H260 C257 0.950 . S
C261 C252 1.390 1_655 S
C261 H254 0.950 . S
C261 C258 1.387 1_556 S
C262 C263 1.387 . S
C262 H266 0.950 . S
C262 C271 1.390 1_455 S
C263 C262 1.387 . S
C263 C265 1.387 . S
H264 C271 0.950 . S
C265 C263 1.387 . S
C265 C267 1.390 1_455 S
C265 H269 0.950 . S
H266 C262 0.950 . S
C267 C265 1.390 1_655 S
C267 C268 1.387 . S
C267 H270 0.950 . S
C268 C267 1.387 . S
C268 C271 1.387 . S
H269 C265 0.950 . S
H270 C267 0.950 . S
C271 C262 1.390 1_655 S
C271 H264 0.950 . S
C271 C268 1.387 . S
C113 C79 1.478 . S
C118 C9 1.478 . S
C123 C65 1.478 . S
C128 C23 1.478 . S
C133 C107 1.478 . S
C138 C37 1.478 . S
C143 C93 1.480 . S
C148 C51 1.480 . S
C153 C3 1.431 . S
C158 C31 1.431 . S
C163 C17 1.431 . S
C168 C45 1.431 . S
C173 C21 1.417 . S
C178 C49 1.417 . S
C183 C7 1.418 . S
C188 C35 1.418 . S
C193 C59 1.433 . S
C198 C87 1.433 . S
C203 C101 1.431 . S
C208 C73 1.431 . S
C213 C105 1.417 . S
C218 C77 1.417 . S
C223 C63 1.418 . S
C228 C91 1.418 . S
C233 C22 1.499 . S
C238 C8 1.499 . S
C243 C36 1.499 . S
C248 C50 1.499 . S
C253 C64 1.499 . S
C258 C78 1.499 . S
C263 C92 1.499 . S
C268 C106 1.499 . S
