# Generated by pormake.
# Topology unc, (4)-cn, num edge types: 1
# Building blocks:
#     Node 0, Type 0, BuildingBlock: QUQFOY_clean_sbu_1, # of connection points: 4
#     Node 1, Type 0, BuildingBlock: QUQFOY_clean_sbu_1, # of connection points: 4
#     Node 2, Type 0, BuildingBlock: QUQFOY_clean_sbu_1, # of connection points: 4
#     Node 3, Type 0, BuildingBlock: QUQFOY_clean_sbu_1, # of connection points: 4
#     Edge 4, Type (0, 0), BuildingBlock: MIFKUJ_clean_linker_0, # of connection points: 2
#     Edge 5, Type (0, 0), BuildingBlock: MIFKUJ_clean_linker_0, # of connection points: 2
#     Edge 6, Type (0, 0), BuildingBlock: MIFKUJ_clean_linker_0, # of connection points: 2
#     Edge 7, Type (0, 0), BuildingBlock: MIFKUJ_clean_linker_0, # of connection points: 2
#     Edge 8, Type (0, 0), BuildingBlock: MIFKUJ_clean_linker_0, # of connection points: 2
#     Edge 9, Type (0, 0), BuildingBlock: MIFKUJ_clean_linker_0, # of connection points: 2
#     Edge 10, Type (0, 0), BuildingBlock: MIFKUJ_clean_linker_0, # of connection points: 2
#     Edge 11, Type (0, 0), BuildingBlock: MIFKUJ_clean_linker_0, # of connection points: 2
# Relax obj value: 0.065
# Max RMSD: 0.109
# Mean RMSD: 0.109
data_MOF--net-unc--node1-QUQFOY_clean_sbu_1--edge1-MIFKUJ_clean_linker_0
_symmetry_space_group_name_H-M    P1
_symmetry_Int_Tables_number       1
_symmetry_cell_setting            triclinic
loop_
_symmetry_equiv_pos_as_xyz
'x, y, z'
_cell_length_a     40.639162
_cell_length_b     40.499465
_cell_length_c     29.069727
_cell_angle_alpha  89.928511
_cell_angle_beta   90.093814
_cell_angle_gamma 89.939706
loop_
_atom_site_label
_atom_site_type_symbol
_atom_site_fract_x
_atom_site_fract_y
_atom_site_fract_z
_atom_type_partial_charge
O0 O 0.99035 0.64015 0.93363 0.0
Cd1 Cd 0.9763 0.66777 0.98982 0.0
Cd2 Cd 0.04117 0.66628 0.00559 0.0
O3 O 0.04414 0.64377 0.94196 0.0
O4 O 0.93081 0.68264 0.97475 0.0
O5 O 0.97242 0.71722 0.98322 0.0
C6 C 0.94174 0.71249 0.97353 0.0
C7 C 0.07497 0.71066 0.02552 0.0
C8 C 0.01923 0.63369 0.91952 0.0
C9 C 0.99765 0.63026 0.07278 0.0
O10 O 0.0267 0.63621 0.059 0.0
O11 O 0.97309 0.64254 0.05164 0.0
O12 O 0.08637 0.68103 0.02225 0.0
O13 O 0.04427 0.71539 0.01582 0.0
O14 O 0.3744 0.02598 0.31621 0.0
Cd15 Cd 0.34485 0.03947 0.26171 0.0
Cd16 Cd 0.34521 0.97424 0.24777 0.0
O17 O 0.36889 0.972 0.3108 0.0
O18 O 0.32968 0.08492 0.27698 0.0
O19 O 0.29581 0.04242 0.27133 0.0
C20 C 0.30024 0.07333 0.28038 0.0
C21 C 0.30107 0.9397 0.22948 0.0
C22 C 0.38043 0.99715 0.33139 0.0
C23 C 0.37923 0.01706 0.17735 0.0
O24 O 0.37377 0.98814 0.19252 0.0
O25 O 0.36776 0.04205 0.19837 0.0
O26 O 0.33073 0.92857 0.23257 0.0
O27 O 0.29614 0.97049 0.23884 0.0
O28 O 0.01987 0.37448 0.43394 0.0
Cd29 Cd 0.03419 0.3466 0.48994 0.0
Cd30 Cd 0.96912 0.34713 0.50497 0.0
O31 O 0.96613 0.36949 0.44117 0.0
O32 O 0.07977 0.3322 0.47478 0.0
O33 O 0.03843 0.29724 0.48279 0.0
C34 C 0.06905 0.30228 0.47316 0.0
C35 C 0.93526 0.30276 0.52479 0.0
C36 C 0.99095 0.38025 0.41924 0.0
C37 C 0.01219 0.383 0.57314 0.0
O38 O 0.98327 0.37711 0.55862 0.0
O39 O 0.03697 0.37103 0.55232 0.0
O40 O 0.9239 0.3324 0.52132 0.0
O41 O 0.96596 0.298 0.51532 0.0
O42 O 0.63564 0.98864 0.81697 0.0
Cd43 Cd 0.66514 0.97514 0.7626 0.0
Cd44 Cd 0.66476 0.0403 0.74843 0.0
O45 O 0.64115 0.04262 0.81139 0.0
O46 O 0.68042 0.92977 0.77832 0.0
O47 O 0.71421 0.9723 0.77215 0.0
C48 C 0.70985 0.94142 0.78157 0.0
C49 C 0.70904 0.0746 0.73008 0.0
C50 C 0.62963 0.01746 0.83204 0.0
C51 C 0.63065 0.99748 0.67808 0.0
O52 O 0.63612 0.02641 0.69316 0.0
O53 O 0.64215 0.97249 0.69922 0.0
O54 O 0.67944 0.0859 0.7331 0.0
O55 O 0.71382 0.04378 0.73955 0.0
H56 H 0.93933 0.6097 0.11121 0.0
H57 H 0.93172 0.5658 0.1684 0.0
H58 H 0.03687 0.55269 0.17686 0.0
H59 H 0.04476 0.5963 0.12019 0.0
H60 H 1.00346 0.49411 0.16264 0.0
H61 H 0.99693 0.58987 0.26196 0.0
H62 H 0.97416 0.64319 0.28768 0.0
H63 H 0.87912 0.59867 0.30497 0.0
H64 H 0.90126 0.54514 0.27873 0.0
H65 H 0.03861 0.40425 0.3624 0.0
H66 H 0.03247 0.44432 0.30056 0.0
H67 H 0.92741 0.44573 0.32144 0.0
H68 H 0.93339 0.40573 0.38428 0.0
H69 H 0.95172 0.50741 0.31595 0.0
H70 H 0.95922 0.41021 0.2256 0.0
H71 H 0.98143 0.35663 0.20007 0.0
H72 H 0.07294 0.40292 0.16449 0.0
H73 H 0.05146 0.45672 0.19044 0.0
C74 C 0.96084 0.59776 0.1257 0.0
C75 C 0.99265 0.60648 0.11096 0.0
C76 C 0.95643 0.57268 0.15833 0.0
C77 C 0.98374 0.55592 0.17665 0.0
C78 C 0.01546 0.56518 0.1629 0.0
C79 C 0.01991 0.59027 0.13062 0.0
C80 C 0.97962 0.52791 0.209 0.0
C81 C 0.99233 0.49702 0.1963 0.0
C82 C 0.96395 0.53147 0.2521 0.0
C83 C 0.95065 0.56363 0.26783 0.0
C84 C 0.9711 0.59153 0.27082 0.0
C85 C 0.95833 0.62177 0.28559 0.0
C86 C 0.92519 0.62435 0.2978 0.0
C87 C 0.90477 0.59665 0.2954 0.0
C88 C 0.91742 0.56636 0.28061 0.0
C89 C 0.0141 0.4127 0.35361 0.0
C90 C 0.98649 0.40175 0.37839 0.0
C91 C 0.01062 0.43556 0.31802 0.0
C92 C 0.97944 0.44784 0.30606 0.0
C93 C 0.95169 0.43652 0.33006 0.0
C94 C 0.95515 0.41354 0.36578 0.0
C95 C 0.97647 0.47377 0.27015 0.0
C96 C 0.96237 0.50427 0.28204 0.0
C97 C 0.99071 0.46981 0.2261 0.0
C98 C 1.00376 0.4375 0.21027 0.0
C99 C 0.98416 0.40894 0.21265 0.0
C100 C 0.99661 0.37852 0.19804 0.0
C101 C 0.0286 0.37636 0.18074 0.0
C102 C 0.04817 0.40463 0.17791 0.0
C103 C 0.03585 0.43511 0.1925 0.0
H104 H 0.03819 0.35279 0.16946 0.0
H105 H 0.91534 0.64778 0.30924 0.0
H106 H 0.41099 0.04583 0.3801 0.0
H107 H 0.45418 0.03974 0.43769 0.0
H108 H 0.44608 0.93379 0.42925 0.0
H109 H 0.40259 0.93956 0.37111 0.0
H110 H 0.45378 0.95902 0.52104 0.0
H111 H 0.50551 0.96711 0.3731 0.0
H112 H 0.51531 0.99163 0.29664 0.0
H113 H 0.54606 0.08226 0.35988 0.0
H114 H 0.53594 0.05847 0.43672 0.0
H115 H 0.60482 0.93986 0.64383 0.0
H116 H 0.5636 0.93412 0.58279 0.0
H117 H 0.56475 0.03953 0.56144 0.0
H118 H 0.60605 0.04547 0.62172 0.0
H119 H 0.56219 0.00749 0.48097 0.0
H120 H 0.50548 1.00362 0.62626 0.0
H121 H 0.49385 0.9823 0.70404 0.0
H122 H 0.47111 0.88707 0.64756 0.0
H123 H 0.48307 0.90775 0.56943 0.0
C124 C 0.41801 0.02116 0.39073 0.0
C125 C 0.40349 0.99315 0.37059 0.0
C126 C 0.44281 0.01777 0.42361 0.0
C127 C 0.45365 0.98634 0.43711 0.0
C128 C 0.43812 0.95827 0.41903 0.0
C129 C 0.4133 0.96163 0.38583 0.0
C130 C 0.48224 0.9832 0.4685 0.0
C131 C 0.4777 0.96899 0.51204 0.0
C132 C 0.5132 0.99681 0.4569 0.0
C133 C 0.51973 0.01106 0.41069 0.0
C134 C 0.51414 0.99234 0.37071 0.0
C135 C 0.51978 1.0061 0.32729 0.0
C136 C 0.53125 0.03849 0.32341 0.0
C137 C 0.53717 0.05717 0.36294 0.0
C138 C 0.53152 0.04355 0.40644 0.0
C139 C 0.59664 0.96177 0.62569 0.0
C140 C 0.60859 0.99316 0.63789 0.0
C141 C 0.57294 0.95845 0.59101 0.0
C142 C 0.56077 0.98645 0.56801 0.0
C143 C 0.57373 0.01759 0.57878 0.0
C144 C 0.5973 0.02094 0.6134 0.0
C145 C 0.53366 0.98381 0.53395 0.0
C146 C 0.53847 0.997 0.48981 0.0
C147 C 0.50287 0.96957 0.54521 0.0
C148 C 0.49557 0.95711 0.59209 0.0
C149 C 0.49827 0.97806 0.63047 0.0
C150 C 0.49157 0.96611 0.67461 0.0
C151 C 0.48185 0.93332 0.68076 0.0
C152 C 0.47872 0.91245 0.64275 0.0
C153 C 0.48544 0.92427 0.59853 0.0
H154 H 0.47667 0.9241 0.71495 0.0
H155 H 0.5356 0.0491 0.28978 0.0
H156 H 0.97185 0.6125 0.85996 0.0
H157 H 0.97668 0.56946 0.80184 0.0
H158 H 0.08042 0.56046 0.83071 0.0
H159 H 0.07593 0.60397 0.88894 0.0
H160 H 0.06586 0.5549 0.73704 0.0
H161 H 0.02995 0.50709 0.87919 0.0
H162 H 0.99514 0.50257 0.94831 0.0
H163 H 0.90978 0.4885 0.86335 0.0
H164 H 0.94401 0.49342 0.79368 0.0
H165 H 0.06983 0.40086 0.61618 0.0
H166 H 0.07679 0.44207 0.67707 0.0
H167 H 0.97195 0.45901 0.67808 0.0
H168 H 0.96471 0.41747 0.61863 0.0
H169 H 0.9939 0.45763 0.76226 0.0
H170 H 0.02808 0.51094 0.62073 0.0
H171 H 0.06187 0.51701 0.55082 0.0
H172 H 0.14942 0.52145 0.63348 0.0
H173 H 0.11615 0.515 0.70388 0.0
C174 C 0.99584 0.60177 0.85361 0.0
C175 C 0.02343 0.61142 0.87954 0.0
C176 C 0.99852 0.57707 0.82043 0.0
C177 C 0.02875 0.56129 0.81272 0.0
C178 C 0.05681 0.5722 0.83641 0.0
C179 C 0.05418 0.59707 0.86965 0.0
C180 C 0.03033 0.53221 0.78185 0.0
C181 C 0.05057 0.53336 0.74285 0.0
C182 C 0.01013 0.50427 0.78934 0.0
C183 C 0.98953 0.50085 0.83121 0.0
C184 C 1.00373 0.50323 0.87524 0.0
C185 C 0.9841 0.50058 0.91452 0.0
C186 C 0.95026 0.4953 0.91023 0.0
C187 C 0.93599 0.49259 0.86663 0.0
C188 C 0.9555 0.49527 0.82723 0.0
C189 C 0.04825 0.41315 0.62973 0.0
C190 C 0.01672 0.40591 0.61237 0.0
C191 C 0.05229 0.43686 0.66432 0.0
C192 C 0.02494 0.45404 0.68169 0.0
C193 C 0.99344 0.44614 0.66526 0.0
C194 C 0.98936 0.42234 0.63112 0.0
C195 C 0.02866 0.48065 0.71647 0.0
C196 C 0.0095 0.47897 0.75652 0.0
C197 C 0.04972 0.50811 0.70975 0.0
C198 C 0.06968 0.51211 0.66749 0.0
C199 C 0.05456 0.51297 0.62395 0.0
C200 C 0.07361 0.51652 0.58426 0.0
C201 C 0.10778 0.51951 0.5877 0.0
C202 C 0.12296 0.51907 0.63086 0.0
C203 C 0.10402 0.51549 0.67067 0.0
H204 H 0.12249 0.52226 0.55692 0.0
H205 H 0.93511 0.49327 0.94068 0.0
H206 H 0.40379 0.96908 0.1212 0.0
H207 H 0.44514 0.97501 0.06116 0.0
H208 H 0.44641 0.08041 0.0823 0.0
H209 H 0.40513 0.07467 0.1431 0.0
H210 H 0.44783 0.00711 0.98065 0.0
H211 H 0.527 0.10668 0.06943 0.0
H212 H 0.53893 0.12727 0.14759 0.0
H213 H 0.51601 0.03203 0.20409 0.0
H214 H 0.50439 0.01079 0.12628 0.0
H215 H 0.60747 0.07505 0.8715 0.0
H216 H 0.56396 0.08079 0.92941 0.0
H217 H 0.55589 0.97484 0.93813 0.0
H218 H 0.5991 0.96878 0.88078 0.0
H219 H 0.55624 0.05546 0.02129 0.0
H220 H 0.4741 0.95614 0.93666 0.0
H221 H 0.46402 0.93241 0.85981 0.0
H222 H 0.49484 0.02308 0.79657 0.0
H223 H 0.5046 0.04754 0.87303 0.0
C224 C 0.41257 0.99361 0.11288 0.0
C225 C 0.4013 0.02138 0.13725 0.0
C226 C 0.43618 0.99695 0.0784 0.0
C227 C 0.44918 0.02808 0.06765 0.0
C228 C 0.43703 0.05608 0.09051 0.0
C229 C 0.4133 0.05277 0.12506 0.0
C230 C 0.47633 0.03071 0.03375 0.0
C231 C 0.47155 0.01758 0.98961 0.0
C232 C 0.50712 0.04492 0.04518 0.0
C233 C 0.51441 0.05732 0.09209 0.0
C234 C 0.52458 0.09014 0.09854 0.0
C235 C 0.53129 0.10191 0.14278 0.0
C236 C 0.5281 0.08101 0.1808 0.0
C237 C 0.51833 0.04824 0.17465 0.0
C238 C 0.51164 0.03634 0.13049 0.0
C239 C 0.59675 0.05298 0.88623 0.0
C240 C 0.60658 0.02146 0.87114 0.0
C241 C 0.57193 0.05632 0.9193 0.0
C242 C 0.55641 0.02824 0.93739 0.0
C243 C 0.56726 0.99682 0.92404 0.0
C244 C 0.59207 0.99344 0.8913 0.0
C245 C 0.5278 0.03136 0.96861 0.0
C246 C 0.53232 0.04552 0.01215 0.0
C247 C 0.49684 0.01778 0.95685 0.0
C248 C 0.49033 1.00357 0.91063 0.0
C249 C 0.47854 0.97108 0.90637 0.0
C250 C 0.47292 0.9575 0.86287 0.0
C251 C 0.47887 0.9762 0.82333 0.0
C252 C 0.49034 0.00859 0.82722 0.0
C253 C 0.49596 0.02231 0.87064 0.0
H254 H 0.47453 0.96561 0.7897 0.0
H255 H 0.53327 0.09018 0.21501 0.0
H256 H 0.30488 0.87426 0.20848 0.0
H257 H 0.2629 0.83986 0.17265 0.0
H258 H 0.19468 0.92147 0.17494 0.0
H259 H 0.23673 0.95627 0.21133 0.0
H260 H 0.1652 0.86162 0.19811 0.0
H261 H 0.23254 0.90434 0.07727 0.0
H262 H 0.28458 0.91733 0.03774 0.0
H263 H 0.30811 0.81408 0.03074 0.0
H264 H 0.25642 0.80049 0.07086 0.0
H265 H 0.05786 0.77499 0.0437 0.0
H266 H 0.09295 0.81829 0.07642 0.0
H267 H 0.17498 0.75061 0.07867 0.0
H268 H 0.14041 0.7076 0.0456 0.0
H269 H 0.19396 0.80981 0.04884 0.0
H270 H 0.12989 0.76746 0.17579 0.0
H271 H 0.07863 0.75379 0.21689 0.0
H272 H 0.0494 0.85568 0.21297 0.0
H273 H 0.10033 0.86988 0.17129 0.0
C274 C 0.28088 0.88491 0.20185 0.0
C275 C 0.27425 0.91812 0.21246 0.0
C276 C 0.25693 0.86521 0.18116 0.0
C277 C 0.22587 0.87827 0.17035 0.0
C278 C 0.21857 0.91097 0.18276 0.0
C279 C 0.24262 0.9308 0.20353 0.0
C280 C 0.20167 0.85786 0.14473 0.0
C281 C 0.17119 0.85076 0.16507 0.0
C282 C 0.20969 0.84337 0.10188 0.0
C283 C 0.2407 0.85142 0.07738 0.0
C284 C 0.24891 0.88442 0.06759 0.0
C285 C 0.27834 0.89189 0.04504 0.0
C286 C 0.29967 0.86655 0.03181 0.0
C287 C 0.29158 0.83368 0.04103 0.0
C288 C 0.26219 0.82608 0.06363 0.0
C289 C 0.08345 0.76946 0.05081 0.0
C290 C 0.09631 0.73781 0.04217 0.0
C291 C 0.10342 0.79417 0.06975 0.0
C292 C 0.13652 0.78759 0.08051 0.0
C293 C 0.14953 0.75628 0.0707 0.0
C294 C 0.12967 0.73166 0.05184 0.0
C295 C 0.15777 0.81287 0.10268 0.0
C296 C 0.18773 0.82097 0.0816 0.0
C297 C 0.14928 0.82816 0.14485 0.0
C298 C 0.11871 0.81966 0.16994 0.0
C299 C 0.11239 0.7869 0.18335 0.0
C300 C 0.08343 0.77907 0.20682 0.0
C301 C 0.06072 0.80384 0.2174 0.0
C302 C 0.06698 0.83651 0.20466 0.0
C303 C 0.09589 0.84447 0.18114 0.0
H304 H 0.03831 0.79772 0.23558 0.0
H305 H 0.32244 0.87239 0.01436 0.0
H306 H 0.30267 0.13921 0.29893 0.0
H307 H 0.26004 0.17347 0.33348 0.0
H308 H 0.19384 0.09033 0.33529 0.0
H309 H 0.23651 0.0557 0.30007 0.0
H310 H 0.16262 0.14829 0.30971 0.0
H311 H 0.23218 0.11145 0.4323 0.0
H312 H 0.2849 0.10133 0.47201 0.0
H313 H 0.30504 0.20539 0.47247 0.0
H314 H 0.25265 0.2161 0.43214 0.0
H315 H 0.05359 0.23699 0.45916 0.0
H316 H 0.08972 0.19355 0.42907 0.0
H317 H 0.1699 0.26311 0.42228 0.0
H318 H 0.13432 0.30626 0.45281 0.0
H319 H 0.19072 0.20557 0.45536 0.0
H320 H 0.12456 0.24195 0.32645 0.0
H321 H 0.07262 0.25279 0.28508 0.0
H322 H 0.04654 0.15035 0.29584 0.0
H323 H 0.09818 0.13899 0.33783 0.0
C324 C 0.27898 0.12818 0.30624 0.0
C325 C 0.27308 0.09462 0.29705 0.0
C326 C 0.25466 0.14781 0.32621 0.0
C327 C 0.22397 0.13431 0.33779 0.0
C328 C 0.21743 0.10118 0.32689 0.0
C329 C 0.24183 0.08144 0.30678 0.0
C330 C 0.19932 0.1548 0.36241 0.0
C331 C 0.16849 0.16035 0.34199 0.0
C332 C 0.20715 0.17086 0.40426 0.0
C333 C 0.23857 0.16454 0.4289 0.0
C334 C 0.24795 0.13216 0.44059 0.0
C335 C 0.27776 0.12632 0.46325 0.0
C336 C 0.29833 0.15269 0.47468 0.0
C337 C 0.28909 0.18498 0.46357 0.0
C338 C 0.25932 0.19095 0.44086 0.0
C339 C 0.07901 0.24291 0.45164 0.0
C340 C 0.09104 0.27512 0.45826 0.0
C341 C 0.09957 0.21812 0.43419 0.0
C342 C 0.13244 0.22516 0.42288 0.0
C343 C 0.14465 0.25706 0.43071 0.0
C344 C 0.1242 0.28176 0.44812 0.0
C345 C 0.15428 0.19977 0.40213 0.0
C346 C 0.18463 0.19321 0.42338 0.0
C347 C 0.14601 0.18291 0.36103 0.0
C348 C 0.11502 0.1897 0.33575 0.0
C349 C 0.10762 0.22179 0.32032 0.0
C350 C 0.07826 0.22802 0.2967 0.0
C351 C 0.05624 0.20229 0.28797 0.0
C352 C 0.06359 0.17026 0.30272 0.0
C353 C 0.0929 0.16391 0.3264 0.0
H354 H 0.03353 0.20716 0.26967 0.0
H355 H 0.32141 0.14812 0.49221 0.0
H356 H 0.70584 0.14031 0.71037 0.0
H357 H 0.74782 0.17453 0.67426 0.0
H358 H 0.81495 0.092 0.67374 0.0
H359 H 0.77293 0.0574 0.71048 0.0
H360 H 0.84571 0.1509 0.69681 0.0
H361 H 0.77556 0.11086 0.5771 0.0
H362 H 0.72261 0.0993 0.53887 0.0
H363 H 0.70085 0.20303 0.53464 0.0
H364 H 0.75346 0.21519 0.57348 0.0
H365 H 0.95194 0.23807 0.54168 0.0
H366 H 0.91682 0.19481 0.57441 0.0
H367 H 0.83557 0.26336 0.57947 0.0
H368 H 0.87014 0.30629 0.54627 0.0
H369 H 0.81534 0.205 0.54944 0.0
H370 H 0.88231 0.24464 0.67549 0.0
H371 H 0.93453 0.25683 0.71533 0.0
H372 H 0.96187 0.15452 0.70818 0.0
H373 H 0.90996 0.14179 0.66775 0.0
C374 C 0.72962 0.12942 0.70306 0.0
C375 C 0.73593 0.09602 0.71299 0.0
C376 C 0.75356 0.14902 0.68221 0.0
C377 C 0.78429 0.13565 0.67049 0.0
C378 C 0.79131 0.10274 0.68225 0.0
C379 C 0.76728 0.08303 0.70323 0.0
C380 C 0.8084 0.15597 0.6446 0.0
C381 C 0.83934 0.16227 0.66417 0.0
C382 C 0.79993 0.1711 0.60227 0.0
C383 C 0.76837 0.16391 0.57851 0.0
C384 C 0.75939 0.13119 0.5683 0.0
C385 C 0.72945 0.12453 0.54648 0.0
C386 C 0.70835 0.15041 0.53441 0.0
C387 C 0.7172 0.18301 0.54403 0.0
C388 C 0.7471 0.1898 0.5659 0.0
C389 C 0.92651 0.2438 0.54941 0.0
C390 C 0.91387 0.27566 0.54148 0.0
C391 C 0.90652 0.21911 0.56836 0.0
C392 C 0.87364 0.22594 0.57994 0.0
C393 C 0.86084 0.25748 0.57087 0.0
C394 C 0.88071 0.28206 0.55193 0.0
C395 C 0.85238 0.20069 0.60217 0.0
C396 C 0.82193 0.19335 0.5818 0.0
C397 C 0.86131 0.18472 0.64377 0.0
C398 C 0.89246 0.19234 0.66813 0.0
C399 C 0.89959 0.22479 0.68209 0.0
C400 C 0.9291 0.23179 0.70483 0.0
C401 C 0.95155 0.20649 0.71414 0.0
C402 C 0.94449 0.17411 0.70086 0.0
C403 C 0.91502 0.16698 0.67805 0.0
H404 H 0.97438 0.21195 0.73177 0.0
H405 H 0.68518 0.1452 0.51753 0.0
H406 H 0.70691 0.87627 0.80463 0.0
H407 H 0.74992 0.8424 0.83929 0.0
H408 H 0.81744 0.92432 0.83244 0.0
H409 H 0.77432 0.95862 0.79729 0.0
H410 H 0.84653 0.86439 0.80806 0.0
H411 H 0.78287 0.90743 0.9323 0.0
H412 H 0.73211 0.9206 0.97486 0.0
H413 H 0.70899 0.8174 0.9844 0.0
H414 H 0.75939 0.80361 0.94128 0.0
H415 H 0.95827 0.77709 0.95617 0.0
H416 H 0.92228 0.82082 0.92621 0.0
H417 H 0.84027 0.75329 0.9272 0.0
H418 H 0.87577 0.7098 0.95738 0.0
H419 H 0.82235 0.81275 0.95918 0.0
H420 H 0.88223 0.77018 0.82845 0.0
H421 H 0.93211 0.75627 0.78428 0.0
H422 H 0.96183 0.85797 0.78637 0.0
H423 H 0.9123 0.87241 0.83111 0.0
C424 C 0.73095 0.88712 0.81006 0.0
C425 C 0.7371 0.92026 0.79845 0.0
C426 C 0.75549 0.86772 0.83009 0.0
C427 C 0.7867 0.881 0.83919 0.0
C428 C 0.79344 0.91366 0.82595 0.0
C429 C 0.76879 0.9332 0.8059 0.0
C430 C 0.81174 0.86077 0.8636 0.0
C431 C 0.84156 0.8536 0.84151 0.0
C432 C 0.80504 0.84636 0.90698 0.0
C433 C 0.77481 0.85451 0.93325 0.0
C434 C 0.76685 0.88755 0.94319 0.0
C435 C 0.73815 0.89513 0.96746 0.0
C436 C 0.71731 0.86986 0.98225 0.0
C437 C 0.72516 0.83695 0.9729 0.0
C438 C 0.75381 0.82924 0.94859 0.0
C439 C 0.93249 0.77169 0.95043 0.0
C440 C 0.91991 0.73993 0.95901 0.0
C441 C 0.91201 0.79664 0.93307 0.0
C442 C 0.87864 0.79022 0.92398 0.0
C443 C 0.86591 0.75883 0.9339 0.0
C444 C 0.8863 0.73394 0.95108 0.0
C445 C 0.85685 0.81569 0.90318 0.0
C446 C 0.82758 0.8239 0.92603 0.0
C447 C 0.86406 0.83095 0.86049 0.0
C448 C 0.8938 0.8223 0.8336 0.0
C449 C 0.89955 0.78952 0.81983 0.0
C450 C 0.92773 0.78155 0.79463 0.0
C451 C 0.95018 0.8062 0.78266 0.0
C452 C 0.94446 0.83889 0.79576 0.0
C453 C 0.91634 0.84699 0.82102 0.0
H454 H 0.97198 0.79998 0.76313 0.0
H455 H 0.6951 0.87577 0.00104 0.0
loop_
_geom_bond_atom_site_label_1
_geom_bond_atom_site_label_2
_geom_bond_distance
_geom_bond_site_symmetry_2
_ccdc_geom_bond_type
O0 Cd1 2.223 1_556 S
O0 C8 1.315 . S
Cd1 O0 2.223 1_554 S
Cd1 O4 2.297 1_554 S
Cd1 O5 2.439 1_554 S
Cd1 O11 2.240 . S
Cd2 O3 2.240 . S
Cd2 O10 2.223 1_556 S
Cd2 O12 2.297 1_556 S
Cd2 O13 2.439 1_556 S
O3 Cd2 2.240 . S
O3 C8 1.279 1_455 S
O4 Cd1 2.297 1_556 S
O4 C6 1.247 . S
O5 Cd1 2.439 1_556 S
O5 C6 1.208 . S
C6 O4 1.247 . S
C6 O5 1.208 . S
C7 O12 1.247 . S
C7 O13 1.208 . S
C8 O0 1.315 . S
C8 O3 1.279 1_655 S
C9 O10 1.315 . S
C9 O11 1.279 1_455 S
O10 Cd2 2.223 1_554 S
O10 C9 1.315 . S
O11 Cd1 2.240 . S
O11 C9 1.279 1_655 S
O12 Cd2 2.297 1_554 S
O12 C7 1.247 . S
O13 Cd2 2.439 1_554 S
O13 C7 1.208 . S
O14 Cd15 2.223 . S
O14 C22 1.315 . S
Cd15 O14 2.223 . S
Cd15 O18 2.297 . S
Cd15 O19 2.439 . S
Cd15 O25 2.240 . S
Cd16 O17 2.240 . S
Cd16 O24 2.223 . S
Cd16 O26 2.297 . S
Cd16 O27 2.439 . S
O17 Cd16 2.240 . S
O17 C22 1.279 1_565 S
O18 Cd15 2.297 . S
O18 C20 1.247 . S
O19 Cd15 2.439 . S
O19 C20 1.208 . S
C20 O18 1.247 . S
C20 O19 1.208 . S
C21 O26 1.247 . S
C21 O27 1.208 . S
C22 O14 1.315 . S
C22 O17 1.279 1_545 S
C23 O24 1.315 . S
C23 O25 1.279 1_565 S
O24 Cd16 2.223 . S
O24 C23 1.315 . S
O25 Cd15 2.240 . S
O25 C23 1.279 1_545 S
O26 Cd16 2.297 . S
O26 C21 1.247 . S
O27 Cd16 2.439 . S
O27 C21 1.208 . S
O28 Cd29 2.223 . S
O28 C36 1.315 . S
Cd29 O28 2.223 . S
Cd29 O32 2.297 . S
Cd29 O33 2.439 . S
Cd29 O39 2.240 . S
Cd30 O31 2.240 . S
Cd30 O38 2.223 . S
Cd30 O40 2.297 . S
Cd30 O41 2.439 . S
O31 Cd30 2.240 . S
O31 C36 1.279 1_655 S
O32 Cd29 2.297 . S
O32 C34 1.247 . S
O33 Cd29 2.439 . S
O33 C34 1.208 . S
C34 O32 1.247 . S
C34 O33 1.208 . S
C35 O40 1.247 . S
C35 O41 1.208 . S
C36 O28 1.315 . S
C36 O31 1.279 1_455 S
C37 O38 1.315 . S
C37 O39 1.279 1_655 S
O38 Cd30 2.223 . S
O38 C37 1.315 . S
O39 Cd29 2.240 . S
O39 C37 1.279 1_455 S
O40 Cd30 2.297 . S
O40 C35 1.247 . S
O41 Cd30 2.439 . S
O41 C35 1.208 . S
O42 Cd43 2.223 . S
O42 C50 1.315 . S
Cd43 O42 2.223 . S
Cd43 O46 2.297 . S
Cd43 O47 2.439 . S
Cd43 O53 2.240 . S
Cd44 O45 2.240 . S
Cd44 O52 2.223 . S
Cd44 O54 2.297 . S
Cd44 O55 2.439 . S
O45 Cd44 2.240 . S
O45 C50 1.279 1_545 S
O46 Cd43 2.297 . S
O46 C48 1.247 . S
O47 Cd43 2.439 . S
O47 C48 1.208 . S
C48 O46 1.247 . S
C48 O47 1.208 . S
C49 O54 1.247 . S
C49 O55 1.208 . S
C50 O42 1.315 . S
C50 O45 1.279 1_565 S
C51 O52 1.315 . S
C51 O53 1.279 1_545 S
O52 Cd44 2.223 . S
O52 C51 1.315 . S
O53 Cd43 2.240 . S
O53 C51 1.279 1_565 S
O54 Cd44 2.297 . S
O54 C49 1.247 . S
O55 Cd44 2.439 . S
O55 C49 1.208 . S
H56 C74 0.951 . S
H57 C76 0.951 . S
H58 C78 0.950 . S
H59 C79 0.950 . S
H60 C81 0.950 . S
H61 C84 0.950 . S
H62 C85 0.950 . S
H63 C87 0.950 . S
H64 C88 0.950 . S
H65 C89 0.951 . S
H66 C91 0.951 . S
H67 C93 0.950 . S
H68 C94 0.950 . S
H69 C96 0.950 1_655 S
H70 C99 0.950 . S
H71 C100 0.950 . S
H72 C102 0.950 . S
H73 C103 0.950 . S
C74 H56 0.951 . S
C74 C75 1.366 1_655 S
C74 C76 1.388 . S
C75 C74 1.366 1_455 S
C75 C79 1.385 . S
C76 H57 0.951 . S
C76 C74 1.388 . S
C76 C77 1.366 1_655 S
C77 C76 1.366 1_455 S
C77 C78 1.414 . S
C77 C80 1.499 . S
C78 H58 0.950 . S
C78 C77 1.414 . S
C78 C79 1.374 . S
C79 H59 0.950 . S
C79 C75 1.385 . S
C79 C78 1.374 . S
C80 C77 1.499 . S
C80 C81 1.373 . S
C80 C82 1.389 . S
C81 H60 0.950 . S
C81 C80 1.373 . S
C81 C97 1.377 . S
C82 C80 1.389 . S
C82 C83 1.524 . S
C82 C96 1.377 . S
C83 C82 1.524 . S
C83 C84 1.397 . S
C83 C88 1.363 1_455 S
C84 H61 0.950 . S
C84 C83 1.397 . S
C84 C85 1.334 . S
C85 H62 0.950 . S
C85 C84 1.334 . S
C85 C86 1.287 . S
C86 C85 1.287 . S
C86 C87 1.524 1_455 S
C86 H105 0.913 . S
C87 H63 0.950 . S
C87 C86 1.524 1_655 S
C87 C88 1.415 . S
C88 H64 0.950 . S
C88 C83 1.363 1_655 S
C88 C87 1.415 . S
C89 H65 0.951 . S
C89 C90 1.366 . S
C89 C91 1.388 . S
C90 C89 1.366 . S
C90 C94 1.385 1_455 S
C91 H66 0.951 . S
C91 C89 1.388 . S
C91 C92 1.366 . S
C92 C91 1.366 . S
C92 C93 1.414 1_455 S
C92 C95 1.499 . S
C93 H67 0.950 . S
C93 C92 1.414 1_655 S
C93 C94 1.374 . S
C94 H68 0.950 . S
C94 C90 1.385 1_655 S
C94 C93 1.374 . S
C95 C92 1.499 . S
C95 C96 1.374 . S
C95 C97 1.389 . S
C96 H69 0.950 1_455 S
C96 C82 1.377 . S
C96 C95 1.374 . S
C97 C81 1.377 . S
C97 C95 1.389 . S
C97 C98 1.524 . S
C98 C97 1.524 . S
C98 C99 1.397 1_455 S
C98 C103 1.363 . S
C99 H70 0.950 . S
C99 C98 1.397 1_655 S
C99 C100 1.334 . S
C100 H71 0.950 . S
C100 C99 1.334 . S
C100 C101 1.287 . S
C101 C100 1.287 . S
C101 C102 1.524 1_655 S
C101 H104 0.999 . S
C102 H72 0.950 . S
C102 C101 1.524 1_455 S
C102 C103 1.415 . S
C103 H73 0.950 . S
C103 C98 1.363 . S
C103 C102 1.415 . S
H104 C101 0.999 . S
H105 C86 0.913 . S
H106 C124 0.951 . S
H107 C126 0.951 . S
H108 C128 0.950 . S
H109 C129 0.950 . S
H110 C131 0.950 . S
H111 C134 0.950 . S
H112 C135 0.950 . S
H113 C137 0.950 . S
H114 C138 0.950 . S
H115 C139 0.951 . S
H116 C141 0.951 . S
H117 C143 0.950 . S
H118 C144 0.950 . S
H119 C146 0.950 . S
H120 C149 0.950 . S
H121 C150 0.950 . S
H122 C152 0.950 . S
H123 C153 0.950 . S
C124 H106 0.951 . S
C124 C125 1.366 . S
C124 C126 1.388 . S
C125 C124 1.366 . S
C125 C129 1.385 1_545 S
C126 H107 0.951 . S
C126 C124 1.388 . S
C126 C127 1.366 . S
C127 C126 1.366 . S
C127 C128 1.414 1_545 S
C127 C130 1.499 . S
C128 H108 0.950 . S
C128 C127 1.414 1_565 S
C128 C129 1.374 . S
C129 H109 0.950 . S
C129 C125 1.385 1_565 S
C129 C128 1.374 . S
C130 C127 1.499 . S
C130 C131 1.373 1_545 S
C130 C132 1.389 . S
C131 H110 0.950 . S
C131 C130 1.373 1_565 S
C131 C147 1.377 . S
C132 C130 1.389 . S
C132 C133 1.524 . S
C132 C146 1.377 . S
C133 C132 1.524 . S
C133 C134 1.397 . S
C133 C138 1.363 . S
C134 H111 0.950 . S
C134 C133 1.397 . S
C134 C135 1.334 . S
C135 H112 0.950 . S
C135 C134 1.334 . S
C135 C136 1.287 . S
C136 C135 1.287 . S
C136 C137 1.524 . S
C136 H155 0.913 . S
C137 H113 0.950 . S
C137 C136 1.524 . S
C137 C138 1.415 . S
C138 H114 0.950 . S
C138 C133 1.363 . S
C138 C137 1.415 . S
C139 H115 0.951 . S
C139 C140 1.366 1_565 S
C139 C141 1.388 . S
C140 C139 1.366 1_545 S
C140 C144 1.385 . S
C141 H116 0.951 . S
C141 C139 1.388 . S
C141 C142 1.366 1_565 S
C142 C141 1.366 1_545 S
C142 C143 1.414 . S
C142 C145 1.499 . S
C143 H117 0.950 . S
C143 C142 1.414 . S
C143 C144 1.374 . S
C144 H118 0.950 . S
C144 C140 1.385 . S
C144 C143 1.374 . S
C145 C142 1.499 . S
C145 C146 1.373 . S
C145 C147 1.389 1_545 S
C146 H119 0.950 . S
C146 C132 1.377 . S
C146 C145 1.373 . S
C147 C131 1.377 . S
C147 C145 1.389 1_565 S
C147 C148 1.524 . S
C148 C147 1.524 . S
C148 C149 1.397 . S
C148 C153 1.363 . S
C149 H120 0.950 . S
C149 C148 1.397 . S
C149 C150 1.334 . S
C150 H121 0.950 . S
C150 C149 1.334 . S
C150 C151 1.287 . S
C151 C150 1.287 . S
C151 C152 1.524 . S
C151 H154 0.999 . S
C152 H122 0.950 . S
C152 C151 1.524 . S
C152 C153 1.415 . S
C153 H123 0.950 . S
C153 C148 1.363 . S
C153 C152 1.415 . S
H154 C151 0.999 . S
H155 C136 0.913 . S
H156 C174 0.951 . S
H157 C176 0.951 . S
H158 C178 0.950 . S
H159 C179 0.950 . S
H160 C181 0.950 . S
H161 C184 0.950 . S
H162 C185 0.950 . S
H163 C187 0.950 . S
H164 C188 0.950 . S
H165 C189 0.951 . S
H166 C191 0.951 . S
H167 C193 0.950 . S
H168 C194 0.950 . S
H169 C196 0.950 . S
H170 C199 0.950 . S
H171 C200 0.950 . S
H172 C202 0.950 . S
H173 C203 0.950 . S
C174 H156 0.951 . S
C174 C175 1.366 . S
C174 C176 1.388 . S
C175 C174 1.366 . S
C175 C179 1.385 1_655 S
C176 H157 0.951 . S
C176 C174 1.388 . S
C176 C177 1.366 . S
C177 C176 1.366 . S
C177 C178 1.414 1_655 S
C177 C180 1.499 . S
C178 H158 0.950 . S
C178 C177 1.414 1_455 S
C178 C179 1.374 . S
C179 H159 0.950 . S
C179 C175 1.385 1_455 S
C179 C178 1.374 . S
C180 C177 1.499 . S
C180 C181 1.373 1_655 S
C180 C182 1.389 . S
C181 H160 0.950 . S
C181 C180 1.373 1_455 S
C181 C197 1.377 . S
C182 C180 1.389 . S
C182 C183 1.524 . S
C182 C196 1.377 . S
C183 C182 1.524 . S
C183 C184 1.397 . S
C183 C188 1.363 . S
C184 H161 0.950 . S
C184 C183 1.397 . S
C184 C185 1.334 . S
C185 H162 0.950 . S
C185 C184 1.334 . S
C185 C186 1.287 . S
C186 C185 1.287 . S
C186 C187 1.524 . S
C186 H205 0.913 . S
C187 H163 0.950 . S
C187 C186 1.524 . S
C187 C188 1.415 . S
C188 H164 0.950 . S
C188 C183 1.363 . S
C188 C187 1.415 . S
C189 H165 0.951 . S
C189 C190 1.366 1_455 S
C189 C191 1.388 . S
C190 C189 1.366 1_655 S
C190 C194 1.385 . S
C191 H166 0.951 . S
C191 C189 1.388 . S
C191 C192 1.366 1_455 S
C192 C191 1.366 1_655 S
C192 C193 1.414 . S
C192 C195 1.499 . S
C193 H167 0.950 . S
C193 C192 1.414 . S
C193 C194 1.374 . S
C194 H168 0.950 . S
C194 C190 1.385 . S
C194 C193 1.374 . S
C195 C192 1.499 . S
C195 C196 1.373 . S
C195 C197 1.389 1_655 S
C196 H169 0.950 . S
C196 C182 1.377 . S
C196 C195 1.373 . S
C197 C181 1.377 . S
C197 C195 1.389 1_455 S
C197 C198 1.524 . S
C198 C197 1.524 . S
C198 C199 1.397 . S
C198 C203 1.363 . S
C199 H170 0.950 . S
C199 C198 1.397 . S
C199 C200 1.334 . S
C200 H171 0.950 . S
C200 C199 1.334 . S
C200 C201 1.287 . S
C201 C200 1.287 . S
C201 C202 1.524 . S
C201 H204 0.999 . S
C202 H172 0.950 . S
C202 C201 1.524 . S
C202 C203 1.415 . S
C203 H173 0.950 . S
C203 C198 1.363 . S
C203 C202 1.415 . S
H204 C201 0.999 . S
H205 C186 0.913 . S
H206 C224 0.951 . S
H207 C226 0.951 . S
H208 C228 0.954 . S
H209 C229 0.951 . S
H210 C231 0.951 . S
H211 C234 0.950 . S
H212 C235 0.950 . S
H213 C237 0.950 . S
H214 C238 0.950 . S
H215 C239 0.950 1_545 S
H216 C241 0.951 1_545 S
H217 C243 0.950 . S
H218 C244 0.950 . S
H219 C246 0.951 . S
H220 C249 0.950 . S
H221 C250 0.950 . S
H222 C252 0.950 . S
H223 C253 0.950 . S
C224 H206 0.951 . S
C224 C225 1.366 . S
C224 C226 1.388 . S
C225 C224 1.366 . S
C225 C229 1.383 1_565 S
C226 H207 0.951 . S
C226 C224 1.388 . S
C226 C227 1.366 . S
C227 C226 1.366 . S
C227 C228 1.412 1_565 S
C227 C230 1.499 . S
C228 H208 0.954 . S
C228 C227 1.412 1_545 S
C228 C229 1.374 . S
C229 H209 0.951 . S
C229 C225 1.383 1_545 S
C229 C228 1.374 . S
C230 C227 1.499 . S
C230 C231 1.362 1_554 S
C230 C232 1.389 1_565 S
C231 H210 0.951 . S
C231 C230 1.362 1_556 S
C231 C247 1.387 . S
C232 C230 1.389 1_545 S
C232 C233 1.524 . S
C232 C246 1.387 . S
C233 C232 1.524 . S
C233 C234 1.397 . S
C233 C238 1.363 . S
C234 H211 0.950 . S
C234 C233 1.397 . S
C234 C235 1.334 . S
C235 H212 0.950 . S
C235 C234 1.334 . S
C235 C236 1.287 . S
C236 C235 1.287 . S
C236 C237 1.524 . S
C236 H255 0.913 . S
C237 H213 0.950 . S
C237 C236 1.524 . S
C237 C238 1.415 . S
C238 H214 0.950 . S
C238 C233 1.363 . S
C238 C237 1.415 . S
C239 H215 0.950 1_565 S
C239 C240 1.367 . S
C239 C241 1.388 . S
C240 C239 1.367 . S
C240 C244 1.385 . S
C241 H216 0.951 1_565 S
C241 C239 1.388 . S
C241 C242 1.366 . S
C242 C241 1.366 . S
C242 C243 1.414 . S
C242 C245 1.499 . S
C243 H217 0.950 . S
C243 C242 1.414 . S
C243 C244 1.374 . S
C244 H218 0.950 . S
C244 C240 1.385 . S
C244 C243 1.374 . S
C245 C242 1.499 . S
C245 C246 1.362 1_566 S
C245 C247 1.389 . S
C246 H219 0.951 . S
C246 C232 1.387 . S
C246 C245 1.362 1_544 S
C247 C231 1.387 . S
C247 C245 1.389 . S
C247 C248 1.524 . S
C248 C247 1.524 . S
C248 C249 1.397 . S
C248 C253 1.363 . S
C249 H220 0.950 . S
C249 C248 1.397 . S
C249 C250 1.334 . S
C250 H221 0.950 . S
C250 C249 1.334 . S
C250 C251 1.287 . S
C251 C250 1.287 . S
C251 C252 1.524 . S
C251 H254 0.999 . S
C252 H222 0.950 . S
C252 C251 1.524 . S
C252 C253 1.415 . S
C253 H223 0.950 . S
C253 C248 1.363 . S
C253 C252 1.415 . S
H254 C251 0.999 . S
H255 C236 0.913 . S
H256 C274 0.951 . S
H257 C276 0.951 . S
H258 C278 0.950 . S
H259 C279 0.950 . S
H260 C281 0.950 . S
H261 C284 0.950 . S
H262 C285 0.950 . S
H263 C287 0.950 . S
H264 C288 0.950 . S
H265 C289 0.951 . S
H266 C291 0.951 . S
H267 C293 0.950 . S
H268 C294 0.950 . S
H269 C296 0.950 . S
H270 C299 0.950 . S
H271 C300 0.950 . S
H272 C302 0.950 . S
H273 C303 0.950 . S
C274 H256 0.951 . S
C274 C275 1.366 . S
C274 C276 1.388 . S
C275 C274 1.366 . S
C275 C279 1.385 . S
C276 H257 0.951 . S
C276 C274 1.388 . S
C276 C277 1.366 . S
C277 C276 1.366 . S
C277 C278 1.414 . S
C277 C280 1.499 . S
C278 H258 0.950 . S
C278 C277 1.414 . S
C278 C279 1.374 . S
C279 H259 0.950 . S
C279 C275 1.385 . S
C279 C278 1.374 . S
C280 C277 1.499 . S
C280 C281 1.373 . S
C280 C282 1.389 . S
C281 H260 0.950 . S
C281 C280 1.373 . S
C281 C297 1.377 . S
C282 C280 1.389 . S
C282 C283 1.524 . S
C282 C296 1.377 . S
C283 C282 1.524 . S
C283 C284 1.397 . S
C283 C288 1.363 . S
C284 H261 0.950 . S
C284 C283 1.397 . S
C284 C285 1.334 . S
C285 H262 0.950 . S
C285 C284 1.334 . S
C285 C286 1.287 . S
C286 C285 1.287 . S
C286 C287 1.524 . S
C286 H305 0.913 1_554 S
C287 H263 0.950 . S
C287 C286 1.524 . S
C287 C288 1.415 . S
C288 H264 0.950 . S
C288 C283 1.363 . S
C288 C287 1.415 . S
C289 H265 0.951 . S
C289 C290 1.366 . S
C289 C291 1.388 . S
C290 C289 1.366 . S
C290 C294 1.385 . S
C291 H266 0.951 . S
C291 C289 1.388 . S
C291 C292 1.366 . S
C292 C291 1.366 . S
C292 C293 1.414 . S
C292 C295 1.499 . S
C293 H267 0.950 . S
C293 C292 1.414 . S
C293 C294 1.374 . S
C294 H268 0.950 . S
C294 C290 1.385 . S
C294 C293 1.374 . S
C295 C292 1.499 . S
C295 C296 1.373 . S
C295 C297 1.389 . S
C296 H269 0.950 . S
C296 C282 1.377 . S
C296 C295 1.373 . S
C297 C281 1.377 . S
C297 C295 1.389 . S
C297 C298 1.524 . S
C298 C297 1.524 . S
C298 C299 1.397 . S
C298 C303 1.363 . S
C299 H270 0.950 . S
C299 C298 1.397 . S
C299 C300 1.334 . S
C300 H271 0.950 . S
C300 C299 1.334 . S
C300 C301 1.287 . S
C301 C300 1.287 . S
C301 C302 1.524 . S
C301 H304 0.999 . S
C302 H272 0.950 . S
C302 C301 1.524 . S
C302 C303 1.415 . S
C303 H273 0.950 . S
C303 C298 1.363 . S
C303 C302 1.415 . S
H304 C301 0.999 . S
H305 C286 0.913 1_556 S
H306 C324 0.951 . S
H307 C326 0.951 . S
H308 C328 0.950 . S
H309 C329 0.950 . S
H310 C331 0.950 . S
H311 C334 0.950 . S
H312 C335 0.950 . S
H313 C337 0.950 . S
H314 C338 0.950 . S
H315 C339 0.951 . S
H316 C341 0.951 . S
H317 C343 0.950 . S
H318 C344 0.950 . S
H319 C346 0.950 . S
H320 C349 0.950 . S
H321 C350 0.950 . S
H322 C352 0.950 . S
H323 C353 0.950 . S
C324 H306 0.951 . S
C324 C325 1.366 . S
C324 C326 1.388 . S
C325 C324 1.366 . S
C325 C329 1.385 . S
C326 H307 0.951 . S
C326 C324 1.388 . S
C326 C327 1.366 . S
C327 C326 1.366 . S
C327 C328 1.414 . S
C327 C330 1.499 . S
C328 H308 0.950 . S
C328 C327 1.414 . S
C328 C329 1.374 . S
C329 H309 0.950 . S
C329 C325 1.385 . S
C329 C328 1.374 . S
C330 C327 1.499 . S
C330 C331 1.373 . S
C330 C332 1.389 . S
C331 H310 0.950 . S
C331 C330 1.373 . S
C331 C347 1.377 . S
C332 C330 1.389 . S
C332 C333 1.524 . S
C332 C346 1.377 . S
C333 C332 1.524 . S
C333 C334 1.397 . S
C333 C338 1.363 . S
C334 H311 0.950 . S
C334 C333 1.397 . S
C334 C335 1.334 . S
C335 H312 0.950 . S
C335 C334 1.334 . S
C335 C336 1.287 . S
C336 C335 1.287 . S
C336 C337 1.524 . S
C336 H355 0.913 . S
C337 H313 0.950 . S
C337 C336 1.524 . S
C337 C338 1.415 . S
C338 H314 0.950 . S
C338 C333 1.363 . S
C338 C337 1.415 . S
C339 H315 0.951 . S
C339 C340 1.366 . S
C339 C341 1.388 . S
C340 C339 1.366 . S
C340 C344 1.385 . S
C341 H316 0.951 . S
C341 C339 1.388 . S
C341 C342 1.366 . S
C342 C341 1.366 . S
C342 C343 1.414 . S
C342 C345 1.499 . S
C343 H317 0.950 . S
C343 C342 1.414 . S
C343 C344 1.374 . S
C344 H318 0.950 . S
C344 C340 1.385 . S
C344 C343 1.374 . S
C345 C342 1.499 . S
C345 C346 1.373 . S
C345 C347 1.389 . S
C346 H319 0.950 . S
C346 C332 1.377 . S
C346 C345 1.373 . S
C347 C331 1.377 . S
C347 C345 1.389 . S
C347 C348 1.524 . S
C348 C347 1.524 . S
C348 C349 1.397 . S
C348 C353 1.363 . S
C349 H320 0.950 . S
C349 C348 1.397 . S
C349 C350 1.334 . S
C350 H321 0.950 . S
C350 C349 1.334 . S
C350 C351 1.287 . S
C351 C350 1.287 . S
C351 C352 1.524 . S
C351 H354 0.999 . S
C352 H322 0.950 . S
C352 C351 1.524 . S
C352 C353 1.415 . S
C353 H323 0.950 . S
C353 C348 1.363 . S
C353 C352 1.415 . S
H354 C351 0.999 . S
H355 C336 0.913 . S
H356 C374 0.951 . S
H357 C376 0.951 . S
H358 C378 0.950 . S
H359 C379 0.950 . S
H360 C381 0.950 . S
H361 C384 0.950 . S
H362 C385 0.950 . S
H363 C387 0.950 . S
H364 C388 0.950 . S
H365 C389 0.951 . S
H366 C391 0.951 . S
H367 C393 0.950 . S
H368 C394 0.950 . S
H369 C396 0.950 . S
H370 C399 0.950 . S
H371 C400 0.950 . S
H372 C402 0.950 . S
H373 C403 0.950 . S
C374 H356 0.951 . S
C374 C375 1.366 . S
C374 C376 1.388 . S
C375 C374 1.366 . S
C375 C379 1.385 . S
C376 H357 0.951 . S
C376 C374 1.388 . S
C376 C377 1.366 . S
C377 C376 1.366 . S
C377 C378 1.414 . S
C377 C380 1.499 . S
C378 H358 0.950 . S
C378 C377 1.414 . S
C378 C379 1.374 . S
C379 H359 0.950 . S
C379 C375 1.385 . S
C379 C378 1.374 . S
C380 C377 1.499 . S
C380 C381 1.373 . S
C380 C382 1.389 . S
C381 H360 0.950 . S
C381 C380 1.373 . S
C381 C397 1.377 . S
C382 C380 1.389 . S
C382 C383 1.524 . S
C382 C396 1.377 . S
C383 C382 1.524 . S
C383 C384 1.397 . S
C383 C388 1.363 . S
C384 H361 0.950 . S
C384 C383 1.397 . S
C384 C385 1.334 . S
C385 H362 0.950 . S
C385 C384 1.334 . S
C385 C386 1.287 . S
C386 C385 1.287 . S
C386 C387 1.524 . S
C386 H405 0.913 . S
C387 H363 0.950 . S
C387 C386 1.524 . S
C387 C388 1.415 . S
C388 H364 0.950 . S
C388 C383 1.363 . S
C388 C387 1.415 . S
C389 H365 0.951 . S
C389 C390 1.366 . S
C389 C391 1.388 . S
C390 C389 1.366 . S
C390 C394 1.385 . S
C391 H366 0.951 . S
C391 C389 1.388 . S
C391 C392 1.366 . S
C392 C391 1.366 . S
C392 C393 1.414 . S
C392 C395 1.499 . S
C393 H367 0.950 . S
C393 C392 1.414 . S
C393 C394 1.374 . S
C394 H368 0.950 . S
C394 C390 1.385 . S
C394 C393 1.374 . S
C395 C392 1.499 . S
C395 C396 1.373 . S
C395 C397 1.389 . S
C396 H369 0.950 . S
C396 C382 1.377 . S
C396 C395 1.373 . S
C397 C381 1.377 . S
C397 C395 1.389 . S
C397 C398 1.524 . S
C398 C397 1.524 . S
C398 C399 1.397 . S
C398 C403 1.363 . S
C399 H370 0.950 . S
C399 C398 1.397 . S
C399 C400 1.334 . S
C400 H371 0.950 . S
C400 C399 1.334 . S
C400 C401 1.287 . S
C401 C400 1.287 . S
C401 C402 1.524 . S
C401 H404 0.999 . S
C402 H372 0.950 . S
C402 C401 1.524 . S
C402 C403 1.415 . S
C403 H373 0.950 . S
C403 C398 1.363 . S
C403 C402 1.415 . S
H404 C401 0.999 . S
H405 C386 0.913 . S
H406 C424 0.951 . S
H407 C426 0.951 . S
H408 C428 0.950 . S
H409 C429 0.950 . S
H410 C431 0.950 . S
H411 C434 0.950 . S
H412 C435 0.950 . S
H413 C437 0.950 . S
H414 C438 0.950 . S
H415 C439 0.951 . S
H416 C441 0.951 . S
H417 C443 0.950 . S
H418 C444 0.950 . S
H419 C446 0.950 . S
H420 C449 0.950 . S
H421 C450 0.950 . S
H422 C452 0.950 . S
H423 C453 0.950 . S
C424 H406 0.951 . S
C424 C425 1.366 . S
C424 C426 1.388 . S
C425 C424 1.366 . S
C425 C429 1.385 . S
C426 H407 0.951 . S
C426 C424 1.388 . S
C426 C427 1.366 . S
C427 C426 1.366 . S
C427 C428 1.414 . S
C427 C430 1.499 . S
C428 H408 0.950 . S
C428 C427 1.414 . S
C428 C429 1.374 . S
C429 H409 0.950 . S
C429 C425 1.385 . S
C429 C428 1.374 . S
C430 C427 1.499 . S
C430 C431 1.373 . S
C430 C432 1.389 . S
C431 H410 0.950 . S
C431 C430 1.373 . S
C431 C447 1.377 . S
C432 C430 1.389 . S
C432 C433 1.524 . S
C432 C446 1.377 . S
C433 C432 1.524 . S
C433 C434 1.397 . S
C433 C438 1.363 . S
C434 H411 0.950 . S
C434 C433 1.397 . S
C434 C435 1.334 . S
C435 H412 0.950 . S
C435 C434 1.334 . S
C435 C436 1.287 1_556 S
C436 C435 1.287 1_554 S
C436 C437 1.524 . S
C436 H455 0.913 . S
C437 H413 0.950 . S
C437 C436 1.524 . S
C437 C438 1.415 1_554 S
C438 H414 0.950 . S
C438 C433 1.363 . S
C438 C437 1.415 1_556 S
C439 H415 0.951 . S
C439 C440 1.366 . S
C439 C441 1.388 . S
C440 C439 1.366 . S
C440 C444 1.385 . S
C441 H416 0.951 . S
C441 C439 1.388 . S
C441 C442 1.366 . S
C442 C441 1.366 . S
C442 C443 1.414 . S
C442 C445 1.499 . S
C443 H417 0.950 . S
C443 C442 1.414 . S
C443 C444 1.374 . S
C444 H418 0.950 . S
C444 C440 1.385 . S
C444 C443 1.374 . S
C445 C442 1.499 . S
C445 C446 1.373 . S
C445 C447 1.389 . S
C446 H419 0.950 . S
C446 C432 1.377 . S
C446 C445 1.373 . S
C447 C431 1.377 . S
C447 C445 1.389 . S
C447 C448 1.524 . S
C448 C447 1.524 . S
C448 C449 1.397 . S
C448 C453 1.363 . S
C449 H420 0.950 . S
C449 C448 1.397 . S
C449 C450 1.334 . S
C450 H421 0.950 . S
C450 C449 1.334 . S
C450 C451 1.287 . S
C451 C450 1.287 . S
C451 C452 1.524 . S
C451 H454 0.999 . S
C452 H422 0.950 . S
C452 C451 1.524 . S
C452 C453 1.415 . S
C453 H423 0.950 . S
C453 C448 1.363 . S
C453 C452 1.415 . S
H454 C451 0.999 . S
H455 C436 0.913 . S
C75 C9 1.663 . S
C90 C36 1.661 . S
C125 C22 1.663 . S
C140 C51 1.663 . S
C175 C8 1.663 . S
C190 C37 1.665 . S
C225 C23 1.663 . S
C240 C50 1.663 . S
C275 C21 1.434 . S
C290 C7 1.433 . S
C325 C20 1.434 . S
C340 C34 1.428 . S
C375 C49 1.434 . S
C390 C35 1.433 . S
C425 C48 1.434 . S
C440 C6 1.440 . S
