# Generated by pormake.
# Topology ech, (8)-cn, num edge types: 1
# Building blocks:
#     Node 0, Type 0, BuildingBlock: EBIMEJ_clean_sbu_0, # of connection points: 8
#     Node 1, Type 0, BuildingBlock: EBIMEJ_clean_sbu_0, # of connection points: 8
#     Node 2, Type 0, BuildingBlock: EBIMEJ_clean_sbu_0, # of connection points: 8
#     Node 3, Type 0, BuildingBlock: EBIMEJ_clean_sbu_0, # of connection points: 8
#     Node 4, Type 0, BuildingBlock: EBIMEJ_clean_sbu_0, # of connection points: 8
#     Node 5, Type 0, BuildingBlock: EBIMEJ_clean_sbu_0, # of connection points: 8
#     Node 6, Type 0, BuildingBlock: EBIMEJ_clean_sbu_0, # of connection points: 8
#     Node 7, Type 0, BuildingBlock: EBIMEJ_clean_sbu_0, # of connection points: 8
#     Node 8, Type 0, BuildingBlock: EBIMEJ_clean_sbu_0, # of connection points: 8
#     Node 9, Type 0, BuildingBlock: EBIMEJ_clean_sbu_0, # of connection points: 8
#     Node 10, Type 0, BuildingBlock: EBIMEJ_clean_sbu_0, # of connection points: 8
#     Node 11, Type 0, BuildingBlock: EBIMEJ_clean_sbu_0, # of connection points: 8
#     Node 12, Type 0, BuildingBlock: EBIMEJ_clean_sbu_0, # of connection points: 8
#     Node 13, Type 0, BuildingBlock: EBIMEJ_clean_sbu_0, # of connection points: 8
#     Node 14, Type 0, BuildingBlock: EBIMEJ_clean_sbu_0, # of connection points: 8
#     Node 15, Type 0, BuildingBlock: EBIMEJ_clean_sbu_0, # of connection points: 8
#     Node 16, Type 0, BuildingBlock: EBIMEJ_clean_sbu_0, # of connection points: 8
#     Node 17, Type 0, BuildingBlock: EBIMEJ_clean_sbu_0, # of connection points: 8
#     Node 18, Type 0, BuildingBlock: EBIMEJ_clean_sbu_0, # of connection points: 8
#     Node 19, Type 0, BuildingBlock: EBIMEJ_clean_sbu_0, # of connection points: 8
#     Node 20, Type 0, BuildingBlock: EBIMEJ_clean_sbu_0, # of connection points: 8
#     Node 21, Type 0, BuildingBlock: EBIMEJ_clean_sbu_0, # of connection points: 8
#     Node 22, Type 0, BuildingBlock: EBIMEJ_clean_sbu_0, # of connection points: 8
#     Node 23, Type 0, BuildingBlock: EBIMEJ_clean_sbu_0, # of connection points: 8
#     Edge 24, Type (0, 0), None
#     Edge 25, Type (0, 0), None
#     Edge 26, Type (0, 0), None
#     Edge 27, Type (0, 0), None
#     Edge 28, Type (0, 0), None
#     Edge 29, Type (0, 0), None
#     Edge 30, Type (0, 0), None
#     Edge 31, Type (0, 0), None
#     Edge 32, Type (0, 0), None
#     Edge 33, Type (0, 0), None
#     Edge 34, Type (0, 0), None
#     Edge 35, Type (0, 0), None
#     Edge 36, Type (0, 0), None
#     Edge 37, Type (0, 0), None
#     Edge 38, Type (0, 0), None
#     Edge 39, Type (0, 0), None
#     Edge 40, Type (0, 0), None
#     Edge 41, Type (0, 0), None
#     Edge 42, Type (0, 0), None
#     Edge 43, Type (0, 0), None
#     Edge 44, Type (0, 0), None
#     Edge 45, Type (0, 0), None
#     Edge 46, Type (0, 0), None
#     Edge 47, Type (0, 0), None
#     Edge 48, Type (0, 0), None
#     Edge 49, Type (0, 0), None
#     Edge 50, Type (0, 0), None
#     Edge 51, Type (0, 0), None
#     Edge 52, Type (0, 0), None
#     Edge 53, Type (0, 0), None
#     Edge 54, Type (0, 0), None
#     Edge 55, Type (0, 0), None
#     Edge 56, Type (0, 0), None
#     Edge 57, Type (0, 0), None
#     Edge 58, Type (0, 0), None
#     Edge 59, Type (0, 0), None
#     Edge 60, Type (0, 0), None
#     Edge 61, Type (0, 0), None
#     Edge 62, Type (0, 0), None
#     Edge 63, Type (0, 0), None
#     Edge 64, Type (0, 0), None
#     Edge 65, Type (0, 0), None
#     Edge 66, Type (0, 0), None
#     Edge 67, Type (0, 0), None
#     Edge 68, Type (0, 0), None
#     Edge 69, Type (0, 0), None
#     Edge 70, Type (0, 0), None
#     Edge 71, Type (0, 0), None
#     Edge 72, Type (0, 0), None
#     Edge 73, Type (0, 0), None
#     Edge 74, Type (0, 0), None
#     Edge 75, Type (0, 0), None
#     Edge 76, Type (0, 0), None
#     Edge 77, Type (0, 0), None
#     Edge 78, Type (0, 0), None
#     Edge 79, Type (0, 0), None
#     Edge 80, Type (0, 0), None
#     Edge 81, Type (0, 0), None
#     Edge 82, Type (0, 0), None
#     Edge 83, Type (0, 0), None
#     Edge 84, Type (0, 0), None
#     Edge 85, Type (0, 0), None
#     Edge 86, Type (0, 0), None
#     Edge 87, Type (0, 0), None
#     Edge 88, Type (0, 0), None
#     Edge 89, Type (0, 0), None
#     Edge 90, Type (0, 0), None
#     Edge 91, Type (0, 0), None
#     Edge 92, Type (0, 0), None
#     Edge 93, Type (0, 0), None
#     Edge 94, Type (0, 0), None
#     Edge 95, Type (0, 0), None
#     Edge 96, Type (0, 0), None
#     Edge 97, Type (0, 0), None
#     Edge 98, Type (0, 0), None
#     Edge 99, Type (0, 0), None
#     Edge 100, Type (0, 0), None
#     Edge 101, Type (0, 0), None
#     Edge 102, Type (0, 0), None
#     Edge 103, Type (0, 0), None
#     Edge 104, Type (0, 0), None
#     Edge 105, Type (0, 0), None
#     Edge 106, Type (0, 0), None
#     Edge 107, Type (0, 0), None
#     Edge 108, Type (0, 0), None
#     Edge 109, Type (0, 0), None
#     Edge 110, Type (0, 0), None
#     Edge 111, Type (0, 0), None
#     Edge 112, Type (0, 0), None
#     Edge 113, Type (0, 0), None
#     Edge 114, Type (0, 0), None
#     Edge 115, Type (0, 0), None
#     Edge 116, Type (0, 0), None
#     Edge 117, Type (0, 0), None
#     Edge 118, Type (0, 0), None
#     Edge 119, Type (0, 0), None
# Relax obj value: 0.240
# Max RMSD: 0.229
# Mean RMSD: 0.229
data_MOF--net-ech--node1-EBIMEJ_clean_sbu_0--edge1-none
_symmetry_space_group_name_H-M    P1
_symmetry_Int_Tables_number       1
_symmetry_cell_setting            triclinic
loop_
_symmetry_equiv_pos_as_xyz
'x, y, z'
_cell_length_a     25.220483
_cell_length_b     25.220931
_cell_length_c     25.220739
_cell_angle_alpha  89.999999
_cell_angle_beta   89.999999
_cell_angle_gamma 89.999999
loop_
_atom_site_label
_atom_site_type_symbol
_atom_site_fract_x
_atom_site_fract_y
_atom_site_fract_z
_atom_type_partial_charge
Co0 Co 0.21714 0.25692 0.43111 0.0
Co1 Co 0.17168 0.31224 0.55132 0.0
Co2 Co 0.14754 0.36193 0.44624 0.0
H3 H 0.18619 0.31281 0.45317 0.0
O4 O 0.20642 0.31707 0.48051 0.0
H5 H 0.12896 0.35274 0.53609 0.0
O6 O 0.10973 0.34289 0.50974 0.0
Co7 Co 0.09455 0.40771 0.54604 0.0
O8 O 0.06738 0.34553 0.58618 0.0
O9 O 0.13775 0.31952 0.62513 0.0
O10 O 0.11977 0.46167 0.49427 0.0
O11 O 0.09538 0.41568 0.42478 0.0
O12 O 0.29044 0.21881 0.42825 0.0
O13 O 0.25909 0.24787 0.35897 0.0
O14 O 0.16022 0.44262 0.57711 0.0
O15 O 0.21726 0.37574 0.56893 0.0
C16 C 0.21026 0.35195 0.34916 0.0
C17 C 0.23936 0.22554 0.5581 0.0
C18 C 1.0053 0.43106 0.52061 0.0
C19 C 0.09864 0.261 0.40293 0.0
C20 C 0.09133 0.33961 0.62923 0.0
C21 C 0.09975 0.4597 0.44826 0.0
C22 C 0.29836 0.22525 0.37935 0.0
C23 C 0.20694 0.42349 0.58177 0.0
O24 O 0.22085 0.30263 0.35941 0.0
O25 O 0.1871 0.38118 0.38252 0.0
O26 O 0.22707 0.26945 0.57895 0.0
O27 O 0.23508 0.2159 0.50666 0.0
O28 O 1.03895 0.46365 0.53771 0.0
O29 O 1.02078 0.38403 0.52204 0.0
O30 O 0.14007 0.23271 0.413 0.0
O31 O 0.10027 0.311 0.40786 0.0
Co32 Co 0.37356 0.83376 0.93111 0.0
Co33 Co 0.41902 0.77845 0.05132 0.0
Co34 Co 0.44316 0.72875 0.94624 0.0
H35 H 0.40451 0.77787 0.95317 0.0
O36 O 0.38428 0.77361 0.98051 0.0
H37 H 0.46174 0.73794 1.03609 0.0
O38 O 0.48097 0.74779 1.00974 0.0
Co39 Co 0.49615 0.68297 0.04604 0.0
O40 O 0.52332 0.74515 0.08618 0.0
O41 O 0.45295 0.77116 0.12513 0.0
O42 O 0.47093 0.62901 0.99427 0.0
O43 O 0.49532 0.675 0.92478 0.0
O44 O 0.30026 0.87187 0.92825 0.0
O45 O 0.33161 0.84281 0.85897 0.0
O46 O 0.43048 0.64806 0.07711 0.0
O47 O 0.37344 0.71494 0.06893 0.0
C48 C 0.38044 0.73874 0.84916 0.0
C49 C 0.35134 0.86514 0.0581 0.0
C50 C 0.5854 0.65962 1.02061 0.0
C51 C 0.49206 0.82968 0.90293 0.0
C52 C 0.49937 0.75107 0.12923 0.0
C53 C 0.49095 0.63098 0.94826 0.0
C54 C 0.29234 0.86543 0.87935 0.0
C55 C 0.38377 0.6672 0.08177 0.0
O56 O 0.36985 0.78805 0.85941 0.0
O57 O 0.4036 0.7095 0.88252 0.0
O58 O 0.36363 0.82123 0.07895 0.0
O59 O 0.35562 0.87478 1.00666 0.0
O60 O 0.55175 0.62704 1.03771 0.0
O61 O 0.56992 0.70665 1.02204 0.0
O62 O 0.45063 0.85797 0.913 0.0
O63 O 0.49043 0.77968 0.90786 0.0
Co64 Co 0.71714 0.33376 0.65958 0.0
Co65 Co 0.67168 0.27845 0.53937 0.0
Co66 Co 0.64754 0.22875 0.64445 0.0
H67 H 0.68619 0.27787 0.63751 0.0
O68 O 0.70642 0.27361 0.61018 0.0
H69 H 0.62896 0.23794 0.5546 0.0
O70 O 0.60973 0.24779 0.58095 0.0
Co71 Co 0.59455 0.18297 0.54464 0.0
O72 O 0.56738 0.24515 0.50451 0.0
O73 O 0.63775 0.27116 0.46556 0.0
O74 O 0.61977 0.12901 0.59642 0.0
O75 O 0.59538 0.175 0.66591 0.0
O76 O 0.79044 0.37187 0.66244 0.0
O77 O 0.75909 0.34281 0.73172 0.0
O78 O 0.66022 0.14806 0.51358 0.0
O79 O 0.71726 0.21494 0.52176 0.0
C80 C 0.71026 0.23874 0.74153 0.0
C81 C 0.73936 0.36514 0.53259 0.0
C82 C 0.5053 0.15962 0.57008 0.0
C83 C 0.59864 0.32968 0.68776 0.0
C84 C 0.59133 0.25107 0.46146 0.0
C85 C 0.59975 0.13098 0.64243 0.0
C86 C 0.79836 0.36543 0.71134 0.0
C87 C 0.70694 0.1672 0.50892 0.0
O88 O 0.72085 0.28805 0.73127 0.0
O89 O 0.6871 0.2095 0.70817 0.0
O90 O 0.72707 0.32123 0.51174 0.0
O91 O 0.73508 0.37478 0.58403 0.0
O92 O 0.53895 0.12704 0.55298 0.0
O93 O 0.52078 0.20665 0.56865 0.0
O94 O 0.64007 0.35797 0.67769 0.0
O95 O 0.60027 0.27968 0.68282 0.0
Co96 Co 0.87356 0.75692 0.15958 0.0
Co97 Co 0.91902 0.81224 1.03937 0.0
Co98 Co 0.94316 0.86193 0.14445 0.0
H99 H 0.90451 0.81281 0.13751 0.0
O100 O 0.88428 0.81707 0.11018 0.0
H101 H 0.96174 0.85274 0.0546 0.0
O102 O 0.98097 0.84289 0.08095 0.0
Co103 Co 0.99615 0.90771 1.04464 0.0
O104 O 1.02332 0.84553 1.00451 0.0
O105 O 0.95295 0.81952 0.96556 0.0
O106 O 0.97093 0.96167 0.09642 0.0
O107 O 0.99532 0.91568 0.16591 0.0
O108 O 0.80026 0.71881 0.16244 0.0
O109 O 0.83161 0.74787 0.23172 0.0
O110 O 0.93048 0.94262 1.01358 0.0
O111 O 0.87344 0.87574 1.02176 0.0
C112 C 0.88044 0.85195 0.24153 0.0
C113 C 0.85134 0.72554 1.03259 0.0
C114 C 0.0854 0.93106 0.07008 0.0
C115 C 0.99206 0.761 0.18776 0.0
C116 C 0.99937 0.83961 0.96146 0.0
C117 C 0.99095 0.9597 0.14243 0.0
C118 C 0.79234 0.72525 0.21134 0.0
C119 C 0.88377 0.92349 1.00892 0.0
O120 O 0.86985 0.80263 0.23127 0.0
O121 O 0.9036 0.88118 0.20817 0.0
O122 O 0.86363 0.76945 1.01174 0.0
O123 O 0.85562 0.7159 0.08403 0.0
O124 O 0.05175 0.96365 0.05298 0.0
O125 O 0.06992 0.88403 0.06865 0.0
O126 O 0.95063 0.73271 0.17769 0.0
O127 O 0.99043 0.811 0.18282 0.0
Co128 Co 0.43111 0.21713 0.25692 0.0
Co129 Co 0.55132 0.17165 0.31223 0.0
Co130 Co 0.44623 0.14753 0.36193 0.0
H131 H 0.45318 0.18618 0.31281 0.0
O132 O 0.48052 0.20641 0.31707 0.0
H133 H 0.53609 0.12894 0.35275 0.0
O134 O 0.50973 0.10972 0.34289 0.0
Co135 Co 0.54603 0.09454 0.40773 0.0
O136 O 0.58616 0.06736 0.34554 0.0
O137 O 0.62512 0.13771 0.31952 0.0
O138 O 0.49425 0.11979 0.46167 0.0
O139 O 0.42477 0.09537 0.41567 0.0
O140 O 0.42825 0.29043 0.21882 0.0
O141 O 0.35896 0.25908 0.24787 0.0
O142 O 0.5771 0.16022 0.44263 0.0
O143 O 0.56895 0.21724 0.37573 0.0
C144 C 0.34915 0.21024 0.35194 0.0
C145 C 0.5581 0.23935 0.22554 0.0
C146 C 0.52061 1.0053 0.43108 0.0
C147 C 0.40293 0.09863 0.261 0.0
C148 C 0.62922 0.0913 0.33962 0.0
C149 C 0.44824 0.09975 0.4597 0.0
C150 C 0.37935 0.29835 0.22525 0.0
C151 C 0.58178 0.20692 0.42348 0.0
O152 O 0.35941 0.22083 0.30262 0.0
O153 O 0.38252 0.1871 0.38118 0.0
O154 O 0.57896 0.22703 0.26944 0.0
O155 O 0.50666 0.23508 0.2159 0.0
O156 O 0.53771 1.03895 0.46366 0.0
O157 O 0.52203 1.02078 0.38405 0.0
O158 O 0.413 0.14006 0.23271 0.0
O159 O 0.40786 0.10026 0.311 0.0
Co160 Co 0.15959 0.87355 0.75692 0.0
Co161 Co 1.03938 0.91903 0.81223 0.0
Co162 Co 0.14447 0.94315 0.86193 0.0
H163 H 0.13752 0.9045 0.81281 0.0
O164 O 0.11018 0.88427 0.81707 0.0
H165 H 0.05461 0.96174 0.85275 0.0
O166 O 0.08097 0.98096 0.84289 0.0
Co167 Co 1.04467 0.99614 0.90773 0.0
O168 O 1.00454 1.02332 0.84554 0.0
O169 O 0.96558 0.95297 0.81952 0.0
O170 O 0.09645 0.9709 0.96167 0.0
O171 O 0.16593 0.99531 0.91567 0.0
O172 O 0.16245 0.80025 0.71882 0.0
O173 O 0.23174 0.8316 0.74787 0.0
O174 O 1.0136 0.93046 0.94263 0.0
O175 O 1.02175 0.87344 0.87573 0.0
C176 C 0.24155 0.88044 0.85194 0.0
C177 C 1.0326 0.85133 0.72554 0.0
C178 C 0.07009 0.08538 0.93108 0.0
C179 C 0.18777 0.99205 0.761 0.0
C180 C 0.96149 0.99938 0.83962 0.0
C181 C 0.14246 0.99093 0.9597 0.0
C182 C 0.21135 0.79233 0.72525 0.0
C183 C 1.00892 0.88376 0.92348 0.0
O184 O 0.23129 0.86985 0.80262 0.0
O185 O 0.20818 0.90359 0.88118 0.0
O186 O 1.01174 0.86365 0.76944 0.0
O187 O 0.08405 0.8556 0.7159 0.0
O188 O 0.05299 0.05173 0.96366 0.0
O189 O 0.06867 0.06991 0.88405 0.0
O190 O 0.17771 0.95062 0.73271 0.0
O191 O 0.18284 0.99042 0.811 0.0
Co192 Co 0.93111 0.37355 0.83377 0.0
Co193 Co 0.05132 0.41903 0.77846 0.0
Co194 Co 0.94623 0.44315 0.72876 0.0
H195 H 0.95318 0.4045 0.77788 0.0
O196 O 0.98052 0.38427 0.77362 0.0
H197 H 1.03609 0.46174 0.73794 0.0
O198 O 1.00973 0.48096 0.7478 0.0
Co199 Co 0.04603 0.49614 0.68296 0.0
O200 O 0.08616 0.52332 0.74515 0.0
O201 O 0.12512 0.45297 0.77117 0.0
O202 O 0.99425 0.4709 0.62902 0.0
O203 O 0.92477 0.49531 0.67502 0.0
O204 O 0.92825 0.30025 0.87187 0.0
O205 O 0.85896 0.3316 0.84282 0.0
O206 O 0.0771 0.43046 0.64806 0.0
O207 O 0.06895 0.37344 0.71496 0.0
C208 C 0.84915 0.38044 0.73875 0.0
C209 C 0.0581 0.35133 0.86515 0.0
C210 C 1.02061 0.58538 0.65961 0.0
C211 C 0.90293 0.49205 0.82969 0.0
C212 C 0.12922 0.49938 0.75107 0.0
C213 C 0.94824 0.49093 0.63099 0.0
C214 C 0.87935 0.29233 0.86544 0.0
C215 C 0.08178 0.38376 0.66721 0.0
O216 O 0.85941 0.36985 0.78807 0.0
O217 O 0.88252 0.40359 0.70951 0.0
O218 O 0.07896 0.36365 0.82125 0.0
O219 O 1.00666 0.3556 0.87479 0.0
O220 O 1.03771 0.55173 0.62703 0.0
O221 O 1.02203 0.56991 0.70664 0.0
O222 O 0.913 0.45062 0.85798 0.0
O223 O 0.90786 0.49042 0.77969 0.0
Co224 Co 0.65959 0.71713 0.33377 0.0
Co225 Co 0.53938 0.67165 0.27846 0.0
Co226 Co 0.64447 0.64753 0.22876 0.0
H227 H 0.63752 0.68618 0.27788 0.0
O228 O 0.61018 0.70641 0.27362 0.0
H229 H 0.55461 0.62894 0.23794 0.0
O230 O 0.58097 0.60972 0.2478 0.0
Co231 Co 0.54467 0.59454 0.18296 0.0
O232 O 0.50454 0.56736 0.24515 0.0
O233 O 0.46558 0.63771 0.27117 0.0
O234 O 0.59645 0.61979 0.12902 0.0
O235 O 0.66593 0.59537 0.17502 0.0
O236 O 0.66245 0.79043 0.37187 0.0
O237 O 0.73174 0.75908 0.34282 0.0
O238 O 0.5136 0.66022 0.14806 0.0
O239 O 0.52175 0.71724 0.21496 0.0
C240 C 0.74155 0.71024 0.23875 0.0
C241 C 0.5326 0.73935 0.36515 0.0
C242 C 0.57009 0.5053 0.15961 0.0
C243 C 0.68777 0.59863 0.32969 0.0
C244 C 0.46149 0.5913 0.25107 0.0
C245 C 0.64246 0.59975 0.13099 0.0
C246 C 0.71135 0.79835 0.36544 0.0
C247 C 0.50892 0.70692 0.16721 0.0
O248 O 0.73129 0.72083 0.28807 0.0
O249 O 0.70818 0.6871 0.20951 0.0
O250 O 0.51174 0.72703 0.32125 0.0
O251 O 0.58405 0.73508 0.37479 0.0
O252 O 0.55299 0.53895 0.12703 0.0
O253 O 0.56867 0.52078 0.20664 0.0
O254 O 0.67771 0.64006 0.35798 0.0
O255 O 0.68284 0.60026 0.27969 0.0
Co256 Co 0.25693 0.4311 0.21713 0.0
Co257 Co 0.31225 0.55131 0.17166 0.0
Co258 Co 0.36194 0.44622 0.14754 0.0
H259 H 0.31282 0.45317 0.18619 0.0
O260 O 0.31708 0.48051 0.20642 0.0
H261 H 0.35276 0.53608 0.12895 0.0
O262 O 0.3429 0.50972 0.10973 0.0
Co263 Co 0.40773 0.54602 0.09454 0.0
O264 O 0.3456 0.58618 0.06728 0.0
O265 O 0.31956 0.62511 0.13772 0.0
O266 O 0.46168 0.49424 0.11978 0.0
O267 O 0.41569 0.42476 0.09538 0.0
O268 O 0.21885 0.42826 0.29045 0.0
O269 O 0.24786 0.35896 0.25909 0.0
O270 O 0.44265 0.57707 0.16022 0.0
O271 O 0.37575 0.56893 0.21725 0.0
C272 C 0.35194 0.34914 0.21025 0.0
C273 C 0.22555 0.5581 0.23935 0.0
C274 C 0.43107 0.52059 1.00529 0.0
C275 C 0.26101 0.40292 0.09864 0.0
C276 C 0.33962 0.62919 0.09129 0.0
C277 C 0.45971 0.44823 0.09975 0.0
C278 C 0.22528 0.37936 0.29838 0.0
C279 C 0.4235 0.58175 0.20692 0.0
O280 O 0.30263 0.3594 0.22083 0.0
O281 O 0.38118 0.38251 0.18711 0.0
O282 O 0.26946 0.57895 0.22704 0.0
O283 O 0.21591 0.50665 0.23508 0.0
O284 O 0.46366 0.53769 1.03894 0.0
O285 O 0.38404 0.52202 1.02078 0.0
O286 O 0.23272 0.41299 0.14006 0.0
O287 O 0.31101 0.40785 0.10027 0.0
Co288 Co 0.75693 0.15958 0.87356 0.0
Co289 Co 0.81225 1.03937 0.91903 0.0
Co290 Co 0.86194 0.14446 0.94315 0.0
H291 H 0.81282 0.13751 0.9045 0.0
O292 O 0.81708 0.11017 0.88427 0.0
H293 H 0.85276 0.05461 0.96174 0.0
O294 O 0.8429 0.08096 0.98096 0.0
Co295 Co 0.90773 1.04466 0.99615 0.0
O296 O 0.8456 1.0045 1.02341 0.0
O297 O 0.81956 0.96557 0.95297 0.0
O298 O 0.96168 0.09644 0.97091 0.0
O299 O 0.91569 0.16593 0.99531 0.0
O300 O 0.71885 0.16242 0.80024 0.0
O301 O 0.74786 0.23172 0.8316 0.0
O302 O 0.94265 1.01361 0.93047 0.0
O303 O 0.87575 1.02175 0.87344 0.0
C304 C 0.85194 0.24154 0.88044 0.0
C305 C 0.72555 1.03259 0.85134 0.0
C306 C 0.93107 0.07009 0.0854 0.0
C307 C 0.76101 0.18776 0.99205 0.0
C308 C 0.83962 0.96149 0.9994 0.0
C309 C 0.95971 0.14245 0.99094 0.0
C310 C 0.72528 0.21133 0.79231 0.0
C311 C 0.9235 1.00893 0.88377 0.0
O312 O 0.80263 0.23128 0.86986 0.0
O313 O 0.88118 0.20817 0.90358 0.0
O314 O 0.76946 1.01173 0.86365 0.0
O315 O 0.71591 0.08403 0.85561 0.0
O316 O 0.96366 0.05299 0.05175 0.0
O317 O 0.88404 0.06866 0.06991 0.0
O318 O 0.73272 0.17769 0.95063 0.0
O319 O 0.81101 0.18283 0.99042 0.0
Co320 Co 0.83378 0.9311 0.37356 0.0
Co321 Co 0.77845 0.05131 0.41903 0.0
Co322 Co 0.72876 0.94622 0.44315 0.0
H323 H 0.77788 0.95317 0.4045 0.0
O324 O 0.77363 0.98051 0.38427 0.0
H325 H 0.73794 1.03608 0.46174 0.0
O326 O 0.7478 1.00972 0.48096 0.0
Co327 Co 0.68297 0.04602 0.49615 0.0
O328 O 0.7451 0.08618 0.52341 0.0
O329 O 0.77114 0.12511 0.45297 0.0
O330 O 0.62902 0.99424 0.47091 0.0
O331 O 0.67502 0.92476 0.49531 0.0
O332 O 0.87185 0.92826 0.30024 0.0
O333 O 0.84284 0.85896 0.3316 0.0
O334 O 0.64805 0.07707 0.43047 0.0
O335 O 0.71495 0.06893 0.37344 0.0
C336 C 0.73876 0.84914 0.38044 0.0
C337 C 0.86515 0.0581 0.35134 0.0
C338 C 0.65963 1.02059 0.5854 0.0
C339 C 0.82969 0.90292 0.49205 0.0
C340 C 0.75108 0.12919 0.4994 0.0
C341 C 0.631 0.94823 0.49094 0.0
C342 C 0.86542 0.87936 0.29231 0.0
C343 C 0.6672 0.08175 0.38377 0.0
O344 O 0.78807 0.8594 0.36986 0.0
O345 O 0.70952 0.88251 0.40358 0.0
O346 O 0.82124 0.07895 0.36365 0.0
O347 O 0.87479 1.00665 0.35561 0.0
O348 O 0.62704 1.03769 0.55175 0.0
O349 O 0.70666 1.02202 0.56991 0.0
O350 O 0.85798 0.91299 0.45063 0.0
O351 O 0.77969 0.90785 0.49042 0.0
Co352 Co 0.33378 0.65958 0.71713 0.0
Co353 Co 0.27845 0.53937 0.67166 0.0
Co354 Co 0.22876 0.64446 0.64754 0.0
H355 H 0.27788 0.63751 0.68619 0.0
O356 O 0.27363 0.61017 0.70642 0.0
H357 H 0.23794 0.55461 0.62895 0.0
O358 O 0.2478 0.58096 0.60973 0.0
Co359 Co 0.18297 0.54466 0.59454 0.0
O360 O 0.2451 0.5045 0.56728 0.0
O361 O 0.27114 0.46557 0.63772 0.0
O362 O 0.12902 0.59644 0.61978 0.0
O363 O 0.17502 0.66593 0.59538 0.0
O364 O 0.37185 0.66242 0.79045 0.0
O365 O 0.34284 0.73172 0.75909 0.0
O366 O 0.14805 0.51361 0.66022 0.0
O367 O 0.21495 0.52175 0.71725 0.0
C368 C 0.23876 0.74154 0.71025 0.0
C369 C 0.36515 0.53259 0.73935 0.0
C370 C 0.15963 0.57009 0.50529 0.0
C371 C 0.32969 0.68776 0.59864 0.0
C372 C 0.25108 0.46149 0.59129 0.0
C373 C 0.131 0.64245 0.59975 0.0
C374 C 0.36542 0.71133 0.79838 0.0
C375 C 0.1672 0.50893 0.70692 0.0
O376 O 0.28807 0.73128 0.72083 0.0
O377 O 0.20952 0.70817 0.68711 0.0
O378 O 0.32124 0.51173 0.72704 0.0
O379 O 0.37479 0.58403 0.73508 0.0
O380 O 0.12704 0.55299 0.53894 0.0
O381 O 0.20666 0.56866 0.52078 0.0
O382 O 0.35798 0.67769 0.64006 0.0
O383 O 0.27969 0.68283 0.60027 0.0
Co384 Co 0.99617 0.68295 0.54466 0.0
Co385 Co 0.94317 0.72873 0.64447 0.0
Co386 Co 0.91904 0.77843 0.53938 0.0
H387 H 0.96176 0.73792 0.55461 0.0
O388 O 0.98098 0.74777 0.58097 0.0
H389 H 0.90452 0.77786 0.63753 0.0
O390 O 0.88429 0.7736 0.61019 0.0
Co391 Co 0.87357 0.83376 0.65959 0.0
O392 O 0.86986 0.78805 0.73128 0.0
O393 O 0.9036 0.70949 0.70818 0.0
O394 O 0.85562 0.87477 0.58404 0.0
O395 O 0.86365 0.82121 0.51175 0.0
O396 O 0.05176 0.62701 0.55301 0.0
O397 O 0.06994 0.70664 0.56864 0.0
O398 O 0.95065 0.85797 0.67767 0.0
O399 O 0.99044 0.77966 0.68284 0.0
C400 C 0.99939 0.75106 0.46148 0.0
C401 C 0.99096 0.63097 0.64245 0.0
C402 C 0.79235 0.86543 0.71134 0.0
C403 C 0.88378 0.66718 0.50894 0.0
C404 C 0.88044 0.73873 0.74154 0.0
C405 C 0.85135 0.86512 0.53259 0.0
C406 C 0.08539 0.6596 0.57013 0.0
C407 C 0.99207 0.82966 0.68773 0.0
O408 O 1.02334 0.74514 0.50453 0.0
O409 O 0.95297 0.77114 0.46558 0.0
O410 O 0.99532 0.67499 0.66593 0.0
O411 O 0.97094 0.62899 0.59643 0.0
O412 O 0.80027 0.87187 0.66244 0.0
O413 O 0.83162 0.84281 0.73173 0.0
O414 O 0.93049 0.64804 0.51359 0.0
O415 O 0.87346 0.71492 0.52177 0.0
Co416 Co 0.59453 0.40774 1.04466 0.0
Co417 Co 0.64753 0.36195 0.14447 0.0
Co418 Co 0.67166 0.31225 1.03938 0.0
H419 H 0.62894 0.35276 0.05461 0.0
O420 O 0.60972 0.34291 0.08097 0.0
H421 H 0.68618 0.31282 0.13753 0.0
O422 O 0.70641 0.31708 0.11019 0.0
Co423 Co 0.71713 0.25692 0.15959 0.0
O424 O 0.72084 0.30263 0.23128 0.0
O425 O 0.6871 0.38119 0.20818 0.0
O426 O 0.73508 0.21591 0.08404 0.0
O427 O 0.72705 0.26947 1.01175 0.0
O428 O 0.53894 0.46367 0.05301 0.0
O429 O 0.52076 0.38405 0.06864 0.0
O430 O 0.64005 0.23271 0.17767 0.0
O431 O 0.60026 0.31102 0.18284 0.0
C432 C 0.59132 0.33963 0.96148 0.0
C433 C 0.59975 0.45971 0.14245 0.0
C434 C 0.79835 0.22525 0.21134 0.0
C435 C 0.70692 0.4235 1.00894 0.0
C436 C 0.71026 0.35195 0.24154 0.0
C437 C 0.73935 0.22556 1.03259 0.0
C438 C 0.50531 0.43108 0.07013 0.0
C439 C 0.59863 0.26102 0.18773 0.0
O440 O 0.56736 0.34555 1.00453 0.0
O441 O 0.63773 0.31954 0.96558 0.0
O442 O 0.59538 0.4157 0.16593 0.0
O443 O 0.61976 0.4617 0.09643 0.0
O444 O 0.79043 0.21881 0.16244 0.0
O445 O 0.75908 0.24787 0.23173 0.0
O446 O 0.66021 0.44264 1.01359 0.0
O447 O 0.71725 0.37576 1.02177 0.0
Co448 Co 0.49617 0.90774 0.54603 0.0
Co449 Co 0.44317 0.86195 0.44622 0.0
Co450 Co 0.41904 0.81225 0.55131 0.0
H451 H 0.46176 0.85276 0.53608 0.0
O452 O 0.48098 0.84291 0.50972 0.0
H453 H 0.40452 0.81282 0.45316 0.0
O454 O 0.38429 0.81708 0.4805 0.0
Co455 Co 0.37357 0.75692 0.4311 0.0
O456 O 0.36986 0.80263 0.35941 0.0
O457 O 0.4036 0.88119 0.38251 0.0
O458 O 0.35562 0.71591 0.50665 0.0
O459 O 0.36365 0.76947 0.57894 0.0
O460 O 0.55176 0.96367 0.53768 0.0
O461 O 0.56994 0.88405 0.52205 0.0
O462 O 0.45065 0.73271 0.41302 0.0
O463 O 0.49044 0.81102 0.40785 0.0
C464 C 0.49939 0.83963 0.62921 0.0
C465 C 0.49096 0.95971 0.44824 0.0
C466 C 0.29235 0.72525 0.37935 0.0
C467 C 0.38378 0.9235 0.58175 0.0
C468 C 0.38044 0.85195 0.34915 0.0
C469 C 0.35135 0.72556 0.5581 0.0
C470 C 0.58539 0.93108 0.52056 0.0
C471 C 0.49207 0.76102 0.40296 0.0
O472 O 0.52334 0.84555 0.58616 0.0
O473 O 0.45297 0.81954 0.62511 0.0
O474 O 0.49532 0.9157 0.42476 0.0
O475 O 0.47094 0.9617 0.49426 0.0
O476 O 0.30027 0.71881 0.42825 0.0
O477 O 0.33162 0.74787 0.35896 0.0
O478 O 0.43049 0.94264 0.5771 0.0
O479 O 0.37346 0.87576 0.56892 0.0
Co480 Co 0.09453 0.18295 0.04603 0.0
Co481 Co 0.14753 0.22873 0.94622 0.0
Co482 Co 0.17166 0.27843 0.05131 0.0
H483 H 0.12894 0.23792 1.03608 0.0
O484 O 0.10972 0.24777 1.00972 0.0
H485 H 0.18618 0.27786 0.95316 0.0
O486 O 0.20641 0.2736 0.9805 0.0
Co487 Co 0.21713 0.33376 0.9311 0.0
O488 O 0.22084 0.28805 0.85941 0.0
O489 O 0.1871 0.20949 0.88251 0.0
O490 O 0.23508 0.37477 1.00665 0.0
O491 O 0.22705 0.32121 0.07894 0.0
O492 O 1.03894 0.12701 1.03768 0.0
O493 O 1.02076 0.20664 1.02205 0.0
O494 O 0.14005 0.35797 0.91302 0.0
O495 O 0.10026 0.27966 0.90785 0.0
C496 C 0.09132 0.25106 0.12921 0.0
C497 C 0.09975 0.13097 0.94824 0.0
C498 C 0.29835 0.36543 0.87935 0.0
C499 C 0.20692 0.16718 0.08175 0.0
C500 C 0.21026 0.23873 0.84915 0.0
C501 C 0.23935 0.36512 0.0581 0.0
C502 C 1.00531 0.1596 1.02056 0.0
C503 C 0.09863 0.32966 0.90296 0.0
O504 O 0.06736 0.24514 0.08616 0.0
O505 O 0.13773 0.27114 0.12511 0.0
O506 O 0.09538 0.17499 0.92476 0.0
O507 O 0.11976 0.12899 0.99426 0.0
O508 O 0.29043 0.37187 0.92825 0.0
O509 O 0.25908 0.34281 0.85896 0.0
O510 O 0.16021 0.14804 0.0771 0.0
O511 O 0.21725 0.21492 0.06892 0.0
Co512 Co 0.54468 0.99615 0.68294 0.0
Co513 Co 0.64448 0.94315 0.72874 0.0
Co514 Co 0.53939 0.91904 0.77844 0.0
H515 H 0.55462 0.96175 0.73792 0.0
O516 O 0.58099 0.98097 0.74777 0.0
H517 H 0.63754 0.90451 0.77787 0.0
O518 O 0.61019 0.88428 0.77361 0.0
Co519 Co 0.6596 0.87356 0.83377 0.0
O520 O 0.7313 0.86986 0.78806 0.0
O521 O 0.70819 0.90359 0.70951 0.0
O522 O 0.58405 0.85561 0.87478 0.0
O523 O 0.51175 0.86367 0.82123 0.0
O524 O 0.55302 0.05174 0.627 0.0
O525 O 0.56866 0.06993 0.70663 0.0
O526 O 0.67769 0.95064 0.85798 0.0
O527 O 0.68285 0.99043 0.77967 0.0
C528 C 0.4615 0.9994 0.75106 0.0
C529 C 0.64247 0.99093 0.63098 0.0
C530 C 0.71135 0.79234 0.86544 0.0
C531 C 0.50894 0.88378 0.6672 0.0
C532 C 0.74156 0.88044 0.73875 0.0
C533 C 0.5326 0.85134 0.86514 0.0
C534 C 0.57014 0.08537 0.65959 0.0
C535 C 0.68774 0.99206 0.82967 0.0
O536 O 0.50456 1.02334 0.74513 0.0
O537 O 0.46559 0.95299 0.77116 0.0
O538 O 0.66595 0.99531 0.675 0.0
O539 O 0.59646 0.97091 0.629 0.0
O540 O 0.66245 0.80026 0.87187 0.0
O541 O 0.73174 0.83161 0.84282 0.0
O542 O 0.51362 0.93048 0.64804 0.0
O543 O 0.52176 0.87346 0.71494 0.0
Co544 Co 0.04602 0.09453 0.18294 0.0
Co545 Co 0.94622 0.14753 0.22874 0.0
Co546 Co 0.05131 0.17164 0.27844 0.0
H547 H 1.03608 0.12893 0.23792 0.0
O548 O 1.00972 0.10971 0.24777 0.0
H549 H 0.95316 0.18617 0.27787 0.0
O550 O 0.98051 0.2064 0.27361 0.0
Co551 Co 0.9311 0.21712 0.33377 0.0
O552 O 0.8594 0.22082 0.28806 0.0
O553 O 0.88251 0.1871 0.20951 0.0
O554 O 1.00665 0.23507 0.37478 0.0
O555 O 0.07895 0.22701 0.32123 0.0
O556 O 1.03768 1.03894 0.127 0.0
O557 O 1.02204 1.02075 0.20663 0.0
O558 O 0.91301 0.14005 0.35798 0.0
O559 O 0.90785 0.10026 0.27967 0.0
C560 C 0.1292 0.09129 0.25106 0.0
C561 C 0.94823 0.09975 0.13098 0.0
C562 C 0.87935 0.29834 0.36544 0.0
C563 C 0.08176 0.2069 0.1672 0.0
C564 C 0.84914 0.21024 0.23875 0.0
C565 C 0.0581 0.23934 0.36514 0.0
C566 C 1.02057 1.00531 0.15959 0.0
C567 C 0.90296 0.09862 0.32967 0.0
O568 O 0.08614 0.06735 0.24513 0.0
O569 O 0.12511 0.1377 0.27116 0.0
O570 O 0.92475 0.09538 0.175 0.0
O571 O 0.99424 0.11977 0.129 0.0
O572 O 0.92825 0.29042 0.37187 0.0
O573 O 0.85896 0.25907 0.34282 0.0
O574 O 0.07708 0.1602 0.14804 0.0
O575 O 0.06894 0.21722 0.21494 0.0
Co576 Co 1.04468 0.59453 0.40775 0.0
Co577 Co 0.14448 0.64753 0.36195 0.0
Co578 Co 1.03939 0.67164 0.31225 0.0
H579 H 0.05462 0.62893 0.35277 0.0
O580 O 0.08099 0.60971 0.34291 0.0
H581 H 0.13754 0.68617 0.31282 0.0
O582 O 0.11019 0.7064 0.31708 0.0
Co583 Co 0.1596 0.71712 0.25692 0.0
O584 O 0.2313 0.72082 0.30263 0.0
O585 O 0.20819 0.6871 0.38118 0.0
O586 O 0.08405 0.73507 0.21591 0.0
O587 O 1.01175 0.72701 0.26946 0.0
O588 O 0.05302 0.53894 0.46369 0.0
O589 O 0.06866 0.52075 0.38406 0.0
O590 O 0.17769 0.64005 0.23271 0.0
O591 O 0.18285 0.60026 0.31102 0.0
C592 C 0.9615 0.59129 0.33963 0.0
C593 C 0.14247 0.59975 0.45971 0.0
C594 C 0.21135 0.79834 0.22525 0.0
C595 C 1.00894 0.7069 0.42349 0.0
C596 C 0.24156 0.71024 0.35194 0.0
C597 C 1.0326 0.73934 0.22555 0.0
C598 C 0.07014 0.50531 0.4311 0.0
C599 C 0.18774 0.59862 0.26102 0.0
O600 O 1.00456 0.56735 0.34556 0.0
O601 O 0.96559 0.6377 0.31953 0.0
O602 O 0.16595 0.59538 0.41569 0.0
O603 O 0.09646 0.61977 0.46169 0.0
O604 O 0.16245 0.79042 0.21882 0.0
O605 O 0.23174 0.75907 0.24787 0.0
O606 O 1.01362 0.6602 0.44265 0.0
O607 O 1.02176 0.71722 0.37575 0.0
Co608 Co 0.54602 0.49615 0.90775 0.0
Co609 Co 0.44622 0.44315 0.86195 0.0
Co610 Co 0.55131 0.41904 0.81225 0.0
H611 H 0.53608 0.46175 0.85277 0.0
O612 O 0.50972 0.48097 0.84291 0.0
H613 H 0.45316 0.40451 0.81282 0.0
O614 O 0.48051 0.38428 0.81708 0.0
Co615 Co 0.4311 0.37356 0.75692 0.0
O616 O 0.3594 0.36986 0.80263 0.0
O617 O 0.38251 0.40359 0.88118 0.0
O618 O 0.50665 0.35561 0.71591 0.0
O619 O 0.57895 0.36367 0.76946 0.0
O620 O 0.53768 0.55174 0.96369 0.0
O621 O 0.52204 0.56993 0.88406 0.0
O622 O 0.41301 0.45064 0.73271 0.0
O623 O 0.40785 0.49043 0.81102 0.0
C624 C 0.6292 0.4994 0.83963 0.0
C625 C 0.44823 0.49093 0.95971 0.0
C626 C 0.37935 0.29234 0.72525 0.0
C627 C 0.58176 0.38378 0.92349 0.0
C628 C 0.34914 0.38044 0.85194 0.0
C629 C 0.5581 0.35134 0.72555 0.0
C630 C 0.52057 0.58537 0.9311 0.0
C631 C 0.40296 0.49206 0.76102 0.0
O632 O 0.58614 0.52334 0.84556 0.0
O633 O 0.62511 0.45299 0.81953 0.0
O634 O 0.42475 0.49531 0.91569 0.0
O635 O 0.49424 0.47091 0.96169 0.0
O636 O 0.42825 0.30026 0.71882 0.0
O637 O 0.35896 0.33161 0.74787 0.0
O638 O 0.57708 0.43048 0.94265 0.0
O639 O 0.56894 0.37346 0.87575 0.0
Co640 Co 0.68295 0.54467 0.99616 0.0
Co641 Co 0.72874 0.64448 0.94315 0.0
Co642 Co 0.77843 0.53939 0.91904 0.0
H643 H 0.73792 0.55462 0.96175 0.0
O644 O 0.74777 0.58098 0.98097 0.0
H645 H 0.77787 0.63753 0.90451 0.0
O646 O 0.77361 0.61018 0.88429 0.0
Co647 Co 0.83377 0.65958 0.87357 0.0
O648 O 0.78807 0.73129 0.86987 0.0
O649 O 0.70951 0.70818 0.90358 0.0
O650 O 0.87478 0.58403 0.85562 0.0
O651 O 0.82122 0.51174 0.86367 0.0
O652 O 0.62701 0.55302 0.05175 0.0
O653 O 0.70664 0.56865 0.06993 0.0
O654 O 0.85798 0.67768 0.95064 0.0
O655 O 0.77967 0.68284 0.99043 0.0
C656 C 0.75106 0.46151 0.99942 0.0
C657 C 0.63098 0.64247 0.99094 0.0
C658 C 0.86542 0.71133 0.79232 0.0
C659 C 0.66719 0.50895 0.88378 0.0
C660 C 0.73876 0.74155 0.88044 0.0
C661 C 0.86513 0.53259 0.85135 0.0
C662 C 0.65961 0.57014 0.08538 0.0
C663 C 0.82967 0.68773 0.99206 0.0
O664 O 0.74509 0.50452 1.02342 0.0
O665 O 0.77113 0.46559 0.95299 0.0
O666 O 0.675 0.66595 0.9953 0.0
O667 O 0.629 0.59645 0.97092 0.0
O668 O 0.87185 0.66243 0.80025 0.0
O669 O 0.84284 0.73172 0.83162 0.0
O670 O 0.64804 0.51362 0.93049 0.0
O671 O 0.71494 0.52177 0.87346 0.0
Co672 Co 0.18295 0.04601 0.09453 0.0
Co673 Co 0.22874 0.94621 0.14754 0.0
Co674 Co 0.27843 0.0513 0.17165 0.0
H675 H 0.23792 1.03606 0.12894 0.0
O676 O 0.24777 1.0097 0.10972 0.0
H677 H 0.27787 0.95315 0.18618 0.0
O678 O 0.27361 0.9805 0.2064 0.0
Co679 Co 0.33377 0.9311 0.21712 0.0
O680 O 0.28807 0.85939 0.22082 0.0
O681 O 0.20951 0.8825 0.18711 0.0
O682 O 0.37478 1.00665 0.23507 0.0
O683 O 0.32122 0.07894 0.22702 0.0
O684 O 0.12701 1.03766 1.03894 0.0
O685 O 0.20664 1.02203 1.02076 0.0
O686 O 0.35798 0.91301 0.14005 0.0
O687 O 0.27967 0.90784 0.10026 0.0
C688 C 0.25106 0.12917 0.09127 0.0
C689 C 0.13098 0.94822 0.09975 0.0
C690 C 0.36542 0.87935 0.29836 0.0
C691 C 0.16719 0.08174 0.20691 0.0
C692 C 0.23876 0.84913 0.21025 0.0
C693 C 0.36513 0.05809 0.23934 0.0
C694 C 0.15961 1.02055 1.00531 0.0
C695 C 0.32967 0.90295 0.09863 0.0
O696 O 0.24509 0.08616 0.06727 0.0
O697 O 0.27113 0.12509 0.1377 0.0
O698 O 0.175 0.92473 0.09539 0.0
O699 O 0.129 0.99423 0.11977 0.0
O700 O 0.37185 0.92826 0.29044 0.0
O701 O 0.34284 0.85896 0.25907 0.0
O702 O 0.14804 0.07706 0.1602 0.0
O703 O 0.21494 0.06891 0.21723 0.0
Co704 Co 0.40775 1.04467 0.59453 0.0
Co705 Co 0.36196 0.14448 0.64754 0.0
Co706 Co 0.31227 1.03939 0.67165 0.0
H707 H 0.35278 0.05462 0.62894 0.0
O708 O 0.34293 0.08098 0.60972 0.0
H709 H 0.31283 0.13753 0.68618 0.0
O710 O 0.31709 0.11018 0.7064 0.0
Co711 Co 0.25693 0.15958 0.71712 0.0
O712 O 0.30263 0.23129 0.72082 0.0
O713 O 0.38119 0.20818 0.68711 0.0
O714 O 0.21592 0.08403 0.73507 0.0
O715 O 0.26948 1.01174 0.72702 0.0
O716 O 0.46369 0.05302 0.53894 0.0
O717 O 0.38406 0.06865 0.52076 0.0
O718 O 0.23272 0.17768 0.64005 0.0
O719 O 0.31103 0.18284 0.60026 0.0
C720 C 0.33964 0.96151 0.59127 0.0
C721 C 0.45972 0.14247 0.59975 0.0
C722 C 0.22528 0.21133 0.79836 0.0
C723 C 0.42351 1.00894 0.70691 0.0
C724 C 0.35194 0.24155 0.71025 0.0
C725 C 0.22557 1.03259 0.73934 0.0
C726 C 0.4311 0.07014 0.50531 0.0
C727 C 0.26103 0.18773 0.59863 0.0
O728 O 0.34561 1.00452 0.56727 0.0
O729 O 0.31958 0.96559 0.6377 0.0
O730 O 0.4157 0.16595 0.59539 0.0
O731 O 0.4617 0.09645 0.61977 0.0
O732 O 0.21885 0.16243 0.79044 0.0
O733 O 0.24786 0.23172 0.75907 0.0
O734 O 0.44267 1.01362 0.6602 0.0
O735 O 0.37577 1.02177 0.71723 0.0
Co736 Co 0.90775 0.54601 0.49616 0.0
Co737 Co 0.86196 0.44621 0.44315 0.0
Co738 Co 0.81227 0.5513 0.41904 0.0
H739 H 0.85278 0.53606 0.46175 0.0
O740 O 0.84293 0.5097 0.48097 0.0
H741 H 0.81283 0.45315 0.40451 0.0
O742 O 0.81709 0.4805 0.38429 0.0
Co743 Co 0.75693 0.4311 0.37357 0.0
O744 O 0.80263 0.35939 0.36987 0.0
O745 O 0.88119 0.3825 0.40358 0.0
O746 O 0.71592 0.50665 0.35562 0.0
O747 O 0.76948 0.57894 0.36367 0.0
O748 O 0.96369 0.53766 0.55175 0.0
O749 O 0.88406 0.52203 0.56993 0.0
O750 O 0.73272 0.41301 0.45064 0.0
O751 O 0.81103 0.40784 0.49043 0.0
C752 C 0.83964 0.62917 0.49942 0.0
C753 C 0.95972 0.44822 0.49094 0.0
C754 C 0.72528 0.37935 0.29232 0.0
C755 C 0.92351 0.58174 0.38378 0.0
C756 C 0.85194 0.34913 0.38044 0.0
C757 C 0.72557 0.55809 0.35135 0.0
C758 C 0.9311 0.52055 0.58538 0.0
C759 C 0.76103 0.40295 0.49206 0.0
O760 O 0.84561 0.58616 0.52342 0.0
O761 O 0.81958 0.62509 0.45299 0.0
O762 O 0.9157 0.42473 0.4953 0.0
O763 O 0.9617 0.49423 0.47092 0.0
O764 O 0.71885 0.42826 0.30025 0.0
O765 O 0.74786 0.35896 0.33162 0.0
O766 O 0.94267 0.57706 0.43049 0.0
O767 O 0.87577 0.56891 0.37346 0.0
loop_
_geom_bond_atom_site_label_1
_geom_bond_atom_site_label_2
_geom_bond_distance
_geom_bond_site_symmetry_2
_ccdc_geom_bond_type
Co0 H3 2.400 . S
Co0 O4 2.009 . S
Co0 O12 2.115 . S
Co0 O13 2.315 . S
Co0 O24 2.053 . S
Co0 O27 2.094 . S
Co0 O30 2.122 . S
Co1 O4 2.126 . S
Co1 H5 2.388 . S
Co1 O6 2.053 . S
Co1 O9 2.047 . S
Co1 O15 2.113 . S
Co1 O26 2.063 . S
Co2 H3 2.388 . S
Co2 O4 2.053 . S
Co2 O6 2.126 . S
Co2 O11 2.063 . S
Co2 O25 2.047 . S
Co2 O31 2.113 . S
H3 Co0 2.400 . S
H3 Co2 2.388 . S
H3 O4 0.760 . S
O4 Co0 2.009 . S
O4 Co1 2.126 . S
O4 Co2 2.053 . S
O4 H3 0.760 . S
H5 Co1 2.388 . S
H5 O6 0.760 . S
H5 Co7 2.400 . S
O6 Co1 2.053 . S
O6 Co2 2.126 . S
O6 H5 0.760 . S
O6 Co7 2.009 . S
Co7 H5 2.400 . S
Co7 O6 2.009 . S
Co7 O8 2.053 . S
Co7 O10 2.094 . S
Co7 O14 2.122 . S
Co7 O28 2.115 1_455 S
Co7 O29 2.315 1_455 S
O8 Co7 2.053 . S
O8 C20 1.259 . S
O9 Co1 2.047 . S
O9 C20 1.257 . S
O10 Co7 2.094 . S
O10 C21 1.253 . S
O11 Co2 2.063 . S
O11 C21 1.268 . S
O12 Co0 2.115 . S
O12 C22 1.281 . S
O13 Co0 2.315 . S
O13 C22 1.252 . S
O14 Co7 2.122 . S
O14 C23 1.272 . S
O15 Co1 2.113 . S
O15 C23 1.245 . S
C16 O24 1.259 . S
C16 O25 1.257 . S
C17 O26 1.268 . S
C17 O27 1.253 . S
C18 O28 1.281 . S
C18 O29 1.252 . S
C19 O30 1.272 . S
C19 O31 1.245 . S
C20 O8 1.259 . S
C20 O9 1.257 . S
C21 O10 1.253 . S
C21 O11 1.268 . S
C22 O12 1.281 . S
C22 O13 1.252 . S
C23 O14 1.272 . S
C23 O15 1.245 . S
O24 Co0 2.053 . S
O24 C16 1.259 . S
O25 Co2 2.047 . S
O25 C16 1.257 . S
O26 Co1 2.063 . S
O26 C17 1.268 . S
O27 Co0 2.094 . S
O27 C17 1.253 . S
O28 Co7 2.115 1_655 S
O28 C18 1.281 . S
O29 Co7 2.315 1_655 S
O29 C18 1.252 . S
O30 Co0 2.122 . S
O30 C19 1.272 . S
O31 Co2 2.113 . S
O31 C19 1.245 . S
Co32 H35 2.400 . S
Co32 O36 2.009 . S
Co32 O44 2.115 . S
Co32 O45 2.315 . S
Co32 O56 2.053 . S
Co32 O59 2.094 . S
Co32 O62 2.122 . S
Co33 O36 2.126 . S
Co33 H37 2.388 . S
Co33 O38 2.053 . S
Co33 O41 2.047 1_556 S
Co33 O47 2.113 1_556 S
Co33 O58 2.063 1_556 S
Co34 H35 2.388 . S
Co34 O36 2.053 . S
Co34 O38 2.126 . S
Co34 O43 2.063 . S
Co34 O57 2.047 . S
Co34 O63 2.113 . S
H35 Co32 2.400 . S
H35 Co34 2.388 . S
H35 O36 0.760 . S
O36 Co32 2.009 . S
O36 Co33 2.126 . S
O36 Co34 2.053 . S
O36 H35 0.760 . S
H37 Co33 2.388 . S
H37 O38 0.760 . S
H37 Co39 2.400 . S
O38 Co33 2.053 . S
O38 Co34 2.126 . S
O38 H37 0.760 . S
O38 Co39 2.009 . S
Co39 H37 2.400 . S
Co39 O38 2.009 . S
Co39 O40 2.053 1_556 S
Co39 O42 2.094 . S
Co39 O46 2.122 1_556 S
Co39 O60 2.115 1_556 S
Co39 O61 2.315 . S
O40 Co39 2.053 1_554 S
O40 C52 1.259 . S
O41 Co33 2.047 1_554 S
O41 C52 1.257 . S
O42 Co39 2.094 . S
O42 C53 1.253 . S
O43 Co34 2.063 . S
O43 C53 1.268 . S
O44 Co32 2.115 . S
O44 C54 1.281 . S
O45 Co32 2.315 . S
O45 C54 1.252 . S
O46 Co39 2.122 1_554 S
O46 C55 1.272 . S
O47 Co33 2.113 1_554 S
O47 C55 1.245 . S
C48 O56 1.259 . S
C48 O57 1.257 . S
C49 O58 1.268 . S
C49 O59 1.253 1_554 S
C50 O60 1.281 1_556 S
C50 O61 1.252 . S
C51 O62 1.272 . S
C51 O63 1.245 . S
C52 O40 1.259 . S
C52 O41 1.257 . S
C53 O42 1.253 . S
C53 O43 1.268 . S
C54 O44 1.281 . S
C54 O45 1.252 . S
C55 O46 1.272 . S
C55 O47 1.245 . S
O56 Co32 2.053 . S
O56 C48 1.259 . S
O57 Co34 2.047 . S
O57 C48 1.257 . S
O58 Co33 2.063 1_554 S
O58 C49 1.268 . S
O59 Co32 2.094 . S
O59 C49 1.253 1_556 S
O60 Co39 2.115 1_554 S
O60 C50 1.281 1_554 S
O61 Co39 2.315 . S
O61 C50 1.252 . S
O62 Co32 2.122 . S
O62 C51 1.272 . S
O63 Co34 2.113 . S
O63 C51 1.245 . S
Co64 H67 2.400 . S
Co64 O68 2.009 . S
Co64 O76 2.115 . S
Co64 O77 2.315 . S
Co64 O88 2.053 . S
Co64 O91 2.094 . S
Co64 O94 2.122 . S
Co65 O68 2.126 . S
Co65 H69 2.388 . S
Co65 O70 2.053 . S
Co65 O73 2.047 . S
Co65 O79 2.113 . S
Co65 O90 2.063 . S
Co66 H67 2.388 . S
Co66 O68 2.053 . S
Co66 O70 2.126 . S
Co66 O75 2.063 . S
Co66 O89 2.047 . S
Co66 O95 2.113 . S
H67 Co64 2.400 . S
H67 Co66 2.388 . S
H67 O68 0.760 . S
O68 Co64 2.009 . S
O68 Co65 2.126 . S
O68 Co66 2.053 . S
O68 H67 0.760 . S
H69 Co65 2.388 . S
H69 O70 0.760 . S
H69 Co71 2.400 . S
O70 Co65 2.053 . S
O70 Co66 2.126 . S
O70 H69 0.760 . S
O70 Co71 2.009 . S
Co71 H69 2.400 . S
Co71 O70 2.009 . S
Co71 O72 2.053 . S
Co71 O74 2.094 . S
Co71 O78 2.122 . S
Co71 O92 2.115 . S
Co71 O93 2.315 . S
O72 Co71 2.053 . S
O72 C84 1.259 . S
O73 Co65 2.047 . S
O73 C84 1.257 . S
O74 Co71 2.094 . S
O74 C85 1.253 . S
O75 Co66 2.063 . S
O75 C85 1.268 . S
O76 Co64 2.115 . S
O76 C86 1.281 . S
O77 Co64 2.315 . S
O77 C86 1.252 . S
O78 Co71 2.122 . S
O78 C87 1.272 . S
O79 Co65 2.113 . S
O79 C87 1.245 . S
C80 O88 1.259 . S
C80 O89 1.257 . S
C81 O90 1.268 . S
C81 O91 1.253 . S
C82 O92 1.281 . S
C82 O93 1.252 . S
C83 O94 1.272 . S
C83 O95 1.245 . S
C84 O72 1.259 . S
C84 O73 1.257 . S
C85 O74 1.253 . S
C85 O75 1.268 . S
C86 O76 1.281 . S
C86 O77 1.252 . S
C87 O78 1.272 . S
C87 O79 1.245 . S
O88 Co64 2.053 . S
O88 C80 1.259 . S
O89 Co66 2.047 . S
O89 C80 1.257 . S
O90 Co65 2.063 . S
O90 C81 1.268 . S
O91 Co64 2.094 . S
O91 C81 1.253 . S
O92 Co71 2.115 . S
O92 C82 1.281 . S
O93 Co71 2.315 . S
O93 C82 1.252 . S
O94 Co64 2.122 . S
O94 C83 1.272 . S
O95 Co66 2.113 . S
O95 C83 1.245 . S
Co96 H99 2.400 . S
Co96 O100 2.009 . S
Co96 O108 2.115 . S
Co96 O109 2.315 . S
Co96 O120 2.053 . S
Co96 O123 2.094 . S
Co96 O126 2.122 . S
Co97 O100 2.126 . S
Co97 H101 2.388 . S
Co97 O102 2.053 . S
Co97 O105 2.047 1_554 S
Co97 O111 2.113 1_554 S
Co97 O122 2.063 1_554 S
Co98 H99 2.388 . S
Co98 O100 2.053 . S
Co98 O102 2.126 . S
Co98 O107 2.063 . S
Co98 O121 2.047 . S
Co98 O127 2.113 . S
H99 Co96 2.400 . S
H99 Co98 2.388 . S
H99 O100 0.760 . S
O100 Co96 2.009 . S
O100 Co97 2.126 . S
O100 Co98 2.053 . S
O100 H99 0.760 . S
H101 Co97 2.388 . S
H101 O102 0.760 . S
H101 Co103 2.400 . S
O102 Co97 2.053 . S
O102 Co98 2.126 . S
O102 H101 0.760 . S
O102 Co103 2.009 . S
Co103 H101 2.400 . S
Co103 O102 2.009 . S
Co103 O104 2.053 1_554 S
Co103 O106 2.094 . S
Co103 O110 2.122 1_554 S
Co103 O124 2.115 1_654 S
Co103 O125 2.315 1_655 S
O104 Co103 2.053 1_556 S
O104 C116 1.259 . S
O105 Co97 2.047 1_556 S
O105 C116 1.257 . S
O106 Co103 2.094 . S
O106 C117 1.253 . S
O107 Co98 2.063 . S
O107 C117 1.268 . S
O108 Co96 2.115 . S
O108 C118 1.281 . S
O109 Co96 2.315 . S
O109 C118 1.252 . S
O110 Co103 2.122 1_556 S
O110 C119 1.272 . S
O111 Co97 2.113 1_556 S
O111 C119 1.245 . S
C112 O120 1.259 . S
C112 O121 1.257 . S
C113 O122 1.268 . S
C113 O123 1.253 1_556 S
C114 O124 1.281 1_554 S
C114 O125 1.252 . S
C115 O126 1.272 . S
C115 O127 1.245 . S
C116 O104 1.259 . S
C116 O105 1.257 . S
C117 O106 1.253 . S
C117 O107 1.268 . S
C118 O108 1.281 . S
C118 O109 1.252 . S
C119 O110 1.272 . S
C119 O111 1.245 . S
O120 Co96 2.053 . S
O120 C112 1.259 . S
O121 Co98 2.047 . S
O121 C112 1.257 . S
O122 Co97 2.063 1_556 S
O122 C113 1.268 . S
O123 Co96 2.094 . S
O123 C113 1.253 1_554 S
O124 Co103 2.115 1_456 S
O124 C114 1.281 1_556 S
O125 Co103 2.315 1_455 S
O125 C114 1.252 . S
O126 Co96 2.122 . S
O126 C115 1.272 . S
O127 Co98 2.113 . S
O127 C115 1.245 . S
Co128 H131 2.400 . S
Co128 O132 2.009 . S
Co128 O140 2.115 . S
Co128 O141 2.315 . S
Co128 O152 2.053 . S
Co128 O155 2.094 . S
Co128 O158 2.122 . S
Co129 O132 2.126 . S
Co129 H133 2.388 . S
Co129 O134 2.053 . S
Co129 O137 2.047 . S
Co129 O143 2.113 . S
Co129 O154 2.063 . S
Co130 H131 2.388 . S
Co130 O132 2.053 . S
Co130 O134 2.126 . S
Co130 O139 2.063 . S
Co130 O153 2.047 . S
Co130 O159 2.113 . S
H131 Co128 2.400 . S
H131 Co130 2.388 . S
H131 O132 0.760 . S
O132 Co128 2.009 . S
O132 Co129 2.126 . S
O132 Co130 2.053 . S
O132 H131 0.760 . S
H133 Co129 2.388 . S
H133 O134 0.760 . S
H133 Co135 2.400 . S
O134 Co129 2.053 . S
O134 Co130 2.126 . S
O134 H133 0.760 . S
O134 Co135 2.009 . S
Co135 H133 2.400 . S
Co135 O134 2.009 . S
Co135 O136 2.053 . S
Co135 O138 2.094 . S
Co135 O142 2.122 . S
Co135 O156 2.115 1_545 S
Co135 O157 2.315 1_545 S
O136 Co135 2.053 . S
O136 C148 1.259 . S
O137 Co129 2.047 . S
O137 C148 1.257 . S
O138 Co135 2.094 . S
O138 C149 1.253 . S
O139 Co130 2.063 . S
O139 C149 1.268 . S
O140 Co128 2.115 . S
O140 C150 1.281 . S
O141 Co128 2.315 . S
O141 C150 1.252 . S
O142 Co135 2.122 . S
O142 C151 1.272 . S
O143 Co129 2.113 . S
O143 C151 1.245 . S
C144 O152 1.259 . S
C144 O153 1.257 . S
C145 O154 1.268 . S
C145 O155 1.253 . S
C146 O156 1.281 . S
C146 O157 1.252 . S
C147 O158 1.272 . S
C147 O159 1.245 . S
C148 O136 1.259 . S
C148 O137 1.257 . S
C149 O138 1.253 . S
C149 O139 1.268 . S
C150 O140 1.281 . S
C150 O141 1.252 . S
C151 O142 1.272 . S
C151 O143 1.245 . S
O152 Co128 2.053 . S
O152 C144 1.259 . S
O153 Co130 2.047 . S
O153 C144 1.257 . S
O154 Co129 2.063 . S
O154 C145 1.268 . S
O155 Co128 2.094 . S
O155 C145 1.253 . S
O156 Co135 2.115 1_565 S
O156 C146 1.281 . S
O157 Co135 2.315 1_565 S
O157 C146 1.252 . S
O158 Co128 2.122 . S
O158 C147 1.272 . S
O159 Co130 2.113 . S
O159 C147 1.245 . S
Co160 H163 2.400 . S
Co160 O164 2.009 . S
Co160 O172 2.115 . S
Co160 O173 2.315 . S
Co160 O184 2.053 . S
Co160 O187 2.094 . S
Co160 O190 2.122 . S
Co161 O164 2.126 . S
Co161 H165 2.388 . S
Co161 O166 2.053 . S
Co161 O169 2.047 1_455 S
Co161 O175 2.113 1_455 S
Co161 O186 2.063 1_455 S
Co162 H163 2.388 . S
Co162 O164 2.053 . S
Co162 O166 2.126 . S
Co162 O171 2.063 . S
Co162 O185 2.047 . S
Co162 O191 2.113 . S
H163 Co160 2.400 . S
H163 Co162 2.388 . S
H163 O164 0.760 . S
O164 Co160 2.009 . S
O164 Co161 2.126 . S
O164 Co162 2.053 . S
O164 H163 0.760 . S
H165 Co161 2.388 . S
H165 O166 0.760 . S
H165 Co167 2.400 . S
O166 Co161 2.053 . S
O166 Co162 2.126 . S
O166 H165 0.760 . S
O166 Co167 2.009 . S
Co167 H165 2.400 . S
Co167 O166 2.009 . S
Co167 O168 2.053 1_455 S
Co167 O170 2.094 . S
Co167 O174 2.122 1_455 S
Co167 O188 2.115 1_465 S
Co167 O189 2.315 1_565 S
O168 Co167 2.053 1_655 S
O168 C180 1.259 . S
O169 Co161 2.047 1_655 S
O169 C180 1.257 . S
O170 Co167 2.094 . S
O170 C181 1.253 . S
O171 Co162 2.063 . S
O171 C181 1.268 . S
O172 Co160 2.115 . S
O172 C182 1.281 . S
O173 Co160 2.315 . S
O173 C182 1.252 . S
O174 Co167 2.122 1_655 S
O174 C183 1.272 . S
O175 Co161 2.113 1_655 S
O175 C183 1.245 . S
C176 O184 1.259 . S
C176 O185 1.257 . S
C177 O186 1.268 . S
C177 O187 1.253 1_655 S
C178 O188 1.281 1_455 S
C178 O189 1.252 . S
C179 O190 1.272 . S
C179 O191 1.245 . S
C180 O168 1.259 . S
C180 O169 1.257 . S
C181 O170 1.253 . S
C181 O171 1.268 . S
C182 O172 1.281 . S
C182 O173 1.252 . S
C183 O174 1.272 . S
C183 O175 1.245 . S
O184 Co160 2.053 . S
O184 C176 1.259 . S
O185 Co162 2.047 . S
O185 C176 1.257 . S
O186 Co161 2.063 1_655 S
O186 C177 1.268 . S
O187 Co160 2.094 . S
O187 C177 1.253 1_455 S
O188 Co167 2.115 1_645 S
O188 C178 1.281 1_655 S
O189 Co167 2.315 1_545 S
O189 C178 1.252 . S
O190 Co160 2.122 . S
O190 C179 1.272 . S
O191 Co162 2.113 . S
O191 C179 1.245 . S
Co192 H195 2.400 . S
Co192 O196 2.009 . S
Co192 O204 2.115 . S
Co192 O205 2.315 . S
Co192 O216 2.053 . S
Co192 O219 2.094 . S
Co192 O222 2.122 . S
Co193 O196 2.126 . S
Co193 H197 2.388 . S
Co193 O198 2.053 . S
Co193 O201 2.047 1_655 S
Co193 O207 2.113 1_655 S
Co193 O218 2.063 1_655 S
Co194 H195 2.388 . S
Co194 O196 2.053 . S
Co194 O198 2.126 . S
Co194 O203 2.063 . S
Co194 O217 2.047 . S
Co194 O223 2.113 . S
H195 Co192 2.400 . S
H195 Co194 2.388 . S
H195 O196 0.760 . S
O196 Co192 2.009 . S
O196 Co193 2.126 . S
O196 Co194 2.053 . S
O196 H195 0.760 . S
H197 Co193 2.388 . S
H197 O198 0.760 . S
H197 Co199 2.400 . S
O198 Co193 2.053 . S
O198 Co194 2.126 . S
O198 H197 0.760 . S
O198 Co199 2.009 . S
Co199 H197 2.400 . S
Co199 O198 2.009 . S
Co199 O200 2.053 1_655 S
Co199 O202 2.094 . S
Co199 O206 2.122 1_655 S
Co199 O220 2.115 1_655 S
Co199 O221 2.315 . S
O200 Co199 2.053 1_455 S
O200 C212 1.259 . S
O201 Co193 2.047 1_455 S
O201 C212 1.257 . S
O202 Co199 2.094 . S
O202 C213 1.253 . S
O203 Co194 2.063 . S
O203 C213 1.268 . S
O204 Co192 2.115 . S
O204 C214 1.281 . S
O205 Co192 2.315 . S
O205 C214 1.252 . S
O206 Co199 2.122 1_455 S
O206 C215 1.272 . S
O207 Co193 2.113 1_455 S
O207 C215 1.245 . S
C208 O216 1.259 . S
C208 O217 1.257 . S
C209 O218 1.268 . S
C209 O219 1.253 1_455 S
C210 O220 1.281 1_655 S
C210 O221 1.252 . S
C211 O222 1.272 . S
C211 O223 1.245 . S
C212 O200 1.259 . S
C212 O201 1.257 . S
C213 O202 1.253 . S
C213 O203 1.268 . S
C214 O204 1.281 . S
C214 O205 1.252 . S
C215 O206 1.272 . S
C215 O207 1.245 . S
O216 Co192 2.053 . S
O216 C208 1.259 . S
O217 Co194 2.047 . S
O217 C208 1.257 . S
O218 Co193 2.063 1_455 S
O218 C209 1.268 . S
O219 Co192 2.094 . S
O219 C209 1.253 1_655 S
O220 Co199 2.115 1_455 S
O220 C210 1.281 1_455 S
O221 Co199 2.315 . S
O221 C210 1.252 . S
O222 Co192 2.122 . S
O222 C211 1.272 . S
O223 Co194 2.113 . S
O223 C211 1.245 . S
Co224 H227 2.400 . S
Co224 O228 2.009 . S
Co224 O236 2.115 . S
Co224 O237 2.315 . S
Co224 O248 2.053 . S
Co224 O251 2.094 . S
Co224 O254 2.122 . S
Co225 O228 2.126 . S
Co225 H229 2.388 . S
Co225 O230 2.053 . S
Co225 O233 2.047 . S
Co225 O239 2.113 . S
Co225 O250 2.063 . S
Co226 H227 2.388 . S
Co226 O228 2.053 . S
Co226 O230 2.126 . S
Co226 O235 2.063 . S
Co226 O249 2.047 . S
Co226 O255 2.113 . S
H227 Co224 2.400 . S
H227 Co226 2.388 . S
H227 O228 0.760 . S
O228 Co224 2.009 . S
O228 Co225 2.126 . S
O228 Co226 2.053 . S
O228 H227 0.760 . S
H229 Co225 2.388 . S
H229 O230 0.760 . S
H229 Co231 2.400 . S
O230 Co225 2.053 . S
O230 Co226 2.126 . S
O230 H229 0.760 . S
O230 Co231 2.009 . S
Co231 H229 2.400 . S
Co231 O230 2.009 . S
Co231 O232 2.053 . S
Co231 O234 2.094 . S
Co231 O238 2.122 . S
Co231 O252 2.115 . S
Co231 O253 2.315 . S
O232 Co231 2.053 . S
O232 C244 1.259 . S
O233 Co225 2.047 . S
O233 C244 1.257 . S
O234 Co231 2.094 . S
O234 C245 1.253 . S
O235 Co226 2.063 . S
O235 C245 1.268 . S
O236 Co224 2.115 . S
O236 C246 1.281 . S
O237 Co224 2.315 . S
O237 C246 1.252 . S
O238 Co231 2.122 . S
O238 C247 1.272 . S
O239 Co225 2.113 . S
O239 C247 1.245 . S
C240 O248 1.259 . S
C240 O249 1.257 . S
C241 O250 1.268 . S
C241 O251 1.253 . S
C242 O252 1.281 . S
C242 O253 1.252 . S
C243 O254 1.272 . S
C243 O255 1.245 . S
C244 O232 1.259 . S
C244 O233 1.257 . S
C245 O234 1.253 . S
C245 O235 1.268 . S
C246 O236 1.281 . S
C246 O237 1.252 . S
C247 O238 1.272 . S
C247 O239 1.245 . S
O248 Co224 2.053 . S
O248 C240 1.259 . S
O249 Co226 2.047 . S
O249 C240 1.257 . S
O250 Co225 2.063 . S
O250 C241 1.268 . S
O251 Co224 2.094 . S
O251 C241 1.253 . S
O252 Co231 2.115 . S
O252 C242 1.281 . S
O253 Co231 2.315 . S
O253 C242 1.252 . S
O254 Co224 2.122 . S
O254 C243 1.272 . S
O255 Co226 2.113 . S
O255 C243 1.245 . S
Co256 H259 2.400 . S
Co256 O260 2.009 . S
Co256 O268 2.115 . S
Co256 O269 2.315 . S
Co256 O280 2.053 . S
Co256 O283 2.094 . S
Co256 O286 2.122 . S
Co257 O260 2.126 . S
Co257 H261 2.388 . S
Co257 O262 2.053 . S
Co257 O265 2.047 . S
Co257 O271 2.113 . S
Co257 O282 2.063 . S
Co258 H259 2.388 . S
Co258 O260 2.053 . S
Co258 O262 2.126 . S
Co258 O267 2.063 . S
Co258 O281 2.047 . S
Co258 O287 2.113 . S
H259 Co256 2.400 . S
H259 Co258 2.388 . S
H259 O260 0.760 . S
O260 Co256 2.009 . S
O260 Co257 2.126 . S
O260 Co258 2.053 . S
O260 H259 0.760 . S
H261 Co257 2.388 . S
H261 O262 0.760 . S
H261 Co263 2.400 . S
O262 Co257 2.053 . S
O262 Co258 2.126 . S
O262 H261 0.760 . S
O262 Co263 2.009 . S
Co263 H261 2.400 . S
Co263 O262 2.009 . S
Co263 O264 2.053 . S
Co263 O266 2.094 . S
Co263 O270 2.122 . S
Co263 O284 2.115 1_554 S
Co263 O285 2.315 1_554 S
O264 Co263 2.053 . S
O264 C276 1.259 . S
O265 Co257 2.047 . S
O265 C276 1.257 . S
O266 Co263 2.094 . S
O266 C277 1.253 . S
O267 Co258 2.063 . S
O267 C277 1.268 . S
O268 Co256 2.115 . S
O268 C278 1.281 . S
O269 Co256 2.315 . S
O269 C278 1.252 . S
O270 Co263 2.122 . S
O270 C279 1.272 . S
O271 Co257 2.113 . S
O271 C279 1.245 . S
C272 O280 1.259 . S
C272 O281 1.257 . S
C273 O282 1.268 . S
C273 O283 1.253 . S
C274 O284 1.281 . S
C274 O285 1.252 . S
C275 O286 1.272 . S
C275 O287 1.245 . S
C276 O264 1.259 . S
C276 O265 1.257 . S
C277 O266 1.253 . S
C277 O267 1.268 . S
C278 O268 1.281 . S
C278 O269 1.252 . S
C279 O270 1.272 . S
C279 O271 1.245 . S
O280 Co256 2.053 . S
O280 C272 1.259 . S
O281 Co258 2.047 . S
O281 C272 1.257 . S
O282 Co257 2.063 . S
O282 C273 1.268 . S
O283 Co256 2.094 . S
O283 C273 1.253 . S
O284 Co263 2.115 1_556 S
O284 C274 1.281 . S
O285 Co263 2.315 1_556 S
O285 C274 1.252 . S
O286 Co256 2.122 . S
O286 C275 1.272 . S
O287 Co258 2.113 . S
O287 C275 1.245 . S
Co288 H291 2.400 . S
Co288 O292 2.009 . S
Co288 O300 2.115 . S
Co288 O301 2.315 . S
Co288 O312 2.053 . S
Co288 O315 2.094 . S
Co288 O318 2.122 . S
Co289 O292 2.126 . S
Co289 H293 2.388 . S
Co289 O294 2.053 . S
Co289 O297 2.047 1_545 S
Co289 O303 2.113 1_545 S
Co289 O314 2.063 1_545 S
Co290 H291 2.388 . S
Co290 O292 2.053 . S
Co290 O294 2.126 . S
Co290 O299 2.063 . S
Co290 O313 2.047 . S
Co290 O319 2.113 . S
H291 Co288 2.400 . S
H291 Co290 2.388 . S
H291 O292 0.760 . S
O292 Co288 2.009 . S
O292 Co289 2.126 . S
O292 Co290 2.053 . S
O292 H291 0.760 . S
H293 Co289 2.388 . S
H293 O294 0.760 . S
H293 Co295 2.400 . S
O294 Co289 2.053 . S
O294 Co290 2.126 . S
O294 H293 0.760 . S
O294 Co295 2.009 . S
Co295 H293 2.400 . S
Co295 O294 2.009 . S
Co295 O296 2.053 1_545 S
Co295 O298 2.094 . S
Co295 O302 2.122 1_545 S
Co295 O316 2.115 1_546 S
Co295 O317 2.315 1_556 S
O296 Co295 2.053 1_565 S
O296 C308 1.259 . S
O297 Co289 2.047 1_565 S
O297 C308 1.257 . S
O298 Co295 2.094 . S
O298 C309 1.253 . S
O299 Co290 2.063 . S
O299 C309 1.268 . S
O300 Co288 2.115 . S
O300 C310 1.281 . S
O301 Co288 2.315 . S
O301 C310 1.252 . S
O302 Co295 2.122 1_565 S
O302 C311 1.272 . S
O303 Co289 2.113 1_565 S
O303 C311 1.245 . S
C304 O312 1.259 . S
C304 O313 1.257 . S
C305 O314 1.268 . S
C305 O315 1.253 1_565 S
C306 O316 1.281 1_545 S
C306 O317 1.252 . S
C307 O318 1.272 . S
C307 O319 1.245 . S
C308 O296 1.259 . S
C308 O297 1.257 . S
C309 O298 1.253 . S
C309 O299 1.268 . S
C310 O300 1.281 . S
C310 O301 1.252 . S
C311 O302 1.272 . S
C311 O303 1.245 . S
O312 Co288 2.053 . S
O312 C304 1.259 . S
O313 Co290 2.047 . S
O313 C304 1.257 . S
O314 Co289 2.063 1_565 S
O314 C305 1.268 . S
O315 Co288 2.094 . S
O315 C305 1.253 1_545 S
O316 Co295 2.115 1_564 S
O316 C306 1.281 1_565 S
O317 Co295 2.315 1_554 S
O317 C306 1.252 . S
O318 Co288 2.122 . S
O318 C307 1.272 . S
O319 Co290 2.113 . S
O319 C307 1.245 . S
Co320 H323 2.400 . S
Co320 O324 2.009 . S
Co320 O332 2.115 . S
Co320 O333 2.315 . S
Co320 O344 2.053 . S
Co320 O347 2.094 . S
Co320 O350 2.122 . S
Co321 O324 2.126 . S
Co321 H325 2.388 . S
Co321 O326 2.053 . S
Co321 O329 2.047 1_565 S
Co321 O335 2.113 1_565 S
Co321 O346 2.063 1_565 S
Co322 H323 2.388 . S
Co322 O324 2.053 . S
Co322 O326 2.126 . S
Co322 O331 2.063 . S
Co322 O345 2.047 . S
Co322 O351 2.113 . S
H323 Co320 2.400 . S
H323 Co322 2.388 . S
H323 O324 0.760 . S
O324 Co320 2.009 . S
O324 Co321 2.126 . S
O324 Co322 2.053 . S
O324 H323 0.760 . S
H325 Co321 2.388 . S
H325 O326 0.760 . S
H325 Co327 2.400 . S
O326 Co321 2.053 . S
O326 Co322 2.126 . S
O326 H325 0.760 . S
O326 Co327 2.009 . S
Co327 H325 2.400 . S
Co327 O326 2.009 . S
Co327 O328 2.053 1_565 S
Co327 O330 2.094 . S
Co327 O334 2.122 1_565 S
Co327 O348 2.115 1_565 S
Co327 O349 2.315 . S
O328 Co327 2.053 1_545 S
O328 C340 1.259 . S
O329 Co321 2.047 1_545 S
O329 C340 1.257 . S
O330 Co327 2.094 . S
O330 C341 1.253 . S
O331 Co322 2.063 . S
O331 C341 1.268 . S
O332 Co320 2.115 . S
O332 C342 1.281 . S
O333 Co320 2.315 . S
O333 C342 1.252 . S
O334 Co327 2.122 1_545 S
O334 C343 1.272 . S
O335 Co321 2.113 1_545 S
O335 C343 1.245 . S
C336 O344 1.259 . S
C336 O345 1.257 . S
C337 O346 1.268 . S
C337 O347 1.253 1_545 S
C338 O348 1.281 1_565 S
C338 O349 1.252 . S
C339 O350 1.272 . S
C339 O351 1.245 . S
C340 O328 1.259 . S
C340 O329 1.257 . S
C341 O330 1.253 . S
C341 O331 1.268 . S
C342 O332 1.281 . S
C342 O333 1.252 . S
C343 O334 1.272 . S
C343 O335 1.245 . S
O344 Co320 2.053 . S
O344 C336 1.259 . S
O345 Co322 2.047 . S
O345 C336 1.257 . S
O346 Co321 2.063 1_545 S
O346 C337 1.268 . S
O347 Co320 2.094 . S
O347 C337 1.253 1_565 S
O348 Co327 2.115 1_545 S
O348 C338 1.281 1_545 S
O349 Co327 2.315 . S
O349 C338 1.252 . S
O350 Co320 2.122 . S
O350 C339 1.272 . S
O351 Co322 2.113 . S
O351 C339 1.245 . S
Co352 H355 2.400 . S
Co352 O356 2.009 . S
Co352 O364 2.115 . S
Co352 O365 2.315 . S
Co352 O376 2.053 . S
Co352 O379 2.094 . S
Co352 O382 2.122 . S
Co353 O356 2.126 . S
Co353 H357 2.388 . S
Co353 O358 2.053 . S
Co353 O361 2.047 . S
Co353 O367 2.113 . S
Co353 O378 2.063 . S
Co354 H355 2.388 . S
Co354 O356 2.053 . S
Co354 O358 2.126 . S
Co354 O363 2.063 . S
Co354 O377 2.047 . S
Co354 O383 2.113 . S
H355 Co352 2.400 . S
H355 Co354 2.388 . S
H355 O356 0.760 . S
O356 Co352 2.009 . S
O356 Co353 2.126 . S
O356 Co354 2.053 . S
O356 H355 0.760 . S
H357 Co353 2.388 . S
H357 O358 0.760 . S
H357 Co359 2.400 . S
O358 Co353 2.053 . S
O358 Co354 2.126 . S
O358 H357 0.760 . S
O358 Co359 2.009 . S
Co359 H357 2.400 . S
Co359 O358 2.009 . S
Co359 O360 2.053 . S
Co359 O362 2.094 . S
Co359 O366 2.122 . S
Co359 O380 2.115 . S
Co359 O381 2.315 . S
O360 Co359 2.053 . S
O360 C372 1.259 . S
O361 Co353 2.047 . S
O361 C372 1.257 . S
O362 Co359 2.094 . S
O362 C373 1.253 . S
O363 Co354 2.063 . S
O363 C373 1.268 . S
O364 Co352 2.115 . S
O364 C374 1.281 . S
O365 Co352 2.315 . S
O365 C374 1.252 . S
O366 Co359 2.122 . S
O366 C375 1.272 . S
O367 Co353 2.113 . S
O367 C375 1.245 . S
C368 O376 1.259 . S
C368 O377 1.257 . S
C369 O378 1.268 . S
C369 O379 1.253 . S
C370 O380 1.281 . S
C370 O381 1.252 . S
C371 O382 1.272 . S
C371 O383 1.245 . S
C372 O360 1.259 . S
C372 O361 1.257 . S
C373 O362 1.253 . S
C373 O363 1.268 . S
C374 O364 1.281 . S
C374 O365 1.252 . S
C375 O366 1.272 . S
C375 O367 1.245 . S
O376 Co352 2.053 . S
O376 C368 1.259 . S
O377 Co354 2.047 . S
O377 C368 1.257 . S
O378 Co353 2.063 . S
O378 C369 1.268 . S
O379 Co352 2.094 . S
O379 C369 1.253 . S
O380 Co359 2.115 . S
O380 C370 1.281 . S
O381 Co359 2.315 . S
O381 C370 1.252 . S
O382 Co352 2.122 . S
O382 C371 1.272 . S
O383 Co354 2.113 . S
O383 C371 1.245 . S
Co384 H387 2.400 . S
Co384 O388 2.009 . S
Co384 O396 2.115 1_655 S
Co384 O397 2.315 1_655 S
Co384 O408 2.053 . S
Co384 O411 2.094 . S
Co384 O414 2.122 . S
Co385 O388 2.126 . S
Co385 H389 2.388 . S
Co385 O390 2.053 . S
Co385 O393 2.047 . S
Co385 O399 2.113 . S
Co385 O410 2.063 . S
Co386 H387 2.388 . S
Co386 O388 2.053 . S
Co386 O390 2.126 . S
Co386 O395 2.063 . S
Co386 O409 2.047 . S
Co386 O415 2.113 . S
H387 Co384 2.400 . S
H387 Co386 2.388 . S
H387 O388 0.760 . S
O388 Co384 2.009 . S
O388 Co385 2.126 . S
O388 Co386 2.053 . S
O388 H387 0.760 . S
H389 Co385 2.388 . S
H389 O390 0.760 . S
H389 Co391 2.400 . S
O390 Co385 2.053 . S
O390 Co386 2.126 . S
O390 H389 0.760 . S
O390 Co391 2.009 . S
Co391 H389 2.400 . S
Co391 O390 2.009 . S
Co391 O392 2.053 . S
Co391 O394 2.094 . S
Co391 O398 2.122 . S
Co391 O412 2.115 . S
Co391 O413 2.315 . S
O392 Co391 2.053 . S
O392 C404 1.259 . S
O393 Co385 2.047 . S
O393 C404 1.257 . S
O394 Co391 2.094 . S
O394 C405 1.253 . S
O395 Co386 2.063 . S
O395 C405 1.268 . S
O396 Co384 2.115 1_455 S
O396 C406 1.281 . S
O397 Co384 2.315 1_455 S
O397 C406 1.252 . S
O398 Co391 2.122 . S
O398 C407 1.272 . S
O399 Co385 2.113 . S
O399 C407 1.245 . S
C400 O408 1.259 . S
C400 O409 1.257 . S
C401 O410 1.268 . S
C401 O411 1.253 . S
C402 O412 1.281 . S
C402 O413 1.252 . S
C403 O414 1.272 . S
C403 O415 1.245 . S
C404 O392 1.259 . S
C404 O393 1.257 . S
C405 O394 1.253 . S
C405 O395 1.268 . S
C406 O396 1.281 . S
C406 O397 1.252 . S
C407 O398 1.272 . S
C407 O399 1.245 . S
O408 Co384 2.053 . S
O408 C400 1.259 . S
O409 Co386 2.047 . S
O409 C400 1.257 . S
O410 Co385 2.063 . S
O410 C401 1.268 . S
O411 Co384 2.094 . S
O411 C401 1.253 . S
O412 Co391 2.115 . S
O412 C402 1.281 . S
O413 Co391 2.315 . S
O413 C402 1.252 . S
O414 Co384 2.122 . S
O414 C403 1.272 . S
O415 Co386 2.113 . S
O415 C403 1.245 . S
Co416 H419 2.400 . S
Co416 O420 2.009 . S
Co416 O428 2.115 1_554 S
Co416 O429 2.315 . S
Co416 O440 2.053 1_554 S
Co416 O443 2.094 . S
Co416 O446 2.122 1_554 S
Co417 O420 2.126 . S
Co417 H421 2.388 . S
Co417 O422 2.053 . S
Co417 O425 2.047 . S
Co417 O431 2.113 . S
Co417 O442 2.063 . S
Co418 H419 2.388 . S
Co418 O420 2.053 . S
Co418 O422 2.126 . S
Co418 O427 2.063 1_554 S
Co418 O441 2.047 1_554 S
Co418 O447 2.113 1_554 S
H419 Co416 2.400 . S
H419 Co418 2.388 . S
H419 O420 0.760 . S
O420 Co416 2.009 . S
O420 Co417 2.126 . S
O420 Co418 2.053 . S
O420 H419 0.760 . S
H421 Co417 2.388 . S
H421 O422 0.760 . S
H421 Co423 2.400 . S
O422 Co417 2.053 . S
O422 Co418 2.126 . S
O422 H421 0.760 . S
O422 Co423 2.009 . S
Co423 H421 2.400 . S
Co423 O422 2.009 . S
Co423 O424 2.053 . S
Co423 O426 2.094 . S
Co423 O430 2.122 . S
Co423 O444 2.115 . S
Co423 O445 2.315 . S
O424 Co423 2.053 . S
O424 C436 1.259 . S
O425 Co417 2.047 . S
O425 C436 1.257 . S
O426 Co423 2.094 . S
O426 C437 1.253 1_554 S
O427 Co418 2.063 1_556 S
O427 C437 1.268 . S
O428 Co416 2.115 1_556 S
O428 C438 1.281 1_556 S
O429 Co416 2.315 . S
O429 C438 1.252 . S
O430 Co423 2.122 . S
O430 C439 1.272 . S
O431 Co417 2.113 . S
O431 C439 1.245 . S
C432 O440 1.259 . S
C432 O441 1.257 . S
C433 O442 1.268 . S
C433 O443 1.253 . S
C434 O444 1.281 . S
C434 O445 1.252 . S
C435 O446 1.272 . S
C435 O447 1.245 . S
C436 O424 1.259 . S
C436 O425 1.257 . S
C437 O426 1.253 1_556 S
C437 O427 1.268 . S
C438 O428 1.281 1_554 S
C438 O429 1.252 . S
C439 O430 1.272 . S
C439 O431 1.245 . S
O440 Co416 2.053 1_556 S
O440 C432 1.259 . S
O441 Co418 2.047 1_556 S
O441 C432 1.257 . S
O442 Co417 2.063 . S
O442 C433 1.268 . S
O443 Co416 2.094 . S
O443 C433 1.253 . S
O444 Co423 2.115 . S
O444 C434 1.281 . S
O445 Co423 2.315 . S
O445 C434 1.252 . S
O446 Co416 2.122 1_556 S
O446 C435 1.272 . S
O447 Co418 2.113 1_556 S
O447 C435 1.245 . S
Co448 H451 2.400 . S
Co448 O452 2.009 . S
Co448 O460 2.115 . S
Co448 O461 2.315 . S
Co448 O472 2.053 . S
Co448 O475 2.094 . S
Co448 O478 2.122 . S
Co449 O452 2.126 . S
Co449 H453 2.388 . S
Co449 O454 2.053 . S
Co449 O457 2.047 . S
Co449 O463 2.113 . S
Co449 O474 2.063 . S
Co450 H451 2.388 . S
Co450 O452 2.053 . S
Co450 O454 2.126 . S
Co450 O459 2.063 . S
Co450 O473 2.047 . S
Co450 O479 2.113 . S
H451 Co448 2.400 . S
H451 Co450 2.388 . S
H451 O452 0.760 . S
O452 Co448 2.009 . S
O452 Co449 2.126 . S
O452 Co450 2.053 . S
O452 H451 0.760 . S
H453 Co449 2.388 . S
H453 O454 0.760 . S
H453 Co455 2.400 . S
O454 Co449 2.053 . S
O454 Co450 2.126 . S
O454 H453 0.760 . S
O454 Co455 2.009 . S
Co455 H453 2.400 . S
Co455 O454 2.009 . S
Co455 O456 2.053 . S
Co455 O458 2.094 . S
Co455 O462 2.122 . S
Co455 O476 2.115 . S
Co455 O477 2.315 . S
O456 Co455 2.053 . S
O456 C468 1.259 . S
O457 Co449 2.047 . S
O457 C468 1.257 . S
O458 Co455 2.094 . S
O458 C469 1.253 . S
O459 Co450 2.063 . S
O459 C469 1.268 . S
O460 Co448 2.115 . S
O460 C470 1.281 . S
O461 Co448 2.315 . S
O461 C470 1.252 . S
O462 Co455 2.122 . S
O462 C471 1.272 . S
O463 Co449 2.113 . S
O463 C471 1.245 . S
C464 O472 1.259 . S
C464 O473 1.257 . S
C465 O474 1.268 . S
C465 O475 1.253 . S
C466 O476 1.281 . S
C466 O477 1.252 . S
C467 O478 1.272 . S
C467 O479 1.245 . S
C468 O456 1.259 . S
C468 O457 1.257 . S
C469 O458 1.253 . S
C469 O459 1.268 . S
C470 O460 1.281 . S
C470 O461 1.252 . S
C471 O462 1.272 . S
C471 O463 1.245 . S
O472 Co448 2.053 . S
O472 C464 1.259 . S
O473 Co450 2.047 . S
O473 C464 1.257 . S
O474 Co449 2.063 . S
O474 C465 1.268 . S
O475 Co448 2.094 . S
O475 C465 1.253 . S
O476 Co455 2.115 . S
O476 C466 1.281 . S
O477 Co455 2.315 . S
O477 C466 1.252 . S
O478 Co448 2.122 . S
O478 C467 1.272 . S
O479 Co450 2.113 . S
O479 C467 1.245 . S
Co480 H483 2.400 . S
Co480 O484 2.009 . S
Co480 O492 2.115 1_456 S
Co480 O493 2.315 1_455 S
Co480 O504 2.053 1_556 S
Co480 O507 2.094 . S
Co480 O510 2.122 1_556 S
Co481 O484 2.126 . S
Co481 H485 2.388 . S
Co481 O486 2.053 . S
Co481 O489 2.047 . S
Co481 O495 2.113 . S
Co481 O506 2.063 . S
Co482 H483 2.388 . S
Co482 O484 2.053 . S
Co482 O486 2.126 . S
Co482 O491 2.063 1_556 S
Co482 O505 2.047 1_556 S
Co482 O511 2.113 1_556 S
H483 Co480 2.400 . S
H483 Co482 2.388 . S
H483 O484 0.760 . S
O484 Co480 2.009 . S
O484 Co481 2.126 . S
O484 Co482 2.053 . S
O484 H483 0.760 . S
H485 Co481 2.388 . S
H485 O486 0.760 . S
H485 Co487 2.400 . S
O486 Co481 2.053 . S
O486 Co482 2.126 . S
O486 H485 0.760 . S
O486 Co487 2.009 . S
Co487 H485 2.400 . S
Co487 O486 2.009 . S
Co487 O488 2.053 . S
Co487 O490 2.094 . S
Co487 O494 2.122 . S
Co487 O508 2.115 . S
Co487 O509 2.315 . S
O488 Co487 2.053 . S
O488 C500 1.259 . S
O489 Co481 2.047 . S
O489 C500 1.257 . S
O490 Co487 2.094 . S
O490 C501 1.253 1_556 S
O491 Co482 2.063 1_554 S
O491 C501 1.268 . S
O492 Co480 2.115 1_654 S
O492 C502 1.281 1_554 S
O493 Co480 2.315 1_655 S
O493 C502 1.252 . S
O494 Co487 2.122 . S
O494 C503 1.272 . S
O495 Co481 2.113 . S
O495 C503 1.245 . S
C496 O504 1.259 . S
C496 O505 1.257 . S
C497 O506 1.268 . S
C497 O507 1.253 . S
C498 O508 1.281 . S
C498 O509 1.252 . S
C499 O510 1.272 . S
C499 O511 1.245 . S
C500 O488 1.259 . S
C500 O489 1.257 . S
C501 O490 1.253 1_554 S
C501 O491 1.268 . S
C502 O492 1.281 1_556 S
C502 O493 1.252 . S
C503 O494 1.272 . S
C503 O495 1.245 . S
O504 Co480 2.053 1_554 S
O504 C496 1.259 . S
O505 Co482 2.047 1_554 S
O505 C496 1.257 . S
O506 Co481 2.063 . S
O506 C497 1.268 . S
O507 Co480 2.094 . S
O507 C497 1.253 . S
O508 Co487 2.115 . S
O508 C498 1.281 . S
O509 Co487 2.315 . S
O509 C498 1.252 . S
O510 Co480 2.122 1_554 S
O510 C499 1.272 . S
O511 Co482 2.113 1_554 S
O511 C499 1.245 . S
Co512 H515 2.400 . S
Co512 O516 2.009 . S
Co512 O524 2.115 1_565 S
Co512 O525 2.315 1_565 S
Co512 O536 2.053 . S
Co512 O539 2.094 . S
Co512 O542 2.122 . S
Co513 O516 2.126 . S
Co513 H517 2.388 . S
Co513 O518 2.053 . S
Co513 O521 2.047 . S
Co513 O527 2.113 . S
Co513 O538 2.063 . S
Co514 H515 2.388 . S
Co514 O516 2.053 . S
Co514 O518 2.126 . S
Co514 O523 2.063 . S
Co514 O537 2.047 . S
Co514 O543 2.113 . S
H515 Co512 2.400 . S
H515 Co514 2.388 . S
H515 O516 0.760 . S
O516 Co512 2.009 . S
O516 Co513 2.126 . S
O516 Co514 2.053 . S
O516 H515 0.760 . S
H517 Co513 2.388 . S
H517 O518 0.760 . S
H517 Co519 2.400 . S
O518 Co513 2.053 . S
O518 Co514 2.126 . S
O518 H517 0.760 . S
O518 Co519 2.009 . S
Co519 H517 2.400 . S
Co519 O518 2.009 . S
Co519 O520 2.053 . S
Co519 O522 2.094 . S
Co519 O526 2.122 . S
Co519 O540 2.115 . S
Co519 O541 2.315 . S
O520 Co519 2.053 . S
O520 C532 1.259 . S
O521 Co513 2.047 . S
O521 C532 1.257 . S
O522 Co519 2.094 . S
O522 C533 1.253 . S
O523 Co514 2.063 . S
O523 C533 1.268 . S
O524 Co512 2.115 1_545 S
O524 C534 1.281 . S
O525 Co512 2.315 1_545 S
O525 C534 1.252 . S
O526 Co519 2.122 . S
O526 C535 1.272 . S
O527 Co513 2.113 . S
O527 C535 1.245 . S
C528 O536 1.259 . S
C528 O537 1.257 . S
C529 O538 1.268 . S
C529 O539 1.253 . S
C530 O540 1.281 . S
C530 O541 1.252 . S
C531 O542 1.272 . S
C531 O543 1.245 . S
C532 O520 1.259 . S
C532 O521 1.257 . S
C533 O522 1.253 . S
C533 O523 1.268 . S
C534 O524 1.281 . S
C534 O525 1.252 . S
C535 O526 1.272 . S
C535 O527 1.245 . S
O536 Co512 2.053 . S
O536 C528 1.259 . S
O537 Co514 2.047 . S
O537 C528 1.257 . S
O538 Co513 2.063 . S
O538 C529 1.268 . S
O539 Co512 2.094 . S
O539 C529 1.253 . S
O540 Co519 2.115 . S
O540 C530 1.281 . S
O541 Co519 2.315 . S
O541 C530 1.252 . S
O542 Co512 2.122 . S
O542 C531 1.272 . S
O543 Co514 2.113 . S
O543 C531 1.245 . S
Co544 H547 2.400 . S
Co544 O548 2.009 . S
Co544 O556 2.115 1_645 S
Co544 O557 2.315 1_545 S
Co544 O568 2.053 1_655 S
Co544 O571 2.094 . S
Co544 O574 2.122 1_655 S
Co545 O548 2.126 . S
Co545 H549 2.388 . S
Co545 O550 2.053 . S
Co545 O553 2.047 . S
Co545 O559 2.113 . S
Co545 O570 2.063 . S
Co546 H547 2.388 . S
Co546 O548 2.053 . S
Co546 O550 2.126 . S
Co546 O555 2.063 1_655 S
Co546 O569 2.047 1_655 S
Co546 O575 2.113 1_655 S
H547 Co544 2.400 . S
H547 Co546 2.388 . S
H547 O548 0.760 . S
O548 Co544 2.009 . S
O548 Co545 2.126 . S
O548 Co546 2.053 . S
O548 H547 0.760 . S
H549 Co545 2.388 . S
H549 O550 0.760 . S
H549 Co551 2.400 . S
O550 Co545 2.053 . S
O550 Co546 2.126 . S
O550 H549 0.760 . S
O550 Co551 2.009 . S
Co551 H549 2.400 . S
Co551 O550 2.009 . S
Co551 O552 2.053 . S
Co551 O554 2.094 . S
Co551 O558 2.122 . S
Co551 O572 2.115 . S
Co551 O573 2.315 . S
O552 Co551 2.053 . S
O552 C564 1.259 . S
O553 Co545 2.047 . S
O553 C564 1.257 . S
O554 Co551 2.094 . S
O554 C565 1.253 1_655 S
O555 Co546 2.063 1_455 S
O555 C565 1.268 . S
O556 Co544 2.115 1_465 S
O556 C566 1.281 1_455 S
O557 Co544 2.315 1_565 S
O557 C566 1.252 . S
O558 Co551 2.122 . S
O558 C567 1.272 . S
O559 Co545 2.113 . S
O559 C567 1.245 . S
C560 O568 1.259 . S
C560 O569 1.257 . S
C561 O570 1.268 . S
C561 O571 1.253 . S
C562 O572 1.281 . S
C562 O573 1.252 . S
C563 O574 1.272 . S
C563 O575 1.245 . S
C564 O552 1.259 . S
C564 O553 1.257 . S
C565 O554 1.253 1_455 S
C565 O555 1.268 . S
C566 O556 1.281 1_655 S
C566 O557 1.252 . S
C567 O558 1.272 . S
C567 O559 1.245 . S
O568 Co544 2.053 1_455 S
O568 C560 1.259 . S
O569 Co546 2.047 1_455 S
O569 C560 1.257 . S
O570 Co545 2.063 . S
O570 C561 1.268 . S
O571 Co544 2.094 . S
O571 C561 1.253 . S
O572 Co551 2.115 . S
O572 C562 1.281 . S
O573 Co551 2.315 . S
O573 C562 1.252 . S
O574 Co544 2.122 1_455 S
O574 C563 1.272 . S
O575 Co546 2.113 1_455 S
O575 C563 1.245 . S
Co576 H579 2.400 . S
Co576 O580 2.009 . S
Co576 O588 2.115 1_455 S
Co576 O589 2.315 . S
Co576 O600 2.053 1_455 S
Co576 O603 2.094 . S
Co576 O606 2.122 1_455 S
Co577 O580 2.126 . S
Co577 H581 2.388 . S
Co577 O582 2.053 . S
Co577 O585 2.047 . S
Co577 O591 2.113 . S
Co577 O602 2.063 . S
Co578 H579 2.388 . S
Co578 O580 2.053 . S
Co578 O582 2.126 . S
Co578 O587 2.063 1_455 S
Co578 O601 2.047 1_455 S
Co578 O607 2.113 1_455 S
H579 Co576 2.400 . S
H579 Co578 2.388 . S
H579 O580 0.760 . S
O580 Co576 2.009 . S
O580 Co577 2.126 . S
O580 Co578 2.053 . S
O580 H579 0.760 . S
H581 Co577 2.388 . S
H581 O582 0.760 . S
H581 Co583 2.400 . S
O582 Co577 2.053 . S
O582 Co578 2.126 . S
O582 H581 0.760 . S
O582 Co583 2.009 . S
Co583 H581 2.400 . S
Co583 O582 2.009 . S
Co583 O584 2.053 . S
Co583 O586 2.094 . S
Co583 O590 2.122 . S
Co583 O604 2.115 . S
Co583 O605 2.315 . S
O584 Co583 2.053 . S
O584 C596 1.259 . S
O585 Co577 2.047 . S
O585 C596 1.257 . S
O586 Co583 2.094 . S
O586 C597 1.253 1_455 S
O587 Co578 2.063 1_655 S
O587 C597 1.268 . S
O588 Co576 2.115 1_655 S
O588 C598 1.281 1_655 S
O589 Co576 2.315 . S
O589 C598 1.252 . S
O590 Co583 2.122 . S
O590 C599 1.272 . S
O591 Co577 2.113 . S
O591 C599 1.245 . S
C592 O600 1.259 . S
C592 O601 1.257 . S
C593 O602 1.268 . S
C593 O603 1.253 . S
C594 O604 1.281 . S
C594 O605 1.252 . S
C595 O606 1.272 . S
C595 O607 1.245 . S
C596 O584 1.259 . S
C596 O585 1.257 . S
C597 O586 1.253 1_655 S
C597 O587 1.268 . S
C598 O588 1.281 1_455 S
C598 O589 1.252 . S
C599 O590 1.272 . S
C599 O591 1.245 . S
O600 Co576 2.053 1_655 S
O600 C592 1.259 . S
O601 Co578 2.047 1_655 S
O601 C592 1.257 . S
O602 Co577 2.063 . S
O602 C593 1.268 . S
O603 Co576 2.094 . S
O603 C593 1.253 . S
O604 Co583 2.115 . S
O604 C594 1.281 . S
O605 Co583 2.315 . S
O605 C594 1.252 . S
O606 Co576 2.122 1_655 S
O606 C595 1.272 . S
O607 Co578 2.113 1_655 S
O607 C595 1.245 . S
Co608 H611 2.400 . S
Co608 O612 2.009 . S
Co608 O620 2.115 . S
Co608 O621 2.315 . S
Co608 O632 2.053 . S
Co608 O635 2.094 . S
Co608 O638 2.122 . S
Co609 O612 2.126 . S
Co609 H613 2.388 . S
Co609 O614 2.053 . S
Co609 O617 2.047 . S
Co609 O623 2.113 . S
Co609 O634 2.063 . S
Co610 H611 2.388 . S
Co610 O612 2.053 . S
Co610 O614 2.126 . S
Co610 O619 2.063 . S
Co610 O633 2.047 . S
Co610 O639 2.113 . S
H611 Co608 2.400 . S
H611 Co610 2.388 . S
H611 O612 0.760 . S
O612 Co608 2.009 . S
O612 Co609 2.126 . S
O612 Co610 2.053 . S
O612 H611 0.760 . S
H613 Co609 2.388 . S
H613 O614 0.760 . S
H613 Co615 2.400 . S
O614 Co609 2.053 . S
O614 Co610 2.126 . S
O614 H613 0.760 . S
O614 Co615 2.009 . S
Co615 H613 2.400 . S
Co615 O614 2.009 . S
Co615 O616 2.053 . S
Co615 O618 2.094 . S
Co615 O622 2.122 . S
Co615 O636 2.115 . S
Co615 O637 2.315 . S
O616 Co615 2.053 . S
O616 C628 1.259 . S
O617 Co609 2.047 . S
O617 C628 1.257 . S
O618 Co615 2.094 . S
O618 C629 1.253 . S
O619 Co610 2.063 . S
O619 C629 1.268 . S
O620 Co608 2.115 . S
O620 C630 1.281 . S
O621 Co608 2.315 . S
O621 C630 1.252 . S
O622 Co615 2.122 . S
O622 C631 1.272 . S
O623 Co609 2.113 . S
O623 C631 1.245 . S
C624 O632 1.259 . S
C624 O633 1.257 . S
C625 O634 1.268 . S
C625 O635 1.253 . S
C626 O636 1.281 . S
C626 O637 1.252 . S
C627 O638 1.272 . S
C627 O639 1.245 . S
C628 O616 1.259 . S
C628 O617 1.257 . S
C629 O618 1.253 . S
C629 O619 1.268 . S
C630 O620 1.281 . S
C630 O621 1.252 . S
C631 O622 1.272 . S
C631 O623 1.245 . S
O632 Co608 2.053 . S
O632 C624 1.259 . S
O633 Co610 2.047 . S
O633 C624 1.257 . S
O634 Co609 2.063 . S
O634 C625 1.268 . S
O635 Co608 2.094 . S
O635 C625 1.253 . S
O636 Co615 2.115 . S
O636 C626 1.281 . S
O637 Co615 2.315 . S
O637 C626 1.252 . S
O638 Co608 2.122 . S
O638 C627 1.272 . S
O639 Co610 2.113 . S
O639 C627 1.245 . S
Co640 H643 2.400 . S
Co640 O644 2.009 . S
Co640 O652 2.115 1_556 S
Co640 O653 2.315 1_556 S
Co640 O664 2.053 . S
Co640 O667 2.094 . S
Co640 O670 2.122 . S
Co641 O644 2.126 . S
Co641 H645 2.388 . S
Co641 O646 2.053 . S
Co641 O649 2.047 . S
Co641 O655 2.113 . S
Co641 O666 2.063 . S
Co642 H643 2.388 . S
Co642 O644 2.053 . S
Co642 O646 2.126 . S
Co642 O651 2.063 . S
Co642 O665 2.047 . S
Co642 O671 2.113 . S
H643 Co640 2.400 . S
H643 Co642 2.388 . S
H643 O644 0.760 . S
O644 Co640 2.009 . S
O644 Co641 2.126 . S
O644 Co642 2.053 . S
O644 H643 0.760 . S
H645 Co641 2.388 . S
H645 O646 0.760 . S
H645 Co647 2.400 . S
O646 Co641 2.053 . S
O646 Co642 2.126 . S
O646 H645 0.760 . S
O646 Co647 2.009 . S
Co647 H645 2.400 . S
Co647 O646 2.009 . S
Co647 O648 2.053 . S
Co647 O650 2.094 . S
Co647 O654 2.122 . S
Co647 O668 2.115 . S
Co647 O669 2.315 . S
O648 Co647 2.053 . S
O648 C660 1.259 . S
O649 Co641 2.047 . S
O649 C660 1.257 . S
O650 Co647 2.094 . S
O650 C661 1.253 . S
O651 Co642 2.063 . S
O651 C661 1.268 . S
O652 Co640 2.115 1_554 S
O652 C662 1.281 . S
O653 Co640 2.315 1_554 S
O653 C662 1.252 . S
O654 Co647 2.122 . S
O654 C663 1.272 . S
O655 Co641 2.113 . S
O655 C663 1.245 . S
C656 O664 1.259 . S
C656 O665 1.257 . S
C657 O666 1.268 . S
C657 O667 1.253 . S
C658 O668 1.281 . S
C658 O669 1.252 . S
C659 O670 1.272 . S
C659 O671 1.245 . S
C660 O648 1.259 . S
C660 O649 1.257 . S
C661 O650 1.253 . S
C661 O651 1.268 . S
C662 O652 1.281 . S
C662 O653 1.252 . S
C663 O654 1.272 . S
C663 O655 1.245 . S
O664 Co640 2.053 . S
O664 C656 1.259 . S
O665 Co642 2.047 . S
O665 C656 1.257 . S
O666 Co641 2.063 . S
O666 C657 1.268 . S
O667 Co640 2.094 . S
O667 C657 1.253 . S
O668 Co647 2.115 . S
O668 C658 1.281 . S
O669 Co647 2.315 . S
O669 C658 1.252 . S
O670 Co640 2.122 . S
O670 C659 1.272 . S
O671 Co642 2.113 . S
O671 C659 1.245 . S
Co672 H675 2.400 . S
Co672 O676 2.009 . S
Co672 O684 2.115 1_564 S
Co672 O685 2.315 1_554 S
Co672 O696 2.053 1_565 S
Co672 O699 2.094 . S
Co672 O702 2.122 1_565 S
Co673 O676 2.126 . S
Co673 H677 2.388 . S
Co673 O678 2.053 . S
Co673 O681 2.047 . S
Co673 O687 2.113 . S
Co673 O698 2.063 . S
Co674 H675 2.388 . S
Co674 O676 2.053 . S
Co674 O678 2.126 . S
Co674 O683 2.063 1_565 S
Co674 O697 2.047 1_565 S
Co674 O703 2.113 1_565 S
H675 Co672 2.400 . S
H675 Co674 2.388 . S
H675 O676 0.760 . S
O676 Co672 2.009 . S
O676 Co673 2.126 . S
O676 Co674 2.053 . S
O676 H675 0.760 . S
H677 Co673 2.388 . S
H677 O678 0.760 . S
H677 Co679 2.400 . S
O678 Co673 2.053 . S
O678 Co674 2.126 . S
O678 H677 0.760 . S
O678 Co679 2.009 . S
Co679 H677 2.400 . S
Co679 O678 2.009 . S
Co679 O680 2.053 . S
Co679 O682 2.094 . S
Co679 O686 2.122 . S
Co679 O700 2.115 . S
Co679 O701 2.315 . S
O680 Co679 2.053 . S
O680 C692 1.259 . S
O681 Co673 2.047 . S
O681 C692 1.257 . S
O682 Co679 2.094 . S
O682 C693 1.253 1_565 S
O683 Co674 2.063 1_545 S
O683 C693 1.268 . S
O684 Co672 2.115 1_546 S
O684 C694 1.281 1_545 S
O685 Co672 2.315 1_556 S
O685 C694 1.252 . S
O686 Co679 2.122 . S
O686 C695 1.272 . S
O687 Co673 2.113 . S
O687 C695 1.245 . S
C688 O696 1.259 . S
C688 O697 1.257 . S
C689 O698 1.268 . S
C689 O699 1.253 . S
C690 O700 1.281 . S
C690 O701 1.252 . S
C691 O702 1.272 . S
C691 O703 1.245 . S
C692 O680 1.259 . S
C692 O681 1.257 . S
C693 O682 1.253 1_545 S
C693 O683 1.268 . S
C694 O684 1.281 1_565 S
C694 O685 1.252 . S
C695 O686 1.272 . S
C695 O687 1.245 . S
O696 Co672 2.053 1_545 S
O696 C688 1.259 . S
O697 Co674 2.047 1_545 S
O697 C688 1.257 . S
O698 Co673 2.063 . S
O698 C689 1.268 . S
O699 Co672 2.094 . S
O699 C689 1.253 . S
O700 Co679 2.115 . S
O700 C690 1.281 . S
O701 Co679 2.315 . S
O701 C690 1.252 . S
O702 Co672 2.122 1_545 S
O702 C691 1.272 . S
O703 Co674 2.113 1_545 S
O703 C691 1.245 . S
Co704 H707 2.400 . S
Co704 O708 2.009 . S
Co704 O716 2.115 1_545 S
Co704 O717 2.315 . S
Co704 O728 2.053 1_545 S
Co704 O731 2.094 . S
Co704 O734 2.122 1_545 S
Co705 O708 2.126 . S
Co705 H709 2.388 . S
Co705 O710 2.053 . S
Co705 O713 2.047 . S
Co705 O719 2.113 . S
Co705 O730 2.063 . S
Co706 H707 2.388 . S
Co706 O708 2.053 . S
Co706 O710 2.126 . S
Co706 O715 2.063 1_545 S
Co706 O729 2.047 1_545 S
Co706 O735 2.113 1_545 S
H707 Co704 2.400 . S
H707 Co706 2.388 . S
H707 O708 0.760 . S
O708 Co704 2.009 . S
O708 Co705 2.126 . S
O708 Co706 2.053 . S
O708 H707 0.760 . S
H709 Co705 2.388 . S
H709 O710 0.760 . S
H709 Co711 2.400 . S
O710 Co705 2.053 . S
O710 Co706 2.126 . S
O710 H709 0.760 . S
O710 Co711 2.009 . S
Co711 H709 2.400 . S
Co711 O710 2.009 . S
Co711 O712 2.053 . S
Co711 O714 2.094 . S
Co711 O718 2.122 . S
Co711 O732 2.115 . S
Co711 O733 2.315 . S
O712 Co711 2.053 . S
O712 C724 1.259 . S
O713 Co705 2.047 . S
O713 C724 1.257 . S
O714 Co711 2.094 . S
O714 C725 1.253 1_545 S
O715 Co706 2.063 1_565 S
O715 C725 1.268 . S
O716 Co704 2.115 1_565 S
O716 C726 1.281 1_565 S
O717 Co704 2.315 . S
O717 C726 1.252 . S
O718 Co711 2.122 . S
O718 C727 1.272 . S
O719 Co705 2.113 . S
O719 C727 1.245 . S
C720 O728 1.259 . S
C720 O729 1.257 . S
C721 O730 1.268 . S
C721 O731 1.253 . S
C722 O732 1.281 . S
C722 O733 1.252 . S
C723 O734 1.272 . S
C723 O735 1.245 . S
C724 O712 1.259 . S
C724 O713 1.257 . S
C725 O714 1.253 1_565 S
C725 O715 1.268 . S
C726 O716 1.281 1_545 S
C726 O717 1.252 . S
C727 O718 1.272 . S
C727 O719 1.245 . S
O728 Co704 2.053 1_565 S
O728 C720 1.259 . S
O729 Co706 2.047 1_565 S
O729 C720 1.257 . S
O730 Co705 2.063 . S
O730 C721 1.268 . S
O731 Co704 2.094 . S
O731 C721 1.253 . S
O732 Co711 2.115 . S
O732 C722 1.281 . S
O733 Co711 2.315 . S
O733 C722 1.252 . S
O734 Co704 2.122 1_565 S
O734 C723 1.272 . S
O735 Co706 2.113 1_565 S
O735 C723 1.245 . S
Co736 H739 2.400 . S
Co736 O740 2.009 . S
Co736 O748 2.115 . S
Co736 O749 2.315 . S
Co736 O760 2.053 . S
Co736 O763 2.094 . S
Co736 O766 2.122 . S
Co737 O740 2.126 . S
Co737 H741 2.388 . S
Co737 O742 2.053 . S
Co737 O745 2.047 . S
Co737 O751 2.113 . S
Co737 O762 2.063 . S
Co738 H739 2.388 . S
Co738 O740 2.053 . S
Co738 O742 2.126 . S
Co738 O747 2.063 . S
Co738 O761 2.047 . S
Co738 O767 2.113 . S
H739 Co736 2.400 . S
H739 Co738 2.388 . S
H739 O740 0.760 . S
O740 Co736 2.009 . S
O740 Co737 2.126 . S
O740 Co738 2.053 . S
O740 H739 0.760 . S
H741 Co737 2.388 . S
H741 O742 0.760 . S
H741 Co743 2.400 . S
O742 Co737 2.053 . S
O742 Co738 2.126 . S
O742 H741 0.760 . S
O742 Co743 2.009 . S
Co743 H741 2.400 . S
Co743 O742 2.009 . S
Co743 O744 2.053 . S
Co743 O746 2.094 . S
Co743 O750 2.122 . S
Co743 O764 2.115 . S
Co743 O765 2.315 . S
O744 Co743 2.053 . S
O744 C756 1.259 . S
O745 Co737 2.047 . S
O745 C756 1.257 . S
O746 Co743 2.094 . S
O746 C757 1.253 . S
O747 Co738 2.063 . S
O747 C757 1.268 . S
O748 Co736 2.115 . S
O748 C758 1.281 . S
O749 Co736 2.315 . S
O749 C758 1.252 . S
O750 Co743 2.122 . S
O750 C759 1.272 . S
O751 Co737 2.113 . S
O751 C759 1.245 . S
C752 O760 1.259 . S
C752 O761 1.257 . S
C753 O762 1.268 . S
C753 O763 1.253 . S
C754 O764 1.281 . S
C754 O765 1.252 . S
C755 O766 1.272 . S
C755 O767 1.245 . S
C756 O744 1.259 . S
C756 O745 1.257 . S
C757 O746 1.253 . S
C757 O747 1.268 . S
C758 O748 1.281 . S
C758 O749 1.252 . S
C759 O750 1.272 . S
C759 O751 1.245 . S
O760 Co736 2.053 . S
O760 C752 1.259 . S
O761 Co738 2.047 . S
O761 C752 1.257 . S
O762 Co737 2.063 . S
O762 C753 1.268 . S
O763 Co736 2.094 . S
O763 C753 1.253 . S
O764 Co743 2.115 . S
O764 C754 1.281 . S
O765 Co743 2.315 . S
O765 C754 1.252 . S
O766 Co736 2.122 . S
O766 C755 1.272 . S
O767 Co738 2.113 . S
O767 C755 1.245 . S
C598 C21 1.843 . S
C53 C630 1.843 . S
C534 C85 1.843 . S
C117 C566 1.843 . S
C726 C149 1.843 . S
C694 C181 1.843 . S
C758 C213 1.843 . S
C662 C245 1.843 . S
C277 C438 1.843 . S
C502 C309 1.843 . S
C341 C470 1.843 . S
C406 C373 1.843 . S
C210 C401 1.843 . S
C242 C433 1.843 . S
C146 C465 1.843 . S
C497 C178 1.843 . S
C338 C529 1.843 . S
C561 C306 1.843 . S
C370 C593 1.843 . S
C274 C625 1.843 . S
C657 C50 1.843 . S
C114 C689 1.843 . S
C721 C82 1.843 . S
C753 C18 1.843 . S
C278 C16 3.021 . S
C48 C374 3.021 . S
C80 C310 3.021 . S
C112 C342 3.021 . S
C144 C22 3.021 . S
C176 C54 3.021 . S
C86 C208 3.021 . S
C240 C118 3.021 . S
C150 C272 3.021 . S
C304 C214 3.021 . S
C246 C336 3.021 . S
C182 C368 3.021 . S
C658 C404 3.021 . S
C436 C754 3.021 . S
C690 C468 3.021 . S
C500 C722 3.021 . S
C402 C532 3.021 . S
C434 C564 3.021 . S
C596 C466 3.021 . S
C498 C628 3.021 . S
C530 C660 3.021 . S
C692 C594 3.021 . S
C724 C626 3.021 . S
C756 C562 3.021 . S
C23 C372 1.936 . S
C276 C55 1.936 . S
C87 C340 1.936 . S
C119 C308 1.936 . S
C84 C151 1.936 . S
C116 C183 1.936 . S
C20 C215 1.936 . S
C247 C52 1.936 . S
C244 C279 1.936 . S
C311 C180 1.936 . S
C148 C343 1.936 . S
C375 C212 1.936 . S
C752 C403 1.936 . S
C656 C435 1.936 . S
C720 C467 1.936 . S
C688 C499 1.936 . S
C531 C464 1.936 . S
C563 C496 1.936 . S
C595 C400 1.936 . S
C627 C432 1.936 . S
C624 C659 1.936 . S
C560 C691 1.936 . S
C528 C723 1.936 . S
C592 C755 1.936 . S
C727 C17 3.057 . S
C695 C49 3.057 . S
C81 C759 3.057 . S
C663 C113 3.057 . S
C145 C439 3.057 . S
C407 C177 3.057 . S
C209 C503 3.057 . S
C241 C471 3.057 . S
C599 C273 3.057 . S
C535 C305 3.057 . S
C337 C567 3.057 . S
C369 C631 3.057 . S
C405 C339 3.057 . S
C437 C307 3.057 . S
C371 C469 3.057 . S
C275 C501 3.057 . S
C533 C51 3.057 . S
C565 C19 3.057 . S
C597 C115 3.057 . S
C629 C83 3.057 . S
C661 C211 3.057 . S
C693 C147 3.057 . S
C725 C179 3.057 . S
C243 C757 3.057 . S
