# Generated by pormake.
# Topology ict, (4)-cn, num edge types: 1
# Building blocks:
#     Node 0, Type 0, BuildingBlock: CEKHIL_clean_sbu_0, # of connection points: 4
#     Node 1, Type 0, BuildingBlock: CEKHIL_clean_sbu_0, # of connection points: 4
#     Node 2, Type 0, BuildingBlock: CEKHIL_clean_sbu_0, # of connection points: 4
#     Node 3, Type 0, BuildingBlock: CEKHIL_clean_sbu_0, # of connection points: 4
#     Node 4, Type 0, BuildingBlock: CEKHIL_clean_sbu_0, # of connection points: 4
#     Node 5, Type 0, BuildingBlock: CEKHIL_clean_sbu_0, # of connection points: 4
#     Node 6, Type 0, BuildingBlock: CEKHIL_clean_sbu_0, # of connection points: 4
#     Node 7, Type 0, BuildingBlock: CEKHIL_clean_sbu_0, # of connection points: 4
#     Node 8, Type 0, BuildingBlock: CEKHIL_clean_sbu_0, # of connection points: 4
#     Node 9, Type 0, BuildingBlock: CEKHIL_clean_sbu_0, # of connection points: 4
#     Node 10, Type 0, BuildingBlock: CEKHIL_clean_sbu_0, # of connection points: 4
#     Node 11, Type 0, BuildingBlock: CEKHIL_clean_sbu_0, # of connection points: 4
#     Node 12, Type 0, BuildingBlock: CEKHIL_clean_sbu_0, # of connection points: 4
#     Node 13, Type 0, BuildingBlock: CEKHIL_clean_sbu_0, # of connection points: 4
#     Node 14, Type 0, BuildingBlock: CEKHIL_clean_sbu_0, # of connection points: 4
#     Node 15, Type 0, BuildingBlock: CEKHIL_clean_sbu_0, # of connection points: 4
#     Node 16, Type 0, BuildingBlock: CEKHIL_clean_sbu_0, # of connection points: 4
#     Node 17, Type 0, BuildingBlock: CEKHIL_clean_sbu_0, # of connection points: 4
#     Node 18, Type 0, BuildingBlock: CEKHIL_clean_sbu_0, # of connection points: 4
#     Node 19, Type 0, BuildingBlock: CEKHIL_clean_sbu_0, # of connection points: 4
#     Node 20, Type 0, BuildingBlock: CEKHIL_clean_sbu_0, # of connection points: 4
#     Node 21, Type 0, BuildingBlock: CEKHIL_clean_sbu_0, # of connection points: 4
#     Node 22, Type 0, BuildingBlock: CEKHIL_clean_sbu_0, # of connection points: 4
#     Node 23, Type 0, BuildingBlock: CEKHIL_clean_sbu_0, # of connection points: 4
#     Node 24, Type 0, BuildingBlock: CEKHIL_clean_sbu_0, # of connection points: 4
#     Node 25, Type 0, BuildingBlock: CEKHIL_clean_sbu_0, # of connection points: 4
#     Node 26, Type 0, BuildingBlock: CEKHIL_clean_sbu_0, # of connection points: 4
#     Node 27, Type 0, BuildingBlock: CEKHIL_clean_sbu_0, # of connection points: 4
#     Node 28, Type 0, BuildingBlock: CEKHIL_clean_sbu_0, # of connection points: 4
#     Node 29, Type 0, BuildingBlock: CEKHIL_clean_sbu_0, # of connection points: 4
#     Node 30, Type 0, BuildingBlock: CEKHIL_clean_sbu_0, # of connection points: 4
#     Node 31, Type 0, BuildingBlock: CEKHIL_clean_sbu_0, # of connection points: 4
#     Node 32, Type 0, BuildingBlock: CEKHIL_clean_sbu_0, # of connection points: 4
#     Node 33, Type 0, BuildingBlock: CEKHIL_clean_sbu_0, # of connection points: 4
#     Node 34, Type 0, BuildingBlock: CEKHIL_clean_sbu_0, # of connection points: 4
#     Node 35, Type 0, BuildingBlock: CEKHIL_clean_sbu_0, # of connection points: 4
#     Edge 36, Type (0, 0), BuildingBlock: EZIPEK_clean_linker_0, # of connection points: 2
#     Edge 37, Type (0, 0), BuildingBlock: EZIPEK_clean_linker_0, # of connection points: 2
#     Edge 38, Type (0, 0), BuildingBlock: EZIPEK_clean_linker_0, # of connection points: 2
#     Edge 39, Type (0, 0), BuildingBlock: EZIPEK_clean_linker_0, # of connection points: 2
#     Edge 40, Type (0, 0), BuildingBlock: EZIPEK_clean_linker_0, # of connection points: 2
#     Edge 41, Type (0, 0), BuildingBlock: EZIPEK_clean_linker_0, # of connection points: 2
#     Edge 42, Type (0, 0), BuildingBlock: EZIPEK_clean_linker_0, # of connection points: 2
#     Edge 43, Type (0, 0), BuildingBlock: EZIPEK_clean_linker_0, # of connection points: 2
#     Edge 44, Type (0, 0), BuildingBlock: EZIPEK_clean_linker_0, # of connection points: 2
#     Edge 45, Type (0, 0), BuildingBlock: EZIPEK_clean_linker_0, # of connection points: 2
#     Edge 46, Type (0, 0), BuildingBlock: EZIPEK_clean_linker_0, # of connection points: 2
#     Edge 47, Type (0, 0), BuildingBlock: EZIPEK_clean_linker_0, # of connection points: 2
#     Edge 48, Type (0, 0), BuildingBlock: EZIPEK_clean_linker_0, # of connection points: 2
#     Edge 49, Type (0, 0), BuildingBlock: EZIPEK_clean_linker_0, # of connection points: 2
#     Edge 50, Type (0, 0), BuildingBlock: EZIPEK_clean_linker_0, # of connection points: 2
#     Edge 51, Type (0, 0), BuildingBlock: EZIPEK_clean_linker_0, # of connection points: 2
#     Edge 52, Type (0, 0), BuildingBlock: EZIPEK_clean_linker_0, # of connection points: 2
#     Edge 53, Type (0, 0), BuildingBlock: EZIPEK_clean_linker_0, # of connection points: 2
#     Edge 54, Type (0, 0), BuildingBlock: EZIPEK_clean_linker_0, # of connection points: 2
#     Edge 55, Type (0, 0), BuildingBlock: EZIPEK_clean_linker_0, # of connection points: 2
#     Edge 56, Type (0, 0), BuildingBlock: EZIPEK_clean_linker_0, # of connection points: 2
#     Edge 57, Type (0, 0), BuildingBlock: EZIPEK_clean_linker_0, # of connection points: 2
#     Edge 58, Type (0, 0), BuildingBlock: EZIPEK_clean_linker_0, # of connection points: 2
#     Edge 59, Type (0, 0), BuildingBlock: EZIPEK_clean_linker_0, # of connection points: 2
#     Edge 60, Type (0, 0), BuildingBlock: EZIPEK_clean_linker_0, # of connection points: 2
#     Edge 61, Type (0, 0), BuildingBlock: EZIPEK_clean_linker_0, # of connection points: 2
#     Edge 62, Type (0, 0), BuildingBlock: EZIPEK_clean_linker_0, # of connection points: 2
#     Edge 63, Type (0, 0), BuildingBlock: EZIPEK_clean_linker_0, # of connection points: 2
#     Edge 64, Type (0, 0), BuildingBlock: EZIPEK_clean_linker_0, # of connection points: 2
#     Edge 65, Type (0, 0), BuildingBlock: EZIPEK_clean_linker_0, # of connection points: 2
#     Edge 66, Type (0, 0), BuildingBlock: EZIPEK_clean_linker_0, # of connection points: 2
#     Edge 67, Type (0, 0), BuildingBlock: EZIPEK_clean_linker_0, # of connection points: 2
#     Edge 68, Type (0, 0), BuildingBlock: EZIPEK_clean_linker_0, # of connection points: 2
#     Edge 69, Type (0, 0), BuildingBlock: EZIPEK_clean_linker_0, # of connection points: 2
#     Edge 70, Type (0, 0), BuildingBlock: EZIPEK_clean_linker_0, # of connection points: 2
#     Edge 71, Type (0, 0), BuildingBlock: EZIPEK_clean_linker_0, # of connection points: 2
#     Edge 72, Type (0, 0), BuildingBlock: EZIPEK_clean_linker_0, # of connection points: 2
#     Edge 73, Type (0, 0), BuildingBlock: EZIPEK_clean_linker_0, # of connection points: 2
#     Edge 74, Type (0, 0), BuildingBlock: EZIPEK_clean_linker_0, # of connection points: 2
#     Edge 75, Type (0, 0), BuildingBlock: EZIPEK_clean_linker_0, # of connection points: 2
#     Edge 76, Type (0, 0), BuildingBlock: EZIPEK_clean_linker_0, # of connection points: 2
#     Edge 77, Type (0, 0), BuildingBlock: EZIPEK_clean_linker_0, # of connection points: 2
#     Edge 78, Type (0, 0), BuildingBlock: EZIPEK_clean_linker_0, # of connection points: 2
#     Edge 79, Type (0, 0), BuildingBlock: EZIPEK_clean_linker_0, # of connection points: 2
#     Edge 80, Type (0, 0), BuildingBlock: EZIPEK_clean_linker_0, # of connection points: 2
#     Edge 81, Type (0, 0), BuildingBlock: EZIPEK_clean_linker_0, # of connection points: 2
#     Edge 82, Type (0, 0), BuildingBlock: EZIPEK_clean_linker_0, # of connection points: 2
#     Edge 83, Type (0, 0), BuildingBlock: EZIPEK_clean_linker_0, # of connection points: 2
#     Edge 84, Type (0, 0), BuildingBlock: EZIPEK_clean_linker_0, # of connection points: 2
#     Edge 85, Type (0, 0), BuildingBlock: EZIPEK_clean_linker_0, # of connection points: 2
#     Edge 86, Type (0, 0), BuildingBlock: EZIPEK_clean_linker_0, # of connection points: 2
#     Edge 87, Type (0, 0), BuildingBlock: EZIPEK_clean_linker_0, # of connection points: 2
#     Edge 88, Type (0, 0), BuildingBlock: EZIPEK_clean_linker_0, # of connection points: 2
#     Edge 89, Type (0, 0), BuildingBlock: EZIPEK_clean_linker_0, # of connection points: 2
#     Edge 90, Type (0, 0), BuildingBlock: EZIPEK_clean_linker_0, # of connection points: 2
#     Edge 91, Type (0, 0), BuildingBlock: EZIPEK_clean_linker_0, # of connection points: 2
#     Edge 92, Type (0, 0), BuildingBlock: EZIPEK_clean_linker_0, # of connection points: 2
#     Edge 93, Type (0, 0), BuildingBlock: EZIPEK_clean_linker_0, # of connection points: 2
#     Edge 94, Type (0, 0), BuildingBlock: EZIPEK_clean_linker_0, # of connection points: 2
#     Edge 95, Type (0, 0), BuildingBlock: EZIPEK_clean_linker_0, # of connection points: 2
#     Edge 96, Type (0, 0), BuildingBlock: EZIPEK_clean_linker_0, # of connection points: 2
#     Edge 97, Type (0, 0), BuildingBlock: EZIPEK_clean_linker_0, # of connection points: 2
#     Edge 98, Type (0, 0), BuildingBlock: EZIPEK_clean_linker_0, # of connection points: 2
#     Edge 99, Type (0, 0), BuildingBlock: EZIPEK_clean_linker_0, # of connection points: 2
#     Edge 100, Type (0, 0), BuildingBlock: EZIPEK_clean_linker_0, # of connection points: 2
#     Edge 101, Type (0, 0), BuildingBlock: EZIPEK_clean_linker_0, # of connection points: 2
#     Edge 102, Type (0, 0), BuildingBlock: EZIPEK_clean_linker_0, # of connection points: 2
#     Edge 103, Type (0, 0), BuildingBlock: EZIPEK_clean_linker_0, # of connection points: 2
#     Edge 104, Type (0, 0), BuildingBlock: EZIPEK_clean_linker_0, # of connection points: 2
#     Edge 105, Type (0, 0), BuildingBlock: EZIPEK_clean_linker_0, # of connection points: 2
#     Edge 106, Type (0, 0), BuildingBlock: EZIPEK_clean_linker_0, # of connection points: 2
#     Edge 107, Type (0, 0), BuildingBlock: EZIPEK_clean_linker_0, # of connection points: 2
# Relax obj value: 0.097
# Max RMSD: 0.122
# Mean RMSD: 0.122
data_MOF--net-ict--node1-CEKHIL_clean_sbu_0--edge1-EZIPEK_clean_linker_0
_symmetry_space_group_name_H-M    P1
_symmetry_Int_Tables_number       1
_symmetry_cell_setting            triclinic
loop_
_symmetry_equiv_pos_as_xyz
'x, y, z'
_cell_length_a     47.00985
_cell_length_b     47.06222
_cell_length_c     27.099151
_cell_angle_alpha  89.990385
_cell_angle_beta   89.991397
_cell_angle_gamma 120.08204
loop_
_atom_site_label
_atom_site_type_symbol
_atom_site_fract_x
_atom_site_fract_y
_atom_site_fract_z
_atom_type_partial_charge
Co0 Co 0.2389 0.22086 0.04445 0.0
O1 O 0.25298 0.22538 0.97655 0.0
O2 O 0.28636 0.24846 0.04012 0.0
C3 C 0.19666 0.22978 0.02839 0.0
O4 O 0.23368 0.22293 0.11975 0.0
Co5 Co 0.17043 0.16579 0.07721 0.0
O6 O 0.18189 0.18684 0.14303 0.0
C7 C 0.2204 0.14976 0.04478 0.0
C8 C 0.28267 0.24367 0.99271 0.0
C9 C 0.21097 0.2096 0.15296 0.0
O10 O 0.24275 0.18007 0.0498 0.0
O11 O 0.18967 0.13951 0.04925 0.0
O12 O 0.22631 0.25434 0.03436 0.0
O13 O 0.19383 0.20105 0.02997 0.0
Co14 Co 0.78318 0.02045 0.04157 0.0
O15 O 0.77708 0.02705 0.9728 0.0
O16 O 0.75784 0.04254 0.03554 0.0
C17 C 0.77088 0.96769 0.03199 0.0
O18 O 0.78309 0.01704 0.11747 0.0
Co19 Co 0.83653 0.00469 0.07511 0.0
O20 O 0.81705 0.99896 0.14176 0.0
C21 C 0.85576 0.07088 0.03877 0.0
C22 C 0.76088 0.04097 0.98806 0.0
C23 C 0.79575 0.00737 0.15118 0.0
O24 O 0.82566 0.0641 0.04192 0.0
O25 O 0.8648 0.04974 0.0465 0.0
O26 O 0.7475 0.97459 0.03728 0.0
O27 O 0.80029 0.99255 0.02985 0.0
Co28 Co 0.98612 0.77301 0.03727 0.0
O29 O 0.97997 0.75735 0.97015 0.0
O30 O 0.96416 0.72523 0.03602 0.0
C31 C 0.03897 0.81299 0.02523 0.0
O32 O 0.98876 0.78067 0.11285 0.0
Co33 Co 1.00256 0.84375 0.06049 0.0
O34 O 0.01732 0.83505 0.12454 0.0
C35 C 0.9353 0.79439 0.0296 0.0
C36 C 0.96605 0.72795 0.98813 0.0
C37 C 0.00381 0.80591 0.14156 0.0
O38 O 0.94251 0.77151 0.03381 0.0
O39 O 0.95614 0.82492 0.03567 0.0
O40 O 0.0321 0.78322 0.0355 0.0
O41 O 0.01404 0.81715 0.02028 0.0
Co42 Co 0.2232 0.23986 0.47328 0.0
O43 O 0.22871 0.25165 0.5424 0.0
O44 O 0.2491 0.28722 0.48075 0.0
C45 C 0.23474 0.19876 0.48211 0.0
O46 O 0.224 0.2375 0.3973 0.0
Co47 Co 0.16957 0.17143 0.4377 0.0
O48 O 0.18972 0.18585 0.37153 0.0
C49 C 0.15075 0.21877 0.47365 0.0
C50 C 0.24553 0.28195 0.52806 0.0
C51 C 0.21134 0.2156 0.36294 0.0
O52 O 0.1811 0.24173 0.47224 0.0
O53 O 0.14134 0.18857 0.46518 0.0
O54 O 0.25839 0.22902 0.47774 0.0
O55 O 0.20546 0.19454 0.48388 0.0
Co56 Co 0.76501 0.983 0.46905 0.0
O57 O 0.75056 0.97435 0.53679 0.0
O58 O 0.71745 0.96289 0.47303 0.0
C59 C 0.80745 0.03423 0.48476 0.0
O60 O 0.77105 0.99024 0.39388 0.0
Co61 Co 0.83362 0.99546 0.43939 0.0
O62 O 0.82311 0.00538 0.37296 0.0
C63 C 0.78195 0.92856 0.46594 0.0
C64 C 0.72079 0.96237 0.52069 0.0
C65 C 0.79435 0.99951 0.36168 0.0
O66 O 0.76054 0.93792 0.46308 0.0
O67 O 0.8129 0.94885 0.46343 0.0
O68 O 0.77789 0.0293 0.47849 0.0
O69 O 0.80989 0.00812 0.48431 0.0
Co70 Co 0.01998 0.78696 0.4624 0.0
O71 O 0.02585 0.77658 0.52919 0.0
O72 O 0.04161 0.76077 0.46286 0.0
C73 C 0.96724 0.77431 0.47477 0.0
O74 O 0.0176 0.79297 0.38696 0.0
Co75 Co 0.00371 0.8418 0.4413 0.0
O76 O 0.99018 0.82003 0.37596 0.0
C77 C 0.07078 0.859 0.4722 0.0
C78 C 0.03949 0.76096 0.51078 0.0
C79 C 0.00334 0.80419 0.35854 0.0
O80 O 0.06371 0.82901 0.46656 0.0
O81 O 0.04982 0.86863 0.46745 0.0
O82 O 0.97382 0.75133 0.46368 0.0
O83 O 0.9923 0.80325 0.48022 0.0
Co84 Co 0.76664 0.78763 0.96621 0.0
O85 O 0.75394 0.78084 0.03496 0.0
O86 O 0.71943 0.75838 0.97259 0.0
C87 C 0.81077 0.7809 0.9762 0.0
O88 O 0.77047 0.78803 0.89016 0.0
Co89 Co 0.83355 0.84566 0.93311 0.0
O90 O 0.82197 0.82516 0.86687 0.0
C91 C 0.78182 0.85783 0.97052 0.0
C92 C 0.72398 0.76226 0.02005 0.0
C93 C 0.79303 0.80214 0.85686 0.0
O94 O 0.76052 0.82715 0.96584 0.0
O95 O 0.81267 0.86969 0.96376 0.0
O96 O 0.78154 0.75549 0.97084 0.0
O97 O 0.81212 0.80891 0.97828 0.0
Co98 Co 0.22385 0.98807 0.96966 0.0
O99 O 0.23043 0.98059 0.0378 0.0
O100 O 0.252 0.96916 0.97337 0.0
C101 C 0.23187 0.0393 0.98202 0.0
O102 O 0.22462 0.99304 0.89417 0.0
Co103 Co 0.16734 0.99843 0.93603 0.0
O104 O 0.18603 0.00458 0.86869 0.0
C105 C 0.15284 0.93358 0.97145 0.0
C106 C 0.2483 0.96885 0.02091 0.0
C107 C 0.21003 1.0 0.85998 0.0
O108 O 0.18352 0.94265 0.96762 0.0
O109 O 0.1416 0.95299 0.96439 0.0
O110 O 0.25679 0.0348 0.97606 0.0
O111 O 0.20335 0.01299 0.98296 0.0
Co112 Co 0.0206 0.23537 0.96591 0.0
O113 O 0.02938 0.24993 0.03354 0.0
O114 O 0.03863 0.28245 0.97018 0.0
C115 C 0.96953 0.19248 0.9808 0.0
O116 O 0.01478 0.23008 0.89045 0.0
Co117 Co 0.00848 0.16726 0.93441 0.0
O118 O 0.99882 0.17816 0.86814 0.0
C119 C 0.07443 0.21835 0.96737 0.0
C120 C 0.03981 0.27954 0.01773 0.0
C121 C 0.0053 0.20716 0.85769 0.0
O122 O 0.06591 0.24032 0.96256 0.0
O123 O 0.05436 0.18759 0.96179 0.0
O124 O 0.97408 0.22181 0.97411 0.0
O125 O 0.99582 0.19029 0.98073 0.0
Co126 Co 0.78593 0.76719 0.53927 0.0
O127 O 0.77973 0.75114 0.47236 0.0
O128 O 0.75858 0.71968 0.53841 0.0
C129 C 0.77636 0.80876 0.52168 0.0
O130 O 0.78567 0.77477 0.61428 0.0
Co131 Co 0.84218 0.83623 0.56598 0.0
O132 O 0.82314 0.82693 0.63332 0.0
C133 C 0.85697 0.78541 0.53468 0.0
C134 C 0.76223 0.72195 0.49071 0.0
C135 C 0.80017 0.79847 0.64571 0.0
O136 O 0.8269 0.76354 0.54331 0.0
O137 O 0.86754 0.81625 0.53693 0.0
O138 O 0.75205 0.77926 0.52987 0.0
O139 O 0.80521 0.81171 0.52178 0.0
Co140 Co 0.23821 0.02137 0.54118 0.0
O141 O 0.25053 0.02776 0.47221 0.0
O142 O 0.28514 0.0391 0.53441 0.0
C143 C 0.19374 0.9705 0.53138 0.0
O144 O 0.2356 0.01722 0.61691 0.0
Co145 Co 0.17275 0.01331 0.57797 0.0
O146 O 0.18617 0.00689 0.64442 0.0
C147 C 0.22373 0.07705 0.53991 0.0
C148 C 0.28051 0.03888 0.48709 0.0
C149 C 0.21464 0.01084 0.65193 0.0
O150 O 0.24479 0.06729 0.54294 0.0
O151 O 0.19299 0.05826 0.54777 0.0
O152 O 0.22303 0.97435 0.5356 0.0
O153 O 0.19236 0.99722 0.53035 0.0
Co154 Co 0.98484 0.21698 0.5395 0.0
O155 O 0.97648 0.22421 0.47225 0.0
O156 O 0.96424 0.24384 0.53819 0.0
C157 C 0.03663 0.22724 0.52474 0.0
O158 O 0.99088 0.21611 0.61466 0.0
Co159 Co 0.99835 0.16112 0.56666 0.0
O160 O 0.00709 0.17989 0.6341 0.0
C161 C 0.93179 0.14528 0.53701 0.0
C162 C 0.96407 0.24109 0.49041 0.0
C163 C 1.00021 0.20189 0.6463 0.0
O164 O 0.94021 0.17571 0.54177 0.0
O165 O 0.95202 0.13475 0.54151 0.0
O166 O 0.03107 0.25131 0.53245 0.0
O167 O 0.01082 0.19837 0.52331 0.0
Co168 Co 0.90873 0.54866 0.38094 0.0
O169 O 0.92587 0.55892 0.31459 0.0
O170 O 0.95662 0.57271 0.38182 0.0
C171 C 0.87044 0.56368 0.36837 0.0
O172 O 0.89975 0.54296 0.45608 0.0
Co173 Co 0.8365 0.49592 0.40108 0.0
O174 O 0.84519 0.51781 0.46648 0.0
C175 C 0.88403 0.47605 0.36898 0.0
C176 C 0.95497 0.57302 0.33387 0.0
C177 C 0.87423 0.53307 0.4841 0.0
O178 O 0.90795 0.50541 0.37646 0.0
O179 O 0.85371 0.46778 0.37315 0.0
O180 O 0.90044 0.58573 0.37965 0.0
O181 O 0.86518 0.53429 0.36261 0.0
Co182 Co 0.4571 0.35283 0.37359 0.0
O183 O 0.45163 0.35877 0.30425 0.0
O184 O 0.43164 0.37466 0.36547 0.0
C185 C 0.44479 0.29989 0.36545 0.0
O186 O 0.4561 0.35014 0.44977 0.0
Co187 Co 0.50984 0.33761 0.41087 0.0
O188 O 0.48975 0.33245 0.47694 0.0
C189 C 0.52972 0.40316 0.37134 0.0
C190 C 0.43504 0.37256 0.31822 0.0
C191 C 0.4683 0.34086 0.48476 0.0
O192 O 0.49963 0.39651 0.3734 0.0
O193 O 0.53865 0.38217 0.38095 0.0
O194 O 0.4215 0.30698 0.36982 0.0
O195 O 0.4743 0.32468 0.36374 0.0
Co196 Co 0.64694 0.09687 0.38137 0.0
O197 O 0.64163 0.07957 0.31542 0.0
O198 O 0.62514 0.04919 0.38311 0.0
C199 C 0.69985 0.13683 0.36997 0.0
O200 O 0.64884 0.10614 0.45626 0.0
Co201 Co 0.66246 0.16794 0.3993 0.0
O202 O 0.67486 0.16074 0.46621 0.0
C203 C 0.59608 0.11766 0.36679 0.0
C204 C 0.62743 0.05063 0.33518 0.0
C205 C 0.66257 0.1319 0.48411 0.0
O206 O 0.6032 0.09499 0.37481 0.0
O207 O 0.61691 0.14836 0.37076 0.0
O208 O 0.69303 0.10733 0.38202 0.0
O209 O 0.67491 0.14067 0.36265 0.0
Co210 Co 0.89186 0.57307 0.80321 0.0
O211 O 0.90166 0.59 0.86952 0.0
O212 O 0.91547 0.6209 0.80241 0.0
C213 C 0.90778 0.53565 0.81615 0.0
O214 O 0.88594 0.56351 0.72813 0.0
Co215 Co 0.83934 0.50046 0.78527 0.0
O216 O 0.86018 0.50879 0.71916 0.0
C217 C 0.81875 0.54829 0.81239 0.0
C218 C 0.91545 0.61908 0.85042 0.0
C219 C 0.87525 0.53759 0.70076 0.0
O220 O 0.84845 0.57201 0.80686 0.0
O221 O 0.81036 0.51795 0.80845 0.0
O222 O 0.92947 0.56566 0.80463 0.0
O223 O 0.87817 0.52988 0.82216 0.0
Co224 Co 0.43485 0.31807 0.80274 0.0
O225 O 0.4197 0.30882 0.87013 0.0
O226 O 0.38734 0.29832 0.80516 0.0
C227 C 0.47691 0.36909 0.82021 0.0
O228 O 0.4414 0.32528 0.72746 0.0
Co229 Co 0.50375 0.3315 0.77313 0.0
O230 O 0.49377 0.34178 0.70671 0.0
C231 C 0.45273 0.26485 0.80244 0.0
C232 C 0.3903 0.29743 0.85279 0.0
C233 C 0.4648 0.33508 0.6953 0.0
O234 O 0.43072 0.27331 0.79821 0.0
O235 O 0.48355 0.28506 0.79778 0.0
O236 O 0.4475 0.36418 0.81226 0.0
O237 O 0.47963 0.34313 0.81916 0.0
Co238 Co 0.68383 0.1198 0.80482 0.0
O239 O 0.69044 0.10934 0.87124 0.0
O240 O 0.70904 0.09732 0.804 0.0
C241 C 0.63007 0.1027 0.81672 0.0
O242 O 0.6814 0.12583 0.72923 0.0
Co243 Co 0.66133 0.16907 0.78048 0.0
O244 O 0.64663 0.14455 0.71775 0.0
C245 C 0.73078 0.1936 0.80959 0.0
C246 C 0.70654 0.09645 0.85186 0.0
C247 C 0.66342 0.13243 0.70061 0.0
O248 O 0.72522 0.16392 0.81166 0.0
O249 O 0.7086 0.20041 0.79704 0.0
O250 O 0.6391 0.08162 0.80474 0.0
O251 O 0.65333 0.13261 0.82244 0.0
Co252 Co 0.43203 0.11618 0.29475 0.0
O253 O 0.41863 0.10931 0.36316 0.0
O254 O 0.38461 0.089 0.29964 0.0
C255 C 0.47422 0.10642 0.30506 0.0
O256 O 0.43615 0.11673 0.21896 0.0
Co257 Co 0.50032 0.17196 0.26249 0.0
O258 O 0.488 0.15255 0.1956 0.0
C259 C 0.4511 0.1875 0.30066 0.0
C260 C 0.38868 0.09216 0.3472 0.0
C261 C 0.45871 0.13028 0.18566 0.0
O262 O 0.42858 0.15731 0.29493 0.0
O263 O 0.48171 0.19776 0.29425 0.0
O264 O 0.4444 0.08212 0.29914 0.0
O265 O 0.4773 0.1352 0.30741 0.0
Co266 Co 0.88184 0.31068 0.2999 0.0
O267 O 0.8894 0.30534 0.36847 0.0
O268 O 0.90968 0.29132 0.30533 0.0
C269 C 0.89084 0.36247 0.30859 0.0
O270 O 0.88111 0.31355 0.22402 0.0
Co271 Co 0.82484 0.32062 0.26741 0.0
O272 O 0.84346 0.32685 0.2 0.0
C273 C 0.81079 0.25694 0.30727 0.0
C274 C 0.90686 0.29284 0.35287 0.0
C275 C 0.86666 0.32119 0.19037 0.0
O276 O 0.84121 0.26551 0.30135 0.0
O277 O 0.79966 0.27644 0.30014 0.0
O278 O 0.91536 0.35734 0.30276 0.0
O279 O 0.8622 0.33646 0.31194 0.0
Co280 Co 0.69461 0.56893 0.30327 0.0
O281 O 0.70024 0.58266 0.37145 0.0
O282 O 0.71262 0.61604 0.30734 0.0
C283 C 0.64356 0.52503 0.3136 0.0
O284 O 0.6913 0.56423 0.22754 0.0
Co285 Co 0.68617 0.5022 0.27256 0.0
O286 O 0.67627 0.51244 0.20592 0.0
C287 C 0.75026 0.55429 0.30891 0.0
C288 C 0.71162 0.61225 0.35496 0.0
C289 C 0.68231 0.54126 0.195 0.0
O290 O 0.74045 0.5752 0.30395 0.0
O291 O 0.73156 0.52344 0.30203 0.0
O292 O 0.64755 0.55418 0.30702 0.0
O293 O 0.67021 0.5236 0.31674 0.0
Co294 Co 0.44727 0.09733 0.86689 0.0
O295 O 0.43952 0.08371 0.79897 0.0
O296 O 0.41847 0.04995 0.8617 0.0
C297 C 0.43966 0.14073 0.85442 0.0
O298 O 0.44803 0.1028 0.94261 0.0
Co299 Co 0.50569 0.16476 0.89604 0.0
O300 O 0.48596 0.15466 0.96279 0.0
C301 C 0.51807 0.11214 0.86481 0.0
C302 C 0.42129 0.05385 0.81397 0.0
C303 C 0.46291 0.12611 0.9746 0.0
O304 O 0.48708 0.09135 0.86806 0.0
O305 O 0.5303 0.14307 0.87076 0.0
O306 O 0.41465 0.11147 0.86127 0.0
O307 O 0.46792 0.14241 0.85275 0.0
Co308 Co 0.90521 0.35723 0.87436 0.0
O309 O 0.91865 0.36661 0.80616 0.0
O310 O 0.95161 0.37158 0.86802 0.0
C311 C 0.85787 0.30899 0.85848 0.0
O312 O 0.89971 0.34855 0.94938 0.0
Co313 Co 0.83967 0.35259 0.90942 0.0
O314 O 0.8491 0.33773 0.97257 0.0
C315 C 0.89559 0.41549 0.87626 0.0
C316 C 0.94785 0.37426 0.82102 0.0
C317 C 0.87678 0.34014 0.98209 0.0
O318 O 0.91516 0.40405 0.88218 0.0
O319 O 0.86434 0.39802 0.8806 0.0
O320 O 0.88598 0.30999 0.8611 0.0
O321 O 0.86036 0.33733 0.86301 0.0
Co322 Co 0.65418 0.55061 0.87748 0.0
O323 O 0.6457 0.55664 0.80985 0.0
O324 O 0.63516 0.57901 0.87359 0.0
C325 C 0.70492 0.5582 0.86191 0.0
O326 O 0.66167 0.55121 0.95262 0.0
Co327 Co 0.66398 0.49232 0.90457 0.0
O328 O 0.67416 0.51206 0.9714 0.0
C329 C 0.59793 0.4799 0.87933 0.0
C330 C 0.63418 0.57475 0.82594 0.0
C331 C 0.66993 0.5358 0.98387 0.0
O332 O 0.60847 0.51083 0.88351 0.0
O333 O 0.61728 0.46813 0.8805 0.0
O334 O 0.70077 0.58328 0.86802 0.0
O335 O 0.67827 0.52999 0.86184 0.0
Co336 Co 0.5665 0.8855 0.7088 0.0
O337 O 0.57869 0.89098 0.63966 0.0
O338 O 0.61351 0.9134 0.70191 0.0
C339 C 0.52291 0.89328 0.69894 0.0
O340 O 0.56453 0.88766 0.78446 0.0
Co341 Co 0.50045 0.82977 0.74729 0.0
O342 O 0.51473 0.85035 0.81324 0.0
C343 C 0.54996 0.81443 0.71023 0.0
C344 C 0.60881 0.90912 0.65462 0.0
C345 C 0.54377 0.87414 0.82 0.0
O346 O 0.57156 0.84523 0.71134 0.0
O347 O 0.5195 0.8033 0.71951 0.0
O348 O 0.55255 0.91829 0.70268 0.0
O349 O 0.52067 0.8648 0.69864 0.0
Co350 Co 0.10855 0.67919 0.70406 0.0
O351 O 0.10369 0.68819 0.63595 0.0
O352 O 0.08174 0.69995 0.69925 0.0
C353 C 0.09865 0.62765 0.68889 0.0
O354 O 0.10743 0.67255 0.77975 0.0
Co355 Co 0.16349 0.66484 0.73506 0.0
O356 O 0.14314 0.656 0.80132 0.0
C357 C 0.18012 0.73121 0.70361 0.0
C358 C 0.08625 0.70057 0.65175 0.0
C359 C 0.12105 0.66302 0.81234 0.0
O360 O 0.14986 0.72353 0.70832 0.0
O361 O 0.19007 0.71054 0.70792 0.0
O362 O 0.07434 0.63307 0.69509 0.0
O363 O 0.12753 0.65339 0.68955 0.0
Co364 Co 0.32009 0.4359 0.71392 0.0
O365 O 0.31303 0.41828 0.64789 0.0
O366 O 0.29801 0.38816 0.7159 0.0
C367 C 0.37273 0.47576 0.69981 0.0
O368 O 0.32364 0.44535 0.78881 0.0
Co369 Co 0.33694 0.50729 0.73356 0.0
O370 O 0.35155 0.49991 0.7987 0.0
C371 C 0.26922 0.45723 0.70555 0.0
C372 C 0.29917 0.38943 0.66791 0.0
C373 C 0.33858 0.47103 0.81659 0.0
O374 O 0.27646 0.4344 0.71069 0.0
O375 O 0.29019 0.48786 0.71019 0.0
O376 O 0.3662 0.4463 0.71162 0.0
O377 O 0.34764 0.4796 0.69458 0.0
Co378 Co 0.55365 0.90168 0.13911 0.0
O379 O 0.55768 0.91244 0.20855 0.0
O380 O 0.58039 0.9488 0.14828 0.0
C381 C 0.56379 0.85968 0.14837 0.0
O382 O 0.55622 0.90035 0.0632 0.0
Co383 Co 0.49954 0.83477 0.10046 0.0
O384 O 0.51999 0.84998 0.03478 0.0
C385 C 0.48193 0.88234 0.13836 0.0
C386 C 0.57543 0.9429 0.19534 0.0
C387 C 0.54305 0.87933 0.02779 0.0
O388 O 0.51237 0.90493 0.13667 0.0
O389 O 0.472 0.85206 0.12994 0.0
O390 O 0.5879 0.88977 0.14488 0.0
O391 O 0.53467 0.85603 0.14869 0.0
Co392 Co 0.10252 0.64925 0.13467 0.0
O393 O 0.09229 0.64386 0.20446 0.0
O394 O 0.05526 0.62611 0.14467 0.0
C395 C 0.14255 0.70266 0.14103 0.0
O396 O 0.10287 0.65116 0.05854 0.0
Co397 Co 0.17055 0.6659 0.09501 0.0
O398 O 0.15403 0.66977 0.02946 0.0
C399 C 0.12662 0.60051 0.13689 0.0
C400 C 0.06159 0.62886 0.1917 0.0
C401 C 0.12383 0.66056 0.02277 0.0
O402 O 0.10256 0.60622 0.13467 0.0
O403 O 0.15634 0.62217 0.12683 0.0
O404 O 0.11185 0.69482 0.138 0.0
O405 O 0.14788 0.67833 0.14262 0.0
Co406 Co 0.35758 0.45026 0.13476 0.0
O407 O 0.36405 0.4384 0.2002 0.0
O408 O 0.38115 0.4261 0.13162 0.0
C409 C 0.30431 0.43538 0.14756 0.0
O410 O 0.35475 0.45793 0.06025 0.0
Co411 Co 0.33906 0.50399 0.11889 0.0
O412 O 0.32609 0.48397 0.05226 0.0
C413 C 0.40708 0.52279 0.1466 0.0
C414 C 0.37915 0.42488 0.17958 0.0
C415 C 0.33977 0.46904 0.03329 0.0
O416 O 0.40048 0.49301 0.14028 0.0
O417 O 0.38565 0.53187 0.14267 0.0
O418 O 0.31199 0.41344 0.13476 0.0
O419 O 0.32867 0.46454 0.1548 0.0
Co420 Co 0.1012 0.44973 0.63365 0.0
O421 O 0.08502 0.4424 0.70051 0.0
O422 O 0.05388 0.42052 0.63435 0.0
C423 C 0.14457 0.44287 0.65061 0.0
O424 O 0.10936 0.45067 0.55866 0.0
Co425 Co 0.16954 0.50867 0.60842 0.0
O426 O 0.16122 0.48999 0.541 0.0
C427 C 0.11548 0.51989 0.63589 0.0
C428 C 0.05599 0.42402 0.68208 0.0
C429 C 0.13326 0.46645 0.52785 0.0
O430 O 0.09492 0.48914 0.62974 0.0
O431 O 0.14665 0.53227 0.63306 0.0
O432 O 0.11566 0.41756 0.6426 0.0
O433 O 0.14577 0.47088 0.65115 0.0
Co434 Co 0.55567 0.65271 0.64224 0.0
O435 O 0.56289 0.64554 0.71029 0.0
O436 O 0.58409 0.63399 0.64563 0.0
C437 C 0.5635 0.70384 0.65518 0.0
O438 O 0.55544 0.65727 0.56657 0.0
Co439 Co 0.49892 0.66326 0.6103 0.0
O440 O 0.5189 0.6722 0.54346 0.0
C441 C 0.48473 0.59821 0.64555 0.0
C442 C 0.58093 0.63405 0.69329 0.0
C443 C 0.54173 0.66607 0.53333 0.0
O444 O 0.51536 0.60722 0.64061 0.0
O445 O 0.47358 0.61782 0.63937 0.0
O446 O 0.5885 0.69955 0.64843 0.0
O447 O 0.53515 0.67737 0.65634 0.0
Co448 Co 0.34487 0.89544 0.635 0.0
O449 O 0.35102 0.90885 0.70362 0.0
O450 O 0.36368 0.94233 0.63952 0.0
C451 C 0.29339 0.85217 0.64496 0.0
O452 O 0.34131 0.89219 0.55942 0.0
Co453 Co 0.33513 0.82918 0.60017 0.0
O454 O 0.32991 0.84236 0.53284 0.0
C455 C 0.39945 0.87917 0.63802 0.0
C456 C 0.36286 0.93858 0.68709 0.0
C457 C 0.33478 0.87108 0.52473 0.0
O458 O 0.39034 0.90072 0.63472 0.0
O459 O 0.38004 0.84854 0.63041 0.0
O460 O 0.29814 0.88168 0.63934 0.0
O461 O 0.3196 0.84982 0.64704 0.0
Co462 Co 0.12473 0.43405 0.20816 0.0
O463 O 0.11738 0.41955 0.14042 0.0
O464 O 0.0931 0.3875 0.20393 0.0
C465 C 0.12013 0.47921 0.19535 0.0
O466 O 0.12539 0.43937 0.28375 0.0
Co467 Co 0.1845 0.49969 0.23886 0.0
O468 O 0.16462 0.49022 0.30564 0.0
C469 C 0.19385 0.44554 0.20457 0.0
C470 C 0.09702 0.39025 0.15633 0.0
C471 C 0.14051 0.46205 0.3164 0.0
O472 O 0.16283 0.42545 0.20961 0.0
O473 O 0.20702 0.47659 0.21043 0.0
O474 O 0.09414 0.45066 0.20215 0.0
O475 O 0.14769 0.47941 0.19344 0.0
Co476 Co 0.57311 0.68638 0.21401 0.0
O477 O 0.58757 0.69444 0.1461 0.0
O478 O 0.62063 0.70605 0.21031 0.0
C479 C 0.53059 0.63508 0.19971 0.0
O480 O 0.56709 0.68047 0.2896 0.0
Co481 Co 0.50424 0.67407 0.24357 0.0
O482 O 0.51501 0.66544 0.31047 0.0
C483 C 0.55533 0.73949 0.21042 0.0
C484 C 0.61722 0.70629 0.16266 0.0
C485 C 0.54386 0.6717 0.32189 0.0
O486 O 0.57738 0.73126 0.21656 0.0
O487 O 0.52449 0.71937 0.21461 0.0
O488 O 0.56009 0.63995 0.20647 0.0
O489 O 0.5282 0.66122 0.19924 0.0
Co490 Co 0.3182 0.88456 0.20654 0.0
O491 O 0.3124 0.89195 0.13803 0.0
O492 O 0.30011 0.9134 0.20168 0.0
C493 C 0.36946 0.89195 0.1971 0.0
O494 O 0.32147 0.88435 0.28214 0.0
Co495 Co 0.32673 0.82685 0.2402 0.0
O496 O 0.33257 0.84543 0.30752 0.0
C497 C 0.26312 0.8141 0.20128 0.0
C498 C 0.30089 0.91018 0.15416 0.0
C499 C 0.32795 0.86938 0.3163 0.0
O500 O 0.27243 0.84473 0.20634 0.0
O501 O 0.28222 0.80245 0.20826 0.0
O502 O 0.36522 0.91705 0.20249 0.0
O503 O 0.34292 0.86368 0.19462 0.0
C504 C 0.34304 0.24929 0.89418 0.0
C505 C 0.36165 0.28373 0.8866 0.0
C506 C 0.32792 0.29202 0.94786 0.0
C507 C 0.31092 0.25783 0.95801 0.0
N508 N 0.30543 0.20449 0.94714 0.0
N509 N 0.37478 0.33851 0.9093 0.0
C510 C 0.31925 0.23657 0.93272 0.0
C511 C 0.35497 0.30529 0.91443 0.0
N512 N 0.34802 0.22875 0.86431 0.0
N513 N 0.31737 0.31159 0.9687 0.0
H514 H 0.39374 0.3491 0.88343 0.0
H515 H 0.37376 0.35562 0.93246 0.0
H516 H 0.29795 0.30283 0.99379 0.0
H517 H 0.32619 0.33593 0.95862 0.0
H518 H 0.33304 0.20333 0.86439 0.0
H519 H 0.36581 0.23724 0.8366 0.0
H520 H 0.31272 0.18838 0.93381 0.0
H521 H 0.28851 0.19458 0.97594 0.0
C522 C 0.7061 0.04744 0.88971 0.0
C523 C 0.72176 0.08201 0.88375 0.0
C524 C 0.76217 0.08972 0.94768 0.0
C525 C 0.7472 0.05508 0.95248 0.0
N526 N 0.70763 1.00066 0.9246 0.0
N527 N 0.76725 0.13603 0.90061 0.0
C528 C 0.72005 0.03385 0.92223 0.0
C529 C 0.75051 0.10315 0.91103 0.0
N530 N 0.67709 0.0277 0.86584 0.0
N531 N 0.78746 0.10976 0.97839 0.0
H532 H 0.75934 0.14662 0.87414 0.0
H533 H 0.79021 0.15255 0.9151 0.0
H534 H 0.79791 0.10097 1.00371 0.0
H535 H 0.79706 0.135 0.98093 0.0
H536 H 0.66225 0.00271 0.87278 0.0
H537 H 0.66662 0.03671 0.8409 0.0
H538 H 0.69062 0.98404 0.89962 0.0
H539 H 0.71564 0.98964 0.95017 0.0
C540 C 0.96987 0.68208 0.94703 0.0
C541 C 0.95247 0.69913 0.95452 0.0
C542 C 0.91362 0.66685 0.88853 0.0
C543 C 0.92982 0.6484 0.88312 0.0
N544 N 0.97139 0.63598 0.9096 0.0
N545 N 0.9057 0.70555 0.93773 0.0
C546 C 0.95735 0.65529 0.91319 0.0
C547 C 0.92384 0.69101 0.92651 0.0
N548 N 0.99911 0.6924 0.97082 0.0
N549 N 0.88834 0.66113 0.85749 0.0
H550 H 0.91226 0.72297 0.96566 0.0
H551 H 0.88287 0.6987 0.92241 0.0
H552 H 0.87906 0.64259 0.83099 0.0
H553 H 0.87776 0.67593 0.85565 0.0
H554 H 0.01508 0.68374 0.96286 0.0
H555 H 0.00862 0.71139 0.99666 0.0
H556 H 0.98862 0.6368 0.93453 0.0
H557 H 0.96467 0.61782 0.88278 0.0
C558 C 0.25254 0.34818 0.61631 0.0
C559 C 0.2843 0.35957 0.63644 0.0
C560 C 0.28954 0.31811 0.58848 0.0
C561 C 0.25933 0.30919 0.5645 0.0
N562 N 0.21373 0.31811 0.55089 0.0
N563 N 0.33458 0.35782 0.63934 0.0
C564 C 0.24127 0.32491 0.57711 0.0
C565 C 0.3032 0.34509 0.62204 0.0
N566 N 0.23282 0.359 0.63569 0.0
N567 N 0.30496 0.30052 0.57953 0.0
H568 H 0.34484 0.37671 0.66531 0.0
H569 H 0.35112 0.35106 0.62601 0.0
H570 H 0.29632 0.28145 0.55387 0.0
H571 H 0.32508 0.30334 0.59964 0.0
H572 H 0.20826 0.34945 0.62603 0.0
H573 H 0.24016 0.37554 0.66502 0.0
H574 H 0.20135 0.33115 0.55476 0.0
H575 H 0.20459 0.30102 0.52226 0.0
C576 C 0.64224 0.9481 0.58651 0.0
C577 C 0.63689 0.92254 0.6196 0.0
C578 C 0.68806 0.92557 0.59212 0.0
C579 C 0.69215 0.94911 0.55543 0.0
N580 N 0.67287 0.98293 0.51751 0.0
N581 N 0.65078 0.88236 0.64719 0.0
C582 C 0.66895 0.96018 0.5523 0.0
C583 C 0.65875 0.91011 0.62062 0.0
N584 N 0.62272 0.96195 0.58955 0.0
N585 N 0.71223 0.91813 0.60092 0.0
H586 H 0.62963 0.87024 0.66872 0.0
H587 H 0.6634 0.86949 0.64418 0.0
H588 H 0.73351 0.9268 0.58008 0.0
H589 H 0.7123 0.90487 0.63166 0.0
H590 H 0.62731 0.98311 0.57073 0.0
H591 H 0.60293 0.9536 0.61389 0.0
H592 H 0.6547 0.9885 0.50847 0.0
H593 H 0.6941 0.99587 0.49638 0.0
C594 C 0.07932 0.76521 0.57596 0.0
C595 C 0.05272 0.74515 0.54408 0.0
C596 C 0.04856 0.69569 0.58203 0.0
C597 C 0.0734 0.71576 0.61652 0.0
N598 N 0.11064 0.76943 0.64961 0.0
N599 N 0.00934 0.69152 0.51989 0.0
C600 C 0.08815 0.75048 0.61455 0.0
C601 C 0.03674 0.71041 0.5477 0.0
N602 N 0.09708 0.79835 0.56782 0.0
N603 N 0.03632 0.66249 0.58205 0.0
H604 H 1.00033 0.70137 0.49388 0.0
H605 H 0.9942 0.66633 0.52462 0.0
H606 H 0.04268 0.65057 0.60856 0.0
H607 H 0.02117 0.64685 0.55445 0.0
H608 H 0.11874 0.81421 0.58627 0.0
H609 H 0.0918 0.80979 0.5392 0.0
H610 H 0.11947 0.79446 0.65387 0.0
H611 H 0.11905 0.75982 0.67688 0.0
C612 C 0.64981 0.69935 0.09473 0.0
C613 C 0.64567 0.72031 0.12809 0.0
C614 C 0.69055 0.76859 0.08706 0.0
C615 C 0.69628 0.7476 0.05606 0.0
N616 N 0.68486 0.69313 0.03499 0.0
N617 N 0.6642 0.77463 0.16016 0.0
C618 C 0.67674 0.71297 0.06095 0.0
C619 C 0.66685 0.75486 0.12569 0.0
N620 N 0.62786 0.66635 0.09517 0.0
N621 N 0.70652 0.80162 0.07781 0.0
H622 H 0.64606 0.76583 0.18734 0.0
H623 H 0.68131 0.79949 0.16411 0.0
H624 H 0.72331 0.81249 0.04909 0.0
H625 H 0.70105 0.81795 0.09542 0.0
H626 H 0.62694 0.65026 0.06802 0.0
H627 H 0.6092 0.65513 0.12138 0.0
H628 H 0.67403 0.66795 0.04084 0.0
H629 H 0.70438 0.70217 0.01006 0.0
C630 C 0.25992 0.90494 0.0902 0.0
C631 C 0.28773 0.92537 0.11979 0.0
C632 C 0.28858 0.97438 0.08654 0.0
C633 C 0.2623 0.95404 0.05439 0.0
N634 N 0.22497 0.90033 0.02128 0.0
N635 N 0.33173 0.97936 0.14134 0.0
C636 C 0.2487 0.91943 0.05476 0.0
C637 C 0.30286 0.96008 0.11687 0.0
N638 N 0.24314 0.87171 0.09781 0.0
N639 N 0.29984 0.00738 0.08814 0.0
H640 H 0.34301 0.96976 0.16357 0.0
H641 H 0.34598 0.00466 0.13665 0.0
H642 H 0.29142 0.01903 0.06442 0.0
H643 H 0.31612 0.023 0.11478 0.0
H644 H 0.22058 0.85575 0.08161 0.0
H645 H 0.25026 0.86015 0.12375 0.0
H646 H 0.21701 0.87559 0.01547 0.0
H647 H 0.21451 0.90957 0.99678 0.0
C648 C 0.06557 0.32842 0.13778 0.0
C649 C 0.08007 0.3616 0.12145 0.0
C650 C 0.0723 0.34129 0.03642 0.0
C651 C 0.05262 0.30821 0.05273 0.0
N652 N 0.02017 0.27434 0.12179 0.0
N653 N 0.083 0.39602 0.05236 0.0
C654 C 0.04592 0.30285 0.10426 0.0
C655 C 0.07907 0.36709 0.06991 0.0
N656 N 0.07138 0.32049 0.18367 0.0
N657 N 0.08614 0.34884 0.99056 0.0
H658 H 0.08305 0.41385 0.0752 0.0
H659 H 0.0808 0.39974 0.01492 0.0
H660 H 0.08627 0.33163 0.96664 0.0
H661 H 0.1019 0.37305 0.97959 0.0
H662 H 0.06211 0.29615 0.19459 0.0
H663 H 0.08902 0.33732 0.20767 0.0
H664 H 0.01416 0.27084 0.15923 0.0
H665 H 1.00201 0.2568 0.09902 0.0
C666 C 0.75783 0.65579 0.40473 0.0
C667 C 0.72451 0.6405 0.3894 0.0
C668 C 0.71483 0.67577 0.4457 0.0
C669 C 0.74872 0.69264 0.45823 0.0
N670 N 0.8033 0.70091 0.44755 0.0
N671 N 0.67168 0.63705 0.39106 0.0
C672 C 0.77044 0.68325 0.4371 0.0
C673 C 0.70306 0.65075 0.40883 0.0
N674 N 0.7772 0.64342 0.38939 0.0
N675 N 0.69394 0.68356 0.46935 0.0
H676 H 0.66219 0.6183 0.36483 0.0
H677 H 0.65562 0.64549 0.39964 0.0
H678 H 0.70194 0.70241 0.49529 0.0
H679 H 0.66849 0.67019 0.46588 0.0
H680 H 0.80034 0.6506 0.40385 0.0
H681 H 0.76931 0.62426 0.36413 0.0
H682 H 0.82115 0.69837 0.42855 0.0
H683 H 0.81313 0.71949 0.47391 0.0
C684 C 0.33066 0.08666 0.44994 0.0
C685 C 0.30835 0.05228 0.45155 0.0
C686 C 0.33943 0.04376 0.38581 0.0
C687 C 0.36043 0.07828 0.38207 0.0
N688 N 0.37286 0.13297 0.40419 0.0
N689 N 0.28888 0.99817 0.41801 0.0
C690 C 0.35529 0.09985 0.4126 0.0
C691 C 0.31188 0.03087 0.41836 0.0
N692 N 0.32831 0.10679 0.48409 0.0
N693 N 0.34677 0.02326 0.36006 0.0
H694 H 0.26968 0.98743 0.44345 0.0
H695 H 0.28765 0.98193 0.39089 0.0
H696 H 0.36675 0.03176 0.33608 0.0
H697 H 0.33472 0.99794 0.36516 0.0
H698 H 0.34619 0.13132 0.48891 0.0
H699 H 0.30945 0.09858 0.51002 0.0
H700 H 0.36793 0.14984 0.42129 0.0
H701 H 0.39066 0.14357 0.37669 0.0
C702 C 0.95636 0.29506 0.39264 0.0
C703 C 0.92163 0.27964 0.38813 0.0
C704 C 0.91473 0.23931 0.45175 0.0
C705 C 0.94937 0.2555 0.45754 0.0
N706 N 0.00325 0.30067 0.43899 0.0
N707 N 0.86734 0.23854 0.41476 0.0
C708 C 0.97023 0.28386 0.42932 0.0
C709 C 0.90071 0.25227 0.41831 0.0
N710 N 0.97605 0.32037 0.36172 0.0
N711 N 0.89533 0.21068 0.47673 0.0
H712 H 0.85602 0.24502 0.38751 0.0
H713 H 0.85069 0.22158 0.43978 0.0
H714 H 0.90454 0.20115 0.50291 0.0
H715 H 0.87042 0.19521 0.46986 0.0
H716 H 1.00135 0.33031 0.35888 0.0
H717 H 0.96691 0.33062 0.33664 0.0
H718 H 0.0197 0.32332 0.4236 0.0
H719 H 0.01412 0.29307 0.46551 0.0
C720 C 0.02888 0.63572 0.25947 0.0
C721 C 0.03505 0.61464 0.22945 0.0
C722 C 0.99032 0.56637 0.27072 0.0
C723 C 0.98458 0.58743 0.30153 0.0
N724 N 1.00087 0.64186 0.33065 0.0
N725 N 0.0258 0.56053 0.21138 0.0
C726 C 0.0048 0.62206 0.29773 0.0
C727 C 0.01686 0.5801 0.23636 0.0
N728 N 0.04503 0.6687 0.24981 0.0
N729 N 0.97014 0.5331 0.27409 0.0
H730 H 0.04465 0.56958 0.18532 0.0
H731 H 0.01628 0.53568 0.21874 0.0
H732 H 0.95249 0.52201 0.30171 0.0
H733 H 0.96986 0.51645 0.24856 0.0
H734 H 0.03939 0.68518 0.26646 0.0
H735 H 0.06276 0.67949 0.22219 0.0
H736 H 0.01688 0.66704 0.33348 0.0
H737 H 0.9827 0.6328 0.35778 0.0
C738 C 0.38675 0.36757 0.27077 0.0
C739 C 0.42091 0.38556 0.28149 0.0
C740 C 0.42822 0.42835 0.22226 0.0
C741 C 0.39425 0.40989 0.21053 0.0
N742 N 0.34195 0.36018 0.21728 0.0
N743 N 0.47506 0.43106 0.26459 0.0
C744 C 0.37372 0.37896 0.23305 0.0
C745 C 0.44193 0.4153 0.25616 0.0
N746 N 0.36673 0.33982 0.29721 0.0
N747 N 0.44705 0.45904 0.20257 0.0
H748 H 0.48565 0.42364 0.29174 0.0
H749 H 0.49231 0.45049 0.24332 0.0
H750 H 0.43826 0.46879 0.17609 0.0
H751 H 0.47082 0.47565 0.21414 0.0
H752 H 0.34119 0.32738 0.29529 0.0
H753 H 0.37558 0.33004 0.32359 0.0
H754 H 0.3263 0.33608 0.22842 0.0
H755 H 0.33181 0.36788 0.18974 0.0
C756 C 0.62326 0.9887 0.2402 0.0
C757 C 0.5888 0.96967 0.23263 0.0
C758 C 0.57963 0.99985 0.29907 0.0
C759 C 0.61417 0.02091 0.30337 0.0
N760 N 0.66918 0.03706 0.27665 0.0
N761 N 0.53403 0.95892 0.25047 0.0
C762 C 0.63606 0.0158 0.27347 0.0
C763 C 0.5669 0.97549 0.26126 0.0
N764 N 0.64363 0.97997 0.21712 0.0
N765 N 0.55895 0.00335 0.33078 0.0
H766 H 0.52379 0.94112 0.22293 0.0
H767 H 0.51708 0.96441 0.26591 0.0
H768 H 0.56704 0.02203 0.35696 0.0
H769 H 0.53392 0.98652 0.33356 0.0
H770 H 0.66856 0.99043 0.225 0.0
H771 H 0.63515 0.96029 0.19261 0.0
H772 H 0.68618 0.03748 0.2516 0.0
H773 H 0.67974 0.05551 0.30324 0.0
C774 C 0.35735 0.97157 0.75618 0.0
C775 C 0.37709 0.96743 0.72052 0.0
C776 C 0.42213 0.02296 0.73716 0.0
C777 C 0.40469 0.02559 0.77849 0.0
N778 N 0.35412 0.00248 0.8254 0.0
N779 N 0.43081 0.98601 0.68598 0.0
C780 C 0.3719 0.99971 0.78772 0.0
C781 C 0.4102 0.99215 0.71378 0.0
N782 N 0.32436 0.94956 0.75807 0.0
N783 N 0.44906 0.04974 0.71779 0.0
H784 H 0.42332 0.96348 0.66893 0.0
H785 H 0.45614 0.00199 0.68454 0.0
H786 H 0.4574 0.07375 0.72855 0.0
H787 H 0.46039 0.04872 0.68531 0.0
H788 H 0.30781 0.95286 0.77936 0.0
H789 H 0.31291 0.929 0.73525 0.0
H790 H 0.33238 0.98283 0.8388 0.0
H791 H 0.36127 0.02447 0.84384 0.0
C792 C 0.01936 0.38156 0.74394 0.0
C793 C 0.0267 0.40944 0.71466 0.0
C794 C 0.98506 0.41618 0.75924 0.0
C795 C 0.97575 0.38673 0.78567 0.0
N796 N 0.98048 0.33855 0.7983 0.0
N797 N 0.01348 0.45049 0.68874 0.0
C798 C 0.992 0.36865 0.77682 0.0
C799 C 0.00846 0.42578 0.72041 0.0
N800 N 0.03881 0.36769 0.74075 0.0
N801 N 0.97291 0.43597 0.77316 0.0
H802 H 0.03088 0.45868 0.6605 0.0
H803 H 0.99862 0.46106 0.68778 0.0
H804 H 0.95691 0.43046 0.80286 0.0
H805 H 0.98118 0.45935 0.75879 0.0
H806 H 0.03726 0.34985 0.76512 0.0
H807 H 0.05799 0.37544 0.71536 0.0
H808 H 0.98892 0.32255 0.78925 0.0
H809 H 0.96055 0.32832 0.82253 0.0
C810 C 0.63267 0.62451 0.79407 0.0
C811 C 0.62101 0.59015 0.79119 0.0
C812 C 0.58366 0.58518 0.72355 0.0
C813 C 0.59516 0.6193 0.72666 0.0
N814 N 0.62784 0.6713 0.76738 0.0
N815 N 0.59045 0.53925 0.7452 0.0
C816 C 0.61883 0.6389 0.76276 0.0
C817 C 0.59806 0.57095 0.75361 0.0
N818 N 0.65899 0.64387 0.82365 0.0
N819 N 0.55713 0.56571 0.69437 0.0
H820 H 0.59776 0.52618 0.76761 0.0
H821 H 0.57831 0.52614 0.71366 0.0
H822 H 0.54564 0.57485 0.67174 0.0
H823 H 0.54436 0.54016 0.69589 0.0
H824 H 0.67102 0.66938 0.82408 0.0
H825 H 0.67119 0.63479 0.84481 0.0
H826 H 0.64141 0.68607 0.7968 0.0
H827 H 0.62025 0.68328 0.74289 0.0
C828 C 0.22926 0.09014 0.96159 0.0
C829 C 0.23566 0.07156 0.9965 0.0
C830 C 0.23706 0.10773 0.06319 0.0
C831 C 0.22998 0.12572 0.02821 0.0
N832 N 0.22633 0.13914 0.94358 0.0
N833 N 0.25209 0.06603 0.07857 0.0
C834 C 0.22843 0.11856 0.97716 0.0
C835 C 0.24182 0.0816 0.04672 0.0
N836 N 0.22285 0.07989 0.91373 0.0
N837 N 0.23788 0.11485 0.11227 0.0
H838 H 0.2551 0.04641 0.06799 0.0
H839 H 0.25997 0.07392 0.11444 0.0
H840 H 0.23575 0.13461 0.12511 0.0
H841 H 0.23909 0.10047 0.14045 0.0
H842 H 0.21382 0.08948 0.88747 0.0
H843 H 0.22527 0.06045 0.90087 0.0
H844 H 0.22867 0.1375 0.90565 0.0
H845 H 0.22494 0.15977 0.95381 0.0
C846 C 0.9362 0.15168 0.04654 0.0
C847 C 0.93776 0.16472 0.99864 0.0
C848 C 0.88298 0.11843 0.97938 0.0
C849 C 0.88184 0.10491 0.02675 0.0
N850 N 0.9031 0.11197 0.10939 0.0
N851 N 0.90966 0.16564 0.92493 0.0
C852 C 0.90723 0.1226 0.06154 0.0
C853 C 0.91005 0.14982 0.96693 0.0
N854 N 0.96257 0.16707 0.07762 0.0
N855 N 0.85929 0.10043 0.94522 0.0
H856 H 0.92916 0.18846 0.91485 0.0
H857 H 0.88902 0.15776 0.90261 0.0
H858 H 0.83912 0.0774 0.95276 0.0
H859 H 0.86069 0.10715 0.90832 0.0
H860 H 0.96507 0.15663 0.11 0.0
H861 H 0.98272 0.19019 0.07035 0.0
H862 H 0.91896 0.12527 0.13802 0.0
H863 H 0.8821 0.09085 0.12151 0.0
C864 C 0.84894 0.78087 0.04077 0.0
C865 C 0.83976 0.77804 0.99025 0.0
C866 C 0.89178 0.78169 0.96586 0.0
C867 C 0.9012 0.78528 0.01629 0.0
N868 N 0.88687 0.78133 0.10221 0.0
N869 N 0.84866 0.76912 0.90571 0.0
C870 C 0.8791 0.78263 0.05393 0.0
C871 C 0.85999 0.77618 0.95309 0.0
N872 N 0.82918 0.78283 0.07604 0.0
N873 N 0.9138 0.78489 0.93021 0.0
H874 H 0.82569 0.76545 0.89557 0.0
H875 H 0.86063 0.76441 0.87732 0.0
H876 H 0.93682 0.78784 0.93835 0.0
H877 H 0.91012 0.78621 0.89262 0.0
H878 H 0.83614 0.78909 0.11266 0.0
H879 H 0.806 0.77951 0.06822 0.0
H880 H 0.87066 0.7762 0.13146 0.0
H881 H 0.90892 0.78282 0.11288 0.0
C882 C 0.12316 0.2406 0.52983 0.0
C883 C 0.12479 0.22727 0.48354 0.0
C884 C 0.07106 0.2201 0.46065 0.0
C885 C 0.06897 0.23237 0.50763 0.0
N886 N 0.09726 0.26427 0.57935 0.0
N887 N 0.10483 0.21249 0.40029 0.0
C888 C 0.0965 0.24606 0.53967 0.0
C889 C 0.10006 0.21953 0.4475 0.0
N890 N 0.14577 0.24595 0.56567 0.0
N891 N 0.04515 0.20886 0.42864 0.0
H892 H 0.12589 0.21206 0.38945 0.0
H893 H 0.08948 0.20985 0.37085 0.0
H894 H 0.02519 0.21238 0.43435 0.0
H895 H 0.04292 0.19532 0.39705 0.0
H896 H 0.1437 0.25205 0.60192 0.0
H897 H 0.16537 0.24185 0.56034 0.0
H898 H 0.11801 0.27756 0.6013 0.0
H899 H 0.07815 0.26867 0.58758 0.0
C900 C 0.78646 0.85035 0.45594 0.0
C901 C 0.77127 0.8353 0.50137 0.0
C902 C 0.74902 0.87252 0.50716 0.0
C903 C 0.7715 0.89282 0.47021 0.0
N904 N 0.80647 0.89764 0.40189 0.0
N905 N 0.73665 0.8313 0.56993 0.0
C906 C 0.78854 0.88051 0.44214 0.0
C907 C 0.7517 0.84582 0.52655 0.0
N908 N 0.79739 0.83493 0.42492 0.0
N909 N 0.72412 0.87743 0.52205 0.0
H910 H 0.73714 0.81113 0.58477 0.0
H911 H 0.72561 0.84076 0.5929 0.0
H912 H 0.71931 0.89453 0.50558 0.0
H913 H 0.70545 0.86149 0.54577 0.0
H914 H 0.80619 0.8431 0.38946 0.0
H915 H 0.79439 0.81186 0.43246 0.0
H916 H 0.8233 0.89295 0.38405 0.0
H917 H 0.80477 0.91715 0.38678 0.0
C918 C 0.12856 0.90249 0.45161 0.0
C919 C 0.10446 0.88378 0.48758 0.0
C920 C 0.14037 0.91962 0.55319 0.0
C921 C 0.16463 0.93854 0.51739 0.0
N922 N 0.18484 0.94461 0.434 0.0
N923 N 0.0896 0.86949 0.57274 0.0
C924 C 0.15971 0.92876 0.46703 0.0
C925 C 0.11116 0.89072 0.53848 0.0
N926 N 0.12111 0.89588 0.40265 0.0
N927 N 0.14477 0.92995 0.60104 0.0
H928 H 0.06773 0.84837 0.56312 0.0
H929 H 0.09455 0.87115 0.61039 0.0
H930 H 0.16643 0.95012 0.61313 0.0
H931 H 0.12655 0.91983 0.62796 0.0
H932 H 0.13589 0.91087 0.3742 0.0
H933 H 0.09903 0.87604 0.39033 0.0
H934 H 0.18411 0.93673 0.39791 0.0
H935 H 0.20765 0.96441 0.4437 0.0
C936 C 0.75852 0.92405 0.9687 0.0
C937 C 0.76463 0.93446 0.01873 0.0
C938 C 0.7755 0.89001 0.03878 0.0
C939 C 0.77092 0.88058 0.98836 0.0
N940 N 0.75014 0.88242 0.90809 0.0
N941 N 0.76984 0.92265 0.10332 0.0
C942 C 0.75963 0.89552 0.95423 0.0
C943 C 0.77016 0.91581 0.05444 0.0
N944 N 0.75332 0.94241 0.93467 0.0
N945 N 0.786 0.87495 0.07126 0.0
H946 H 0.76517 0.94095 0.1152 0.0
H947 H 0.77099 0.90848 0.13188 0.0
H948 H 0.78845 0.85482 0.06158 0.0
H949 H 0.7936 0.88312 0.10713 0.0
H950 H 0.75272 0.93864 0.89675 0.0
H951 H 0.75103 0.96261 0.94427 0.0
H952 H 0.73895 0.89024 0.88262 0.0
H953 H 0.75092 0.86165 0.89672 0.0
C954 C 0.12455 0.88766 0.03307 0.0
C955 C 0.12865 0.89888 0.98346 0.0
C956 C 0.07751 0.84943 0.95966 0.0
C957 C 0.07221 0.83924 0.00983 0.0
N958 N 0.09338 0.84364 0.09194 0.0
N959 N 0.11444 0.88748 0.89775 0.0
C960 C 0.09683 0.85664 0.04575 0.0
C961 C 0.10679 0.87868 0.94614 0.0
N962 N 0.14621 0.90749 0.06834 0.0
N963 N 0.05402 0.83147 0.92521 0.0
H964 H 0.13585 0.90875 0.88709 0.0
H965 H 0.10128 0.87271 0.86808 0.0
H966 H 0.03365 0.80859 0.93295 0.0
H967 H 0.05403 0.83944 0.8894 0.0
H968 H 0.14293 0.90272 0.10601 0.0
H969 H 0.16717 0.92979 0.05997 0.0
H970 H 0.1115 0.85351 0.11899 0.0
H971 H 0.07308 0.82127 0.10216 0.0
C972 C 0.15509 0.24839 0.0377 0.0
C973 C 0.16947 0.23396 0.00842 0.0
C974 C 0.12679 0.21975 0.94542 0.0
C975 C 0.10918 0.22841 0.97886 0.0
N976 N 0.10557 0.24964 0.05831 0.0
N977 N 0.17114 0.20844 0.93207 0.0
C978 C 0.12331 0.24298 0.02507 0.0
C979 C 0.15602 0.22058 0.96139 0.0
N980 N 0.17171 0.26715 0.07753 0.0
N981 N 0.11584 0.2115 0.89795 0.0
H982 H 0.19439 0.2119 0.93972 0.0
H983 H 0.16037 0.19415 0.90085 0.0
H984 H 0.09466 0.21097 0.88517 0.0
H985 H 0.12901 0.20801 0.87007 0.0
H986 H 0.16396 0.28089 0.09765 0.0
H987 H 0.19496 0.27154 0.08761 0.0
H988 H 0.11288 0.25656 0.09469 0.0
H989 H 0.08224 0.24592 0.05076 0.0
C990 C 0.91247 0.76773 0.45352 0.0
C991 C 0.9341 0.76767 0.48971 0.0
C992 C 0.89867 0.76896 0.55539 0.0
C993 C 0.88049 0.77481 0.51921 0.0
N994 N 0.86894 0.7794 0.43381 0.0
N995 N 0.94771 0.7663 0.57501 0.0
C996 C 0.88677 0.77363 0.46815 0.0
C997 C 0.92687 0.76723 0.54071 0.0
N998 N 0.91659 0.76204 0.40533 0.0
N999 N 0.8889 0.76511 0.60364 0.0
H1000 H 0.96722 0.76278 0.56544 0.0
H1001 H 0.94646 0.77001 0.61261 0.0
H1002 H 0.86857 0.76666 0.6153 0.0
H1003 H 0.89919 0.75793 0.63152 0.0
H1004 H 0.90024 0.75913 0.37725 0.0
H1005 H 0.93498 0.75717 0.39425 0.0
H1006 H 0.87458 0.78261 0.39636 0.0
H1007 H 0.84913 0.7825 0.44316 0.0
C1008 C 0.23635 0.14814 0.4584 0.0
C1009 C 0.24057 0.17142 0.49499 0.0
C1010 C 0.24434 0.13636 0.55888 0.0
C1011 C 0.23472 0.11105 0.52345 0.0
N1012 N 0.22267 0.09225 0.43932 0.0
N1013 N 0.24982 0.18907 0.57987 0.0
C1014 C 0.23151 0.11695 0.47296 0.0
C1015 C 0.24552 0.16617 0.54515 0.0
N1016 N 0.23736 0.15619 0.40978 0.0
N1017 N 0.25227 0.13171 0.60555 0.0
H1018 H 0.25239 0.21177 0.57082 0.0
H1019 H 0.24958 0.18526 0.61773 0.0
H1020 H 0.2513 0.10997 0.61636 0.0
H1021 H 0.26224 0.15 0.63231 0.0
H1022 H 0.23718 0.14167 0.38069 0.0
H1023 H 0.2414 0.17909 0.3987 0.0
H1024 H 0.21606 0.09339 0.40304 0.0
H1025 H 0.22061 0.06974 0.44834 0.0
C1026 C 0.88174 0.12015 0.48192 0.0
C1027 C 0.89682 0.12056 0.52756 0.0
C1028 C 0.84963 0.06702 0.54927 0.0
C1029 C 0.83521 0.06597 0.50268 0.0
N1030 N 0.83189 0.09575 0.43274 0.0
N1031 N 0.8915 0.09954 0.61002 0.0
C1032 C 0.84935 0.09403 0.47172 0.0
C1033 C 0.87957 0.09551 0.56294 0.0
N1034 N 0.89907 0.14349 0.447 0.0
N1035 N 0.83471 0.04065 0.58038 0.0
H1036 H 0.91302 0.12051 0.62125 0.0
H1037 H 0.87879 0.08376 0.63906 0.0
H1038 H 0.8111 0.02097 0.57429 0.0
H1039 H 0.84597 0.03779 0.61155 0.0
H1040 H 0.89085 0.14234 0.41098 0.0
H1041 H 0.92284 0.16293 0.45287 0.0
H1042 H 0.8396 0.11688 0.41165 0.0
H1043 H 0.80819 0.07704 0.4243 0.0
C1044 C 0.8915 0.44377 0.30198 0.0
C1045 C 0.89153 0.45038 0.35308 0.0
C1046 C 0.90012 0.40438 0.37317 0.0
C1047 C 0.89558 0.3951 0.32263 0.0
N1048 N 0.88766 0.40563 0.23839 0.0
N1049 N 0.89499 0.4373 0.43792 0.0
C1050 C 0.89181 0.41494 0.28679 0.0
C1051 C 0.896 0.431 0.38887 0.0
N1052 N 0.89143 0.46529 0.26811 0.0
N1053 N 0.90863 0.38785 0.40601 0.0
H1054 H 0.89323 0.45731 0.45056 0.0
H1055 H 0.89408 0.42187 0.46615 0.0
H1056 H 0.91168 0.36819 0.39579 0.0
H1057 H 0.9154 0.39518 0.4424 0.0
H1058 H 0.89461 0.46388 0.23038 0.0
H1059 H 0.89065 0.4863 0.27811 0.0
H1060 H 0.88075 0.41638 0.21087 0.0
H1061 H 0.8901 0.38603 0.22597 0.0
C1062 C 0.5889 0.47606 0.29202 0.0
C1063 C 0.61151 0.49652 0.3285 0.0
C1064 C 0.57607 0.45898 0.39348 0.0
C1065 C 0.55573 0.43662 0.35668 0.0
N1066 N 0.54342 0.42215 0.27089 0.0
N1067 N 0.62757 0.50792 0.41396 0.0
C1068 C 0.56206 0.44486 0.30588 0.0
C1069 C 0.60519 0.48823 0.37932 0.0
N1070 N 0.59315 0.48656 0.24418 0.0
N1071 N 0.56723 0.4523 0.442 0.0
H1072 H 0.64807 0.53052 0.40543 0.0
H1073 H 0.6268 0.50137 0.45082 0.0
H1074 H 0.54643 0.43075 0.45341 0.0
H1075 H 0.57887 0.4689 0.47061 0.0
H1076 H 0.57593 0.4745 0.21641 0.0
H1077 H 0.61293 0.50897 0.23305 0.0
H1078 H 0.54893 0.42502 0.23339 0.0
H1079 H 0.52326 0.39932 0.27964 0.0
C1080 C 0.52588 0.10613 0.28339 0.0
C1081 C 0.50205 0.10163 0.31923 0.0
C1082 C 0.53681 0.09873 0.38458 0.0
C1083 C 0.5625 0.10822 0.34972 0.0
N1084 N 0.58219 0.12036 0.26595 0.0
N1085 N 0.48375 0.09309 0.40381 0.0
C1086 C 0.5571 0.11142 0.29897 0.0
C1087 C 0.507 0.09724 0.36976 0.0
N1088 N 0.51829 0.10481 0.23449 0.0
N1089 N 0.54106 0.09126 0.43178 0.0
H1090 H 0.461 0.09021 0.39404 0.0
H1091 H 0.48734 0.09386 0.44178 0.0
H1092 H 0.56291 0.09292 0.44392 0.0
H1093 H 0.52237 0.08114 0.45797 0.0
H1094 H 0.53326 0.10514 0.20595 0.0
H1095 H 0.49535 0.10037 0.22257 0.0
H1096 H 0.58139 0.12694 0.22954 0.0
H1097 H 0.60472 0.12261 0.2756 0.0
C1098 C 0.79175 0.57165 0.86644 0.0
C1099 C 0.79234 0.55613 0.8218 0.0
C1100 C 0.73784 0.54717 0.79977 0.0
C1101 C 0.73666 0.56154 0.84537 0.0
N1102 N 0.76609 0.59624 0.91443 0.0
N1103 N 0.77067 0.53735 0.74033 0.0
C1104 C 0.76487 0.5768 0.87612 0.0
C1105 C 0.76671 0.5463 0.78675 0.0
N1106 N 0.81585 0.57971 0.90093 0.0
N1107 N 0.71136 0.53451 0.7687 0.0
H1108 H 0.79189 0.53725 0.72933 0.0
H1109 H 0.75447 0.53286 0.7113 0.0
H1110 H 0.69158 0.53843 0.77348 0.0
H1111 H 0.70852 0.51949 0.73873 0.0
H1112 H 0.81478 0.58743 0.93654 0.0
H1113 H 0.83595 0.57642 0.89535 0.0
H1114 H 0.78729 0.61084 0.93481 0.0
H1115 H 0.74667 0.59996 0.92348 0.0
C1116 C 0.44903 0.18299 0.79003 0.0
C1117 C 0.43591 0.16866 0.83683 0.0
C1118 C 0.42788 0.21487 0.85752 0.0
C1119 C 0.44247 0.22994 0.8118 0.0
N1120 N 0.45809 0.22473 0.72927 0.0
N1121 N 0.40274 0.16518 0.90691 0.0
C1122 C 0.45033 0.21281 0.77639 0.0
C1123 C 0.42186 0.18263 0.86782 0.0
N1124 N 0.46023 0.16804 0.75861 0.0
N1125 N 0.4217 0.23206 0.89239 0.0
H1126 H 0.3979 0.1416 0.91557 0.0
H1127 H 0.3892 0.17276 0.92794 0.0
H1128 H 0.42579 0.25569 0.88644 0.0
H1129 H 0.41476 0.2239 0.92847 0.0
H1130 H 0.47429 0.17928 0.72735 0.0
H1131 H 0.45606 0.14435 0.76437 0.0
H1132 H 0.4612 0.21212 0.70018 0.0
H1133 H 0.45847 0.24614 0.71807 0.0
C1134 C 0.79337 0.22066 0.82179 0.0
C1135 C 0.76362 0.22163 0.825 0.0
C1136 C 0.79626 0.28023 0.84131 0.0
C1137 C 0.82547 0.27842 0.84775 0.0
N1138 N 0.84595 0.24046 0.86093 0.0
N1139 N 0.73909 0.25122 0.86257 0.0
C1140 C 0.82247 0.24673 0.84326 0.0
C1141 C 0.76567 0.25094 0.84285 0.0
N1142 N 0.79484 0.19619 0.797 0.0
N1143 N 0.79673 0.30878 0.83034 0.0
H1144 H 0.71712 0.22978 0.87061 0.0
H1145 H 0.74088 0.2725 0.87753 0.0
H1146 H 0.81744 0.32982 0.81762 0.0
H1147 H 0.77509 0.30945 0.8248 0.0
H1148 H 0.81692 0.19637 0.79182 0.0
H1149 H 0.77543 0.17841 0.77628 0.0
H1150 H 0.84304 0.21698 0.86 0.0
H1151 H 0.8653 0.25666 0.88326 0.0
C1152 C 0.43039 0.22675 0.28663 0.0
C1153 C 0.44196 0.21142 0.31957 0.0
C1154 C 0.44449 0.24788 0.38634 0.0
C1155 C 0.43831 0.2666 0.35155 0.0
N1156 N 0.42485 0.27428 0.26855 0.0
N1157 N 0.45873 0.20563 0.4012 0.0
C1158 C 0.4305 0.25582 0.30181 0.0
C1159 C 0.44827 0.22127 0.36977 0.0
N1160 N 0.41945 0.21352 0.2409 0.0
N1161 N 0.44609 0.25533 0.43532 0.0
H1162 H 0.45976 0.18477 0.3911 0.0
H1163 H 0.4676 0.21391 0.43658 0.0
H1164 H 0.44267 0.27427 0.44802 0.0
H1165 H 0.44774 0.2412 0.4635 0.0
H1166 H 0.40785 0.22154 0.21652 0.0
H1167 H 0.4195 0.19251 0.22881 0.0
H1168 H 0.42312 0.27024 0.23065 0.0
H1169 H 0.42335 0.29486 0.27861 0.0
C1170 C 0.77925 0.2177 0.37572 0.0
C1171 C 0.7873 0.22326 0.32476 0.0
C1172 C 0.74214 0.16809 0.30505 0.0
C1173 C 0.73328 0.16313 0.35574 0.0
N1174 N 0.74835 0.17822 0.44032 0.0
N1175 N 0.78216 0.20178 0.24268 0.0
C1176 C 0.75358 0.18637 0.39147 0.0
C1177 C 0.77065 0.19766 0.28998 0.0
N1178 N 0.7953 0.24277 0.40871 0.0
N1179 N 0.72252 0.14496 0.27125 0.0
H1180 H 0.80285 0.2233 0.2308 0.0
H1181 H 0.77301 0.1832 0.21633 0.0
H1182 H 0.70274 0.12224 0.28145 0.0
H1183 H 0.72502 0.14856 0.23325 0.0
H1184 H 0.78816 0.24155 0.44537 0.0
H1185 H 0.81499 0.26563 0.39874 0.0
H1186 H 0.76377 0.19295 0.46844 0.0
H1187 H 0.73024 0.15502 0.45221 0.0
C1188 C 0.83793 0.57179 0.30251 0.0
C1189 C 0.84492 0.57173 0.35347 0.0
C1190 C 0.79263 0.56818 0.37525 0.0
C1191 C 0.78469 0.56595 0.32428 0.0
N1192 N 0.8026 0.57496 0.23984 0.0
N1193 N 0.83419 0.57909 0.43769 0.0
C1194 C 0.80839 0.57089 0.288 0.0
C1195 C 0.82398 0.57314 0.38969 0.0
N1196 N 0.85909 0.57157 0.26812 0.0
N1197 N 0.76962 0.5641 0.40968 0.0
H1198 H 0.85725 0.58319 0.44853 0.0
H1199 H 0.82135 0.58283 0.46581 0.0
H1200 H 0.74698 0.56166 0.4002 0.0
H1201 H 0.77224 0.56182 0.44735 0.0
H1202 H 0.85374 0.56745 0.23065 0.0
H1203 H 0.88193 0.5745 0.27751 0.0
H1204 H 0.8198 0.58124 0.21169 0.0
H1205 H 0.78136 0.57497 0.2288 0.0
C1206 C 0.57281 0.0885 0.79333 0.0
C1207 C 0.59599 0.09347 0.83049 0.0
C1208 C 0.56283 0.1017 0.89259 0.0
C1209 C 0.54138 0.10021 0.85459 0.0
N1210 N 0.52165 0.08642 0.77116 0.0
N1211 N 0.60906 0.09504 0.91642 0.0
C1212 C 0.54479 0.09127 0.80572 0.0
C1213 C 0.58954 0.09682 0.88059 0.0
N1214 N 0.57862 0.08269 0.74601 0.0
N1215 N 0.55816 0.1089 0.93976 0.0
H1216 H 0.62823 0.09069 0.90817 0.0
H1217 H 0.60482 0.09502 0.95409 0.0
H1218 H 0.53768 0.11061 0.95013 0.0
H1219 H 0.5748 0.11416 0.96838 0.0
H1220 H 0.5648 0.08186 0.71556 0.0
H1221 H 0.59799 0.07878 0.73709 0.0
H1222 H 0.52099 0.07781 0.73562 0.0
H1223 H 0.50186 0.08977 0.77899 0.0
C1224 C 0.91468 0.48813 0.7939 0.0
C1225 C 0.91641 0.5105 0.8301 0.0
C1226 C 0.91743 0.47487 0.89542 0.0
C1227 C 0.90896 0.44987 0.85983 0.0
N1228 N 0.8996 0.43196 0.77497 0.0
N1229 N 0.9224 0.5276 0.91495 0.0
C1230 C 0.90822 0.45648 0.80881 0.0
C1231 C 0.91929 0.50484 0.88082 0.0
N1232 N 0.91917 0.4973 0.74543 0.0
N1233 N 0.92323 0.46962 0.94304 0.0
H1234 H 0.92572 0.55048 0.90493 0.0
H1235 H 0.9208 0.52366 0.95287 0.0
H1236 H 0.92174 0.44771 0.95434 0.0
H1237 H 0.93193 0.48758 0.97033 0.0
H1238 H 0.92075 0.48317 0.71719 0.0
H1239 H 0.92466 0.52076 0.73433 0.0
H1240 H 0.89487 0.43404 0.73801 0.0
H1241 H 0.89557 0.40875 0.78444 0.0
C1242 C 0.5486 0.42585 0.90194 0.0
C1243 C 0.56186 0.45573 0.87506 0.0
C1244 C 0.5148 0.43085 0.81856 0.0
C1245 C 0.50343 0.40012 0.84217 0.0
N1246 N 0.5017 0.3718 0.91732 0.0
N1247 N 0.54791 0.48987 0.82594 0.0
C1248 C 0.51797 0.39863 0.88735 0.0
C1249 C 0.54203 0.45942 0.83896 0.0
N1250 N 0.56531 0.4237 0.9417 0.0
N1251 N 0.50056 0.43275 0.77572 0.0
H1252 H 0.56552 0.51122 0.84322 0.0
H1253 H 0.53236 0.49365 0.8029 0.0
H1254 H 0.47988 0.41274 0.76051 0.0
H1255 H 0.51059 0.45375 0.75375 0.0
H1256 H 0.55977 0.40165 0.95861 0.0
H1257 H 0.58533 0.4443 0.95729 0.0
H1258 H 0.50955 0.37022 0.95259 0.0
H1259 H 0.4783 0.35238 0.90917 0.0
C1260 C 0.558 0.73844 0.72088 0.0
C1261 C 0.56711 0.73565 0.67186 0.0
C1262 C 0.57052 0.78791 0.64992 0.0
C1263 C 0.56036 0.79011 0.69849 0.0
N1264 N 0.55273 0.77265 0.78325 0.0
N1265 N 0.59032 0.76129 0.59397 0.0
C1266 C 0.55668 0.76691 0.73494 0.0
C1267 C 0.57628 0.76172 0.63784 0.0
N1268 N 0.55013 0.71356 0.75383 0.0
N1269 N 0.57276 0.80968 0.61457 0.0
H1270 H 0.59457 0.74233 0.58441 0.0
H1271 H 0.60045 0.78088 0.56929 0.0
H1272 H 0.56897 0.82926 0.62197 0.0
H1273 H 0.5763 0.80724 0.57724 0.0
H1274 H 0.53908 0.71181 0.78784 0.0
H1275 H 0.55363 0.69379 0.74642 0.0
H1276 H 0.55299 0.7585 0.81256 0.0
H1277 H 0.5521 0.79352 0.7946 0.0
C1278 C 0.22339 0.789 0.72426 0.0
C1279 C 0.20465 0.76493 0.68835 0.0
C1280 C 0.24171 0.79971 0.62302 0.0
C1281 C 0.26084 0.82387 0.65873 0.0
N1282 N 0.26665 0.84481 0.7416 0.0
N1283 N 0.19059 0.75017 0.60315 0.0
C1284 C 0.25049 0.81962 0.70884 0.0
C1285 C 0.21206 0.77132 0.63753 0.0
N1286 N 0.21598 0.78198 0.77314 0.0
N1287 N 0.25263 0.80326 0.57556 0.0
H1288 H 0.16883 0.72892 0.61269 0.0
H1289 H 0.19276 0.75503 0.56544 0.0
H1290 H 0.27365 0.82419 0.56367 0.0
H1291 H 0.24217 0.78488 0.54896 0.0
H1292 H 0.23082 0.79667 0.80176 0.0
H1293 H 0.19546 0.76035 0.78523 0.0
H1294 H 0.25856 0.84458 0.77742 0.0
H1295 H 0.28703 0.8672 0.73186 0.0
C1296 C 0.21695 0.45534 0.72969 0.0
C1297 C 0.23471 0.44798 0.69466 0.0
C1298 C 0.18786 0.42688 0.63768 0.0
C1299 C 0.17289 0.43993 0.66864 0.0
N1300 N 0.17113 0.46389 0.74653 0.0
N1301 N 0.23848 0.4289 0.61358 0.0
C1302 C 0.18681 0.45325 0.71552 0.0
C1303 C 0.22036 0.43381 0.64845 0.0
N1304 N 0.22853 0.46336 0.77694 0.0
N1305 N 0.1711 0.40782 0.59817 0.0
H1306 H 0.26242 0.43382 0.6198 0.0
H1307 H 0.23073 0.42225 0.57727 0.0
H1308 H 0.14741 0.40245 0.58895 0.0
H1309 H 0.17947 0.39489 0.57726 0.0
H1310 H 0.21544 0.46605 0.80575 0.0
H1311 H 0.25028 0.46457 0.78856 0.0
H1312 H 0.18193 0.47801 0.77787 0.0
H1313 H 0.14727 0.45921 0.74027 0.0
C1314 C 0.41424 0.90409 0.13545 0.0
C1315 C 0.40191 0.89552 0.18439 0.0
C1316 C 0.44538 0.88302 0.20468 0.0
C1317 C 0.45719 0.89084 0.15554 0.0
N1318 N 0.45799 0.91515 0.07714 0.0
N1319 N 0.40954 0.88395 0.26816 0.0
C1320 C 0.44332 0.90359 0.12193 0.0
C1321 C 0.41872 0.88717 0.2198 0.0
N1322 N 0.39723 0.91111 0.1013 0.0
N1323 N 0.45923 0.87082 0.23654 0.0
H1324 H 0.39022 0.88701 0.27982 0.0
H1325 H 0.4225 0.88113 0.29704 0.0
H1326 H 0.48016 0.8695 0.22783 0.0
H1327 H 0.44934 0.86068 0.27078 0.0
H1328 H 0.40249 0.91369 0.06372 0.0
H1329 H 0.37648 0.91269 0.11007 0.0
H1330 H 0.45122 0.92771 0.05257 0.0
H1331 H 0.47886 0.91442 0.06604 0.0
C1332 C 0.11242 0.55629 0.2004 0.0
C1333 C 0.12008 0.56717 0.15068 0.0
C1334 C 0.12164 0.51722 0.12926 0.0
C1335 C 0.11785 0.50833 0.17992 0.0
N1336 N 0.1109 0.51934 0.26438 0.0
N1337 N 0.13263 0.55889 0.06752 0.0
C1338 C 0.11313 0.52762 0.21562 0.0
C1339 C 0.12472 0.54776 0.11499 0.0
N1340 N 0.10477 0.57354 0.23316 0.0
N1341 N 0.12132 0.49592 0.09462 0.0
H1342 H 0.13274 0.57986 0.0548 0.0
H1343 H 0.14058 0.54833 0.04116 0.0
H1344 H 0.11927 0.47345 0.10371 0.0
H1345 H 0.1204 0.49907 0.05677 0.0
H1346 H 0.09529 0.56511 0.26824 0.0
H1347 H 0.10583 0.59558 0.22424 0.0
H1348 H 0.11127 0.53414 0.29317 0.0
H1349 H 0.11063 0.4982 0.27643 0.0
C1350 C 0.48881 0.57526 0.21298 0.0
C1351 C 0.50284 0.60331 0.18197 0.0
C1352 C 0.45846 0.57379 0.12172 0.0
C1353 C 0.44152 0.5485 0.15687 0.0
N1354 N 0.43955 0.52495 0.23677 0.0
N1355 N 0.50334 0.62862 0.10424 0.0
C1356 C 0.45664 0.54883 0.20242 0.0
C1357 C 0.48839 0.60227 0.13539 0.0
N1358 N 0.50621 0.57383 0.2523 0.0
N1359 N 0.44634 0.56997 0.07477 0.0
H1360 H 0.52708 0.64815 0.11005 0.0
H1361 H 0.49207 0.63162 0.0732 0.0
H1362 H 0.42477 0.54909 0.06345 0.0
H1363 H 0.45886 0.58591 0.0458 0.0
H1364 H 0.49869 0.5528 0.27352 0.0
H1365 H 0.52973 0.59276 0.26103 0.0
H1366 H 0.44765 0.52585 0.27279 0.0
H1367 H 0.41604 0.50514 0.23041 0.0
C1368 C 0.0811 0.56805 0.70124 0.0
C1369 C 0.09418 0.59599 0.67017 0.0
C1370 C 0.10969 0.56746 0.60935 0.0
C1371 C 0.10304 0.54282 0.64486 0.0
N1372 N 0.08232 0.51898 0.72499 0.0
N1373 N 0.1175 0.62145 0.5919 0.0
C1374 C 0.08803 0.54248 0.69057 0.0
C1375 C 0.10717 0.59527 0.62311 0.0
N1376 N 0.06222 0.56606 0.74082 0.0
N1377 N 0.11778 0.56376 0.56223 0.0
H1378 H 0.11293 0.64062 0.59852 0.0
H1379 H 0.13125 0.62468 0.56015 0.0
H1380 H 0.11916 0.54325 0.55111 0.0
H1381 H 0.12022 0.57926 0.53314 0.0
H1382 H 0.04952 0.54508 0.76247 0.0
H1383 H 0.05669 0.58437 0.74911 0.0
H1384 H 0.07498 0.51954 0.76105 0.0
H1385 H 0.08689 0.49982 0.71847 0.0
C1386 C 0.41019 0.51235 0.63415 0.0
C1387 C 0.40579 0.50225 0.68416 0.0
C1388 C 0.45908 0.5504 0.70493 0.0
C1389 C 0.46043 0.56327 0.65688 0.0
N1390 N 0.43767 0.55663 0.57512 0.0
N1391 N 0.42589 0.51008 0.76744 0.0
C1392 C 0.43626 0.54407 0.62114 0.0
C1393 C 0.43055 0.52049 0.7195 0.0
N1394 N 0.3896 0.49118 0.59903 0.0
N1395 N 0.48474 0.56704 0.73679 0.0
H1396 H 0.40602 0.48766 0.77851 0.0
H1397 H 0.44078 0.52402 0.79655 0.0
H1398 H 0.50524 0.58959 0.72818 0.0
H1399 H 0.48692 0.55757 0.77036 0.0
H1400 H 0.39307 0.49561 0.56126 0.0
H1401 H 0.37074 0.46753 0.60756 0.0
H1402 H 0.41871 0.54582 0.54942 0.0
H1403 H 0.45726 0.57898 0.56334 0.0
C1404 C 0.43717 0.88194 0.70527 0.0
C1405 C 0.43304 0.88935 0.65596 0.0
C1406 C 0.4901 0.90493 0.63688 0.0
C1407 C 0.49398 0.89669 0.68596 0.0
N1408 N 0.47457 0.88534 0.76961 0.0
N1409 N 0.45679 0.91469 0.57811 0.0
C1410 C 0.46847 0.88765 0.721 0.0
C1411 C 0.46003 0.90326 0.62288 0.0
N1412 N 0.41085 0.86866 0.73671 0.0
N1413 N 0.51445 0.91261 0.60297 0.0
H1414 H 0.43488 0.91317 0.56671 0.0
H1415 H 0.47627 0.92798 0.55398 0.0
H1416 H 0.53706 0.91492 0.61201 0.0
H1417 H 0.51175 0.91497 0.56533 0.0
H1418 H 0.4109 0.85874 0.77101 0.0
H1419 H 0.38814 0.86618 0.72758 0.0
H1420 H 0.45832 0.88187 0.79813 0.0
H1421 H 0.49749 0.8901 0.78177 0.0
C1422 C 0.23395 0.42731 0.22621 0.0
C1423 C 0.21582 0.43287 0.18961 0.0
C1424 C 0.24874 0.42641 0.12482 0.0
C1425 C 0.27057 0.42733 0.16157 0.0
N1426 N 0.28355 0.42609 0.2472 0.0
N1427 N 0.2038 0.43581 0.10401 0.0
C1428 C 0.26274 0.4265 0.21235 0.0
C1429 C 0.22221 0.43125 0.13875 0.0
N1430 N 0.22336 0.42266 0.27404 0.0
N1431 N 0.25366 0.42113 0.0768 0.0
H1432 H 0.18344 0.43804 0.11311 0.0
H1433 H 0.20927 0.43865 0.0665 0.0
H1434 H 0.27276 0.41719 0.06625 0.0
H1435 H 0.23748 0.41781 0.04825 0.0
H1436 H 0.23384 0.41607 0.30239 0.0
H1437 H 0.20191 0.42248 0.28443 0.0
H1438 H 0.28172 0.42953 0.28475 0.0
H1439 H 0.30358 0.42328 0.23817 0.0
C1440 C 0.57477 0.82825 0.2132 0.0
C1441 C 0.56894 0.83211 0.16281 0.0
C1442 C 0.56494 0.77933 0.14314 0.0
C1443 C 0.56541 0.77325 0.19422 0.0
N1444 N 0.57094 0.79104 0.27859 0.0
N1445 N 0.55816 0.81158 0.07956 0.0
C1446 C 0.57087 0.79768 0.22949 0.0
C1447 C 0.56433 0.80785 0.1276 0.0
N1448 N 0.58387 0.85373 0.2454 0.0
N1449 N 0.56517 0.75775 0.10957 0.0
H1450 H 0.55919 0.83288 0.06686 0.0
H1451 H 0.55049 0.79319 0.05302 0.0
H1452 H 0.56531 0.73648 0.11995 0.0
H1453 H 0.56809 0.76219 0.07176 0.0
H1454 H 0.59147 0.8537 0.28146 0.0
H1455 H 0.58636 0.87618 0.235 0.0
H1456 H 0.5708 0.806 0.30675 0.0
H1457 H 0.56959 0.76947 0.29134 0.0
C1458 C 0.19371 0.75463 0.1178 0.0
C1459 C 0.16936 0.73629 0.15359 0.0
C1460 C 0.20299 0.77634 0.2173 0.0
C1461 C 0.2294 0.79108 0.18334 0.0
N1462 N 0.25036 0.79606 0.10076 0.0
N1463 N 0.14977 0.72941 0.23743 0.0
C1464 C 0.22473 0.781 0.1332 0.0
C1465 C 0.17341 0.74745 0.20323 0.0
N1466 N 0.1868 0.74695 0.06905 0.0
N1467 N 0.20637 0.78995 0.263 0.0
H1468 H 0.12731 0.70895 0.22819 0.0
H1469 H 0.15282 0.73371 0.27525 0.0
H1470 H 0.2279 0.81087 0.27416 0.0
H1471 H 0.18721 0.78236 0.28822 0.0
H1472 H 0.20221 0.76075 0.04028 0.0
H1473 H 0.16394 0.72822 0.0573 0.0
H1474 H 0.25006 0.78756 0.06521 0.0
H1475 H 0.27276 0.81663 0.11018 0.0
C1476 C 0.24072 0.21494 0.23365 0.0
C1477 C 0.21818 0.22028 0.2057 0.0
C1478 C 0.19791 0.23225 0.28224 0.0
C1479 C 0.21912 0.22514 0.31004 0.0
N1480 N 0.26781 0.2209 0.31266 0.0
N1481 N 0.18175 0.2423 0.2019 0.0
C1482 C 0.24296 0.22023 0.28574 0.0
C1483 C 0.1989 0.23172 0.22967 0.0
N1484 N 0.25832 0.20266 0.2112 0.0
N1485 N 0.17598 0.23831 0.30637 0.0
H1486 H 0.18209 0.24214 0.16347 0.0
H1487 H 0.16951 0.25369 0.21646 0.0
H1488 H 0.17653 0.24132 0.34457 0.0
H1489 H 0.15679 0.23942 0.28908 0.0
H1490 H 0.27213 0.19463 0.23049 0.0
H1491 H 0.25743 0.19834 0.17337 0.0
H1492 H 0.28762 0.22008 0.29703 0.0
H1493 H 0.27036 0.22608 0.35038 0.0
C1494 C 0.7635 0.98027 0.22796 0.0
C1495 C 0.78829 0.00881 0.20432 0.0
C1496 C 0.80895 0.03443 0.28526 0.0
C1497 C 0.78833 0.00372 0.30863 0.0
N1498 N 0.74652 0.94652 0.30173 0.0
N1499 N 0.83346 0.06417 0.20927 0.0
C1500 C 0.76521 0.97652 0.28 0.0
C1501 C 0.81036 0.03642 0.23275 0.0
N1502 N 0.73828 0.95691 0.20048 0.0
N1503 N 0.82695 0.06176 0.31353 0.0
H1504 H 0.83336 0.06712 0.17113 0.0
H1505 H 0.85318 0.08372 0.22706 0.0
H1506 H 0.8265 0.06097 0.35193 0.0
H1507 H 0.84011 0.08548 0.2994 0.0
H1508 H 0.71783 0.93663 0.21567 0.0
H1509 H 0.73622 0.95993 0.16274 0.0
H1510 H 0.73212 0.92502 0.28191 0.0
H1511 H 0.74712 0.94252 0.33943 0.0
C1512 C 0.00862 0.83051 0.27575 0.0
C1513 C 0.00543 0.80325 0.30292 0.0
C1514 C 0.00503 0.77755 0.22299 0.0
C1515 C 1.00215 0.80243 0.19713 0.0
N1516 N 0.9878 0.84506 0.20528 0.0
N1517 N 0.9945 0.74724 0.2999 0.0
C1518 C 0.99983 0.82659 0.22542 0.0
C1519 C 1.00195 0.77563 0.27591 0.0
N1520 N 0.02135 0.86078 0.29703 0.0
N1521 N 0.01192 0.75658 0.19791 0.0
H1522 H 0.99072 0.7443 0.33787 0.0
H1523 H 0.98886 0.72564 0.28134 0.0
H1524 H 0.01574 0.75798 0.15991 0.0
H1525 H 0.01715 0.74007 0.21562 0.0
H1526 H 0.02562 0.88148 0.27695 0.0
H1527 H 0.0318 0.86601 0.33219 0.0
H1528 H 0.98415 0.86158 0.22621 0.0
H1529 H 0.97723 0.84055 0.17023 0.0
C1530 C 0.7868 0.76881 0.78056 0.0
C1531 C 0.78492 0.7949 0.80336 0.0
C1532 C 0.78161 0.81559 0.72147 0.0
C1533 C 0.79004 0.7935 0.69896 0.0
N1534 N 0.80252 0.7498 0.70788 0.0
N1535 N 0.77971 0.84306 0.79617 0.0
C1536 C 0.79251 0.76981 0.72857 0.0
C1537 C 0.78164 0.81801 0.77389 0.0
N1538 N 0.78316 0.74314 0.80871 0.0
N1539 N 0.77315 0.83398 0.69253 0.0
H1540 H 0.77772 0.84444 0.83433 0.0
H1541 H 0.78163 0.8632 0.77723 0.0
H1542 H 0.77282 0.83273 0.65413 0.0
H1543 H 0.7636 0.84812 0.70634 0.0
H1544 H 0.78158 0.72195 0.79404 0.0
H1545 H 0.77807 0.74166 0.8464 0.0
H1546 H 0.80844 0.73479 0.72846 0.0
H1547 H 0.80738 0.74992 0.67035 0.0
C1548 C 0.21093 0.977 0.72561 0.0
C1549 C 0.22349 0.00843 0.70389 0.0
C1550 C 0.24014 0.03349 0.78586 0.0
C1551 C 0.22058 0.00218 0.80765 0.0
N1552 N 0.18876 0.9434 0.79909 0.0
N1553 N 0.25201 0.06724 0.7125 0.0
C1554 C 0.20678 0.97361 0.77776 0.0
C1555 C 0.23917 0.03696 0.73376 0.0
N1556 N 0.20366 0.95067 0.69624 0.0
N1557 N 0.2601 0.05961 0.81506 0.0
H1558 H 0.25304 0.07049 0.67433 0.0
H1559 H 0.26029 0.08883 0.7326 0.0
H1560 H 0.26274 0.05679 0.85267 0.0
H1561 H 0.27669 0.0828 0.80136 0.0
H1562 H 0.19639 0.9273 0.7098 0.0
H1563 H 0.20877 0.95334 0.65851 0.0
H1564 H 0.17477 0.9219 0.77906 0.0
H1565 H 0.18677 0.94014 0.83728 0.0
C1566 C 0.97482 0.20456 0.72754 0.0
C1567 C 0.00307 0.2108 0.69977 0.0
C1568 C 0.03501 0.22256 0.77661 0.0
C1569 C 0.0065 0.21524 0.80421 0.0
N1570 N 0.95287 0.20941 0.8064 0.0
N1571 N 0.06169 0.23311 0.69663 0.0
C1572 C 0.97756 0.2096 0.77968 0.0
C1573 C 0.03373 0.22222 0.72405 0.0
N1574 N 0.94493 0.19175 0.70481 0.0
N1575 N 0.06302 0.22872 0.80089 0.0
H1576 H 0.06144 0.23282 0.65822 0.0
H1577 H 0.08529 0.24477 0.71144 0.0
H1578 H 0.06542 0.23159 0.8391 0.0
H1579 H 0.08337 0.22988 0.78371 0.0
H1580 H 0.92289 0.18315 0.72388 0.0
H1581 H 0.94169 0.1874 0.66696 0.0
H1582 H 0.93204 0.20809 0.79068 0.0
H1583 H 0.95527 0.21439 0.84412 0.0
C1584 C 0.85277 0.50963 0.56839 0.0
C1585 C 0.87732 0.53561 0.53964 0.0
C1586 C 0.90403 0.56335 0.61783 0.0
C1587 C 0.87621 0.53973 0.64513 0.0
N1588 N 0.81865 0.49786 0.64004 0.0
N1589 N 0.92349 0.59123 0.53912 0.0
C1590 C 0.84889 0.51521 0.61846 0.0
C1591 C 0.90229 0.56373 0.56487 0.0
N1592 N 0.83393 0.47894 0.54897 0.0
N1593 N 0.93244 0.58455 0.64166 0.0
H1594 H 0.92219 0.59322 0.50101 0.0
H1595 H 0.94009 0.61319 0.55633 0.0
H1596 H 0.93519 0.58431 0.67978 0.0
H1597 H 0.9542 0.60009 0.623 0.0
H1598 H 0.81719 0.45906 0.57026 0.0
H1599 H 0.83829 0.47239 0.5142 0.0
H1600 H 0.79783 0.4812 0.62031 0.0
H1601 H 0.81356 0.50333 0.67511 0.0
C1602 C 0.47899 0.37071 0.56565 0.0
C1603 C 0.45946 0.34202 0.5374 0.0
C1604 C 0.43757 0.3098 0.61351 0.0
C1605 C 0.45843 0.33816 0.64197 0.0
N1606 N 0.49259 0.39694 0.64622 0.0
N1607 N 0.41287 0.28759 0.53349 0.0
C1608 C 0.47703 0.3691 0.61823 0.0
C1609 C 0.43627 0.31263 0.56118 0.0
N1610 N 0.5003 0.3992 0.54199 0.0
N1611 N 0.42073 0.27979 0.63589 0.0
H1612 H 0.41096 0.28989 0.4955 0.0
H1613 H 0.39345 0.26634 0.54851 0.0
H1614 H 0.4209 0.27657 0.67392 0.0
H1615 H 0.4083 0.25777 0.61655 0.0
H1616 H 0.51843 0.42005 0.55976 0.0
H1617 H 0.50028 0.40155 0.50374 0.0
H1618 H 0.50421 0.42061 0.63174 0.0
H1619 H 0.49154 0.39637 0.68464 0.0
C1620 C 0.66494 0.10489 0.61889 0.0
C1621 C 0.66559 0.13146 0.64516 0.0
C1622 C 0.65661 0.152 0.56722 0.0
C1623 C 0.66139 0.12908 0.53963 0.0
N1624 N 0.67661 0.08697 0.5412 0.0
N1625 N 0.67491 0.18686 0.6386 0.0
C1626 C 0.66736 0.10629 0.56595 0.0
C1627 C 0.66541 0.15703 0.61757 0.0
N1628 N 0.66085 0.07787 0.64374 0.0
N1629 N 0.64229 0.16816 0.54628 0.0
H1630 H 0.68493 0.19306 0.67398 0.0
H1631 H 0.67699 0.20666 0.61832 0.0
H1632 H 0.63208 0.16278 0.51097 0.0
H1633 H 0.63661 0.18349 0.56661 0.0
H1634 H 0.6571 0.05665 0.62588 0.0
H1635 H 0.65806 0.07547 0.68192 0.0
H1636 H 0.68405 0.07219 0.55914 0.0
H1637 H 0.68005 0.08816 0.50312 0.0
C1638 C 0.44581 0.14553 0.10342 0.0
C1639 C 0.45023 0.12294 0.13239 0.0
C1640 C 0.45661 0.09753 0.05703 0.0
C1641 C 0.45314 0.12079 0.0279 0.0
N1642 N 0.43559 0.1608 0.02269 0.0
N1643 N 0.44995 0.07188 0.13749 0.0
C1644 C 0.44479 0.14276 0.05105 0.0
C1645 C 0.45222 0.09698 0.1093 0.0
N1646 N 0.44385 0.17045 0.12607 0.0
N1647 N 0.46632 0.07754 0.03542 0.0
H1648 H 0.44609 0.0708 0.17553 0.0
H1649 H 0.44843 0.05072 0.1228 0.0
H1650 H 0.46997 0.07723 0.99754 0.0
H1651 H 0.47301 0.06288 0.05534 0.0
H1652 H 0.44494 0.19027 0.10728 0.0
H1653 H 0.44267 0.17212 0.16433 0.0
H1654 H 0.42606 0.17484 0.03697 0.0
H1655 H 0.43475 0.15937 0.98433 0.0
C1656 C 0.85512 0.29663 0.10523 0.0
C1657 C 0.87603 0.32255 0.13742 0.0
C1658 C 0.90367 0.35815 0.06608 0.0
C1659 C 0.88171 0.33269 0.03393 0.0
N1660 N 0.84339 0.2753 0.02141 0.0
N1661 N 0.92608 0.37392 0.14897 0.0
C1662 C 0.85971 0.30106 0.0532 0.0
C1663 C 0.90241 0.35194 0.11788 0.0
N1664 N 0.83011 0.26821 0.12452 0.0
N1665 N 0.92417 0.38883 0.04764 0.0
H1666 H 0.92581 0.36964 0.18679 0.0
H1667 H 0.94746 0.3946 0.1369 0.0
H1668 H 0.92616 0.3942 0.01004 0.0
H1669 H 0.93781 0.4094 0.06969 0.0
H1670 H 0.81147 0.24985 0.10338 0.0
H1671 H 0.82726 0.26362 0.16238 0.0
H1672 H 0.82902 0.25101 0.03274 0.0
H1673 H 0.84677 0.27795 0.98324 0.0
C1674 C 0.7083 0.55076 0.1112 0.0
C1675 C 0.68277 0.54889 0.14141 0.0
C1676 C 0.65053 0.54459 0.06739 0.0
C1677 C 0.67586 0.54579 0.03708 0.0
N1678 N 0.73239 0.55942 0.02959 0.0
N1679 N 0.63458 0.55402 0.14851 0.0
C1680 C 0.70592 0.55198 0.05897 0.0
C1681 C 0.65558 0.54928 0.11949 0.0
N1682 N 0.7344 0.55025 0.13248 0.0
N1683 N 0.62084 0.53672 0.04716 0.0
H1684 H 0.63821 0.55808 0.18641 0.0
H1685 H 0.61583 0.55736 0.13452 0.0
H1686 H 0.61593 0.53281 0.00953 0.0
H1687 H 0.60026 0.53168 0.0681 0.0
H1688 H 0.75167 0.5472 0.11268 0.0
H1689 H 0.73786 0.55118 0.17057 0.0
H1690 H 0.75595 0.56746 0.04309 0.0
H1691 H 0.73141 0.56049 0.99129 0.0
C1692 C 0.57195 0.87627 0.95226 0.0
C1693 C 0.55381 0.88901 0.97577 0.0
C1694 C 0.54299 0.90506 0.8949 0.0
C1695 C 0.55389 0.88522 0.87178 0.0
N1696 N 0.58072 0.85315 0.87761 0.0
N1697 N 0.52337 0.9175 0.97019 0.0
C1698 C 0.5695 0.87161 0.90016 0.0
C1699 C 0.54019 0.90456 0.9473 0.0
N1700 N 0.59186 0.86921 0.97993 0.0
N1701 N 0.53594 0.92473 0.86663 0.0
H1702 H 0.52224 0.91877 0.00851 0.0
H1703 H 0.50949 0.92565 0.95131 0.0
H1704 H 0.5401 0.92692 0.82864 0.0
H1705 H 0.52989 0.9415 0.88118 0.0
H1706 H 0.60751 0.86181 0.96497 0.0
H1707 H 0.59543 0.87466 0.01753 0.0
H1708 H 0.5888 0.83936 0.89684 0.0
H1709 H 0.58051 0.85048 0.83936 0.0
C1710 C 0.11653 0.68664 0.9464 0.0
C1711 C 0.11267 0.65823 0.97057 0.0
C1712 C 0.10152 0.63006 0.89054 0.0
C1713 C 0.11193 0.66038 0.86585 0.0
N1714 N 0.13043 0.71833 0.87063 0.0
N1715 N 0.1001 0.60206 0.96667 0.0
C1716 C 0.11905 0.6888 0.89381 0.0
C1717 C 0.1042 0.62949 0.94292 0.0
N1718 N 0.11765 0.71147 0.97393 0.0
N1719 N 0.08892 0.60178 0.8636 0.0
H1720 H 0.10011 0.60032 0.00507 0.0
H1721 H 0.09809 0.58163 0.94856 0.0
H1722 H 0.08659 0.60164 0.82536 0.0
H1723 H 0.07812 0.57843 0.87913 0.0
H1724 H 0.11774 0.73184 0.95872 0.0
H1725 H 0.11481 0.70975 0.0122 0.0
H1726 H 0.13982 0.74055 0.88939 0.0
H1727 H 0.13254 0.72106 0.83242 0.0
C1728 C 0.33804 0.44113 0.95032 0.0
C1729 C 0.34119 0.46846 0.9777 0.0
C1730 C 0.33505 0.49191 0.90064 0.0
C1731 C 0.33773 0.46803 0.8721 0.0
N1732 N 0.34883 0.42303 0.87222 0.0
N1733 N 0.35576 0.52566 0.9729 0.0
C1734 C 0.34122 0.4434 0.89754 0.0
C1735 C 0.34373 0.49564 0.95106 0.0
N1736 N 0.33073 0.41262 0.97381 0.0
N1737 N 0.32273 0.51018 0.88073 0.0
H1738 H 0.36602 0.53082 0.00818 0.0
H1739 H 0.35966 0.54638 0.95322 0.0
H1740 H 0.31225 0.50577 0.84564 0.0
H1741 H 0.31873 0.52641 0.90184 0.0
H1742 H 0.32532 0.39123 0.95481 0.0
H1743 H 0.32659 0.40926 0.01167 0.0
H1744 H 0.3544 0.4067 0.88978 0.0
H1745 H 0.35306 0.42487 0.83431 0.0
C1746 C 0.15212 0.4497 0.4523 0.0
C1747 C 0.12925 0.45722 0.47435 0.0
C1748 C 0.10637 0.45597 0.39196 0.0
C1749 C 0.133 0.45455 0.36996 0.0
N1750 N 0.18138 0.44969 0.3786 0.0
N1751 N 0.08542 0.46945 0.46482 0.0
C1752 C 0.15568 0.4509 0.40005 0.0
C1753 C 0.10611 0.46026 0.44419 0.0
N1754 N 0.17021 0.44102 0.48155 0.0
N1755 N 0.08145 0.45334 0.36288 0.0
H1756 H 0.08451 0.47301 0.50261 0.0
H1757 H 0.07078 0.47584 0.44421 0.0
H1758 H 0.08097 0.44976 0.32484 0.0
H1759 H 0.05988 0.45135 0.37681 0.0
H1760 H 0.18482 0.43193 0.46802 0.0
H1761 H 0.16826 0.44011 0.51986 0.0
H1762 H 0.20119 0.45137 0.39825 0.0
H1763 H 0.18374 0.44866 0.34049 0.0
C1764 C 0.52955 0.63788 0.39935 0.0
C1765 C 0.54991 0.66837 0.37528 0.0
C1766 C 0.57362 0.69323 0.45582 0.0
C1767 C 0.54901 0.66477 0.47992 0.0
N1768 N 0.50478 0.60886 0.4757 0.0
N1769 N 0.59076 0.72593 0.38095 0.0
C1770 C 0.52761 0.6366 0.45189 0.0
C1771 C 0.5723 0.69619 0.4035 0.0
N1772 N 0.51235 0.61008 0.37171 0.0
N1773 N 0.59847 0.71717 0.48307 0.0
H1774 H 0.59057 0.72923 0.34295 0.0
H1775 H 0.60457 0.7478 0.40021 0.0
H1776 H 0.6005 0.71443 0.52085 0.0
H1777 H 0.61875 0.73753 0.46771 0.0
H1778 H 0.49941 0.58653 0.38647 0.0
H1779 H 0.51333 0.61036 0.33331 0.0
H1780 H 0.48548 0.58885 0.45803 0.0
H1781 H 0.50464 0.60637 0.51395 0.0
C1782 C 0.29981 0.86425 0.39745 0.0
C1783 C 0.32895 0.87904 0.36878 0.0
C1784 C 0.36235 0.89662 0.44402 0.0
C1785 C 0.33324 0.88013 0.47263 0.0
N1786 N 0.27524 0.86004 0.47791 0.0
N1787 N 0.38625 0.91964 0.36412 0.0
C1788 C 0.30218 0.86769 0.44969 0.0
C1789 C 0.35978 0.89863 0.39194 0.0
N1790 N 0.27004 0.84603 0.37489 0.0
N1791 N 0.3923 0.90925 0.46637 0.0
H1792 H 0.38395 0.92311 0.32662 0.0
H1793 H 0.40908 0.93624 0.37899 0.0
H1794 H 0.39491 0.90934 0.5046 0.0
H1795 H 0.41427 0.91817 0.44696 0.0
H1796 H 0.24826 0.83146 0.39407 0.0
H1797 H 0.26751 0.84442 0.3366 0.0
H1798 H 0.2521 0.8528 0.46331 0.0
H1799 H 0.27722 0.865 0.51567 0.0
loop_
_geom_bond_atom_site_label_1
_geom_bond_atom_site_label_2
_geom_bond_distance
_geom_bond_site_symmetry_2
_ccdc_geom_bond_type
Co0 O1 2.216 1_554 S
Co0 O2 2.091 . S
Co0 O4 2.004 . S
Co0 O10 2.021 . S
Co0 O12 2.137 . S
Co0 O13 2.244 . S
O1 Co0 2.216 1_556 S
O1 C8 1.247 . S
O2 Co0 2.091 . S
O2 C8 1.261 1_554 S
C3 O12 1.247 . S
C3 O13 1.272 . S
O4 Co0 2.004 . S
O4 C9 1.259 . S
Co5 O6 2.061 . S
Co5 O11 2.052 . S
Co5 O13 2.135 . S
O6 Co5 2.061 . S
O6 C9 1.235 . S
C7 O10 1.238 . S
C7 O11 1.241 . S
C8 O1 1.247 . S
C8 O2 1.261 1_556 S
C9 O4 1.259 . S
C9 O6 1.235 . S
O10 Co0 2.021 . S
O10 C7 1.238 . S
O11 Co5 2.052 . S
O11 C7 1.241 . S
O12 Co0 2.137 . S
O12 C3 1.247 . S
O13 Co0 2.244 . S
O13 C3 1.272 . S
O13 Co5 2.135 . S
Co14 O15 2.216 1_554 S
Co14 O16 2.091 . S
Co14 O18 2.004 . S
Co14 O24 2.021 . S
Co14 O26 2.137 1_545 S
Co14 O27 2.244 1_545 S
O15 Co14 2.216 1_556 S
O15 C22 1.247 . S
O16 Co14 2.091 . S
O16 C22 1.261 1_554 S
C17 O26 1.247 . S
C17 O27 1.272 . S
O18 Co14 2.004 . S
O18 C23 1.259 . S
Co19 O20 2.061 . S
Co19 O25 2.052 . S
Co19 O27 2.135 1_545 S
O20 Co19 2.061 . S
O20 C23 1.235 . S
C21 O24 1.238 . S
C21 O25 1.241 . S
C22 O15 1.247 . S
C22 O16 1.261 1_556 S
C23 O18 1.259 . S
C23 O20 1.235 . S
O24 Co14 2.021 . S
O24 C21 1.238 . S
O25 Co19 2.052 . S
O25 C21 1.241 . S
O26 Co14 2.137 1_565 S
O26 C17 1.247 . S
O27 Co14 2.244 1_565 S
O27 C17 1.272 . S
O27 Co19 2.135 1_565 S
Co28 O29 2.216 1_554 S
Co28 O30 2.091 . S
Co28 O32 2.004 . S
Co28 O38 2.021 . S
Co28 O40 2.137 1_655 S
Co28 O41 2.244 1_655 S
O29 Co28 2.216 1_556 S
O29 C36 1.247 . S
O30 Co28 2.091 . S
O30 C36 1.261 1_554 S
C31 O40 1.247 . S
C31 O41 1.272 . S
O32 Co28 2.004 . S
O32 C37 1.259 . S
Co33 O34 2.061 . S
Co33 O39 2.052 . S
Co33 O41 2.135 1_655 S
O34 Co33 2.061 . S
O34 C37 1.235 . S
C35 O38 1.238 . S
C35 O39 1.241 . S
C36 O29 1.247 . S
C36 O30 1.261 1_556 S
C37 O32 1.259 . S
C37 O34 1.235 . S
O38 Co28 2.021 . S
O38 C35 1.238 . S
O39 Co33 2.052 . S
O39 C35 1.241 . S
O40 Co28 2.137 1_455 S
O40 C31 1.247 . S
O41 Co28 2.244 1_455 S
O41 C31 1.272 . S
O41 Co33 2.135 1_455 S
Co42 O43 2.216 . S
Co42 O44 2.091 . S
Co42 O46 2.004 . S
Co42 O52 2.021 . S
Co42 O54 2.137 . S
Co42 O55 2.244 . S
O43 Co42 2.216 . S
O43 C50 1.247 . S
O44 Co42 2.091 . S
O44 C50 1.261 . S
C45 O54 1.247 . S
C45 O55 1.272 . S
O46 Co42 2.004 . S
O46 C51 1.259 . S
Co47 O48 2.061 . S
Co47 O53 2.052 . S
Co47 O55 2.135 . S
O48 Co47 2.061 . S
O48 C51 1.235 . S
C49 O52 1.238 . S
C49 O53 1.241 . S
C50 O43 1.247 . S
C50 O44 1.261 . S
C51 O46 1.259 . S
C51 O48 1.235 . S
O52 Co42 2.021 . S
O52 C49 1.238 . S
O53 Co47 2.052 . S
O53 C49 1.241 . S
O54 Co42 2.137 . S
O54 C45 1.247 . S
O55 Co42 2.244 . S
O55 C45 1.272 . S
O55 Co47 2.135 . S
Co56 O57 2.216 . S
Co56 O58 2.091 . S
Co56 O60 2.004 . S
Co56 O66 2.021 . S
Co56 O68 2.137 1_565 S
Co56 O69 2.244 1_565 S
O57 Co56 2.216 . S
O57 C64 1.247 . S
O58 Co56 2.091 . S
O58 C64 1.261 . S
C59 O68 1.247 . S
C59 O69 1.272 . S
O60 Co56 2.004 . S
O60 C65 1.259 . S
Co61 O62 2.061 . S
Co61 O67 2.052 . S
Co61 O69 2.135 1_565 S
O62 Co61 2.061 . S
O62 C65 1.235 . S
C63 O66 1.238 . S
C63 O67 1.241 . S
C64 O57 1.247 . S
C64 O58 1.261 . S
C65 O60 1.259 . S
C65 O62 1.235 . S
O66 Co56 2.021 . S
O66 C63 1.238 . S
O67 Co61 2.052 . S
O67 C63 1.241 . S
O68 Co56 2.137 1_545 S
O68 C59 1.247 . S
O69 Co56 2.244 1_545 S
O69 C59 1.272 . S
O69 Co61 2.135 1_545 S
Co70 O71 2.216 . S
Co70 O72 2.091 . S
Co70 O74 2.004 . S
Co70 O80 2.021 . S
Co70 O82 2.137 1_455 S
Co70 O83 2.244 1_455 S
O71 Co70 2.216 . S
O71 C78 1.247 . S
O72 Co70 2.091 . S
O72 C78 1.261 . S
C73 O82 1.247 . S
C73 O83 1.272 . S
O74 Co70 2.004 . S
O74 C79 1.259 . S
Co75 O76 2.061 . S
Co75 O81 2.052 . S
Co75 O83 2.135 1_455 S
O76 Co75 2.061 . S
O76 C79 1.235 . S
C77 O80 1.238 . S
C77 O81 1.241 . S
C78 O71 1.247 . S
C78 O72 1.261 . S
C79 O74 1.259 . S
C79 O76 1.235 . S
O80 Co70 2.021 . S
O80 C77 1.238 . S
O81 Co75 2.052 . S
O81 C77 1.241 . S
O82 Co70 2.137 1_655 S
O82 C73 1.247 . S
O83 Co70 2.244 1_655 S
O83 C73 1.272 . S
O83 Co75 2.135 1_655 S
Co84 O85 2.216 1_556 S
Co84 O86 2.091 . S
Co84 O88 2.004 . S
Co84 O94 2.021 . S
Co84 O96 2.137 . S
Co84 O97 2.244 . S
O85 Co84 2.216 1_554 S
O85 C92 1.247 . S
O86 Co84 2.091 . S
O86 C92 1.261 1_556 S
C87 O96 1.247 . S
C87 O97 1.272 . S
O88 Co84 2.004 . S
O88 C93 1.259 . S
Co89 O90 2.061 . S
Co89 O95 2.052 . S
Co89 O97 2.135 . S
O90 Co89 2.061 . S
O90 C93 1.235 . S
C91 O94 1.238 . S
C91 O95 1.241 . S
C92 O85 1.247 . S
C92 O86 1.261 1_554 S
C93 O88 1.259 . S
C93 O90 1.235 . S
O94 Co84 2.021 . S
O94 C91 1.238 . S
O95 Co89 2.052 . S
O95 C91 1.241 . S
O96 Co84 2.137 . S
O96 C87 1.247 . S
O97 Co84 2.244 . S
O97 C87 1.272 . S
O97 Co89 2.135 . S
Co98 O99 2.216 1_556 S
Co98 O100 2.091 . S
Co98 O102 2.004 . S
Co98 O108 2.021 . S
Co98 O110 2.137 1_565 S
Co98 O111 2.244 1_565 S
O99 Co98 2.216 1_554 S
O99 C106 1.247 . S
O100 Co98 2.091 . S
O100 C106 1.261 1_556 S
C101 O110 1.247 . S
C101 O111 1.272 . S
O102 Co98 2.004 . S
O102 C107 1.259 . S
Co103 O104 2.061 . S
Co103 O109 2.052 . S
Co103 O111 2.135 1_565 S
O104 Co103 2.061 . S
O104 C107 1.235 . S
C105 O108 1.238 . S
C105 O109 1.241 . S
C106 O99 1.247 . S
C106 O100 1.261 1_554 S
C107 O102 1.259 . S
C107 O104 1.235 . S
O108 Co98 2.021 . S
O108 C105 1.238 . S
O109 Co103 2.052 . S
O109 C105 1.241 . S
O110 Co98 2.137 1_545 S
O110 C101 1.247 . S
O111 Co98 2.244 1_545 S
O111 C101 1.272 . S
O111 Co103 2.135 1_545 S
Co112 O113 2.216 1_556 S
Co112 O114 2.091 . S
Co112 O116 2.004 . S
Co112 O122 2.021 . S
Co112 O124 2.137 1_455 S
Co112 O125 2.244 1_455 S
O113 Co112 2.216 1_554 S
O113 C120 1.247 . S
O114 Co112 2.091 . S
O114 C120 1.261 1_556 S
C115 O124 1.247 . S
C115 O125 1.272 . S
O116 Co112 2.004 . S
O116 C121 1.259 . S
Co117 O118 2.061 . S
Co117 O123 2.052 . S
Co117 O125 2.135 1_455 S
O118 Co117 2.061 . S
O118 C121 1.235 . S
C119 O122 1.238 . S
C119 O123 1.241 . S
C120 O113 1.247 . S
C120 O114 1.261 1_554 S
C121 O116 1.259 . S
C121 O118 1.235 . S
O122 Co112 2.021 . S
O122 C119 1.238 . S
O123 Co117 2.052 . S
O123 C119 1.241 . S
O124 Co112 2.137 1_655 S
O124 C115 1.247 . S
O125 Co112 2.244 1_655 S
O125 C115 1.272 . S
O125 Co117 2.135 1_655 S
Co126 O127 2.216 . S
Co126 O128 2.091 . S
Co126 O130 2.004 . S
Co126 O136 2.021 . S
Co126 O138 2.137 . S
Co126 O139 2.244 . S
O127 Co126 2.216 . S
O127 C134 1.247 . S
O128 Co126 2.091 . S
O128 C134 1.261 . S
C129 O138 1.247 . S
C129 O139 1.272 . S
O130 Co126 2.004 . S
O130 C135 1.259 . S
Co131 O132 2.061 . S
Co131 O137 2.052 . S
Co131 O139 2.135 . S
O132 Co131 2.061 . S
O132 C135 1.235 . S
C133 O136 1.238 . S
C133 O137 1.241 . S
C134 O127 1.247 . S
C134 O128 1.261 . S
C135 O130 1.259 . S
C135 O132 1.235 . S
O136 Co126 2.021 . S
O136 C133 1.238 . S
O137 Co131 2.052 . S
O137 C133 1.241 . S
O138 Co126 2.137 . S
O138 C129 1.247 . S
O139 Co126 2.244 . S
O139 C129 1.272 . S
O139 Co131 2.135 . S
Co140 O141 2.216 . S
Co140 O142 2.091 . S
Co140 O144 2.004 . S
Co140 O150 2.021 . S
Co140 O152 2.137 1_545 S
Co140 O153 2.244 1_545 S
O141 Co140 2.216 . S
O141 C148 1.247 . S
O142 Co140 2.091 . S
O142 C148 1.261 . S
C143 O152 1.247 . S
C143 O153 1.272 . S
O144 Co140 2.004 . S
O144 C149 1.259 . S
Co145 O146 2.061 . S
Co145 O151 2.052 . S
Co145 O153 2.135 1_545 S
O146 Co145 2.061 . S
O146 C149 1.235 . S
C147 O150 1.238 . S
C147 O151 1.241 . S
C148 O141 1.247 . S
C148 O142 1.261 . S
C149 O144 1.259 . S
C149 O146 1.235 . S
O150 Co140 2.021 . S
O150 C147 1.238 . S
O151 Co145 2.052 . S
O151 C147 1.241 . S
O152 Co140 2.137 1_565 S
O152 C143 1.247 . S
O153 Co140 2.244 1_565 S
O153 C143 1.272 . S
O153 Co145 2.135 1_565 S
Co154 O155 2.216 . S
Co154 O156 2.091 . S
Co154 O158 2.004 . S
Co154 O164 2.021 . S
Co154 O166 2.137 1_655 S
Co154 O167 2.244 1_655 S
O155 Co154 2.216 . S
O155 C162 1.247 . S
O156 Co154 2.091 . S
O156 C162 1.261 . S
C157 O166 1.247 . S
C157 O167 1.272 . S
O158 Co154 2.004 . S
O158 C163 1.259 . S
Co159 O160 2.061 . S
Co159 O165 2.052 . S
Co159 O167 2.135 1_655 S
O160 Co159 2.061 . S
O160 C163 1.235 . S
C161 O164 1.238 . S
C161 O165 1.241 . S
C162 O155 1.247 . S
C162 O156 1.261 . S
C163 O158 1.259 . S
C163 O160 1.235 . S
O164 Co154 2.021 . S
O164 C161 1.238 . S
O165 Co159 2.052 . S
O165 C161 1.241 . S
O166 Co154 2.137 1_455 S
O166 C157 1.247 . S
O167 Co154 2.244 1_455 S
O167 C157 1.272 . S
O167 Co159 2.135 1_455 S
Co168 O169 2.216 . S
Co168 O170 2.091 . S
Co168 O172 2.004 . S
Co168 O178 2.021 . S
Co168 O180 2.137 . S
Co168 O181 2.244 . S
O169 Co168 2.216 . S
O169 C176 1.247 . S
O170 Co168 2.091 . S
O170 C176 1.261 . S
C171 O180 1.247 . S
C171 O181 1.272 . S
O172 Co168 2.004 . S
O172 C177 1.259 . S
Co173 O174 2.061 . S
Co173 O179 2.052 . S
Co173 O181 2.135 . S
O174 Co173 2.061 . S
O174 C177 1.235 . S
C175 O178 1.238 . S
C175 O179 1.241 . S
C176 O169 1.247 . S
C176 O170 1.261 . S
C177 O172 1.259 . S
C177 O174 1.235 . S
O178 Co168 2.021 . S
O178 C175 1.238 . S
O179 Co173 2.052 . S
O179 C175 1.241 . S
O180 Co168 2.137 . S
O180 C171 1.247 . S
O181 Co168 2.244 . S
O181 C171 1.272 . S
O181 Co173 2.135 . S
Co182 O183 2.216 . S
Co182 O184 2.091 . S
Co182 O186 2.004 . S
Co182 O192 2.021 . S
Co182 O194 2.137 . S
Co182 O195 2.244 . S
O183 Co182 2.216 . S
O183 C190 1.247 . S
O184 Co182 2.091 . S
O184 C190 1.261 . S
C185 O194 1.247 . S
C185 O195 1.272 . S
O186 Co182 2.004 . S
O186 C191 1.259 . S
Co187 O188 2.061 . S
Co187 O193 2.052 . S
Co187 O195 2.135 . S
O188 Co187 2.061 . S
O188 C191 1.235 . S
C189 O192 1.238 . S
C189 O193 1.241 . S
C190 O183 1.247 . S
C190 O184 1.261 . S
C191 O186 1.259 . S
C191 O188 1.235 . S
O192 Co182 2.021 . S
O192 C189 1.238 . S
O193 Co187 2.052 . S
O193 C189 1.241 . S
O194 Co182 2.137 . S
O194 C185 1.247 . S
O195 Co182 2.244 . S
O195 C185 1.272 . S
O195 Co187 2.135 . S
Co196 O197 2.216 . S
Co196 O198 2.091 . S
Co196 O200 2.004 . S
Co196 O206 2.021 . S
Co196 O208 2.137 . S
Co196 O209 2.244 . S
O197 Co196 2.216 . S
O197 C204 1.247 . S
O198 Co196 2.091 . S
O198 C204 1.261 . S
C199 O208 1.247 . S
C199 O209 1.272 . S
O200 Co196 2.004 . S
O200 C205 1.259 . S
Co201 O202 2.061 . S
Co201 O207 2.052 . S
Co201 O209 2.135 . S
O202 Co201 2.061 . S
O202 C205 1.235 . S
C203 O206 1.238 . S
C203 O207 1.241 . S
C204 O197 1.247 . S
C204 O198 1.261 . S
C205 O200 1.259 . S
C205 O202 1.235 . S
O206 Co196 2.021 . S
O206 C203 1.238 . S
O207 Co201 2.052 . S
O207 C203 1.241 . S
O208 Co196 2.137 . S
O208 C199 1.247 . S
O209 Co196 2.244 . S
O209 C199 1.272 . S
O209 Co201 2.135 . S
Co210 O211 2.216 . S
Co210 O212 2.091 . S
Co210 O214 2.004 . S
Co210 O220 2.021 . S
Co210 O222 2.137 . S
Co210 O223 2.244 . S
O211 Co210 2.216 . S
O211 C218 1.247 . S
O212 Co210 2.091 . S
O212 C218 1.261 . S
C213 O222 1.247 . S
C213 O223 1.272 . S
O214 Co210 2.004 . S
O214 C219 1.259 . S
Co215 O216 2.061 . S
Co215 O221 2.052 . S
Co215 O223 2.135 . S
O216 Co215 2.061 . S
O216 C219 1.235 . S
C217 O220 1.238 . S
C217 O221 1.241 . S
C218 O211 1.247 . S
C218 O212 1.261 . S
C219 O214 1.259 . S
C219 O216 1.235 . S
O220 Co210 2.021 . S
O220 C217 1.238 . S
O221 Co215 2.052 . S
O221 C217 1.241 . S
O222 Co210 2.137 . S
O222 C213 1.247 . S
O223 Co210 2.244 . S
O223 C213 1.272 . S
O223 Co215 2.135 . S
Co224 O225 2.216 . S
Co224 O226 2.091 . S
Co224 O228 2.004 . S
Co224 O234 2.021 . S
Co224 O236 2.137 . S
Co224 O237 2.244 . S
O225 Co224 2.216 . S
O225 C232 1.247 . S
O226 Co224 2.091 . S
O226 C232 1.261 . S
C227 O236 1.247 . S
C227 O237 1.272 . S
O228 Co224 2.004 . S
O228 C233 1.259 . S
Co229 O230 2.061 . S
Co229 O235 2.052 . S
Co229 O237 2.135 . S
O230 Co229 2.061 . S
O230 C233 1.235 . S
C231 O234 1.238 . S
C231 O235 1.241 . S
C232 O225 1.247 . S
C232 O226 1.261 . S
C233 O228 1.259 . S
C233 O230 1.235 . S
O234 Co224 2.021 . S
O234 C231 1.238 . S
O235 Co229 2.052 . S
O235 C231 1.241 . S
O236 Co224 2.137 . S
O236 C227 1.247 . S
O237 Co224 2.244 . S
O237 C227 1.272 . S
O237 Co229 2.135 . S
Co238 O239 2.216 . S
Co238 O240 2.091 . S
Co238 O242 2.004 . S
Co238 O248 2.021 . S
Co238 O250 2.137 . S
Co238 O251 2.244 . S
O239 Co238 2.216 . S
O239 C246 1.247 . S
O240 Co238 2.091 . S
O240 C246 1.261 . S
C241 O250 1.247 . S
C241 O251 1.272 . S
O242 Co238 2.004 . S
O242 C247 1.259 . S
Co243 O244 2.061 . S
Co243 O249 2.052 . S
Co243 O251 2.135 . S
O244 Co243 2.061 . S
O244 C247 1.235 . S
C245 O248 1.238 . S
C245 O249 1.241 . S
C246 O239 1.247 . S
C246 O240 1.261 . S
C247 O242 1.259 . S
C247 O244 1.235 . S
O248 Co238 2.021 . S
O248 C245 1.238 . S
O249 Co243 2.052 . S
O249 C245 1.241 . S
O250 Co238 2.137 . S
O250 C241 1.247 . S
O251 Co238 2.244 . S
O251 C241 1.272 . S
O251 Co243 2.135 . S
Co252 O253 2.216 . S
Co252 O254 2.091 . S
Co252 O256 2.004 . S
Co252 O262 2.021 . S
Co252 O264 2.137 . S
Co252 O265 2.244 . S
O253 Co252 2.216 . S
O253 C260 1.247 . S
O254 Co252 2.091 . S
O254 C260 1.261 . S
C255 O264 1.247 . S
C255 O265 1.272 . S
O256 Co252 2.004 . S
O256 C261 1.259 . S
Co257 O258 2.061 . S
Co257 O263 2.052 . S
Co257 O265 2.135 . S
O258 Co257 2.061 . S
O258 C261 1.235 . S
C259 O262 1.238 . S
C259 O263 1.241 . S
C260 O253 1.247 . S
C260 O254 1.261 . S
C261 O256 1.259 . S
C261 O258 1.235 . S
O262 Co252 2.021 . S
O262 C259 1.238 . S
O263 Co257 2.052 . S
O263 C259 1.241 . S
O264 Co252 2.137 . S
O264 C255 1.247 . S
O265 Co252 2.244 . S
O265 C255 1.272 . S
O265 Co257 2.135 . S
Co266 O267 2.216 . S
Co266 O268 2.091 . S
Co266 O270 2.004 . S
Co266 O276 2.021 . S
Co266 O278 2.137 . S
Co266 O279 2.244 . S
O267 Co266 2.216 . S
O267 C274 1.247 . S
O268 Co266 2.091 . S
O268 C274 1.261 . S
C269 O278 1.247 . S
C269 O279 1.272 . S
O270 Co266 2.004 . S
O270 C275 1.259 . S
Co271 O272 2.061 . S
Co271 O277 2.052 . S
Co271 O279 2.135 . S
O272 Co271 2.061 . S
O272 C275 1.235 . S
C273 O276 1.238 . S
C273 O277 1.241 . S
C274 O267 1.247 . S
C274 O268 1.261 . S
C275 O270 1.259 . S
C275 O272 1.235 . S
O276 Co266 2.021 . S
O276 C273 1.238 . S
O277 Co271 2.052 . S
O277 C273 1.241 . S
O278 Co266 2.137 . S
O278 C269 1.247 . S
O279 Co266 2.244 . S
O279 C269 1.272 . S
O279 Co271 2.135 . S
Co280 O281 2.216 . S
Co280 O282 2.091 . S
Co280 O284 2.004 . S
Co280 O290 2.021 . S
Co280 O292 2.137 . S
Co280 O293 2.244 . S
O281 Co280 2.216 . S
O281 C288 1.247 . S
O282 Co280 2.091 . S
O282 C288 1.261 . S
C283 O292 1.247 . S
C283 O293 1.272 . S
O284 Co280 2.004 . S
O284 C289 1.259 . S
Co285 O286 2.061 . S
Co285 O291 2.052 . S
Co285 O293 2.135 . S
O286 Co285 2.061 . S
O286 C289 1.235 . S
C287 O290 1.238 . S
C287 O291 1.241 . S
C288 O281 1.247 . S
C288 O282 1.261 . S
C289 O284 1.259 . S
C289 O286 1.235 . S
O290 Co280 2.021 . S
O290 C287 1.238 . S
O291 Co285 2.052 . S
O291 C287 1.241 . S
O292 Co280 2.137 . S
O292 C283 1.247 . S
O293 Co280 2.244 . S
O293 C283 1.272 . S
O293 Co285 2.135 . S
Co294 O295 2.216 . S
Co294 O296 2.091 . S
Co294 O298 2.004 . S
Co294 O304 2.021 . S
Co294 O306 2.137 . S
Co294 O307 2.244 . S
O295 Co294 2.216 . S
O295 C302 1.247 . S
O296 Co294 2.091 . S
O296 C302 1.261 . S
C297 O306 1.247 . S
C297 O307 1.272 . S
O298 Co294 2.004 . S
O298 C303 1.259 . S
Co299 O300 2.061 . S
Co299 O305 2.052 . S
Co299 O307 2.135 . S
O300 Co299 2.061 . S
O300 C303 1.235 . S
C301 O304 1.238 . S
C301 O305 1.241 . S
C302 O295 1.247 . S
C302 O296 1.261 . S
C303 O298 1.259 . S
C303 O300 1.235 . S
O304 Co294 2.021 . S
O304 C301 1.238 . S
O305 Co299 2.052 . S
O305 C301 1.241 . S
O306 Co294 2.137 . S
O306 C297 1.247 . S
O307 Co294 2.244 . S
O307 C297 1.272 . S
O307 Co299 2.135 . S
Co308 O309 2.216 . S
Co308 O310 2.091 . S
Co308 O312 2.004 . S
Co308 O318 2.021 . S
Co308 O320 2.137 . S
Co308 O321 2.244 . S
O309 Co308 2.216 . S
O309 C316 1.247 . S
O310 Co308 2.091 . S
O310 C316 1.261 . S
C311 O320 1.247 . S
C311 O321 1.272 . S
O312 Co308 2.004 . S
O312 C317 1.259 . S
Co313 O314 2.061 . S
Co313 O319 2.052 . S
Co313 O321 2.135 . S
O314 Co313 2.061 . S
O314 C317 1.235 . S
C315 O318 1.238 . S
C315 O319 1.241 . S
C316 O309 1.247 . S
C316 O310 1.261 . S
C317 O312 1.259 . S
C317 O314 1.235 . S
O318 Co308 2.021 . S
O318 C315 1.238 . S
O319 Co313 2.052 . S
O319 C315 1.241 . S
O320 Co308 2.137 . S
O320 C311 1.247 . S
O321 Co308 2.244 . S
O321 C311 1.272 . S
O321 Co313 2.135 . S
Co322 O323 2.216 . S
Co322 O324 2.091 . S
Co322 O326 2.004 . S
Co322 O332 2.021 . S
Co322 O334 2.137 . S
Co322 O335 2.244 . S
O323 Co322 2.216 . S
O323 C330 1.247 . S
O324 Co322 2.091 . S
O324 C330 1.261 . S
C325 O334 1.247 . S
C325 O335 1.272 . S
O326 Co322 2.004 . S
O326 C331 1.259 . S
Co327 O328 2.061 . S
Co327 O333 2.052 . S
Co327 O335 2.135 . S
O328 Co327 2.061 . S
O328 C331 1.235 . S
C329 O332 1.238 . S
C329 O333 1.241 . S
C330 O323 1.247 . S
C330 O324 1.261 . S
C331 O326 1.259 . S
C331 O328 1.235 . S
O332 Co322 2.021 . S
O332 C329 1.238 . S
O333 Co327 2.052 . S
O333 C329 1.241 . S
O334 Co322 2.137 . S
O334 C325 1.247 . S
O335 Co322 2.244 . S
O335 C325 1.272 . S
O335 Co327 2.135 . S
Co336 O337 2.216 . S
Co336 O338 2.091 . S
Co336 O340 2.004 . S
Co336 O346 2.021 . S
Co336 O348 2.137 . S
Co336 O349 2.244 . S
O337 Co336 2.216 . S
O337 C344 1.247 . S
O338 Co336 2.091 . S
O338 C344 1.261 . S
C339 O348 1.247 . S
C339 O349 1.272 . S
O340 Co336 2.004 . S
O340 C345 1.259 . S
Co341 O342 2.061 . S
Co341 O347 2.052 . S
Co341 O349 2.135 . S
O342 Co341 2.061 . S
O342 C345 1.235 . S
C343 O346 1.238 . S
C343 O347 1.241 . S
C344 O337 1.247 . S
C344 O338 1.261 . S
C345 O340 1.259 . S
C345 O342 1.235 . S
O346 Co336 2.021 . S
O346 C343 1.238 . S
O347 Co341 2.052 . S
O347 C343 1.241 . S
O348 Co336 2.137 . S
O348 C339 1.247 . S
O349 Co336 2.244 . S
O349 C339 1.272 . S
O349 Co341 2.135 . S
Co350 O351 2.216 . S
Co350 O352 2.091 . S
Co350 O354 2.004 . S
Co350 O360 2.021 . S
Co350 O362 2.137 . S
Co350 O363 2.244 . S
O351 Co350 2.216 . S
O351 C358 1.247 . S
O352 Co350 2.091 . S
O352 C358 1.261 . S
C353 O362 1.247 . S
C353 O363 1.272 . S
O354 Co350 2.004 . S
O354 C359 1.259 . S
Co355 O356 2.061 . S
Co355 O361 2.052 . S
Co355 O363 2.135 . S
O356 Co355 2.061 . S
O356 C359 1.235 . S
C357 O360 1.238 . S
C357 O361 1.241 . S
C358 O351 1.247 . S
C358 O352 1.261 . S
C359 O354 1.259 . S
C359 O356 1.235 . S
O360 Co350 2.021 . S
O360 C357 1.238 . S
O361 Co355 2.052 . S
O361 C357 1.241 . S
O362 Co350 2.137 . S
O362 C353 1.247 . S
O363 Co350 2.244 . S
O363 C353 1.272 . S
O363 Co355 2.135 . S
Co364 O365 2.216 . S
Co364 O366 2.091 . S
Co364 O368 2.004 . S
Co364 O374 2.021 . S
Co364 O376 2.137 . S
Co364 O377 2.244 . S
O365 Co364 2.216 . S
O365 C372 1.247 . S
O366 Co364 2.091 . S
O366 C372 1.261 . S
C367 O376 1.247 . S
C367 O377 1.272 . S
O368 Co364 2.004 . S
O368 C373 1.259 . S
Co369 O370 2.061 . S
Co369 O375 2.052 . S
Co369 O377 2.135 . S
O370 Co369 2.061 . S
O370 C373 1.235 . S
C371 O374 1.238 . S
C371 O375 1.241 . S
C372 O365 1.247 . S
C372 O366 1.261 . S
C373 O368 1.259 . S
C373 O370 1.235 . S
O374 Co364 2.021 . S
O374 C371 1.238 . S
O375 Co369 2.052 . S
O375 C371 1.241 . S
O376 Co364 2.137 . S
O376 C367 1.247 . S
O377 Co364 2.244 . S
O377 C367 1.272 . S
O377 Co369 2.135 . S
Co378 O379 2.216 . S
Co378 O380 2.091 . S
Co378 O382 2.004 . S
Co378 O388 2.021 . S
Co378 O390 2.137 . S
Co378 O391 2.244 . S
O379 Co378 2.216 . S
O379 C386 1.247 . S
O380 Co378 2.091 . S
O380 C386 1.261 . S
C381 O390 1.247 . S
C381 O391 1.272 . S
O382 Co378 2.004 . S
O382 C387 1.259 . S
Co383 O384 2.061 . S
Co383 O389 2.052 . S
Co383 O391 2.135 . S
O384 Co383 2.061 . S
O384 C387 1.235 . S
C385 O388 1.238 . S
C385 O389 1.241 . S
C386 O379 1.247 . S
C386 O380 1.261 . S
C387 O382 1.259 . S
C387 O384 1.235 . S
O388 Co378 2.021 . S
O388 C385 1.238 . S
O389 Co383 2.052 . S
O389 C385 1.241 . S
O390 Co378 2.137 . S
O390 C381 1.247 . S
O391 Co378 2.244 . S
O391 C381 1.272 . S
O391 Co383 2.135 . S
Co392 O393 2.216 . S
Co392 O394 2.091 . S
Co392 O396 2.004 . S
Co392 O402 2.021 . S
Co392 O404 2.137 . S
Co392 O405 2.244 . S
O393 Co392 2.216 . S
O393 C400 1.247 . S
O394 Co392 2.091 . S
O394 C400 1.261 . S
C395 O404 1.247 . S
C395 O405 1.272 . S
O396 Co392 2.004 . S
O396 C401 1.259 . S
Co397 O398 2.061 . S
Co397 O403 2.052 . S
Co397 O405 2.135 . S
O398 Co397 2.061 . S
O398 C401 1.235 . S
C399 O402 1.238 . S
C399 O403 1.241 . S
C400 O393 1.247 . S
C400 O394 1.261 . S
C401 O396 1.259 . S
C401 O398 1.235 . S
O402 Co392 2.021 . S
O402 C399 1.238 . S
O403 Co397 2.052 . S
O403 C399 1.241 . S
O404 Co392 2.137 . S
O404 C395 1.247 . S
O405 Co392 2.244 . S
O405 C395 1.272 . S
O405 Co397 2.135 . S
Co406 O407 2.216 . S
Co406 O408 2.091 . S
Co406 O410 2.004 . S
Co406 O416 2.021 . S
Co406 O418 2.137 . S
Co406 O419 2.244 . S
O407 Co406 2.216 . S
O407 C414 1.247 . S
O408 Co406 2.091 . S
O408 C414 1.261 . S
C409 O418 1.247 . S
C409 O419 1.272 . S
O410 Co406 2.004 . S
O410 C415 1.259 . S
Co411 O412 2.061 . S
Co411 O417 2.052 . S
Co411 O419 2.135 . S
O412 Co411 2.061 . S
O412 C415 1.235 . S
C413 O416 1.238 . S
C413 O417 1.241 . S
C414 O407 1.247 . S
C414 O408 1.261 . S
C415 O410 1.259 . S
C415 O412 1.235 . S
O416 Co406 2.021 . S
O416 C413 1.238 . S
O417 Co411 2.052 . S
O417 C413 1.241 . S
O418 Co406 2.137 . S
O418 C409 1.247 . S
O419 Co406 2.244 . S
O419 C409 1.272 . S
O419 Co411 2.135 . S
Co420 O421 2.216 . S
Co420 O422 2.091 . S
Co420 O424 2.004 . S
Co420 O430 2.021 . S
Co420 O432 2.137 . S
Co420 O433 2.244 . S
O421 Co420 2.216 . S
O421 C428 1.247 . S
O422 Co420 2.091 . S
O422 C428 1.261 . S
C423 O432 1.247 . S
C423 O433 1.272 . S
O424 Co420 2.004 . S
O424 C429 1.259 . S
Co425 O426 2.061 . S
Co425 O431 2.052 . S
Co425 O433 2.135 . S
O426 Co425 2.061 . S
O426 C429 1.235 . S
C427 O430 1.238 . S
C427 O431 1.241 . S
C428 O421 1.247 . S
C428 O422 1.261 . S
C429 O424 1.259 . S
C429 O426 1.235 . S
O430 Co420 2.021 . S
O430 C427 1.238 . S
O431 Co425 2.052 . S
O431 C427 1.241 . S
O432 Co420 2.137 . S
O432 C423 1.247 . S
O433 Co420 2.244 . S
O433 C423 1.272 . S
O433 Co425 2.135 . S
Co434 O435 2.216 . S
Co434 O436 2.091 . S
Co434 O438 2.004 . S
Co434 O444 2.021 . S
Co434 O446 2.137 . S
Co434 O447 2.244 . S
O435 Co434 2.216 . S
O435 C442 1.247 . S
O436 Co434 2.091 . S
O436 C442 1.261 . S
C437 O446 1.247 . S
C437 O447 1.272 . S
O438 Co434 2.004 . S
O438 C443 1.259 . S
Co439 O440 2.061 . S
Co439 O445 2.052 . S
Co439 O447 2.135 . S
O440 Co439 2.061 . S
O440 C443 1.235 . S
C441 O444 1.238 . S
C441 O445 1.241 . S
C442 O435 1.247 . S
C442 O436 1.261 . S
C443 O438 1.259 . S
C443 O440 1.235 . S
O444 Co434 2.021 . S
O444 C441 1.238 . S
O445 Co439 2.052 . S
O445 C441 1.241 . S
O446 Co434 2.137 . S
O446 C437 1.247 . S
O447 Co434 2.244 . S
O447 C437 1.272 . S
O447 Co439 2.135 . S
Co448 O449 2.216 . S
Co448 O450 2.091 . S
Co448 O452 2.004 . S
Co448 O458 2.021 . S
Co448 O460 2.137 . S
Co448 O461 2.244 . S
O449 Co448 2.216 . S
O449 C456 1.247 . S
O450 Co448 2.091 . S
O450 C456 1.261 . S
C451 O460 1.247 . S
C451 O461 1.272 . S
O452 Co448 2.004 . S
O452 C457 1.259 . S
Co453 O454 2.061 . S
Co453 O459 2.052 . S
Co453 O461 2.135 . S
O454 Co453 2.061 . S
O454 C457 1.235 . S
C455 O458 1.238 . S
C455 O459 1.241 . S
C456 O449 1.247 . S
C456 O450 1.261 . S
C457 O452 1.259 . S
C457 O454 1.235 . S
O458 Co448 2.021 . S
O458 C455 1.238 . S
O459 Co453 2.052 . S
O459 C455 1.241 . S
O460 Co448 2.137 . S
O460 C451 1.247 . S
O461 Co448 2.244 . S
O461 C451 1.272 . S
O461 Co453 2.135 . S
Co462 O463 2.216 . S
Co462 O464 2.091 . S
Co462 O466 2.004 . S
Co462 O472 2.021 . S
Co462 O474 2.137 . S
Co462 O475 2.244 . S
O463 Co462 2.216 . S
O463 C470 1.247 . S
O464 Co462 2.091 . S
O464 C470 1.261 . S
C465 O474 1.247 . S
C465 O475 1.272 . S
O466 Co462 2.004 . S
O466 C471 1.259 . S
Co467 O468 2.061 . S
Co467 O473 2.052 . S
Co467 O475 2.135 . S
O468 Co467 2.061 . S
O468 C471 1.235 . S
C469 O472 1.238 . S
C469 O473 1.241 . S
C470 O463 1.247 . S
C470 O464 1.261 . S
C471 O466 1.259 . S
C471 O468 1.235 . S
O472 Co462 2.021 . S
O472 C469 1.238 . S
O473 Co467 2.052 . S
O473 C469 1.241 . S
O474 Co462 2.137 . S
O474 C465 1.247 . S
O475 Co462 2.244 . S
O475 C465 1.272 . S
O475 Co467 2.135 . S
Co476 O477 2.216 . S
Co476 O478 2.091 . S
Co476 O480 2.004 . S
Co476 O486 2.021 . S
Co476 O488 2.137 . S
Co476 O489 2.244 . S
O477 Co476 2.216 . S
O477 C484 1.247 . S
O478 Co476 2.091 . S
O478 C484 1.261 . S
C479 O488 1.247 . S
C479 O489 1.272 . S
O480 Co476 2.004 . S
O480 C485 1.259 . S
Co481 O482 2.061 . S
Co481 O487 2.052 . S
Co481 O489 2.135 . S
O482 Co481 2.061 . S
O482 C485 1.235 . S
C483 O486 1.238 . S
C483 O487 1.241 . S
C484 O477 1.247 . S
C484 O478 1.261 . S
C485 O480 1.259 . S
C485 O482 1.235 . S
O486 Co476 2.021 . S
O486 C483 1.238 . S
O487 Co481 2.052 . S
O487 C483 1.241 . S
O488 Co476 2.137 . S
O488 C479 1.247 . S
O489 Co476 2.244 . S
O489 C479 1.272 . S
O489 Co481 2.135 . S
Co490 O491 2.216 . S
Co490 O492 2.091 . S
Co490 O494 2.004 . S
Co490 O500 2.021 . S
Co490 O502 2.137 . S
Co490 O503 2.244 . S
O491 Co490 2.216 . S
O491 C498 1.247 . S
O492 Co490 2.091 . S
O492 C498 1.261 . S
C493 O502 1.247 . S
C493 O503 1.272 . S
O494 Co490 2.004 . S
O494 C499 1.259 . S
Co495 O496 2.061 . S
Co495 O501 2.052 . S
Co495 O503 2.135 . S
O496 Co495 2.061 . S
O496 C499 1.235 . S
C497 O500 1.238 . S
C497 O501 1.241 . S
C498 O491 1.247 . S
C498 O492 1.261 . S
C499 O494 1.259 . S
C499 O496 1.235 . S
O500 Co490 2.021 . S
O500 C497 1.238 . S
O501 Co495 2.052 . S
O501 C497 1.241 . S
O502 Co490 2.137 . S
O502 C493 1.247 . S
O503 Co490 2.244 . S
O503 C493 1.272 . S
O503 Co495 2.135 . S
C504 C505 1.363 . S
C504 C510 1.379 . S
C504 N512 1.356 . S
C505 C504 1.363 . S
C505 C511 1.363 . S
C506 C507 1.363 . S
C506 C511 1.379 . S
C506 N513 1.356 . S
C507 C506 1.363 . S
C507 C510 1.363 . S
N508 C510 1.356 1_554 S
N508 H520 0.984 . S
N508 H521 0.985 . S
N509 C511 1.356 . S
N509 H514 0.984 . S
N509 H515 0.985 . S
C510 C504 1.379 . S
C510 C507 1.363 . S
C510 N508 1.356 1_556 S
C511 C505 1.363 . S
C511 C506 1.379 . S
C511 N509 1.356 . S
N512 C504 1.356 . S
N512 H518 0.984 . S
N512 H519 0.984 . S
N513 C506 1.356 . S
N513 H516 0.984 . S
N513 H517 0.985 . S
H514 N509 0.984 . S
H515 N509 0.985 . S
H516 N513 0.984 . S
H517 N513 0.985 . S
H518 N512 0.984 . S
H519 N512 0.984 . S
H520 N508 0.984 . S
H521 N508 0.985 . S
C522 C523 1.363 . S
C522 C528 1.379 . S
C522 N530 1.356 . S
C523 C522 1.363 . S
C523 C529 1.363 . S
C524 C525 1.363 . S
C524 C529 1.379 . S
C524 N531 1.356 . S
C525 C524 1.363 . S
C525 C528 1.363 . S
N526 C528 1.356 1_565 S
N526 H538 0.984 . S
N526 H539 0.985 . S
N527 C529 1.356 . S
N527 H532 0.984 . S
N527 H533 0.985 . S
C528 C522 1.379 . S
C528 C525 1.363 . S
C528 N526 1.356 1_545 S
C529 C523 1.363 . S
C529 C524 1.379 . S
C529 N527 1.356 . S
N530 C522 1.356 . S
N530 H536 0.984 . S
N530 H537 0.984 . S
N531 C524 1.356 . S
N531 H534 0.984 . S
N531 H535 0.985 . S
H532 N527 0.984 . S
H533 N527 0.985 . S
H534 N531 0.984 . S
H535 N531 0.985 . S
H536 N530 0.984 . S
H537 N530 0.984 . S
H538 N526 0.984 . S
H539 N526 0.985 . S
C540 C541 1.363 . S
C540 C546 1.379 . S
C540 N548 1.356 1_556 S
C541 C540 1.363 . S
C541 C547 1.363 . S
C542 C543 1.363 . S
C542 C547 1.379 . S
C542 N549 1.356 . S
C543 C542 1.363 . S
C543 C546 1.363 . S
N544 C546 1.356 . S
N544 H556 0.984 . S
N544 H557 0.985 . S
N545 C547 1.356 . S
N545 H550 0.984 . S
N545 H551 0.985 . S
C546 C540 1.379 . S
C546 C543 1.363 . S
C546 N544 1.356 . S
C547 C541 1.363 . S
C547 C542 1.379 . S
C547 N545 1.356 . S
N548 C540 1.356 1_554 S
N548 H554 0.984 . S
N548 H555 0.984 . S
N549 C542 1.356 . S
N549 H552 0.984 . S
N549 H553 0.985 . S
H550 N545 0.984 . S
H551 N545 0.985 . S
H552 N549 0.984 . S
H553 N549 0.985 . S
H554 N548 0.984 . S
H555 N548 0.984 . S
H556 N544 0.984 . S
H557 N544 0.985 . S
C558 C559 1.363 . S
C558 C564 1.379 . S
C558 N566 1.356 . S
C559 C558 1.363 . S
C559 C565 1.363 . S
C560 C561 1.363 . S
C560 C565 1.379 . S
C560 N567 1.356 . S
C561 C560 1.363 . S
C561 C564 1.363 . S
N562 C564 1.356 . S
N562 H574 0.984 . S
N562 H575 0.985 . S
N563 C565 1.356 . S
N563 H568 0.984 . S
N563 H569 0.985 . S
C564 C558 1.379 . S
C564 C561 1.363 . S
C564 N562 1.356 . S
C565 C559 1.363 . S
C565 C560 1.379 . S
C565 N563 1.356 . S
N566 C558 1.356 . S
N566 H572 0.984 . S
N566 H573 0.984 . S
N567 C560 1.356 . S
N567 H570 0.984 . S
N567 H571 0.985 . S
H568 N563 0.984 . S
H569 N563 0.985 . S
H570 N567 0.984 . S
H571 N567 0.985 . S
H572 N566 0.984 . S
H573 N566 0.984 . S
H574 N562 0.984 . S
H575 N562 0.985 . S
C576 C577 1.363 . S
C576 C582 1.379 . S
C576 N584 1.356 . S
C577 C576 1.363 . S
C577 C583 1.363 . S
C578 C579 1.363 . S
C578 C583 1.379 . S
C578 N585 1.356 . S
C579 C578 1.363 . S
C579 C582 1.363 . S
N580 C582 1.356 . S
N580 H592 0.984 . S
N580 H593 0.985 . S
N581 C583 1.356 . S
N581 H586 0.984 . S
N581 H587 0.985 . S
C582 C576 1.379 . S
C582 C579 1.363 . S
C582 N580 1.356 . S
C583 C577 1.363 . S
C583 C578 1.379 . S
C583 N581 1.356 . S
N584 C576 1.356 . S
N584 H590 0.984 . S
N584 H591 0.984 . S
N585 C578 1.356 . S
N585 H588 0.984 . S
N585 H589 0.985 . S
H586 N581 0.984 . S
H587 N581 0.985 . S
H588 N585 0.984 . S
H589 N585 0.985 . S
H590 N584 0.984 . S
H591 N584 0.984 . S
H592 N580 0.984 . S
H593 N580 0.985 . S
C594 C595 1.363 . S
C594 C600 1.379 . S
C594 N602 1.356 . S
C595 C594 1.363 . S
C595 C601 1.363 . S
C596 C597 1.363 . S
C596 C601 1.379 . S
C596 N603 1.356 . S
C597 C596 1.363 . S
C597 C600 1.363 . S
N598 C600 1.356 . S
N598 H610 0.984 . S
N598 H611 0.985 . S
N599 C601 1.356 . S
N599 H604 0.984 . S
N599 H605 0.985 . S
C600 C594 1.379 . S
C600 C597 1.363 . S
C600 N598 1.356 . S
C601 C595 1.363 . S
C601 C596 1.379 . S
C601 N599 1.356 . S
N602 C594 1.356 . S
N602 H608 0.984 . S
N602 H609 0.984 . S
N603 C596 1.356 . S
N603 H606 0.984 . S
N603 H607 0.985 . S
H604 N599 0.984 . S
H605 N599 0.985 . S
H606 N603 0.984 . S
H607 N603 0.985 . S
H608 N602 0.984 . S
H609 N602 0.984 . S
H610 N598 0.984 . S
H611 N598 0.985 . S
C612 C613 1.363 . S
C612 C618 1.379 . S
C612 N620 1.356 . S
C613 C612 1.363 . S
C613 C619 1.363 . S
C614 C615 1.363 . S
C614 C619 1.379 . S
C614 N621 1.356 . S
C615 C614 1.363 . S
C615 C618 1.363 . S
N616 C618 1.356 . S
N616 H628 0.984 . S
N616 H629 0.985 . S
N617 C619 1.356 . S
N617 H622 0.984 . S
N617 H623 0.985 . S
C618 C612 1.379 . S
C618 C615 1.363 . S
C618 N616 1.356 . S
C619 C613 1.363 . S
C619 C614 1.379 . S
C619 N617 1.356 . S
N620 C612 1.356 . S
N620 H626 0.984 . S
N620 H627 0.984 . S
N621 C614 1.356 . S
N621 H624 0.984 . S
N621 H625 0.985 . S
H622 N617 0.984 . S
H623 N617 0.985 . S
H624 N621 0.984 . S
H625 N621 0.985 . S
H626 N620 0.984 . S
H627 N620 0.984 . S
H628 N616 0.984 . S
H629 N616 0.985 . S
C630 C631 1.363 . S
C630 C636 1.379 . S
C630 N638 1.356 . S
C631 C630 1.363 . S
C631 C637 1.363 . S
C632 C633 1.363 . S
C632 C637 1.379 . S
C632 N639 1.356 1_565 S
C633 C632 1.363 . S
C633 C636 1.363 . S
N634 C636 1.356 . S
N634 H646 0.984 1_554 S
N634 H647 0.985 1_554 S
N635 C637 1.356 . S
N635 H640 0.984 . S
N635 H641 0.985 . S
C636 C630 1.379 . S
C636 C633 1.363 . S
C636 N634 1.356 . S
C637 C631 1.363 . S
C637 C632 1.379 . S
C637 N635 1.356 . S
N638 C630 1.356 . S
N638 H644 0.984 . S
N638 H645 0.984 . S
N639 C632 1.356 1_545 S
N639 H642 0.984 . S
N639 H643 0.985 . S
H640 N635 0.984 . S
H641 N635 0.985 . S
H642 N639 0.984 . S
H643 N639 0.985 . S
H644 N638 0.984 . S
H645 N638 0.984 . S
H646 N634 0.984 1_556 S
H647 N634 0.985 1_556 S
C648 C649 1.363 . S
C648 C654 1.379 . S
C648 N656 1.356 . S
C649 C648 1.363 . S
C649 C655 1.363 . S
C650 C651 1.363 . S
C650 C655 1.379 . S
C650 N657 1.356 1_554 S
C651 C650 1.363 . S
C651 C654 1.363 . S
N652 C654 1.356 . S
N652 H664 0.984 . S
N652 H665 0.985 . S
N653 C655 1.356 . S
N653 H658 0.984 . S
N653 H659 0.985 . S
C654 C648 1.379 . S
C654 C651 1.363 . S
C654 N652 1.356 . S
C655 C649 1.363 . S
C655 C650 1.379 . S
C655 N653 1.356 . S
N656 C648 1.356 . S
N656 H662 0.984 . S
N656 H663 0.984 . S
N657 C650 1.356 1_556 S
N657 H660 0.984 . S
N657 H661 0.985 . S
H658 N653 0.984 . S
H659 N653 0.985 . S
H660 N657 0.984 . S
H661 N657 0.985 . S
H662 N656 0.984 . S
H663 N656 0.984 . S
H664 N652 0.984 . S
H665 N652 0.985 . S
C666 C667 1.363 . S
C666 C672 1.379 . S
C666 N674 1.356 . S
C667 C666 1.363 . S
C667 C673 1.363 . S
C668 C669 1.363 . S
C668 C673 1.379 . S
C668 N675 1.356 . S
C669 C668 1.363 . S
C669 C672 1.363 . S
N670 C672 1.356 . S
N670 H682 0.984 . S
N670 H683 0.985 . S
N671 C673 1.356 . S
N671 H676 0.984 . S
N671 H677 0.985 . S
C672 C666 1.379 . S
C672 C669 1.363 . S
C672 N670 1.356 . S
C673 C667 1.363 . S
C673 C668 1.379 . S
C673 N671 1.356 . S
N674 C666 1.356 . S
N674 H680 0.984 . S
N674 H681 0.984 . S
N675 C668 1.356 . S
N675 H678 0.984 . S
N675 H679 0.985 . S
H676 N671 0.984 . S
H677 N671 0.985 . S
H678 N675 0.984 . S
H679 N675 0.985 . S
H680 N674 0.984 . S
H681 N674 0.984 . S
H682 N670 0.984 . S
H683 N670 0.985 . S
C684 C685 1.363 . S
C684 C690 1.379 . S
C684 N692 1.356 . S
C685 C684 1.363 . S
C685 C691 1.363 . S
C686 C687 1.363 . S
C686 C691 1.379 . S
C686 N693 1.356 . S
C687 C686 1.363 . S
C687 C690 1.363 . S
N688 C690 1.356 . S
N688 H700 0.984 . S
N688 H701 0.985 . S
N689 C691 1.356 1_565 S
N689 H694 0.984 . S
N689 H695 0.985 . S
C690 C684 1.379 . S
C690 C687 1.363 . S
C690 N688 1.356 . S
C691 C685 1.363 . S
C691 C686 1.379 . S
C691 N689 1.356 1_545 S
N692 C684 1.356 . S
N692 H698 0.984 . S
N692 H699 0.984 . S
N693 C686 1.356 . S
N693 H696 0.984 . S
N693 H697 0.985 . S
H694 N689 0.984 . S
H695 N689 0.985 . S
H696 N693 0.984 . S
H697 N693 0.985 . S
H698 N692 0.984 . S
H699 N692 0.984 . S
H700 N688 0.984 . S
H701 N688 0.985 . S
C702 C703 1.363 . S
C702 C708 1.379 . S
C702 N710 1.356 . S
C703 C702 1.363 . S
C703 C709 1.363 . S
C704 C705 1.363 . S
C704 C709 1.379 . S
C704 N711 1.356 . S
C705 C704 1.363 . S
C705 C708 1.363 . S
N706 C708 1.356 1_455 S
N706 H718 0.984 . S
N706 H719 0.985 . S
N707 C709 1.356 . S
N707 H712 0.984 . S
N707 H713 0.985 . S
C708 C702 1.379 . S
C708 C705 1.363 . S
C708 N706 1.356 1_655 S
C709 C703 1.363 . S
C709 C704 1.379 . S
C709 N707 1.356 . S
N710 C702 1.356 . S
N710 H716 0.984 . S
N710 H717 0.984 . S
N711 C704 1.356 . S
N711 H714 0.984 . S
N711 H715 0.985 . S
H712 N707 0.984 . S
H713 N707 0.985 . S
H714 N711 0.984 . S
H715 N711 0.985 . S
H716 N710 0.984 . S
H717 N710 0.984 . S
H718 N706 0.984 . S
H719 N706 0.985 . S
C720 C721 1.363 . S
C720 C726 1.379 . S
C720 N728 1.356 . S
C721 C720 1.363 . S
C721 C727 1.363 1_455 S
C722 C723 1.363 . S
C722 C727 1.379 . S
C722 N729 1.356 . S
C723 C722 1.363 . S
C723 C726 1.363 1_655 S
N724 C726 1.356 1_655 S
N724 H736 0.984 1_655 S
N724 H737 0.985 . S
N725 C727 1.356 1_455 S
N725 H730 0.984 . S
N725 H731 0.985 1_455 S
C726 C720 1.379 . S
C726 C723 1.363 1_455 S
C726 N724 1.356 1_455 S
C727 C721 1.363 1_655 S
C727 C722 1.379 . S
C727 N725 1.356 1_655 S
N728 C720 1.356 . S
N728 H734 0.984 . S
N728 H735 0.984 . S
N729 C722 1.356 . S
N729 H732 0.984 . S
N729 H733 0.985 . S
H730 N725 0.984 . S
H731 N725 0.985 1_655 S
H732 N729 0.984 . S
H733 N729 0.985 . S
H734 N728 0.984 . S
H735 N728 0.984 . S
H736 N724 0.984 1_455 S
H737 N724 0.985 . S
C738 C739 1.363 . S
C738 C744 1.379 . S
C738 N746 1.356 . S
C739 C738 1.363 . S
C739 C745 1.363 . S
C740 C741 1.363 . S
C740 C745 1.379 . S
C740 N747 1.356 . S
C741 C740 1.363 . S
C741 C744 1.363 . S
N742 C744 1.356 . S
N742 H754 0.984 . S
N742 H755 0.985 . S
N743 C745 1.356 . S
N743 H748 0.984 . S
N743 H749 0.985 . S
C744 C738 1.379 . S
C744 C741 1.363 . S
C744 N742 1.356 . S
C745 C739 1.363 . S
C745 C740 1.379 . S
C745 N743 1.356 . S
N746 C738 1.356 . S
N746 H752 0.984 . S
N746 H753 0.984 . S
N747 C740 1.356 . S
N747 H750 0.984 . S
N747 H751 0.985 . S
H748 N743 0.984 . S
H749 N743 0.985 . S
H750 N747 0.984 . S
H751 N747 0.985 . S
H752 N746 0.984 . S
H753 N746 0.984 . S
H754 N742 0.984 . S
H755 N742 0.985 . S
C756 C757 1.363 . S
C756 C762 1.379 1_565 S
C756 N764 1.356 . S
C757 C756 1.363 . S
C757 C763 1.363 . S
C758 C759 1.363 . S
C758 C763 1.379 1_545 S
C758 N765 1.356 . S
C759 C758 1.363 . S
C759 C762 1.363 . S
N760 C762 1.356 . S
N760 H772 0.984 . S
N760 H773 0.985 . S
N761 C763 1.356 . S
N761 H766 0.984 . S
N761 H767 0.985 . S
C762 C756 1.379 1_545 S
C762 C759 1.363 . S
C762 N760 1.356 . S
C763 C757 1.363 . S
C763 C758 1.379 1_565 S
C763 N761 1.356 . S
N764 C756 1.356 . S
N764 H770 0.984 . S
N764 H771 0.984 . S
N765 C758 1.356 . S
N765 H768 0.984 . S
N765 H769 0.985 . S
H766 N761 0.984 . S
H767 N761 0.985 . S
H768 N765 0.984 . S
H769 N765 0.985 . S
H770 N764 0.984 . S
H771 N764 0.984 . S
H772 N760 0.984 . S
H773 N760 0.985 . S
C774 C775 1.363 . S
C774 C780 1.379 1_565 S
C774 N782 1.356 . S
C775 C774 1.363 . S
C775 C781 1.363 . S
C776 C777 1.363 . S
C776 C781 1.379 1_545 S
C776 N783 1.356 . S
C777 C776 1.363 . S
C777 C780 1.363 . S
N778 C780 1.356 . S
N778 H790 0.984 . S
N778 H791 0.985 . S
N779 C781 1.356 . S
N779 H784 0.984 . S
N779 H785 0.985 . S
C780 C774 1.379 1_545 S
C780 C777 1.363 . S
C780 N778 1.356 . S
C781 C775 1.363 . S
C781 C776 1.379 1_565 S
C781 N779 1.356 . S
N782 C774 1.356 . S
N782 H788 0.984 . S
N782 H789 0.984 . S
N783 C776 1.356 . S
N783 H786 0.984 . S
N783 H787 0.985 . S
H784 N779 0.984 . S
H785 N779 0.985 . S
H786 N783 0.984 . S
H787 N783 0.985 . S
H788 N782 0.984 . S
H789 N782 0.984 . S
H790 N778 0.984 . S
H791 N778 0.985 . S
C792 C793 1.363 . S
C792 C798 1.379 . S
C792 N800 1.356 . S
C793 C792 1.363 . S
C793 C799 1.363 1_455 S
C794 C795 1.363 . S
C794 C799 1.379 . S
C794 N801 1.356 . S
C795 C794 1.363 . S
C795 C798 1.363 1_655 S
N796 C798 1.356 1_655 S
N796 H808 0.984 1_655 S
N796 H809 0.985 . S
N797 C799 1.356 1_455 S
N797 H802 0.984 . S
N797 H803 0.985 1_455 S
C798 C792 1.379 . S
C798 C795 1.363 1_455 S
C798 N796 1.356 1_455 S
C799 C793 1.363 1_655 S
C799 C794 1.379 . S
C799 N797 1.356 1_655 S
N800 C792 1.356 . S
N800 H806 0.984 . S
N800 H807 0.984 . S
N801 C794 1.356 . S
N801 H804 0.984 . S
N801 H805 0.985 . S
H802 N797 0.984 . S
H803 N797 0.985 1_655 S
H804 N801 0.984 . S
H805 N801 0.985 . S
H806 N800 0.984 . S
H807 N800 0.984 . S
H808 N796 0.984 1_455 S
H809 N796 0.985 . S
C810 C811 1.363 . S
C810 C816 1.379 . S
C810 N818 1.356 . S
C811 C810 1.363 . S
C811 C817 1.363 . S
C812 C813 1.363 . S
C812 C817 1.379 . S
C812 N819 1.356 . S
C813 C812 1.363 . S
C813 C816 1.363 . S
N814 C816 1.356 . S
N814 H826 0.984 . S
N814 H827 0.985 . S
N815 C817 1.356 . S
N815 H820 0.984 . S
N815 H821 0.985 . S
C816 C810 1.379 . S
C816 C813 1.363 . S
C816 N814 1.356 . S
C817 C811 1.363 . S
C817 C812 1.379 . S
C817 N815 1.356 . S
N818 C810 1.356 . S
N818 H824 0.984 . S
N818 H825 0.984 . S
N819 C812 1.356 . S
N819 H822 0.984 . S
N819 H823 0.985 . S
H820 N815 0.984 . S
H821 N815 0.985 . S
H822 N819 0.984 . S
H823 N819 0.985 . S
H824 N818 0.984 . S
H825 N818 0.984 . S
H826 N814 0.984 . S
H827 N814 0.985 . S
C828 C829 1.363 . S
C828 C834 1.379 . S
C828 N836 1.356 . S
C829 C828 1.363 . S
C829 C835 1.363 1_556 S
C830 C831 1.363 . S
C830 C835 1.379 . S
C830 N837 1.356 . S
C831 C830 1.363 . S
C831 C834 1.363 1_554 S
N832 C834 1.356 . S
N832 H844 0.984 . S
N832 H845 0.985 . S
N833 C835 1.356 . S
N833 H838 0.984 . S
N833 H839 0.985 . S
C834 C828 1.379 . S
C834 C831 1.363 1_556 S
C834 N832 1.356 . S
C835 C829 1.363 1_554 S
C835 C830 1.379 . S
C835 N833 1.356 . S
N836 C828 1.356 . S
N836 H842 0.984 . S
N836 H843 0.984 . S
N837 C830 1.356 . S
N837 H840 0.984 . S
N837 H841 0.985 . S
H838 N833 0.984 . S
H839 N833 0.985 . S
H840 N837 0.984 . S
H841 N837 0.985 . S
H842 N836 0.984 . S
H843 N836 0.984 . S
H844 N832 0.984 . S
H845 N832 0.985 . S
C846 C847 1.363 1_554 S
C846 C852 1.379 . S
C846 N854 1.356 . S
C847 C846 1.363 1_556 S
C847 C853 1.363 . S
C848 C849 1.363 1_556 S
C848 C853 1.379 . S
C848 N855 1.356 . S
C849 C848 1.363 1_554 S
C849 C852 1.363 . S
N850 C852 1.356 . S
N850 H862 0.984 . S
N850 H863 0.985 . S
N851 C853 1.356 . S
N851 H856 0.984 . S
N851 H857 0.985 . S
C852 C846 1.379 . S
C852 C849 1.363 . S
C852 N850 1.356 . S
C853 C847 1.363 . S
C853 C848 1.379 . S
C853 N851 1.356 . S
N854 C846 1.356 . S
N854 H860 0.984 . S
N854 H861 0.984 . S
N855 C848 1.356 . S
N855 H858 0.984 . S
N855 H859 0.985 . S
H856 N851 0.984 . S
H857 N851 0.985 . S
H858 N855 0.984 . S
H859 N855 0.985 . S
H860 N854 0.984 . S
H861 N854 0.984 . S
H862 N850 0.984 . S
H863 N850 0.985 . S
C864 C865 1.363 1_554 S
C864 C870 1.379 . S
C864 N872 1.356 . S
C865 C864 1.363 1_556 S
C865 C871 1.363 . S
C866 C867 1.363 1_556 S
C866 C871 1.379 . S
C866 N873 1.356 . S
C867 C866 1.363 1_554 S
C867 C870 1.363 . S
N868 C870 1.356 . S
N868 H880 0.984 . S
N868 H881 0.985 . S
N869 C871 1.356 . S
N869 H874 0.984 . S
N869 H875 0.985 . S
C870 C864 1.379 . S
C870 C867 1.363 . S
C870 N868 1.356 . S
C871 C865 1.363 . S
C871 C866 1.379 . S
C871 N869 1.356 . S
N872 C864 1.356 . S
N872 H878 0.984 . S
N872 H879 0.984 . S
N873 C866 1.356 . S
N873 H876 0.984 . S
N873 H877 0.985 . S
H874 N869 0.984 . S
H875 N869 0.985 . S
H876 N873 0.984 . S
H877 N873 0.985 . S
H878 N872 0.984 . S
H879 N872 0.984 . S
H880 N868 0.984 . S
H881 N868 0.985 . S
C882 C883 1.363 . S
C882 C888 1.379 . S
C882 N890 1.356 . S
C883 C882 1.363 . S
C883 C889 1.363 . S
C884 C885 1.363 . S
C884 C889 1.379 . S
C884 N891 1.356 . S
C885 C884 1.363 . S
C885 C888 1.363 . S
N886 C888 1.356 . S
N886 H898 0.984 . S
N886 H899 0.985 . S
N887 C889 1.356 . S
N887 H892 0.984 . S
N887 H893 0.985 . S
C888 C882 1.379 . S
C888 C885 1.363 . S
C888 N886 1.356 . S
C889 C883 1.363 . S
C889 C884 1.379 . S
C889 N887 1.356 . S
N890 C882 1.356 . S
N890 H896 0.984 . S
N890 H897 0.984 . S
N891 C884 1.356 . S
N891 H894 0.984 . S
N891 H895 0.985 . S
H892 N887 0.984 . S
H893 N887 0.985 . S
H894 N891 0.984 . S
H895 N891 0.985 . S
H896 N890 0.984 . S
H897 N890 0.984 . S
H898 N886 0.984 . S
H899 N886 0.985 . S
C900 C901 1.363 . S
C900 C906 1.379 . S
C900 N908 1.356 . S
C901 C900 1.363 . S
C901 C907 1.363 . S
C902 C903 1.363 . S
C902 C907 1.379 . S
C902 N909 1.356 . S
C903 C902 1.363 . S
C903 C906 1.363 . S
N904 C906 1.356 . S
N904 H916 0.984 . S
N904 H917 0.985 . S
N905 C907 1.356 . S
N905 H910 0.984 . S
N905 H911 0.985 . S
C906 C900 1.379 . S
C906 C903 1.363 . S
C906 N904 1.356 . S
C907 C901 1.363 . S
C907 C902 1.379 . S
C907 N905 1.356 . S
N908 C900 1.356 . S
N908 H914 0.984 . S
N908 H915 0.984 . S
N909 C902 1.356 . S
N909 H912 0.984 . S
N909 H913 0.985 . S
H910 N905 0.984 . S
H911 N905 0.985 . S
H912 N909 0.984 . S
H913 N909 0.985 . S
H914 N908 0.984 . S
H915 N908 0.984 . S
H916 N904 0.984 . S
H917 N904 0.985 . S
C918 C919 1.363 . S
C918 C924 1.379 . S
C918 N926 1.356 . S
C919 C918 1.363 . S
C919 C925 1.363 . S
C920 C921 1.363 . S
C920 C925 1.379 . S
C920 N927 1.356 . S
C921 C920 1.363 . S
C921 C924 1.363 . S
N922 C924 1.356 . S
N922 H934 0.984 . S
N922 H935 0.985 . S
N923 C925 1.356 . S
N923 H928 0.984 . S
N923 H929 0.985 . S
C924 C918 1.379 . S
C924 C921 1.363 . S
C924 N922 1.356 . S
C925 C919 1.363 . S
C925 C920 1.379 . S
C925 N923 1.356 . S
N926 C918 1.356 . S
N926 H932 0.984 . S
N926 H933 0.984 . S
N927 C920 1.356 . S
N927 H930 0.984 . S
N927 H931 0.985 . S
H928 N923 0.984 . S
H929 N923 0.985 . S
H930 N927 0.984 . S
H931 N927 0.985 . S
H932 N926 0.984 . S
H933 N926 0.984 . S
H934 N922 0.984 . S
H935 N922 0.985 . S
C936 C937 1.363 1_556 S
C936 C942 1.379 . S
C936 N944 1.356 . S
C937 C936 1.363 1_554 S
C937 C943 1.363 . S
C938 C939 1.363 1_554 S
C938 C943 1.379 . S
C938 N945 1.356 . S
C939 C938 1.363 1_556 S
C939 C942 1.363 . S
N940 C942 1.356 . S
N940 H952 0.984 . S
N940 H953 0.985 . S
N941 C943 1.356 . S
N941 H946 0.984 . S
N941 H947 0.985 . S
C942 C936 1.379 . S
C942 C939 1.363 . S
C942 N940 1.356 . S
C943 C937 1.363 . S
C943 C938 1.379 . S
C943 N941 1.356 . S
N944 C936 1.356 . S
N944 H950 0.984 . S
N944 H951 0.984 . S
N945 C938 1.356 . S
N945 H948 0.984 . S
N945 H949 0.985 . S
H946 N941 0.984 . S
H947 N941 0.985 . S
H948 N945 0.984 . S
H949 N945 0.985 . S
H950 N944 0.984 . S
H951 N944 0.984 . S
H952 N940 0.984 . S
H953 N940 0.985 . S
C954 C955 1.363 1_554 S
C954 C960 1.379 . S
C954 N962 1.356 . S
C955 C954 1.363 1_556 S
C955 C961 1.363 . S
C956 C957 1.363 1_556 S
C956 C961 1.379 . S
C956 N963 1.356 . S
C957 C956 1.363 1_554 S
C957 C960 1.363 . S
N958 C960 1.356 . S
N958 H970 0.984 . S
N958 H971 0.985 . S
N959 C961 1.356 . S
N959 H964 0.984 . S
N959 H965 0.985 . S
C960 C954 1.379 . S
C960 C957 1.363 . S
C960 N958 1.356 . S
C961 C955 1.363 . S
C961 C956 1.379 . S
C961 N959 1.356 . S
N962 C954 1.356 . S
N962 H968 0.984 . S
N962 H969 0.984 . S
N963 C956 1.356 . S
N963 H966 0.984 . S
N963 H967 0.985 . S
H964 N959 0.984 . S
H965 N959 0.985 . S
H966 N963 0.984 . S
H967 N963 0.985 . S
H968 N962 0.984 . S
H969 N962 0.984 . S
H970 N958 0.984 . S
H971 N958 0.985 . S
C972 C973 1.363 . S
C972 C978 1.379 . S
C972 N980 1.356 . S
C973 C972 1.363 . S
C973 C979 1.363 1_554 S
C974 C975 1.363 . S
C974 C979 1.379 . S
C974 N981 1.356 . S
C975 C974 1.363 . S
C975 C978 1.363 1_556 S
N976 C978 1.356 . S
N976 H988 0.984 . S
N976 H989 0.985 . S
N977 C979 1.356 . S
N977 H982 0.984 . S
N977 H983 0.985 . S
C978 C972 1.379 . S
C978 C975 1.363 1_554 S
C978 N976 1.356 . S
C979 C973 1.363 1_556 S
C979 C974 1.379 . S
C979 N977 1.356 . S
N980 C972 1.356 . S
N980 H986 0.984 . S
N980 H987 0.984 . S
N981 C974 1.356 . S
N981 H984 0.984 . S
N981 H985 0.985 . S
H982 N977 0.984 . S
H983 N977 0.985 . S
H984 N981 0.984 . S
H985 N981 0.985 . S
H986 N980 0.984 . S
H987 N980 0.984 . S
H988 N976 0.984 . S
H989 N976 0.985 . S
C990 C991 1.363 . S
C990 C996 1.379 . S
C990 N998 1.356 . S
C991 C990 1.363 . S
C991 C997 1.363 . S
C992 C993 1.363 . S
C992 C997 1.379 . S
C992 N999 1.356 . S
C993 C992 1.363 . S
C993 C996 1.363 . S
N994 C996 1.356 . S
N994 H1006 0.984 . S
N994 H1007 0.985 . S
N995 C997 1.356 . S
N995 H1000 0.984 . S
N995 H1001 0.985 . S
C996 C990 1.379 . S
C996 C993 1.363 . S
C996 N994 1.356 . S
C997 C991 1.363 . S
C997 C992 1.379 . S
C997 N995 1.356 . S
N998 C990 1.356 . S
N998 H1004 0.984 . S
N998 H1005 0.984 . S
N999 C992 1.356 . S
N999 H1002 0.984 . S
N999 H1003 0.985 . S
H1000 N995 0.984 . S
H1001 N995 0.985 . S
H1002 N999 0.984 . S
H1003 N999 0.985 . S
H1004 N998 0.984 . S
H1005 N998 0.984 . S
H1006 N994 0.984 . S
H1007 N994 0.985 . S
C1008 C1009 1.363 . S
C1008 C1014 1.379 . S
C1008 N1016 1.356 . S
C1009 C1008 1.363 . S
C1009 C1015 1.363 . S
C1010 C1011 1.363 . S
C1010 C1015 1.379 . S
C1010 N1017 1.356 . S
C1011 C1010 1.363 . S
C1011 C1014 1.363 . S
N1012 C1014 1.356 . S
N1012 H1024 0.984 . S
N1012 H1025 0.985 . S
N1013 C1015 1.356 . S
N1013 H1018 0.984 . S
N1013 H1019 0.985 . S
C1014 C1008 1.379 . S
C1014 C1011 1.363 . S
C1014 N1012 1.356 . S
C1015 C1009 1.363 . S
C1015 C1010 1.379 . S
C1015 N1013 1.356 . S
N1016 C1008 1.356 . S
N1016 H1022 0.984 . S
N1016 H1023 0.984 . S
N1017 C1010 1.356 . S
N1017 H1020 0.984 . S
N1017 H1021 0.985 . S
H1018 N1013 0.984 . S
H1019 N1013 0.985 . S
H1020 N1017 0.984 . S
H1021 N1017 0.985 . S
H1022 N1016 0.984 . S
H1023 N1016 0.984 . S
H1024 N1012 0.984 . S
H1025 N1012 0.985 . S
C1026 C1027 1.363 . S
C1026 C1032 1.379 . S
C1026 N1034 1.356 . S
C1027 C1026 1.363 . S
C1027 C1033 1.363 . S
C1028 C1029 1.363 . S
C1028 C1033 1.379 . S
C1028 N1035 1.356 . S
C1029 C1028 1.363 . S
C1029 C1032 1.363 . S
N1030 C1032 1.356 . S
N1030 H1042 0.984 . S
N1030 H1043 0.985 . S
N1031 C1033 1.356 . S
N1031 H1036 0.984 . S
N1031 H1037 0.985 . S
C1032 C1026 1.379 . S
C1032 C1029 1.363 . S
C1032 N1030 1.356 . S
C1033 C1027 1.363 . S
C1033 C1028 1.379 . S
C1033 N1031 1.356 . S
N1034 C1026 1.356 . S
N1034 H1040 0.984 . S
N1034 H1041 0.984 . S
N1035 C1028 1.356 . S
N1035 H1038 0.984 . S
N1035 H1039 0.985 . S
H1036 N1031 0.984 . S
H1037 N1031 0.985 . S
H1038 N1035 0.984 . S
H1039 N1035 0.985 . S
H1040 N1034 0.984 . S
H1041 N1034 0.984 . S
H1042 N1030 0.984 . S
H1043 N1030 0.985 . S
C1044 C1045 1.363 . S
C1044 C1050 1.379 . S
C1044 N1052 1.356 . S
C1045 C1044 1.363 . S
C1045 C1051 1.363 . S
C1046 C1047 1.363 . S
C1046 C1051 1.379 . S
C1046 N1053 1.356 . S
C1047 C1046 1.363 . S
C1047 C1050 1.363 . S
N1048 C1050 1.356 . S
N1048 H1060 0.984 . S
N1048 H1061 0.985 . S
N1049 C1051 1.356 . S
N1049 H1054 0.984 . S
N1049 H1055 0.985 . S
C1050 C1044 1.379 . S
C1050 C1047 1.363 . S
C1050 N1048 1.356 . S
C1051 C1045 1.363 . S
C1051 C1046 1.379 . S
C1051 N1049 1.356 . S
N1052 C1044 1.356 . S
N1052 H1058 0.984 . S
N1052 H1059 0.984 . S
N1053 C1046 1.356 . S
N1053 H1056 0.984 . S
N1053 H1057 0.985 . S
H1054 N1049 0.984 . S
H1055 N1049 0.985 . S
H1056 N1053 0.984 . S
H1057 N1053 0.985 . S
H1058 N1052 0.984 . S
H1059 N1052 0.984 . S
H1060 N1048 0.984 . S
H1061 N1048 0.985 . S
C1062 C1063 1.363 . S
C1062 C1068 1.379 . S
C1062 N1070 1.356 . S
C1063 C1062 1.363 . S
C1063 C1069 1.363 . S
C1064 C1065 1.363 . S
C1064 C1069 1.379 . S
C1064 N1071 1.356 . S
C1065 C1064 1.363 . S
C1065 C1068 1.363 . S
N1066 C1068 1.356 . S
N1066 H1078 0.984 . S
N1066 H1079 0.985 . S
N1067 C1069 1.356 . S
N1067 H1072 0.984 . S
N1067 H1073 0.985 . S
C1068 C1062 1.379 . S
C1068 C1065 1.363 . S
C1068 N1066 1.356 . S
C1069 C1063 1.363 . S
C1069 C1064 1.379 . S
C1069 N1067 1.356 . S
N1070 C1062 1.356 . S
N1070 H1076 0.984 . S
N1070 H1077 0.984 . S
N1071 C1064 1.356 . S
N1071 H1074 0.984 . S
N1071 H1075 0.985 . S
H1072 N1067 0.984 . S
H1073 N1067 0.985 . S
H1074 N1071 0.984 . S
H1075 N1071 0.985 . S
H1076 N1070 0.984 . S
H1077 N1070 0.984 . S
H1078 N1066 0.984 . S
H1079 N1066 0.985 . S
C1080 C1081 1.363 . S
C1080 C1086 1.379 . S
C1080 N1088 1.356 . S
C1081 C1080 1.363 . S
C1081 C1087 1.363 . S
C1082 C1083 1.363 . S
C1082 C1087 1.379 . S
C1082 N1089 1.356 . S
C1083 C1082 1.363 . S
C1083 C1086 1.363 . S
N1084 C1086 1.356 . S
N1084 H1096 0.984 . S
N1084 H1097 0.985 . S
N1085 C1087 1.356 . S
N1085 H1090 0.984 . S
N1085 H1091 0.985 . S
C1086 C1080 1.379 . S
C1086 C1083 1.363 . S
C1086 N1084 1.356 . S
C1087 C1081 1.363 . S
C1087 C1082 1.379 . S
C1087 N1085 1.356 . S
N1088 C1080 1.356 . S
N1088 H1094 0.984 . S
N1088 H1095 0.984 . S
N1089 C1082 1.356 . S
N1089 H1092 0.984 . S
N1089 H1093 0.985 . S
H1090 N1085 0.984 . S
H1091 N1085 0.985 . S
H1092 N1089 0.984 . S
H1093 N1089 0.985 . S
H1094 N1088 0.984 . S
H1095 N1088 0.984 . S
H1096 N1084 0.984 . S
H1097 N1084 0.985 . S
C1098 C1099 1.363 . S
C1098 C1104 1.379 . S
C1098 N1106 1.356 . S
C1099 C1098 1.363 . S
C1099 C1105 1.363 . S
C1100 C1101 1.363 . S
C1100 C1105 1.379 . S
C1100 N1107 1.356 . S
C1101 C1100 1.363 . S
C1101 C1104 1.363 . S
N1102 C1104 1.356 . S
N1102 H1114 0.984 . S
N1102 H1115 0.985 . S
N1103 C1105 1.356 . S
N1103 H1108 0.984 . S
N1103 H1109 0.985 . S
C1104 C1098 1.379 . S
C1104 C1101 1.363 . S
C1104 N1102 1.356 . S
C1105 C1099 1.363 . S
C1105 C1100 1.379 . S
C1105 N1103 1.356 . S
N1106 C1098 1.356 . S
N1106 H1112 0.984 . S
N1106 H1113 0.984 . S
N1107 C1100 1.356 . S
N1107 H1110 0.984 . S
N1107 H1111 0.985 . S
H1108 N1103 0.984 . S
H1109 N1103 0.985 . S
H1110 N1107 0.984 . S
H1111 N1107 0.985 . S
H1112 N1106 0.984 . S
H1113 N1106 0.984 . S
H1114 N1102 0.984 . S
H1115 N1102 0.985 . S
C1116 C1117 1.363 . S
C1116 C1122 1.379 . S
C1116 N1124 1.356 . S
C1117 C1116 1.363 . S
C1117 C1123 1.363 . S
C1118 C1119 1.363 . S
C1118 C1123 1.379 . S
C1118 N1125 1.356 . S
C1119 C1118 1.363 . S
C1119 C1122 1.363 . S
N1120 C1122 1.356 . S
N1120 H1132 0.984 . S
N1120 H1133 0.985 . S
N1121 C1123 1.356 . S
N1121 H1126 0.984 . S
N1121 H1127 0.985 . S
C1122 C1116 1.379 . S
C1122 C1119 1.363 . S
C1122 N1120 1.356 . S
C1123 C1117 1.363 . S
C1123 C1118 1.379 . S
C1123 N1121 1.356 . S
N1124 C1116 1.356 . S
N1124 H1130 0.984 . S
N1124 H1131 0.984 . S
N1125 C1118 1.356 . S
N1125 H1128 0.984 . S
N1125 H1129 0.985 . S
H1126 N1121 0.984 . S
H1127 N1121 0.985 . S
H1128 N1125 0.984 . S
H1129 N1125 0.985 . S
H1130 N1124 0.984 . S
H1131 N1124 0.984 . S
H1132 N1120 0.984 . S
H1133 N1120 0.985 . S
C1134 C1135 1.363 . S
C1134 C1140 1.379 . S
C1134 N1142 1.356 . S
C1135 C1134 1.363 . S
C1135 C1141 1.363 . S
C1136 C1137 1.363 . S
C1136 C1141 1.379 . S
C1136 N1143 1.356 . S
C1137 C1136 1.363 . S
C1137 C1140 1.363 . S
N1138 C1140 1.356 . S
N1138 H1150 0.984 . S
N1138 H1151 0.985 . S
N1139 C1141 1.356 . S
N1139 H1144 0.984 . S
N1139 H1145 0.985 . S
C1140 C1134 1.379 . S
C1140 C1137 1.363 . S
C1140 N1138 1.356 . S
C1141 C1135 1.363 . S
C1141 C1136 1.379 . S
C1141 N1139 1.356 . S
N1142 C1134 1.356 . S
N1142 H1148 0.984 . S
N1142 H1149 0.984 . S
N1143 C1136 1.356 . S
N1143 H1146 0.984 . S
N1143 H1147 0.985 . S
H1144 N1139 0.984 . S
H1145 N1139 0.985 . S
H1146 N1143 0.984 . S
H1147 N1143 0.985 . S
H1148 N1142 0.984 . S
H1149 N1142 0.984 . S
H1150 N1138 0.984 . S
H1151 N1138 0.985 . S
C1152 C1153 1.363 . S
C1152 C1158 1.379 . S
C1152 N1160 1.356 . S
C1153 C1152 1.363 . S
C1153 C1159 1.363 . S
C1154 C1155 1.363 . S
C1154 C1159 1.379 . S
C1154 N1161 1.356 . S
C1155 C1154 1.363 . S
C1155 C1158 1.363 . S
N1156 C1158 1.356 . S
N1156 H1168 0.984 . S
N1156 H1169 0.985 . S
N1157 C1159 1.356 . S
N1157 H1162 0.984 . S
N1157 H1163 0.985 . S
C1158 C1152 1.379 . S
C1158 C1155 1.363 . S
C1158 N1156 1.356 . S
C1159 C1153 1.363 . S
C1159 C1154 1.379 . S
C1159 N1157 1.356 . S
N1160 C1152 1.356 . S
N1160 H1166 0.984 . S
N1160 H1167 0.984 . S
N1161 C1154 1.356 . S
N1161 H1164 0.984 . S
N1161 H1165 0.985 . S
H1162 N1157 0.984 . S
H1163 N1157 0.985 . S
H1164 N1161 0.984 . S
H1165 N1161 0.985 . S
H1166 N1160 0.984 . S
H1167 N1160 0.984 . S
H1168 N1156 0.984 . S
H1169 N1156 0.985 . S
C1170 C1171 1.363 . S
C1170 C1176 1.379 . S
C1170 N1178 1.356 . S
C1171 C1170 1.363 . S
C1171 C1177 1.363 . S
C1172 C1173 1.363 . S
C1172 C1177 1.379 . S
C1172 N1179 1.356 . S
C1173 C1172 1.363 . S
C1173 C1176 1.363 . S
N1174 C1176 1.356 . S
N1174 H1186 0.984 . S
N1174 H1187 0.985 . S
N1175 C1177 1.356 . S
N1175 H1180 0.984 . S
N1175 H1181 0.985 . S
C1176 C1170 1.379 . S
C1176 C1173 1.363 . S
C1176 N1174 1.356 . S
C1177 C1171 1.363 . S
C1177 C1172 1.379 . S
C1177 N1175 1.356 . S
N1178 C1170 1.356 . S
N1178 H1184 0.984 . S
N1178 H1185 0.984 . S
N1179 C1172 1.356 . S
N1179 H1182 0.984 . S
N1179 H1183 0.985 . S
H1180 N1175 0.984 . S
H1181 N1175 0.985 . S
H1182 N1179 0.984 . S
H1183 N1179 0.985 . S
H1184 N1178 0.984 . S
H1185 N1178 0.984 . S
H1186 N1174 0.984 . S
H1187 N1174 0.985 . S
C1188 C1189 1.363 . S
C1188 C1194 1.379 . S
C1188 N1196 1.356 . S
C1189 C1188 1.363 . S
C1189 C1195 1.363 . S
C1190 C1191 1.363 . S
C1190 C1195 1.379 . S
C1190 N1197 1.356 . S
C1191 C1190 1.363 . S
C1191 C1194 1.363 . S
N1192 C1194 1.356 . S
N1192 H1204 0.984 . S
N1192 H1205 0.985 . S
N1193 C1195 1.356 . S
N1193 H1198 0.984 . S
N1193 H1199 0.985 . S
C1194 C1188 1.379 . S
C1194 C1191 1.363 . S
C1194 N1192 1.356 . S
C1195 C1189 1.363 . S
C1195 C1190 1.379 . S
C1195 N1193 1.356 . S
N1196 C1188 1.356 . S
N1196 H1202 0.984 . S
N1196 H1203 0.984 . S
N1197 C1190 1.356 . S
N1197 H1200 0.984 . S
N1197 H1201 0.985 . S
H1198 N1193 0.984 . S
H1199 N1193 0.985 . S
H1200 N1197 0.984 . S
H1201 N1197 0.985 . S
H1202 N1196 0.984 . S
H1203 N1196 0.984 . S
H1204 N1192 0.984 . S
H1205 N1192 0.985 . S
C1206 C1207 1.363 . S
C1206 C1212 1.379 . S
C1206 N1214 1.356 . S
C1207 C1206 1.363 . S
C1207 C1213 1.363 . S
C1208 C1209 1.363 . S
C1208 C1213 1.379 . S
C1208 N1215 1.356 . S
C1209 C1208 1.363 . S
C1209 C1212 1.363 . S
N1210 C1212 1.356 . S
N1210 H1222 0.984 . S
N1210 H1223 0.985 . S
N1211 C1213 1.356 . S
N1211 H1216 0.984 . S
N1211 H1217 0.985 . S
C1212 C1206 1.379 . S
C1212 C1209 1.363 . S
C1212 N1210 1.356 . S
C1213 C1207 1.363 . S
C1213 C1208 1.379 . S
C1213 N1211 1.356 . S
N1214 C1206 1.356 . S
N1214 H1220 0.984 . S
N1214 H1221 0.984 . S
N1215 C1208 1.356 . S
N1215 H1218 0.984 . S
N1215 H1219 0.985 . S
H1216 N1211 0.984 . S
H1217 N1211 0.985 . S
H1218 N1215 0.984 . S
H1219 N1215 0.985 . S
H1220 N1214 0.984 . S
H1221 N1214 0.984 . S
H1222 N1210 0.984 . S
H1223 N1210 0.985 . S
C1224 C1225 1.363 . S
C1224 C1230 1.379 . S
C1224 N1232 1.356 . S
C1225 C1224 1.363 . S
C1225 C1231 1.363 . S
C1226 C1227 1.363 . S
C1226 C1231 1.379 . S
C1226 N1233 1.356 . S
C1227 C1226 1.363 . S
C1227 C1230 1.363 . S
N1228 C1230 1.356 . S
N1228 H1240 0.984 . S
N1228 H1241 0.985 . S
N1229 C1231 1.356 . S
N1229 H1234 0.984 . S
N1229 H1235 0.985 . S
C1230 C1224 1.379 . S
C1230 C1227 1.363 . S
C1230 N1228 1.356 . S
C1231 C1225 1.363 . S
C1231 C1226 1.379 . S
C1231 N1229 1.356 . S
N1232 C1224 1.356 . S
N1232 H1238 0.984 . S
N1232 H1239 0.984 . S
N1233 C1226 1.356 . S
N1233 H1236 0.984 . S
N1233 H1237 0.985 . S
H1234 N1229 0.984 . S
H1235 N1229 0.985 . S
H1236 N1233 0.984 . S
H1237 N1233 0.985 . S
H1238 N1232 0.984 . S
H1239 N1232 0.984 . S
H1240 N1228 0.984 . S
H1241 N1228 0.985 . S
C1242 C1243 1.363 . S
C1242 C1248 1.379 . S
C1242 N1250 1.356 . S
C1243 C1242 1.363 . S
C1243 C1249 1.363 . S
C1244 C1245 1.363 . S
C1244 C1249 1.379 . S
C1244 N1251 1.356 . S
C1245 C1244 1.363 . S
C1245 C1248 1.363 . S
N1246 C1248 1.356 . S
N1246 H1258 0.984 . S
N1246 H1259 0.985 . S
N1247 C1249 1.356 . S
N1247 H1252 0.984 . S
N1247 H1253 0.985 . S
C1248 C1242 1.379 . S
C1248 C1245 1.363 . S
C1248 N1246 1.356 . S
C1249 C1243 1.363 . S
C1249 C1244 1.379 . S
C1249 N1247 1.356 . S
N1250 C1242 1.356 . S
N1250 H1256 0.984 . S
N1250 H1257 0.984 . S
N1251 C1244 1.356 . S
N1251 H1254 0.984 . S
N1251 H1255 0.985 . S
H1252 N1247 0.984 . S
H1253 N1247 0.985 . S
H1254 N1251 0.984 . S
H1255 N1251 0.985 . S
H1256 N1250 0.984 . S
H1257 N1250 0.984 . S
H1258 N1246 0.984 . S
H1259 N1246 0.985 . S
C1260 C1261 1.363 . S
C1260 C1266 1.379 . S
C1260 N1268 1.356 . S
C1261 C1260 1.363 . S
C1261 C1267 1.363 . S
C1262 C1263 1.363 . S
C1262 C1267 1.379 . S
C1262 N1269 1.356 . S
C1263 C1262 1.363 . S
C1263 C1266 1.363 . S
N1264 C1266 1.356 . S
N1264 H1276 0.984 . S
N1264 H1277 0.985 . S
N1265 C1267 1.356 . S
N1265 H1270 0.984 . S
N1265 H1271 0.985 . S
C1266 C1260 1.379 . S
C1266 C1263 1.363 . S
C1266 N1264 1.356 . S
C1267 C1261 1.363 . S
C1267 C1262 1.379 . S
C1267 N1265 1.356 . S
N1268 C1260 1.356 . S
N1268 H1274 0.984 . S
N1268 H1275 0.984 . S
N1269 C1262 1.356 . S
N1269 H1272 0.984 . S
N1269 H1273 0.985 . S
H1270 N1265 0.984 . S
H1271 N1265 0.985 . S
H1272 N1269 0.984 . S
H1273 N1269 0.985 . S
H1274 N1268 0.984 . S
H1275 N1268 0.984 . S
H1276 N1264 0.984 . S
H1277 N1264 0.985 . S
C1278 C1279 1.363 . S
C1278 C1284 1.379 . S
C1278 N1286 1.356 . S
C1279 C1278 1.363 . S
C1279 C1285 1.363 . S
C1280 C1281 1.363 . S
C1280 C1285 1.379 . S
C1280 N1287 1.356 . S
C1281 C1280 1.363 . S
C1281 C1284 1.363 . S
N1282 C1284 1.356 . S
N1282 H1294 0.984 . S
N1282 H1295 0.985 . S
N1283 C1285 1.356 . S
N1283 H1288 0.984 . S
N1283 H1289 0.985 . S
C1284 C1278 1.379 . S
C1284 C1281 1.363 . S
C1284 N1282 1.356 . S
C1285 C1279 1.363 . S
C1285 C1280 1.379 . S
C1285 N1283 1.356 . S
N1286 C1278 1.356 . S
N1286 H1292 0.984 . S
N1286 H1293 0.984 . S
N1287 C1280 1.356 . S
N1287 H1290 0.984 . S
N1287 H1291 0.985 . S
H1288 N1283 0.984 . S
H1289 N1283 0.985 . S
H1290 N1287 0.984 . S
H1291 N1287 0.985 . S
H1292 N1286 0.984 . S
H1293 N1286 0.984 . S
H1294 N1282 0.984 . S
H1295 N1282 0.985 . S
C1296 C1297 1.363 . S
C1296 C1302 1.379 . S
C1296 N1304 1.356 . S
C1297 C1296 1.363 . S
C1297 C1303 1.363 . S
C1298 C1299 1.363 . S
C1298 C1303 1.379 . S
C1298 N1305 1.356 . S
C1299 C1298 1.363 . S
C1299 C1302 1.363 . S
N1300 C1302 1.356 . S
N1300 H1312 0.984 . S
N1300 H1313 0.985 . S
N1301 C1303 1.356 . S
N1301 H1306 0.984 . S
N1301 H1307 0.985 . S
C1302 C1296 1.379 . S
C1302 C1299 1.363 . S
C1302 N1300 1.356 . S
C1303 C1297 1.363 . S
C1303 C1298 1.379 . S
C1303 N1301 1.356 . S
N1304 C1296 1.356 . S
N1304 H1310 0.984 . S
N1304 H1311 0.984 . S
N1305 C1298 1.356 . S
N1305 H1308 0.984 . S
N1305 H1309 0.985 . S
H1306 N1301 0.984 . S
H1307 N1301 0.985 . S
H1308 N1305 0.984 . S
H1309 N1305 0.985 . S
H1310 N1304 0.984 . S
H1311 N1304 0.984 . S
H1312 N1300 0.984 . S
H1313 N1300 0.985 . S
C1314 C1315 1.363 . S
C1314 C1320 1.379 . S
C1314 N1322 1.356 . S
C1315 C1314 1.363 . S
C1315 C1321 1.363 . S
C1316 C1317 1.363 . S
C1316 C1321 1.379 . S
C1316 N1323 1.356 . S
C1317 C1316 1.363 . S
C1317 C1320 1.363 . S
N1318 C1320 1.356 . S
N1318 H1330 0.984 . S
N1318 H1331 0.985 . S
N1319 C1321 1.356 . S
N1319 H1324 0.984 . S
N1319 H1325 0.985 . S
C1320 C1314 1.379 . S
C1320 C1317 1.363 . S
C1320 N1318 1.356 . S
C1321 C1315 1.363 . S
C1321 C1316 1.379 . S
C1321 N1319 1.356 . S
N1322 C1314 1.356 . S
N1322 H1328 0.984 . S
N1322 H1329 0.984 . S
N1323 C1316 1.356 . S
N1323 H1326 0.984 . S
N1323 H1327 0.985 . S
H1324 N1319 0.984 . S
H1325 N1319 0.985 . S
H1326 N1323 0.984 . S
H1327 N1323 0.985 . S
H1328 N1322 0.984 . S
H1329 N1322 0.984 . S
H1330 N1318 0.984 . S
H1331 N1318 0.985 . S
C1332 C1333 1.363 . S
C1332 C1338 1.379 . S
C1332 N1340 1.356 . S
C1333 C1332 1.363 . S
C1333 C1339 1.363 . S
C1334 C1335 1.363 . S
C1334 C1339 1.379 . S
C1334 N1341 1.356 . S
C1335 C1334 1.363 . S
C1335 C1338 1.363 . S
N1336 C1338 1.356 . S
N1336 H1348 0.984 . S
N1336 H1349 0.985 . S
N1337 C1339 1.356 . S
N1337 H1342 0.984 . S
N1337 H1343 0.985 . S
C1338 C1332 1.379 . S
C1338 C1335 1.363 . S
C1338 N1336 1.356 . S
C1339 C1333 1.363 . S
C1339 C1334 1.379 . S
C1339 N1337 1.356 . S
N1340 C1332 1.356 . S
N1340 H1346 0.984 . S
N1340 H1347 0.984 . S
N1341 C1334 1.356 . S
N1341 H1344 0.984 . S
N1341 H1345 0.985 . S
H1342 N1337 0.984 . S
H1343 N1337 0.985 . S
H1344 N1341 0.984 . S
H1345 N1341 0.985 . S
H1346 N1340 0.984 . S
H1347 N1340 0.984 . S
H1348 N1336 0.984 . S
H1349 N1336 0.985 . S
C1350 C1351 1.363 . S
C1350 C1356 1.379 . S
C1350 N1358 1.356 . S
C1351 C1350 1.363 . S
C1351 C1357 1.363 . S
C1352 C1353 1.363 . S
C1352 C1357 1.379 . S
C1352 N1359 1.356 . S
C1353 C1352 1.363 . S
C1353 C1356 1.363 . S
N1354 C1356 1.356 . S
N1354 H1366 0.984 . S
N1354 H1367 0.985 . S
N1355 C1357 1.356 . S
N1355 H1360 0.984 . S
N1355 H1361 0.985 . S
C1356 C1350 1.379 . S
C1356 C1353 1.363 . S
C1356 N1354 1.356 . S
C1357 C1351 1.363 . S
C1357 C1352 1.379 . S
C1357 N1355 1.356 . S
N1358 C1350 1.356 . S
N1358 H1364 0.984 . S
N1358 H1365 0.984 . S
N1359 C1352 1.356 . S
N1359 H1362 0.984 . S
N1359 H1363 0.985 . S
H1360 N1355 0.984 . S
H1361 N1355 0.985 . S
H1362 N1359 0.984 . S
H1363 N1359 0.985 . S
H1364 N1358 0.984 . S
H1365 N1358 0.984 . S
H1366 N1354 0.984 . S
H1367 N1354 0.985 . S
C1368 C1369 1.363 . S
C1368 C1374 1.379 . S
C1368 N1376 1.356 . S
C1369 C1368 1.363 . S
C1369 C1375 1.363 . S
C1370 C1371 1.363 . S
C1370 C1375 1.379 . S
C1370 N1377 1.356 . S
C1371 C1370 1.363 . S
C1371 C1374 1.363 . S
N1372 C1374 1.356 . S
N1372 H1384 0.984 . S
N1372 H1385 0.985 . S
N1373 C1375 1.356 . S
N1373 H1378 0.984 . S
N1373 H1379 0.985 . S
C1374 C1368 1.379 . S
C1374 C1371 1.363 . S
C1374 N1372 1.356 . S
C1375 C1369 1.363 . S
C1375 C1370 1.379 . S
C1375 N1373 1.356 . S
N1376 C1368 1.356 . S
N1376 H1382 0.984 . S
N1376 H1383 0.984 . S
N1377 C1370 1.356 . S
N1377 H1380 0.984 . S
N1377 H1381 0.985 . S
H1378 N1373 0.984 . S
H1379 N1373 0.985 . S
H1380 N1377 0.984 . S
H1381 N1377 0.985 . S
H1382 N1376 0.984 . S
H1383 N1376 0.984 . S
H1384 N1372 0.984 . S
H1385 N1372 0.985 . S
C1386 C1387 1.363 . S
C1386 C1392 1.379 . S
C1386 N1394 1.356 . S
C1387 C1386 1.363 . S
C1387 C1393 1.363 . S
C1388 C1389 1.363 . S
C1388 C1393 1.379 . S
C1388 N1395 1.356 . S
C1389 C1388 1.363 . S
C1389 C1392 1.363 . S
N1390 C1392 1.356 . S
N1390 H1402 0.984 . S
N1390 H1403 0.985 . S
N1391 C1393 1.356 . S
N1391 H1396 0.984 . S
N1391 H1397 0.985 . S
C1392 C1386 1.379 . S
C1392 C1389 1.363 . S
C1392 N1390 1.356 . S
C1393 C1387 1.363 . S
C1393 C1388 1.379 . S
C1393 N1391 1.356 . S
N1394 C1386 1.356 . S
N1394 H1400 0.984 . S
N1394 H1401 0.984 . S
N1395 C1388 1.356 . S
N1395 H1398 0.984 . S
N1395 H1399 0.985 . S
H1396 N1391 0.984 . S
H1397 N1391 0.985 . S
H1398 N1395 0.984 . S
H1399 N1395 0.985 . S
H1400 N1394 0.984 . S
H1401 N1394 0.984 . S
H1402 N1390 0.984 . S
H1403 N1390 0.985 . S
C1404 C1405 1.363 . S
C1404 C1410 1.379 . S
C1404 N1412 1.356 . S
C1405 C1404 1.363 . S
C1405 C1411 1.363 . S
C1406 C1407 1.363 . S
C1406 C1411 1.379 . S
C1406 N1413 1.356 . S
C1407 C1406 1.363 . S
C1407 C1410 1.363 . S
N1408 C1410 1.356 . S
N1408 H1420 0.984 . S
N1408 H1421 0.985 . S
N1409 C1411 1.356 . S
N1409 H1414 0.984 . S
N1409 H1415 0.985 . S
C1410 C1404 1.379 . S
C1410 C1407 1.363 . S
C1410 N1408 1.356 . S
C1411 C1405 1.363 . S
C1411 C1406 1.379 . S
C1411 N1409 1.356 . S
N1412 C1404 1.356 . S
N1412 H1418 0.984 . S
N1412 H1419 0.984 . S
N1413 C1406 1.356 . S
N1413 H1416 0.984 . S
N1413 H1417 0.985 . S
H1414 N1409 0.984 . S
H1415 N1409 0.985 . S
H1416 N1413 0.984 . S
H1417 N1413 0.985 . S
H1418 N1412 0.984 . S
H1419 N1412 0.984 . S
H1420 N1408 0.984 . S
H1421 N1408 0.985 . S
C1422 C1423 1.363 . S
C1422 C1428 1.379 . S
C1422 N1430 1.356 . S
C1423 C1422 1.363 . S
C1423 C1429 1.363 . S
C1424 C1425 1.363 . S
C1424 C1429 1.379 . S
C1424 N1431 1.356 . S
C1425 C1424 1.363 . S
C1425 C1428 1.363 . S
N1426 C1428 1.356 . S
N1426 H1438 0.984 . S
N1426 H1439 0.985 . S
N1427 C1429 1.356 . S
N1427 H1432 0.984 . S
N1427 H1433 0.985 . S
C1428 C1422 1.379 . S
C1428 C1425 1.363 . S
C1428 N1426 1.356 . S
C1429 C1423 1.363 . S
C1429 C1424 1.379 . S
C1429 N1427 1.356 . S
N1430 C1422 1.356 . S
N1430 H1436 0.984 . S
N1430 H1437 0.984 . S
N1431 C1424 1.356 . S
N1431 H1434 0.984 . S
N1431 H1435 0.985 . S
H1432 N1427 0.984 . S
H1433 N1427 0.985 . S
H1434 N1431 0.984 . S
H1435 N1431 0.985 . S
H1436 N1430 0.984 . S
H1437 N1430 0.984 . S
H1438 N1426 0.984 . S
H1439 N1426 0.985 . S
C1440 C1441 1.363 . S
C1440 C1446 1.379 . S
C1440 N1448 1.356 . S
C1441 C1440 1.363 . S
C1441 C1447 1.363 . S
C1442 C1443 1.363 . S
C1442 C1447 1.379 . S
C1442 N1449 1.356 . S
C1443 C1442 1.363 . S
C1443 C1446 1.363 . S
N1444 C1446 1.356 . S
N1444 H1456 0.984 . S
N1444 H1457 0.985 . S
N1445 C1447 1.356 . S
N1445 H1450 0.984 . S
N1445 H1451 0.985 . S
C1446 C1440 1.379 . S
C1446 C1443 1.363 . S
C1446 N1444 1.356 . S
C1447 C1441 1.363 . S
C1447 C1442 1.379 . S
C1447 N1445 1.356 . S
N1448 C1440 1.356 . S
N1448 H1454 0.984 . S
N1448 H1455 0.984 . S
N1449 C1442 1.356 . S
N1449 H1452 0.984 . S
N1449 H1453 0.985 . S
H1450 N1445 0.984 . S
H1451 N1445 0.985 . S
H1452 N1449 0.984 . S
H1453 N1449 0.985 . S
H1454 N1448 0.984 . S
H1455 N1448 0.984 . S
H1456 N1444 0.984 . S
H1457 N1444 0.985 . S
C1458 C1459 1.363 . S
C1458 C1464 1.379 . S
C1458 N1466 1.356 . S
C1459 C1458 1.363 . S
C1459 C1465 1.363 . S
C1460 C1461 1.363 . S
C1460 C1465 1.379 . S
C1460 N1467 1.356 . S
C1461 C1460 1.363 . S
C1461 C1464 1.363 . S
N1462 C1464 1.356 . S
N1462 H1474 0.984 . S
N1462 H1475 0.985 . S
N1463 C1465 1.356 . S
N1463 H1468 0.984 . S
N1463 H1469 0.985 . S
C1464 C1458 1.379 . S
C1464 C1461 1.363 . S
C1464 N1462 1.356 . S
C1465 C1459 1.363 . S
C1465 C1460 1.379 . S
C1465 N1463 1.356 . S
N1466 C1458 1.356 . S
N1466 H1472 0.984 . S
N1466 H1473 0.984 . S
N1467 C1460 1.356 . S
N1467 H1470 0.984 . S
N1467 H1471 0.985 . S
H1468 N1463 0.984 . S
H1469 N1463 0.985 . S
H1470 N1467 0.984 . S
H1471 N1467 0.985 . S
H1472 N1466 0.984 . S
H1473 N1466 0.984 . S
H1474 N1462 0.984 . S
H1475 N1462 0.985 . S
C1476 C1477 1.363 . S
C1476 C1482 1.379 . S
C1476 N1484 1.356 . S
C1477 C1476 1.363 . S
C1477 C1483 1.363 . S
C1478 C1479 1.363 . S
C1478 C1483 1.379 . S
C1478 N1485 1.356 . S
C1479 C1478 1.363 . S
C1479 C1482 1.363 . S
N1480 C1482 1.356 . S
N1480 H1492 0.984 . S
N1480 H1493 0.985 . S
N1481 C1483 1.356 . S
N1481 H1486 0.984 . S
N1481 H1487 0.985 . S
C1482 C1476 1.379 . S
C1482 C1479 1.363 . S
C1482 N1480 1.356 . S
C1483 C1477 1.363 . S
C1483 C1478 1.379 . S
C1483 N1481 1.356 . S
N1484 C1476 1.356 . S
N1484 H1490 0.984 . S
N1484 H1491 0.984 . S
N1485 C1478 1.356 . S
N1485 H1488 0.984 . S
N1485 H1489 0.985 . S
H1486 N1481 0.984 . S
H1487 N1481 0.985 . S
H1488 N1485 0.984 . S
H1489 N1485 0.985 . S
H1490 N1484 0.984 . S
H1491 N1484 0.984 . S
H1492 N1480 0.984 . S
H1493 N1480 0.985 . S
C1494 C1495 1.363 1_565 S
C1494 C1500 1.379 . S
C1494 N1502 1.356 . S
C1495 C1494 1.363 1_545 S
C1495 C1501 1.363 . S
C1496 C1497 1.363 1_545 S
C1496 C1501 1.379 . S
C1496 N1503 1.356 . S
C1497 C1496 1.363 1_565 S
C1497 C1500 1.363 . S
N1498 C1500 1.356 . S
N1498 H1510 0.984 . S
N1498 H1511 0.985 . S
N1499 C1501 1.356 . S
N1499 H1504 0.984 . S
N1499 H1505 0.985 . S
C1500 C1494 1.379 . S
C1500 C1497 1.363 . S
C1500 N1498 1.356 . S
C1501 C1495 1.363 . S
C1501 C1496 1.379 . S
C1501 N1499 1.356 . S
N1502 C1494 1.356 . S
N1502 H1508 0.984 . S
N1502 H1509 0.984 . S
N1503 C1496 1.356 . S
N1503 H1506 0.984 . S
N1503 H1507 0.985 . S
H1504 N1499 0.984 . S
H1505 N1499 0.985 . S
H1506 N1503 0.984 . S
H1507 N1503 0.985 . S
H1508 N1502 0.984 . S
H1509 N1502 0.984 . S
H1510 N1498 0.984 . S
H1511 N1498 0.985 . S
C1512 C1513 1.363 . S
C1512 C1518 1.379 1_455 S
C1512 N1520 1.356 . S
C1513 C1512 1.363 . S
C1513 C1519 1.363 . S
C1514 C1515 1.363 . S
C1514 C1519 1.379 1_655 S
C1514 N1521 1.356 . S
C1515 C1514 1.363 . S
C1515 C1518 1.363 . S
N1516 C1518 1.356 . S
N1516 H1528 0.984 . S
N1516 H1529 0.985 . S
N1517 C1519 1.356 . S
N1517 H1522 0.984 . S
N1517 H1523 0.985 . S
C1518 C1512 1.379 1_655 S
C1518 C1515 1.363 . S
C1518 N1516 1.356 . S
C1519 C1513 1.363 . S
C1519 C1514 1.379 1_455 S
C1519 N1517 1.356 . S
N1520 C1512 1.356 . S
N1520 H1526 0.984 . S
N1520 H1527 0.984 . S
N1521 C1514 1.356 . S
N1521 H1524 0.984 . S
N1521 H1525 0.985 . S
H1522 N1517 0.984 . S
H1523 N1517 0.985 . S
H1524 N1521 0.984 . S
H1525 N1521 0.985 . S
H1526 N1520 0.984 . S
H1527 N1520 0.984 . S
H1528 N1516 0.984 . S
H1529 N1516 0.985 . S
C1530 C1531 1.363 . S
C1530 C1536 1.379 . S
C1530 N1538 1.356 . S
C1531 C1530 1.363 . S
C1531 C1537 1.363 . S
C1532 C1533 1.363 . S
C1532 C1537 1.379 . S
C1532 N1539 1.356 . S
C1533 C1532 1.363 . S
C1533 C1536 1.363 . S
N1534 C1536 1.356 . S
N1534 H1546 0.984 . S
N1534 H1547 0.985 . S
N1535 C1537 1.356 . S
N1535 H1540 0.984 . S
N1535 H1541 0.985 . S
C1536 C1530 1.379 . S
C1536 C1533 1.363 . S
C1536 N1534 1.356 . S
C1537 C1531 1.363 . S
C1537 C1532 1.379 . S
C1537 N1535 1.356 . S
N1538 C1530 1.356 . S
N1538 H1544 0.984 . S
N1538 H1545 0.984 . S
N1539 C1532 1.356 . S
N1539 H1542 0.984 . S
N1539 H1543 0.985 . S
H1540 N1535 0.984 . S
H1541 N1535 0.985 . S
H1542 N1539 0.984 . S
H1543 N1539 0.985 . S
H1544 N1538 0.984 . S
H1545 N1538 0.984 . S
H1546 N1534 0.984 . S
H1547 N1534 0.985 . S
C1548 C1549 1.363 1_565 S
C1548 C1554 1.379 . S
C1548 N1556 1.356 . S
C1549 C1548 1.363 1_545 S
C1549 C1555 1.363 . S
C1550 C1551 1.363 1_545 S
C1550 C1555 1.379 . S
C1550 N1557 1.356 . S
C1551 C1550 1.363 1_565 S
C1551 C1554 1.363 . S
N1552 C1554 1.356 . S
N1552 H1564 0.984 . S
N1552 H1565 0.985 . S
N1553 C1555 1.356 . S
N1553 H1558 0.984 . S
N1553 H1559 0.985 . S
C1554 C1548 1.379 . S
C1554 C1551 1.363 . S
C1554 N1552 1.356 . S
C1555 C1549 1.363 . S
C1555 C1550 1.379 . S
C1555 N1553 1.356 . S
N1556 C1548 1.356 . S
N1556 H1562 0.984 . S
N1556 H1563 0.984 . S
N1557 C1550 1.356 . S
N1557 H1560 0.984 . S
N1557 H1561 0.985 . S
H1558 N1553 0.984 . S
H1559 N1553 0.985 . S
H1560 N1557 0.984 . S
H1561 N1557 0.985 . S
H1562 N1556 0.984 . S
H1563 N1556 0.984 . S
H1564 N1552 0.984 . S
H1565 N1552 0.985 . S
C1566 C1567 1.363 . S
C1566 C1572 1.379 . S
C1566 N1574 1.356 . S
C1567 C1566 1.363 . S
C1567 C1573 1.363 1_655 S
C1568 C1569 1.363 . S
C1568 C1573 1.379 . S
C1568 N1575 1.356 . S
C1569 C1568 1.363 . S
C1569 C1572 1.363 1_455 S
N1570 C1572 1.356 . S
N1570 H1582 0.984 . S
N1570 H1583 0.985 1_655 S
N1571 C1573 1.356 . S
N1571 H1576 0.984 1_455 S
N1571 H1577 0.985 . S
C1572 C1566 1.379 . S
C1572 C1569 1.363 1_655 S
C1572 N1570 1.356 . S
C1573 C1567 1.363 1_455 S
C1573 C1568 1.379 . S
C1573 N1571 1.356 . S
N1574 C1566 1.356 . S
N1574 H1580 0.984 . S
N1574 H1581 0.984 . S
N1575 C1568 1.356 . S
N1575 H1578 0.984 . S
N1575 H1579 0.985 . S
H1576 N1571 0.984 1_655 S
H1577 N1571 0.985 . S
H1578 N1575 0.984 . S
H1579 N1575 0.985 . S
H1580 N1574 0.984 . S
H1581 N1574 0.984 . S
H1582 N1570 0.984 . S
H1583 N1570 0.985 1_455 S
C1584 C1585 1.363 . S
C1584 C1590 1.379 . S
C1584 N1592 1.356 . S
C1585 C1584 1.363 . S
C1585 C1591 1.363 . S
C1586 C1587 1.363 . S
C1586 C1591 1.379 . S
C1586 N1593 1.356 . S
C1587 C1586 1.363 . S
C1587 C1590 1.363 . S
N1588 C1590 1.356 . S
N1588 H1600 0.984 . S
N1588 H1601 0.985 . S
N1589 C1591 1.356 . S
N1589 H1594 0.984 . S
N1589 H1595 0.985 . S
C1590 C1584 1.379 . S
C1590 C1587 1.363 . S
C1590 N1588 1.356 . S
C1591 C1585 1.363 . S
C1591 C1586 1.379 . S
C1591 N1589 1.356 . S
N1592 C1584 1.356 . S
N1592 H1598 0.984 . S
N1592 H1599 0.984 . S
N1593 C1586 1.356 . S
N1593 H1596 0.984 . S
N1593 H1597 0.985 . S
H1594 N1589 0.984 . S
H1595 N1589 0.985 . S
H1596 N1593 0.984 . S
H1597 N1593 0.985 . S
H1598 N1592 0.984 . S
H1599 N1592 0.984 . S
H1600 N1588 0.984 . S
H1601 N1588 0.985 . S
C1602 C1603 1.363 . S
C1602 C1608 1.379 . S
C1602 N1610 1.356 . S
C1603 C1602 1.363 . S
C1603 C1609 1.363 . S
C1604 C1605 1.363 . S
C1604 C1609 1.379 . S
C1604 N1611 1.356 . S
C1605 C1604 1.363 . S
C1605 C1608 1.363 . S
N1606 C1608 1.356 . S
N1606 H1618 0.984 . S
N1606 H1619 0.985 . S
N1607 C1609 1.356 . S
N1607 H1612 0.984 . S
N1607 H1613 0.985 . S
C1608 C1602 1.379 . S
C1608 C1605 1.363 . S
C1608 N1606 1.356 . S
C1609 C1603 1.363 . S
C1609 C1604 1.379 . S
C1609 N1607 1.356 . S
N1610 C1602 1.356 . S
N1610 H1616 0.984 . S
N1610 H1617 0.984 . S
N1611 C1604 1.356 . S
N1611 H1614 0.984 . S
N1611 H1615 0.985 . S
H1612 N1607 0.984 . S
H1613 N1607 0.985 . S
H1614 N1611 0.984 . S
H1615 N1611 0.985 . S
H1616 N1610 0.984 . S
H1617 N1610 0.984 . S
H1618 N1606 0.984 . S
H1619 N1606 0.985 . S
C1620 C1621 1.363 . S
C1620 C1626 1.379 . S
C1620 N1628 1.356 . S
C1621 C1620 1.363 . S
C1621 C1627 1.363 . S
C1622 C1623 1.363 . S
C1622 C1627 1.379 . S
C1622 N1629 1.356 . S
C1623 C1622 1.363 . S
C1623 C1626 1.363 . S
N1624 C1626 1.356 . S
N1624 H1636 0.984 . S
N1624 H1637 0.985 . S
N1625 C1627 1.356 . S
N1625 H1630 0.984 . S
N1625 H1631 0.985 . S
C1626 C1620 1.379 . S
C1626 C1623 1.363 . S
C1626 N1624 1.356 . S
C1627 C1621 1.363 . S
C1627 C1622 1.379 . S
C1627 N1625 1.356 . S
N1628 C1620 1.356 . S
N1628 H1634 0.984 . S
N1628 H1635 0.984 . S
N1629 C1622 1.356 . S
N1629 H1632 0.984 . S
N1629 H1633 0.985 . S
H1630 N1625 0.984 . S
H1631 N1625 0.985 . S
H1632 N1629 0.984 . S
H1633 N1629 0.985 . S
H1634 N1628 0.984 . S
H1635 N1628 0.984 . S
H1636 N1624 0.984 . S
H1637 N1624 0.985 . S
C1638 C1639 1.363 . S
C1638 C1644 1.379 . S
C1638 N1646 1.356 . S
C1639 C1638 1.363 . S
C1639 C1645 1.363 . S
C1640 C1641 1.363 . S
C1640 C1645 1.379 . S
C1640 N1647 1.356 . S
C1641 C1640 1.363 . S
C1641 C1644 1.363 . S
N1642 C1644 1.356 . S
N1642 H1654 0.984 . S
N1642 H1655 0.985 1_554 S
N1643 C1645 1.356 . S
N1643 H1648 0.984 . S
N1643 H1649 0.985 . S
C1644 C1638 1.379 . S
C1644 C1641 1.363 . S
C1644 N1642 1.356 . S
C1645 C1639 1.363 . S
C1645 C1640 1.379 . S
C1645 N1643 1.356 . S
N1646 C1638 1.356 . S
N1646 H1652 0.984 . S
N1646 H1653 0.984 . S
N1647 C1640 1.356 . S
N1647 H1650 0.984 1_554 S
N1647 H1651 0.985 . S
H1648 N1643 0.984 . S
H1649 N1643 0.985 . S
H1650 N1647 0.984 1_556 S
H1651 N1647 0.985 . S
H1652 N1646 0.984 . S
H1653 N1646 0.984 . S
H1654 N1642 0.984 . S
H1655 N1642 0.985 1_556 S
C1656 C1657 1.363 . S
C1656 C1662 1.379 . S
C1656 N1664 1.356 . S
C1657 C1656 1.363 . S
C1657 C1663 1.363 . S
C1658 C1659 1.363 . S
C1658 C1663 1.379 . S
C1658 N1665 1.356 . S
C1659 C1658 1.363 . S
C1659 C1662 1.363 . S
N1660 C1662 1.356 . S
N1660 H1672 0.984 . S
N1660 H1673 0.985 1_554 S
N1661 C1663 1.356 . S
N1661 H1666 0.984 . S
N1661 H1667 0.985 . S
C1662 C1656 1.379 . S
C1662 C1659 1.363 . S
C1662 N1660 1.356 . S
C1663 C1657 1.363 . S
C1663 C1658 1.379 . S
C1663 N1661 1.356 . S
N1664 C1656 1.356 . S
N1664 H1670 0.984 . S
N1664 H1671 0.984 . S
N1665 C1658 1.356 . S
N1665 H1668 0.984 1_554 S
N1665 H1669 0.985 . S
H1666 N1661 0.984 . S
H1667 N1661 0.985 . S
H1668 N1665 0.984 1_556 S
H1669 N1665 0.985 . S
H1670 N1664 0.984 . S
H1671 N1664 0.984 . S
H1672 N1660 0.984 . S
H1673 N1660 0.985 1_556 S
C1674 C1675 1.363 . S
C1674 C1680 1.379 . S
C1674 N1682 1.356 . S
C1675 C1674 1.363 . S
C1675 C1681 1.363 . S
C1676 C1677 1.363 . S
C1676 C1681 1.379 . S
C1676 N1683 1.356 . S
C1677 C1676 1.363 . S
C1677 C1680 1.363 . S
N1678 C1680 1.356 . S
N1678 H1690 0.984 . S
N1678 H1691 0.985 1_554 S
N1679 C1681 1.356 . S
N1679 H1684 0.984 . S
N1679 H1685 0.985 . S
C1680 C1674 1.379 . S
C1680 C1677 1.363 . S
C1680 N1678 1.356 . S
C1681 C1675 1.363 . S
C1681 C1676 1.379 . S
C1681 N1679 1.356 . S
N1682 C1674 1.356 . S
N1682 H1688 0.984 . S
N1682 H1689 0.984 . S
N1683 C1676 1.356 . S
N1683 H1686 0.984 1_554 S
N1683 H1687 0.985 . S
H1684 N1679 0.984 . S
H1685 N1679 0.985 . S
H1686 N1683 0.984 1_556 S
H1687 N1683 0.985 . S
H1688 N1682 0.984 . S
H1689 N1682 0.984 . S
H1690 N1678 0.984 . S
H1691 N1678 0.985 1_556 S
C1692 C1693 1.363 . S
C1692 C1698 1.379 . S
C1692 N1700 1.356 . S
C1693 C1692 1.363 . S
C1693 C1699 1.363 . S
C1694 C1695 1.363 . S
C1694 C1699 1.379 . S
C1694 N1701 1.356 . S
C1695 C1694 1.363 . S
C1695 C1698 1.363 . S
N1696 C1698 1.356 . S
N1696 H1708 0.984 . S
N1696 H1709 0.985 . S
N1697 C1699 1.356 . S
N1697 H1702 0.974 1_556 S
N1697 H1703 0.985 . S
C1698 C1692 1.379 . S
C1698 C1695 1.363 . S
C1698 N1696 1.356 . S
C1699 C1693 1.363 . S
C1699 C1694 1.379 . S
C1699 N1697 1.356 . S
N1700 C1692 1.356 . S
N1700 H1706 0.984 . S
N1700 H1707 0.984 1_556 S
N1701 C1694 1.356 . S
N1701 H1704 0.984 . S
N1701 H1705 0.985 . S
H1702 N1697 0.974 1_554 S
H1703 N1697 0.985 . S
H1704 N1701 0.984 . S
H1705 N1701 0.985 . S
H1706 N1700 0.984 . S
H1707 N1700 0.984 1_554 S
H1708 N1696 0.984 . S
H1709 N1696 0.985 . S
C1710 C1711 1.363 . S
C1710 C1716 1.379 . S
C1710 N1718 1.356 . S
C1711 C1710 1.363 . S
C1711 C1717 1.363 . S
C1712 C1713 1.363 . S
C1712 C1717 1.379 . S
C1712 N1719 1.356 . S
C1713 C1712 1.363 . S
C1713 C1716 1.363 . S
N1714 C1716 1.356 . S
N1714 H1726 0.984 . S
N1714 H1727 0.985 . S
N1715 C1717 1.356 . S
N1715 H1720 0.984 1_556 S
N1715 H1721 0.985 . S
C1716 C1710 1.379 . S
C1716 C1713 1.363 . S
C1716 N1714 1.356 . S
C1717 C1711 1.363 . S
C1717 C1712 1.379 . S
C1717 N1715 1.356 . S
N1718 C1710 1.356 . S
N1718 H1724 0.984 . S
N1718 H1725 0.984 1_556 S
N1719 C1712 1.356 . S
N1719 H1722 0.984 . S
N1719 H1723 0.985 . S
H1720 N1715 0.984 1_554 S
H1721 N1715 0.985 . S
H1722 N1719 0.984 . S
H1723 N1719 0.985 . S
H1724 N1718 0.984 . S
H1725 N1718 0.984 1_554 S
H1726 N1714 0.984 . S
H1727 N1714 0.985 . S
C1728 C1729 1.363 . S
C1728 C1734 1.379 . S
C1728 N1736 1.356 . S
C1729 C1728 1.363 . S
C1729 C1735 1.363 . S
C1730 C1731 1.363 . S
C1730 C1735 1.379 . S
C1730 N1737 1.356 . S
C1731 C1730 1.363 . S
C1731 C1734 1.363 . S
N1732 C1734 1.356 . S
N1732 H1744 0.984 . S
N1732 H1745 0.985 . S
N1733 C1735 1.356 . S
N1733 H1738 0.984 1_556 S
N1733 H1739 0.985 . S
C1734 C1728 1.379 . S
C1734 C1731 1.363 . S
C1734 N1732 1.356 . S
C1735 C1729 1.363 . S
C1735 C1730 1.379 . S
C1735 N1733 1.356 . S
N1736 C1728 1.356 . S
N1736 H1742 0.984 . S
N1736 H1743 0.984 1_556 S
N1737 C1730 1.356 . S
N1737 H1740 0.984 . S
N1737 H1741 0.985 . S
H1738 N1733 0.984 1_554 S
H1739 N1733 0.985 . S
H1740 N1737 0.984 . S
H1741 N1737 0.985 . S
H1742 N1736 0.984 . S
H1743 N1736 0.984 1_554 S
H1744 N1732 0.984 . S
H1745 N1732 0.985 . S
C1746 C1747 1.363 . S
C1746 C1752 1.379 . S
C1746 N1754 1.356 . S
C1747 C1746 1.363 . S
C1747 C1753 1.363 . S
C1748 C1749 1.363 . S
C1748 C1753 1.379 . S
C1748 N1755 1.356 . S
C1749 C1748 1.363 . S
C1749 C1752 1.363 . S
N1750 C1752 1.356 . S
N1750 H1762 0.984 . S
N1750 H1763 0.985 . S
N1751 C1753 1.356 . S
N1751 H1756 0.984 . S
N1751 H1757 0.985 . S
C1752 C1746 1.379 . S
C1752 C1749 1.363 . S
C1752 N1750 1.356 . S
C1753 C1747 1.363 . S
C1753 C1748 1.379 . S
C1753 N1751 1.356 . S
N1754 C1746 1.356 . S
N1754 H1760 0.984 . S
N1754 H1761 0.984 . S
N1755 C1748 1.356 . S
N1755 H1758 0.984 . S
N1755 H1759 0.985 . S
H1756 N1751 0.984 . S
H1757 N1751 0.985 . S
H1758 N1755 0.984 . S
H1759 N1755 0.985 . S
H1760 N1754 0.984 . S
H1761 N1754 0.984 . S
H1762 N1750 0.984 . S
H1763 N1750 0.985 . S
C1764 C1765 1.363 . S
C1764 C1770 1.379 . S
C1764 N1772 1.356 . S
C1765 C1764 1.363 . S
C1765 C1771 1.363 . S
C1766 C1767 1.363 . S
C1766 C1771 1.379 . S
C1766 N1773 1.356 . S
C1767 C1766 1.363 . S
C1767 C1770 1.363 . S
N1768 C1770 1.356 . S
N1768 H1780 0.984 . S
N1768 H1781 0.985 . S
N1769 C1771 1.356 . S
N1769 H1774 0.984 . S
N1769 H1775 0.985 . S
C1770 C1764 1.379 . S
C1770 C1767 1.363 . S
C1770 N1768 1.356 . S
C1771 C1765 1.363 . S
C1771 C1766 1.379 . S
C1771 N1769 1.356 . S
N1772 C1764 1.356 . S
N1772 H1778 0.984 . S
N1772 H1779 0.984 . S
N1773 C1766 1.356 . S
N1773 H1776 0.984 . S
N1773 H1777 0.985 . S
H1774 N1769 0.984 . S
H1775 N1769 0.985 . S
H1776 N1773 0.984 . S
H1777 N1773 0.985 . S
H1778 N1772 0.984 . S
H1779 N1772 0.984 . S
H1780 N1768 0.984 . S
H1781 N1768 0.985 . S
C1782 C1783 1.363 . S
C1782 C1788 1.379 . S
C1782 N1790 1.356 . S
C1783 C1782 1.363 . S
C1783 C1789 1.363 . S
C1784 C1785 1.363 . S
C1784 C1789 1.379 . S
C1784 N1791 1.356 . S
C1785 C1784 1.363 . S
C1785 C1788 1.363 . S
N1786 C1788 1.356 . S
N1786 H1798 0.984 . S
N1786 H1799 0.985 . S
N1787 C1789 1.356 . S
N1787 H1792 0.984 . S
N1787 H1793 0.985 . S
C1788 C1782 1.379 . S
C1788 C1785 1.363 . S
C1788 N1786 1.356 . S
C1789 C1783 1.363 . S
C1789 C1784 1.379 . S
C1789 N1787 1.356 . S
N1790 C1782 1.356 . S
N1790 H1796 0.984 . S
N1790 H1797 0.984 . S
N1791 C1784 1.356 . S
N1791 H1794 0.984 . S
N1791 H1795 0.985 . S
H1792 N1787 0.984 . S
H1793 N1787 0.985 . S
H1794 N1791 0.984 . S
H1795 N1791 0.985 . S
H1796 N1790 0.984 . S
H1797 N1790 0.984 . S
H1798 N1786 0.984 . S
H1799 N1786 0.985 . S
C505 C232 1.258 . S
C507 C8 1.258 . S
C523 C246 1.258 . S
C525 C22 1.258 . S
C541 C36 1.258 . S
C543 C218 1.258 . S
C559 C372 1.258 . S
C561 C50 1.258 . S
C577 C344 1.258 . S
C579 C64 1.258 . S
C595 C78 1.258 . S
C597 C358 1.258 . S
C613 C484 1.258 . S
C615 C92 1.258 . S
C631 C498 1.258 . S
C633 C106 1.258 . S
C649 C470 1.258 . S
C651 C120 1.258 . S
C667 C288 1.258 . S
C669 C134 1.258 . S
C685 C148 1.258 . S
C687 C260 1.258 . S
C703 C274 1.258 . S
C705 C162 1.258 . S
C721 C400 1.258 . S
C723 C176 1.258 . S
C739 C190 1.258 . S
C741 C414 1.258 . S
C757 C386 1.258 . S
C759 C204 1.258 . S
C775 C456 1.258 . S
C777 C302 1.258 . S
C793 C428 1.258 . S
C795 C316 1.258 . S
C811 C330 1.258 . S
C813 C442 1.258 . S
C829 C101 1.561 . S
C831 C7 1.554 . S
C847 C115 1.561 . S
C849 C21 1.554 . S
C865 C87 1.561 . S
C867 C35 1.554 . S
C883 C49 1.554 . S
C885 C157 1.561 . S
C901 C129 1.561 . S
C903 C63 1.554 . S
C919 C77 1.554 . S
C921 C143 1.561 . S
C937 C17 1.561 . S
C939 C91 1.554 . S
C955 C105 1.554 . S
C957 C31 1.561 . S
C973 C3 1.561 . S
C975 C119 1.554 . S
C991 C73 1.561 . S
C993 C133 1.554 . S
C1009 C45 1.561 . S
C1011 C147 1.554 . S
C1027 C161 1.554 . S
C1029 C59 1.561 . S
C1045 C175 1.554 . S
C1047 C269 1.561 . S
C1063 C283 1.561 . S
C1065 C189 1.554 . S
C1081 C255 1.561 . S
C1083 C203 1.554 . S
C1099 C217 1.554 . S
C1101 C325 1.561 . S
C1117 C297 1.561 . S
C1119 C231 1.554 . S
C1135 C245 1.554 . S
C1137 C311 1.561 . S
C1153 C259 1.554 . S
C1155 C185 1.561 . S
C1171 C273 1.554 . S
C1173 C199 1.561 . S
C1189 C171 1.561 . S
C1191 C287 1.554 . S
C1207 C241 1.561 . S
C1209 C301 1.554 . S
C1225 C213 1.561 . S
C1227 C315 1.554 . S
C1243 C329 1.554 . S
C1245 C227 1.561 . S
C1261 C437 1.561 . S
C1263 C343 1.554 . S
C1279 C357 1.554 . S
C1281 C451 1.561 . S
C1297 C371 1.554 . S
C1299 C423 1.561 . S
C1315 C493 1.561 . S
C1317 C385 1.554 . S
C1333 C399 1.554 . S
C1335 C465 1.561 . S
C1351 C479 1.561 . S
C1353 C413 1.554 . S
C1369 C353 1.561 . S
C1371 C427 1.554 . S
C1387 C367 1.561 . S
C1389 C441 1.554 . S
C1405 C455 1.554 . S
C1407 C339 1.561 . S
C1423 C469 1.554 . S
C1425 C409 1.561 . S
C1441 C381 1.561 . S
C1443 C483 1.554 . S
C1459 C395 1.561 . S
C1461 C497 1.554 . S
C1477 C9 1.542 . S
C1479 C51 1.542 . S
C1495 C23 1.543 . S
C1497 C65 1.543 . S
C1513 C79 1.543 . S
C1515 C37 1.543 . S
C1531 C93 1.542 . S
C1533 C135 1.542 . S
C1549 C149 1.543 . S
C1551 C107 1.543 . S
C1567 C163 1.543 . S
C1569 C121 1.543 . S
C1585 C177 1.543 . S
C1587 C219 1.543 . S
C1603 C191 1.543 . S
C1605 C233 1.543 . S
C1621 C247 1.543 . S
C1623 C205 1.543 . S
C1639 C261 1.543 . S
C1641 C303 1.543 1_554 S
C1657 C275 1.543 . S
C1659 C317 1.543 1_554 S
C1675 C289 1.543 . S
C1677 C331 1.543 1_554 S
C1693 C387 1.543 1_556 S
C1695 C345 1.543 . S
C1711 C401 1.543 1_556 S
C1713 C359 1.543 . S
C1729 C415 1.543 1_556 S
C1731 C373 1.543 . S
C1747 C429 1.543 . S
C1749 C471 1.543 . S
C1765 C485 1.543 . S
C1767 C443 1.543 . S
C1783 C499 1.543 . S
C1785 C457 1.543 . S
