# Generated by pormake.
# Topology mmt, (4)-cn, num edge types: 1
# Building blocks:
#     Node 0, Type 0, BuildingBlock: CEKHIL_clean_sbu_0, # of connection points: 4
#     Node 1, Type 0, BuildingBlock: CEKHIL_clean_sbu_0, # of connection points: 4
#     Node 2, Type 0, BuildingBlock: CEKHIL_clean_sbu_0, # of connection points: 4
#     Node 3, Type 0, BuildingBlock: CEKHIL_clean_sbu_0, # of connection points: 4
#     Node 4, Type 0, BuildingBlock: CEKHIL_clean_sbu_0, # of connection points: 4
#     Node 5, Type 0, BuildingBlock: CEKHIL_clean_sbu_0, # of connection points: 4
#     Node 6, Type 0, BuildingBlock: CEKHIL_clean_sbu_0, # of connection points: 4
#     Node 7, Type 0, BuildingBlock: CEKHIL_clean_sbu_0, # of connection points: 4
#     Edge 8, Type (0, 0), BuildingBlock: TEMPAE_clean_linker_10, # of connection points: 2
#     Edge 9, Type (0, 0), BuildingBlock: TEMPAE_clean_linker_10, # of connection points: 2
#     Edge 10, Type (0, 0), BuildingBlock: TEMPAE_clean_linker_10, # of connection points: 2
#     Edge 11, Type (0, 0), BuildingBlock: TEMPAE_clean_linker_10, # of connection points: 2
#     Edge 12, Type (0, 0), BuildingBlock: TEMPAE_clean_linker_10, # of connection points: 2
#     Edge 13, Type (0, 0), BuildingBlock: TEMPAE_clean_linker_10, # of connection points: 2
#     Edge 14, Type (0, 0), BuildingBlock: TEMPAE_clean_linker_10, # of connection points: 2
#     Edge 15, Type (0, 0), BuildingBlock: TEMPAE_clean_linker_10, # of connection points: 2
#     Edge 16, Type (0, 0), BuildingBlock: TEMPAE_clean_linker_10, # of connection points: 2
#     Edge 17, Type (0, 0), BuildingBlock: TEMPAE_clean_linker_10, # of connection points: 2
#     Edge 18, Type (0, 0), BuildingBlock: TEMPAE_clean_linker_10, # of connection points: 2
#     Edge 19, Type (0, 0), BuildingBlock: TEMPAE_clean_linker_10, # of connection points: 2
#     Edge 20, Type (0, 0), BuildingBlock: TEMPAE_clean_linker_10, # of connection points: 2
#     Edge 21, Type (0, 0), BuildingBlock: TEMPAE_clean_linker_10, # of connection points: 2
#     Edge 22, Type (0, 0), BuildingBlock: TEMPAE_clean_linker_10, # of connection points: 2
#     Edge 23, Type (0, 0), BuildingBlock: TEMPAE_clean_linker_10, # of connection points: 2
# Relax obj value: 0.032
# Max RMSD: 0.050
# Mean RMSD: 0.050
data_MOF--net-mmt--node1-CEKHIL_clean_sbu_0--edge1-TEMPAE_clean_linker_10
_symmetry_space_group_name_H-M    P1
_symmetry_Int_Tables_number       1
_symmetry_cell_setting            triclinic
loop_
_symmetry_equiv_pos_as_xyz
'x, y, z'
_cell_length_a     22.581069
_cell_length_b     37.033849
_cell_length_c     44.234109
_cell_angle_alpha  90.057272
_cell_angle_beta   90.037157
_cell_angle_gamma 90.024623
loop_
_atom_site_label
_atom_site_type_symbol
_atom_site_fract_x
_atom_site_fract_y
_atom_site_fract_z
_atom_type_partial_charge
Co0 Co 0.1003 0.57638 0.36437 0.0
O1 O 0.04614 0.58009 0.39801 0.0
O2 O 0.10412 0.53315 0.38912 0.0
C3 C 0.14133 0.63183 0.36953 0.0
O4 O 0.16284 0.56346 0.33271 0.0
Co5 Co 0.08735 0.62812 0.3094 0.0
O6 O 0.16091 0.60436 0.29505 0.0
C7 C 0.00318 0.56814 0.3169 0.0
C8 C 0.06496 0.54858 0.4064 0.0
C9 C 0.1829 0.57646 0.30766 0.0
O10 O 0.0356 0.55483 0.33815 0.0
O11 O 0.01281 0.59902 0.30488 0.0
O12 O 0.15926 0.60505 0.3861 0.0
O13 O 0.09567 0.62515 0.35282 0.0
Co14 Co 0.39593 0.92721 0.3653 0.0
O15 O 0.44946 0.92342 0.39935 0.0
O16 O 0.39286 0.9708 0.3896 0.0
C17 C 0.35341 0.87225 0.37079 0.0
O18 O 0.3345 0.9408 0.33334 0.0
Co19 Co 0.4037 0.87473 0.31045 0.0
O20 O 0.32594 0.89598 0.2992 0.0
C21 C 0.49139 0.93358 0.31706 0.0
C22 C 0.43107 0.95522 0.4073 0.0
C23 C 0.30887 0.92592 0.31044 0.0
O24 O 0.46154 0.94735 0.33909 0.0
O25 O 0.47862 0.90326 0.3047 0.0
O26 O 0.33582 0.89944 0.38702 0.0
O27 O 0.39903 0.87833 0.35396 0.0
Co28 Co 0.60008 0.42698 0.15265 0.0
O29 O 0.54604 0.42296 0.11894 0.0
O30 O 0.60445 0.46983 0.12746 0.0
C31 C 0.64045 0.37128 0.14823 0.0
O32 O 0.66263 0.44016 0.18427 0.0
Co33 Co 0.58605 0.37618 0.20819 0.0
O34 O 0.65908 0.40043 0.22279 0.0
C35 C 0.50259 0.4362 0.19967 0.0
C36 C 0.56516 0.45431 0.11026 0.0
C37 C 0.68182 0.4278 0.20972 0.0
O38 O 0.53557 0.4492 0.17854 0.0
O39 O 0.51152 0.40538 0.21192 0.0
O40 O 0.6588 0.3977 0.13136 0.0
O41 O 0.5948 0.37844 0.16476 0.0
Co42 Co 0.89631 0.07611 0.15322 0.0
O43 O 0.9476 0.08257 0.1187 0.0
O44 O 0.89613 0.03301 0.1281 0.0
C45 C 0.85066 0.13039 0.14931 0.0
O46 O 0.83598 0.0602 0.18513 0.0
Co47 Co 0.90376 0.12695 0.20922 0.0
O48 O 0.8322 0.10094 0.22296 0.0
C49 C 0.98823 0.06628 0.20347 0.0
C50 C 0.9318 0.05044 0.11022 0.0
C51 C 0.81391 0.07225 0.21007 0.0
O52 O 0.96387 0.05609 0.17849 0.0
O53 O 0.97242 0.09448 0.21813 0.0
O54 O 0.83401 0.10334 0.13262 0.0
O55 O 0.89712 0.12475 0.16567 0.0
Co56 Co 0.90004 0.42716 0.65311 0.0
O57 O 0.94888 0.41983 0.61785 0.0
O58 O 0.89994 0.47017 0.62792 0.0
C59 C 0.8524 0.37346 0.65015 0.0
O60 O 0.8426 0.44375 0.68608 0.0
Co61 Co 0.91242 0.37667 0.70884 0.0
O62 O 0.8437 0.40413 0.72472 0.0
C63 C 0.00209 0.43284 0.69832 0.0
C64 C 0.93405 0.45217 0.60961 0.0
C65 C 0.82361 0.4324 0.71188 0.0
O66 O 0.96989 0.44636 0.67708 0.0
O67 O 0.98989 0.40304 0.71155 0.0
O68 O 0.83546 0.4006 0.63369 0.0
O69 O 0.90022 0.37868 0.66557 0.0
Co70 Co 0.5962 0.07845 0.65363 0.0
O71 O 0.5416 0.08475 0.62037 0.0
O72 O 0.5953 0.03573 0.6281 0.0
C73 C 0.63952 0.13331 0.649 0.0
O74 O 0.65964 0.06254 0.68399 0.0
Co75 Co 0.59602 0.1279 0.71037 0.0
O76 O 0.67623 0.10772 0.7169 0.0
C77 C 0.51125 0.06687 0.70639 0.0
C78 C 0.55765 0.05295 0.61115 0.0
C79 C 0.69013 0.07741 0.70532 0.0
O80 O 0.5316 0.0577 0.68025 0.0
O81 O 0.52983 0.09422 0.72138 0.0
O82 O 0.65565 0.10662 0.6318 0.0
O83 O 0.59527 0.12683 0.66667 0.0
Co84 Co 0.40001 0.57737 0.86406 0.0
O85 O 0.44863 0.58439 0.89948 0.0
O86 O 0.40012 0.53402 0.88883 0.0
C87 C 0.35173 0.63081 0.86735 0.0
O88 O 0.34282 0.56107 0.83088 0.0
Co89 Co 0.41252 0.62855 0.80882 0.0
O90 O 0.34411 0.60106 0.7925 0.0
C91 C 0.50218 0.57235 0.81886 0.0
C92 C 0.43402 0.55188 0.90736 0.0
C93 C 0.32399 0.57266 0.80512 0.0
O94 O 0.47003 0.55863 0.84002 0.0
O95 O 0.49001 0.60228 0.80583 0.0
O96 O 0.33507 0.6034 0.88358 0.0
O97 O 0.39979 0.62604 0.85205 0.0
Co98 Co 0.09694 0.92591 0.86461 0.0
O99 O 0.03995 0.92187 0.89717 0.0
O100 O 0.0994 0.96856 0.88998 0.0
C101 C 0.13643 0.87008 0.86997 0.0
O102 O 0.16253 0.93989 0.83487 0.0
Co103 Co 0.09548 0.87587 0.80817 0.0
O104 O 0.17551 0.89577 0.8006 0.0
C105 C 0.01311 0.93818 0.81146 0.0
C106 C 0.05908 0.95305 0.90642 0.0
C107 C 0.19137 0.92538 0.81281 0.0
O108 O 0.03477 0.948 0.83719 0.0
O109 O 0.02972 0.90983 0.79721 0.0
O110 O 0.15337 0.89648 0.88728 0.0
O111 O 0.09319 0.8774 0.85185 0.0
C112 C 0.27143 0.53525 0.30737 0.0
C113 C 0.23156 0.55741 0.29169 0.0
C114 C 0.31688 0.51679 0.29203 0.0
C115 C 0.32157 0.51984 0.26016 0.0
C116 C 0.28133 0.54209 0.24425 0.0
C117 C 0.23736 0.56089 0.26021 0.0
C118 C 0.3598 0.49398 0.30989 0.0
C119 C 0.28381 0.5454 0.21023 0.0
C120 C 0.46554 0.49461 0.2205 0.0
C121 C 0.45465 0.45864 0.21239 0.0
C122 C 0.42289 0.51479 0.23636 0.0
C123 C 0.36739 0.49893 0.2433 0.0
C124 C 0.35553 0.463 0.23407 0.0
C125 C 0.39975 0.44307 0.21925 0.0
C126 C 0.43792 0.55262 0.24654 0.0
C127 C 0.2963 0.44548 0.24008 0.0
H128 H 0.26745 0.53259 0.33169 0.0
H129 H 0.2064 0.57768 0.24784 0.0
H130 H 0.35545 0.46525 0.30314 0.0
H131 H 0.40596 0.50235 0.30488 0.0
H132 H 0.35231 0.49608 0.33465 0.0
H133 H 0.24918 0.5638 0.20124 0.0
H134 H 0.32778 0.55566 0.20312 0.0
H135 H 0.27795 0.5184 0.19974 0.0
H136 H 0.50845 0.50641 0.21566 0.0
H137 H 0.39147 0.4152 0.21301 0.0
H138 H 0.43499 0.55436 0.27155 0.0
H139 H 0.40551 0.57212 0.23716 0.0
H140 H 0.4831 0.56094 0.23947 0.0
H141 H 0.28903 0.44308 0.26479 0.0
H142 H 0.29297 0.41815 0.22984 0.0
H143 H 0.26013 0.46254 0.23089 0.0
C144 C 0.03194 0.03764 0.24902 0.0
C145 C 0.03387 0.04326 0.21769 0.0
C146 C 0.07509 0.01687 0.26372 0.0
C147 C 0.12261 0.00227 0.24684 0.0
C148 C 0.12464 0.00764 0.21509 0.0
C149 C 0.07954 0.02761 0.20077 0.0
C150 C 0.07001 0.01084 0.29739 0.0
C151 C 0.17532 0.99324 0.19643 0.0
C152 C 0.2622 0.98306 0.29228 0.0
C153 C 0.26025 0.94539 0.29505 0.0
C154 C 0.21863 0.00175 0.27587 0.0
C155 C 0.1709 0.98242 0.26276 0.0
C156 C 0.16815 0.9444 0.26601 0.0
C157 C 0.21343 0.92628 0.28168 0.0
C158 C 0.22396 0.04218 0.27237 0.0
C159 C 0.11695 0.92294 0.25335 0.0
H160 H 0.99609 0.04931 0.26208 0.0
H161 H 0.08107 0.03204 0.17656 0.0
H162 H 0.07238 0.98155 0.30254 0.0
H163 H 0.10757 0.02406 0.30919 0.0
H164 H 0.02803 0.02174 0.30678 0.0
H165 H 0.17006 0.99936 0.17199 0.0
H166 H 0.21756 0.00523 0.20445 0.0
H167 H 0.17898 0.96357 0.19924 0.0
H168 H 0.29881 0.99784 0.30223 0.0
H169 H 0.21178 0.89714 0.28387 0.0
H170 H 0.18594 0.05571 0.28348 0.0
H171 H 0.22261 0.04953 0.24806 0.0
H172 H 0.26556 0.05289 0.28237 0.0
H173 H 0.07474 0.93285 0.26316 0.0
H174 H 0.12104 0.89361 0.25815 0.0
H175 H 0.11412 0.92675 0.22853 0.0
C176 C 0.73277 0.44667 0.25731 0.0
C177 C 0.73035 0.44706 0.2256 0.0
C178 C 0.77684 0.46566 0.27309 0.0
C179 C 0.82069 0.48478 0.2568 0.0
C180 C 0.81931 0.48464 0.22474 0.0
C181 C 0.7736 0.46623 0.20952 0.0
C182 C 0.77565 0.46593 0.30724 0.0
C183 C 0.86612 0.50396 0.20654 0.0
C184 C 0.90218 0.56269 0.29446 0.0
C185 C 0.95475 0.5461 0.30398 0.0
C186 C 0.85769 0.54286 0.27971 0.0
C187 C 0.86686 0.50578 0.27338 0.0
C188 C 0.91991 0.48886 0.28301 0.0
C189 C 0.96286 0.50912 0.29865 0.0
C190 C 0.80103 0.56167 0.27075 0.0
C191 C 0.93206 0.44966 0.27601 0.0
H192 H 0.6991 0.43223 0.26991 0.0
H193 H 0.77214 0.46642 0.18502 0.0
H194 H 0.81769 0.4549 0.31632 0.0
H195 H 0.77167 0.4941 0.31556 0.0
H196 H 0.7383 0.44986 0.31652 0.0
H197 H 0.86074 0.49955 0.18185 0.0
H198 H 0.86413 0.53338 0.21111 0.0
H199 H 0.91079 0.49453 0.2134 0.0
H200 H 0.89587 0.59129 0.2986 0.0
H201 H 0.00391 0.49639 0.30557 0.0
H202 H 0.76234 0.54698 0.28012 0.0
H203 H 0.79639 0.56159 0.24579 0.0
H204 H 0.79951 0.59008 0.2788 0.0
H205 H 0.897 0.43236 0.2859 0.0
H206 H 0.97567 0.44061 0.28484 0.0
H207 H 0.93118 0.44535 0.25118 0.0
C208 C 0.76823 0.04869 0.25728 0.0
C209 C 0.76728 0.05133 0.22566 0.0
C210 C 0.72447 0.02935 0.2729 0.0
C211 C 0.67746 0.01323 0.25658 0.0
C212 C 0.67592 0.01613 0.22461 0.0
C213 C 0.72152 0.03465 0.20945 0.0
C214 C 0.7289 0.02591 0.30685 0.0
C215 C 0.62569 1.00011 0.20648 0.0
C216 C 0.59032 0.93631 0.29206 0.0
C217 C 0.54087 0.95439 0.30381 0.0
C218 C 0.63558 0.95522 0.27716 0.0
C219 C 0.63036 0.99299 0.27303 0.0
C220 C 0.58051 0.01142 0.28491 0.0
C221 C 0.53676 0.99195 0.30059 0.0
C222 C 0.68889 0.93472 0.26574 0.0
C223 C 0.57262 0.05153 0.28037 0.0
H224 H 0.80397 0.06129 0.26982 0.0
H225 H 0.72056 0.03693 0.18502 0.0
H226 H 0.68966 0.03839 0.3177 0.0
H227 H 0.72931 0.99698 0.31335 0.0
H228 H 0.76939 0.039 0.31603 0.0
H229 H 0.62991 0.00583 0.18193 0.0
H230 H 0.62424 0.97044 0.20973 0.0
H231 H 0.58284 0.01112 0.21459 0.0
H232 H 0.59362 0.90726 0.2946 0.0
H233 H 0.49814 0.0059 0.30926 0.0
H234 H 0.73006 0.94681 0.27502 0.0
H235 H 0.69144 0.93673 0.24076 0.0
H236 H 0.68752 0.90571 0.27206 0.0
H237 H 0.61028 0.06641 0.29059 0.0
H238 H 0.53082 0.06169 0.29051 0.0
H239 H 0.57243 0.05782 0.25584 0.0
C240 C 0.54805 0.51379 0.80335 0.0
C241 C 0.55263 0.55132 0.80677 0.0
C242 C 0.59203 0.4941 0.78802 0.0
C243 C 0.64264 0.51225 0.77669 0.0
C244 C 0.64853 0.54995 0.78123 0.0
C245 C 0.603 0.5691 0.79576 0.0
C246 C 0.58331 0.45412 0.78299 0.0
C247 C 0.70258 0.57016 0.7704 0.0
C248 C 0.77887 0.45534 0.75977 0.0
C249 C 0.77765 0.45336 0.7281 0.0
C250 C 0.7358 0.47485 0.7758 0.0
C251 C 0.6892 0.4919 0.75986 0.0
C252 C 0.68736 0.48966 0.72786 0.0
C253 C 0.7322 0.4709 0.71231 0.0
C254 C 0.74048 0.47749 0.80979 0.0
C255 C 0.63757 0.50665 0.71008 0.0
H256 H 0.50871 0.50005 0.81141 0.0
H257 H 0.60662 0.59813 0.79839 0.0
H258 H 0.58235 0.44829 0.75838 0.0
H259 H 0.62093 0.4388 0.79273 0.0
H260 H 0.54157 0.44404 0.79325 0.0
H261 H 0.7022 0.59893 0.77751 0.0
H262 H 0.74333 0.55723 0.77932 0.0
H263 H 0.70502 0.56905 0.74538 0.0
H264 H 0.81428 0.44209 0.77204 0.0
H265 H 0.7309 0.46917 0.68785 0.0
H266 H 0.70087 0.46524 0.82048 0.0
H267 H 0.74185 0.50627 0.81678 0.0
H268 H 0.78056 0.46373 0.81869 0.0
H269 H 0.59439 0.49598 0.71806 0.0
H270 H 0.64146 0.50141 0.68542 0.0
H271 H 0.63712 0.53626 0.71382 0.0
C272 C 0.78778 0.07661 0.73194 0.0
C273 C 0.74041 0.05757 0.71896 0.0
C274 C 0.83375 0.05848 0.74699 0.0
C275 C 0.83149 0.02043 0.74989 0.0
C276 C 0.78383 1.00105 0.73673 0.0
C277 C 0.73927 0.01982 0.72105 0.0
C278 C 0.8847 0.08004 0.75981 0.0
C279 C 0.77925 0.96054 0.73976 0.0
C280 C 0.97128 0.96646 0.76519 0.0
C281 C 0.96822 0.96109 0.79653 0.0
C282 C 0.92806 0.98662 0.74993 0.0
C283 C 0.87944 1.0008 0.76623 0.0
C284 C 0.87628 0.99564 0.79798 0.0
C285 C 0.92135 0.97631 0.81286 0.0
C286 C 0.93428 0.99253 0.71629 0.0
C287 C 0.82449 0.00967 0.81606 0.0
H288 H 0.78894 0.10581 0.73025 0.0
H289 H 0.70237 0.00505 0.71138 0.0
H290 H 0.88648 0.07673 0.78471 0.0
H291 H 0.92723 0.06985 0.75059 0.0
H292 H 0.88101 0.10929 0.75458 0.0
H293 H 0.73865 0.94959 0.72891 0.0
H294 H 0.81838 0.94745 0.72932 0.0
H295 H 0.77898 0.95296 0.76403 0.0
H296 H 0.00793 0.95502 0.75259 0.0
H297 H 0.91885 0.97196 0.83707 0.0
H298 H 0.93186 0.02179 0.71105 0.0
H299 H 0.89724 0.97916 0.70419 0.0
H300 H 0.97668 0.98172 0.70734 0.0
H301 H 0.82061 0.03933 0.81333 0.0
H302 H 0.82864 0.00342 0.84053 0.0
H303 H 0.7828 0.99753 0.80745 0.0
C304 C 0.23127 0.53546 0.80437 0.0
C305 C 0.27803 0.55188 0.78877 0.0
C306 C 0.18637 0.51688 0.7887 0.0
C307 C 0.18954 0.5136 0.75678 0.0
C308 C 0.23744 0.52953 0.74105 0.0
C309 C 0.28053 0.54897 0.75718 0.0
C310 C 0.13517 0.50114 0.80623 0.0
C311 C 0.24354 0.52572 0.7072 0.0
C312 C 0.10239 0.43604 0.72204 0.0
C313 C 0.05281 0.45389 0.71017 0.0
C314 C 0.14803 0.45527 0.73643 0.0
C315 C 0.14313 0.49317 0.73989 0.0
C316 C 0.09347 0.5114 0.72759 0.0
C317 C 0.04931 0.49158 0.71248 0.0
C318 C 0.20106 0.43493 0.74835 0.0
C319 C 0.08586 0.55165 0.73141 0.0
H320 H 0.22902 0.53796 0.82877 0.0
H321 H 0.31697 0.5614 0.74509 0.0
H322 H 0.09275 0.51197 0.79737 0.0
H323 H 0.13396 0.47141 0.80327 0.0
H324 H 0.13802 0.50728 0.83077 0.0
H325 H 0.28438 0.5388 0.69848 0.0
H326 H 0.24444 0.4967 0.70091 0.0
H327 H 0.20475 0.53795 0.69574 0.0
H328 H 0.10526 0.40689 0.72024 0.0
H329 H 0.01062 0.5054 0.70373 0.0
H330 H 0.20247 0.43685 0.77337 0.0
H331 H 0.24253 0.44716 0.73963 0.0
H332 H 0.20016 0.40593 0.74192 0.0
H333 H 0.08375 0.55843 0.75584 0.0
H334 H 0.04504 0.56181 0.72026 0.0
H335 H 0.12452 0.56616 0.72186 0.0
C336 C 0.24576 0.98281 0.80142 0.0
C337 C 0.24188 0.94511 0.79912 0.0
C338 C 0.28994 0.0021 0.78593 0.0
C339 C 0.33204 0.98319 0.76822 0.0
C340 C 0.32947 0.94504 0.76659 0.0
C341 C 0.28411 0.92651 0.78179 0.0
C342 C 0.29074 0.0428 0.78795 0.0
C343 C 0.37445 0.9238 0.74866 0.0
C344 C 0.41461 0.03365 0.70604 0.0
C345 C 0.46648 0.04384 0.72112 0.0
C346 C 0.37017 0.01403 0.72113 0.0
C347 C 0.37904 0.00334 0.75161 0.0
C348 C 0.43255 0.01247 0.76644 0.0
C349 C 0.47511 0.03316 0.75119 0.0
C350 C 0.31314 0.00557 0.70478 0.0
C351 C 0.44475 1.00057 0.7985 0.0
H352 H 0.21299 0.99741 0.81452 0.0
H353 H 0.28161 0.89735 0.78003 0.0
H354 H 0.33362 0.05214 0.79737 0.0
H355 H 0.28645 0.05459 0.765 0.0
H356 H 0.25444 0.05348 0.80235 0.0
H357 H 0.36778 0.89418 0.75072 0.0
H358 H 0.37169 0.93124 0.72442 0.0
H359 H 0.41986 0.93051 0.75646 0.0
H360 H 0.40793 0.04215 0.68284 0.0
H361 H 0.51562 0.04082 0.76272 0.0
H362 H 0.27532 0.01779 0.71711 0.0
H363 H 0.30569 0.97598 0.70424 0.0
H364 H 0.31307 0.01589 0.6812 0.0
H365 H 0.41236 0.01321 0.81408 0.0
H366 H 0.49011 0.00792 0.80607 0.0
H367 H 0.43936 0.97088 0.80045 0.0
C368 C 0.98708 0.5387 0.44565 0.0
C369 C 0.04472 0.53231 0.43519 0.0
C370 C 0.96799 0.52523 0.47372 0.0
C371 C 0.00826 0.50614 0.49239 0.0
C372 C 0.06675 0.49985 0.48196 0.0
C373 C 0.08392 0.51242 0.45323 0.0
C374 C 0.90465 0.53136 0.48335 0.0
C375 C 0.11164 0.48064 0.50146 0.0
C376 C 0.97186 0.50225 0.57669 0.0
C377 C 0.95252 0.46653 0.57988 0.0
C378 C 0.99142 0.5153 0.54849 0.0
C379 C 0.98903 0.49254 0.52267 0.0
C380 C 0.96792 0.4567 0.52579 0.0
C381 C 0.9512 0.44393 0.55445 0.0
C382 C 0.01557 0.55322 0.54641 0.0
C383 C 0.96223 0.43197 0.49878 0.0
H384 H 0.95666 0.55401 0.43169 0.0
H385 H 0.12877 0.50789 0.44537 0.0
H386 H 0.88343 0.50518 0.48901 0.0
H387 H 0.90344 0.5483 0.50402 0.0
H388 H 0.87804 0.54485 0.46551 0.0
H389 H 0.15581 0.47895 0.4905 0.0
H390 H 0.11644 0.49499 0.52337 0.0
H391 H 0.09625 0.45287 0.50656 0.0
H392 H 0.97328 0.51962 0.59642 0.0
H393 H 0.93568 0.41637 0.55688 0.0
H394 H 0.98782 0.56957 0.53093 0.0
H395 H 0.06098 0.55265 0.53683 0.0
H396 H 0.01707 0.56687 0.56878 0.0
H397 H 0.93444 0.44493 0.48117 0.0
H398 H 0.94222 0.40552 0.50478 0.0
H399 H 0.00642 0.42705 0.48867 0.0
C400 C 0.50951 0.97471 0.44372 0.0
C401 C 0.44943 0.97143 0.43637 0.0
C402 C 0.52734 0.98862 0.47193 0.0
C403 C 0.484 0.99779 0.49384 0.0
C404 C 0.42316 0.99388 0.48656 0.0
C405 C 0.40663 0.98148 0.45767 0.0
C406 C 0.59253 0.99372 0.47821 0.0
C407 C 0.37554 0.00196 0.50953 0.0
C408 C 0.5347 1.00118 0.57625 0.0
C409 C 0.53722 0.03845 0.58163 0.0
C410 C 0.51631 0.98753 0.54801 0.0
C411 C 0.50221 0.01175 0.52424 0.0
C412 C 0.50557 0.04943 0.52952 0.0
C413 C 0.52199 0.06228 0.55825 0.0
C414 C 0.51151 0.9472 0.54369 0.0
C415 C 0.49292 0.07624 0.50463 0.0
H416 H 0.54253 0.96684 0.42719 0.0
H417 H 0.36014 0.97834 0.45209 0.0
H418 H 0.60124 0.02205 0.48513 0.0
H419 H 0.60642 0.97613 0.49719 0.0
H420 H 0.62035 0.98733 0.4582 0.0
H421 H 0.33043 0.99611 0.50075 0.0
H422 H 0.38298 0.98561 0.5302 0.0
H423 H 0.37753 0.03076 0.51631 0.0
H424 H 0.54628 0.98267 0.59429 0.0
H425 H 0.52458 0.09114 0.56216 0.0
H426 H 0.5429 0.93817 0.52597 0.0
H427 H 0.46628 0.94006 0.53587 0.0
H428 H 0.52111 0.93208 0.56481 0.0
H429 H 0.52218 0.07083 0.48499 0.0
H430 H 0.49969 0.1046 0.51208 0.0
H431 H 0.44659 0.07324 0.4967 0.0
C432 C 0.48834 0.46233 0.0701 0.0
C433 C 0.54489 0.47038 0.08136 0.0
C434 C 0.46923 0.47581 0.04202 0.0
C435 C 0.50841 0.49678 0.02421 0.0
C436 C 0.56579 0.50478 0.03543 0.0
C437 C 0.58296 0.492 0.06411 0.0
C438 C 0.407 0.46772 0.0315 0.0
C439 C 0.60955 0.52614 0.01686 0.0
C440 C 0.47495 0.50212 0.93961 0.0
C441 C 0.4524 0.53718 0.93699 0.0
C442 C 0.49463 0.48887 0.96774 0.0
C443 C 0.48908 0.51066 0.99401 0.0
C444 C 0.4647 0.54577 0.99143 0.0
C445 C 0.44793 0.55886 0.96287 0.0
C446 C 0.52228 0.45182 0.96926 0.0
C447 C 0.45563 0.56937 0.0189 0.0
H448 H 0.45871 0.4457 0.08343 0.0
H449 H 0.62698 0.4979 0.07258 0.0
H450 H 0.38346 0.49327 0.02628 0.0
H451 H 0.40826 0.45157 0.0104 0.0
H452 H 0.38109 0.4526 0.04868 0.0
H453 H 0.65309 0.52897 0.02833 0.0
H454 H 0.61645 0.51272 0.99469 0.0
H455 H 0.59181 0.55349 0.01223 0.0
H456 H 0.4788 0.48549 0.91952 0.0
H457 H 0.42998 0.58591 0.96084 0.0
H458 H 0.49565 0.43403 0.98413 0.0
H459 H 0.56725 0.45372 0.97929 0.0
H460 H 0.52581 0.43895 0.94664 0.0
H461 H 0.42846 0.55487 0.0359 0.0
H462 H 0.43334 0.59524 0.01325 0.0
H463 H 0.49887 0.57554 0.02961 0.0
C464 C 0.07993 0.986 0.95458 0.0
C465 C 0.03919 0.96867 0.93554 0.0
C466 C 0.06311 0.99842 0.9834 0.0
C467 C 0.00347 0.99479 0.99293 0.0
C468 C 0.96178 0.9782 0.97334 0.0
C469 C 0.98046 0.96461 0.94517 0.0
C470 C 0.10947 0.01472 1.00389 0.0
C471 C 0.89734 0.97507 0.98201 0.0
C472 C 0.96438 0.9992 0.07694 0.0
C473 C 0.95034 0.03579 0.08052 0.0
C474 C 0.98282 0.98558 0.04871 0.0
C475 C 0.98465 0.00879 0.0232 0.0
C476 C 0.96896 0.0456 0.0267 0.0
C477 C 0.95326 0.05877 0.05541 0.0
C478 C 1.00131 0.94653 0.04628 0.0
C479 C 0.96799 0.07101 1.00002 0.0
H480 H 0.12559 0.98868 0.94735 0.0
H481 H 0.9489 0.95127 0.93043 0.0
H482 H 0.09813 0.04319 1.00907 0.0
H483 H 0.11062 0.99991 0.02569 0.0
H484 H 0.1544 0.01401 0.99369 0.0
H485 H 0.87001 0.96322 0.96361 0.0
H486 H 0.89272 0.95794 1.00242 0.0
H487 H 0.87943 0.00213 0.98774 0.0
H488 H 0.9624 0.98146 0.0964 0.0
H489 H 0.94171 0.08702 0.05808 0.0
H490 H 0.04705 0.94478 0.03722 0.0
H491 H 0.97197 0.93205 0.03023 0.0
H492 H 0.99976 0.93245 0.06843 0.0
H493 H 0.01317 0.07385 0.99053 0.0
H494 H 0.9514 0.09827 1.00619 0.0
H495 H 0.93938 0.05981 0.98187 0.0
C496 C 0.2191 0.67375 0.38933 0.0
C497 C 0.17205 0.66718 0.36935 0.0
C498 C 0.24841 0.70721 0.38967 0.0
C499 C 0.23045 0.73473 0.36944 0.0
C500 C 0.18311 0.72819 0.34913 0.0
C501 C 0.15437 0.69452 0.34939 0.0
C502 C 0.29856 0.71313 0.41174 0.0
C503 C 0.16288 0.75677 0.32711 0.0
C504 C 0.27154 0.83182 0.38849 0.0
C505 C 0.32152 0.83728 0.37026 0.0
C506 C 0.24128 0.79865 0.38834 0.0
C507 C 0.26144 0.77028 0.36947 0.0
C508 C 0.31169 0.77573 0.3509 0.0
C509 C 0.34113 0.80914 0.35153 0.0
C510 C 0.18793 0.79388 0.40851 0.0
C511 C 0.33456 0.74619 0.33045 0.0
H512 H 0.23294 0.65276 0.40486 0.0
H513 H 0.11809 0.68961 0.33386 0.0
H514 H 0.33979 0.71979 0.39931 0.0
H515 H 0.28836 0.73641 0.42666 0.0
H516 H 0.30693 0.68905 0.42608 0.0
H517 H 0.12557 0.7474 0.31272 0.0
H518 H 0.14865 0.78128 0.33958 0.0
H519 H 0.20018 0.76478 0.31224 0.0
H520 H 0.25612 0.85345 0.40301 0.0
H521 H 0.37971 0.81317 0.33736 0.0
H522 H 0.19577 0.7714 0.42459 0.0
H523 H 0.14866 0.78654 0.39472 0.0
H524 H 0.17755 0.81868 0.42162 0.0
H525 H 0.34721 0.72229 0.3441 0.0
H526 H 0.37361 0.75493 0.31705 0.0
H527 H 0.29918 0.73746 0.31463 0.0
C528 C 0.7689 0.17069 0.13128 0.0
C529 C 0.81824 0.16516 0.14997 0.0
C530 C 0.7388 0.2039 0.13115 0.0
C531 C 0.75845 0.23223 0.15023 0.0
C532 C 0.80786 0.22664 0.16939 0.0
C533 C 0.83718 0.1932 0.169 0.0
C534 C 0.68636 0.20882 0.11037 0.0
C535 C 0.83012 0.25612 0.1901 0.0
C536 C 0.71846 0.32887 0.12953 0.0
C537 C 0.67066 0.33579 0.14891 0.0
C538 C 0.74728 0.29527 0.12967 0.0
C539 C 0.72801 0.26794 0.14977 0.0
C540 C 0.6799 0.27483 0.16947 0.0
C541 C 0.65172 0.30865 0.16877 0.0
C542 C 0.79833 0.28898 0.10826 0.0
C543 C 0.65822 0.24646 0.19132 0.0
H544 H 0.75403 0.14913 0.11651 0.0
H545 H 0.87524 0.18912 0.18354 0.0
H546 H 0.64669 0.21657 0.12365 0.0
H547 H 0.69532 0.23106 0.09422 0.0
H548 H 0.67602 0.18395 0.09732 0.0
H549 H 0.86825 0.24719 0.2041 0.0
H550 H 0.84399 0.27986 0.17657 0.0
H551 H 0.79406 0.26516 0.20535 0.0
H552 H 0.7333 0.34971 0.11409 0.0
H553 H 0.61484 0.31383 0.18383 0.0
H554 H 0.78847 0.26569 0.09329 0.0
H555 H 0.83888 0.28217 0.12123 0.0
H556 H 0.80773 0.31295 0.09396 0.0
H557 H 0.64416 0.22197 0.17875 0.0
H558 H 0.62041 0.25609 0.20521 0.0
H559 H 0.69471 0.23831 0.20667 0.0
C560 C 0.7188 0.17478 0.62988 0.0
C561 C 0.67107 0.16839 0.64942 0.0
C562 C 0.74847 0.20816 0.62991 0.0
C563 C 0.73001 0.23577 0.65 0.0
C564 C 0.68198 0.22939 0.66985 0.0
C565 C 0.65309 0.19581 0.6693 0.0
C566 C 0.79946 0.21394 0.60839 0.0
C567 C 0.66102 0.25807 0.69164 0.0
C568 C 0.83929 0.31049 0.66946 0.0
C569 C 0.82011 0.33864 0.65067 0.0
C570 C 0.81026 0.27693 0.66955 0.0
C571 C 0.76096 0.27133 0.65031 0.0
C572 C 0.74117 0.29974 0.63141 0.0
C573 C 0.77092 0.33308 0.63186 0.0
C574 C 0.83253 0.24739 0.69014 0.0
C575 C 0.68879 0.29484 0.61056 0.0
H576 H 0.7329 0.15372 0.61445 0.0
H577 H 0.61623 0.19108 0.68447 0.0
H578 H 0.78985 0.23713 0.59331 0.0
H579 H 0.84019 0.22068 0.62125 0.0
H580 H 0.80837 0.18977 0.59421 0.0
H581 H 0.62324 0.24877 0.7057 0.0
H582 H 0.69782 0.26616 0.70684 0.0
H583 H 0.64717 0.28251 0.67901 0.0
H584 H 0.87725 0.3146 0.68408 0.0
H585 H 0.75592 0.3547 0.61725 0.0
H586 H 0.84576 0.22353 0.67655 0.0
H587 H 0.79663 0.23859 0.70558 0.0
H588 H 0.87105 0.25618 0.70395 0.0
H589 H 0.69753 0.27239 0.59454 0.0
H590 H 0.67883 0.31962 0.59738 0.0
H591 H 0.64896 0.28739 0.62384 0.0
C592 C 0.3391 0.69447 0.84953 0.0
C593 C 0.31864 0.66535 0.86688 0.0
C594 C 0.3093 0.72776 0.84962 0.0
C595 C 0.25776 0.73206 0.86749 0.0
C596 C 0.23656 0.70263 0.88482 0.0
C597 C 0.26725 0.66963 0.8843 0.0
C598 C 0.33326 0.75845 0.83079 0.0
C599 C 0.18173 0.70611 0.90413 0.0
C600 C 0.21277 0.82737 0.89013 0.0
C601 C 0.16726 0.83477 0.86947 0.0
C602 C 0.24239 0.794 0.88984 0.0
C603 C 0.22634 0.76746 0.86825 0.0
C604 C 0.18045 0.77481 0.84731 0.0
C605 C 0.15138 0.80833 0.84822 0.0
C606 C 0.29091 0.78716 0.91263 0.0
C607 C 0.16219 0.7473 0.82387 0.0
H608 H 0.37878 0.69136 0.836 0.0
H609 H 0.25117 0.64724 0.89776 0.0
H610 H 0.29888 0.76797 0.81473 0.0
H611 H 0.34481 0.7816 0.8456 0.0
H612 H 0.37324 0.75056 0.81774 0.0
H613 H 0.17058 0.68055 0.91596 0.0
H614 H 0.18825 0.72763 0.92129 0.0
H615 H 0.14344 0.71417 0.88994 0.0
H616 H 0.2252 0.84765 0.90665 0.0
H617 H 0.11628 0.81385 0.83216 0.0
H618 H 0.33314 0.78139 0.90077 0.0
H619 H 0.27996 0.76304 0.9264 0.0
H620 H 0.29781 0.81048 0.92805 0.0
H621 H 0.2006 0.7403 0.80938 0.0
H622 H 0.12572 0.7572 0.80919 0.0
H623 H 0.14751 0.72208 0.83512 0.0
loop_
_geom_bond_atom_site_label_1
_geom_bond_atom_site_label_2
_geom_bond_distance
_geom_bond_site_symmetry_2
_ccdc_geom_bond_type
Co0 O1 2.216 . S
Co0 O2 2.091 . S
Co0 O4 2.004 . S
Co0 O10 2.021 . S
Co0 O12 2.137 . S
Co0 O13 2.244 . S
O1 Co0 2.216 . S
O1 C8 1.247 . S
O2 Co0 2.091 . S
O2 C8 1.261 . S
C3 O12 1.247 . S
C3 O13 1.272 . S
O4 Co0 2.004 . S
O4 C9 1.259 . S
Co5 O6 2.061 . S
Co5 O11 2.052 . S
Co5 O13 2.135 . S
O6 Co5 2.061 . S
O6 C9 1.235 . S
C7 O10 1.238 . S
C7 O11 1.241 . S
C8 O1 1.247 . S
C8 O2 1.261 . S
C9 O4 1.259 . S
C9 O6 1.235 . S
O10 Co0 2.021 . S
O10 C7 1.238 . S
O11 Co5 2.052 . S
O11 C7 1.241 . S
O12 Co0 2.137 . S
O12 C3 1.247 . S
O13 Co0 2.244 . S
O13 C3 1.272 . S
O13 Co5 2.135 . S
Co14 O15 2.216 . S
Co14 O16 2.091 . S
Co14 O18 2.004 . S
Co14 O24 2.021 . S
Co14 O26 2.137 . S
Co14 O27 2.244 . S
O15 Co14 2.216 . S
O15 C22 1.247 . S
O16 Co14 2.091 . S
O16 C22 1.261 . S
C17 O26 1.247 . S
C17 O27 1.272 . S
O18 Co14 2.004 . S
O18 C23 1.259 . S
Co19 O20 2.061 . S
Co19 O25 2.052 . S
Co19 O27 2.135 . S
O20 Co19 2.061 . S
O20 C23 1.235 . S
C21 O24 1.238 . S
C21 O25 1.241 . S
C22 O15 1.247 . S
C22 O16 1.261 . S
C23 O18 1.259 . S
C23 O20 1.235 . S
O24 Co14 2.021 . S
O24 C21 1.238 . S
O25 Co19 2.052 . S
O25 C21 1.241 . S
O26 Co14 2.137 . S
O26 C17 1.247 . S
O27 Co14 2.244 . S
O27 C17 1.272 . S
O27 Co19 2.135 . S
Co28 O29 2.216 . S
Co28 O30 2.091 . S
Co28 O32 2.004 . S
Co28 O38 2.021 . S
Co28 O40 2.137 . S
Co28 O41 2.244 . S
O29 Co28 2.216 . S
O29 C36 1.247 . S
O30 Co28 2.091 . S
O30 C36 1.261 . S
C31 O40 1.247 . S
C31 O41 1.272 . S
O32 Co28 2.004 . S
O32 C37 1.259 . S
Co33 O34 2.061 . S
Co33 O39 2.052 . S
Co33 O41 2.135 . S
O34 Co33 2.061 . S
O34 C37 1.235 . S
C35 O38 1.238 . S
C35 O39 1.241 . S
C36 O29 1.247 . S
C36 O30 1.261 . S
C37 O32 1.259 . S
C37 O34 1.235 . S
O38 Co28 2.021 . S
O38 C35 1.238 . S
O39 Co33 2.052 . S
O39 C35 1.241 . S
O40 Co28 2.137 . S
O40 C31 1.247 . S
O41 Co28 2.244 . S
O41 C31 1.272 . S
O41 Co33 2.135 . S
Co42 O43 2.216 . S
Co42 O44 2.091 . S
Co42 O46 2.004 . S
Co42 O52 2.021 . S
Co42 O54 2.137 . S
Co42 O55 2.244 . S
O43 Co42 2.216 . S
O43 C50 1.247 . S
O44 Co42 2.091 . S
O44 C50 1.261 . S
C45 O54 1.247 . S
C45 O55 1.272 . S
O46 Co42 2.004 . S
O46 C51 1.259 . S
Co47 O48 2.061 . S
Co47 O53 2.052 . S
Co47 O55 2.135 . S
O48 Co47 2.061 . S
O48 C51 1.235 . S
C49 O52 1.238 . S
C49 O53 1.241 . S
C50 O43 1.247 . S
C50 O44 1.261 . S
C51 O46 1.259 . S
C51 O48 1.235 . S
O52 Co42 2.021 . S
O52 C49 1.238 . S
O53 Co47 2.052 . S
O53 C49 1.241 . S
O54 Co42 2.137 . S
O54 C45 1.247 . S
O55 Co42 2.244 . S
O55 C45 1.272 . S
O55 Co47 2.135 . S
Co56 O57 2.216 . S
Co56 O58 2.091 . S
Co56 O60 2.004 . S
Co56 O66 2.021 . S
Co56 O68 2.137 . S
Co56 O69 2.244 . S
O57 Co56 2.216 . S
O57 C64 1.247 . S
O58 Co56 2.091 . S
O58 C64 1.261 . S
C59 O68 1.247 . S
C59 O69 1.272 . S
O60 Co56 2.004 . S
O60 C65 1.259 . S
Co61 O62 2.061 . S
Co61 O67 2.052 . S
Co61 O69 2.135 . S
O62 Co61 2.061 . S
O62 C65 1.235 . S
C63 O66 1.238 . S
C63 O67 1.241 . S
C64 O57 1.247 . S
C64 O58 1.261 . S
C65 O60 1.259 . S
C65 O62 1.235 . S
O66 Co56 2.021 . S
O66 C63 1.238 . S
O67 Co61 2.052 . S
O67 C63 1.241 . S
O68 Co56 2.137 . S
O68 C59 1.247 . S
O69 Co56 2.244 . S
O69 C59 1.272 . S
O69 Co61 2.135 . S
Co70 O71 2.216 . S
Co70 O72 2.091 . S
Co70 O74 2.004 . S
Co70 O80 2.021 . S
Co70 O82 2.137 . S
Co70 O83 2.244 . S
O71 Co70 2.216 . S
O71 C78 1.247 . S
O72 Co70 2.091 . S
O72 C78 1.261 . S
C73 O82 1.247 . S
C73 O83 1.272 . S
O74 Co70 2.004 . S
O74 C79 1.259 . S
Co75 O76 2.061 . S
Co75 O81 2.052 . S
Co75 O83 2.135 . S
O76 Co75 2.061 . S
O76 C79 1.235 . S
C77 O80 1.238 . S
C77 O81 1.241 . S
C78 O71 1.247 . S
C78 O72 1.261 . S
C79 O74 1.259 . S
C79 O76 1.235 . S
O80 Co70 2.021 . S
O80 C77 1.238 . S
O81 Co75 2.052 . S
O81 C77 1.241 . S
O82 Co70 2.137 . S
O82 C73 1.247 . S
O83 Co70 2.244 . S
O83 C73 1.272 . S
O83 Co75 2.135 . S
Co84 O85 2.216 . S
Co84 O86 2.091 . S
Co84 O88 2.004 . S
Co84 O94 2.021 . S
Co84 O96 2.137 . S
Co84 O97 2.244 . S
O85 Co84 2.216 . S
O85 C92 1.247 . S
O86 Co84 2.091 . S
O86 C92 1.261 . S
C87 O96 1.247 . S
C87 O97 1.272 . S
O88 Co84 2.004 . S
O88 C93 1.259 . S
Co89 O90 2.061 . S
Co89 O95 2.052 . S
Co89 O97 2.135 . S
O90 Co89 2.061 . S
O90 C93 1.235 . S
C91 O94 1.238 . S
C91 O95 1.241 . S
C92 O85 1.247 . S
C92 O86 1.261 . S
C93 O88 1.259 . S
C93 O90 1.235 . S
O94 Co84 2.021 . S
O94 C91 1.238 . S
O95 Co89 2.052 . S
O95 C91 1.241 . S
O96 Co84 2.137 . S
O96 C87 1.247 . S
O97 Co84 2.244 . S
O97 C87 1.272 . S
O97 Co89 2.135 . S
Co98 O99 2.216 . S
Co98 O100 2.091 . S
Co98 O102 2.004 . S
Co98 O108 2.021 . S
Co98 O110 2.137 . S
Co98 O111 2.244 . S
O99 Co98 2.216 . S
O99 C106 1.247 . S
O100 Co98 2.091 . S
O100 C106 1.261 . S
C101 O110 1.247 . S
C101 O111 1.272 . S
O102 Co98 2.004 . S
O102 C107 1.259 . S
Co103 O104 2.061 . S
Co103 O109 2.052 . S
Co103 O111 2.135 . S
O104 Co103 2.061 . S
O104 C107 1.235 . S
C105 O108 1.238 . S
C105 O109 1.241 . S
C106 O99 1.247 . S
C106 O100 1.261 . S
C107 O102 1.259 . S
C107 O104 1.235 . S
O108 Co98 2.021 . S
O108 C105 1.238 . S
O109 Co103 2.052 . S
O109 C105 1.241 . S
O110 Co98 2.137 . S
O110 C101 1.247 . S
O111 Co98 2.244 . S
O111 C101 1.272 . S
O111 Co103 2.135 . S
C112 C113 1.391 . S
C112 C114 1.394 . S
C112 H128 0.931 . S
C113 C112 1.391 . S
C113 C117 1.376 . S
C114 C112 1.394 . S
C114 C115 1.369 . S
C114 C118 1.531 . S
C115 C114 1.369 . S
C115 C116 1.410 . S
C115 C123 1.503 . S
C116 C115 1.410 . S
C116 C117 1.392 . S
C116 C119 1.511 . S
C117 C113 1.376 . S
C117 C116 1.392 . S
C117 H129 0.929 . S
C118 C114 1.531 . S
C118 H130 0.960 . S
C118 H131 0.962 . S
C118 H132 0.960 . S
C119 C116 1.511 . S
C119 H133 0.961 . S
C119 H134 0.961 . S
C119 H135 0.961 . S
C120 C121 1.370 . S
C120 C122 1.363 . S
C120 H136 0.931 . S
C121 C120 1.370 . S
C121 C125 1.408 . S
C122 C120 1.363 . S
C122 C123 1.370 . S
C122 C126 1.524 . S
C123 C115 1.503 . S
C123 C122 1.370 . S
C123 C124 1.403 . S
C124 C123 1.403 . S
C124 C125 1.404 . S
C124 C127 1.539 . S
C125 C121 1.408 . S
C125 C124 1.404 . S
C125 H137 0.930 . S
C126 C122 1.524 . S
C126 H138 0.956 . S
C126 H139 0.961 . S
C126 H140 0.961 . S
C127 C124 1.539 . S
C127 H141 0.958 . S
C127 H142 0.961 . S
C127 H143 0.960 . S
H128 C112 0.931 . S
H129 C117 0.929 . S
H130 C118 0.960 . S
H131 C118 0.962 . S
H132 C118 0.960 . S
H133 C119 0.961 . S
H134 C119 0.961 . S
H135 C119 0.961 . S
H136 C120 0.931 . S
H137 C125 0.930 . S
H138 C126 0.956 . S
H139 C126 0.961 . S
H140 C126 0.961 . S
H141 C127 0.958 . S
H142 C127 0.961 . S
H143 C127 0.960 . S
C144 C145 1.391 . S
C144 C146 1.394 1_655 S
C144 H160 0.931 . S
C145 C144 1.391 . S
C145 C149 1.376 1_655 S
C146 C144 1.394 1_455 S
C146 C147 1.369 1_545 S
C146 C150 1.531 . S
C147 C146 1.369 1_565 S
C147 C148 1.409 . S
C147 C155 1.503 . S
C148 C147 1.409 . S
C148 C149 1.392 1_565 S
C148 C151 1.511 . S
C149 C145 1.376 1_455 S
C149 C148 1.392 1_545 S
C149 H161 0.929 . S
C150 C146 1.531 . S
C150 H162 0.960 . S
C150 H163 0.962 . S
C150 H164 0.960 1_455 S
C151 C148 1.511 . S
C151 H165 0.961 . S
C151 H166 0.961 . S
C151 H167 0.961 . S
C152 C153 1.370 1_545 S
C152 C154 1.363 . S
C152 H168 0.931 . S
C153 C152 1.370 1_565 S
C153 C157 1.408 . S
C154 C152 1.363 . S
C154 C155 1.370 1_545 S
C154 C158 1.524 . S
C155 C147 1.503 . S
C155 C154 1.370 1_565 S
C155 C156 1.403 . S
C156 C155 1.403 . S
C156 C157 1.404 . S
C156 C159 1.539 . S
C157 C153 1.408 . S
C157 C156 1.404 . S
C157 H169 0.930 . S
C158 C154 1.524 . S
C158 H170 0.956 . S
C158 H171 0.961 . S
C158 H172 0.961 . S
C159 C156 1.539 . S
C159 H173 0.958 . S
C159 H174 0.961 . S
C159 H175 0.960 . S
H160 C144 0.931 . S
H161 C149 0.929 . S
H162 C150 0.960 . S
H163 C150 0.962 . S
H164 C150 0.960 1_655 S
H165 C151 0.961 . S
H166 C151 0.961 . S
H167 C151 0.961 . S
H168 C152 0.931 . S
H169 C157 0.930 . S
H170 C158 0.956 . S
H171 C158 0.961 . S
H172 C158 0.961 . S
H173 C159 0.958 . S
H174 C159 0.961 . S
H175 C159 0.960 . S
C176 C177 1.391 . S
C176 C178 1.394 . S
C176 H192 0.931 . S
C177 C176 1.391 . S
C177 C181 1.376 . S
C178 C176 1.394 . S
C178 C179 1.369 . S
C178 C182 1.531 . S
C179 C178 1.369 . S
C179 C180 1.410 . S
C179 C187 1.503 . S
C180 C179 1.410 . S
C180 C181 1.392 . S
C180 C183 1.511 . S
C181 C177 1.376 . S
C181 C180 1.392 . S
C181 H193 0.929 . S
C182 C178 1.531 . S
C182 H194 0.960 . S
C182 H195 0.962 . S
C182 H196 0.960 . S
C183 C180 1.511 . S
C183 H197 0.961 . S
C183 H198 0.961 . S
C183 H199 0.961 . S
C184 C185 1.370 1_655 S
C184 C186 1.363 . S
C184 H200 0.931 . S
C185 C184 1.370 1_455 S
C185 C189 1.408 . S
C186 C184 1.363 . S
C186 C187 1.370 . S
C186 C190 1.524 . S
C187 C179 1.503 . S
C187 C186 1.370 . S
C187 C188 1.403 . S
C188 C187 1.403 . S
C188 C189 1.404 1_655 S
C188 C191 1.539 . S
C189 C185 1.408 . S
C189 C188 1.404 1_455 S
C189 H201 0.930 . S
C190 C186 1.524 . S
C190 H202 0.956 . S
C190 H203 0.961 . S
C190 H204 0.961 . S
C191 C188 1.539 . S
C191 H205 0.958 . S
C191 H206 0.961 1_655 S
C191 H207 0.960 . S
H192 C176 0.931 . S
H193 C181 0.929 . S
H194 C182 0.960 . S
H195 C182 0.962 . S
H196 C182 0.960 . S
H197 C183 0.961 . S
H198 C183 0.961 . S
H199 C183 0.961 . S
H200 C184 0.931 . S
H201 C189 0.930 . S
H202 C190 0.956 . S
H203 C190 0.961 . S
H204 C190 0.961 . S
H205 C191 0.958 . S
H206 C191 0.961 1_455 S
H207 C191 0.960 . S
C208 C209 1.391 . S
C208 C210 1.394 . S
C208 H224 0.931 . S
C209 C208 1.391 . S
C209 C213 1.376 . S
C210 C208 1.394 . S
C210 C211 1.369 . S
C210 C214 1.531 . S
C211 C210 1.369 . S
C211 C212 1.410 . S
C211 C219 1.503 1_545 S
C212 C211 1.410 . S
C212 C213 1.392 . S
C212 C215 1.511 . S
C213 C209 1.376 . S
C213 C212 1.392 . S
C213 H225 0.929 . S
C214 C210 1.531 . S
C214 H226 0.960 . S
C214 H227 0.962 1_545 S
C214 H228 0.960 . S
C215 C212 1.511 . S
C215 H229 0.961 1_545 S
C215 H230 0.961 1_545 S
C215 H231 0.961 . S
C216 C217 1.370 . S
C216 C218 1.363 . S
C216 H232 0.931 . S
C217 C216 1.370 . S
C217 C221 1.408 1_565 S
C218 C216 1.363 . S
C218 C219 1.370 . S
C218 C222 1.524 . S
C219 C211 1.503 1_565 S
C219 C218 1.370 . S
C219 C220 1.403 1_565 S
C220 C219 1.403 1_545 S
C220 C221 1.404 . S
C220 C223 1.539 . S
C221 C217 1.408 1_545 S
C221 C220 1.404 . S
C221 H233 0.930 . S
C222 C218 1.524 . S
C222 H234 0.956 . S
C222 H235 0.961 . S
C222 H236 0.961 . S
C223 C220 1.539 . S
C223 H237 0.958 . S
C223 H238 0.961 . S
C223 H239 0.960 . S
H224 C208 0.931 . S
H225 C213 0.929 . S
H226 C214 0.960 . S
H227 C214 0.962 1_565 S
H228 C214 0.960 . S
H229 C215 0.961 1_565 S
H230 C215 0.961 1_565 S
H231 C215 0.961 . S
H232 C216 0.931 . S
H233 C221 0.930 . S
H234 C222 0.956 . S
H235 C222 0.961 . S
H236 C222 0.961 . S
H237 C223 0.958 . S
H238 C223 0.961 . S
H239 C223 0.960 . S
C240 C241 1.391 . S
C240 C242 1.394 . S
C240 H256 0.931 . S
C241 C240 1.391 . S
C241 C245 1.376 . S
C242 C240 1.394 . S
C242 C243 1.369 . S
C242 C246 1.531 . S
C243 C242 1.369 . S
C243 C244 1.410 . S
C243 C251 1.503 . S
C244 C243 1.410 . S
C244 C245 1.392 . S
C244 C247 1.511 . S
C245 C241 1.376 . S
C245 C244 1.392 . S
C245 H257 0.929 . S
C246 C242 1.531 . S
C246 H258 0.960 . S
C246 H259 0.962 . S
C246 H260 0.960 . S
C247 C244 1.511 . S
C247 H261 0.961 . S
C247 H262 0.961 . S
C247 H263 0.961 . S
C248 C249 1.370 . S
C248 C250 1.363 . S
C248 H264 0.931 . S
C249 C248 1.370 . S
C249 C253 1.408 . S
C250 C248 1.363 . S
C250 C251 1.370 . S
C250 C254 1.524 . S
C251 C243 1.503 . S
C251 C250 1.370 . S
C251 C252 1.403 . S
C252 C251 1.403 . S
C252 C253 1.404 . S
C252 C255 1.539 . S
C253 C249 1.408 . S
C253 C252 1.404 . S
C253 H265 0.930 . S
C254 C250 1.524 . S
C254 H266 0.956 . S
C254 H267 0.961 . S
C254 H268 0.961 . S
C255 C252 1.539 . S
C255 H269 0.958 . S
C255 H270 0.961 . S
C255 H271 0.960 . S
H256 C240 0.931 . S
H257 C245 0.929 . S
H258 C246 0.960 . S
H259 C246 0.962 . S
H260 C246 0.960 . S
H261 C247 0.961 . S
H262 C247 0.961 . S
H263 C247 0.961 . S
H264 C248 0.931 . S
H265 C253 0.930 . S
H266 C254 0.956 . S
H267 C254 0.961 . S
H268 C254 0.961 . S
H269 C255 0.958 . S
H270 C255 0.961 . S
H271 C255 0.960 . S
C272 C273 1.391 . S
C272 C274 1.394 . S
C272 H288 0.931 . S
C273 C272 1.391 . S
C273 C277 1.376 1_545 S
C274 C272 1.394 . S
C274 C275 1.369 . S
C274 C278 1.531 . S
C275 C274 1.369 . S
C275 C276 1.410 1_545 S
C275 C283 1.503 1_545 S
C276 C275 1.410 1_565 S
C276 C277 1.392 . S
C276 C279 1.511 . S
C277 C273 1.376 1_565 S
C277 C276 1.392 . S
C277 H289 0.929 . S
C278 C274 1.531 . S
C278 H290 0.960 . S
C278 H291 0.962 . S
C278 H292 0.960 . S
C279 C276 1.511 . S
C279 H293 0.961 . S
C279 H294 0.961 . S
C279 H295 0.961 . S
C280 C281 1.370 1_455 S
C280 C282 1.363 1_455 S
C280 H296 0.931 . S
C281 C280 1.370 1_655 S
C281 C285 1.412 . S
C282 C280 1.363 1_655 S
C282 C283 1.370 . S
C282 C286 1.524 . S
C283 C275 1.503 1_565 S
C283 C282 1.370 . S
C283 C284 1.403 . S
C284 C283 1.403 . S
C284 C285 1.404 . S
C284 C287 1.539 . S
C285 C281 1.412 . S
C285 C284 1.404 . S
C285 H297 0.930 . S
C286 C282 1.524 . S
C286 H298 0.956 1_565 S
C286 H299 0.961 . S
C286 H300 0.961 1_655 S
C287 C284 1.539 . S
C287 H301 0.958 1_565 S
C287 H302 0.961 . S
C287 H303 0.960 . S
H288 C272 0.931 . S
H289 C277 0.929 . S
H290 C278 0.960 . S
H291 C278 0.962 . S
H292 C278 0.960 . S
H293 C279 0.961 . S
H294 C279 0.961 . S
H295 C279 0.961 . S
H296 C280 0.931 . S
H297 C285 0.930 . S
H298 C286 0.956 1_545 S
H299 C286 0.961 . S
H300 C286 0.961 1_455 S
H301 C287 0.958 1_545 S
H302 C287 0.961 . S
H303 C287 0.960 . S
C304 C305 1.391 . S
C304 C306 1.394 . S
C304 H320 0.931 . S
C305 C304 1.391 . S
C305 C309 1.376 . S
C306 C304 1.394 . S
C306 C307 1.369 . S
C306 C310 1.531 . S
C307 C306 1.369 . S
C307 C308 1.410 . S
C307 C315 1.503 . S
C308 C307 1.410 . S
C308 C309 1.392 . S
C308 C311 1.511 . S
C309 C305 1.376 . S
C309 C308 1.392 . S
C309 H321 0.929 . S
C310 C306 1.531 . S
C310 H322 0.960 . S
C310 H323 0.962 . S
C310 H324 0.960 . S
C311 C308 1.511 . S
C311 H325 0.961 . S
C311 H326 0.961 . S
C311 H327 0.961 . S
C312 C313 1.370 1_455 S
C312 C314 1.363 . S
C312 H328 0.931 . S
C313 C312 1.370 1_655 S
C313 C317 1.408 1_655 S
C314 C312 1.363 . S
C314 C315 1.370 . S
C314 C318 1.524 . S
C315 C307 1.503 . S
C315 C314 1.370 . S
C315 C316 1.403 . S
C316 C315 1.403 . S
C316 C317 1.404 . S
C316 C319 1.539 . S
C317 C313 1.408 1_455 S
C317 C316 1.404 . S
C317 H329 0.930 1_455 S
C318 C314 1.524 . S
C318 H330 0.956 . S
C318 H331 0.961 . S
C318 H332 0.961 . S
C319 C316 1.539 . S
C319 H333 0.958 . S
C319 H334 0.961 . S
C319 H335 0.960 . S
H320 C304 0.931 . S
H321 C309 0.929 . S
H322 C310 0.960 . S
H323 C310 0.962 . S
H324 C310 0.960 . S
H325 C311 0.961 . S
H326 C311 0.961 . S
H327 C311 0.961 . S
H328 C312 0.931 . S
H329 C317 0.930 1_655 S
H330 C318 0.956 . S
H331 C318 0.961 . S
H332 C318 0.961 . S
H333 C319 0.958 . S
H334 C319 0.961 . S
H335 C319 0.960 . S
C336 C337 1.391 1_545 S
C336 C338 1.394 . S
C336 H352 0.931 . S
C337 C336 1.391 1_565 S
C337 C341 1.376 . S
C338 C336 1.394 . S
C338 C339 1.369 1_545 S
C338 C342 1.531 . S
C339 C338 1.369 1_565 S
C339 C340 1.410 . S
C339 C347 1.503 1_565 S
C340 C339 1.410 . S
C340 C341 1.392 . S
C340 C343 1.511 . S
C341 C337 1.376 . S
C341 C340 1.392 . S
C341 H353 0.929 . S
C342 C338 1.531 . S
C342 H354 0.960 . S
C342 H355 0.962 . S
C342 H356 0.960 . S
C343 C340 1.511 . S
C343 H357 0.961 . S
C343 H358 0.961 . S
C343 H359 0.961 . S
C344 C345 1.370 . S
C344 C346 1.363 . S
C344 H360 0.931 . S
C345 C344 1.370 . S
C345 C349 1.408 . S
C346 C344 1.363 . S
C346 C347 1.370 . S
C346 C350 1.524 . S
C347 C339 1.503 1_545 S
C347 C346 1.370 . S
C347 C348 1.403 1_545 S
C348 C347 1.403 1_565 S
C348 C349 1.404 1_565 S
C348 C351 1.539 . S
C349 C345 1.408 . S
C349 C348 1.404 1_545 S
C349 H361 0.930 . S
C350 C346 1.524 . S
C350 H362 0.956 . S
C350 H363 0.961 . S
C350 H364 0.961 . S
C351 C348 1.539 . S
C351 H365 0.958 . S
C351 H366 0.961 . S
C351 H367 0.960 . S
H352 C336 0.931 . S
H353 C341 0.929 . S
H354 C342 0.960 . S
H355 C342 0.962 . S
H356 C342 0.960 . S
H357 C343 0.961 . S
H358 C343 0.961 . S
H359 C343 0.961 . S
H360 C344 0.931 . S
H361 C349 0.930 . S
H362 C350 0.956 . S
H363 C350 0.961 . S
H364 C350 0.961 . S
H365 C351 0.958 . S
H366 C351 0.961 . S
H367 C351 0.960 . S
C368 C369 1.391 . S
C368 C370 1.394 1_455 S
C368 H384 0.931 1_455 S
C369 C368 1.391 . S
C369 C373 1.376 . S
C370 C368 1.394 1_655 S
C370 C371 1.369 1_655 S
C370 C374 1.531 . S
C371 C370 1.369 1_455 S
C371 C372 1.410 . S
C371 C379 1.503 1_455 S
C372 C371 1.410 . S
C372 C373 1.392 . S
C372 C375 1.511 . S
C373 C369 1.376 . S
C373 C372 1.392 . S
C373 H385 0.929 . S
C374 C370 1.531 . S
C374 H386 0.960 . S
C374 H387 0.962 . S
C374 H388 0.960 . S
C375 C372 1.511 . S
C375 H389 0.961 . S
C375 H390 0.961 . S
C375 H391 0.961 . S
C376 C377 1.370 . S
C376 C378 1.363 . S
C376 H392 0.931 . S
C377 C376 1.370 . S
C377 C381 1.408 . S
C378 C376 1.363 . S
C378 C379 1.370 . S
C378 C382 1.524 1_655 S
C379 C371 1.503 1_655 S
C379 C378 1.370 . S
C379 C380 1.403 . S
C380 C379 1.403 . S
C380 C381 1.404 . S
C380 C383 1.539 . S
C381 C377 1.408 . S
C381 C380 1.404 . S
C381 H393 0.930 . S
C382 C378 1.524 1_455 S
C382 H394 0.956 . S
C382 H395 0.961 . S
C382 H396 0.961 . S
C383 C380 1.539 . S
C383 H397 0.958 . S
C383 H398 0.961 . S
C383 H399 0.960 . S
H384 C368 0.931 1_655 S
H385 C373 0.929 . S
H386 C374 0.960 . S
H387 C374 0.962 . S
H388 C374 0.960 . S
H389 C375 0.961 . S
H390 C375 0.961 . S
H391 C375 0.961 . S
H392 C376 0.931 . S
H393 C381 0.930 . S
H394 C382 0.956 . S
H395 C382 0.961 . S
H396 C382 0.961 . S
H397 C383 0.958 . S
H398 C383 0.961 . S
H399 C383 0.960 . S
C400 C401 1.391 . S
C400 C402 1.396 . S
C400 H416 0.931 . S
C401 C400 1.391 . S
C401 C405 1.376 . S
C402 C400 1.396 . S
C402 C403 1.369 1_565 S
C402 C406 1.528 1_565 S
C403 C402 1.369 1_545 S
C403 C404 1.410 1_545 S
C403 C411 1.503 . S
C404 C403 1.410 1_565 S
C404 C405 1.392 . S
C404 C407 1.511 . S
C405 C401 1.376 . S
C405 C404 1.392 . S
C405 H417 0.929 . S
C406 C402 1.528 1_545 S
C406 H418 0.960 . S
C406 H419 0.962 1_545 S
C406 H420 0.960 . S
C407 C404 1.511 . S
C407 H421 0.961 . S
C407 H422 0.961 . S
C407 H423 0.961 1_565 S
C408 C409 1.370 1_565 S
C408 C410 1.363 . S
C408 H424 0.931 . S
C409 C408 1.370 1_545 S
C409 C413 1.408 . S
C410 C408 1.363 . S
C410 C411 1.370 1_565 S
C410 C414 1.524 . S
C411 C403 1.503 . S
C411 C410 1.370 1_545 S
C411 C412 1.403 . S
C412 C411 1.403 . S
C412 C413 1.404 . S
C412 C415 1.539 . S
C413 C409 1.408 . S
C413 C412 1.404 . S
C413 H425 0.930 . S
C414 C410 1.524 . S
C414 H426 0.956 . S
C414 H427 0.961 . S
C414 H428 0.961 . S
C415 C412 1.539 . S
C415 H429 0.958 . S
C415 H430 0.961 . S
C415 H431 0.960 . S
H416 C400 0.931 . S
H417 C405 0.929 . S
H418 C406 0.960 . S
H419 C406 0.962 1_565 S
H420 C406 0.960 . S
H421 C407 0.961 . S
H422 C407 0.961 . S
H423 C407 0.961 1_545 S
H424 C408 0.931 . S
H425 C413 0.930 . S
H426 C414 0.956 . S
H427 C414 0.961 . S
H428 C414 0.961 . S
H429 C415 0.958 . S
H430 C415 0.961 . S
H431 C415 0.960 . S
C432 C433 1.391 . S
C432 C434 1.394 . S
C432 H448 0.931 . S
C433 C432 1.391 . S
C433 C437 1.376 . S
C434 C432 1.394 . S
C434 C435 1.369 . S
C434 C438 1.531 . S
C435 C434 1.369 . S
C435 C436 1.410 . S
C435 C443 1.503 1_554 S
C436 C435 1.410 . S
C436 C437 1.392 . S
C436 C439 1.511 . S
C437 C433 1.376 . S
C437 C436 1.392 . S
C437 H449 0.929 . S
C438 C434 1.531 . S
C438 H450 0.960 . S
C438 H451 0.962 . S
C438 H452 0.960 . S
C439 C436 1.511 . S
C439 H453 0.961 . S
C439 H454 0.961 1_554 S
C439 H455 0.961 . S
C440 C441 1.370 . S
C440 C442 1.363 . S
C440 H456 0.931 . S
C441 C440 1.370 . S
C441 C445 1.408 . S
C442 C440 1.363 . S
C442 C443 1.370 . S
C442 C446 1.524 . S
C443 C435 1.503 1_556 S
C443 C442 1.370 . S
C443 C444 1.403 . S
C444 C443 1.403 . S
C444 C445 1.404 . S
C444 C447 1.539 1_556 S
C445 C441 1.408 . S
C445 C444 1.404 . S
C445 H457 0.930 . S
C446 C442 1.524 . S
C446 H458 0.956 . S
C446 H459 0.961 . S
C446 H460 0.961 . S
C447 C444 1.539 1_554 S
C447 H461 0.958 . S
C447 H462 0.961 . S
C447 H463 0.960 . S
H448 C432 0.931 . S
H449 C437 0.929 . S
H450 C438 0.960 . S
H451 C438 0.962 . S
H452 C438 0.960 . S
H453 C439 0.961 . S
H454 C439 0.961 1_556 S
H455 C439 0.961 . S
H456 C440 0.931 . S
H457 C445 0.930 . S
H458 C446 0.956 . S
H459 C446 0.961 . S
H460 C446 0.961 . S
H461 C447 0.958 . S
H462 C447 0.961 . S
H463 C447 0.960 . S
C464 C465 1.391 . S
C464 C466 1.394 1_565 S
C464 H480 0.931 . S
C465 C464 1.391 . S
C465 C469 1.376 . S
C466 C464 1.394 1_545 S
C466 C467 1.372 . S
C466 C470 1.541 . S
C467 C466 1.372 . S
C467 C468 1.398 1_445 S
C467 C475 1.510 1_456 S
C468 C467 1.398 1_665 S
C468 C469 1.392 1_655 S
C468 C471 1.511 . S
C469 C465 1.376 . S
C469 C468 1.392 1_455 S
C469 H481 0.929 1_455 S
C470 C466 1.541 . S
C470 H482 0.953 1_556 S
C470 H483 0.951 1_556 S
C470 H484 0.969 . S
C471 C468 1.511 . S
C471 H485 0.961 . S
C471 H486 0.961 . S
C471 H487 0.961 . S
C472 C473 1.373 1_565 S
C472 C474 1.362 . S
C472 H488 0.929 . S
C473 C472 1.373 1_545 S
C473 C477 1.408 . S
C474 C472 1.362 . S
C474 C475 1.370 1_565 S
C474 C478 1.524 1_655 S
C475 C467 1.510 1_654 S
C475 C474 1.370 1_545 S
C475 C476 1.403 . S
C476 C475 1.403 . S
C476 C477 1.404 . S
C476 C479 1.539 1_554 S
C477 C473 1.408 . S
C477 C476 1.404 . S
C477 H489 0.930 . S
C478 C474 1.524 1_455 S
C478 H490 0.956 . S
C478 H491 0.961 1_455 S
C478 H492 0.961 . S
C479 C476 1.539 1_556 S
C479 H493 0.958 . S
C479 H494 0.961 . S
C479 H495 0.960 . S
H480 C464 0.931 . S
H481 C469 0.929 1_655 S
H482 C470 0.953 1_554 S
H483 C470 0.951 1_554 S
H484 C470 0.969 . S
H485 C471 0.961 . S
H486 C471 0.961 . S
H487 C471 0.961 . S
H488 C472 0.929 . S
H489 C477 0.930 . S
H490 C478 0.956 . S
H491 C478 0.961 1_655 S
H492 C478 0.961 . S
H493 C479 0.958 . S
H494 C479 0.961 . S
H495 C479 0.960 . S
C496 C497 1.391 . S
C496 C498 1.394 . S
C496 H512 0.931 . S
C497 C496 1.391 . S
C497 C501 1.376 . S
C498 C496 1.394 . S
C498 C499 1.369 . S
C498 C502 1.531 . S
C499 C498 1.369 . S
C499 C500 1.410 . S
C499 C507 1.503 . S
C500 C499 1.410 . S
C500 C501 1.392 . S
C500 C503 1.511 . S
C501 C497 1.376 . S
C501 C500 1.392 . S
C501 H513 0.929 . S
C502 C498 1.531 . S
C502 H514 0.960 . S
C502 H515 0.962 . S
C502 H516 0.960 . S
C503 C500 1.511 . S
C503 H517 0.961 . S
C503 H518 0.961 . S
C503 H519 0.961 . S
C504 C505 1.370 . S
C504 C506 1.363 . S
C504 H520 0.931 . S
C505 C504 1.370 . S
C505 C509 1.408 . S
C506 C504 1.363 . S
C506 C507 1.370 . S
C506 C510 1.524 . S
C507 C499 1.503 . S
C507 C506 1.370 . S
C507 C508 1.403 . S
C508 C507 1.403 . S
C508 C509 1.404 . S
C508 C511 1.539 . S
C509 C505 1.408 . S
C509 C508 1.404 . S
C509 H521 0.930 . S
C510 C506 1.524 . S
C510 H522 0.956 . S
C510 H523 0.961 . S
C510 H524 0.961 . S
C511 C508 1.539 . S
C511 H525 0.958 . S
C511 H526 0.961 . S
C511 H527 0.960 . S
H512 C496 0.931 . S
H513 C501 0.929 . S
H514 C502 0.960 . S
H515 C502 0.962 . S
H516 C502 0.960 . S
H517 C503 0.961 . S
H518 C503 0.961 . S
H519 C503 0.961 . S
H520 C504 0.931 . S
H521 C509 0.930 . S
H522 C510 0.956 . S
H523 C510 0.961 . S
H524 C510 0.961 . S
H525 C511 0.958 . S
H526 C511 0.961 . S
H527 C511 0.960 . S
C528 C529 1.391 . S
C528 C530 1.394 . S
C528 H544 0.931 . S
C529 C528 1.391 . S
C529 C533 1.376 . S
C530 C528 1.394 . S
C530 C531 1.369 . S
C530 C534 1.531 . S
C531 C530 1.369 . S
C531 C532 1.410 . S
C531 C539 1.503 . S
C532 C531 1.410 . S
C532 C533 1.392 . S
C532 C535 1.511 . S
C533 C529 1.376 . S
C533 C532 1.392 . S
C533 H545 0.929 . S
C534 C530 1.531 . S
C534 H546 0.960 . S
C534 H547 0.962 . S
C534 H548 0.960 . S
C535 C532 1.511 . S
C535 H549 0.961 . S
C535 H550 0.961 . S
C535 H551 0.961 . S
C536 C537 1.370 . S
C536 C538 1.363 . S
C536 H552 0.931 . S
C537 C536 1.370 . S
C537 C541 1.408 . S
C538 C536 1.363 . S
C538 C539 1.370 . S
C538 C542 1.524 . S
C539 C531 1.503 . S
C539 C538 1.370 . S
C539 C540 1.403 . S
C540 C539 1.403 . S
C540 C541 1.404 . S
C540 C543 1.539 . S
C541 C537 1.408 . S
C541 C540 1.404 . S
C541 H553 0.930 . S
C542 C538 1.524 . S
C542 H554 0.956 . S
C542 H555 0.961 . S
C542 H556 0.961 . S
C543 C540 1.539 . S
C543 H557 0.958 . S
C543 H558 0.961 . S
C543 H559 0.960 . S
H544 C528 0.931 . S
H545 C533 0.929 . S
H546 C534 0.960 . S
H547 C534 0.962 . S
H548 C534 0.960 . S
H549 C535 0.961 . S
H550 C535 0.961 . S
H551 C535 0.961 . S
H552 C536 0.931 . S
H553 C541 0.930 . S
H554 C542 0.956 . S
H555 C542 0.961 . S
H556 C542 0.961 . S
H557 C543 0.958 . S
H558 C543 0.961 . S
H559 C543 0.960 . S
C560 C561 1.391 . S
C560 C562 1.394 . S
C560 H576 0.931 . S
C561 C560 1.391 . S
C561 C565 1.376 . S
C562 C560 1.394 . S
C562 C563 1.369 . S
C562 C566 1.531 . S
C563 C562 1.369 . S
C563 C564 1.410 . S
C563 C571 1.503 . S
C564 C563 1.410 . S
C564 C565 1.392 . S
C564 C567 1.511 . S
C565 C561 1.376 . S
C565 C564 1.392 . S
C565 H577 0.929 . S
C566 C562 1.531 . S
C566 H578 0.960 . S
C566 H579 0.962 . S
C566 H580 0.960 . S
C567 C564 1.511 . S
C567 H581 0.961 . S
C567 H582 0.961 . S
C567 H583 0.961 . S
C568 C569 1.370 . S
C568 C570 1.363 . S
C568 H584 0.931 . S
C569 C568 1.370 . S
C569 C573 1.408 . S
C570 C568 1.363 . S
C570 C571 1.370 . S
C570 C574 1.524 . S
C571 C563 1.503 . S
C571 C570 1.370 . S
C571 C572 1.403 . S
C572 C571 1.403 . S
C572 C573 1.404 . S
C572 C575 1.539 . S
C573 C569 1.408 . S
C573 C572 1.404 . S
C573 H585 0.930 . S
C574 C570 1.524 . S
C574 H586 0.956 . S
C574 H587 0.961 . S
C574 H588 0.961 . S
C575 C572 1.539 . S
C575 H589 0.958 . S
C575 H590 0.961 . S
C575 H591 0.960 . S
H576 C560 0.931 . S
H577 C565 0.929 . S
H578 C566 0.960 . S
H579 C566 0.962 . S
H580 C566 0.960 . S
H581 C567 0.961 . S
H582 C567 0.961 . S
H583 C567 0.961 . S
H584 C568 0.931 . S
H585 C573 0.930 . S
H586 C574 0.956 . S
H587 C574 0.961 . S
H588 C574 0.961 . S
H589 C575 0.958 . S
H590 C575 0.961 . S
H591 C575 0.960 . S
C592 C593 1.391 . S
C592 C594 1.394 . S
C592 H608 0.931 . S
C593 C592 1.391 . S
C593 C597 1.376 . S
C594 C592 1.394 . S
C594 C595 1.369 . S
C594 C598 1.531 . S
C595 C594 1.369 . S
C595 C596 1.410 . S
C595 C603 1.503 . S
C596 C595 1.410 . S
C596 C597 1.392 . S
C596 C599 1.511 . S
C597 C593 1.376 . S
C597 C596 1.392 . S
C597 H609 0.929 . S
C598 C594 1.531 . S
C598 H610 0.960 . S
C598 H611 0.962 . S
C598 H612 0.960 . S
C599 C596 1.511 . S
C599 H613 0.961 . S
C599 H614 0.961 . S
C599 H615 0.961 . S
C600 C601 1.370 . S
C600 C602 1.363 . S
C600 H616 0.931 . S
C601 C600 1.370 . S
C601 C605 1.408 . S
C602 C600 1.363 . S
C602 C603 1.370 . S
C602 C606 1.524 . S
C603 C595 1.503 . S
C603 C602 1.370 . S
C603 C604 1.403 . S
C604 C603 1.403 . S
C604 C605 1.404 . S
C604 C607 1.539 . S
C605 C601 1.408 . S
C605 C604 1.404 . S
C605 H617 0.930 . S
C606 C602 1.524 . S
C606 H618 0.956 . S
C606 H619 0.961 . S
C606 H620 0.961 . S
C607 C604 1.539 . S
C607 H621 0.958 . S
C607 H622 0.961 . S
C607 H623 0.960 . S
H608 C592 0.931 . S
H609 C597 0.929 . S
H610 C598 0.960 . S
H611 C598 0.962 . S
H612 C598 0.960 . S
H613 C599 0.961 . S
H614 C599 0.961 . S
H615 C599 0.961 . S
H616 C600 0.931 . S
H617 C605 0.930 . S
H618 C606 0.956 . S
H619 C606 0.961 . S
H620 C606 0.961 . S
H621 C607 0.958 . S
H622 C607 0.961 . S
H623 C607 0.960 . S
C113 C9 1.394 . S
C121 C35 1.387 . S
C145 C49 1.386 . S
C153 C23 1.390 . S
C177 C37 1.383 . S
C185 C7 1.382 . S
C209 C51 1.376 . S
C217 C21 1.387 . S
C241 C91 1.353 . S
C249 C65 1.404 . S
C273 C79 1.378 . S
C281 C105 1.388 1_655 S
C305 C93 1.373 . S
C313 C63 1.392 . S
C337 C107 1.397 . S
C345 C77 1.379 . S
C369 C8 1.511 . S
C377 C64 1.523 . S
C401 C22 1.510 . S
C409 C78 1.523 . S
C433 C36 1.512 . S
C441 C92 1.523 . S
C465 C106 1.510 . S
C473 C50 1.523 . S
C497 C3 1.517 . S
C505 C17 1.530 . S
C529 C45 1.518 . S
C537 C31 1.528 . S
C561 C73 1.529 . S
C569 C59 1.526 . S
C593 C87 1.521 . S
C601 C101 1.527 . S
