# Generated by pormake.
# Topology rho, (4)-cn, num edge types: 1
# Building blocks:
#     Node 0, Type 0, BuildingBlock: ICAMEG_clean_sbu_1, # of connection points: 4
#     Node 1, Type 0, BuildingBlock: ICAMEG_clean_sbu_1, # of connection points: 4
#     Node 2, Type 0, BuildingBlock: ICAMEG_clean_sbu_1, # of connection points: 4
#     Node 3, Type 0, BuildingBlock: ICAMEG_clean_sbu_1, # of connection points: 4
#     Node 4, Type 0, BuildingBlock: ICAMEG_clean_sbu_1, # of connection points: 4
#     Node 5, Type 0, BuildingBlock: ICAMEG_clean_sbu_1, # of connection points: 4
#     Node 6, Type 0, BuildingBlock: ICAMEG_clean_sbu_1, # of connection points: 4
#     Node 7, Type 0, BuildingBlock: ICAMEG_clean_sbu_1, # of connection points: 4
#     Node 8, Type 0, BuildingBlock: ICAMEG_clean_sbu_1, # of connection points: 4
#     Node 9, Type 0, BuildingBlock: ICAMEG_clean_sbu_1, # of connection points: 4
#     Node 10, Type 0, BuildingBlock: ICAMEG_clean_sbu_1, # of connection points: 4
#     Node 11, Type 0, BuildingBlock: ICAMEG_clean_sbu_1, # of connection points: 4
#     Node 12, Type 0, BuildingBlock: ICAMEG_clean_sbu_1, # of connection points: 4
#     Node 13, Type 0, BuildingBlock: ICAMEG_clean_sbu_1, # of connection points: 4
#     Node 14, Type 0, BuildingBlock: ICAMEG_clean_sbu_1, # of connection points: 4
#     Node 15, Type 0, BuildingBlock: ICAMEG_clean_sbu_1, # of connection points: 4
#     Node 16, Type 0, BuildingBlock: ICAMEG_clean_sbu_1, # of connection points: 4
#     Node 17, Type 0, BuildingBlock: ICAMEG_clean_sbu_1, # of connection points: 4
#     Node 18, Type 0, BuildingBlock: ICAMEG_clean_sbu_1, # of connection points: 4
#     Node 19, Type 0, BuildingBlock: ICAMEG_clean_sbu_1, # of connection points: 4
#     Node 20, Type 0, BuildingBlock: ICAMEG_clean_sbu_1, # of connection points: 4
#     Node 21, Type 0, BuildingBlock: ICAMEG_clean_sbu_1, # of connection points: 4
#     Node 22, Type 0, BuildingBlock: ICAMEG_clean_sbu_1, # of connection points: 4
#     Node 23, Type 0, BuildingBlock: ICAMEG_clean_sbu_1, # of connection points: 4
#     Node 24, Type 0, BuildingBlock: ICAMEG_clean_sbu_1, # of connection points: 4
#     Node 25, Type 0, BuildingBlock: ICAMEG_clean_sbu_1, # of connection points: 4
#     Node 26, Type 0, BuildingBlock: ICAMEG_clean_sbu_1, # of connection points: 4
#     Node 27, Type 0, BuildingBlock: ICAMEG_clean_sbu_1, # of connection points: 4
#     Node 28, Type 0, BuildingBlock: ICAMEG_clean_sbu_1, # of connection points: 4
#     Node 29, Type 0, BuildingBlock: ICAMEG_clean_sbu_1, # of connection points: 4
#     Node 30, Type 0, BuildingBlock: ICAMEG_clean_sbu_1, # of connection points: 4
#     Node 31, Type 0, BuildingBlock: ICAMEG_clean_sbu_1, # of connection points: 4
#     Node 32, Type 0, BuildingBlock: ICAMEG_clean_sbu_1, # of connection points: 4
#     Node 33, Type 0, BuildingBlock: ICAMEG_clean_sbu_1, # of connection points: 4
#     Node 34, Type 0, BuildingBlock: ICAMEG_clean_sbu_1, # of connection points: 4
#     Node 35, Type 0, BuildingBlock: ICAMEG_clean_sbu_1, # of connection points: 4
#     Node 36, Type 0, BuildingBlock: ICAMEG_clean_sbu_1, # of connection points: 4
#     Node 37, Type 0, BuildingBlock: ICAMEG_clean_sbu_1, # of connection points: 4
#     Node 38, Type 0, BuildingBlock: ICAMEG_clean_sbu_1, # of connection points: 4
#     Node 39, Type 0, BuildingBlock: ICAMEG_clean_sbu_1, # of connection points: 4
#     Node 40, Type 0, BuildingBlock: ICAMEG_clean_sbu_1, # of connection points: 4
#     Node 41, Type 0, BuildingBlock: ICAMEG_clean_sbu_1, # of connection points: 4
#     Node 42, Type 0, BuildingBlock: ICAMEG_clean_sbu_1, # of connection points: 4
#     Node 43, Type 0, BuildingBlock: ICAMEG_clean_sbu_1, # of connection points: 4
#     Node 44, Type 0, BuildingBlock: ICAMEG_clean_sbu_1, # of connection points: 4
#     Node 45, Type 0, BuildingBlock: ICAMEG_clean_sbu_1, # of connection points: 4
#     Node 46, Type 0, BuildingBlock: ICAMEG_clean_sbu_1, # of connection points: 4
#     Node 47, Type 0, BuildingBlock: ICAMEG_clean_sbu_1, # of connection points: 4
#     Edge 48, Type (0, 0), BuildingBlock: KIFKEQ_clean_linker_1, # of connection points: 2
#     Edge 49, Type (0, 0), BuildingBlock: KIFKEQ_clean_linker_1, # of connection points: 2
#     Edge 50, Type (0, 0), BuildingBlock: KIFKEQ_clean_linker_1, # of connection points: 2
#     Edge 51, Type (0, 0), BuildingBlock: KIFKEQ_clean_linker_1, # of connection points: 2
#     Edge 52, Type (0, 0), BuildingBlock: KIFKEQ_clean_linker_1, # of connection points: 2
#     Edge 53, Type (0, 0), BuildingBlock: KIFKEQ_clean_linker_1, # of connection points: 2
#     Edge 54, Type (0, 0), BuildingBlock: KIFKEQ_clean_linker_1, # of connection points: 2
#     Edge 55, Type (0, 0), BuildingBlock: KIFKEQ_clean_linker_1, # of connection points: 2
#     Edge 56, Type (0, 0), BuildingBlock: KIFKEQ_clean_linker_1, # of connection points: 2
#     Edge 57, Type (0, 0), BuildingBlock: KIFKEQ_clean_linker_1, # of connection points: 2
#     Edge 58, Type (0, 0), BuildingBlock: KIFKEQ_clean_linker_1, # of connection points: 2
#     Edge 59, Type (0, 0), BuildingBlock: KIFKEQ_clean_linker_1, # of connection points: 2
#     Edge 60, Type (0, 0), BuildingBlock: KIFKEQ_clean_linker_1, # of connection points: 2
#     Edge 61, Type (0, 0), BuildingBlock: KIFKEQ_clean_linker_1, # of connection points: 2
#     Edge 62, Type (0, 0), BuildingBlock: KIFKEQ_clean_linker_1, # of connection points: 2
#     Edge 63, Type (0, 0), BuildingBlock: KIFKEQ_clean_linker_1, # of connection points: 2
#     Edge 64, Type (0, 0), BuildingBlock: KIFKEQ_clean_linker_1, # of connection points: 2
#     Edge 65, Type (0, 0), BuildingBlock: KIFKEQ_clean_linker_1, # of connection points: 2
#     Edge 66, Type (0, 0), BuildingBlock: KIFKEQ_clean_linker_1, # of connection points: 2
#     Edge 67, Type (0, 0), BuildingBlock: KIFKEQ_clean_linker_1, # of connection points: 2
#     Edge 68, Type (0, 0), BuildingBlock: KIFKEQ_clean_linker_1, # of connection points: 2
#     Edge 69, Type (0, 0), BuildingBlock: KIFKEQ_clean_linker_1, # of connection points: 2
#     Edge 70, Type (0, 0), BuildingBlock: KIFKEQ_clean_linker_1, # of connection points: 2
#     Edge 71, Type (0, 0), BuildingBlock: KIFKEQ_clean_linker_1, # of connection points: 2
#     Edge 72, Type (0, 0), BuildingBlock: KIFKEQ_clean_linker_1, # of connection points: 2
#     Edge 73, Type (0, 0), BuildingBlock: KIFKEQ_clean_linker_1, # of connection points: 2
#     Edge 74, Type (0, 0), BuildingBlock: KIFKEQ_clean_linker_1, # of connection points: 2
#     Edge 75, Type (0, 0), BuildingBlock: KIFKEQ_clean_linker_1, # of connection points: 2
#     Edge 76, Type (0, 0), BuildingBlock: KIFKEQ_clean_linker_1, # of connection points: 2
#     Edge 77, Type (0, 0), BuildingBlock: KIFKEQ_clean_linker_1, # of connection points: 2
#     Edge 78, Type (0, 0), BuildingBlock: KIFKEQ_clean_linker_1, # of connection points: 2
#     Edge 79, Type (0, 0), BuildingBlock: KIFKEQ_clean_linker_1, # of connection points: 2
#     Edge 80, Type (0, 0), BuildingBlock: KIFKEQ_clean_linker_1, # of connection points: 2
#     Edge 81, Type (0, 0), BuildingBlock: KIFKEQ_clean_linker_1, # of connection points: 2
#     Edge 82, Type (0, 0), BuildingBlock: KIFKEQ_clean_linker_1, # of connection points: 2
#     Edge 83, Type (0, 0), BuildingBlock: KIFKEQ_clean_linker_1, # of connection points: 2
#     Edge 84, Type (0, 0), BuildingBlock: KIFKEQ_clean_linker_1, # of connection points: 2
#     Edge 85, Type (0, 0), BuildingBlock: KIFKEQ_clean_linker_1, # of connection points: 2
#     Edge 86, Type (0, 0), BuildingBlock: KIFKEQ_clean_linker_1, # of connection points: 2
#     Edge 87, Type (0, 0), BuildingBlock: KIFKEQ_clean_linker_1, # of connection points: 2
#     Edge 88, Type (0, 0), BuildingBlock: KIFKEQ_clean_linker_1, # of connection points: 2
#     Edge 89, Type (0, 0), BuildingBlock: KIFKEQ_clean_linker_1, # of connection points: 2
#     Edge 90, Type (0, 0), BuildingBlock: KIFKEQ_clean_linker_1, # of connection points: 2
#     Edge 91, Type (0, 0), BuildingBlock: KIFKEQ_clean_linker_1, # of connection points: 2
#     Edge 92, Type (0, 0), BuildingBlock: KIFKEQ_clean_linker_1, # of connection points: 2
#     Edge 93, Type (0, 0), BuildingBlock: KIFKEQ_clean_linker_1, # of connection points: 2
#     Edge 94, Type (0, 0), BuildingBlock: KIFKEQ_clean_linker_1, # of connection points: 2
#     Edge 95, Type (0, 0), BuildingBlock: KIFKEQ_clean_linker_1, # of connection points: 2
#     Edge 96, Type (0, 0), BuildingBlock: KIFKEQ_clean_linker_1, # of connection points: 2
#     Edge 97, Type (0, 0), BuildingBlock: KIFKEQ_clean_linker_1, # of connection points: 2
#     Edge 98, Type (0, 0), BuildingBlock: KIFKEQ_clean_linker_1, # of connection points: 2
#     Edge 99, Type (0, 0), BuildingBlock: KIFKEQ_clean_linker_1, # of connection points: 2
#     Edge 100, Type (0, 0), BuildingBlock: KIFKEQ_clean_linker_1, # of connection points: 2
#     Edge 101, Type (0, 0), BuildingBlock: KIFKEQ_clean_linker_1, # of connection points: 2
#     Edge 102, Type (0, 0), BuildingBlock: KIFKEQ_clean_linker_1, # of connection points: 2
#     Edge 103, Type (0, 0), BuildingBlock: KIFKEQ_clean_linker_1, # of connection points: 2
#     Edge 104, Type (0, 0), BuildingBlock: KIFKEQ_clean_linker_1, # of connection points: 2
#     Edge 105, Type (0, 0), BuildingBlock: KIFKEQ_clean_linker_1, # of connection points: 2
#     Edge 106, Type (0, 0), BuildingBlock: KIFKEQ_clean_linker_1, # of connection points: 2
#     Edge 107, Type (0, 0), BuildingBlock: KIFKEQ_clean_linker_1, # of connection points: 2
#     Edge 108, Type (0, 0), BuildingBlock: KIFKEQ_clean_linker_1, # of connection points: 2
#     Edge 109, Type (0, 0), BuildingBlock: KIFKEQ_clean_linker_1, # of connection points: 2
#     Edge 110, Type (0, 0), BuildingBlock: KIFKEQ_clean_linker_1, # of connection points: 2
#     Edge 111, Type (0, 0), BuildingBlock: KIFKEQ_clean_linker_1, # of connection points: 2
#     Edge 112, Type (0, 0), BuildingBlock: KIFKEQ_clean_linker_1, # of connection points: 2
#     Edge 113, Type (0, 0), BuildingBlock: KIFKEQ_clean_linker_1, # of connection points: 2
#     Edge 114, Type (0, 0), BuildingBlock: KIFKEQ_clean_linker_1, # of connection points: 2
#     Edge 115, Type (0, 0), BuildingBlock: KIFKEQ_clean_linker_1, # of connection points: 2
#     Edge 116, Type (0, 0), BuildingBlock: KIFKEQ_clean_linker_1, # of connection points: 2
#     Edge 117, Type (0, 0), BuildingBlock: KIFKEQ_clean_linker_1, # of connection points: 2
#     Edge 118, Type (0, 0), BuildingBlock: KIFKEQ_clean_linker_1, # of connection points: 2
#     Edge 119, Type (0, 0), BuildingBlock: KIFKEQ_clean_linker_1, # of connection points: 2
#     Edge 120, Type (0, 0), BuildingBlock: KIFKEQ_clean_linker_1, # of connection points: 2
#     Edge 121, Type (0, 0), BuildingBlock: KIFKEQ_clean_linker_1, # of connection points: 2
#     Edge 122, Type (0, 0), BuildingBlock: KIFKEQ_clean_linker_1, # of connection points: 2
#     Edge 123, Type (0, 0), BuildingBlock: KIFKEQ_clean_linker_1, # of connection points: 2
#     Edge 124, Type (0, 0), BuildingBlock: KIFKEQ_clean_linker_1, # of connection points: 2
#     Edge 125, Type (0, 0), BuildingBlock: KIFKEQ_clean_linker_1, # of connection points: 2
#     Edge 126, Type (0, 0), BuildingBlock: KIFKEQ_clean_linker_1, # of connection points: 2
#     Edge 127, Type (0, 0), BuildingBlock: KIFKEQ_clean_linker_1, # of connection points: 2
#     Edge 128, Type (0, 0), BuildingBlock: KIFKEQ_clean_linker_1, # of connection points: 2
#     Edge 129, Type (0, 0), BuildingBlock: KIFKEQ_clean_linker_1, # of connection points: 2
#     Edge 130, Type (0, 0), BuildingBlock: KIFKEQ_clean_linker_1, # of connection points: 2
#     Edge 131, Type (0, 0), BuildingBlock: KIFKEQ_clean_linker_1, # of connection points: 2
#     Edge 132, Type (0, 0), BuildingBlock: KIFKEQ_clean_linker_1, # of connection points: 2
#     Edge 133, Type (0, 0), BuildingBlock: KIFKEQ_clean_linker_1, # of connection points: 2
#     Edge 134, Type (0, 0), BuildingBlock: KIFKEQ_clean_linker_1, # of connection points: 2
#     Edge 135, Type (0, 0), BuildingBlock: KIFKEQ_clean_linker_1, # of connection points: 2
#     Edge 136, Type (0, 0), BuildingBlock: KIFKEQ_clean_linker_1, # of connection points: 2
#     Edge 137, Type (0, 0), BuildingBlock: KIFKEQ_clean_linker_1, # of connection points: 2
#     Edge 138, Type (0, 0), BuildingBlock: KIFKEQ_clean_linker_1, # of connection points: 2
#     Edge 139, Type (0, 0), BuildingBlock: KIFKEQ_clean_linker_1, # of connection points: 2
#     Edge 140, Type (0, 0), BuildingBlock: KIFKEQ_clean_linker_1, # of connection points: 2
#     Edge 141, Type (0, 0), BuildingBlock: KIFKEQ_clean_linker_1, # of connection points: 2
#     Edge 142, Type (0, 0), BuildingBlock: KIFKEQ_clean_linker_1, # of connection points: 2
#     Edge 143, Type (0, 0), BuildingBlock: KIFKEQ_clean_linker_1, # of connection points: 2
# Relax obj value: 0.061
# Max RMSD: 0.095
# Mean RMSD: 0.094
data_MOF--net-rho--node1-ICAMEG_clean_sbu_1--edge1-KIFKEQ_clean_linker_1
_symmetry_space_group_name_H-M    P1
_symmetry_Int_Tables_number       1
_symmetry_cell_setting            triclinic
loop_
_symmetry_equiv_pos_as_xyz
'x, y, z'
_cell_length_a     78.586393
_cell_length_b     78.558022
_cell_length_c     78.593385
_cell_angle_alpha  90.017268
_cell_angle_beta   90.023636
_cell_angle_gamma 90.066079
loop_
_atom_site_label
_atom_site_type_symbol
_atom_site_fract_x
_atom_site_fract_y
_atom_site_fract_z
_atom_type_partial_charge
Co0 Co 0.10028 0.2717 0.40644 0.0
Co1 Co 0.09534 0.22822 0.40464 0.0
O2 O 0.10584 0.24941 0.3969 0.0
C3 C 0.09425 0.27806 0.36964 0.0
O4 O 0.08378 0.26502 0.36952 0.0
C5 C 0.13221 0.22073 0.40757 0.0
O6 O 0.13406 0.23555 0.41509 0.0
O7 O 0.10097 0.23352 0.42876 0.0
O8 O 0.09832 0.26196 0.4299 0.0
H9 H 0.05816 0.19223 0.44222 0.0
H10 H 0.13113 0.26787 0.38511 0.0
O11 O 0.10215 0.28211 0.38322 0.0
H12 H 0.15189 0.28776 0.44091 0.0
H13 H 0.1066 0.33524 0.41206 0.0
H14 H 0.07513 0.2845 0.43149 0.0
H15 H 0.1212 0.28356 0.43587 0.0
H16 H 0.11357 0.30681 0.40072 0.0
O17 O 0.11763 0.21607 0.40221 0.0
H18 H 0.07129 0.21894 0.43218 0.0
H19 H 0.09772 0.192 0.39353 0.0
H20 H 0.06784 0.31267 0.44327 0.0
H21 H 0.16193 0.27205 0.38956 0.0
H22 H 0.08363 0.33829 0.43355 0.0
H23 H 0.17249 0.28202 0.41765 0.0
O24 O 0.07549 0.26777 0.40282 0.0
H25 H 0.10792 0.22295 0.3422 0.0
H26 H 0.0639 0.21692 0.38651 0.0
H27 H 0.05653 0.21113 0.35655 0.0
H28 H 0.07864 0.21411 0.33417 0.0
H29 H 0.1147 0.22875 0.37232 0.0
H30 H 0.08501 0.16497 0.40324 0.0
H31 H 0.06501 0.16499 0.42771 0.0
O32 O 0.07277 0.23967 0.4073 0.0
C33 C 0.09997 0.24745 0.43702 0.0
C34 C 0.06681 0.19206 0.43151 0.0
C35 C 0.0819 0.17676 0.40965 0.0
N36 N 0.08513 0.20705 0.4122 0.0
C37 C 0.07424 0.20715 0.42574 0.0
C38 C 0.08908 0.1921 0.40423 0.0
C39 C 0.07067 0.17678 0.42337 0.0
C40 C 0.13562 0.27236 0.39732 0.0
N41 N 0.12438 0.27553 0.41018 0.0
C42 C 0.15308 0.27464 0.39978 0.0
C43 C 0.159 0.28021 0.41555 0.0
C44 C 0.14745 0.28342 0.42862 0.0
C45 C 0.13008 0.28097 0.4257 0.0
C46 C 0.09966 0.32417 0.41643 0.0
C47 C 0.08214 0.29558 0.42729 0.0
C48 C 0.10353 0.30804 0.41004 0.0
N49 N 0.09488 0.29399 0.41557 0.0
C50 C 0.07792 0.3115 0.43396 0.0
C51 C 0.08677 0.32587 0.42849 0.0
C52 C 0.06646 0.25449 0.40516 0.0
C53 C 0.09819 0.22156 0.35185 0.0
C54 C 0.07358 0.21829 0.37684 0.0
C55 C 0.06934 0.21496 0.3599 0.0
C56 C 0.08175 0.21662 0.34735 0.0
N57 N 0.08974 0.22309 0.38115 0.0
C58 C 0.10197 0.22477 0.36892 0.0
Co59 Co 0.77394 0.09578 0.40329 0.0
Co60 Co 0.73038 0.09985 0.40628 0.0
O61 O 0.75232 0.10582 0.39635 0.0
C62 C 0.78054 0.13261 0.40833 0.0
O63 O 0.76683 0.13324 0.41785 0.0
C64 C 0.7238 0.09329 0.36958 0.0
O65 O 0.73705 0.08312 0.36932 0.0
O66 O 0.73489 0.07502 0.4031 0.0
O67 O 0.76333 0.07278 0.40527 0.0
H68 H 0.69096 0.06739 0.44477 0.0
H69 H 0.77204 0.1164 0.37175 0.0
O70 O 0.78506 0.11867 0.40139 0.0
H71 H 0.79136 0.05958 0.35339 0.0
H72 H 0.83748 0.08823 0.4003 0.0
H73 H 0.78472 0.07089 0.42953 0.0
H74 H 0.7859 0.06554 0.38371 0.0
H75 H 0.80978 0.10023 0.39168 0.0
O76 O 0.71964 0.10101 0.38321 0.0
H77 H 0.71872 0.07521 0.43237 0.0
H78 H 0.6948 0.11177 0.40056 0.0
H79 H 0.81211 0.05846 0.43846 0.0
H80 H 0.77748 0.11102 0.34131 0.0
H81 H 0.83875 0.06714 0.4238 0.0
H82 H 0.78718 0.08243 0.33196 0.0
O83 O 0.76903 0.10006 0.4278 0.0
H84 H 0.72907 0.16115 0.38814 0.0
H85 H 0.71757 0.12112 0.43504 0.0
H86 H 0.71278 0.15181 0.43944 0.0
H87 H 0.71851 0.17207 0.41586 0.0
H88 H 0.73385 0.13035 0.38438 0.0
H89 H 0.66676 0.10424 0.41251 0.0
H90 H 0.66473 0.08195 0.43483 0.0
O91 O 0.74052 0.09882 0.42957 0.0
C92 C 0.74851 0.06623 0.40417 0.0
C93 C 0.69168 0.07716 0.43509 0.0
C94 C 0.6781 0.09782 0.41696 0.0
N95 N 0.70839 0.09402 0.41586 0.0
C96 C 0.70737 0.08168 0.42806 0.0
C97 C 0.69401 0.102 0.41022 0.0
C98 C 0.67697 0.08532 0.42949 0.0
C99 C 0.77639 0.10396 0.36779 0.0
N100 N 0.77875 0.09133 0.3795 0.0
C101 C 0.77939 0.10098 0.35053 0.0
C102 C 0.78481 0.08493 0.34529 0.0
C103 C 0.78715 0.0721 0.35731 0.0
C104 C 0.78401 0.07554 0.37446 0.0
C105 C 0.82595 0.08432 0.40675 0.0
C106 C 0.79624 0.07463 0.423 0.0
C107 C 0.81024 0.09109 0.40195 0.0
N108 N 0.79564 0.08613 0.40999 0.0
C109 C 0.81172 0.06759 0.42816 0.0
C110 C 0.82666 0.07248 0.41994 0.0
C111 C 0.75524 0.09981 0.43636 0.0
C112 C 0.72652 0.15245 0.39851 0.0
C113 C 0.7202 0.12985 0.42478 0.0
C114 C 0.7174 0.14722 0.42731 0.0
C115 C 0.72061 0.15857 0.41407 0.0
N116 N 0.726 0.12394 0.40949 0.0
C117 C 0.72915 0.135 0.39644 0.0
Co118 Co 0.90308 0.72891 0.40886 0.0
Co119 Co 0.90678 0.77241 0.40509 0.0
O120 O 0.8965 0.75064 0.39858 0.0
C121 C 0.90669 0.7217 0.37192 0.0
O122 O 0.91479 0.73624 0.37035 0.0
C123 C 0.86986 0.77969 0.40904 0.0
O124 O 0.86839 0.76533 0.41746 0.0
O125 O 0.90196 0.76805 0.42958 0.0
O126 O 0.90562 0.73981 0.43174 0.0
H127 H 0.9442 0.81076 0.44007 0.0
H128 H 0.87137 0.73097 0.38862 0.0
O129 O 0.90076 0.7172 0.38632 0.0
H130 H 0.85329 0.71316 0.446 0.0
H131 H 0.8988 0.6656 0.41794 0.0
H132 H 0.92964 0.71809 0.43338 0.0
H133 H 0.88364 0.71787 0.43959 0.0
H134 H 0.89051 0.69322 0.40555 0.0
O135 O 0.88419 0.78404 0.40281 0.0
H136 H 0.93137 0.78338 0.43155 0.0
H137 H 0.90337 0.80806 0.39248 0.0
H138 H 0.93827 0.69077 0.44619 0.0
H139 H 0.84087 0.72624 0.39444 0.0
H140 H 0.9228 0.66427 0.43848 0.0
H141 H 0.83166 0.71732 0.42332 0.0
O142 O 0.92756 0.73332 0.40396 0.0
H143 H 0.89215 0.77495 0.34293 0.0
H144 H 0.93745 0.78344 0.38555 0.0
H145 H 0.94376 0.78811 0.35517 0.0
H146 H 0.92101 0.78389 0.33363 0.0
H147 H 0.88643 0.77027 0.37344 0.0
H148 H 0.91578 0.83573 0.40067 0.0
H149 H 0.9364 0.83718 0.42459 0.0
O150 O 0.92969 0.76158 0.40758 0.0
C151 C 0.90366 0.75451 0.43835 0.0
C152 C 0.93526 0.81028 0.4296 0.0
C153 C 0.9193 0.8243 0.4075 0.0
N154 N 0.91675 0.7941 0.41145 0.0
C155 C 0.928 0.79481 0.42468 0.0
C156 C 0.91229 0.8086 0.40294 0.0
C157 C 0.93087 0.8251 0.42091 0.0
C158 C 0.86746 0.72694 0.40117 0.0
N159 N 0.87927 0.72462 0.41372 0.0
C160 C 0.85018 0.72434 0.40441 0.0
C161 C 0.84502 0.71936 0.42063 0.0
C162 C 0.85714 0.71703 0.43336 0.0
C163 C 0.87431 0.71976 0.42967 0.0
C164 C 0.90562 0.67706 0.42143 0.0
C165 C 0.92278 0.70663 0.43004 0.0
C166 C 0.901 0.69273 0.41443 0.0
N167 N 0.9095 0.70727 0.41884 0.0
C168 C 0.92776 0.69119 0.4373 0.0
C169 C 0.91908 0.67633 0.43296 0.0
C170 C 0.93632 0.74688 0.40564 0.0
C171 C 0.90215 0.77687 0.3522 0.0
C172 C 0.92749 0.78152 0.37625 0.0
C173 C 0.93113 0.78422 0.35907 0.0
C174 C 0.91836 0.78186 0.34699 0.0
N175 N 0.91156 0.77665 0.38126 0.0
C176 C 0.89897 0.77431 0.36949 0.0
Co177 Co 0.2296 0.90684 0.4037 0.0
Co178 Co 0.27308 0.90235 0.40837 0.0
O179 O 0.25135 0.89639 0.39791 0.0
C180 C 0.22254 0.87026 0.41049 0.0
O181 O 0.236 0.86988 0.42037 0.0
C182 C 0.28019 0.90866 0.37174 0.0
O183 O 0.26666 0.91844 0.37117 0.0
O184 O 0.26879 0.92725 0.40524 0.0
O185 O 0.24031 0.92986 0.40445 0.0
H186 H 0.31164 0.93458 0.44796 0.0
H187 H 0.23264 0.88438 0.37354 0.0
O188 O 0.21837 0.88394 0.40284 0.0
H189 H 0.21291 0.93959 0.35121 0.0
H190 H 0.16615 0.91429 0.39893 0.0
H191 H 0.21844 0.93361 0.42783 0.0
H192 H 0.21756 0.93557 0.38197 0.0
H193 H 0.19395 0.90166 0.39171 0.0
O194 O 0.28437 0.90125 0.38554 0.0
H195 H 0.28416 0.92683 0.43488 0.0
H196 H 0.30876 0.89038 0.40347 0.0
H197 H 0.19092 0.94669 0.43534 0.0
H198 H 0.22799 0.88778 0.34269 0.0
H199 H 0.16453 0.93703 0.42085 0.0
H200 H 0.2181 0.91556 0.33133 0.0
O201 O 0.23386 0.904 0.42863 0.0
H202 H 0.27474 0.84111 0.39 0.0
H203 H 0.28508 0.88096 0.43737 0.0
H204 H 0.28972 0.85023 0.44175 0.0
H205 H 0.28457 0.83007 0.41794 0.0
H206 H 0.2701 0.87193 0.38625 0.0
H207 H 0.33652 0.89783 0.41611 0.0
H208 H 0.33807 0.92004 0.43857 0.0
O209 O 0.26233 0.90333 0.43133 0.0
C210 C 0.25526 0.93623 0.40457 0.0
C211 C 0.31112 0.92485 0.43822 0.0
C212 C 0.32509 0.90424 0.42033 0.0
N213 N 0.29484 0.90808 0.41852 0.0
C214 C 0.29559 0.92037 0.43081 0.0
C215 C 0.30934 0.9001 0.41319 0.0
C216 C 0.32595 0.9167 0.43293 0.0
C217 C 0.22824 0.89648 0.36871 0.0
N218 N 0.22538 0.90977 0.37955 0.0
C219 C 0.22567 0.89834 0.35122 0.0
C220 C 0.22014 0.91394 0.34486 0.0
C221 C 0.21724 0.92743 0.356 0.0
C222 C 0.21996 0.9251 0.3734 0.0
C223 C 0.17756 0.91863 0.40532 0.0
C224 C 0.20702 0.92941 0.42139 0.0
C225 C 0.19333 0.9115 0.40131 0.0
N226 N 0.20781 0.91698 0.40926 0.0
C227 C 0.19147 0.93683 0.42573 0.0
C228 C 0.17666 0.93139 0.41761 0.0
C229 C 0.24737 0.90346 0.43765 0.0
C230 C 0.27704 0.84976 0.40047 0.0
C231 C 0.2827 0.87226 0.427 0.0
C232 C 0.28541 0.85488 0.42952 0.0
C233 C 0.28254 0.84358 0.41615 0.0
N234 N 0.27731 0.87824 0.41158 0.0
C235 C 0.27448 0.86723 0.39841 0.0
Co236 Co 0.09225 0.77383 0.59868 0.0
Co237 Co 0.09586 0.73034 0.59492 0.0
O238 O 0.10245 0.75207 0.60518 0.0
C239 C 0.12916 0.78075 0.59464 0.0
O240 O 0.13042 0.76629 0.58636 0.0
C241 C 0.09194 0.72317 0.63183 0.0
O242 O 0.08354 0.73754 0.63326 0.0
O243 O 0.07138 0.73476 0.59972 0.0
O244 O 0.06929 0.76305 0.59632 0.0
H245 H 0.06074 0.69205 0.55757 0.0
H246 H 0.11273 0.77165 0.63025 0.0
O247 O 0.1149 0.78535 0.60083 0.0
H248 H 0.05559 0.78975 0.64876 0.0
H249 H 0.0837 0.8372 0.60302 0.0
H250 H 0.06757 0.78483 0.57235 0.0
H251 H 0.06174 0.78501 0.61836 0.0
H252 H 0.09595 0.80949 0.61121 0.0
O253 O 0.09811 0.71874 0.61751 0.0
H254 H 0.06937 0.71942 0.57034 0.0
H255 H 0.10835 0.69466 0.59839 0.0
H256 H 0.05489 0.81224 0.56383 0.0
H257 H 0.10717 0.77639 0.66078 0.0
H258 H 0.06295 0.83868 0.57921 0.0
H259 H 0.07841 0.78547 0.6702 0.0
O260 O 0.09691 0.76944 0.57418 0.0
H261 H 0.15802 0.72766 0.60956 0.0
H262 H 0.11537 0.71924 0.56427 0.0
H263 H 0.14574 0.71449 0.55797 0.0
H264 H 0.1673 0.71868 0.58072 0.0
H265 H 0.12752 0.73242 0.61527 0.0
H266 H 0.10005 0.667 0.58605 0.0
H267 H 0.07614 0.66558 0.56542 0.0
O268 O 0.09341 0.74117 0.57202 0.0
C269 C 0.06265 0.74833 0.59816 0.0
C270 C 0.07122 0.6925 0.5665 0.0
C271 C 0.09327 0.67844 0.5825 0.0
N272 N 0.08943 0.70866 0.58498 0.0
C273 C 0.07619 0.70797 0.57373 0.0
C274 C 0.09789 0.69414 0.58947 0.0
C275 C 0.07985 0.67766 0.57092 0.0
C276 C 0.10023 0.77574 0.63425 0.0
N277 N 0.08761 0.77812 0.62254 0.0
C278 C 0.09714 0.77835 0.65155 0.0
C279 C 0.08099 0.78341 0.65683 0.0
C280 C 0.06818 0.78581 0.64481 0.0
C281 C 0.07173 0.78306 0.62761 0.0
C282 C 0.08005 0.82576 0.59624 0.0
C283 C 0.07105 0.79626 0.57917 0.0
C284 C 0.08698 0.81004 0.6008 0.0
N285 N 0.08237 0.79554 0.59235 0.0
C286 C 0.06387 0.81176 0.57426 0.0
C287 C 0.06841 0.82659 0.58289 0.0
C288 C 0.09527 0.75589 0.56541 0.0
C289 C 0.14874 0.72575 0.59956 0.0
C290 C 0.12468 0.72114 0.57423 0.0
C291 C 0.14185 0.71839 0.57059 0.0
C292 C 0.15394 0.72073 0.58336 0.0
N293 N 0.11968 0.72604 0.59015 0.0
C294 C 0.13146 0.72836 0.60273 0.0
Co295 Co 0.27188 0.09885 0.5965 0.0
Co296 Co 0.22836 0.09491 0.59843 0.0
O297 O 0.24978 0.10504 0.60605 0.0
C298 C 0.27841 0.09333 0.63339 0.0
O299 O 0.26529 0.08296 0.63378 0.0
C300 C 0.2216 0.13191 0.59529 0.0
O301 O 0.23635 0.13341 0.58759 0.0
O302 O 0.23369 0.10031 0.57428 0.0
O303 O 0.262 0.09671 0.57311 0.0
H304 H 0.19146 0.05837 0.56105 0.0
H305 H 0.26877 0.13016 0.61731 0.0
O306 O 0.28244 0.10094 0.61964 0.0
H307 H 0.2889 0.14952 0.56112 0.0
H308 H 0.33549 0.10371 0.59052 0.0
H309 H 0.284 0.07301 0.5718 0.0
H310 H 0.28407 0.119 0.5667 0.0
H311 H 0.30728 0.11147 0.60188 0.0
O312 O 0.21672 0.11745 0.6008 0.0
H313 H 0.21847 0.07094 0.57099 0.0
H314 H 0.19225 0.09811 0.60964 0.0
H315 H 0.31193 0.06493 0.56001 0.0
H316 H 0.2736 0.1608 0.61233 0.0
H317 H 0.33792 0.08034 0.56937 0.0
H318 H 0.28369 0.17065 0.58405 0.0
O319 O 0.2674 0.07421 0.60058 0.0
H320 H 0.2236 0.10792 0.66082 0.0
H321 H 0.21644 0.06381 0.61672 0.0
H322 H 0.21059 0.05672 0.64672 0.0
H323 H 0.21413 0.07887 0.66901 0.0
H324 H 0.22944 0.11442 0.63067 0.0
H325 H 0.16493 0.08596 0.60002 0.0
H326 H 0.16443 0.06587 0.5756 0.0
O327 O 0.2393 0.07209 0.59584 0.0
C328 C 0.24754 0.09879 0.56599 0.0
C329 C 0.19151 0.06706 0.57174 0.0
C330 C 0.17662 0.08256 0.5936 0.0
N331 N 0.20695 0.08512 0.59097 0.0
C332 C 0.20678 0.07418 0.57746 0.0
C333 C 0.19212 0.08943 0.59896 0.0
C334 C 0.17635 0.07129 0.5799 0.0
C335 C 0.27332 0.13434 0.60502 0.0
N336 N 0.2762 0.1228 0.59234 0.0
C337 C 0.27596 0.15171 0.60226 0.0
C338 C 0.2816 0.15723 0.58638 0.0
C339 C 0.28451 0.14538 0.5735 0.0
C340 C 0.28171 0.12812 0.57672 0.0
C341 C 0.32425 0.09693 0.58631 0.0
C342 C 0.29524 0.07985 0.57585 0.0
C343 C 0.30825 0.10125 0.59272 0.0
N344 N 0.29399 0.09281 0.58738 0.0
C345 C 0.31103 0.07518 0.56917 0.0
C346 C 0.32561 0.08382 0.57444 0.0
C347 C 0.25393 0.06546 0.59821 0.0
C348 C 0.22196 0.09817 0.65122 0.0
C349 C 0.21805 0.07351 0.62635 0.0
C350 C 0.21469 0.06943 0.64331 0.0
C351 C 0.21667 0.08187 0.65581 0.0
N352 N 0.22319 0.08954 0.62195 0.0
C353 C 0.22519 0.1018 0.63413 0.0
Co354 Co 0.90758 0.22986 0.59896 0.0
Co355 Co 0.90477 0.27327 0.5929 0.0
O356 O 0.89742 0.25207 0.60365 0.0
C357 C 0.87106 0.2228 0.59157 0.0
O358 O 0.87109 0.2356 0.58082 0.0
C359 C 0.9076 0.28111 0.62967 0.0
O360 O 0.91513 0.26632 0.63162 0.0
O361 O 0.92905 0.26859 0.59837 0.0
O362 O 0.93093 0.24006 0.59819 0.0
H363 H 0.94154 0.30959 0.55521 0.0
H364 H 0.88464 0.23428 0.62855 0.0
O365 O 0.88447 0.21906 0.59988 0.0
H366 H 0.93921 0.21486 0.65265 0.0
H367 H 0.91378 0.16651 0.60641 0.0
H368 H 0.93443 0.21722 0.5757 0.0
H369 H 0.93578 0.21835 0.62166 0.0
H370 H 0.90157 0.19482 0.6123 0.0
O371 O 0.90227 0.28565 0.61505 0.0
H372 H 0.93205 0.28284 0.56864 0.0
H373 H 0.89295 0.30928 0.5949 0.0
H374 H 0.94711 0.18918 0.56952 0.0
H375 H 0.88744 0.23079 0.65962 0.0
H376 H 0.93677 0.16358 0.58493 0.0
H377 H 0.9149 0.22107 0.67186 0.0
O378 O 0.90517 0.23324 0.57385 0.0
H379 H 0.84232 0.27752 0.6058 0.0
H380 H 0.88625 0.2837 0.56143 0.0
H381 H 0.85615 0.28881 0.55417 0.0
H382 H 0.83395 0.28575 0.57646 0.0
H383 H 0.87257 0.27241 0.61247 0.0
H384 H 0.9021 0.33635 0.58188 0.0
H385 H 0.92652 0.3366 0.56181 0.0
O386 O 0.90754 0.26156 0.57056 0.0
C387 C 0.93766 0.25485 0.59886 0.0
C388 C 0.93084 0.30963 0.56388 0.0
C389 C 0.90872 0.32466 0.57886 0.0
N390 N 0.91187 0.29447 0.58241 0.0
C391 C 0.92538 0.29452 0.57148 0.0
C392 C 0.90362 0.3093 0.58622 0.0
C393 C 0.92242 0.32479 0.5676 0.0
C394 C 0.89659 0.22992 0.63377 0.0
N395 N 0.91004 0.22653 0.6233 0.0
C396 C 0.89812 0.22802 0.65138 0.0
C397 C 0.91354 0.22259 0.65824 0.0
C398 C 0.92718 0.21912 0.64747 0.0
C399 C 0.9252 0.22119 0.62994 0.0
C400 C 0.91841 0.17758 0.59963 0.0
C401 C 0.92994 0.20615 0.58253 0.0
C402 C 0.91152 0.19363 0.60288 0.0
N403 N 0.91737 0.20767 0.59443 0.0
C404 C 0.93714 0.1903 0.57894 0.0
C405 C 0.93132 0.17594 0.58758 0.0
C406 C 0.90665 0.2465 0.56457 0.0
C407 C 0.85188 0.27894 0.596 0.0
C408 C 0.87666 0.28231 0.57119 0.0
C409 C 0.85964 0.28525 0.56701 0.0
C410 C 0.84719 0.28354 0.57952 0.0
N411 N 0.88116 0.27786 0.58739 0.0
C412 C 0.86903 0.27612 0.59971 0.0
Co413 Co 0.72817 0.90346 0.59374 0.0
Co414 Co 0.77172 0.9076 0.59908 0.0
O415 O 0.74973 0.89721 0.60457 0.0
C416 C 0.7209 0.90909 0.63047 0.0
O417 O 0.73569 0.91674 0.63188 0.0
C418 C 0.77829 0.87076 0.59311 0.0
O419 O 0.7637 0.8697 0.58504 0.0
O420 O 0.76776 0.90487 0.57408 0.0
O421 O 0.73935 0.90417 0.57102 0.0
H422 H 0.8108 0.9475 0.56794 0.0
H423 H 0.73009 0.87318 0.6161 0.0
O424 O 0.71626 0.90281 0.61626 0.0
H425 H 0.71155 0.85133 0.56025 0.0
H426 H 0.66488 0.89958 0.58444 0.0
H427 H 0.71803 0.92812 0.56708 0.0
H428 H 0.71653 0.88202 0.56457 0.0
H429 H 0.69223 0.89179 0.5977 0.0
O430 O 0.78302 0.88482 0.59968 0.0
H431 H 0.7832 0.93437 0.57511 0.0
H432 H 0.80722 0.9026 0.61163 0.0
H433 H 0.69097 0.9362 0.55337 0.0
H434 H 0.7251 0.84239 0.61241 0.0
H435 H 0.66414 0.92188 0.56205 0.0
H436 H 0.71581 0.83128 0.58431 0.0
O437 O 0.73272 0.9283 0.59699 0.0
H438 H 0.77252 0.88785 0.65985 0.0
H439 H 0.78367 0.93607 0.6213 0.0
H440 H 0.78789 0.93974 0.65217 0.0
H441 H 0.78233 0.9155 0.67169 0.0
H442 H 0.76829 0.88482 0.6289 0.0
H443 H 0.83511 0.91527 0.60474 0.0
H444 H 0.83701 0.93795 0.5828 0.0
O445 O 0.76117 0.93061 0.59848 0.0
C446 C 0.75438 0.90426 0.56489 0.0
C447 C 0.81013 0.93766 0.57755 0.0
C448 C 0.82378 0.91955 0.59819 0.0
N449 N 0.79359 0.9178 0.59383 0.0
C450 C 0.79453 0.93021 0.5817 0.0
C451 C 0.80796 0.91239 0.602 0.0
C452 C 0.82484 0.93228 0.58588 0.0
C453 C 0.72594 0.86845 0.60386 0.0
N454 N 0.72361 0.87939 0.59055 0.0
C455 C 0.72318 0.851 0.60184 0.0
C456 C 0.71799 0.84477 0.58606 0.0
C457 C 0.71561 0.85601 0.57256 0.0
C458 C 0.71852 0.87338 0.57505 0.0
C459 C 0.67648 0.90589 0.58053 0.0
C460 C 0.70642 0.92177 0.57086 0.0
C461 C 0.692 0.90157 0.58803 0.0
N462 N 0.70672 0.90944 0.5831 0.0
C463 C 0.69113 0.92643 0.56308 0.0
C464 C 0.67608 0.9184 0.56797 0.0
C465 C 0.74633 0.93712 0.59811 0.0
C466 C 0.775 0.89851 0.65149 0.0
C467 C 0.7811 0.92552 0.62971 0.0
C468 C 0.78359 0.92764 0.64718 0.0
C469 C 0.78048 0.91403 0.65812 0.0
N470 N 0.7757 0.91027 0.6233 0.0
C471 C 0.77267 0.89685 0.63394 0.0
Co472 Co 0.40734 0.09869 0.27203 0.0
Co473 Co 0.40417 0.09459 0.22847 0.0
O474 O 0.39729 0.10458 0.25013 0.0
C475 C 0.37071 0.09166 0.27874 0.0
O476 O 0.37055 0.08143 0.26553 0.0
C477 C 0.40907 0.13147 0.22206 0.0
O478 O 0.41855 0.13207 0.23581 0.0
O479 O 0.4287 0.0989 0.23331 0.0
O480 O 0.43063 0.09787 0.26181 0.0
H481 H 0.4392 0.05735 0.1901 0.0
H482 H 0.38515 0.12898 0.26876 0.0
O483 O 0.38426 0.09962 0.28283 0.0
H484 H 0.44016 0.15095 0.28956 0.0
H485 H 0.41371 0.10314 0.33563 0.0
H486 H 0.43368 0.0743 0.2836 0.0
H487 H 0.43601 0.12022 0.2847 0.0
H488 H 0.40162 0.11055 0.30763 0.0
O489 O 0.4022 0.1175 0.21743 0.0
H490 H 0.43036 0.06973 0.21755 0.0
H491 H 0.39243 0.09908 0.19268 0.0
H492 H 0.44623 0.0666 0.31133 0.0
H493 H 0.38867 0.15981 0.27361 0.0
H494 H 0.43623 0.08107 0.33759 0.0
H495 H 0.41635 0.17098 0.28403 0.0
O496 O 0.40435 0.07384 0.26749 0.0
H497 H 0.34215 0.10972 0.22517 0.0
H498 H 0.38457 0.06433 0.2165 0.0
H499 H 0.35423 0.05832 0.21113 0.0
H500 H 0.33279 0.08112 0.21543 0.0
H501 H 0.37261 0.11515 0.23052 0.0
H502 H 0.40095 0.08713 0.16493 0.0
H503 H 0.42445 0.06605 0.16354 0.0
O504 O 0.4062 0.07157 0.23903 0.0
C505 C 0.43734 0.09877 0.24705 0.0
C506 C 0.4289 0.06647 0.19055 0.0
C507 C 0.40744 0.0832 0.17642 0.0
N508 N 0.41079 0.08497 0.20673 0.0
C509 C 0.4238 0.07348 0.20606 0.0
C510 C 0.4027 0.08995 0.19217 0.0
C511 C 0.42063 0.07138 0.17565 0.0
C512 C 0.3972 0.13374 0.2734 0.0
N513 N 0.41036 0.12281 0.27645 0.0
C514 C 0.39913 0.15121 0.27608 0.0
C515 C 0.41467 0.15747 0.28191 0.0
C516 C 0.42804 0.14624 0.285 0.0
C517 C 0.42564 0.12885 0.28216 0.0
C518 C 0.41819 0.09677 0.32428 0.0
C519 C 0.42934 0.08072 0.29497 0.0
C520 C 0.41137 0.10088 0.30839 0.0
N521 N 0.41703 0.09295 0.29399 0.0
C522 C 0.43646 0.07627 0.31063 0.0
C523 C 0.43083 0.08439 0.32537 0.0
C524 C 0.40528 0.06503 0.25386 0.0
C525 C 0.35137 0.09969 0.2232 0.0
C526 C 0.37531 0.07431 0.21844 0.0
C527 C 0.35815 0.07083 0.21535 0.0
C528 C 0.34613 0.08364 0.21776 0.0
N529 N 0.38036 0.0901 0.22373 0.0
C530 C 0.36864 0.10271 0.22616 0.0
Co531 Co 0.90726 0.40336 0.22905 0.0
Co532 Co 0.90276 0.40765 0.27257 0.0
O533 O 0.89691 0.39726 0.25078 0.0
C534 C 0.87058 0.40967 0.22216 0.0
O535 O 0.87012 0.41944 0.23571 0.0
C536 C 0.90973 0.37107 0.27947 0.0
O537 O 0.91952 0.37076 0.26594 0.0
O538 O 0.92768 0.40491 0.2682 0.0
O539 O 0.93029 0.40432 0.23972 0.0
H540 H 0.93448 0.44744 0.31135 0.0
H541 H 0.88517 0.37288 0.23193 0.0
O542 O 0.88434 0.40227 0.21786 0.0
H543 H 0.9406 0.35139 0.21192 0.0
H544 H 0.91469 0.39914 0.16556 0.0
H545 H 0.93372 0.42791 0.21801 0.0
H546 H 0.93621 0.38208 0.21678 0.0
H547 H 0.90217 0.39156 0.19332 0.0
O548 O 0.90203 0.3847 0.2837 0.0
H549 H 0.92688 0.43444 0.2838 0.0
H550 H 0.89092 0.4023 0.30823 0.0
H551 H 0.94668 0.43578 0.19053 0.0
H552 H 0.88894 0.34209 0.22707 0.0
H553 H 0.93717 0.42135 0.16405 0.0
H554 H 0.91683 0.33116 0.21704 0.0
O555 O 0.90414 0.42824 0.2335 0.0
H556 H 0.84181 0.38835 0.27426 0.0
H557 H 0.88099 0.43626 0.28479 0.0
H558 H 0.85023 0.44015 0.28953 0.0
H559 H 0.8304 0.41606 0.28429 0.0
H560 H 0.87267 0.38508 0.26953 0.0
H561 H 0.89822 0.41485 0.33607 0.0
H562 H 0.9201 0.43764 0.33774 0.0
O563 O 0.90341 0.43072 0.26198 0.0
C564 C 0.93665 0.40442 0.25466 0.0
C565 C 0.92489 0.43756 0.31078 0.0
C566 C 0.90456 0.41925 0.32466 0.0
N567 N 0.90838 0.41773 0.29439 0.0
C568 C 0.9205 0.43019 0.29521 0.0
C569 C 0.9005 0.41217 0.30886 0.0
C570 C 0.91683 0.43204 0.32558 0.0
C571 C 0.89732 0.36823 0.22747 0.0
N572 N 0.91047 0.37927 0.22465 0.0
C573 C 0.89939 0.35078 0.22478 0.0
C574 C 0.91505 0.34465 0.21917 0.0
C575 C 0.92839 0.35599 0.21631 0.0
C576 C 0.92586 0.37335 0.21915 0.0
C577 C 0.91896 0.4055 0.17701 0.0
C578 C 0.92959 0.4215 0.20655 0.0
C579 C 0.91189 0.40129 0.19276 0.0
N580 N 0.9173 0.40921 0.20728 0.0
C581 C 0.93694 0.42605 0.19103 0.0
C582 C 0.93158 0.41796 0.17617 0.0
C583 C 0.90349 0.43716 0.24708 0.0
C584 C 0.85032 0.39893 0.27661 0.0
C585 C 0.87244 0.42577 0.28238 0.0
C586 C 0.85504 0.42802 0.28515 0.0
C587 C 0.84393 0.41449 0.28221 0.0
N588 N 0.87862 0.41047 0.27688 0.0
C589 C 0.86781 0.39715 0.27399 0.0
Co590 Co 0.59823 0.9066 0.22896 0.0
Co591 Co 0.59466 0.90208 0.27244 0.0
O592 O 0.60495 0.89639 0.25059 0.0
C593 C 0.59368 0.86981 0.22199 0.0
O594 O 0.58409 0.86897 0.23565 0.0
C595 C 0.63126 0.90873 0.2796 0.0
O596 O 0.63166 0.9189 0.26635 0.0
O597 O 0.59782 0.92697 0.26822 0.0
O598 O 0.59589 0.92945 0.23978 0.0
H599 H 0.55542 0.9339 0.31158 0.0
H600 H 0.62993 0.88627 0.23111 0.0
O601 O 0.6005 0.88386 0.21763 0.0
H602 H 0.64807 0.94349 0.21271 0.0
H603 H 0.60214 0.91494 0.16557 0.0
H604 H 0.57192 0.93134 0.21805 0.0
H605 H 0.61772 0.93717 0.21763 0.0
H606 H 0.61044 0.90269 0.19326 0.0
O607 O 0.6176 0.90094 0.28355 0.0
H608 H 0.5683 0.92646 0.28394 0.0
H609 H 0.59987 0.88979 0.30797 0.0
H610 H 0.56329 0.944 0.19066 0.0
H611 H 0.66041 0.89201 0.22619 0.0
H612 H 0.57845 0.9358 0.16417 0.0
H613 H 0.66964 0.92081 0.21696 0.0
O614 O 0.57368 0.90203 0.23346 0.0
H615 H 0.61308 0.84088 0.27351 0.0
H616 H 0.56576 0.88052 0.28449 0.0
H617 H 0.56144 0.84975 0.28892 0.0
H618 H 0.58523 0.82969 0.28344 0.0
H619 H 0.61678 0.87174 0.26909 0.0
H620 H 0.58746 0.89694 0.33589 0.0
H621 H 0.56501 0.91909 0.3378 0.0
O622 O 0.57151 0.90311 0.26194 0.0
C623 C 0.59681 0.93588 0.25467 0.0
C624 C 0.56516 0.92419 0.3109 0.0
C625 C 0.58315 0.90346 0.32455 0.0
N626 N 0.58472 0.90762 0.29433 0.0
C627 C 0.57246 0.91989 0.29529 0.0
C628 C 0.59017 0.8995 0.30871 0.0
C629 C 0.57055 0.91589 0.32561 0.0
C630 C 0.63385 0.89879 0.22696 0.0
N631 N 0.62206 0.91133 0.22457 0.0
C632 C 0.65112 0.90198 0.22425 0.0
C633 C 0.6563 0.91815 0.21909 0.0
C634 C 0.6442 0.93089 0.21671 0.0
C635 C 0.62704 0.92724 0.21955 0.0
C636 C 0.59546 0.91865 0.17703 0.0
C637 C 0.57866 0.92781 0.20659 0.0
C638 C 0.60009 0.91174 0.19274 0.0
N639 N 0.59178 0.91643 0.20727 0.0
C640 C 0.57368 0.93497 0.19111 0.0
C641 C 0.58218 0.93036 0.17625 0.0
C642 C 0.56492 0.90218 0.24711 0.0
C643 C 0.60262 0.84949 0.27596 0.0
C644 C 0.57613 0.87187 0.28198 0.0
C645 C 0.57363 0.85446 0.28457 0.0
C646 C 0.58699 0.84322 0.28151 0.0
N647 N 0.59149 0.87793 0.27653 0.0
C648 C 0.60465 0.86698 0.27352 0.0
Co649 Co 0.0981 0.59658 0.27271 0.0
Co650 Co 0.09518 0.59932 0.22917 0.0
O651 O 0.10496 0.60623 0.25091 0.0
C652 C 0.09314 0.6335 0.27897 0.0
O653 O 0.08338 0.63399 0.26542 0.0
C654 C 0.13204 0.59415 0.2228 0.0
O655 O 0.13254 0.58443 0.23638 0.0
O656 O 0.09952 0.57486 0.23422 0.0
O657 O 0.09589 0.57333 0.26253 0.0
H658 H 0.05843 0.56399 0.1905 0.0
H659 H 0.12979 0.61694 0.27035 0.0
O660 O 0.10024 0.61962 0.28345 0.0
H661 H 0.1478 0.56035 0.29061 0.0
H662 H 0.10133 0.59002 0.33635 0.0
H663 H 0.07168 0.57208 0.28401 0.0
H664 H 0.1175 0.56641 0.28517 0.0
H665 H 0.10991 0.60151 0.30843 0.0
O666 O 0.11818 0.6013 0.21834 0.0
H667 H 0.07051 0.57296 0.21806 0.0
H668 H 0.10004 0.61095 0.19339 0.0
H669 H 0.06277 0.56015 0.31164 0.0
H670 H 0.16022 0.61146 0.27578 0.0
H671 H 0.07765 0.56912 0.33806 0.0
H672 H 0.16939 0.58298 0.28595 0.0
O673 O 0.07366 0.601 0.26773 0.0
H674 H 0.11035 0.66137 0.22583 0.0
H675 H 0.06507 0.61881 0.21675 0.0
H676 H 0.05913 0.64913 0.21121 0.0
H677 H 0.08188 0.67064 0.21573 0.0
H678 H 0.1157 0.63093 0.23135 0.0
H679 H 0.08839 0.60229 0.16555 0.0
H680 H 0.06737 0.57869 0.16399 0.0
O681 O 0.07198 0.59726 0.23944 0.0
C682 C 0.09781 0.5664 0.24797 0.0
C683 C 0.06753 0.57433 0.19102 0.0
C684 C 0.08436 0.59581 0.17701 0.0
N685 N 0.08582 0.59257 0.20735 0.0
C686 C 0.07437 0.5795 0.20659 0.0
C687 C 0.09093 0.60064 0.19281 0.0
C688 C 0.07256 0.58257 0.17615 0.0
C689 C 0.13368 0.60456 0.27491 0.0
N690 N 0.12188 0.59205 0.27753 0.0
C691 C 0.15093 0.60151 0.2779 0.0
C692 C 0.15607 0.58552 0.28359 0.0
C693 C 0.14396 0.57281 0.2862 0.0
C694 C 0.12682 0.57631 0.28306 0.0
C695 C 0.09478 0.58597 0.32492 0.0
C696 C 0.07829 0.57595 0.29544 0.0
C697 C 0.09957 0.59246 0.30908 0.0
N698 N 0.09141 0.58734 0.29459 0.0
C699 C 0.07315 0.56919 0.31105 0.0
C700 C 0.08149 0.57425 0.32587 0.0
C701 C 0.06513 0.59927 0.25403 0.0
C702 C 0.10035 0.65211 0.22378 0.0
C703 C 0.07502 0.6281 0.21879 0.0
C704 C 0.0716 0.64525 0.2156 0.0
C705 C 0.08437 0.65731 0.21812 0.0
N706 N 0.09075 0.6231 0.22429 0.0
C707 C 0.10332 0.63486 0.22682 0.0
Co708 Co 0.40703 0.90424 0.72969 0.0
Co709 Co 0.40235 0.90799 0.77322 0.0
O710 O 0.39671 0.89745 0.75135 0.0
C711 C 0.37009 0.90751 0.72247 0.0
O712 O 0.36842 0.91542 0.73709 0.0
C713 C 0.40823 0.8712 0.78028 0.0
O714 O 0.41645 0.87006 0.76579 0.0
O715 O 0.42724 0.9049 0.76911 0.0
O716 O 0.42974 0.90688 0.7407 0.0
H717 H 0.43415 0.94784 0.81187 0.0
H718 H 0.38691 0.87239 0.73153 0.0
O719 O 0.38456 0.90183 0.7179 0.0
H720 H 0.44451 0.85467 0.7141 0.0
H721 H 0.41642 0.90014 0.66644 0.0
H722 H 0.43144 0.931 0.719 0.0
H723 H 0.43792 0.88499 0.71884 0.0
H724 H 0.40396 0.89171 0.69398 0.0
O725 O 0.40154 0.88527 0.78476 0.0
H726 H 0.42671 0.93456 0.78441 0.0
H727 H 0.38989 0.90339 0.80881 0.0
H728 H 0.44432 0.93977 0.69177 0.0
H729 H 0.3929 0.84193 0.72678 0.0
H730 H 0.43682 0.92429 0.66523 0.0
H731 H 0.4219 0.83291 0.71804 0.0
O732 O 0.40209 0.92873 0.73405 0.0
H733 H 0.34136 0.88887 0.77456 0.0
H734 H 0.38052 0.93683 0.78493 0.0
H735 H 0.34972 0.94085 0.78927 0.0
H736 H 0.3299 0.91674 0.7841 0.0
H737 H 0.37226 0.88549 0.77021 0.0
H738 H 0.39703 0.91621 0.83656 0.0
H739 H 0.41926 0.93866 0.8382 0.0
O740 O 0.4032 0.93106 0.7625 0.0
C741 C 0.43615 0.90601 0.75558 0.0
C742 C 0.42441 0.9381 0.81132 0.0
C743 C 0.4036 0.92033 0.82517 0.0
N744 N 0.40782 0.91828 0.79499 0.0
C745 C 0.42012 0.93057 0.7958 0.0
C746 C 0.39964 0.91308 0.80943 0.0
C747 C 0.41606 0.93293 0.82608 0.0
C748 C 0.39951 0.86856 0.72758 0.0
N749 N 0.41202 0.88045 0.72538 0.0
C750 C 0.40285 0.8513 0.72497 0.0
C751 C 0.41913 0.84624 0.72009 0.0
C752 C 0.43182 0.85845 0.71789 0.0
C753 C 0.42802 0.8756 0.72064 0.0
C754 C 0.41982 0.90696 0.67792 0.0
C755 C 0.42821 0.92413 0.70753 0.0
C756 C 0.41278 0.90227 0.69355 0.0
N757 N 0.41708 0.91077 0.70811 0.0
C758 C 0.4355 0.92919 0.69214 0.0
C759 C 0.43127 0.92051 0.67725 0.0
C760 C 0.40217 0.93756 0.74766 0.0
C761 C 0.34986 0.89947 0.77687 0.0
C762 C 0.37198 0.92633 0.78253 0.0
C763 C 0.35455 0.92865 0.78509 0.0
C764 C 0.34344 0.91512 0.7822 0.0
N765 N 0.37818 0.91096 0.77729 0.0
C766 C 0.36737 0.89761 0.77448 0.0
Co767 Co 0.09522 0.40469 0.77488 0.0
Co768 Co 0.09969 0.40588 0.73137 0.0
O769 O 0.10549 0.39663 0.75372 0.0
C770 C 0.13218 0.40762 0.78199 0.0
O771 O 0.1339 0.41501 0.7671 0.0
C772 C 0.09363 0.36896 0.7254 0.0
O773 O 0.08307 0.36893 0.73836 0.0
O774 O 0.07496 0.40222 0.73561 0.0
O775 O 0.07252 0.40719 0.76363 0.0
H776 H 0.06679 0.44215 0.69027 0.0
H777 H 0.11446 0.37229 0.77457 0.0
O778 O 0.11762 0.40237 0.78684 0.0
H779 H 0.05649 0.35692 0.79305 0.0
H780 H 0.0856 0.40427 0.83822 0.0
H781 H 0.07133 0.43241 0.78398 0.0
H782 H 0.06387 0.38679 0.78678 0.0
H783 H 0.09797 0.39411 0.81122 0.0
O784 O 0.10152 0.38252 0.72127 0.0
H785 H 0.07441 0.43076 0.71851 0.0
H786 H 0.11256 0.39966 0.69623 0.0
H787 H 0.05854 0.4429 0.81065 0.0
H788 H 0.10767 0.34227 0.78085 0.0
H789 H 0.06567 0.4288 0.83803 0.0
H790 H 0.07848 0.33443 0.79013 0.0
O791 O 0.10086 0.42872 0.76919 0.0
H792 H 0.16136 0.38913 0.73071 0.0
H793 H 0.12043 0.43517 0.71888 0.0
H794 H 0.15107 0.44022 0.71432 0.0
H795 H 0.17177 0.41709 0.72022 0.0
H796 H 0.13062 0.38468 0.73525 0.0
H797 H 0.10526 0.41061 0.66773 0.0
H798 H 0.08227 0.43207 0.66463 0.0
O799 O 0.09784 0.42948 0.7408 0.0
C800 C 0.06606 0.40472 0.74894 0.0
C801 C 0.07687 0.43285 0.69146 0.0
C802 C 0.09845 0.41514 0.67881 0.0
N803 N 0.09402 0.41469 0.70903 0.0
C804 C 0.08128 0.4264 0.70742 0.0
C805 C 0.10251 0.40896 0.69497 0.0
C806 C 0.08555 0.42718 0.67708 0.0
C807 C 0.10178 0.36898 0.77874 0.0
N808 N 0.08961 0.38128 0.7804 0.0
C809 C 0.09799 0.35196 0.78222 0.0
C810 C 0.0816 0.34757 0.7874 0.0
C811 C 0.06925 0.36018 0.78904 0.0
C812 C 0.0735 0.37707 0.78543 0.0
C813 C 0.08237 0.4105 0.82637 0.0
C814 C 0.0744 0.42615 0.79583 0.0
C815 C 0.08936 0.40483 0.81105 0.0
N816 N 0.08527 0.41258 0.79603 0.0
C817 C 0.06716 0.43217 0.8109 0.0
C818 C 0.07118 0.42426 0.82625 0.0
C819 C 0.09976 0.4368 0.75517 0.0
C820 C 0.15247 0.39929 0.72805 0.0
C821 C 0.12936 0.42506 0.72153 0.0
C822 C 0.14669 0.42798 0.71888 0.0
C823 C 0.1583 0.41499 0.72219 0.0
N824 N 0.12374 0.40962 0.72727 0.0
C825 C 0.13504 0.39682 0.73053 0.0
Co826 Co 0.60007 0.09614 0.77317 0.0
Co827 Co 0.59574 0.09933 0.72964 0.0
O828 O 0.60583 0.10624 0.75125 0.0
C829 C 0.59309 0.13277 0.7798 0.0
O830 O 0.58292 0.13284 0.76654 0.0
C831 C 0.63256 0.09474 0.72275 0.0
O832 O 0.63338 0.08516 0.73642 0.0
O833 O 0.60028 0.07483 0.73439 0.0
O834 O 0.59925 0.07284 0.7629 0.0
H835 H 0.55861 0.06393 0.69138 0.0
H836 H 0.63029 0.11848 0.76979 0.0
O837 O 0.60099 0.11924 0.78398 0.0
H838 H 0.65246 0.06353 0.79041 0.0
H839 H 0.60485 0.08975 0.83674 0.0
H840 H 0.57584 0.06964 0.78482 0.0
H841 H 0.62171 0.06755 0.78568 0.0
H842 H 0.61209 0.1019 0.80872 0.0
O843 O 0.61852 0.10158 0.71839 0.0
H844 H 0.57111 0.07282 0.71878 0.0
H845 H 0.59979 0.11129 0.69388 0.0
H846 H 0.56832 0.05703 0.81256 0.0
H847 H 0.66114 0.11509 0.7745 0.0
H848 H 0.58286 0.0671 0.83877 0.0
H849 H 0.67241 0.08744 0.78484 0.0
O850 O 0.57519 0.09901 0.76879 0.0
H851 H 0.61032 0.16153 0.72648 0.0
H852 H 0.56523 0.11866 0.718 0.0
H853 H 0.55892 0.14896 0.71282 0.0
H854 H 0.58158 0.17064 0.71704 0.0
H855 H 0.61604 0.1311 0.73164 0.0
H856 H 0.58771 0.10273 0.66618 0.0
H857 H 0.56691 0.07893 0.66483 0.0
O858 O 0.57284 0.09698 0.74035 0.0
C859 C 0.60016 0.06616 0.74811 0.0
C860 C 0.56761 0.07436 0.69182 0.0
C861 C 0.58396 0.09612 0.67767 0.0
N862 N 0.58602 0.09267 0.70795 0.0
C863 C 0.57468 0.07949 0.7073 0.0
C864 C 0.59077 0.1009 0.69338 0.0
C865 C 0.57228 0.08277 0.67692 0.0
C866 C 0.63509 0.10644 0.77439 0.0
N867 N 0.62421 0.09322 0.77745 0.0
C868 C 0.65258 0.10458 0.77699 0.0
C869 C 0.65889 0.08906 0.78277 0.0
C870 C 0.64771 0.07564 0.78589 0.0
C871 C 0.63031 0.07796 0.78312 0.0
C872 C 0.59844 0.08524 0.82541 0.0
C873 C 0.5823 0.07401 0.79616 0.0
C874 C 0.60245 0.0921 0.80951 0.0
N875 N 0.59448 0.08639 0.79514 0.0
C876 C 0.57795 0.06686 0.81184 0.0
C877 C 0.58611 0.07253 0.82654 0.0
C878 C 0.56635 0.09787 0.75521 0.0
C879 C 0.60036 0.15221 0.72456 0.0
C880 C 0.57514 0.12802 0.7199 0.0
C881 C 0.5715 0.14515 0.71692 0.0
C882 C 0.58422 0.15731 0.71928 0.0
N883 N 0.59102 0.12311 0.72503 0.0
C884 C 0.60354 0.13495 0.7274 0.0
Co885 Co 0.90327 0.59411 0.72955 0.0
Co886 Co 0.90875 0.59889 0.773 0.0
O887 O 0.89777 0.60474 0.75141 0.0
C888 C 0.9089 0.63091 0.72255 0.0
O889 O 0.91695 0.63216 0.73714 0.0
C890 C 0.87209 0.59311 0.7805 0.0
O891 O 0.87062 0.58535 0.76577 0.0
O892 O 0.90569 0.57396 0.76884 0.0
O893 O 0.90413 0.57125 0.74043 0.0
H894 H 0.94956 0.56704 0.81049 0.0
H895 H 0.87327 0.61668 0.73269 0.0
O896 O 0.90245 0.61676 0.71795 0.0
H897 H 0.8504 0.56123 0.7141 0.0
H898 H 0.89743 0.5856 0.6663 0.0
H899 H 0.92739 0.5674 0.71834 0.0
H900 H 0.88125 0.56524 0.71819 0.0
H901 H 0.89056 0.59857 0.69404 0.0
O902 O 0.88629 0.5995 0.785 0.0
H903 H 0.93566 0.57462 0.78339 0.0
H904 H 0.90487 0.61104 0.80878 0.0
H905 H 0.93456 0.55397 0.69089 0.0
H906 H 0.84232 0.61329 0.72859 0.0
H907 H 0.91953 0.56307 0.66462 0.0
H908 H 0.8307 0.58538 0.71929 0.0
O909 O 0.92826 0.59712 0.73336 0.0
H910 H 0.88957 0.65983 0.77526 0.0
H911 H 0.9378 0.62077 0.78418 0.0
H912 H 0.94187 0.65157 0.78867 0.0
H913 H 0.91763 0.67133 0.78423 0.0
H914 H 0.88612 0.62893 0.77075 0.0
H915 H 0.91832 0.60375 0.83619 0.0
H916 H 0.94089 0.58166 0.83714 0.0
O917 O 0.93142 0.59823 0.76174 0.0
C918 C 0.90461 0.56495 0.75537 0.0
C919 C 0.93977 0.57672 0.81023 0.0
C920 C 0.92222 0.59731 0.82466 0.0
N921 N 0.91954 0.59331 0.79449 0.0
C922 C 0.93189 0.58109 0.79492 0.0
C923 C 0.91462 0.60134 0.80911 0.0
C924 C 0.93489 0.58491 0.82519 0.0
C925 C 0.86831 0.60453 0.72852 0.0
N926 N 0.87906 0.59116 0.7257 0.0
C927 C 0.85078 0.60267 0.72627 0.0
C928 C 0.84426 0.58701 0.72108 0.0
C929 C 0.8553 0.57344 0.71818 0.0
C930 C 0.87276 0.57576 0.72059 0.0
C931 C 0.90406 0.58151 0.67766 0.0
C932 C 0.92073 0.57135 0.70698 0.0
C933 C 0.90026 0.58884 0.69339 0.0
N934 N 0.90851 0.58368 0.7078 0.0
C935 C 0.92487 0.56374 0.69146 0.0
C936 C 0.91645 0.56887 0.67673 0.0
C937 C 0.93749 0.59799 0.7467 0.0
C938 C 0.90022 0.65134 0.77725 0.0
C939 C 0.92723 0.62929 0.78211 0.0
C940 C 0.92959 0.64671 0.78474 0.0
C941 C 0.91598 0.65779 0.78226 0.0
N942 N 0.91175 0.62306 0.77719 0.0
C943 C 0.89834 0.63384 0.77477 0.0
Co944 Co 0.22715 0.40342 0.09423 0.0
Co945 Co 0.27066 0.40683 0.10018 0.0
O946 O 0.24844 0.39684 0.10529 0.0
C947 C 0.21987 0.40903 0.13093 0.0
O948 O 0.23485 0.4163 0.13236 0.0
C949 C 0.27725 0.37017 0.09303 0.0
O950 O 0.26411 0.37008 0.0827 0.0
O951 O 0.267 0.40436 0.07509 0.0
O952 O 0.23861 0.40387 0.07162 0.0
H953 H 0.31118 0.44606 0.07002 0.0
H954 H 0.22854 0.37314 0.11662 0.0
O955 O 0.21504 0.40303 0.11666 0.0
H956 H 0.20972 0.35154 0.06077 0.0
H957 H 0.16388 0.40073 0.08439 0.0
H958 H 0.21774 0.42811 0.06732 0.0
H959 H 0.2152 0.38215 0.06507 0.0
H960 H 0.19096 0.3925 0.09794 0.0
O961 O 0.28132 0.38367 0.10105 0.0
H962 H 0.28315 0.43355 0.07666 0.0
H963 H 0.30584 0.4007 0.11307 0.0
H964 H 0.19097 0.43662 0.05332 0.0
H965 H 0.22305 0.34243 0.11296 0.0
H966 H 0.16379 0.4229 0.06185 0.0
H967 H 0.21361 0.33144 0.08486 0.0
O968 O 0.23213 0.42818 0.09743 0.0
H969 H 0.27029 0.38698 0.16095 0.0
H970 H 0.28276 0.43504 0.1226 0.0
H971 H 0.28666 0.4386 0.15353 0.0
H972 H 0.28043 0.41443 0.17293 0.0
H973 H 0.2664 0.38405 0.12994 0.0
H974 H 0.33413 0.41275 0.10673 0.0
H975 H 0.33692 0.43564 0.08511 0.0
O976 O 0.26059 0.43012 0.09944 0.0
C977 C 0.25373 0.40389 0.06571 0.0
C978 C 0.31012 0.43612 0.07951 0.0
C979 C 0.32301 0.41741 0.10009 0.0
N980 N 0.29284 0.41651 0.09532 0.0
C981 C 0.29428 0.42903 0.08335 0.0
C982 C 0.30696 0.41061 0.1036 0.0
C983 C 0.32456 0.43026 0.08796 0.0
C984 C 0.22435 0.36846 0.10438 0.0
N985 N 0.22221 0.37942 0.09106 0.0
C986 C 0.22129 0.35106 0.10237 0.0
C987 C 0.21602 0.3449 0.0866 0.0
C988 C 0.21385 0.35616 0.07308 0.0
C989 C 0.21704 0.37348 0.07555 0.0
C990 C 0.17564 0.40679 0.08055 0.0
C991 C 0.20597 0.42201 0.07103 0.0
C992 C 0.19101 0.40222 0.08821 0.0
N993 N 0.20592 0.40975 0.08336 0.0
C994 C 0.19085 0.42692 0.06309 0.0
C995 C 0.1756 0.41922 0.0679 0.0
C996 C 0.24583 0.43683 0.09875 0.0
C997 C 0.27306 0.3976 0.15262 0.0
C998 C 0.27991 0.42452 0.13096 0.0
C999 C 0.28221 0.42658 0.14846 0.0
C1000 C 0.27873 0.41301 0.15934 0.0
N1001 N 0.27433 0.40937 0.12447 0.0
C1002 C 0.27093 0.396 0.13505 0.0
Co1003 Co 0.27344 0.59583 0.90286 0.0
Co1004 Co 0.22996 0.59884 0.90614 0.0
O1005 O 0.25166 0.60572 0.89623 0.0
C1006 C 0.28027 0.63266 0.90792 0.0
O1007 O 0.26682 0.63329 0.91781 0.0
C1008 C 0.22302 0.59442 0.86928 0.0
O1009 O 0.23654 0.58465 0.8684 0.0
O1010 O 0.23474 0.5744 0.90131 0.0
O1011 O 0.26301 0.5727 0.90512 0.0
H1012 H 0.19142 0.56322 0.9427 0.0
H1013 H 0.27101 0.61626 0.87125 0.0
O1014 O 0.28445 0.61876 0.90068 0.0
H1015 H 0.2904 0.55946 0.85292 0.0
H1016 H 0.33696 0.58854 0.89901 0.0
H1017 H 0.28471 0.57121 0.92914 0.0
H1018 H 0.28534 0.56555 0.88328 0.0
H1019 H 0.3091 0.60037 0.89071 0.0
O1020 O 0.21882 0.60132 0.88333 0.0
H1021 H 0.2189 0.57213 0.93042 0.0
H1022 H 0.19424 0.6109 0.90199 0.0
H1023 H 0.31228 0.55896 0.93776 0.0
H1024 H 0.27605 0.61075 0.84075 0.0
H1025 H 0.33866 0.56762 0.92265 0.0
H1026 H 0.28579 0.58216 0.83142 0.0
O1027 O 0.26874 0.60028 0.92736 0.0
H1028 H 0.22707 0.66117 0.89216 0.0
H1029 H 0.21812 0.61793 0.93675 0.0
H1030 H 0.21299 0.64819 0.94332 0.0
H1031 H 0.21743 0.67005 0.92091 0.0
H1032 H 0.2322 0.63077 0.88618 0.0
H1033 H 0.16647 0.60231 0.91385 0.0
H1034 H 0.16495 0.57836 0.93442 0.0
O1035 O 0.2405 0.59628 0.92916 0.0
C1036 C 0.24841 0.56585 0.90309 0.0
C1037 C 0.19192 0.57372 0.9338 0.0
C1038 C 0.17791 0.59564 0.91759 0.0
N1039 N 0.20819 0.59213 0.91565 0.0
C1040 C 0.20745 0.57886 0.92685 0.0
C1041 C 0.19367 0.60043 0.9109 0.0
C1042 C 0.17707 0.58221 0.92913 0.0
C1043 C 0.27537 0.60383 0.86729 0.0
N1044 N 0.27796 0.59128 0.87903 0.0
C1045 C 0.27815 0.60077 0.85 0.0
C1046 C 0.28359 0.58472 0.84477 0.0
C1047 C 0.28618 0.57197 0.85683 0.0
C1048 C 0.28326 0.57549 0.874 0.0
C1049 C 0.32555 0.58463 0.90566 0.0
C1050 C 0.29612 0.57495 0.92242 0.0
C1051 C 0.30975 0.5913 0.90104 0.0
N1052 N 0.29528 0.58635 0.90933 0.0
C1053 C 0.3117 0.56801 0.9274 0.0
C1054 C 0.3265 0.57289 0.91892 0.0
C1055 C 0.25512 0.59832 0.93595 0.0
C1056 C 0.22505 0.65176 0.90201 0.0
C1057 C 0.22013 0.62737 0.92695 0.0
C1058 C 0.21717 0.64448 0.93073 0.0
C1059 C 0.21966 0.65674 0.91815 0.0
N1060 N 0.22538 0.62259 0.91107 0.0
C1061 C 0.22787 0.63453 0.89868 0.0
Co1062 Co 0.4049 0.22819 0.90908 0.0
Co1063 Co 0.40737 0.27164 0.90408 0.0
O1064 O 0.39761 0.24945 0.89847 0.0
C1065 C 0.40842 0.22087 0.87227 0.0
O1066 O 0.41613 0.23563 0.87072 0.0
C1067 C 0.37057 0.27817 0.90976 0.0
O1068 O 0.37029 0.26505 0.92011 0.0
O1069 O 0.40356 0.26781 0.92884 0.0
O1070 O 0.40726 0.23961 0.93171 0.0
H1071 H 0.44448 0.31232 0.93669 0.0
H1072 H 0.37297 0.22907 0.88906 0.0
O1073 O 0.40277 0.21612 0.88671 0.0
H1074 H 0.35586 0.21162 0.94685 0.0
H1075 H 0.40255 0.16494 0.91916 0.0
H1076 H 0.43184 0.21856 0.93369 0.0
H1077 H 0.38602 0.2171 0.94012 0.0
H1078 H 0.39342 0.1921 0.90634 0.0
O1079 O 0.38426 0.28225 0.90206 0.0
H1080 H 0.43244 0.28425 0.92934 0.0
H1081 H 0.40206 0.30677 0.89075 0.0
H1082 H 0.44129 0.19172 0.94693 0.0
H1083 H 0.34267 0.22358 0.8952 0.0
H1084 H 0.42661 0.16466 0.93967 0.0
H1085 H 0.33395 0.21482 0.92429 0.0
O1086 O 0.4292 0.23319 0.90397 0.0
H1087 H 0.39081 0.27204 0.84233 0.0
H1088 H 0.43703 0.28315 0.88333 0.0
H1089 H 0.44228 0.28723 0.85267 0.0
H1090 H 0.41906 0.28169 0.83194 0.0
H1091 H 0.38615 0.26797 0.8731 0.0
H1092 H 0.41365 0.33511 0.89778 0.0
H1093 H 0.43507 0.338 0.92085 0.0
O1094 O 0.4307 0.26165 0.90619 0.0
C1095 C 0.40542 0.25451 0.93794 0.0
C1096 C 0.4352 0.31121 0.92656 0.0
C1097 C 0.41788 0.32401 0.90474 0.0
N1098 N 0.4167 0.29385 0.90952 0.0
C1099 C 0.42839 0.29535 0.92231 0.0
C1100 C 0.41134 0.30794 0.90084 0.0
C1101 C 0.42991 0.32562 0.91768 0.0
C1102 C 0.36928 0.22512 0.90171 0.0
N1103 N 0.38125 0.22331 0.91418 0.0
C1104 C 0.3521 0.22209 0.90513 0.0
C1105 C 0.34722 0.2172 0.92146 0.0
C1106 C 0.3595 0.21541 0.93412 0.0
C1107 C 0.37656 0.21857 0.93024 0.0
C1108 C 0.40902 0.17665 0.92245 0.0
C1109 C 0.42531 0.20685 0.93056 0.0
C1110 C 0.40393 0.19206 0.91521 0.0
N1111 N 0.412 0.20692 0.91938 0.0
C1112 C 0.43076 0.19169 0.93805 0.0
C1113 C 0.42252 0.1765 0.93396 0.0
C1114 C 0.43764 0.24703 0.90485 0.0
C1115 C 0.40101 0.27454 0.85124 0.0
C1116 C 0.42687 0.28065 0.87439 0.0
C1117 C 0.42991 0.28303 0.85704 0.0
C1118 C 0.41688 0.27993 0.84542 0.0
N1119 N 0.41127 0.27538 0.88 0.0
C1120 C 0.39843 0.27232 0.86868 0.0
Co1121 Co 0.7313 0.40717 0.90357 0.0
Co1122 Co 0.77485 0.40352 0.90797 0.0
O1123 O 0.75326 0.39733 0.89728 0.0
C1124 C 0.72467 0.37028 0.9085 0.0
O1125 O 0.73819 0.36969 0.9183 0.0
C1126 C 0.7818 0.40954 0.87127 0.0
O1127 O 0.76719 0.41757 0.8702 0.0
O1128 O 0.77017 0.4283 0.90483 0.0
O1129 O 0.74166 0.43027 0.90589 0.0
H1130 H 0.81247 0.43627 0.94803 0.0
H1131 H 0.73415 0.38649 0.87214 0.0
O1132 O 0.72037 0.38419 0.90136 0.0
H1133 H 0.71519 0.44321 0.85312 0.0
H1134 H 0.66784 0.41427 0.89858 0.0
H1135 H 0.71954 0.43194 0.9295 0.0
H1136 H 0.71979 0.43733 0.8836 0.0
H1137 H 0.69586 0.40247 0.89083 0.0
O1138 O 0.78648 0.40295 0.88532 0.0
H1139 H 0.78527 0.42814 0.9346 0.0
H1140 H 0.81075 0.392 0.90356 0.0
H1141 H 0.69179 0.44415 0.93758 0.0
H1142 H 0.72957 0.39179 0.84154 0.0
H1143 H 0.66569 0.43532 0.92206 0.0
H1144 H 0.72006 0.42033 0.83186 0.0
O1145 O 0.7355 0.40292 0.92823 0.0
H1146 H 0.77761 0.3425 0.88909 0.0
H1147 H 0.78694 0.38205 0.93691 0.0
H1148 H 0.79197 0.35136 0.94106 0.0
H1149 H 0.78733 0.33135 0.91702 0.0
H1150 H 0.77258 0.37329 0.88557 0.0
H1151 H 0.83825 0.39985 0.91653 0.0
H1152 H 0.83921 0.42208 0.93899 0.0
O1153 O 0.76393 0.40413 0.93089 0.0
C1154 C 0.75645 0.43696 0.9054 0.0
C1155 C 0.81221 0.42653 0.93829 0.0
C1156 C 0.82668 0.40611 0.92059 0.0
N1157 N 0.79641 0.40955 0.91839 0.0
C1158 C 0.79684 0.42185 0.93067 0.0
C1159 C 0.81108 0.40175 0.91326 0.0
C1160 C 0.82721 0.41858 0.9332 0.0
C1161 C 0.72987 0.3989 0.86803 0.0
N1162 N 0.72716 0.41156 0.87964 0.0
C1163 C 0.72736 0.40184 0.85068 0.0
C1164 C 0.72205 0.41787 0.84526 0.0
C1165 C 0.71932 0.43071 0.85718 0.0
C1166 C 0.72198 0.42732 0.87442 0.0
C1167 C 0.67912 0.41825 0.9054 0.0
C1168 C 0.70825 0.42813 0.92261 0.0
C1169 C 0.69502 0.4116 0.90109 0.0
N1170 N 0.70934 0.41665 0.9096 0.0
C1171 C 0.69257 0.43504 0.92728 0.0
C1172 C 0.67793 0.43006 0.91858 0.0
C1173 C 0.74901 0.40309 0.93722 0.0
C1174 C 0.7797 0.35109 0.89966 0.0
C1175 C 0.78478 0.37342 0.92643 0.0
C1176 C 0.78772 0.35606 0.92883 0.0
C1177 C 0.78513 0.34484 0.91534 0.0
N1178 N 0.77946 0.37946 0.91102 0.0
C1179 C 0.77691 0.36854 0.89773 0.0
Co1180 Co 0.60124 0.77365 0.90662 0.0
Co1181 Co 0.59627 0.73014 0.90273 0.0
O1182 O 0.6067 0.75177 0.89602 0.0
C1183 C 0.59533 0.7807 0.86991 0.0
O1184 O 0.58705 0.76621 0.86877 0.0
C1185 C 0.63311 0.72284 0.90628 0.0
O1186 O 0.63471 0.73741 0.91433 0.0
O1187 O 0.6012 0.73442 0.92721 0.0
O1188 O 0.60038 0.76289 0.9296 0.0
H1189 H 0.55878 0.69221 0.93804 0.0
H1190 H 0.63126 0.77054 0.88408 0.0
O1191 O 0.60205 0.78519 0.88396 0.0
H1192 H 0.65405 0.78934 0.93946 0.0
H1193 H 0.60697 0.83696 0.91497 0.0
H1194 H 0.57702 0.78489 0.93323 0.0
H1195 H 0.62321 0.78516 0.93545 0.0
H1196 H 0.61391 0.80919 0.90209 0.0
O1197 O 0.61869 0.71832 0.90037 0.0
H1198 H 0.57181 0.71944 0.9294 0.0
H1199 H 0.5992 0.69445 0.89011 0.0
H1200 H 0.5698 0.81238 0.94658 0.0
H1201 H 0.66219 0.77474 0.88746 0.0
H1202 H 0.58482 0.83866 0.93744 0.0
H1203 H 0.67378 0.78414 0.91533 0.0
O1204 O 0.57631 0.76966 0.90356 0.0
H1205 H 0.61047 0.72729 0.84048 0.0
H1206 H 0.56535 0.71948 0.88337 0.0
H1207 H 0.55877 0.71483 0.85304 0.0
H1208 H 0.58143 0.71871 0.83136 0.0
H1209 H 0.61645 0.73195 0.87095 0.0
H1210 H 0.58659 0.66691 0.89842 0.0
H1211 H 0.56617 0.66569 0.9225 0.0
O1212 O 0.57363 0.74124 0.90535 0.0
C1213 C 0.60127 0.74802 0.93606 0.0
C1214 C 0.56761 0.69259 0.92748 0.0
C1215 C 0.58324 0.67839 0.90526 0.0
N1216 N 0.58611 0.70856 0.90916 0.0
C1217 C 0.57498 0.70798 0.9225 0.0
C1218 C 0.59036 0.69401 0.90063 0.0
C1219 C 0.57178 0.67771 0.91877 0.0
C1220 C 0.6362 0.77476 0.89621 0.0
N1221 N 0.62544 0.77759 0.90956 0.0
C1222 C 0.65373 0.77706 0.89806 0.0
C1223 C 0.66022 0.78232 0.91371 0.0
C1224 C 0.64916 0.78522 0.92726 0.0
C1225 C 0.63171 0.78276 0.92494 0.0
C1226 C 0.60035 0.8256 0.91907 0.0
C1227 C 0.58367 0.79626 0.92926 0.0
C1228 C 0.60419 0.80985 0.91178 0.0
N1229 N 0.59593 0.79543 0.91696 0.0
C1230 C 0.5795 0.81179 0.93683 0.0
C1231 C 0.58793 0.82654 0.93168 0.0
C1232 C 0.56732 0.75617 0.9046 0.0
C1233 C 0.6005 0.72551 0.84981 0.0
C1234 C 0.57526 0.72125 0.87401 0.0
C1235 C 0.57147 0.71856 0.85686 0.0
C1236 C 0.5842 0.72072 0.8447 0.0
N1237 N 0.59129 0.72591 0.87892 0.0
C1238 C 0.60383 0.72807 0.86708 0.0
Co1239 Co 0.77289 0.59813 0.09352 0.0
Co1240 Co 0.72936 0.59596 0.09883 0.0
O1241 O 0.75165 0.60573 0.10399 0.0
C1242 C 0.78017 0.59456 0.13036 0.0
O1243 O 0.76537 0.58695 0.13194 0.0
C1244 C 0.7228 0.63263 0.09158 0.0
O1245 O 0.73557 0.63256 0.08082 0.0
O1246 O 0.7332 0.59856 0.0738 0.0
O1247 O 0.76152 0.59577 0.07095 0.0
H1248 H 0.68848 0.55735 0.06829 0.0
H1249 H 0.77229 0.63016 0.11342 0.0
O1250 O 0.78491 0.60022 0.11592 0.0
H1251 H 0.79002 0.64686 0.05559 0.0
H1252 H 0.83616 0.59985 0.08362 0.0
H1253 H 0.78234 0.57093 0.06912 0.0
H1254 H 0.78421 0.61677 0.06244 0.0
H1255 H 0.80906 0.60931 0.0963 0.0
O1256 O 0.71894 0.61922 0.09984 0.0
H1257 H 0.71662 0.56954 0.07506 0.0
H1258 H 0.69422 0.60237 0.11167 0.0
H1259 H 0.80912 0.56114 0.05604 0.0
H1260 H 0.7781 0.66039 0.10716 0.0
H1261 H 0.83629 0.57564 0.06328 0.0
H1262 H 0.78701 0.6689 0.07806 0.0
O1263 O 0.76766 0.57387 0.09866 0.0
H1264 H 0.72979 0.61546 0.15971 0.0
H1265 H 0.71693 0.56773 0.12104 0.0
H1266 H 0.71293 0.56404 0.15193 0.0
H1267 H 0.71935 0.58804 0.17151 0.0
H1268 H 0.73378 0.61852 0.12874 0.0
H1269 H 0.66581 0.59064 0.1052 0.0
H1270 H 0.66283 0.56792 0.08342 0.0
O1271 O 0.73912 0.57247 0.09799 0.0
C1272 C 0.74658 0.59697 0.06472 0.0
C1273 C 0.68962 0.56722 0.07785 0.0
C1274 C 0.6769 0.58592 0.09854 0.0
N1275 N 0.70708 0.58656 0.09383 0.0
C1276 C 0.70553 0.57413 0.08176 0.0
C1277 C 0.69301 0.59254 0.10213 0.0
C1278 C 0.67523 0.57316 0.08632 0.0
C1279 C 0.77629 0.63376 0.10076 0.0
N1280 N 0.778 0.62172 0.08834 0.0
C1281 C 0.77951 0.6509 0.09728 0.0
C1282 C 0.78449 0.65567 0.08094 0.0
C1283 C 0.78617 0.64331 0.06833 0.0
C1284 C 0.78283 0.6263 0.07227 0.0
C1285 C 0.8244 0.59345 0.08034 0.0
C1286 C 0.79409 0.57738 0.07224 0.0
C1287 C 0.80902 0.59874 0.08749 0.0
N1288 N 0.79411 0.59078 0.08333 0.0
C1289 C 0.80922 0.57175 0.06484 0.0
C1290 C 0.82446 0.57987 0.06892 0.0
C1291 C 0.75375 0.56549 0.09886 0.0
C1292 C 0.72693 0.60492 0.15132 0.0
C1293 C 0.71985 0.57818 0.12947 0.0
C1294 C 0.7175 0.57605 0.14695 0.0
C1295 C 0.72109 0.58952 0.15793 0.0
N1296 N 0.7256 0.59331 0.12308 0.0
C1297 C 0.72911 0.60659 0.13376 0.0
Co1298 Co 0.40679 0.72909 0.09886 0.0
Co1299 Co 0.40237 0.77272 0.09431 0.0
O1300 O 0.39629 0.75091 0.10479 0.0
C1301 C 0.36992 0.72214 0.09312 0.0
O1302 O 0.36857 0.73689 0.08539 0.0
C1303 C 0.40818 0.77967 0.13116 0.0
O1304 O 0.41607 0.765 0.13237 0.0
O1305 O 0.42726 0.76832 0.09738 0.0
O1306 O 0.42972 0.73986 0.09831 0.0
H1307 H 0.43475 0.81083 0.05446 0.0
H1308 H 0.38419 0.73186 0.12887 0.0
O1309 O 0.3841 0.71749 0.09942 0.0
H1310 H 0.43935 0.71234 0.15149 0.0
H1311 H 0.41502 0.66567 0.10342 0.0
H1312 H 0.43349 0.71827 0.07455 0.0
H1313 H 0.43546 0.717 0.12072 0.0
H1314 H 0.40216 0.69332 0.11085 0.0
O1315 O 0.40172 0.78431 0.11703 0.0
H1316 H 0.42686 0.78349 0.06774 0.0
H1317 H 0.39051 0.80852 0.09889 0.0
H1318 H 0.44681 0.69091 0.06684 0.0
H1319 H 0.38745 0.72718 0.15974 0.0
H1320 H 0.43756 0.66436 0.08131 0.0
H1321 H 0.41521 0.71741 0.17124 0.0
O1322 O 0.4039 0.73345 0.07394 0.0
H1323 H 0.34138 0.77486 0.11327 0.0
H1324 H 0.38075 0.78483 0.06549 0.0
H1325 H 0.35002 0.78961 0.06139 0.0
H1326 H 0.3301 0.78464 0.08541 0.0
H1327 H 0.37221 0.77007 0.11673 0.0
H1328 H 0.39811 0.83616 0.08607 0.0
H1329 H 0.42033 0.83742 0.06363 0.0
O1330 O 0.40305 0.76191 0.07137 0.0
C1331 C 0.43615 0.75476 0.09819 0.0
C1332 C 0.42502 0.81044 0.06419 0.0
C1333 C 0.40448 0.82466 0.08195 0.0
N1334 N 0.40818 0.7944 0.08401 0.0
C1335 C 0.42047 0.79499 0.07172 0.0
C1336 C 0.40026 0.80898 0.0892 0.0
C1337 C 0.41694 0.82535 0.06936 0.0
C1338 C 0.39628 0.7275 0.13377 0.0
N1339 N 0.40964 0.72474 0.123 0.0
C1340 C 0.39806 0.72492 0.15126 0.0
C1341 C 0.41365 0.71945 0.15771 0.0
C1342 C 0.4272 0.71663 0.14664 0.0
C1343 C 0.42495 0.71936 0.12923 0.0
C1344 C 0.41916 0.67715 0.09703 0.0
C1345 C 0.42947 0.70678 0.08097 0.0
C1346 C 0.41189 0.69284 0.10114 0.0
N1347 N 0.41712 0.7074 0.09319 0.0
C1348 C 0.43702 0.69132 0.07652 0.0
C1349 C 0.43182 0.67643 0.08463 0.0
C1350 C 0.4032 0.74699 0.06498 0.0
C1351 C 0.34993 0.77708 0.1027 0.0
C1352 C 0.37216 0.78251 0.07594 0.0
C1353 C 0.35477 0.78531 0.07358 0.0
C1354 C 0.34361 0.78254 0.08707 0.0
N1355 N 0.37827 0.77713 0.0913 0.0
C1356 C 0.3674 0.77444 0.1046 0.0
Co1357 Co 0.59422 0.27178 0.09914 0.0
Co1358 Co 0.59662 0.22832 0.09424 0.0
O1359 O 0.60389 0.2496 0.10488 0.0
C1360 C 0.6311 0.27842 0.09387 0.0
O1361 O 0.63149 0.26531 0.08351 0.0
C1362 C 0.59289 0.22078 0.13105 0.0
O1363 O 0.58503 0.23543 0.13266 0.0
O1364 O 0.57232 0.23331 0.09931 0.0
O1365 O 0.57088 0.26174 0.09682 0.0
H1366 H 0.56025 0.19181 0.05632 0.0
H1367 H 0.61509 0.26813 0.13034 0.0
O1368 O 0.61732 0.28245 0.1014 0.0
H1369 H 0.55879 0.28743 0.15016 0.0
H1370 H 0.58788 0.33525 0.10529 0.0
H1371 H 0.56938 0.28427 0.07363 0.0
H1372 H 0.56436 0.28331 0.11956 0.0
H1373 H 0.59941 0.30695 0.11246 0.0
O1374 O 0.59871 0.21622 0.11661 0.0
H1375 H 0.56971 0.21866 0.06959 0.0
H1376 H 0.60808 0.19224 0.09695 0.0
H1377 H 0.55741 0.3123 0.06613 0.0
H1378 H 0.61011 0.27225 0.16106 0.0
H1379 H 0.56667 0.33804 0.08201 0.0
H1380 H 0.58177 0.28192 0.17115 0.0
O1381 O 0.59828 0.2679 0.07441 0.0
H1382 H 0.65882 0.22383 0.10823 0.0
H1383 H 0.61555 0.21724 0.06324 0.0
H1384 H 0.64573 0.21182 0.05656 0.0
H1385 H 0.66759 0.21507 0.07916 0.0
H1386 H 0.62851 0.22926 0.11432 0.0
H1387 H 0.59894 0.16508 0.0841 0.0
H1388 H 0.5749 0.16476 0.06356 0.0
O1389 O 0.59432 0.23973 0.07159 0.0
C1390 C 0.5639 0.24713 0.09827 0.0
C1391 C 0.57077 0.19179 0.0652 0.0
C1392 C 0.59247 0.17678 0.08081 0.0
N1393 N 0.58952 0.20704 0.08391 0.0
C1394 C 0.57622 0.20696 0.07272 0.0
C1395 C 0.59757 0.1922 0.08807 0.0
C1396 C 0.57899 0.17662 0.06929 0.0
C1397 C 0.60277 0.27249 0.13463 0.0
N1398 N 0.59006 0.27555 0.12317 0.0
C1399 C 0.60001 0.27474 0.15204 0.0
C1400 C 0.5841 0.28014 0.15769 0.0
C1401 C 0.57119 0.28323 0.14592 0.0
C1402 C 0.57441 0.28083 0.12861 0.0
C1403 C 0.58371 0.32412 0.0983 0.0
C1404 C 0.57338 0.2954 0.08068 0.0
C1405 C 0.59022 0.30807 0.10229 0.0
N1406 N 0.58494 0.29396 0.09357 0.0
C1407 C 0.5666 0.31124 0.07634 0.0
C1408 C 0.57181 0.32568 0.08524 0.0
C1409 C 0.59633 0.25459 0.06532 0.0
C1410 C 0.64941 0.22232 0.09829 0.0
C1411 C 0.625 0.21873 0.07313 0.0
C1412 C 0.64206 0.21561 0.06928 0.0
C1413 C 0.65432 0.21743 0.08197 0.0
N1414 N 0.62028 0.22348 0.08918 0.0
C1415 C 0.63222 0.22532 0.10168 0.0
Co1416 Co 0.90045 0.72918 0.59665 0.0
Co1417 Co 0.90414 0.77282 0.60066 0.0
O1418 O 0.89413 0.75093 0.60681 0.0
C1419 C 0.9074 0.72276 0.63328 0.0
O1420 O 0.917 0.73644 0.63352 0.0
C1421 C 0.86746 0.779 0.59371 0.0
O1422 O 0.86734 0.76544 0.58395 0.0
O1423 O 0.90138 0.76809 0.57581 0.0
O1424 O 0.90101 0.73957 0.57353 0.0
H1425 H 0.94317 0.81188 0.56839 0.0
H1426 H 0.87018 0.73181 0.61899 0.0
O1427 O 0.89981 0.71826 0.61967 0.0
H1428 H 0.84842 0.71081 0.56398 0.0
H1429 H 0.89717 0.66551 0.58997 0.0
H1430 H 0.92489 0.71822 0.5701 0.0
H1431 H 0.87906 0.71622 0.56804 0.0
H1432 H 0.88928 0.69331 0.60224 0.0
O1433 O 0.88104 0.78353 0.60135 0.0
H1434 H 0.93065 0.78419 0.57634 0.0
H1435 H 0.89825 0.80855 0.61207 0.0
H1436 H 0.93307 0.69071 0.55738 0.0
H1437 H 0.83944 0.72641 0.61556 0.0
H1438 H 0.91916 0.6641 0.56733 0.0
H1439 H 0.82837 0.71588 0.58788 0.0
O1440 O 0.92526 0.73408 0.59949 0.0
H1441 H 0.88513 0.77495 0.66166 0.0
H1442 H 0.93263 0.78585 0.62217 0.0
H1443 H 0.9366 0.79106 0.65285 0.0
H1444 H 0.91272 0.78564 0.67283 0.0
H1445 H 0.88178 0.76976 0.63088 0.0
H1446 H 0.91032 0.83652 0.6044 0.0
H1447 H 0.933 0.83829 0.58246 0.0
O1448 O 0.92733 0.76262 0.60006 0.0
C1449 C 0.90096 0.75443 0.567 0.0
C1450 C 0.93334 0.81126 0.57801 0.0
C1451 C 0.91488 0.82509 0.5982 0.0
N1452 N 0.91383 0.79475 0.59474 0.0
C1453 C 0.92623 0.79562 0.5826 0.0
C1454 C 0.90807 0.80923 0.60246 0.0
C1455 C 0.92761 0.82608 0.58589 0.0
C1456 C 0.86547 0.72713 0.60693 0.0
N1457 N 0.87641 0.72434 0.59372 0.0
C1458 C 0.84805 0.72414 0.60506 0.0
C1459 C 0.84184 0.71825 0.58952 0.0
C1460 C 0.85308 0.71542 0.5761 0.0
C1461 C 0.87042 0.71856 0.57844 0.0
C1462 C 0.9033 0.67702 0.58552 0.0
C1463 C 0.91871 0.70671 0.57442 0.0
C1464 C 0.89891 0.69279 0.59244 0.0
N1465 N 0.90654 0.70738 0.5868 0.0
C1466 C 0.92343 0.69116 0.5672 0.0
C1467 C 0.91564 0.67624 0.5728 0.0
C1468 C 0.93397 0.74781 0.60003 0.0
C1469 C 0.89563 0.77738 0.65308 0.0
C1470 C 0.92223 0.78335 0.63079 0.0
C1471 C 0.92452 0.78639 0.64814 0.0
C1472 C 0.91112 0.78335 0.65934 0.0
N1473 N 0.907 0.77749 0.62474 0.0
C1474 C 0.89379 0.7745 0.63564 0.0
Co1475 Co 0.22805 0.90689 0.60005 0.0
Co1476 Co 0.27157 0.90361 0.59576 0.0
O1477 O 0.24994 0.89672 0.60584 0.0
C1478 C 0.22103 0.87026 0.59331 0.0
O1479 O 0.23418 0.86998 0.583 0.0
C1480 C 0.27862 0.9081 0.63258 0.0
O1481 O 0.26497 0.91768 0.63347 0.0
O1482 O 0.26692 0.9281 0.60044 0.0
O1483 O 0.23844 0.93011 0.59906 0.0
H1484 H 0.30983 0.93905 0.55874 0.0
H1485 H 0.23138 0.88478 0.63041 0.0
O1486 O 0.21708 0.88388 0.60117 0.0
H1487 H 0.21118 0.94003 0.65225 0.0
H1488 H 0.16453 0.9137 0.60489 0.0
H1489 H 0.21651 0.93323 0.57563 0.0
H1490 H 0.21578 0.93573 0.62152 0.0
H1491 H 0.19249 0.90145 0.61218 0.0
O1492 O 0.28289 0.90125 0.61851 0.0
H1493 H 0.28244 0.93018 0.57124 0.0
H1494 H 0.30731 0.89155 0.59968 0.0
H1495 H 0.18883 0.94592 0.56805 0.0
H1496 H 0.22679 0.88846 0.66124 0.0
H1497 H 0.16259 0.93615 0.58273 0.0
H1498 H 0.21667 0.91626 0.67235 0.0
O1499 O 0.23238 0.90382 0.57517 0.0
H1500 H 0.27458 0.84135 0.61003 0.0
H1501 H 0.28309 0.88436 0.56513 0.0
H1502 H 0.28818 0.85407 0.55868 0.0
H1503 H 0.28396 0.83233 0.58123 0.0
H1504 H 0.26951 0.87177 0.6159 0.0
H1505 H 0.335 0.90009 0.58759 0.0
H1506 H 0.33637 0.92396 0.56691 0.0
O1507 O 0.2608 0.90606 0.57288 0.0
C1508 C 0.25321 0.93678 0.60016 0.0
C1509 C 0.3094 0.92859 0.56768 0.0
C1510 C 0.32352 0.90674 0.58389 0.0
N1511 N 0.29326 0.91025 0.58603 0.0
C1512 C 0.29392 0.92347 0.57476 0.0
C1513 C 0.30781 0.90197 0.59072 0.0
C1514 C 0.32428 0.92012 0.57229 0.0
C1515 C 0.22687 0.89688 0.63514 0.0
N1516 N 0.22384 0.91003 0.62417 0.0
C1517 C 0.22434 0.8989 0.65261 0.0
C1518 C 0.21867 0.91451 0.65884 0.0
C1519 C 0.21561 0.92786 0.64757 0.0
C1520 C 0.21829 0.92537 0.63018 0.0
C1521 C 0.17588 0.91808 0.59842 0.0
C1522 C 0.20516 0.92898 0.58214 0.0
C1523 C 0.19174 0.91116 0.60247 0.0
N1524 N 0.20613 0.91671 0.59442 0.0
C1525 C 0.18952 0.93619 0.57777 0.0
C1526 C 0.1748 0.93068 0.58599 0.0
C1527 C 0.24596 0.90507 0.56635 0.0
C1528 C 0.27651 0.8507 0.60011 0.0
C1529 C 0.28118 0.87497 0.575 0.0
C1530 C 0.28411 0.85784 0.57128 0.0
C1531 C 0.28175 0.84565 0.58394 0.0
N1532 N 0.27609 0.87983 0.59091 0.0
C1533 C 0.27371 0.86795 0.60338 0.0
Co1534 Co 0.09976 0.2747 0.59542 0.0
Co1535 Co 0.09618 0.23107 0.59908 0.0
O1536 O 0.10597 0.25296 0.60577 0.0
C1537 C 0.09385 0.28111 0.63225 0.0
O1538 O 0.0858 0.26648 0.63312 0.0
C1539 C 0.13309 0.22441 0.59448 0.0
O1540 O 0.13388 0.23792 0.58467 0.0
O1541 O 0.10067 0.23564 0.57453 0.0
O1542 O 0.09915 0.26411 0.57231 0.0
H1543 H 0.05954 0.19196 0.56411 0.0
H1544 H 0.13004 0.27206 0.6177 0.0
O1545 O 0.10037 0.286 0.61824 0.0
H1546 H 0.15181 0.29267 0.56258 0.0
H1547 H 0.10331 0.33826 0.58782 0.0
H1548 H 0.07509 0.2854 0.56899 0.0
H1549 H 0.12115 0.28748 0.56671 0.0
H1550 H 0.11122 0.3106 0.60037 0.0
O1551 O 0.11908 0.22013 0.60143 0.0
H1552 H 0.07168 0.21962 0.57273 0.0
H1553 H 0.10071 0.19545 0.61137 0.0
H1554 H 0.06691 0.31277 0.55597 0.0
H1555 H 0.16081 0.27725 0.61421 0.0
H1556 H 0.08105 0.33945 0.5654 0.0
H1557 H 0.17188 0.28758 0.58647 0.0
O1558 O 0.075 0.26987 0.59855 0.0
H1559 H 0.11089 0.22857 0.66125 0.0
H1560 H 0.06582 0.21919 0.61857 0.0
H1561 H 0.05962 0.21419 0.64892 0.0
H1562 H 0.08226 0.21886 0.67049 0.0
H1563 H 0.1165 0.23356 0.63078 0.0
H1564 H 0.08899 0.1675 0.60308 0.0
H1565 H 0.06819 0.16565 0.57934 0.0
O1566 O 0.07312 0.24139 0.59669 0.0
C1567 C 0.10038 0.2493 0.56575 0.0
C1568 C 0.06854 0.19261 0.57452 0.0
C1569 C 0.08508 0.17888 0.59638 0.0
N1570 N 0.08675 0.20917 0.59264 0.0
C1571 C 0.07541 0.20824 0.57949 0.0
C1572 C 0.09169 0.19473 0.60099 0.0
C1573 C 0.07341 0.17785 0.58306 0.0
C1574 C 0.13476 0.27665 0.60562 0.0
N1575 N 0.12381 0.27943 0.59241 0.0
C1576 C 0.15219 0.27953 0.60371 0.0
C1577 C 0.1584 0.2853 0.58814 0.0
C1578 C 0.14715 0.28814 0.57472 0.0
C1579 C 0.1298 0.28511 0.5771 0.0
C1580 C 0.09707 0.32672 0.58359 0.0
C1581 C 0.08137 0.29695 0.57308 0.0
C1582 C 0.10146 0.31103 0.59069 0.0
N1583 N 0.09369 0.29639 0.58534 0.0
C1584 C 0.07665 0.31241 0.5657 0.0
C1585 C 0.08458 0.32738 0.571 0.0
C1586 C 0.06638 0.25612 0.59759 0.0
C1587 C 0.10094 0.22645 0.65197 0.0
C1588 C 0.07573 0.2213 0.62789 0.0
C1589 C 0.07215 0.21841 0.64505 0.0
C1590 C 0.08486 0.22102 0.65715 0.0
N1591 N 0.09154 0.22659 0.6229 0.0
C1592 C 0.10406 0.22919 0.63469 0.0
Co1593 Co 0.77287 0.0953 0.59818 0.0
Co1594 Co 0.72941 0.09914 0.59446 0.0
O1595 O 0.75119 0.10567 0.60468 0.0
C1596 C 0.7802 0.13215 0.59398 0.0
O1597 O 0.76579 0.13353 0.58564 0.0
C1598 C 0.72238 0.09563 0.6314 0.0
O1599 O 0.73685 0.08743 0.63291 0.0
O1600 O 0.73367 0.07466 0.59938 0.0
O1601 O 0.76192 0.07241 0.59583 0.0
H1602 H 0.6909 0.06399 0.55737 0.0
H1603 H 0.77093 0.11583 0.62973 0.0
O1604 O 0.78459 0.11788 0.6003 0.0
H1605 H 0.78851 0.05852 0.64827 0.0
H1606 H 0.83613 0.08617 0.60253 0.0
H1607 H 0.78365 0.07053 0.57184 0.0
H1608 H 0.78378 0.06469 0.61787 0.0
H1609 H 0.80855 0.0987 0.6107 0.0
O1610 O 0.71784 0.10156 0.61702 0.0
H1611 H 0.71832 0.07255 0.57007 0.0
H1612 H 0.69383 0.11189 0.59785 0.0
H1613 H 0.81093 0.05757 0.56335 0.0
H1614 H 0.77568 0.11026 0.66026 0.0
H1615 H 0.83742 0.06539 0.57874 0.0
H1616 H 0.78448 0.08141 0.6697 0.0
O1617 O 0.76847 0.1 0.57369 0.0
H1618 H 0.72715 0.16142 0.60876 0.0
H1619 H 0.71841 0.11857 0.56372 0.0
H1620 H 0.71386 0.14895 0.55725 0.0
H1621 H 0.71821 0.17061 0.57988 0.0
H1622 H 0.73171 0.13091 0.61464 0.0
H1623 H 0.66611 0.10366 0.58558 0.0
H1624 H 0.66455 0.07959 0.56512 0.0
O1625 O 0.7402 0.09651 0.57158 0.0
C1626 C 0.74718 0.06584 0.59773 0.0
C1627 C 0.69143 0.07453 0.56622 0.0
C1628 C 0.67751 0.09679 0.58207 0.0
N1629 N 0.70769 0.09279 0.58456 0.0
C1630 C 0.70692 0.07947 0.57341 0.0
C1631 C 0.69323 0.10136 0.589 0.0
C1632 C 0.67664 0.08329 0.57059 0.0
C1633 C 0.77492 0.1033 0.63374 0.0
N1634 N 0.77715 0.09063 0.62203 0.0
C1635 C 0.77752 0.10019 0.65104 0.0
C1636 C 0.78244 0.084 0.65633 0.0
C1637 C 0.78469 0.07115 0.64431 0.0
C1638 C 0.78195 0.07471 0.62712 0.0
C1639 C 0.82467 0.08264 0.59575 0.0
C1640 C 0.79511 0.07391 0.57867 0.0
C1641 C 0.80902 0.08972 0.60029 0.0
N1642 N 0.79449 0.08524 0.59184 0.0
C1643 C 0.81052 0.06657 0.57377 0.0
C1644 C 0.82539 0.07097 0.5824 0.0
C1645 C 0.7549 0.09835 0.56495 0.0
C1646 C 0.72517 0.1521 0.59881 0.0
C1647 C 0.72038 0.12792 0.57362 0.0
C1648 C 0.71774 0.1451 0.56989 0.0
C1649 C 0.72017 0.15725 0.5826 0.0
N1650 N 0.72525 0.12298 0.58957 0.0
C1651 C 0.72767 0.13481 0.60208 0.0
Co1652 Co 0.90859 0.22963 0.40191 0.0
Co1653 Co 0.90407 0.27315 0.40721 0.0
O1654 O 0.89808 0.25152 0.3963 0.0
C1655 C 0.87178 0.22265 0.4074 0.0
O1656 O 0.87048 0.2373 0.41533 0.0
C1657 C 0.90977 0.28065 0.37051 0.0
O1658 O 0.91756 0.26595 0.36901 0.0
O1659 O 0.92897 0.26888 0.40411 0.0
O1660 O 0.93147 0.24044 0.40284 0.0
H1661 H 0.93625 0.31064 0.44784 0.0
H1662 H 0.88614 0.23275 0.37181 0.0
O1663 O 0.88594 0.21805 0.40102 0.0
H1664 H 0.94157 0.21399 0.34922 0.0
H1665 H 0.91695 0.16632 0.39625 0.0
H1666 H 0.93516 0.21842 0.42621 0.0
H1667 H 0.93748 0.21815 0.38004 0.0
H1668 H 0.90409 0.19408 0.38925 0.0
O1669 O 0.90342 0.28512 0.38473 0.0
H1670 H 0.9285 0.28352 0.43402 0.0
H1671 H 0.89207 0.30897 0.40329 0.0
H1672 H 0.94848 0.19095 0.4335 0.0
H1673 H 0.8896 0.22858 0.34089 0.0
H1674 H 0.93936 0.16465 0.41848 0.0
H1675 H 0.91749 0.21919 0.32941 0.0
O1676 O 0.90552 0.23352 0.42688 0.0
H1677 H 0.8431 0.27553 0.38815 0.0
H1678 H 0.88236 0.28452 0.43626 0.0
H1679 H 0.85161 0.28913 0.44038 0.0
H1680 H 0.83175 0.28465 0.41619 0.0
H1681 H 0.87395 0.2709 0.38466 0.0
H1682 H 0.89953 0.33639 0.41665 0.0
H1683 H 0.92172 0.33733 0.43916 0.0
O1684 O 0.90476 0.26193 0.42992 0.0
C1685 C 0.93789 0.25534 0.40319 0.0
C1686 C 0.92653 0.31039 0.43808 0.0
C1687 C 0.90594 0.32485 0.42056 0.0
N1688 N 0.90979 0.29465 0.41793 0.0
C1689 C 0.92206 0.29507 0.43024 0.0
C1690 C 0.90181 0.30929 0.413 0.0
C1691 C 0.91839 0.32536 0.43319 0.0
C1692 C 0.89828 0.22855 0.36691 0.0
N1693 N 0.9116 0.22571 0.37772 0.0
C1694 C 0.90018 0.22626 0.34939 0.0
C1695 C 0.91584 0.22101 0.34296 0.0
C1696 C 0.92936 0.21811 0.35406 0.0
C1697 C 0.92699 0.22055 0.3715 0.0
C1698 C 0.92104 0.17769 0.40287 0.0
C1699 C 0.9312 0.20704 0.41955 0.0
C1700 C 0.91377 0.19344 0.399 0.0
N1701 N 0.91893 0.20786 0.40726 0.0
C1702 C 0.93875 0.19152 0.42377 0.0
C1703 C 0.93362 0.17677 0.41534 0.0
C1704 C 0.90483 0.24691 0.43605 0.0
C1705 C 0.85163 0.27754 0.39878 0.0
C1706 C 0.8738 0.28243 0.42572 0.0
C1707 C 0.8564 0.28513 0.4281 0.0
C1708 C 0.84526 0.28263 0.41452 0.0
N1709 N 0.87995 0.27742 0.41025 0.0
C1710 C 0.86911 0.27499 0.39687 0.0
Co1711 Co 0.72902 0.90474 0.40772 0.0
Co1712 Co 0.77251 0.90707 0.4021 0.0
O1713 O 0.75021 0.89717 0.39714 0.0
C1714 C 0.72141 0.90799 0.3709 0.0
O1715 O 0.73618 0.9156 0.36911 0.0
C1716 C 0.77921 0.87047 0.4096 0.0
O1717 O 0.76637 0.87061 0.42029 0.0
O1718 O 0.76885 0.90465 0.42717 0.0
O1719 O 0.74054 0.9073 0.43018 0.0
H1720 H 0.81342 0.94608 0.43208 0.0
H1721 H 0.72962 0.87259 0.38802 0.0
O1722 O 0.71682 0.90244 0.38543 0.0
H1723 H 0.7124 0.85617 0.44609 0.0
H1724 H 0.66583 0.90277 0.4181 0.0
H1725 H 0.7196 0.93206 0.43199 0.0
H1726 H 0.71802 0.88624 0.43901 0.0
H1727 H 0.69288 0.89335 0.40531 0.0
O1728 O 0.78304 0.88382 0.40123 0.0
H1729 H 0.78528 0.93373 0.42557 0.0
H1730 H 0.80759 0.9007 0.38908 0.0
H1731 H 0.69287 0.94182 0.44519 0.0
H1732 H 0.72399 0.84237 0.39452 0.0
H1733 H 0.66572 0.92713 0.43826 0.0
H1734 H 0.71534 0.834 0.42374 0.0
O1735 O 0.73409 0.92899 0.4024 0.0
H1736 H 0.77184 0.88707 0.34138 0.0
H1737 H 0.78464 0.93519 0.37959 0.0
H1738 H 0.78845 0.93865 0.34865 0.0
H1739 H 0.78205 0.91446 0.32931 0.0
H1740 H 0.76804 0.88424 0.3724 0.0
H1741 H 0.83599 0.91259 0.3953 0.0
H1742 H 0.83902 0.9355 0.41688 0.0
O1743 O 0.76263 0.93054 0.40284 0.0
C1744 C 0.75552 0.90624 0.43633 0.0
C1745 C 0.81225 0.93614 0.42261 0.0
C1746 C 0.82492 0.91733 0.40198 0.0
N1747 N 0.79478 0.9166 0.40688 0.0
C1748 C 0.79635 0.92913 0.41884 0.0
C1749 C 0.80882 0.91062 0.39855 0.0
C1750 C 0.82661 0.93018 0.41409 0.0
C1751 C 0.72573 0.86905 0.40073 0.0
N1752 N 0.72405 0.88116 0.41309 0.0
C1753 C 0.72262 0.85192 0.40435 0.0
C1754 C 0.71779 0.84723 0.42075 0.0
C1755 C 0.71614 0.85966 0.4333 0.0
C1756 C 0.71938 0.87666 0.42922 0.0
C1757 C 0.67758 0.90925 0.42126 0.0
C1758 C 0.70786 0.92553 0.42901 0.0
C1759 C 0.69293 0.90399 0.41403 0.0
N1760 N 0.70783 0.91205 0.41802 0.0
C1761 C 0.69275 0.93115 0.43648 0.0
C1762 C 0.67753 0.92291 0.43257 0.0
C1763 C 0.74795 0.93744 0.40207 0.0
C1764 C 0.77469 0.8977 0.34967 0.0
C1765 C 0.78172 0.92465 0.37126 0.0
C1766 C 0.78397 0.92666 0.35375 0.0
C1767 C 0.7804 0.91307 0.34291 0.0
N1768 N 0.77611 0.90954 0.3778 0.0
C1769 C 0.77261 0.89616 0.36725 0.0
Co1770 Co 0.09423 0.77335 0.40294 0.0
Co1771 Co 0.0989 0.72977 0.40756 0.0
O1772 O 0.10487 0.75159 0.39706 0.0
C1773 C 0.13098 0.78038 0.40901 0.0
O1774 O 0.1322 0.76565 0.41681 0.0
C1775 C 0.09348 0.72294 0.3707 0.0
O1776 O 0.08574 0.73768 0.36939 0.0
O1777 O 0.074 0.73401 0.40443 0.0
O1778 O 0.07135 0.76246 0.40342 0.0
H1779 H 0.06666 0.6915 0.44737 0.0
H1780 H 0.11699 0.77077 0.37303 0.0
O1781 O 0.11688 0.78501 0.4025 0.0
H1782 H 0.06177 0.78987 0.35018 0.0
H1783 H 0.0858 0.83674 0.39837 0.0
H1784 H 0.06738 0.78407 0.42713 0.0
H1785 H 0.06557 0.78521 0.38097 0.0
H1786 H 0.09878 0.80914 0.39098 0.0
O1787 O 0.09968 0.7182 0.3849 0.0
H1788 H 0.0744 0.71888 0.43408 0.0
H1789 H 0.11101 0.69405 0.40307 0.0
H1790 H 0.05394 0.81137 0.4348 0.0
H1791 H 0.11383 0.77545 0.34215 0.0
H1792 H 0.06315 0.83796 0.42038 0.0
H1793 H 0.08603 0.78501 0.33054 0.0
O1794 O 0.09706 0.76903 0.42786 0.0
H1795 H 0.15996 0.72796 0.38878 0.0
H1796 H 0.12052 0.71787 0.43648 0.0
H1797 H 0.15127 0.71327 0.44066 0.0
H1798 H 0.17123 0.71831 0.41668 0.0
H1799 H 0.12912 0.73256 0.38522 0.0
H1800 H 0.10355 0.66638 0.41591 0.0
H1801 H 0.08128 0.665 0.43828 0.0
O1802 O 0.0981 0.74058 0.43045 0.0
C1803 C 0.06502 0.74752 0.40356 0.0
C1804 C 0.07641 0.69194 0.43767 0.0
C1805 C 0.0971 0.67784 0.41999 0.0
N1806 N 0.0932 0.70807 0.41788 0.0
C1807 C 0.08088 0.70741 0.43013 0.0
C1808 C 0.10123 0.69353 0.41273 0.0
C1809 C 0.08461 0.67708 0.43255 0.0
C1810 C 0.10489 0.77504 0.36808 0.0
N1811 N 0.09146 0.77769 0.37879 0.0
C1812 C 0.10316 0.77762 0.35058 0.0
C1813 C 0.08756 0.78296 0.34407 0.0
C1814 C 0.07393 0.78568 0.35508 0.0
C1815 C 0.07613 0.78295 0.3725 0.0
C1816 C 0.08166 0.82524 0.40473 0.0
C1817 C 0.07139 0.79557 0.42074 0.0
C1818 C 0.089 0.80958 0.40064 0.0
N1819 N 0.08379 0.795 0.40857 0.0
C1820 C 0.06376 0.811 0.42516 0.0
C1821 C 0.06895 0.82591 0.41707 0.0
C1822 C 0.09785 0.7555 0.43681 0.0
C1823 C 0.1514 0.72571 0.39932 0.0
C1824 C 0.12912 0.72021 0.42604 0.0
C1825 C 0.14652 0.71751 0.42845 0.0
C1826 C 0.15771 0.72032 0.41499 0.0
N1827 N 0.12303 0.72551 0.41064 0.0
C1828 C 0.13391 0.72825 0.39737 0.0
Co1829 Co 0.27503 0.09863 0.40774 0.0
Co1830 Co 0.23145 0.0946 0.4039 0.0
O1831 O 0.25328 0.10454 0.39722 0.0
C1832 C 0.28181 0.09237 0.37102 0.0
O1833 O 0.26726 0.0842 0.37004 0.0
C1834 C 0.22435 0.13149 0.40826 0.0
O1835 O 0.23791 0.1325 0.41798 0.0
O1836 O 0.23588 0.09934 0.42845 0.0
O1837 O 0.26434 0.09814 0.43079 0.0
H1838 H 0.1926 0.05786 0.439 0.0
H1839 H 0.27226 0.12866 0.38515 0.0
O1840 O 0.28647 0.09913 0.385 0.0
H1841 H 0.29221 0.15124 0.44021 0.0
H1842 H 0.33848 0.10296 0.41573 0.0
H1843 H 0.28584 0.07431 0.43445 0.0
H1844 H 0.28735 0.12046 0.43636 0.0
H1845 H 0.31081 0.11046 0.40295 0.0
O1846 O 0.22025 0.11739 0.40136 0.0
H1847 H 0.22016 0.0702 0.4304 0.0
H1848 H 0.19584 0.09865 0.39142 0.0
H1849 H 0.31322 0.06653 0.44769 0.0
H1850 H 0.27711 0.15952 0.38837 0.0
H1851 H 0.33979 0.08089 0.43832 0.0
H1852 H 0.28711 0.171 0.41609 0.0
O1853 O 0.27047 0.07378 0.40483 0.0
H1854 H 0.22898 0.10882 0.34163 0.0
H1855 H 0.21996 0.06396 0.38458 0.0
H1856 H 0.21511 0.05748 0.35426 0.0
H1857 H 0.21959 0.08001 0.33255 0.0
H1858 H 0.23383 0.11471 0.37208 0.0
H1859 H 0.16799 0.08672 0.39969 0.0
H1860 H 0.16627 0.06611 0.4236 0.0
O1861 O 0.24201 0.07165 0.40651 0.0
C1862 C 0.2495 0.09926 0.43728 0.0
C1863 C 0.1932 0.06677 0.42852 0.0
C1864 C 0.17938 0.08299 0.40647 0.0
N1865 N 0.20963 0.08499 0.41032 0.0
C1866 C 0.20877 0.07376 0.42356 0.0
C1867 C 0.19518 0.08972 0.40187 0.0
C1868 C 0.17842 0.07142 0.41989 0.0
C1869 C 0.2767 0.13355 0.39722 0.0
N1870 N 0.2795 0.12277 0.41056 0.0
C1871 C 0.27939 0.15104 0.39898 0.0
C1872 C 0.28498 0.15748 0.41454 0.0
C1873 C 0.28783 0.1464 0.42808 0.0
C1874 C 0.28498 0.12898 0.42585 0.0
C1875 C 0.32699 0.09662 0.41993 0.0
C1876 C 0.29734 0.08068 0.43037 0.0
C1877 C 0.31129 0.10078 0.41271 0.0
N1878 N 0.29672 0.09289 0.41801 0.0
C1879 C 0.31281 0.07619 0.43789 0.0
C1880 C 0.32771 0.08425 0.43261 0.0
C1881 C 0.25681 0.06503 0.40581 0.0
C1882 C 0.22694 0.09891 0.35097 0.0
C1883 C 0.22199 0.07382 0.37521 0.0
C1884 C 0.21918 0.07008 0.35806 0.0
C1885 C 0.22169 0.08274 0.34588 0.0
N1886 N 0.2271 0.08972 0.3801 0.0
C1887 C 0.2296 0.10219 0.36824 0.0
Co1888 Co 0.59819 0.90778 0.77259 0.0
Co1889 Co 0.59447 0.90387 0.72906 0.0
O1890 O 0.60476 0.89783 0.75081 0.0
C1891 C 0.59323 0.87093 0.77907 0.0
O1892 O 0.58347 0.87037 0.76551 0.0
C1893 C 0.63109 0.91056 0.72202 0.0
O1894 O 0.63149 0.92061 0.73537 0.0
O1895 O 0.5977 0.92869 0.73365 0.0
O1896 O 0.59605 0.93082 0.76213 0.0
H1897 H 0.5553 0.93636 0.69039 0.0
H1898 H 0.62968 0.88717 0.77008 0.0
O1899 O 0.60027 0.88485 0.78355 0.0
H1900 H 0.64842 0.94393 0.78936 0.0
H1901 H 0.6023 0.91508 0.8361 0.0
H1902 H 0.57216 0.93262 0.78394 0.0
H1903 H 0.61801 0.93798 0.78438 0.0
H1904 H 0.61042 0.9032 0.8082 0.0
O1905 O 0.61741 0.90283 0.71796 0.0
H1906 H 0.56816 0.92848 0.71792 0.0
H1907 H 0.59965 0.8921 0.69335 0.0
H1908 H 0.56371 0.94493 0.81154 0.0
H1909 H 0.66022 0.89253 0.77504 0.0
H1910 H 0.57883 0.93616 0.83787 0.0
H1911 H 0.66977 0.92109 0.78472 0.0
O1912 O 0.57359 0.90353 0.76806 0.0
H1913 H 0.6127 0.84263 0.72707 0.0
H1914 H 0.56551 0.88259 0.71666 0.0
H1915 H 0.56109 0.8519 0.71175 0.0
H1916 H 0.58481 0.83168 0.71694 0.0
H1917 H 0.61649 0.87342 0.73197 0.0
H1918 H 0.58725 0.8997 0.66553 0.0
H1919 H 0.56485 0.92193 0.66395 0.0
O1920 O 0.57132 0.90481 0.73959 0.0
C1921 C 0.59688 0.93743 0.74732 0.0
C1922 C 0.56501 0.92662 0.69092 0.0
C1923 C 0.58296 0.90606 0.67697 0.0
N1924 N 0.58454 0.90976 0.70725 0.0
C1925 C 0.5723 0.92207 0.70648 0.0
C1926 C 0.58997 0.90184 0.69275 0.0
C1927 C 0.57039 0.91853 0.67609 0.0
C1928 C 0.63373 0.89959 0.77442 0.0
N1929 N 0.62207 0.91221 0.77703 0.0
C1930 C 0.65104 0.90257 0.77715 0.0
C1931 C 0.65639 0.9186 0.78256 0.0
C1932 C 0.64442 0.93142 0.78516 0.0
C1933 C 0.62722 0.92799 0.78228 0.0
C1934 C 0.59564 0.91904 0.82471 0.0
C1935 C 0.57888 0.92884 0.79532 0.0
C1936 C 0.60017 0.91234 0.80888 0.0
N1937 N 0.59188 0.91735 0.79444 0.0
C1938 C 0.574 0.93581 0.81092 0.0
C1939 C 0.58248 0.93087 0.8257 0.0
C1940 C 0.56478 0.90381 0.75442 0.0
C1941 C 0.60227 0.85131 0.72475 0.0
C1942 C 0.57584 0.87387 0.71905 0.0
C1943 C 0.57329 0.85651 0.71619 0.0
C1944 C 0.58661 0.84517 0.71908 0.0
N1945 N 0.59123 0.87979 0.7246 0.0
C1946 C 0.60436 0.86876 0.72746 0.0
Co1947 Co 0.09444 0.5982 0.77224 0.0
Co1948 Co 0.1003 0.59596 0.72878 0.0
O1949 O 0.105 0.60591 0.7511 0.0
C1950 C 0.13127 0.59547 0.77979 0.0
O1951 O 0.13312 0.58805 0.76493 0.0
C1952 C 0.09236 0.63245 0.72235 0.0
O1953 O 0.08173 0.63208 0.73523 0.0
O1954 O 0.07518 0.59794 0.73233 0.0
O1955 O 0.07205 0.59542 0.76064 0.0
H1956 H 0.07116 0.55653 0.68769 0.0
H1957 H 0.11381 0.63057 0.77173 0.0
O1958 O 0.11667 0.60071 0.78449 0.0
H1959 H 0.05554 0.64632 0.7888 0.0
H1960 H 0.08386 0.59992 0.8354 0.0
H1961 H 0.07038 0.57062 0.78155 0.0
H1962 H 0.06293 0.61634 0.78316 0.0
H1963 H 0.09665 0.60953 0.8084 0.0
O1964 O 0.10083 0.61923 0.71834 0.0
H1965 H 0.07734 0.56892 0.71587 0.0
H1966 H 0.11336 0.60265 0.69378 0.0
H1967 H 0.05719 0.56067 0.80823 0.0
H1968 H 0.10701 0.6607 0.77738 0.0
H1969 H 0.06391 0.57536 0.83541 0.0
H1970 H 0.07767 0.66873 0.78596 0.0
O1971 O 0.10001 0.57403 0.76716 0.0
H1972 H 0.1607 0.617 0.72973 0.0
H1973 H 0.12332 0.56826 0.71672 0.0
H1974 H 0.15434 0.56534 0.71305 0.0
H1975 H 0.17326 0.58984 0.71955 0.0
H1976 H 0.12961 0.61929 0.73339 0.0
H1977 H 0.10746 0.59073 0.66533 0.0
H1978 H 0.08628 0.56745 0.66217 0.0
O1979 O 0.09992 0.57246 0.73862 0.0
C1980 C 0.06598 0.59633 0.74562 0.0
C1981 C 0.08046 0.56663 0.68891 0.0
C1982 C 0.10081 0.58585 0.67636 0.0
N1983 N 0.09578 0.5864 0.70648 0.0
C1984 C 0.08404 0.57366 0.70484 0.0
C1985 C 0.10407 0.59257 0.69249 0.0
C1986 C 0.08893 0.57278 0.6746 0.0
C1987 C 0.10106 0.63396 0.77559 0.0
N1988 N 0.08882 0.62171 0.77722 0.0
C1989 C 0.09726 0.65104 0.77872 0.0
C1990 C 0.0808 0.65554 0.7835 0.0
C1991 C 0.06837 0.64298 0.78509 0.0
C1992 C 0.07262 0.62603 0.78185 0.0
C1993 C 0.08079 0.59344 0.82363 0.0
C1994 C 0.07327 0.57715 0.79331 0.0
C1995 C 0.08802 0.59881 0.80831 0.0
N1996 N 0.08414 0.59074 0.79339 0.0
C1997 C 0.06581 0.57143 0.80838 0.0
C1998 C 0.0696 0.57966 0.82363 0.0
C1999 C 0.10064 0.56558 0.75332 0.0
C2000 C 0.15259 0.60624 0.72683 0.0
C2001 C 0.13147 0.57893 0.71968 0.0
C2002 C 0.14902 0.57723 0.71751 0.0
C2003 C 0.15963 0.59099 0.72115 0.0
N2004 N 0.12466 0.59392 0.72528 0.0
C2005 C 0.13497 0.60748 0.72883 0.0
Co2006 Co 0.40417 0.09581 0.77198 0.0
Co2007 Co 0.40821 0.0998 0.72845 0.0
O2008 O 0.39776 0.10592 0.75016 0.0
C2009 C 0.40908 0.13261 0.77923 0.0
O2010 O 0.41899 0.1335 0.76581 0.0
C2011 C 0.37139 0.09432 0.72165 0.0
O2012 O 0.37031 0.08623 0.73623 0.0
O2013 O 0.4047 0.07502 0.73294 0.0
O2014 O 0.40644 0.07284 0.76139 0.0
H2015 H 0.44758 0.06688 0.69036 0.0
H2016 H 0.37269 0.11643 0.7695 0.0
O2017 O 0.40194 0.1186 0.78322 0.0
H2018 H 0.35381 0.05945 0.78789 0.0
H2019 H 0.3995 0.08789 0.83538 0.0
H2020 H 0.43022 0.071 0.78335 0.0
H2021 H 0.38427 0.06546 0.78326 0.0
H2022 H 0.39157 0.09999 0.80753 0.0
O2023 O 0.38549 0.10078 0.71692 0.0
H2024 H 0.43442 0.07493 0.71769 0.0
H2025 H 0.40376 0.11171 0.69266 0.0
H2026 H 0.43848 0.05847 0.81092 0.0
H2027 H 0.34212 0.11101 0.77413 0.0
H2028 H 0.42307 0.06691 0.83718 0.0
H2029 H 0.33251 0.08233 0.78334 0.0
O2030 O 0.42881 0.10016 0.7677 0.0
H2031 H 0.39026 0.1611 0.72631 0.0
H2032 H 0.43739 0.12097 0.71634 0.0
H2033 H 0.44198 0.15165 0.71152 0.0
H2034 H 0.41828 0.17195 0.71648 0.0
H2035 H 0.3863 0.13032 0.73113 0.0
H2036 H 0.41647 0.10395 0.66504 0.0
H2037 H 0.4386 0.08143 0.66378 0.0
O2038 O 0.43122 0.09878 0.73925 0.0
C2039 C 0.40553 0.06626 0.74658 0.0
C2040 C 0.43798 0.07674 0.69075 0.0
C2041 C 0.4205 0.09753 0.67653 0.0
N2042 N 0.41841 0.09384 0.70678 0.0
C2043 C 0.43052 0.08138 0.70619 0.0
C2044 C 0.41332 0.10183 0.6922 0.0
C2045 C 0.43292 0.0849 0.67584 0.0
C2046 C 0.36862 0.10397 0.77366 0.0
N2047 N 0.38026 0.09131 0.77618 0.0
C2048 C 0.35129 0.10095 0.77619 0.0
C2049 C 0.3459 0.08485 0.78134 0.0
C2050 C 0.35785 0.072 0.78388 0.0
C2051 C 0.37507 0.07547 0.7812 0.0
C2052 C 0.40628 0.08407 0.82402 0.0
C2053 C 0.42337 0.07464 0.79471 0.0
C2054 C 0.40187 0.0909 0.80822 0.0
N2055 N 0.41032 0.08607 0.79381 0.0
C2056 C 0.42814 0.06755 0.81029 0.0
C2057 C 0.4195 0.0723 0.82502 0.0
C2058 C 0.43769 0.09983 0.75411 0.0
C2059 C 0.40068 0.15238 0.72409 0.0
C2060 C 0.42707 0.12973 0.71865 0.0
C2061 C 0.42971 0.14708 0.71583 0.0
C2062 C 0.41641 0.15846 0.7186 0.0
N2063 N 0.41161 0.12386 0.72403 0.0
C2064 C 0.3985 0.13494 0.72676 0.0
Co2065 Co 0.90454 0.40749 0.72905 0.0
Co2066 Co 0.90724 0.40224 0.77251 0.0
O2067 O 0.89725 0.39706 0.75037 0.0
C2068 C 0.90854 0.37074 0.72146 0.0
O2069 O 0.9178 0.36947 0.73531 0.0
C2070 C 0.87071 0.40966 0.7791 0.0
O2071 O 0.87084 0.42015 0.7661 0.0
O2072 O 0.90476 0.42725 0.76865 0.0
O2073 O 0.90714 0.43011 0.74029 0.0
H2074 H 0.94638 0.43268 0.81293 0.0
H2075 H 0.87244 0.38766 0.73026 0.0
O2076 O 0.90205 0.38499 0.71726 0.0
H2077 H 0.85571 0.44547 0.71247 0.0
H2078 H 0.90194 0.41694 0.66575 0.0
H2079 H 0.93153 0.43194 0.71904 0.0
H2080 H 0.88584 0.43857 0.71787 0.0
H2081 H 0.89291 0.4044 0.69307 0.0
O2082 O 0.88407 0.4014 0.78311 0.0
H2083 H 0.93392 0.42589 0.78492 0.0
H2084 H 0.90105 0.38952 0.80773 0.0
H2085 H 0.9409 0.44489 0.69202 0.0
H2086 H 0.84217 0.39398 0.72486 0.0
H2087 H 0.92606 0.4374 0.66513 0.0
H2088 H 0.83364 0.42308 0.71593 0.0
O2089 O 0.92891 0.40244 0.73395 0.0
H2090 H 0.88745 0.3414 0.7724 0.0
H2091 H 0.93546 0.37994 0.7847 0.0
H2092 H 0.93902 0.34903 0.78879 0.0
H2093 H 0.91488 0.32953 0.78265 0.0
H2094 H 0.88451 0.37239 0.76834 0.0
H2095 H 0.91304 0.39603 0.83601 0.0
H2096 H 0.93592 0.4177 0.83873 0.0
O2097 O 0.93059 0.40298 0.76248 0.0
C2098 C 0.90619 0.43634 0.75526 0.0
C2099 C 0.93645 0.42318 0.81191 0.0
C2100 C 0.91772 0.40262 0.82486 0.0
N2101 N 0.91687 0.40724 0.79468 0.0
C2102 C 0.92938 0.41925 0.79608 0.0
C2103 C 0.91095 0.39902 0.80882 0.0
C2104 C 0.93056 0.41478 0.82638 0.0
C2105 C 0.86884 0.40032 0.72624 0.0
N2106 N 0.8809 0.4127 0.72428 0.0
C2107 C 0.85168 0.40384 0.72327 0.0
C2108 C 0.8469 0.42017 0.71828 0.0
C2109 C 0.85927 0.43274 0.71634 0.0
C2110 C 0.87631 0.42876 0.71945 0.0
C2111 C 0.90848 0.42034 0.67739 0.0
C2112 C 0.92494 0.42872 0.7074 0.0
C2113 C 0.90344 0.41326 0.69289 0.0
N2114 N 0.91158 0.41757 0.70765 0.0
C2115 C 0.93033 0.43604 0.69214 0.0
C2116 C 0.92201 0.43182 0.67705 0.0
C2117 C 0.93743 0.40221 0.74777 0.0
C2118 C 0.89806 0.34977 0.77514 0.0
C2119 C 0.92494 0.37154 0.78191 0.0
C2120 C 0.92701 0.35405 0.7843 0.0
C2121 C 0.91346 0.34311 0.78087 0.0
N2122 N 0.9098 0.37797 0.77629 0.0
C2123 C 0.89645 0.36733 0.77291 0.0
Co2124 Co 0.59486 0.09756 0.27356 0.0
Co2125 Co 0.59999 0.09472 0.23005 0.0
O2126 O 0.60533 0.10476 0.25217 0.0
C2127 C 0.63169 0.09379 0.28063 0.0
O2128 O 0.63311 0.086 0.26592 0.0
C2129 C 0.59301 0.13135 0.22307 0.0
O2130 O 0.58257 0.13153 0.23611 0.0
O2131 O 0.57502 0.09757 0.23398 0.0
O2132 O 0.57221 0.09531 0.26235 0.0
H2133 H 0.56892 0.05578 0.18991 0.0
H2134 H 0.61515 0.12935 0.2724 0.0
O2135 O 0.61733 0.09957 0.28542 0.0
H2136 H 0.55762 0.14696 0.29018 0.0
H2137 H 0.58532 0.10027 0.33685 0.0
H2138 H 0.57016 0.0708 0.28355 0.0
H2139 H 0.56406 0.11672 0.28476 0.0
H2140 H 0.59796 0.10921 0.30955 0.0
O2141 O 0.60109 0.11783 0.21926 0.0
H2142 H 0.57594 0.06831 0.21783 0.0
H2143 H 0.61272 0.10053 0.19476 0.0
H2144 H 0.5571 0.06153 0.31054 0.0
H2145 H 0.6093 0.15973 0.27782 0.0
H2146 H 0.56468 0.07631 0.33745 0.0
H2147 H 0.58035 0.1687 0.28675 0.0
O2148 O 0.59965 0.07316 0.26869 0.0
H2149 H 0.66102 0.11382 0.22987 0.0
H2150 H 0.62193 0.06616 0.21796 0.0
H2151 H 0.65278 0.06221 0.21387 0.0
H2152 H 0.67256 0.08617 0.21982 0.0
H2153 H 0.63008 0.11715 0.23396 0.0
H2154 H 0.606 0.08845 0.16657 0.0
H2155 H 0.584 0.06586 0.16403 0.0
O2156 O 0.599 0.07138 0.24017 0.0
C2157 C 0.56596 0.09634 0.24741 0.0
C2158 C 0.57857 0.06558 0.19086 0.0
C2159 C 0.59936 0.08394 0.17776 0.0
N2160 N 0.59481 0.08504 0.20794 0.0
C2161 C 0.58263 0.07269 0.20664 0.0
C2162 C 0.60308 0.09075 0.19375 0.0
C2163 C 0.58702 0.07125 0.17634 0.0
C2164 C 0.60256 0.13315 0.27641 0.0
N2165 N 0.59 0.12128 0.27836 0.0
C2166 C 0.5993 0.15037 0.2794 0.0
C2167 C 0.58305 0.1554 0.28439 0.0
C2168 C 0.57029 0.14321 0.28631 0.0
C2169 C 0.57401 0.12611 0.28319 0.0
C2170 C 0.58189 0.09376 0.32521 0.0
C2171 C 0.57342 0.07737 0.29519 0.0
C2172 C 0.58903 0.09874 0.30972 0.0
N2173 N 0.58468 0.09063 0.29495 0.0
C2174 C 0.56603 0.07203 0.31044 0.0
C2175 C 0.5703 0.08032 0.32553 0.0
C2176 C 0.59976 0.06459 0.25491 0.0
C2177 C 0.65253 0.10329 0.22722 0.0
C2178 C 0.63045 0.0766 0.22068 0.0
C2179 C 0.64791 0.07431 0.21828 0.0
C2180 C 0.659 0.08777 0.2216 0.0
N2181 N 0.6242 0.09186 0.22621 0.0
C2182 C 0.635 0.10512 0.22945 0.0
Co2183 Co 0.90343 0.59522 0.27257 0.0
Co2184 Co 0.90634 0.59988 0.22905 0.0
O2185 O 0.89631 0.60545 0.25108 0.0
C2186 C 0.90786 0.63203 0.28001 0.0
O2187 O 0.91739 0.63313 0.26634 0.0
C2188 C 0.8697 0.59298 0.22213 0.0
O2189 O 0.86947 0.58253 0.23516 0.0
O2190 O 0.90342 0.57494 0.23321 0.0
O2191 O 0.90589 0.57243 0.26159 0.0
H2192 H 0.94521 0.5684 0.18927 0.0
H2193 H 0.8715 0.6152 0.27096 0.0
O2194 O 0.90106 0.61788 0.28413 0.0
H2195 H 0.85424 0.5577 0.28933 0.0
H2196 H 0.90051 0.58648 0.33596 0.0
H2197 H 0.93019 0.57073 0.28297 0.0
H2198 H 0.88444 0.56438 0.28402 0.0
H2199 H 0.89168 0.59877 0.30846 0.0
O2200 O 0.88327 0.60096 0.21825 0.0
H2201 H 0.93269 0.5757 0.21711 0.0
H2202 H 0.90058 0.61226 0.19362 0.0
H2203 H 0.93935 0.55803 0.31017 0.0
H2204 H 0.84115 0.60911 0.27626 0.0
H2205 H 0.92447 0.5659 0.33691 0.0
H2206 H 0.83236 0.58017 0.28549 0.0
O2207 O 0.92786 0.60009 0.26773 0.0
H2208 H 0.88757 0.661 0.22853 0.0
H2209 H 0.93491 0.62165 0.21657 0.0
H2210 H 0.93898 0.65246 0.21219 0.0
H2211 H 0.91519 0.67237 0.21815 0.0
H2212 H 0.88412 0.63009 0.2329 0.0
H2213 H 0.91264 0.60524 0.16551 0.0
H2214 H 0.93517 0.58322 0.16323 0.0
O2215 O 0.92963 0.59897 0.23922 0.0
C2216 C 0.9048 0.566 0.24671 0.0
C2217 C 0.93544 0.57805 0.19011 0.0
C2218 C 0.91714 0.59872 0.17677 0.0
N2219 N 0.91602 0.59448 0.207 0.0
C2220 C 0.92834 0.58228 0.20584 0.0
C2221 C 0.91033 0.60261 0.19272 0.0
C2222 C 0.92979 0.58636 0.1755 0.0
C2223 C 0.86777 0.60262 0.2751 0.0
N2224 N 0.87973 0.59019 0.27727 0.0
C2225 C 0.85057 0.59923 0.27803 0.0
C2226 C 0.84564 0.58298 0.28319 0.0
C2227 C 0.85791 0.57036 0.28534 0.0
C2228 C 0.87499 0.57421 0.28227 0.0
C2229 C 0.90707 0.58292 0.32438 0.0
C2230 C 0.92357 0.57412 0.29454 0.0
C2231 C 0.90214 0.58986 0.30878 0.0
N2232 N 0.91031 0.58534 0.29411 0.0
C2233 C 0.92885 0.56693 0.30991 0.0
C2234 C 0.92051 0.57137 0.32491 0.0
C2235 C 0.93642 0.6 0.25394 0.0
C2236 C 0.89804 0.65245 0.22587 0.0
C2237 C 0.92454 0.63023 0.21931 0.0
C2238 C 0.9269 0.64767 0.21674 0.0
C2239 C 0.91354 0.65883 0.22007 0.0
N2240 N 0.90931 0.62407 0.22501 0.0
C2241 C 0.89614 0.63494 0.22828 0.0
Co2242 Co 0.40216 0.90583 0.23003 0.0
Co2243 Co 0.40768 0.90351 0.27354 0.0
O2244 O 0.39705 0.89602 0.25231 0.0
C2245 C 0.4094 0.86919 0.22322 0.0
O2246 O 0.42011 0.86921 0.23605 0.0
C2247 C 0.37089 0.9071 0.28113 0.0
O2248 O 0.36911 0.91469 0.26635 0.0
O2249 O 0.40264 0.92782 0.26846 0.0
O2250 O 0.40313 0.9293 0.23992 0.0
H2251 H 0.44551 0.94027 0.30978 0.0
H2252 H 0.37221 0.88332 0.23439 0.0
O2253 O 0.40107 0.88259 0.21948 0.0
H2254 H 0.3491 0.93793 0.2139 0.0
H2255 H 0.39558 0.91138 0.16654 0.0
H2256 H 0.42596 0.93224 0.21736 0.0
H2257 H 0.38 0.93417 0.21783 0.0
H2258 H 0.38917 0.89957 0.1949 0.0
O2259 O 0.38538 0.90145 0.28569 0.0
H2260 H 0.43223 0.93062 0.28301 0.0
H2261 H 0.40514 0.89216 0.30965 0.0
H2262 H 0.43267 0.94452 0.18926 0.0
H2263 H 0.34122 0.88645 0.23047 0.0
H2264 H 0.41742 0.93407 0.1636 0.0
H2265 H 0.32948 0.91394 0.22021 0.0
O2266 O 0.42719 0.90315 0.23378 0.0
H2267 H 0.39379 0.84128 0.27846 0.0
H2268 H 0.43876 0.8847 0.28459 0.0
H2269 H 0.4455 0.85456 0.29019 0.0
H2270 H 0.42291 0.83262 0.28716 0.0
H2271 H 0.38764 0.87156 0.27287 0.0
H2272 H 0.418 0.90149 0.33674 0.0
H2273 H 0.43841 0.92566 0.33689 0.0
O2274 O 0.43019 0.90583 0.26209 0.0
C2275 C 0.40241 0.93625 0.25459 0.0
C2276 C 0.43669 0.92968 0.30987 0.0
C2277 C 0.42123 0.90793 0.325 0.0
N2278 N 0.41805 0.91075 0.29475 0.0
C2279 C 0.42917 0.92412 0.29474 0.0
C2280 C 0.41396 0.90273 0.30963 0.0
C2281 C 0.43268 0.92149 0.32508 0.0
C2282 C 0.3672 0.89528 0.2298 0.0
N2283 N 0.3779 0.90855 0.22635 0.0
C2284 C 0.34964 0.89699 0.22766 0.0
C2285 C 0.34306 0.91243 0.22192 0.0
C2286 C 0.35406 0.9259 0.2184 0.0
C2287 C 0.37154 0.92372 0.22071 0.0
C2288 C 0.40229 0.91606 0.17763 0.0
C2289 C 0.4192 0.92771 0.20627 0.0
C2290 C 0.39874 0.90939 0.19372 0.0
N2291 N 0.4071 0.9153 0.20779 0.0
C2292 C 0.42309 0.93467 0.19039 0.0
C2293 C 0.41454 0.92879 0.17599 0.0
C2294 C 0.43633 0.90465 0.24712 0.0
C2295 C 0.40373 0.85073 0.27987 0.0
C2296 C 0.42887 0.87522 0.28321 0.0
C2297 C 0.43276 0.85818 0.28642 0.0
C2298 C 0.42008 0.84588 0.28473 0.0
N2299 N 0.41279 0.87988 0.2785 0.0
C2300 C 0.4003 0.86789 0.27678 0.0
Co2301 Co 0.09888 0.40811 0.27508 0.0
Co2302 Co 0.09515 0.40428 0.23149 0.0
O2303 O 0.10508 0.39772 0.25334 0.0
C2304 C 0.09334 0.37123 0.28169 0.0
O2305 O 0.08527 0.37017 0.26709 0.0
C2306 C 0.13198 0.40925 0.22438 0.0
O2307 O 0.13283 0.41912 0.23785 0.0
O2308 O 0.09956 0.42888 0.23595 0.0
O2309 O 0.09802 0.43117 0.2644 0.0
H2310 H 0.0582 0.43895 0.19251 0.0
H2311 H 0.12931 0.38608 0.27243 0.0
O2312 O 0.09973 0.38535 0.28649 0.0
H2313 H 0.15078 0.44159 0.29247 0.0
H2314 H 0.10277 0.41611 0.33854 0.0
H2315 H 0.07406 0.43438 0.28582 0.0
H2316 H 0.12012 0.43715 0.28747 0.0
H2317 H 0.1106 0.40347 0.3109 0.0
O2318 O 0.118 0.40205 0.22037 0.0
H2319 H 0.07052 0.4305 0.22011 0.0
H2320 H 0.09948 0.39184 0.1959 0.0
H2321 H 0.06595 0.44747 0.31317 0.0
H2322 H 0.16008 0.38989 0.27742 0.0
H2323 H 0.08035 0.43833 0.33978 0.0
H2324 H 0.171 0.41783 0.28747 0.0
O2325 O 0.0741 0.40476 0.27042 0.0
H2326 H 0.11016 0.34217 0.22904 0.0
H2327 H 0.0648 0.38454 0.21991 0.0
H2328 H 0.05873 0.35412 0.21504 0.0
H2329 H 0.08151 0.3327 0.21958 0.0
H2330 H 0.11565 0.37272 0.23391 0.0
H2331 H 0.08758 0.39996 0.16802 0.0
H2332 H 0.06672 0.42363 0.16621 0.0
O2333 O 0.07213 0.4066 0.24196 0.0
C2334 C 0.09919 0.43769 0.24958 0.0
C2335 C 0.06722 0.42857 0.19314 0.0
C2336 C 0.08373 0.4067 0.17939 0.0
N2337 N 0.08556 0.41058 0.20964 0.0
C2338 C 0.0742 0.42369 0.20874 0.0
C2339 C 0.09044 0.40218 0.19521 0.0
C2340 C 0.07202 0.41998 0.17839 0.0
C2341 C 0.13396 0.39824 0.2769 0.0
N2342 N 0.12293 0.41139 0.27964 0.0
C2343 C 0.1514 0.40034 0.27966 0.0
C2344 C 0.15752 0.41602 0.28528 0.0
C2345 C 0.14618 0.42936 0.28807 0.0
C2346 C 0.12884 0.4268 0.28515 0.0
C2347 C 0.09642 0.42021 0.32703 0.0
C2348 C 0.08045 0.43041 0.29734 0.0
C2349 C 0.10076 0.41307 0.31135 0.0
N2350 N 0.09286 0.41825 0.29676 0.0
C2351 C 0.07577 0.43783 0.31279 0.0
C2352 C 0.08384 0.43269 0.32772 0.0
C2353 C 0.06543 0.40573 0.25671 0.0
C2354 C 0.10014 0.35139 0.22697 0.0
C2355 C 0.07477 0.37529 0.22197 0.0
C2356 C 0.07126 0.35809 0.21915 0.0
C2357 C 0.08406 0.34608 0.22169 0.0
N2358 N 0.09059 0.3804 0.22712 0.0
C2359 C 0.10319 0.3687 0.22964 0.0
Co2360 Co 0.77344 0.59957 0.90697 0.0
Co2361 Co 0.72996 0.59525 0.90205 0.0
O2362 O 0.75184 0.60551 0.89629 0.0
C2363 C 0.7807 0.59266 0.87049 0.0
O2364 O 0.76708 0.58298 0.86999 0.0
C2365 C 0.72328 0.63196 0.90828 0.0
O2366 O 0.73673 0.63236 0.91818 0.0
O2367 O 0.73407 0.59835 0.92699 0.0
O2368 O 0.76252 0.59896 0.92986 0.0
H2369 H 0.69073 0.55602 0.93385 0.0
H2370 H 0.77091 0.62969 0.88442 0.0
O2371 O 0.78488 0.60026 0.88419 0.0
H2372 H 0.79026 0.65204 0.93979 0.0
H2373 H 0.83686 0.60384 0.91509 0.0
H2374 H 0.78414 0.57541 0.93389 0.0
H2375 H 0.78538 0.62129 0.93578 0.0
H2376 H 0.80925 0.61125 0.90215 0.0
O2377 O 0.71895 0.6182 0.90085 0.0
H2378 H 0.7184 0.56884 0.92638 0.0
H2379 H 0.69444 0.60052 0.88975 0.0
H2380 H 0.81147 0.56771 0.94728 0.0
H2381 H 0.7758 0.66053 0.8878 0.0
H2382 H 0.83808 0.58197 0.93788 0.0
H2383 H 0.7855 0.6719 0.91566 0.0
O2384 O 0.76896 0.57466 0.90414 0.0
H2385 H 0.72902 0.61362 0.84082 0.0
H2386 H 0.7178 0.56637 0.88054 0.0
H2387 H 0.71337 0.56201 0.84979 0.0
H2388 H 0.71896 0.58577 0.82969 0.0
H2389 H 0.73344 0.61734 0.87167 0.0
H2390 H 0.66648 0.58814 0.89691 0.0
H2391 H 0.66452 0.56568 0.91906 0.0
O2392 O 0.74048 0.57218 0.90312 0.0
C2393 C 0.74753 0.59895 0.93609 0.0
C2394 C 0.69143 0.56576 0.92414 0.0
C2395 C 0.67782 0.58381 0.90343 0.0
N2396 N 0.70805 0.58531 0.90756 0.0
C2397 C 0.70707 0.57303 0.91982 0.0
C2398 C 0.69368 0.5908 0.89945 0.0
C2399 C 0.67672 0.5712 0.91585 0.0
C2400 C 0.77523 0.63453 0.89655 0.0
N2401 N 0.77786 0.6237 0.90989 0.0
C2402 C 0.77794 0.65201 0.8984 0.0
C2403 C 0.78336 0.65838 0.91405 0.0
C2404 C 0.78602 0.64725 0.92759 0.0
C2405 C 0.78317 0.62985 0.92527 0.0
C2406 C 0.82535 0.59756 0.91932 0.0
C2407 C 0.79566 0.58174 0.92981 0.0
C2408 C 0.80969 0.60167 0.91201 0.0
N2409 N 0.79509 0.59385 0.91735 0.0
C2410 C 0.8111 0.5773 0.9374 0.0
C2411 C 0.82602 0.58529 0.93211 0.0
C2412 C 0.75538 0.56575 0.90345 0.0
C2413 C 0.72653 0.60317 0.84945 0.0
C2414 C 0.72037 0.57671 0.87188 0.0
C2415 C 0.71777 0.5742 0.85448 0.0
C2416 C 0.7209 0.58754 0.84321 0.0
N2417 N 0.72589 0.59208 0.8779 0.0
C2418 C 0.72897 0.60522 0.86693 0.0
Co2419 Co 0.72809 0.40687 0.09875 0.0
Co2420 Co 0.77159 0.40379 0.09557 0.0
O2421 O 0.74986 0.39687 0.10561 0.0
C2422 C 0.72118 0.36982 0.09517 0.0
O2423 O 0.73566 0.36837 0.08697 0.0
C2424 C 0.77879 0.40742 0.13254 0.0
O2425 O 0.76435 0.41566 0.13415 0.0
O2426 O 0.76686 0.42814 0.10072 0.0
O2427 O 0.73873 0.42989 0.09619 0.0
H2428 H 0.80969 0.43992 0.05905 0.0
H2429 H 0.73012 0.38689 0.13063 0.0
O2430 O 0.71662 0.38419 0.10113 0.0
H2431 H 0.71146 0.44419 0.14813 0.0
H2432 H 0.66467 0.41523 0.10232 0.0
H2433 H 0.71724 0.43108 0.07193 0.0
H2434 H 0.7165 0.43761 0.11787 0.0
H2435 H 0.69233 0.40322 0.11098 0.0
O2436 O 0.78315 0.40136 0.11816 0.0
H2437 H 0.78237 0.43083 0.07154 0.0
H2438 H 0.80736 0.39155 0.09895 0.0
H2439 H 0.68987 0.44352 0.06295 0.0
H2440 H 0.72507 0.39288 0.16104 0.0
H2441 H 0.66333 0.4356 0.07818 0.0
H2442 H 0.71572 0.42173 0.16995 0.0
O2443 O 0.73278 0.40185 0.07437 0.0
H2444 H 0.77483 0.34145 0.10932 0.0
H2445 H 0.78306 0.38481 0.06471 0.0
H2446 H 0.78816 0.35457 0.058 0.0
H2447 H 0.78407 0.33266 0.08041 0.0
H2448 H 0.76972 0.37183 0.11544 0.0
H2449 H 0.83498 0.40031 0.08688 0.0
H2450 H 0.83625 0.42462 0.06671 0.0
O2451 O 0.7609 0.40646 0.07264 0.0
C2452 C 0.75326 0.43672 0.09863 0.0
C2453 C 0.80929 0.42928 0.06778 0.0
C2454 C 0.82349 0.40706 0.08341 0.0
N2455 N 0.79325 0.41059 0.08585 0.0
C2456 C 0.79385 0.42404 0.07486 0.0
C2457 C 0.80782 0.40218 0.09024 0.0
C2458 C 0.82419 0.4207 0.0721 0.0
C2459 C 0.7259 0.39942 0.13441 0.0
N2460 N 0.72354 0.41185 0.12249 0.0
C2461 C 0.72313 0.40276 0.15164 0.0
C2462 C 0.71791 0.41896 0.15664 0.0
C2463 C 0.71553 0.43157 0.1444 0.0
C2464 C 0.71844 0.42778 0.12729 0.0
C2465 C 0.67614 0.41881 0.0956 0.0
C2466 C 0.70576 0.42765 0.07869 0.0
C2467 C 0.69184 0.41202 0.10042 0.0
N2468 N 0.7064 0.41654 0.09205 0.0
C2469 C 0.69029 0.4347 0.07352 0.0
C2470 C 0.6754 0.43024 0.08206 0.0
C2471 C 0.74637 0.40405 0.0658 0.0
C2472 C 0.7767 0.35088 0.09947 0.0
C2473 C 0.7812 0.37534 0.07451 0.0
C2474 C 0.78414 0.35825 0.07065 0.0
C2475 C 0.78186 0.34596 0.08323 0.0
N2476 N 0.77616 0.38007 0.09048 0.0
C2477 C 0.77389 0.3681 0.10287 0.0
Co2478 Co 0.59805 0.77281 0.09383 0.0
Co2479 Co 0.59453 0.72932 0.09774 0.0
O2480 O 0.60473 0.75114 0.10414 0.0
C2481 C 0.59457 0.7799 0.13074 0.0
O2482 O 0.58651 0.76534 0.13229 0.0
C2483 C 0.63142 0.72243 0.09355 0.0
O2484 O 0.63263 0.73682 0.08514 0.0
O2485 O 0.59918 0.73365 0.07323 0.0
O2486 O 0.5955 0.76189 0.07101 0.0
H2487 H 0.55709 0.69068 0.0631 0.0
H2488 H 0.62985 0.77091 0.11399 0.0
O2489 O 0.6004 0.7845 0.11633 0.0
H2490 H 0.64769 0.78867 0.05652 0.0
H2491 H 0.60211 0.83612 0.08467 0.0
H2492 H 0.57139 0.78352 0.06938 0.0
H2493 H 0.61737 0.78386 0.06303 0.0
H2494 H 0.61052 0.80855 0.09707 0.0
O2495 O 0.61721 0.71787 0.09988 0.0
H2496 H 0.56981 0.71816 0.07148 0.0
H2497 H 0.59826 0.69373 0.11038 0.0
H2498 H 0.56264 0.8108 0.05656 0.0
H2499 H 0.66031 0.77573 0.10807 0.0
H2500 H 0.57805 0.83735 0.06419 0.0
H2501 H 0.66939 0.78462 0.07914 0.0
O2502 O 0.57362 0.76833 0.09878 0.0
H2503 H 0.60957 0.72695 0.15981 0.0
H2504 H 0.56404 0.71818 0.1175 0.0
H2505 H 0.55794 0.71354 0.14792 0.0
H2506 H 0.58081 0.7179 0.16931 0.0
H2507 H 0.61507 0.73161 0.12925 0.0
H2508 H 0.58598 0.66596 0.10232 0.0
H2509 H 0.56517 0.66433 0.07857 0.0
O2510 O 0.57154 0.74004 0.09536 0.0
C2511 C 0.59747 0.74717 0.06444 0.0
C2512 C 0.5661 0.69123 0.07351 0.0
C2513 C 0.58233 0.67736 0.09551 0.0
N2514 N 0.58465 0.70756 0.09149 0.0
C2515 C 0.5733 0.70676 0.07834 0.0
C2516 C 0.58927 0.69311 0.09999 0.0
C2517 C 0.57065 0.67645 0.08218 0.0
C2518 C 0.6337 0.77493 0.10142 0.0
N2519 N 0.62185 0.77717 0.0889 0.0
C2520 C 0.65096 0.77757 0.09812 0.0
C2521 C 0.65606 0.78254 0.08188 0.0
C2522 C 0.64389 0.7848 0.06918 0.0
C2523 C 0.62674 0.78202 0.07293 0.0
C2524 C 0.59532 0.82464 0.08121 0.0
C2525 C 0.57822 0.79501 0.07268 0.0
C2526 C 0.6 0.80899 0.08822 0.0
N2527 N 0.59154 0.79442 0.08385 0.0
C2528 C 0.57318 0.81042 0.06542 0.0
C2529 C 0.58182 0.82532 0.06972 0.0
C2530 C 0.56488 0.75474 0.09721 0.0
C2531 C 0.59951 0.72497 0.15061 0.0
C2532 C 0.57404 0.72017 0.12673 0.0
C2533 C 0.57053 0.71747 0.14394 0.0
C2534 C 0.58337 0.71991 0.15593 0.0
N2535 N 0.58992 0.7251 0.12161 0.0
C2536 C 0.60258 0.72752 0.13329 0.0
Co2537 Co 0.27139 0.59555 0.09815 0.0
Co2538 Co 0.22783 0.59916 0.09386 0.0
O2539 O 0.24946 0.60548 0.1044 0.0
C2540 C 0.27811 0.63238 0.09274 0.0
O2541 O 0.26463 0.6329 0.08289 0.0
C2542 C 0.22097 0.59378 0.13068 0.0
O2543 O 0.23567 0.58595 0.13194 0.0
O2544 O 0.23252 0.57442 0.0973 0.0
O2545 O 0.26101 0.57241 0.09618 0.0
H2546 H 0.19013 0.56591 0.0543 0.0
H2547 H 0.26867 0.61662 0.12933 0.0
O2548 O 0.28236 0.61854 0.10006 0.0
H2549 H 0.28766 0.56014 0.14901 0.0
H2550 H 0.33488 0.58848 0.10301 0.0
H2551 H 0.28304 0.5704 0.07254 0.0
H2552 H 0.28297 0.56564 0.11847 0.0
H2553 H 0.30688 0.6004 0.1107 0.0
O2554 O 0.21623 0.60002 0.1165 0.0
H2555 H 0.21735 0.5742 0.06758 0.0
H2556 H 0.19193 0.61077 0.09816 0.0
H2557 H 0.31075 0.55805 0.06452 0.0
H2558 H 0.27336 0.61172 0.15998 0.0
H2559 H 0.33692 0.5671 0.07981 0.0
H2560 H 0.28287 0.5833 0.17 0.0
O2561 O 0.26712 0.59949 0.07345 0.0
H2562 H 0.2252 0.66042 0.11199 0.0
H2563 H 0.21558 0.62029 0.06472 0.0
H2564 H 0.21056 0.65093 0.06022 0.0
H2565 H 0.21534 0.67124 0.08398 0.0
H2566 H 0.23024 0.62967 0.11586 0.0
H2567 H 0.16441 0.60277 0.08534 0.0
H2568 H 0.1634 0.58023 0.06318 0.0
O2569 O 0.23868 0.59828 0.07093 0.0
C2570 C 0.24622 0.56573 0.09681 0.0
C2571 C 0.1904 0.57578 0.06391 0.0
C2572 C 0.17597 0.59645 0.08135 0.0
N2573 N 0.20624 0.59302 0.08356 0.0
C2574 C 0.20579 0.58055 0.07144 0.0
C2575 C 0.19158 0.60089 0.0886 0.0
C2576 C 0.17541 0.58381 0.06891 0.0
C2577 C 0.27296 0.60426 0.13358 0.0
N2578 N 0.27562 0.59146 0.12213 0.0
C2579 C 0.27553 0.60154 0.15096 0.0
C2580 C 0.28085 0.58559 0.15657 0.0
C2581 C 0.28352 0.57259 0.1448 0.0
C2582 C 0.28081 0.57576 0.12753 0.0
C2583 C 0.32356 0.58441 0.09628 0.0
C2584 C 0.29436 0.57431 0.07933 0.0
C2585 C 0.30768 0.59113 0.10056 0.0
N2586 N 0.29333 0.58597 0.09218 0.0
C2587 C 0.31002 0.56731 0.0747 0.0
C2588 C 0.3247 0.57241 0.08327 0.0
C2589 C 0.25356 0.59923 0.06453 0.0
C2590 C 0.22306 0.6517 0.10154 0.0
C2591 C 0.21781 0.62905 0.07507 0.0
C2592 C 0.21488 0.64638 0.07247 0.0
C2593 C 0.21755 0.65776 0.08582 0.0
N2594 N 0.22322 0.6232 0.09052 0.0
C2595 C 0.22585 0.63427 0.10367 0.0
Co2596 Co 0.40134 0.23025 0.09561 0.0
Co2597 Co 0.40577 0.27387 0.10033 0.0
O2598 O 0.39527 0.252 0.10619 0.0
C2599 C 0.40688 0.22305 0.13242 0.0
O2600 O 0.41456 0.23782 0.13398 0.0
C2601 C 0.36897 0.28066 0.09427 0.0
O2602 O 0.36785 0.266 0.08631 0.0
O2603 O 0.40294 0.26958 0.07538 0.0
O2604 O 0.40211 0.24113 0.0728 0.0
H2605 H 0.44582 0.31227 0.06854 0.0
H2606 H 0.37111 0.23276 0.11794 0.0
O2607 O 0.40061 0.21854 0.11818 0.0
H2608 H 0.34906 0.21348 0.06243 0.0
H2609 H 0.397 0.16687 0.08688 0.0
H2610 H 0.42598 0.21966 0.06912 0.0
H2611 H 0.37978 0.21827 0.06664 0.0
H2612 H 0.38936 0.19442 0.09983 0.0
O2613 O 0.38304 0.28535 0.10084 0.0
H2614 H 0.43253 0.28484 0.07614 0.0
H2615 H 0.40101 0.3096 0.11236 0.0
H2616 H 0.4339 0.19241 0.05571 0.0
H2617 H 0.34029 0.22796 0.11437 0.0
H2618 H 0.41937 0.16576 0.06459 0.0
H2619 H 0.32907 0.21831 0.08643 0.0
O2620 O 0.4262 0.23469 0.09879 0.0
H2621 H 0.38627 0.27565 0.16116 0.0
H2622 H 0.43438 0.28597 0.12227 0.0
H2623 H 0.43821 0.2906 0.15306 0.0
H2624 H 0.41402 0.28546 0.17274 0.0
H2625 H 0.38309 0.27101 0.13028 0.0
H2626 H 0.41384 0.33731 0.10505 0.0
H2627 H 0.43647 0.33876 0.08303 0.0
O2628 O 0.42872 0.26316 0.0998 0.0
C2629 C 0.40227 0.25604 0.06643 0.0
C2630 C 0.436 0.3118 0.07818 0.0
C2631 C 0.41803 0.32586 0.09865 0.0
N2632 N 0.41608 0.29561 0.09474 0.0
C2633 C 0.42847 0.2963 0.08256 0.0
C2634 C 0.41078 0.31014 0.1027 0.0
C2635 C 0.43074 0.32666 0.0863 0.0
C2636 C 0.36633 0.22846 0.10578 0.0
N2637 N 0.37724 0.22583 0.0925 0.0
C2638 C 0.34887 0.2258 0.10382 0.0
C2639 C 0.34258 0.22041 0.08813 0.0
C2640 C 0.35378 0.21772 0.07466 0.0
C2641 C 0.37117 0.22052 0.07709 0.0
C2642 C 0.40341 0.17839 0.08289 0.0
C2643 C 0.41953 0.20813 0.07299 0.0
C2644 C 0.39918 0.19402 0.09022 0.0
N2645 N 0.40717 0.20864 0.08519 0.0
C2646 C 0.4241 0.19273 0.06538 0.0
C2647 C 0.41596 0.17778 0.07038 0.0
C2648 C 0.43512 0.24826 0.09966 0.0
C2649 C 0.39691 0.27795 0.15272 0.0
C2650 C 0.42385 0.28358 0.13075 0.0
C2651 C 0.42606 0.2863 0.14818 0.0
C2652 C 0.41248 0.28343 0.15921 0.0
N2653 N 0.40855 0.27818 0.12448 0.0
C2654 C 0.39516 0.27539 0.13521 0.0
Co2655 Co 0.23193 0.40366 0.90746 0.0
Co2656 Co 0.27549 0.4077 0.90359 0.0
O2657 O 0.25379 0.3971 0.89757 0.0
C2658 C 0.2249 0.408 0.87058 0.0
O2659 O 0.23842 0.41779 0.86963 0.0
C2660 C 0.28227 0.37094 0.90956 0.0
O2661 O 0.26766 0.36989 0.91759 0.0
O2662 O 0.27092 0.40469 0.92841 0.0
O2663 O 0.24245 0.40634 0.93042 0.0
H2664 H 0.31348 0.44779 0.93588 0.0
H2665 H 0.23444 0.37186 0.88732 0.0
O2666 O 0.22078 0.40108 0.88465 0.0
H2667 H 0.21581 0.35389 0.94447 0.0
H2668 H 0.1685 0.39906 0.9152 0.0
H2669 H 0.22048 0.43013 0.93181 0.0
H2670 H 0.22053 0.38425 0.93804 0.0
H2671 H 0.19639 0.39097 0.90332 0.0
O2672 O 0.28701 0.385 0.90303 0.0
H2673 H 0.28617 0.43441 0.92801 0.0
H2674 H 0.31131 0.4031 0.89186 0.0
H2675 H 0.19287 0.43855 0.94411 0.0
H2676 H 0.22972 0.34136 0.89316 0.0
H2677 H 0.16663 0.42296 0.93581 0.0
H2678 H 0.22038 0.33221 0.92193 0.0
O2679 O 0.23625 0.42824 0.90275 0.0
H2680 H 0.2777 0.38856 0.84265 0.0
H2681 H 0.28772 0.43646 0.88192 0.0
H2682 H 0.29257 0.44046 0.85119 0.0
H2683 H 0.28758 0.41637 0.83131 0.0
H2684 H 0.27284 0.38519 0.87347 0.0
H2685 H 0.33891 0.41602 0.89945 0.0
H2686 H 0.3401 0.43859 0.92156 0.0
O2687 O 0.2647 0.4307 0.90414 0.0
C2688 C 0.25723 0.40565 0.9371 0.0
C2689 C 0.31312 0.438 0.9262 0.0
C2690 C 0.3274 0.42015 0.90577 0.0
N2691 N 0.29714 0.41806 0.90943 0.0
C2692 C 0.29769 0.43041 0.92166 0.0
C2693 C 0.31174 0.41284 0.90156 0.0
C2694 C 0.32805 0.43282 0.91817 0.0
C2695 C 0.23022 0.36798 0.89982 0.0
N2696 N 0.22768 0.37982 0.91229 0.0
C2697 C 0.22764 0.35069 0.90307 0.0
C2698 C 0.22242 0.34556 0.91923 0.0
C2699 C 0.21987 0.35772 0.93189 0.0
C2700 C 0.2226 0.37489 0.92818 0.0
C2701 C 0.17984 0.40592 0.91895 0.0
C2702 C 0.20913 0.42321 0.92823 0.0
C2703 C 0.19567 0.40142 0.91225 0.0
N2704 N 0.21007 0.40997 0.917 0.0
C2705 C 0.19353 0.42807 0.9352 0.0
C2706 C 0.17881 0.41933 0.93052 0.0
C2707 C 0.24985 0.43714 0.90294 0.0
C2708 C 0.27993 0.39915 0.85117 0.0
C2709 C 0.2854 0.42598 0.87335 0.0
C2710 C 0.28824 0.42829 0.85596 0.0
C2711 C 0.28545 0.41476 0.84482 0.0
N2712 N 0.27997 0.41063 0.87948 0.0
C2713 C 0.27724 0.39731 0.86864 0.0
Co2714 Co 0.59563 0.27414 0.90294 0.0
Co2715 Co 0.6002 0.23051 0.9073 0.0
O2716 O 0.60614 0.25236 0.89684 0.0
C2717 C 0.63251 0.28103 0.90843 0.0
O2718 O 0.63385 0.26623 0.91608 0.0
C2719 C 0.59436 0.22349 0.87048 0.0
O2720 O 0.58639 0.23812 0.86919 0.0
O2721 O 0.5753 0.23482 0.90426 0.0
O2722 O 0.57273 0.26329 0.90361 0.0
H2723 H 0.56797 0.1922 0.94708 0.0
H2724 H 0.618 0.2715 0.87274 0.0
O2725 O 0.61829 0.28576 0.90227 0.0
H2726 H 0.56266 0.2911 0.85064 0.0
H2727 H 0.58728 0.33756 0.89874 0.0
H2728 H 0.56906 0.2848 0.92747 0.0
H2729 H 0.5668 0.2863 0.88136 0.0
H2730 H 0.60013 0.30997 0.8911 0.0
O2731 O 0.60088 0.21896 0.8846 0.0
H2732 H 0.57572 0.21959 0.93383 0.0
H2733 H 0.61227 0.19478 0.90273 0.0
H2734 H 0.55576 0.31209 0.93539 0.0
H2735 H 0.6145 0.27631 0.84192 0.0
H2736 H 0.56487 0.33873 0.92099 0.0
H2737 H 0.58664 0.28611 0.83068 0.0
O2738 O 0.59872 0.26971 0.92783 0.0
H2739 H 0.66117 0.22864 0.88825 0.0
H2740 H 0.62192 0.21854 0.93611 0.0
H2741 H 0.65268 0.21391 0.94016 0.0
H2742 H 0.67254 0.21895 0.9161 0.0
H2743 H 0.63031 0.23328 0.88484 0.0
H2744 H 0.60481 0.1671 0.91552 0.0
H2745 H 0.58255 0.1657 0.93792 0.0
O2746 O 0.59948 0.24124 0.93022 0.0
C2747 C 0.56636 0.24836 0.90361 0.0
C2748 C 0.57772 0.19265 0.93736 0.0
C2749 C 0.59837 0.17856 0.91963 0.0
N2750 N 0.59449 0.2088 0.91758 0.0
C2751 C 0.58219 0.20813 0.92984 0.0
C2752 C 0.60251 0.19426 0.91239 0.0
C2753 C 0.58589 0.17778 0.9322 0.0
C2754 C 0.60587 0.27587 0.86795 0.0
N2755 N 0.5926 0.27857 0.87884 0.0
C2756 C 0.60395 0.27853 0.85048 0.0
C2757 C 0.58831 0.28401 0.84418 0.0
C2758 C 0.57485 0.28679 0.85537 0.0
C2759 C 0.57723 0.28398 0.87275 0.0
C2760 C 0.58319 0.32604 0.9051 0.0
C2761 C 0.57303 0.29632 0.92108 0.0
C2762 C 0.59046 0.31039 0.90086 0.0
N2763 N 0.5853 0.29578 0.90878 0.0
C2764 C 0.56548 0.31175 0.92565 0.0
C2765 C 0.57061 0.32669 0.91757 0.0
C2766 C 0.5994 0.25612 0.9367 0.0
C2767 C 0.65264 0.22639 0.89883 0.0
C2768 C 0.63048 0.22088 0.92564 0.0
C2769 C 0.64789 0.21816 0.92797 0.0
C2770 C 0.65902 0.22097 0.91446 0.0
N2771 N 0.62433 0.22621 0.91027 0.0
C2772 C 0.63516 0.22895 0.89696 0.0
Co2773 Co 0.40964 0.72857 0.90263 0.0
Co2774 Co 0.40502 0.77209 0.9066 0.0
O2775 O 0.39895 0.75016 0.89647 0.0
C2776 C 0.37287 0.72143 0.90792 0.0
O2777 O 0.37159 0.73609 0.91583 0.0
C2778 C 0.41033 0.77925 0.86983 0.0
O2779 O 0.42039 0.76593 0.86916 0.0
O2780 O 0.42976 0.7681 0.90258 0.0
O2781 O 0.4325 0.73966 0.90364 0.0
H2782 H 0.43841 0.81152 0.94435 0.0
H2783 H 0.38766 0.73097 0.87211 0.0
O2784 O 0.38707 0.71678 0.90165 0.0
H2785 H 0.44351 0.71197 0.85081 0.0
H2786 H 0.4186 0.66524 0.89852 0.0
H2787 H 0.436 0.71816 0.9275 0.0
H2788 H 0.43892 0.71677 0.88146 0.0
H2789 H 0.40558 0.69271 0.89074 0.0
O2790 O 0.40296 0.78324 0.88371 0.0
H2791 H 0.43061 0.78382 0.93177 0.0
H2792 H 0.39213 0.80749 0.90213 0.0
H2793 H 0.44947 0.69098 0.93557 0.0
H2794 H 0.39162 0.72616 0.84135 0.0
H2795 H 0.44077 0.66427 0.92103 0.0
H2796 H 0.41973 0.71664 0.83051 0.0
O2797 O 0.40613 0.73305 0.92739 0.0
H2798 H 0.34314 0.77352 0.89055 0.0
H2799 H 0.38465 0.7832 0.93664 0.0
H2800 H 0.35408 0.7875 0.94223 0.0
H2801 H 0.33309 0.78268 0.91908 0.0
H2802 H 0.37383 0.76922 0.88556 0.0
H2803 H 0.3996 0.83548 0.91429 0.0
H2804 H 0.42285 0.8376 0.93561 0.0
O2805 O 0.40714 0.76155 0.92963 0.0
C2806 C 0.43879 0.75461 0.90278 0.0
C2807 C 0.42821 0.81075 0.93512 0.0
C2808 C 0.40644 0.8242 0.91823 0.0
N2809 N 0.41082 0.79402 0.91636 0.0
C2810 C 0.4237 0.7951 0.92799 0.0
C2811 C 0.40229 0.80833 0.91137 0.0
C2812 C 0.41949 0.82538 0.93019 0.0
C2813 C 0.3999 0.72673 0.8675 0.0
N2814 N 0.41306 0.72417 0.87857 0.0
C2815 C 0.40208 0.72407 0.85006 0.0
C2816 C 0.41786 0.71875 0.84399 0.0
C2817 C 0.43121 0.71614 0.85537 0.0
C2818 C 0.42856 0.71895 0.87271 0.0
C2819 C 0.42251 0.67679 0.90493 0.0
C2820 C 0.43222 0.7066 0.92106 0.0
C2821 C 0.41515 0.69238 0.90061 0.0
N2822 N 0.4201 0.70703 0.9086 0.0
C2823 C 0.43986 0.69124 0.9257 0.0
C2824 C 0.43496 0.67626 0.91756 0.0
C2825 C 0.40658 0.7467 0.93619 0.0
C2826 C 0.35217 0.77571 0.90073 0.0
C2827 C 0.37559 0.78102 0.92652 0.0
C2828 C 0.3583 0.78352 0.92975 0.0
C2829 C 0.34653 0.78082 0.91675 0.0
N2830 N 0.38102 0.77603 0.91076 0.0
C2831 C 0.36956 0.77336 0.89796 0.0
H2832 H 0.08422 0.33798 0.27531 0.0
H2833 H 0.10502 0.37076 0.31429 0.0
H2834 H 0.08584 0.3138 0.2949 0.0
H2835 H 0.10608 0.34702 0.33384 0.0
H2836 H 0.11954 0.3007 0.36272 0.0
H2837 H 0.12059 0.32161 0.33996 0.0
H2838 H 0.07293 0.30246 0.32019 0.0
H2839 H 0.0723 0.28099 0.34267 0.0
C2840 C 0.08911 0.34003 0.28803 0.0
C2841 C 0.09453 0.35631 0.29319 0.0
C2842 C 0.08997 0.3262 0.29929 0.0
C2843 C 0.0962 0.32838 0.31597 0.0
C2844 C 0.10159 0.34469 0.32102 0.0
C2845 C 0.10086 0.3584 0.30979 0.0
C2846 C 0.1094 0.3008 0.35339 0.0
C2847 C 0.09575 0.28931 0.3546 0.0
C2848 C 0.10992 0.31289 0.34038 0.0
C2849 C 0.09667 0.314 0.32838 0.0
C2850 C 0.08341 0.30195 0.32912 0.0
C2851 C 0.083 0.28967 0.34205 0.0
H2852 H 0.70133 0.11869 0.36291 0.0
H2853 H 0.72097 0.07169 0.34229 0.0
H2854 H 0.68066 0.1202 0.33996 0.0
H2855 H 0.69973 0.0728 0.31958 0.0
H2856 H 0.66503 0.08519 0.27445 0.0
H2857 H 0.68893 0.08646 0.29439 0.0
H2858 H 0.65521 0.10579 0.33329 0.0
H2859 H 0.63171 0.10507 0.31339 0.0
C2860 C 0.70125 0.10868 0.35341 0.0
C2861 C 0.71265 0.09497 0.3545 0.0
C2862 C 0.68931 0.10948 0.3403 0.0
C2863 C 0.68826 0.09645 0.32806 0.0
C2864 C 0.70021 0.08311 0.32871 0.0
C2865 C 0.71235 0.08243 0.34176 0.0
C2866 C 0.6628 0.08983 0.28723 0.0
C2867 C 0.64646 0.09505 0.2923 0.0
C2868 C 0.67648 0.09047 0.29869 0.0
C2869 C 0.67407 0.0963 0.31546 0.0
C2870 C 0.6577 0.10159 0.3204 0.0
C2871 C 0.64413 0.10106 0.30898 0.0
H2872 H 0.89659 0.68854 0.37268 0.0
H2873 H 0.91405 0.72766 0.33822 0.0
H2874 H 0.89599 0.66822 0.34955 0.0
H2875 H 0.91275 0.70734 0.31467 0.0
H2876 H 0.92793 0.66051 0.28202 0.0
H2877 H 0.92664 0.68308 0.30331 0.0
H2878 H 0.8817 0.6598 0.32495 0.0
H2879 H 0.88355 0.63691 0.30421 0.0
C2880 C 0.90006 0.6929 0.36008 0.0
C2881 C 0.90538 0.70976 0.35734 0.0
C2882 C 0.89959 0.68122 0.34671 0.0
C2883 C 0.90421 0.68607 0.33011 0.0
C2884 C 0.9093 0.70305 0.32729 0.0
C2885 C 0.90994 0.71474 0.34078 0.0
C2886 C 0.9177 0.66033 0.29124 0.0
C2887 C 0.90597 0.64682 0.29156 0.0
C2888 C 0.91689 0.67333 0.30343 0.0
C2889 C 0.90419 0.67322 0.31608 0.0
C2890 C 0.89196 0.66012 0.31576 0.0
C2891 C 0.89293 0.64702 0.30377 0.0
H2892 H 0.3718 0.89684 0.31421 0.0
H2893 H 0.33727 0.91506 0.2755 0.0
H2894 H 0.34882 0.89646 0.33469 0.0
H2895 H 0.31389 0.91408 0.29603 0.0
H2896 H 0.28231 0.92949 0.34381 0.0
H2897 H 0.30326 0.92818 0.32088 0.0
H2898 H 0.32389 0.88205 0.34262 0.0
H2899 H 0.30352 0.88383 0.36579 0.0
C2900 C 0.35922 0.90054 0.30998 0.0
C2901 C 0.35641 0.90599 0.29318 0.0
C2902 C 0.34595 0.90021 0.32175 0.0
C2903 C 0.32939 0.90512 0.31705 0.0
C2904 C 0.3265 0.91038 0.30016 0.0
C2905 C 0.33988 0.91085 0.28836 0.0
C2906 C 0.29124 0.91901 0.34356 0.0
C2907 C 0.29142 0.90691 0.35673 0.0
C2908 C 0.30321 0.91819 0.33037 0.0
C2909 C 0.31549 0.90514 0.32998 0.0
C2910 C 0.31499 0.89256 0.34272 0.0
C2911 C 0.30322 0.89351 0.35597 0.0
H2912 H 0.06981 0.65892 0.71929 0.0
H2913 H 0.1181 0.64052 0.70067 0.0
H2914 H 0.07068 0.68208 0.69854 0.0
H2915 H 0.11936 0.66393 0.68051 0.0
H2916 H 0.08207 0.72832 0.66504 0.0
H2917 H 0.08348 0.70799 0.68858 0.0
H2918 H 0.10571 0.67071 0.65481 0.0
H2919 H 0.10487 0.69102 0.6317 0.0
C2920 C 0.08077 0.66003 0.711 0.0
C2921 C 0.09377 0.64776 0.71145 0.0
C2922 C 0.08131 0.67335 0.69914 0.0
C2923 C 0.09497 0.67477 0.68761 0.0
C2924 C 0.1084 0.663 0.68881 0.0
C2925 C 0.10774 0.64961 0.70047 0.0
C2926 C 0.0874 0.71582 0.66273 0.0
C2927 C 0.09337 0.71134 0.64647 0.0
C2928 C 0.08811 0.70413 0.6762 0.0
C2929 C 0.09477 0.68768 0.67368 0.0
C2930 C 0.10085 0.68333 0.65741 0.0
C2931 C 0.10024 0.695 0.64405 0.0
H2932 H 0.28144 0.07188 0.66074 0.0
H2933 H 0.30106 0.11876 0.63978 0.0
H2934 H 0.30289 0.073 0.68322 0.0
H2935 H 0.32195 0.12031 0.66255 0.0
H2936 H 0.37101 0.1056 0.6889 0.0
H2937 H 0.34738 0.10619 0.66919 0.0
H2938 H 0.31409 0.08635 0.70824 0.0
H2939 H 0.33816 0.08518 0.72798 0.0
C2940 C 0.2901 0.08261 0.66115 0.0
C2941 C 0.2897 0.09511 0.64837 0.0
C2942 C 0.30237 0.0833 0.67409 0.0
C2943 C 0.31438 0.09661 0.6746 0.0
C2944 C 0.31326 0.10961 0.66233 0.0
C2945 C 0.30119 0.10879 0.64931 0.0
C2946 C 0.35866 0.10144 0.69339 0.0
C2947 C 0.35652 0.09533 0.71006 0.0
C2948 C 0.345 0.1019 0.68206 0.0
C2949 C 0.3287 0.09646 0.68709 0.0
C2950 C 0.32648 0.0905 0.70385 0.0
C2951 C 0.34026 0.0899 0.7152 0.0
H2952 H 0.91359 0.27499 0.66356 0.0
H2953 H 0.89862 0.31456 0.62846 0.0
H2954 H 0.91216 0.29537 0.68703 0.0
H2955 H 0.89786 0.33493 0.65158 0.0
H2956 H 0.88476 0.36645 0.69661 0.0
H2957 H 0.88291 0.34363 0.67579 0.0
H2958 H 0.92662 0.31929 0.69866 0.0
H2959 H 0.92793 0.34182 0.72 0.0
C2960 C 0.91001 0.28803 0.66085 0.0
C2961 C 0.90619 0.29313 0.64414 0.0
C2962 C 0.90928 0.29974 0.67429 0.0
C2963 C 0.90485 0.31685 0.67128 0.0
C2964 C 0.90095 0.32183 0.65453 0.0
C2965 C 0.90151 0.31013 0.64119 0.0
C2966 C 0.89387 0.35613 0.6973 0.0
C2967 C 0.90659 0.35601 0.70986 0.0
C2968 C 0.89289 0.34307 0.68527 0.0
C2969 C 0.90479 0.32969 0.6853 0.0
C2970 C 0.91714 0.32927 0.69828 0.0
C2971 C 0.91796 0.34224 0.71049 0.0
H2972 H 0.72673 0.91807 0.66384 0.0
H2973 H 0.68788 0.8986 0.6301 0.0
H2974 H 0.70646 0.91722 0.68748 0.0
H2975 H 0.66769 0.89831 0.65331 0.0
H2976 H 0.63749 0.88546 0.69907 0.0
H2977 H 0.66051 0.88395 0.67851 0.0
H2978 H 0.68134 0.93092 0.69827 0.0
H2979 H 0.65856 0.932 0.71942 0.0
C2980 C 0.71389 0.91363 0.66146 0.0
C2981 C 0.70897 0.90835 0.64508 0.0
C2982 C 0.70224 0.91322 0.67499 0.0
C2983 C 0.68542 0.90759 0.67239 0.0
C2984 C 0.6806 0.90234 0.65596 0.0
C2985 C 0.69221 0.90263 0.64256 0.0
C2986 C 0.64708 0.89538 0.69915 0.0
C2987 C 0.6461 0.90895 0.71076 0.0
C2988 C 0.66024 0.89459 0.68727 0.0
C2989 C 0.67266 0.90748 0.68646 0.0
C2990 C 0.67209 0.9207 0.69856 0.0
C2991 C 0.65898 0.92137 0.71065 0.0
H2992 H 0.34394 0.06946 0.28196 0.0
H2993 H 0.36348 0.11725 0.30086 0.0
H2994 H 0.32122 0.07036 0.30319 0.0
H2995 H 0.3405 0.11857 0.32149 0.0
H2996 H 0.31438 0.10412 0.3706 0.0
H2997 H 0.33421 0.1046 0.34712 0.0
H2998 H 0.29572 0.08337 0.31399 0.0
H2999 H 0.27583 0.08233 0.33795 0.0
C3000 C 0.34317 0.08032 0.29042 0.0
C3001 C 0.35563 0.09316 0.28991 0.0
C3002 C 0.33011 0.08088 0.30256 0.0
C3003 C 0.32915 0.0944 0.31429 0.0
C3004 C 0.34109 0.10771 0.31302 0.0
C3005 C 0.35423 0.10702 0.3011 0.0
C3006 C 0.31003 0.09962 0.35832 0.0
C3007 C 0.29347 0.0932 0.3562 0.0
C3008 C 0.32143 0.10002 0.34474 0.0
C3009 C 0.31658 0.09419 0.32853 0.0
C3010 C 0.29995 0.08784 0.32632 0.0
C3011 C 0.28852 0.08732 0.34003 0.0
H3012 H 0.91848 0.27509 0.33701 0.0
H3013 H 0.89928 0.31363 0.3712 0.0
H3014 H 0.91728 0.29552 0.3135 0.0
H3015 H 0.89866 0.33398 0.34814 0.0
H3016 H 0.88504 0.3644 0.30278 0.0
H3017 H 0.88393 0.34123 0.32321 0.0
H3018 H 0.93065 0.3208 0.30263 0.0
H3019 H 0.93132 0.34372 0.28161 0.0
C3020 C 0.91403 0.2879 0.33952 0.0
C3021 C 0.90891 0.29268 0.35598 0.0
C3022 C 0.91342 0.29964 0.32607 0.0
C3023 C 0.90775 0.31642 0.32884 0.0
C3024 C 0.9027 0.3211 0.34535 0.0
C3025 C 0.90318 0.3094 0.35868 0.0
C3026 C 0.895 0.35486 0.30249 0.0
C3027 C 0.90837 0.35599 0.2907 0.0
C3028 C 0.89443 0.34161 0.3143 0.0
C3029 C 0.90738 0.32926 0.31485 0.0
C3030 C 0.92041 0.32999 0.30256 0.0
C3031 C 0.92084 0.34318 0.29054 0.0
H3032 H 0.7271 0.91603 0.33732 0.0
H3033 H 0.68842 0.89729 0.37163 0.0
H3034 H 0.7067 0.91487 0.31384 0.0
H3035 H 0.66805 0.8967 0.34851 0.0
H3036 H 0.65894 0.92992 0.28205 0.0
H3037 H 0.68174 0.92879 0.30317 0.0
H3038 H 0.66042 0.88227 0.32343 0.0
H3039 H 0.63739 0.88382 0.30285 0.0
C3040 C 0.71427 0.91166 0.33986 0.0
C3041 C 0.70942 0.90673 0.35636 0.0
C3042 C 0.70254 0.91108 0.32641 0.0
C3043 C 0.68569 0.90563 0.3292 0.0
C3044 C 0.68097 0.90062 0.34573 0.0
C3045 C 0.69267 0.90107 0.35907 0.0
C3046 C 0.65925 0.91938 0.29092 0.0
C3047 C 0.64625 0.90709 0.29092 0.0
C3048 C 0.67237 0.91867 0.303 0.0
C3049 C 0.67283 0.90556 0.31522 0.0
C3050 C 0.66026 0.89281 0.31456 0.0
C3051 C 0.64708 0.89363 0.30266 0.0
H3052 H 0.11802 0.63976 0.30221 0.0
H3053 H 0.07217 0.66129 0.28094 0.0
H3054 H 0.11945 0.66286 0.32274 0.0
H3055 H 0.07313 0.68411 0.30205 0.0
H3056 H 0.0853 0.72913 0.33719 0.0
H3057 H 0.08669 0.70908 0.31336 0.0
H3058 H 0.10457 0.66994 0.34762 0.0
H3059 H 0.10377 0.68991 0.37099 0.0
C3060 C 0.10825 0.64948 0.30191 0.0
C3061 C 0.09488 0.64861 0.29008 0.0
C3062 C 0.10899 0.66269 0.31377 0.0
C3063 C 0.09621 0.67521 0.31433 0.0
C3064 C 0.08325 0.67477 0.30197 0.0
C3065 C 0.08265 0.66164 0.28989 0.0
C3066 C 0.08963 0.71626 0.33954 0.0
C3067 C 0.09448 0.71116 0.35599 0.0
C3068 C 0.09035 0.70474 0.32591 0.0
C3069 C 0.09587 0.68787 0.32848 0.0
C3070 C 0.10067 0.68289 0.34498 0.0
C3071 C 0.10008 0.69437 0.35848 0.0
H3072 H 0.33636 0.91467 0.72842 0.0
H3073 H 0.37093 0.89736 0.68936 0.0
H3074 H 0.31281 0.9132 0.7081 0.0
H3075 H 0.3478 0.89655 0.66906 0.0
H3076 H 0.30262 0.88369 0.63783 0.0
H3077 H 0.3232 0.88195 0.66086 0.0
H3078 H 0.30156 0.9271 0.68367 0.0
H3079 H 0.28041 0.92831 0.66094 0.0
C3080 C 0.33893 0.91056 0.71552 0.0
C3081 C 0.35552 0.9061 0.71055 0.0
C3082 C 0.32546 0.9098 0.70383 0.0
C3083 C 0.32831 0.90469 0.68689 0.0
C3084 C 0.34494 0.90016 0.68204 0.0
C3085 C 0.3583 0.90075 0.69371 0.0
C3086 C 0.30213 0.89314 0.64787 0.0
C3087 C 0.28999 0.90623 0.64748 0.0
C3088 C 0.31403 0.89223 0.66104 0.0
C3089 C 0.31431 0.90456 0.67404 0.0
C3090 C 0.3017 0.91729 0.67399 0.0
C3091 C 0.2896 0.91805 0.66091 0.0
H3092 H 0.07151 0.34213 0.72207 0.0
H3093 H 0.11941 0.36169 0.70353 0.0
H3094 H 0.07241 0.31958 0.70067 0.0
H3095 H 0.12071 0.33886 0.6827 0.0
H3096 H 0.10579 0.31362 0.63312 0.0
H3097 H 0.10656 0.33306 0.65695 0.0
H3098 H 0.08538 0.29413 0.68955 0.0
H3099 H 0.08407 0.27463 0.66527 0.0
C3100 C 0.08241 0.34138 0.71368 0.0
C3101 C 0.09527 0.35382 0.71432 0.0
C3102 C 0.08297 0.32841 0.70143 0.0
C3103 C 0.09649 0.32753 0.68972 0.0
C3104 C 0.10985 0.3394 0.69115 0.0
C3105 C 0.10917 0.35244 0.70319 0.0
C3106 C 0.10136 0.30909 0.64535 0.0
C3107 C 0.09486 0.29253 0.64725 0.0
C3108 C 0.10193 0.32026 0.65913 0.0
C3109 C 0.09619 0.31518 0.67529 0.0
C3110 C 0.08979 0.29854 0.67727 0.0
C3111 C 0.0891 0.28733 0.66337 0.0
H3112 H 0.68945 0.1063 0.63079 0.0
H3113 H 0.72834 0.08793 0.66503 0.0
H3114 H 0.66923 0.10706 0.65395 0.0
H3115 H 0.7081 0.08935 0.68863 0.0
H3116 H 0.66071 0.0743 0.72079 0.0
H3117 H 0.6835 0.07561 0.69973 0.0
H3118 H 0.66127 0.12135 0.67873 0.0
H3119 H 0.63817 0.1195 0.69921 0.0
C3120 C 0.69379 0.10267 0.64335 0.0
C3121 C 0.71054 0.09703 0.64602 0.0
C3122 C 0.68217 0.10323 0.65674 0.0
C3123 C 0.68698 0.09838 0.67329 0.0
C3124 C 0.70386 0.09299 0.67604 0.0
C3125 C 0.7155 0.09227 0.66254 0.0
C3126 C 0.66082 0.08471 0.71176 0.0
C3127 C 0.64753 0.09666 0.7115 0.0
C3128 C 0.67394 0.08553 0.69972 0.0
C3129 C 0.67416 0.09846 0.6873 0.0
C3130 C 0.66131 0.11093 0.68774 0.0
C3131 C 0.6481 0.10995 0.69957 0.0
H3132 H 0.92941 0.72055 0.66029 0.0
H3133 H 0.8826 0.69972 0.64036 0.0
H3134 H 0.92906 0.69939 0.6831 0.0
H3135 H 0.8818 0.67916 0.66343 0.0
H3136 H 0.89782 0.63072 0.68978 0.0
H3137 H 0.89679 0.65412 0.66985 0.0
H3138 H 0.9161 0.68819 0.70853 0.0
H3139 H 0.9177 0.66433 0.72854 0.0
C3140 C 0.91887 0.71168 0.66099 0.0
C3141 C 0.90617 0.71162 0.6484 0.0
C3142 C 0.91862 0.69958 0.67411 0.0
C3143 C 0.90556 0.68733 0.67497 0.0
C3144 C 0.89234 0.68804 0.66291 0.0
C3145 C 0.89272 0.69991 0.64972 0.0
C3146 C 0.90178 0.64319 0.69415 0.0
C3147 C 0.90782 0.64563 0.7108 0.0
C3148 C 0.90106 0.65671 0.6827 0.0
C3149 C 0.90617 0.67316 0.68758 0.0
C3150 C 0.91217 0.67567 0.70429 0.0
C3151 C 0.91302 0.66203 0.71578 0.0
H3152 H 0.28032 0.34325 0.07097 0.0
H3153 H 0.29936 0.36294 0.11862 0.0
H3154 H 0.30141 0.32041 0.072 0.0
H3155 H 0.31985 0.33985 0.12006 0.0
H3156 H 0.36879 0.31333 0.10577 0.0
H3157 H 0.34545 0.33332 0.1061 0.0
H3158 H 0.31202 0.29489 0.08522 0.0
H3159 H 0.33584 0.27482 0.08433 0.0
C3160 C 0.28878 0.34249 0.08183 0.0
C3161 C 0.28835 0.35502 0.09459 0.0
C3162 C 0.30083 0.32936 0.08247 0.0
C3163 C 0.31257 0.3284 0.09598 0.0
C3164 C 0.31139 0.34042 0.10921 0.0
C3165 C 0.29954 0.35363 0.10845 0.0
C3166 C 0.35648 0.30902 0.10131 0.0
C3167 C 0.35423 0.29242 0.09503 0.0
C3168 C 0.34298 0.32051 0.10163 0.0
C3169 C 0.32672 0.31574 0.09585 0.0
C3170 C 0.32439 0.29907 0.08965 0.0
C3171 C 0.33801 0.28753 0.08922 0.0
H3172 H 0.37306 0.68838 0.89756 0.0
H3173 H 0.33939 0.72773 0.91597 0.0
H3174 H 0.34958 0.66848 0.8967 0.0
H3175 H 0.31548 0.70778 0.91451 0.0
H3176 H 0.28256 0.66047 0.92888 0.0
H3177 H 0.30397 0.68301 0.92802 0.0
H3178 H 0.32467 0.66135 0.88189 0.0
H3179 H 0.30382 0.63851 0.88323 0.0
C3180 C 0.36056 0.69288 0.90122 0.0
C3181 C 0.35813 0.70968 0.90683 0.0
C3182 C 0.347 0.68144 0.9006 0.0
C3183 C 0.33051 0.68649 0.90538 0.0
C3184 C 0.32801 0.70338 0.91088 0.0
C3185 C 0.34169 0.71484 0.91165 0.0
C3186 C 0.29158 0.66067 0.91846 0.0
C3187 C 0.29165 0.6476 0.90625 0.0
C3188 C 0.30383 0.67364 0.91792 0.0
C3189 C 0.31627 0.6739 0.90503 0.0
C3190 C 0.31563 0.66132 0.89229 0.0
C3191 C 0.30358 0.64827 0.89297 0.0
H3192 H 0.27593 0.33769 0.91868 0.0
H3193 H 0.31501 0.37062 0.89832 0.0
H3194 H 0.29565 0.31361 0.91733 0.0
H3195 H 0.33468 0.34699 0.89754 0.0
H3196 H 0.36391 0.30081 0.88444 0.0
H3197 H 0.34108 0.32161 0.88312 0.0
H3198 H 0.32081 0.30238 0.93051 0.0
H3199 H 0.34336 0.28102 0.93139 0.0
C3200 C 0.2887 0.3398 0.91395 0.0
C3201 C 0.29386 0.35608 0.90857 0.0
C3202 C 0.30004 0.32602 0.91324 0.0
C3203 C 0.31677 0.32827 0.90721 0.0
C3204 C 0.32181 0.34459 0.90186 0.0
C3205 C 0.31052 0.35825 0.90244 0.0
C3206 C 0.35446 0.30088 0.89447 0.0
C3207 C 0.35554 0.28939 0.90811 0.0
C3208 C 0.34141 0.3129 0.89379 0.0
C3209 C 0.32924 0.31396 0.90689 0.0
C3210 C 0.32987 0.30192 0.92014 0.0
C3211 C 0.34284 0.28969 0.9207 0.0
H3212 H 0.63214 0.31419 0.8985 0.0
H3213 H 0.66609 0.27479 0.91629 0.0
H3214 H 0.65552 0.33418 0.89767 0.0
H3215 H 0.68992 0.29486 0.91486 0.0
H3216 H 0.72274 0.34233 0.92929 0.0
H3217 H 0.70147 0.31965 0.92845 0.0
H3218 H 0.68024 0.34145 0.88263 0.0
H3219 H 0.70095 0.36442 0.88395 0.0
C3220 C 0.64468 0.3097 0.90204 0.0
C3221 C 0.64721 0.29284 0.90745 0.0
C3222 C 0.65819 0.32119 0.90143 0.0
C3223 C 0.67473 0.31616 0.90602 0.0
C3224 C 0.67734 0.29924 0.91136 0.0
C3225 C 0.66371 0.28771 0.91211 0.0
C3226 C 0.71363 0.34214 0.91895 0.0
C3227 C 0.71337 0.35528 0.90683 0.0
C3228 C 0.70146 0.32909 0.91842 0.0
C3229 C 0.68891 0.32882 0.90563 0.0
C3230 C 0.68936 0.34148 0.89296 0.0
C3231 C 0.70133 0.35461 0.89364 0.0
H3232 H 0.70071 0.63845 0.88288 0.0
H3233 H 0.72096 0.65966 0.92938 0.0
H3234 H 0.6806 0.66183 0.88088 0.0
H3235 H 0.70024 0.68278 0.92784 0.0
H3236 H 0.66658 0.72838 0.91493 0.0
H3237 H 0.68999 0.70788 0.91397 0.0
H3238 H 0.6554 0.66959 0.89477 0.0
H3239 H 0.63243 0.69004 0.89512 0.0
C3240 C 0.70086 0.64815 0.89269 0.0
C3241 C 0.71229 0.64712 0.90639 0.0
C3242 C 0.68924 0.66152 0.89161 0.0
C3243 C 0.68852 0.67408 0.90436 0.0
C3244 C 0.70046 0.67343 0.91772 0.0
C3245 C 0.7123 0.66013 0.91866 0.0
C3246 C 0.66407 0.71561 0.91036 0.0
C3247 C 0.64763 0.71088 0.90508 0.0
C3248 C 0.67746 0.70383 0.9099 0.0
C3249 C 0.67466 0.68705 0.90423 0.0
C3250 C 0.65821 0.68245 0.89885 0.0
C3251 C 0.64493 0.69421 0.89917 0.0
H3252 H 0.6317 0.6901 0.10609 0.0
H3253 H 0.66446 0.72803 0.08341 0.0
H3254 H 0.655 0.66999 0.10638 0.0
H3255 H 0.68819 0.7079 0.08425 0.0
H3256 H 0.71922 0.65946 0.06951 0.0
H3257 H 0.69823 0.68235 0.07097 0.0
H3258 H 0.68093 0.66317 0.11954 0.0
H3259 H 0.70133 0.64003 0.11769 0.0
C3260 C 0.64397 0.69426 0.10138 0.0
C3261 C 0.64617 0.71071 0.09471 0.0
C3262 C 0.65744 0.68271 0.10166 0.0
C3263 C 0.67359 0.68728 0.09544 0.0
C3264 C 0.6759 0.70385 0.08899 0.0
C3265 C 0.66232 0.71543 0.0886 0.0
C3266 C 0.71104 0.66028 0.08057 0.0
C3267 C 0.71178 0.64781 0.09336 0.0
C3268 C 0.69904 0.67345 0.08146 0.0
C3269 C 0.68765 0.67451 0.09526 0.0
C3270 C 0.68913 0.66253 0.10848 0.0
C3271 C 0.70092 0.6493 0.10748 0.0
H3272 H 0.37035 0.68904 0.10326 0.0
H3273 H 0.33637 0.72811 0.08483 0.0
H3274 H 0.3471 0.66891 0.10393 0.0
H3275 H 0.31265 0.70789 0.08611 0.0
H3276 H 0.28015 0.66019 0.07175 0.0
H3277 H 0.30133 0.68297 0.07261 0.0
H3278 H 0.32229 0.66153 0.11873 0.0
H3279 H 0.30168 0.63848 0.11739 0.0
C3280 C 0.35783 0.69343 0.09955 0.0
C3281 C 0.35526 0.71024 0.09401 0.0
C3282 C 0.34439 0.68185 0.10007 0.0
C3283 C 0.32787 0.68674 0.09525 0.0
C3284 C 0.32522 0.70362 0.08978 0.0
C3285 C 0.33879 0.71524 0.08912 0.0
C3286 C 0.28919 0.66048 0.08215 0.0
C3287 C 0.2894 0.64741 0.09437 0.0
C3288 C 0.3013 0.67359 0.0827 0.0
C3289 C 0.31375 0.674 0.09559 0.0
C3290 C 0.31325 0.66141 0.10832 0.0
C3291 C 0.30134 0.64822 0.10764 0.0
H3292 H 0.68847 0.37016 0.1066 0.0
H3293 H 0.72691 0.33634 0.08663 0.0
H3294 H 0.66822 0.34696 0.10722 0.0
H3295 H 0.70665 0.3127 0.08789 0.0
H3296 H 0.65886 0.28095 0.0729 0.0
H3297 H 0.68171 0.30199 0.07432 0.0
H3298 H 0.66048 0.32175 0.12105 0.0
H3299 H 0.63733 0.30129 0.11917 0.0
C3300 C 0.6927 0.35768 0.10257 0.0
C3301 C 0.70935 0.35515 0.09654 0.0
C3302 C 0.68106 0.34426 0.10306 0.0
C3303 C 0.68574 0.32783 0.09771 0.0
C3304 C 0.7025 0.3252 0.09192 0.0
C3305 C 0.71416 0.33873 0.0913 0.0
C3306 C 0.65921 0.28969 0.08356 0.0
C3307 C 0.64617 0.2896 0.0958 0.0
C3308 C 0.67236 0.30172 0.08443 0.0
C3309 C 0.67288 0.3138 0.09767 0.0
C3310 C 0.6603 0.31301 0.1104 0.0
C3311 C 0.64706 0.30118 0.1094 0.0
H3312 H 0.61853 0.86461 0.80179 0.0
H3313 H 0.57228 0.84311 0.78126 0.0
H3314 H 0.62045 0.8413 0.82202 0.0
H3315 H 0.57369 0.82011 0.80213 0.0
H3316 H 0.58632 0.77485 0.83655 0.0
H3317 H 0.58729 0.79512 0.8129 0.0
H3318 H 0.60636 0.83381 0.84711 0.0
H3319 H 0.60603 0.81361 0.87026 0.0
C3320 C 0.60877 0.85486 0.8016 0.0
C3321 C 0.59516 0.85579 0.79007 0.0
C3322 C 0.60979 0.84153 0.81329 0.0
C3323 C 0.59704 0.82895 0.814 0.0
C3324 C 0.5838 0.82948 0.80193 0.0
C3325 C 0.58294 0.84271 0.79 0.0
C3326 C 0.59084 0.78766 0.83891 0.0
C3327 C 0.59616 0.79257 0.85528 0.0
C3328 C 0.59132 0.79932 0.82539 0.0
C3329 C 0.59702 0.81613 0.828 0.0
C3330 C 0.60231 0.82091 0.84442 0.0
C3331 C 0.60199 0.80929 0.85781 0.0
H3332 H 0.19905 0.61888 0.86426 0.0
H3333 H 0.22116 0.57441 0.84076 0.0
H3334 H 0.17831 0.62073 0.84137 0.0
H3335 H 0.1999 0.57578 0.81814 0.0
H3336 H 0.16502 0.58879 0.77361 0.0
H3337 H 0.18862 0.59016 0.79385 0.0
H3338 H 0.15366 0.60588 0.83329 0.0
H3339 H 0.13042 0.60512 0.81307 0.0
C3340 C 0.19949 0.6095 0.85416 0.0
C3341 C 0.21164 0.59641 0.8544 0.0
C3342 C 0.18751 0.61048 0.84107 0.0
C3343 C 0.18719 0.59823 0.82801 0.0
C3344 C 0.19981 0.58552 0.82789 0.0
C3345 C 0.21197 0.58468 0.8409 0.0
C3346 C 0.16245 0.59267 0.78658 0.0
C3347 C 0.14583 0.59687 0.7917 0.0
C3348 C 0.17596 0.59336 0.79822 0.0
C3349 C 0.17312 0.59818 0.81524 0.0
C3350 C 0.15648 0.60248 0.82024 0.0
C3351 C 0.14306 0.60192 0.80862 0.0
H3352 H 0.38444 0.13772 0.80302 0.0
H3353 H 0.42954 0.1608 0.78169 0.0
H3354 H 0.38278 0.16033 0.82407 0.0
H3355 H 0.42835 0.18312 0.80328 0.0
H3356 H 0.41573 0.22738 0.83871 0.0
H3357 H 0.41434 0.20749 0.81481 0.0
H3358 H 0.39745 0.16782 0.84899 0.0
H3359 H 0.39824 0.18771 0.87253 0.0
C3360 C 0.394 0.14767 0.80281 0.0
C3361 C 0.40722 0.14738 0.79078 0.0
C3362 C 0.39313 0.16059 0.81498 0.0
C3363 C 0.4056 0.17345 0.81563 0.0
C3364 C 0.41844 0.17354 0.80313 0.0
C3365 C 0.41918 0.16069 0.79077 0.0
C3366 C 0.4116 0.21443 0.84105 0.0
C3367 C 0.40708 0.20915 0.85753 0.0
C3368 C 0.41089 0.20299 0.82736 0.0
C3369 C 0.40573 0.186 0.82989 0.0
C3370 C 0.40112 0.18085 0.84641 0.0
C3371 C 0.40169 0.19227 0.85999 0.0
H3372 H 0.84419 0.43212 0.78236 0.0
H3373 H 0.86306 0.38399 0.80099 0.0
H3374 H 0.82143 0.43135 0.80355 0.0
H3375 H 0.84005 0.38284 0.8216 0.0
H3376 H 0.81429 0.39763 0.87085 0.0
H3377 H 0.83408 0.39699 0.84732 0.0
H3378 H 0.79571 0.41837 0.81423 0.0
H3379 H 0.77585 0.41954 0.83821 0.0
C3380 C 0.84326 0.42121 0.79074 0.0
C3381 C 0.85555 0.40824 0.79018 0.0
C3382 C 0.83018 0.42073 0.80286 0.0
C3383 C 0.82904 0.40717 0.81452 0.0
C3384 C 0.84078 0.39373 0.81318 0.0
C3385 C 0.85394 0.39433 0.80128 0.0
C3386 C 0.80996 0.40213 0.85857 0.0
C3387 C 0.79344 0.40863 0.85645 0.0
C3388 C 0.82133 0.40164 0.84497 0.0
C3389 C 0.8165 0.40747 0.82876 0.0
C3390 C 0.79992 0.4139 0.82656 0.0
C3391 C 0.78851 0.41449 0.84028 0.0
H3392 H 0.58439 0.22657 0.16449 0.0
H3393 H 0.60421 0.188 0.1307 0.0
H3394 H 0.58574 0.20641 0.18816 0.0
H3395 H 0.60501 0.16785 0.154 0.0
H3396 H 0.61806 0.13787 0.20006 0.0
H3397 H 0.61934 0.16075 0.1793 0.0
H3398 H 0.57226 0.18124 0.19895 0.0
H3399 H 0.57137 0.15861 0.22025 0.0
C3400 C 0.58903 0.21381 0.16211 0.0
C3401 C 0.59422 0.20893 0.14569 0.0
C3402 C 0.58972 0.20222 0.17566 0.0
C3403 C 0.59554 0.18546 0.17307 0.0
C3404 C 0.6008 0.1807 0.15664 0.0
C3405 C 0.60023 0.19227 0.14318 0.0
C3406 C 0.60807 0.14737 0.20008 0.0
C3407 C 0.59452 0.14633 0.21171 0.0
C3408 C 0.60873 0.16045 0.18808 0.0
C3409 C 0.59575 0.17274 0.18719 0.0
C3410 C 0.58255 0.1721 0.1993 0.0
C3411 C 0.58199 0.15907 0.21148 0.0
H3412 H 0.84228 0.57151 0.21915 0.0
H3413 H 0.86323 0.61842 0.19959 0.0
H3414 H 0.81954 0.57284 0.19796 0.0
H3415 H 0.84028 0.62014 0.17895 0.0
H3416 H 0.81305 0.60561 0.13014 0.0
H3417 H 0.83319 0.60599 0.15346 0.0
H3418 H 0.79442 0.58678 0.18743 0.0
H3419 H 0.77424 0.58586 0.16373 0.0
C3420 C 0.84184 0.58227 0.21055 0.0
C3421 C 0.85467 0.59473 0.2109 0.0
C3422 C 0.82876 0.58308 0.19843 0.0
C3423 C 0.82818 0.59647 0.18653 0.0
C3424 C 0.84055 0.60939 0.18757 0.0
C3425 C 0.85367 0.60847 0.1995 0.0
C3426 C 0.80872 0.60156 0.14258 0.0
C3427 C 0.792 0.59569 0.14503 0.0
C3428 C 0.82029 0.60189 0.15605 0.0
C3429 C 0.81546 0.59652 0.17243 0.0
C3430 C 0.79864 0.59084 0.17496 0.0
C3431 C 0.78705 0.59041 0.1614 0.0
H3432 H 0.41803 0.77395 0.16432 0.0
H3433 H 0.3967 0.81236 0.13129 0.0
H3434 H 0.41715 0.79407 0.1881 0.0
H3435 H 0.39637 0.83243 0.15463 0.0
H3436 H 0.38387 0.86209 0.20089 0.0
H3437 H 0.38247 0.83912 0.18023 0.0
H3438 H 0.43041 0.81955 0.19874 0.0
H3439 H 0.43143 0.84228 0.21996 0.0
C3440 C 0.41317 0.78665 0.16212 0.0
C3441 C 0.40739 0.79149 0.14589 0.0
C3442 C 0.41275 0.79823 0.17573 0.0
C3443 C 0.40659 0.8149 0.17338 0.0
C3444 C 0.40082 0.81963 0.15711 0.0
C3445 C 0.40113 0.8081 0.14361 0.0
C3446 C 0.39403 0.85278 0.20069 0.0
C3447 C 0.40785 0.85411 0.21197 0.0
C3448 C 0.39329 0.83964 0.18874 0.0
C3449 C 0.40649 0.8276 0.18754 0.0
C3450 C 0.41997 0.8285 0.19932 0.0
C3451 C 0.42059 0.84158 0.21147 0.0
H3452 H 0.22652 0.41649 0.16449 0.0
H3453 H 0.18648 0.39974 0.13069 0.0
H3454 H 0.2067 0.41518 0.18846 0.0
H3455 H 0.16671 0.39901 0.15428 0.0
H3456 H 0.13707 0.38498 0.20019 0.0
H3457 H 0.15954 0.38376 0.17898 0.0
H3458 H 0.18231 0.42907 0.20041 0.0
H3459 H 0.1601 0.42984 0.22214 0.0
C3460 C 0.2135 0.41258 0.16216 0.0
C3461 C 0.20812 0.40817 0.14567 0.0
C3462 C 0.20211 0.4119 0.17589 0.0
C3463 C 0.18508 0.40688 0.17339 0.0
C3464 C 0.17978 0.40254 0.15684 0.0
C3465 C 0.19115 0.40308 0.14322 0.0
C3466 C 0.14698 0.39458 0.2005 0.0
C3467 C 0.14671 0.4076 0.21275 0.0
C3468 C 0.15983 0.39396 0.18825 0.0
C3469 C 0.17262 0.4065 0.18773 0.0
C3470 C 0.17276 0.41913 0.20045 0.0
C3471 C 0.15998 0.41962 0.21288 0.0
H3472 H 0.78286 0.57128 0.84296 0.0
H3473 H 0.80422 0.61728 0.86422 0.0
H3474 H 0.80399 0.57206 0.82015 0.0
H3475 H 0.82476 0.61852 0.84117 0.0
H3476 H 0.87276 0.60325 0.81359 0.0
H3477 H 0.84964 0.60374 0.83386 0.0
H3478 H 0.81501 0.58567 0.79509 0.0
H3479 H 0.83857 0.58459 0.77473 0.0
C3480 C 0.79186 0.58173 0.84257 0.0
C3481 C 0.79204 0.59408 0.85551 0.0
C3482 C 0.80394 0.58223 0.82946 0.0
C3483 C 0.81631 0.59521 0.82892 0.0
C3484 C 0.81579 0.60805 0.8414 0.0
C3485 C 0.80392 0.60741 0.85459 0.0
C3486 C 0.86022 0.59944 0.80928 0.0
C3487 C 0.85754 0.5939 0.79249 0.0
C3488 C 0.84687 0.59985 0.82094 0.0
C3489 C 0.83034 0.59491 0.81614 0.0
C3490 C 0.82759 0.58943 0.79929 0.0
C3491 C 0.84107 0.58889 0.78759 0.0
H3492 H 0.3975 0.8714 0.8132 0.0
H3493 H 0.41731 0.83786 0.77442 0.0
H3494 H 0.39725 0.84816 0.83336 0.0
H3495 H 0.41643 0.81415 0.79461 0.0
H3496 H 0.43129 0.78195 0.84207 0.0
H3497 H 0.42996 0.80318 0.81942 0.0
H3498 H 0.3834 0.82299 0.84096 0.0
H3499 H 0.38522 0.80235 0.86392 0.0
C3500 C 0.40159 0.85897 0.80888 0.0
C3501 C 0.40742 0.85653 0.79215 0.0
C3502 C 0.40132 0.84553 0.82047 0.0
C3503 C 0.40668 0.82914 0.81566 0.0
C3504 C 0.41237 0.82662 0.79885 0.0
C3505 C 0.41279 0.84018 0.78723 0.0
C3506 C 0.42069 0.79075 0.84184 0.0
C3507 C 0.40848 0.79062 0.8549 0.0
C3508 C 0.41988 0.8029 0.8288 0.0
C3509 C 0.40671 0.81504 0.82843 0.0
C3510 C 0.39401 0.81421 0.84104 0.0
C3511 C 0.39497 0.80228 0.85417 0.0
H3512 H 0.20067 0.38368 0.8657 0.0
H3513 H 0.22294 0.42806 0.84211 0.0
H3514 H 0.17968 0.38204 0.84302 0.0
H3515 H 0.20144 0.42689 0.81971 0.0
H3516 H 0.16591 0.41427 0.7755 0.0
H3517 H 0.18972 0.41274 0.79549 0.0
H3518 H 0.15508 0.39703 0.83523 0.0
H3519 H 0.13164 0.39794 0.81526 0.0
C3520 C 0.2011 0.39308 0.85562 0.0
C3521 C 0.21337 0.40609 0.85578 0.0
C3522 C 0.18897 0.39222 0.84266 0.0
C3523 C 0.18861 0.40451 0.82963 0.0
C3524 C 0.20136 0.41713 0.82942 0.0
C3525 C 0.21367 0.41785 0.84231 0.0
C3526 C 0.16345 0.41036 0.78848 0.0
C3527 C 0.14687 0.4062 0.79375 0.0
C3528 C 0.17709 0.40958 0.79998 0.0
C3529 C 0.1744 0.4047 0.81701 0.0
C3530 C 0.15779 0.40047 0.82217 0.0
C3531 C 0.14425 0.40112 0.81069 0.0
H3532 H 0.61846 0.13998 0.8022 0.0
H3533 H 0.57126 0.15988 0.78237 0.0
H3534 H 0.61994 0.16333 0.82242 0.0
H3535 H 0.5723 0.18299 0.8032 0.0
H3536 H 0.58475 0.22895 0.83718 0.0
H3537 H 0.58565 0.20852 0.81364 0.0
H3538 H 0.60584 0.1704 0.84775 0.0
H3539 H 0.60553 0.19073 0.87081 0.0
C3540 C 0.60839 0.14938 0.80216 0.0
C3541 C 0.59465 0.14798 0.79082 0.0
C3542 C 0.60916 0.16274 0.81385 0.0
C3543 C 0.59607 0.17491 0.81473 0.0
C3544 C 0.58267 0.17393 0.80286 0.0
C3545 C 0.58202 0.16064 0.79096 0.0
C3546 C 0.58949 0.21623 0.83956 0.0
C3547 C 0.59513 0.21153 0.85588 0.0
C3548 C 0.58993 0.20449 0.82609 0.0
C3549 C 0.59594 0.1878 0.8287 0.0
C3550 C 0.60153 0.18321 0.84507 0.0
C3551 C 0.60122 0.1949 0.8584 0.0
H3552 H 0.86411 0.38445 0.19933 0.0
H3553 H 0.84282 0.43069 0.21999 0.0
H3554 H 0.84059 0.38241 0.17936 0.0
H3555 H 0.81958 0.42915 0.19939 0.0
H3556 H 0.81155 0.39622 0.13162 0.0
H3557 H 0.83229 0.39602 0.15432 0.0
H3558 H 0.79448 0.41541 0.18924 0.0
H3559 H 0.7737 0.41626 0.16606 0.0
C3560 C 0.85438 0.39421 0.19958 0.0
C3561 C 0.85542 0.40783 0.21112 0.0
C3562 C 0.84092 0.39311 0.18804 0.0
C3563 C 0.82827 0.40578 0.18747 0.0
C3564 C 0.82898 0.41908 0.19948 0.0
C3565 C 0.84235 0.42003 0.21126 0.0
C3566 C 0.80754 0.40034 0.14414 0.0
C3567 C 0.79091 0.40627 0.14698 0.0
C3568 C 0.81947 0.40011 0.15727 0.0
C3569 C 0.81512 0.40558 0.17375 0.0
C3570 C 0.79838 0.41127 0.17669 0.0
C3571 C 0.78642 0.41166 0.16343 0.0
H3572 H 0.61837 0.86433 0.19838 0.0
H3573 H 0.57337 0.8415 0.22016 0.0
H3574 H 0.62025 0.8412 0.17792 0.0
H3575 H 0.57472 0.81868 0.19912 0.0
H3576 H 0.58717 0.77387 0.1644 0.0
H3577 H 0.58862 0.79414 0.18801 0.0
H3578 H 0.60576 0.83318 0.15321 0.0
H3579 H 0.60496 0.81295 0.13004 0.0
C3580 C 0.60888 0.85433 0.19879 0.0
C3581 C 0.59563 0.85482 0.21076 0.0
C3582 C 0.60987 0.8411 0.18698 0.0
C3583 C 0.59746 0.82817 0.1866 0.0
C3584 C 0.58459 0.82831 0.19906 0.0
C3585 C 0.58375 0.84145 0.21109 0.0
C3586 C 0.59139 0.78676 0.16189 0.0
C3587 C 0.59598 0.79176 0.14534 0.0
C3588 C 0.59213 0.79841 0.17539 0.0
C3589 C 0.59737 0.81534 0.1726 0.0
C3590 C 0.60204 0.82021 0.15602 0.0
C3591 C 0.60146 0.80858 0.14263 0.0
H3592 H 0.13832 0.61893 0.19948 0.0
H3593 H 0.15969 0.57301 0.22075 0.0
H3594 H 0.1613 0.62017 0.17884 0.0
H3595 H 0.18239 0.57377 0.19953 0.0
H3596 H 0.22728 0.58563 0.16417 0.0
H3597 H 0.20736 0.58717 0.18808 0.0
H3598 H 0.16815 0.60516 0.15396 0.0
H3599 H 0.18799 0.60422 0.1305 0.0
C3600 C 0.14798 0.60911 0.19976 0.0
C3601 C 0.1471 0.59577 0.21162 0.0
C3602 C 0.16112 0.60974 0.18784 0.0
C3603 C 0.17356 0.59688 0.18724 0.0
C3604 C 0.17311 0.58395 0.19964 0.0
C3605 C 0.16005 0.58346 0.21177 0.0
C3606 C 0.21442 0.59002 0.16186 0.0
C3607 C 0.20927 0.59486 0.14543 0.0
C3608 C 0.20298 0.59083 0.17554 0.0
C3609 C 0.18614 0.59642 0.17303 0.0
C3610 C 0.18109 0.60121 0.15655 0.0
C3611 C 0.19249 0.60053 0.14299 0.0
H3612 H 0.39743 0.18978 0.13126 0.0
H3613 H 0.41493 0.22859 0.16611 0.0
H3614 H 0.39717 0.16919 0.15405 0.0
H3615 H 0.41404 0.20787 0.18939 0.0
H3616 H 0.42945 0.15977 0.22075 0.0
H3617 H 0.42809 0.18303 0.20016 0.0
H3618 H 0.38249 0.16097 0.1786 0.0
H3619 H 0.38437 0.13745 0.19858 0.0
C3620 C 0.401 0.19402 0.14388 0.0
C3621 C 0.40617 0.2109 0.14684 0.0
C3622 C 0.40072 0.18216 0.15706 0.0
C3623 C 0.40539 0.18683 0.17369 0.0
C3624 C 0.41049 0.20377 0.17673 0.0
C3625 C 0.41092 0.21568 0.16342 0.0
C3626 C 0.41906 0.16002 0.21169 0.0
C3627 C 0.40717 0.14666 0.21111 0.0
C3628 C 0.41822 0.1734 0.19993 0.0
C3629 C 0.40533 0.17378 0.18749 0.0
C3630 C 0.39289 0.16087 0.18764 0.0
C3631 C 0.39389 0.14742 0.19918 0.0
H3632 H 0.84059 0.78149 0.57156 0.0
H3633 H 0.86006 0.8014 0.61895 0.0
H3634 H 0.81769 0.80255 0.57215 0.0
H3635 H 0.83691 0.82184 0.61997 0.0
H3636 H 0.81096 0.87062 0.60448 0.0
H3637 H 0.83076 0.84716 0.6053 0.0
H3638 H 0.79212 0.81354 0.58513 0.0
H3639 H 0.77221 0.83749 0.58374 0.0
C3640 C 0.83976 0.79013 0.58227 0.0
C3641 C 0.85226 0.78998 0.59507 0.0
C3642 C 0.8266 0.80216 0.58266 0.0
C3643 C 0.8256 0.81413 0.59596 0.0
C3644 C 0.83754 0.81318 0.60927 0.0
C3645 C 0.85078 0.80138 0.60875 0.0
C3646 C 0.80656 0.85824 0.60029 0.0
C3647 C 0.78994 0.85596 0.59407 0.0
C3648 C 0.81794 0.84468 0.60089 0.0
C3649 C 0.81304 0.82834 0.59548 0.0
C3650 C 0.79637 0.82597 0.5893 0.0
C3651 C 0.78493 0.83967 0.58857 0.0
H3652 H 0.87228 0.18957 0.39727 0.0
H3653 H 0.83824 0.22865 0.41561 0.0
H3654 H 0.84907 0.1694 0.39667 0.0
H3655 H 0.81456 0.20839 0.41439 0.0
H3656 H 0.78241 0.16055 0.42914 0.0
H3657 H 0.80341 0.18349 0.42805 0.0
H3658 H 0.82426 0.16193 0.38194 0.0
H3659 H 0.80387 0.13871 0.38354 0.0
C3660 C 0.85975 0.19396 0.40096 0.0
C3661 C 0.85714 0.21077 0.40647 0.0
C3662 C 0.84633 0.18236 0.40049 0.0
C3663 C 0.82982 0.18724 0.4053 0.0
C3664 C 0.82713 0.20412 0.41072 0.0
C3665 C 0.84068 0.21577 0.41135 0.0
C3666 C 0.79139 0.16086 0.4187 0.0
C3667 C 0.79167 0.14771 0.40657 0.0
C3668 C 0.80339 0.17405 0.41802 0.0
C3669 C 0.81576 0.17446 0.40506 0.0
C3670 C 0.81529 0.1618 0.39239 0.0
C3671 C 0.80351 0.14852 0.39323 0.0
H3672 H 0.8013 0.86307 0.38399 0.0
H3673 H 0.78228 0.84362 0.43172 0.0
H3674 H 0.82158 0.83978 0.3825 0.0
H3675 H 0.80314 0.8206 0.43064 0.0
H3676 H 0.8366 0.77456 0.41875 0.0
H3677 H 0.81316 0.795 0.41758 0.0
H3678 H 0.84717 0.83248 0.39596 0.0
H3679 H 0.87018 0.81205 0.39655 0.0
C3680 C 0.80144 0.85377 0.39418 0.0
C3681 C 0.79028 0.85529 0.40806 0.0
C3682 C 0.81317 0.84046 0.39339 0.0
C3683 C 0.81428 0.82841 0.40659 0.0
C3684 C 0.80262 0.82953 0.42016 0.0
C3685 C 0.79069 0.84278 0.42084 0.0
C3686 C 0.83899 0.78713 0.41361 0.0
C3687 C 0.85528 0.79163 0.40772 0.0
C3688 C 0.82557 0.7989 0.41303 0.0
C3689 C 0.82818 0.81544 0.40663 0.0
C3690 C 0.84449 0.8198 0.40063 0.0
C3691 C 0.85779 0.80805 0.40109 0.0
H3692 H 0.13076 0.81335 0.39847 0.0
H3693 H 0.1643 0.77452 0.41821 0.0
H3694 H 0.15401 0.8335 0.39821 0.0
H3695 H 0.18802 0.79477 0.41737 0.0
H3696 H 0.21996 0.84289 0.43202 0.0
H3697 H 0.19886 0.82001 0.43096 0.0
H3698 H 0.17923 0.84051 0.38384 0.0
H3699 H 0.19972 0.86364 0.38534 0.0
C3700 C 0.14319 0.80901 0.40256 0.0
C3701 C 0.14564 0.79226 0.40834 0.0
C3702 C 0.15662 0.8206 0.40229 0.0
C3703 C 0.17301 0.81578 0.40759 0.0
C3704 C 0.17554 0.79898 0.41331 0.0
C3705 C 0.16198 0.78734 0.41372 0.0
C3706 C 0.21122 0.84237 0.42137 0.0
C3707 C 0.21132 0.85519 0.4089 0.0
C3708 C 0.19916 0.82921 0.42071 0.0
C3709 C 0.1871 0.82853 0.40746 0.0
C3710 C 0.18795 0.84087 0.39451 0.0
C3711 C 0.19979 0.85409 0.3953 0.0
H3712 H 0.22253 0.1601 0.42816 0.0
H3713 H 0.19996 0.13622 0.38409 0.0
H3714 H 0.20114 0.18257 0.42694 0.0
H3715 H 0.17908 0.15897 0.38237 0.0
H3716 H 0.13134 0.18741 0.39798 0.0
H3717 H 0.15457 0.1672 0.39718 0.0
H3718 H 0.1896 0.20673 0.41275 0.0
H3719 H 0.16601 0.22694 0.41418 0.0
C3720 C 0.21321 0.15984 0.41801 0.0
C3721 C 0.21282 0.14628 0.40635 0.0
C3722 C 0.20096 0.17277 0.41725 0.0
C3723 C 0.18817 0.17253 0.40469 0.0
C3724 C 0.18841 0.15938 0.39251 0.0
C3725 C 0.20047 0.14637 0.39341 0.0
C3726 C 0.14399 0.19187 0.40114 0.0
C3727 C 0.14678 0.20882 0.40617 0.0
C3728 C 0.15741 0.18026 0.40056 0.0
C3729 C 0.17408 0.18528 0.4048 0.0
C3730 C 0.17693 0.20233 0.4096 0.0
C3731 C 0.16342 0.21395 0.41033 0.0
H3732 H 0.22814 0.1655 0.5879 0.0
H3733 H 0.18855 0.13169 0.60567 0.0
H3734 H 0.20827 0.1894 0.58933 0.0
H3735 H 0.16871 0.1552 0.60649 0.0
H3736 H 0.13852 0.20094 0.61933 0.0
H3737 H 0.16132 0.18014 0.62112 0.0
H3738 H 0.18378 0.20082 0.57536 0.0
H3739 H 0.16126 0.22218 0.57404 0.0
C3740 C 0.21522 0.16316 0.59211 0.0
C3741 C 0.20996 0.14668 0.5967 0.0
C3742 C 0.2038 0.17685 0.59284 0.0
C3743 C 0.18685 0.17431 0.59809 0.0
C3744 C 0.18171 0.1578 0.60276 0.0
C3745 C 0.19312 0.14422 0.60217 0.0
C3746 C 0.14844 0.20118 0.60976 0.0
C3747 C 0.148 0.21309 0.59645 0.0
C3748 C 0.16148 0.18916 0.61071 0.0
C3749 C 0.17427 0.18853 0.59821 0.0
C3750 C 0.17423 0.20095 0.58529 0.0
C3751 C 0.16128 0.21317 0.58448 0.0
H3752 H 0.81265 0.13197 0.60619 0.0
H3753 H 0.77501 0.16531 0.584 0.0
H3754 H 0.83313 0.155 0.60632 0.0
H3755 H 0.79549 0.18877 0.5847 0.0
H3756 H 0.84405 0.21943 0.56968 0.0
H3757 H 0.821 0.19859 0.57123 0.0
H3758 H 0.84055 0.18077 0.61946 0.0
H3759 H 0.86385 0.20103 0.61751 0.0
C3760 C 0.80864 0.14431 0.60156 0.0
C3761 C 0.79215 0.14675 0.59506 0.0
C3762 C 0.8204 0.15763 0.60174 0.0
C3763 C 0.81601 0.17387 0.59562 0.0
C3764 C 0.79941 0.17641 0.58935 0.0
C3765 C 0.78762 0.16299 0.58904 0.0
C3766 C 0.84329 0.21116 0.58068 0.0
C3767 C 0.85589 0.21172 0.59335 0.0
C3768 C 0.83002 0.19924 0.58162 0.0
C3769 C 0.82899 0.18777 0.59536 0.0
C3770 C 0.84115 0.18904 0.60845 0.0
C3771 C 0.85448 0.20075 0.6074 0.0
H3772 H 0.2179 0.84302 0.57167 0.0
H3773 H 0.19871 0.86355 0.61888 0.0
H3774 H 0.19675 0.82024 0.57299 0.0
H3775 H 0.17815 0.8405 0.62062 0.0
H3776 H 0.12924 0.81334 0.60645 0.0
H3777 H 0.15259 0.83343 0.60692 0.0
H3778 H 0.18619 0.79501 0.58644 0.0
H3779 H 0.16241 0.77491 0.58539 0.0
C3780 C 0.20939 0.84247 0.5825 0.0
C3781 C 0.20981 0.8552 0.59505 0.0
C3782 C 0.19729 0.82936 0.5833 0.0
C3783 C 0.18551 0.82862 0.59679 0.0
C3784 C 0.18665 0.84088 0.6098 0.0
C3785 C 0.19854 0.85407 0.60886 0.0
C3786 C 0.14161 0.80907 0.60214 0.0
C3787 C 0.14392 0.79248 0.59586 0.0
C3788 C 0.1551 0.82061 0.60253 0.0
C3789 C 0.1714 0.81588 0.59683 0.0
C3790 C 0.1738 0.79918 0.59077 0.0
C3791 C 0.16019 0.78762 0.59025 0.0
H3792 H 0.08936 0.27208 0.45894 0.0
H3793 H 0.11115 0.22163 0.45781 0.0
H3794 H 0.08952 0.27159 0.48971 0.0
H3795 H 0.11211 0.22143 0.4889 0.0
H3796 H 0.09581 0.22112 0.54543 0.0
H3797 H 0.09578 0.22002 0.51436 0.0
H3798 H 0.10802 0.27367 0.51264 0.0
H3799 H 0.10707 0.27494 0.54333 0.0
C3800 C 0.09439 0.26093 0.46527 0.0
C3801 C 0.10034 0.24694 0.45587 0.0
C3802 C 0.09459 0.26068 0.483 0.0
C3803 C 0.10105 0.24656 0.49191 0.0
C3804 C 0.1069 0.23246 0.48252 0.0
C3805 C 0.10646 0.23261 0.46468 0.0
C3806 C 0.09853 0.23266 0.53838 0.0
C3807 C 0.10138 0.24813 0.54693 0.0
C3808 C 0.0986 0.23201 0.52055 0.0
C3809 C 0.10172 0.24679 0.51089 0.0
C3810 C 0.10511 0.2621 0.51954 0.0
C3811 C 0.10475 0.2628 0.53726 0.0
H3812 H 0.73133 0.08653 0.54251 0.0
H3813 H 0.78099 0.11011 0.5448 0.0
H3814 H 0.73244 0.08687 0.51175 0.0
H3815 H 0.78181 0.11115 0.5137 0.0
H3816 H 0.78322 0.09528 0.45693 0.0
H3817 H 0.78395 0.09479 0.48801 0.0
H3818 H 0.73017 0.10622 0.48928 0.0
H3819 H 0.72927 0.10583 0.45855 0.0
C3820 C 0.74246 0.09194 0.53644 0.0
C3821 C 0.75602 0.09841 0.54614 0.0
C3822 C 0.74305 0.09225 0.51873 0.0
C3823 C 0.7571 0.09929 0.51016 0.0
C3824 C 0.77083 0.10553 0.51985 0.0
C3825 C 0.77034 0.10501 0.53767 0.0
C3826 C 0.77157 0.09773 0.46388 0.0
C3827 C 0.75617 0.10052 0.45519 0.0
C3828 C 0.77201 0.09753 0.48171 0.0
C3829 C 0.75708 0.10028 0.49122 0.0
C3830 C 0.74184 0.1036 0.48246 0.0
C3831 C 0.74136 0.10355 0.46474 0.0
H3832 H 0.89297 0.78114 0.45847 0.0
H3833 H 0.91418 0.73047 0.46095 0.0
H3834 H 0.89172 0.78203 0.48957 0.0
H3835 H 0.91357 0.73161 0.4917 0.0
H3836 H 0.89345 0.72912 0.54448 0.0
H3837 H 0.8935 0.73025 0.51377 0.0
H3838 H 0.90811 0.78328 0.5156 0.0
H3839 H 0.90731 0.78234 0.54672 0.0
C3840 C 0.89749 0.77027 0.46563 0.0
C3841 C 0.90348 0.75566 0.45719 0.0
C3842 C 0.89686 0.77081 0.48346 0.0
C3843 C 0.90233 0.7568 0.49319 0.0
C3844 C 0.90879 0.74246 0.48467 0.0
C3845 C 0.90924 0.74184 0.46696 0.0
C3846 C 0.89656 0.7411 0.53844 0.0
C3847 C 0.90043 0.75562 0.54816 0.0
C3848 C 0.89674 0.74171 0.52073 0.0
C3849 C 0.90109 0.75678 0.51213 0.0
C3850 C 0.90461 0.77147 0.52179 0.0
C3851 C 0.90422 0.77091 0.53963 0.0
H3852 H 0.21917 0.90976 0.45755 0.0
H3853 H 0.27234 0.89606 0.46056 0.0
H3854 H 0.21775 0.91045 0.48867 0.0
H3855 H 0.27073 0.89599 0.49123 0.0
H3856 H 0.26997 0.91619 0.54406 0.0
H3857 H 0.26905 0.91601 0.51332 0.0
H3858 H 0.21864 0.89398 0.51476 0.0
H3859 H 0.21932 0.89482 0.54592 0.0
C3860 C 0.23048 0.90669 0.4648 0.0
C3861 C 0.2459 0.90297 0.45649 0.0
C3862 C 0.22965 0.90702 0.48264 0.0
C3863 C 0.24418 0.90351 0.49252 0.0
C3864 C 0.25938 0.89923 0.48412 0.0
C3865 C 0.26027 0.89912 0.46642 0.0
C3866 C 0.25864 0.91132 0.53791 0.0
C3867 C 0.24478 0.90537 0.54751 0.0
C3868 C 0.25815 0.91111 0.52019 0.0
C3869 C 0.2439 0.90467 0.51147 0.0
C3870 C 0.22981 0.89908 0.52104 0.0
C3871 C 0.23022 0.89949 0.53889 0.0
H3872 H 0.10577 0.78262 0.54531 0.0
H3873 H 0.08479 0.73179 0.54282 0.0
H3874 H 0.10692 0.78355 0.51419 0.0
H3875 H 0.08531 0.73297 0.51207 0.0
H3876 H 0.10564 0.73047 0.45948 0.0
H3877 H 0.1056 0.73177 0.49014 0.0
H3878 H 0.09039 0.78458 0.48808 0.0
H3879 H 0.09119 0.78349 0.45695 0.0
C3880 C 0.10128 0.77172 0.53815 0.0
C3881 C 0.09539 0.75705 0.54658 0.0
C3882 C 0.10185 0.77229 0.52032 0.0
C3883 C 0.09643 0.75825 0.51058 0.0
C3884 C 0.09005 0.74385 0.5191 0.0
C3885 C 0.08966 0.74321 0.53681 0.0
C3886 C 0.10242 0.74245 0.46544 0.0
C3887 C 0.09838 0.75687 0.45564 0.0
C3888 C 0.10223 0.74315 0.48314 0.0
C3889 C 0.0977 0.7582 0.49166 0.0
C3890 C 0.09402 0.7728 0.48194 0.0
C3891 C 0.09441 0.77215 0.46409 0.0
H3892 H 0.22127 0.09476 0.45752 0.0
H3893 H 0.27507 0.10602 0.45978 0.0
H3894 H 0.22011 0.09473 0.48859 0.0
H3895 H 0.27374 0.10691 0.49047 0.0
H3896 H 0.27203 0.08789 0.54405 0.0
H3897 H 0.27153 0.08812 0.51327 0.0
H3898 H 0.2216 0.11117 0.51411 0.0
H3899 H 0.22181 0.11019 0.5452 0.0
C3900 C 0.23278 0.09748 0.4646 0.0
C3901 C 0.24828 0.10032 0.45609 0.0
C3902 C 0.23211 0.09754 0.48244 0.0
C3903 C 0.24687 0.10063 0.49213 0.0
C3904 C 0.26219 0.10403 0.48352 0.0
C3905 C 0.26292 0.1037 0.46581 0.0
C3906 C 0.26092 0.09303 0.53773 0.0
C3907 C 0.247 0.09911 0.54714 0.0
C3908 C 0.26067 0.09328 0.52 0.0
C3909 C 0.24662 0.09989 0.5111 0.0
C3910 C 0.23259 0.10585 0.5205 0.0
C3911 C 0.23274 0.10538 0.53833 0.0
H3912 H 0.8957 0.21966 0.54469 0.0
H3913 H 0.91916 0.26935 0.54188 0.0
H3914 H 0.89487 0.21844 0.51349 0.0
H3915 H 0.91889 0.26789 0.51117 0.0
H3916 H 0.89768 0.27178 0.45911 0.0
H3917 H 0.89784 0.27007 0.48975 0.0
H3918 H 0.91154 0.2169 0.48696 0.0
H3919 H 0.9107 0.21843 0.4558 0.0
C3920 C 0.90085 0.2302 0.53745 0.0
C3921 C 0.90725 0.24471 0.54579 0.0
C3922 C 0.90043 0.22948 0.51959 0.0
C3923 C 0.90651 0.24321 0.5098 0.0
C3924 C 0.91361 0.2573 0.51825 0.0
C3925 C 0.91385 0.2581 0.53594 0.0
C3926 C 0.9006 0.25963 0.46488 0.0
C3927 C 0.90425 0.24526 0.45488 0.0
C3928 C 0.90084 0.25869 0.48257 0.0
C3929 C 0.90503 0.24343 0.49089 0.0
C3930 C 0.90823 0.22885 0.48097 0.0
C3931 C 0.90781 0.22975 0.46312 0.0
H3932 H 0.78208 0.89508 0.45641 0.0
H3933 H 0.73256 0.9188 0.45886 0.0
H3934 H 0.78305 0.89422 0.48761 0.0
H3935 H 0.73378 0.91851 0.48958 0.0
H3936 H 0.72947 0.89746 0.54173 0.0
H3937 H 0.73129 0.89764 0.51109 0.0
H3938 H 0.7846 0.91082 0.5141 0.0
H3939 H 0.78295 0.90995 0.54524 0.0
C3940 C 0.77152 0.90028 0.46357 0.0
C3941 C 0.75714 0.90677 0.45512 0.0
C3942 C 0.7721 0.89985 0.48144 0.0
C3943 C 0.75835 0.906 0.49114 0.0
C3944 C 0.74438 0.91316 0.48258 0.0
C3945 C 0.74372 0.91342 0.46488 0.0
C3946 C 0.74167 0.90028 0.536 0.0
C3947 C 0.75605 0.90376 0.54606 0.0
C3948 C 0.74267 0.90053 0.51831 0.0
C3949 C 0.75801 0.90456 0.51005 0.0
C3950 C 0.77258 0.90763 0.52004 0.0
C3951 C 0.77162 0.90719 0.53788 0.0
H3952 H 0.4577 0.09397 0.21897 0.0
H3953 H 0.45979 0.10499 0.27281 0.0
H3954 H 0.48878 0.09319 0.21804 0.0
H3955 H 0.49054 0.10503 0.27172 0.0
H3956 H 0.54603 0.10788 0.22098 0.0
H3957 H 0.51489 0.10921 0.22003 0.0
H3958 H 0.51256 0.08508 0.26941 0.0
H3959 H 0.54329 0.08441 0.27061 0.0
C3960 C 0.46475 0.09646 0.23055 0.0
C3961 C 0.45619 0.09944 0.24599 0.0
C3962 C 0.48258 0.09609 0.22999 0.0
C3963 C 0.49223 0.09883 0.24484 0.0
C3964 C 0.48359 0.1024 0.26011 0.0
C3965 C 0.46587 0.10254 0.26071 0.0
C3966 C 0.5388 0.10283 0.23157 0.0
C3967 C 0.54716 0.09622 0.24595 0.0
C3968 C 0.52096 0.10354 0.23102 0.0
C3969 C 0.51116 0.0975 0.24477 0.0
C3970 C 0.51962 0.09034 0.25881 0.0
C3971 C 0.53732 0.08984 0.25945 0.0
H3972 H 0.89473 0.54574 0.21986 0.0
H3973 H 0.91573 0.5435 0.27062 0.0
H3974 H 0.89389 0.51457 0.21894 0.0
H3975 H 0.91554 0.51275 0.26947 0.0
H3976 H 0.89577 0.45984 0.27218 0.0
H3977 H 0.8956 0.49055 0.27083 0.0
H3978 H 0.91037 0.4885 0.21791 0.0
H3979 H 0.90979 0.45736 0.21907 0.0
C3980 C 0.89932 0.53863 0.23073 0.0
C3981 C 0.90509 0.54715 0.24539 0.0
C3982 C 0.89891 0.52076 0.23018 0.0
C3983 C 0.9044 0.51108 0.24423 0.0
C3984 C 0.91072 0.5197 0.25859 0.0
C3985 C 0.91094 0.53743 0.25921 0.0
C3986 C 0.89887 0.46582 0.26017 0.0
C3987 C 0.90285 0.45602 0.24575 0.0
C3988 C 0.89893 0.48354 0.25944 0.0
C3989 C 0.90327 0.4921 0.24434 0.0
C3990 C 0.90689 0.48236 0.22974 0.0
C3991 C 0.90663 0.4645 0.23042 0.0
H3992 H 0.5423 0.89628 0.27276 0.0
H3993 H 0.54473 0.90669 0.21881 0.0
H3994 H 0.51157 0.89633 0.27147 0.0
H3995 H 0.51364 0.90752 0.21768 0.0
H3996 H 0.45622 0.89275 0.22081 0.0
H3997 H 0.48737 0.89146 0.21984 0.0
H3998 H 0.48976 0.91656 0.26874 0.0
H3999 H 0.45903 0.91721 0.26997 0.0
C4000 C 0.5363 0.8986 0.26059 0.0
C4001 C 0.54607 0.90152 0.2459 0.0
C4002 C 0.51858 0.8988 0.25987 0.0
C4003 C 0.51005 0.90223 0.24452 0.0
C4004 C 0.51977 0.90475 0.2297 0.0
C4005 C 0.5376 0.90435 0.23037 0.0
C4006 C 0.46347 0.89803 0.23129 0.0
C4007 C 0.45513 0.90488 0.24556 0.0
C4008 C 0.48131 0.89734 0.23072 0.0
C4009 C 0.49112 0.90364 0.24435 0.0
C4010 C 0.48268 0.91109 0.25825 0.0
C4011 C 0.46498 0.91158 0.2589 0.0
H4012 H 0.10976 0.54581 0.22234 0.0
H4013 H 0.08595 0.54432 0.27186 0.0
H4014 H 0.11082 0.5147 0.222 0.0
H4015 H 0.08628 0.51352 0.27122 0.0
H4016 H 0.10498 0.46031 0.27528 0.0
H4017 H 0.10544 0.49102 0.27396 0.0
H4018 H 0.09457 0.48895 0.22007 0.0
H4019 H 0.09502 0.45787 0.22125 0.0
C4020 C 0.10462 0.53885 0.23307 0.0
C4021 C 0.09794 0.54756 0.2472 0.0
C4022 C 0.10513 0.52101 0.23284 0.0
C4023 C 0.09882 0.51153 0.24667 0.0
C4024 C 0.09172 0.52033 0.26054 0.0
C4025 C 0.09142 0.53806 0.26087 0.0
C4026 C 0.10285 0.4663 0.26308 0.0
C4027 C 0.09996 0.45653 0.24837 0.0
C4028 C 0.10293 0.48402 0.26235 0.0
C4029 C 0.09977 0.49257 0.24695 0.0
C4030 C 0.09718 0.48283 0.23213 0.0
C4031 C 0.09735 0.46499 0.23282 0.0
H4032 H 0.45849 0.91814 0.73218 0.0
H4033 H 0.45643 0.89452 0.78176 0.0
H4034 H 0.48924 0.91762 0.73303 0.0
H4035 H 0.48758 0.8933 0.78235 0.0
H4036 H 0.54477 0.90847 0.78278 0.0
H4037 H 0.5137 0.90926 0.7841 0.0
H4038 H 0.51129 0.89781 0.73035 0.0
H4039 H 0.54201 0.89786 0.72889 0.0
C4040 C 0.46462 0.91271 0.74326 0.0
C4041 C 0.45497 0.90623 0.75684 0.0
C4042 C 0.48233 0.91229 0.7437 0.0
C4043 C 0.49098 0.90511 0.75761 0.0
C4044 C 0.48136 0.89899 0.77145 0.0
C4045 C 0.46352 0.89963 0.7711 0.0
C4046 C 0.53757 0.90607 0.77127 0.0
C4047 C 0.54595 0.9032 0.7557 0.0
C4048 C 0.51975 0.90645 0.77204 0.0
C4049 C 0.50992 0.90382 0.75729 0.0
C4050 C 0.51837 0.90037 0.7419 0.0
C4051 C 0.53608 0.90022 0.74108 0.0
H4052 H 0.11048 0.45774 0.78106 0.0
H4053 H 0.09052 0.45861 0.72982 0.0
H4054 H 0.11187 0.48879 0.781 0.0
H4055 H 0.09116 0.48943 0.73002 0.0
H4056 H 0.10861 0.54348 0.72767 0.0
H4057 H 0.1096 0.51267 0.72871 0.0
H4058 H 0.09531 0.51394 0.78181 0.0
H4059 H 0.09521 0.54495 0.78098 0.0
C4060 C 0.10628 0.46455 0.76983 0.0
C4061 C 0.10048 0.45566 0.75542 0.0
C4062 C 0.10699 0.48237 0.76983 0.0
C4063 C 0.10173 0.49171 0.75547 0.0
C4064 C 0.09573 0.48275 0.74117 0.0
C4065 C 0.09524 0.465 0.7411 0.0
C4066 C 0.10584 0.53724 0.73963 0.0
C4067 C 0.10183 0.54676 0.75424 0.0
C4068 C 0.10624 0.51949 0.74019 0.0
C4069 C 0.10234 0.5107 0.7553 0.0
C4070 C 0.09859 0.52022 0.77 0.0
C4071 C 0.09843 0.53804 0.7695 0.0
H4072 H 0.45774 0.09533 0.78253 0.0
H4073 H 0.46044 0.10562 0.72857 0.0
H4074 H 0.48883 0.09455 0.78382 0.0
H4075 H 0.49114 0.10571 0.73001 0.0
H4076 H 0.54401 0.08569 0.73178 0.0
H4077 H 0.51325 0.08606 0.7327 0.0
H4078 H 0.51493 0.1105 0.78197 0.0
H4079 H 0.54607 0.10941 0.78133 0.0
C4080 C 0.46492 0.09766 0.771 0.0
C4081 C 0.45653 0.10045 0.75543 0.0
C4082 C 0.48276 0.09729 0.77175 0.0
C4083 C 0.49256 0.09984 0.75698 0.0
C4084 C 0.48409 0.10321 0.74158 0.0
C4085 C 0.46638 0.10334 0.74079 0.0
C4086 C 0.53788 0.09112 0.74286 0.0
C4087 C 0.54753 0.09766 0.75642 0.0
C4088 C 0.52016 0.09145 0.74334 0.0
C4089 C 0.51151 0.09861 0.75727 0.0
C4090 C 0.52114 0.10481 0.77107 0.0
C4091 C 0.53899 0.10425 0.77069 0.0
H4092 H 0.91136 0.5449 0.78341 0.0
H4093 H 0.8966 0.54216 0.73048 0.0
H4094 H 0.91211 0.51374 0.78461 0.0
H4095 H 0.89665 0.51149 0.73189 0.0
H4096 H 0.91752 0.45902 0.73174 0.0
H4097 H 0.91734 0.48976 0.73319 0.0
H4098 H 0.89533 0.48746 0.78352 0.0
H4099 H 0.8961 0.45628 0.7823 0.0
C4100 C 0.90807 0.53771 0.77212 0.0
C4101 C 0.90404 0.54611 0.75682 0.0
C4102 C 0.90844 0.51985 0.77283 0.0
C4103 C 0.90469 0.51007 0.75828 0.0
C4104 C 0.90007 0.51855 0.74323 0.0
C4105 C 0.89989 0.53625 0.74247 0.0
C4106 C 0.91266 0.46498 0.74317 0.0
C4107 C 0.90665 0.45514 0.75684 0.0
C4108 C 0.91246 0.48269 0.74396 0.0
C4109 C 0.906 0.49115 0.75834 0.0
C4110 C 0.90043 0.48136 0.77227 0.0
C4111 C 0.90081 0.4635 0.77155 0.0
H4112 H 0.21886 0.54544 0.10518 0.0
H4113 H 0.27122 0.54319 0.08855 0.0
H4114 H 0.21795 0.51434 0.10631 0.0
H4115 H 0.27011 0.51242 0.08897 0.0
H4116 H 0.27073 0.45914 0.1082 0.0
H4117 H 0.2698 0.4899 0.10838 0.0
H4118 H 0.21796 0.4885 0.09002 0.0
H4119 H 0.21865 0.45739 0.09062 0.0
C4120 C 0.23011 0.53834 0.10163 0.0
C4121 C 0.24516 0.54685 0.09694 0.0
C4122 C 0.22957 0.52049 0.10219 0.0
C4123 C 0.24401 0.51078 0.09793 0.0
C4124 C 0.25886 0.51938 0.09281 0.0
C4125 C 0.25947 0.53712 0.09245 0.0
C4126 C 0.25905 0.4653 0.10432 0.0
C4127 C 0.24478 0.4557 0.09936 0.0
C4128 C 0.25857 0.48304 0.10426 0.0
C4129 C 0.24389 0.4918 0.09896 0.0
C4130 C 0.22945 0.48223 0.0943 0.0
C4131 C 0.22987 0.46437 0.09457 0.0
H4132 H 0.27224 0.54376 0.91496 0.0
H4133 H 0.22258 0.54524 0.89138 0.0
H4134 H 0.27146 0.51299 0.91487 0.0
H4135 H 0.22211 0.51409 0.89057 0.0
H4136 H 0.22148 0.4573 0.90705 0.0
H4137 H 0.22026 0.48841 0.9071 0.0
H4138 H 0.27404 0.49042 0.89572 0.0
H4139 H 0.27542 0.45973 0.89657 0.0
C4140 C 0.26119 0.53751 0.90958 0.0
C4141 C 0.24753 0.54701 0.90304 0.0
C4142 C 0.26079 0.51978 0.90942 0.0
C4143 C 0.24684 0.51096 0.90245 0.0
C4144 C 0.23301 0.52043 0.89614 0.0
C4145 C 0.23332 0.53829 0.89651 0.0
C4146 C 0.23302 0.46442 0.90452 0.0
C4147 C 0.24857 0.45596 0.90189 0.0
C4148 C 0.2323 0.48227 0.90446 0.0
C4149 C 0.24709 0.492 0.90163 0.0
C4150 C 0.26246 0.48343 0.89842 0.0
C4151 C 0.26322 0.46572 0.89873 0.0
H4152 H 0.45985 0.27186 0.91448 0.0
H4153 H 0.45816 0.22043 0.89501 0.0
H4154 H 0.49062 0.27104 0.91433 0.0
H4155 H 0.48926 0.21986 0.89413 0.0
H4156 H 0.54615 0.22042 0.91025 0.0
H4157 H 0.51502 0.21928 0.91066 0.0
H4158 H 0.51311 0.27198 0.89498 0.0
H4159 H 0.54377 0.27334 0.89544 0.0
C4160 C 0.46605 0.2604 0.90998 0.0
C4161 C 0.45649 0.24626 0.90463 0.0
C4162 C 0.48378 0.25996 0.9098 0.0
C4163 C 0.49252 0.24547 0.90397 0.0
C4164 C 0.48298 0.23119 0.89881 0.0
C4165 C 0.46515 0.23155 0.89921 0.0
C4166 C 0.53903 0.23173 0.90686 0.0
C4167 C 0.54753 0.247 0.9029 0.0
C4168 C 0.52118 0.23106 0.90702 0.0
C4169 C 0.51148 0.2456 0.90306 0.0
C4170 C 0.52007 0.26064 0.89856 0.0
C4171 C 0.53777 0.26137 0.89865 0.0
H4172 H 0.78319 0.54568 0.91073 0.0
H4173 H 0.73049 0.543 0.89519 0.0
H4174 H 0.78437 0.51457 0.9115 0.0
H4175 H 0.73189 0.51229 0.89515 0.0
H4176 H 0.73179 0.45924 0.91509 0.0
H4177 H 0.73267 0.49001 0.91483 0.0
H4178 H 0.78404 0.48858 0.89522 0.0
H4179 H 0.78339 0.45744 0.89619 0.0
C4180 C 0.77193 0.53849 0.90727 0.0
C4181 C 0.75671 0.5469 0.903 0.0
C4182 C 0.77263 0.52065 0.90763 0.0
C4183 C 0.75816 0.51084 0.9036 0.0
C4184 C 0.74316 0.51934 0.8988 0.0
C4185 C 0.74241 0.53705 0.89866 0.0
C4186 C 0.74332 0.46541 0.91073 0.0
C4187 C 0.75747 0.45582 0.90553 0.0
C4188 C 0.74379 0.48314 0.91047 0.0
C4189 C 0.75832 0.49188 0.90472 0.0
C4190 C 0.77265 0.48231 0.89982 0.0
C4191 C 0.77226 0.46446 0.90029 0.0
H4192 H 0.45857 0.78325 0.90743 0.0
H4193 H 0.46176 0.72935 0.89682 0.0
H4194 H 0.48967 0.78483 0.90821 0.0
H4195 H 0.49243 0.73109 0.89676 0.0
H4196 H 0.54499 0.73304 0.91722 0.0
H4197 H 0.51425 0.734 0.91691 0.0
H4198 H 0.51592 0.78306 0.89206 0.0
H4199 H 0.5471 0.78237 0.89305 0.0
C4200 C 0.46586 0.7718 0.90504 0.0
C4201 C 0.45761 0.75615 0.90216 0.0
C4202 C 0.48369 0.77273 0.90541 0.0
C4203 C 0.49361 0.75804 0.9028 0.0
C4204 C 0.48527 0.74258 0.89932 0.0
C4205 C 0.46758 0.74162 0.89917 0.0
C4206 C 0.53887 0.74408 0.91171 0.0
C4207 C 0.54853 0.75755 0.90499 0.0
C4208 C 0.52117 0.74459 0.91143 0.0
C4209 C 0.51253 0.75844 0.90412 0.0
C4210 C 0.52215 0.7722 0.89782 0.0
C4211 C 0.54 0.7718 0.89832 0.0
H4212 H 0.72758 0.54354 0.10541 0.0
H4213 H 0.78148 0.54464 0.09448 0.0
H4214 H 0.72827 0.51276 0.10625 0.0
H4215 H 0.78199 0.51358 0.09448 0.0
H4216 H 0.77923 0.45715 0.11027 0.0
H4217 H 0.77991 0.48825 0.11119 0.0
H4218 H 0.7303 0.4898 0.08743 0.0
H4219 H 0.72934 0.45901 0.08719 0.0
C4220 C 0.73961 0.53724 0.10315 0.0
C4221 C 0.75447 0.54664 0.09987 0.0
C4222 C 0.73997 0.51949 0.10347 0.0
C4223 C 0.75514 0.51058 0.10022 0.0
C4224 C 0.77011 0.51998 0.09721 0.0
C4225 C 0.76979 0.53781 0.09712 0.0
C4226 C 0.76848 0.46418 0.10527 0.0
C4227 C 0.75417 0.45557 0.0988 0.0
C4228 C 0.7689 0.48201 0.10571 0.0
C4229 C 0.75508 0.49161 0.09954 0.0
C4230 C 0.74099 0.48291 0.09273 0.0
C4231 C 0.74048 0.46518 0.09248 0.0
H4232 H 0.54471 0.78154 0.10735 0.0
H4233 H 0.54232 0.73051 0.08691 0.0
H4234 H 0.51359 0.78253 0.10812 0.0
H4235 H 0.51158 0.73176 0.08702 0.0
H4236 H 0.45858 0.72963 0.10629 0.0
H4237 H 0.48925 0.73078 0.10673 0.0
H4238 H 0.48772 0.78358 0.0914 0.0
H4239 H 0.45656 0.78264 0.09176 0.0
C4240 C 0.53757 0.7706 0.10291 0.0
C4241 C 0.54604 0.75586 0.09727 0.0
C4242 C 0.51973 0.77121 0.10326 0.0
C4243 C 0.51001 0.75715 0.09784 0.0
C4244 C 0.51857 0.74266 0.09175 0.0
C4245 C 0.53629 0.74197 0.09159 0.0
C4246 C 0.46466 0.74158 0.10315 0.0
C4247 C 0.455 0.75604 0.09895 0.0
C4248 C 0.48236 0.74219 0.10323 0.0
C4249 C 0.49105 0.75719 0.09881 0.0
C4250 C 0.48146 0.77183 0.09496 0.0
C4251 C 0.4636 0.77127 0.09509 0.0
H4252 H 0.5417 0.27206 0.08894 0.0
H4253 H 0.54332 0.22045 0.10789 0.0
H4254 H 0.51092 0.27124 0.08918 0.0
H4255 H 0.51223 0.21987 0.10885 0.0
H4256 H 0.45537 0.22045 0.09276 0.0
H4257 H 0.48648 0.2194 0.09234 0.0
H4258 H 0.48838 0.27195 0.10853 0.0
H4259 H 0.4577 0.27322 0.10814 0.0
C4260 C 0.53549 0.26056 0.09334 0.0
C4261 C 0.54504 0.24636 0.09851 0.0
C4262 C 0.51775 0.26012 0.09358 0.0
C4263 C 0.50899 0.24557 0.09928 0.0
C4264 C 0.51852 0.23125 0.10427 0.0
C4265 C 0.53635 0.23161 0.10382 0.0
C4266 C 0.46247 0.23174 0.09627 0.0
C4267 C 0.45396 0.24694 0.10039 0.0
C4268 C 0.48032 0.23112 0.0961 0.0
C4269 C 0.49002 0.24566 0.1002 0.0
C4270 C 0.48142 0.26063 0.10485 0.0
C4271 C 0.46371 0.26131 0.10479 0.0
H4272 H 0.60965 0.72115 0.04446 0.0
H4273 H 0.58579 0.77062 0.04186 0.0
H4274 H 0.6114 0.72046 0.01337 0.0
H4275 H 0.5869 0.76965 0.01111 0.0
H4276 H 0.60757 0.77353 0.95873 0.0
H4277 H 0.60736 0.77219 0.98944 0.0
H4278 H 0.59539 0.71852 0.98716 0.0
H4279 H 0.5964 0.7197 0.95609 0.0
C4280 C 0.60463 0.73177 0.03727 0.0
C4281 C 0.59777 0.74602 0.04565 0.0
C4282 C 0.60557 0.73136 0.01946 0.0
C4283 C 0.59952 0.74511 0.00971 0.0
C4284 C 0.59215 0.75905 0.01817 0.0
C4285 C 0.59141 0.75955 0.03586 0.0
C4286 C 0.60507 0.76137 0.96468 0.0
C4287 C 0.60197 0.74673 0.95487 0.0
C4288 C 0.60478 0.76063 0.98238 0.0
C4289 C 0.60106 0.74531 0.99083 0.0
C4290 C 0.59838 0.73052 0.98107 0.0
C4291 C 0.59889 0.73121 0.96326 0.0
H4292 H 0.23154 0.58595 0.95804 0.0
H4293 H 0.28087 0.61026 0.95649 0.0
H4294 H 0.23233 0.58609 0.98881 0.0
H4295 H 0.28136 0.61108 0.98762 0.0
H4296 H 0.282 0.59495 0.0445 0.0
H4297 H 0.28332 0.59456 0.0134 0.0
H4298 H 0.22949 0.60558 0.01114 0.0
H4299 H 0.22802 0.60511 0.04181 0.0
C4300 C 0.24252 0.59148 0.96428 0.0
C4301 C 0.25607 0.59823 0.95477 0.0
C4302 C 0.24294 0.59166 0.98199 0.0
C4303 C 0.25678 0.59886 0.99077 0.0
C4304 C 0.27054 0.60534 0.98129 0.0
C4305 C 0.27022 0.60496 0.96346 0.0
C4306 C 0.27048 0.59732 0.03732 0.0
C4307 C 0.25489 0.59998 0.04571 0.0
C4308 C 0.27125 0.59718 0.01949 0.0
C4309 C 0.25647 0.59983 0.00971 0.0
C4310 C 0.24106 0.60303 0.01818 0.0
C4311 C 0.24024 0.60294 0.03588 0.0
H4312 H 0.39484 0.23079 0.04389 0.0
H4313 H 0.40872 0.28401 0.04612 0.0
H4314 H 0.3952 0.2318 0.01324 0.0
H4315 H 0.4098 0.28482 0.01495 0.0
H4316 H 0.39448 0.28149 0.95746 0.0
H4317 H 0.3933 0.28305 0.98856 0.0
H4318 H 0.4161 0.23312 0.99173 0.0
H4319 H 0.41669 0.2313 0.96101 0.0
C4320 C 0.39799 0.24276 0.03787 0.0
C4321 C 0.40181 0.25731 0.04758 0.0
C4322 C 0.39836 0.24329 0.02018 0.0
C4323 C 0.40285 0.2583 0.01157 0.0
C4324 C 0.40625 0.27305 0.02119 0.0
C4325 C 0.40569 0.27257 0.03904 0.0
C4326 C 0.39925 0.27088 0.96485 0.0
C4327 C 0.40546 0.25617 0.95672 0.0
C4328 C 0.39866 0.27181 0.98266 0.0
C4329 C 0.40436 0.25811 0.99267 0.0
C4330 C 0.41114 0.24373 0.98447 0.0
C4331 C 0.41156 0.24272 0.96678 0.0
H4332 H 0.77002 0.41649 0.04383 0.0
H4333 H 0.72085 0.39184 0.04508 0.0
H4334 H 0.76952 0.41617 0.01307 0.0
H4335 H 0.72065 0.39087 0.01394 0.0
H4336 H 0.7204 0.40713 0.95703 0.0
H4337 H 0.71882 0.40741 0.98811 0.0
H4338 H 0.77267 0.39658 0.9908 0.0
H4339 H 0.7744 0.39713 0.96012 0.0
C4340 C 0.75913 0.41085 0.03753 0.0
C4341 C 0.74554 0.40405 0.04696 0.0
C4342 C 0.75889 0.41057 0.01982 0.0
C4343 C 0.74518 0.40323 0.01095 0.0
C4344 C 0.73138 0.3967 0.02034 0.0
C4345 C 0.73152 0.39718 0.03818 0.0
C4346 C 0.73188 0.40477 0.96429 0.0
C4347 C 0.74755 0.4022 0.95602 0.0
C4348 C 0.73095 0.40484 0.98211 0.0
C4349 C 0.74565 0.40223 0.99201 0.0
C4350 C 0.76115 0.3991 0.98366 0.0
C4351 C 0.76212 0.39925 0.96596 0.0
H4352 H 0.59315 0.28402 0.95714 0.0
H4353 H 0.60676 0.23076 0.95914 0.0
H4354 H 0.59217 0.28475 0.9883 0.0
H4355 H 0.60651 0.23169 0.98981 0.0
H4356 H 0.58527 0.23122 0.04224 0.0
H4357 H 0.58591 0.23295 0.01152 0.0
H4358 H 0.60855 0.28302 0.01463 0.0
H4359 H 0.60731 0.28154 0.04573 0.0
C4360 C 0.59615 0.27255 0.96417 0.0
C4361 C 0.59992 0.2573 0.95556 0.0
C4362 C 0.59565 0.27299 0.98203 0.0
C4363 C 0.59901 0.25821 0.99161 0.0
C4364 C 0.60338 0.24321 0.98292 0.0
C4365 C 0.60369 0.24272 0.96522 0.0
C4366 C 0.59038 0.24265 0.03646 0.0
C4367 C 0.5964 0.25617 0.04651 0.0
C4368 C 0.59084 0.24361 0.01876 0.0
C4369 C 0.59757 0.25801 0.01053 0.0
C4370 C 0.60322 0.27176 0.02054 0.0
C4371 C 0.60259 0.27088 0.03836 0.0
H4372 H 0.71989 0.60777 0.0446 0.0
H4373 H 0.76994 0.58518 0.04214 0.0
H4374 H 0.71895 0.60876 0.01342 0.0
H4375 H 0.76876 0.58559 0.01142 0.0
H4376 H 0.77244 0.60632 0.95907 0.0
H4377 H 0.77078 0.60626 0.98975 0.0
H4378 H 0.71767 0.59222 0.98704 0.0
H4379 H 0.71916 0.59297 0.9559 0.0
C4380 C 0.73058 0.60285 0.03744 0.0
C4381 C 0.74508 0.59661 0.0459 0.0
C4382 C 0.73003 0.60336 0.01958 0.0
C4383 C 0.74391 0.59754 0.00987 0.0
C4384 C 0.75804 0.59068 0.01842 0.0
C4385 C 0.75867 0.59034 0.03612 0.0
C4386 C 0.76033 0.60334 0.96489 0.0
C4387 C 0.74596 0.59957 0.95492 0.0
C4388 C 0.75941 0.60316 0.98259 0.0
C4389 C 0.74417 0.59892 0.99094 0.0
C4390 C 0.72961 0.59559 0.98103 0.0
C4391 C 0.73048 0.59595 0.96319 0.0
H4392 H 0.39741 0.71945 0.9563 0.0
H4393 H 0.41562 0.7713 0.95887 0.0
H4394 H 0.39601 0.71851 0.98741 0.0
H4395 H 0.41494 0.77015 0.98961 0.0
H4396 H 0.39468 0.77176 0.04226 0.0
H4397 H 0.39494 0.77049 0.01158 0.0
H4398 H 0.41183 0.7182 0.01371 0.0
H4399 H 0.41076 0.71924 0.04483 0.0
C4400 C 0.40127 0.73057 0.96348 0.0
C4401 C 0.40644 0.74551 0.95505 0.0
C4402 C 0.40055 0.73002 0.98132 0.0
C4403 C 0.40512 0.74434 0.9911 0.0
C4404 C 0.41082 0.75903 0.98258 0.0
C4405 C 0.41133 0.75966 0.96486 0.0
C4406 C 0.39832 0.7599 0.0363 0.0
C4407 C 0.40274 0.74562 0.04612 0.0
C4408 C 0.39864 0.75922 0.01859 0.0
C4409 C 0.40371 0.74434 0.01005 0.0
C4410 C 0.40777 0.72986 0.01982 0.0
C4411 C 0.40723 0.73047 0.03767 0.0
H4412 H 0.22948 0.39577 0.04229 0.0
H4413 H 0.28227 0.41071 0.04641 0.0
H4414 H 0.2317 0.39577 0.01168 0.0
H4415 H 0.2843 0.41147 0.01531 0.0
H4416 H 0.28384 0.39597 0.95783 0.0
H4417 H 0.28414 0.39508 0.98901 0.0
H4418 H 0.23334 0.4161 0.98985 0.0
H4419 H 0.2328 0.41634 0.95911 0.0
C4420 C 0.2416 0.39911 0.03669 0.0
C4421 C 0.25567 0.40332 0.04692 0.0
C4422 C 0.24284 0.39927 0.01902 0.0
C4423 C 0.25809 0.40394 0.01093 0.0
C4424 C 0.27236 0.40775 0.02109 0.0
C4425 C 0.27118 0.40738 0.03892 0.0
C4426 C 0.27278 0.40041 0.96474 0.0
C4427 C 0.25821 0.406 0.95595 0.0
C4428 C 0.27297 0.39997 0.9826 0.0
C4429 C 0.25865 0.40524 0.992 0.0
C4430 C 0.24441 0.41144 0.98311 0.0
C4431 C 0.24414 0.41168 0.96539 0.0
H4432 H 0.04596 0.60724 0.71892 0.0
H4433 H 0.04343 0.58368 0.76853 0.0
H4434 H 0.01475 0.608 0.71786 0.0
H4435 H 0.0127 0.58391 0.76724 0.0
H4436 H 0.96068 0.60524 0.77143 0.0
H4437 H 0.99132 0.60505 0.76956 0.0
H4438 H 0.98823 0.59117 0.71645 0.0
H4439 H 0.95708 0.59201 0.71815 0.0
C4440 C 0.03878 0.60204 0.72947 0.0
C4441 C 0.0472 0.59564 0.74392 0.0
C4442 C 0.02092 0.60242 0.72885 0.0
C4443 C 0.0112 0.59631 0.74261 0.0
C4444 C 0.01973 0.58921 0.75663 0.0
C4445 C 0.03742 0.58899 0.75733 0.0
C4446 C 0.9664 0.60227 0.75926 0.0
C4447 C 0.95631 0.59856 0.74496 0.0
C4448 C 0.98407 0.60201 0.75823 0.0
C4449 C 0.9923 0.59777 0.74294 0.0
C4450 C 0.9823 0.59452 0.72843 0.0
C4451 C 0.96446 0.59494 0.72942 0.0
H4452 H 0.40729 0.95765 0.71942 0.0
H4453 H 0.39569 0.96028 0.77311 0.0
H4454 H 0.40829 0.98873 0.71823 0.0
H4455 H 0.39579 0.99101 0.77174 0.0
H4456 H 0.41653 0.04381 0.77048 0.0
H4457 H 0.41562 0.01304 0.76964 0.0
H4458 H 0.39268 0.01491 0.71966 0.0
H4459 H 0.39432 0.04603 0.72023 0.0
C4460 C 0.40469 0.96482 0.73091 0.0
C4461 C 0.4015 0.95641 0.74639 0.0
C4462 C 0.40519 0.98266 0.73021 0.0
C4463 C 0.40234 0.99245 0.74494 0.0
C4464 C 0.39853 0.98396 0.76022 0.0
C4465 C 0.39828 0.96624 0.76097 0.0
C4466 C 0.41131 0.03772 0.75926 0.0
C4467 C 0.40538 0.04742 0.74547 0.0
C4468 C 0.41066 0.02 0.75883 0.0
C4469 C 0.40378 0.0114 0.74471 0.0
C4470 C 0.39815 0.02107 0.73072 0.0
C4471 C 0.39902 0.03891 0.73106 0.0
H4472 H 0.04615 0.39261 0.72277 0.0
H4473 H 0.0433 0.4167 0.77214 0.0
H4474 H 0.01507 0.39122 0.72173 0.0
H4475 H 0.01253 0.4159 0.77083 0.0
H4476 H 0.95955 0.39594 0.7738 0.0
H4477 H 0.99032 0.39591 0.77306 0.0
H4478 H 0.9892 0.40754 0.71933 0.0
H4479 H 0.95811 0.40682 0.7199 0.0
C4480 C 0.03892 0.39776 0.73331 0.0
C4481 C 0.04724 0.40461 0.74761 0.0
C4482 C 0.0211 0.39702 0.73268 0.0
C4483 C 0.01125 0.40324 0.74629 0.0
C4484 C 0.01965 0.41054 0.76031 0.0
C4485 C 0.03736 0.41111 0.76102 0.0
C4486 C 0.96578 0.39834 0.76175 0.0
C4487 C 0.95628 0.40141 0.74691 0.0
C4488 C 0.98351 0.39849 0.76137 0.0
C4489 C 0.99232 0.40199 0.74619 0.0
C4490 C 0.98286 0.40468 0.73122 0.0
C4491 C 0.96502 0.40434 0.73157 0.0
H4492 H 0.60798 0.95768 0.72099 0.0
H4493 H 0.58604 0.95986 0.77134 0.0
H4494 H 0.6096 0.98879 0.72045 0.0
H4495 H 0.58693 0.99063 0.77053 0.0
H4496 H 0.6067 0.04362 0.77372 0.0
H4497 H 0.60659 0.01285 0.77251 0.0
H4498 H 0.59391 0.01483 0.71902 0.0
H4499 H 0.59487 0.04588 0.72006 0.0
C4500 C 0.60333 0.96479 0.73184 0.0
C4501 C 0.59704 0.95627 0.74627 0.0
C4502 C 0.60419 0.98262 0.73152 0.0
C4503 C 0.59861 0.9923 0.74555 0.0
C4504 C 0.59183 0.98368 0.75969 0.0
C4505 C 0.59119 0.96596 0.76011 0.0
C4506 C 0.60404 0.03757 0.76163 0.0
C4507 C 0.60077 0.0473 0.747 0.0
C4508 C 0.6038 0.01983 0.76097 0.0
C4509 C 0.59997 0.01125 0.74573 0.0
C4510 C 0.59704 0.02096 0.73096 0.0
C4511 C 0.59751 0.03879 0.73157 0.0
H4512 H 0.95658 0.41091 0.28281 0.0
H4513 H 0.95954 0.39676 0.22975 0.0
H4514 H 0.98768 0.41148 0.28428 0.0
H4515 H 0.99022 0.39652 0.23142 0.0
H4516 H 0.04333 0.41623 0.23225 0.0
H4517 H 0.01258 0.41611 0.23292 0.0
H4518 H 0.01361 0.39508 0.28373 0.0
H4519 H 0.04477 0.3959 0.2833 0.0
C4520 C 0.96382 0.40772 0.27153 0.0
C4521 C 0.95549 0.4039 0.25613 0.0
C4522 C 0.98166 0.40797 0.27239 0.0
C4523 C 0.99154 0.40426 0.25791 0.0
C4524 C 0.98312 0.39991 0.24272 0.0
C4525 C 0.96541 0.39989 0.24181 0.0
C4526 C 0.03708 0.41158 0.24361 0.0
C4527 C 0.04657 0.40593 0.25767 0.0
C4528 C 0.01935 0.4114 0.24396 0.0
C4529 C 0.01051 0.40529 0.25826 0.0
C4530 C 0.01997 0.39995 0.27252 0.0
C4531 C 0.03783 0.40034 0.27226 0.0
H4532 H 0.60625 0.04221 0.22914 0.0
H4533 H 0.59456 0.04414 0.28284 0.0
H4534 H 0.60619 0.01143 0.23014 0.0
H4535 H 0.59366 0.01307 0.28367 0.0
H4536 H 0.608 0.95593 0.28115 0.0
H4537 H 0.60951 0.98704 0.28197 0.0
H4538 H 0.58641 0.98924 0.23208 0.0
H4539 H 0.5856 0.95848 0.231 0.0
C4540 C 0.60364 0.03609 0.24119 0.0
C4541 C 0.60039 0.04573 0.2559 0.0
C4542 C 0.60343 0.01835 0.24174 0.0
C4543 C 0.59965 0.00967 0.25693 0.0
C4544 C 0.59674 0.01928 0.27177 0.0
C4545 C 0.59718 0.03712 0.27127 0.0
C4546 C 0.60323 0.96312 0.2704 0.0
C4547 C 0.59685 0.9547 0.25594 0.0
C4548 C 0.60403 0.98095 0.27089 0.0
C4549 C 0.59831 0.99072 0.25699 0.0
C4550 C 0.59142 0.98221 0.24282 0.0
C4551 C 0.59083 0.9645 0.24225 0.0
H4552 H 0.04474 0.61087 0.27997 0.0
H4553 H 0.04284 0.5879 0.23004 0.0
H4554 H 0.01365 0.61184 0.2806 0.0
H4555 H 0.01206 0.58815 0.23095 0.0
H4556 H 0.95856 0.60639 0.22797 0.0
H4557 H 0.98929 0.60708 0.22885 0.0
H4558 H 0.98815 0.59535 0.28258 0.0
H4559 H 0.95707 0.59555 0.28187 0.0
C4560 C 0.0377 0.6059 0.2692 0.0
C4561 C 0.04629 0.59946 0.25489 0.0
C4562 C 0.01987 0.60637 0.2696 0.0
C4563 C 0.01027 0.60024 0.25575 0.0
C4564 C 0.01895 0.59343 0.24166 0.0
C4565 C 0.03668 0.59318 0.24118 0.0
C4566 C 0.96477 0.60411 0.24005 0.0
C4567 C 0.95526 0.60092 0.25485 0.0
C4568 C 0.9825 0.60433 0.24052 0.0
C4569 C 0.99131 0.60103 0.25573 0.0
C4570 C 0.98182 0.5981 0.27065 0.0
C4571 C 0.96399 0.59813 0.27023 0.0
H4572 H 0.39442 0.04497 0.28043 0.0
H4573 H 0.41584 0.0424 0.22987 0.0
H4574 H 0.39287 0.01389 0.28126 0.0
H4575 H 0.41502 0.01163 0.23096 0.0
H4576 H 0.3956 0.95838 0.22868 0.0
H4577 H 0.39558 0.98918 0.22944 0.0
H4578 H 0.40869 0.98802 0.28285 0.0
H4579 H 0.40785 0.95696 0.28228 0.0
C4580 C 0.39896 0.03779 0.26958 0.0
C4581 C 0.40511 0.04619 0.25503 0.0
C4582 C 0.39814 0.01995 0.27007 0.0
C4583 C 0.40362 0.01016 0.25609 0.0
C4584 C 0.41021 0.01866 0.24179 0.0
C4585 C 0.41081 0.03639 0.24121 0.0
C4586 C 0.39832 0.96462 0.24066 0.0
C4587 C 0.40173 0.95512 0.25541 0.0
C4588 C 0.39848 0.98238 0.24106 0.0
C4589 C 0.40239 0.9912 0.25615 0.0
C4590 C 0.40549 0.98171 0.27103 0.0
C4591 C 0.40509 0.96387 0.27068 0.0
H4592 H 0.77131 0.04319 0.58755 0.0
H4593 H 0.72017 0.04576 0.60761 0.0
H4594 H 0.76985 0.01245 0.58756 0.0
H4595 H 0.71895 0.01462 0.60827 0.0
H4596 H 0.71867 0.95766 0.59142 0.0
H4597 H 0.71791 0.98883 0.59126 0.0
H4598 H 0.77049 0.99008 0.60735 0.0
H4599 H 0.77148 0.9594 0.60674 0.0
C4600 C 0.75977 0.0372 0.59213 0.0
C4601 C 0.74591 0.047 0.59773 0.0
C4602 C 0.75896 0.01949 0.59223 0.0
C4603 C 0.74438 0.01098 0.59818 0.0
C4604 C 0.73035 0.02074 0.60352 0.0
C4605 C 0.73109 0.03858 0.60324 0.0
C4606 C 0.73003 0.96464 0.59496 0.0
C4607 C 0.74516 0.95596 0.59898 0.0
C4608 C 0.72957 0.98251 0.59495 0.0
C4609 C 0.74421 0.99202 0.59907 0.0
C4610 C 0.75909 0.98325 0.60365 0.0
C4611 C 0.75961 0.96554 0.60346 0.0
H4612 H 0.77253 0.04367 0.41476 0.0
H4613 H 0.72196 0.04607 0.3933 0.0
H4614 H 0.77148 0.0129 0.41402 0.0
H4615 H 0.72117 0.01497 0.39185 0.0
H4616 H 0.72025 0.95812 0.40733 0.0
H4617 H 0.71962 0.98917 0.40788 0.0
H4618 H 0.773 0.99039 0.39466 0.0
H4619 H 0.77381 0.95959 0.39496 0.0
C4620 C 0.7612 0.03762 0.40974 0.0
C4621 C 0.74736 0.04738 0.404 0.0
C4622 C 0.76065 0.0199 0.40919 0.0
C4623 C 0.74635 0.01135 0.40262 0.0
C4624 C 0.73235 0.02109 0.3971 0.0
C4625 C 0.73282 0.03892 0.39787 0.0
C4626 C 0.73183 0.96504 0.40448 0.0
C4627 C 0.7471 0.9563 0.40119 0.0
C4628 C 0.73145 0.98287 0.40471 0.0
C4629 C 0.7463 0.99238 0.4015 0.0
C4630 C 0.7614 0.98357 0.39764 0.0
C4631 C 0.76183 0.96582 0.39765 0.0
H4632 H 0.9565 0.72014 0.39531 0.0
H4633 H 0.9589 0.77109 0.41594 0.0
H4634 H 0.98762 0.71926 0.39423 0.0
H4635 H 0.98965 0.76997 0.41549 0.0
H4636 H 0.04236 0.77246 0.39546 0.0
H4637 H 0.01169 0.7711 0.39534 0.0
H4638 H 0.01371 0.71835 0.41078 0.0
H4639 H 0.04485 0.7195 0.41016 0.0
C4640 C 0.96364 0.73108 0.39974 0.0
C4641 C 0.95517 0.74576 0.40551 0.0
C4642 C 0.98148 0.73055 0.3992 0.0
C4643 C 0.99119 0.74463 0.40455 0.0
C4644 C 0.98264 0.75906 0.4108 0.0
C4645 C 0.96493 0.75966 0.41116 0.0
C4646 C 0.03639 0.76048 0.3987 0.0
C4647 C 0.04618 0.7461 0.40287 0.0
C4648 C 0.01868 0.75975 0.39879 0.0
C4649 C 0.01013 0.7447 0.40335 0.0
C4650 C 0.01986 0.73014 0.40713 0.0
C4651 C 0.03771 0.73081 0.40684 0.0
H4652 H 0.28357 0.04452 0.39621 0.0
H4653 H 0.23241 0.04279 0.41626 0.0
H4654 H 0.28416 0.01336 0.3954 0.0
H4655 H 0.23323 0.01202 0.41612 0.0
H4656 H 0.2304 0.95903 0.39656 0.0
H4657 H 0.23197 0.98974 0.39637 0.0
H4658 H 0.2847 0.98737 0.41181 0.0
H4659 H 0.28333 0.95625 0.41122 0.0
C4660 C 0.27254 0.03752 0.4006 0.0
C4661 C 0.25787 0.04618 0.4061 0.0
C4662 C 0.27289 0.01965 0.40021 0.0
C4663 C 0.25865 0.01011 0.40545 0.0
C4664 C 0.24427 0.01886 0.4115 0.0
C4665 C 0.24383 0.0366 0.41169 0.0
C4666 C 0.24241 0.96495 0.3998 0.0
C4667 C 0.25672 0.95507 0.40395 0.0
C4668 C 0.24327 0.98267 0.39985 0.0
C4669 C 0.25838 0.99114 0.40437 0.0
C4670 C 0.27287 0.9813 0.40818 0.0
C4671 C 0.27206 0.96345 0.40792 0.0
H4672 H 0.04363 0.23126 0.41695 0.0
H4673 H 0.04666 0.28123 0.39415 0.0
H4674 H 0.01289 0.23286 0.41667 0.0
H4675 H 0.01553 0.28259 0.39331 0.0
H4676 H 0.95819 0.28339 0.40935 0.0
H4677 H 0.98936 0.28434 0.41015 0.0
H4678 H 0.9911 0.23121 0.396 0.0
H4679 H 0.96043 0.23007 0.39589 0.0
C4680 C 0.03774 0.24258 0.41177 0.0
C4681 C 0.04766 0.25604 0.40541 0.0
C4682 C 0.02004 0.24347 0.41152 0.0
C4683 C 0.01168 0.25773 0.40468 0.0
C4684 C 0.02155 0.27144 0.39872 0.0
C4685 C 0.03938 0.27063 0.39913 0.0
C4686 C 0.96528 0.27195 0.40636 0.0
C4687 C 0.95673 0.25663 0.40266 0.0
C4688 C 0.98313 0.27251 0.40675 0.0
C4689 C 0.99276 0.25779 0.40339 0.0
C4690 C 0.98415 0.2427 0.39912 0.0
C4691 C 0.96645 0.24209 0.3989 0.0
H4692 H 0.23074 0.04308 0.5855 0.0
H4693 H 0.27954 0.04518 0.61078 0.0
H4694 H 0.23162 0.01229 0.58604 0.0
H4695 H 0.28013 0.01406 0.61195 0.0
H4696 H 0.2815 0.95711 0.5963 0.0
H4697 H 0.28256 0.98819 0.59567 0.0
H4698 H 0.22852 0.99002 0.60568 0.0
H4699 H 0.22732 0.95927 0.60551 0.0
C4700 C 0.24164 0.03696 0.59131 0.0
C4701 C 0.25501 0.04663 0.59822 0.0
C4702 C 0.24209 0.01924 0.59172 0.0
C4703 C 0.25581 0.01061 0.5993 0.0
C4704 C 0.2694 0.02026 0.60593 0.0
C4705 C 0.26904 0.03809 0.60533 0.0
C4706 C 0.26987 0.96417 0.59842 0.0
C4707 C 0.25431 0.95563 0.60087 0.0
C4708 C 0.27049 0.98201 0.59814 0.0
C4709 C 0.25559 0.99167 0.60043 0.0
C4710 C 0.24019 0.98306 0.60342 0.0
C4711 C 0.23953 0.96533 0.60349 0.0
H4712 H 0.96007 0.22936 0.60632 0.0
H4713 H 0.95801 0.2828 0.59343 0.0
H4714 H 0.99084 0.23062 0.60679 0.0
H4715 H 0.98905 0.28387 0.59305 0.0
H4716 H 0.04585 0.2825 0.60802 0.0
H4717 H 0.01475 0.28285 0.60924 0.0
H4718 H 0.01343 0.23228 0.58756 0.0
H4719 H 0.0442 0.23167 0.58706 0.0
C4720 C 0.96616 0.24141 0.60355 0.0
C4721 C 0.95649 0.25597 0.59982 0.0
C4722 C 0.9839 0.2421 0.60365 0.0
C4723 C 0.99254 0.25729 0.5997 0.0
C4724 C 0.98287 0.27198 0.59629 0.0
C4725 C 0.96505 0.27134 0.59643 0.0
C4726 C 0.03887 0.27149 0.60351 0.0
C4727 C 0.04754 0.257 0.59759 0.0
C4728 C 0.02103 0.27171 0.60414 0.0
C4729 C 0.0115 0.25751 0.5987 0.0
C4730 C 0.02026 0.24327 0.59233 0.0
C4731 C 0.03799 0.24296 0.59192 0.0
H4732 H 0.04252 0.72161 0.60863 0.0
H4733 H 0.04007 0.77247 0.58781 0.0
H4734 H 0.01141 0.72062 0.60967 0.0
H4735 H 0.00932 0.77122 0.58819 0.0
H4736 H 0.95629 0.77326 0.60774 0.0
H4737 H 0.987 0.77232 0.60795 0.0
H4738 H 0.98558 0.71936 0.59309 0.0
H4739 H 0.95446 0.72009 0.59365 0.0
C4740 C 0.03537 0.73251 0.60415 0.0
C4741 C 0.04381 0.74719 0.59832 0.0
C4742 C 0.01754 0.73191 0.60466 0.0
C4743 C 0.0078 0.74592 0.59921 0.0
C4744 C 0.01633 0.76036 0.59294 0.0
C4745 C 0.03405 0.76104 0.59262 0.0
C4746 C 0.96242 0.76133 0.60463 0.0
C4747 C 0.95282 0.74676 0.60064 0.0
C4748 C 0.98014 0.76084 0.6046 0.0
C4749 C 0.98886 0.74584 0.60027 0.0
C4750 C 0.9793 0.73111 0.59659 0.0
C4751 C 0.96146 0.73155 0.59684 0.0
loop_
_geom_bond_atom_site_label_1
_geom_bond_atom_site_label_2
_geom_bond_distance
_geom_bond_site_symmetry_2
_ccdc_geom_bond_type
Co0 O2 2.143 . S
Co0 O8 2.074 . S
Co0 O11 2.093 . S
Co0 O24 2.097 . S
Co0 N41 2.151 . S
Co0 N49 2.214 . S
Co1 O2 2.160 . S
Co1 O7 2.058 . S
Co1 O17 2.057 . S
Co1 O32 2.037 . S
Co1 N36 2.145 . S
Co1 N57 2.257 . S
O2 Co0 2.143 . S
O2 Co1 2.160 . S
C3 O4 1.278 . S
C3 O11 1.224 . S
O4 C3 1.278 . S
C5 O6 1.245 . S
C5 O17 1.232 . S
O6 C5 1.245 . S
O7 Co1 2.058 . S
O7 C33 1.269 . S
O8 Co0 2.074 . S
O8 C33 1.257 . S
H9 C34 0.930 . S
H10 C40 0.930 . S
O11 Co0 2.093 . S
O11 C3 1.224 . S
H12 C44 0.929 . S
H13 C46 0.930 . S
H14 C47 0.930 . S
H15 C45 0.929 . S
H16 C48 0.928 . S
O17 Co1 2.057 . S
O17 C5 1.232 . S
H18 C37 0.929 . S
H19 C38 0.929 . S
H20 C50 0.931 . S
H21 C42 0.929 . S
H22 C51 0.930 . S
H23 C43 0.931 . S
O24 Co0 2.097 . S
O24 C52 1.214 . S
H25 C53 0.929 . S
H26 C54 0.929 . S
H27 C55 0.930 . S
H28 C56 0.929 . S
H29 C58 0.930 . S
H30 C35 0.930 . S
H31 C39 0.930 . S
O32 Co1 2.037 . S
O32 C52 1.234 . S
C33 O7 1.269 . S
C33 O8 1.257 . S
C34 H9 0.930 . S
C34 C37 1.388 . S
C34 C39 1.418 . S
C35 H30 0.930 . S
C35 C38 1.404 . S
C35 C39 1.353 . S
N36 Co1 2.145 . S
N36 C37 1.397 . S
N36 C38 1.334 . S
C37 H18 0.929 . S
C37 C34 1.388 . S
C37 N36 1.397 . S
C38 H19 0.929 . S
C38 C35 1.404 . S
C38 N36 1.334 . S
C39 H31 0.930 . S
C39 C34 1.418 . S
C39 C35 1.353 . S
C40 H10 0.930 . S
C40 N41 1.330 . S
C40 C42 1.446 . S
N41 Co0 2.151 . S
N41 C40 1.330 . S
N41 C45 1.418 . S
C42 H21 0.929 . S
C42 C40 1.446 . S
C42 C43 1.332 . S
C43 H23 0.931 . S
C43 C42 1.332 . S
C43 C44 1.267 . S
C44 H12 0.929 . S
C44 C43 1.267 . S
C44 C45 1.251 . S
C45 H15 0.929 . S
C45 N41 1.418 . S
C45 C44 1.251 . S
C46 H13 0.930 . S
C46 C48 1.406 . S
C46 C51 1.261 . S
C47 H14 0.930 . S
C47 N49 1.325 . S
C47 C50 1.357 . S
C48 H16 0.928 . S
C48 C46 1.406 . S
C48 N49 1.261 . S
N49 Co0 2.214 . S
N49 C47 1.325 . S
N49 C48 1.261 . S
C50 H20 0.931 . S
C50 C47 1.357 . S
C50 C51 1.312 . S
C51 H22 0.930 . S
C51 C46 1.261 . S
C51 C50 1.312 . S
C52 O24 1.214 . S
C52 O32 1.234 . S
C53 H25 0.929 . S
C53 C56 1.391 . S
C53 C58 1.391 . S
C54 H26 0.929 . S
C54 C55 1.390 . S
C54 N57 1.391 . S
C55 H27 0.930 . S
C55 C54 1.390 . S
C55 C56 1.392 . S
C56 H28 0.929 . S
C56 C53 1.391 . S
C56 C55 1.392 . S
N57 Co1 2.257 . S
N57 C54 1.391 . S
N57 C58 1.388 . S
C58 H29 0.930 . S
C58 C53 1.391 . S
C58 N57 1.388 . S
Co59 O61 2.143 . S
Co59 O67 2.074 . S
Co59 O70 2.093 . S
Co59 O83 2.097 . S
Co59 N100 2.151 . S
Co59 N108 2.214 . S
Co60 O61 2.160 . S
Co60 O66 2.058 . S
Co60 O76 2.057 . S
Co60 O91 2.037 . S
Co60 N95 2.145 . S
Co60 N116 2.257 . S
O61 Co59 2.143 . S
O61 Co60 2.160 . S
C62 O63 1.278 . S
C62 O70 1.224 . S
O63 C62 1.278 . S
C64 O65 1.245 . S
C64 O76 1.232 . S
O65 C64 1.245 . S
O66 Co60 2.058 . S
O66 C92 1.269 . S
O67 Co59 2.074 . S
O67 C92 1.257 . S
H68 C93 0.930 . S
H69 C99 0.930 . S
O70 Co59 2.093 . S
O70 C62 1.224 . S
H71 C103 0.929 . S
H72 C105 0.930 . S
H73 C106 0.930 . S
H74 C104 0.929 . S
H75 C107 0.928 . S
O76 Co60 2.057 . S
O76 C64 1.232 . S
H77 C96 0.929 . S
H78 C97 0.929 . S
H79 C109 0.931 . S
H80 C101 0.929 . S
H81 C110 0.930 . S
H82 C102 0.931 . S
O83 Co59 2.097 . S
O83 C111 1.214 . S
H84 C112 0.929 . S
H85 C113 0.929 . S
H86 C114 0.930 . S
H87 C115 0.929 . S
H88 C117 0.930 . S
H89 C94 0.930 . S
H90 C98 0.930 . S
O91 Co60 2.037 . S
O91 C111 1.234 . S
C92 O66 1.269 . S
C92 O67 1.257 . S
C93 H68 0.930 . S
C93 C96 1.388 . S
C93 C98 1.418 . S
C94 H89 0.930 . S
C94 C97 1.404 . S
C94 C98 1.353 . S
N95 Co60 2.145 . S
N95 C96 1.397 . S
N95 C97 1.334 . S
C96 H77 0.929 . S
C96 C93 1.388 . S
C96 N95 1.397 . S
C97 H78 0.929 . S
C97 C94 1.404 . S
C97 N95 1.334 . S
C98 H90 0.930 . S
C98 C93 1.418 . S
C98 C94 1.353 . S
C99 H69 0.930 . S
C99 N100 1.330 . S
C99 C101 1.446 . S
N100 Co59 2.151 . S
N100 C99 1.330 . S
N100 C104 1.418 . S
C101 H80 0.929 . S
C101 C99 1.446 . S
C101 C102 1.332 . S
C102 H82 0.931 . S
C102 C101 1.332 . S
C102 C103 1.267 . S
C103 H71 0.929 . S
C103 C102 1.267 . S
C103 C104 1.251 . S
C104 H74 0.929 . S
C104 N100 1.418 . S
C104 C103 1.251 . S
C105 H72 0.930 . S
C105 C107 1.406 . S
C105 C110 1.261 . S
C106 H73 0.930 . S
C106 N108 1.325 . S
C106 C109 1.357 . S
C107 H75 0.928 . S
C107 C105 1.406 . S
C107 N108 1.261 . S
N108 Co59 2.214 . S
N108 C106 1.325 . S
N108 C107 1.261 . S
C109 H79 0.931 . S
C109 C106 1.357 . S
C109 C110 1.312 . S
C110 H81 0.930 . S
C110 C105 1.261 . S
C110 C109 1.312 . S
C111 O83 1.214 . S
C111 O91 1.234 . S
C112 H84 0.929 . S
C112 C115 1.391 . S
C112 C117 1.391 . S
C113 H85 0.929 . S
C113 C114 1.390 . S
C113 N116 1.391 . S
C114 H86 0.930 . S
C114 C113 1.390 . S
C114 C115 1.392 . S
C115 H87 0.929 . S
C115 C112 1.391 . S
C115 C114 1.392 . S
N116 Co60 2.257 . S
N116 C113 1.391 . S
N116 C117 1.388 . S
C117 H88 0.930 . S
C117 C112 1.391 . S
C117 N116 1.388 . S
Co118 O120 2.143 . S
Co118 O126 2.074 . S
Co118 O129 2.093 . S
Co118 O142 2.097 . S
Co118 N159 2.151 . S
Co118 N167 2.214 . S
Co119 O120 2.160 . S
Co119 O125 2.058 . S
Co119 O135 2.057 . S
Co119 O150 2.037 . S
Co119 N154 2.145 . S
Co119 N175 2.257 . S
O120 Co118 2.143 . S
O120 Co119 2.160 . S
C121 O122 1.278 . S
C121 O129 1.224 . S
O122 C121 1.278 . S
C123 O124 1.245 . S
C123 O135 1.232 . S
O124 C123 1.245 . S
O125 Co119 2.058 . S
O125 C151 1.269 . S
O126 Co118 2.074 . S
O126 C151 1.257 . S
H127 C152 0.930 . S
H128 C158 0.930 . S
O129 Co118 2.093 . S
O129 C121 1.224 . S
H130 C162 0.929 . S
H131 C164 0.930 . S
H132 C165 0.930 . S
H133 C163 0.929 . S
H134 C166 0.928 . S
O135 Co119 2.057 . S
O135 C123 1.232 . S
H136 C155 0.929 . S
H137 C156 0.929 . S
H138 C168 0.931 . S
H139 C160 0.929 . S
H140 C169 0.930 . S
H141 C161 0.931 . S
O142 Co118 2.097 . S
O142 C170 1.214 . S
H143 C171 0.929 . S
H144 C172 0.929 . S
H145 C173 0.930 . S
H146 C174 0.929 . S
H147 C176 0.930 . S
H148 C153 0.930 . S
H149 C157 0.930 . S
O150 Co119 2.037 . S
O150 C170 1.234 . S
C151 O125 1.269 . S
C151 O126 1.257 . S
C152 H127 0.930 . S
C152 C155 1.388 . S
C152 C157 1.418 . S
C153 H148 0.930 . S
C153 C156 1.404 . S
C153 C157 1.353 . S
N154 Co119 2.145 . S
N154 C155 1.397 . S
N154 C156 1.334 . S
C155 H136 0.929 . S
C155 C152 1.388 . S
C155 N154 1.397 . S
C156 H137 0.929 . S
C156 C153 1.404 . S
C156 N154 1.334 . S
C157 H149 0.930 . S
C157 C152 1.418 . S
C157 C153 1.353 . S
C158 H128 0.930 . S
C158 N159 1.330 . S
C158 C160 1.446 . S
N159 Co118 2.151 . S
N159 C158 1.330 . S
N159 C163 1.418 . S
C160 H139 0.929 . S
C160 C158 1.446 . S
C160 C161 1.332 . S
C161 H141 0.931 . S
C161 C160 1.332 . S
C161 C162 1.267 . S
C162 H130 0.929 . S
C162 C161 1.267 . S
C162 C163 1.251 . S
C163 H133 0.929 . S
C163 N159 1.418 . S
C163 C162 1.251 . S
C164 H131 0.930 . S
C164 C166 1.406 . S
C164 C169 1.261 . S
C165 H132 0.930 . S
C165 N167 1.325 . S
C165 C168 1.357 . S
C166 H134 0.928 . S
C166 C164 1.406 . S
C166 N167 1.261 . S
N167 Co118 2.214 . S
N167 C165 1.325 . S
N167 C166 1.261 . S
C168 H138 0.931 . S
C168 C165 1.357 . S
C168 C169 1.312 . S
C169 H140 0.930 . S
C169 C164 1.261 . S
C169 C168 1.312 . S
C170 O142 1.214 . S
C170 O150 1.234 . S
C171 H143 0.929 . S
C171 C174 1.391 . S
C171 C176 1.391 . S
C172 H144 0.929 . S
C172 C173 1.390 . S
C172 N175 1.391 . S
C173 H145 0.930 . S
C173 C172 1.390 . S
C173 C174 1.392 . S
C174 H146 0.929 . S
C174 C171 1.391 . S
C174 C173 1.392 . S
N175 Co119 2.257 . S
N175 C172 1.391 . S
N175 C176 1.388 . S
C176 H147 0.930 . S
C176 C171 1.391 . S
C176 N175 1.388 . S
Co177 O179 2.143 . S
Co177 O185 2.074 . S
Co177 O188 2.093 . S
Co177 O201 2.097 . S
Co177 N218 2.151 . S
Co177 N226 2.214 . S
Co178 O179 2.160 . S
Co178 O184 2.058 . S
Co178 O194 2.057 . S
Co178 O209 2.037 . S
Co178 N213 2.145 . S
Co178 N234 2.257 . S
O179 Co177 2.143 . S
O179 Co178 2.160 . S
C180 O181 1.278 . S
C180 O188 1.224 . S
O181 C180 1.278 . S
C182 O183 1.245 . S
C182 O194 1.232 . S
O183 C182 1.245 . S
O184 Co178 2.058 . S
O184 C210 1.269 . S
O185 Co177 2.074 . S
O185 C210 1.257 . S
H186 C211 0.930 . S
H187 C217 0.930 . S
O188 Co177 2.093 . S
O188 C180 1.224 . S
H189 C221 0.929 . S
H190 C223 0.930 . S
H191 C224 0.930 . S
H192 C222 0.929 . S
H193 C225 0.928 . S
O194 Co178 2.057 . S
O194 C182 1.232 . S
H195 C214 0.929 . S
H196 C215 0.929 . S
H197 C227 0.931 . S
H198 C219 0.929 . S
H199 C228 0.930 . S
H200 C220 0.931 . S
O201 Co177 2.097 . S
O201 C229 1.214 . S
H202 C230 0.929 . S
H203 C231 0.929 . S
H204 C232 0.930 . S
H205 C233 0.929 . S
H206 C235 0.930 . S
H207 C212 0.930 . S
H208 C216 0.930 . S
O209 Co178 2.037 . S
O209 C229 1.234 . S
C210 O184 1.269 . S
C210 O185 1.257 . S
C211 H186 0.930 . S
C211 C214 1.388 . S
C211 C216 1.418 . S
C212 H207 0.930 . S
C212 C215 1.404 . S
C212 C216 1.353 . S
N213 Co178 2.145 . S
N213 C214 1.397 . S
N213 C215 1.334 . S
C214 H195 0.929 . S
C214 C211 1.388 . S
C214 N213 1.397 . S
C215 H196 0.929 . S
C215 C212 1.404 . S
C215 N213 1.334 . S
C216 H208 0.930 . S
C216 C211 1.418 . S
C216 C212 1.353 . S
C217 H187 0.930 . S
C217 N218 1.330 . S
C217 C219 1.446 . S
N218 Co177 2.151 . S
N218 C217 1.330 . S
N218 C222 1.418 . S
C219 H198 0.929 . S
C219 C217 1.446 . S
C219 C220 1.332 . S
C220 H200 0.931 . S
C220 C219 1.332 . S
C220 C221 1.267 . S
C221 H189 0.929 . S
C221 C220 1.267 . S
C221 C222 1.251 . S
C222 H192 0.929 . S
C222 N218 1.418 . S
C222 C221 1.251 . S
C223 H190 0.930 . S
C223 C225 1.406 . S
C223 C228 1.261 . S
C224 H191 0.930 . S
C224 N226 1.325 . S
C224 C227 1.357 . S
C225 H193 0.928 . S
C225 C223 1.406 . S
C225 N226 1.261 . S
N226 Co177 2.214 . S
N226 C224 1.325 . S
N226 C225 1.261 . S
C227 H197 0.931 . S
C227 C224 1.357 . S
C227 C228 1.312 . S
C228 H199 0.930 . S
C228 C223 1.261 . S
C228 C227 1.312 . S
C229 O201 1.214 . S
C229 O209 1.234 . S
C230 H202 0.929 . S
C230 C233 1.391 . S
C230 C235 1.391 . S
C231 H203 0.929 . S
C231 C232 1.390 . S
C231 N234 1.391 . S
C232 H204 0.930 . S
C232 C231 1.390 . S
C232 C233 1.392 . S
C233 H205 0.929 . S
C233 C230 1.391 . S
C233 C232 1.392 . S
N234 Co178 2.257 . S
N234 C231 1.391 . S
N234 C235 1.388 . S
C235 H206 0.930 . S
C235 C230 1.391 . S
C235 N234 1.388 . S
Co236 O238 2.143 . S
Co236 O244 2.074 . S
Co236 O247 2.093 . S
Co236 O260 2.097 . S
Co236 N277 2.151 . S
Co236 N285 2.214 . S
Co237 O238 2.160 . S
Co237 O243 2.058 . S
Co237 O253 2.057 . S
Co237 O268 2.037 . S
Co237 N272 2.145 . S
Co237 N293 2.257 . S
O238 Co236 2.143 . S
O238 Co237 2.160 . S
C239 O240 1.278 . S
C239 O247 1.224 . S
O240 C239 1.278 . S
C241 O242 1.245 . S
C241 O253 1.232 . S
O242 C241 1.245 . S
O243 Co237 2.058 . S
O243 C269 1.269 . S
O244 Co236 2.074 . S
O244 C269 1.257 . S
H245 C270 0.930 . S
H246 C276 0.930 . S
O247 Co236 2.093 . S
O247 C239 1.224 . S
H248 C280 0.929 . S
H249 C282 0.930 . S
H250 C283 0.930 . S
H251 C281 0.929 . S
H252 C284 0.928 . S
O253 Co237 2.057 . S
O253 C241 1.232 . S
H254 C273 0.929 . S
H255 C274 0.929 . S
H256 C286 0.931 . S
H257 C278 0.929 . S
H258 C287 0.930 . S
H259 C279 0.931 . S
O260 Co236 2.097 . S
O260 C288 1.214 . S
H261 C289 0.929 . S
H262 C290 0.929 . S
H263 C291 0.930 . S
H264 C292 0.929 . S
H265 C294 0.930 . S
H266 C271 0.930 . S
H267 C275 0.930 . S
O268 Co237 2.037 . S
O268 C288 1.234 . S
C269 O243 1.269 . S
C269 O244 1.257 . S
C270 H245 0.930 . S
C270 C273 1.388 . S
C270 C275 1.418 . S
C271 H266 0.930 . S
C271 C274 1.404 . S
C271 C275 1.353 . S
N272 Co237 2.145 . S
N272 C273 1.397 . S
N272 C274 1.334 . S
C273 H254 0.929 . S
C273 C270 1.388 . S
C273 N272 1.397 . S
C274 H255 0.929 . S
C274 C271 1.404 . S
C274 N272 1.334 . S
C275 H267 0.930 . S
C275 C270 1.418 . S
C275 C271 1.353 . S
C276 H246 0.930 . S
C276 N277 1.330 . S
C276 C278 1.446 . S
N277 Co236 2.151 . S
N277 C276 1.330 . S
N277 C281 1.418 . S
C278 H257 0.929 . S
C278 C276 1.446 . S
C278 C279 1.332 . S
C279 H259 0.931 . S
C279 C278 1.332 . S
C279 C280 1.267 . S
C280 H248 0.929 . S
C280 C279 1.267 . S
C280 C281 1.251 . S
C281 H251 0.929 . S
C281 N277 1.418 . S
C281 C280 1.251 . S
C282 H249 0.930 . S
C282 C284 1.406 . S
C282 C287 1.261 . S
C283 H250 0.930 . S
C283 N285 1.325 . S
C283 C286 1.357 . S
C284 H252 0.928 . S
C284 C282 1.406 . S
C284 N285 1.261 . S
N285 Co236 2.214 . S
N285 C283 1.325 . S
N285 C284 1.261 . S
C286 H256 0.931 . S
C286 C283 1.357 . S
C286 C287 1.312 . S
C287 H258 0.930 . S
C287 C282 1.261 . S
C287 C286 1.312 . S
C288 O260 1.214 . S
C288 O268 1.234 . S
C289 H261 0.929 . S
C289 C292 1.391 . S
C289 C294 1.391 . S
C290 H262 0.929 . S
C290 C291 1.390 . S
C290 N293 1.391 . S
C291 H263 0.930 . S
C291 C290 1.390 . S
C291 C292 1.392 . S
C292 H264 0.929 . S
C292 C289 1.391 . S
C292 C291 1.392 . S
N293 Co237 2.257 . S
N293 C290 1.391 . S
N293 C294 1.388 . S
C294 H265 0.930 . S
C294 C289 1.391 . S
C294 N293 1.388 . S
Co295 O297 2.143 . S
Co295 O303 2.074 . S
Co295 O306 2.093 . S
Co295 O319 2.097 . S
Co295 N336 2.151 . S
Co295 N344 2.214 . S
Co296 O297 2.160 . S
Co296 O302 2.058 . S
Co296 O312 2.057 . S
Co296 O327 2.037 . S
Co296 N331 2.145 . S
Co296 N352 2.257 . S
O297 Co295 2.143 . S
O297 Co296 2.160 . S
C298 O299 1.278 . S
C298 O306 1.224 . S
O299 C298 1.278 . S
C300 O301 1.245 . S
C300 O312 1.232 . S
O301 C300 1.245 . S
O302 Co296 2.058 . S
O302 C328 1.269 . S
O303 Co295 2.074 . S
O303 C328 1.257 . S
H304 C329 0.930 . S
H305 C335 0.930 . S
O306 Co295 2.093 . S
O306 C298 1.224 . S
H307 C339 0.929 . S
H308 C341 0.930 . S
H309 C342 0.930 . S
H310 C340 0.929 . S
H311 C343 0.928 . S
O312 Co296 2.057 . S
O312 C300 1.232 . S
H313 C332 0.929 . S
H314 C333 0.929 . S
H315 C345 0.931 . S
H316 C337 0.929 . S
H317 C346 0.930 . S
H318 C338 0.931 . S
O319 Co295 2.097 . S
O319 C347 1.214 . S
H320 C348 0.929 . S
H321 C349 0.929 . S
H322 C350 0.930 . S
H323 C351 0.929 . S
H324 C353 0.930 . S
H325 C330 0.930 . S
H326 C334 0.930 . S
O327 Co296 2.037 . S
O327 C347 1.234 . S
C328 O302 1.269 . S
C328 O303 1.257 . S
C329 H304 0.930 . S
C329 C332 1.388 . S
C329 C334 1.418 . S
C330 H325 0.930 . S
C330 C333 1.404 . S
C330 C334 1.353 . S
N331 Co296 2.145 . S
N331 C332 1.397 . S
N331 C333 1.334 . S
C332 H313 0.929 . S
C332 C329 1.388 . S
C332 N331 1.397 . S
C333 H314 0.929 . S
C333 C330 1.404 . S
C333 N331 1.334 . S
C334 H326 0.930 . S
C334 C329 1.418 . S
C334 C330 1.353 . S
C335 H305 0.930 . S
C335 N336 1.330 . S
C335 C337 1.446 . S
N336 Co295 2.151 . S
N336 C335 1.330 . S
N336 C340 1.418 . S
C337 H316 0.929 . S
C337 C335 1.446 . S
C337 C338 1.332 . S
C338 H318 0.931 . S
C338 C337 1.332 . S
C338 C339 1.267 . S
C339 H307 0.929 . S
C339 C338 1.267 . S
C339 C340 1.251 . S
C340 H310 0.929 . S
C340 N336 1.418 . S
C340 C339 1.251 . S
C341 H308 0.930 . S
C341 C343 1.406 . S
C341 C346 1.261 . S
C342 H309 0.930 . S
C342 N344 1.325 . S
C342 C345 1.357 . S
C343 H311 0.928 . S
C343 C341 1.406 . S
C343 N344 1.261 . S
N344 Co295 2.214 . S
N344 C342 1.325 . S
N344 C343 1.261 . S
C345 H315 0.931 . S
C345 C342 1.357 . S
C345 C346 1.312 . S
C346 H317 0.930 . S
C346 C341 1.261 . S
C346 C345 1.312 . S
C347 O319 1.214 . S
C347 O327 1.234 . S
C348 H320 0.929 . S
C348 C351 1.391 . S
C348 C353 1.391 . S
C349 H321 0.929 . S
C349 C350 1.390 . S
C349 N352 1.391 . S
C350 H322 0.930 . S
C350 C349 1.390 . S
C350 C351 1.392 . S
C351 H323 0.929 . S
C351 C348 1.391 . S
C351 C350 1.392 . S
N352 Co296 2.257 . S
N352 C349 1.391 . S
N352 C353 1.388 . S
C353 H324 0.930 . S
C353 C348 1.391 . S
C353 N352 1.388 . S
Co354 O356 2.143 . S
Co354 O362 2.074 . S
Co354 O365 2.093 . S
Co354 O378 2.097 . S
Co354 N395 2.151 . S
Co354 N403 2.214 . S
Co355 O356 2.160 . S
Co355 O361 2.058 . S
Co355 O371 2.057 . S
Co355 O386 2.037 . S
Co355 N390 2.145 . S
Co355 N411 2.257 . S
O356 Co354 2.143 . S
O356 Co355 2.160 . S
C357 O358 1.278 . S
C357 O365 1.224 . S
O358 C357 1.278 . S
C359 O360 1.245 . S
C359 O371 1.232 . S
O360 C359 1.245 . S
O361 Co355 2.058 . S
O361 C387 1.269 . S
O362 Co354 2.074 . S
O362 C387 1.257 . S
H363 C388 0.930 . S
H364 C394 0.930 . S
O365 Co354 2.093 . S
O365 C357 1.224 . S
H366 C398 0.929 . S
H367 C400 0.930 . S
H368 C401 0.930 . S
H369 C399 0.929 . S
H370 C402 0.928 . S
O371 Co355 2.057 . S
O371 C359 1.232 . S
H372 C391 0.929 . S
H373 C392 0.929 . S
H374 C404 0.931 . S
H375 C396 0.929 . S
H376 C405 0.930 . S
H377 C397 0.931 . S
O378 Co354 2.097 . S
O378 C406 1.214 . S
H379 C407 0.929 . S
H380 C408 0.929 . S
H381 C409 0.930 . S
H382 C410 0.929 . S
H383 C412 0.930 . S
H384 C389 0.930 . S
H385 C393 0.930 . S
O386 Co355 2.037 . S
O386 C406 1.234 . S
C387 O361 1.269 . S
C387 O362 1.257 . S
C388 H363 0.930 . S
C388 C391 1.388 . S
C388 C393 1.418 . S
C389 H384 0.930 . S
C389 C392 1.404 . S
C389 C393 1.353 . S
N390 Co355 2.145 . S
N390 C391 1.397 . S
N390 C392 1.334 . S
C391 H372 0.929 . S
C391 C388 1.388 . S
C391 N390 1.397 . S
C392 H373 0.929 . S
C392 C389 1.404 . S
C392 N390 1.334 . S
C393 H385 0.930 . S
C393 C388 1.418 . S
C393 C389 1.353 . S
C394 H364 0.930 . S
C394 N395 1.330 . S
C394 C396 1.446 . S
N395 Co354 2.151 . S
N395 C394 1.330 . S
N395 C399 1.418 . S
C396 H375 0.929 . S
C396 C394 1.446 . S
C396 C397 1.332 . S
C397 H377 0.931 . S
C397 C396 1.332 . S
C397 C398 1.267 . S
C398 H366 0.929 . S
C398 C397 1.267 . S
C398 C399 1.251 . S
C399 H369 0.929 . S
C399 N395 1.418 . S
C399 C398 1.251 . S
C400 H367 0.930 . S
C400 C402 1.406 . S
C400 C405 1.261 . S
C401 H368 0.930 . S
C401 N403 1.325 . S
C401 C404 1.357 . S
C402 H370 0.928 . S
C402 C400 1.406 . S
C402 N403 1.261 . S
N403 Co354 2.214 . S
N403 C401 1.325 . S
N403 C402 1.261 . S
C404 H374 0.931 . S
C404 C401 1.357 . S
C404 C405 1.312 . S
C405 H376 0.930 . S
C405 C400 1.261 . S
C405 C404 1.312 . S
C406 O378 1.214 . S
C406 O386 1.234 . S
C407 H379 0.929 . S
C407 C410 1.391 . S
C407 C412 1.391 . S
C408 H380 0.929 . S
C408 C409 1.390 . S
C408 N411 1.391 . S
C409 H381 0.930 . S
C409 C408 1.390 . S
C409 C410 1.392 . S
C410 H382 0.929 . S
C410 C407 1.391 . S
C410 C409 1.392 . S
N411 Co355 2.257 . S
N411 C408 1.391 . S
N411 C412 1.388 . S
C412 H383 0.930 . S
C412 C407 1.391 . S
C412 N411 1.388 . S
Co413 O415 2.143 . S
Co413 O421 2.074 . S
Co413 O424 2.093 . S
Co413 O437 2.097 . S
Co413 N454 2.151 . S
Co413 N462 2.214 . S
Co414 O415 2.160 . S
Co414 O420 2.058 . S
Co414 O430 2.057 . S
Co414 O445 2.037 . S
Co414 N449 2.145 . S
Co414 N470 2.257 . S
O415 Co413 2.143 . S
O415 Co414 2.160 . S
C416 O417 1.278 . S
C416 O424 1.224 . S
O417 C416 1.278 . S
C418 O419 1.245 . S
C418 O430 1.232 . S
O419 C418 1.245 . S
O420 Co414 2.058 . S
O420 C446 1.269 . S
O421 Co413 2.074 . S
O421 C446 1.257 . S
H422 C447 0.930 . S
H423 C453 0.930 . S
O424 Co413 2.093 . S
O424 C416 1.224 . S
H425 C457 0.929 . S
H426 C459 0.930 . S
H427 C460 0.930 . S
H428 C458 0.929 . S
H429 C461 0.928 . S
O430 Co414 2.057 . S
O430 C418 1.232 . S
H431 C450 0.929 . S
H432 C451 0.929 . S
H433 C463 0.931 . S
H434 C455 0.929 . S
H435 C464 0.930 . S
H436 C456 0.931 . S
O437 Co413 2.097 . S
O437 C465 1.214 . S
H438 C466 0.929 . S
H439 C467 0.929 . S
H440 C468 0.930 . S
H441 C469 0.929 . S
H442 C471 0.930 . S
H443 C448 0.930 . S
H444 C452 0.930 . S
O445 Co414 2.037 . S
O445 C465 1.234 . S
C446 O420 1.269 . S
C446 O421 1.257 . S
C447 H422 0.930 . S
C447 C450 1.388 . S
C447 C452 1.418 . S
C448 H443 0.930 . S
C448 C451 1.404 . S
C448 C452 1.353 . S
N449 Co414 2.145 . S
N449 C450 1.397 . S
N449 C451 1.334 . S
C450 H431 0.929 . S
C450 C447 1.388 . S
C450 N449 1.397 . S
C451 H432 0.929 . S
C451 C448 1.404 . S
C451 N449 1.334 . S
C452 H444 0.930 . S
C452 C447 1.418 . S
C452 C448 1.353 . S
C453 H423 0.930 . S
C453 N454 1.330 . S
C453 C455 1.446 . S
N454 Co413 2.151 . S
N454 C453 1.330 . S
N454 C458 1.418 . S
C455 H434 0.929 . S
C455 C453 1.446 . S
C455 C456 1.332 . S
C456 H436 0.931 . S
C456 C455 1.332 . S
C456 C457 1.267 . S
C457 H425 0.929 . S
C457 C456 1.267 . S
C457 C458 1.251 . S
C458 H428 0.929 . S
C458 N454 1.418 . S
C458 C457 1.251 . S
C459 H426 0.930 . S
C459 C461 1.406 . S
C459 C464 1.261 . S
C460 H427 0.930 . S
C460 N462 1.325 . S
C460 C463 1.357 . S
C461 H429 0.928 . S
C461 C459 1.406 . S
C461 N462 1.261 . S
N462 Co413 2.214 . S
N462 C460 1.325 . S
N462 C461 1.261 . S
C463 H433 0.931 . S
C463 C460 1.357 . S
C463 C464 1.312 . S
C464 H435 0.930 . S
C464 C459 1.261 . S
C464 C463 1.312 . S
C465 O437 1.214 . S
C465 O445 1.234 . S
C466 H438 0.929 . S
C466 C469 1.391 . S
C466 C471 1.391 . S
C467 H439 0.929 . S
C467 C468 1.390 . S
C467 N470 1.391 . S
C468 H440 0.930 . S
C468 C467 1.390 . S
C468 C469 1.392 . S
C469 H441 0.929 . S
C469 C466 1.391 . S
C469 C468 1.392 . S
N470 Co414 2.257 . S
N470 C467 1.391 . S
N470 C471 1.388 . S
C471 H442 0.930 . S
C471 C466 1.391 . S
C471 N470 1.388 . S
Co472 O474 2.143 . S
Co472 O480 2.074 . S
Co472 O483 2.093 . S
Co472 O496 2.097 . S
Co472 N513 2.151 . S
Co472 N521 2.214 . S
Co473 O474 2.160 . S
Co473 O479 2.058 . S
Co473 O489 2.057 . S
Co473 O504 2.037 . S
Co473 N508 2.145 . S
Co473 N529 2.257 . S
O474 Co472 2.143 . S
O474 Co473 2.160 . S
C475 O476 1.278 . S
C475 O483 1.224 . S
O476 C475 1.278 . S
C477 O478 1.245 . S
C477 O489 1.232 . S
O478 C477 1.245 . S
O479 Co473 2.058 . S
O479 C505 1.269 . S
O480 Co472 2.074 . S
O480 C505 1.257 . S
H481 C506 0.930 . S
H482 C512 0.930 . S
O483 Co472 2.093 . S
O483 C475 1.224 . S
H484 C516 0.929 . S
H485 C518 0.930 . S
H486 C519 0.930 . S
H487 C517 0.929 . S
H488 C520 0.928 . S
O489 Co473 2.057 . S
O489 C477 1.232 . S
H490 C509 0.929 . S
H491 C510 0.929 . S
H492 C522 0.931 . S
H493 C514 0.929 . S
H494 C523 0.930 . S
H495 C515 0.931 . S
O496 Co472 2.097 . S
O496 C524 1.214 . S
H497 C525 0.929 . S
H498 C526 0.929 . S
H499 C527 0.930 . S
H500 C528 0.929 . S
H501 C530 0.930 . S
H502 C507 0.930 . S
H503 C511 0.930 . S
O504 Co473 2.037 . S
O504 C524 1.234 . S
C505 O479 1.269 . S
C505 O480 1.257 . S
C506 H481 0.930 . S
C506 C509 1.388 . S
C506 C511 1.418 . S
C507 H502 0.930 . S
C507 C510 1.404 . S
C507 C511 1.353 . S
N508 Co473 2.145 . S
N508 C509 1.397 . S
N508 C510 1.334 . S
C509 H490 0.929 . S
C509 C506 1.388 . S
C509 N508 1.397 . S
C510 H491 0.929 . S
C510 C507 1.404 . S
C510 N508 1.334 . S
C511 H503 0.930 . S
C511 C506 1.418 . S
C511 C507 1.353 . S
C512 H482 0.930 . S
C512 N513 1.330 . S
C512 C514 1.446 . S
N513 Co472 2.151 . S
N513 C512 1.330 . S
N513 C517 1.418 . S
C514 H493 0.929 . S
C514 C512 1.446 . S
C514 C515 1.332 . S
C515 H495 0.931 . S
C515 C514 1.332 . S
C515 C516 1.267 . S
C516 H484 0.929 . S
C516 C515 1.267 . S
C516 C517 1.251 . S
C517 H487 0.929 . S
C517 N513 1.418 . S
C517 C516 1.251 . S
C518 H485 0.930 . S
C518 C520 1.406 . S
C518 C523 1.261 . S
C519 H486 0.930 . S
C519 N521 1.325 . S
C519 C522 1.357 . S
C520 H488 0.928 . S
C520 C518 1.406 . S
C520 N521 1.261 . S
N521 Co472 2.214 . S
N521 C519 1.325 . S
N521 C520 1.261 . S
C522 H492 0.931 . S
C522 C519 1.357 . S
C522 C523 1.312 . S
C523 H494 0.930 . S
C523 C518 1.261 . S
C523 C522 1.312 . S
C524 O496 1.214 . S
C524 O504 1.234 . S
C525 H497 0.929 . S
C525 C528 1.391 . S
C525 C530 1.391 . S
C526 H498 0.929 . S
C526 C527 1.390 . S
C526 N529 1.391 . S
C527 H499 0.930 . S
C527 C526 1.390 . S
C527 C528 1.392 . S
C528 H500 0.929 . S
C528 C525 1.391 . S
C528 C527 1.392 . S
N529 Co473 2.257 . S
N529 C526 1.391 . S
N529 C530 1.388 . S
C530 H501 0.930 . S
C530 C525 1.391 . S
C530 N529 1.388 . S
Co531 O533 2.143 . S
Co531 O539 2.074 . S
Co531 O542 2.093 . S
Co531 O555 2.097 . S
Co531 N572 2.151 . S
Co531 N580 2.214 . S
Co532 O533 2.160 . S
Co532 O538 2.058 . S
Co532 O548 2.057 . S
Co532 O563 2.037 . S
Co532 N567 2.145 . S
Co532 N588 2.257 . S
O533 Co531 2.143 . S
O533 Co532 2.160 . S
C534 O535 1.278 . S
C534 O542 1.224 . S
O535 C534 1.278 . S
C536 O537 1.245 . S
C536 O548 1.232 . S
O537 C536 1.245 . S
O538 Co532 2.058 . S
O538 C564 1.269 . S
O539 Co531 2.074 . S
O539 C564 1.257 . S
H540 C565 0.930 . S
H541 C571 0.930 . S
O542 Co531 2.093 . S
O542 C534 1.224 . S
H543 C575 0.929 . S
H544 C577 0.930 . S
H545 C578 0.930 . S
H546 C576 0.929 . S
H547 C579 0.928 . S
O548 Co532 2.057 . S
O548 C536 1.232 . S
H549 C568 0.929 . S
H550 C569 0.929 . S
H551 C581 0.931 . S
H552 C573 0.929 . S
H553 C582 0.930 . S
H554 C574 0.931 . S
O555 Co531 2.097 . S
O555 C583 1.214 . S
H556 C584 0.929 . S
H557 C585 0.929 . S
H558 C586 0.930 . S
H559 C587 0.929 . S
H560 C589 0.930 . S
H561 C566 0.930 . S
H562 C570 0.930 . S
O563 Co532 2.037 . S
O563 C583 1.234 . S
C564 O538 1.269 . S
C564 O539 1.257 . S
C565 H540 0.930 . S
C565 C568 1.388 . S
C565 C570 1.418 . S
C566 H561 0.930 . S
C566 C569 1.404 . S
C566 C570 1.353 . S
N567 Co532 2.145 . S
N567 C568 1.397 . S
N567 C569 1.334 . S
C568 H549 0.929 . S
C568 C565 1.388 . S
C568 N567 1.397 . S
C569 H550 0.929 . S
C569 C566 1.404 . S
C569 N567 1.334 . S
C570 H562 0.930 . S
C570 C565 1.418 . S
C570 C566 1.353 . S
C571 H541 0.930 . S
C571 N572 1.330 . S
C571 C573 1.446 . S
N572 Co531 2.151 . S
N572 C571 1.330 . S
N572 C576 1.418 . S
C573 H552 0.929 . S
C573 C571 1.446 . S
C573 C574 1.332 . S
C574 H554 0.931 . S
C574 C573 1.332 . S
C574 C575 1.267 . S
C575 H543 0.929 . S
C575 C574 1.267 . S
C575 C576 1.251 . S
C576 H546 0.929 . S
C576 N572 1.418 . S
C576 C575 1.251 . S
C577 H544 0.930 . S
C577 C579 1.406 . S
C577 C582 1.261 . S
C578 H545 0.930 . S
C578 N580 1.325 . S
C578 C581 1.357 . S
C579 H547 0.928 . S
C579 C577 1.406 . S
C579 N580 1.261 . S
N580 Co531 2.214 . S
N580 C578 1.325 . S
N580 C579 1.261 . S
C581 H551 0.931 . S
C581 C578 1.357 . S
C581 C582 1.312 . S
C582 H553 0.930 . S
C582 C577 1.261 . S
C582 C581 1.312 . S
C583 O555 1.214 . S
C583 O563 1.234 . S
C584 H556 0.929 . S
C584 C587 1.391 . S
C584 C589 1.391 . S
C585 H557 0.929 . S
C585 C586 1.390 . S
C585 N588 1.391 . S
C586 H558 0.930 . S
C586 C585 1.390 . S
C586 C587 1.392 . S
C587 H559 0.929 . S
C587 C584 1.391 . S
C587 C586 1.392 . S
N588 Co532 2.257 . S
N588 C585 1.391 . S
N588 C589 1.388 . S
C589 H560 0.930 . S
C589 C584 1.391 . S
C589 N588 1.388 . S
Co590 O592 2.143 . S
Co590 O598 2.074 . S
Co590 O601 2.093 . S
Co590 O614 2.097 . S
Co590 N631 2.151 . S
Co590 N639 2.214 . S
Co591 O592 2.160 . S
Co591 O597 2.058 . S
Co591 O607 2.057 . S
Co591 O622 2.037 . S
Co591 N626 2.145 . S
Co591 N647 2.257 . S
O592 Co590 2.143 . S
O592 Co591 2.160 . S
C593 O594 1.278 . S
C593 O601 1.224 . S
O594 C593 1.278 . S
C595 O596 1.245 . S
C595 O607 1.232 . S
O596 C595 1.245 . S
O597 Co591 2.058 . S
O597 C623 1.269 . S
O598 Co590 2.074 . S
O598 C623 1.257 . S
H599 C624 0.930 . S
H600 C630 0.930 . S
O601 Co590 2.093 . S
O601 C593 1.224 . S
H602 C634 0.929 . S
H603 C636 0.930 . S
H604 C637 0.930 . S
H605 C635 0.929 . S
H606 C638 0.928 . S
O607 Co591 2.057 . S
O607 C595 1.232 . S
H608 C627 0.929 . S
H609 C628 0.929 . S
H610 C640 0.931 . S
H611 C632 0.929 . S
H612 C641 0.930 . S
H613 C633 0.931 . S
O614 Co590 2.097 . S
O614 C642 1.214 . S
H615 C643 0.929 . S
H616 C644 0.929 . S
H617 C645 0.930 . S
H618 C646 0.929 . S
H619 C648 0.930 . S
H620 C625 0.930 . S
H621 C629 0.930 . S
O622 Co591 2.037 . S
O622 C642 1.234 . S
C623 O597 1.269 . S
C623 O598 1.257 . S
C624 H599 0.930 . S
C624 C627 1.388 . S
C624 C629 1.418 . S
C625 H620 0.930 . S
C625 C628 1.404 . S
C625 C629 1.353 . S
N626 Co591 2.145 . S
N626 C627 1.397 . S
N626 C628 1.334 . S
C627 H608 0.929 . S
C627 C624 1.388 . S
C627 N626 1.397 . S
C628 H609 0.929 . S
C628 C625 1.404 . S
C628 N626 1.334 . S
C629 H621 0.930 . S
C629 C624 1.418 . S
C629 C625 1.353 . S
C630 H600 0.930 . S
C630 N631 1.330 . S
C630 C632 1.446 . S
N631 Co590 2.151 . S
N631 C630 1.330 . S
N631 C635 1.418 . S
C632 H611 0.929 . S
C632 C630 1.446 . S
C632 C633 1.332 . S
C633 H613 0.931 . S
C633 C632 1.332 . S
C633 C634 1.267 . S
C634 H602 0.929 . S
C634 C633 1.267 . S
C634 C635 1.251 . S
C635 H605 0.929 . S
C635 N631 1.418 . S
C635 C634 1.251 . S
C636 H603 0.930 . S
C636 C638 1.406 . S
C636 C641 1.261 . S
C637 H604 0.930 . S
C637 N639 1.325 . S
C637 C640 1.357 . S
C638 H606 0.928 . S
C638 C636 1.406 . S
C638 N639 1.261 . S
N639 Co590 2.214 . S
N639 C637 1.325 . S
N639 C638 1.261 . S
C640 H610 0.931 . S
C640 C637 1.357 . S
C640 C641 1.312 . S
C641 H612 0.930 . S
C641 C636 1.261 . S
C641 C640 1.312 . S
C642 O614 1.214 . S
C642 O622 1.234 . S
C643 H615 0.929 . S
C643 C646 1.391 . S
C643 C648 1.391 . S
C644 H616 0.929 . S
C644 C645 1.390 . S
C644 N647 1.391 . S
C645 H617 0.930 . S
C645 C644 1.390 . S
C645 C646 1.392 . S
C646 H618 0.929 . S
C646 C643 1.391 . S
C646 C645 1.392 . S
N647 Co591 2.257 . S
N647 C644 1.391 . S
N647 C648 1.388 . S
C648 H619 0.930 . S
C648 C643 1.391 . S
C648 N647 1.388 . S
Co649 O651 2.143 . S
Co649 O657 2.074 . S
Co649 O660 2.093 . S
Co649 O673 2.097 . S
Co649 N690 2.151 . S
Co649 N698 2.214 . S
Co650 O651 2.160 . S
Co650 O656 2.058 . S
Co650 O666 2.057 . S
Co650 O681 2.037 . S
Co650 N685 2.145 . S
Co650 N706 2.257 . S
O651 Co649 2.143 . S
O651 Co650 2.160 . S
C652 O653 1.278 . S
C652 O660 1.224 . S
O653 C652 1.278 . S
C654 O655 1.245 . S
C654 O666 1.232 . S
O655 C654 1.245 . S
O656 Co650 2.058 . S
O656 C682 1.269 . S
O657 Co649 2.074 . S
O657 C682 1.257 . S
H658 C683 0.930 . S
H659 C689 0.930 . S
O660 Co649 2.093 . S
O660 C652 1.224 . S
H661 C693 0.929 . S
H662 C695 0.930 . S
H663 C696 0.930 . S
H664 C694 0.929 . S
H665 C697 0.928 . S
O666 Co650 2.057 . S
O666 C654 1.232 . S
H667 C686 0.929 . S
H668 C687 0.929 . S
H669 C699 0.931 . S
H670 C691 0.929 . S
H671 C700 0.930 . S
H672 C692 0.931 . S
O673 Co649 2.097 . S
O673 C701 1.214 . S
H674 C702 0.929 . S
H675 C703 0.929 . S
H676 C704 0.930 . S
H677 C705 0.929 . S
H678 C707 0.930 . S
H679 C684 0.930 . S
H680 C688 0.930 . S
O681 Co650 2.037 . S
O681 C701 1.234 . S
C682 O656 1.269 . S
C682 O657 1.257 . S
C683 H658 0.930 . S
C683 C686 1.388 . S
C683 C688 1.418 . S
C684 H679 0.930 . S
C684 C687 1.404 . S
C684 C688 1.353 . S
N685 Co650 2.145 . S
N685 C686 1.397 . S
N685 C687 1.334 . S
C686 H667 0.929 . S
C686 C683 1.388 . S
C686 N685 1.397 . S
C687 H668 0.929 . S
C687 C684 1.404 . S
C687 N685 1.334 . S
C688 H680 0.930 . S
C688 C683 1.418 . S
C688 C684 1.353 . S
C689 H659 0.930 . S
C689 N690 1.330 . S
C689 C691 1.446 . S
N690 Co649 2.151 . S
N690 C689 1.330 . S
N690 C694 1.418 . S
C691 H670 0.929 . S
C691 C689 1.446 . S
C691 C692 1.332 . S
C692 H672 0.931 . S
C692 C691 1.332 . S
C692 C693 1.267 . S
C693 H661 0.929 . S
C693 C692 1.267 . S
C693 C694 1.251 . S
C694 H664 0.929 . S
C694 N690 1.418 . S
C694 C693 1.251 . S
C695 H662 0.930 . S
C695 C697 1.406 . S
C695 C700 1.261 . S
C696 H663 0.930 . S
C696 N698 1.325 . S
C696 C699 1.357 . S
C697 H665 0.928 . S
C697 C695 1.406 . S
C697 N698 1.261 . S
N698 Co649 2.214 . S
N698 C696 1.325 . S
N698 C697 1.261 . S
C699 H669 0.931 . S
C699 C696 1.357 . S
C699 C700 1.312 . S
C700 H671 0.930 . S
C700 C695 1.261 . S
C700 C699 1.312 . S
C701 O673 1.214 . S
C701 O681 1.234 . S
C702 H674 0.929 . S
C702 C705 1.391 . S
C702 C707 1.391 . S
C703 H675 0.929 . S
C703 C704 1.390 . S
C703 N706 1.391 . S
C704 H676 0.930 . S
C704 C703 1.390 . S
C704 C705 1.392 . S
C705 H677 0.929 . S
C705 C702 1.391 . S
C705 C704 1.392 . S
N706 Co650 2.257 . S
N706 C703 1.391 . S
N706 C707 1.388 . S
C707 H678 0.930 . S
C707 C702 1.391 . S
C707 N706 1.388 . S
Co708 O710 2.143 . S
Co708 O716 2.074 . S
Co708 O719 2.093 . S
Co708 O732 2.097 . S
Co708 N749 2.151 . S
Co708 N757 2.214 . S
Co709 O710 2.160 . S
Co709 O715 2.058 . S
Co709 O725 2.057 . S
Co709 O740 2.037 . S
Co709 N744 2.145 . S
Co709 N765 2.257 . S
O710 Co708 2.143 . S
O710 Co709 2.160 . S
C711 O712 1.278 . S
C711 O719 1.224 . S
O712 C711 1.278 . S
C713 O714 1.245 . S
C713 O725 1.232 . S
O714 C713 1.245 . S
O715 Co709 2.058 . S
O715 C741 1.269 . S
O716 Co708 2.074 . S
O716 C741 1.257 . S
H717 C742 0.930 . S
H718 C748 0.930 . S
O719 Co708 2.093 . S
O719 C711 1.224 . S
H720 C752 0.929 . S
H721 C754 0.930 . S
H722 C755 0.930 . S
H723 C753 0.929 . S
H724 C756 0.928 . S
O725 Co709 2.057 . S
O725 C713 1.232 . S
H726 C745 0.929 . S
H727 C746 0.929 . S
H728 C758 0.931 . S
H729 C750 0.929 . S
H730 C759 0.930 . S
H731 C751 0.931 . S
O732 Co708 2.097 . S
O732 C760 1.214 . S
H733 C761 0.929 . S
H734 C762 0.929 . S
H735 C763 0.930 . S
H736 C764 0.929 . S
H737 C766 0.930 . S
H738 C743 0.930 . S
H739 C747 0.930 . S
O740 Co709 2.037 . S
O740 C760 1.234 . S
C741 O715 1.269 . S
C741 O716 1.257 . S
C742 H717 0.930 . S
C742 C745 1.388 . S
C742 C747 1.418 . S
C743 H738 0.930 . S
C743 C746 1.404 . S
C743 C747 1.353 . S
N744 Co709 2.145 . S
N744 C745 1.397 . S
N744 C746 1.334 . S
C745 H726 0.929 . S
C745 C742 1.388 . S
C745 N744 1.397 . S
C746 H727 0.929 . S
C746 C743 1.404 . S
C746 N744 1.334 . S
C747 H739 0.930 . S
C747 C742 1.418 . S
C747 C743 1.353 . S
C748 H718 0.930 . S
C748 N749 1.330 . S
C748 C750 1.446 . S
N749 Co708 2.151 . S
N749 C748 1.330 . S
N749 C753 1.418 . S
C750 H729 0.929 . S
C750 C748 1.446 . S
C750 C751 1.332 . S
C751 H731 0.931 . S
C751 C750 1.332 . S
C751 C752 1.267 . S
C752 H720 0.929 . S
C752 C751 1.267 . S
C752 C753 1.251 . S
C753 H723 0.929 . S
C753 N749 1.418 . S
C753 C752 1.251 . S
C754 H721 0.930 . S
C754 C756 1.406 . S
C754 C759 1.261 . S
C755 H722 0.930 . S
C755 N757 1.325 . S
C755 C758 1.357 . S
C756 H724 0.928 . S
C756 C754 1.406 . S
C756 N757 1.261 . S
N757 Co708 2.214 . S
N757 C755 1.325 . S
N757 C756 1.261 . S
C758 H728 0.931 . S
C758 C755 1.357 . S
C758 C759 1.312 . S
C759 H730 0.930 . S
C759 C754 1.261 . S
C759 C758 1.312 . S
C760 O732 1.214 . S
C760 O740 1.234 . S
C761 H733 0.929 . S
C761 C764 1.391 . S
C761 C766 1.391 . S
C762 H734 0.929 . S
C762 C763 1.390 . S
C762 N765 1.391 . S
C763 H735 0.930 . S
C763 C762 1.390 . S
C763 C764 1.392 . S
C764 H736 0.929 . S
C764 C761 1.391 . S
C764 C763 1.392 . S
N765 Co709 2.257 . S
N765 C762 1.391 . S
N765 C766 1.388 . S
C766 H737 0.930 . S
C766 C761 1.391 . S
C766 N765 1.388 . S
Co767 O769 2.143 . S
Co767 O775 2.074 . S
Co767 O778 2.093 . S
Co767 O791 2.097 . S
Co767 N808 2.151 . S
Co767 N816 2.214 . S
Co768 O769 2.160 . S
Co768 O774 2.058 . S
Co768 O784 2.057 . S
Co768 O799 2.037 . S
Co768 N803 2.145 . S
Co768 N824 2.257 . S
O769 Co767 2.143 . S
O769 Co768 2.160 . S
C770 O771 1.278 . S
C770 O778 1.224 . S
O771 C770 1.278 . S
C772 O773 1.245 . S
C772 O784 1.232 . S
O773 C772 1.245 . S
O774 Co768 2.058 . S
O774 C800 1.269 . S
O775 Co767 2.074 . S
O775 C800 1.257 . S
H776 C801 0.930 . S
H777 C807 0.930 . S
O778 Co767 2.093 . S
O778 C770 1.224 . S
H779 C811 0.929 . S
H780 C813 0.930 . S
H781 C814 0.930 . S
H782 C812 0.929 . S
H783 C815 0.928 . S
O784 Co768 2.057 . S
O784 C772 1.232 . S
H785 C804 0.929 . S
H786 C805 0.929 . S
H787 C817 0.931 . S
H788 C809 0.929 . S
H789 C818 0.930 . S
H790 C810 0.931 . S
O791 Co767 2.097 . S
O791 C819 1.214 . S
H792 C820 0.929 . S
H793 C821 0.929 . S
H794 C822 0.930 . S
H795 C823 0.929 . S
H796 C825 0.930 . S
H797 C802 0.930 . S
H798 C806 0.930 . S
O799 Co768 2.037 . S
O799 C819 1.234 . S
C800 O774 1.269 . S
C800 O775 1.257 . S
C801 H776 0.930 . S
C801 C804 1.388 . S
C801 C806 1.418 . S
C802 H797 0.930 . S
C802 C805 1.404 . S
C802 C806 1.353 . S
N803 Co768 2.145 . S
N803 C804 1.397 . S
N803 C805 1.334 . S
C804 H785 0.929 . S
C804 C801 1.388 . S
C804 N803 1.397 . S
C805 H786 0.929 . S
C805 C802 1.404 . S
C805 N803 1.334 . S
C806 H798 0.930 . S
C806 C801 1.418 . S
C806 C802 1.353 . S
C807 H777 0.930 . S
C807 N808 1.330 . S
C807 C809 1.446 . S
N808 Co767 2.151 . S
N808 C807 1.330 . S
N808 C812 1.418 . S
C809 H788 0.929 . S
C809 C807 1.446 . S
C809 C810 1.332 . S
C810 H790 0.931 . S
C810 C809 1.332 . S
C810 C811 1.267 . S
C811 H779 0.929 . S
C811 C810 1.267 . S
C811 C812 1.251 . S
C812 H782 0.929 . S
C812 N808 1.418 . S
C812 C811 1.251 . S
C813 H780 0.930 . S
C813 C815 1.406 . S
C813 C818 1.261 . S
C814 H781 0.930 . S
C814 N816 1.325 . S
C814 C817 1.357 . S
C815 H783 0.928 . S
C815 C813 1.406 . S
C815 N816 1.261 . S
N816 Co767 2.214 . S
N816 C814 1.325 . S
N816 C815 1.261 . S
C817 H787 0.931 . S
C817 C814 1.357 . S
C817 C818 1.312 . S
C818 H789 0.930 . S
C818 C813 1.261 . S
C818 C817 1.312 . S
C819 O791 1.214 . S
C819 O799 1.234 . S
C820 H792 0.929 . S
C820 C823 1.391 . S
C820 C825 1.391 . S
C821 H793 0.929 . S
C821 C822 1.390 . S
C821 N824 1.391 . S
C822 H794 0.930 . S
C822 C821 1.390 . S
C822 C823 1.392 . S
C823 H795 0.929 . S
C823 C820 1.391 . S
C823 C822 1.392 . S
N824 Co768 2.257 . S
N824 C821 1.391 . S
N824 C825 1.388 . S
C825 H796 0.930 . S
C825 C820 1.391 . S
C825 N824 1.388 . S
Co826 O828 2.143 . S
Co826 O834 2.074 . S
Co826 O837 2.093 . S
Co826 O850 2.097 . S
Co826 N867 2.151 . S
Co826 N875 2.214 . S
Co827 O828 2.160 . S
Co827 O833 2.058 . S
Co827 O843 2.057 . S
Co827 O858 2.037 . S
Co827 N862 2.145 . S
Co827 N883 2.257 . S
O828 Co826 2.143 . S
O828 Co827 2.160 . S
C829 O830 1.278 . S
C829 O837 1.224 . S
O830 C829 1.278 . S
C831 O832 1.245 . S
C831 O843 1.232 . S
O832 C831 1.245 . S
O833 Co827 2.058 . S
O833 C859 1.269 . S
O834 Co826 2.074 . S
O834 C859 1.257 . S
H835 C860 0.930 . S
H836 C866 0.930 . S
O837 Co826 2.093 . S
O837 C829 1.224 . S
H838 C870 0.929 . S
H839 C872 0.930 . S
H840 C873 0.930 . S
H841 C871 0.929 . S
H842 C874 0.928 . S
O843 Co827 2.057 . S
O843 C831 1.232 . S
H844 C863 0.929 . S
H845 C864 0.929 . S
H846 C876 0.931 . S
H847 C868 0.929 . S
H848 C877 0.930 . S
H849 C869 0.931 . S
O850 Co826 2.097 . S
O850 C878 1.214 . S
H851 C879 0.929 . S
H852 C880 0.929 . S
H853 C881 0.930 . S
H854 C882 0.929 . S
H855 C884 0.930 . S
H856 C861 0.930 . S
H857 C865 0.930 . S
O858 Co827 2.037 . S
O858 C878 1.234 . S
C859 O833 1.269 . S
C859 O834 1.257 . S
C860 H835 0.930 . S
C860 C863 1.388 . S
C860 C865 1.418 . S
C861 H856 0.930 . S
C861 C864 1.404 . S
C861 C865 1.353 . S
N862 Co827 2.145 . S
N862 C863 1.397 . S
N862 C864 1.334 . S
C863 H844 0.929 . S
C863 C860 1.388 . S
C863 N862 1.397 . S
C864 H845 0.929 . S
C864 C861 1.404 . S
C864 N862 1.334 . S
C865 H857 0.930 . S
C865 C860 1.418 . S
C865 C861 1.353 . S
C866 H836 0.930 . S
C866 N867 1.330 . S
C866 C868 1.446 . S
N867 Co826 2.151 . S
N867 C866 1.330 . S
N867 C871 1.418 . S
C868 H847 0.929 . S
C868 C866 1.446 . S
C868 C869 1.332 . S
C869 H849 0.931 . S
C869 C868 1.332 . S
C869 C870 1.267 . S
C870 H838 0.929 . S
C870 C869 1.267 . S
C870 C871 1.251 . S
C871 H841 0.929 . S
C871 N867 1.418 . S
C871 C870 1.251 . S
C872 H839 0.930 . S
C872 C874 1.406 . S
C872 C877 1.261 . S
C873 H840 0.930 . S
C873 N875 1.325 . S
C873 C876 1.357 . S
C874 H842 0.928 . S
C874 C872 1.406 . S
C874 N875 1.261 . S
N875 Co826 2.214 . S
N875 C873 1.325 . S
N875 C874 1.261 . S
C876 H846 0.931 . S
C876 C873 1.357 . S
C876 C877 1.312 . S
C877 H848 0.930 . S
C877 C872 1.261 . S
C877 C876 1.312 . S
C878 O850 1.214 . S
C878 O858 1.234 . S
C879 H851 0.929 . S
C879 C882 1.391 . S
C879 C884 1.391 . S
C880 H852 0.929 . S
C880 C881 1.390 . S
C880 N883 1.391 . S
C881 H853 0.930 . S
C881 C880 1.390 . S
C881 C882 1.392 . S
C882 H854 0.929 . S
C882 C879 1.391 . S
C882 C881 1.392 . S
N883 Co827 2.257 . S
N883 C880 1.391 . S
N883 C884 1.388 . S
C884 H855 0.930 . S
C884 C879 1.391 . S
C884 N883 1.388 . S
Co885 O887 2.143 . S
Co885 O893 2.074 . S
Co885 O896 2.093 . S
Co885 O909 2.097 . S
Co885 N926 2.151 . S
Co885 N934 2.214 . S
Co886 O887 2.160 . S
Co886 O892 2.058 . S
Co886 O902 2.057 . S
Co886 O917 2.037 . S
Co886 N921 2.145 . S
Co886 N942 2.257 . S
O887 Co885 2.143 . S
O887 Co886 2.160 . S
C888 O889 1.278 . S
C888 O896 1.224 . S
O889 C888 1.278 . S
C890 O891 1.245 . S
C890 O902 1.232 . S
O891 C890 1.245 . S
O892 Co886 2.058 . S
O892 C918 1.269 . S
O893 Co885 2.074 . S
O893 C918 1.257 . S
H894 C919 0.930 . S
H895 C925 0.930 . S
O896 Co885 2.093 . S
O896 C888 1.224 . S
H897 C929 0.929 . S
H898 C931 0.930 . S
H899 C932 0.930 . S
H900 C930 0.929 . S
H901 C933 0.928 . S
O902 Co886 2.057 . S
O902 C890 1.232 . S
H903 C922 0.929 . S
H904 C923 0.929 . S
H905 C935 0.931 . S
H906 C927 0.929 . S
H907 C936 0.930 . S
H908 C928 0.931 . S
O909 Co885 2.097 . S
O909 C937 1.214 . S
H910 C938 0.929 . S
H911 C939 0.929 . S
H912 C940 0.930 . S
H913 C941 0.929 . S
H914 C943 0.930 . S
H915 C920 0.930 . S
H916 C924 0.930 . S
O917 Co886 2.037 . S
O917 C937 1.234 . S
C918 O892 1.269 . S
C918 O893 1.257 . S
C919 H894 0.930 . S
C919 C922 1.388 . S
C919 C924 1.418 . S
C920 H915 0.930 . S
C920 C923 1.404 . S
C920 C924 1.353 . S
N921 Co886 2.145 . S
N921 C922 1.397 . S
N921 C923 1.334 . S
C922 H903 0.929 . S
C922 C919 1.388 . S
C922 N921 1.397 . S
C923 H904 0.929 . S
C923 C920 1.404 . S
C923 N921 1.334 . S
C924 H916 0.930 . S
C924 C919 1.418 . S
C924 C920 1.353 . S
C925 H895 0.930 . S
C925 N926 1.330 . S
C925 C927 1.446 . S
N926 Co885 2.151 . S
N926 C925 1.330 . S
N926 C930 1.418 . S
C927 H906 0.929 . S
C927 C925 1.446 . S
C927 C928 1.332 . S
C928 H908 0.931 . S
C928 C927 1.332 . S
C928 C929 1.267 . S
C929 H897 0.929 . S
C929 C928 1.267 . S
C929 C930 1.251 . S
C930 H900 0.929 . S
C930 N926 1.418 . S
C930 C929 1.251 . S
C931 H898 0.930 . S
C931 C933 1.406 . S
C931 C936 1.261 . S
C932 H899 0.930 . S
C932 N934 1.325 . S
C932 C935 1.357 . S
C933 H901 0.928 . S
C933 C931 1.406 . S
C933 N934 1.261 . S
N934 Co885 2.214 . S
N934 C932 1.325 . S
N934 C933 1.261 . S
C935 H905 0.931 . S
C935 C932 1.357 . S
C935 C936 1.312 . S
C936 H907 0.930 . S
C936 C931 1.261 . S
C936 C935 1.312 . S
C937 O909 1.214 . S
C937 O917 1.234 . S
C938 H910 0.929 . S
C938 C941 1.391 . S
C938 C943 1.391 . S
C939 H911 0.929 . S
C939 C940 1.390 . S
C939 N942 1.391 . S
C940 H912 0.930 . S
C940 C939 1.390 . S
C940 C941 1.392 . S
C941 H913 0.929 . S
C941 C938 1.391 . S
C941 C940 1.392 . S
N942 Co886 2.257 . S
N942 C939 1.391 . S
N942 C943 1.388 . S
C943 H914 0.930 . S
C943 C938 1.391 . S
C943 N942 1.388 . S
Co944 O946 2.143 . S
Co944 O952 2.074 . S
Co944 O955 2.093 . S
Co944 O968 2.097 . S
Co944 N985 2.151 . S
Co944 N993 2.214 . S
Co945 O946 2.160 . S
Co945 O951 2.058 . S
Co945 O961 2.057 . S
Co945 O976 2.037 . S
Co945 N980 2.145 . S
Co945 N1001 2.257 . S
O946 Co944 2.143 . S
O946 Co945 2.160 . S
C947 O948 1.278 . S
C947 O955 1.224 . S
O948 C947 1.278 . S
C949 O950 1.245 . S
C949 O961 1.232 . S
O950 C949 1.245 . S
O951 Co945 2.058 . S
O951 C977 1.269 . S
O952 Co944 2.074 . S
O952 C977 1.257 . S
H953 C978 0.930 . S
H954 C984 0.930 . S
O955 Co944 2.093 . S
O955 C947 1.224 . S
H956 C988 0.929 . S
H957 C990 0.930 . S
H958 C991 0.930 . S
H959 C989 0.929 . S
H960 C992 0.928 . S
O961 Co945 2.057 . S
O961 C949 1.232 . S
H962 C981 0.929 . S
H963 C982 0.929 . S
H964 C994 0.931 . S
H965 C986 0.929 . S
H966 C995 0.930 . S
H967 C987 0.931 . S
O968 Co944 2.097 . S
O968 C996 1.214 . S
H969 C997 0.929 . S
H970 C998 0.929 . S
H971 C999 0.930 . S
H972 C1000 0.929 . S
H973 C1002 0.930 . S
H974 C979 0.930 . S
H975 C983 0.930 . S
O976 Co945 2.037 . S
O976 C996 1.234 . S
C977 O951 1.269 . S
C977 O952 1.257 . S
C978 H953 0.930 . S
C978 C981 1.388 . S
C978 C983 1.418 . S
C979 H974 0.930 . S
C979 C982 1.404 . S
C979 C983 1.353 . S
N980 Co945 2.145 . S
N980 C981 1.397 . S
N980 C982 1.334 . S
C981 H962 0.929 . S
C981 C978 1.388 . S
C981 N980 1.397 . S
C982 H963 0.929 . S
C982 C979 1.404 . S
C982 N980 1.334 . S
C983 H975 0.930 . S
C983 C978 1.418 . S
C983 C979 1.353 . S
C984 H954 0.930 . S
C984 N985 1.330 . S
C984 C986 1.446 . S
N985 Co944 2.151 . S
N985 C984 1.330 . S
N985 C989 1.418 . S
C986 H965 0.929 . S
C986 C984 1.446 . S
C986 C987 1.332 . S
C987 H967 0.931 . S
C987 C986 1.332 . S
C987 C988 1.267 . S
C988 H956 0.929 . S
C988 C987 1.267 . S
C988 C989 1.251 . S
C989 H959 0.929 . S
C989 N985 1.418 . S
C989 C988 1.251 . S
C990 H957 0.930 . S
C990 C992 1.406 . S
C990 C995 1.261 . S
C991 H958 0.930 . S
C991 N993 1.325 . S
C991 C994 1.357 . S
C992 H960 0.928 . S
C992 C990 1.406 . S
C992 N993 1.261 . S
N993 Co944 2.214 . S
N993 C991 1.325 . S
N993 C992 1.261 . S
C994 H964 0.931 . S
C994 C991 1.357 . S
C994 C995 1.312 . S
C995 H966 0.930 . S
C995 C990 1.261 . S
C995 C994 1.312 . S
C996 O968 1.214 . S
C996 O976 1.234 . S
C997 H969 0.929 . S
C997 C1000 1.391 . S
C997 C1002 1.391 . S
C998 H970 0.929 . S
C998 C999 1.390 . S
C998 N1001 1.391 . S
C999 H971 0.930 . S
C999 C998 1.390 . S
C999 C1000 1.392 . S
C1000 H972 0.929 . S
C1000 C997 1.391 . S
C1000 C999 1.392 . S
N1001 Co945 2.257 . S
N1001 C998 1.391 . S
N1001 C1002 1.388 . S
C1002 H973 0.930 . S
C1002 C997 1.391 . S
C1002 N1001 1.388 . S
Co1003 O1005 2.143 . S
Co1003 O1011 2.074 . S
Co1003 O1014 2.093 . S
Co1003 O1027 2.097 . S
Co1003 N1044 2.151 . S
Co1003 N1052 2.214 . S
Co1004 O1005 2.160 . S
Co1004 O1010 2.058 . S
Co1004 O1020 2.057 . S
Co1004 O1035 2.037 . S
Co1004 N1039 2.145 . S
Co1004 N1060 2.257 . S
O1005 Co1003 2.143 . S
O1005 Co1004 2.160 . S
C1006 O1007 1.278 . S
C1006 O1014 1.224 . S
O1007 C1006 1.278 . S
C1008 O1009 1.245 . S
C1008 O1020 1.232 . S
O1009 C1008 1.245 . S
O1010 Co1004 2.058 . S
O1010 C1036 1.269 . S
O1011 Co1003 2.074 . S
O1011 C1036 1.257 . S
H1012 C1037 0.930 . S
H1013 C1043 0.930 . S
O1014 Co1003 2.093 . S
O1014 C1006 1.224 . S
H1015 C1047 0.929 . S
H1016 C1049 0.930 . S
H1017 C1050 0.930 . S
H1018 C1048 0.929 . S
H1019 C1051 0.928 . S
O1020 Co1004 2.057 . S
O1020 C1008 1.232 . S
H1021 C1040 0.929 . S
H1022 C1041 0.929 . S
H1023 C1053 0.931 . S
H1024 C1045 0.929 . S
H1025 C1054 0.930 . S
H1026 C1046 0.931 . S
O1027 Co1003 2.097 . S
O1027 C1055 1.214 . S
H1028 C1056 0.929 . S
H1029 C1057 0.929 . S
H1030 C1058 0.930 . S
H1031 C1059 0.929 . S
H1032 C1061 0.930 . S
H1033 C1038 0.930 . S
H1034 C1042 0.930 . S
O1035 Co1004 2.037 . S
O1035 C1055 1.234 . S
C1036 O1010 1.269 . S
C1036 O1011 1.257 . S
C1037 H1012 0.930 . S
C1037 C1040 1.388 . S
C1037 C1042 1.418 . S
C1038 H1033 0.930 . S
C1038 C1041 1.404 . S
C1038 C1042 1.353 . S
N1039 Co1004 2.145 . S
N1039 C1040 1.397 . S
N1039 C1041 1.334 . S
C1040 H1021 0.929 . S
C1040 C1037 1.388 . S
C1040 N1039 1.397 . S
C1041 H1022 0.929 . S
C1041 C1038 1.404 . S
C1041 N1039 1.334 . S
C1042 H1034 0.930 . S
C1042 C1037 1.418 . S
C1042 C1038 1.353 . S
C1043 H1013 0.930 . S
C1043 N1044 1.330 . S
C1043 C1045 1.446 . S
N1044 Co1003 2.151 . S
N1044 C1043 1.330 . S
N1044 C1048 1.418 . S
C1045 H1024 0.929 . S
C1045 C1043 1.446 . S
C1045 C1046 1.332 . S
C1046 H1026 0.931 . S
C1046 C1045 1.332 . S
C1046 C1047 1.267 . S
C1047 H1015 0.929 . S
C1047 C1046 1.267 . S
C1047 C1048 1.251 . S
C1048 H1018 0.929 . S
C1048 N1044 1.418 . S
C1048 C1047 1.251 . S
C1049 H1016 0.930 . S
C1049 C1051 1.406 . S
C1049 C1054 1.261 . S
C1050 H1017 0.930 . S
C1050 N1052 1.325 . S
C1050 C1053 1.357 . S
C1051 H1019 0.928 . S
C1051 C1049 1.406 . S
C1051 N1052 1.261 . S
N1052 Co1003 2.214 . S
N1052 C1050 1.325 . S
N1052 C1051 1.261 . S
C1053 H1023 0.931 . S
C1053 C1050 1.357 . S
C1053 C1054 1.312 . S
C1054 H1025 0.930 . S
C1054 C1049 1.261 . S
C1054 C1053 1.312 . S
C1055 O1027 1.214 . S
C1055 O1035 1.234 . S
C1056 H1028 0.929 . S
C1056 C1059 1.391 . S
C1056 C1061 1.391 . S
C1057 H1029 0.929 . S
C1057 C1058 1.390 . S
C1057 N1060 1.391 . S
C1058 H1030 0.930 . S
C1058 C1057 1.390 . S
C1058 C1059 1.392 . S
C1059 H1031 0.929 . S
C1059 C1056 1.391 . S
C1059 C1058 1.392 . S
N1060 Co1004 2.257 . S
N1060 C1057 1.391 . S
N1060 C1061 1.388 . S
C1061 H1032 0.930 . S
C1061 C1056 1.391 . S
C1061 N1060 1.388 . S
Co1062 O1064 2.143 . S
Co1062 O1070 2.074 . S
Co1062 O1073 2.093 . S
Co1062 O1086 2.097 . S
Co1062 N1103 2.151 . S
Co1062 N1111 2.214 . S
Co1063 O1064 2.160 . S
Co1063 O1069 2.058 . S
Co1063 O1079 2.057 . S
Co1063 O1094 2.037 . S
Co1063 N1098 2.145 . S
Co1063 N1119 2.257 . S
O1064 Co1062 2.143 . S
O1064 Co1063 2.160 . S
C1065 O1066 1.278 . S
C1065 O1073 1.224 . S
O1066 C1065 1.278 . S
C1067 O1068 1.245 . S
C1067 O1079 1.232 . S
O1068 C1067 1.245 . S
O1069 Co1063 2.058 . S
O1069 C1095 1.269 . S
O1070 Co1062 2.074 . S
O1070 C1095 1.257 . S
H1071 C1096 0.930 . S
H1072 C1102 0.930 . S
O1073 Co1062 2.093 . S
O1073 C1065 1.224 . S
H1074 C1106 0.929 . S
H1075 C1108 0.930 . S
H1076 C1109 0.930 . S
H1077 C1107 0.929 . S
H1078 C1110 0.928 . S
O1079 Co1063 2.057 . S
O1079 C1067 1.232 . S
H1080 C1099 0.929 . S
H1081 C1100 0.929 . S
H1082 C1112 0.931 . S
H1083 C1104 0.929 . S
H1084 C1113 0.930 . S
H1085 C1105 0.931 . S
O1086 Co1062 2.097 . S
O1086 C1114 1.214 . S
H1087 C1115 0.929 . S
H1088 C1116 0.929 . S
H1089 C1117 0.930 . S
H1090 C1118 0.929 . S
H1091 C1120 0.930 . S
H1092 C1097 0.930 . S
H1093 C1101 0.930 . S
O1094 Co1063 2.037 . S
O1094 C1114 1.234 . S
C1095 O1069 1.269 . S
C1095 O1070 1.257 . S
C1096 H1071 0.930 . S
C1096 C1099 1.388 . S
C1096 C1101 1.418 . S
C1097 H1092 0.930 . S
C1097 C1100 1.404 . S
C1097 C1101 1.353 . S
N1098 Co1063 2.145 . S
N1098 C1099 1.397 . S
N1098 C1100 1.334 . S
C1099 H1080 0.929 . S
C1099 C1096 1.388 . S
C1099 N1098 1.397 . S
C1100 H1081 0.929 . S
C1100 C1097 1.404 . S
C1100 N1098 1.334 . S
C1101 H1093 0.930 . S
C1101 C1096 1.418 . S
C1101 C1097 1.353 . S
C1102 H1072 0.930 . S
C1102 N1103 1.330 . S
C1102 C1104 1.446 . S
N1103 Co1062 2.151 . S
N1103 C1102 1.330 . S
N1103 C1107 1.418 . S
C1104 H1083 0.929 . S
C1104 C1102 1.446 . S
C1104 C1105 1.332 . S
C1105 H1085 0.931 . S
C1105 C1104 1.332 . S
C1105 C1106 1.267 . S
C1106 H1074 0.929 . S
C1106 C1105 1.267 . S
C1106 C1107 1.251 . S
C1107 H1077 0.929 . S
C1107 N1103 1.418 . S
C1107 C1106 1.251 . S
C1108 H1075 0.930 . S
C1108 C1110 1.406 . S
C1108 C1113 1.261 . S
C1109 H1076 0.930 . S
C1109 N1111 1.325 . S
C1109 C1112 1.357 . S
C1110 H1078 0.928 . S
C1110 C1108 1.406 . S
C1110 N1111 1.261 . S
N1111 Co1062 2.214 . S
N1111 C1109 1.325 . S
N1111 C1110 1.261 . S
C1112 H1082 0.931 . S
C1112 C1109 1.357 . S
C1112 C1113 1.312 . S
C1113 H1084 0.930 . S
C1113 C1108 1.261 . S
C1113 C1112 1.312 . S
C1114 O1086 1.214 . S
C1114 O1094 1.234 . S
C1115 H1087 0.929 . S
C1115 C1118 1.391 . S
C1115 C1120 1.391 . S
C1116 H1088 0.929 . S
C1116 C1117 1.390 . S
C1116 N1119 1.391 . S
C1117 H1089 0.930 . S
C1117 C1116 1.390 . S
C1117 C1118 1.392 . S
C1118 H1090 0.929 . S
C1118 C1115 1.391 . S
C1118 C1117 1.392 . S
N1119 Co1063 2.257 . S
N1119 C1116 1.391 . S
N1119 C1120 1.388 . S
C1120 H1091 0.930 . S
C1120 C1115 1.391 . S
C1120 N1119 1.388 . S
Co1121 O1123 2.143 . S
Co1121 O1129 2.074 . S
Co1121 O1132 2.093 . S
Co1121 O1145 2.097 . S
Co1121 N1162 2.151 . S
Co1121 N1170 2.214 . S
Co1122 O1123 2.160 . S
Co1122 O1128 2.058 . S
Co1122 O1138 2.057 . S
Co1122 O1153 2.037 . S
Co1122 N1157 2.145 . S
Co1122 N1178 2.257 . S
O1123 Co1121 2.143 . S
O1123 Co1122 2.160 . S
C1124 O1125 1.278 . S
C1124 O1132 1.224 . S
O1125 C1124 1.278 . S
C1126 O1127 1.245 . S
C1126 O1138 1.232 . S
O1127 C1126 1.245 . S
O1128 Co1122 2.058 . S
O1128 C1154 1.269 . S
O1129 Co1121 2.074 . S
O1129 C1154 1.257 . S
H1130 C1155 0.930 . S
H1131 C1161 0.930 . S
O1132 Co1121 2.093 . S
O1132 C1124 1.224 . S
H1133 C1165 0.929 . S
H1134 C1167 0.930 . S
H1135 C1168 0.930 . S
H1136 C1166 0.929 . S
H1137 C1169 0.928 . S
O1138 Co1122 2.057 . S
O1138 C1126 1.232 . S
H1139 C1158 0.929 . S
H1140 C1159 0.929 . S
H1141 C1171 0.931 . S
H1142 C1163 0.929 . S
H1143 C1172 0.930 . S
H1144 C1164 0.931 . S
O1145 Co1121 2.097 . S
O1145 C1173 1.214 . S
H1146 C1174 0.929 . S
H1147 C1175 0.929 . S
H1148 C1176 0.930 . S
H1149 C1177 0.929 . S
H1150 C1179 0.930 . S
H1151 C1156 0.930 . S
H1152 C1160 0.930 . S
O1153 Co1122 2.037 . S
O1153 C1173 1.234 . S
C1154 O1128 1.269 . S
C1154 O1129 1.257 . S
C1155 H1130 0.930 . S
C1155 C1158 1.388 . S
C1155 C1160 1.418 . S
C1156 H1151 0.930 . S
C1156 C1159 1.404 . S
C1156 C1160 1.353 . S
N1157 Co1122 2.145 . S
N1157 C1158 1.397 . S
N1157 C1159 1.334 . S
C1158 H1139 0.929 . S
C1158 C1155 1.388 . S
C1158 N1157 1.397 . S
C1159 H1140 0.929 . S
C1159 C1156 1.404 . S
C1159 N1157 1.334 . S
C1160 H1152 0.930 . S
C1160 C1155 1.418 . S
C1160 C1156 1.353 . S
C1161 H1131 0.930 . S
C1161 N1162 1.330 . S
C1161 C1163 1.446 . S
N1162 Co1121 2.151 . S
N1162 C1161 1.330 . S
N1162 C1166 1.418 . S
C1163 H1142 0.929 . S
C1163 C1161 1.446 . S
C1163 C1164 1.332 . S
C1164 H1144 0.931 . S
C1164 C1163 1.332 . S
C1164 C1165 1.267 . S
C1165 H1133 0.929 . S
C1165 C1164 1.267 . S
C1165 C1166 1.251 . S
C1166 H1136 0.929 . S
C1166 N1162 1.418 . S
C1166 C1165 1.251 . S
C1167 H1134 0.930 . S
C1167 C1169 1.406 . S
C1167 C1172 1.261 . S
C1168 H1135 0.930 . S
C1168 N1170 1.325 . S
C1168 C1171 1.357 . S
C1169 H1137 0.928 . S
C1169 C1167 1.406 . S
C1169 N1170 1.261 . S
N1170 Co1121 2.214 . S
N1170 C1168 1.325 . S
N1170 C1169 1.261 . S
C1171 H1141 0.931 . S
C1171 C1168 1.357 . S
C1171 C1172 1.312 . S
C1172 H1143 0.930 . S
C1172 C1167 1.261 . S
C1172 C1171 1.312 . S
C1173 O1145 1.214 . S
C1173 O1153 1.234 . S
C1174 H1146 0.929 . S
C1174 C1177 1.391 . S
C1174 C1179 1.391 . S
C1175 H1147 0.929 . S
C1175 C1176 1.390 . S
C1175 N1178 1.391 . S
C1176 H1148 0.930 . S
C1176 C1175 1.390 . S
C1176 C1177 1.392 . S
C1177 H1149 0.929 . S
C1177 C1174 1.391 . S
C1177 C1176 1.392 . S
N1178 Co1122 2.257 . S
N1178 C1175 1.391 . S
N1178 C1179 1.388 . S
C1179 H1150 0.930 . S
C1179 C1174 1.391 . S
C1179 N1178 1.388 . S
Co1180 O1182 2.143 . S
Co1180 O1188 2.074 . S
Co1180 O1191 2.093 . S
Co1180 O1204 2.097 . S
Co1180 N1221 2.151 . S
Co1180 N1229 2.214 . S
Co1181 O1182 2.160 . S
Co1181 O1187 2.058 . S
Co1181 O1197 2.057 . S
Co1181 O1212 2.037 . S
Co1181 N1216 2.145 . S
Co1181 N1237 2.257 . S
O1182 Co1180 2.143 . S
O1182 Co1181 2.160 . S
C1183 O1184 1.278 . S
C1183 O1191 1.224 . S
O1184 C1183 1.278 . S
C1185 O1186 1.245 . S
C1185 O1197 1.232 . S
O1186 C1185 1.245 . S
O1187 Co1181 2.058 . S
O1187 C1213 1.269 . S
O1188 Co1180 2.074 . S
O1188 C1213 1.257 . S
H1189 C1214 0.930 . S
H1190 C1220 0.930 . S
O1191 Co1180 2.093 . S
O1191 C1183 1.224 . S
H1192 C1224 0.929 . S
H1193 C1226 0.930 . S
H1194 C1227 0.930 . S
H1195 C1225 0.929 . S
H1196 C1228 0.928 . S
O1197 Co1181 2.057 . S
O1197 C1185 1.232 . S
H1198 C1217 0.929 . S
H1199 C1218 0.929 . S
H1200 C1230 0.931 . S
H1201 C1222 0.929 . S
H1202 C1231 0.930 . S
H1203 C1223 0.931 . S
O1204 Co1180 2.097 . S
O1204 C1232 1.214 . S
H1205 C1233 0.929 . S
H1206 C1234 0.929 . S
H1207 C1235 0.930 . S
H1208 C1236 0.929 . S
H1209 C1238 0.930 . S
H1210 C1215 0.930 . S
H1211 C1219 0.930 . S
O1212 Co1181 2.037 . S
O1212 C1232 1.234 . S
C1213 O1187 1.269 . S
C1213 O1188 1.257 . S
C1214 H1189 0.930 . S
C1214 C1217 1.388 . S
C1214 C1219 1.418 . S
C1215 H1210 0.930 . S
C1215 C1218 1.404 . S
C1215 C1219 1.353 . S
N1216 Co1181 2.145 . S
N1216 C1217 1.397 . S
N1216 C1218 1.334 . S
C1217 H1198 0.929 . S
C1217 C1214 1.388 . S
C1217 N1216 1.397 . S
C1218 H1199 0.929 . S
C1218 C1215 1.404 . S
C1218 N1216 1.334 . S
C1219 H1211 0.930 . S
C1219 C1214 1.418 . S
C1219 C1215 1.353 . S
C1220 H1190 0.930 . S
C1220 N1221 1.330 . S
C1220 C1222 1.446 . S
N1221 Co1180 2.151 . S
N1221 C1220 1.330 . S
N1221 C1225 1.418 . S
C1222 H1201 0.929 . S
C1222 C1220 1.446 . S
C1222 C1223 1.332 . S
C1223 H1203 0.931 . S
C1223 C1222 1.332 . S
C1223 C1224 1.267 . S
C1224 H1192 0.929 . S
C1224 C1223 1.267 . S
C1224 C1225 1.251 . S
C1225 H1195 0.929 . S
C1225 N1221 1.418 . S
C1225 C1224 1.251 . S
C1226 H1193 0.930 . S
C1226 C1228 1.406 . S
C1226 C1231 1.261 . S
C1227 H1194 0.930 . S
C1227 N1229 1.325 . S
C1227 C1230 1.357 . S
C1228 H1196 0.928 . S
C1228 C1226 1.406 . S
C1228 N1229 1.261 . S
N1229 Co1180 2.214 . S
N1229 C1227 1.325 . S
N1229 C1228 1.261 . S
C1230 H1200 0.931 . S
C1230 C1227 1.357 . S
C1230 C1231 1.312 . S
C1231 H1202 0.930 . S
C1231 C1226 1.261 . S
C1231 C1230 1.312 . S
C1232 O1204 1.214 . S
C1232 O1212 1.234 . S
C1233 H1205 0.929 . S
C1233 C1236 1.391 . S
C1233 C1238 1.391 . S
C1234 H1206 0.929 . S
C1234 C1235 1.390 . S
C1234 N1237 1.391 . S
C1235 H1207 0.930 . S
C1235 C1234 1.390 . S
C1235 C1236 1.392 . S
C1236 H1208 0.929 . S
C1236 C1233 1.391 . S
C1236 C1235 1.392 . S
N1237 Co1181 2.257 . S
N1237 C1234 1.391 . S
N1237 C1238 1.388 . S
C1238 H1209 0.930 . S
C1238 C1233 1.391 . S
C1238 N1237 1.388 . S
Co1239 O1241 2.143 . S
Co1239 O1247 2.074 . S
Co1239 O1250 2.093 . S
Co1239 O1263 2.097 . S
Co1239 N1280 2.151 . S
Co1239 N1288 2.214 . S
Co1240 O1241 2.160 . S
Co1240 O1246 2.058 . S
Co1240 O1256 2.057 . S
Co1240 O1271 2.037 . S
Co1240 N1275 2.145 . S
Co1240 N1296 2.257 . S
O1241 Co1239 2.143 . S
O1241 Co1240 2.160 . S
C1242 O1243 1.278 . S
C1242 O1250 1.224 . S
O1243 C1242 1.278 . S
C1244 O1245 1.245 . S
C1244 O1256 1.232 . S
O1245 C1244 1.245 . S
O1246 Co1240 2.058 . S
O1246 C1272 1.269 . S
O1247 Co1239 2.074 . S
O1247 C1272 1.257 . S
H1248 C1273 0.930 . S
H1249 C1279 0.930 . S
O1250 Co1239 2.093 . S
O1250 C1242 1.224 . S
H1251 C1283 0.929 . S
H1252 C1285 0.930 . S
H1253 C1286 0.930 . S
H1254 C1284 0.929 . S
H1255 C1287 0.928 . S
O1256 Co1240 2.057 . S
O1256 C1244 1.232 . S
H1257 C1276 0.929 . S
H1258 C1277 0.929 . S
H1259 C1289 0.931 . S
H1260 C1281 0.929 . S
H1261 C1290 0.930 . S
H1262 C1282 0.931 . S
O1263 Co1239 2.097 . S
O1263 C1291 1.214 . S
H1264 C1292 0.929 . S
H1265 C1293 0.929 . S
H1266 C1294 0.930 . S
H1267 C1295 0.929 . S
H1268 C1297 0.930 . S
H1269 C1274 0.930 . S
H1270 C1278 0.930 . S
O1271 Co1240 2.037 . S
O1271 C1291 1.234 . S
C1272 O1246 1.269 . S
C1272 O1247 1.257 . S
C1273 H1248 0.930 . S
C1273 C1276 1.388 . S
C1273 C1278 1.418 . S
C1274 H1269 0.930 . S
C1274 C1277 1.404 . S
C1274 C1278 1.353 . S
N1275 Co1240 2.145 . S
N1275 C1276 1.397 . S
N1275 C1277 1.334 . S
C1276 H1257 0.929 . S
C1276 C1273 1.388 . S
C1276 N1275 1.397 . S
C1277 H1258 0.929 . S
C1277 C1274 1.404 . S
C1277 N1275 1.334 . S
C1278 H1270 0.930 . S
C1278 C1273 1.418 . S
C1278 C1274 1.353 . S
C1279 H1249 0.930 . S
C1279 N1280 1.330 . S
C1279 C1281 1.446 . S
N1280 Co1239 2.151 . S
N1280 C1279 1.330 . S
N1280 C1284 1.418 . S
C1281 H1260 0.929 . S
C1281 C1279 1.446 . S
C1281 C1282 1.332 . S
C1282 H1262 0.931 . S
C1282 C1281 1.332 . S
C1282 C1283 1.267 . S
C1283 H1251 0.929 . S
C1283 C1282 1.267 . S
C1283 C1284 1.251 . S
C1284 H1254 0.929 . S
C1284 N1280 1.418 . S
C1284 C1283 1.251 . S
C1285 H1252 0.930 . S
C1285 C1287 1.406 . S
C1285 C1290 1.261 . S
C1286 H1253 0.930 . S
C1286 N1288 1.325 . S
C1286 C1289 1.357 . S
C1287 H1255 0.928 . S
C1287 C1285 1.406 . S
C1287 N1288 1.261 . S
N1288 Co1239 2.214 . S
N1288 C1286 1.325 . S
N1288 C1287 1.261 . S
C1289 H1259 0.931 . S
C1289 C1286 1.357 . S
C1289 C1290 1.312 . S
C1290 H1261 0.930 . S
C1290 C1285 1.261 . S
C1290 C1289 1.312 . S
C1291 O1263 1.214 . S
C1291 O1271 1.234 . S
C1292 H1264 0.929 . S
C1292 C1295 1.391 . S
C1292 C1297 1.391 . S
C1293 H1265 0.929 . S
C1293 C1294 1.390 . S
C1293 N1296 1.391 . S
C1294 H1266 0.930 . S
C1294 C1293 1.390 . S
C1294 C1295 1.392 . S
C1295 H1267 0.929 . S
C1295 C1292 1.391 . S
C1295 C1294 1.392 . S
N1296 Co1240 2.257 . S
N1296 C1293 1.391 . S
N1296 C1297 1.388 . S
C1297 H1268 0.930 . S
C1297 C1292 1.391 . S
C1297 N1296 1.388 . S
Co1298 O1300 2.143 . S
Co1298 O1306 2.074 . S
Co1298 O1309 2.093 . S
Co1298 O1322 2.097 . S
Co1298 N1339 2.151 . S
Co1298 N1347 2.214 . S
Co1299 O1300 2.160 . S
Co1299 O1305 2.058 . S
Co1299 O1315 2.057 . S
Co1299 O1330 2.037 . S
Co1299 N1334 2.145 . S
Co1299 N1355 2.257 . S
O1300 Co1298 2.143 . S
O1300 Co1299 2.160 . S
C1301 O1302 1.278 . S
C1301 O1309 1.224 . S
O1302 C1301 1.278 . S
C1303 O1304 1.245 . S
C1303 O1315 1.232 . S
O1304 C1303 1.245 . S
O1305 Co1299 2.058 . S
O1305 C1331 1.269 . S
O1306 Co1298 2.074 . S
O1306 C1331 1.257 . S
H1307 C1332 0.930 . S
H1308 C1338 0.930 . S
O1309 Co1298 2.093 . S
O1309 C1301 1.224 . S
H1310 C1342 0.929 . S
H1311 C1344 0.930 . S
H1312 C1345 0.930 . S
H1313 C1343 0.929 . S
H1314 C1346 0.928 . S
O1315 Co1299 2.057 . S
O1315 C1303 1.232 . S
H1316 C1335 0.929 . S
H1317 C1336 0.929 . S
H1318 C1348 0.931 . S
H1319 C1340 0.929 . S
H1320 C1349 0.930 . S
H1321 C1341 0.931 . S
O1322 Co1298 2.097 . S
O1322 C1350 1.214 . S
H1323 C1351 0.929 . S
H1324 C1352 0.929 . S
H1325 C1353 0.930 . S
H1326 C1354 0.929 . S
H1327 C1356 0.930 . S
H1328 C1333 0.930 . S
H1329 C1337 0.930 . S
O1330 Co1299 2.037 . S
O1330 C1350 1.234 . S
C1331 O1305 1.269 . S
C1331 O1306 1.257 . S
C1332 H1307 0.930 . S
C1332 C1335 1.388 . S
C1332 C1337 1.418 . S
C1333 H1328 0.930 . S
C1333 C1336 1.404 . S
C1333 C1337 1.353 . S
N1334 Co1299 2.145 . S
N1334 C1335 1.397 . S
N1334 C1336 1.334 . S
C1335 H1316 0.929 . S
C1335 C1332 1.388 . S
C1335 N1334 1.397 . S
C1336 H1317 0.929 . S
C1336 C1333 1.404 . S
C1336 N1334 1.334 . S
C1337 H1329 0.930 . S
C1337 C1332 1.418 . S
C1337 C1333 1.353 . S
C1338 H1308 0.930 . S
C1338 N1339 1.330 . S
C1338 C1340 1.446 . S
N1339 Co1298 2.151 . S
N1339 C1338 1.330 . S
N1339 C1343 1.418 . S
C1340 H1319 0.929 . S
C1340 C1338 1.446 . S
C1340 C1341 1.332 . S
C1341 H1321 0.931 . S
C1341 C1340 1.332 . S
C1341 C1342 1.267 . S
C1342 H1310 0.929 . S
C1342 C1341 1.267 . S
C1342 C1343 1.251 . S
C1343 H1313 0.929 . S
C1343 N1339 1.418 . S
C1343 C1342 1.251 . S
C1344 H1311 0.930 . S
C1344 C1346 1.406 . S
C1344 C1349 1.261 . S
C1345 H1312 0.930 . S
C1345 N1347 1.325 . S
C1345 C1348 1.357 . S
C1346 H1314 0.928 . S
C1346 C1344 1.406 . S
C1346 N1347 1.261 . S
N1347 Co1298 2.214 . S
N1347 C1345 1.325 . S
N1347 C1346 1.261 . S
C1348 H1318 0.931 . S
C1348 C1345 1.357 . S
C1348 C1349 1.312 . S
C1349 H1320 0.930 . S
C1349 C1344 1.261 . S
C1349 C1348 1.312 . S
C1350 O1322 1.214 . S
C1350 O1330 1.234 . S
C1351 H1323 0.929 . S
C1351 C1354 1.391 . S
C1351 C1356 1.391 . S
C1352 H1324 0.929 . S
C1352 C1353 1.390 . S
C1352 N1355 1.391 . S
C1353 H1325 0.930 . S
C1353 C1352 1.390 . S
C1353 C1354 1.392 . S
C1354 H1326 0.929 . S
C1354 C1351 1.391 . S
C1354 C1353 1.392 . S
N1355 Co1299 2.257 . S
N1355 C1352 1.391 . S
N1355 C1356 1.388 . S
C1356 H1327 0.930 . S
C1356 C1351 1.391 . S
C1356 N1355 1.388 . S
Co1357 O1359 2.143 . S
Co1357 O1365 2.074 . S
Co1357 O1368 2.093 . S
Co1357 O1381 2.097 . S
Co1357 N1398 2.151 . S
Co1357 N1406 2.214 . S
Co1358 O1359 2.160 . S
Co1358 O1364 2.058 . S
Co1358 O1374 2.057 . S
Co1358 O1389 2.037 . S
Co1358 N1393 2.145 . S
Co1358 N1414 2.257 . S
O1359 Co1357 2.143 . S
O1359 Co1358 2.160 . S
C1360 O1361 1.278 . S
C1360 O1368 1.224 . S
O1361 C1360 1.278 . S
C1362 O1363 1.245 . S
C1362 O1374 1.232 . S
O1363 C1362 1.245 . S
O1364 Co1358 2.058 . S
O1364 C1390 1.269 . S
O1365 Co1357 2.074 . S
O1365 C1390 1.257 . S
H1366 C1391 0.930 . S
H1367 C1397 0.930 . S
O1368 Co1357 2.093 . S
O1368 C1360 1.224 . S
H1369 C1401 0.929 . S
H1370 C1403 0.930 . S
H1371 C1404 0.930 . S
H1372 C1402 0.929 . S
H1373 C1405 0.928 . S
O1374 Co1358 2.057 . S
O1374 C1362 1.232 . S
H1375 C1394 0.929 . S
H1376 C1395 0.929 . S
H1377 C1407 0.931 . S
H1378 C1399 0.929 . S
H1379 C1408 0.930 . S
H1380 C1400 0.931 . S
O1381 Co1357 2.097 . S
O1381 C1409 1.214 . S
H1382 C1410 0.929 . S
H1383 C1411 0.929 . S
H1384 C1412 0.930 . S
H1385 C1413 0.929 . S
H1386 C1415 0.930 . S
H1387 C1392 0.930 . S
H1388 C1396 0.930 . S
O1389 Co1358 2.037 . S
O1389 C1409 1.234 . S
C1390 O1364 1.269 . S
C1390 O1365 1.257 . S
C1391 H1366 0.930 . S
C1391 C1394 1.388 . S
C1391 C1396 1.418 . S
C1392 H1387 0.930 . S
C1392 C1395 1.404 . S
C1392 C1396 1.353 . S
N1393 Co1358 2.145 . S
N1393 C1394 1.397 . S
N1393 C1395 1.334 . S
C1394 H1375 0.929 . S
C1394 C1391 1.388 . S
C1394 N1393 1.397 . S
C1395 H1376 0.929 . S
C1395 C1392 1.404 . S
C1395 N1393 1.334 . S
C1396 H1388 0.930 . S
C1396 C1391 1.418 . S
C1396 C1392 1.353 . S
C1397 H1367 0.930 . S
C1397 N1398 1.330 . S
C1397 C1399 1.446 . S
N1398 Co1357 2.151 . S
N1398 C1397 1.330 . S
N1398 C1402 1.418 . S
C1399 H1378 0.929 . S
C1399 C1397 1.446 . S
C1399 C1400 1.332 . S
C1400 H1380 0.931 . S
C1400 C1399 1.332 . S
C1400 C1401 1.267 . S
C1401 H1369 0.929 . S
C1401 C1400 1.267 . S
C1401 C1402 1.251 . S
C1402 H1372 0.929 . S
C1402 N1398 1.418 . S
C1402 C1401 1.251 . S
C1403 H1370 0.930 . S
C1403 C1405 1.406 . S
C1403 C1408 1.261 . S
C1404 H1371 0.930 . S
C1404 N1406 1.325 . S
C1404 C1407 1.357 . S
C1405 H1373 0.928 . S
C1405 C1403 1.406 . S
C1405 N1406 1.261 . S
N1406 Co1357 2.214 . S
N1406 C1404 1.325 . S
N1406 C1405 1.261 . S
C1407 H1377 0.931 . S
C1407 C1404 1.357 . S
C1407 C1408 1.312 . S
C1408 H1379 0.930 . S
C1408 C1403 1.261 . S
C1408 C1407 1.312 . S
C1409 O1381 1.214 . S
C1409 O1389 1.234 . S
C1410 H1382 0.929 . S
C1410 C1413 1.391 . S
C1410 C1415 1.391 . S
C1411 H1383 0.929 . S
C1411 C1412 1.390 . S
C1411 N1414 1.391 . S
C1412 H1384 0.930 . S
C1412 C1411 1.390 . S
C1412 C1413 1.392 . S
C1413 H1385 0.929 . S
C1413 C1410 1.391 . S
C1413 C1412 1.392 . S
N1414 Co1358 2.257 . S
N1414 C1411 1.391 . S
N1414 C1415 1.388 . S
C1415 H1386 0.930 . S
C1415 C1410 1.391 . S
C1415 N1414 1.388 . S
Co1416 O1418 2.143 . S
Co1416 O1424 2.074 . S
Co1416 O1427 2.093 . S
Co1416 O1440 2.097 . S
Co1416 N1457 2.151 . S
Co1416 N1465 2.214 . S
Co1417 O1418 2.160 . S
Co1417 O1423 2.058 . S
Co1417 O1433 2.057 . S
Co1417 O1448 2.037 . S
Co1417 N1452 2.145 . S
Co1417 N1473 2.257 . S
O1418 Co1416 2.143 . S
O1418 Co1417 2.160 . S
C1419 O1420 1.278 . S
C1419 O1427 1.224 . S
O1420 C1419 1.278 . S
C1421 O1422 1.245 . S
C1421 O1433 1.232 . S
O1422 C1421 1.245 . S
O1423 Co1417 2.058 . S
O1423 C1449 1.269 . S
O1424 Co1416 2.074 . S
O1424 C1449 1.257 . S
H1425 C1450 0.930 . S
H1426 C1456 0.930 . S
O1427 Co1416 2.093 . S
O1427 C1419 1.224 . S
H1428 C1460 0.929 . S
H1429 C1462 0.930 . S
H1430 C1463 0.930 . S
H1431 C1461 0.929 . S
H1432 C1464 0.928 . S
O1433 Co1417 2.057 . S
O1433 C1421 1.232 . S
H1434 C1453 0.929 . S
H1435 C1454 0.929 . S
H1436 C1466 0.931 . S
H1437 C1458 0.929 . S
H1438 C1467 0.930 . S
H1439 C1459 0.931 . S
O1440 Co1416 2.097 . S
O1440 C1468 1.214 . S
H1441 C1469 0.929 . S
H1442 C1470 0.929 . S
H1443 C1471 0.930 . S
H1444 C1472 0.929 . S
H1445 C1474 0.930 . S
H1446 C1451 0.930 . S
H1447 C1455 0.930 . S
O1448 Co1417 2.037 . S
O1448 C1468 1.234 . S
C1449 O1423 1.269 . S
C1449 O1424 1.257 . S
C1450 H1425 0.930 . S
C1450 C1453 1.388 . S
C1450 C1455 1.418 . S
C1451 H1446 0.930 . S
C1451 C1454 1.404 . S
C1451 C1455 1.353 . S
N1452 Co1417 2.145 . S
N1452 C1453 1.397 . S
N1452 C1454 1.334 . S
C1453 H1434 0.929 . S
C1453 C1450 1.388 . S
C1453 N1452 1.397 . S
C1454 H1435 0.929 . S
C1454 C1451 1.404 . S
C1454 N1452 1.334 . S
C1455 H1447 0.930 . S
C1455 C1450 1.418 . S
C1455 C1451 1.353 . S
C1456 H1426 0.930 . S
C1456 N1457 1.330 . S
C1456 C1458 1.446 . S
N1457 Co1416 2.151 . S
N1457 C1456 1.330 . S
N1457 C1461 1.418 . S
C1458 H1437 0.929 . S
C1458 C1456 1.446 . S
C1458 C1459 1.332 . S
C1459 H1439 0.931 . S
C1459 C1458 1.332 . S
C1459 C1460 1.267 . S
C1460 H1428 0.929 . S
C1460 C1459 1.267 . S
C1460 C1461 1.251 . S
C1461 H1431 0.929 . S
C1461 N1457 1.418 . S
C1461 C1460 1.251 . S
C1462 H1429 0.930 . S
C1462 C1464 1.406 . S
C1462 C1467 1.261 . S
C1463 H1430 0.930 . S
C1463 N1465 1.325 . S
C1463 C1466 1.357 . S
C1464 H1432 0.928 . S
C1464 C1462 1.406 . S
C1464 N1465 1.261 . S
N1465 Co1416 2.214 . S
N1465 C1463 1.325 . S
N1465 C1464 1.261 . S
C1466 H1436 0.931 . S
C1466 C1463 1.357 . S
C1466 C1467 1.312 . S
C1467 H1438 0.930 . S
C1467 C1462 1.261 . S
C1467 C1466 1.312 . S
C1468 O1440 1.214 . S
C1468 O1448 1.234 . S
C1469 H1441 0.929 . S
C1469 C1472 1.391 . S
C1469 C1474 1.391 . S
C1470 H1442 0.929 . S
C1470 C1471 1.390 . S
C1470 N1473 1.391 . S
C1471 H1443 0.930 . S
C1471 C1470 1.390 . S
C1471 C1472 1.392 . S
C1472 H1444 0.929 . S
C1472 C1469 1.391 . S
C1472 C1471 1.392 . S
N1473 Co1417 2.257 . S
N1473 C1470 1.391 . S
N1473 C1474 1.388 . S
C1474 H1445 0.930 . S
C1474 C1469 1.391 . S
C1474 N1473 1.388 . S
Co1475 O1477 2.143 . S
Co1475 O1483 2.074 . S
Co1475 O1486 2.093 . S
Co1475 O1499 2.097 . S
Co1475 N1516 2.151 . S
Co1475 N1524 2.214 . S
Co1476 O1477 2.160 . S
Co1476 O1482 2.058 . S
Co1476 O1492 2.057 . S
Co1476 O1507 2.037 . S
Co1476 N1511 2.145 . S
Co1476 N1532 2.257 . S
O1477 Co1475 2.143 . S
O1477 Co1476 2.160 . S
C1478 O1479 1.278 . S
C1478 O1486 1.224 . S
O1479 C1478 1.278 . S
C1480 O1481 1.245 . S
C1480 O1492 1.232 . S
O1481 C1480 1.245 . S
O1482 Co1476 2.058 . S
O1482 C1508 1.269 . S
O1483 Co1475 2.074 . S
O1483 C1508 1.257 . S
H1484 C1509 0.930 . S
H1485 C1515 0.930 . S
O1486 Co1475 2.093 . S
O1486 C1478 1.224 . S
H1487 C1519 0.929 . S
H1488 C1521 0.930 . S
H1489 C1522 0.930 . S
H1490 C1520 0.929 . S
H1491 C1523 0.928 . S
O1492 Co1476 2.057 . S
O1492 C1480 1.232 . S
H1493 C1512 0.929 . S
H1494 C1513 0.929 . S
H1495 C1525 0.931 . S
H1496 C1517 0.929 . S
H1497 C1526 0.930 . S
H1498 C1518 0.931 . S
O1499 Co1475 2.097 . S
O1499 C1527 1.214 . S
H1500 C1528 0.929 . S
H1501 C1529 0.929 . S
H1502 C1530 0.930 . S
H1503 C1531 0.929 . S
H1504 C1533 0.930 . S
H1505 C1510 0.930 . S
H1506 C1514 0.930 . S
O1507 Co1476 2.037 . S
O1507 C1527 1.234 . S
C1508 O1482 1.269 . S
C1508 O1483 1.257 . S
C1509 H1484 0.930 . S
C1509 C1512 1.388 . S
C1509 C1514 1.418 . S
C1510 H1505 0.930 . S
C1510 C1513 1.404 . S
C1510 C1514 1.353 . S
N1511 Co1476 2.145 . S
N1511 C1512 1.397 . S
N1511 C1513 1.334 . S
C1512 H1493 0.929 . S
C1512 C1509 1.388 . S
C1512 N1511 1.397 . S
C1513 H1494 0.929 . S
C1513 C1510 1.404 . S
C1513 N1511 1.334 . S
C1514 H1506 0.930 . S
C1514 C1509 1.418 . S
C1514 C1510 1.353 . S
C1515 H1485 0.930 . S
C1515 N1516 1.330 . S
C1515 C1517 1.446 . S
N1516 Co1475 2.151 . S
N1516 C1515 1.330 . S
N1516 C1520 1.418 . S
C1517 H1496 0.929 . S
C1517 C1515 1.446 . S
C1517 C1518 1.332 . S
C1518 H1498 0.931 . S
C1518 C1517 1.332 . S
C1518 C1519 1.267 . S
C1519 H1487 0.929 . S
C1519 C1518 1.267 . S
C1519 C1520 1.251 . S
C1520 H1490 0.929 . S
C1520 N1516 1.418 . S
C1520 C1519 1.251 . S
C1521 H1488 0.930 . S
C1521 C1523 1.406 . S
C1521 C1526 1.261 . S
C1522 H1489 0.930 . S
C1522 N1524 1.325 . S
C1522 C1525 1.357 . S
C1523 H1491 0.928 . S
C1523 C1521 1.406 . S
C1523 N1524 1.261 . S
N1524 Co1475 2.214 . S
N1524 C1522 1.325 . S
N1524 C1523 1.261 . S
C1525 H1495 0.931 . S
C1525 C1522 1.357 . S
C1525 C1526 1.312 . S
C1526 H1497 0.930 . S
C1526 C1521 1.261 . S
C1526 C1525 1.312 . S
C1527 O1499 1.214 . S
C1527 O1507 1.234 . S
C1528 H1500 0.929 . S
C1528 C1531 1.391 . S
C1528 C1533 1.391 . S
C1529 H1501 0.929 . S
C1529 C1530 1.390 . S
C1529 N1532 1.391 . S
C1530 H1502 0.930 . S
C1530 C1529 1.390 . S
C1530 C1531 1.392 . S
C1531 H1503 0.929 . S
C1531 C1528 1.391 . S
C1531 C1530 1.392 . S
N1532 Co1476 2.257 . S
N1532 C1529 1.391 . S
N1532 C1533 1.388 . S
C1533 H1504 0.930 . S
C1533 C1528 1.391 . S
C1533 N1532 1.388 . S
Co1534 O1536 2.143 . S
Co1534 O1542 2.074 . S
Co1534 O1545 2.093 . S
Co1534 O1558 2.097 . S
Co1534 N1575 2.151 . S
Co1534 N1583 2.214 . S
Co1535 O1536 2.160 . S
Co1535 O1541 2.058 . S
Co1535 O1551 2.057 . S
Co1535 O1566 2.037 . S
Co1535 N1570 2.145 . S
Co1535 N1591 2.257 . S
O1536 Co1534 2.143 . S
O1536 Co1535 2.160 . S
C1537 O1538 1.278 . S
C1537 O1545 1.224 . S
O1538 C1537 1.278 . S
C1539 O1540 1.245 . S
C1539 O1551 1.232 . S
O1540 C1539 1.245 . S
O1541 Co1535 2.058 . S
O1541 C1567 1.269 . S
O1542 Co1534 2.074 . S
O1542 C1567 1.257 . S
H1543 C1568 0.930 . S
H1544 C1574 0.930 . S
O1545 Co1534 2.093 . S
O1545 C1537 1.224 . S
H1546 C1578 0.929 . S
H1547 C1580 0.930 . S
H1548 C1581 0.930 . S
H1549 C1579 0.929 . S
H1550 C1582 0.928 . S
O1551 Co1535 2.057 . S
O1551 C1539 1.232 . S
H1552 C1571 0.929 . S
H1553 C1572 0.929 . S
H1554 C1584 0.931 . S
H1555 C1576 0.929 . S
H1556 C1585 0.930 . S
H1557 C1577 0.931 . S
O1558 Co1534 2.097 . S
O1558 C1586 1.214 . S
H1559 C1587 0.929 . S
H1560 C1588 0.929 . S
H1561 C1589 0.930 . S
H1562 C1590 0.929 . S
H1563 C1592 0.930 . S
H1564 C1569 0.930 . S
H1565 C1573 0.930 . S
O1566 Co1535 2.037 . S
O1566 C1586 1.234 . S
C1567 O1541 1.269 . S
C1567 O1542 1.257 . S
C1568 H1543 0.930 . S
C1568 C1571 1.388 . S
C1568 C1573 1.418 . S
C1569 H1564 0.930 . S
C1569 C1572 1.404 . S
C1569 C1573 1.353 . S
N1570 Co1535 2.145 . S
N1570 C1571 1.397 . S
N1570 C1572 1.334 . S
C1571 H1552 0.929 . S
C1571 C1568 1.388 . S
C1571 N1570 1.397 . S
C1572 H1553 0.929 . S
C1572 C1569 1.404 . S
C1572 N1570 1.334 . S
C1573 H1565 0.930 . S
C1573 C1568 1.418 . S
C1573 C1569 1.353 . S
C1574 H1544 0.930 . S
C1574 N1575 1.330 . S
C1574 C1576 1.446 . S
N1575 Co1534 2.151 . S
N1575 C1574 1.330 . S
N1575 C1579 1.418 . S
C1576 H1555 0.929 . S
C1576 C1574 1.446 . S
C1576 C1577 1.332 . S
C1577 H1557 0.931 . S
C1577 C1576 1.332 . S
C1577 C1578 1.267 . S
C1578 H1546 0.929 . S
C1578 C1577 1.267 . S
C1578 C1579 1.251 . S
C1579 H1549 0.929 . S
C1579 N1575 1.418 . S
C1579 C1578 1.251 . S
C1580 H1547 0.930 . S
C1580 C1582 1.406 . S
C1580 C1585 1.261 . S
C1581 H1548 0.930 . S
C1581 N1583 1.325 . S
C1581 C1584 1.357 . S
C1582 H1550 0.928 . S
C1582 C1580 1.406 . S
C1582 N1583 1.261 . S
N1583 Co1534 2.214 . S
N1583 C1581 1.325 . S
N1583 C1582 1.261 . S
C1584 H1554 0.931 . S
C1584 C1581 1.357 . S
C1584 C1585 1.312 . S
C1585 H1556 0.930 . S
C1585 C1580 1.261 . S
C1585 C1584 1.312 . S
C1586 O1558 1.214 . S
C1586 O1566 1.234 . S
C1587 H1559 0.929 . S
C1587 C1590 1.391 . S
C1587 C1592 1.391 . S
C1588 H1560 0.929 . S
C1588 C1589 1.390 . S
C1588 N1591 1.391 . S
C1589 H1561 0.930 . S
C1589 C1588 1.390 . S
C1589 C1590 1.392 . S
C1590 H1562 0.929 . S
C1590 C1587 1.391 . S
C1590 C1589 1.392 . S
N1591 Co1535 2.257 . S
N1591 C1588 1.391 . S
N1591 C1592 1.388 . S
C1592 H1563 0.930 . S
C1592 C1587 1.391 . S
C1592 N1591 1.388 . S
Co1593 O1595 2.143 . S
Co1593 O1601 2.074 . S
Co1593 O1604 2.093 . S
Co1593 O1617 2.097 . S
Co1593 N1634 2.151 . S
Co1593 N1642 2.214 . S
Co1594 O1595 2.160 . S
Co1594 O1600 2.058 . S
Co1594 O1610 2.057 . S
Co1594 O1625 2.037 . S
Co1594 N1629 2.145 . S
Co1594 N1650 2.257 . S
O1595 Co1593 2.143 . S
O1595 Co1594 2.160 . S
C1596 O1597 1.278 . S
C1596 O1604 1.224 . S
O1597 C1596 1.278 . S
C1598 O1599 1.245 . S
C1598 O1610 1.232 . S
O1599 C1598 1.245 . S
O1600 Co1594 2.058 . S
O1600 C1626 1.269 . S
O1601 Co1593 2.074 . S
O1601 C1626 1.257 . S
H1602 C1627 0.930 . S
H1603 C1633 0.930 . S
O1604 Co1593 2.093 . S
O1604 C1596 1.224 . S
H1605 C1637 0.929 . S
H1606 C1639 0.930 . S
H1607 C1640 0.930 . S
H1608 C1638 0.929 . S
H1609 C1641 0.928 . S
O1610 Co1594 2.057 . S
O1610 C1598 1.232 . S
H1611 C1630 0.929 . S
H1612 C1631 0.929 . S
H1613 C1643 0.931 . S
H1614 C1635 0.929 . S
H1615 C1644 0.930 . S
H1616 C1636 0.931 . S
O1617 Co1593 2.097 . S
O1617 C1645 1.214 . S
H1618 C1646 0.929 . S
H1619 C1647 0.929 . S
H1620 C1648 0.930 . S
H1621 C1649 0.929 . S
H1622 C1651 0.930 . S
H1623 C1628 0.930 . S
H1624 C1632 0.930 . S
O1625 Co1594 2.037 . S
O1625 C1645 1.234 . S
C1626 O1600 1.269 . S
C1626 O1601 1.257 . S
C1627 H1602 0.930 . S
C1627 C1630 1.388 . S
C1627 C1632 1.418 . S
C1628 H1623 0.930 . S
C1628 C1631 1.404 . S
C1628 C1632 1.353 . S
N1629 Co1594 2.145 . S
N1629 C1630 1.397 . S
N1629 C1631 1.334 . S
C1630 H1611 0.929 . S
C1630 C1627 1.388 . S
C1630 N1629 1.397 . S
C1631 H1612 0.929 . S
C1631 C1628 1.404 . S
C1631 N1629 1.334 . S
C1632 H1624 0.930 . S
C1632 C1627 1.418 . S
C1632 C1628 1.353 . S
C1633 H1603 0.930 . S
C1633 N1634 1.330 . S
C1633 C1635 1.446 . S
N1634 Co1593 2.151 . S
N1634 C1633 1.330 . S
N1634 C1638 1.418 . S
C1635 H1614 0.929 . S
C1635 C1633 1.446 . S
C1635 C1636 1.332 . S
C1636 H1616 0.931 . S
C1636 C1635 1.332 . S
C1636 C1637 1.267 . S
C1637 H1605 0.929 . S
C1637 C1636 1.267 . S
C1637 C1638 1.251 . S
C1638 H1608 0.929 . S
C1638 N1634 1.418 . S
C1638 C1637 1.251 . S
C1639 H1606 0.930 . S
C1639 C1641 1.406 . S
C1639 C1644 1.261 . S
C1640 H1607 0.930 . S
C1640 N1642 1.325 . S
C1640 C1643 1.357 . S
C1641 H1609 0.928 . S
C1641 C1639 1.406 . S
C1641 N1642 1.261 . S
N1642 Co1593 2.214 . S
N1642 C1640 1.325 . S
N1642 C1641 1.261 . S
C1643 H1613 0.931 . S
C1643 C1640 1.357 . S
C1643 C1644 1.312 . S
C1644 H1615 0.930 . S
C1644 C1639 1.261 . S
C1644 C1643 1.312 . S
C1645 O1617 1.214 . S
C1645 O1625 1.234 . S
C1646 H1618 0.929 . S
C1646 C1649 1.391 . S
C1646 C1651 1.391 . S
C1647 H1619 0.929 . S
C1647 C1648 1.390 . S
C1647 N1650 1.391 . S
C1648 H1620 0.930 . S
C1648 C1647 1.390 . S
C1648 C1649 1.392 . S
C1649 H1621 0.929 . S
C1649 C1646 1.391 . S
C1649 C1648 1.392 . S
N1650 Co1594 2.257 . S
N1650 C1647 1.391 . S
N1650 C1651 1.388 . S
C1651 H1622 0.930 . S
C1651 C1646 1.391 . S
C1651 N1650 1.388 . S
Co1652 O1654 2.143 . S
Co1652 O1660 2.074 . S
Co1652 O1663 2.093 . S
Co1652 O1676 2.097 . S
Co1652 N1693 2.151 . S
Co1652 N1701 2.214 . S
Co1653 O1654 2.160 . S
Co1653 O1659 2.058 . S
Co1653 O1669 2.057 . S
Co1653 O1684 2.037 . S
Co1653 N1688 2.145 . S
Co1653 N1709 2.257 . S
O1654 Co1652 2.143 . S
O1654 Co1653 2.160 . S
C1655 O1656 1.278 . S
C1655 O1663 1.224 . S
O1656 C1655 1.278 . S
C1657 O1658 1.245 . S
C1657 O1669 1.232 . S
O1658 C1657 1.245 . S
O1659 Co1653 2.058 . S
O1659 C1685 1.269 . S
O1660 Co1652 2.074 . S
O1660 C1685 1.257 . S
H1661 C1686 0.930 . S
H1662 C1692 0.930 . S
O1663 Co1652 2.093 . S
O1663 C1655 1.224 . S
H1664 C1696 0.929 . S
H1665 C1698 0.930 . S
H1666 C1699 0.930 . S
H1667 C1697 0.929 . S
H1668 C1700 0.928 . S
O1669 Co1653 2.057 . S
O1669 C1657 1.232 . S
H1670 C1689 0.929 . S
H1671 C1690 0.929 . S
H1672 C1702 0.931 . S
H1673 C1694 0.929 . S
H1674 C1703 0.930 . S
H1675 C1695 0.931 . S
O1676 Co1652 2.097 . S
O1676 C1704 1.214 . S
H1677 C1705 0.929 . S
H1678 C1706 0.929 . S
H1679 C1707 0.930 . S
H1680 C1708 0.929 . S
H1681 C1710 0.930 . S
H1682 C1687 0.930 . S
H1683 C1691 0.930 . S
O1684 Co1653 2.037 . S
O1684 C1704 1.234 . S
C1685 O1659 1.269 . S
C1685 O1660 1.257 . S
C1686 H1661 0.930 . S
C1686 C1689 1.388 . S
C1686 C1691 1.418 . S
C1687 H1682 0.930 . S
C1687 C1690 1.404 . S
C1687 C1691 1.353 . S
N1688 Co1653 2.145 . S
N1688 C1689 1.397 . S
N1688 C1690 1.334 . S
C1689 H1670 0.929 . S
C1689 C1686 1.388 . S
C1689 N1688 1.397 . S
C1690 H1671 0.929 . S
C1690 C1687 1.404 . S
C1690 N1688 1.334 . S
C1691 H1683 0.930 . S
C1691 C1686 1.418 . S
C1691 C1687 1.353 . S
C1692 H1662 0.930 . S
C1692 N1693 1.330 . S
C1692 C1694 1.446 . S
N1693 Co1652 2.151 . S
N1693 C1692 1.330 . S
N1693 C1697 1.418 . S
C1694 H1673 0.929 . S
C1694 C1692 1.446 . S
C1694 C1695 1.332 . S
C1695 H1675 0.931 . S
C1695 C1694 1.332 . S
C1695 C1696 1.267 . S
C1696 H1664 0.929 . S
C1696 C1695 1.267 . S
C1696 C1697 1.251 . S
C1697 H1667 0.929 . S
C1697 N1693 1.418 . S
C1697 C1696 1.251 . S
C1698 H1665 0.930 . S
C1698 C1700 1.406 . S
C1698 C1703 1.261 . S
C1699 H1666 0.930 . S
C1699 N1701 1.325 . S
C1699 C1702 1.357 . S
C1700 H1668 0.928 . S
C1700 C1698 1.406 . S
C1700 N1701 1.261 . S
N1701 Co1652 2.214 . S
N1701 C1699 1.325 . S
N1701 C1700 1.261 . S
C1702 H1672 0.931 . S
C1702 C1699 1.357 . S
C1702 C1703 1.312 . S
C1703 H1674 0.930 . S
C1703 C1698 1.261 . S
C1703 C1702 1.312 . S
C1704 O1676 1.214 . S
C1704 O1684 1.234 . S
C1705 H1677 0.929 . S
C1705 C1708 1.391 . S
C1705 C1710 1.391 . S
C1706 H1678 0.929 . S
C1706 C1707 1.390 . S
C1706 N1709 1.391 . S
C1707 H1679 0.930 . S
C1707 C1706 1.390 . S
C1707 C1708 1.392 . S
C1708 H1680 0.929 . S
C1708 C1705 1.391 . S
C1708 C1707 1.392 . S
N1709 Co1653 2.257 . S
N1709 C1706 1.391 . S
N1709 C1710 1.388 . S
C1710 H1681 0.930 . S
C1710 C1705 1.391 . S
C1710 N1709 1.388 . S
Co1711 O1713 2.143 . S
Co1711 O1719 2.074 . S
Co1711 O1722 2.093 . S
Co1711 O1735 2.097 . S
Co1711 N1752 2.151 . S
Co1711 N1760 2.214 . S
Co1712 O1713 2.160 . S
Co1712 O1718 2.058 . S
Co1712 O1728 2.057 . S
Co1712 O1743 2.037 . S
Co1712 N1747 2.145 . S
Co1712 N1768 2.257 . S
O1713 Co1711 2.143 . S
O1713 Co1712 2.160 . S
C1714 O1715 1.278 . S
C1714 O1722 1.224 . S
O1715 C1714 1.278 . S
C1716 O1717 1.245 . S
C1716 O1728 1.232 . S
O1717 C1716 1.245 . S
O1718 Co1712 2.058 . S
O1718 C1744 1.269 . S
O1719 Co1711 2.074 . S
O1719 C1744 1.257 . S
H1720 C1745 0.930 . S
H1721 C1751 0.930 . S
O1722 Co1711 2.093 . S
O1722 C1714 1.224 . S
H1723 C1755 0.929 . S
H1724 C1757 0.930 . S
H1725 C1758 0.930 . S
H1726 C1756 0.929 . S
H1727 C1759 0.928 . S
O1728 Co1712 2.057 . S
O1728 C1716 1.232 . S
H1729 C1748 0.929 . S
H1730 C1749 0.929 . S
H1731 C1761 0.931 . S
H1732 C1753 0.929 . S
H1733 C1762 0.930 . S
H1734 C1754 0.931 . S
O1735 Co1711 2.097 . S
O1735 C1763 1.214 . S
H1736 C1764 0.929 . S
H1737 C1765 0.929 . S
H1738 C1766 0.930 . S
H1739 C1767 0.929 . S
H1740 C1769 0.930 . S
H1741 C1746 0.930 . S
H1742 C1750 0.930 . S
O1743 Co1712 2.037 . S
O1743 C1763 1.234 . S
C1744 O1718 1.269 . S
C1744 O1719 1.257 . S
C1745 H1720 0.930 . S
C1745 C1748 1.388 . S
C1745 C1750 1.418 . S
C1746 H1741 0.930 . S
C1746 C1749 1.404 . S
C1746 C1750 1.353 . S
N1747 Co1712 2.145 . S
N1747 C1748 1.397 . S
N1747 C1749 1.334 . S
C1748 H1729 0.929 . S
C1748 C1745 1.388 . S
C1748 N1747 1.397 . S
C1749 H1730 0.929 . S
C1749 C1746 1.404 . S
C1749 N1747 1.334 . S
C1750 H1742 0.930 . S
C1750 C1745 1.418 . S
C1750 C1746 1.353 . S
C1751 H1721 0.930 . S
C1751 N1752 1.330 . S
C1751 C1753 1.446 . S
N1752 Co1711 2.151 . S
N1752 C1751 1.330 . S
N1752 C1756 1.418 . S
C1753 H1732 0.929 . S
C1753 C1751 1.446 . S
C1753 C1754 1.332 . S
C1754 H1734 0.931 . S
C1754 C1753 1.332 . S
C1754 C1755 1.267 . S
C1755 H1723 0.929 . S
C1755 C1754 1.267 . S
C1755 C1756 1.251 . S
C1756 H1726 0.929 . S
C1756 N1752 1.418 . S
C1756 C1755 1.251 . S
C1757 H1724 0.930 . S
C1757 C1759 1.406 . S
C1757 C1762 1.261 . S
C1758 H1725 0.930 . S
C1758 N1760 1.325 . S
C1758 C1761 1.357 . S
C1759 H1727 0.928 . S
C1759 C1757 1.406 . S
C1759 N1760 1.261 . S
N1760 Co1711 2.214 . S
N1760 C1758 1.325 . S
N1760 C1759 1.261 . S
C1761 H1731 0.931 . S
C1761 C1758 1.357 . S
C1761 C1762 1.312 . S
C1762 H1733 0.930 . S
C1762 C1757 1.261 . S
C1762 C1761 1.312 . S
C1763 O1735 1.214 . S
C1763 O1743 1.234 . S
C1764 H1736 0.929 . S
C1764 C1767 1.391 . S
C1764 C1769 1.391 . S
C1765 H1737 0.929 . S
C1765 C1766 1.390 . S
C1765 N1768 1.391 . S
C1766 H1738 0.930 . S
C1766 C1765 1.390 . S
C1766 C1767 1.392 . S
C1767 H1739 0.929 . S
C1767 C1764 1.391 . S
C1767 C1766 1.392 . S
N1768 Co1712 2.257 . S
N1768 C1765 1.391 . S
N1768 C1769 1.388 . S
C1769 H1740 0.930 . S
C1769 C1764 1.391 . S
C1769 N1768 1.388 . S
Co1770 O1772 2.143 . S
Co1770 O1778 2.074 . S
Co1770 O1781 2.093 . S
Co1770 O1794 2.097 . S
Co1770 N1811 2.151 . S
Co1770 N1819 2.214 . S
Co1771 O1772 2.160 . S
Co1771 O1777 2.058 . S
Co1771 O1787 2.057 . S
Co1771 O1802 2.037 . S
Co1771 N1806 2.145 . S
Co1771 N1827 2.257 . S
O1772 Co1770 2.143 . S
O1772 Co1771 2.160 . S
C1773 O1774 1.278 . S
C1773 O1781 1.224 . S
O1774 C1773 1.278 . S
C1775 O1776 1.245 . S
C1775 O1787 1.232 . S
O1776 C1775 1.245 . S
O1777 Co1771 2.058 . S
O1777 C1803 1.269 . S
O1778 Co1770 2.074 . S
O1778 C1803 1.257 . S
H1779 C1804 0.930 . S
H1780 C1810 0.930 . S
O1781 Co1770 2.093 . S
O1781 C1773 1.224 . S
H1782 C1814 0.929 . S
H1783 C1816 0.930 . S
H1784 C1817 0.930 . S
H1785 C1815 0.929 . S
H1786 C1818 0.928 . S
O1787 Co1771 2.057 . S
O1787 C1775 1.232 . S
H1788 C1807 0.929 . S
H1789 C1808 0.929 . S
H1790 C1820 0.931 . S
H1791 C1812 0.929 . S
H1792 C1821 0.930 . S
H1793 C1813 0.931 . S
O1794 Co1770 2.097 . S
O1794 C1822 1.214 . S
H1795 C1823 0.929 . S
H1796 C1824 0.929 . S
H1797 C1825 0.930 . S
H1798 C1826 0.929 . S
H1799 C1828 0.930 . S
H1800 C1805 0.930 . S
H1801 C1809 0.930 . S
O1802 Co1771 2.037 . S
O1802 C1822 1.234 . S
C1803 O1777 1.269 . S
C1803 O1778 1.257 . S
C1804 H1779 0.930 . S
C1804 C1807 1.388 . S
C1804 C1809 1.418 . S
C1805 H1800 0.930 . S
C1805 C1808 1.404 . S
C1805 C1809 1.353 . S
N1806 Co1771 2.145 . S
N1806 C1807 1.397 . S
N1806 C1808 1.334 . S
C1807 H1788 0.929 . S
C1807 C1804 1.388 . S
C1807 N1806 1.397 . S
C1808 H1789 0.929 . S
C1808 C1805 1.404 . S
C1808 N1806 1.334 . S
C1809 H1801 0.930 . S
C1809 C1804 1.418 . S
C1809 C1805 1.353 . S
C1810 H1780 0.930 . S
C1810 N1811 1.330 . S
C1810 C1812 1.446 . S
N1811 Co1770 2.151 . S
N1811 C1810 1.330 . S
N1811 C1815 1.418 . S
C1812 H1791 0.929 . S
C1812 C1810 1.446 . S
C1812 C1813 1.332 . S
C1813 H1793 0.931 . S
C1813 C1812 1.332 . S
C1813 C1814 1.267 . S
C1814 H1782 0.929 . S
C1814 C1813 1.267 . S
C1814 C1815 1.251 . S
C1815 H1785 0.929 . S
C1815 N1811 1.418 . S
C1815 C1814 1.251 . S
C1816 H1783 0.930 . S
C1816 C1818 1.406 . S
C1816 C1821 1.261 . S
C1817 H1784 0.930 . S
C1817 N1819 1.325 . S
C1817 C1820 1.357 . S
C1818 H1786 0.928 . S
C1818 C1816 1.406 . S
C1818 N1819 1.261 . S
N1819 Co1770 2.214 . S
N1819 C1817 1.325 . S
N1819 C1818 1.261 . S
C1820 H1790 0.931 . S
C1820 C1817 1.357 . S
C1820 C1821 1.312 . S
C1821 H1792 0.930 . S
C1821 C1816 1.261 . S
C1821 C1820 1.312 . S
C1822 O1794 1.214 . S
C1822 O1802 1.234 . S
C1823 H1795 0.929 . S
C1823 C1826 1.391 . S
C1823 C1828 1.391 . S
C1824 H1796 0.929 . S
C1824 C1825 1.390 . S
C1824 N1827 1.391 . S
C1825 H1797 0.930 . S
C1825 C1824 1.390 . S
C1825 C1826 1.392 . S
C1826 H1798 0.929 . S
C1826 C1823 1.391 . S
C1826 C1825 1.392 . S
N1827 Co1771 2.257 . S
N1827 C1824 1.391 . S
N1827 C1828 1.388 . S
C1828 H1799 0.930 . S
C1828 C1823 1.391 . S
C1828 N1827 1.388 . S
Co1829 O1831 2.143 . S
Co1829 O1837 2.074 . S
Co1829 O1840 2.093 . S
Co1829 O1853 2.097 . S
Co1829 N1870 2.151 . S
Co1829 N1878 2.214 . S
Co1830 O1831 2.160 . S
Co1830 O1836 2.058 . S
Co1830 O1846 2.057 . S
Co1830 O1861 2.037 . S
Co1830 N1865 2.145 . S
Co1830 N1886 2.257 . S
O1831 Co1829 2.143 . S
O1831 Co1830 2.160 . S
C1832 O1833 1.278 . S
C1832 O1840 1.224 . S
O1833 C1832 1.278 . S
C1834 O1835 1.245 . S
C1834 O1846 1.232 . S
O1835 C1834 1.245 . S
O1836 Co1830 2.058 . S
O1836 C1862 1.269 . S
O1837 Co1829 2.074 . S
O1837 C1862 1.257 . S
H1838 C1863 0.930 . S
H1839 C1869 0.930 . S
O1840 Co1829 2.093 . S
O1840 C1832 1.224 . S
H1841 C1873 0.929 . S
H1842 C1875 0.930 . S
H1843 C1876 0.930 . S
H1844 C1874 0.929 . S
H1845 C1877 0.928 . S
O1846 Co1830 2.057 . S
O1846 C1834 1.232 . S
H1847 C1866 0.929 . S
H1848 C1867 0.929 . S
H1849 C1879 0.931 . S
H1850 C1871 0.929 . S
H1851 C1880 0.930 . S
H1852 C1872 0.931 . S
O1853 Co1829 2.097 . S
O1853 C1881 1.214 . S
H1854 C1882 0.929 . S
H1855 C1883 0.929 . S
H1856 C1884 0.930 . S
H1857 C1885 0.929 . S
H1858 C1887 0.930 . S
H1859 C1864 0.930 . S
H1860 C1868 0.930 . S
O1861 Co1830 2.037 . S
O1861 C1881 1.234 . S
C1862 O1836 1.269 . S
C1862 O1837 1.257 . S
C1863 H1838 0.930 . S
C1863 C1866 1.388 . S
C1863 C1868 1.418 . S
C1864 H1859 0.930 . S
C1864 C1867 1.404 . S
C1864 C1868 1.353 . S
N1865 Co1830 2.145 . S
N1865 C1866 1.397 . S
N1865 C1867 1.334 . S
C1866 H1847 0.929 . S
C1866 C1863 1.388 . S
C1866 N1865 1.397 . S
C1867 H1848 0.929 . S
C1867 C1864 1.404 . S
C1867 N1865 1.334 . S
C1868 H1860 0.930 . S
C1868 C1863 1.418 . S
C1868 C1864 1.353 . S
C1869 H1839 0.930 . S
C1869 N1870 1.330 . S
C1869 C1871 1.446 . S
N1870 Co1829 2.151 . S
N1870 C1869 1.330 . S
N1870 C1874 1.418 . S
C1871 H1850 0.929 . S
C1871 C1869 1.446 . S
C1871 C1872 1.332 . S
C1872 H1852 0.931 . S
C1872 C1871 1.332 . S
C1872 C1873 1.267 . S
C1873 H1841 0.929 . S
C1873 C1872 1.267 . S
C1873 C1874 1.251 . S
C1874 H1844 0.929 . S
C1874 N1870 1.418 . S
C1874 C1873 1.251 . S
C1875 H1842 0.930 . S
C1875 C1877 1.406 . S
C1875 C1880 1.261 . S
C1876 H1843 0.930 . S
C1876 N1878 1.325 . S
C1876 C1879 1.357 . S
C1877 H1845 0.928 . S
C1877 C1875 1.406 . S
C1877 N1878 1.261 . S
N1878 Co1829 2.214 . S
N1878 C1876 1.325 . S
N1878 C1877 1.261 . S
C1879 H1849 0.931 . S
C1879 C1876 1.357 . S
C1879 C1880 1.312 . S
C1880 H1851 0.930 . S
C1880 C1875 1.261 . S
C1880 C1879 1.312 . S
C1881 O1853 1.214 . S
C1881 O1861 1.234 . S
C1882 H1854 0.929 . S
C1882 C1885 1.391 . S
C1882 C1887 1.391 . S
C1883 H1855 0.929 . S
C1883 C1884 1.390 . S
C1883 N1886 1.391 . S
C1884 H1856 0.930 . S
C1884 C1883 1.390 . S
C1884 C1885 1.392 . S
C1885 H1857 0.929 . S
C1885 C1882 1.391 . S
C1885 C1884 1.392 . S
N1886 Co1830 2.257 . S
N1886 C1883 1.391 . S
N1886 C1887 1.388 . S
C1887 H1858 0.930 . S
C1887 C1882 1.391 . S
C1887 N1886 1.388 . S
Co1888 O1890 2.143 . S
Co1888 O1896 2.074 . S
Co1888 O1899 2.093 . S
Co1888 O1912 2.097 . S
Co1888 N1929 2.151 . S
Co1888 N1937 2.214 . S
Co1889 O1890 2.160 . S
Co1889 O1895 2.058 . S
Co1889 O1905 2.057 . S
Co1889 O1920 2.037 . S
Co1889 N1924 2.145 . S
Co1889 N1945 2.257 . S
O1890 Co1888 2.143 . S
O1890 Co1889 2.160 . S
C1891 O1892 1.278 . S
C1891 O1899 1.224 . S
O1892 C1891 1.278 . S
C1893 O1894 1.245 . S
C1893 O1905 1.232 . S
O1894 C1893 1.245 . S
O1895 Co1889 2.058 . S
O1895 C1921 1.269 . S
O1896 Co1888 2.074 . S
O1896 C1921 1.257 . S
H1897 C1922 0.930 . S
H1898 C1928 0.930 . S
O1899 Co1888 2.093 . S
O1899 C1891 1.224 . S
H1900 C1932 0.929 . S
H1901 C1934 0.930 . S
H1902 C1935 0.930 . S
H1903 C1933 0.929 . S
H1904 C1936 0.928 . S
O1905 Co1889 2.057 . S
O1905 C1893 1.232 . S
H1906 C1925 0.929 . S
H1907 C1926 0.929 . S
H1908 C1938 0.931 . S
H1909 C1930 0.929 . S
H1910 C1939 0.930 . S
H1911 C1931 0.931 . S
O1912 Co1888 2.097 . S
O1912 C1940 1.214 . S
H1913 C1941 0.929 . S
H1914 C1942 0.929 . S
H1915 C1943 0.930 . S
H1916 C1944 0.929 . S
H1917 C1946 0.930 . S
H1918 C1923 0.930 . S
H1919 C1927 0.930 . S
O1920 Co1889 2.037 . S
O1920 C1940 1.234 . S
C1921 O1895 1.269 . S
C1921 O1896 1.257 . S
C1922 H1897 0.930 . S
C1922 C1925 1.388 . S
C1922 C1927 1.418 . S
C1923 H1918 0.930 . S
C1923 C1926 1.404 . S
C1923 C1927 1.353 . S
N1924 Co1889 2.145 . S
N1924 C1925 1.397 . S
N1924 C1926 1.334 . S
C1925 H1906 0.929 . S
C1925 C1922 1.388 . S
C1925 N1924 1.397 . S
C1926 H1907 0.929 . S
C1926 C1923 1.404 . S
C1926 N1924 1.334 . S
C1927 H1919 0.930 . S
C1927 C1922 1.418 . S
C1927 C1923 1.353 . S
C1928 H1898 0.930 . S
C1928 N1929 1.330 . S
C1928 C1930 1.446 . S
N1929 Co1888 2.151 . S
N1929 C1928 1.330 . S
N1929 C1933 1.418 . S
C1930 H1909 0.929 . S
C1930 C1928 1.446 . S
C1930 C1931 1.332 . S
C1931 H1911 0.931 . S
C1931 C1930 1.332 . S
C1931 C1932 1.267 . S
C1932 H1900 0.929 . S
C1932 C1931 1.267 . S
C1932 C1933 1.251 . S
C1933 H1903 0.929 . S
C1933 N1929 1.418 . S
C1933 C1932 1.251 . S
C1934 H1901 0.930 . S
C1934 C1936 1.406 . S
C1934 C1939 1.261 . S
C1935 H1902 0.930 . S
C1935 N1937 1.325 . S
C1935 C1938 1.357 . S
C1936 H1904 0.928 . S
C1936 C1934 1.406 . S
C1936 N1937 1.261 . S
N1937 Co1888 2.214 . S
N1937 C1935 1.325 . S
N1937 C1936 1.261 . S
C1938 H1908 0.931 . S
C1938 C1935 1.357 . S
C1938 C1939 1.312 . S
C1939 H1910 0.930 . S
C1939 C1934 1.261 . S
C1939 C1938 1.312 . S
C1940 O1912 1.214 . S
C1940 O1920 1.234 . S
C1941 H1913 0.929 . S
C1941 C1944 1.391 . S
C1941 C1946 1.391 . S
C1942 H1914 0.929 . S
C1942 C1943 1.390 . S
C1942 N1945 1.391 . S
C1943 H1915 0.930 . S
C1943 C1942 1.390 . S
C1943 C1944 1.392 . S
C1944 H1916 0.929 . S
C1944 C1941 1.391 . S
C1944 C1943 1.392 . S
N1945 Co1889 2.257 . S
N1945 C1942 1.391 . S
N1945 C1946 1.388 . S
C1946 H1917 0.930 . S
C1946 C1941 1.391 . S
C1946 N1945 1.388 . S
Co1947 O1949 2.143 . S
Co1947 O1955 2.074 . S
Co1947 O1958 2.093 . S
Co1947 O1971 2.097 . S
Co1947 N1988 2.151 . S
Co1947 N1996 2.214 . S
Co1948 O1949 2.160 . S
Co1948 O1954 2.058 . S
Co1948 O1964 2.057 . S
Co1948 O1979 2.037 . S
Co1948 N1983 2.145 . S
Co1948 N2004 2.257 . S
O1949 Co1947 2.143 . S
O1949 Co1948 2.160 . S
C1950 O1951 1.278 . S
C1950 O1958 1.224 . S
O1951 C1950 1.278 . S
C1952 O1953 1.245 . S
C1952 O1964 1.232 . S
O1953 C1952 1.245 . S
O1954 Co1948 2.058 . S
O1954 C1980 1.269 . S
O1955 Co1947 2.074 . S
O1955 C1980 1.257 . S
H1956 C1981 0.930 . S
H1957 C1987 0.930 . S
O1958 Co1947 2.093 . S
O1958 C1950 1.224 . S
H1959 C1991 0.929 . S
H1960 C1993 0.930 . S
H1961 C1994 0.930 . S
H1962 C1992 0.929 . S
H1963 C1995 0.928 . S
O1964 Co1948 2.057 . S
O1964 C1952 1.232 . S
H1965 C1984 0.929 . S
H1966 C1985 0.929 . S
H1967 C1997 0.931 . S
H1968 C1989 0.929 . S
H1969 C1998 0.930 . S
H1970 C1990 0.931 . S
O1971 Co1947 2.097 . S
O1971 C1999 1.214 . S
H1972 C2000 0.929 . S
H1973 C2001 0.929 . S
H1974 C2002 0.930 . S
H1975 C2003 0.929 . S
H1976 C2005 0.930 . S
H1977 C1982 0.930 . S
H1978 C1986 0.930 . S
O1979 Co1948 2.037 . S
O1979 C1999 1.234 . S
C1980 O1954 1.269 . S
C1980 O1955 1.257 . S
C1981 H1956 0.930 . S
C1981 C1984 1.388 . S
C1981 C1986 1.418 . S
C1982 H1977 0.930 . S
C1982 C1985 1.404 . S
C1982 C1986 1.353 . S
N1983 Co1948 2.145 . S
N1983 C1984 1.397 . S
N1983 C1985 1.334 . S
C1984 H1965 0.929 . S
C1984 C1981 1.388 . S
C1984 N1983 1.397 . S
C1985 H1966 0.929 . S
C1985 C1982 1.404 . S
C1985 N1983 1.334 . S
C1986 H1978 0.930 . S
C1986 C1981 1.418 . S
C1986 C1982 1.353 . S
C1987 H1957 0.930 . S
C1987 N1988 1.330 . S
C1987 C1989 1.446 . S
N1988 Co1947 2.151 . S
N1988 C1987 1.330 . S
N1988 C1992 1.418 . S
C1989 H1968 0.929 . S
C1989 C1987 1.446 . S
C1989 C1990 1.332 . S
C1990 H1970 0.931 . S
C1990 C1989 1.332 . S
C1990 C1991 1.267 . S
C1991 H1959 0.929 . S
C1991 C1990 1.267 . S
C1991 C1992 1.251 . S
C1992 H1962 0.929 . S
C1992 N1988 1.418 . S
C1992 C1991 1.251 . S
C1993 H1960 0.930 . S
C1993 C1995 1.406 . S
C1993 C1998 1.261 . S
C1994 H1961 0.930 . S
C1994 N1996 1.325 . S
C1994 C1997 1.357 . S
C1995 H1963 0.928 . S
C1995 C1993 1.406 . S
C1995 N1996 1.261 . S
N1996 Co1947 2.214 . S
N1996 C1994 1.325 . S
N1996 C1995 1.261 . S
C1997 H1967 0.931 . S
C1997 C1994 1.357 . S
C1997 C1998 1.312 . S
C1998 H1969 0.930 . S
C1998 C1993 1.261 . S
C1998 C1997 1.312 . S
C1999 O1971 1.214 . S
C1999 O1979 1.234 . S
C2000 H1972 0.929 . S
C2000 C2003 1.391 . S
C2000 C2005 1.391 . S
C2001 H1973 0.929 . S
C2001 C2002 1.390 . S
C2001 N2004 1.391 . S
C2002 H1974 0.930 . S
C2002 C2001 1.390 . S
C2002 C2003 1.392 . S
C2003 H1975 0.929 . S
C2003 C2000 1.391 . S
C2003 C2002 1.392 . S
N2004 Co1948 2.257 . S
N2004 C2001 1.391 . S
N2004 C2005 1.388 . S
C2005 H1976 0.930 . S
C2005 C2000 1.391 . S
C2005 N2004 1.388 . S
Co2006 O2008 2.143 . S
Co2006 O2014 2.074 . S
Co2006 O2017 2.093 . S
Co2006 O2030 2.097 . S
Co2006 N2047 2.151 . S
Co2006 N2055 2.214 . S
Co2007 O2008 2.160 . S
Co2007 O2013 2.058 . S
Co2007 O2023 2.057 . S
Co2007 O2038 2.037 . S
Co2007 N2042 2.145 . S
Co2007 N2063 2.257 . S
O2008 Co2006 2.143 . S
O2008 Co2007 2.160 . S
C2009 O2010 1.278 . S
C2009 O2017 1.224 . S
O2010 C2009 1.278 . S
C2011 O2012 1.245 . S
C2011 O2023 1.232 . S
O2012 C2011 1.245 . S
O2013 Co2007 2.058 . S
O2013 C2039 1.269 . S
O2014 Co2006 2.074 . S
O2014 C2039 1.257 . S
H2015 C2040 0.930 . S
H2016 C2046 0.930 . S
O2017 Co2006 2.093 . S
O2017 C2009 1.224 . S
H2018 C2050 0.929 . S
H2019 C2052 0.930 . S
H2020 C2053 0.930 . S
H2021 C2051 0.929 . S
H2022 C2054 0.928 . S
O2023 Co2007 2.057 . S
O2023 C2011 1.232 . S
H2024 C2043 0.929 . S
H2025 C2044 0.929 . S
H2026 C2056 0.931 . S
H2027 C2048 0.929 . S
H2028 C2057 0.930 . S
H2029 C2049 0.931 . S
O2030 Co2006 2.097 . S
O2030 C2058 1.214 . S
H2031 C2059 0.929 . S
H2032 C2060 0.929 . S
H2033 C2061 0.930 . S
H2034 C2062 0.929 . S
H2035 C2064 0.930 . S
H2036 C2041 0.930 . S
H2037 C2045 0.930 . S
O2038 Co2007 2.037 . S
O2038 C2058 1.234 . S
C2039 O2013 1.269 . S
C2039 O2014 1.257 . S
C2040 H2015 0.930 . S
C2040 C2043 1.388 . S
C2040 C2045 1.418 . S
C2041 H2036 0.930 . S
C2041 C2044 1.404 . S
C2041 C2045 1.353 . S
N2042 Co2007 2.145 . S
N2042 C2043 1.397 . S
N2042 C2044 1.334 . S
C2043 H2024 0.929 . S
C2043 C2040 1.388 . S
C2043 N2042 1.397 . S
C2044 H2025 0.929 . S
C2044 C2041 1.404 . S
C2044 N2042 1.334 . S
C2045 H2037 0.930 . S
C2045 C2040 1.418 . S
C2045 C2041 1.353 . S
C2046 H2016 0.930 . S
C2046 N2047 1.330 . S
C2046 C2048 1.446 . S
N2047 Co2006 2.151 . S
N2047 C2046 1.330 . S
N2047 C2051 1.418 . S
C2048 H2027 0.929 . S
C2048 C2046 1.446 . S
C2048 C2049 1.332 . S
C2049 H2029 0.931 . S
C2049 C2048 1.332 . S
C2049 C2050 1.267 . S
C2050 H2018 0.929 . S
C2050 C2049 1.267 . S
C2050 C2051 1.251 . S
C2051 H2021 0.929 . S
C2051 N2047 1.418 . S
C2051 C2050 1.251 . S
C2052 H2019 0.930 . S
C2052 C2054 1.406 . S
C2052 C2057 1.261 . S
C2053 H2020 0.930 . S
C2053 N2055 1.325 . S
C2053 C2056 1.357 . S
C2054 H2022 0.928 . S
C2054 C2052 1.406 . S
C2054 N2055 1.261 . S
N2055 Co2006 2.214 . S
N2055 C2053 1.325 . S
N2055 C2054 1.261 . S
C2056 H2026 0.931 . S
C2056 C2053 1.357 . S
C2056 C2057 1.312 . S
C2057 H2028 0.930 . S
C2057 C2052 1.261 . S
C2057 C2056 1.312 . S
C2058 O2030 1.214 . S
C2058 O2038 1.234 . S
C2059 H2031 0.929 . S
C2059 C2062 1.391 . S
C2059 C2064 1.391 . S
C2060 H2032 0.929 . S
C2060 C2061 1.390 . S
C2060 N2063 1.391 . S
C2061 H2033 0.930 . S
C2061 C2060 1.390 . S
C2061 C2062 1.392 . S
C2062 H2034 0.929 . S
C2062 C2059 1.391 . S
C2062 C2061 1.392 . S
N2063 Co2007 2.257 . S
N2063 C2060 1.391 . S
N2063 C2064 1.388 . S
C2064 H2035 0.930 . S
C2064 C2059 1.391 . S
C2064 N2063 1.388 . S
Co2065 O2067 2.143 . S
Co2065 O2073 2.074 . S
Co2065 O2076 2.093 . S
Co2065 O2089 2.097 . S
Co2065 N2106 2.151 . S
Co2065 N2114 2.214 . S
Co2066 O2067 2.160 . S
Co2066 O2072 2.058 . S
Co2066 O2082 2.057 . S
Co2066 O2097 2.037 . S
Co2066 N2101 2.145 . S
Co2066 N2122 2.257 . S
O2067 Co2065 2.143 . S
O2067 Co2066 2.160 . S
C2068 O2069 1.278 . S
C2068 O2076 1.224 . S
O2069 C2068 1.278 . S
C2070 O2071 1.245 . S
C2070 O2082 1.232 . S
O2071 C2070 1.245 . S
O2072 Co2066 2.058 . S
O2072 C2098 1.269 . S
O2073 Co2065 2.074 . S
O2073 C2098 1.257 . S
H2074 C2099 0.930 . S
H2075 C2105 0.930 . S
O2076 Co2065 2.093 . S
O2076 C2068 1.224 . S
H2077 C2109 0.929 . S
H2078 C2111 0.930 . S
H2079 C2112 0.930 . S
H2080 C2110 0.929 . S
H2081 C2113 0.928 . S
O2082 Co2066 2.057 . S
O2082 C2070 1.232 . S
H2083 C2102 0.929 . S
H2084 C2103 0.929 . S
H2085 C2115 0.931 . S
H2086 C2107 0.929 . S
H2087 C2116 0.930 . S
H2088 C2108 0.931 . S
O2089 Co2065 2.097 . S
O2089 C2117 1.214 . S
H2090 C2118 0.929 . S
H2091 C2119 0.929 . S
H2092 C2120 0.930 . S
H2093 C2121 0.929 . S
H2094 C2123 0.930 . S
H2095 C2100 0.930 . S
H2096 C2104 0.930 . S
O2097 Co2066 2.037 . S
O2097 C2117 1.234 . S
C2098 O2072 1.269 . S
C2098 O2073 1.257 . S
C2099 H2074 0.930 . S
C2099 C2102 1.388 . S
C2099 C2104 1.418 . S
C2100 H2095 0.930 . S
C2100 C2103 1.404 . S
C2100 C2104 1.353 . S
N2101 Co2066 2.145 . S
N2101 C2102 1.397 . S
N2101 C2103 1.334 . S
C2102 H2083 0.929 . S
C2102 C2099 1.388 . S
C2102 N2101 1.397 . S
C2103 H2084 0.929 . S
C2103 C2100 1.404 . S
C2103 N2101 1.334 . S
C2104 H2096 0.930 . S
C2104 C2099 1.418 . S
C2104 C2100 1.353 . S
C2105 H2075 0.930 . S
C2105 N2106 1.330 . S
C2105 C2107 1.446 . S
N2106 Co2065 2.151 . S
N2106 C2105 1.330 . S
N2106 C2110 1.418 . S
C2107 H2086 0.929 . S
C2107 C2105 1.446 . S
C2107 C2108 1.332 . S
C2108 H2088 0.931 . S
C2108 C2107 1.332 . S
C2108 C2109 1.267 . S
C2109 H2077 0.929 . S
C2109 C2108 1.267 . S
C2109 C2110 1.251 . S
C2110 H2080 0.929 . S
C2110 N2106 1.418 . S
C2110 C2109 1.251 . S
C2111 H2078 0.930 . S
C2111 C2113 1.406 . S
C2111 C2116 1.261 . S
C2112 H2079 0.930 . S
C2112 N2114 1.325 . S
C2112 C2115 1.357 . S
C2113 H2081 0.928 . S
C2113 C2111 1.406 . S
C2113 N2114 1.261 . S
N2114 Co2065 2.214 . S
N2114 C2112 1.325 . S
N2114 C2113 1.261 . S
C2115 H2085 0.931 . S
C2115 C2112 1.357 . S
C2115 C2116 1.312 . S
C2116 H2087 0.930 . S
C2116 C2111 1.261 . S
C2116 C2115 1.312 . S
C2117 O2089 1.214 . S
C2117 O2097 1.234 . S
C2118 H2090 0.929 . S
C2118 C2121 1.391 . S
C2118 C2123 1.391 . S
C2119 H2091 0.929 . S
C2119 C2120 1.390 . S
C2119 N2122 1.391 . S
C2120 H2092 0.930 . S
C2120 C2119 1.390 . S
C2120 C2121 1.392 . S
C2121 H2093 0.929 . S
C2121 C2118 1.391 . S
C2121 C2120 1.392 . S
N2122 Co2066 2.257 . S
N2122 C2119 1.391 . S
N2122 C2123 1.388 . S
C2123 H2094 0.930 . S
C2123 C2118 1.391 . S
C2123 N2122 1.388 . S
Co2124 O2126 2.143 . S
Co2124 O2132 2.074 . S
Co2124 O2135 2.093 . S
Co2124 O2148 2.097 . S
Co2124 N2165 2.151 . S
Co2124 N2173 2.214 . S
Co2125 O2126 2.160 . S
Co2125 O2131 2.058 . S
Co2125 O2141 2.057 . S
Co2125 O2156 2.037 . S
Co2125 N2160 2.145 . S
Co2125 N2181 2.257 . S
O2126 Co2124 2.143 . S
O2126 Co2125 2.160 . S
C2127 O2128 1.278 . S
C2127 O2135 1.224 . S
O2128 C2127 1.278 . S
C2129 O2130 1.245 . S
C2129 O2141 1.232 . S
O2130 C2129 1.245 . S
O2131 Co2125 2.058 . S
O2131 C2157 1.269 . S
O2132 Co2124 2.074 . S
O2132 C2157 1.257 . S
H2133 C2158 0.930 . S
H2134 C2164 0.930 . S
O2135 Co2124 2.093 . S
O2135 C2127 1.224 . S
H2136 C2168 0.929 . S
H2137 C2170 0.930 . S
H2138 C2171 0.930 . S
H2139 C2169 0.929 . S
H2140 C2172 0.928 . S
O2141 Co2125 2.057 . S
O2141 C2129 1.232 . S
H2142 C2161 0.929 . S
H2143 C2162 0.929 . S
H2144 C2174 0.931 . S
H2145 C2166 0.929 . S
H2146 C2175 0.930 . S
H2147 C2167 0.931 . S
O2148 Co2124 2.097 . S
O2148 C2176 1.214 . S
H2149 C2177 0.929 . S
H2150 C2178 0.929 . S
H2151 C2179 0.930 . S
H2152 C2180 0.929 . S
H2153 C2182 0.930 . S
H2154 C2159 0.930 . S
H2155 C2163 0.930 . S
O2156 Co2125 2.037 . S
O2156 C2176 1.234 . S
C2157 O2131 1.269 . S
C2157 O2132 1.257 . S
C2158 H2133 0.930 . S
C2158 C2161 1.388 . S
C2158 C2163 1.418 . S
C2159 H2154 0.930 . S
C2159 C2162 1.404 . S
C2159 C2163 1.353 . S
N2160 Co2125 2.145 . S
N2160 C2161 1.397 . S
N2160 C2162 1.334 . S
C2161 H2142 0.929 . S
C2161 C2158 1.388 . S
C2161 N2160 1.397 . S
C2162 H2143 0.929 . S
C2162 C2159 1.404 . S
C2162 N2160 1.334 . S
C2163 H2155 0.930 . S
C2163 C2158 1.418 . S
C2163 C2159 1.353 . S
C2164 H2134 0.930 . S
C2164 N2165 1.330 . S
C2164 C2166 1.446 . S
N2165 Co2124 2.151 . S
N2165 C2164 1.330 . S
N2165 C2169 1.418 . S
C2166 H2145 0.929 . S
C2166 C2164 1.446 . S
C2166 C2167 1.332 . S
C2167 H2147 0.931 . S
C2167 C2166 1.332 . S
C2167 C2168 1.267 . S
C2168 H2136 0.929 . S
C2168 C2167 1.267 . S
C2168 C2169 1.251 . S
C2169 H2139 0.929 . S
C2169 N2165 1.418 . S
C2169 C2168 1.251 . S
C2170 H2137 0.930 . S
C2170 C2172 1.406 . S
C2170 C2175 1.261 . S
C2171 H2138 0.930 . S
C2171 N2173 1.325 . S
C2171 C2174 1.357 . S
C2172 H2140 0.928 . S
C2172 C2170 1.406 . S
C2172 N2173 1.261 . S
N2173 Co2124 2.214 . S
N2173 C2171 1.325 . S
N2173 C2172 1.261 . S
C2174 H2144 0.931 . S
C2174 C2171 1.357 . S
C2174 C2175 1.312 . S
C2175 H2146 0.930 . S
C2175 C2170 1.261 . S
C2175 C2174 1.312 . S
C2176 O2148 1.214 . S
C2176 O2156 1.234 . S
C2177 H2149 0.929 . S
C2177 C2180 1.391 . S
C2177 C2182 1.391 . S
C2178 H2150 0.929 . S
C2178 C2179 1.390 . S
C2178 N2181 1.391 . S
C2179 H2151 0.930 . S
C2179 C2178 1.390 . S
C2179 C2180 1.392 . S
C2180 H2152 0.929 . S
C2180 C2177 1.391 . S
C2180 C2179 1.392 . S
N2181 Co2125 2.257 . S
N2181 C2178 1.391 . S
N2181 C2182 1.388 . S
C2182 H2153 0.930 . S
C2182 C2177 1.391 . S
C2182 N2181 1.388 . S
Co2183 O2185 2.143 . S
Co2183 O2191 2.074 . S
Co2183 O2194 2.093 . S
Co2183 O2207 2.097 . S
Co2183 N2224 2.151 . S
Co2183 N2232 2.214 . S
Co2184 O2185 2.160 . S
Co2184 O2190 2.058 . S
Co2184 O2200 2.057 . S
Co2184 O2215 2.037 . S
Co2184 N2219 2.145 . S
Co2184 N2240 2.257 . S
O2185 Co2183 2.143 . S
O2185 Co2184 2.160 . S
C2186 O2187 1.278 . S
C2186 O2194 1.224 . S
O2187 C2186 1.278 . S
C2188 O2189 1.245 . S
C2188 O2200 1.232 . S
O2189 C2188 1.245 . S
O2190 Co2184 2.058 . S
O2190 C2216 1.269 . S
O2191 Co2183 2.074 . S
O2191 C2216 1.257 . S
H2192 C2217 0.930 . S
H2193 C2223 0.930 . S
O2194 Co2183 2.093 . S
O2194 C2186 1.224 . S
H2195 C2227 0.929 . S
H2196 C2229 0.930 . S
H2197 C2230 0.930 . S
H2198 C2228 0.929 . S
H2199 C2231 0.928 . S
O2200 Co2184 2.057 . S
O2200 C2188 1.232 . S
H2201 C2220 0.929 . S
H2202 C2221 0.929 . S
H2203 C2233 0.931 . S
H2204 C2225 0.929 . S
H2205 C2234 0.930 . S
H2206 C2226 0.931 . S
O2207 Co2183 2.097 . S
O2207 C2235 1.214 . S
H2208 C2236 0.929 . S
H2209 C2237 0.929 . S
H2210 C2238 0.930 . S
H2211 C2239 0.929 . S
H2212 C2241 0.930 . S
H2213 C2218 0.930 . S
H2214 C2222 0.930 . S
O2215 Co2184 2.037 . S
O2215 C2235 1.234 . S
C2216 O2190 1.269 . S
C2216 O2191 1.257 . S
C2217 H2192 0.930 . S
C2217 C2220 1.388 . S
C2217 C2222 1.418 . S
C2218 H2213 0.930 . S
C2218 C2221 1.404 . S
C2218 C2222 1.353 . S
N2219 Co2184 2.145 . S
N2219 C2220 1.397 . S
N2219 C2221 1.334 . S
C2220 H2201 0.929 . S
C2220 C2217 1.388 . S
C2220 N2219 1.397 . S
C2221 H2202 0.929 . S
C2221 C2218 1.404 . S
C2221 N2219 1.334 . S
C2222 H2214 0.930 . S
C2222 C2217 1.418 . S
C2222 C2218 1.353 . S
C2223 H2193 0.930 . S
C2223 N2224 1.330 . S
C2223 C2225 1.446 . S
N2224 Co2183 2.151 . S
N2224 C2223 1.330 . S
N2224 C2228 1.418 . S
C2225 H2204 0.929 . S
C2225 C2223 1.446 . S
C2225 C2226 1.332 . S
C2226 H2206 0.931 . S
C2226 C2225 1.332 . S
C2226 C2227 1.267 . S
C2227 H2195 0.929 . S
C2227 C2226 1.267 . S
C2227 C2228 1.251 . S
C2228 H2198 0.929 . S
C2228 N2224 1.418 . S
C2228 C2227 1.251 . S
C2229 H2196 0.930 . S
C2229 C2231 1.406 . S
C2229 C2234 1.261 . S
C2230 H2197 0.930 . S
C2230 N2232 1.325 . S
C2230 C2233 1.357 . S
C2231 H2199 0.928 . S
C2231 C2229 1.406 . S
C2231 N2232 1.261 . S
N2232 Co2183 2.214 . S
N2232 C2230 1.325 . S
N2232 C2231 1.261 . S
C2233 H2203 0.931 . S
C2233 C2230 1.357 . S
C2233 C2234 1.312 . S
C2234 H2205 0.930 . S
C2234 C2229 1.261 . S
C2234 C2233 1.312 . S
C2235 O2207 1.214 . S
C2235 O2215 1.234 . S
C2236 H2208 0.929 . S
C2236 C2239 1.391 . S
C2236 C2241 1.391 . S
C2237 H2209 0.929 . S
C2237 C2238 1.390 . S
C2237 N2240 1.391 . S
C2238 H2210 0.930 . S
C2238 C2237 1.390 . S
C2238 C2239 1.392 . S
C2239 H2211 0.929 . S
C2239 C2236 1.391 . S
C2239 C2238 1.392 . S
N2240 Co2184 2.257 . S
N2240 C2237 1.391 . S
N2240 C2241 1.388 . S
C2241 H2212 0.930 . S
C2241 C2236 1.391 . S
C2241 N2240 1.388 . S
Co2242 O2244 2.143 . S
Co2242 O2250 2.074 . S
Co2242 O2253 2.093 . S
Co2242 O2266 2.097 . S
Co2242 N2283 2.151 . S
Co2242 N2291 2.214 . S
Co2243 O2244 2.160 . S
Co2243 O2249 2.058 . S
Co2243 O2259 2.057 . S
Co2243 O2274 2.037 . S
Co2243 N2278 2.145 . S
Co2243 N2299 2.257 . S
O2244 Co2242 2.143 . S
O2244 Co2243 2.160 . S
C2245 O2246 1.278 . S
C2245 O2253 1.224 . S
O2246 C2245 1.278 . S
C2247 O2248 1.245 . S
C2247 O2259 1.232 . S
O2248 C2247 1.245 . S
O2249 Co2243 2.058 . S
O2249 C2275 1.269 . S
O2250 Co2242 2.074 . S
O2250 C2275 1.257 . S
H2251 C2276 0.930 . S
H2252 C2282 0.930 . S
O2253 Co2242 2.093 . S
O2253 C2245 1.224 . S
H2254 C2286 0.929 . S
H2255 C2288 0.930 . S
H2256 C2289 0.930 . S
H2257 C2287 0.929 . S
H2258 C2290 0.928 . S
O2259 Co2243 2.057 . S
O2259 C2247 1.232 . S
H2260 C2279 0.929 . S
H2261 C2280 0.929 . S
H2262 C2292 0.931 . S
H2263 C2284 0.929 . S
H2264 C2293 0.930 . S
H2265 C2285 0.931 . S
O2266 Co2242 2.097 . S
O2266 C2294 1.214 . S
H2267 C2295 0.929 . S
H2268 C2296 0.929 . S
H2269 C2297 0.930 . S
H2270 C2298 0.929 . S
H2271 C2300 0.930 . S
H2272 C2277 0.930 . S
H2273 C2281 0.930 . S
O2274 Co2243 2.037 . S
O2274 C2294 1.234 . S
C2275 O2249 1.269 . S
C2275 O2250 1.257 . S
C2276 H2251 0.930 . S
C2276 C2279 1.388 . S
C2276 C2281 1.418 . S
C2277 H2272 0.930 . S
C2277 C2280 1.404 . S
C2277 C2281 1.353 . S
N2278 Co2243 2.145 . S
N2278 C2279 1.397 . S
N2278 C2280 1.334 . S
C2279 H2260 0.929 . S
C2279 C2276 1.388 . S
C2279 N2278 1.397 . S
C2280 H2261 0.929 . S
C2280 C2277 1.404 . S
C2280 N2278 1.334 . S
C2281 H2273 0.930 . S
C2281 C2276 1.418 . S
C2281 C2277 1.353 . S
C2282 H2252 0.930 . S
C2282 N2283 1.330 . S
C2282 C2284 1.446 . S
N2283 Co2242 2.151 . S
N2283 C2282 1.330 . S
N2283 C2287 1.418 . S
C2284 H2263 0.929 . S
C2284 C2282 1.446 . S
C2284 C2285 1.332 . S
C2285 H2265 0.931 . S
C2285 C2284 1.332 . S
C2285 C2286 1.267 . S
C2286 H2254 0.929 . S
C2286 C2285 1.267 . S
C2286 C2287 1.251 . S
C2287 H2257 0.929 . S
C2287 N2283 1.418 . S
C2287 C2286 1.251 . S
C2288 H2255 0.930 . S
C2288 C2290 1.406 . S
C2288 C2293 1.261 . S
C2289 H2256 0.930 . S
C2289 N2291 1.325 . S
C2289 C2292 1.357 . S
C2290 H2258 0.928 . S
C2290 C2288 1.406 . S
C2290 N2291 1.261 . S
N2291 Co2242 2.214 . S
N2291 C2289 1.325 . S
N2291 C2290 1.261 . S
C2292 H2262 0.931 . S
C2292 C2289 1.357 . S
C2292 C2293 1.312 . S
C2293 H2264 0.930 . S
C2293 C2288 1.261 . S
C2293 C2292 1.312 . S
C2294 O2266 1.214 . S
C2294 O2274 1.234 . S
C2295 H2267 0.929 . S
C2295 C2298 1.391 . S
C2295 C2300 1.391 . S
C2296 H2268 0.929 . S
C2296 C2297 1.390 . S
C2296 N2299 1.391 . S
C2297 H2269 0.930 . S
C2297 C2296 1.390 . S
C2297 C2298 1.392 . S
C2298 H2270 0.929 . S
C2298 C2295 1.391 . S
C2298 C2297 1.392 . S
N2299 Co2243 2.257 . S
N2299 C2296 1.391 . S
N2299 C2300 1.388 . S
C2300 H2271 0.930 . S
C2300 C2295 1.391 . S
C2300 N2299 1.388 . S
Co2301 O2303 2.143 . S
Co2301 O2309 2.074 . S
Co2301 O2312 2.093 . S
Co2301 O2325 2.097 . S
Co2301 N2342 2.151 . S
Co2301 N2350 2.214 . S
Co2302 O2303 2.160 . S
Co2302 O2308 2.058 . S
Co2302 O2318 2.057 . S
Co2302 O2333 2.037 . S
Co2302 N2337 2.145 . S
Co2302 N2358 2.257 . S
O2303 Co2301 2.143 . S
O2303 Co2302 2.160 . S
C2304 O2305 1.278 . S
C2304 O2312 1.224 . S
O2305 C2304 1.278 . S
C2306 O2307 1.245 . S
C2306 O2318 1.232 . S
O2307 C2306 1.245 . S
O2308 Co2302 2.058 . S
O2308 C2334 1.269 . S
O2309 Co2301 2.074 . S
O2309 C2334 1.257 . S
H2310 C2335 0.930 . S
H2311 C2341 0.930 . S
O2312 Co2301 2.093 . S
O2312 C2304 1.224 . S
H2313 C2345 0.929 . S
H2314 C2347 0.930 . S
H2315 C2348 0.930 . S
H2316 C2346 0.929 . S
H2317 C2349 0.928 . S
O2318 Co2302 2.057 . S
O2318 C2306 1.232 . S
H2319 C2338 0.929 . S
H2320 C2339 0.929 . S
H2321 C2351 0.931 . S
H2322 C2343 0.929 . S
H2323 C2352 0.930 . S
H2324 C2344 0.931 . S
O2325 Co2301 2.097 . S
O2325 C2353 1.214 . S
H2326 C2354 0.929 . S
H2327 C2355 0.929 . S
H2328 C2356 0.930 . S
H2329 C2357 0.929 . S
H2330 C2359 0.930 . S
H2331 C2336 0.930 . S
H2332 C2340 0.930 . S
O2333 Co2302 2.037 . S
O2333 C2353 1.234 . S
C2334 O2308 1.269 . S
C2334 O2309 1.257 . S
C2335 H2310 0.930 . S
C2335 C2338 1.388 . S
C2335 C2340 1.418 . S
C2336 H2331 0.930 . S
C2336 C2339 1.404 . S
C2336 C2340 1.353 . S
N2337 Co2302 2.145 . S
N2337 C2338 1.397 . S
N2337 C2339 1.334 . S
C2338 H2319 0.929 . S
C2338 C2335 1.388 . S
C2338 N2337 1.397 . S
C2339 H2320 0.929 . S
C2339 C2336 1.404 . S
C2339 N2337 1.334 . S
C2340 H2332 0.930 . S
C2340 C2335 1.418 . S
C2340 C2336 1.353 . S
C2341 H2311 0.930 . S
C2341 N2342 1.330 . S
C2341 C2343 1.446 . S
N2342 Co2301 2.151 . S
N2342 C2341 1.330 . S
N2342 C2346 1.418 . S
C2343 H2322 0.929 . S
C2343 C2341 1.446 . S
C2343 C2344 1.332 . S
C2344 H2324 0.931 . S
C2344 C2343 1.332 . S
C2344 C2345 1.267 . S
C2345 H2313 0.929 . S
C2345 C2344 1.267 . S
C2345 C2346 1.251 . S
C2346 H2316 0.929 . S
C2346 N2342 1.418 . S
C2346 C2345 1.251 . S
C2347 H2314 0.930 . S
C2347 C2349 1.406 . S
C2347 C2352 1.261 . S
C2348 H2315 0.930 . S
C2348 N2350 1.325 . S
C2348 C2351 1.357 . S
C2349 H2317 0.928 . S
C2349 C2347 1.406 . S
C2349 N2350 1.261 . S
N2350 Co2301 2.214 . S
N2350 C2348 1.325 . S
N2350 C2349 1.261 . S
C2351 H2321 0.931 . S
C2351 C2348 1.357 . S
C2351 C2352 1.312 . S
C2352 H2323 0.930 . S
C2352 C2347 1.261 . S
C2352 C2351 1.312 . S
C2353 O2325 1.214 . S
C2353 O2333 1.234 . S
C2354 H2326 0.929 . S
C2354 C2357 1.391 . S
C2354 C2359 1.391 . S
C2355 H2327 0.929 . S
C2355 C2356 1.390 . S
C2355 N2358 1.391 . S
C2356 H2328 0.930 . S
C2356 C2355 1.390 . S
C2356 C2357 1.392 . S
C2357 H2329 0.929 . S
C2357 C2354 1.391 . S
C2357 C2356 1.392 . S
N2358 Co2302 2.257 . S
N2358 C2355 1.391 . S
N2358 C2359 1.388 . S
C2359 H2330 0.930 . S
C2359 C2354 1.391 . S
C2359 N2358 1.388 . S
Co2360 O2362 2.143 . S
Co2360 O2368 2.074 . S
Co2360 O2371 2.093 . S
Co2360 O2384 2.097 . S
Co2360 N2401 2.151 . S
Co2360 N2409 2.214 . S
Co2361 O2362 2.160 . S
Co2361 O2367 2.058 . S
Co2361 O2377 2.057 . S
Co2361 O2392 2.037 . S
Co2361 N2396 2.145 . S
Co2361 N2417 2.257 . S
O2362 Co2360 2.143 . S
O2362 Co2361 2.160 . S
C2363 O2364 1.278 . S
C2363 O2371 1.224 . S
O2364 C2363 1.278 . S
C2365 O2366 1.245 . S
C2365 O2377 1.232 . S
O2366 C2365 1.245 . S
O2367 Co2361 2.058 . S
O2367 C2393 1.269 . S
O2368 Co2360 2.074 . S
O2368 C2393 1.257 . S
H2369 C2394 0.930 . S
H2370 C2400 0.930 . S
O2371 Co2360 2.093 . S
O2371 C2363 1.224 . S
H2372 C2404 0.929 . S
H2373 C2406 0.930 . S
H2374 C2407 0.930 . S
H2375 C2405 0.929 . S
H2376 C2408 0.928 . S
O2377 Co2361 2.057 . S
O2377 C2365 1.232 . S
H2378 C2397 0.929 . S
H2379 C2398 0.929 . S
H2380 C2410 0.931 . S
H2381 C2402 0.929 . S
H2382 C2411 0.930 . S
H2383 C2403 0.931 . S
O2384 Co2360 2.097 . S
O2384 C2412 1.214 . S
H2385 C2413 0.929 . S
H2386 C2414 0.929 . S
H2387 C2415 0.930 . S
H2388 C2416 0.929 . S
H2389 C2418 0.930 . S
H2390 C2395 0.930 . S
H2391 C2399 0.930 . S
O2392 Co2361 2.037 . S
O2392 C2412 1.234 . S
C2393 O2367 1.269 . S
C2393 O2368 1.257 . S
C2394 H2369 0.930 . S
C2394 C2397 1.388 . S
C2394 C2399 1.418 . S
C2395 H2390 0.930 . S
C2395 C2398 1.404 . S
C2395 C2399 1.353 . S
N2396 Co2361 2.145 . S
N2396 C2397 1.397 . S
N2396 C2398 1.334 . S
C2397 H2378 0.929 . S
C2397 C2394 1.388 . S
C2397 N2396 1.397 . S
C2398 H2379 0.929 . S
C2398 C2395 1.404 . S
C2398 N2396 1.334 . S
C2399 H2391 0.930 . S
C2399 C2394 1.418 . S
C2399 C2395 1.353 . S
C2400 H2370 0.930 . S
C2400 N2401 1.330 . S
C2400 C2402 1.446 . S
N2401 Co2360 2.151 . S
N2401 C2400 1.330 . S
N2401 C2405 1.418 . S
C2402 H2381 0.929 . S
C2402 C2400 1.446 . S
C2402 C2403 1.332 . S
C2403 H2383 0.931 . S
C2403 C2402 1.332 . S
C2403 C2404 1.267 . S
C2404 H2372 0.929 . S
C2404 C2403 1.267 . S
C2404 C2405 1.251 . S
C2405 H2375 0.929 . S
C2405 N2401 1.418 . S
C2405 C2404 1.251 . S
C2406 H2373 0.930 . S
C2406 C2408 1.406 . S
C2406 C2411 1.261 . S
C2407 H2374 0.930 . S
C2407 N2409 1.325 . S
C2407 C2410 1.357 . S
C2408 H2376 0.928 . S
C2408 C2406 1.406 . S
C2408 N2409 1.261 . S
N2409 Co2360 2.214 . S
N2409 C2407 1.325 . S
N2409 C2408 1.261 . S
C2410 H2380 0.931 . S
C2410 C2407 1.357 . S
C2410 C2411 1.312 . S
C2411 H2382 0.930 . S
C2411 C2406 1.261 . S
C2411 C2410 1.312 . S
C2412 O2384 1.214 . S
C2412 O2392 1.234 . S
C2413 H2385 0.929 . S
C2413 C2416 1.391 . S
C2413 C2418 1.391 . S
C2414 H2386 0.929 . S
C2414 C2415 1.390 . S
C2414 N2417 1.391 . S
C2415 H2387 0.930 . S
C2415 C2414 1.390 . S
C2415 C2416 1.392 . S
C2416 H2388 0.929 . S
C2416 C2413 1.391 . S
C2416 C2415 1.392 . S
N2417 Co2361 2.257 . S
N2417 C2414 1.391 . S
N2417 C2418 1.388 . S
C2418 H2389 0.930 . S
C2418 C2413 1.391 . S
C2418 N2417 1.388 . S
Co2419 O2421 2.143 . S
Co2419 O2427 2.074 . S
Co2419 O2430 2.093 . S
Co2419 O2443 2.097 . S
Co2419 N2460 2.151 . S
Co2419 N2468 2.214 . S
Co2420 O2421 2.160 . S
Co2420 O2426 2.058 . S
Co2420 O2436 2.057 . S
Co2420 O2451 2.037 . S
Co2420 N2455 2.145 . S
Co2420 N2476 2.257 . S
O2421 Co2419 2.143 . S
O2421 Co2420 2.160 . S
C2422 O2423 1.278 . S
C2422 O2430 1.224 . S
O2423 C2422 1.278 . S
C2424 O2425 1.245 . S
C2424 O2436 1.232 . S
O2425 C2424 1.245 . S
O2426 Co2420 2.058 . S
O2426 C2452 1.269 . S
O2427 Co2419 2.074 . S
O2427 C2452 1.257 . S
H2428 C2453 0.930 . S
H2429 C2459 0.930 . S
O2430 Co2419 2.093 . S
O2430 C2422 1.224 . S
H2431 C2463 0.929 . S
H2432 C2465 0.930 . S
H2433 C2466 0.930 . S
H2434 C2464 0.929 . S
H2435 C2467 0.928 . S
O2436 Co2420 2.057 . S
O2436 C2424 1.232 . S
H2437 C2456 0.929 . S
H2438 C2457 0.929 . S
H2439 C2469 0.931 . S
H2440 C2461 0.929 . S
H2441 C2470 0.930 . S
H2442 C2462 0.931 . S
O2443 Co2419 2.097 . S
O2443 C2471 1.214 . S
H2444 C2472 0.929 . S
H2445 C2473 0.929 . S
H2446 C2474 0.930 . S
H2447 C2475 0.929 . S
H2448 C2477 0.930 . S
H2449 C2454 0.930 . S
H2450 C2458 0.930 . S
O2451 Co2420 2.037 . S
O2451 C2471 1.234 . S
C2452 O2426 1.269 . S
C2452 O2427 1.257 . S
C2453 H2428 0.930 . S
C2453 C2456 1.388 . S
C2453 C2458 1.418 . S
C2454 H2449 0.930 . S
C2454 C2457 1.404 . S
C2454 C2458 1.353 . S
N2455 Co2420 2.145 . S
N2455 C2456 1.397 . S
N2455 C2457 1.334 . S
C2456 H2437 0.929 . S
C2456 C2453 1.388 . S
C2456 N2455 1.397 . S
C2457 H2438 0.929 . S
C2457 C2454 1.404 . S
C2457 N2455 1.334 . S
C2458 H2450 0.930 . S
C2458 C2453 1.418 . S
C2458 C2454 1.353 . S
C2459 H2429 0.930 . S
C2459 N2460 1.330 . S
C2459 C2461 1.446 . S
N2460 Co2419 2.151 . S
N2460 C2459 1.330 . S
N2460 C2464 1.418 . S
C2461 H2440 0.929 . S
C2461 C2459 1.446 . S
C2461 C2462 1.332 . S
C2462 H2442 0.931 . S
C2462 C2461 1.332 . S
C2462 C2463 1.267 . S
C2463 H2431 0.929 . S
C2463 C2462 1.267 . S
C2463 C2464 1.251 . S
C2464 H2434 0.929 . S
C2464 N2460 1.418 . S
C2464 C2463 1.251 . S
C2465 H2432 0.930 . S
C2465 C2467 1.406 . S
C2465 C2470 1.261 . S
C2466 H2433 0.930 . S
C2466 N2468 1.325 . S
C2466 C2469 1.357 . S
C2467 H2435 0.928 . S
C2467 C2465 1.406 . S
C2467 N2468 1.261 . S
N2468 Co2419 2.214 . S
N2468 C2466 1.325 . S
N2468 C2467 1.261 . S
C2469 H2439 0.931 . S
C2469 C2466 1.357 . S
C2469 C2470 1.312 . S
C2470 H2441 0.930 . S
C2470 C2465 1.261 . S
C2470 C2469 1.312 . S
C2471 O2443 1.214 . S
C2471 O2451 1.234 . S
C2472 H2444 0.929 . S
C2472 C2475 1.391 . S
C2472 C2477 1.391 . S
C2473 H2445 0.929 . S
C2473 C2474 1.390 . S
C2473 N2476 1.391 . S
C2474 H2446 0.930 . S
C2474 C2473 1.390 . S
C2474 C2475 1.392 . S
C2475 H2447 0.929 . S
C2475 C2472 1.391 . S
C2475 C2474 1.392 . S
N2476 Co2420 2.257 . S
N2476 C2473 1.391 . S
N2476 C2477 1.388 . S
C2477 H2448 0.930 . S
C2477 C2472 1.391 . S
C2477 N2476 1.388 . S
Co2478 O2480 2.143 . S
Co2478 O2486 2.074 . S
Co2478 O2489 2.093 . S
Co2478 O2502 2.097 . S
Co2478 N2519 2.151 . S
Co2478 N2527 2.214 . S
Co2479 O2480 2.160 . S
Co2479 O2485 2.058 . S
Co2479 O2495 2.057 . S
Co2479 O2510 2.037 . S
Co2479 N2514 2.145 . S
Co2479 N2535 2.257 . S
O2480 Co2478 2.143 . S
O2480 Co2479 2.160 . S
C2481 O2482 1.278 . S
C2481 O2489 1.224 . S
O2482 C2481 1.278 . S
C2483 O2484 1.245 . S
C2483 O2495 1.232 . S
O2484 C2483 1.245 . S
O2485 Co2479 2.058 . S
O2485 C2511 1.269 . S
O2486 Co2478 2.074 . S
O2486 C2511 1.257 . S
H2487 C2512 0.930 . S
H2488 C2518 0.930 . S
O2489 Co2478 2.093 . S
O2489 C2481 1.224 . S
H2490 C2522 0.929 . S
H2491 C2524 0.930 . S
H2492 C2525 0.930 . S
H2493 C2523 0.929 . S
H2494 C2526 0.928 . S
O2495 Co2479 2.057 . S
O2495 C2483 1.232 . S
H2496 C2515 0.929 . S
H2497 C2516 0.929 . S
H2498 C2528 0.931 . S
H2499 C2520 0.929 . S
H2500 C2529 0.930 . S
H2501 C2521 0.931 . S
O2502 Co2478 2.097 . S
O2502 C2530 1.214 . S
H2503 C2531 0.929 . S
H2504 C2532 0.929 . S
H2505 C2533 0.930 . S
H2506 C2534 0.929 . S
H2507 C2536 0.930 . S
H2508 C2513 0.930 . S
H2509 C2517 0.930 . S
O2510 Co2479 2.037 . S
O2510 C2530 1.234 . S
C2511 O2485 1.269 . S
C2511 O2486 1.257 . S
C2512 H2487 0.930 . S
C2512 C2515 1.388 . S
C2512 C2517 1.418 . S
C2513 H2508 0.930 . S
C2513 C2516 1.404 . S
C2513 C2517 1.353 . S
N2514 Co2479 2.145 . S
N2514 C2515 1.397 . S
N2514 C2516 1.334 . S
C2515 H2496 0.929 . S
C2515 C2512 1.388 . S
C2515 N2514 1.397 . S
C2516 H2497 0.929 . S
C2516 C2513 1.404 . S
C2516 N2514 1.334 . S
C2517 H2509 0.930 . S
C2517 C2512 1.418 . S
C2517 C2513 1.353 . S
C2518 H2488 0.930 . S
C2518 N2519 1.330 . S
C2518 C2520 1.446 . S
N2519 Co2478 2.151 . S
N2519 C2518 1.330 . S
N2519 C2523 1.418 . S
C2520 H2499 0.929 . S
C2520 C2518 1.446 . S
C2520 C2521 1.332 . S
C2521 H2501 0.931 . S
C2521 C2520 1.332 . S
C2521 C2522 1.267 . S
C2522 H2490 0.929 . S
C2522 C2521 1.267 . S
C2522 C2523 1.251 . S
C2523 H2493 0.929 . S
C2523 N2519 1.418 . S
C2523 C2522 1.251 . S
C2524 H2491 0.930 . S
C2524 C2526 1.406 . S
C2524 C2529 1.261 . S
C2525 H2492 0.930 . S
C2525 N2527 1.325 . S
C2525 C2528 1.357 . S
C2526 H2494 0.928 . S
C2526 C2524 1.406 . S
C2526 N2527 1.261 . S
N2527 Co2478 2.214 . S
N2527 C2525 1.325 . S
N2527 C2526 1.261 . S
C2528 H2498 0.931 . S
C2528 C2525 1.357 . S
C2528 C2529 1.312 . S
C2529 H2500 0.930 . S
C2529 C2524 1.261 . S
C2529 C2528 1.312 . S
C2530 O2502 1.214 . S
C2530 O2510 1.234 . S
C2531 H2503 0.929 . S
C2531 C2534 1.391 . S
C2531 C2536 1.391 . S
C2532 H2504 0.929 . S
C2532 C2533 1.390 . S
C2532 N2535 1.391 . S
C2533 H2505 0.930 . S
C2533 C2532 1.390 . S
C2533 C2534 1.392 . S
C2534 H2506 0.929 . S
C2534 C2531 1.391 . S
C2534 C2533 1.392 . S
N2535 Co2479 2.257 . S
N2535 C2532 1.391 . S
N2535 C2536 1.388 . S
C2536 H2507 0.930 . S
C2536 C2531 1.391 . S
C2536 N2535 1.388 . S
Co2537 O2539 2.143 . S
Co2537 O2545 2.074 . S
Co2537 O2548 2.093 . S
Co2537 O2561 2.097 . S
Co2537 N2578 2.151 . S
Co2537 N2586 2.214 . S
Co2538 O2539 2.160 . S
Co2538 O2544 2.058 . S
Co2538 O2554 2.057 . S
Co2538 O2569 2.037 . S
Co2538 N2573 2.145 . S
Co2538 N2594 2.257 . S
O2539 Co2537 2.143 . S
O2539 Co2538 2.160 . S
C2540 O2541 1.278 . S
C2540 O2548 1.224 . S
O2541 C2540 1.278 . S
C2542 O2543 1.245 . S
C2542 O2554 1.232 . S
O2543 C2542 1.245 . S
O2544 Co2538 2.058 . S
O2544 C2570 1.269 . S
O2545 Co2537 2.074 . S
O2545 C2570 1.257 . S
H2546 C2571 0.930 . S
H2547 C2577 0.930 . S
O2548 Co2537 2.093 . S
O2548 C2540 1.224 . S
H2549 C2581 0.929 . S
H2550 C2583 0.930 . S
H2551 C2584 0.930 . S
H2552 C2582 0.929 . S
H2553 C2585 0.928 . S
O2554 Co2538 2.057 . S
O2554 C2542 1.232 . S
H2555 C2574 0.929 . S
H2556 C2575 0.929 . S
H2557 C2587 0.931 . S
H2558 C2579 0.929 . S
H2559 C2588 0.930 . S
H2560 C2580 0.931 . S
O2561 Co2537 2.097 . S
O2561 C2589 1.214 . S
H2562 C2590 0.929 . S
H2563 C2591 0.929 . S
H2564 C2592 0.930 . S
H2565 C2593 0.929 . S
H2566 C2595 0.930 . S
H2567 C2572 0.930 . S
H2568 C2576 0.930 . S
O2569 Co2538 2.037 . S
O2569 C2589 1.234 . S
C2570 O2544 1.269 . S
C2570 O2545 1.257 . S
C2571 H2546 0.930 . S
C2571 C2574 1.388 . S
C2571 C2576 1.418 . S
C2572 H2567 0.930 . S
C2572 C2575 1.404 . S
C2572 C2576 1.353 . S
N2573 Co2538 2.145 . S
N2573 C2574 1.397 . S
N2573 C2575 1.334 . S
C2574 H2555 0.929 . S
C2574 C2571 1.388 . S
C2574 N2573 1.397 . S
C2575 H2556 0.929 . S
C2575 C2572 1.404 . S
C2575 N2573 1.334 . S
C2576 H2568 0.930 . S
C2576 C2571 1.418 . S
C2576 C2572 1.353 . S
C2577 H2547 0.930 . S
C2577 N2578 1.330 . S
C2577 C2579 1.446 . S
N2578 Co2537 2.151 . S
N2578 C2577 1.330 . S
N2578 C2582 1.418 . S
C2579 H2558 0.929 . S
C2579 C2577 1.446 . S
C2579 C2580 1.332 . S
C2580 H2560 0.931 . S
C2580 C2579 1.332 . S
C2580 C2581 1.267 . S
C2581 H2549 0.929 . S
C2581 C2580 1.267 . S
C2581 C2582 1.251 . S
C2582 H2552 0.929 . S
C2582 N2578 1.418 . S
C2582 C2581 1.251 . S
C2583 H2550 0.930 . S
C2583 C2585 1.406 . S
C2583 C2588 1.261 . S
C2584 H2551 0.930 . S
C2584 N2586 1.325 . S
C2584 C2587 1.357 . S
C2585 H2553 0.928 . S
C2585 C2583 1.406 . S
C2585 N2586 1.261 . S
N2586 Co2537 2.214 . S
N2586 C2584 1.325 . S
N2586 C2585 1.261 . S
C2587 H2557 0.931 . S
C2587 C2584 1.357 . S
C2587 C2588 1.312 . S
C2588 H2559 0.930 . S
C2588 C2583 1.261 . S
C2588 C2587 1.312 . S
C2589 O2561 1.214 . S
C2589 O2569 1.234 . S
C2590 H2562 0.929 . S
C2590 C2593 1.391 . S
C2590 C2595 1.391 . S
C2591 H2563 0.929 . S
C2591 C2592 1.390 . S
C2591 N2594 1.391 . S
C2592 H2564 0.930 . S
C2592 C2591 1.390 . S
C2592 C2593 1.392 . S
C2593 H2565 0.929 . S
C2593 C2590 1.391 . S
C2593 C2592 1.392 . S
N2594 Co2538 2.257 . S
N2594 C2591 1.391 . S
N2594 C2595 1.388 . S
C2595 H2566 0.930 . S
C2595 C2590 1.391 . S
C2595 N2594 1.388 . S
Co2596 O2598 2.143 . S
Co2596 O2604 2.074 . S
Co2596 O2607 2.093 . S
Co2596 O2620 2.097 . S
Co2596 N2637 2.151 . S
Co2596 N2645 2.214 . S
Co2597 O2598 2.160 . S
Co2597 O2603 2.058 . S
Co2597 O2613 2.057 . S
Co2597 O2628 2.037 . S
Co2597 N2632 2.145 . S
Co2597 N2653 2.257 . S
O2598 Co2596 2.143 . S
O2598 Co2597 2.160 . S
C2599 O2600 1.278 . S
C2599 O2607 1.224 . S
O2600 C2599 1.278 . S
C2601 O2602 1.245 . S
C2601 O2613 1.232 . S
O2602 C2601 1.245 . S
O2603 Co2597 2.058 . S
O2603 C2629 1.269 . S
O2604 Co2596 2.074 . S
O2604 C2629 1.257 . S
H2605 C2630 0.930 . S
H2606 C2636 0.930 . S
O2607 Co2596 2.093 . S
O2607 C2599 1.224 . S
H2608 C2640 0.929 . S
H2609 C2642 0.930 . S
H2610 C2643 0.930 . S
H2611 C2641 0.929 . S
H2612 C2644 0.928 . S
O2613 Co2597 2.057 . S
O2613 C2601 1.232 . S
H2614 C2633 0.929 . S
H2615 C2634 0.929 . S
H2616 C2646 0.931 . S
H2617 C2638 0.929 . S
H2618 C2647 0.930 . S
H2619 C2639 0.931 . S
O2620 Co2596 2.097 . S
O2620 C2648 1.214 . S
H2621 C2649 0.929 . S
H2622 C2650 0.929 . S
H2623 C2651 0.930 . S
H2624 C2652 0.929 . S
H2625 C2654 0.930 . S
H2626 C2631 0.930 . S
H2627 C2635 0.930 . S
O2628 Co2597 2.037 . S
O2628 C2648 1.234 . S
C2629 O2603 1.269 . S
C2629 O2604 1.257 . S
C2630 H2605 0.930 . S
C2630 C2633 1.388 . S
C2630 C2635 1.418 . S
C2631 H2626 0.930 . S
C2631 C2634 1.404 . S
C2631 C2635 1.353 . S
N2632 Co2597 2.145 . S
N2632 C2633 1.397 . S
N2632 C2634 1.334 . S
C2633 H2614 0.929 . S
C2633 C2630 1.388 . S
C2633 N2632 1.397 . S
C2634 H2615 0.929 . S
C2634 C2631 1.404 . S
C2634 N2632 1.334 . S
C2635 H2627 0.930 . S
C2635 C2630 1.418 . S
C2635 C2631 1.353 . S
C2636 H2606 0.930 . S
C2636 N2637 1.330 . S
C2636 C2638 1.446 . S
N2637 Co2596 2.151 . S
N2637 C2636 1.330 . S
N2637 C2641 1.418 . S
C2638 H2617 0.929 . S
C2638 C2636 1.446 . S
C2638 C2639 1.332 . S
C2639 H2619 0.931 . S
C2639 C2638 1.332 . S
C2639 C2640 1.267 . S
C2640 H2608 0.929 . S
C2640 C2639 1.267 . S
C2640 C2641 1.251 . S
C2641 H2611 0.929 . S
C2641 N2637 1.418 . S
C2641 C2640 1.251 . S
C2642 H2609 0.930 . S
C2642 C2644 1.406 . S
C2642 C2647 1.261 . S
C2643 H2610 0.930 . S
C2643 N2645 1.325 . S
C2643 C2646 1.357 . S
C2644 H2612 0.928 . S
C2644 C2642 1.406 . S
C2644 N2645 1.261 . S
N2645 Co2596 2.214 . S
N2645 C2643 1.325 . S
N2645 C2644 1.261 . S
C2646 H2616 0.931 . S
C2646 C2643 1.357 . S
C2646 C2647 1.312 . S
C2647 H2618 0.930 . S
C2647 C2642 1.261 . S
C2647 C2646 1.312 . S
C2648 O2620 1.214 . S
C2648 O2628 1.234 . S
C2649 H2621 0.929 . S
C2649 C2652 1.391 . S
C2649 C2654 1.391 . S
C2650 H2622 0.929 . S
C2650 C2651 1.390 . S
C2650 N2653 1.391 . S
C2651 H2623 0.930 . S
C2651 C2650 1.390 . S
C2651 C2652 1.392 . S
C2652 H2624 0.929 . S
C2652 C2649 1.391 . S
C2652 C2651 1.392 . S
N2653 Co2597 2.257 . S
N2653 C2650 1.391 . S
N2653 C2654 1.388 . S
C2654 H2625 0.930 . S
C2654 C2649 1.391 . S
C2654 N2653 1.388 . S
Co2655 O2657 2.143 . S
Co2655 O2663 2.074 . S
Co2655 O2666 2.093 . S
Co2655 O2679 2.097 . S
Co2655 N2696 2.151 . S
Co2655 N2704 2.214 . S
Co2656 O2657 2.160 . S
Co2656 O2662 2.058 . S
Co2656 O2672 2.057 . S
Co2656 O2687 2.037 . S
Co2656 N2691 2.145 . S
Co2656 N2712 2.257 . S
O2657 Co2655 2.143 . S
O2657 Co2656 2.160 . S
C2658 O2659 1.278 . S
C2658 O2666 1.224 . S
O2659 C2658 1.278 . S
C2660 O2661 1.245 . S
C2660 O2672 1.232 . S
O2661 C2660 1.245 . S
O2662 Co2656 2.058 . S
O2662 C2688 1.269 . S
O2663 Co2655 2.074 . S
O2663 C2688 1.257 . S
H2664 C2689 0.930 . S
H2665 C2695 0.930 . S
O2666 Co2655 2.093 . S
O2666 C2658 1.224 . S
H2667 C2699 0.929 . S
H2668 C2701 0.930 . S
H2669 C2702 0.930 . S
H2670 C2700 0.929 . S
H2671 C2703 0.928 . S
O2672 Co2656 2.057 . S
O2672 C2660 1.232 . S
H2673 C2692 0.929 . S
H2674 C2693 0.929 . S
H2675 C2705 0.931 . S
H2676 C2697 0.929 . S
H2677 C2706 0.930 . S
H2678 C2698 0.931 . S
O2679 Co2655 2.097 . S
O2679 C2707 1.214 . S
H2680 C2708 0.929 . S
H2681 C2709 0.929 . S
H2682 C2710 0.930 . S
H2683 C2711 0.929 . S
H2684 C2713 0.930 . S
H2685 C2690 0.930 . S
H2686 C2694 0.930 . S
O2687 Co2656 2.037 . S
O2687 C2707 1.234 . S
C2688 O2662 1.269 . S
C2688 O2663 1.257 . S
C2689 H2664 0.930 . S
C2689 C2692 1.388 . S
C2689 C2694 1.418 . S
C2690 H2685 0.930 . S
C2690 C2693 1.404 . S
C2690 C2694 1.353 . S
N2691 Co2656 2.145 . S
N2691 C2692 1.397 . S
N2691 C2693 1.334 . S
C2692 H2673 0.929 . S
C2692 C2689 1.388 . S
C2692 N2691 1.397 . S
C2693 H2674 0.929 . S
C2693 C2690 1.404 . S
C2693 N2691 1.334 . S
C2694 H2686 0.930 . S
C2694 C2689 1.418 . S
C2694 C2690 1.353 . S
C2695 H2665 0.930 . S
C2695 N2696 1.330 . S
C2695 C2697 1.446 . S
N2696 Co2655 2.151 . S
N2696 C2695 1.330 . S
N2696 C2700 1.418 . S
C2697 H2676 0.929 . S
C2697 C2695 1.446 . S
C2697 C2698 1.332 . S
C2698 H2678 0.931 . S
C2698 C2697 1.332 . S
C2698 C2699 1.267 . S
C2699 H2667 0.929 . S
C2699 C2698 1.267 . S
C2699 C2700 1.251 . S
C2700 H2670 0.929 . S
C2700 N2696 1.418 . S
C2700 C2699 1.251 . S
C2701 H2668 0.930 . S
C2701 C2703 1.406 . S
C2701 C2706 1.261 . S
C2702 H2669 0.930 . S
C2702 N2704 1.325 . S
C2702 C2705 1.357 . S
C2703 H2671 0.928 . S
C2703 C2701 1.406 . S
C2703 N2704 1.261 . S
N2704 Co2655 2.214 . S
N2704 C2702 1.325 . S
N2704 C2703 1.261 . S
C2705 H2675 0.931 . S
C2705 C2702 1.357 . S
C2705 C2706 1.312 . S
C2706 H2677 0.930 . S
C2706 C2701 1.261 . S
C2706 C2705 1.312 . S
C2707 O2679 1.214 . S
C2707 O2687 1.234 . S
C2708 H2680 0.929 . S
C2708 C2711 1.391 . S
C2708 C2713 1.391 . S
C2709 H2681 0.929 . S
C2709 C2710 1.390 . S
C2709 N2712 1.391 . S
C2710 H2682 0.930 . S
C2710 C2709 1.390 . S
C2710 C2711 1.392 . S
C2711 H2683 0.929 . S
C2711 C2708 1.391 . S
C2711 C2710 1.392 . S
N2712 Co2656 2.257 . S
N2712 C2709 1.391 . S
N2712 C2713 1.388 . S
C2713 H2684 0.930 . S
C2713 C2708 1.391 . S
C2713 N2712 1.388 . S
Co2714 O2716 2.143 . S
Co2714 O2722 2.074 . S
Co2714 O2725 2.093 . S
Co2714 O2738 2.097 . S
Co2714 N2755 2.151 . S
Co2714 N2763 2.214 . S
Co2715 O2716 2.160 . S
Co2715 O2721 2.058 . S
Co2715 O2731 2.057 . S
Co2715 O2746 2.037 . S
Co2715 N2750 2.145 . S
Co2715 N2771 2.257 . S
O2716 Co2714 2.143 . S
O2716 Co2715 2.160 . S
C2717 O2718 1.278 . S
C2717 O2725 1.224 . S
O2718 C2717 1.278 . S
C2719 O2720 1.245 . S
C2719 O2731 1.232 . S
O2720 C2719 1.245 . S
O2721 Co2715 2.058 . S
O2721 C2747 1.269 . S
O2722 Co2714 2.074 . S
O2722 C2747 1.257 . S
H2723 C2748 0.930 . S
H2724 C2754 0.930 . S
O2725 Co2714 2.093 . S
O2725 C2717 1.224 . S
H2726 C2758 0.929 . S
H2727 C2760 0.930 . S
H2728 C2761 0.930 . S
H2729 C2759 0.929 . S
H2730 C2762 0.928 . S
O2731 Co2715 2.057 . S
O2731 C2719 1.232 . S
H2732 C2751 0.929 . S
H2733 C2752 0.929 . S
H2734 C2764 0.931 . S
H2735 C2756 0.929 . S
H2736 C2765 0.930 . S
H2737 C2757 0.931 . S
O2738 Co2714 2.097 . S
O2738 C2766 1.214 . S
H2739 C2767 0.929 . S
H2740 C2768 0.929 . S
H2741 C2769 0.930 . S
H2742 C2770 0.929 . S
H2743 C2772 0.930 . S
H2744 C2749 0.930 . S
H2745 C2753 0.930 . S
O2746 Co2715 2.037 . S
O2746 C2766 1.234 . S
C2747 O2721 1.269 . S
C2747 O2722 1.257 . S
C2748 H2723 0.930 . S
C2748 C2751 1.388 . S
C2748 C2753 1.418 . S
C2749 H2744 0.930 . S
C2749 C2752 1.404 . S
C2749 C2753 1.353 . S
N2750 Co2715 2.145 . S
N2750 C2751 1.397 . S
N2750 C2752 1.334 . S
C2751 H2732 0.929 . S
C2751 C2748 1.388 . S
C2751 N2750 1.397 . S
C2752 H2733 0.929 . S
C2752 C2749 1.404 . S
C2752 N2750 1.334 . S
C2753 H2745 0.930 . S
C2753 C2748 1.418 . S
C2753 C2749 1.353 . S
C2754 H2724 0.930 . S
C2754 N2755 1.330 . S
C2754 C2756 1.446 . S
N2755 Co2714 2.151 . S
N2755 C2754 1.330 . S
N2755 C2759 1.418 . S
C2756 H2735 0.929 . S
C2756 C2754 1.446 . S
C2756 C2757 1.332 . S
C2757 H2737 0.931 . S
C2757 C2756 1.332 . S
C2757 C2758 1.267 . S
C2758 H2726 0.929 . S
C2758 C2757 1.267 . S
C2758 C2759 1.251 . S
C2759 H2729 0.929 . S
C2759 N2755 1.418 . S
C2759 C2758 1.251 . S
C2760 H2727 0.930 . S
C2760 C2762 1.406 . S
C2760 C2765 1.261 . S
C2761 H2728 0.930 . S
C2761 N2763 1.325 . S
C2761 C2764 1.357 . S
C2762 H2730 0.928 . S
C2762 C2760 1.406 . S
C2762 N2763 1.261 . S
N2763 Co2714 2.214 . S
N2763 C2761 1.325 . S
N2763 C2762 1.261 . S
C2764 H2734 0.931 . S
C2764 C2761 1.357 . S
C2764 C2765 1.312 . S
C2765 H2736 0.930 . S
C2765 C2760 1.261 . S
C2765 C2764 1.312 . S
C2766 O2738 1.214 . S
C2766 O2746 1.234 . S
C2767 H2739 0.929 . S
C2767 C2770 1.391 . S
C2767 C2772 1.391 . S
C2768 H2740 0.929 . S
C2768 C2769 1.390 . S
C2768 N2771 1.391 . S
C2769 H2741 0.930 . S
C2769 C2768 1.390 . S
C2769 C2770 1.392 . S
C2770 H2742 0.929 . S
C2770 C2767 1.391 . S
C2770 C2769 1.392 . S
N2771 Co2715 2.257 . S
N2771 C2768 1.391 . S
N2771 C2772 1.388 . S
C2772 H2743 0.930 . S
C2772 C2767 1.391 . S
C2772 N2771 1.388 . S
Co2773 O2775 2.143 . S
Co2773 O2781 2.074 . S
Co2773 O2784 2.093 . S
Co2773 O2797 2.097 . S
Co2773 N2814 2.151 . S
Co2773 N2822 2.214 . S
Co2774 O2775 2.160 . S
Co2774 O2780 2.058 . S
Co2774 O2790 2.057 . S
Co2774 O2805 2.037 . S
Co2774 N2809 2.145 . S
Co2774 N2830 2.257 . S
O2775 Co2773 2.143 . S
O2775 Co2774 2.160 . S
C2776 O2777 1.278 . S
C2776 O2784 1.224 . S
O2777 C2776 1.278 . S
C2778 O2779 1.245 . S
C2778 O2790 1.232 . S
O2779 C2778 1.245 . S
O2780 Co2774 2.058 . S
O2780 C2806 1.269 . S
O2781 Co2773 2.074 . S
O2781 C2806 1.257 . S
H2782 C2807 0.930 . S
H2783 C2813 0.930 . S
O2784 Co2773 2.093 . S
O2784 C2776 1.224 . S
H2785 C2817 0.929 . S
H2786 C2819 0.930 . S
H2787 C2820 0.930 . S
H2788 C2818 0.929 . S
H2789 C2821 0.928 . S
O2790 Co2774 2.057 . S
O2790 C2778 1.232 . S
H2791 C2810 0.929 . S
H2792 C2811 0.929 . S
H2793 C2823 0.931 . S
H2794 C2815 0.929 . S
H2795 C2824 0.930 . S
H2796 C2816 0.931 . S
O2797 Co2773 2.097 . S
O2797 C2825 1.214 . S
H2798 C2826 0.929 . S
H2799 C2827 0.929 . S
H2800 C2828 0.930 . S
H2801 C2829 0.929 . S
H2802 C2831 0.930 . S
H2803 C2808 0.930 . S
H2804 C2812 0.930 . S
O2805 Co2774 2.037 . S
O2805 C2825 1.234 . S
C2806 O2780 1.269 . S
C2806 O2781 1.257 . S
C2807 H2782 0.930 . S
C2807 C2810 1.388 . S
C2807 C2812 1.418 . S
C2808 H2803 0.930 . S
C2808 C2811 1.404 . S
C2808 C2812 1.353 . S
N2809 Co2774 2.145 . S
N2809 C2810 1.397 . S
N2809 C2811 1.334 . S
C2810 H2791 0.929 . S
C2810 C2807 1.388 . S
C2810 N2809 1.397 . S
C2811 H2792 0.929 . S
C2811 C2808 1.404 . S
C2811 N2809 1.334 . S
C2812 H2804 0.930 . S
C2812 C2807 1.418 . S
C2812 C2808 1.353 . S
C2813 H2783 0.930 . S
C2813 N2814 1.330 . S
C2813 C2815 1.446 . S
N2814 Co2773 2.151 . S
N2814 C2813 1.330 . S
N2814 C2818 1.418 . S
C2815 H2794 0.929 . S
C2815 C2813 1.446 . S
C2815 C2816 1.332 . S
C2816 H2796 0.931 . S
C2816 C2815 1.332 . S
C2816 C2817 1.267 . S
C2817 H2785 0.929 . S
C2817 C2816 1.267 . S
C2817 C2818 1.251 . S
C2818 H2788 0.929 . S
C2818 N2814 1.418 . S
C2818 C2817 1.251 . S
C2819 H2786 0.930 . S
C2819 C2821 1.406 . S
C2819 C2824 1.261 . S
C2820 H2787 0.930 . S
C2820 N2822 1.325 . S
C2820 C2823 1.357 . S
C2821 H2789 0.928 . S
C2821 C2819 1.406 . S
C2821 N2822 1.261 . S
N2822 Co2773 2.214 . S
N2822 C2820 1.325 . S
N2822 C2821 1.261 . S
C2823 H2793 0.931 . S
C2823 C2820 1.357 . S
C2823 C2824 1.312 . S
C2824 H2795 0.930 . S
C2824 C2819 1.261 . S
C2824 C2823 1.312 . S
C2825 O2797 1.214 . S
C2825 O2805 1.234 . S
C2826 H2798 0.929 . S
C2826 C2829 1.391 . S
C2826 C2831 1.391 . S
C2827 H2799 0.929 . S
C2827 C2828 1.390 . S
C2827 N2830 1.391 . S
C2828 H2800 0.930 . S
C2828 C2827 1.390 . S
C2828 C2829 1.392 . S
C2829 H2801 0.929 . S
C2829 C2826 1.391 . S
C2829 C2828 1.392 . S
N2830 Co2774 2.257 . S
N2830 C2827 1.391 . S
N2830 C2831 1.388 . S
C2831 H2802 0.930 . S
C2831 C2826 1.391 . S
C2831 N2830 1.388 . S
H2832 C2840 0.950 . S
H2833 C2845 0.950 . S
H2834 C2842 0.950 . S
H2835 C2844 0.950 . S
H2836 C2846 0.950 . S
H2837 C2848 0.950 . S
H2838 C2850 0.950 . S
H2839 C2851 0.950 . S
C2840 H2832 0.950 . S
C2840 C2841 1.386 . S
C2840 C2842 1.391 . S
C2841 C2840 1.386 . S
C2841 C2845 1.393 . S
C2842 H2834 0.950 . S
C2842 C2840 1.391 . S
C2842 C2843 1.400 . S
C2843 C2842 1.400 . S
C2843 C2844 1.398 . S
C2843 C2849 1.491 . S
C2844 H2835 0.950 . S
C2844 C2843 1.398 . S
C2844 C2845 1.391 . S
C2845 H2833 0.950 . S
C2845 C2841 1.393 . S
C2845 C2844 1.391 . S
C2846 H2836 0.950 . S
C2846 C2847 1.386 . S
C2846 C2848 1.391 . S
C2847 C2846 1.386 . S
C2847 C2851 1.393 . S
C2848 H2837 0.950 . S
C2848 C2846 1.391 . S
C2848 C2849 1.400 . S
C2849 C2843 1.491 . S
C2849 C2848 1.400 . S
C2849 C2850 1.398 . S
C2850 H2838 0.950 . S
C2850 C2849 1.398 . S
C2850 C2851 1.391 . S
C2851 H2839 0.950 . S
C2851 C2847 1.393 . S
C2851 C2850 1.391 . S
H2852 C2860 0.950 . S
H2853 C2865 0.950 . S
H2854 C2862 0.950 . S
H2855 C2864 0.950 . S
H2856 C2866 0.950 . S
H2857 C2868 0.950 . S
H2858 C2870 0.950 . S
H2859 C2871 0.950 . S
C2860 H2852 0.950 . S
C2860 C2861 1.386 . S
C2860 C2862 1.391 . S
C2861 C2860 1.386 . S
C2861 C2865 1.393 . S
C2862 H2854 0.950 . S
C2862 C2860 1.391 . S
C2862 C2863 1.400 . S
C2863 C2862 1.400 . S
C2863 C2864 1.398 . S
C2863 C2869 1.491 . S
C2864 H2855 0.950 . S
C2864 C2863 1.398 . S
C2864 C2865 1.391 . S
C2865 H2853 0.950 . S
C2865 C2861 1.393 . S
C2865 C2864 1.391 . S
C2866 H2856 0.950 . S
C2866 C2867 1.386 . S
C2866 C2868 1.391 . S
C2867 C2866 1.386 . S
C2867 C2871 1.393 . S
C2868 H2857 0.950 . S
C2868 C2866 1.391 . S
C2868 C2869 1.400 . S
C2869 C2863 1.491 . S
C2869 C2868 1.400 . S
C2869 C2870 1.398 . S
C2870 H2858 0.950 . S
C2870 C2869 1.398 . S
C2870 C2871 1.391 . S
C2871 H2859 0.950 . S
C2871 C2867 1.393 . S
C2871 C2870 1.391 . S
H2872 C2880 0.950 . S
H2873 C2885 0.950 . S
H2874 C2882 0.950 . S
H2875 C2884 0.950 . S
H2876 C2886 0.950 . S
H2877 C2888 0.950 . S
H2878 C2890 0.950 . S
H2879 C2891 0.950 . S
C2880 H2872 0.950 . S
C2880 C2881 1.386 . S
C2880 C2882 1.391 . S
C2881 C2880 1.386 . S
C2881 C2885 1.393 . S
C2882 H2874 0.950 . S
C2882 C2880 1.391 . S
C2882 C2883 1.400 . S
C2883 C2882 1.400 . S
C2883 C2884 1.398 . S
C2883 C2889 1.491 . S
C2884 H2875 0.950 . S
C2884 C2883 1.398 . S
C2884 C2885 1.391 . S
C2885 H2873 0.950 . S
C2885 C2881 1.393 . S
C2885 C2884 1.391 . S
C2886 H2876 0.950 . S
C2886 C2887 1.386 . S
C2886 C2888 1.391 . S
C2887 C2886 1.386 . S
C2887 C2891 1.393 . S
C2888 H2877 0.950 . S
C2888 C2886 1.391 . S
C2888 C2889 1.400 . S
C2889 C2883 1.491 . S
C2889 C2888 1.400 . S
C2889 C2890 1.398 . S
C2890 H2878 0.950 . S
C2890 C2889 1.398 . S
C2890 C2891 1.391 . S
C2891 H2879 0.950 . S
C2891 C2887 1.393 . S
C2891 C2890 1.391 . S
H2892 C2900 0.950 . S
H2893 C2905 0.950 . S
H2894 C2902 0.950 . S
H2895 C2904 0.950 . S
H2896 C2906 0.950 . S
H2897 C2908 0.950 . S
H2898 C2910 0.950 . S
H2899 C2911 0.950 . S
C2900 H2892 0.950 . S
C2900 C2901 1.386 . S
C2900 C2902 1.391 . S
C2901 C2900 1.386 . S
C2901 C2905 1.393 . S
C2902 H2894 0.950 . S
C2902 C2900 1.391 . S
C2902 C2903 1.400 . S
C2903 C2902 1.400 . S
C2903 C2904 1.398 . S
C2903 C2909 1.491 . S
C2904 H2895 0.950 . S
C2904 C2903 1.398 . S
C2904 C2905 1.391 . S
C2905 H2893 0.950 . S
C2905 C2901 1.393 . S
C2905 C2904 1.391 . S
C2906 H2896 0.950 . S
C2906 C2907 1.386 . S
C2906 C2908 1.391 . S
C2907 C2906 1.386 . S
C2907 C2911 1.393 . S
C2908 H2897 0.950 . S
C2908 C2906 1.391 . S
C2908 C2909 1.400 . S
C2909 C2903 1.491 . S
C2909 C2908 1.400 . S
C2909 C2910 1.398 . S
C2910 H2898 0.950 . S
C2910 C2909 1.398 . S
C2910 C2911 1.391 . S
C2911 H2899 0.950 . S
C2911 C2907 1.393 . S
C2911 C2910 1.391 . S
H2912 C2920 0.950 . S
H2913 C2925 0.950 . S
H2914 C2922 0.950 . S
H2915 C2924 0.950 . S
H2916 C2926 0.950 . S
H2917 C2928 0.950 . S
H2918 C2930 0.950 . S
H2919 C2931 0.950 . S
C2920 H2912 0.950 . S
C2920 C2921 1.386 . S
C2920 C2922 1.391 . S
C2921 C2920 1.386 . S
C2921 C2925 1.393 . S
C2922 H2914 0.950 . S
C2922 C2920 1.391 . S
C2922 C2923 1.400 . S
C2923 C2922 1.400 . S
C2923 C2924 1.398 . S
C2923 C2929 1.491 . S
C2924 H2915 0.950 . S
C2924 C2923 1.398 . S
C2924 C2925 1.391 . S
C2925 H2913 0.950 . S
C2925 C2921 1.393 . S
C2925 C2924 1.391 . S
C2926 H2916 0.950 . S
C2926 C2927 1.386 . S
C2926 C2928 1.391 . S
C2927 C2926 1.386 . S
C2927 C2931 1.393 . S
C2928 H2917 0.950 . S
C2928 C2926 1.391 . S
C2928 C2929 1.400 . S
C2929 C2923 1.491 . S
C2929 C2928 1.400 . S
C2929 C2930 1.398 . S
C2930 H2918 0.950 . S
C2930 C2929 1.398 . S
C2930 C2931 1.391 . S
C2931 H2919 0.950 . S
C2931 C2927 1.393 . S
C2931 C2930 1.391 . S
H2932 C2940 0.950 . S
H2933 C2945 0.950 . S
H2934 C2942 0.950 . S
H2935 C2944 0.950 . S
H2936 C2946 0.950 . S
H2937 C2948 0.950 . S
H2938 C2950 0.950 . S
H2939 C2951 0.950 . S
C2940 H2932 0.950 . S
C2940 C2941 1.386 . S
C2940 C2942 1.391 . S
C2941 C2940 1.386 . S
C2941 C2945 1.393 . S
C2942 H2934 0.950 . S
C2942 C2940 1.391 . S
C2942 C2943 1.400 . S
C2943 C2942 1.400 . S
C2943 C2944 1.398 . S
C2943 C2949 1.491 . S
C2944 H2935 0.950 . S
C2944 C2943 1.398 . S
C2944 C2945 1.391 . S
C2945 H2933 0.950 . S
C2945 C2941 1.393 . S
C2945 C2944 1.391 . S
C2946 H2936 0.950 . S
C2946 C2947 1.386 . S
C2946 C2948 1.391 . S
C2947 C2946 1.386 . S
C2947 C2951 1.393 . S
C2948 H2937 0.950 . S
C2948 C2946 1.391 . S
C2948 C2949 1.400 . S
C2949 C2943 1.491 . S
C2949 C2948 1.400 . S
C2949 C2950 1.398 . S
C2950 H2938 0.950 . S
C2950 C2949 1.398 . S
C2950 C2951 1.391 . S
C2951 H2939 0.950 . S
C2951 C2947 1.393 . S
C2951 C2950 1.391 . S
H2952 C2960 0.950 . S
H2953 C2965 0.950 . S
H2954 C2962 0.950 . S
H2955 C2964 0.950 . S
H2956 C2966 0.950 . S
H2957 C2968 0.950 . S
H2958 C2970 0.950 . S
H2959 C2971 0.950 . S
C2960 H2952 0.950 . S
C2960 C2961 1.386 . S
C2960 C2962 1.391 . S
C2961 C2960 1.386 . S
C2961 C2965 1.393 . S
C2962 H2954 0.950 . S
C2962 C2960 1.391 . S
C2962 C2963 1.400 . S
C2963 C2962 1.400 . S
C2963 C2964 1.398 . S
C2963 C2969 1.491 . S
C2964 H2955 0.950 . S
C2964 C2963 1.398 . S
C2964 C2965 1.391 . S
C2965 H2953 0.950 . S
C2965 C2961 1.393 . S
C2965 C2964 1.391 . S
C2966 H2956 0.950 . S
C2966 C2967 1.386 . S
C2966 C2968 1.391 . S
C2967 C2966 1.386 . S
C2967 C2971 1.393 . S
C2968 H2957 0.950 . S
C2968 C2966 1.391 . S
C2968 C2969 1.400 . S
C2969 C2963 1.491 . S
C2969 C2968 1.400 . S
C2969 C2970 1.398 . S
C2970 H2958 0.950 . S
C2970 C2969 1.398 . S
C2970 C2971 1.391 . S
C2971 H2959 0.950 . S
C2971 C2967 1.393 . S
C2971 C2970 1.391 . S
H2972 C2980 0.950 . S
H2973 C2985 0.950 . S
H2974 C2982 0.950 . S
H2975 C2984 0.950 . S
H2976 C2986 0.950 . S
H2977 C2988 0.950 . S
H2978 C2990 0.950 . S
H2979 C2991 0.950 . S
C2980 H2972 0.950 . S
C2980 C2981 1.386 . S
C2980 C2982 1.391 . S
C2981 C2980 1.386 . S
C2981 C2985 1.393 . S
C2982 H2974 0.950 . S
C2982 C2980 1.391 . S
C2982 C2983 1.400 . S
C2983 C2982 1.400 . S
C2983 C2984 1.398 . S
C2983 C2989 1.491 . S
C2984 H2975 0.950 . S
C2984 C2983 1.398 . S
C2984 C2985 1.391 . S
C2985 H2973 0.950 . S
C2985 C2981 1.393 . S
C2985 C2984 1.391 . S
C2986 H2976 0.950 . S
C2986 C2987 1.386 . S
C2986 C2988 1.391 . S
C2987 C2986 1.386 . S
C2987 C2991 1.393 . S
C2988 H2977 0.950 . S
C2988 C2986 1.391 . S
C2988 C2989 1.400 . S
C2989 C2983 1.491 . S
C2989 C2988 1.400 . S
C2989 C2990 1.398 . S
C2990 H2978 0.950 . S
C2990 C2989 1.398 . S
C2990 C2991 1.391 . S
C2991 H2979 0.950 . S
C2991 C2987 1.393 . S
C2991 C2990 1.391 . S
H2992 C3000 0.950 . S
H2993 C3005 0.950 . S
H2994 C3002 0.950 . S
H2995 C3004 0.950 . S
H2996 C3006 0.950 . S
H2997 C3008 0.950 . S
H2998 C3010 0.950 . S
H2999 C3011 0.950 . S
C3000 H2992 0.950 . S
C3000 C3001 1.386 . S
C3000 C3002 1.391 . S
C3001 C3000 1.386 . S
C3001 C3005 1.393 . S
C3002 H2994 0.950 . S
C3002 C3000 1.391 . S
C3002 C3003 1.400 . S
C3003 C3002 1.400 . S
C3003 C3004 1.398 . S
C3003 C3009 1.491 . S
C3004 H2995 0.950 . S
C3004 C3003 1.398 . S
C3004 C3005 1.391 . S
C3005 H2993 0.950 . S
C3005 C3001 1.393 . S
C3005 C3004 1.391 . S
C3006 H2996 0.950 . S
C3006 C3007 1.386 . S
C3006 C3008 1.391 . S
C3007 C3006 1.386 . S
C3007 C3011 1.393 . S
C3008 H2997 0.950 . S
C3008 C3006 1.391 . S
C3008 C3009 1.400 . S
C3009 C3003 1.491 . S
C3009 C3008 1.400 . S
C3009 C3010 1.398 . S
C3010 H2998 0.950 . S
C3010 C3009 1.398 . S
C3010 C3011 1.391 . S
C3011 H2999 0.950 . S
C3011 C3007 1.393 . S
C3011 C3010 1.391 . S
H3012 C3020 0.950 . S
H3013 C3025 0.950 . S
H3014 C3022 0.950 . S
H3015 C3024 0.950 . S
H3016 C3026 0.950 . S
H3017 C3028 0.950 . S
H3018 C3030 0.950 . S
H3019 C3031 0.950 . S
C3020 H3012 0.950 . S
C3020 C3021 1.386 . S
C3020 C3022 1.391 . S
C3021 C3020 1.386 . S
C3021 C3025 1.393 . S
C3022 H3014 0.950 . S
C3022 C3020 1.391 . S
C3022 C3023 1.400 . S
C3023 C3022 1.400 . S
C3023 C3024 1.398 . S
C3023 C3029 1.491 . S
C3024 H3015 0.950 . S
C3024 C3023 1.398 . S
C3024 C3025 1.391 . S
C3025 H3013 0.950 . S
C3025 C3021 1.393 . S
C3025 C3024 1.391 . S
C3026 H3016 0.950 . S
C3026 C3027 1.386 . S
C3026 C3028 1.391 . S
C3027 C3026 1.386 . S
C3027 C3031 1.393 . S
C3028 H3017 0.950 . S
C3028 C3026 1.391 . S
C3028 C3029 1.400 . S
C3029 C3023 1.491 . S
C3029 C3028 1.400 . S
C3029 C3030 1.398 . S
C3030 H3018 0.950 . S
C3030 C3029 1.398 . S
C3030 C3031 1.391 . S
C3031 H3019 0.950 . S
C3031 C3027 1.393 . S
C3031 C3030 1.391 . S
H3032 C3040 0.950 . S
H3033 C3045 0.950 . S
H3034 C3042 0.950 . S
H3035 C3044 0.950 . S
H3036 C3046 0.950 . S
H3037 C3048 0.950 . S
H3038 C3050 0.950 . S
H3039 C3051 0.950 . S
C3040 H3032 0.950 . S
C3040 C3041 1.386 . S
C3040 C3042 1.391 . S
C3041 C3040 1.386 . S
C3041 C3045 1.393 . S
C3042 H3034 0.950 . S
C3042 C3040 1.391 . S
C3042 C3043 1.400 . S
C3043 C3042 1.400 . S
C3043 C3044 1.398 . S
C3043 C3049 1.491 . S
C3044 H3035 0.950 . S
C3044 C3043 1.398 . S
C3044 C3045 1.391 . S
C3045 H3033 0.950 . S
C3045 C3041 1.393 . S
C3045 C3044 1.391 . S
C3046 H3036 0.950 . S
C3046 C3047 1.386 . S
C3046 C3048 1.391 . S
C3047 C3046 1.386 . S
C3047 C3051 1.393 . S
C3048 H3037 0.950 . S
C3048 C3046 1.391 . S
C3048 C3049 1.400 . S
C3049 C3043 1.491 . S
C3049 C3048 1.400 . S
C3049 C3050 1.398 . S
C3050 H3038 0.950 . S
C3050 C3049 1.398 . S
C3050 C3051 1.391 . S
C3051 H3039 0.950 . S
C3051 C3047 1.393 . S
C3051 C3050 1.391 . S
H3052 C3060 0.950 . S
H3053 C3065 0.950 . S
H3054 C3062 0.950 . S
H3055 C3064 0.950 . S
H3056 C3066 0.950 . S
H3057 C3068 0.950 . S
H3058 C3070 0.950 . S
H3059 C3071 0.950 . S
C3060 H3052 0.950 . S
C3060 C3061 1.386 . S
C3060 C3062 1.391 . S
C3061 C3060 1.386 . S
C3061 C3065 1.393 . S
C3062 H3054 0.950 . S
C3062 C3060 1.391 . S
C3062 C3063 1.400 . S
C3063 C3062 1.400 . S
C3063 C3064 1.398 . S
C3063 C3069 1.491 . S
C3064 H3055 0.950 . S
C3064 C3063 1.398 . S
C3064 C3065 1.391 . S
C3065 H3053 0.950 . S
C3065 C3061 1.393 . S
C3065 C3064 1.391 . S
C3066 H3056 0.950 . S
C3066 C3067 1.386 . S
C3066 C3068 1.391 . S
C3067 C3066 1.386 . S
C3067 C3071 1.393 . S
C3068 H3057 0.950 . S
C3068 C3066 1.391 . S
C3068 C3069 1.400 . S
C3069 C3063 1.491 . S
C3069 C3068 1.400 . S
C3069 C3070 1.398 . S
C3070 H3058 0.950 . S
C3070 C3069 1.398 . S
C3070 C3071 1.391 . S
C3071 H3059 0.950 . S
C3071 C3067 1.393 . S
C3071 C3070 1.391 . S
H3072 C3080 0.950 . S
H3073 C3085 0.950 . S
H3074 C3082 0.950 . S
H3075 C3084 0.950 . S
H3076 C3086 0.950 . S
H3077 C3088 0.950 . S
H3078 C3090 0.950 . S
H3079 C3091 0.950 . S
C3080 H3072 0.950 . S
C3080 C3081 1.386 . S
C3080 C3082 1.391 . S
C3081 C3080 1.386 . S
C3081 C3085 1.393 . S
C3082 H3074 0.950 . S
C3082 C3080 1.391 . S
C3082 C3083 1.400 . S
C3083 C3082 1.400 . S
C3083 C3084 1.398 . S
C3083 C3089 1.491 . S
C3084 H3075 0.950 . S
C3084 C3083 1.398 . S
C3084 C3085 1.391 . S
C3085 H3073 0.950 . S
C3085 C3081 1.393 . S
C3085 C3084 1.391 . S
C3086 H3076 0.950 . S
C3086 C3087 1.386 . S
C3086 C3088 1.391 . S
C3087 C3086 1.386 . S
C3087 C3091 1.393 . S
C3088 H3077 0.950 . S
C3088 C3086 1.391 . S
C3088 C3089 1.400 . S
C3089 C3083 1.491 . S
C3089 C3088 1.400 . S
C3089 C3090 1.398 . S
C3090 H3078 0.950 . S
C3090 C3089 1.398 . S
C3090 C3091 1.391 . S
C3091 H3079 0.950 . S
C3091 C3087 1.393 . S
C3091 C3090 1.391 . S
H3092 C3100 0.950 . S
H3093 C3105 0.950 . S
H3094 C3102 0.950 . S
H3095 C3104 0.950 . S
H3096 C3106 0.950 . S
H3097 C3108 0.950 . S
H3098 C3110 0.950 . S
H3099 C3111 0.950 . S
C3100 H3092 0.950 . S
C3100 C3101 1.386 . S
C3100 C3102 1.391 . S
C3101 C3100 1.386 . S
C3101 C3105 1.393 . S
C3102 H3094 0.950 . S
C3102 C3100 1.391 . S
C3102 C3103 1.400 . S
C3103 C3102 1.400 . S
C3103 C3104 1.398 . S
C3103 C3109 1.491 . S
C3104 H3095 0.950 . S
C3104 C3103 1.398 . S
C3104 C3105 1.391 . S
C3105 H3093 0.950 . S
C3105 C3101 1.393 . S
C3105 C3104 1.391 . S
C3106 H3096 0.950 . S
C3106 C3107 1.386 . S
C3106 C3108 1.391 . S
C3107 C3106 1.386 . S
C3107 C3111 1.393 . S
C3108 H3097 0.950 . S
C3108 C3106 1.391 . S
C3108 C3109 1.400 . S
C3109 C3103 1.491 . S
C3109 C3108 1.400 . S
C3109 C3110 1.398 . S
C3110 H3098 0.950 . S
C3110 C3109 1.398 . S
C3110 C3111 1.391 . S
C3111 H3099 0.950 . S
C3111 C3107 1.393 . S
C3111 C3110 1.391 . S
H3112 C3120 0.950 . S
H3113 C3125 0.950 . S
H3114 C3122 0.950 . S
H3115 C3124 0.950 . S
H3116 C3126 0.950 . S
H3117 C3128 0.950 . S
H3118 C3130 0.950 . S
H3119 C3131 0.950 . S
C3120 H3112 0.950 . S
C3120 C3121 1.386 . S
C3120 C3122 1.391 . S
C3121 C3120 1.386 . S
C3121 C3125 1.393 . S
C3122 H3114 0.950 . S
C3122 C3120 1.391 . S
C3122 C3123 1.400 . S
C3123 C3122 1.400 . S
C3123 C3124 1.398 . S
C3123 C3129 1.491 . S
C3124 H3115 0.950 . S
C3124 C3123 1.398 . S
C3124 C3125 1.391 . S
C3125 H3113 0.950 . S
C3125 C3121 1.393 . S
C3125 C3124 1.391 . S
C3126 H3116 0.950 . S
C3126 C3127 1.386 . S
C3126 C3128 1.391 . S
C3127 C3126 1.386 . S
C3127 C3131 1.393 . S
C3128 H3117 0.950 . S
C3128 C3126 1.391 . S
C3128 C3129 1.400 . S
C3129 C3123 1.491 . S
C3129 C3128 1.400 . S
C3129 C3130 1.398 . S
C3130 H3118 0.950 . S
C3130 C3129 1.398 . S
C3130 C3131 1.391 . S
C3131 H3119 0.950 . S
C3131 C3127 1.393 . S
C3131 C3130 1.391 . S
H3132 C3140 0.950 . S
H3133 C3145 0.950 . S
H3134 C3142 0.950 . S
H3135 C3144 0.950 . S
H3136 C3146 0.950 . S
H3137 C3148 0.950 . S
H3138 C3150 0.950 . S
H3139 C3151 0.950 . S
C3140 H3132 0.950 . S
C3140 C3141 1.386 . S
C3140 C3142 1.391 . S
C3141 C3140 1.386 . S
C3141 C3145 1.393 . S
C3142 H3134 0.950 . S
C3142 C3140 1.391 . S
C3142 C3143 1.400 . S
C3143 C3142 1.400 . S
C3143 C3144 1.398 . S
C3143 C3149 1.491 . S
C3144 H3135 0.950 . S
C3144 C3143 1.398 . S
C3144 C3145 1.391 . S
C3145 H3133 0.950 . S
C3145 C3141 1.393 . S
C3145 C3144 1.391 . S
C3146 H3136 0.950 . S
C3146 C3147 1.386 . S
C3146 C3148 1.391 . S
C3147 C3146 1.386 . S
C3147 C3151 1.393 . S
C3148 H3137 0.950 . S
C3148 C3146 1.391 . S
C3148 C3149 1.400 . S
C3149 C3143 1.491 . S
C3149 C3148 1.400 . S
C3149 C3150 1.398 . S
C3150 H3138 0.950 . S
C3150 C3149 1.398 . S
C3150 C3151 1.391 . S
C3151 H3139 0.950 . S
C3151 C3147 1.393 . S
C3151 C3150 1.391 . S
H3152 C3160 0.950 . S
H3153 C3165 0.950 . S
H3154 C3162 0.950 . S
H3155 C3164 0.950 . S
H3156 C3166 0.950 . S
H3157 C3168 0.950 . S
H3158 C3170 0.950 . S
H3159 C3171 0.950 . S
C3160 H3152 0.950 . S
C3160 C3161 1.386 . S
C3160 C3162 1.391 . S
C3161 C3160 1.386 . S
C3161 C3165 1.393 . S
C3162 H3154 0.950 . S
C3162 C3160 1.391 . S
C3162 C3163 1.400 . S
C3163 C3162 1.400 . S
C3163 C3164 1.398 . S
C3163 C3169 1.491 . S
C3164 H3155 0.950 . S
C3164 C3163 1.398 . S
C3164 C3165 1.391 . S
C3165 H3153 0.950 . S
C3165 C3161 1.393 . S
C3165 C3164 1.391 . S
C3166 H3156 0.950 . S
C3166 C3167 1.386 . S
C3166 C3168 1.391 . S
C3167 C3166 1.386 . S
C3167 C3171 1.393 . S
C3168 H3157 0.950 . S
C3168 C3166 1.391 . S
C3168 C3169 1.400 . S
C3169 C3163 1.491 . S
C3169 C3168 1.400 . S
C3169 C3170 1.398 . S
C3170 H3158 0.950 . S
C3170 C3169 1.398 . S
C3170 C3171 1.391 . S
C3171 H3159 0.950 . S
C3171 C3167 1.393 . S
C3171 C3170 1.391 . S
H3172 C3180 0.950 . S
H3173 C3185 0.950 . S
H3174 C3182 0.950 . S
H3175 C3184 0.950 . S
H3176 C3186 0.950 . S
H3177 C3188 0.950 . S
H3178 C3190 0.950 . S
H3179 C3191 0.950 . S
C3180 H3172 0.950 . S
C3180 C3181 1.386 . S
C3180 C3182 1.391 . S
C3181 C3180 1.386 . S
C3181 C3185 1.393 . S
C3182 H3174 0.950 . S
C3182 C3180 1.391 . S
C3182 C3183 1.400 . S
C3183 C3182 1.400 . S
C3183 C3184 1.398 . S
C3183 C3189 1.491 . S
C3184 H3175 0.950 . S
C3184 C3183 1.398 . S
C3184 C3185 1.391 . S
C3185 H3173 0.950 . S
C3185 C3181 1.393 . S
C3185 C3184 1.391 . S
C3186 H3176 0.950 . S
C3186 C3187 1.386 . S
C3186 C3188 1.391 . S
C3187 C3186 1.386 . S
C3187 C3191 1.393 . S
C3188 H3177 0.950 . S
C3188 C3186 1.391 . S
C3188 C3189 1.400 . S
C3189 C3183 1.491 . S
C3189 C3188 1.400 . S
C3189 C3190 1.398 . S
C3190 H3178 0.950 . S
C3190 C3189 1.398 . S
C3190 C3191 1.391 . S
C3191 H3179 0.950 . S
C3191 C3187 1.393 . S
C3191 C3190 1.391 . S
H3192 C3200 0.950 . S
H3193 C3205 0.950 . S
H3194 C3202 0.950 . S
H3195 C3204 0.950 . S
H3196 C3206 0.950 . S
H3197 C3208 0.950 . S
H3198 C3210 0.950 . S
H3199 C3211 0.950 . S
C3200 H3192 0.950 . S
C3200 C3201 1.386 . S
C3200 C3202 1.391 . S
C3201 C3200 1.386 . S
C3201 C3205 1.393 . S
C3202 H3194 0.950 . S
C3202 C3200 1.391 . S
C3202 C3203 1.400 . S
C3203 C3202 1.400 . S
C3203 C3204 1.398 . S
C3203 C3209 1.491 . S
C3204 H3195 0.950 . S
C3204 C3203 1.398 . S
C3204 C3205 1.391 . S
C3205 H3193 0.950 . S
C3205 C3201 1.393 . S
C3205 C3204 1.391 . S
C3206 H3196 0.950 . S
C3206 C3207 1.386 . S
C3206 C3208 1.391 . S
C3207 C3206 1.386 . S
C3207 C3211 1.393 . S
C3208 H3197 0.950 . S
C3208 C3206 1.391 . S
C3208 C3209 1.400 . S
C3209 C3203 1.491 . S
C3209 C3208 1.400 . S
C3209 C3210 1.398 . S
C3210 H3198 0.950 . S
C3210 C3209 1.398 . S
C3210 C3211 1.391 . S
C3211 H3199 0.950 . S
C3211 C3207 1.393 . S
C3211 C3210 1.391 . S
H3212 C3220 0.950 . S
H3213 C3225 0.950 . S
H3214 C3222 0.950 . S
H3215 C3224 0.950 . S
H3216 C3226 0.950 . S
H3217 C3228 0.950 . S
H3218 C3230 0.950 . S
H3219 C3231 0.950 . S
C3220 H3212 0.950 . S
C3220 C3221 1.386 . S
C3220 C3222 1.391 . S
C3221 C3220 1.386 . S
C3221 C3225 1.393 . S
C3222 H3214 0.950 . S
C3222 C3220 1.391 . S
C3222 C3223 1.400 . S
C3223 C3222 1.400 . S
C3223 C3224 1.398 . S
C3223 C3229 1.491 . S
C3224 H3215 0.950 . S
C3224 C3223 1.398 . S
C3224 C3225 1.391 . S
C3225 H3213 0.950 . S
C3225 C3221 1.393 . S
C3225 C3224 1.391 . S
C3226 H3216 0.950 . S
C3226 C3227 1.386 . S
C3226 C3228 1.391 . S
C3227 C3226 1.386 . S
C3227 C3231 1.393 . S
C3228 H3217 0.950 . S
C3228 C3226 1.391 . S
C3228 C3229 1.400 . S
C3229 C3223 1.491 . S
C3229 C3228 1.400 . S
C3229 C3230 1.398 . S
C3230 H3218 0.950 . S
C3230 C3229 1.398 . S
C3230 C3231 1.391 . S
C3231 H3219 0.950 . S
C3231 C3227 1.393 . S
C3231 C3230 1.391 . S
H3232 C3240 0.950 . S
H3233 C3245 0.950 . S
H3234 C3242 0.950 . S
H3235 C3244 0.950 . S
H3236 C3246 0.950 . S
H3237 C3248 0.950 . S
H3238 C3250 0.950 . S
H3239 C3251 0.950 . S
C3240 H3232 0.950 . S
C3240 C3241 1.386 . S
C3240 C3242 1.391 . S
C3241 C3240 1.386 . S
C3241 C3245 1.393 . S
C3242 H3234 0.950 . S
C3242 C3240 1.391 . S
C3242 C3243 1.400 . S
C3243 C3242 1.400 . S
C3243 C3244 1.398 . S
C3243 C3249 1.491 . S
C3244 H3235 0.950 . S
C3244 C3243 1.398 . S
C3244 C3245 1.391 . S
C3245 H3233 0.950 . S
C3245 C3241 1.393 . S
C3245 C3244 1.391 . S
C3246 H3236 0.950 . S
C3246 C3247 1.386 . S
C3246 C3248 1.391 . S
C3247 C3246 1.386 . S
C3247 C3251 1.393 . S
C3248 H3237 0.950 . S
C3248 C3246 1.391 . S
C3248 C3249 1.400 . S
C3249 C3243 1.491 . S
C3249 C3248 1.400 . S
C3249 C3250 1.398 . S
C3250 H3238 0.950 . S
C3250 C3249 1.398 . S
C3250 C3251 1.391 . S
C3251 H3239 0.950 . S
C3251 C3247 1.393 . S
C3251 C3250 1.391 . S
H3252 C3260 0.950 . S
H3253 C3265 0.950 . S
H3254 C3262 0.950 . S
H3255 C3264 0.950 . S
H3256 C3266 0.950 . S
H3257 C3268 0.950 . S
H3258 C3270 0.950 . S
H3259 C3271 0.950 . S
C3260 H3252 0.950 . S
C3260 C3261 1.386 . S
C3260 C3262 1.391 . S
C3261 C3260 1.386 . S
C3261 C3265 1.393 . S
C3262 H3254 0.950 . S
C3262 C3260 1.391 . S
C3262 C3263 1.400 . S
C3263 C3262 1.400 . S
C3263 C3264 1.398 . S
C3263 C3269 1.491 . S
C3264 H3255 0.950 . S
C3264 C3263 1.398 . S
C3264 C3265 1.391 . S
C3265 H3253 0.950 . S
C3265 C3261 1.393 . S
C3265 C3264 1.391 . S
C3266 H3256 0.950 . S
C3266 C3267 1.386 . S
C3266 C3268 1.391 . S
C3267 C3266 1.386 . S
C3267 C3271 1.393 . S
C3268 H3257 0.950 . S
C3268 C3266 1.391 . S
C3268 C3269 1.400 . S
C3269 C3263 1.491 . S
C3269 C3268 1.400 . S
C3269 C3270 1.398 . S
C3270 H3258 0.950 . S
C3270 C3269 1.398 . S
C3270 C3271 1.391 . S
C3271 H3259 0.950 . S
C3271 C3267 1.393 . S
C3271 C3270 1.391 . S
H3272 C3280 0.950 . S
H3273 C3285 0.950 . S
H3274 C3282 0.950 . S
H3275 C3284 0.950 . S
H3276 C3286 0.950 . S
H3277 C3288 0.950 . S
H3278 C3290 0.950 . S
H3279 C3291 0.950 . S
C3280 H3272 0.950 . S
C3280 C3281 1.386 . S
C3280 C3282 1.391 . S
C3281 C3280 1.386 . S
C3281 C3285 1.393 . S
C3282 H3274 0.950 . S
C3282 C3280 1.391 . S
C3282 C3283 1.400 . S
C3283 C3282 1.400 . S
C3283 C3284 1.398 . S
C3283 C3289 1.491 . S
C3284 H3275 0.950 . S
C3284 C3283 1.398 . S
C3284 C3285 1.391 . S
C3285 H3273 0.950 . S
C3285 C3281 1.393 . S
C3285 C3284 1.391 . S
C3286 H3276 0.950 . S
C3286 C3287 1.386 . S
C3286 C3288 1.391 . S
C3287 C3286 1.386 . S
C3287 C3291 1.393 . S
C3288 H3277 0.950 . S
C3288 C3286 1.391 . S
C3288 C3289 1.400 . S
C3289 C3283 1.491 . S
C3289 C3288 1.400 . S
C3289 C3290 1.398 . S
C3290 H3278 0.950 . S
C3290 C3289 1.398 . S
C3290 C3291 1.391 . S
C3291 H3279 0.950 . S
C3291 C3287 1.393 . S
C3291 C3290 1.391 . S
H3292 C3300 0.950 . S
H3293 C3305 0.950 . S
H3294 C3302 0.950 . S
H3295 C3304 0.950 . S
H3296 C3306 0.950 . S
H3297 C3308 0.950 . S
H3298 C3310 0.950 . S
H3299 C3311 0.950 . S
C3300 H3292 0.950 . S
C3300 C3301 1.386 . S
C3300 C3302 1.391 . S
C3301 C3300 1.386 . S
C3301 C3305 1.393 . S
C3302 H3294 0.950 . S
C3302 C3300 1.391 . S
C3302 C3303 1.400 . S
C3303 C3302 1.400 . S
C3303 C3304 1.398 . S
C3303 C3309 1.491 . S
C3304 H3295 0.950 . S
C3304 C3303 1.398 . S
C3304 C3305 1.391 . S
C3305 H3293 0.950 . S
C3305 C3301 1.393 . S
C3305 C3304 1.391 . S
C3306 H3296 0.950 . S
C3306 C3307 1.386 . S
C3306 C3308 1.391 . S
C3307 C3306 1.386 . S
C3307 C3311 1.393 . S
C3308 H3297 0.950 . S
C3308 C3306 1.391 . S
C3308 C3309 1.400 . S
C3309 C3303 1.491 . S
C3309 C3308 1.400 . S
C3309 C3310 1.398 . S
C3310 H3298 0.950 . S
C3310 C3309 1.398 . S
C3310 C3311 1.391 . S
C3311 H3299 0.950 . S
C3311 C3307 1.393 . S
C3311 C3310 1.391 . S
H3312 C3320 0.950 . S
H3313 C3325 0.950 . S
H3314 C3322 0.950 . S
H3315 C3324 0.950 . S
H3316 C3326 0.950 . S
H3317 C3328 0.950 . S
H3318 C3330 0.950 . S
H3319 C3331 0.950 . S
C3320 H3312 0.950 . S
C3320 C3321 1.386 . S
C3320 C3322 1.391 . S
C3321 C3320 1.386 . S
C3321 C3325 1.393 . S
C3322 H3314 0.950 . S
C3322 C3320 1.391 . S
C3322 C3323 1.400 . S
C3323 C3322 1.400 . S
C3323 C3324 1.398 . S
C3323 C3329 1.491 . S
C3324 H3315 0.950 . S
C3324 C3323 1.398 . S
C3324 C3325 1.391 . S
C3325 H3313 0.950 . S
C3325 C3321 1.393 . S
C3325 C3324 1.391 . S
C3326 H3316 0.950 . S
C3326 C3327 1.386 . S
C3326 C3328 1.391 . S
C3327 C3326 1.386 . S
C3327 C3331 1.393 . S
C3328 H3317 0.950 . S
C3328 C3326 1.391 . S
C3328 C3329 1.400 . S
C3329 C3323 1.491 . S
C3329 C3328 1.400 . S
C3329 C3330 1.398 . S
C3330 H3318 0.950 . S
C3330 C3329 1.398 . S
C3330 C3331 1.391 . S
C3331 H3319 0.950 . S
C3331 C3327 1.393 . S
C3331 C3330 1.391 . S
H3332 C3340 0.950 . S
H3333 C3345 0.950 . S
H3334 C3342 0.950 . S
H3335 C3344 0.950 . S
H3336 C3346 0.950 . S
H3337 C3348 0.950 . S
H3338 C3350 0.950 . S
H3339 C3351 0.950 . S
C3340 H3332 0.950 . S
C3340 C3341 1.386 . S
C3340 C3342 1.391 . S
C3341 C3340 1.386 . S
C3341 C3345 1.393 . S
C3342 H3334 0.950 . S
C3342 C3340 1.391 . S
C3342 C3343 1.400 . S
C3343 C3342 1.400 . S
C3343 C3344 1.398 . S
C3343 C3349 1.491 . S
C3344 H3335 0.950 . S
C3344 C3343 1.398 . S
C3344 C3345 1.391 . S
C3345 H3333 0.950 . S
C3345 C3341 1.393 . S
C3345 C3344 1.391 . S
C3346 H3336 0.950 . S
C3346 C3347 1.386 . S
C3346 C3348 1.391 . S
C3347 C3346 1.386 . S
C3347 C3351 1.393 . S
C3348 H3337 0.950 . S
C3348 C3346 1.391 . S
C3348 C3349 1.400 . S
C3349 C3343 1.491 . S
C3349 C3348 1.400 . S
C3349 C3350 1.398 . S
C3350 H3338 0.950 . S
C3350 C3349 1.398 . S
C3350 C3351 1.391 . S
C3351 H3339 0.950 . S
C3351 C3347 1.393 . S
C3351 C3350 1.391 . S
H3352 C3360 0.950 . S
H3353 C3365 0.950 . S
H3354 C3362 0.950 . S
H3355 C3364 0.950 . S
H3356 C3366 0.950 . S
H3357 C3368 0.950 . S
H3358 C3370 0.950 . S
H3359 C3371 0.950 . S
C3360 H3352 0.950 . S
C3360 C3361 1.386 . S
C3360 C3362 1.391 . S
C3361 C3360 1.386 . S
C3361 C3365 1.393 . S
C3362 H3354 0.950 . S
C3362 C3360 1.391 . S
C3362 C3363 1.400 . S
C3363 C3362 1.400 . S
C3363 C3364 1.398 . S
C3363 C3369 1.491 . S
C3364 H3355 0.950 . S
C3364 C3363 1.398 . S
C3364 C3365 1.391 . S
C3365 H3353 0.950 . S
C3365 C3361 1.393 . S
C3365 C3364 1.391 . S
C3366 H3356 0.950 . S
C3366 C3367 1.386 . S
C3366 C3368 1.391 . S
C3367 C3366 1.386 . S
C3367 C3371 1.393 . S
C3368 H3357 0.950 . S
C3368 C3366 1.391 . S
C3368 C3369 1.400 . S
C3369 C3363 1.491 . S
C3369 C3368 1.400 . S
C3369 C3370 1.398 . S
C3370 H3358 0.950 . S
C3370 C3369 1.398 . S
C3370 C3371 1.391 . S
C3371 H3359 0.950 . S
C3371 C3367 1.393 . S
C3371 C3370 1.391 . S
H3372 C3380 0.950 . S
H3373 C3385 0.950 . S
H3374 C3382 0.950 . S
H3375 C3384 0.950 . S
H3376 C3386 0.950 . S
H3377 C3388 0.950 . S
H3378 C3390 0.950 . S
H3379 C3391 0.950 . S
C3380 H3372 0.950 . S
C3380 C3381 1.386 . S
C3380 C3382 1.391 . S
C3381 C3380 1.386 . S
C3381 C3385 1.393 . S
C3382 H3374 0.950 . S
C3382 C3380 1.391 . S
C3382 C3383 1.400 . S
C3383 C3382 1.400 . S
C3383 C3384 1.398 . S
C3383 C3389 1.491 . S
C3384 H3375 0.950 . S
C3384 C3383 1.398 . S
C3384 C3385 1.391 . S
C3385 H3373 0.950 . S
C3385 C3381 1.393 . S
C3385 C3384 1.391 . S
C3386 H3376 0.950 . S
C3386 C3387 1.386 . S
C3386 C3388 1.391 . S
C3387 C3386 1.386 . S
C3387 C3391 1.393 . S
C3388 H3377 0.950 . S
C3388 C3386 1.391 . S
C3388 C3389 1.400 . S
C3389 C3383 1.491 . S
C3389 C3388 1.400 . S
C3389 C3390 1.398 . S
C3390 H3378 0.950 . S
C3390 C3389 1.398 . S
C3390 C3391 1.391 . S
C3391 H3379 0.950 . S
C3391 C3387 1.393 . S
C3391 C3390 1.391 . S
H3392 C3400 0.950 . S
H3393 C3405 0.950 . S
H3394 C3402 0.950 . S
H3395 C3404 0.950 . S
H3396 C3406 0.950 . S
H3397 C3408 0.950 . S
H3398 C3410 0.950 . S
H3399 C3411 0.950 . S
C3400 H3392 0.950 . S
C3400 C3401 1.386 . S
C3400 C3402 1.391 . S
C3401 C3400 1.386 . S
C3401 C3405 1.393 . S
C3402 H3394 0.950 . S
C3402 C3400 1.391 . S
C3402 C3403 1.400 . S
C3403 C3402 1.400 . S
C3403 C3404 1.398 . S
C3403 C3409 1.491 . S
C3404 H3395 0.950 . S
C3404 C3403 1.398 . S
C3404 C3405 1.391 . S
C3405 H3393 0.950 . S
C3405 C3401 1.393 . S
C3405 C3404 1.391 . S
C3406 H3396 0.950 . S
C3406 C3407 1.386 . S
C3406 C3408 1.391 . S
C3407 C3406 1.386 . S
C3407 C3411 1.393 . S
C3408 H3397 0.950 . S
C3408 C3406 1.391 . S
C3408 C3409 1.400 . S
C3409 C3403 1.491 . S
C3409 C3408 1.400 . S
C3409 C3410 1.398 . S
C3410 H3398 0.950 . S
C3410 C3409 1.398 . S
C3410 C3411 1.391 . S
C3411 H3399 0.950 . S
C3411 C3407 1.393 . S
C3411 C3410 1.391 . S
H3412 C3420 0.950 . S
H3413 C3425 0.950 . S
H3414 C3422 0.950 . S
H3415 C3424 0.950 . S
H3416 C3426 0.950 . S
H3417 C3428 0.950 . S
H3418 C3430 0.950 . S
H3419 C3431 0.950 . S
C3420 H3412 0.950 . S
C3420 C3421 1.386 . S
C3420 C3422 1.391 . S
C3421 C3420 1.386 . S
C3421 C3425 1.393 . S
C3422 H3414 0.950 . S
C3422 C3420 1.391 . S
C3422 C3423 1.400 . S
C3423 C3422 1.400 . S
C3423 C3424 1.398 . S
C3423 C3429 1.491 . S
C3424 H3415 0.950 . S
C3424 C3423 1.398 . S
C3424 C3425 1.391 . S
C3425 H3413 0.950 . S
C3425 C3421 1.393 . S
C3425 C3424 1.391 . S
C3426 H3416 0.950 . S
C3426 C3427 1.386 . S
C3426 C3428 1.391 . S
C3427 C3426 1.386 . S
C3427 C3431 1.393 . S
C3428 H3417 0.950 . S
C3428 C3426 1.391 . S
C3428 C3429 1.400 . S
C3429 C3423 1.491 . S
C3429 C3428 1.400 . S
C3429 C3430 1.398 . S
C3430 H3418 0.950 . S
C3430 C3429 1.398 . S
C3430 C3431 1.391 . S
C3431 H3419 0.950 . S
C3431 C3427 1.393 . S
C3431 C3430 1.391 . S
H3432 C3440 0.950 . S
H3433 C3445 0.950 . S
H3434 C3442 0.950 . S
H3435 C3444 0.950 . S
H3436 C3446 0.950 . S
H3437 C3448 0.950 . S
H3438 C3450 0.950 . S
H3439 C3451 0.950 . S
C3440 H3432 0.950 . S
C3440 C3441 1.386 . S
C3440 C3442 1.391 . S
C3441 C3440 1.386 . S
C3441 C3445 1.393 . S
C3442 H3434 0.950 . S
C3442 C3440 1.391 . S
C3442 C3443 1.400 . S
C3443 C3442 1.400 . S
C3443 C3444 1.398 . S
C3443 C3449 1.491 . S
C3444 H3435 0.950 . S
C3444 C3443 1.398 . S
C3444 C3445 1.391 . S
C3445 H3433 0.950 . S
C3445 C3441 1.393 . S
C3445 C3444 1.391 . S
C3446 H3436 0.950 . S
C3446 C3447 1.386 . S
C3446 C3448 1.391 . S
C3447 C3446 1.386 . S
C3447 C3451 1.393 . S
C3448 H3437 0.950 . S
C3448 C3446 1.391 . S
C3448 C3449 1.400 . S
C3449 C3443 1.491 . S
C3449 C3448 1.400 . S
C3449 C3450 1.398 . S
C3450 H3438 0.950 . S
C3450 C3449 1.398 . S
C3450 C3451 1.391 . S
C3451 H3439 0.950 . S
C3451 C3447 1.393 . S
C3451 C3450 1.391 . S
H3452 C3460 0.950 . S
H3453 C3465 0.950 . S
H3454 C3462 0.950 . S
H3455 C3464 0.950 . S
H3456 C3466 0.950 . S
H3457 C3468 0.950 . S
H3458 C3470 0.950 . S
H3459 C3471 0.950 . S
C3460 H3452 0.950 . S
C3460 C3461 1.386 . S
C3460 C3462 1.391 . S
C3461 C3460 1.386 . S
C3461 C3465 1.393 . S
C3462 H3454 0.950 . S
C3462 C3460 1.391 . S
C3462 C3463 1.400 . S
C3463 C3462 1.400 . S
C3463 C3464 1.398 . S
C3463 C3469 1.491 . S
C3464 H3455 0.950 . S
C3464 C3463 1.398 . S
C3464 C3465 1.391 . S
C3465 H3453 0.950 . S
C3465 C3461 1.393 . S
C3465 C3464 1.391 . S
C3466 H3456 0.950 . S
C3466 C3467 1.386 . S
C3466 C3468 1.391 . S
C3467 C3466 1.386 . S
C3467 C3471 1.393 . S
C3468 H3457 0.950 . S
C3468 C3466 1.391 . S
C3468 C3469 1.400 . S
C3469 C3463 1.491 . S
C3469 C3468 1.400 . S
C3469 C3470 1.398 . S
C3470 H3458 0.950 . S
C3470 C3469 1.398 . S
C3470 C3471 1.391 . S
C3471 H3459 0.950 . S
C3471 C3467 1.393 . S
C3471 C3470 1.391 . S
H3472 C3480 0.950 . S
H3473 C3485 0.950 . S
H3474 C3482 0.950 . S
H3475 C3484 0.950 . S
H3476 C3486 0.950 . S
H3477 C3488 0.950 . S
H3478 C3490 0.950 . S
H3479 C3491 0.950 . S
C3480 H3472 0.950 . S
C3480 C3481 1.386 . S
C3480 C3482 1.391 . S
C3481 C3480 1.386 . S
C3481 C3485 1.393 . S
C3482 H3474 0.950 . S
C3482 C3480 1.391 . S
C3482 C3483 1.400 . S
C3483 C3482 1.400 . S
C3483 C3484 1.398 . S
C3483 C3489 1.491 . S
C3484 H3475 0.950 . S
C3484 C3483 1.398 . S
C3484 C3485 1.391 . S
C3485 H3473 0.950 . S
C3485 C3481 1.393 . S
C3485 C3484 1.391 . S
C3486 H3476 0.950 . S
C3486 C3487 1.386 . S
C3486 C3488 1.391 . S
C3487 C3486 1.386 . S
C3487 C3491 1.393 . S
C3488 H3477 0.950 . S
C3488 C3486 1.391 . S
C3488 C3489 1.400 . S
C3489 C3483 1.491 . S
C3489 C3488 1.400 . S
C3489 C3490 1.398 . S
C3490 H3478 0.950 . S
C3490 C3489 1.398 . S
C3490 C3491 1.391 . S
C3491 H3479 0.950 . S
C3491 C3487 1.393 . S
C3491 C3490 1.391 . S
H3492 C3500 0.950 . S
H3493 C3505 0.950 . S
H3494 C3502 0.950 . S
H3495 C3504 0.950 . S
H3496 C3506 0.950 . S
H3497 C3508 0.950 . S
H3498 C3510 0.950 . S
H3499 C3511 0.950 . S
C3500 H3492 0.950 . S
C3500 C3501 1.386 . S
C3500 C3502 1.391 . S
C3501 C3500 1.386 . S
C3501 C3505 1.393 . S
C3502 H3494 0.950 . S
C3502 C3500 1.391 . S
C3502 C3503 1.400 . S
C3503 C3502 1.400 . S
C3503 C3504 1.398 . S
C3503 C3509 1.491 . S
C3504 H3495 0.950 . S
C3504 C3503 1.398 . S
C3504 C3505 1.391 . S
C3505 H3493 0.950 . S
C3505 C3501 1.393 . S
C3505 C3504 1.391 . S
C3506 H3496 0.950 . S
C3506 C3507 1.386 . S
C3506 C3508 1.391 . S
C3507 C3506 1.386 . S
C3507 C3511 1.393 . S
C3508 H3497 0.950 . S
C3508 C3506 1.391 . S
C3508 C3509 1.400 . S
C3509 C3503 1.491 . S
C3509 C3508 1.400 . S
C3509 C3510 1.398 . S
C3510 H3498 0.950 . S
C3510 C3509 1.398 . S
C3510 C3511 1.391 . S
C3511 H3499 0.950 . S
C3511 C3507 1.393 . S
C3511 C3510 1.391 . S
H3512 C3520 0.950 . S
H3513 C3525 0.950 . S
H3514 C3522 0.950 . S
H3515 C3524 0.950 . S
H3516 C3526 0.950 . S
H3517 C3528 0.950 . S
H3518 C3530 0.950 . S
H3519 C3531 0.950 . S
C3520 H3512 0.950 . S
C3520 C3521 1.386 . S
C3520 C3522 1.391 . S
C3521 C3520 1.386 . S
C3521 C3525 1.393 . S
C3522 H3514 0.950 . S
C3522 C3520 1.391 . S
C3522 C3523 1.400 . S
C3523 C3522 1.400 . S
C3523 C3524 1.398 . S
C3523 C3529 1.491 . S
C3524 H3515 0.950 . S
C3524 C3523 1.398 . S
C3524 C3525 1.391 . S
C3525 H3513 0.950 . S
C3525 C3521 1.393 . S
C3525 C3524 1.391 . S
C3526 H3516 0.950 . S
C3526 C3527 1.386 . S
C3526 C3528 1.391 . S
C3527 C3526 1.386 . S
C3527 C3531 1.393 . S
C3528 H3517 0.950 . S
C3528 C3526 1.391 . S
C3528 C3529 1.400 . S
C3529 C3523 1.491 . S
C3529 C3528 1.400 . S
C3529 C3530 1.398 . S
C3530 H3518 0.950 . S
C3530 C3529 1.398 . S
C3530 C3531 1.391 . S
C3531 H3519 0.950 . S
C3531 C3527 1.393 . S
C3531 C3530 1.391 . S
H3532 C3540 0.950 . S
H3533 C3545 0.950 . S
H3534 C3542 0.950 . S
H3535 C3544 0.950 . S
H3536 C3546 0.950 . S
H3537 C3548 0.950 . S
H3538 C3550 0.950 . S
H3539 C3551 0.950 . S
C3540 H3532 0.950 . S
C3540 C3541 1.386 . S
C3540 C3542 1.391 . S
C3541 C3540 1.386 . S
C3541 C3545 1.393 . S
C3542 H3534 0.950 . S
C3542 C3540 1.391 . S
C3542 C3543 1.400 . S
C3543 C3542 1.400 . S
C3543 C3544 1.398 . S
C3543 C3549 1.491 . S
C3544 H3535 0.950 . S
C3544 C3543 1.398 . S
C3544 C3545 1.391 . S
C3545 H3533 0.950 . S
C3545 C3541 1.393 . S
C3545 C3544 1.391 . S
C3546 H3536 0.950 . S
C3546 C3547 1.386 . S
C3546 C3548 1.391 . S
C3547 C3546 1.386 . S
C3547 C3551 1.393 . S
C3548 H3537 0.950 . S
C3548 C3546 1.391 . S
C3548 C3549 1.400 . S
C3549 C3543 1.491 . S
C3549 C3548 1.400 . S
C3549 C3550 1.398 . S
C3550 H3538 0.950 . S
C3550 C3549 1.398 . S
C3550 C3551 1.391 . S
C3551 H3539 0.950 . S
C3551 C3547 1.393 . S
C3551 C3550 1.391 . S
H3552 C3560 0.950 . S
H3553 C3565 0.950 . S
H3554 C3562 0.950 . S
H3555 C3564 0.950 . S
H3556 C3566 0.950 . S
H3557 C3568 0.950 . S
H3558 C3570 0.950 . S
H3559 C3571 0.950 . S
C3560 H3552 0.950 . S
C3560 C3561 1.386 . S
C3560 C3562 1.391 . S
C3561 C3560 1.386 . S
C3561 C3565 1.393 . S
C3562 H3554 0.950 . S
C3562 C3560 1.391 . S
C3562 C3563 1.400 . S
C3563 C3562 1.400 . S
C3563 C3564 1.398 . S
C3563 C3569 1.491 . S
C3564 H3555 0.950 . S
C3564 C3563 1.398 . S
C3564 C3565 1.391 . S
C3565 H3553 0.950 . S
C3565 C3561 1.393 . S
C3565 C3564 1.391 . S
C3566 H3556 0.950 . S
C3566 C3567 1.386 . S
C3566 C3568 1.391 . S
C3567 C3566 1.386 . S
C3567 C3571 1.393 . S
C3568 H3557 0.950 . S
C3568 C3566 1.391 . S
C3568 C3569 1.400 . S
C3569 C3563 1.491 . S
C3569 C3568 1.400 . S
C3569 C3570 1.398 . S
C3570 H3558 0.950 . S
C3570 C3569 1.398 . S
C3570 C3571 1.391 . S
C3571 H3559 0.950 . S
C3571 C3567 1.393 . S
C3571 C3570 1.391 . S
H3572 C3580 0.950 . S
H3573 C3585 0.950 . S
H3574 C3582 0.950 . S
H3575 C3584 0.950 . S
H3576 C3586 0.950 . S
H3577 C3588 0.950 . S
H3578 C3590 0.950 . S
H3579 C3591 0.950 . S
C3580 H3572 0.950 . S
C3580 C3581 1.386 . S
C3580 C3582 1.391 . S
C3581 C3580 1.386 . S
C3581 C3585 1.393 . S
C3582 H3574 0.950 . S
C3582 C3580 1.391 . S
C3582 C3583 1.400 . S
C3583 C3582 1.400 . S
C3583 C3584 1.398 . S
C3583 C3589 1.491 . S
C3584 H3575 0.950 . S
C3584 C3583 1.398 . S
C3584 C3585 1.391 . S
C3585 H3573 0.950 . S
C3585 C3581 1.393 . S
C3585 C3584 1.391 . S
C3586 H3576 0.950 . S
C3586 C3587 1.386 . S
C3586 C3588 1.391 . S
C3587 C3586 1.386 . S
C3587 C3591 1.393 . S
C3588 H3577 0.950 . S
C3588 C3586 1.391 . S
C3588 C3589 1.400 . S
C3589 C3583 1.491 . S
C3589 C3588 1.400 . S
C3589 C3590 1.398 . S
C3590 H3578 0.950 . S
C3590 C3589 1.398 . S
C3590 C3591 1.391 . S
C3591 H3579 0.950 . S
C3591 C3587 1.393 . S
C3591 C3590 1.391 . S
H3592 C3600 0.950 . S
H3593 C3605 0.950 . S
H3594 C3602 0.950 . S
H3595 C3604 0.950 . S
H3596 C3606 0.950 . S
H3597 C3608 0.950 . S
H3598 C3610 0.950 . S
H3599 C3611 0.950 . S
C3600 H3592 0.950 . S
C3600 C3601 1.386 . S
C3600 C3602 1.391 . S
C3601 C3600 1.386 . S
C3601 C3605 1.393 . S
C3602 H3594 0.950 . S
C3602 C3600 1.391 . S
C3602 C3603 1.400 . S
C3603 C3602 1.400 . S
C3603 C3604 1.398 . S
C3603 C3609 1.491 . S
C3604 H3595 0.950 . S
C3604 C3603 1.398 . S
C3604 C3605 1.391 . S
C3605 H3593 0.950 . S
C3605 C3601 1.393 . S
C3605 C3604 1.391 . S
C3606 H3596 0.950 . S
C3606 C3607 1.386 . S
C3606 C3608 1.391 . S
C3607 C3606 1.386 . S
C3607 C3611 1.393 . S
C3608 H3597 0.950 . S
C3608 C3606 1.391 . S
C3608 C3609 1.400 . S
C3609 C3603 1.491 . S
C3609 C3608 1.400 . S
C3609 C3610 1.398 . S
C3610 H3598 0.950 . S
C3610 C3609 1.398 . S
C3610 C3611 1.391 . S
C3611 H3599 0.950 . S
C3611 C3607 1.393 . S
C3611 C3610 1.391 . S
H3612 C3620 0.950 . S
H3613 C3625 0.950 . S
H3614 C3622 0.950 . S
H3615 C3624 0.950 . S
H3616 C3626 0.950 . S
H3617 C3628 0.950 . S
H3618 C3630 0.950 . S
H3619 C3631 0.950 . S
C3620 H3612 0.950 . S
C3620 C3621 1.386 . S
C3620 C3622 1.391 . S
C3621 C3620 1.386 . S
C3621 C3625 1.393 . S
C3622 H3614 0.950 . S
C3622 C3620 1.391 . S
C3622 C3623 1.400 . S
C3623 C3622 1.400 . S
C3623 C3624 1.398 . S
C3623 C3629 1.491 . S
C3624 H3615 0.950 . S
C3624 C3623 1.398 . S
C3624 C3625 1.391 . S
C3625 H3613 0.950 . S
C3625 C3621 1.393 . S
C3625 C3624 1.391 . S
C3626 H3616 0.950 . S
C3626 C3627 1.386 . S
C3626 C3628 1.391 . S
C3627 C3626 1.386 . S
C3627 C3631 1.393 . S
C3628 H3617 0.950 . S
C3628 C3626 1.391 . S
C3628 C3629 1.400 . S
C3629 C3623 1.491 . S
C3629 C3628 1.400 . S
C3629 C3630 1.398 . S
C3630 H3618 0.950 . S
C3630 C3629 1.398 . S
C3630 C3631 1.391 . S
C3631 H3619 0.950 . S
C3631 C3627 1.393 . S
C3631 C3630 1.391 . S
H3632 C3640 0.950 . S
H3633 C3645 0.950 . S
H3634 C3642 0.950 . S
H3635 C3644 0.950 . S
H3636 C3646 0.950 . S
H3637 C3648 0.950 . S
H3638 C3650 0.950 . S
H3639 C3651 0.950 . S
C3640 H3632 0.950 . S
C3640 C3641 1.386 . S
C3640 C3642 1.391 . S
C3641 C3640 1.386 . S
C3641 C3645 1.393 . S
C3642 H3634 0.950 . S
C3642 C3640 1.391 . S
C3642 C3643 1.400 . S
C3643 C3642 1.400 . S
C3643 C3644 1.398 . S
C3643 C3649 1.491 . S
C3644 H3635 0.950 . S
C3644 C3643 1.398 . S
C3644 C3645 1.391 . S
C3645 H3633 0.950 . S
C3645 C3641 1.393 . S
C3645 C3644 1.391 . S
C3646 H3636 0.950 . S
C3646 C3647 1.386 . S
C3646 C3648 1.391 . S
C3647 C3646 1.386 . S
C3647 C3651 1.393 . S
C3648 H3637 0.950 . S
C3648 C3646 1.391 . S
C3648 C3649 1.400 . S
C3649 C3643 1.491 . S
C3649 C3648 1.400 . S
C3649 C3650 1.398 . S
C3650 H3638 0.950 . S
C3650 C3649 1.398 . S
C3650 C3651 1.391 . S
C3651 H3639 0.950 . S
C3651 C3647 1.393 . S
C3651 C3650 1.391 . S
H3652 C3660 0.950 . S
H3653 C3665 0.950 . S
H3654 C3662 0.950 . S
H3655 C3664 0.950 . S
H3656 C3666 0.950 . S
H3657 C3668 0.950 . S
H3658 C3670 0.950 . S
H3659 C3671 0.950 . S
C3660 H3652 0.950 . S
C3660 C3661 1.386 . S
C3660 C3662 1.391 . S
C3661 C3660 1.386 . S
C3661 C3665 1.393 . S
C3662 H3654 0.950 . S
C3662 C3660 1.391 . S
C3662 C3663 1.400 . S
C3663 C3662 1.400 . S
C3663 C3664 1.398 . S
C3663 C3669 1.491 . S
C3664 H3655 0.950 . S
C3664 C3663 1.398 . S
C3664 C3665 1.391 . S
C3665 H3653 0.950 . S
C3665 C3661 1.393 . S
C3665 C3664 1.391 . S
C3666 H3656 0.950 . S
C3666 C3667 1.386 . S
C3666 C3668 1.391 . S
C3667 C3666 1.386 . S
C3667 C3671 1.393 . S
C3668 H3657 0.950 . S
C3668 C3666 1.391 . S
C3668 C3669 1.400 . S
C3669 C3663 1.491 . S
C3669 C3668 1.400 . S
C3669 C3670 1.398 . S
C3670 H3658 0.950 . S
C3670 C3669 1.398 . S
C3670 C3671 1.391 . S
C3671 H3659 0.950 . S
C3671 C3667 1.393 . S
C3671 C3670 1.391 . S
H3672 C3680 0.950 . S
H3673 C3685 0.950 . S
H3674 C3682 0.950 . S
H3675 C3684 0.950 . S
H3676 C3686 0.950 . S
H3677 C3688 0.950 . S
H3678 C3690 0.950 . S
H3679 C3691 0.950 . S
C3680 H3672 0.950 . S
C3680 C3681 1.386 . S
C3680 C3682 1.391 . S
C3681 C3680 1.386 . S
C3681 C3685 1.393 . S
C3682 H3674 0.950 . S
C3682 C3680 1.391 . S
C3682 C3683 1.400 . S
C3683 C3682 1.400 . S
C3683 C3684 1.398 . S
C3683 C3689 1.491 . S
C3684 H3675 0.950 . S
C3684 C3683 1.398 . S
C3684 C3685 1.391 . S
C3685 H3673 0.950 . S
C3685 C3681 1.393 . S
C3685 C3684 1.391 . S
C3686 H3676 0.950 . S
C3686 C3687 1.386 . S
C3686 C3688 1.391 . S
C3687 C3686 1.386 . S
C3687 C3691 1.393 . S
C3688 H3677 0.950 . S
C3688 C3686 1.391 . S
C3688 C3689 1.400 . S
C3689 C3683 1.491 . S
C3689 C3688 1.400 . S
C3689 C3690 1.398 . S
C3690 H3678 0.950 . S
C3690 C3689 1.398 . S
C3690 C3691 1.391 . S
C3691 H3679 0.950 . S
C3691 C3687 1.393 . S
C3691 C3690 1.391 . S
H3692 C3700 0.950 . S
H3693 C3705 0.950 . S
H3694 C3702 0.950 . S
H3695 C3704 0.950 . S
H3696 C3706 0.950 . S
H3697 C3708 0.950 . S
H3698 C3710 0.950 . S
H3699 C3711 0.950 . S
C3700 H3692 0.950 . S
C3700 C3701 1.386 . S
C3700 C3702 1.391 . S
C3701 C3700 1.386 . S
C3701 C3705 1.393 . S
C3702 H3694 0.950 . S
C3702 C3700 1.391 . S
C3702 C3703 1.400 . S
C3703 C3702 1.400 . S
C3703 C3704 1.398 . S
C3703 C3709 1.491 . S
C3704 H3695 0.950 . S
C3704 C3703 1.398 . S
C3704 C3705 1.391 . S
C3705 H3693 0.950 . S
C3705 C3701 1.393 . S
C3705 C3704 1.391 . S
C3706 H3696 0.950 . S
C3706 C3707 1.386 . S
C3706 C3708 1.391 . S
C3707 C3706 1.386 . S
C3707 C3711 1.393 . S
C3708 H3697 0.950 . S
C3708 C3706 1.391 . S
C3708 C3709 1.400 . S
C3709 C3703 1.491 . S
C3709 C3708 1.400 . S
C3709 C3710 1.398 . S
C3710 H3698 0.950 . S
C3710 C3709 1.398 . S
C3710 C3711 1.391 . S
C3711 H3699 0.950 . S
C3711 C3707 1.393 . S
C3711 C3710 1.391 . S
H3712 C3720 0.950 . S
H3713 C3725 0.950 . S
H3714 C3722 0.950 . S
H3715 C3724 0.950 . S
H3716 C3726 0.950 . S
H3717 C3728 0.950 . S
H3718 C3730 0.950 . S
H3719 C3731 0.950 . S
C3720 H3712 0.950 . S
C3720 C3721 1.386 . S
C3720 C3722 1.391 . S
C3721 C3720 1.386 . S
C3721 C3725 1.393 . S
C3722 H3714 0.950 . S
C3722 C3720 1.391 . S
C3722 C3723 1.400 . S
C3723 C3722 1.400 . S
C3723 C3724 1.398 . S
C3723 C3729 1.491 . S
C3724 H3715 0.950 . S
C3724 C3723 1.398 . S
C3724 C3725 1.391 . S
C3725 H3713 0.950 . S
C3725 C3721 1.393 . S
C3725 C3724 1.391 . S
C3726 H3716 0.950 . S
C3726 C3727 1.386 . S
C3726 C3728 1.391 . S
C3727 C3726 1.386 . S
C3727 C3731 1.393 . S
C3728 H3717 0.950 . S
C3728 C3726 1.391 . S
C3728 C3729 1.400 . S
C3729 C3723 1.491 . S
C3729 C3728 1.400 . S
C3729 C3730 1.398 . S
C3730 H3718 0.950 . S
C3730 C3729 1.398 . S
C3730 C3731 1.391 . S
C3731 H3719 0.950 . S
C3731 C3727 1.393 . S
C3731 C3730 1.391 . S
H3732 C3740 0.950 . S
H3733 C3745 0.950 . S
H3734 C3742 0.950 . S
H3735 C3744 0.950 . S
H3736 C3746 0.950 . S
H3737 C3748 0.950 . S
H3738 C3750 0.950 . S
H3739 C3751 0.950 . S
C3740 H3732 0.950 . S
C3740 C3741 1.386 . S
C3740 C3742 1.391 . S
C3741 C3740 1.386 . S
C3741 C3745 1.393 . S
C3742 H3734 0.950 . S
C3742 C3740 1.391 . S
C3742 C3743 1.400 . S
C3743 C3742 1.400 . S
C3743 C3744 1.398 . S
C3743 C3749 1.491 . S
C3744 H3735 0.950 . S
C3744 C3743 1.398 . S
C3744 C3745 1.391 . S
C3745 H3733 0.950 . S
C3745 C3741 1.393 . S
C3745 C3744 1.391 . S
C3746 H3736 0.950 . S
C3746 C3747 1.386 . S
C3746 C3748 1.391 . S
C3747 C3746 1.386 . S
C3747 C3751 1.393 . S
C3748 H3737 0.950 . S
C3748 C3746 1.391 . S
C3748 C3749 1.400 . S
C3749 C3743 1.491 . S
C3749 C3748 1.400 . S
C3749 C3750 1.398 . S
C3750 H3738 0.950 . S
C3750 C3749 1.398 . S
C3750 C3751 1.391 . S
C3751 H3739 0.950 . S
C3751 C3747 1.393 . S
C3751 C3750 1.391 . S
H3752 C3760 0.950 . S
H3753 C3765 0.950 . S
H3754 C3762 0.950 . S
H3755 C3764 0.950 . S
H3756 C3766 0.950 . S
H3757 C3768 0.950 . S
H3758 C3770 0.950 . S
H3759 C3771 0.950 . S
C3760 H3752 0.950 . S
C3760 C3761 1.386 . S
C3760 C3762 1.391 . S
C3761 C3760 1.386 . S
C3761 C3765 1.393 . S
C3762 H3754 0.950 . S
C3762 C3760 1.391 . S
C3762 C3763 1.400 . S
C3763 C3762 1.400 . S
C3763 C3764 1.398 . S
C3763 C3769 1.491 . S
C3764 H3755 0.950 . S
C3764 C3763 1.398 . S
C3764 C3765 1.391 . S
C3765 H3753 0.950 . S
C3765 C3761 1.393 . S
C3765 C3764 1.391 . S
C3766 H3756 0.950 . S
C3766 C3767 1.386 . S
C3766 C3768 1.391 . S
C3767 C3766 1.386 . S
C3767 C3771 1.393 . S
C3768 H3757 0.950 . S
C3768 C3766 1.391 . S
C3768 C3769 1.400 . S
C3769 C3763 1.491 . S
C3769 C3768 1.400 . S
C3769 C3770 1.398 . S
C3770 H3758 0.950 . S
C3770 C3769 1.398 . S
C3770 C3771 1.391 . S
C3771 H3759 0.950 . S
C3771 C3767 1.393 . S
C3771 C3770 1.391 . S
H3772 C3780 0.950 . S
H3773 C3785 0.950 . S
H3774 C3782 0.950 . S
H3775 C3784 0.950 . S
H3776 C3786 0.950 . S
H3777 C3788 0.950 . S
H3778 C3790 0.950 . S
H3779 C3791 0.950 . S
C3780 H3772 0.950 . S
C3780 C3781 1.386 . S
C3780 C3782 1.391 . S
C3781 C3780 1.386 . S
C3781 C3785 1.393 . S
C3782 H3774 0.950 . S
C3782 C3780 1.391 . S
C3782 C3783 1.400 . S
C3783 C3782 1.400 . S
C3783 C3784 1.398 . S
C3783 C3789 1.491 . S
C3784 H3775 0.950 . S
C3784 C3783 1.398 . S
C3784 C3785 1.391 . S
C3785 H3773 0.950 . S
C3785 C3781 1.393 . S
C3785 C3784 1.391 . S
C3786 H3776 0.950 . S
C3786 C3787 1.386 . S
C3786 C3788 1.391 . S
C3787 C3786 1.386 . S
C3787 C3791 1.393 . S
C3788 H3777 0.950 . S
C3788 C3786 1.391 . S
C3788 C3789 1.400 . S
C3789 C3783 1.491 . S
C3789 C3788 1.400 . S
C3789 C3790 1.398 . S
C3790 H3778 0.950 . S
C3790 C3789 1.398 . S
C3790 C3791 1.391 . S
C3791 H3779 0.950 . S
C3791 C3787 1.393 . S
C3791 C3790 1.391 . S
H3792 C3800 0.950 . S
H3793 C3805 0.950 . S
H3794 C3802 0.950 . S
H3795 C3804 0.950 . S
H3796 C3806 0.950 . S
H3797 C3808 0.950 . S
H3798 C3810 0.950 . S
H3799 C3811 0.950 . S
C3800 H3792 0.950 . S
C3800 C3801 1.386 . S
C3800 C3802 1.391 . S
C3801 C3800 1.386 . S
C3801 C3805 1.393 . S
C3802 H3794 0.950 . S
C3802 C3800 1.391 . S
C3802 C3803 1.400 . S
C3803 C3802 1.400 . S
C3803 C3804 1.398 . S
C3803 C3809 1.491 . S
C3804 H3795 0.950 . S
C3804 C3803 1.398 . S
C3804 C3805 1.391 . S
C3805 H3793 0.950 . S
C3805 C3801 1.393 . S
C3805 C3804 1.391 . S
C3806 H3796 0.950 . S
C3806 C3807 1.386 . S
C3806 C3808 1.391 . S
C3807 C3806 1.386 . S
C3807 C3811 1.393 . S
C3808 H3797 0.950 . S
C3808 C3806 1.391 . S
C3808 C3809 1.400 . S
C3809 C3803 1.491 . S
C3809 C3808 1.400 . S
C3809 C3810 1.398 . S
C3810 H3798 0.950 . S
C3810 C3809 1.398 . S
C3810 C3811 1.391 . S
C3811 H3799 0.950 . S
C3811 C3807 1.393 . S
C3811 C3810 1.391 . S
H3812 C3820 0.950 . S
H3813 C3825 0.950 . S
H3814 C3822 0.950 . S
H3815 C3824 0.950 . S
H3816 C3826 0.950 . S
H3817 C3828 0.950 . S
H3818 C3830 0.950 . S
H3819 C3831 0.950 . S
C3820 H3812 0.950 . S
C3820 C3821 1.386 . S
C3820 C3822 1.391 . S
C3821 C3820 1.386 . S
C3821 C3825 1.393 . S
C3822 H3814 0.950 . S
C3822 C3820 1.391 . S
C3822 C3823 1.400 . S
C3823 C3822 1.400 . S
C3823 C3824 1.398 . S
C3823 C3829 1.491 . S
C3824 H3815 0.950 . S
C3824 C3823 1.398 . S
C3824 C3825 1.391 . S
C3825 H3813 0.950 . S
C3825 C3821 1.393 . S
C3825 C3824 1.391 . S
C3826 H3816 0.950 . S
C3826 C3827 1.386 . S
C3826 C3828 1.391 . S
C3827 C3826 1.386 . S
C3827 C3831 1.393 . S
C3828 H3817 0.950 . S
C3828 C3826 1.391 . S
C3828 C3829 1.400 . S
C3829 C3823 1.491 . S
C3829 C3828 1.400 . S
C3829 C3830 1.398 . S
C3830 H3818 0.950 . S
C3830 C3829 1.398 . S
C3830 C3831 1.391 . S
C3831 H3819 0.950 . S
C3831 C3827 1.393 . S
C3831 C3830 1.391 . S
H3832 C3840 0.950 . S
H3833 C3845 0.950 . S
H3834 C3842 0.950 . S
H3835 C3844 0.950 . S
H3836 C3846 0.950 . S
H3837 C3848 0.950 . S
H3838 C3850 0.950 . S
H3839 C3851 0.950 . S
C3840 H3832 0.950 . S
C3840 C3841 1.386 . S
C3840 C3842 1.391 . S
C3841 C3840 1.386 . S
C3841 C3845 1.393 . S
C3842 H3834 0.950 . S
C3842 C3840 1.391 . S
C3842 C3843 1.400 . S
C3843 C3842 1.400 . S
C3843 C3844 1.398 . S
C3843 C3849 1.491 . S
C3844 H3835 0.950 . S
C3844 C3843 1.398 . S
C3844 C3845 1.391 . S
C3845 H3833 0.950 . S
C3845 C3841 1.393 . S
C3845 C3844 1.391 . S
C3846 H3836 0.950 . S
C3846 C3847 1.386 . S
C3846 C3848 1.391 . S
C3847 C3846 1.386 . S
C3847 C3851 1.393 . S
C3848 H3837 0.950 . S
C3848 C3846 1.391 . S
C3848 C3849 1.400 . S
C3849 C3843 1.491 . S
C3849 C3848 1.400 . S
C3849 C3850 1.398 . S
C3850 H3838 0.950 . S
C3850 C3849 1.398 . S
C3850 C3851 1.391 . S
C3851 H3839 0.950 . S
C3851 C3847 1.393 . S
C3851 C3850 1.391 . S
H3852 C3860 0.950 . S
H3853 C3865 0.950 . S
H3854 C3862 0.950 . S
H3855 C3864 0.950 . S
H3856 C3866 0.950 . S
H3857 C3868 0.950 . S
H3858 C3870 0.950 . S
H3859 C3871 0.950 . S
C3860 H3852 0.950 . S
C3860 C3861 1.386 . S
C3860 C3862 1.391 . S
C3861 C3860 1.386 . S
C3861 C3865 1.393 . S
C3862 H3854 0.950 . S
C3862 C3860 1.391 . S
C3862 C3863 1.400 . S
C3863 C3862 1.400 . S
C3863 C3864 1.398 . S
C3863 C3869 1.491 . S
C3864 H3855 0.950 . S
C3864 C3863 1.398 . S
C3864 C3865 1.391 . S
C3865 H3853 0.950 . S
C3865 C3861 1.393 . S
C3865 C3864 1.391 . S
C3866 H3856 0.950 . S
C3866 C3867 1.386 . S
C3866 C3868 1.391 . S
C3867 C3866 1.386 . S
C3867 C3871 1.393 . S
C3868 H3857 0.950 . S
C3868 C3866 1.391 . S
C3868 C3869 1.400 . S
C3869 C3863 1.491 . S
C3869 C3868 1.400 . S
C3869 C3870 1.398 . S
C3870 H3858 0.950 . S
C3870 C3869 1.398 . S
C3870 C3871 1.391 . S
C3871 H3859 0.950 . S
C3871 C3867 1.393 . S
C3871 C3870 1.391 . S
H3872 C3880 0.950 . S
H3873 C3885 0.950 . S
H3874 C3882 0.950 . S
H3875 C3884 0.950 . S
H3876 C3886 0.950 . S
H3877 C3888 0.950 . S
H3878 C3890 0.950 . S
H3879 C3891 0.950 . S
C3880 H3872 0.950 . S
C3880 C3881 1.386 . S
C3880 C3882 1.391 . S
C3881 C3880 1.386 . S
C3881 C3885 1.393 . S
C3882 H3874 0.950 . S
C3882 C3880 1.391 . S
C3882 C3883 1.400 . S
C3883 C3882 1.400 . S
C3883 C3884 1.398 . S
C3883 C3889 1.491 . S
C3884 H3875 0.950 . S
C3884 C3883 1.398 . S
C3884 C3885 1.391 . S
C3885 H3873 0.950 . S
C3885 C3881 1.393 . S
C3885 C3884 1.391 . S
C3886 H3876 0.950 . S
C3886 C3887 1.386 . S
C3886 C3888 1.391 . S
C3887 C3886 1.386 . S
C3887 C3891 1.393 . S
C3888 H3877 0.950 . S
C3888 C3886 1.391 . S
C3888 C3889 1.400 . S
C3889 C3883 1.491 . S
C3889 C3888 1.400 . S
C3889 C3890 1.398 . S
C3890 H3878 0.950 . S
C3890 C3889 1.398 . S
C3890 C3891 1.391 . S
C3891 H3879 0.950 . S
C3891 C3887 1.393 . S
C3891 C3890 1.391 . S
H3892 C3900 0.950 . S
H3893 C3905 0.950 . S
H3894 C3902 0.950 . S
H3895 C3904 0.950 . S
H3896 C3906 0.950 . S
H3897 C3908 0.950 . S
H3898 C3910 0.950 . S
H3899 C3911 0.950 . S
C3900 H3892 0.950 . S
C3900 C3901 1.386 . S
C3900 C3902 1.391 . S
C3901 C3900 1.386 . S
C3901 C3905 1.393 . S
C3902 H3894 0.950 . S
C3902 C3900 1.391 . S
C3902 C3903 1.400 . S
C3903 C3902 1.400 . S
C3903 C3904 1.398 . S
C3903 C3909 1.491 . S
C3904 H3895 0.950 . S
C3904 C3903 1.398 . S
C3904 C3905 1.391 . S
C3905 H3893 0.950 . S
C3905 C3901 1.393 . S
C3905 C3904 1.391 . S
C3906 H3896 0.950 . S
C3906 C3907 1.386 . S
C3906 C3908 1.391 . S
C3907 C3906 1.386 . S
C3907 C3911 1.393 . S
C3908 H3897 0.950 . S
C3908 C3906 1.391 . S
C3908 C3909 1.400 . S
C3909 C3903 1.491 . S
C3909 C3908 1.400 . S
C3909 C3910 1.398 . S
C3910 H3898 0.950 . S
C3910 C3909 1.398 . S
C3910 C3911 1.391 . S
C3911 H3899 0.950 . S
C3911 C3907 1.393 . S
C3911 C3910 1.391 . S
H3912 C3920 0.950 . S
H3913 C3925 0.950 . S
H3914 C3922 0.950 . S
H3915 C3924 0.950 . S
H3916 C3926 0.950 . S
H3917 C3928 0.950 . S
H3918 C3930 0.950 . S
H3919 C3931 0.950 . S
C3920 H3912 0.950 . S
C3920 C3921 1.386 . S
C3920 C3922 1.391 . S
C3921 C3920 1.386 . S
C3921 C3925 1.393 . S
C3922 H3914 0.950 . S
C3922 C3920 1.391 . S
C3922 C3923 1.400 . S
C3923 C3922 1.400 . S
C3923 C3924 1.398 . S
C3923 C3929 1.491 . S
C3924 H3915 0.950 . S
C3924 C3923 1.398 . S
C3924 C3925 1.391 . S
C3925 H3913 0.950 . S
C3925 C3921 1.393 . S
C3925 C3924 1.391 . S
C3926 H3916 0.950 . S
C3926 C3927 1.386 . S
C3926 C3928 1.391 . S
C3927 C3926 1.386 . S
C3927 C3931 1.393 . S
C3928 H3917 0.950 . S
C3928 C3926 1.391 . S
C3928 C3929 1.400 . S
C3929 C3923 1.491 . S
C3929 C3928 1.400 . S
C3929 C3930 1.398 . S
C3930 H3918 0.950 . S
C3930 C3929 1.398 . S
C3930 C3931 1.391 . S
C3931 H3919 0.950 . S
C3931 C3927 1.393 . S
C3931 C3930 1.391 . S
H3932 C3940 0.950 . S
H3933 C3945 0.950 . S
H3934 C3942 0.950 . S
H3935 C3944 0.950 . S
H3936 C3946 0.950 . S
H3937 C3948 0.950 . S
H3938 C3950 0.950 . S
H3939 C3951 0.950 . S
C3940 H3932 0.950 . S
C3940 C3941 1.386 . S
C3940 C3942 1.391 . S
C3941 C3940 1.386 . S
C3941 C3945 1.393 . S
C3942 H3934 0.950 . S
C3942 C3940 1.391 . S
C3942 C3943 1.400 . S
C3943 C3942 1.400 . S
C3943 C3944 1.398 . S
C3943 C3949 1.491 . S
C3944 H3935 0.950 . S
C3944 C3943 1.398 . S
C3944 C3945 1.391 . S
C3945 H3933 0.950 . S
C3945 C3941 1.393 . S
C3945 C3944 1.391 . S
C3946 H3936 0.950 . S
C3946 C3947 1.386 . S
C3946 C3948 1.391 . S
C3947 C3946 1.386 . S
C3947 C3951 1.393 . S
C3948 H3937 0.950 . S
C3948 C3946 1.391 . S
C3948 C3949 1.400 . S
C3949 C3943 1.491 . S
C3949 C3948 1.400 . S
C3949 C3950 1.398 . S
C3950 H3938 0.950 . S
C3950 C3949 1.398 . S
C3950 C3951 1.391 . S
C3951 H3939 0.950 . S
C3951 C3947 1.393 . S
C3951 C3950 1.391 . S
H3952 C3960 0.950 . S
H3953 C3965 0.950 . S
H3954 C3962 0.950 . S
H3955 C3964 0.950 . S
H3956 C3966 0.950 . S
H3957 C3968 0.950 . S
H3958 C3970 0.950 . S
H3959 C3971 0.950 . S
C3960 H3952 0.950 . S
C3960 C3961 1.386 . S
C3960 C3962 1.391 . S
C3961 C3960 1.386 . S
C3961 C3965 1.393 . S
C3962 H3954 0.950 . S
C3962 C3960 1.391 . S
C3962 C3963 1.400 . S
C3963 C3962 1.400 . S
C3963 C3964 1.398 . S
C3963 C3969 1.491 . S
C3964 H3955 0.950 . S
C3964 C3963 1.398 . S
C3964 C3965 1.391 . S
C3965 H3953 0.950 . S
C3965 C3961 1.393 . S
C3965 C3964 1.391 . S
C3966 H3956 0.950 . S
C3966 C3967 1.386 . S
C3966 C3968 1.391 . S
C3967 C3966 1.386 . S
C3967 C3971 1.393 . S
C3968 H3957 0.950 . S
C3968 C3966 1.391 . S
C3968 C3969 1.400 . S
C3969 C3963 1.491 . S
C3969 C3968 1.400 . S
C3969 C3970 1.398 . S
C3970 H3958 0.950 . S
C3970 C3969 1.398 . S
C3970 C3971 1.391 . S
C3971 H3959 0.950 . S
C3971 C3967 1.393 . S
C3971 C3970 1.391 . S
H3972 C3980 0.950 . S
H3973 C3985 0.950 . S
H3974 C3982 0.950 . S
H3975 C3984 0.950 . S
H3976 C3986 0.950 . S
H3977 C3988 0.950 . S
H3978 C3990 0.950 . S
H3979 C3991 0.950 . S
C3980 H3972 0.950 . S
C3980 C3981 1.386 . S
C3980 C3982 1.391 . S
C3981 C3980 1.386 . S
C3981 C3985 1.393 . S
C3982 H3974 0.950 . S
C3982 C3980 1.391 . S
C3982 C3983 1.400 . S
C3983 C3982 1.400 . S
C3983 C3984 1.398 . S
C3983 C3989 1.491 . S
C3984 H3975 0.950 . S
C3984 C3983 1.398 . S
C3984 C3985 1.391 . S
C3985 H3973 0.950 . S
C3985 C3981 1.393 . S
C3985 C3984 1.391 . S
C3986 H3976 0.950 . S
C3986 C3987 1.386 . S
C3986 C3988 1.391 . S
C3987 C3986 1.386 . S
C3987 C3991 1.393 . S
C3988 H3977 0.950 . S
C3988 C3986 1.391 . S
C3988 C3989 1.400 . S
C3989 C3983 1.491 . S
C3989 C3988 1.400 . S
C3989 C3990 1.398 . S
C3990 H3978 0.950 . S
C3990 C3989 1.398 . S
C3990 C3991 1.391 . S
C3991 H3979 0.950 . S
C3991 C3987 1.393 . S
C3991 C3990 1.391 . S
H3992 C4000 0.950 . S
H3993 C4005 0.950 . S
H3994 C4002 0.950 . S
H3995 C4004 0.950 . S
H3996 C4006 0.950 . S
H3997 C4008 0.950 . S
H3998 C4010 0.950 . S
H3999 C4011 0.950 . S
C4000 H3992 0.950 . S
C4000 C4001 1.386 . S
C4000 C4002 1.391 . S
C4001 C4000 1.386 . S
C4001 C4005 1.393 . S
C4002 H3994 0.950 . S
C4002 C4000 1.391 . S
C4002 C4003 1.400 . S
C4003 C4002 1.400 . S
C4003 C4004 1.398 . S
C4003 C4009 1.491 . S
C4004 H3995 0.950 . S
C4004 C4003 1.398 . S
C4004 C4005 1.391 . S
C4005 H3993 0.950 . S
C4005 C4001 1.393 . S
C4005 C4004 1.391 . S
C4006 H3996 0.950 . S
C4006 C4007 1.386 . S
C4006 C4008 1.391 . S
C4007 C4006 1.386 . S
C4007 C4011 1.393 . S
C4008 H3997 0.950 . S
C4008 C4006 1.391 . S
C4008 C4009 1.400 . S
C4009 C4003 1.491 . S
C4009 C4008 1.400 . S
C4009 C4010 1.398 . S
C4010 H3998 0.950 . S
C4010 C4009 1.398 . S
C4010 C4011 1.391 . S
C4011 H3999 0.950 . S
C4011 C4007 1.393 . S
C4011 C4010 1.391 . S
H4012 C4020 0.950 . S
H4013 C4025 0.950 . S
H4014 C4022 0.950 . S
H4015 C4024 0.950 . S
H4016 C4026 0.950 . S
H4017 C4028 0.950 . S
H4018 C4030 0.950 . S
H4019 C4031 0.950 . S
C4020 H4012 0.950 . S
C4020 C4021 1.386 . S
C4020 C4022 1.391 . S
C4021 C4020 1.386 . S
C4021 C4025 1.393 . S
C4022 H4014 0.950 . S
C4022 C4020 1.391 . S
C4022 C4023 1.400 . S
C4023 C4022 1.400 . S
C4023 C4024 1.398 . S
C4023 C4029 1.491 . S
C4024 H4015 0.950 . S
C4024 C4023 1.398 . S
C4024 C4025 1.391 . S
C4025 H4013 0.950 . S
C4025 C4021 1.393 . S
C4025 C4024 1.391 . S
C4026 H4016 0.950 . S
C4026 C4027 1.386 . S
C4026 C4028 1.391 . S
C4027 C4026 1.386 . S
C4027 C4031 1.393 . S
C4028 H4017 0.950 . S
C4028 C4026 1.391 . S
C4028 C4029 1.400 . S
C4029 C4023 1.491 . S
C4029 C4028 1.400 . S
C4029 C4030 1.398 . S
C4030 H4018 0.950 . S
C4030 C4029 1.398 . S
C4030 C4031 1.391 . S
C4031 H4019 0.950 . S
C4031 C4027 1.393 . S
C4031 C4030 1.391 . S
H4032 C4040 0.950 . S
H4033 C4045 0.950 . S
H4034 C4042 0.950 . S
H4035 C4044 0.950 . S
H4036 C4046 0.950 . S
H4037 C4048 0.950 . S
H4038 C4050 0.950 . S
H4039 C4051 0.950 . S
C4040 H4032 0.950 . S
C4040 C4041 1.386 . S
C4040 C4042 1.391 . S
C4041 C4040 1.386 . S
C4041 C4045 1.393 . S
C4042 H4034 0.950 . S
C4042 C4040 1.391 . S
C4042 C4043 1.400 . S
C4043 C4042 1.400 . S
C4043 C4044 1.398 . S
C4043 C4049 1.491 . S
C4044 H4035 0.950 . S
C4044 C4043 1.398 . S
C4044 C4045 1.391 . S
C4045 H4033 0.950 . S
C4045 C4041 1.393 . S
C4045 C4044 1.391 . S
C4046 H4036 0.950 . S
C4046 C4047 1.386 . S
C4046 C4048 1.391 . S
C4047 C4046 1.386 . S
C4047 C4051 1.393 . S
C4048 H4037 0.950 . S
C4048 C4046 1.391 . S
C4048 C4049 1.400 . S
C4049 C4043 1.491 . S
C4049 C4048 1.400 . S
C4049 C4050 1.398 . S
C4050 H4038 0.950 . S
C4050 C4049 1.398 . S
C4050 C4051 1.391 . S
C4051 H4039 0.950 . S
C4051 C4047 1.393 . S
C4051 C4050 1.391 . S
H4052 C4060 0.950 . S
H4053 C4065 0.950 . S
H4054 C4062 0.950 . S
H4055 C4064 0.950 . S
H4056 C4066 0.950 . S
H4057 C4068 0.950 . S
H4058 C4070 0.950 . S
H4059 C4071 0.950 . S
C4060 H4052 0.950 . S
C4060 C4061 1.386 . S
C4060 C4062 1.391 . S
C4061 C4060 1.386 . S
C4061 C4065 1.393 . S
C4062 H4054 0.950 . S
C4062 C4060 1.391 . S
C4062 C4063 1.400 . S
C4063 C4062 1.400 . S
C4063 C4064 1.398 . S
C4063 C4069 1.491 . S
C4064 H4055 0.950 . S
C4064 C4063 1.398 . S
C4064 C4065 1.391 . S
C4065 H4053 0.950 . S
C4065 C4061 1.393 . S
C4065 C4064 1.391 . S
C4066 H4056 0.950 . S
C4066 C4067 1.386 . S
C4066 C4068 1.391 . S
C4067 C4066 1.386 . S
C4067 C4071 1.393 . S
C4068 H4057 0.950 . S
C4068 C4066 1.391 . S
C4068 C4069 1.400 . S
C4069 C4063 1.491 . S
C4069 C4068 1.400 . S
C4069 C4070 1.398 . S
C4070 H4058 0.950 . S
C4070 C4069 1.398 . S
C4070 C4071 1.391 . S
C4071 H4059 0.950 . S
C4071 C4067 1.393 . S
C4071 C4070 1.391 . S
H4072 C4080 0.950 . S
H4073 C4085 0.950 . S
H4074 C4082 0.950 . S
H4075 C4084 0.950 . S
H4076 C4086 0.950 . S
H4077 C4088 0.950 . S
H4078 C4090 0.950 . S
H4079 C4091 0.950 . S
C4080 H4072 0.950 . S
C4080 C4081 1.386 . S
C4080 C4082 1.391 . S
C4081 C4080 1.386 . S
C4081 C4085 1.393 . S
C4082 H4074 0.950 . S
C4082 C4080 1.391 . S
C4082 C4083 1.400 . S
C4083 C4082 1.400 . S
C4083 C4084 1.398 . S
C4083 C4089 1.491 . S
C4084 H4075 0.950 . S
C4084 C4083 1.398 . S
C4084 C4085 1.391 . S
C4085 H4073 0.950 . S
C4085 C4081 1.393 . S
C4085 C4084 1.391 . S
C4086 H4076 0.950 . S
C4086 C4087 1.386 . S
C4086 C4088 1.391 . S
C4087 C4086 1.386 . S
C4087 C4091 1.393 . S
C4088 H4077 0.950 . S
C4088 C4086 1.391 . S
C4088 C4089 1.400 . S
C4089 C4083 1.491 . S
C4089 C4088 1.400 . S
C4089 C4090 1.398 . S
C4090 H4078 0.950 . S
C4090 C4089 1.398 . S
C4090 C4091 1.391 . S
C4091 H4079 0.950 . S
C4091 C4087 1.393 . S
C4091 C4090 1.391 . S
H4092 C4100 0.950 . S
H4093 C4105 0.950 . S
H4094 C4102 0.950 . S
H4095 C4104 0.950 . S
H4096 C4106 0.950 . S
H4097 C4108 0.950 . S
H4098 C4110 0.950 . S
H4099 C4111 0.950 . S
C4100 H4092 0.950 . S
C4100 C4101 1.386 . S
C4100 C4102 1.391 . S
C4101 C4100 1.386 . S
C4101 C4105 1.393 . S
C4102 H4094 0.950 . S
C4102 C4100 1.391 . S
C4102 C4103 1.400 . S
C4103 C4102 1.400 . S
C4103 C4104 1.398 . S
C4103 C4109 1.491 . S
C4104 H4095 0.950 . S
C4104 C4103 1.398 . S
C4104 C4105 1.391 . S
C4105 H4093 0.950 . S
C4105 C4101 1.393 . S
C4105 C4104 1.391 . S
C4106 H4096 0.950 . S
C4106 C4107 1.386 . S
C4106 C4108 1.391 . S
C4107 C4106 1.386 . S
C4107 C4111 1.393 . S
C4108 H4097 0.950 . S
C4108 C4106 1.391 . S
C4108 C4109 1.400 . S
C4109 C4103 1.491 . S
C4109 C4108 1.400 . S
C4109 C4110 1.398 . S
C4110 H4098 0.950 . S
C4110 C4109 1.398 . S
C4110 C4111 1.391 . S
C4111 H4099 0.950 . S
C4111 C4107 1.393 . S
C4111 C4110 1.391 . S
H4112 C4120 0.950 . S
H4113 C4125 0.950 . S
H4114 C4122 0.950 . S
H4115 C4124 0.950 . S
H4116 C4126 0.950 . S
H4117 C4128 0.950 . S
H4118 C4130 0.950 . S
H4119 C4131 0.950 . S
C4120 H4112 0.950 . S
C4120 C4121 1.386 . S
C4120 C4122 1.391 . S
C4121 C4120 1.386 . S
C4121 C4125 1.393 . S
C4122 H4114 0.950 . S
C4122 C4120 1.391 . S
C4122 C4123 1.400 . S
C4123 C4122 1.400 . S
C4123 C4124 1.398 . S
C4123 C4129 1.491 . S
C4124 H4115 0.950 . S
C4124 C4123 1.398 . S
C4124 C4125 1.391 . S
C4125 H4113 0.950 . S
C4125 C4121 1.393 . S
C4125 C4124 1.391 . S
C4126 H4116 0.950 . S
C4126 C4127 1.386 . S
C4126 C4128 1.391 . S
C4127 C4126 1.386 . S
C4127 C4131 1.393 . S
C4128 H4117 0.950 . S
C4128 C4126 1.391 . S
C4128 C4129 1.400 . S
C4129 C4123 1.491 . S
C4129 C4128 1.400 . S
C4129 C4130 1.398 . S
C4130 H4118 0.950 . S
C4130 C4129 1.398 . S
C4130 C4131 1.391 . S
C4131 H4119 0.950 . S
C4131 C4127 1.393 . S
C4131 C4130 1.391 . S
H4132 C4140 0.950 . S
H4133 C4145 0.950 . S
H4134 C4142 0.950 . S
H4135 C4144 0.950 . S
H4136 C4146 0.950 . S
H4137 C4148 0.950 . S
H4138 C4150 0.950 . S
H4139 C4151 0.950 . S
C4140 H4132 0.950 . S
C4140 C4141 1.386 . S
C4140 C4142 1.391 . S
C4141 C4140 1.386 . S
C4141 C4145 1.393 . S
C4142 H4134 0.950 . S
C4142 C4140 1.391 . S
C4142 C4143 1.400 . S
C4143 C4142 1.400 . S
C4143 C4144 1.398 . S
C4143 C4149 1.491 . S
C4144 H4135 0.950 . S
C4144 C4143 1.398 . S
C4144 C4145 1.391 . S
C4145 H4133 0.950 . S
C4145 C4141 1.393 . S
C4145 C4144 1.391 . S
C4146 H4136 0.950 . S
C4146 C4147 1.386 . S
C4146 C4148 1.391 . S
C4147 C4146 1.386 . S
C4147 C4151 1.393 . S
C4148 H4137 0.950 . S
C4148 C4146 1.391 . S
C4148 C4149 1.400 . S
C4149 C4143 1.491 . S
C4149 C4148 1.400 . S
C4149 C4150 1.398 . S
C4150 H4138 0.950 . S
C4150 C4149 1.398 . S
C4150 C4151 1.391 . S
C4151 H4139 0.950 . S
C4151 C4147 1.393 . S
C4151 C4150 1.391 . S
H4152 C4160 0.950 . S
H4153 C4165 0.950 . S
H4154 C4162 0.950 . S
H4155 C4164 0.950 . S
H4156 C4166 0.950 . S
H4157 C4168 0.950 . S
H4158 C4170 0.950 . S
H4159 C4171 0.950 . S
C4160 H4152 0.950 . S
C4160 C4161 1.386 . S
C4160 C4162 1.391 . S
C4161 C4160 1.386 . S
C4161 C4165 1.393 . S
C4162 H4154 0.950 . S
C4162 C4160 1.391 . S
C4162 C4163 1.400 . S
C4163 C4162 1.400 . S
C4163 C4164 1.398 . S
C4163 C4169 1.491 . S
C4164 H4155 0.950 . S
C4164 C4163 1.398 . S
C4164 C4165 1.391 . S
C4165 H4153 0.950 . S
C4165 C4161 1.393 . S
C4165 C4164 1.391 . S
C4166 H4156 0.950 . S
C4166 C4167 1.386 . S
C4166 C4168 1.391 . S
C4167 C4166 1.386 . S
C4167 C4171 1.393 . S
C4168 H4157 0.950 . S
C4168 C4166 1.391 . S
C4168 C4169 1.400 . S
C4169 C4163 1.491 . S
C4169 C4168 1.400 . S
C4169 C4170 1.398 . S
C4170 H4158 0.950 . S
C4170 C4169 1.398 . S
C4170 C4171 1.391 . S
C4171 H4159 0.950 . S
C4171 C4167 1.393 . S
C4171 C4170 1.391 . S
H4172 C4180 0.950 . S
H4173 C4185 0.950 . S
H4174 C4182 0.950 . S
H4175 C4184 0.950 . S
H4176 C4186 0.950 . S
H4177 C4188 0.950 . S
H4178 C4190 0.950 . S
H4179 C4191 0.950 . S
C4180 H4172 0.950 . S
C4180 C4181 1.386 . S
C4180 C4182 1.391 . S
C4181 C4180 1.386 . S
C4181 C4185 1.393 . S
C4182 H4174 0.950 . S
C4182 C4180 1.391 . S
C4182 C4183 1.400 . S
C4183 C4182 1.400 . S
C4183 C4184 1.398 . S
C4183 C4189 1.491 . S
C4184 H4175 0.950 . S
C4184 C4183 1.398 . S
C4184 C4185 1.391 . S
C4185 H4173 0.950 . S
C4185 C4181 1.393 . S
C4185 C4184 1.391 . S
C4186 H4176 0.950 . S
C4186 C4187 1.386 . S
C4186 C4188 1.391 . S
C4187 C4186 1.386 . S
C4187 C4191 1.393 . S
C4188 H4177 0.950 . S
C4188 C4186 1.391 . S
C4188 C4189 1.400 . S
C4189 C4183 1.491 . S
C4189 C4188 1.400 . S
C4189 C4190 1.398 . S
C4190 H4178 0.950 . S
C4190 C4189 1.398 . S
C4190 C4191 1.391 . S
C4191 H4179 0.950 . S
C4191 C4187 1.393 . S
C4191 C4190 1.391 . S
H4192 C4200 0.950 . S
H4193 C4205 0.950 . S
H4194 C4202 0.950 . S
H4195 C4204 0.950 . S
H4196 C4206 0.950 . S
H4197 C4208 0.950 . S
H4198 C4210 0.950 . S
H4199 C4211 0.950 . S
C4200 H4192 0.950 . S
C4200 C4201 1.386 . S
C4200 C4202 1.391 . S
C4201 C4200 1.386 . S
C4201 C4205 1.393 . S
C4202 H4194 0.950 . S
C4202 C4200 1.391 . S
C4202 C4203 1.400 . S
C4203 C4202 1.400 . S
C4203 C4204 1.398 . S
C4203 C4209 1.491 . S
C4204 H4195 0.950 . S
C4204 C4203 1.398 . S
C4204 C4205 1.391 . S
C4205 H4193 0.950 . S
C4205 C4201 1.393 . S
C4205 C4204 1.391 . S
C4206 H4196 0.950 . S
C4206 C4207 1.386 . S
C4206 C4208 1.391 . S
C4207 C4206 1.386 . S
C4207 C4211 1.393 . S
C4208 H4197 0.950 . S
C4208 C4206 1.391 . S
C4208 C4209 1.400 . S
C4209 C4203 1.491 . S
C4209 C4208 1.400 . S
C4209 C4210 1.398 . S
C4210 H4198 0.950 . S
C4210 C4209 1.398 . S
C4210 C4211 1.391 . S
C4211 H4199 0.950 . S
C4211 C4207 1.393 . S
C4211 C4210 1.391 . S
H4212 C4220 0.950 . S
H4213 C4225 0.950 . S
H4214 C4222 0.950 . S
H4215 C4224 0.950 . S
H4216 C4226 0.950 . S
H4217 C4228 0.950 . S
H4218 C4230 0.950 . S
H4219 C4231 0.950 . S
C4220 H4212 0.950 . S
C4220 C4221 1.386 . S
C4220 C4222 1.391 . S
C4221 C4220 1.386 . S
C4221 C4225 1.393 . S
C4222 H4214 0.950 . S
C4222 C4220 1.391 . S
C4222 C4223 1.400 . S
C4223 C4222 1.400 . S
C4223 C4224 1.398 . S
C4223 C4229 1.491 . S
C4224 H4215 0.950 . S
C4224 C4223 1.398 . S
C4224 C4225 1.391 . S
C4225 H4213 0.950 . S
C4225 C4221 1.393 . S
C4225 C4224 1.391 . S
C4226 H4216 0.950 . S
C4226 C4227 1.386 . S
C4226 C4228 1.391 . S
C4227 C4226 1.386 . S
C4227 C4231 1.393 . S
C4228 H4217 0.950 . S
C4228 C4226 1.391 . S
C4228 C4229 1.400 . S
C4229 C4223 1.491 . S
C4229 C4228 1.400 . S
C4229 C4230 1.398 . S
C4230 H4218 0.950 . S
C4230 C4229 1.398 . S
C4230 C4231 1.391 . S
C4231 H4219 0.950 . S
C4231 C4227 1.393 . S
C4231 C4230 1.391 . S
H4232 C4240 0.950 . S
H4233 C4245 0.950 . S
H4234 C4242 0.950 . S
H4235 C4244 0.950 . S
H4236 C4246 0.950 . S
H4237 C4248 0.950 . S
H4238 C4250 0.950 . S
H4239 C4251 0.950 . S
C4240 H4232 0.950 . S
C4240 C4241 1.386 . S
C4240 C4242 1.391 . S
C4241 C4240 1.386 . S
C4241 C4245 1.393 . S
C4242 H4234 0.950 . S
C4242 C4240 1.391 . S
C4242 C4243 1.400 . S
C4243 C4242 1.400 . S
C4243 C4244 1.398 . S
C4243 C4249 1.491 . S
C4244 H4235 0.950 . S
C4244 C4243 1.398 . S
C4244 C4245 1.391 . S
C4245 H4233 0.950 . S
C4245 C4241 1.393 . S
C4245 C4244 1.391 . S
C4246 H4236 0.950 . S
C4246 C4247 1.386 . S
C4246 C4248 1.391 . S
C4247 C4246 1.386 . S
C4247 C4251 1.393 . S
C4248 H4237 0.950 . S
C4248 C4246 1.391 . S
C4248 C4249 1.400 . S
C4249 C4243 1.491 . S
C4249 C4248 1.400 . S
C4249 C4250 1.398 . S
C4250 H4238 0.950 . S
C4250 C4249 1.398 . S
C4250 C4251 1.391 . S
C4251 H4239 0.950 . S
C4251 C4247 1.393 . S
C4251 C4250 1.391 . S
H4252 C4260 0.950 . S
H4253 C4265 0.950 . S
H4254 C4262 0.950 . S
H4255 C4264 0.950 . S
H4256 C4266 0.950 . S
H4257 C4268 0.950 . S
H4258 C4270 0.950 . S
H4259 C4271 0.950 . S
C4260 H4252 0.950 . S
C4260 C4261 1.386 . S
C4260 C4262 1.391 . S
C4261 C4260 1.386 . S
C4261 C4265 1.393 . S
C4262 H4254 0.950 . S
C4262 C4260 1.391 . S
C4262 C4263 1.400 . S
C4263 C4262 1.400 . S
C4263 C4264 1.398 . S
C4263 C4269 1.491 . S
C4264 H4255 0.950 . S
C4264 C4263 1.398 . S
C4264 C4265 1.391 . S
C4265 H4253 0.950 . S
C4265 C4261 1.393 . S
C4265 C4264 1.391 . S
C4266 H4256 0.950 . S
C4266 C4267 1.386 . S
C4266 C4268 1.391 . S
C4267 C4266 1.386 . S
C4267 C4271 1.393 . S
C4268 H4257 0.950 . S
C4268 C4266 1.391 . S
C4268 C4269 1.400 . S
C4269 C4263 1.491 . S
C4269 C4268 1.400 . S
C4269 C4270 1.398 . S
C4270 H4258 0.950 . S
C4270 C4269 1.398 . S
C4270 C4271 1.391 . S
C4271 H4259 0.950 . S
C4271 C4267 1.393 . S
C4271 C4270 1.391 . S
H4272 C4280 0.950 . S
H4273 C4285 0.950 . S
H4274 C4282 0.950 . S
H4275 C4284 0.950 . S
H4276 C4286 0.950 . S
H4277 C4288 0.950 . S
H4278 C4290 0.950 . S
H4279 C4291 0.950 . S
C4280 H4272 0.950 . S
C4280 C4281 1.386 . S
C4280 C4282 1.391 . S
C4281 C4280 1.386 . S
C4281 C4285 1.393 . S
C4282 H4274 0.950 . S
C4282 C4280 1.391 . S
C4282 C4283 1.400 . S
C4283 C4282 1.400 . S
C4283 C4284 1.398 . S
C4283 C4289 1.491 1_554 S
C4284 H4275 0.950 . S
C4284 C4283 1.398 . S
C4284 C4285 1.391 . S
C4285 H4273 0.950 . S
C4285 C4281 1.393 . S
C4285 C4284 1.391 . S
C4286 H4276 0.950 . S
C4286 C4287 1.386 . S
C4286 C4288 1.391 . S
C4287 C4286 1.386 . S
C4287 C4291 1.393 . S
C4288 H4277 0.950 . S
C4288 C4286 1.391 . S
C4288 C4289 1.400 . S
C4289 C4283 1.491 1_556 S
C4289 C4288 1.400 . S
C4289 C4290 1.398 . S
C4290 H4278 0.950 . S
C4290 C4289 1.398 . S
C4290 C4291 1.391 . S
C4291 H4279 0.950 . S
C4291 C4287 1.393 . S
C4291 C4290 1.391 . S
H4292 C4300 0.950 . S
H4293 C4305 0.950 . S
H4294 C4302 0.950 . S
H4295 C4304 0.950 . S
H4296 C4306 0.950 . S
H4297 C4308 0.950 . S
H4298 C4310 0.950 . S
H4299 C4311 0.950 . S
C4300 H4292 0.950 . S
C4300 C4301 1.386 . S
C4300 C4302 1.391 . S
C4301 C4300 1.386 . S
C4301 C4305 1.393 . S
C4302 H4294 0.950 . S
C4302 C4300 1.391 . S
C4302 C4303 1.400 . S
C4303 C4302 1.400 . S
C4303 C4304 1.398 . S
C4303 C4309 1.491 1_556 S
C4304 H4295 0.950 . S
C4304 C4303 1.398 . S
C4304 C4305 1.391 . S
C4305 H4293 0.950 . S
C4305 C4301 1.393 . S
C4305 C4304 1.391 . S
C4306 H4296 0.950 . S
C4306 C4307 1.386 . S
C4306 C4308 1.391 . S
C4307 C4306 1.386 . S
C4307 C4311 1.393 . S
C4308 H4297 0.950 . S
C4308 C4306 1.391 . S
C4308 C4309 1.400 . S
C4309 C4303 1.491 1_554 S
C4309 C4308 1.400 . S
C4309 C4310 1.398 . S
C4310 H4298 0.950 . S
C4310 C4309 1.398 . S
C4310 C4311 1.391 . S
C4311 H4299 0.950 . S
C4311 C4307 1.393 . S
C4311 C4310 1.391 . S
H4312 C4320 0.950 . S
H4313 C4325 0.950 . S
H4314 C4322 0.950 . S
H4315 C4324 0.950 . S
H4316 C4326 0.950 . S
H4317 C4328 0.950 . S
H4318 C4330 0.950 . S
H4319 C4331 0.950 . S
C4320 H4312 0.950 . S
C4320 C4321 1.386 . S
C4320 C4322 1.391 . S
C4321 C4320 1.386 . S
C4321 C4325 1.393 . S
C4322 H4314 0.950 . S
C4322 C4320 1.391 . S
C4322 C4323 1.400 . S
C4323 C4322 1.400 . S
C4323 C4324 1.398 . S
C4323 C4329 1.491 1_554 S
C4324 H4315 0.950 . S
C4324 C4323 1.398 . S
C4324 C4325 1.391 . S
C4325 H4313 0.950 . S
C4325 C4321 1.393 . S
C4325 C4324 1.391 . S
C4326 H4316 0.950 . S
C4326 C4327 1.386 . S
C4326 C4328 1.391 . S
C4327 C4326 1.386 . S
C4327 C4331 1.393 . S
C4328 H4317 0.950 . S
C4328 C4326 1.391 . S
C4328 C4329 1.400 . S
C4329 C4323 1.491 1_556 S
C4329 C4328 1.400 . S
C4329 C4330 1.398 . S
C4330 H4318 0.950 . S
C4330 C4329 1.398 . S
C4330 C4331 1.391 . S
C4331 H4319 0.950 . S
C4331 C4327 1.393 . S
C4331 C4330 1.391 . S
H4332 C4340 0.950 . S
H4333 C4345 0.950 . S
H4334 C4342 0.950 . S
H4335 C4344 0.950 . S
H4336 C4346 0.950 . S
H4337 C4348 0.950 . S
H4338 C4350 0.950 . S
H4339 C4351 0.950 . S
C4340 H4332 0.950 . S
C4340 C4341 1.386 . S
C4340 C4342 1.391 . S
C4341 C4340 1.386 . S
C4341 C4345 1.393 . S
C4342 H4334 0.950 . S
C4342 C4340 1.391 . S
C4342 C4343 1.400 . S
C4343 C4342 1.400 . S
C4343 C4344 1.398 . S
C4343 C4349 1.491 1_554 S
C4344 H4335 0.950 . S
C4344 C4343 1.398 . S
C4344 C4345 1.391 . S
C4345 H4333 0.950 . S
C4345 C4341 1.393 . S
C4345 C4344 1.391 . S
C4346 H4336 0.950 . S
C4346 C4347 1.386 . S
C4346 C4348 1.391 . S
C4347 C4346 1.386 . S
C4347 C4351 1.393 . S
C4348 H4337 0.950 . S
C4348 C4346 1.391 . S
C4348 C4349 1.400 . S
C4349 C4343 1.491 1_556 S
C4349 C4348 1.400 . S
C4349 C4350 1.398 . S
C4350 H4338 0.950 . S
C4350 C4349 1.398 . S
C4350 C4351 1.391 . S
C4351 H4339 0.950 . S
C4351 C4347 1.393 . S
C4351 C4350 1.391 . S
H4352 C4360 0.950 . S
H4353 C4365 0.950 . S
H4354 C4362 0.950 . S
H4355 C4364 0.950 . S
H4356 C4366 0.950 . S
H4357 C4368 0.950 . S
H4358 C4370 0.950 . S
H4359 C4371 0.950 . S
C4360 H4352 0.950 . S
C4360 C4361 1.386 . S
C4360 C4362 1.391 . S
C4361 C4360 1.386 . S
C4361 C4365 1.393 . S
C4362 H4354 0.950 . S
C4362 C4360 1.391 . S
C4362 C4363 1.400 . S
C4363 C4362 1.400 . S
C4363 C4364 1.398 . S
C4363 C4369 1.491 1_556 S
C4364 H4355 0.950 . S
C4364 C4363 1.398 . S
C4364 C4365 1.391 . S
C4365 H4353 0.950 . S
C4365 C4361 1.393 . S
C4365 C4364 1.391 . S
C4366 H4356 0.950 . S
C4366 C4367 1.386 . S
C4366 C4368 1.391 . S
C4367 C4366 1.386 . S
C4367 C4371 1.393 . S
C4368 H4357 0.950 . S
C4368 C4366 1.391 . S
C4368 C4369 1.400 . S
C4369 C4363 1.491 1_554 S
C4369 C4368 1.400 . S
C4369 C4370 1.398 . S
C4370 H4358 0.950 . S
C4370 C4369 1.398 . S
C4370 C4371 1.391 . S
C4371 H4359 0.950 . S
C4371 C4367 1.393 . S
C4371 C4370 1.391 . S
H4372 C4380 0.950 . S
H4373 C4385 0.950 . S
H4374 C4382 0.950 . S
H4375 C4384 0.950 . S
H4376 C4386 0.950 . S
H4377 C4388 0.950 . S
H4378 C4390 0.950 . S
H4379 C4391 0.950 . S
C4380 H4372 0.950 . S
C4380 C4381 1.386 . S
C4380 C4382 1.391 . S
C4381 C4380 1.386 . S
C4381 C4385 1.393 . S
C4382 H4374 0.950 . S
C4382 C4380 1.391 . S
C4382 C4383 1.400 . S
C4383 C4382 1.400 . S
C4383 C4384 1.398 . S
C4383 C4389 1.491 1_554 S
C4384 H4375 0.950 . S
C4384 C4383 1.398 . S
C4384 C4385 1.391 . S
C4385 H4373 0.950 . S
C4385 C4381 1.393 . S
C4385 C4384 1.391 . S
C4386 H4376 0.950 . S
C4386 C4387 1.386 . S
C4386 C4388 1.391 . S
C4387 C4386 1.386 . S
C4387 C4391 1.393 . S
C4388 H4377 0.950 . S
C4388 C4386 1.391 . S
C4388 C4389 1.400 . S
C4389 C4383 1.491 1_556 S
C4389 C4388 1.400 . S
C4389 C4390 1.398 . S
C4390 H4378 0.950 . S
C4390 C4389 1.398 . S
C4390 C4391 1.391 . S
C4391 H4379 0.950 . S
C4391 C4387 1.393 . S
C4391 C4390 1.391 . S
H4392 C4400 0.950 . S
H4393 C4405 0.950 . S
H4394 C4402 0.950 . S
H4395 C4404 0.950 . S
H4396 C4406 0.950 . S
H4397 C4408 0.950 . S
H4398 C4410 0.950 . S
H4399 C4411 0.950 . S
C4400 H4392 0.950 . S
C4400 C4401 1.386 . S
C4400 C4402 1.391 . S
C4401 C4400 1.386 . S
C4401 C4405 1.393 . S
C4402 H4394 0.950 . S
C4402 C4400 1.391 . S
C4402 C4403 1.400 . S
C4403 C4402 1.400 . S
C4403 C4404 1.398 . S
C4403 C4409 1.491 1_556 S
C4404 H4395 0.950 . S
C4404 C4403 1.398 . S
C4404 C4405 1.391 . S
C4405 H4393 0.950 . S
C4405 C4401 1.393 . S
C4405 C4404 1.391 . S
C4406 H4396 0.950 . S
C4406 C4407 1.386 . S
C4406 C4408 1.391 . S
C4407 C4406 1.386 . S
C4407 C4411 1.393 . S
C4408 H4397 0.950 . S
C4408 C4406 1.391 . S
C4408 C4409 1.400 . S
C4409 C4403 1.491 1_554 S
C4409 C4408 1.400 . S
C4409 C4410 1.398 . S
C4410 H4398 0.950 . S
C4410 C4409 1.398 . S
C4410 C4411 1.391 . S
C4411 H4399 0.950 . S
C4411 C4407 1.393 . S
C4411 C4410 1.391 . S
H4412 C4420 0.950 . S
H4413 C4425 0.950 . S
H4414 C4422 0.950 . S
H4415 C4424 0.950 . S
H4416 C4426 0.950 . S
H4417 C4428 0.950 . S
H4418 C4430 0.950 . S
H4419 C4431 0.950 . S
C4420 H4412 0.950 . S
C4420 C4421 1.386 . S
C4420 C4422 1.391 . S
C4421 C4420 1.386 . S
C4421 C4425 1.393 . S
C4422 H4414 0.950 . S
C4422 C4420 1.391 . S
C4422 C4423 1.400 . S
C4423 C4422 1.400 . S
C4423 C4424 1.398 . S
C4423 C4429 1.491 1_554 S
C4424 H4415 0.950 . S
C4424 C4423 1.398 . S
C4424 C4425 1.391 . S
C4425 H4413 0.950 . S
C4425 C4421 1.393 . S
C4425 C4424 1.391 . S
C4426 H4416 0.950 . S
C4426 C4427 1.386 . S
C4426 C4428 1.391 . S
C4427 C4426 1.386 . S
C4427 C4431 1.393 . S
C4428 H4417 0.950 . S
C4428 C4426 1.391 . S
C4428 C4429 1.400 . S
C4429 C4423 1.491 1_556 S
C4429 C4428 1.400 . S
C4429 C4430 1.398 . S
C4430 H4418 0.950 . S
C4430 C4429 1.398 . S
C4430 C4431 1.391 . S
C4431 H4419 0.950 . S
C4431 C4427 1.393 . S
C4431 C4430 1.391 . S
H4432 C4440 0.950 . S
H4433 C4445 0.950 . S
H4434 C4442 0.950 . S
H4435 C4444 0.950 . S
H4436 C4446 0.950 . S
H4437 C4448 0.950 . S
H4438 C4450 0.950 . S
H4439 C4451 0.950 . S
C4440 H4432 0.950 . S
C4440 C4441 1.386 . S
C4440 C4442 1.391 . S
C4441 C4440 1.386 . S
C4441 C4445 1.393 . S
C4442 H4434 0.950 . S
C4442 C4440 1.391 . S
C4442 C4443 1.400 . S
C4443 C4442 1.400 . S
C4443 C4444 1.398 . S
C4443 C4449 1.491 1_455 S
C4444 H4435 0.950 . S
C4444 C4443 1.398 . S
C4444 C4445 1.391 . S
C4445 H4433 0.950 . S
C4445 C4441 1.393 . S
C4445 C4444 1.391 . S
C4446 H4436 0.950 . S
C4446 C4447 1.386 . S
C4446 C4448 1.391 . S
C4447 C4446 1.386 . S
C4447 C4451 1.393 . S
C4448 H4437 0.950 . S
C4448 C4446 1.391 . S
C4448 C4449 1.400 . S
C4449 C4443 1.491 1_655 S
C4449 C4448 1.400 . S
C4449 C4450 1.398 . S
C4450 H4438 0.950 . S
C4450 C4449 1.398 . S
C4450 C4451 1.391 . S
C4451 H4439 0.950 . S
C4451 C4447 1.393 . S
C4451 C4450 1.391 . S
H4452 C4460 0.950 . S
H4453 C4465 0.950 . S
H4454 C4462 0.950 . S
H4455 C4464 0.950 . S
H4456 C4466 0.950 . S
H4457 C4468 0.950 . S
H4458 C4470 0.950 . S
H4459 C4471 0.950 . S
C4460 H4452 0.950 . S
C4460 C4461 1.386 . S
C4460 C4462 1.391 . S
C4461 C4460 1.386 . S
C4461 C4465 1.393 . S
C4462 H4454 0.950 . S
C4462 C4460 1.391 . S
C4462 C4463 1.400 . S
C4463 C4462 1.400 . S
C4463 C4464 1.398 . S
C4463 C4469 1.491 1_565 S
C4464 H4455 0.950 . S
C4464 C4463 1.398 . S
C4464 C4465 1.391 . S
C4465 H4453 0.950 . S
C4465 C4461 1.393 . S
C4465 C4464 1.391 . S
C4466 H4456 0.950 . S
C4466 C4467 1.386 . S
C4466 C4468 1.391 . S
C4467 C4466 1.386 . S
C4467 C4471 1.393 . S
C4468 H4457 0.950 . S
C4468 C4466 1.391 . S
C4468 C4469 1.400 . S
C4469 C4463 1.491 1_545 S
C4469 C4468 1.400 . S
C4469 C4470 1.398 . S
C4470 H4458 0.950 . S
C4470 C4469 1.398 . S
C4470 C4471 1.391 . S
C4471 H4459 0.950 . S
C4471 C4467 1.393 . S
C4471 C4470 1.391 . S
H4472 C4480 0.950 . S
H4473 C4485 0.950 . S
H4474 C4482 0.950 . S
H4475 C4484 0.950 . S
H4476 C4486 0.950 . S
H4477 C4488 0.950 . S
H4478 C4490 0.950 . S
H4479 C4491 0.950 . S
C4480 H4472 0.950 . S
C4480 C4481 1.386 . S
C4480 C4482 1.391 . S
C4481 C4480 1.386 . S
C4481 C4485 1.393 . S
C4482 H4474 0.950 . S
C4482 C4480 1.391 . S
C4482 C4483 1.400 . S
C4483 C4482 1.400 . S
C4483 C4484 1.398 . S
C4483 C4489 1.491 1_455 S
C4484 H4475 0.950 . S
C4484 C4483 1.398 . S
C4484 C4485 1.391 . S
C4485 H4473 0.950 . S
C4485 C4481 1.393 . S
C4485 C4484 1.391 . S
C4486 H4476 0.950 . S
C4486 C4487 1.386 . S
C4486 C4488 1.391 . S
C4487 C4486 1.386 . S
C4487 C4491 1.393 . S
C4488 H4477 0.950 . S
C4488 C4486 1.391 . S
C4488 C4489 1.400 . S
C4489 C4483 1.491 1_655 S
C4489 C4488 1.400 . S
C4489 C4490 1.398 . S
C4490 H4478 0.950 . S
C4490 C4489 1.398 . S
C4490 C4491 1.391 . S
C4491 H4479 0.950 . S
C4491 C4487 1.393 . S
C4491 C4490 1.391 . S
H4492 C4500 0.950 . S
H4493 C4505 0.950 . S
H4494 C4502 0.950 . S
H4495 C4504 0.950 . S
H4496 C4506 0.950 . S
H4497 C4508 0.950 . S
H4498 C4510 0.950 . S
H4499 C4511 0.950 . S
C4500 H4492 0.950 . S
C4500 C4501 1.386 . S
C4500 C4502 1.391 . S
C4501 C4500 1.386 . S
C4501 C4505 1.393 . S
C4502 H4494 0.950 . S
C4502 C4500 1.391 . S
C4502 C4503 1.400 . S
C4503 C4502 1.400 . S
C4503 C4504 1.398 . S
C4503 C4509 1.491 1_565 S
C4504 H4495 0.950 . S
C4504 C4503 1.398 . S
C4504 C4505 1.391 . S
C4505 H4493 0.950 . S
C4505 C4501 1.393 . S
C4505 C4504 1.391 . S
C4506 H4496 0.950 . S
C4506 C4507 1.386 . S
C4506 C4508 1.391 . S
C4507 C4506 1.386 . S
C4507 C4511 1.393 . S
C4508 H4497 0.950 . S
C4508 C4506 1.391 . S
C4508 C4509 1.400 . S
C4509 C4503 1.491 1_545 S
C4509 C4508 1.400 . S
C4509 C4510 1.398 . S
C4510 H4498 0.950 . S
C4510 C4509 1.398 . S
C4510 C4511 1.391 . S
C4511 H4499 0.950 . S
C4511 C4507 1.393 . S
C4511 C4510 1.391 . S
H4512 C4520 0.950 . S
H4513 C4525 0.950 . S
H4514 C4522 0.950 . S
H4515 C4524 0.950 . S
H4516 C4526 0.950 . S
H4517 C4528 0.950 . S
H4518 C4530 0.950 . S
H4519 C4531 0.950 . S
C4520 H4512 0.950 . S
C4520 C4521 1.386 . S
C4520 C4522 1.391 . S
C4521 C4520 1.386 . S
C4521 C4525 1.393 . S
C4522 H4514 0.950 . S
C4522 C4520 1.391 . S
C4522 C4523 1.400 . S
C4523 C4522 1.400 . S
C4523 C4524 1.398 . S
C4523 C4529 1.491 1_655 S
C4524 H4515 0.950 . S
C4524 C4523 1.398 . S
C4524 C4525 1.391 . S
C4525 H4513 0.950 . S
C4525 C4521 1.393 . S
C4525 C4524 1.391 . S
C4526 H4516 0.950 . S
C4526 C4527 1.386 . S
C4526 C4528 1.391 . S
C4527 C4526 1.386 . S
C4527 C4531 1.393 . S
C4528 H4517 0.950 . S
C4528 C4526 1.391 . S
C4528 C4529 1.400 . S
C4529 C4523 1.491 1_455 S
C4529 C4528 1.400 . S
C4529 C4530 1.398 . S
C4530 H4518 0.950 . S
C4530 C4529 1.398 . S
C4530 C4531 1.391 . S
C4531 H4519 0.950 . S
C4531 C4527 1.393 . S
C4531 C4530 1.391 . S
H4532 C4540 0.950 . S
H4533 C4545 0.950 . S
H4534 C4542 0.950 . S
H4535 C4544 0.950 . S
H4536 C4546 0.950 . S
H4537 C4548 0.950 . S
H4538 C4550 0.950 . S
H4539 C4551 0.950 . S
C4540 H4532 0.950 . S
C4540 C4541 1.386 . S
C4540 C4542 1.391 . S
C4541 C4540 1.386 . S
C4541 C4545 1.393 . S
C4542 H4534 0.950 . S
C4542 C4540 1.391 . S
C4542 C4543 1.400 . S
C4543 C4542 1.400 . S
C4543 C4544 1.398 . S
C4543 C4549 1.491 1_545 S
C4544 H4535 0.950 . S
C4544 C4543 1.398 . S
C4544 C4545 1.391 . S
C4545 H4533 0.950 . S
C4545 C4541 1.393 . S
C4545 C4544 1.391 . S
C4546 H4536 0.950 . S
C4546 C4547 1.386 . S
C4546 C4548 1.391 . S
C4547 C4546 1.386 . S
C4547 C4551 1.393 . S
C4548 H4537 0.950 . S
C4548 C4546 1.391 . S
C4548 C4549 1.400 . S
C4549 C4543 1.491 1_565 S
C4549 C4548 1.400 . S
C4549 C4550 1.398 . S
C4550 H4538 0.950 . S
C4550 C4549 1.398 . S
C4550 C4551 1.391 . S
C4551 H4539 0.950 . S
C4551 C4547 1.393 . S
C4551 C4550 1.391 . S
H4552 C4560 0.950 . S
H4553 C4565 0.950 . S
H4554 C4562 0.950 . S
H4555 C4564 0.950 . S
H4556 C4566 0.950 . S
H4557 C4568 0.950 . S
H4558 C4570 0.950 . S
H4559 C4571 0.950 . S
C4560 H4552 0.950 . S
C4560 C4561 1.386 . S
C4560 C4562 1.391 . S
C4561 C4560 1.386 . S
C4561 C4565 1.393 . S
C4562 H4554 0.950 . S
C4562 C4560 1.391 . S
C4562 C4563 1.400 . S
C4563 C4562 1.400 . S
C4563 C4564 1.398 . S
C4563 C4569 1.491 1_455 S
C4564 H4555 0.950 . S
C4564 C4563 1.398 . S
C4564 C4565 1.391 . S
C4565 H4553 0.950 . S
C4565 C4561 1.393 . S
C4565 C4564 1.391 . S
C4566 H4556 0.950 . S
C4566 C4567 1.386 . S
C4566 C4568 1.391 . S
C4567 C4566 1.386 . S
C4567 C4571 1.393 . S
C4568 H4557 0.950 . S
C4568 C4566 1.391 . S
C4568 C4569 1.400 . S
C4569 C4563 1.491 1_655 S
C4569 C4568 1.400 . S
C4569 C4570 1.398 . S
C4570 H4558 0.950 . S
C4570 C4569 1.398 . S
C4570 C4571 1.391 . S
C4571 H4559 0.950 . S
C4571 C4567 1.393 . S
C4571 C4570 1.391 . S
H4572 C4580 0.950 . S
H4573 C4585 0.950 . S
H4574 C4582 0.950 . S
H4575 C4584 0.950 . S
H4576 C4586 0.950 . S
H4577 C4588 0.950 . S
H4578 C4590 0.950 . S
H4579 C4591 0.950 . S
C4580 H4572 0.950 . S
C4580 C4581 1.386 . S
C4580 C4582 1.391 . S
C4581 C4580 1.386 . S
C4581 C4585 1.393 . S
C4582 H4574 0.950 . S
C4582 C4580 1.391 . S
C4582 C4583 1.400 . S
C4583 C4582 1.400 . S
C4583 C4584 1.398 . S
C4583 C4589 1.491 1_545 S
C4584 H4575 0.950 . S
C4584 C4583 1.398 . S
C4584 C4585 1.391 . S
C4585 H4573 0.950 . S
C4585 C4581 1.393 . S
C4585 C4584 1.391 . S
C4586 H4576 0.950 . S
C4586 C4587 1.386 . S
C4586 C4588 1.391 . S
C4587 C4586 1.386 . S
C4587 C4591 1.393 . S
C4588 H4577 0.950 . S
C4588 C4586 1.391 . S
C4588 C4589 1.400 . S
C4589 C4583 1.491 1_565 S
C4589 C4588 1.400 . S
C4589 C4590 1.398 . S
C4590 H4578 0.950 . S
C4590 C4589 1.398 . S
C4590 C4591 1.391 . S
C4591 H4579 0.950 . S
C4591 C4587 1.393 . S
C4591 C4590 1.391 . S
H4592 C4600 0.950 . S
H4593 C4605 0.950 . S
H4594 C4602 0.950 . S
H4595 C4604 0.950 . S
H4596 C4606 0.950 . S
H4597 C4608 0.950 . S
H4598 C4610 0.950 . S
H4599 C4611 0.950 . S
C4600 H4592 0.950 . S
C4600 C4601 1.386 . S
C4600 C4602 1.391 . S
C4601 C4600 1.386 . S
C4601 C4605 1.393 . S
C4602 H4594 0.950 . S
C4602 C4600 1.391 . S
C4602 C4603 1.400 . S
C4603 C4602 1.400 . S
C4603 C4604 1.398 . S
C4603 C4609 1.491 1_545 S
C4604 H4595 0.950 . S
C4604 C4603 1.398 . S
C4604 C4605 1.391 . S
C4605 H4593 0.950 . S
C4605 C4601 1.393 . S
C4605 C4604 1.391 . S
C4606 H4596 0.950 . S
C4606 C4607 1.386 . S
C4606 C4608 1.391 . S
C4607 C4606 1.386 . S
C4607 C4611 1.393 . S
C4608 H4597 0.950 . S
C4608 C4606 1.391 . S
C4608 C4609 1.400 . S
C4609 C4603 1.491 1_565 S
C4609 C4608 1.400 . S
C4609 C4610 1.398 . S
C4610 H4598 0.950 . S
C4610 C4609 1.398 . S
C4610 C4611 1.391 . S
C4611 H4599 0.950 . S
C4611 C4607 1.393 . S
C4611 C4610 1.391 . S
H4612 C4620 0.950 . S
H4613 C4625 0.950 . S
H4614 C4622 0.950 . S
H4615 C4624 0.950 . S
H4616 C4626 0.950 . S
H4617 C4628 0.950 . S
H4618 C4630 0.950 . S
H4619 C4631 0.950 . S
C4620 H4612 0.950 . S
C4620 C4621 1.386 . S
C4620 C4622 1.391 . S
C4621 C4620 1.386 . S
C4621 C4625 1.393 . S
C4622 H4614 0.950 . S
C4622 C4620 1.391 . S
C4622 C4623 1.400 . S
C4623 C4622 1.400 . S
C4623 C4624 1.398 . S
C4623 C4629 1.491 1_545 S
C4624 H4615 0.950 . S
C4624 C4623 1.398 . S
C4624 C4625 1.391 . S
C4625 H4613 0.950 . S
C4625 C4621 1.393 . S
C4625 C4624 1.391 . S
C4626 H4616 0.950 . S
C4626 C4627 1.386 . S
C4626 C4628 1.391 . S
C4627 C4626 1.386 . S
C4627 C4631 1.393 . S
C4628 H4617 0.950 . S
C4628 C4626 1.391 . S
C4628 C4629 1.400 . S
C4629 C4623 1.491 1_565 S
C4629 C4628 1.400 . S
C4629 C4630 1.398 . S
C4630 H4618 0.950 . S
C4630 C4629 1.398 . S
C4630 C4631 1.391 . S
C4631 H4619 0.950 . S
C4631 C4627 1.393 . S
C4631 C4630 1.391 . S
H4632 C4640 0.950 . S
H4633 C4645 0.950 . S
H4634 C4642 0.950 . S
H4635 C4644 0.950 . S
H4636 C4646 0.950 . S
H4637 C4648 0.950 . S
H4638 C4650 0.950 . S
H4639 C4651 0.950 . S
C4640 H4632 0.950 . S
C4640 C4641 1.386 . S
C4640 C4642 1.391 . S
C4641 C4640 1.386 . S
C4641 C4645 1.393 . S
C4642 H4634 0.950 . S
C4642 C4640 1.391 . S
C4642 C4643 1.400 . S
C4643 C4642 1.400 . S
C4643 C4644 1.398 . S
C4643 C4649 1.491 1_655 S
C4644 H4635 0.950 . S
C4644 C4643 1.398 . S
C4644 C4645 1.391 . S
C4645 H4633 0.950 . S
C4645 C4641 1.393 . S
C4645 C4644 1.391 . S
C4646 H4636 0.950 . S
C4646 C4647 1.386 . S
C4646 C4648 1.391 . S
C4647 C4646 1.386 . S
C4647 C4651 1.393 . S
C4648 H4637 0.950 . S
C4648 C4646 1.391 . S
C4648 C4649 1.400 . S
C4649 C4643 1.491 1_455 S
C4649 C4648 1.400 . S
C4649 C4650 1.398 . S
C4650 H4638 0.950 . S
C4650 C4649 1.398 . S
C4650 C4651 1.391 . S
C4651 H4639 0.950 . S
C4651 C4647 1.393 . S
C4651 C4650 1.391 . S
H4652 C4660 0.950 . S
H4653 C4665 0.950 . S
H4654 C4662 0.950 . S
H4655 C4664 0.950 . S
H4656 C4666 0.950 . S
H4657 C4668 0.950 . S
H4658 C4670 0.950 . S
H4659 C4671 0.950 . S
C4660 H4652 0.950 . S
C4660 C4661 1.386 . S
C4660 C4662 1.391 . S
C4661 C4660 1.386 . S
C4661 C4665 1.393 . S
C4662 H4654 0.950 . S
C4662 C4660 1.391 . S
C4662 C4663 1.400 . S
C4663 C4662 1.400 . S
C4663 C4664 1.398 . S
C4663 C4669 1.491 1_545 S
C4664 H4655 0.950 . S
C4664 C4663 1.398 . S
C4664 C4665 1.391 . S
C4665 H4653 0.950 . S
C4665 C4661 1.393 . S
C4665 C4664 1.391 . S
C4666 H4656 0.950 . S
C4666 C4667 1.386 . S
C4666 C4668 1.391 . S
C4667 C4666 1.386 . S
C4667 C4671 1.393 . S
C4668 H4657 0.950 . S
C4668 C4666 1.391 . S
C4668 C4669 1.400 . S
C4669 C4663 1.491 1_565 S
C4669 C4668 1.400 . S
C4669 C4670 1.398 . S
C4670 H4658 0.950 . S
C4670 C4669 1.398 . S
C4670 C4671 1.391 . S
C4671 H4659 0.950 . S
C4671 C4667 1.393 . S
C4671 C4670 1.391 . S
H4672 C4680 0.950 . S
H4673 C4685 0.950 . S
H4674 C4682 0.950 . S
H4675 C4684 0.950 . S
H4676 C4686 0.950 . S
H4677 C4688 0.950 . S
H4678 C4690 0.950 . S
H4679 C4691 0.950 . S
C4680 H4672 0.950 . S
C4680 C4681 1.386 . S
C4680 C4682 1.391 . S
C4681 C4680 1.386 . S
C4681 C4685 1.393 . S
C4682 H4674 0.950 . S
C4682 C4680 1.391 . S
C4682 C4683 1.400 . S
C4683 C4682 1.400 . S
C4683 C4684 1.398 . S
C4683 C4689 1.491 1_455 S
C4684 H4675 0.950 . S
C4684 C4683 1.398 . S
C4684 C4685 1.391 . S
C4685 H4673 0.950 . S
C4685 C4681 1.393 . S
C4685 C4684 1.391 . S
C4686 H4676 0.950 . S
C4686 C4687 1.386 . S
C4686 C4688 1.391 . S
C4687 C4686 1.386 . S
C4687 C4691 1.393 . S
C4688 H4677 0.950 . S
C4688 C4686 1.391 . S
C4688 C4689 1.400 . S
C4689 C4683 1.491 1_655 S
C4689 C4688 1.400 . S
C4689 C4690 1.398 . S
C4690 H4678 0.950 . S
C4690 C4689 1.398 . S
C4690 C4691 1.391 . S
C4691 H4679 0.950 . S
C4691 C4687 1.393 . S
C4691 C4690 1.391 . S
H4692 C4700 0.950 . S
H4693 C4705 0.950 . S
H4694 C4702 0.950 . S
H4695 C4704 0.950 . S
H4696 C4706 0.950 . S
H4697 C4708 0.950 . S
H4698 C4710 0.950 . S
H4699 C4711 0.950 . S
C4700 H4692 0.950 . S
C4700 C4701 1.386 . S
C4700 C4702 1.391 . S
C4701 C4700 1.386 . S
C4701 C4705 1.393 . S
C4702 H4694 0.950 . S
C4702 C4700 1.391 . S
C4702 C4703 1.400 . S
C4703 C4702 1.400 . S
C4703 C4704 1.398 . S
C4703 C4709 1.491 1_545 S
C4704 H4695 0.950 . S
C4704 C4703 1.398 . S
C4704 C4705 1.391 . S
C4705 H4693 0.950 . S
C4705 C4701 1.393 . S
C4705 C4704 1.391 . S
C4706 H4696 0.950 . S
C4706 C4707 1.386 . S
C4706 C4708 1.391 . S
C4707 C4706 1.386 . S
C4707 C4711 1.393 . S
C4708 H4697 0.950 . S
C4708 C4706 1.391 . S
C4708 C4709 1.400 . S
C4709 C4703 1.491 1_565 S
C4709 C4708 1.400 . S
C4709 C4710 1.398 . S
C4710 H4698 0.950 . S
C4710 C4709 1.398 . S
C4710 C4711 1.391 . S
C4711 H4699 0.950 . S
C4711 C4707 1.393 . S
C4711 C4710 1.391 . S
H4712 C4720 0.950 . S
H4713 C4725 0.950 . S
H4714 C4722 0.950 . S
H4715 C4724 0.950 . S
H4716 C4726 0.950 . S
H4717 C4728 0.950 . S
H4718 C4730 0.950 . S
H4719 C4731 0.950 . S
C4720 H4712 0.950 . S
C4720 C4721 1.386 . S
C4720 C4722 1.391 . S
C4721 C4720 1.386 . S
C4721 C4725 1.393 . S
C4722 H4714 0.950 . S
C4722 C4720 1.391 . S
C4722 C4723 1.400 . S
C4723 C4722 1.400 . S
C4723 C4724 1.398 . S
C4723 C4729 1.491 1_655 S
C4724 H4715 0.950 . S
C4724 C4723 1.398 . S
C4724 C4725 1.391 . S
C4725 H4713 0.950 . S
C4725 C4721 1.393 . S
C4725 C4724 1.391 . S
C4726 H4716 0.950 . S
C4726 C4727 1.386 . S
C4726 C4728 1.391 . S
C4727 C4726 1.386 . S
C4727 C4731 1.393 . S
C4728 H4717 0.950 . S
C4728 C4726 1.391 . S
C4728 C4729 1.400 . S
C4729 C4723 1.491 1_455 S
C4729 C4728 1.400 . S
C4729 C4730 1.398 . S
C4730 H4718 0.950 . S
C4730 C4729 1.398 . S
C4730 C4731 1.391 . S
C4731 H4719 0.950 . S
C4731 C4727 1.393 . S
C4731 C4730 1.391 . S
H4732 C4740 0.950 . S
H4733 C4745 0.950 . S
H4734 C4742 0.950 . S
H4735 C4744 0.950 . S
H4736 C4746 0.950 . S
H4737 C4748 0.950 . S
H4738 C4750 0.950 . S
H4739 C4751 0.950 . S
C4740 H4732 0.950 . S
C4740 C4741 1.386 . S
C4740 C4742 1.391 . S
C4741 C4740 1.386 . S
C4741 C4745 1.393 . S
C4742 H4734 0.950 . S
C4742 C4740 1.391 . S
C4742 C4743 1.400 . S
C4743 C4742 1.400 . S
C4743 C4744 1.398 . S
C4743 C4749 1.491 1_455 S
C4744 H4735 0.950 . S
C4744 C4743 1.398 . S
C4744 C4745 1.391 . S
C4745 H4733 0.950 . S
C4745 C4741 1.393 . S
C4745 C4744 1.391 . S
C4746 H4736 0.950 . S
C4746 C4747 1.386 . S
C4746 C4748 1.391 . S
C4747 C4746 1.386 . S
C4747 C4751 1.393 . S
C4748 H4737 0.950 . S
C4748 C4746 1.391 . S
C4748 C4749 1.400 . S
C4749 C4743 1.491 1_655 S
C4749 C4748 1.400 . S
C4749 C4750 1.398 . S
C4750 H4738 0.950 . S
C4750 C4749 1.398 . S
C4750 C4751 1.391 . S
C4751 H4739 0.950 . S
C4751 C4747 1.393 . S
C4751 C4750 1.391 . S
C2841 C2304 1.361 . S
C2847 C3 1.341 . S
C2861 C64 1.359 . S
C2867 C2127 1.346 . S
C2881 C121 1.356 . S
C2887 C2186 1.339 . S
C2901 C2247 1.350 . S
C2907 C182 1.358 . S
C2921 C1952 1.358 . S
C2927 C241 1.351 . S
C2941 C298 1.338 . S
C2947 C2011 1.365 . S
C2961 C359 1.359 . S
C2967 C2068 1.347 . S
C2981 C416 1.340 . S
C2987 C1893 1.370 . S
C3001 C475 1.342 . S
C3007 C1832 1.360 . S
C3021 C1657 1.360 . S
C3027 C536 1.349 . S
C3041 C1714 1.340 . S
C3047 C595 1.365 . S
C3061 C652 1.348 . S
C3067 C1775 1.352 . S
C3081 C711 1.335 . S
C3087 C1480 1.366 . S
C3101 C772 1.356 . S
C3107 C1537 1.353 . S
C3121 C1598 1.353 . S
C3127 C831 1.362 . S
C3141 C1419 1.353 . S
C3147 C888 1.349 . S
C3161 C949 1.357 . S
C3167 C2601 1.366 . S
C3181 C2776 1.339 . S
C3187 C1006 1.347 . S
C3201 C2660 1.369 . S
C3207 C1067 1.357 . S
C3221 C2717 1.334 . S
C3227 C1124 1.352 . S
C3241 C2365 1.358 . S
C3247 C1185 1.368 . S
C3261 C2483 1.359 . S
C3267 C1244 1.364 . S
C3281 C1301 1.350 . S
C3287 C2540 1.336 . S
C3301 C2422 1.340 . S
C3307 C1360 1.347 . S
C3321 C1891 1.341 . S
C3327 C1183 1.361 . S
C3341 C1008 1.362 . S
C3347 C1950 1.331 . S
C3361 C2009 1.340 . S
C3367 C1065 1.355 . S
C3381 C2070 1.358 . S
C3387 C1126 1.357 . S
C3401 C1362 1.357 . S
C3407 C2129 1.360 . S
C3421 C2188 1.363 . S
C3427 C1242 1.342 . S
C3441 C1303 1.357 . S
C3447 C2245 1.340 . S
C3461 C947 1.339 . S
C3467 C2306 1.370 . S
C3481 C2363 1.350 . S
C3487 C890 1.364 . S
C3501 C713 1.359 . S
C3507 C2778 1.350 . S
C3521 C2658 1.338 . S
C3527 C770 1.357 . S
C3541 C829 1.340 . S
C3547 C2719 1.357 . S
C3561 C534 1.347 . S
C3567 C2424 1.358 . S
C3581 C593 1.353 . S
C3587 C2481 1.341 . S
C3601 C654 1.363 . S
C3607 C2542 1.353 . S
C3621 C2599 1.353 . S
C3627 C477 1.362 . S
C3641 C1421 1.363 . S
C3647 C418 1.362 . S
C3661 C1655 1.342 . S
C3667 C62 1.345 . S
C3681 C1716 1.356 . S
C3687 C123 1.367 . S
C3701 C1773 1.334 . S
C3707 C180 1.352 . S
C3721 C1834 1.364 . S
C3727 C5 1.365 . S
C3741 C300 1.359 . S
C3747 C1539 1.361 . S
C3761 C1596 1.334 . S
C3767 C357 1.353 . S
C3781 C1478 1.342 . S
C3787 C239 1.345 . S
C3801 C33 1.607 . S
C3807 C1567 1.609 . S
C3821 C1645 1.604 . S
C3827 C111 1.607 . S
C3841 C151 1.607 . S
C3847 C1449 1.609 . S
C3861 C229 1.603 . S
C3867 C1527 1.606 . S
C3881 C288 1.603 . S
C3887 C1822 1.606 . S
C3901 C1862 1.607 . S
C3907 C328 1.608 . S
C3921 C406 1.603 . S
C3927 C1704 1.607 . S
C3941 C1744 1.606 . S
C3947 C446 1.608 . S
C3961 C505 1.606 . S
C3967 C2157 1.607 . S
C3981 C2216 1.607 . S
C3987 C583 1.603 . S
C4001 C642 1.607 . S
C4007 C2294 1.604 . S
C4021 C682 1.606 . S
C4027 C2334 1.606 . S
C4041 C741 1.608 . S
C4047 C1940 1.605 . S
C4061 C819 1.607 . S
C4067 C1999 1.605 . S
C4081 C2058 1.606 . S
C4087 C878 1.607 . S
C4101 C918 1.607 . S
C4107 C2098 1.607 . S
C4121 C2570 1.607 . S
C4127 C996 1.604 . S
C4141 C1036 1.607 . S
C4147 C2707 1.604 . S
C4161 C1114 1.605 . S
C4167 C2747 1.608 . S
C4181 C2412 1.608 . S
C4187 C1154 1.608 . S
C4201 C2806 1.606 . S
C4207 C1232 1.605 . S
C4221 C1291 1.607 . S
C4227 C2452 1.607 . S
C4241 C2530 1.607 . S
C4247 C1331 1.606 . S
C4261 C1390 1.606 . S
C4267 C2648 1.605 . S
C4281 C2511 1.607 . S
C4287 C1213 1.609 . S
C4301 C1055 1.606 . S
C4307 C2589 1.603 . S
C4321 C2629 1.608 . S
C4327 C1095 1.608 . S
C4341 C2471 1.603 . S
C4347 C1173 1.607 . S
C4361 C2766 1.607 . S
C4367 C1409 1.603 . S
C4381 C1272 1.607 . S
C4387 C2393 1.608 . S
C4401 C2825 1.606 . S
C4407 C1350 1.603 . S
C4421 C977 1.608 . S
C4427 C2688 1.607 . S
C4441 C1980 1.606 . S
C4447 C937 1.604 . S
C4461 C760 1.604 . S
C4467 C2039 1.605 . S
C4481 C800 1.607 . S
C4487 C2117 1.607 . S
C4501 C1921 1.605 . S
C4507 C859 1.607 . S
C4521 C564 1.608 . S
C4527 C2353 1.608 . S
C4541 C2176 1.605 . S
C4547 C623 1.606 . S
C4561 C701 1.605 . S
C4567 C2235 1.608 . S
C4581 C524 1.604 . S
C4587 C2275 1.607 . S
C4601 C1626 1.607 . S
C4607 C465 1.608 . S
C4621 C92 1.606 . S
C4627 C1763 1.604 . S
C4641 C170 1.603 . S
C4647 C1803 1.606 . S
C4661 C1881 1.608 . S
C4667 C210 1.607 . S
C4681 C52 1.608 . S
C4687 C1685 1.607 . S
C4701 C347 1.606 . S
C4707 C1508 1.607 . S
C4721 C387 1.606 . S
C4727 C1586 1.603 . S
C4741 C269 1.608 . S
C4747 C1468 1.607 . S
