# Generated by pormake.
# Topology pcl, (4)-cn, num edge types: 1
# Building blocks:
#     Node 0, Type 0, BuildingBlock: ICAMEG_clean_sbu_1, # of connection points: 4
#     Node 1, Type 0, BuildingBlock: ICAMEG_clean_sbu_1, # of connection points: 4
#     Node 2, Type 0, BuildingBlock: ICAMEG_clean_sbu_1, # of connection points: 4
#     Node 3, Type 0, BuildingBlock: ICAMEG_clean_sbu_1, # of connection points: 4
#     Node 4, Type 0, BuildingBlock: ICAMEG_clean_sbu_1, # of connection points: 4
#     Node 5, Type 0, BuildingBlock: ICAMEG_clean_sbu_1, # of connection points: 4
#     Node 6, Type 0, BuildingBlock: ICAMEG_clean_sbu_1, # of connection points: 4
#     Node 7, Type 0, BuildingBlock: ICAMEG_clean_sbu_1, # of connection points: 4
#     Node 8, Type 0, BuildingBlock: ICAMEG_clean_sbu_1, # of connection points: 4
#     Node 9, Type 0, BuildingBlock: ICAMEG_clean_sbu_1, # of connection points: 4
#     Node 10, Type 0, BuildingBlock: ICAMEG_clean_sbu_1, # of connection points: 4
#     Node 11, Type 0, BuildingBlock: ICAMEG_clean_sbu_1, # of connection points: 4
#     Node 12, Type 0, BuildingBlock: ICAMEG_clean_sbu_1, # of connection points: 4
#     Node 13, Type 0, BuildingBlock: ICAMEG_clean_sbu_1, # of connection points: 4
#     Node 14, Type 0, BuildingBlock: ICAMEG_clean_sbu_1, # of connection points: 4
#     Node 15, Type 0, BuildingBlock: ICAMEG_clean_sbu_1, # of connection points: 4
#     Edge 16, Type (0, 0), None
#     Edge 17, Type (0, 0), None
#     Edge 18, Type (0, 0), None
#     Edge 19, Type (0, 0), None
#     Edge 20, Type (0, 0), None
#     Edge 21, Type (0, 0), None
#     Edge 22, Type (0, 0), None
#     Edge 23, Type (0, 0), None
#     Edge 24, Type (0, 0), None
#     Edge 25, Type (0, 0), None
#     Edge 26, Type (0, 0), None
#     Edge 27, Type (0, 0), None
#     Edge 28, Type (0, 0), None
#     Edge 29, Type (0, 0), None
#     Edge 30, Type (0, 0), None
#     Edge 31, Type (0, 0), None
#     Edge 32, Type (0, 0), None
#     Edge 33, Type (0, 0), None
#     Edge 34, Type (0, 0), None
#     Edge 35, Type (0, 0), None
#     Edge 36, Type (0, 0), None
#     Edge 37, Type (0, 0), None
#     Edge 38, Type (0, 0), None
#     Edge 39, Type (0, 0), None
#     Edge 40, Type (0, 0), None
#     Edge 41, Type (0, 0), None
#     Edge 42, Type (0, 0), None
#     Edge 43, Type (0, 0), None
#     Edge 44, Type (0, 0), None
#     Edge 45, Type (0, 0), None
#     Edge 46, Type (0, 0), None
#     Edge 47, Type (0, 0), None
# Relax obj value: 0.099
# Max RMSD: 0.120
# Mean RMSD: 0.117
data_MOF--net-pcl--node1-ICAMEG_clean_sbu_1--edge1-none
_symmetry_space_group_name_H-M    P1
_symmetry_Int_Tables_number       1
_symmetry_cell_setting            triclinic
loop_
_symmetry_equiv_pos_as_xyz
'x, y, z'
_cell_length_a     25.802081
_cell_length_b     20.90209
_cell_length_c     23.173894
_cell_angle_alpha  89.999888
_cell_angle_beta   90.000194
_cell_angle_gamma 89.595574
loop_
_atom_site_label
_atom_site_type_symbol
_atom_site_fract_x
_atom_site_fract_y
_atom_site_fract_z
_atom_type_partial_charge
Co0 Co 0.13593 0.4107 0.10967 0.0
Co1 Co 0.12523 0.24885 0.08497 0.0
O2 O 0.15546 0.33256 0.06823 0.0
C3 C 0.18332 0.45855 0.00685 0.0
O4 O 0.21807 0.41298 0.01391 0.0
C5 C 0.24139 0.19889 0.07354 0.0
O6 O 0.25903 0.21836 0.12359 0.0
O7 O 0.1445 0.25809 0.17048 0.0
O8 O 0.12857 0.36298 0.18301 0.0
H9 H 1.00587 0.09874 0.18863 0.0
H10 H 0.22087 0.32463 0.14628 0.0
O11 O 0.14292 0.46023 0.0375 0.0
H12 H 0.30651 0.53261 0.1402 0.0
H13 H 0.11794 0.6494 0.14276 0.0
H14 H 0.0628 0.43563 0.20459 0.0
H15 H 0.21781 0.52271 0.10838 0.0
H16 H 0.14453 0.55631 0.089 0.0
O17 O 0.19372 0.20683 0.06041 0.0
H18 H 0.05064 0.201 0.17173 0.0
H19 H 0.13843 0.11591 0.03644 0.0
H20 H 0.0261 0.52846 0.25082 0.0
H21 H 0.31068 0.33242 0.17755 0.0
H22 H 0.05354 0.63806 0.22223 0.0
H23 H 0.3546 0.4375 0.17542 0.0
O24 O 0.06165 0.39644 0.09062 0.0
H25 H 0.16502 0.25461 0.87341 0.0
H26 H 0.0379 0.19076 0.02033 0.0
H27 H 0.02544 0.15639 0.91933 0.0
H28 H 0.09041 0.1869 0.84524 0.0
H29 H 0.17663 0.2851 0.97466 0.0
H30 H 0.09442 0.01345 0.05177 0.0
H31 H 0.0276 1.00417 0.12834 0.0
O32 O 0.05349 0.28978 0.09949 0.0
C33 C 0.13815 0.30757 0.20309 0.0
C34 C 0.03527 0.1021 0.15551 0.0
C35 C 0.08505 0.05414 0.07883 0.0
N36 N 0.09673 0.16498 0.10267 0.0
C37 C 0.06067 0.15991 0.1456 0.0
C38 C 0.11028 0.11233 0.07077 0.0
C39 C 0.0474 0.04904 0.12161 0.0
C40 C 0.23797 0.37095 0.1469 0.0
N41 N 0.21005 0.42374 0.13008 0.0
C42 C 0.28979 0.37487 0.16382 0.0
C43 C 0.31447 0.43356 0.16237 0.0
C44 C 0.28743 0.48685 0.14263 0.0
C45 C 0.23556 0.48096 0.1259 0.0
C46 C 0.10461 0.60278 0.15602 0.0
C47 C 0.07665 0.48198 0.19157 0.0
C48 C 0.123 0.54847 0.12797 0.0
N49 N 0.11265 0.48844 0.14871 0.0
C50 C 0.05446 0.53525 0.21772 0.0
C51 C 0.06935 0.59621 0.20083 0.0
C52 C 0.03385 0.34654 0.09476 0.0
C53 C 0.13656 0.24059 0.90517 0.0
C54 C 0.06475 0.20626 0.98783 0.0
C55 C 0.05829 0.18562 0.93096 0.0
C56 C 0.09481 0.20253 0.88948 0.0
N57 N 0.10743 0.24 0.00369 0.0
C58 C 0.14234 0.25888 0.9627 0.0
Co59 Co 0.90446 0.6085 0.60967 0.0
Co60 Co 0.91516 0.77036 0.58497 0.0
O61 O 0.88493 0.68665 0.56823 0.0
C62 C 0.85707 0.56066 0.50685 0.0
O63 O 0.82232 0.60622 0.51391 0.0
C64 C 0.799 0.82032 0.57354 0.0
O65 O 0.78136 0.80084 0.62359 0.0
O66 O 0.89589 0.76111 0.67048 0.0
O67 O 0.91181 0.65623 0.68301 0.0
H68 H 0.03452 0.92046 0.68863 0.0
H69 H 0.81952 0.69457 0.64628 0.0
O70 O 0.89747 0.55897 0.5375 0.0
H71 H 0.73388 0.48659 0.6402 0.0
H72 H 0.92244 0.36981 0.64276 0.0
H73 H 0.97759 0.58358 0.70459 0.0
H74 H 0.82258 0.49649 0.60838 0.0
H75 H 0.89586 0.4629 0.589 0.0
O76 O 0.84667 0.81238 0.56041 0.0
H77 H 0.98975 0.8182 0.67173 0.0
H78 H 0.90195 0.90329 0.53644 0.0
H79 H 1.01429 0.49074 0.75082 0.0
H80 H 0.72971 0.68679 0.67754 0.0
H81 H 0.98684 0.38114 0.72223 0.0
H82 H 0.68579 0.58171 0.67542 0.0
O83 O 0.97874 0.62276 0.59062 0.0
H84 H 0.87537 0.76459 0.37341 0.0
H85 H 1.00249 0.82844 0.52033 0.0
H86 H 1.01495 0.86281 0.41933 0.0
H87 H 0.94997 0.83231 0.34524 0.0
H88 H 0.86376 0.7341 0.47466 0.0
H89 H 0.94597 1.00576 0.55177 0.0
H90 H 1.01279 0.01504 0.62834 0.0
O91 O 0.9869 0.72942 0.59949 0.0
C92 C 0.90224 0.71164 0.70308 0.0
C93 C 1.00512 0.9171 0.65551 0.0
C94 C 0.95533 0.96507 0.57883 0.0
N95 N 0.94366 0.85423 0.60267 0.0
C96 C 0.97972 0.8593 0.6456 0.0
C97 C 0.9301 0.90688 0.57077 0.0
C98 C 0.99299 0.97017 0.62161 0.0
C99 C 0.80242 0.64826 0.6469 0.0
N100 N 0.83034 0.59546 0.63007 0.0
C101 C 0.7506 0.64433 0.66382 0.0
C102 C 0.72592 0.58565 0.66236 0.0
C103 C 0.75296 0.53236 0.64263 0.0
C104 C 0.80482 0.53824 0.6259 0.0
C105 C 0.93578 0.41643 0.65602 0.0
C106 C 0.96374 0.53723 0.69157 0.0
C107 C 0.91739 0.47074 0.62797 0.0
N108 N 0.92774 0.53077 0.64871 0.0
C109 C 0.98593 0.48395 0.71772 0.0
C110 C 0.97104 0.42299 0.70083 0.0
C111 C 1.00653 0.67267 0.59476 0.0
C112 C 0.90382 0.77861 0.40517 0.0
C113 C 0.97564 0.81295 0.48782 0.0
C114 C 0.9821 0.83359 0.43096 0.0
C115 C 0.94558 0.81668 0.38948 0.0
N116 N 0.93296 0.77921 0.50369 0.0
C117 C 0.89805 0.76032 0.4627 0.0
Co118 Co 0.15065 0.60439 0.8823 0.0
Co119 Co 0.1247 0.76688 0.8989 0.0
O120 O 0.15978 0.68703 0.92159 0.0
C121 C 0.19398 0.51006 0.96707 0.0
O122 O 0.238 0.50592 0.93943 0.0
C123 C 0.23826 0.80371 0.91069 0.0
O124 O 0.25211 0.75286 0.88143 0.0
O125 O 0.14327 0.75243 0.81468 0.0
O126 O 0.13971 0.64565 0.80628 0.0
H127 H 0.99462 0.89423 0.78462 0.0
H128 H 0.24363 0.6345 0.95397 0.0
O129 O 0.16043 0.55477 0.95706 0.0
H130 H 0.31291 0.58732 0.76063 0.0
H131 H 0.20311 0.37661 0.83464 0.0
H132 H 0.06021 0.53335 0.83039 0.0
H133 H 0.2187 0.59024 0.77827 0.0
H134 H 0.22086 0.48896 0.84387 0.0
O135 O 0.19038 0.81862 0.91432 0.0
H136 H 0.0428 0.79736 0.81367 0.0
H137 H 0.13212 0.90673 0.93169 0.0
H138 H 0.04188 0.41988 0.81691 0.0
H139 H 0.33815 0.63225 0.93847 0.0
H140 H 0.11367 0.34035 0.81872 0.0
H141 H 0.3734 0.60599 0.84187 0.0
O142 O 0.07261 0.61099 0.89812 0.0
H143 H 0.16509 0.77325 0.11059 0.0
H144 H 0.03614 0.82789 0.96177 0.0
H145 H 0.02243 0.86513 0.06167 0.0
H146 H 0.08783 0.83882 0.13682 0.0
H147 H 0.17934 0.74262 0.00984 0.0
H148 H 0.08717 1.005 0.90105 0.0
H149 H 1.0172 0.9992 0.82769 0.0
O150 O 0.05666 0.71734 0.89033 0.0
C151 C 0.14373 0.70111 0.78443 0.0
C152 C 0.02519 0.89743 0.81643 0.0
C153 C 0.07711 0.95956 0.88177 0.0
N154 N 0.08999 0.84572 0.87487 0.0
C155 C 0.05228 0.84254 0.83355 0.0
C156 C 0.10295 0.90357 0.89842 0.0
C157 C 0.03782 0.95628 0.84068 0.0
C158 C 0.25857 0.62353 0.91146 0.0
N159 N 0.22553 0.60652 0.86783 0.0
C160 C 0.31218 0.6224 0.90311 0.0
C161 C 0.33197 0.60815 0.84876 0.0
C162 C 0.29804 0.59751 0.8032 0.0
C163 C 0.24471 0.59877 0.81336 0.0
C164 C 0.17136 0.41077 0.83508 0.0
C165 C 0.0921 0.50004 0.8328 0.0
C166 C 0.181 0.47596 0.841 0.0
N167 N 0.14136 0.51999 0.84487 0.0
C168 C 0.08118 0.43527 0.82449 0.0
C169 C 0.12107 0.3904 0.82666 0.0
C170 C 0.0409 0.65897 0.89469 0.0
C171 C 0.13665 0.78607 0.07822 0.0
C172 C 0.06414 0.81546 -0.00563 0.0
C173 C 0.05657 0.83728 0.05075 0.0
C174 C 0.09332 0.82267 0.09286 0.0
N175 N 0.10802 0.78261 0.97959 0.0
C176 C 0.14385 0.76736 0.02099 0.0
Co177 Co 0.88974 0.41482 0.3823 0.0
Co178 Co 0.91569 0.25232 0.3989 0.0
O179 O 0.88061 0.33218 0.42159 0.0
C180 C 0.8464 0.50914 0.46707 0.0
O181 O 0.80239 0.51329 0.43943 0.0
C182 C 0.80213 0.2155 0.41069 0.0
O183 O 0.78827 0.26635 0.38143 0.0
O184 O 0.89712 0.26677 0.31468 0.0
O185 O 0.90068 0.37356 0.30628 0.0
H186 H 0.04577 0.12497 0.28463 0.0
H187 H 0.79675 0.38471 0.45397 0.0
O188 O 0.87996 0.46444 0.45706 0.0
H189 H 0.72748 0.43189 0.26063 0.0
H190 H 0.83728 0.6426 0.33463 0.0
H191 H 0.98018 0.48585 0.33039 0.0
H192 H 0.82169 0.42897 0.27827 0.0
H193 H 0.81953 0.53024 0.34387 0.0
O194 O 0.85001 0.20059 0.41432 0.0
H195 H 0.99758 0.22185 0.31367 0.0
H196 H 0.90826 0.11247 0.43169 0.0
H197 H 0.9985 0.59932 0.31691 0.0
H198 H 0.70224 0.38696 0.43847 0.0
H199 H 0.92672 0.67886 0.31871 0.0
H200 H 0.66699 0.41321 0.34187 0.0
O201 O 0.96778 0.40821 0.39812 0.0
H202 H 0.8753 0.24596 0.61059 0.0
H203 H 1.00425 0.19131 0.46177 0.0
H204 H 1.01796 0.15407 0.56167 0.0
H205 H 0.95256 0.18039 0.63682 0.0
H206 H 0.86105 0.27658 0.50984 0.0
H207 H 0.95321 0.01421 0.40105 0.0
H208 H 0.02319 0.02 0.3277 0.0
O209 O 0.98373 0.30186 0.39033 0.0
C210 C 0.89666 0.3181 0.28443 0.0
C211 C 1.0152 0.12178 0.31644 0.0
C212 C 0.96328 0.05964 0.38177 0.0
N213 N 0.9504 0.17349 0.37487 0.0
C214 C 0.9881 0.17666 0.33356 0.0
C215 C 0.93744 0.11563 0.39842 0.0
C216 C 1.00257 0.06292 0.34068 0.0
C217 C 0.78182 0.39568 0.41146 0.0
N218 N 0.81486 0.41268 0.36783 0.0
C219 C 0.72821 0.39681 0.40311 0.0
C220 C 0.70842 0.41106 0.34876 0.0
C221 C 0.74235 0.4217 0.3032 0.0
C222 C 0.79568 0.42044 0.31335 0.0
C223 C 0.86902 0.60843 0.33508 0.0
C224 C 0.94829 0.51917 0.33279 0.0
C225 C 0.85939 0.54325 0.341 0.0
N226 N 0.89903 0.49922 0.34487 0.0
C227 C 0.95921 0.58394 0.32449 0.0
C228 C 0.91932 0.62881 0.32666 0.0
C229 C 0.99949 0.36024 0.39469 0.0
C230 C 0.90374 0.23314 0.57822 0.0
C231 C 0.97625 0.20375 0.49437 0.0
C232 C 0.98382 0.18193 0.55075 0.0
C233 C 0.94707 0.19654 0.59286 0.0
N234 N 0.93236 0.2366 0.47959 0.0
C235 C 0.89654 0.25185 0.521 0.0
Co236 Co 0.87782 0.59871 0.85959 0.0
Co237 Co 0.89362 0.68352 0.98616 0.0
O238 O 0.85988 0.66856 0.91204 0.0
C239 C 0.89177 0.71112 0.7664 0.0
O240 O 0.89313 0.76308 0.79815 0.0
C241 C 0.7782 0.67634 0.02744 0.0
O242 O 0.76038 0.65636 0.97757 0.0
O243 O 0.90123 0.58695 0.00331 0.0
O244 O 0.87334 0.53685 0.92393 0.0
H245 H 0.04938 0.69823 0.11226 0.0
H246 H 0.79514 0.6876 0.81971 0.0
O247 O 0.88526 0.65556 0.78895 0.0
H248 H 0.70493 0.48545 0.86032 0.0
H249 H 0.81464 0.44992 0.71155 0.0
H250 H 0.94312 0.48074 0.86609 0.0
H251 H 0.79893 0.49366 0.875 0.0
H252 H 0.83538 0.55857 0.74647 0.0
O253 O 0.82673 0.68563 0.03403 0.0
H254 H 0.99701 0.65085 0.03555 0.0
H255 H 0.86863 0.76533 0.08876 0.0
H256 H 0.92479 0.37281 0.82907 0.0
H257 H 0.70141 0.67999 0.80125 0.0
H258 H 0.85787 0.35614 0.75528 0.0
H259 H 0.65542 0.57874 0.82248 0.0
O260 O 0.95681 0.60922 0.87283 0.0
H261 H 0.79419 0.87975 0.92264 0.0
H262 H 0.96114 0.79679 -0.00624 0.0
H263 H 0.95218 0.91234 0.97217 0.0
H264 H 0.86759 0.95446 0.93678 0.0
H265 H 0.80606 0.76514 0.94376 0.0
H266 H 0.91793 0.80495 0.17134 0.0
H267 H 1.00983 0.7718 0.18366 0.0
O268 O 0.96184 0.68379 0.943 0.0
C269 C 0.8893 0.53546 0.97533 0.0
C270 C 1.00908 0.70999 0.10944 0.0
C271 C 0.93547 0.77085 0.14195 0.0
N272 N 0.92921 0.70389 0.05766 0.0
C273 C 0.97923 0.68435 0.06513 0.0
C274 C 0.90721 0.74657 0.09564 0.0
C275 C 0.98689 0.75235 0.14881 0.0
C276 C 0.77582 0.64287 0.82785 0.0
N277 N 0.8031 0.59108 0.84771 0.0
C278 C 0.72251 0.6391 0.81798 0.0
C279 C 0.69674 0.58225 0.82981 0.0
C280 C 0.72448 0.52995 0.8511 0.0
C281 C 0.77785 0.53522 0.8599 0.0
C282 C 0.84365 0.45683 0.74444 0.0
C283 C 0.91621 0.47472 0.83075 0.0
C284 C 0.8565 0.51808 0.76365 0.0
N285 N 0.88928 0.52588 0.8095 0.0
C286 C 0.90502 0.41316 0.81149 0.0
C287 C 0.86738 0.40396 0.76954 0.0
C288 C 0.98309 0.64915 0.90383 0.0
C289 C 0.83119 0.86213 0.93819 0.0
C290 C 0.92517 0.8151 0.97741 0.0
C291 C 0.91984 0.88039 0.96573 0.0
C292 C 0.87241 0.90398 0.94598 0.0
N293 N 0.88476 0.77436 0.96994 0.0
C294 C 0.83813 0.79715 0.95043 0.0
Co295 Co 0.16257 0.4205 0.35959 0.0
Co296 Co 0.14677 0.33569 0.48616 0.0
O297 O 0.1805 0.35065 0.41205 0.0
C298 C 0.14862 0.30809 0.2664 0.0
O299 O 0.14727 0.25613 0.29815 0.0
C300 C 0.26219 0.34286 0.52744 0.0
O301 O 0.28001 0.36284 0.47757 0.0
O302 O 0.13916 0.43226 0.50332 0.0
O303 O 0.16705 0.48235 0.42393 0.0
H304 H 0.99101 0.32098 0.61226 0.0
H305 H 0.24525 0.3316 0.31971 0.0
O306 O 0.15513 0.36364 0.28895 0.0
H307 H 0.33546 0.53375 0.36032 0.0
H308 H 0.22574 0.56928 0.21155 0.0
H309 H 0.09727 0.53846 0.36609 0.0
H310 H 0.24146 0.52555 0.375 0.0
H311 H 0.20501 0.46064 0.24647 0.0
O312 O 0.21366 0.33358 0.53403 0.0
H313 H 0.04338 0.36836 0.53555 0.0
H314 H 0.17176 0.25388 0.58876 0.0
H315 H 0.1156 0.6464 0.32907 0.0
H316 H 0.33898 0.33922 0.30126 0.0
H317 H 0.18252 0.66307 0.25528 0.0
H318 H 0.38496 0.44047 0.32248 0.0
O319 O 0.08358 0.40998 0.37283 0.0
H320 H 0.2462 0.13946 0.42264 0.0
H321 H 0.07925 0.22242 0.49376 0.0
H322 H 0.08821 0.10686 0.47217 0.0
H323 H 0.1728 0.06475 0.43678 0.0
H324 H 0.23432 0.25406 0.44376 0.0
H325 H 0.12246 0.21425 0.67134 0.0
H326 H 0.03056 0.24741 0.68366 0.0
O327 O 0.07854 0.33541 0.443 0.0
C328 C 0.15109 0.48374 0.47533 0.0
C329 C 0.03131 0.30922 0.60944 0.0
C330 C 0.10492 0.24835 0.64196 0.0
N331 N 0.11118 0.31531 0.55766 0.0
C332 C 0.06116 0.33486 0.56513 0.0
C333 C 0.13318 0.27264 0.59564 0.0
C334 C 0.05349 0.26686 0.64881 0.0
C335 C 0.26457 0.37633 0.32785 0.0
N336 N 0.23729 0.42813 0.34771 0.0
C337 C 0.31788 0.38011 0.31799 0.0
C338 C 0.34365 0.43695 0.32981 0.0
C339 C 0.31591 0.48925 0.3511 0.0
C340 C 0.26254 0.48398 0.3599 0.0
C341 C 0.19674 0.56238 0.24444 0.0
C342 C 0.12418 0.54449 0.33075 0.0
C343 C 0.18389 0.50113 0.26365 0.0
N344 N 0.15111 0.49332 0.3095 0.0
C345 C 0.13537 0.60605 0.31149 0.0
C346 C 0.17301 0.61525 0.26954 0.0
C347 C 0.0573 0.37006 0.40383 0.0
C348 C 0.2092 0.15708 0.43819 0.0
C349 C 0.11522 0.20411 0.47741 0.0
C350 C 0.12054 0.13881 0.46574 0.0
C351 C 0.16798 0.11522 0.44599 0.0
N352 N 0.15562 0.24484 0.46994 0.0
C353 C 0.20226 0.22206 0.45043 0.0
Co354 Co 0.8735 0.41479 0.12403 0.0
Co355 Co 0.88836 0.32329 0.00022 0.0
O356 O 0.85462 0.34262 0.07413 0.0
C357 C 0.89112 0.31708 0.22065 0.0
O358 O 0.92248 0.2817 0.18927 0.0
C359 C 0.77782 0.33857 0.94571 0.0
O360 O 0.76782 0.39524 0.96764 0.0
O361 O 0.88965 0.41822 0.97599 0.0
O362 O 0.88394 0.47268 0.0584 0.0
H363 H 0.04091 0.32218 0.86807 0.0
H364 H 0.78074 0.3444 0.16154 0.0
O365 O 0.86591 0.36387 0.19803 0.0
H366 H 0.71116 0.54512 0.08054 0.0
H367 H 0.81617 0.61122 0.22613 0.0
H368 H 0.96464 0.50031 0.13723 0.0
H369 H 0.8047 0.52502 0.08116 0.0
H370 H 0.81257 0.49703 0.20828 0.0
O371 O 0.82018 0.30952 0.9576 0.0
H372 H 0.98851 0.36136 0.94826 0.0
H373 H 0.86668 0.23696 0.89871 0.0
H374 H 0.97241 0.61201 0.16561 0.0
H375 H 0.68735 0.36572 0.16589 0.0
H376 H 0.89674 0.67039 0.20559 0.0
H377 H 0.65163 0.46553 0.12482 0.0
O378 O 0.95011 0.38986 0.12155 0.0
H379 H 0.80243 0.12779 0.08108 0.0
H380 H 0.96083 0.21333 -0.00664 0.0
H381 H 0.95925 0.09969 0.02357 0.0
H382 H 0.87911 0.05625 0.06774 0.0
H383 H 0.80734 0.2407 0.05152 0.0
H384 H 0.91582 0.20385 0.81284 0.0
H385 H 1.00452 0.24548 0.79738 0.0
O386 O 0.95734 0.33004 0.04081 0.0
C387 C 0.88895 0.47126 0.00455 0.0
C388 C 1.00215 0.30512 0.87302 0.0
C389 C 0.93212 0.23788 0.84281 0.0
N390 N 0.92425 0.3015 0.929 0.0
C391 C 0.97245 0.32593 0.91962 0.0
C392 C 0.90402 0.25792 0.89117 0.0
C393 C 0.98178 0.26135 0.834 0.0
C394 C 0.76616 0.38925 0.1449 0.0
N395 N 0.79918 0.43407 0.12306 0.0
C396 C 0.71285 0.40029 0.14627 0.0
C397 C 0.69285 0.45664 0.12326 0.0
C398 C 0.72622 0.50111 0.09871 0.0
C399 C 0.77951 0.48889 0.09865 0.0
C400 C 0.8496 0.5866 0.20836 0.0
C401 C 0.93303 0.52247 0.16036 0.0
C402 C 0.84821 0.52097 0.19847 0.0
N403 N 0.88799 0.49035 0.17039 0.0
C404 C 0.93715 0.58709 0.17421 0.0
C405 C 0.89457 0.61986 0.19624 0.0
C406 C 0.97664 0.35481 0.08638 0.0
C407 C 0.83794 0.1461 0.06281 0.0
C408 C 0.92715 0.19466 0.01407 0.0
C409 C 0.92585 0.13038 0.03047 0.0
C410 C 0.88086 0.10606 0.05521 0.0
N411 N 0.88544 0.23376 0.02234 0.0
C412 C 0.84094 0.21013 0.04595 0.0
Co413 Co 0.16689 0.60441 0.62403 0.0
Co414 Co 0.15203 0.69591 0.50022 0.0
O415 O 0.18577 0.67658 0.57413 0.0
C416 C 0.14927 0.70212 0.72065 0.0
O417 O 0.11791 0.7375 0.68927 0.0
C418 C 0.26257 0.68064 0.44571 0.0
O419 O 0.27257 0.62396 0.46764 0.0
O420 O 0.15073 0.60099 0.47599 0.0
O421 O 0.15644 0.54652 0.5584 0.0
H422 H 0.99948 0.69703 0.36807 0.0
H423 H 0.25965 0.67481 0.66155 0.0
O424 O 0.17448 0.65533 0.69803 0.0
H425 H 0.32923 0.47409 0.58054 0.0
H426 H 0.22422 0.40798 0.72613 0.0
H427 H 0.07574 0.51889 0.63723 0.0
H428 H 0.23568 0.49418 0.58116 0.0
H429 H 0.22782 0.52218 0.70828 0.0
O430 O 0.22021 0.70969 0.4576 0.0
H431 H 0.05187 0.65784 0.44826 0.0
H432 H 0.17371 0.78225 0.39871 0.0
H433 H 0.06798 0.40719 0.66561 0.0
H434 H 0.35304 0.65349 0.66589 0.0
H435 H 0.14365 0.34881 0.70559 0.0
H436 H 0.38876 0.55367 0.62482 0.0
O437 O 0.09028 0.62935 0.62155 0.0
H438 H 0.23796 0.89141 0.58108 0.0
H439 H 0.07956 0.80587 0.49336 0.0
H440 H 0.08114 0.91951 0.52357 0.0
H441 H 0.16128 0.96296 0.56774 0.0
H442 H 0.23305 0.7785 0.55152 0.0
H443 H 0.12457 0.81535 0.31284 0.0
H444 H 0.03587 0.77373 0.29738 0.0
O445 O 0.08304 0.68916 0.54081 0.0
C446 C 0.15144 0.54795 0.50455 0.0
C447 C 0.03824 0.71408 0.37302 0.0
C448 C 0.10827 0.78132 0.34281 0.0
N449 N 0.11614 0.7177 0.429 0.0
C450 C 0.06794 0.69328 0.41962 0.0
C451 C 0.13637 0.76129 0.39117 0.0
C452 C 0.0586 0.75785 0.334 0.0
C453 C 0.27423 0.62995 0.6449 0.0
N454 N 0.24121 0.58513 0.62306 0.0
C455 C 0.32754 0.61891 0.64627 0.0
C456 C 0.34754 0.56256 0.62326 0.0
C457 C 0.31417 0.5181 0.59871 0.0
C458 C 0.26088 0.53032 0.59865 0.0
C459 C 0.19079 0.4326 0.70837 0.0
C460 C 0.10736 0.49673 0.66036 0.0
C461 C 0.19218 0.49823 0.69847 0.0
N462 N 0.1524 0.52885 0.67039 0.0
C463 C 0.10324 0.43212 0.67421 0.0
C464 C 0.14582 0.39935 0.69624 0.0
C465 C 0.06375 0.6644 0.58638 0.0
C466 C 0.20245 0.87311 0.56281 0.0
C467 C 0.11324 0.82455 0.51407 0.0
C468 C 0.11454 0.88882 0.53047 0.0
C469 C 0.15952 0.91314 0.5552 0.0
N470 N 0.15495 0.78544 0.52234 0.0
C471 C 0.19944 0.80908 0.54595 0.0
Co472 Co 0.63593 0.9107 0.10967 0.0
Co473 Co 0.62523 0.74885 0.08497 0.0
O474 O 0.65546 0.83256 0.06823 0.0
C475 C 0.68332 0.95855 0.00685 0.0
O476 O 0.71807 0.91298 0.01391 0.0
C477 C 0.74139 0.69889 0.07355 0.0
O478 O 0.75904 0.71837 0.12359 0.0
O479 O 0.6445 0.75809 0.17048 0.0
O480 O 0.62858 0.86298 0.18301 0.0
H481 H 0.50587 0.59874 0.18863 0.0
H482 H 0.72087 0.82464 0.14628 0.0
O483 O 0.64292 0.96023 0.0375 0.0
H484 H 0.80651 0.03262 0.1402 0.0
H485 H 0.61794 0.1494 0.14276 0.0
H486 H 0.5628 0.93563 0.20459 0.0
H487 H 0.71781 0.02271 0.10838 0.0
H488 H 0.64453 0.05631 0.089 0.0
O489 O 0.69372 0.70683 0.06041 0.0
H490 H 0.55064 0.701 0.17173 0.0
H491 H 0.63844 0.61591 0.03644 0.0
H492 H 0.5261 0.02846 0.25082 0.0
H493 H 0.81068 0.83242 0.17755 0.0
H494 H 0.55355 0.13806 0.22223 0.0
H495 H 0.8546 0.9375 0.17542 0.0
O496 O 0.56165 0.89644 0.09062 0.0
H497 H 0.66503 0.75461 0.87341 0.0
H498 H 0.5379 0.69076 0.02033 0.0
H499 H 0.52544 0.65639 0.91933 0.0
H500 H 0.59042 0.6869 0.84524 0.0
H501 H 0.67663 0.7851 0.97466 0.0
H502 H 0.59442 0.51345 0.05177 0.0
H503 H 0.5276 0.50417 0.12834 0.0
O504 O 0.55349 0.78978 0.09949 0.0
C505 C 0.63815 0.80757 0.20309 0.0
C506 C 0.53527 0.6021 0.15551 0.0
C507 C 0.58505 0.55414 0.07883 0.0
N508 N 0.59673 0.66498 0.10267 0.0
C509 C 0.56067 0.65991 0.1456 0.0
C510 C 0.61028 0.61233 0.07077 0.0
C511 C 0.5474 0.54904 0.12161 0.0
C512 C 0.73797 0.87095 0.1469 0.0
N513 N 0.71005 0.92374 0.13008 0.0
C514 C 0.78979 0.87487 0.16382 0.0
C515 C 0.81447 0.93356 0.16237 0.0
C516 C 0.78743 0.98685 0.14263 0.0
C517 C 0.73556 0.98097 0.1259 0.0
C518 C 0.60461 0.10278 0.15602 0.0
C519 C 0.57665 0.98198 0.19157 0.0
C520 C 0.623 0.04847 0.12797 0.0
N521 N 0.61265 0.98844 0.14871 0.0
C522 C 0.55446 0.03525 0.21772 0.0
C523 C 0.56935 0.09622 0.20083 0.0
C524 C 0.53385 0.84654 0.09476 0.0
C525 C 0.63657 0.7406 0.90517 0.0
C526 C 0.56475 0.70626 0.98782 0.0
C527 C 0.55829 0.68562 0.93096 0.0
C528 C 0.59481 0.70253 0.88948 0.0
N529 N 0.60743 0.74 0.00369 0.0
C530 C 0.64234 0.75888 0.9627 0.0
Co531 Co 0.40446 0.1085 0.60967 0.0
Co532 Co 0.41516 0.27036 0.58497 0.0
O533 O 0.38493 0.18665 0.56823 0.0
C534 C 0.35707 0.06065 0.50685 0.0
O535 O 0.32232 0.10622 0.51391 0.0
C536 C 0.299 0.32032 0.57355 0.0
O537 O 0.28135 0.30084 0.62359 0.0
O538 O 0.39589 0.26111 0.67048 0.0
O539 O 0.41181 0.15622 0.68301 0.0
H540 H 0.53452 0.42046 0.68863 0.0
H541 H 0.31952 0.19457 0.64628 0.0
O542 O 0.39747 0.05897 0.5375 0.0
H543 H 0.23388 0.98659 0.6402 0.0
H544 H 0.42244 0.86981 0.64276 0.0
H545 H 0.47759 0.08358 0.70459 0.0
H546 H 0.32258 0.99649 0.60838 0.0
H547 H 0.39586 0.9629 0.589 0.0
O548 O 0.34667 0.31238 0.56041 0.0
H549 H 0.48975 0.3182 0.67173 0.0
H550 H 0.40195 0.40329 0.53644 0.0
H551 H 0.51428 0.99074 0.75083 0.0
H552 H 0.22971 0.18678 0.67755 0.0
H553 H 0.48684 0.88114 0.72223 0.0
H554 H 0.18579 0.08171 0.67542 0.0
O555 O 0.47874 0.12276 0.59062 0.0
H556 H 0.37536 0.26459 0.37341 0.0
H557 H 0.50249 0.32844 0.52033 0.0
H558 H 0.51495 0.36281 0.41933 0.0
H559 H 0.44997 0.33231 0.34524 0.0
H560 H 0.36376 0.23411 0.47466 0.0
H561 H 0.44597 0.50576 0.55177 0.0
H562 H 0.51279 0.51504 0.62834 0.0
O563 O 0.4869 0.22942 0.59949 0.0
C564 C 0.40223 0.21164 0.70308 0.0
C565 C 0.50512 0.4171 0.65551 0.0
C566 C 0.45533 0.46507 0.57883 0.0
N567 N 0.44366 0.35423 0.60267 0.0
C568 C 0.47971 0.3593 0.6456 0.0
C569 C 0.4301 0.40688 0.57077 0.0
C570 C 0.49299 0.47017 0.62161 0.0
C571 C 0.30242 0.14826 0.6469 0.0
N572 N 0.33034 0.09546 0.63007 0.0
C573 C 0.25059 0.14433 0.66382 0.0
C574 C 0.22592 0.08565 0.66236 0.0
C575 C 0.25296 0.03236 0.64263 0.0
C576 C 0.30482 0.03824 0.6259 0.0
C577 C 0.43578 0.91642 0.65602 0.0
C578 C 0.46374 0.03723 0.69157 0.0
C579 C 0.41739 0.97074 0.62797 0.0
N580 N 0.42774 0.03077 0.64871 0.0
C581 C 0.48592 0.98395 0.71772 0.0
C582 C 0.47104 0.92299 0.70083 0.0
C583 C 0.50653 0.17267 0.59476 0.0
C584 C 0.40382 0.27861 0.40517 0.0
C585 C 0.47564 0.31295 0.48782 0.0
C586 C 0.4821 0.33358 0.43096 0.0
C587 C 0.44557 0.31668 0.38948 0.0
N588 N 0.43296 0.27921 0.50369 0.0
C589 C 0.39805 0.26032 0.4627 0.0
Co590 Co 0.65065 0.10439 0.8823 0.0
Co591 Co 0.6247 0.26688 0.8989 0.0
O592 O 0.65978 0.18703 0.92159 0.0
C593 C 0.69398 0.01006 0.96707 0.0
O594 O 0.738 1.00592 0.93943 0.0
C595 C 0.73826 0.3037 0.91069 0.0
O596 O 0.75212 0.25286 0.88142 0.0
O597 O 0.64327 0.25243 0.81468 0.0
O598 O 0.63971 0.14565 0.80628 0.0
H599 H 0.49462 0.39423 0.78462 0.0
H600 H 0.74363 0.1345 0.95397 0.0
O601 O 0.66043 0.05477 0.95706 0.0
H602 H 0.81291 0.08732 0.76063 0.0
H603 H 0.70311 0.87661 0.83464 0.0
H604 H 0.56021 0.03335 0.83039 0.0
H605 H 0.7187 0.09023 0.77827 0.0
H606 H 0.72086 0.98896 0.84387 0.0
O607 O 0.69038 0.31862 0.91432 0.0
H608 H 0.5428 0.29736 0.81367 0.0
H609 H 0.63212 0.40673 0.93169 0.0
H610 H 0.54188 0.91988 0.81691 0.0
H611 H 0.83815 0.13225 0.93847 0.0
H612 H 0.61367 0.84035 0.81872 0.0
H613 H 0.8734 0.10599 0.84187 0.0
O614 O 0.57261 0.11099 0.89812 0.0
H615 H 0.66509 0.27325 0.11059 0.0
H616 H 0.53613 0.32789 0.96177 0.0
H617 H 0.52243 0.36513 0.06167 0.0
H618 H 0.58782 0.33882 0.13682 0.0
H619 H 0.67934 0.24262 0.00984 0.0
H620 H 0.58717 0.505 0.90105 0.0
H621 H 0.5172 0.49921 0.82769 0.0
O622 O 0.55666 0.21734 0.89033 0.0
C623 C 0.64373 0.20111 0.78443 0.0
C624 C 0.52519 0.39743 0.81643 0.0
C625 C 0.57711 0.45956 0.88177 0.0
N626 N 0.58998 0.34572 0.87487 0.0
C627 C 0.55228 0.34254 0.83355 0.0
C628 C 0.60295 0.40357 0.89842 0.0
C629 C 0.53782 0.45628 0.84068 0.0
C630 C 0.75857 0.12353 0.91146 0.0
N631 N 0.72552 0.10652 0.86783 0.0
C632 C 0.81218 0.1224 0.90311 0.0
C633 C 0.83197 0.10815 0.84876 0.0
C634 C 0.79804 0.09751 0.8032 0.0
C635 C 0.7447 0.09877 0.81336 0.0
C636 C 0.67136 0.91077 0.83508 0.0
C637 C 0.59209 1.00004 0.8328 0.0
C638 C 0.68099 0.97596 0.841 0.0
N639 N 0.64135 0.01999 0.84487 0.0
C640 C 0.58118 0.93527 0.82449 0.0
C641 C 0.62107 0.8904 0.82666 0.0
C642 C 0.5409 0.15897 0.89469 0.0
C643 C 0.63665 0.28607 0.07822 0.0
C644 C 0.56414 0.31546 -0.00563 0.0
C645 C 0.55657 0.33728 0.05075 0.0
C646 C 0.59331 0.32267 0.09286 0.0
N647 N 0.60802 0.28261 0.97959 0.0
C648 C 0.64385 0.26736 0.021 0.0
Co649 Co 0.38974 0.91482 0.3823 0.0
Co650 Co 0.41569 0.75232 0.3989 0.0
O651 O 0.38061 0.83218 0.42159 0.0
C652 C 0.3464 1.00914 0.46707 0.0
O653 O 0.30239 0.01328 0.43943 0.0
C654 C 0.30213 0.7155 0.41069 0.0
O655 O 0.28827 0.76635 0.38142 0.0
O656 O 0.39712 0.76677 0.31468 0.0
O657 O 0.40068 0.87356 0.30628 0.0
H658 H 0.54577 0.62497 0.28463 0.0
H659 H 0.29675 0.88471 0.45397 0.0
O660 O 0.37996 0.96444 0.45706 0.0
H661 H 0.22748 0.93189 0.26063 0.0
H662 H 0.33728 0.14259 0.33464 0.0
H663 H 0.48018 0.98585 0.33039 0.0
H664 H 0.32169 0.92897 0.27827 0.0
H665 H 0.31953 0.03024 0.34387 0.0
O666 O 0.35001 0.70059 0.41433 0.0
H667 H 0.49758 0.72185 0.31367 0.0
H668 H 0.40826 0.61247 0.4317 0.0
H669 H 0.49851 0.09932 0.31691 0.0
H670 H 0.20224 0.88695 0.43847 0.0
H671 H 0.42672 0.17886 0.31872 0.0
H672 H 0.16699 0.91321 0.34187 0.0
O673 O 0.46778 0.90821 0.39812 0.0
H674 H 0.3753 0.74596 0.61059 0.0
H675 H 0.50425 0.69131 0.46177 0.0
H676 H 0.51796 0.65407 0.56167 0.0
H677 H 0.45256 0.68039 0.63682 0.0
H678 H 0.36105 0.77658 0.50984 0.0
H679 H 0.45321 0.51421 0.40105 0.0
H680 H 0.52319 0.52 0.32769 0.0
O681 O 0.48373 0.80186 0.39033 0.0
C682 C 0.39666 0.8181 0.28443 0.0
C683 C 0.5152 0.62178 0.31644 0.0
C684 C 0.46328 0.55964 0.38177 0.0
N685 N 0.4504 0.67349 0.37487 0.0
C686 C 0.48811 0.67666 0.33356 0.0
C687 C 0.43744 0.61563 0.39842 0.0
C688 C 0.50257 0.56292 0.34068 0.0
C689 C 0.28182 0.89568 0.41146 0.0
N690 N 0.31486 0.91268 0.36783 0.0
C691 C 0.22821 0.89681 0.40311 0.0
C692 C 0.20842 0.91106 0.34876 0.0
C693 C 0.24235 0.9217 0.3032 0.0
C694 C 0.29568 0.92044 0.31335 0.0
C695 C 0.36902 0.10843 0.33508 0.0
C696 C 0.44829 0.01916 0.3328 0.0
C697 C 0.35939 0.04325 0.341 0.0
N698 N 0.39903 0.99922 0.34487 0.0
C699 C 0.45921 0.08394 0.32449 0.0
C700 C 0.41932 0.12881 0.32666 0.0
C701 C 0.49949 0.86024 0.39469 0.0
C702 C 0.40374 0.73314 0.57822 0.0
C703 C 0.47625 0.70375 0.49437 0.0
C704 C 0.48382 0.68193 0.55075 0.0
C705 C 0.44708 0.69654 0.59286 0.0
N706 N 0.43237 0.7366 0.47959 0.0
C707 C 0.39654 0.75185 0.521 0.0
Co708 Co 0.37782 0.09871 0.85959 0.0
Co709 Co 0.39362 0.18352 0.98616 0.0
O710 O 0.35988 0.16855 0.91204 0.0
C711 C 0.39177 0.21112 0.7664 0.0
O712 O 0.39313 0.26308 0.79815 0.0
C713 C 0.2782 0.17634 0.02744 0.0
O714 O 0.26037 0.15636 0.97757 0.0
O715 O 0.40123 0.08695 0.00331 0.0
O716 O 0.37334 0.03685 0.92393 0.0
H717 H 0.54937 0.19823 0.11226 0.0
H718 H 0.29514 0.1876 0.81971 0.0
O719 O 0.38526 0.15556 0.78895 0.0
H720 H 0.20493 0.98545 0.86032 0.0
H721 H 0.31464 0.94992 0.71155 0.0
H722 H 0.44312 0.98074 0.86609 0.0
H723 H 0.29893 0.99365 0.875 0.0
H724 H 0.33538 0.05857 0.74647 0.0
O725 O 0.32673 0.18563 0.03403 0.0
H726 H 0.49701 0.15085 0.03555 0.0
H727 H 0.36863 0.26533 0.08876 0.0
H728 H 0.42479 0.8728 0.82907 0.0
H729 H 0.2014 0.17999 0.80125 0.0
H730 H 0.35786 0.85613 0.75528 0.0
H731 H 0.15542 0.07873 0.82248 0.0
O732 O 0.45681 0.10922 0.87283 0.0
H733 H 0.29418 0.37975 0.92264 0.0
H734 H 0.46114 0.29679 -0.00624 0.0
H735 H 0.45217 0.41234 0.97217 0.0
H736 H 0.36759 0.45446 0.93678 0.0
H737 H 0.30606 0.26514 0.94376 0.0
H738 H 0.41793 0.30495 0.17134 0.0
H739 H 0.50982 0.2718 0.18366 0.0
O740 O 0.46184 0.18379 0.943 0.0
C741 C 0.3893 0.03546 0.97533 0.0
C742 C 0.50908 0.20999 0.10944 0.0
C743 C 0.43546 0.27085 0.14195 0.0
N744 N 0.42921 0.20389 0.05766 0.0
C745 C 0.47923 0.18435 0.06513 0.0
C746 C 0.40721 0.24657 0.09564 0.0
C747 C 0.48689 0.25235 0.14881 0.0
C748 C 0.27581 0.14287 0.82785 0.0
N749 N 0.3031 0.09108 0.84771 0.0
C750 C 0.22251 0.1391 0.81799 0.0
C751 C 0.19674 0.08225 0.82981 0.0
C752 C 0.22448 0.02995 0.8511 0.0
C753 C 0.27784 0.03522 0.8599 0.0
C754 C 0.34365 0.95683 0.74444 0.0
C755 C 0.41621 0.97472 0.83075 0.0
C756 C 0.3565 0.01808 0.76365 0.0
N757 N 0.38928 0.02588 0.8095 0.0
C758 C 0.40502 0.91316 0.81149 0.0
C759 C 0.36738 0.90395 0.76954 0.0
C760 C 0.48309 0.14915 0.90383 0.0
C761 C 0.33119 0.36213 0.93819 0.0
C762 C 0.42517 0.3151 0.97741 0.0
C763 C 0.41984 0.38039 0.96573 0.0
C764 C 0.3724 0.40398 0.94598 0.0
N765 N 0.38476 0.27436 0.96994 0.0
C766 C 0.33813 0.29715 0.95043 0.0
Co767 Co 0.66257 0.9205 0.35959 0.0
Co768 Co 0.64677 0.83569 0.48616 0.0
O769 O 0.68051 0.85065 0.41205 0.0
C770 C 0.64862 0.80809 0.2664 0.0
O771 O 0.64727 0.75613 0.29815 0.0
C772 C 0.76219 0.84287 0.52744 0.0
O773 O 0.78002 0.86285 0.47757 0.0
O774 O 0.63916 0.93226 0.50332 0.0
O775 O 0.66705 0.98235 0.42393 0.0
H776 H 0.49101 0.82098 0.61226 0.0
H777 H 0.74525 0.8316 0.31971 0.0
O778 O 0.65513 0.86364 0.28895 0.0
H779 H 0.83546 0.03376 0.36032 0.0
H780 H 0.72574 0.06929 0.21155 0.0
H781 H 0.59727 0.03846 0.36609 0.0
H782 H 0.74146 0.02555 0.375 0.0
H783 H 0.70501 0.96064 0.24647 0.0
O784 O 0.71366 0.83358 0.53403 0.0
H785 H 0.54338 0.86836 0.53555 0.0
H786 H 0.67176 0.75388 0.58876 0.0
H787 H 0.6156 0.1464 0.32907 0.0
H788 H 0.83898 0.83922 0.30126 0.0
H789 H 0.68252 0.16307 0.25528 0.0
H790 H 0.88496 0.94047 0.32248 0.0
O791 O 0.58358 0.90998 0.37283 0.0
H792 H 0.7462 0.63946 0.42264 0.0
H793 H 0.57925 0.72242 0.49376 0.0
H794 H 0.58821 0.60686 0.47217 0.0
H795 H 0.6728 0.56475 0.43678 0.0
H796 H 0.73433 0.75406 0.44376 0.0
H797 H 0.62246 0.71425 0.67134 0.0
H798 H 0.53057 0.74741 0.68367 0.0
O799 O 0.57855 0.83541 0.443 0.0
C800 C 0.65109 0.98374 0.47533 0.0
C801 C 0.53131 0.80921 0.60944 0.0
C802 C 0.60493 0.74835 0.64196 0.0
N803 N 0.61118 0.81531 0.55766 0.0
C804 C 0.56116 0.83486 0.56513 0.0
C805 C 0.63318 0.77264 0.59564 0.0
C806 C 0.5535 0.76686 0.64881 0.0
C807 C 0.76457 0.87634 0.32785 0.0
N808 N 0.73729 0.92813 0.34771 0.0
C809 C 0.81788 0.88011 0.31799 0.0
C810 C 0.84365 0.93695 0.32981 0.0
C811 C 0.81591 0.98925 0.3511 0.0
C812 C 0.76254 0.98398 0.35991 0.0
C813 C 0.69674 0.06238 0.24444 0.0
C814 C 0.62418 0.04449 0.33075 0.0
C815 C 0.68389 1.00113 0.26365 0.0
N816 N 0.65111 0.99332 0.3095 0.0
C817 C 0.63537 0.10605 0.31149 0.0
C818 C 0.67301 0.11525 0.26954 0.0
C819 C 0.5573 0.87006 0.40383 0.0
C820 C 0.7092 0.65708 0.43819 0.0
C821 C 0.61522 0.70411 0.47741 0.0
C822 C 0.62055 0.63881 0.46573 0.0
C823 C 0.66798 0.61522 0.44599 0.0
N824 N 0.65563 0.74484 0.46994 0.0
C825 C 0.70226 0.72206 0.45043 0.0
Co826 Co 0.3735 0.91479 0.12403 0.0
Co827 Co 0.38836 0.82329 0.00022 0.0
O828 O 0.35462 0.84262 0.07413 0.0
C829 C 0.39112 0.81708 0.22065 0.0
O830 O 0.42248 0.7817 0.18927 0.0
C831 C 0.27782 0.83857 0.94571 0.0
O832 O 0.26782 0.89524 0.96764 0.0
O833 O 0.38965 0.91822 0.97599 0.0
O834 O 0.38395 0.97268 0.0584 0.0
H835 H 0.54091 0.82218 0.86807 0.0
H836 H 0.28074 0.8444 0.16155 0.0
O837 O 0.36591 0.86387 0.19803 0.0
H838 H 0.21116 0.04512 0.08054 0.0
H839 H 0.31617 0.11122 0.22613 0.0
H840 H 0.46465 1.00031 0.13723 0.0
H841 H 0.30471 0.02502 0.08116 0.0
H842 H 0.31257 0.99703 0.20828 0.0
O843 O 0.32018 0.80952 0.9576 0.0
H844 H 0.48851 0.86136 0.94826 0.0
H845 H 0.36668 0.73696 0.89871 0.0
H846 H 0.47241 0.11201 0.16561 0.0
H847 H 0.18735 0.86572 0.16589 0.0
H848 H 0.39675 0.17039 0.20559 0.0
H849 H 0.15163 0.96553 0.12482 0.0
O850 O 0.45011 0.88986 0.12155 0.0
H851 H 0.30243 0.62779 0.08109 0.0
H852 H 0.46083 0.71333 -0.00664 0.0
H853 H 0.45925 0.59969 0.02357 0.0
H854 H 0.37911 0.55625 0.06775 0.0
H855 H 0.30734 0.7407 0.05152 0.0
H856 H 0.41582 0.70385 0.81284 0.0
H857 H 0.50451 0.74548 0.79738 0.0
O858 O 0.45734 0.83004 0.04081 0.0
C859 C 0.38895 0.97126 0.00455 0.0
C860 C 0.50215 0.80512 0.87302 0.0
C861 C 0.43212 0.73788 0.84281 0.0
N862 N 0.42425 0.8015 0.929 0.0
C863 C 0.47245 0.82593 0.91962 0.0
C864 C 0.40402 0.75792 0.89117 0.0
C865 C 0.48178 0.76135 0.834 0.0
C866 C 0.26616 0.88925 0.1449 0.0
N867 N 0.29918 0.93407 0.12306 0.0
C868 C 0.21285 0.90029 0.14627 0.0
C869 C 0.19285 0.95664 0.12326 0.0
C870 C 0.22622 1.00111 0.09871 0.0
C871 C 0.27951 0.98889 0.09865 0.0
C872 C 0.3496 0.0866 0.20836 0.0
C873 C 0.43303 0.02247 0.16036 0.0
C874 C 0.34821 0.02097 0.19847 0.0
N875 N 0.38799 0.99035 0.17039 0.0
C876 C 0.43715 0.08709 0.17421 0.0
C877 C 0.39457 0.11986 0.19624 0.0
C878 C 0.47664 0.85481 0.08638 0.0
C879 C 0.33794 0.6461 0.06281 0.0
C880 C 0.42715 0.69466 0.01407 0.0
C881 C 0.42585 0.63038 0.03048 0.0
C882 C 0.38087 0.60606 0.05521 0.0
N883 N 0.38544 0.73376 0.02234 0.0
C884 C 0.34095 0.71013 0.04595 0.0
Co885 Co 0.66689 0.10441 0.62403 0.0
Co886 Co 0.65203 0.19592 0.50022 0.0
O887 O 0.68577 0.17658 0.57413 0.0
C888 C 0.64927 0.20212 0.72065 0.0
O889 O 0.61791 0.2375 0.68927 0.0
C890 C 0.76257 0.18063 0.44571 0.0
O891 O 0.77257 0.12396 0.46764 0.0
O892 O 0.65073 0.10099 0.47599 0.0
O893 O 0.65644 0.04652 0.5584 0.0
H894 H 0.49948 0.19703 0.36807 0.0
H895 H 0.75965 0.17481 0.66155 0.0
O896 O 0.67448 0.15533 0.69803 0.0
H897 H 0.82923 0.97409 0.58054 0.0
H898 H 0.72422 0.90798 0.72613 0.0
H899 H 0.57574 0.01889 0.63723 0.0
H900 H 0.73568 0.99418 0.58116 0.0
H901 H 0.72782 0.02218 0.70828 0.0
O902 O 0.72021 0.20969 0.4576 0.0
H903 H 0.55187 0.15784 0.44826 0.0
H904 H 0.67371 0.28225 0.39871 0.0
H905 H 0.56798 0.90719 0.66561 0.0
H906 H 0.85303 0.15349 0.66589 0.0
H907 H 0.64364 0.84881 0.70559 0.0
H908 H 0.88876 0.05368 0.62482 0.0
O909 O 0.59028 0.12935 0.62155 0.0
H910 H 0.73796 0.39141 0.58109 0.0
H911 H 0.57956 0.30587 0.49336 0.0
H912 H 0.58114 0.41951 0.52357 0.0
H913 H 0.66128 0.46296 0.56775 0.0
H914 H 0.73305 0.2785 0.55152 0.0
H915 H 0.62457 0.31535 0.31284 0.0
H916 H 0.53587 0.27373 0.29738 0.0
O917 O 0.58304 0.18916 0.54081 0.0
C918 C 0.65144 0.04795 0.50455 0.0
C919 C 0.53824 0.21408 0.37302 0.0
C920 C 0.60827 0.28133 0.34281 0.0
N921 N 0.61614 0.2177 0.429 0.0
C922 C 0.56794 0.19328 0.41962 0.0
C923 C 0.63637 0.26129 0.39117 0.0
C924 C 0.55861 0.25785 0.334 0.0
C925 C 0.77423 0.12995 0.6449 0.0
N926 N 0.7412 0.08513 0.62306 0.0
C927 C 0.82754 0.11891 0.64627 0.0
C928 C 0.84754 0.06256 0.62326 0.0
C929 C 0.81417 0.0181 0.59871 0.0
C930 C 0.76088 0.03032 0.59865 0.0
C931 C 0.69079 0.9326 0.70837 0.0
C932 C 0.60736 0.99673 0.66036 0.0
C933 C 0.69218 0.99823 0.69848 0.0
N934 N 0.6524 0.02885 0.67039 0.0
C935 C 0.60323 0.93212 0.67421 0.0
C936 C 0.64582 0.89935 0.69624 0.0
C937 C 0.56375 0.1644 0.58638 0.0
C938 C 0.70245 0.37311 0.56281 0.0
C939 C 0.61324 0.32455 0.51407 0.0
C940 C 0.61454 0.38882 0.53048 0.0
C941 C 0.65952 0.41314 0.55521 0.0
N942 N 0.65495 0.28544 0.52234 0.0
C943 C 0.69944 0.30908 0.54595 0.0
loop_
_geom_bond_atom_site_label_1
_geom_bond_atom_site_label_2
_geom_bond_distance
_geom_bond_site_symmetry_2
_ccdc_geom_bond_type
Co0 O2 2.143 . S
Co0 O8 2.074 . S
Co0 O11 2.093 . S
Co0 O24 2.097 . S
Co0 N41 2.151 . S
Co0 N49 2.214 . S
Co1 O2 2.160 . S
Co1 O7 2.058 . S
Co1 O17 2.057 . S
Co1 O32 2.037 . S
Co1 N36 2.145 . S
Co1 N57 2.257 1_554 S
O2 Co0 2.143 . S
O2 Co1 2.160 . S
C3 O4 1.278 . S
C3 O11 1.224 1_556 S
O4 C3 1.278 . S
C5 O6 1.245 . S
C5 O17 1.232 . S
O6 C5 1.245 . S
O7 Co1 2.058 . S
O7 C33 1.269 . S
O8 Co0 2.074 . S
O8 C33 1.257 . S
H9 C34 0.930 . S
H10 C40 0.930 . S
O11 Co0 2.093 . S
O11 C3 1.224 1_554 S
H12 C44 0.929 . S
H13 C46 0.930 . S
H14 C47 0.930 . S
H15 C45 0.929 . S
H16 C48 0.928 . S
O17 Co1 2.057 . S
O17 C5 1.232 . S
H18 C37 0.929 . S
H19 C38 0.929 . S
H20 C50 0.931 1_655 S
H21 C42 0.929 . S
H22 C51 0.930 . S
H23 C43 0.931 . S
O24 Co0 2.097 . S
O24 C52 1.214 . S
H25 C53 0.929 . S
H26 C54 0.929 . S
H27 C55 0.930 . S
H28 C56 0.929 . S
H29 C58 0.930 . S
H30 C35 0.930 . S
H31 C39 0.930 1_565 S
O32 Co1 2.037 . S
O32 C52 1.234 . S
C33 O7 1.269 . S
C33 O8 1.257 . S
C34 H9 0.930 . S
C34 C37 1.388 . S
C34 C39 1.418 . S
C35 H30 0.930 . S
C35 C38 1.404 . S
C35 C39 1.353 . S
N36 Co1 2.145 . S
N36 C37 1.397 . S
N36 C38 1.334 . S
C37 H18 0.929 . S
C37 C34 1.388 . S
C37 N36 1.397 . S
C38 H19 0.929 . S
C38 C35 1.404 . S
C38 N36 1.334 . S
C39 H31 0.930 1_545 S
C39 C34 1.418 . S
C39 C35 1.353 . S
C40 H10 0.930 . S
C40 N41 1.330 . S
C40 C42 1.446 . S
N41 Co0 2.151 . S
N41 C40 1.330 . S
N41 C45 1.418 . S
C42 H21 0.929 . S
C42 C40 1.446 . S
C42 C43 1.332 . S
C43 H23 0.931 . S
C43 C42 1.332 . S
C43 C44 1.267 . S
C44 H12 0.929 . S
C44 C43 1.267 . S
C44 C45 1.251 . S
C45 H15 0.929 . S
C45 N41 1.418 . S
C45 C44 1.251 . S
C46 H13 0.930 . S
C46 C48 1.406 . S
C46 C51 1.261 . S
C47 H14 0.930 . S
C47 N49 1.325 . S
C47 C50 1.357 . S
C48 H16 0.928 . S
C48 C46 1.406 . S
C48 N49 1.261 . S
N49 Co0 2.214 . S
N49 C47 1.325 . S
N49 C48 1.261 . S
C50 H20 0.931 1_455 S
C50 C47 1.357 . S
C50 C51 1.312 . S
C51 H22 0.930 . S
C51 C46 1.261 . S
C51 C50 1.312 . S
C52 O24 1.214 . S
C52 O32 1.234 . S
C53 H25 0.929 . S
C53 C56 1.391 . S
C53 C58 1.391 . S
C54 H26 0.929 . S
C54 C55 1.390 . S
C54 N57 1.391 . S
C55 H27 0.930 . S
C55 C54 1.390 . S
C55 C56 1.392 . S
C56 H28 0.929 . S
C56 C53 1.391 . S
C56 C55 1.392 . S
N57 Co1 2.257 1_556 S
N57 C54 1.391 . S
N57 C58 1.388 . S
C58 H29 0.930 . S
C58 C53 1.391 . S
C58 N57 1.388 . S
Co59 O61 2.143 . S
Co59 O67 2.074 . S
Co59 O70 2.093 . S
Co59 O83 2.097 . S
Co59 N100 2.151 . S
Co59 N108 2.214 . S
Co60 O61 2.160 . S
Co60 O66 2.058 . S
Co60 O76 2.057 . S
Co60 O91 2.037 . S
Co60 N95 2.145 . S
Co60 N116 2.257 . S
O61 Co59 2.143 . S
O61 Co60 2.160 . S
C62 O63 1.278 . S
C62 O70 1.224 . S
O63 C62 1.278 . S
C64 O65 1.245 . S
C64 O76 1.232 . S
O65 C64 1.245 . S
O66 Co60 2.058 . S
O66 C92 1.269 . S
O67 Co59 2.074 . S
O67 C92 1.257 . S
H68 C93 0.930 . S
H69 C99 0.930 . S
O70 Co59 2.093 . S
O70 C62 1.224 . S
H71 C103 0.929 . S
H72 C105 0.930 . S
H73 C106 0.930 . S
H74 C104 0.929 . S
H75 C107 0.928 . S
O76 Co60 2.057 . S
O76 C64 1.232 . S
H77 C96 0.929 . S
H78 C97 0.929 . S
H79 C109 0.931 1_455 S
H80 C101 0.929 . S
H81 C110 0.930 . S
H82 C102 0.931 . S
O83 Co59 2.097 . S
O83 C111 1.214 . S
H84 C112 0.929 . S
H85 C113 0.929 . S
H86 C114 0.930 . S
H87 C115 0.929 . S
H88 C117 0.930 . S
H89 C94 0.930 . S
H90 C98 0.930 1_545 S
O91 Co60 2.037 . S
O91 C111 1.234 . S
C92 O66 1.269 . S
C92 O67 1.257 . S
C93 H68 0.930 . S
C93 C96 1.388 . S
C93 C98 1.418 . S
C94 H89 0.930 . S
C94 C97 1.404 . S
C94 C98 1.353 . S
N95 Co60 2.145 . S
N95 C96 1.397 . S
N95 C97 1.334 . S
C96 H77 0.929 . S
C96 C93 1.388 . S
C96 N95 1.397 . S
C97 H78 0.929 . S
C97 C94 1.404 . S
C97 N95 1.334 . S
C98 H90 0.930 1_565 S
C98 C93 1.418 . S
C98 C94 1.353 . S
C99 H69 0.930 . S
C99 N100 1.330 . S
C99 C101 1.446 . S
N100 Co59 2.151 . S
N100 C99 1.330 . S
N100 C104 1.418 . S
C101 H80 0.929 . S
C101 C99 1.446 . S
C101 C102 1.332 . S
C102 H82 0.931 . S
C102 C101 1.332 . S
C102 C103 1.267 . S
C103 H71 0.929 . S
C103 C102 1.267 . S
C103 C104 1.251 . S
C104 H74 0.929 . S
C104 N100 1.418 . S
C104 C103 1.251 . S
C105 H72 0.930 . S
C105 C107 1.406 . S
C105 C110 1.261 . S
C106 H73 0.930 . S
C106 N108 1.325 . S
C106 C109 1.357 . S
C107 H75 0.928 . S
C107 C105 1.406 . S
C107 N108 1.261 . S
N108 Co59 2.214 . S
N108 C106 1.325 . S
N108 C107 1.261 . S
C109 H79 0.931 1_655 S
C109 C106 1.357 . S
C109 C110 1.312 . S
C110 H81 0.930 . S
C110 C105 1.261 . S
C110 C109 1.312 . S
C111 O83 1.214 . S
C111 O91 1.234 . S
C112 H84 0.929 . S
C112 C115 1.391 . S
C112 C117 1.391 . S
C113 H85 0.929 . S
C113 C114 1.390 . S
C113 N116 1.391 . S
C114 H86 0.930 . S
C114 C113 1.390 . S
C114 C115 1.392 . S
C115 H87 0.929 . S
C115 C112 1.391 . S
C115 C114 1.392 . S
N116 Co60 2.257 . S
N116 C113 1.391 . S
N116 C117 1.388 . S
C117 H88 0.930 . S
C117 C112 1.391 . S
C117 N116 1.388 . S
Co118 O120 2.143 . S
Co118 O126 2.074 . S
Co118 O129 2.093 . S
Co118 O142 2.097 . S
Co118 N159 2.151 . S
Co118 N167 2.214 . S
Co119 O120 2.160 . S
Co119 O125 2.058 . S
Co119 O135 2.057 . S
Co119 O150 2.037 . S
Co119 N154 2.145 . S
Co119 N175 2.257 1_556 S
O120 Co118 2.143 . S
O120 Co119 2.160 . S
C121 O122 1.278 . S
C121 O129 1.224 1_554 S
O122 C121 1.278 . S
C123 O124 1.245 . S
C123 O135 1.232 . S
O124 C123 1.245 . S
O125 Co119 2.058 . S
O125 C151 1.269 . S
O126 Co118 2.074 . S
O126 C151 1.257 . S
H127 C152 0.930 . S
H128 C158 0.930 . S
O129 Co118 2.093 . S
O129 C121 1.224 1_556 S
H130 C162 0.929 . S
H131 C164 0.930 . S
H132 C165 0.930 . S
H133 C163 0.929 . S
H134 C166 0.928 . S
O135 Co119 2.057 . S
O135 C123 1.232 . S
H136 C155 0.929 . S
H137 C156 0.929 . S
H138 C168 0.931 1_655 S
H139 C160 0.929 . S
H140 C169 0.930 . S
H141 C161 0.931 . S
O142 Co118 2.097 . S
O142 C170 1.214 . S
H143 C171 0.929 . S
H144 C172 0.929 . S
H145 C173 0.930 . S
H146 C174 0.929 . S
H147 C176 0.930 . S
H148 C153 0.930 . S
H149 C157 0.930 1_545 S
O150 Co119 2.037 . S
O150 C170 1.234 . S
C151 O125 1.269 . S
C151 O126 1.257 . S
C152 H127 0.930 . S
C152 C155 1.388 . S
C152 C157 1.418 . S
C153 H148 0.930 . S
C153 C156 1.404 . S
C153 C157 1.353 . S
N154 Co119 2.145 . S
N154 C155 1.397 . S
N154 C156 1.334 . S
C155 H136 0.929 . S
C155 C152 1.388 . S
C155 N154 1.397 . S
C156 H137 0.929 . S
C156 C153 1.404 . S
C156 N154 1.334 . S
C157 H149 0.930 1_565 S
C157 C152 1.418 . S
C157 C153 1.353 . S
C158 H128 0.930 . S
C158 N159 1.330 . S
C158 C160 1.446 . S
N159 Co118 2.151 . S
N159 C158 1.330 . S
N159 C163 1.418 . S
C160 H139 0.929 . S
C160 C158 1.446 . S
C160 C161 1.332 . S
C161 H141 0.931 . S
C161 C160 1.332 . S
C161 C162 1.267 . S
C162 H130 0.929 . S
C162 C161 1.267 . S
C162 C163 1.251 . S
C163 H133 0.929 . S
C163 N159 1.418 . S
C163 C162 1.251 . S
C164 H131 0.930 . S
C164 C166 1.406 . S
C164 C169 1.261 . S
C165 H132 0.930 . S
C165 N167 1.325 . S
C165 C168 1.357 . S
C166 H134 0.928 . S
C166 C164 1.406 . S
C166 N167 1.261 . S
N167 Co118 2.214 . S
N167 C165 1.325 . S
N167 C166 1.261 . S
C168 H138 0.931 1_455 S
C168 C165 1.357 . S
C168 C169 1.312 . S
C169 H140 0.930 . S
C169 C164 1.261 . S
C169 C168 1.312 . S
C170 O142 1.214 . S
C170 O150 1.234 . S
C171 H143 0.929 . S
C171 C174 1.391 . S
C171 C176 1.391 . S
C172 H144 0.929 . S
C172 C173 1.390 . S
C172 N175 1.391 . S
C173 H145 0.930 . S
C173 C172 1.390 . S
C173 C174 1.392 . S
C174 H146 0.929 . S
C174 C171 1.391 . S
C174 C173 1.392 . S
N175 Co119 2.257 1_554 S
N175 C172 1.391 . S
N175 C176 1.388 . S
C176 H147 0.930 . S
C176 C171 1.391 . S
C176 N175 1.388 . S
Co177 O179 2.143 . S
Co177 O185 2.074 . S
Co177 O188 2.093 . S
Co177 O201 2.097 . S
Co177 N218 2.151 . S
Co177 N226 2.214 . S
Co178 O179 2.160 . S
Co178 O184 2.058 . S
Co178 O194 2.057 . S
Co178 O209 2.037 . S
Co178 N213 2.145 . S
Co178 N234 2.257 . S
O179 Co177 2.143 . S
O179 Co178 2.160 . S
C180 O181 1.278 . S
C180 O188 1.224 . S
O181 C180 1.278 . S
C182 O183 1.245 . S
C182 O194 1.232 . S
O183 C182 1.245 . S
O184 Co178 2.058 . S
O184 C210 1.269 . S
O185 Co177 2.074 . S
O185 C210 1.257 . S
H186 C211 0.930 . S
H187 C217 0.930 . S
O188 Co177 2.093 . S
O188 C180 1.224 . S
H189 C221 0.929 . S
H190 C223 0.930 . S
H191 C224 0.930 . S
H192 C222 0.929 . S
H193 C225 0.928 . S
O194 Co178 2.057 . S
O194 C182 1.232 . S
H195 C214 0.929 . S
H196 C215 0.929 . S
H197 C227 0.931 1_455 S
H198 C219 0.929 . S
H199 C228 0.930 . S
H200 C220 0.931 . S
O201 Co177 2.097 . S
O201 C229 1.214 . S
H202 C230 0.929 . S
H203 C231 0.929 . S
H204 C232 0.930 . S
H205 C233 0.929 . S
H206 C235 0.930 . S
H207 C212 0.930 . S
H208 C216 0.930 1_565 S
O209 Co178 2.037 . S
O209 C229 1.234 . S
C210 O184 1.269 . S
C210 O185 1.257 . S
C211 H186 0.930 . S
C211 C214 1.388 . S
C211 C216 1.418 . S
C212 H207 0.930 . S
C212 C215 1.404 . S
C212 C216 1.353 . S
N213 Co178 2.145 . S
N213 C214 1.397 . S
N213 C215 1.334 . S
C214 H195 0.929 . S
C214 C211 1.388 . S
C214 N213 1.397 . S
C215 H196 0.929 . S
C215 C212 1.404 . S
C215 N213 1.334 . S
C216 H208 0.930 1_545 S
C216 C211 1.418 . S
C216 C212 1.353 . S
C217 H187 0.930 . S
C217 N218 1.330 . S
C217 C219 1.446 . S
N218 Co177 2.151 . S
N218 C217 1.330 . S
N218 C222 1.418 . S
C219 H198 0.929 . S
C219 C217 1.446 . S
C219 C220 1.332 . S
C220 H200 0.931 . S
C220 C219 1.332 . S
C220 C221 1.267 . S
C221 H189 0.929 . S
C221 C220 1.267 . S
C221 C222 1.251 . S
C222 H192 0.929 . S
C222 N218 1.418 . S
C222 C221 1.251 . S
C223 H190 0.930 . S
C223 C225 1.406 . S
C223 C228 1.261 . S
C224 H191 0.930 . S
C224 N226 1.325 . S
C224 C227 1.357 . S
C225 H193 0.928 . S
C225 C223 1.406 . S
C225 N226 1.261 . S
N226 Co177 2.214 . S
N226 C224 1.325 . S
N226 C225 1.261 . S
C227 H197 0.931 1_655 S
C227 C224 1.357 . S
C227 C228 1.312 . S
C228 H199 0.930 . S
C228 C223 1.261 . S
C228 C227 1.312 . S
C229 O201 1.214 . S
C229 O209 1.234 . S
C230 H202 0.929 . S
C230 C233 1.391 . S
C230 C235 1.391 . S
C231 H203 0.929 . S
C231 C232 1.390 . S
C231 N234 1.391 . S
C232 H204 0.930 . S
C232 C231 1.390 . S
C232 C233 1.392 . S
C233 H205 0.929 . S
C233 C230 1.391 . S
C233 C232 1.392 . S
N234 Co178 2.257 . S
N234 C231 1.391 . S
N234 C235 1.388 . S
C235 H206 0.930 . S
C235 C230 1.391 . S
C235 N234 1.388 . S
Co236 O238 2.143 . S
Co236 O244 2.074 . S
Co236 O247 2.093 . S
Co236 O260 2.097 . S
Co236 N277 2.151 . S
Co236 N285 2.214 . S
Co237 O238 2.160 . S
Co237 O243 2.058 1_556 S
Co237 O253 2.057 1_556 S
Co237 O268 2.037 . S
Co237 N272 2.145 1_556 S
Co237 N293 2.257 . S
O238 Co236 2.143 . S
O238 Co237 2.160 . S
C239 O240 1.278 . S
C239 O247 1.224 . S
O240 C239 1.278 . S
C241 O242 1.245 . S
C241 O253 1.232 1_556 S
O242 C241 1.245 . S
O243 Co237 2.058 1_554 S
O243 C269 1.269 1_554 S
O244 Co236 2.074 . S
O244 C269 1.257 . S
H245 C270 0.930 . S
H246 C276 0.930 . S
O247 Co236 2.093 . S
O247 C239 1.224 . S
H248 C280 0.929 . S
H249 C282 0.930 . S
H250 C283 0.930 . S
H251 C281 0.929 . S
H252 C284 0.928 . S
O253 Co237 2.057 1_554 S
O253 C241 1.232 1_554 S
H254 C273 0.929 . S
H255 C274 0.929 . S
H256 C286 0.929 . S
H257 C278 0.929 . S
H258 C287 0.930 1_455 S
H259 C279 0.931 . S
O260 Co236 2.097 . S
O260 C288 1.214 . S
H261 C289 0.929 . S
H262 C290 0.929 . S
H263 C291 0.930 . S
H264 C292 0.929 . S
H265 C294 0.930 . S
H266 C271 0.930 . S
H267 C275 0.930 . S
O268 Co237 2.037 . S
O268 C288 1.234 . S
C269 O243 1.269 1_556 S
C269 O244 1.257 . S
C270 H245 0.930 . S
C270 C273 1.388 . S
C270 C275 1.418 . S
C271 H266 0.930 . S
C271 C274 1.404 . S
C271 C275 1.353 . S
N272 Co237 2.145 1_554 S
N272 C273 1.397 . S
N272 C274 1.334 . S
C273 H254 0.929 . S
C273 C270 1.388 . S
C273 N272 1.397 . S
C274 H255 0.929 . S
C274 C271 1.404 . S
C274 N272 1.334 . S
C275 H267 0.930 . S
C275 C270 1.418 . S
C275 C271 1.353 . S
C276 H246 0.930 . S
C276 N277 1.330 . S
C276 C278 1.446 . S
N277 Co236 2.151 . S
N277 C276 1.330 . S
N277 C281 1.418 . S
C278 H257 0.929 . S
C278 C276 1.446 . S
C278 C279 1.332 . S
C279 H259 0.931 . S
C279 C278 1.332 . S
C279 C280 1.267 . S
C280 H248 0.929 . S
C280 C279 1.267 . S
C280 C281 1.251 . S
C281 H251 0.929 . S
C281 N277 1.418 . S
C281 C280 1.251 . S
C282 H249 0.930 . S
C282 C284 1.406 . S
C282 C287 1.261 . S
C283 H250 0.930 . S
C283 N285 1.325 . S
C283 C286 1.358 1_655 S
C284 H252 0.928 . S
C284 C282 1.406 . S
C284 N285 1.261 . S
N285 Co236 2.214 . S
N285 C283 1.325 . S
N285 C284 1.261 . S
C286 H256 0.929 . S
C286 C283 1.358 1_455 S
C286 C287 1.313 1_455 S
C287 H258 0.930 1_655 S
C287 C282 1.261 . S
C287 C286 1.313 1_655 S
C288 O260 1.214 . S
C288 O268 1.234 . S
C289 H261 0.929 . S
C289 C292 1.391 . S
C289 C294 1.391 . S
C290 H262 0.929 . S
C290 C291 1.390 . S
C290 N293 1.391 . S
C291 H263 0.930 . S
C291 C290 1.390 . S
C291 C292 1.392 . S
C292 H264 0.929 . S
C292 C289 1.391 . S
C292 C291 1.392 . S
N293 Co237 2.257 . S
N293 C290 1.391 . S
N293 C294 1.388 . S
C294 H265 0.930 . S
C294 C289 1.391 . S
C294 N293 1.388 . S
Co295 O297 2.143 . S
Co295 O303 2.074 . S
Co295 O306 2.093 . S
Co295 O319 2.097 . S
Co295 N336 2.151 . S
Co295 N344 2.214 . S
Co296 O297 2.160 . S
Co296 O302 2.058 . S
Co296 O312 2.057 . S
Co296 O327 2.037 . S
Co296 N331 2.145 . S
Co296 N352 2.257 . S
O297 Co295 2.143 . S
O297 Co296 2.160 . S
C298 O299 1.278 . S
C298 O306 1.224 . S
O299 C298 1.278 . S
C300 O301 1.245 . S
C300 O312 1.232 . S
O301 C300 1.245 . S
O302 Co296 2.058 . S
O302 C328 1.269 . S
O303 Co295 2.074 . S
O303 C328 1.257 . S
H304 C329 0.930 . S
H305 C335 0.930 . S
O306 Co295 2.093 . S
O306 C298 1.224 . S
H307 C339 0.929 . S
H308 C341 0.930 . S
H309 C342 0.930 . S
H310 C340 0.929 . S
H311 C343 0.928 . S
O312 Co296 2.057 . S
O312 C300 1.232 . S
H313 C332 0.929 . S
H314 C333 0.929 . S
H315 C345 0.933 1_655 S
H316 C337 0.929 . S
H317 C346 0.930 1_655 S
H318 C338 0.931 . S
O319 Co295 2.097 . S
O319 C347 1.214 . S
H320 C348 0.929 . S
H321 C349 0.929 . S
H322 C350 0.930 . S
H323 C351 0.929 . S
H324 C353 0.930 . S
H325 C330 0.930 . S
H326 C334 0.930 . S
O327 Co296 2.037 . S
O327 C347 1.234 . S
C328 O302 1.269 . S
C328 O303 1.257 . S
C329 H304 0.930 . S
C329 C332 1.388 . S
C329 C334 1.418 . S
C330 H325 0.930 . S
C330 C333 1.404 . S
C330 C334 1.353 . S
N331 Co296 2.145 . S
N331 C332 1.397 . S
N331 C333 1.334 . S
C332 H313 0.929 . S
C332 C329 1.388 . S
C332 N331 1.397 . S
C333 H314 0.929 . S
C333 C330 1.404 . S
C333 N331 1.334 . S
C334 H326 0.930 . S
C334 C329 1.418 . S
C334 C330 1.353 . S
C335 H305 0.930 . S
C335 N336 1.330 . S
C335 C337 1.446 . S
N336 Co295 2.151 . S
N336 C335 1.330 . S
N336 C340 1.418 . S
C337 H316 0.929 . S
C337 C335 1.446 . S
C337 C338 1.332 . S
C338 H318 0.931 . S
C338 C337 1.332 . S
C338 C339 1.267 . S
C339 H307 0.929 . S
C339 C338 1.267 . S
C339 C340 1.251 . S
C340 H310 0.929 . S
C340 N336 1.418 . S
C340 C339 1.251 . S
C341 H308 0.930 . S
C341 C343 1.406 . S
C341 C346 1.261 . S
C342 H309 0.930 . S
C342 N344 1.325 . S
C342 C345 1.356 . S
C343 H311 0.928 . S
C343 C341 1.406 . S
C343 N344 1.261 . S
N344 Co295 2.214 . S
N344 C342 1.325 . S
N344 C343 1.261 . S
C345 H315 0.933 1_455 S
C345 C342 1.356 . S
C345 C346 1.312 . S
C346 H317 0.930 1_455 S
C346 C341 1.261 . S
C346 C345 1.312 . S
C347 O319 1.214 . S
C347 O327 1.234 . S
C348 H320 0.929 . S
C348 C351 1.391 . S
C348 C353 1.391 . S
C349 H321 0.929 . S
C349 C350 1.390 . S
C349 N352 1.391 . S
C350 H322 0.930 . S
C350 C349 1.390 . S
C350 C351 1.392 . S
C351 H323 0.929 . S
C351 C348 1.391 . S
C351 C350 1.392 . S
N352 Co296 2.257 . S
N352 C349 1.391 . S
N352 C353 1.388 . S
C353 H324 0.930 . S
C353 C348 1.391 . S
C353 N352 1.388 . S
Co354 O356 2.143 . S
Co354 O362 2.074 . S
Co354 O365 2.093 . S
Co354 O378 2.097 . S
Co354 N395 2.151 . S
Co354 N403 2.214 . S
Co355 O356 2.160 . S
Co355 O361 2.058 1_554 S
Co355 O371 2.057 1_554 S
Co355 O386 2.037 . S
Co355 N390 2.145 1_554 S
Co355 N411 2.257 . S
O356 Co354 2.143 . S
O356 Co355 2.160 . S
C357 O358 1.278 . S
C357 O365 1.224 . S
O358 C357 1.278 . S
C359 O360 1.245 . S
C359 O371 1.232 1_554 S
O360 C359 1.245 . S
O361 Co355 2.058 1_556 S
O361 C387 1.269 1_556 S
O362 Co354 2.074 . S
O362 C387 1.257 . S
H363 C388 0.930 . S
H364 C394 0.930 . S
O365 Co354 2.093 . S
O365 C357 1.224 . S
H366 C398 0.929 . S
H367 C400 0.930 . S
H368 C401 0.930 . S
H369 C399 0.929 . S
H370 C402 0.928 . S
O371 Co355 2.057 1_556 S
O371 C359 1.232 1_556 S
H372 C391 0.929 . S
H373 C392 0.929 . S
H374 C404 0.929 . S
H375 C396 0.929 . S
H376 C405 0.930 1_455 S
H377 C397 0.931 . S
O378 Co354 2.097 . S
O378 C406 1.214 . S
H379 C407 0.929 . S
H380 C408 0.929 . S
H381 C409 0.930 . S
H382 C410 0.929 . S
H383 C412 0.930 . S
H384 C389 0.930 . S
H385 C393 0.930 . S
O386 Co355 2.037 . S
O386 C406 1.234 . S
C387 O361 1.269 1_554 S
C387 O362 1.257 . S
C388 H363 0.930 . S
C388 C391 1.388 . S
C388 C393 1.418 . S
C389 H384 0.930 . S
C389 C392 1.404 . S
C389 C393 1.353 . S
N390 Co355 2.145 1_556 S
N390 C391 1.397 . S
N390 C392 1.334 . S
C391 H372 0.929 . S
C391 C388 1.388 . S
C391 N390 1.397 . S
C392 H373 0.929 . S
C392 C389 1.404 . S
C392 N390 1.334 . S
C393 H385 0.930 . S
C393 C388 1.418 . S
C393 C389 1.353 . S
C394 H364 0.930 . S
C394 N395 1.330 . S
C394 C396 1.446 . S
N395 Co354 2.151 . S
N395 C394 1.330 . S
N395 C399 1.418 . S
C396 H375 0.929 . S
C396 C394 1.446 . S
C396 C397 1.332 . S
C397 H377 0.931 . S
C397 C396 1.332 . S
C397 C398 1.267 . S
C398 H366 0.929 . S
C398 C397 1.267 . S
C398 C399 1.251 . S
C399 H369 0.929 . S
C399 N395 1.418 . S
C399 C398 1.251 . S
C400 H367 0.930 . S
C400 C402 1.406 . S
C400 C405 1.261 . S
C401 H368 0.930 . S
C401 N403 1.325 . S
C401 C404 1.358 1_655 S
C402 H370 0.928 . S
C402 C400 1.406 . S
C402 N403 1.261 . S
N403 Co354 2.214 . S
N403 C401 1.325 . S
N403 C402 1.261 . S
C404 H374 0.929 . S
C404 C401 1.358 1_455 S
C404 C405 1.313 1_455 S
C405 H376 0.930 1_655 S
C405 C400 1.261 . S
C405 C404 1.313 1_655 S
C406 O378 1.214 . S
C406 O386 1.234 . S
C407 H379 0.929 . S
C407 C410 1.391 . S
C407 C412 1.391 . S
C408 H380 0.929 . S
C408 C409 1.390 . S
C408 N411 1.391 . S
C409 H381 0.930 . S
C409 C408 1.390 . S
C409 C410 1.392 . S
C410 H382 0.929 . S
C410 C407 1.391 . S
C410 C409 1.392 . S
N411 Co355 2.257 . S
N411 C408 1.391 . S
N411 C412 1.388 . S
C412 H383 0.930 . S
C412 C407 1.391 . S
C412 N411 1.388 . S
Co413 O415 2.143 . S
Co413 O421 2.074 . S
Co413 O424 2.093 . S
Co413 O437 2.097 . S
Co413 N454 2.151 . S
Co413 N462 2.214 . S
Co414 O415 2.160 . S
Co414 O420 2.058 . S
Co414 O430 2.057 . S
Co414 O445 2.037 . S
Co414 N449 2.145 . S
Co414 N470 2.257 . S
O415 Co413 2.143 . S
O415 Co414 2.160 . S
C416 O417 1.278 . S
C416 O424 1.224 . S
O417 C416 1.278 . S
C418 O419 1.245 . S
C418 O430 1.232 . S
O419 C418 1.245 . S
O420 Co414 2.058 . S
O420 C446 1.269 . S
O421 Co413 2.074 . S
O421 C446 1.257 . S
H422 C447 0.930 . S
H423 C453 0.930 . S
O424 Co413 2.093 . S
O424 C416 1.224 . S
H425 C457 0.929 . S
H426 C459 0.930 . S
H427 C460 0.930 . S
H428 C458 0.929 . S
H429 C461 0.928 . S
O430 Co414 2.057 . S
O430 C418 1.232 . S
H431 C450 0.929 . S
H432 C451 0.929 . S
H433 C463 0.929 . S
H434 C455 0.929 . S
H435 C464 0.930 1_655 S
H436 C456 0.931 . S
O437 Co413 2.097 . S
O437 C465 1.214 . S
H438 C466 0.929 . S
H439 C467 0.929 . S
H440 C468 0.930 . S
H441 C469 0.929 . S
H442 C471 0.930 . S
H443 C448 0.930 . S
H444 C452 0.930 . S
O445 Co414 2.037 . S
O445 C465 1.234 . S
C446 O420 1.269 . S
C446 O421 1.257 . S
C447 H422 0.930 . S
C447 C450 1.388 . S
C447 C452 1.418 . S
C448 H443 0.930 . S
C448 C451 1.404 . S
C448 C452 1.353 . S
N449 Co414 2.145 . S
N449 C450 1.397 . S
N449 C451 1.334 . S
C450 H431 0.929 . S
C450 C447 1.388 . S
C450 N449 1.397 . S
C451 H432 0.929 . S
C451 C448 1.404 . S
C451 N449 1.334 . S
C452 H444 0.930 . S
C452 C447 1.418 . S
C452 C448 1.353 . S
C453 H423 0.930 . S
C453 N454 1.330 . S
C453 C455 1.446 . S
N454 Co413 2.151 . S
N454 C453 1.330 . S
N454 C458 1.418 . S
C455 H434 0.929 . S
C455 C453 1.446 . S
C455 C456 1.332 . S
C456 H436 0.931 . S
C456 C455 1.332 . S
C456 C457 1.267 . S
C457 H425 0.929 . S
C457 C456 1.267 . S
C457 C458 1.251 . S
C458 H428 0.929 . S
C458 N454 1.418 . S
C458 C457 1.251 . S
C459 H426 0.930 . S
C459 C461 1.406 . S
C459 C464 1.261 . S
C460 H427 0.930 . S
C460 N462 1.325 . S
C460 C463 1.358 1_455 S
C461 H429 0.928 . S
C461 C459 1.406 . S
C461 N462 1.261 . S
N462 Co413 2.214 . S
N462 C460 1.325 . S
N462 C461 1.261 . S
C463 H433 0.929 . S
C463 C460 1.358 1_655 S
C463 C464 1.313 1_655 S
C464 H435 0.930 1_455 S
C464 C459 1.261 . S
C464 C463 1.313 1_455 S
C465 O437 1.214 . S
C465 O445 1.234 . S
C466 H438 0.929 . S
C466 C469 1.391 . S
C466 C471 1.391 . S
C467 H439 0.929 . S
C467 C468 1.390 . S
C467 N470 1.391 . S
C468 H440 0.930 . S
C468 C467 1.390 . S
C468 C469 1.392 . S
C469 H441 0.929 . S
C469 C466 1.391 . S
C469 C468 1.392 . S
N470 Co414 2.257 . S
N470 C467 1.391 . S
N470 C471 1.388 . S
C471 H442 0.930 . S
C471 C466 1.391 . S
C471 N470 1.388 . S
Co472 O474 2.143 . S
Co472 O480 2.074 . S
Co472 O483 2.093 . S
Co472 O496 2.097 . S
Co472 N513 2.151 . S
Co472 N521 2.214 . S
Co473 O474 2.160 . S
Co473 O479 2.058 . S
Co473 O489 2.057 . S
Co473 O504 2.037 . S
Co473 N508 2.145 . S
Co473 N529 2.257 1_554 S
O474 Co472 2.143 . S
O474 Co473 2.160 . S
C475 O476 1.278 . S
C475 O483 1.224 1_556 S
O476 C475 1.278 . S
C477 O478 1.245 . S
C477 O489 1.232 . S
O478 C477 1.245 . S
O479 Co473 2.058 . S
O479 C505 1.269 . S
O480 Co472 2.074 . S
O480 C505 1.257 . S
H481 C506 0.930 . S
H482 C512 0.930 . S
O483 Co472 2.093 . S
O483 C475 1.224 1_554 S
H484 C516 0.929 . S
H485 C518 0.930 . S
H486 C519 0.930 . S
H487 C517 0.929 . S
H488 C520 0.928 . S
O489 Co473 2.057 . S
O489 C477 1.232 . S
H490 C509 0.929 . S
H491 C510 0.929 . S
H492 C522 0.930 1_565 S
H493 C514 0.929 . S
H494 C523 0.930 . S
H495 C515 0.931 . S
O496 Co472 2.097 . S
O496 C524 1.214 . S
H497 C525 0.929 . S
H498 C526 0.929 . S
H499 C527 0.930 . S
H500 C528 0.929 . S
H501 C530 0.930 . S
H502 C507 0.930 . S
H503 C511 0.930 . S
O504 Co473 2.037 . S
O504 C524 1.234 . S
C505 O479 1.269 . S
C505 O480 1.257 . S
C506 H481 0.930 . S
C506 C509 1.388 . S
C506 C511 1.418 . S
C507 H502 0.930 . S
C507 C510 1.404 . S
C507 C511 1.353 . S
N508 Co473 2.145 . S
N508 C509 1.397 . S
N508 C510 1.334 . S
C509 H490 0.929 . S
C509 C506 1.388 . S
C509 N508 1.397 . S
C510 H491 0.929 . S
C510 C507 1.404 . S
C510 N508 1.334 . S
C511 H503 0.930 . S
C511 C506 1.418 . S
C511 C507 1.353 . S
C512 H482 0.930 . S
C512 N513 1.330 . S
C512 C514 1.446 1_565 S
N513 Co472 2.151 . S
N513 C512 1.330 . S
N513 C517 1.418 . S
C514 H493 0.929 . S
C514 C512 1.446 1_545 S
C514 C515 1.332 . S
C515 H495 0.931 . S
C515 C514 1.332 . S
C515 C516 1.267 . S
C516 H484 0.929 . S
C516 C515 1.267 . S
C516 C517 1.251 1_545 S
C517 H487 0.929 . S
C517 N513 1.418 . S
C517 C516 1.251 1_565 S
C518 H485 0.930 . S
C518 C520 1.406 . S
C518 C523 1.261 . S
C519 H486 0.930 . S
C519 N521 1.325 . S
C519 C522 1.357 1_565 S
C520 H488 0.928 . S
C520 C518 1.406 . S
C520 N521 1.261 1_545 S
N521 Co472 2.214 . S
N521 C519 1.325 . S
N521 C520 1.261 1_565 S
C522 H492 0.930 1_545 S
C522 C519 1.357 1_545 S
C522 C523 1.313 . S
C523 H494 0.930 . S
C523 C518 1.261 . S
C523 C522 1.313 . S
C524 O496 1.214 . S
C524 O504 1.234 . S
C525 H497 0.929 . S
C525 C528 1.391 . S
C525 C530 1.391 . S
C526 H498 0.929 . S
C526 C527 1.390 . S
C526 N529 1.391 . S
C527 H499 0.930 . S
C527 C526 1.390 . S
C527 C528 1.392 . S
C528 H500 0.929 . S
C528 C525 1.391 . S
C528 C527 1.392 . S
N529 Co473 2.257 1_556 S
N529 C526 1.391 . S
N529 C530 1.388 . S
C530 H501 0.930 . S
C530 C525 1.391 . S
C530 N529 1.388 . S
Co531 O533 2.143 . S
Co531 O539 2.074 . S
Co531 O542 2.093 . S
Co531 O555 2.097 . S
Co531 N572 2.151 . S
Co531 N580 2.214 . S
Co532 O533 2.160 . S
Co532 O538 2.058 . S
Co532 O548 2.057 . S
Co532 O563 2.037 . S
Co532 N567 2.145 . S
Co532 N588 2.257 . S
O533 Co531 2.143 . S
O533 Co532 2.160 . S
C534 O535 1.278 . S
C534 O542 1.224 . S
O535 C534 1.278 . S
C536 O537 1.245 . S
C536 O548 1.232 . S
O537 C536 1.245 . S
O538 Co532 2.058 . S
O538 C564 1.269 . S
O539 Co531 2.074 . S
O539 C564 1.257 . S
H540 C565 0.930 . S
H541 C571 0.930 . S
O542 Co531 2.093 . S
O542 C534 1.224 . S
H543 C575 0.929 . S
H544 C577 0.930 . S
H545 C578 0.930 . S
H546 C576 0.929 . S
H547 C579 0.928 . S
O548 Co532 2.057 . S
O548 C536 1.232 . S
H549 C568 0.929 . S
H550 C569 0.929 . S
H551 C581 0.930 1_545 S
H552 C573 0.929 . S
H553 C582 0.930 . S
H554 C574 0.931 . S
O555 Co531 2.097 . S
O555 C583 1.214 . S
H556 C584 0.929 . S
H557 C585 0.929 . S
H558 C586 0.930 . S
H559 C587 0.929 . S
H560 C589 0.930 . S
H561 C566 0.930 . S
H562 C570 0.930 . S
O563 Co532 2.037 . S
O563 C583 1.234 . S
C564 O538 1.269 . S
C564 O539 1.257 . S
C565 H540 0.930 . S
C565 C568 1.388 . S
C565 C570 1.418 . S
C566 H561 0.930 . S
C566 C569 1.404 . S
C566 C570 1.353 . S
N567 Co532 2.145 . S
N567 C568 1.397 . S
N567 C569 1.334 . S
C568 H549 0.929 . S
C568 C565 1.388 . S
C568 N567 1.397 . S
C569 H550 0.929 . S
C569 C566 1.404 . S
C569 N567 1.334 . S
C570 H562 0.930 . S
C570 C565 1.418 . S
C570 C566 1.353 . S
C571 H541 0.930 . S
C571 N572 1.330 . S
C571 C573 1.446 1_545 S
N572 Co531 2.151 . S
N572 C571 1.330 . S
N572 C576 1.418 . S
C573 H552 0.929 . S
C573 C571 1.446 1_565 S
C573 C574 1.332 . S
C574 H554 0.931 . S
C574 C573 1.332 . S
C574 C575 1.267 . S
C575 H543 0.929 . S
C575 C574 1.267 . S
C575 C576 1.251 1_565 S
C576 H546 0.929 . S
C576 N572 1.418 . S
C576 C575 1.251 1_545 S
C577 H544 0.930 . S
C577 C579 1.406 . S
C577 C582 1.261 . S
C578 H545 0.930 . S
C578 N580 1.325 . S
C578 C581 1.357 1_545 S
C579 H547 0.928 . S
C579 C577 1.406 . S
C579 N580 1.261 1_565 S
N580 Co531 2.214 . S
N580 C578 1.325 . S
N580 C579 1.261 1_545 S
C581 H551 0.930 1_565 S
C581 C578 1.357 1_565 S
C581 C582 1.313 . S
C582 H553 0.930 . S
C582 C577 1.261 . S
C582 C581 1.313 . S
C583 O555 1.214 . S
C583 O563 1.234 . S
C584 H556 0.929 . S
C584 C587 1.391 . S
C584 C589 1.391 . S
C585 H557 0.929 . S
C585 C586 1.390 . S
C585 N588 1.391 . S
C586 H558 0.930 . S
C586 C585 1.390 . S
C586 C587 1.392 . S
C587 H559 0.929 . S
C587 C584 1.391 . S
C587 C586 1.392 . S
N588 Co532 2.257 . S
N588 C585 1.391 . S
N588 C589 1.388 . S
C589 H560 0.930 . S
C589 C584 1.391 . S
C589 N588 1.388 . S
Co590 O592 2.143 . S
Co590 O598 2.074 . S
Co590 O601 2.093 . S
Co590 O614 2.097 . S
Co590 N631 2.151 . S
Co590 N639 2.214 . S
Co591 O592 2.160 . S
Co591 O597 2.058 . S
Co591 O607 2.057 . S
Co591 O622 2.037 . S
Co591 N626 2.145 . S
Co591 N647 2.257 1_556 S
O592 Co590 2.143 . S
O592 Co591 2.160 . S
C593 O594 1.278 . S
C593 O601 1.224 1_554 S
O594 C593 1.278 . S
C595 O596 1.245 . S
C595 O607 1.232 . S
O596 C595 1.245 . S
O597 Co591 2.058 . S
O597 C623 1.269 . S
O598 Co590 2.074 . S
O598 C623 1.257 . S
H599 C624 0.930 . S
H600 C630 0.930 . S
O601 Co590 2.093 . S
O601 C593 1.224 1_556 S
H602 C634 0.929 . S
H603 C636 0.930 . S
H604 C637 0.930 . S
H605 C635 0.929 . S
H606 C638 0.928 . S
O607 Co591 2.057 . S
O607 C595 1.232 . S
H608 C627 0.929 . S
H609 C628 0.929 . S
H610 C640 0.931 1_545 S
H611 C632 0.929 . S
H612 C641 0.930 . S
H613 C633 0.931 . S
O614 Co590 2.097 . S
O614 C642 1.214 . S
H615 C643 0.929 . S
H616 C644 0.929 . S
H617 C645 0.930 . S
H618 C646 0.929 . S
H619 C648 0.930 . S
H620 C625 0.930 . S
H621 C629 0.930 . S
O622 Co591 2.037 . S
O622 C642 1.234 . S
C623 O597 1.269 . S
C623 O598 1.257 . S
C624 H599 0.930 . S
C624 C627 1.388 . S
C624 C629 1.418 . S
C625 H620 0.930 . S
C625 C628 1.404 . S
C625 C629 1.353 . S
N626 Co591 2.145 . S
N626 C627 1.397 . S
N626 C628 1.334 . S
C627 H608 0.929 . S
C627 C624 1.388 . S
C627 N626 1.397 . S
C628 H609 0.929 . S
C628 C625 1.404 . S
C628 N626 1.334 . S
C629 H621 0.930 . S
C629 C624 1.418 . S
C629 C625 1.353 . S
C630 H600 0.930 . S
C630 N631 1.330 . S
C630 C632 1.446 1_545 S
N631 Co590 2.151 . S
N631 C630 1.330 . S
N631 C635 1.418 . S
C632 H611 0.929 . S
C632 C630 1.446 1_565 S
C632 C633 1.332 . S
C633 H613 0.931 . S
C633 C632 1.332 . S
C633 C634 1.267 . S
C634 H602 0.929 . S
C634 C633 1.267 . S
C634 C635 1.251 1_565 S
C635 H605 0.929 . S
C635 N631 1.418 . S
C635 C634 1.251 1_545 S
C636 H603 0.930 . S
C636 C638 1.406 . S
C636 C641 1.261 . S
C637 H604 0.930 . S
C637 N639 1.325 . S
C637 C640 1.357 1_545 S
C638 H606 0.928 . S
C638 C636 1.406 . S
C638 N639 1.261 1_565 S
N639 Co590 2.214 . S
N639 C637 1.325 . S
N639 C638 1.261 1_545 S
C640 H610 0.931 1_565 S
C640 C637 1.357 1_565 S
C640 C641 1.313 . S
C641 H612 0.930 . S
C641 C636 1.261 . S
C641 C640 1.313 . S
C642 O614 1.214 . S
C642 O622 1.234 . S
C643 H615 0.929 . S
C643 C646 1.391 . S
C643 C648 1.391 . S
C644 H616 0.929 . S
C644 C645 1.390 . S
C644 N647 1.391 . S
C645 H617 0.930 . S
C645 C644 1.390 . S
C645 C646 1.392 . S
C646 H618 0.929 . S
C646 C643 1.391 . S
C646 C645 1.392 . S
N647 Co591 2.257 1_554 S
N647 C644 1.391 . S
N647 C648 1.388 . S
C648 H619 0.930 . S
C648 C643 1.391 . S
C648 N647 1.388 . S
Co649 O651 2.143 . S
Co649 O657 2.074 . S
Co649 O660 2.093 . S
Co649 O673 2.097 . S
Co649 N690 2.151 . S
Co649 N698 2.214 . S
Co650 O651 2.160 . S
Co650 O656 2.058 . S
Co650 O666 2.057 . S
Co650 O681 2.037 . S
Co650 N685 2.145 . S
Co650 N706 2.257 . S
O651 Co649 2.143 . S
O651 Co650 2.160 . S
C652 O653 1.278 . S
C652 O660 1.224 . S
O653 C652 1.278 . S
C654 O655 1.245 . S
C654 O666 1.232 . S
O655 C654 1.245 . S
O656 Co650 2.058 . S
O656 C682 1.269 . S
O657 Co649 2.074 . S
O657 C682 1.257 . S
H658 C683 0.930 . S
H659 C689 0.930 . S
O660 Co649 2.093 . S
O660 C652 1.224 . S
H661 C693 0.929 . S
H662 C695 0.930 . S
H663 C696 0.930 . S
H664 C694 0.929 . S
H665 C697 0.928 . S
O666 Co650 2.057 . S
O666 C654 1.232 . S
H667 C686 0.929 . S
H668 C687 0.929 . S
H669 C699 0.931 1_565 S
H670 C691 0.929 . S
H671 C700 0.930 . S
H672 C692 0.931 . S
O673 Co649 2.097 . S
O673 C701 1.214 . S
H674 C702 0.929 . S
H675 C703 0.929 . S
H676 C704 0.930 . S
H677 C705 0.929 . S
H678 C707 0.930 . S
H679 C684 0.930 . S
H680 C688 0.930 . S
O681 Co650 2.037 . S
O681 C701 1.234 . S
C682 O656 1.269 . S
C682 O657 1.257 . S
C683 H658 0.930 . S
C683 C686 1.388 . S
C683 C688 1.418 . S
C684 H679 0.930 . S
C684 C687 1.404 . S
C684 C688 1.353 . S
N685 Co650 2.145 . S
N685 C686 1.397 . S
N685 C687 1.334 . S
C686 H667 0.929 . S
C686 C683 1.388 . S
C686 N685 1.397 . S
C687 H668 0.929 . S
C687 C684 1.404 . S
C687 N685 1.334 . S
C688 H680 0.930 . S
C688 C683 1.418 . S
C688 C684 1.353 . S
C689 H659 0.930 . S
C689 N690 1.330 . S
C689 C691 1.446 1_565 S
N690 Co649 2.151 . S
N690 C689 1.330 . S
N690 C694 1.418 . S
C691 H670 0.929 . S
C691 C689 1.446 1_545 S
C691 C692 1.332 . S
C692 H672 0.931 . S
C692 C691 1.332 . S
C692 C693 1.267 . S
C693 H661 0.929 . S
C693 C692 1.267 . S
C693 C694 1.251 1_545 S
C694 H664 0.929 . S
C694 N690 1.418 . S
C694 C693 1.251 1_565 S
C695 H662 0.930 . S
C695 C697 1.406 . S
C695 C700 1.261 . S
C696 H663 0.930 . S
C696 N698 1.325 . S
C696 C699 1.357 1_565 S
C697 H665 0.928 . S
C697 C695 1.406 . S
C697 N698 1.261 1_545 S
N698 Co649 2.214 . S
N698 C696 1.325 . S
N698 C697 1.261 1_565 S
C699 H669 0.931 1_545 S
C699 C696 1.357 1_545 S
C699 C700 1.313 . S
C700 H671 0.930 . S
C700 C695 1.261 . S
C700 C699 1.313 . S
C701 O673 1.214 . S
C701 O681 1.234 . S
C702 H674 0.929 . S
C702 C705 1.391 . S
C702 C707 1.391 . S
C703 H675 0.929 . S
C703 C704 1.390 . S
C703 N706 1.391 . S
C704 H676 0.930 . S
C704 C703 1.390 . S
C704 C705 1.392 . S
C705 H677 0.929 . S
C705 C702 1.391 . S
C705 C704 1.392 . S
N706 Co650 2.257 . S
N706 C703 1.391 . S
N706 C707 1.388 . S
C707 H678 0.930 . S
C707 C702 1.391 . S
C707 N706 1.388 . S
Co708 O710 2.143 . S
Co708 O716 2.074 . S
Co708 O719 2.093 . S
Co708 O732 2.097 . S
Co708 N749 2.151 . S
Co708 N757 2.214 . S
Co709 O710 2.160 . S
Co709 O715 2.058 1_556 S
Co709 O725 2.057 1_556 S
Co709 O740 2.037 . S
Co709 N744 2.145 1_556 S
Co709 N765 2.257 . S
O710 Co708 2.143 . S
O710 Co709 2.160 . S
C711 O712 1.278 . S
C711 O719 1.224 . S
O712 C711 1.278 . S
C713 O714 1.245 . S
C713 O725 1.232 1_556 S
O714 C713 1.245 . S
O715 Co709 2.058 1_554 S
O715 C741 1.269 1_554 S
O716 Co708 2.074 . S
O716 C741 1.257 . S
H717 C742 0.930 . S
H718 C748 0.930 . S
O719 Co708 2.093 . S
O719 C711 1.224 . S
H720 C752 0.929 . S
H721 C754 0.930 . S
H722 C755 0.930 1_545 S
H723 C753 0.929 . S
H724 C756 0.928 . S
O725 Co709 2.057 1_554 S
O725 C713 1.232 1_554 S
H726 C745 0.929 . S
H727 C746 0.929 . S
H728 C758 0.931 . S
H729 C750 0.929 . S
H730 C759 0.930 . S
H731 C751 0.931 . S
O732 Co708 2.097 . S
O732 C760 1.214 . S
H733 C761 0.929 . S
H734 C762 0.929 . S
H735 C763 0.930 . S
H736 C764 0.929 . S
H737 C766 0.930 . S
H738 C743 0.930 . S
H739 C747 0.930 . S
O740 Co709 2.037 . S
O740 C760 1.234 . S
C741 O715 1.269 1_556 S
C741 O716 1.257 . S
C742 H717 0.930 . S
C742 C745 1.388 . S
C742 C747 1.418 . S
C743 H738 0.930 . S
C743 C746 1.404 . S
C743 C747 1.353 . S
N744 Co709 2.145 1_554 S
N744 C745 1.397 . S
N744 C746 1.334 . S
C745 H726 0.929 . S
C745 C742 1.388 . S
C745 N744 1.397 . S
C746 H727 0.929 . S
C746 C743 1.404 . S
C746 N744 1.334 . S
C747 H739 0.930 . S
C747 C742 1.418 . S
C747 C743 1.353 . S
C748 H718 0.930 . S
C748 N749 1.330 . S
C748 C750 1.446 . S
N749 Co708 2.151 . S
N749 C748 1.330 . S
N749 C753 1.418 1_545 S
C750 H729 0.929 . S
C750 C748 1.446 . S
C750 C751 1.332 1_545 S
C751 H731 0.931 . S
C751 C750 1.332 1_565 S
C751 C752 1.267 . S
C752 H720 0.929 . S
C752 C751 1.267 . S
C752 C753 1.251 . S
C753 H723 0.929 . S
C753 N749 1.418 1_565 S
C753 C752 1.251 . S
C754 H721 0.930 . S
C754 C756 1.406 . S
C754 C759 1.261 . S
C755 H722 0.930 1_565 S
C755 N757 1.325 1_565 S
C755 C758 1.357 . S
C756 H724 0.928 . S
C756 C754 1.406 . S
C756 N757 1.261 1_565 S
N757 Co708 2.214 . S
N757 C755 1.325 1_545 S
N757 C756 1.261 1_545 S
C758 H728 0.931 . S
C758 C755 1.357 . S
C758 C759 1.312 . S
C759 H730 0.930 . S
C759 C754 1.261 . S
C759 C758 1.312 . S
C760 O732 1.214 . S
C760 O740 1.234 . S
C761 H733 0.929 . S
C761 C764 1.391 . S
C761 C766 1.391 . S
C762 H734 0.929 . S
C762 C763 1.390 . S
C762 N765 1.391 . S
C763 H735 0.930 . S
C763 C762 1.390 . S
C763 C764 1.392 . S
C764 H736 0.929 . S
C764 C761 1.391 . S
C764 C763 1.392 . S
N765 Co709 2.257 . S
N765 C762 1.391 . S
N765 C766 1.388 . S
C766 H737 0.930 . S
C766 C761 1.391 . S
C766 N765 1.388 . S
Co767 O769 2.143 . S
Co767 O775 2.074 . S
Co767 O778 2.093 . S
Co767 O791 2.097 . S
Co767 N808 2.151 . S
Co767 N816 2.214 . S
Co768 O769 2.160 . S
Co768 O774 2.058 . S
Co768 O784 2.057 . S
Co768 O799 2.037 . S
Co768 N803 2.145 . S
Co768 N824 2.257 . S
O769 Co767 2.143 . S
O769 Co768 2.160 . S
C770 O771 1.278 . S
C770 O778 1.224 . S
O771 C770 1.278 . S
C772 O773 1.245 . S
C772 O784 1.232 . S
O773 C772 1.245 . S
O774 Co768 2.058 . S
O774 C800 1.269 . S
O775 Co767 2.074 . S
O775 C800 1.257 . S
H776 C801 0.930 . S
H777 C807 0.930 . S
O778 Co767 2.093 . S
O778 C770 1.224 . S
H779 C811 0.929 . S
H780 C813 0.930 . S
H781 C814 0.930 1_565 S
H782 C812 0.929 . S
H783 C815 0.928 . S
O784 Co768 2.057 . S
O784 C772 1.232 . S
H785 C804 0.929 . S
H786 C805 0.929 . S
H787 C817 0.931 . S
H788 C809 0.929 . S
H789 C818 0.930 . S
H790 C810 0.931 . S
O791 Co767 2.097 . S
O791 C819 1.214 . S
H792 C820 0.929 . S
H793 C821 0.929 . S
H794 C822 0.930 . S
H795 C823 0.929 . S
H796 C825 0.930 . S
H797 C802 0.930 . S
H798 C806 0.930 . S
O799 Co768 2.037 . S
O799 C819 1.234 . S
C800 O774 1.269 . S
C800 O775 1.257 . S
C801 H776 0.930 . S
C801 C804 1.388 . S
C801 C806 1.418 . S
C802 H797 0.930 . S
C802 C805 1.404 . S
C802 C806 1.353 . S
N803 Co768 2.145 . S
N803 C804 1.397 . S
N803 C805 1.334 . S
C804 H785 0.929 . S
C804 C801 1.388 . S
C804 N803 1.397 . S
C805 H786 0.929 . S
C805 C802 1.404 . S
C805 N803 1.334 . S
C806 H798 0.930 . S
C806 C801 1.418 . S
C806 C802 1.353 . S
C807 H777 0.930 . S
C807 N808 1.330 . S
C807 C809 1.446 . S
N808 Co767 2.151 . S
N808 C807 1.330 . S
N808 C812 1.418 1_565 S
C809 H788 0.929 . S
C809 C807 1.446 . S
C809 C810 1.332 1_565 S
C810 H790 0.931 . S
C810 C809 1.332 1_545 S
C810 C811 1.267 . S
C811 H779 0.929 . S
C811 C810 1.267 . S
C811 C812 1.251 . S
C812 H782 0.929 . S
C812 N808 1.418 1_545 S
C812 C811 1.251 . S
C813 H780 0.930 . S
C813 C815 1.406 . S
C813 C818 1.261 . S
C814 H781 0.930 1_545 S
C814 N816 1.325 1_545 S
C814 C817 1.357 . S
C815 H783 0.928 . S
C815 C813 1.406 . S
C815 N816 1.261 1_545 S
N816 Co767 2.214 . S
N816 C814 1.325 1_565 S
N816 C815 1.261 1_565 S
C817 H787 0.931 . S
C817 C814 1.357 . S
C817 C818 1.312 . S
C818 H789 0.930 . S
C818 C813 1.261 . S
C818 C817 1.312 . S
C819 O791 1.214 . S
C819 O799 1.234 . S
C820 H792 0.929 . S
C820 C823 1.391 . S
C820 C825 1.391 . S
C821 H793 0.929 . S
C821 C822 1.390 . S
C821 N824 1.391 . S
C822 H794 0.930 . S
C822 C821 1.390 . S
C822 C823 1.392 . S
C823 H795 0.929 . S
C823 C820 1.391 . S
C823 C822 1.392 . S
N824 Co768 2.257 . S
N824 C821 1.391 . S
N824 C825 1.388 . S
C825 H796 0.930 . S
C825 C820 1.391 . S
C825 N824 1.388 . S
Co826 O828 2.143 . S
Co826 O834 2.074 . S
Co826 O837 2.093 . S
Co826 O850 2.097 . S
Co826 N867 2.151 . S
Co826 N875 2.214 . S
Co827 O828 2.160 . S
Co827 O833 2.058 1_554 S
Co827 O843 2.057 1_554 S
Co827 O858 2.037 . S
Co827 N862 2.145 1_554 S
Co827 N883 2.257 . S
O828 Co826 2.143 . S
O828 Co827 2.160 . S
C829 O830 1.278 . S
C829 O837 1.224 . S
O830 C829 1.278 . S
C831 O832 1.245 . S
C831 O843 1.232 1_554 S
O832 C831 1.245 . S
O833 Co827 2.058 1_556 S
O833 C859 1.269 1_556 S
O834 Co826 2.074 . S
O834 C859 1.257 . S
H835 C860 0.930 . S
H836 C866 0.930 . S
O837 Co826 2.093 . S
O837 C829 1.224 . S
H838 C870 0.929 . S
H839 C872 0.930 . S
H840 C873 0.930 1_565 S
H841 C871 0.929 . S
H842 C874 0.928 . S
O843 Co827 2.057 1_556 S
O843 C831 1.232 1_556 S
H844 C863 0.929 . S
H845 C864 0.929 . S
H846 C876 0.931 . S
H847 C868 0.929 . S
H848 C877 0.930 . S
H849 C869 0.931 . S
O850 Co826 2.097 . S
O850 C878 1.214 . S
H851 C879 0.929 . S
H852 C880 0.929 . S
H853 C881 0.930 . S
H854 C882 0.929 . S
H855 C884 0.930 . S
H856 C861 0.930 . S
H857 C865 0.930 . S
O858 Co827 2.037 . S
O858 C878 1.234 . S
C859 O833 1.269 1_554 S
C859 O834 1.257 . S
C860 H835 0.930 . S
C860 C863 1.388 . S
C860 C865 1.418 . S
C861 H856 0.930 . S
C861 C864 1.404 . S
C861 C865 1.353 . S
N862 Co827 2.145 1_556 S
N862 C863 1.397 . S
N862 C864 1.334 . S
C863 H844 0.929 . S
C863 C860 1.388 . S
C863 N862 1.397 . S
C864 H845 0.929 . S
C864 C861 1.404 . S
C864 N862 1.334 . S
C865 H857 0.930 . S
C865 C860 1.418 . S
C865 C861 1.353 . S
C866 H836 0.930 . S
C866 N867 1.330 . S
C866 C868 1.446 . S
N867 Co826 2.151 . S
N867 C866 1.330 . S
N867 C871 1.418 1_565 S
C868 H847 0.929 . S
C868 C866 1.446 . S
C868 C869 1.332 1_565 S
C869 H849 0.931 . S
C869 C868 1.332 1_545 S
C869 C870 1.267 . S
C870 H838 0.929 . S
C870 C869 1.267 . S
C870 C871 1.251 . S
C871 H841 0.929 . S
C871 N867 1.418 1_545 S
C871 C870 1.251 . S
C872 H839 0.930 . S
C872 C874 1.406 . S
C872 C877 1.261 . S
C873 H840 0.930 1_545 S
C873 N875 1.325 1_545 S
C873 C876 1.357 . S
C874 H842 0.928 . S
C874 C872 1.406 . S
C874 N875 1.261 1_545 S
N875 Co826 2.214 . S
N875 C873 1.325 1_565 S
N875 C874 1.261 1_565 S
C876 H846 0.931 . S
C876 C873 1.357 . S
C876 C877 1.312 . S
C877 H848 0.930 . S
C877 C872 1.261 . S
C877 C876 1.312 . S
C878 O850 1.214 . S
C878 O858 1.234 . S
C879 H851 0.929 . S
C879 C882 1.391 . S
C879 C884 1.391 . S
C880 H852 0.929 . S
C880 C881 1.390 . S
C880 N883 1.391 . S
C881 H853 0.930 . S
C881 C880 1.390 . S
C881 C882 1.392 . S
C882 H854 0.929 . S
C882 C879 1.391 . S
C882 C881 1.392 . S
N883 Co827 2.257 . S
N883 C880 1.391 . S
N883 C884 1.388 . S
C884 H855 0.930 . S
C884 C879 1.391 . S
C884 N883 1.388 . S
Co885 O887 2.143 . S
Co885 O893 2.074 . S
Co885 O896 2.093 . S
Co885 O909 2.097 . S
Co885 N926 2.151 . S
Co885 N934 2.214 . S
Co886 O887 2.160 . S
Co886 O892 2.058 . S
Co886 O902 2.057 . S
Co886 O917 2.037 . S
Co886 N921 2.145 . S
Co886 N942 2.257 . S
O887 Co885 2.143 . S
O887 Co886 2.160 . S
C888 O889 1.278 . S
C888 O896 1.224 . S
O889 C888 1.278 . S
C890 O891 1.245 . S
C890 O902 1.232 . S
O891 C890 1.245 . S
O892 Co886 2.058 . S
O892 C918 1.269 . S
O893 Co885 2.074 . S
O893 C918 1.257 . S
H894 C919 0.930 . S
H895 C925 0.930 . S
O896 Co885 2.093 . S
O896 C888 1.224 . S
H897 C929 0.929 . S
H898 C931 0.930 . S
H899 C932 0.930 1_545 S
H900 C930 0.929 . S
H901 C933 0.928 . S
O902 Co886 2.057 . S
O902 C890 1.232 . S
H903 C922 0.929 . S
H904 C923 0.929 . S
H905 C935 0.931 . S
H906 C927 0.929 . S
H907 C936 0.930 . S
H908 C928 0.931 . S
O909 Co885 2.097 . S
O909 C937 1.214 . S
H910 C938 0.929 . S
H911 C939 0.929 . S
H912 C940 0.930 . S
H913 C941 0.929 . S
H914 C943 0.930 . S
H915 C920 0.930 . S
H916 C924 0.930 . S
O917 Co886 2.037 . S
O917 C937 1.234 . S
C918 O892 1.269 . S
C918 O893 1.257 . S
C919 H894 0.930 . S
C919 C922 1.388 . S
C919 C924 1.418 . S
C920 H915 0.930 . S
C920 C923 1.404 . S
C920 C924 1.353 . S
N921 Co886 2.145 . S
N921 C922 1.397 . S
N921 C923 1.334 . S
C922 H903 0.929 . S
C922 C919 1.388 . S
C922 N921 1.397 . S
C923 H904 0.929 . S
C923 C920 1.404 . S
C923 N921 1.334 . S
C924 H916 0.930 . S
C924 C919 1.418 . S
C924 C920 1.353 . S
C925 H895 0.930 . S
C925 N926 1.330 . S
C925 C927 1.446 . S
N926 Co885 2.151 . S
N926 C925 1.330 . S
N926 C930 1.418 1_545 S
C927 H906 0.929 . S
C927 C925 1.446 . S
C927 C928 1.332 1_545 S
C928 H908 0.931 . S
C928 C927 1.332 1_565 S
C928 C929 1.267 . S
C929 H897 0.929 . S
C929 C928 1.267 . S
C929 C930 1.251 . S
C930 H900 0.929 . S
C930 N926 1.418 1_565 S
C930 C929 1.251 . S
C931 H898 0.930 . S
C931 C933 1.406 . S
C931 C936 1.261 . S
C932 H899 0.930 1_565 S
C932 N934 1.325 1_565 S
C932 C935 1.357 . S
C933 H901 0.928 . S
C933 C931 1.406 . S
C933 N934 1.261 1_565 S
N934 Co885 2.214 . S
N934 C932 1.325 1_545 S
N934 C933 1.261 1_545 S
C935 H905 0.931 . S
C935 C932 1.357 . S
C935 C936 1.312 . S
C936 H907 0.930 . S
C936 C931 1.261 . S
C936 C935 1.312 . S
C937 O909 1.214 . S
C937 O917 1.234 . S
C938 H910 0.929 . S
C938 C941 1.391 . S
C938 C943 1.391 . S
C939 H911 0.929 . S
C939 C940 1.390 . S
C939 N942 1.391 . S
C940 H912 0.930 . S
C940 C939 1.390 . S
C940 C941 1.392 . S
C941 H913 0.929 . S
C941 C938 1.391 . S
C941 C940 1.392 . S
N942 Co886 2.257 . S
N942 C939 1.391 . S
N942 C943 1.388 . S
C943 H914 0.930 . S
C943 C938 1.391 . S
C943 N942 1.388 . S
C52 C406 1.621 1_455 S
C111 C465 1.621 1_655 S
C288 C170 1.621 1_655 S
C347 C229 1.622 1_455 S
C878 C524 1.621 . S
C937 C583 1.621 . S
C642 C760 1.621 . S
C701 C819 1.622 . S
C33 C298 1.635 . S
C92 C239 1.635 . S
C151 C416 1.635 . S
C357 C210 1.635 . S
C770 C505 1.635 . S
C711 C564 1.635 . S
C623 C888 1.635 . S
C829 C682 1.635 . S
C713 C5 1.725 1_556 S
C64 C772 1.725 . S
C831 C123 1.725 1_554 S
C890 C182 1.725 . S
C477 C241 1.725 1_554 S
C536 C300 1.725 . S
C359 C595 1.725 1_554 S
C418 C654 1.725 . S
C121 C3 1.334 1_554 S
C62 C180 1.334 . S
C387 C269 2.316 1_554 S
C328 C446 2.316 . S
C593 C475 1.334 1_544 S
C652 C534 1.334 1_565 S
C859 C741 2.316 1_564 S
C918 C800 2.316 1_545 S
