# Generated by pormake.
# Topology uon, (4)-cn, num edge types: 1
# Building blocks:
#     Node 0, Type 0, BuildingBlock: KOZSID_clean_sbu_0, # of connection points: 4
#     Node 1, Type 0, BuildingBlock: KOZSID_clean_sbu_0, # of connection points: 4
#     Node 2, Type 0, BuildingBlock: KOZSID_clean_sbu_0, # of connection points: 4
#     Node 3, Type 0, BuildingBlock: KOZSID_clean_sbu_0, # of connection points: 4
#     Node 4, Type 0, BuildingBlock: KOZSID_clean_sbu_0, # of connection points: 4
#     Node 5, Type 0, BuildingBlock: KOZSID_clean_sbu_0, # of connection points: 4
#     Edge 6, Type (0, 0), BuildingBlock: OJICUG_clean_linker_0, # of connection points: 2
#     Edge 7, Type (0, 0), BuildingBlock: OJICUG_clean_linker_0, # of connection points: 2
#     Edge 8, Type (0, 0), BuildingBlock: OJICUG_clean_linker_0, # of connection points: 2
#     Edge 9, Type (0, 0), BuildingBlock: OJICUG_clean_linker_0, # of connection points: 2
#     Edge 10, Type (0, 0), BuildingBlock: OJICUG_clean_linker_0, # of connection points: 2
#     Edge 11, Type (0, 0), BuildingBlock: OJICUG_clean_linker_0, # of connection points: 2
#     Edge 12, Type (0, 0), BuildingBlock: OJICUG_clean_linker_0, # of connection points: 2
#     Edge 13, Type (0, 0), BuildingBlock: OJICUG_clean_linker_0, # of connection points: 2
#     Edge 14, Type (0, 0), BuildingBlock: OJICUG_clean_linker_0, # of connection points: 2
#     Edge 15, Type (0, 0), BuildingBlock: OJICUG_clean_linker_0, # of connection points: 2
#     Edge 16, Type (0, 0), BuildingBlock: OJICUG_clean_linker_0, # of connection points: 2
#     Edge 17, Type (0, 0), BuildingBlock: OJICUG_clean_linker_0, # of connection points: 2
# Relax obj value: 0.068
# Max RMSD: 0.128
# Mean RMSD: 0.128
data_MOF--net-uon--node1-KOZSID_clean_sbu_0--edge1-OJICUG_clean_linker_0
_symmetry_space_group_name_H-M    P1
_symmetry_Int_Tables_number       1
_symmetry_cell_setting            triclinic
loop_
_symmetry_equiv_pos_as_xyz
'x, y, z'
_cell_length_a     29.59047
_cell_length_b     29.629049
_cell_length_c     26.095477
_cell_angle_alpha  89.900327
_cell_angle_beta   90.204715
_cell_angle_gamma 119.96744
loop_
_atom_site_label
_atom_site_type_symbol
_atom_site_fract_x
_atom_site_fract_y
_atom_site_fract_z
_atom_type_partial_charge
C0 C 0.10759 0.34142 0.0376 0.0
C1 C 0.057 0.32269 0.01977 0.0
C2 C 0.06094 0.34648 0.97399 0.0
C3 C 0.11336 0.37832 0.96652 0.0
N4 N 0.14335 0.37588 1.00433 0.0
Co5 Co 0.22143 0.41681 0.00895 0.0
N6 N 0.22635 0.45843 0.94619 0.0
C7 C 0.18604 0.45386 0.91759 0.0
C8 C 0.20084 0.48546 0.87542 0.0
C9 C 0.25388 0.51199 0.87695 0.0
C10 C 0.26857 0.49537 0.92058 0.0
N11 N 0.29973 0.45658 0.01229 0.0
C12 C 0.33532 0.49352 0.98031 0.0
C13 C 0.38597 0.50931 0.99586 0.0
C14 C 0.38234 0.48072 0.03836 0.0
C15 C 0.3299 0.44929 0.0466 0.0
N16 N 0.21601 0.37663 0.07303 0.0
C17 C 0.25599 0.38083 0.10196 0.0
C18 C 0.24024 0.35132 0.14575 0.0
C19 C 0.18703 0.32772 0.14537 0.0
C20 C 0.17341 0.3442 0.10116 0.0
N21 N 0.22613 0.36362 0.96564 0.0
C22 C 0.24961 0.30178 0.90059 0.0
C23 C 0.26393 0.30849 0.95211 0.0
C24 C 0.25169 0.33881 0.98356 0.0
C25 C 0.21969 0.3233 0.88296 0.0
C26 C 0.20817 0.35359 0.91601 0.0
N27 N 0.21759 0.46972 0.05279 0.0
C28 C 0.24358 0.52027 0.13099 0.0
C29 C 0.20818 0.53785 0.12281 0.0
C30 C 0.17765 0.52064 0.07792 0.0
C31 C 0.18265 0.48648 0.04388 0.0
C32 C 0.24849 0.488 0.0955 0.0
H33 H 0.15786 0.47379 0.01072 0.0
H34 H 0.2772 0.47763 0.10412 0.0
H35 H 0.26475 0.34231 0.02192 0.0
H36 H 0.18582 0.36948 0.90014 0.0
C37 C 0.13501 0.41559 0.92812 0.0
C38 C 0.11956 0.32879 0.08806 0.0
C39 C 0.32308 0.5147 0.93487 0.0
C40 C 0.30786 0.41417 0.08739 0.0
H41 H 0.0208 0.29614 0.0386 0.0
H42 H 0.02926 0.34301 0.95026 0.0
H43 H 0.17605 0.48745 0.84595 0.0
H44 H 0.27872 0.53937 0.84815 0.0
H45 H 0.4219 0.53841 0.97828 0.0
H46 H 0.41419 0.48279 0.06074 0.0
H47 H 0.26457 0.34827 0.17505 0.0
H48 H 0.16111 0.3019 0.17461 0.0
H49 H 0.28551 0.2911 0.96816 0.0
H50 H 0.20695 0.31859 0.84339 0.0
H51 H 0.26747 0.53046 0.16516 0.0
H52 H 0.15019 0.53346 0.06865 0.0
C53 C 0.76613 0.10745 0.36955 0.0
C54 C 0.73427 0.05707 0.35163 0.0
C55 C 0.71466 0.06136 0.30571 0.0
C56 C 0.73543 0.1138 0.29826 0.0
N57 N 0.76777 0.14342 0.3362 0.0
Co58 Co 0.80503 0.22137 0.34103 0.0
N59 N 0.76797 0.22689 0.27871 0.0
C60 C 0.73197 0.18686 0.25019 0.0
C61 C 0.7142 0.20203 0.20887 0.0
C62 C 0.74039 0.25502 0.21089 0.0
C63 C 0.77264 0.26929 0.25381 0.0
N64 N 0.84371 0.29953 0.34463 0.0
C65 C 0.84242 0.33536 0.31282 0.0
C66 C 0.87775 0.3858 0.32818 0.0
C67 C 0.90288 0.38178 0.37044 0.0
C68 C 0.88153 0.32934 0.3787 0.0
N69 N 0.84004 0.21538 0.4048 0.0
C70 C 0.87612 0.25505 0.43364 0.0
C71 C 0.8898 0.23898 0.47738 0.0
C72 C 0.85976 0.18589 0.47711 0.0
C73 C 0.8295 0.17266 0.43301 0.0
N74 N 0.86263 0.22609 0.2972 0.0
C75 C 0.94752 0.24948 0.23155 0.0
C76 C 0.95543 0.26304 0.28322 0.0
C77 C 0.91307 0.25087 0.31497 0.0
C78 C 0.89599 0.2204 0.21402 0.0
C79 C 0.8544 0.20891 0.24735 0.0
N80 N 0.74858 0.21744 0.38524 0.0
C81 C 0.72409 0.2426 0.46383 0.0
C82 C 0.67111 0.20729 0.45557 0.0
C83 C 0.65779 0.17738 0.41041 0.0
C84 C 0.69689 0.18271 0.37626 0.0
C85 C 0.76129 0.24789 0.42816 0.0
H86 H 0.68475 0.15828 0.34296 0.0
H87 H 0.80044 0.27644 0.43677 0.0
H88 H 0.92283 0.26329 0.35345 0.0
H89 H 0.81611 0.18722 0.23151 0.0
C90 C 0.71952 0.13578 0.2602 0.0
C91 C 0.79046 0.11909 0.42016 0.0
C92 C 0.80865 0.32359 0.26771 0.0
C93 C 0.89476 0.30695 0.41919 0.0
H94 H 0.72443 0.02082 0.37055 0.0
H95 H 0.68635 0.02991 0.28198 0.0
H96 H 0.68689 0.17754 0.17968 0.0
H97 H 0.73708 0.28013 0.18285 0.0
H98 H 0.88476 0.42182 0.31057 0.0
H99 H 0.93304 0.41339 0.39263 0.0
H100 H 0.91732 0.26304 0.50663 0.0
H101 H 0.85942 0.1598 0.5064 0.0
H102 H 0.99447 0.28394 0.29919 0.0
H103 H 0.88771 0.20827 0.17434 0.0
H104 H 0.73775 0.26609 0.49817 0.0
H105 H 0.61751 0.1501 0.40102 0.0
C106 C 0.66709 0.77252 0.71047 0.0
C107 C 0.68813 0.74242 0.69394 0.0
C108 C 0.66503 0.7214 0.64807 0.0
C109 C 0.63153 0.73993 0.63926 0.0
N110 N 0.63243 0.77221 0.67619 0.0
Co111 Co 0.58947 0.80721 0.67883 0.0
N112 N 0.54829 0.7684 0.61655 0.0
C113 C 0.5541 0.73277 0.58938 0.0
C114 C 0.52251 0.71431 0.54717 0.0
C115 C 0.49483 0.73969 0.54706 0.0
C116 C 0.51081 0.77211 0.58979 0.0
N117 N 0.54764 0.84363 0.68021 0.0
C118 C 0.51068 0.84099 0.64713 0.0
C119 C 0.49347 0.875 0.66128 0.0
C120 C 0.52126 0.90083 0.70389 0.0
C121 C 0.55365 0.88115 0.71361 0.0
N122 N 0.62936 0.8441 0.7425 0.0
C123 C 0.62396 0.87971 0.77013 0.0
C124 C 0.65294 0.89449 0.81443 0.0
C125 C 0.67739 0.86568 0.81581 0.0
C126 C 0.66198 0.83511 0.77204 0.0
N127 N 0.64145 0.86491 0.6344 0.0
C128 C 0.7006 0.94908 0.56693 0.0
C129 C 0.69393 0.95764 0.61817 0.0
C130 C 0.6649 0.91564 0.65082 0.0
C131 C 0.68045 0.89741 0.55097 0.0
C132 C 0.65158 0.85624 0.58518 0.0
N133 N 0.53767 0.75054 0.72357 0.0
C134 C 0.48696 0.72566 0.80159 0.0
C135 C 0.47083 0.67293 0.79432 0.0
C136 C 0.48889 0.65997 0.75 0.0
C137 C 0.52238 0.69912 0.71564 0.0
C138 C 0.51869 0.76288 0.76575 0.0
H139 H 0.53574 0.68723 0.68303 0.0
H140 H 0.52807 0.80178 0.77362 0.0
H141 H 0.66119 0.92579 0.68887 0.0
H142 H 0.63682 0.81785 0.57046 0.0
C143 C 0.59388 0.72217 0.60082 0.0
C144 C 0.6778 0.79676 0.76089 0.0
C145 C 0.49096 0.80733 0.60175 0.0
C146 C 0.58914 0.89616 0.75447 0.0
H147 H 0.71569 0.73478 0.714 0.0
H148 H 0.66998 0.6937 0.62526 0.0
H149 H 0.52145 0.68738 0.51855 0.0
H150 H 0.46734 0.73588 0.51761 0.0
H151 H 0.46408 0.88082 0.64259 0.0
H152 H 0.51825 0.93051 0.72521 0.0
H153 H 0.65476 0.9217 0.84311 0.0
H154 H 0.70281 0.8662 0.84601 0.0
H155 H 0.7104 0.99685 0.63311 0.0
H156 H 0.68511 0.88854 0.51176 0.0
H157 H 0.47601 0.73911 0.83527 0.0
H158 H 0.4772 0.6199 0.74136 0.0
C159 C 0.90378 0.65698 0.02676 0.0
C160 C 0.95379 0.67653 0.00748 0.0
C161 C 0.94829 0.6559 0.9594 0.0
C162 C 0.8955 0.62487 0.95217 0.0
N163 N 0.86739 0.6249 0.99256 0.0
Co164 Co 0.79023 0.58393 0.99942 0.0
N165 N 0.784 0.53638 0.94249 0.0
C166 C 0.82194 0.54433 0.90907 0.0
C167 C 0.80703 0.50476 0.87426 0.0
C168 C 0.75609 0.47016 0.88553 0.0
C169 C 0.74253 0.49096 0.92643 0.0
N170 N 0.71279 0.54349 0.00602 0.0
C171 C 0.67683 0.49878 0.98259 0.0
C172 C 0.62654 0.48683 0.99537 0.0
C173 C 0.63112 0.52586 0.02685 0.0
C174 C 0.68375 0.55945 0.03163 0.0
N175 N 0.79738 0.63154 0.05637 0.0
C176 C 0.75929 0.63854 0.07572 0.0
C177 C 0.77601 0.6728 0.11625 0.0
C178 C 0.82784 0.68812 0.12271 0.0
C179 C 0.83967 0.66217 0.08573 0.0
N180 N 0.78274 0.63042 0.95026 0.0
C181 C 0.75569 0.69357 0.89217 0.0
C182 C 0.79678 0.71572 0.92784 0.0
C183 C 0.8098 0.68344 0.95641 0.0
C184 C 0.73148 0.63987 0.88364 0.0
C185 C 0.74559 0.60934 0.91265 0.0
N186 N 0.79661 0.53758 0.0494 0.0
C187 C 0.77425 0.49563 0.1321 0.0
C188 C 0.80556 0.47311 0.12387 0.0
C189 C 0.83284 0.48439 0.07718 0.0
C190 C 0.82816 0.51689 0.04079 0.0
C191 C 0.76977 0.52675 0.09449 0.0
H192 H 0.84995 0.52514 0.00566 0.0
H193 H 0.74464 0.54241 0.10237 0.0
H194 H 0.84026 0.70116 0.98491 0.0
H195 H 0.72446 0.56825 0.90575 0.0
C196 C 0.8722 0.58703 0.91416 0.0
C197 C 0.8918 0.66935 0.07741 0.0
C198 C 0.68824 0.47114 0.94239 0.0
C199 C 0.70729 0.60459 0.06194 0.0
H200 H 0.99044 0.70199 0.02639 0.0
H201 H 0.97922 0.66029 0.93421 0.0
H202 H 0.83038 0.5014 0.8443 0.0
H203 H 0.73103 0.43479 0.86452 0.0
H204 H 0.59025 0.45443 0.98168 0.0
H205 H 0.59977 0.5295 0.04383 0.0
H206 H 0.75276 0.68329 0.13999 0.0
H207 H 0.85387 0.715 0.15135 0.0
H208 H 0.81722 0.75724 0.93518 0.0
H209 H 0.70082 0.6211 0.85524 0.0
H210 H 0.75327 0.48978 0.16762 0.0
H211 H 0.85709 0.4677 0.06817 0.0
C212 C 0.23987 0.89966 0.36923 0.0
C213 C 0.27177 0.95035 0.35214 0.0
C214 C 0.29245 0.94692 0.30676 0.0
C215 C 0.27227 0.89466 0.29879 0.0
N216 N 0.23929 0.86431 0.33585 0.0
Co217 Co 0.20275 0.78632 0.33973 0.0
N218 N 0.2412 0.78219 0.27822 0.0
C219 C 0.27753 0.82282 0.25068 0.0
C220 C 0.29535 0.80858 0.20896 0.0
C221 C 0.26877 0.75559 0.20957 0.0
C222 C 0.23638 0.74035 0.25224 0.0
N223 N 0.16476 0.70815 0.34231 0.0
C224 C 0.16651 0.67299 0.31003 0.0
C225 C 0.13146 0.62223 0.32465 0.0
C226 C 0.10585 0.62535 0.36673 0.0
C227 C 0.1267 0.67762 0.37567 0.0
N228 N 0.1663 0.79101 0.40267 0.0
C229 C 0.13001 0.75076 0.43063 0.0
C230 C 0.11518 0.76596 0.47403 0.0
C231 C 0.14466 0.8191 0.47448 0.0
C232 C 0.17577 0.83322 0.43113 0.0
N233 N 0.14551 0.78118 0.2944 0.0
C234 C 0.06137 0.75448 0.22572 0.0
C235 C 0.05271 0.74166 0.27759 0.0
C236 C 0.0947 0.7555 0.31083 0.0
C237 C 0.11322 0.78484 0.20966 0.0
C238 C 0.15436 0.79807 0.24446 0.0
N239 N 0.25885 0.79036 0.38535 0.0
C240 C 0.28267 0.76367 0.46386 0.0
C241 C 0.33575 0.79921 0.4567 0.0
C242 C 0.34943 0.83022 0.41225 0.0
C243 C 0.31065 0.82549 0.37756 0.0
C244 C 0.24577 0.75918 0.4278 0.0
H245 H 0.32312 0.85062 0.34478 0.0
H246 H 0.20651 0.73045 0.43567 0.0
H247 H 0.08443 0.74351 0.34939 0.0
H248 H 0.19289 0.82075 0.22965 0.0
C249 C 0.28926 0.87354 0.26114 0.0
C250 C 0.21452 0.88714 0.41922 0.0
C251 C 0.2002 0.68576 0.26496 0.0
C252 C 0.11232 0.69917 0.41578 0.0
H253 H 0.28103 0.98631 0.37126 0.0
H254 H 0.32107 0.97882 0.28378 0.0
H255 H 0.32259 0.8337 0.18015 0.0
H256 H 0.2718 0.73119 0.1806 0.0
H257 H 0.12478 0.58656 0.30657 0.0
H258 H 0.07554 0.59329 0.38821 0.0
H259 H 0.08729 0.74131 0.50261 0.0
H260 H 0.14407 0.84463 0.50377 0.0
H261 H 0.01343 0.72009 0.29261 0.0
H262 H 0.12223 0.79667 0.16999 0.0
H263 H 0.26873 0.73937 0.49764 0.0
H264 H 0.3898 0.85786 0.40376 0.0
C265 C 0.34141 0.23518 0.70668 0.0
C266 C 0.32147 0.26628 0.68976 0.0
C267 C 0.34503 0.28726 0.64423 0.0
C268 C 0.37784 0.26795 0.63595 0.0
N269 N 0.37638 0.23544 0.67307 0.0
Co270 Co 0.41799 0.1989 0.67554 0.0
N271 N 0.45917 0.23723 0.61338 0.0
C272 C 0.455 0.27434 0.58705 0.0
C273 C 0.48676 0.29277 0.54513 0.0
C274 C 0.51297 0.26592 0.54449 0.0
C275 C 0.49598 0.23274 0.58664 0.0
N276 N 0.45723 0.1598 0.67571 0.0
C277 C 0.49318 0.16128 0.64235 0.0
C278 C 0.5083 0.12532 0.65551 0.0
C279 C 0.48023 0.09956 0.69789 0.0
C280 C 0.44973 0.12116 0.70836 0.0
N281 N 0.37926 0.16356 0.73977 0.0
C282 C 0.3852 0.12855 0.76797 0.0
C283 C 0.35708 0.11464 0.81261 0.0
C284 C 0.33264 0.14344 0.81355 0.0
C285 C 0.34719 0.17317 0.76919 0.0
N286 N 0.36423 0.142 0.63171 0.0
C287 C 0.30319 0.05742 0.56543 0.0
C288 C 0.30775 0.04946 0.61743 0.0
C289 C 0.33767 0.09174 0.64956 0.0
C290 C 0.32627 0.10891 0.54796 0.0
C291 C 0.35612 0.15036 0.58158 0.0
N292 N 0.47163 0.25461 0.72007 0.0
C293 C 0.53002 0.27812 0.79292 0.0
C294 C 0.53853 0.32892 0.79311 0.0
C295 C 0.51452 0.3425 0.75428 0.0
C296 C 0.48166 0.30508 0.71818 0.0
C297 C 0.49697 0.24217 0.75664 0.0
H298 H 0.46407 0.3174 0.68955 0.0
H299 H 0.49199 0.20413 0.7597 0.0
H300 H 0.33966 0.08218 0.68845 0.0
H301 H 0.3734 0.18866 0.56575 0.0
C302 C 0.41588 0.28569 0.59824 0.0
C303 C 0.32982 0.21026 0.75688 0.0
C304 C 0.5144 0.19624 0.59816 0.0
C305 C 0.41698 0.10918 0.75086 0.0
H306 H 0.29442 0.27489 0.70912 0.0
H307 H 0.34089 0.3155 0.62134 0.0
H308 H 0.48875 0.32057 0.51695 0.0
H309 H 0.54017 0.26935 0.51509 0.0
H310 H 0.53684 0.1185 0.63663 0.0
H311 H 0.4824 0.06922 0.71902 0.0
H312 H 0.35506 0.08728 0.84131 0.0
H313 H 0.30727 0.143 0.84358 0.0
H314 H 0.28904 0.01046 0.63331 0.0
H315 H 0.32326 0.11726 0.50807 0.0
H316 H 0.54897 0.26581 0.82068 0.0
H317 H 0.52006 0.38145 0.75225 0.0
C318 C 0.32029 0.28537 0.86927 0.0
C319 C 0.26841 0.27495 0.86559 0.0
H320 H 0.37994 0.27262 0.83779 0.0
C321 C 0.23566 0.23978 0.82793 0.0
H322 H 0.3468 0.31271 0.8974 0.0
C323 C 0.25473 0.21644 0.79419 0.0
C324 C 0.30701 0.22846 0.79705 0.0
H325 H 0.19545 0.23052 0.82442 0.0
H326 H 0.22921 0.19036 0.76473 0.0
C327 C 0.33936 0.26244 0.83532 0.0
C328 C 0.99462 0.23563 0.158 0.0
C329 C 0.99296 0.26811 0.19631 0.0
H330 H 0.03704 0.22914 0.09436 0.0
C331 C 0.03501 0.31952 0.20046 0.0
H332 H 0.9632 0.19575 0.15411 0.0
C333 C 0.07696 0.33837 0.16644 0.0
C334 C 0.0779 0.30628 0.12762 0.0
H335 H 0.03478 0.34583 0.22908 0.0
H336 H 0.10797 0.37857 0.16944 0.0
C337 C 0.03694 0.25448 0.12418 0.0
C338 C 0.7827 0.03693 0.45727 0.0
C339 C 0.77115 0.07745 0.45989 0.0
H340 H 0.76954 0.96443 0.48896 0.0
C341 C 0.73807 0.07659 0.4986 0.0
H342 H 0.80821 0.03697 0.42758 0.0
C343 C 0.71584 0.03528 0.53349 0.0
C344 C 0.72622 0.99381 0.53049 0.0
H345 H 0.72836 0.10728 0.50099 0.0
H346 H 0.68927 0.03516 0.56201 0.0
C347 C 0.76024 0.99533 0.49209 0.0
C348 C 0.7711 0.77287 0.84129 0.0
C349 C 0.73647 0.72488 0.86439 0.0
H350 H 0.77939 0.83372 0.79018 0.0
C351 C 0.68244 0.70472 0.85797 0.0
H352 H 0.81286 0.78933 0.8453 0.0
C353 C 0.66355 0.73014 0.82686 0.0
C354 C 0.69817 0.77647 0.80172 0.0
H355 H 0.65462 0.66835 0.87592 0.0
H356 H 0.62188 0.71244 0.82064 0.0
C357 C 0.75206 0.79832 0.80992 0.0
C358 C 0.93319 0.66261 0.1585 0.0
C359 C 0.93315 0.69306 0.11742 0.0
H360 H 0.97393 0.65769 0.22419 0.0
C361 C 0.97425 0.74468 0.11297 0.0
H362 H 0.90199 0.62261 0.16242 0.0
C363 C 0.01572 0.76499 0.14819 0.0
C364 C 0.01657 0.73419 0.18891 0.0
H365 H 0.97478 0.76888 0.08155 0.0
H366 H 0.04707 0.80477 0.14354 0.0
C367 C 0.9744 0.68288 0.19382 0.0
C368 C 0.28612 0.96997 0.53442 0.0
C369 C 0.27703 0.01217 0.52972 0.0
H370 H 0.27321 0.89746 0.50307 0.0
C371 C 0.24418 0.01112 0.49005 0.0
H372 H 0.31168 0.96972 0.5641 0.0
C373 C 0.22185 0.96935 0.45542 0.0
C374 C 0.23259 0.92833 0.45935 0.0
H375 H 0.23592 0.04264 0.48567 0.0
H376 H 0.1974 0.96976 0.42464 0.0
C377 C 0.26419 0.92857 0.49957 0.0
C378 C 0.24498 0.64075 0.22745 0.0
C379 C 0.19954 0.64396 0.23228 0.0
H380 H 0.28499 0.60905 0.18741 0.0
C381 C 0.15591 0.61104 0.20214 0.0
H382 H 0.2793 0.66602 0.24995 0.0
C383 C 0.15812 0.57614 0.16716 0.0
C384 C 0.20448 0.57418 0.16073 0.0
H385 H 0.12042 0.61301 0.20499 0.0
H386 H 0.12346 0.55091 0.14522 0.0
C387 C 0.24785 0.60738 0.19156 0.0
C388 C 0.54535 0.15346 0.53441 0.0
C389 C 0.55573 0.19645 0.56519 0.0
H390 H 0.57356 0.12214 0.47709 0.0
C391 C 0.60431 0.242 0.56099 0.0
H392 H 0.50795 0.11792 0.5368 0.0
C393 C 0.64084 0.2456 0.52509 0.0
C394 C 0.63097 0.20287 0.49364 0.0
H395 H 0.6131 0.27582 0.58405 0.0
H396 H 0.67627 0.28279 0.52145 0.0
C397 C 0.58274 0.15638 0.49947 0.0
C398 C 0.43425 0.58499 0.83929 0.0
C399 C 0.43499 0.63265 0.83238 0.0
H400 H 0.39828 0.5103 0.8769 0.0
C401 C 0.40074 0.64168 0.86256 0.0
H402 H 0.46035 0.57644 0.81794 0.0
C403 C 0.36731 0.60484 0.89804 0.0
C404 C 0.36522 0.55675 0.90317 0.0
H405 H 0.39818 0.67661 0.85809 0.0
H406 H 0.34106 0.61291 0.91987 0.0
C407 C 0.39936 0.54729 0.87385 0.0
C408 C 0.76509 0.40643 0.19499 0.0
C409 C 0.80824 0.43726 0.16319 0.0
H410 H 0.7323 0.34805 0.2537 0.0
C411 C 0.85324 0.43269 0.1691 0.0
H412 H 0.72918 0.40743 0.19138 0.0
C413 C 0.85425 0.39728 0.20435 0.0
C414 C 0.81065 0.36613 0.23503 0.0
H415 H 0.88771 0.45619 0.14637 0.0
H416 H 0.88866 0.39333 0.20682 0.0
C417 C 0.76657 0.37194 0.23074 0.0
C418 C 0.42356 0.84916 0.50268 0.0
C419 C 0.37558 0.8027 0.49518 0.0
H420 H 0.4976 0.88703 0.54198 0.0
C421 C 0.36563 0.7591 0.52542 0.0
H422 H 0.43284 0.884 0.48124 0.0
C423 C 0.40177 0.76184 0.56174 0.0
C424 C 0.45004 0.80751 0.5678 0.0
H425 H 0.33037 0.72195 0.5205 0.0
H426 H 0.39283 0.72738 0.58383 0.0
C427 C 0.46049 0.85133 0.5382 0.0
C428 C 0.57442 0.35022 0.88351 0.0
C429 C 0.57319 0.36692 0.83303 0.0
H430 H 0.61166 0.37003 0.95754 0.0
C431 C 0.60739 0.41946 0.8206 0.0
H432 H 0.54792 0.31044 0.89504 0.0
C433 C 0.64317 0.45358 0.85683 0.0
C434 C 0.64588 0.436 0.90624 0.0
H435 H 0.60802 0.43385 0.7823 0.0
H436 H 0.67004 0.49342 0.84569 0.0
C437 C 0.61051 0.38433 0.9196 0.0
loop_
_geom_bond_atom_site_label_1
_geom_bond_atom_site_label_2
_geom_bond_distance
_geom_bond_site_symmetry_2
_ccdc_geom_bond_type
C0 C1 1.443 . S
C0 N4 1.376 . S
C0 C38 1.389 . S
C1 C0 1.443 . S
C1 C2 1.340 1_554 S
C1 H41 0.951 . S
C2 C1 1.340 1_556 S
C2 C3 1.439 . S
C2 H42 0.950 . S
C3 C2 1.439 . S
C3 N4 1.374 1_556 S
C3 C37 1.395 . S
N4 C0 1.376 . S
N4 C3 1.374 1_554 S
N4 Co5 2.008 . S
Co5 N4 2.008 . S
Co5 N6 1.995 1_554 S
Co5 N11 2.008 . S
Co5 N16 1.995 . S
Co5 N21 2.282 1_554 S
Co5 N27 2.282 . S
N6 Co5 1.995 1_556 S
N6 C7 1.376 . S
N6 C10 1.383 . S
C7 N6 1.376 . S
C7 C8 1.446 . S
C7 C37 1.391 . S
C8 C7 1.446 . S
C8 C9 1.339 . S
C8 H43 0.949 . S
C9 C8 1.339 . S
C9 C10 1.439 . S
C9 H44 0.950 . S
C10 N6 1.383 . S
C10 C9 1.439 . S
C10 C39 1.392 . S
N11 Co5 2.008 . S
N11 C12 1.376 1_554 S
N11 C15 1.374 . S
C12 N11 1.376 1_556 S
C12 C13 1.443 . S
C12 C39 1.389 . S
C13 C12 1.443 . S
C13 C14 1.340 1_556 S
C13 H45 0.951 . S
C14 C13 1.340 1_554 S
C14 C15 1.439 . S
C14 H46 0.950 . S
C15 N11 1.374 . S
C15 C14 1.439 . S
C15 C40 1.395 . S
N16 Co5 1.995 . S
N16 C17 1.376 . S
N16 C20 1.383 . S
C17 N16 1.376 . S
C17 C18 1.446 . S
C17 C40 1.391 . S
C18 C17 1.446 . S
C18 C19 1.339 . S
C18 H47 0.949 . S
C19 C18 1.339 . S
C19 C20 1.439 . S
C19 H48 0.950 . S
C20 N16 1.383 . S
C20 C19 1.439 . S
C20 C38 1.392 . S
N21 Co5 2.282 1_556 S
N21 C24 1.332 . S
N21 C26 1.332 . S
C22 C23 1.386 . S
C22 C25 1.388 . S
C23 C22 1.386 . S
C23 C24 1.382 . S
C23 H49 0.950 . S
C24 N21 1.332 . S
C24 C23 1.382 . S
C24 H35 0.952 1_556 S
C25 C22 1.388 . S
C25 C26 1.382 . S
C25 H50 0.950 . S
C26 N21 1.332 . S
C26 C25 1.382 . S
C26 H36 0.948 . S
N27 Co5 2.282 . S
N27 C31 1.332 . S
N27 C32 1.332 . S
C28 C29 1.388 . S
C28 C32 1.382 . S
C28 H51 0.950 . S
C29 C28 1.388 . S
C29 C30 1.386 . S
C30 C29 1.386 . S
C30 C31 1.382 . S
C30 H52 0.950 . S
C31 N27 1.332 . S
C31 C30 1.382 . S
C31 H33 0.952 . S
C32 N27 1.332 . S
C32 C28 1.382 . S
C32 H34 0.948 . S
H33 C31 0.952 . S
H34 C32 0.948 . S
H35 C24 0.952 1_554 S
H36 C26 0.948 . S
C37 C3 1.395 . S
C37 C7 1.391 . S
C38 C0 1.389 . S
C38 C20 1.392 . S
C39 C10 1.392 . S
C39 C12 1.389 . S
C40 C15 1.395 . S
C40 C17 1.391 . S
H41 C1 0.951 . S
H42 C2 0.950 . S
H43 C8 0.949 . S
H44 C9 0.950 . S
H45 C13 0.951 . S
H46 C14 0.950 . S
H47 C18 0.949 . S
H48 C19 0.950 . S
H49 C23 0.950 . S
H50 C25 0.950 . S
H51 C28 0.950 . S
H52 C30 0.950 . S
C53 C54 1.443 . S
C53 N57 1.376 . S
C53 C91 1.389 . S
C54 C53 1.443 . S
C54 C55 1.340 . S
C54 H94 0.951 . S
C55 C54 1.340 . S
C55 C56 1.439 . S
C55 H95 0.950 . S
C56 C55 1.439 . S
C56 N57 1.374 . S
C56 C90 1.395 . S
N57 C53 1.376 . S
N57 C56 1.374 . S
N57 Co58 2.008 . S
Co58 N57 2.008 . S
Co58 N59 1.995 . S
Co58 N64 2.008 . S
Co58 N69 1.995 . S
Co58 N74 2.282 . S
Co58 N80 2.282 . S
N59 Co58 1.995 . S
N59 C60 1.376 . S
N59 C63 1.383 . S
C60 N59 1.376 . S
C60 C61 1.446 . S
C60 C90 1.391 . S
C61 C60 1.446 . S
C61 C62 1.339 . S
C61 H96 0.949 . S
C62 C61 1.339 . S
C62 C63 1.439 . S
C62 H97 0.950 . S
C63 N59 1.383 . S
C63 C62 1.439 . S
C63 C92 1.392 . S
N64 Co58 2.008 . S
N64 C65 1.376 . S
N64 C68 1.374 . S
C65 N64 1.376 . S
C65 C66 1.443 . S
C65 C92 1.389 . S
C66 C65 1.443 . S
C66 C67 1.340 . S
C66 H98 0.951 . S
C67 C66 1.340 . S
C67 C68 1.439 . S
C67 H99 0.950 . S
C68 N64 1.374 . S
C68 C67 1.439 . S
C68 C93 1.395 . S
N69 Co58 1.995 . S
N69 C70 1.376 . S
N69 C73 1.383 . S
C70 N69 1.376 . S
C70 C71 1.446 . S
C70 C93 1.391 . S
C71 C70 1.446 . S
C71 C72 1.339 . S
C71 H100 0.949 . S
C72 C71 1.339 . S
C72 C73 1.439 . S
C72 H101 0.950 . S
C73 N69 1.383 . S
C73 C72 1.439 . S
C73 C91 1.392 . S
N74 Co58 2.282 . S
N74 C77 1.332 . S
N74 C79 1.332 . S
C75 C76 1.386 . S
C75 C78 1.388 . S
C76 C75 1.386 . S
C76 C77 1.382 . S
C76 H102 0.950 . S
C77 N74 1.332 . S
C77 C76 1.382 . S
C77 H88 0.952 . S
C78 C75 1.388 . S
C78 C79 1.382 . S
C78 H103 0.950 . S
C79 N74 1.332 . S
C79 C78 1.382 . S
C79 H89 0.948 . S
N80 Co58 2.282 . S
N80 C84 1.332 . S
N80 C85 1.332 . S
C81 C82 1.388 . S
C81 C85 1.382 . S
C81 H104 0.950 . S
C82 C81 1.388 . S
C82 C83 1.386 . S
C83 C82 1.386 . S
C83 C84 1.382 . S
C83 H105 0.950 . S
C84 N80 1.332 . S
C84 C83 1.382 . S
C84 H86 0.952 . S
C85 N80 1.332 . S
C85 C81 1.382 . S
C85 H87 0.948 . S
H86 C84 0.952 . S
H87 C85 0.948 . S
H88 C77 0.952 . S
H89 C79 0.948 . S
C90 C56 1.395 . S
C90 C60 1.391 . S
C91 C53 1.389 . S
C91 C73 1.392 . S
C92 C63 1.392 . S
C92 C65 1.389 . S
C93 C68 1.395 . S
C93 C70 1.391 . S
H94 C54 0.951 . S
H95 C55 0.950 . S
H96 C61 0.949 . S
H97 C62 0.950 . S
H98 C66 0.951 . S
H99 C67 0.950 . S
H100 C71 0.949 . S
H101 C72 0.950 . S
H102 C76 0.950 . S
H103 C78 0.950 . S
H104 C81 0.950 . S
H105 C83 0.950 . S
C106 C107 1.443 . S
C106 N110 1.376 . S
C106 C144 1.389 . S
C107 C106 1.443 . S
C107 C108 1.340 . S
C107 H147 0.951 . S
C108 C107 1.340 . S
C108 C109 1.439 . S
C108 H148 0.950 . S
C109 C108 1.439 . S
C109 N110 1.374 . S
C109 C143 1.395 . S
N110 C106 1.376 . S
N110 C109 1.374 . S
N110 Co111 2.008 . S
Co111 N110 2.008 . S
Co111 N112 1.995 . S
Co111 N117 2.008 . S
Co111 N122 1.995 . S
Co111 N127 2.282 . S
Co111 N133 2.282 . S
N112 Co111 1.995 . S
N112 C113 1.376 . S
N112 C116 1.383 . S
C113 N112 1.376 . S
C113 C114 1.446 . S
C113 C143 1.391 . S
C114 C113 1.446 . S
C114 C115 1.339 . S
C114 H149 0.949 . S
C115 C114 1.339 . S
C115 C116 1.439 . S
C115 H150 0.950 . S
C116 N112 1.383 . S
C116 C115 1.439 . S
C116 C145 1.392 . S
N117 Co111 2.008 . S
N117 C118 1.376 . S
N117 C121 1.374 . S
C118 N117 1.376 . S
C118 C119 1.443 . S
C118 C145 1.389 . S
C119 C118 1.443 . S
C119 C120 1.340 . S
C119 H151 0.951 . S
C120 C119 1.340 . S
C120 C121 1.439 . S
C120 H152 0.950 . S
C121 N117 1.374 . S
C121 C120 1.439 . S
C121 C146 1.395 . S
N122 Co111 1.995 . S
N122 C123 1.376 . S
N122 C126 1.383 . S
C123 N122 1.376 . S
C123 C124 1.446 . S
C123 C146 1.391 . S
C124 C123 1.446 . S
C124 C125 1.339 . S
C124 H153 0.949 . S
C125 C124 1.339 . S
C125 C126 1.439 . S
C125 H154 0.950 . S
C126 N122 1.383 . S
C126 C125 1.439 . S
C126 C144 1.392 . S
N127 Co111 2.282 . S
N127 C130 1.332 . S
N127 C132 1.332 . S
C128 C129 1.386 . S
C128 C131 1.388 . S
C129 C128 1.386 . S
C129 C130 1.382 . S
C129 H155 0.950 . S
C130 N127 1.332 . S
C130 C129 1.382 . S
C130 H141 0.952 . S
C131 C128 1.388 . S
C131 C132 1.382 . S
C131 H156 0.950 . S
C132 N127 1.332 . S
C132 C131 1.382 . S
C132 H142 0.948 . S
N133 Co111 2.282 . S
N133 C137 1.332 . S
N133 C138 1.332 . S
C134 C135 1.388 . S
C134 C138 1.382 . S
C134 H157 0.950 . S
C135 C134 1.388 . S
C135 C136 1.386 . S
C136 C135 1.386 . S
C136 C137 1.382 . S
C136 H158 0.950 . S
C137 N133 1.332 . S
C137 C136 1.382 . S
C137 H139 0.952 . S
C138 N133 1.332 . S
C138 C134 1.382 . S
C138 H140 0.948 . S
H139 C137 0.952 . S
H140 C138 0.948 . S
H141 C130 0.952 . S
H142 C132 0.948 . S
C143 C109 1.395 . S
C143 C113 1.391 . S
C144 C106 1.389 . S
C144 C126 1.392 . S
C145 C116 1.392 . S
C145 C118 1.389 . S
C146 C121 1.395 . S
C146 C123 1.391 . S
H147 C107 0.951 . S
H148 C108 0.950 . S
H149 C114 0.949 . S
H150 C115 0.950 . S
H151 C119 0.951 . S
H152 C120 0.950 . S
H153 C124 0.949 . S
H154 C125 0.950 . S
H155 C129 0.950 . S
H156 C131 0.950 . S
H157 C134 0.950 . S
H158 C136 0.950 . S
C159 C160 1.443 . S
C159 N163 1.376 . S
C159 C197 1.389 . S
C160 C159 1.443 . S
C160 C161 1.340 1_554 S
C160 H200 0.951 . S
C161 C160 1.340 1_556 S
C161 C162 1.439 . S
C161 H201 0.950 . S
C162 C161 1.439 . S
C162 N163 1.374 1_556 S
C162 C196 1.395 . S
N163 C159 1.376 . S
N163 C162 1.374 1_554 S
N163 Co164 2.008 . S
Co164 N163 2.008 . S
Co164 N165 1.995 1_554 S
Co164 N170 2.008 . S
Co164 N175 1.995 . S
Co164 N180 2.282 1_554 S
Co164 N186 2.282 . S
N165 Co164 1.995 1_556 S
N165 C166 1.376 . S
N165 C169 1.383 . S
C166 N165 1.376 . S
C166 C167 1.446 . S
C166 C196 1.391 . S
C167 C166 1.446 . S
C167 C168 1.339 . S
C167 H202 0.949 . S
C168 C167 1.339 . S
C168 C169 1.439 . S
C168 H203 0.950 . S
C169 N165 1.383 . S
C169 C168 1.439 . S
C169 C198 1.392 . S
N170 Co164 2.008 . S
N170 C171 1.376 1_554 S
N170 C174 1.374 . S
C171 N170 1.376 1_556 S
C171 C172 1.443 . S
C171 C198 1.389 . S
C172 C171 1.443 . S
C172 C173 1.340 1_556 S
C172 H204 0.951 . S
C173 C172 1.340 1_554 S
C173 C174 1.439 . S
C173 H205 0.950 . S
C174 N170 1.374 . S
C174 C173 1.439 . S
C174 C199 1.395 . S
N175 Co164 1.995 . S
N175 C176 1.376 . S
N175 C179 1.383 . S
C176 N175 1.376 . S
C176 C177 1.446 . S
C176 C199 1.391 . S
C177 C176 1.446 . S
C177 C178 1.339 . S
C177 H206 0.949 . S
C178 C177 1.339 . S
C178 C179 1.439 . S
C178 H207 0.950 . S
C179 N175 1.383 . S
C179 C178 1.439 . S
C179 C197 1.392 . S
N180 Co164 2.282 1_556 S
N180 C183 1.332 . S
N180 C185 1.332 . S
C181 C182 1.386 . S
C181 C184 1.388 . S
C182 C181 1.386 . S
C182 C183 1.382 . S
C182 H208 0.950 . S
C183 N180 1.332 . S
C183 C182 1.382 . S
C183 H194 0.952 1_556 S
C184 C181 1.388 . S
C184 C185 1.382 . S
C184 H209 0.950 . S
C185 N180 1.332 . S
C185 C184 1.382 . S
C185 H195 0.948 . S
N186 Co164 2.282 . S
N186 C190 1.332 . S
N186 C191 1.332 . S
C187 C188 1.388 . S
C187 C191 1.382 . S
C187 H210 0.950 . S
C188 C187 1.388 . S
C188 C189 1.386 . S
C189 C188 1.386 . S
C189 C190 1.382 . S
C189 H211 0.950 . S
C190 N186 1.332 . S
C190 C189 1.382 . S
C190 H192 0.952 . S
C191 N186 1.332 . S
C191 C187 1.382 . S
C191 H193 0.948 . S
H192 C190 0.952 . S
H193 C191 0.948 . S
H194 C183 0.952 1_554 S
H195 C185 0.948 . S
C196 C162 1.395 . S
C196 C166 1.391 . S
C197 C159 1.389 . S
C197 C179 1.392 . S
C198 C169 1.392 . S
C198 C171 1.389 . S
C199 C174 1.395 . S
C199 C176 1.391 . S
H200 C160 0.951 . S
H201 C161 0.950 . S
H202 C167 0.949 . S
H203 C168 0.950 . S
H204 C172 0.951 . S
H205 C173 0.950 . S
H206 C177 0.949 . S
H207 C178 0.950 . S
H208 C182 0.950 . S
H209 C184 0.950 . S
H210 C187 0.950 . S
H211 C189 0.950 . S
C212 C213 1.443 . S
C212 N216 1.376 . S
C212 C250 1.389 . S
C213 C212 1.443 . S
C213 C214 1.340 . S
C213 H253 0.951 . S
C214 C213 1.340 . S
C214 C215 1.439 . S
C214 H254 0.950 . S
C215 C214 1.439 . S
C215 N216 1.374 . S
C215 C249 1.395 . S
N216 C212 1.376 . S
N216 C215 1.374 . S
N216 Co217 2.008 . S
Co217 N216 2.008 . S
Co217 N218 1.995 . S
Co217 N223 2.008 . S
Co217 N228 1.995 . S
Co217 N233 2.282 . S
Co217 N239 2.282 . S
N218 Co217 1.995 . S
N218 C219 1.376 . S
N218 C222 1.383 . S
C219 N218 1.376 . S
C219 C220 1.446 . S
C219 C249 1.391 . S
C220 C219 1.446 . S
C220 C221 1.339 . S
C220 H255 0.949 . S
C221 C220 1.339 . S
C221 C222 1.439 . S
C221 H256 0.950 . S
C222 N218 1.383 . S
C222 C221 1.439 . S
C222 C251 1.392 . S
N223 Co217 2.008 . S
N223 C224 1.376 . S
N223 C227 1.374 . S
C224 N223 1.376 . S
C224 C225 1.443 . S
C224 C251 1.389 . S
C225 C224 1.443 . S
C225 C226 1.340 . S
C225 H257 0.951 . S
C226 C225 1.340 . S
C226 C227 1.439 . S
C226 H258 0.950 . S
C227 N223 1.374 . S
C227 C226 1.439 . S
C227 C252 1.395 . S
N228 Co217 1.995 . S
N228 C229 1.376 . S
N228 C232 1.383 . S
C229 N228 1.376 . S
C229 C230 1.446 . S
C229 C252 1.391 . S
C230 C229 1.446 . S
C230 C231 1.339 . S
C230 H259 0.949 . S
C231 C230 1.339 . S
C231 C232 1.439 . S
C231 H260 0.950 . S
C232 N228 1.383 . S
C232 C231 1.439 . S
C232 C250 1.392 . S
N233 Co217 2.282 . S
N233 C236 1.332 . S
N233 C238 1.332 . S
C234 C235 1.386 . S
C234 C237 1.388 . S
C235 C234 1.386 . S
C235 C236 1.382 . S
C235 H261 0.950 . S
C236 N233 1.332 . S
C236 C235 1.382 . S
C236 H247 0.952 . S
C237 C234 1.388 . S
C237 C238 1.382 . S
C237 H262 0.950 . S
C238 N233 1.332 . S
C238 C237 1.382 . S
C238 H248 0.948 . S
N239 Co217 2.282 . S
N239 C243 1.332 . S
N239 C244 1.332 . S
C240 C241 1.388 . S
C240 C244 1.382 . S
C240 H263 0.950 . S
C241 C240 1.388 . S
C241 C242 1.386 . S
C242 C241 1.386 . S
C242 C243 1.382 . S
C242 H264 0.950 . S
C243 N239 1.332 . S
C243 C242 1.382 . S
C243 H245 0.952 . S
C244 N239 1.332 . S
C244 C240 1.382 . S
C244 H246 0.948 . S
H245 C243 0.952 . S
H246 C244 0.948 . S
H247 C236 0.952 . S
H248 C238 0.948 . S
C249 C215 1.395 . S
C249 C219 1.391 . S
C250 C212 1.389 . S
C250 C232 1.392 . S
C251 C222 1.392 . S
C251 C224 1.389 . S
C252 C227 1.395 . S
C252 C229 1.391 . S
H253 C213 0.951 . S
H254 C214 0.950 . S
H255 C220 0.949 . S
H256 C221 0.950 . S
H257 C225 0.951 . S
H258 C226 0.950 . S
H259 C230 0.949 . S
H260 C231 0.950 . S
H261 C235 0.950 . S
H262 C237 0.950 . S
H263 C240 0.950 . S
H264 C242 0.950 . S
C265 C266 1.443 . S
C265 N269 1.376 . S
C265 C303 1.389 . S
C266 C265 1.443 . S
C266 C267 1.340 . S
C266 H306 0.951 . S
C267 C266 1.340 . S
C267 C268 1.439 . S
C267 H307 0.950 . S
C268 C267 1.439 . S
C268 N269 1.374 . S
C268 C302 1.395 . S
N269 C265 1.376 . S
N269 C268 1.374 . S
N269 Co270 2.008 . S
Co270 N269 2.008 . S
Co270 N271 1.995 . S
Co270 N276 2.008 . S
Co270 N281 1.995 . S
Co270 N286 2.282 . S
Co270 N292 2.282 . S
N271 Co270 1.995 . S
N271 C272 1.376 . S
N271 C275 1.383 . S
C272 N271 1.376 . S
C272 C273 1.446 . S
C272 C302 1.391 . S
C273 C272 1.446 . S
C273 C274 1.339 . S
C273 H308 0.949 . S
C274 C273 1.339 . S
C274 C275 1.439 . S
C274 H309 0.950 . S
C275 N271 1.383 . S
C275 C274 1.439 . S
C275 C304 1.392 . S
N276 Co270 2.008 . S
N276 C277 1.376 . S
N276 C280 1.374 . S
C277 N276 1.376 . S
C277 C278 1.443 . S
C277 C304 1.389 . S
C278 C277 1.443 . S
C278 C279 1.340 . S
C278 H310 0.951 . S
C279 C278 1.340 . S
C279 C280 1.439 . S
C279 H311 0.950 . S
C280 N276 1.374 . S
C280 C279 1.439 . S
C280 C305 1.395 . S
N281 Co270 1.995 . S
N281 C282 1.376 . S
N281 C285 1.383 . S
C282 N281 1.376 . S
C282 C283 1.446 . S
C282 C305 1.391 . S
C283 C282 1.446 . S
C283 C284 1.339 . S
C283 H312 0.949 . S
C284 C283 1.339 . S
C284 C285 1.439 . S
C284 H313 0.950 . S
C285 N281 1.383 . S
C285 C284 1.439 . S
C285 C303 1.392 . S
N286 Co270 2.282 . S
N286 C289 1.332 . S
N286 C291 1.332 . S
C287 C288 1.386 . S
C287 C290 1.388 . S
C288 C287 1.386 . S
C288 C289 1.382 . S
C288 H314 0.950 . S
C289 N286 1.332 . S
C289 C288 1.382 . S
C289 H300 0.952 . S
C290 C287 1.388 . S
C290 C291 1.382 . S
C290 H315 0.950 . S
C291 N286 1.332 . S
C291 C290 1.382 . S
C291 H301 0.948 . S
N292 Co270 2.282 . S
N292 C296 1.332 . S
N292 C297 1.332 . S
C293 C294 1.388 . S
C293 C297 1.382 . S
C293 H316 0.950 . S
C294 C293 1.388 . S
C294 C295 1.386 . S
C295 C294 1.386 . S
C295 C296 1.382 . S
C295 H317 0.950 . S
C296 N292 1.332 . S
C296 C295 1.382 . S
C296 H298 0.952 . S
C297 N292 1.332 . S
C297 C293 1.382 . S
C297 H299 0.948 . S
H298 C296 0.952 . S
H299 C297 0.948 . S
H300 C289 0.952 . S
H301 C291 0.948 . S
C302 C268 1.395 . S
C302 C272 1.391 . S
C303 C265 1.389 . S
C303 C285 1.392 . S
C304 C275 1.392 . S
C304 C277 1.389 . S
C305 C280 1.395 . S
C305 C282 1.391 . S
H306 C266 0.951 . S
H307 C267 0.950 . S
H308 C273 0.949 . S
H309 C274 0.950 . S
H310 C278 0.951 . S
H311 C279 0.950 . S
H312 C283 0.949 . S
H313 C284 0.950 . S
H314 C288 0.950 . S
H315 C290 0.950 . S
H316 C293 0.950 . S
H317 C295 0.950 . S
C318 C319 1.387 . S
C318 H322 0.950 . S
C318 C327 1.390 . S
C319 C318 1.387 . S
C319 C321 1.387 . S
H320 C327 0.950 . S
C321 C319 1.387 . S
C321 C323 1.390 . S
C321 H325 0.950 . S
H322 C318 0.950 . S
C323 C321 1.390 . S
C323 C324 1.387 . S
C323 H326 0.950 . S
C324 C323 1.387 . S
C324 C327 1.387 . S
H325 C321 0.950 . S
H326 C323 0.950 . S
C327 C318 1.390 . S
C327 H320 0.950 . S
C327 C324 1.387 . S
C328 C329 1.387 . S
C328 H332 0.950 . S
C328 C337 1.390 1_655 S
C329 C328 1.387 . S
C329 C331 1.387 1_655 S
H330 C337 0.950 . S
C331 C329 1.387 1_455 S
C331 C333 1.390 . S
C331 H335 0.950 . S
H332 C328 0.950 . S
C333 C331 1.390 . S
C333 C334 1.387 . S
C333 H336 0.950 . S
C334 C333 1.387 . S
C334 C337 1.387 . S
H335 C331 0.950 . S
H336 C333 0.950 . S
C337 C328 1.390 1_455 S
C337 H330 0.950 . S
C337 C334 1.387 . S
C338 C339 1.387 . S
C338 H342 0.950 . S
C338 C347 1.377 1_545 S
C339 C338 1.387 . S
C339 C341 1.387 . S
H340 C347 0.965 . S
C341 C339 1.387 . S
C341 C343 1.390 . S
C341 H345 0.950 . S
H342 C338 0.950 . S
C343 C341 1.390 . S
C343 C344 1.387 1_545 S
C343 H346 0.950 1_545 S
C344 C343 1.387 1_565 S
C344 C347 1.386 . S
H345 C341 0.950 . S
H346 C343 0.950 1_565 S
C347 C338 1.377 1_565 S
C347 H340 0.965 . S
C347 C344 1.386 . S
C348 C349 1.387 . S
C348 H352 0.950 . S
C348 C357 1.390 . S
C349 C348 1.387 . S
C349 C351 1.387 . S
H350 C357 0.950 . S
C351 C349 1.387 . S
C351 C353 1.390 . S
C351 H355 0.950 . S
H352 C348 0.950 . S
C353 C351 1.390 . S
C353 C354 1.387 . S
C353 H356 0.950 . S
C354 C353 1.387 . S
C354 C357 1.387 . S
H355 C351 0.950 . S
H356 C353 0.950 . S
C357 C348 1.390 . S
C357 H350 0.950 . S
C357 C354 1.387 . S
C358 C359 1.387 . S
C358 H362 0.950 . S
C358 C367 1.390 . S
C359 C358 1.387 . S
C359 C361 1.387 . S
H360 C367 0.950 . S
C361 C359 1.387 . S
C361 C363 1.390 1_655 S
C361 H365 0.950 . S
H362 C358 0.950 . S
C363 C361 1.390 1_455 S
C363 C364 1.387 . S
C363 H366 0.950 . S
C364 C363 1.387 . S
C364 C367 1.387 1_455 S
H365 C361 0.950 . S
H366 C363 0.950 . S
C367 C358 1.390 . S
C367 H360 0.950 . S
C367 C364 1.387 1_655 S
C368 C369 1.387 . S
C368 H372 0.950 . S
C368 C377 1.390 1_545 S
C369 C368 1.387 . S
C369 C371 1.387 1_545 S
H370 C377 0.950 . S
C371 C369 1.387 1_565 S
C371 C373 1.390 . S
C371 H375 0.949 1_565 S
H372 C368 0.950 . S
C373 C371 1.390 . S
C373 C374 1.387 . S
C373 H376 0.950 . S
C374 C373 1.387 . S
C374 C377 1.387 . S
H375 C371 0.949 1_545 S
H376 C373 0.950 . S
C377 C368 1.390 1_565 S
C377 H370 0.950 . S
C377 C374 1.387 . S
C378 C379 1.387 . S
C378 H382 0.950 . S
C378 C387 1.390 . S
C379 C378 1.387 . S
C379 C381 1.387 . S
H380 C387 0.950 . S
C381 C379 1.387 . S
C381 C383 1.390 . S
C381 H385 0.950 . S
H382 C378 0.950 . S
C383 C381 1.390 . S
C383 C384 1.387 . S
C383 H386 0.950 . S
C384 C383 1.387 . S
C384 C387 1.387 . S
H385 C381 0.950 . S
H386 C383 0.950 . S
C387 C378 1.390 . S
C387 H380 0.950 . S
C387 C384 1.387 . S
C388 C389 1.387 . S
C388 H392 0.950 . S
C388 C397 1.390 . S
C389 C388 1.387 . S
C389 C391 1.387 . S
H390 C397 0.950 . S
C391 C389 1.387 . S
C391 C393 1.390 . S
C391 H395 0.950 . S
H392 C388 0.950 . S
C393 C391 1.390 . S
C393 C394 1.387 . S
C393 H396 0.950 . S
C394 C393 1.387 . S
C394 C397 1.387 . S
H395 C391 0.950 . S
H396 C393 0.950 . S
C397 C388 1.390 . S
C397 H390 0.950 . S
C397 C394 1.387 . S
C398 C399 1.387 . S
C398 H402 0.950 . S
C398 C407 1.390 . S
C399 C398 1.387 . S
C399 C401 1.387 . S
H400 C407 0.950 . S
C401 C399 1.387 . S
C401 C403 1.390 . S
C401 H405 0.950 . S
H402 C398 0.950 . S
C403 C401 1.390 . S
C403 C404 1.387 . S
C403 H406 0.950 . S
C404 C403 1.387 . S
C404 C407 1.387 . S
H405 C401 0.950 . S
H406 C403 0.950 . S
C407 C398 1.390 . S
C407 H400 0.950 . S
C407 C404 1.387 . S
C408 C409 1.387 . S
C408 H412 0.950 . S
C408 C417 1.390 . S
C409 C408 1.387 . S
C409 C411 1.387 . S
H410 C417 0.950 . S
C411 C409 1.387 . S
C411 C413 1.390 . S
C411 H415 0.950 . S
H412 C408 0.950 . S
C413 C411 1.390 . S
C413 C414 1.387 . S
C413 H416 0.950 . S
C414 C413 1.387 . S
C414 C417 1.387 . S
H415 C411 0.950 . S
H416 C413 0.950 . S
C417 C408 1.390 . S
C417 H410 0.950 . S
C417 C414 1.387 . S
C418 C419 1.387 . S
C418 H422 0.950 . S
C418 C427 1.390 . S
C419 C418 1.387 . S
C419 C421 1.387 . S
H420 C427 0.950 . S
C421 C419 1.387 . S
C421 C423 1.390 . S
C421 H425 0.950 . S
H422 C418 0.950 . S
C423 C421 1.390 . S
C423 C424 1.387 . S
C423 H426 0.950 . S
C424 C423 1.387 . S
C424 C427 1.387 . S
H425 C421 0.950 . S
H426 C423 0.950 . S
C427 C418 1.390 . S
C427 H420 0.950 . S
C427 C424 1.387 . S
C428 C429 1.387 . S
C428 H432 0.950 . S
C428 C437 1.390 . S
C429 C428 1.387 . S
C429 C431 1.387 . S
H430 C437 0.950 . S
C431 C429 1.387 . S
C431 C433 1.390 . S
C431 H435 0.950 . S
H432 C428 0.950 . S
C433 C431 1.390 . S
C433 C434 1.387 . S
C433 H436 0.950 . S
C434 C433 1.387 . S
C434 C437 1.387 . S
H435 C431 0.950 . S
H436 C433 0.950 . S
C437 C428 1.390 . S
C437 H430 0.950 . S
C437 C434 1.387 . S
C319 C22 1.497 . S
C324 C303 1.511 . S
C329 C75 1.497 . S
C334 C38 1.511 . S
C339 C91 1.511 . S
C344 C128 1.496 . S
C349 C181 1.496 . S
C354 C144 1.511 . S
C359 C197 1.512 . S
C364 C234 1.496 . S
C369 C287 1.497 . S
C374 C250 1.512 . S
C379 C251 1.521 . S
C384 C29 1.512 . S
C389 C304 1.521 . S
C394 C82 1.512 . S
C399 C135 1.513 . S
C404 C39 1.520 . S
C409 C188 1.512 . S
C414 C92 1.521 . S
C419 C241 1.512 . S
C424 C145 1.520 . S
C429 C294 1.513 . S
C434 C198 1.520 . S
