# Generated by pormake.
# Topology tzs, (4)-cn, num edge types: 1
# Building blocks:
#     Node 0, Type 0, BuildingBlock: CEKHIL_clean_sbu_0, # of connection points: 4
#     Node 1, Type 0, BuildingBlock: CEKHIL_clean_sbu_0, # of connection points: 4
#     Node 2, Type 0, BuildingBlock: CEKHIL_clean_sbu_0, # of connection points: 4
#     Node 3, Type 0, BuildingBlock: CEKHIL_clean_sbu_0, # of connection points: 4
#     Node 4, Type 0, BuildingBlock: CEKHIL_clean_sbu_0, # of connection points: 4
#     Node 5, Type 0, BuildingBlock: CEKHIL_clean_sbu_0, # of connection points: 4
#     Node 6, Type 0, BuildingBlock: CEKHIL_clean_sbu_0, # of connection points: 4
#     Node 7, Type 0, BuildingBlock: CEKHIL_clean_sbu_0, # of connection points: 4
#     Node 8, Type 0, BuildingBlock: CEKHIL_clean_sbu_0, # of connection points: 4
#     Node 9, Type 0, BuildingBlock: CEKHIL_clean_sbu_0, # of connection points: 4
#     Node 10, Type 0, BuildingBlock: CEKHIL_clean_sbu_0, # of connection points: 4
#     Node 11, Type 0, BuildingBlock: CEKHIL_clean_sbu_0, # of connection points: 4
#     Node 12, Type 0, BuildingBlock: CEKHIL_clean_sbu_0, # of connection points: 4
#     Node 13, Type 0, BuildingBlock: CEKHIL_clean_sbu_0, # of connection points: 4
#     Node 14, Type 0, BuildingBlock: CEKHIL_clean_sbu_0, # of connection points: 4
#     Node 15, Type 0, BuildingBlock: CEKHIL_clean_sbu_0, # of connection points: 4
#     Edge 16, Type (0, 0), BuildingBlock: ZUJKAS_clean_linker_0, # of connection points: 2
#     Edge 17, Type (0, 0), BuildingBlock: ZUJKAS_clean_linker_0, # of connection points: 2
#     Edge 18, Type (0, 0), BuildingBlock: ZUJKAS_clean_linker_0, # of connection points: 2
#     Edge 19, Type (0, 0), BuildingBlock: ZUJKAS_clean_linker_0, # of connection points: 2
#     Edge 20, Type (0, 0), BuildingBlock: ZUJKAS_clean_linker_0, # of connection points: 2
#     Edge 21, Type (0, 0), BuildingBlock: ZUJKAS_clean_linker_0, # of connection points: 2
#     Edge 22, Type (0, 0), BuildingBlock: ZUJKAS_clean_linker_0, # of connection points: 2
#     Edge 23, Type (0, 0), BuildingBlock: ZUJKAS_clean_linker_0, # of connection points: 2
#     Edge 24, Type (0, 0), BuildingBlock: ZUJKAS_clean_linker_0, # of connection points: 2
#     Edge 25, Type (0, 0), BuildingBlock: ZUJKAS_clean_linker_0, # of connection points: 2
#     Edge 26, Type (0, 0), BuildingBlock: ZUJKAS_clean_linker_0, # of connection points: 2
#     Edge 27, Type (0, 0), BuildingBlock: ZUJKAS_clean_linker_0, # of connection points: 2
#     Edge 28, Type (0, 0), BuildingBlock: ZUJKAS_clean_linker_0, # of connection points: 2
#     Edge 29, Type (0, 0), BuildingBlock: ZUJKAS_clean_linker_0, # of connection points: 2
#     Edge 30, Type (0, 0), BuildingBlock: ZUJKAS_clean_linker_0, # of connection points: 2
#     Edge 31, Type (0, 0), BuildingBlock: ZUJKAS_clean_linker_0, # of connection points: 2
#     Edge 32, Type (0, 0), BuildingBlock: ZUJKAS_clean_linker_0, # of connection points: 2
#     Edge 33, Type (0, 0), BuildingBlock: ZUJKAS_clean_linker_0, # of connection points: 2
#     Edge 34, Type (0, 0), BuildingBlock: ZUJKAS_clean_linker_0, # of connection points: 2
#     Edge 35, Type (0, 0), BuildingBlock: ZUJKAS_clean_linker_0, # of connection points: 2
#     Edge 36, Type (0, 0), BuildingBlock: ZUJKAS_clean_linker_0, # of connection points: 2
#     Edge 37, Type (0, 0), BuildingBlock: ZUJKAS_clean_linker_0, # of connection points: 2
#     Edge 38, Type (0, 0), BuildingBlock: ZUJKAS_clean_linker_0, # of connection points: 2
#     Edge 39, Type (0, 0), BuildingBlock: ZUJKAS_clean_linker_0, # of connection points: 2
#     Edge 40, Type (0, 0), BuildingBlock: ZUJKAS_clean_linker_0, # of connection points: 2
#     Edge 41, Type (0, 0), BuildingBlock: ZUJKAS_clean_linker_0, # of connection points: 2
#     Edge 42, Type (0, 0), BuildingBlock: ZUJKAS_clean_linker_0, # of connection points: 2
#     Edge 43, Type (0, 0), BuildingBlock: ZUJKAS_clean_linker_0, # of connection points: 2
#     Edge 44, Type (0, 0), BuildingBlock: ZUJKAS_clean_linker_0, # of connection points: 2
#     Edge 45, Type (0, 0), BuildingBlock: ZUJKAS_clean_linker_0, # of connection points: 2
#     Edge 46, Type (0, 0), BuildingBlock: ZUJKAS_clean_linker_0, # of connection points: 2
#     Edge 47, Type (0, 0), BuildingBlock: ZUJKAS_clean_linker_0, # of connection points: 2
# Relax obj value: 0.126
# Max RMSD: 0.120
# Mean RMSD: 0.120
data_MOF--net-tzs--node1-CEKHIL_clean_sbu_0--edge1-ZUJKAS_clean_linker_0
_symmetry_space_group_name_H-M    P1
_symmetry_Int_Tables_number       1
_symmetry_cell_setting            triclinic
loop_
_symmetry_equiv_pos_as_xyz
'x, y, z'
_cell_length_a     62.402808
_cell_length_b     62.394927
_cell_length_c     50.846266
_cell_angle_alpha  90.010211
_cell_angle_beta   90.017458
_cell_angle_gamma 90.008672
loop_
_atom_site_label
_atom_site_type_symbol
_atom_site_fract_x
_atom_site_fract_y
_atom_site_fract_z
_atom_type_partial_charge
Co0 Co 0.14519 0.34763 0.19231 0.0
O1 O 0.15243 0.31757 0.19492 0.0
O2 O 0.17442 0.34427 0.2044 0.0
C3 C 0.11278 0.34504 0.21191 0.0
O4 O 0.14355 0.38041 0.19406 0.0
Co5 Co 0.10558 0.36422 0.16118 0.0
O6 O 0.11144 0.39164 0.17957 0.0
C7 C 0.14291 0.34616 0.13318 0.0
C8 C 0.17117 0.32371 0.20314 0.0
C9 C 0.12934 0.3952 0.19085 0.0
O10 O 0.15458 0.34781 0.15406 0.0
O11 O 0.12273 0.34983 0.133 0.0
O12 O 0.13003 0.34617 0.22623 0.0
O13 O 0.1159 0.34395 0.18695 0.0
Co14 Co 0.6558 0.14409 0.19631 0.0
O15 O 0.68583 0.15184 0.19773 0.0
O16 O 0.65904 0.17276 0.2102 0.0
C17 C 0.65935 0.11101 0.21388 0.0
O18 O 0.62312 0.14187 0.19938 0.0
Co19 Co 0.63878 0.10552 0.16358 0.0
O20 O 0.61153 0.11063 0.18261 0.0
C21 C 0.65646 0.14385 0.13736 0.0
C22 C 0.67957 0.17004 0.2075 0.0
C23 C 0.60822 0.1279 0.19535 0.0
O24 O 0.65444 0.1549 0.15868 0.0
O25 O 0.6532 0.12362 0.13631 0.0
O26 O 0.65851 0.1277 0.22919 0.0
O27 O 0.65969 0.11506 0.18907 0.0
Co28 Co 0.86027 0.65613 0.19345 0.0
O29 O 0.85255 0.68616 0.19501 0.0
O30 O 0.83122 0.65934 0.20609 0.0
C31 C 0.8929 0.65992 0.21222 0.0
O32 O 0.86236 0.62341 0.19666 0.0
Co33 Co 0.8996 0.63865 0.16272 0.0
O34 O 0.89506 0.61252 0.18407 0.0
C35 C 0.86057 0.652 0.13384 0.0
C36 C 0.83407 0.67989 0.20396 0.0
C37 C 0.87707 0.60894 0.19505 0.0
O38 O 0.85014 0.6547 0.15551 0.0
O39 O 0.88042 0.64687 0.13291 0.0
O40 O 0.87585 0.65881 0.22688 0.0
O41 O 0.88951 0.66012 0.18723 0.0
Co42 Co 0.34964 0.85627 0.19062 0.0
O43 O 0.31942 0.84921 0.19195 0.0
O44 O 0.34558 0.82826 0.20604 0.0
C45 C 0.3464 0.89009 0.20608 0.0
O46 O 0.38234 0.85781 0.19456 0.0
Co47 Co 0.36868 0.89305 0.15664 0.0
O48 O 0.39462 0.88897 0.17844 0.0
C49 C 0.35472 0.85266 0.13133 0.0
C50 C 0.32513 0.83127 0.20291 0.0
C51 C 0.39741 0.87174 0.19142 0.0
O52 O 0.35146 0.84369 0.15385 0.0
O53 O 0.3604 0.87223 0.12856 0.0
O54 O 0.34671 0.87398 0.22233 0.0
O55 O 0.34654 0.88515 0.18148 0.0
Co56 Co 0.14695 0.65191 0.31063 0.0
O57 O 0.15404 0.68215 0.31004 0.0
O58 O 0.17482 0.65623 0.29494 0.0
C59 C 0.11301 0.65549 0.29573 0.0
O60 O 0.14531 0.61926 0.30579 0.0
Co61 Co 0.11057 0.63235 0.34475 0.0
O62 O 0.11435 0.60678 0.32223 0.0
C63 C 0.15112 0.64612 0.36976 0.0
C64 C 0.17187 0.67661 0.29869 0.0
C65 C 0.13138 0.60417 0.30883 0.0
O66 O 0.15989 0.64948 0.34715 0.0
O67 O 0.13156 0.64046 0.37272 0.0
O68 O 0.12897 0.65547 0.27927 0.0
O69 O 0.11815 0.65487 0.32027 0.0
Co70 Co 0.3501 0.14341 0.30649 0.0
O71 O 0.32005 0.15077 0.30386 0.0
O72 O 0.34684 0.17243 0.29365 0.0
C73 C 0.34723 0.11064 0.28782 0.0
O74 O 0.38286 0.1416 0.30462 0.0
Co75 Co 0.36669 0.10434 0.33861 0.0
O76 O 0.39425 0.10998 0.32047 0.0
C77 C 0.34849 0.1421 0.36557 0.0
C78 C 0.32627 0.16933 0.29513 0.0
C79 C 0.39774 0.12759 0.30852 0.0
O80 O 0.35042 0.15347 0.34449 0.0
O81 O 0.35204 0.1219 0.36619 0.0
O82 O 0.34839 0.12762 0.27301 0.0
O83 O 0.34632 0.11424 0.31269 0.0
Co84 Co 0.85877 0.35126 0.30971 0.0
O85 O 0.85169 0.32108 0.30794 0.0
O86 O 0.83084 0.3474 0.29394 0.0
C87 C 0.89262 0.34836 0.29437 0.0
O88 O 0.86047 0.38399 0.30657 0.0
Co89 Co 0.89536 0.36918 0.34503 0.0
O90 O 0.89076 0.39615 0.32524 0.0
C91 C 0.85594 0.35176 0.36879 0.0
C92 C 0.83382 0.32694 0.29696 0.0
C93 C 0.87402 0.39913 0.31136 0.0
O94 O 0.84616 0.35246 0.34646 0.0
O95 O 0.8759 0.3558 0.37165 0.0
O96 O 0.87658 0.34879 0.27802 0.0
O97 O 0.88756 0.348 0.31892 0.0
Co98 Co 0.65324 0.85678 0.31125 0.0
O99 O 0.68345 0.84979 0.30968 0.0
O100 O 0.65725 0.82851 0.29644 0.0
C101 C 0.65653 0.89037 0.29509 0.0
O102 O 0.62052 0.85825 0.3076 0.0
Co103 Co 0.63443 0.89403 0.34459 0.0
O104 O 0.60845 0.88975 0.32291 0.0
C105 C 0.6484 0.85397 0.37065 0.0
C106 C 0.67771 0.83168 0.29918 0.0
C107 C 0.60553 0.87231 0.31042 0.0
O108 O 0.65166 0.84472 0.3483 0.0
O109 O 0.64269 0.87357 0.37306 0.0
O110 O 0.65599 0.87406 0.27915 0.0
O111 O 0.65645 0.88576 0.31978 0.0
Co112 Co 0.84902 0.64793 0.8105 0.0
O113 O 0.81906 0.65611 0.81028 0.0
O114 O 0.8456 0.67577 0.79443 0.0
C115 C 0.84418 0.61405 0.79585 0.0
O116 O 0.88152 0.64515 0.80548 0.0
Co117 Co 0.86748 0.61083 0.8445 0.0
O118 O 0.89312 0.61384 0.82194 0.0
C119 C 0.8558 0.65214 0.86944 0.0
C120 C 0.82517 0.67357 0.79853 0.0
C121 C 0.89622 0.63082 0.80857 0.0
O122 O 0.85227 0.66095 0.84689 0.0
O123 O 0.86075 0.63238 0.87236 0.0
O124 O 0.84466 0.62994 0.7793 0.0
O125 O 0.84507 0.61928 0.82034 0.0
Co126 Co 0.35765 0.84995 0.80903 0.0
O127 O 0.34949 0.81999 0.80905 0.0
O128 O 0.32944 0.84653 0.79395 0.0
C129 C 0.39109 0.84503 0.79311 0.0
O130 O 0.36033 0.88247 0.80389 0.0
Co131 Co 0.39546 0.86845 0.84162 0.0
O132 O 0.39262 0.89346 0.81793 0.0
C133 C 0.35486 0.85661 0.86814 0.0
C134 C 0.33178 0.82609 0.79785 0.0
C135 C 0.37521 0.89677 0.8055 0.0
O136 O 0.34555 0.85312 0.84588 0.0
O137 O 0.37465 0.86171 0.87036 0.0
O138 O 0.3748 0.8456 0.77718 0.0
O139 O 0.38652 0.84596 0.81781 0.0
Co140 Co 0.15573 0.35927 0.80551 0.0
O141 O 0.18572 0.35194 0.80256 0.0
O142 O 0.15887 0.33029 0.79254 0.0
C143 C 0.15835 0.39204 0.78689 0.0
O144 O 0.12298 0.36116 0.80401 0.0
Co145 Co 0.13966 0.39814 0.83835 0.0
O146 O 0.11202 0.39286 0.82012 0.0
C147 C 0.15816 0.36027 0.86449 0.0
C148 C 0.17944 0.33339 0.79387 0.0
C149 C 0.1083 0.37535 0.80802 0.0
O150 O 0.15572 0.34904 0.8434 0.0
O151 O 0.15485 0.38049 0.86549 0.0
O152 O 0.15711 0.37507 0.77208 0.0
O153 O 0.15958 0.38844 0.81177 0.0
Co154 Co 0.64622 0.15629 0.81076 0.0
O155 O 0.65334 0.18634 0.80731 0.0
O156 O 0.67488 0.15953 0.79684 0.0
C157 C 0.61302 0.15852 0.79326 0.0
O158 O 0.64452 0.12352 0.8095 0.0
Co159 Co 0.60822 0.13994 0.84495 0.0
O160 O 0.61351 0.11215 0.82711 0.0
C161 C 0.64655 0.15862 0.86982 0.0
C162 C 0.67173 0.18009 0.79811 0.0
C163 C 0.63071 0.10864 0.81431 0.0
O164 O 0.65729 0.15653 0.8483 0.0
O165 O 0.62643 0.15502 0.87158 0.0
O166 O 0.62966 0.1574 0.77788 0.0
O167 O 0.61717 0.15991 0.81799 0.0
Co168 Co 0.85014 0.36101 0.69503 0.0
O169 O 0.82008 0.35375 0.69754 0.0
O170 O 0.84677 0.33192 0.70755 0.0
C171 C 0.8474 0.39364 0.71409 0.0
O172 O 0.88292 0.36272 0.69703 0.0
Co173 Co 0.86689 0.40025 0.66335 0.0
O174 O 0.89425 0.3946 0.68192 0.0
C175 C 0.84846 0.36279 0.63598 0.0
C176 C 0.82622 0.33511 0.7061 0.0
C177 C 0.89774 0.37688 0.69362 0.0
O178 O 0.85041 0.35123 0.65691 0.0
O179 O 0.85212 0.38297 0.63558 0.0
O180 O 0.84848 0.37654 0.72869 0.0
O181 O 0.84648 0.39025 0.68916 0.0
Co182 Co 0.6447 0.85229 0.69376 0.0
O183 O 0.65288 0.82233 0.69361 0.0
O184 O 0.67302 0.84887 0.70856 0.0
C185 C 0.61135 0.84735 0.70997 0.0
O186 O 0.64201 0.88481 0.69896 0.0
Co187 Co 0.60668 0.87075 0.66149 0.0
O188 O 0.60981 0.89594 0.68483 0.0
C189 C 0.64712 0.85895 0.63462 0.0
C190 C 0.67066 0.82843 0.70464 0.0
C191 C 0.62724 0.89922 0.69722 0.0
O192 O 0.65658 0.8555 0.6568 0.0
O193 O 0.62731 0.86398 0.63256 0.0
O194 O 0.62774 0.84789 0.72576 0.0
O195 O 0.61578 0.84829 0.68524 0.0
Co196 Co 0.15316 0.64648 0.69039 0.0
O197 O 0.18323 0.65421 0.69114 0.0
O198 O 0.15678 0.67438 0.70625 0.0
C199 C 0.15727 0.61266 0.70545 0.0
O200 O 0.12056 0.64421 0.69483 0.0
Co201 Co 0.13458 0.60955 0.65627 0.0
O202 O 0.10874 0.61298 0.67838 0.0
C203 C 0.1475 0.65041 0.63125 0.0
C204 C 0.17723 0.67185 0.70259 0.0
C205 C 0.10572 0.63004 0.69162 0.0
O206 O 0.15066 0.65931 0.65383 0.0
O207 O 0.14227 0.63072 0.62833 0.0
O208 O 0.15684 0.62866 0.72184 0.0
O209 O 0.15678 0.61772 0.68089 0.0
Co210 Co 0.35987 0.15415 0.69213 0.0
O211 O 0.35297 0.18425 0.6954 0.0
O212 O 0.33118 0.15762 0.70582 0.0
C213 C 0.39301 0.15624 0.70984 0.0
O214 O 0.36129 0.12139 0.69352 0.0
Co215 Co 0.39784 0.13742 0.65823 0.0
O216 O 0.39213 0.10964 0.67585 0.0
C217 C 0.35998 0.1569 0.63325 0.0
C218 C 0.33448 0.17815 0.70447 0.0
C219 C 0.37489 0.10633 0.68866 0.0
O220 O 0.349 0.1544 0.65451 0.0
O221 O 0.38012 0.15329 0.63178 0.0
O222 O 0.3763 0.15528 0.72513 0.0
O223 O 0.38896 0.15753 0.68508 0.0
H224 H 0.3344 0.21076 0.28029 0.0
H225 H 0.30863 0.23757 0.26472 0.0
H226 H 0.25722 0.19213 0.27445 0.0
H227 H 0.28282 0.16526 0.29016 0.0
H228 H 0.25968 0.21487 0.22317 0.0
H229 H 0.2616 0.26922 0.30989 0.0
H230 H 0.28705 0.26105 0.29661 0.0
H231 H 0.26991 0.24152 0.31172 0.0
C232 C 0.31759 0.2065 0.27928 0.0
C233 C 0.31066 0.18587 0.28654 0.0
C234 C 0.30288 0.22187 0.27046 0.0
C235 C 0.28099 0.21689 0.26862 0.0
C236 C 0.27403 0.19632 0.27581 0.0
H237 H 0.16665 0.28044 0.20934 0.0
H238 H 0.19345 0.25476 0.22466 0.0
C239 C 0.28869 0.18101 0.28484 0.0
C240 C 0.26542 0.23291 0.25852 0.0
H241 H 0.24109 0.28043 0.27342 0.0
C242 C 0.25556 0.2292 0.23414 0.0
C243 C 0.26023 0.25165 0.27278 0.0
C244 C 0.27009 0.25617 0.29931 0.0
C245 C 0.24081 0.24385 0.22346 0.0
C246 C 0.23526 0.26246 0.23795 0.0
C247 C 0.24527 0.2662 0.2623 0.0
C248 C 0.21895 0.2781 0.2284 0.0
C249 C 0.23174 0.23946 0.19648 0.0
C250 C 0.22406 0.29997 0.22612 0.0
C251 C 0.20862 0.31477 0.21773 0.0
C252 C 0.18774 0.30802 0.21141 0.0
C253 C 0.18265 0.28615 0.21375 0.0
C254 C 0.19802 0.2714 0.22236 0.0
H255 H 0.2424 0.22876 0.1849 0.0
H256 H 0.21603 0.23131 0.19853 0.0
H257 H 0.22932 0.25454 0.18527 0.0
H258 H 0.24004 0.30559 0.2308 0.0
H259 H 0.21305 0.33151 0.21623 0.0
H260 H 0.82641 0.28683 0.31639 0.0
H261 H 0.79995 0.26067 0.30118 0.0
H262 H 0.77969 0.30462 0.2405 0.0
H263 H 0.80507 0.33133 0.25696 0.0
H264 H 0.74663 0.28717 0.2584 0.0
H265 H 0.80373 0.22101 0.24172 0.0
H266 H 0.80422 0.22918 0.27546 0.0
H267 H 0.81255 0.24763 0.2501 0.0
C268 C 0.81628 0.29086 0.29981 0.0
C269 C 0.81785 0.31106 0.28778 0.0
C270 C 0.80129 0.27579 0.2909 0.0
C271 C 0.78812 0.28028 0.26911 0.0
C272 C 0.78964 0.3006 0.25725 0.0
H273 H 0.71936 0.17776 0.18735 0.0
H274 H 0.74498 0.20534 0.20102 0.0
C275 C 0.80419 0.31589 0.26664 0.0
C276 C 0.77237 0.26415 0.25908 0.0
H277 H 0.76663 0.21152 0.24179 0.0
C278 C 0.75112 0.27068 0.25453 0.0
C279 C 0.77811 0.24264 0.25342 0.0
C280 C 0.80095 0.23478 0.25514 0.0
C281 C 0.73553 0.25643 0.24485 0.0
C282 C 0.74094 0.23459 0.24088 0.0
C283 C 0.76225 0.22811 0.24512 0.0
C284 C 0.72494 0.21823 0.23205 0.0
C285 C 0.71367 0.26527 0.23824 0.0
C286 C 0.70508 0.21602 0.24487 0.0
C287 C 0.69016 0.20072 0.23646 0.0
C288 C 0.69509 0.18669 0.21573 0.0
C289 C 0.71514 0.1884 0.20337 0.0
C290 C 0.72981 0.20415 0.21125 0.0
H291 H 0.71452 0.2826 0.23329 0.0
H292 H 0.70632 0.25669 0.22137 0.0
H293 H 0.70303 0.26363 0.2556 0.0
H294 H 0.70114 0.22596 0.26163 0.0
H295 H 0.67496 0.19949 0.24665 0.0
H296 H 0.8383 0.72318 0.21064 0.0
H297 H 0.81142 0.74844 0.22698 0.0
H298 H 0.76512 0.69725 0.23164 0.0
H299 H 0.79215 0.67178 0.21621 0.0
H300 H 0.77371 0.76132 0.20843 0.0
H301 H 0.76027 0.72132 0.30431 0.0
H302 H 0.78197 0.71393 0.28273 0.0
H303 H 0.75532 0.70394 0.2769 0.0
C304 C 0.82239 0.71729 0.21516 0.0
C305 C 0.81742 0.69543 0.21235 0.0
C306 C 0.80702 0.73177 0.22452 0.0
C307 C 0.78632 0.72472 0.23115 0.0
C308 C 0.78113 0.703 0.22748 0.0
H309 H 0.67036 0.79094 0.28132 0.0
H310 H 0.69672 0.76513 0.26469 0.0
C311 C 0.79657 0.68847 0.21843 0.0
C312 C 0.7702 0.74017 0.24163 0.0
H313 H 0.73613 0.7494 0.29315 0.0
C314 C 0.7656 0.75873 0.22702 0.0
C315 C 0.7596 0.7369 0.26598 0.0
C316 C 0.76468 0.71806 0.28352 0.0
C317 C 0.75055 0.77388 0.23586 0.0
C318 C 0.73982 0.77044 0.25998 0.0
C319 C 0.74432 0.75192 0.27459 0.0
C320 C 0.72397 0.78601 0.27044 0.0
C321 C 0.74597 0.79336 0.21922 0.0
C322 C 0.73062 0.80618 0.27956 0.0
C323 C 0.71564 0.82089 0.28929 0.0
C324 C 0.69369 0.81575 0.28995 0.0
C325 C 0.68713 0.79543 0.28103 0.0
C326 C 0.70215 0.78066 0.27153 0.0
H327 H 0.7527 0.79182 0.19908 0.0
H328 H 0.72843 0.79612 0.21773 0.0
H329 H 0.75321 0.80768 0.22865 0.0
H330 H 0.74743 0.81054 0.27915 0.0
H331 H 0.72123 0.83639 0.29599 0.0
H332 H 0.33257 0.79433 0.23036 0.0
H333 H 0.3062 0.7684 0.24645 0.0
H334 H 0.25524 0.80611 0.21278 0.0
H335 H 0.28152 0.83215 0.19656 0.0
H336 H 0.27066 0.77631 0.28108 0.0
H337 H 0.24487 0.74464 0.1839 0.0
H338 H 0.26942 0.75956 0.18827 0.0
H339 H 0.24416 0.77331 0.18731 0.0
C340 C 0.31576 0.79707 0.22623 0.0
C341 C 0.30916 0.81528 0.21206 0.0
C342 C 0.30071 0.78225 0.23552 0.0
C343 C 0.27877 0.7852 0.23062 0.0
C344 C 0.27211 0.80335 0.21648 0.0
H345 H 0.17122 0.72008 0.3065 0.0
H346 H 0.19711 0.74664 0.29059 0.0
C347 C 0.28715 0.81826 0.20729 0.0
C348 C 0.26289 0.76943 0.2407 0.0
H349 H 0.22573 0.73245 0.22119 0.0
C350 C 0.26081 0.76673 0.268 0.0
C351 C 0.25021 0.75681 0.22361 0.0
C352 C 0.25231 0.75851 0.19412 0.0
C353 C 0.24624 0.75188 0.27866 0.0
C354 C 0.23332 0.73949 0.26157 0.0
C355 C 0.23554 0.74206 0.23427 0.0
C356 C 0.21772 0.72344 0.27162 0.0
C357 C 0.24505 0.74926 0.30812 0.0
C358 C 0.22056 0.7016 0.26601 0.0
C359 C 0.20583 0.68639 0.27511 0.0
C360 C 0.18781 0.69273 0.2898 0.0
C361 C 0.18496 0.71465 0.29533 0.0
C362 C 0.19978 0.72985 0.28633 0.0
H363 H 0.25908 0.75653 0.31818 0.0
H364 H 0.23036 0.75726 0.31552 0.0
H365 H 0.24412 0.73204 0.31354 0.0
H366 H 0.23424 0.6963 0.25462 0.0
H367 H 0.20847 0.66966 0.2704 0.0
H368 H 0.67833 0.78826 0.68528 0.0
H369 H 0.70494 0.76229 0.70067 0.0
H370 H 0.72541 0.80689 0.76054 0.0
H371 H 0.69987 0.83333 0.74399 0.0
H372 H 0.75845 0.78914 0.74247 0.0
H373 H 0.70103 0.72351 0.76124 0.0
H374 H 0.70056 0.73129 0.72735 0.0
H375 H 0.69234 0.75007 0.75237 0.0
C376 C 0.68857 0.79249 0.70168 0.0
C377 C 0.68699 0.81278 0.71349 0.0
C378 C 0.70364 0.77754 0.7107 0.0
C379 C 0.71688 0.78226 0.73235 0.0
C380 C 0.7154 0.80269 0.74391 0.0
H381 H 0.78547 0.68219 0.81859 0.0
H382 H 0.75984 0.70928 0.8035 0.0
C383 C 0.70077 0.81784 0.73444 0.0
C384 C 0.7326 0.76623 0.74268 0.0
H385 H 0.73806 0.71405 0.76204 0.0
C386 C 0.75389 0.77277 0.74694 0.0
C387 C 0.72675 0.7449 0.74911 0.0
C388 C 0.70388 0.73711 0.74756 0.0
C389 C 0.7694 0.75869 0.75715 0.0
C390 C 0.76386 0.73701 0.76205 0.0
C391 C 0.74252 0.73052 0.75803 0.0
C392 C 0.77976 0.72086 0.7716 0.0
C393 C 0.79134 0.76756 0.76334 0.0
C394 C 0.79952 0.71807 0.75873 0.0
C395 C 0.81442 0.70305 0.76787 0.0
C396 C 0.80959 0.68989 0.78949 0.0
C397 C 0.78963 0.69216 0.80192 0.0
C398 C 0.77495 0.70762 0.79323 0.0
H399 H 0.79065 0.78505 0.76743 0.0
H400 H 0.7986 0.75947 0.78062 0.0
H401 H 0.80197 0.76525 0.74609 0.0
H402 H 0.8034 0.72736 0.7414 0.0
H403 H 0.82954 0.70138 0.75761 0.0
H404 H 0.17257 0.70029 0.7428 0.0
H405 H 0.1988 0.72612 0.75916 0.0
H406 H 0.2432 0.70647 0.69871 0.0
H407 H 0.21744 0.67955 0.68348 0.0
H408 H 0.26426 0.71158 0.74075 0.0
H409 H 0.21285 0.78319 0.73198 0.0
H410 H 0.20079 0.76391 0.75343 0.0
H411 H 0.2048 0.75751 0.71917 0.0
C412 C 0.18789 0.70158 0.73293 0.0
C413 C 0.19291 0.68803 0.71174 0.0
C414 C 0.20285 0.71651 0.74215 0.0
C415 C 0.22287 0.71882 0.72978 0.0
C416 C 0.22788 0.70518 0.70859 0.0
H417 H 0.3035 0.83073 0.75751 0.0
H418 H 0.27807 0.8043 0.74063 0.0
C419 C 0.21313 0.68982 0.69982 0.0
C420 C 0.23882 0.73489 0.7394 0.0
H421 H 0.24454 0.78724 0.75793 0.0
C422 C 0.25996 0.72818 0.74424 0.0
C423 C 0.23348 0.75672 0.74359 0.0
C424 C 0.21181 0.76579 0.73648 0.0
C425 C 0.27575 0.74248 0.75333 0.0
C426 C 0.27006 0.76399 0.75907 0.0
C427 C 0.24897 0.77074 0.75398 0.0
C428 C 0.28577 0.77996 0.76954 0.0
C429 C 0.29846 0.7344 0.75577 0.0
C430 C 0.29852 0.7754 0.79169 0.0
C431 C 0.31354 0.79033 0.80088 0.0
C432 C 0.31554 0.81045 0.78877 0.0
C433 C 0.30226 0.81537 0.7673 0.0
C434 C 0.28769 0.80023 0.75765 0.0
H435 H 0.30141 0.72058 0.74247 0.0
H436 H 0.31028 0.74714 0.75108 0.0
H437 H 0.30127 0.72882 0.7762 0.0
H438 H 0.29686 0.7603 0.80196 0.0
H439 H 0.32341 0.78622 0.81768 0.0
H440 H 0.22289 0.33735 0.78922 0.0
H441 H 0.24847 0.3105 0.77366 0.0
H442 H 0.19703 0.26493 0.76441 0.0
H443 H 0.17127 0.29192 0.77927 0.0
H444 H 0.25945 0.27195 0.79298 0.0
H445 H 0.22505 0.26128 0.69327 0.0
H446 H 0.21703 0.28284 0.71475 0.0
H447 H 0.20609 0.25639 0.71909 0.0
C448 C 0.217 0.32163 0.78382 0.0
C449 C 0.19501 0.31683 0.78531 0.0
C450 C 0.23166 0.30628 0.77493 0.0
C451 C 0.22467 0.28578 0.76735 0.0
C452 C 0.20277 0.28079 0.76943 0.0
H453 H 0.29293 0.17034 0.71889 0.0
H454 H 0.26625 0.19631 0.73433 0.0
C455 C 0.18807 0.2962 0.77813 0.0
C456 C 0.2404 0.26961 0.75776 0.0
H457 H 0.25235 0.23676 0.7059 0.0
C458 C 0.25792 0.26435 0.77389 0.0
C459 C 0.23847 0.25967 0.73279 0.0
C460 C 0.22077 0.26546 0.71385 0.0
C461 C 0.27336 0.2493 0.76589 0.0
C462 C 0.27131 0.23929 0.74108 0.0
C463 C 0.2538 0.24442 0.72497 0.0
C464 C 0.2874 0.22366 0.7314 0.0
C465 C 0.29169 0.24398 0.78412 0.0
C466 C 0.30802 0.2305 0.72431 0.0
C467 C 0.32324 0.21576 0.71529 0.0
C468 C 0.31814 0.19385 0.71331 0.0
C469 C 0.29739 0.18708 0.72025 0.0
C470 C 0.28212 0.20188 0.72905 0.0
H471 H 0.28897 0.25019 0.80432 0.0
H472 H 0.29412 0.22637 0.78512 0.0
H473 H 0.30664 0.25124 0.77637 0.0
H474 H 0.31234 0.24728 0.72575 0.0
H475 H 0.33906 0.2215 0.7101 0.0
H476 H 0.66731 0.2234 0.79195 0.0
H477 H 0.69393 0.24891 0.77558 0.0
H478 H 0.74002 0.19776 0.76818 0.0
H479 H 0.71325 0.17206 0.78376 0.0
H480 H 0.73202 0.26088 0.79455 0.0
H481 H 0.74418 0.22415 0.69641 0.0
H482 H 0.72261 0.21623 0.71792 0.0
H483 H 0.74922 0.20588 0.72293 0.0
C484 C 0.6831 0.21756 0.78675 0.0
C485 C 0.68811 0.19566 0.78898 0.0
C486 C 0.69832 0.23218 0.77739 0.0
C487 C 0.7189 0.22525 0.77011 0.0
C488 C 0.72409 0.20345 0.77292 0.0
H489 H 0.83414 0.29356 0.72062 0.0
H490 H 0.80823 0.26684 0.73616 0.0
C491 C 0.70881 0.18878 0.78204 0.0
C492 C 0.73499 0.24095 0.76014 0.0
H493 H 0.76838 0.25194 0.70849 0.0
C494 C 0.73987 0.25894 0.77567 0.0
C495 C 0.74527 0.2385 0.73546 0.0
C496 C 0.73992 0.22026 0.71709 0.0
C497 C 0.75485 0.27434 0.76737 0.0
C498 C 0.76521 0.27178 0.74284 0.0
C499 C 0.76047 0.25379 0.72734 0.0
C500 C 0.78079 0.28782 0.73283 0.0
C501 C 0.75974 0.29316 0.78502 0.0
C502 C 0.77388 0.30835 0.72541 0.0
C503 C 0.78859 0.32359 0.71634 0.0
C504 C 0.81054 0.31862 0.71462 0.0
C505 C 0.81737 0.29793 0.72177 0.0
C506 C 0.8026 0.28263 0.73064 0.0
H507 H 0.75357 0.29071 0.80529 0.0
H508 H 0.77729 0.29604 0.78599 0.0
H509 H 0.75212 0.30777 0.77682 0.0
H510 H 0.75708 0.31259 0.72668 0.0
H511 H 0.78279 0.33935 0.71098 0.0
H512 H 0.19279 0.37069 0.89325 0.0
H513 H 0.19985 0.36095 0.93898 0.0
H514 H 0.14474 0.31915 0.93819 0.0
H515 H 0.13825 0.32829 0.8919 0.0
H516 H 0.17265 0.37195 0.97555 0.0
H517 H 0.18478 0.28443 0.98299 0.0
H518 H 0.18662 0.29859 0.95209 0.0
H519 H 0.16089 0.2909 0.96507 0.0
C520 C 0.18274 0.35875 0.90258 0.0
C521 C 0.1651 0.35008 0.88915 0.0
C522 C 0.18671 0.35325 0.92872 0.0
C523 C 0.17291 0.33924 0.94212 0.0
C524 C 0.15595 0.32958 0.92819 0.0
H525 H 0.12406 0.32406 0.09375 0.0
H526 H 0.13645 0.32015 0.04862 0.0
C527 C 0.15219 0.33482 0.90176 0.0
C528 C 0.17421 0.33762 0.97128 0.0
H529 H 0.1734 0.30246 0.02278 0.0
C530 C 0.17334 0.35675 0.98585 0.0
C531 C 0.17501 0.31782 0.98479 0.0
C532 C 0.1771 0.29679 0.9704 0.0
C533 C 0.1721 0.35661 0.01339 0.0
C534 C 0.17199 0.33679 0.02686 0.0
C535 C 0.17366 0.31765 0.01242 0.0
C536 C 0.16693 0.33571 0.05532 0.0
C537 C 0.16956 0.37765 0.02774 0.0
C538 C 0.18036 0.345 0.07443 0.0
C539 C 0.17328 0.34725 0.1005 0.0
C540 C 0.15263 0.3404 0.1076 0.0
C541 C 0.13994 0.32979 0.08878 0.0
C542 C 0.14705 0.3274 0.06298 0.0
H543 H 0.16685 0.39128 0.01408 0.0
H544 H 0.15589 0.37684 0.0417 0.0
H545 H 0.18429 0.381 0.03926 0.0
H546 H 0.19588 0.35133 0.06891 0.0
H547 H 0.18339 0.35545 0.1146 0.0
H548 H 0.67512 0.1362 0.89957 0.0
H549 H 0.68326 0.14316 0.94613 0.0
H550 H 0.64889 0.20302 0.94171 0.0
H551 H 0.64027 0.19577 0.89556 0.0
H552 H 0.70125 0.17712 0.97801 0.0
H553 H 0.61353 0.16664 0.99313 0.0
H554 H 0.62652 0.16008 0.9625 0.0
H555 H 0.621 0.18755 0.97068 0.0
C556 C 0.67007 0.1512 0.90835 0.0
C557 C 0.6572 0.16553 0.89415 0.0
C558 C 0.67461 0.15513 0.93493 0.0
C559 C 0.6663 0.17342 0.94748 0.0
C560 C 0.65515 0.18867 0.93252 0.0
H561 H 0.64417 0.18322 0.11798 0.0
H562 H 0.64944 0.19616 0.07263 0.0
C563 C 0.65041 0.18462 0.90615 0.0
C564 C 0.66683 0.1751 0.97658 0.0
H565 H 0.63446 0.17237 0.03064 0.0
C566 C 0.68665 0.17634 0.98954 0.0
C567 C 0.64774 0.17412 0.99162 0.0
C568 C 0.62598 0.17185 0.97888 0.0
C569 C 0.6879 0.17611 0.01716 0.0
C570 C 0.66885 0.17429 0.03213 0.0
C571 C 0.64902 0.174 0.01916 0.0
C572 C 0.66909 0.16925 0.06067 0.0
C573 C 0.70962 0.17743 0.03006 0.0
C574 C 0.67863 0.15011 0.06904 0.0
C575 C 0.67548 0.1427 0.09458 0.0
C576 C 0.66271 0.15426 0.11241 0.0
C577 C 0.6542 0.17411 0.10466 0.0
C578 C 0.65717 0.18145 0.07881 0.0
H579 H 0.72116 0.18634 0.01752 0.0
H580 H 0.70868 0.18536 0.04958 0.0
H581 H 0.716 0.16098 0.03285 0.0
H582 H 0.68745 0.14015 0.05535 0.0
H583 H 0.6823 0.12737 0.10007 0.0
H584 H 0.88322 0.65357 0.91033 0.0
H585 H 0.87486 0.66445 0.95525 0.0
H586 H 0.8133 0.68796 0.92965 0.0
H587 H 0.82179 0.67712 0.88421 0.0
H588 H 0.85996 0.70328 0.98176 0.0
H589 H 0.80073 0.63628 0.98025 0.0
H590 H 0.82083 0.63901 0.95497 0.0
H591 H 0.79857 0.65717 0.95597 0.0
C592 C 0.86823 0.66178 0.9141 0.0
C593 C 0.85314 0.66453 0.8939 0.0
C594 C 0.86344 0.66797 0.93977 0.0
C595 C 0.84335 0.67673 0.94584 0.0
C596 C 0.82885 0.68109 0.92536 0.0
H597 H 0.83213 0.68376 0.12013 0.0
H598 H 0.82148 0.6936 0.07496 0.0
C599 C 0.83378 0.6751 0.89943 0.0
C600 C 0.8371 0.67829 0.97392 0.0
H601 H 0.81183 0.64886 0.02135 0.0
C602 C 0.84885 0.69195 0.99046 0.0
C603 C 0.82276 0.66328 0.98518 0.0
C604 C 0.80999 0.64799 0.96833 0.0
C605 C 0.84781 0.68992 0.01796 0.0
C606 C 0.83468 0.67384 0.02912 0.0
C607 C 0.82172 0.66129 0.01267 0.0
C608 C 0.83778 0.66685 0.05671 0.0
C609 C 0.86217 0.70366 0.03487 0.0
C610 C 0.84974 0.64822 0.06132 0.0
C611 C 0.85587 0.64272 0.08677 0.0
C612 C 0.84995 0.65558 0.10825 0.0
C613 C 0.83671 0.67347 0.10391 0.0
C614 C 0.83078 0.67918 0.07818 0.0
H615 H 0.87154 0.71537 0.02311 0.0
H616 H 0.85237 0.71257 0.04942 0.0
H617 H 0.8735 0.69333 0.04597 0.0
H618 H 0.8553 0.63851 0.04502 0.0
H619 H 0.86606 0.62884 0.08956 0.0
H620 H 0.31811 0.83208 0.11634 0.0
H621 H 0.30841 0.82252 0.07088 0.0
H622 H 0.37237 0.83861 0.04549 0.0
H623 H 0.38187 0.84838 0.09047 0.0
H624 H 0.31045 0.85451 0.03166 0.0
H625 H 0.35916 0.78458 0.00236 0.0
H626 H 0.35328 0.79075 0.03635 0.0
H627 H 0.37482 0.80422 0.01955 0.0
C628 C 0.33029 0.83262 0.10118 0.0
C629 C 0.35078 0.84073 0.10681 0.0
C630 C 0.32471 0.82733 0.07523 0.0
C631 C 0.33972 0.82965 0.05481 0.0
C632 C 0.36064 0.83624 0.06093 0.0
H633 H 0.35542 0.88254 0.91062 0.0
H634 H 0.3443 0.87341 0.95522 0.0
C635 C 0.36608 0.84185 0.08664 0.0
C636 C 0.33311 0.82875 0.02679 0.0
H637 H 0.35005 0.80971 0.96742 0.0
C638 C 0.31859 0.84425 0.01764 0.0
C639 C 0.34354 0.81528 0.00847 0.0
C640 C 0.35841 0.79762 0.01721 0.0
C641 C 0.31581 0.84795 0.9906 0.0
C642 C 0.32793 0.83593 0.97233 0.0
C643 C 0.34086 0.81906 0.98142 0.0
C644 C 0.33035 0.84286 0.94456 0.0
C645 C 0.30082 0.86551 0.98185 0.0
C646 C 0.32577 0.82893 0.92356 0.0
C647 C 0.33187 0.83433 0.89782 0.0
C648 C 0.34308 0.85347 0.89298 0.0
C649 C 0.34662 0.8678 0.91382 0.0
C650 C 0.34023 0.8626 0.93931 0.0
H651 H 0.28781 0.86807 0.99643 0.0
H652 H 0.30992 0.88072 0.98006 0.0
H653 H 0.29356 0.86177 0.96244 0.0
H654 H 0.31838 0.81352 0.92725 0.0
H655 H 0.32932 0.82285 0.88214 0.0
H656 H 0.18274 0.6739 0.61766 0.0
H657 H 0.19278 0.68437 0.57262 0.0
H658 H 0.13106 0.66309 0.54468 0.0
H659 H 0.12124 0.65248 0.58921 0.0
H660 H 0.19465 0.65275 0.53323 0.0
H661 H 0.14053 0.71799 0.50218 0.0
H662 H 0.14595 0.71219 0.5364 0.0
H663 H 0.12614 0.697 0.51859 0.0
C664 C 0.17105 0.67237 0.60201 0.0
C665 C 0.15117 0.66256 0.60681 0.0
C666 C 0.17684 0.67819 0.57631 0.0
C667 C 0.1626 0.6747 0.5553 0.0
C668 C 0.14216 0.66637 0.56057 0.0
H669 H 0.15393 0.62005 0.41193 0.0
H670 H 0.16441 0.6303 0.4564 0.0
C671 C 0.13655 0.66027 0.58603 0.0
C672 C 0.16979 0.67629 0.52754 0.0
H673 H 0.15229 0.69351 0.4676 0.0
C674 C 0.18587 0.66219 0.51891 0.0
C675 C 0.15855 0.68872 0.50884 0.0
C676 C 0.14198 0.70499 0.51702 0.0
C677 C 0.18948 0.65867 0.49199 0.0
C678 C 0.17661 0.66943 0.4733 0.0
C679 C 0.16206 0.6851 0.48191 0.0
C680 C 0.17516 0.66209 0.44558 0.0
C681 C 0.20622 0.64259 0.48379 0.0
C682 C 0.17824 0.67634 0.4245 0.0
C683 C 0.17253 0.67031 0.39884 0.0
C684 C 0.16322 0.65016 0.39415 0.0
C685 C 0.16134 0.63556 0.41501 0.0
C686 C 0.16735 0.64142 0.44043 0.0
H687 H 0.21927 0.64154 0.49861 0.0
H688 H 0.1987 0.62652 0.48223 0.0
H689 H 0.21327 0.64676 0.46441 0.0
H690 H 0.18401 0.69245 0.4281 0.0
H691 H 0.17372 0.68198 0.38313 0.0
H692 H 0.37006 0.19221 0.60566 0.0
H693 H 0.36063 0.19981 0.55995 0.0
H694 H 0.31918 0.14443 0.55911 0.0
H695 H 0.32807 0.13734 0.60534 0.0
H696 H 0.3723 0.17241 0.52335 0.0
H697 H 0.28496 0.18514 0.51408 0.0
H698 H 0.29877 0.187 0.54524 0.0
H699 H 0.29115 0.16126 0.53219 0.0
C700 C 0.35821 0.18224 0.59599 0.0
C701 C 0.34961 0.16432 0.60892 0.0
C702 C 0.3529 0.18652 0.56987 0.0
C703 C 0.33913 0.17277 0.55602 0.0
C704 C 0.32944 0.15559 0.56948 0.0
H705 H 0.32531 0.124 0.40449 0.0
H706 H 0.32086 0.13677 0.44939 0.0
C707 C 0.33453 0.15149 0.59588 0.0
C708 C 0.33794 0.17426 0.52686 0.0
H709 H 0.30349 0.17383 0.47462 0.0
C710 C 0.35725 0.17325 0.51271 0.0
C711 C 0.31834 0.17526 0.51294 0.0
C712 C 0.29715 0.17744 0.52692 0.0
C713 C 0.35749 0.172 0.48517 0.0
C714 C 0.33786 0.17209 0.47128 0.0
C715 C 0.31854 0.17396 0.48531 0.0
C716 C 0.33712 0.1669 0.44282 0.0
C717 C 0.3787 0.1692 0.4713 0.0
C718 C 0.34697 0.18004 0.42384 0.0
C719 C 0.34954 0.17273 0.3979 0.0
C720 C 0.34243 0.15215 0.39083 0.0
C721 C 0.33124 0.13981 0.40947 0.0
C722 C 0.32855 0.14714 0.43512 0.0
H723 H 0.3921 0.16632 0.48526 0.0
H724 H 0.37794 0.15554 0.45732 0.0
H725 H 0.38241 0.18388 0.45987 0.0
H726 H 0.35349 0.19548 0.42937 0.0
H727 H 0.35817 0.18257 0.38392 0.0
H728 H 0.83156 0.37674 0.40073 0.0
H729 H 0.82313 0.36895 0.44696 0.0
H730 H 0.84814 0.30497 0.43763 0.0
H731 H 0.85672 0.31284 0.39156 0.0
H732 H 0.80058 0.33437 0.47685 0.0
H733 H 0.88922 0.33612 0.49015 0.0
H734 H 0.87642 0.34603 0.46074 0.0
H735 H 0.87886 0.3177 0.46611 0.0
C736 C 0.83433 0.36075 0.40831 0.0
C737 C 0.84447 0.34526 0.39268 0.0
C738 C 0.82966 0.35633 0.4347 0.0
C739 C 0.83528 0.33647 0.44575 0.0
C740 C 0.84381 0.32043 0.42951 0.0
H741 H 0.8587 0.32302 0.61587 0.0
H742 H 0.8525 0.31073 0.57041 0.0
C743 C 0.84851 0.32485 0.40319 0.0
C744 C 0.83501 0.33372 0.47472 0.0
H745 H 0.86829 0.33299 0.52805 0.0
C746 C 0.81535 0.33375 0.48807 0.0
C747 C 0.85433 0.33278 0.4893 0.0
C748 C 0.87596 0.33329 0.47598 0.0
C749 C 0.81453 0.33357 0.51571 0.0
C750 C 0.83387 0.33381 0.53029 0.0
C751 C 0.85348 0.33265 0.51688 0.0
C752 C 0.83438 0.3388 0.55885 0.0
C753 C 0.79294 0.33358 0.52903 0.0
C754 C 0.82605 0.35843 0.56749 0.0
C755 C 0.8297 0.36545 0.59309 0.0
C756 C 0.84181 0.35304 0.61075 0.0
C757 C 0.84919 0.33281 0.6027 0.0
C758 C 0.8457 0.32583 0.57677 0.0
H759 H 0.78073 0.32539 0.5167 0.0
H760 H 0.79363 0.32559 0.54853 0.0
H761 H 0.7876 0.35038 0.53191 0.0
H762 H 0.81774 0.36897 0.55398 0.0
H763 H 0.82373 0.38109 0.59878 0.0
H764 H 0.67311 0.82554 0.62051 0.0
H765 H 0.68409 0.81633 0.57536 0.0
H766 H 0.65707 0.87572 0.54739 0.0
H767 H 0.64592 0.88472 0.59201 0.0
H768 H 0.65241 0.81202 0.53508 0.0
H769 H 0.71382 0.87139 0.50636 0.0
H770 H 0.70811 0.86494 0.54032 0.0
H771 H 0.69145 0.88361 0.52271 0.0
C772 C 0.6703 0.83693 0.60481 0.0
C773 C 0.65879 0.85589 0.60966 0.0
C774 C 0.67643 0.83161 0.57905 0.0
C775 C 0.67157 0.84543 0.55804 0.0
C776 C 0.66136 0.86499 0.5633 0.0
H777 H 0.62097 0.84977 0.41123 0.0
H778 H 0.63019 0.84048 0.45647 0.0
C779 C 0.65494 0.87012 0.5888 0.0
C780 C 0.67416 0.83856 0.53028 0.0
H781 H 0.69166 0.85731 0.47103 0.0
C782 C 0.66152 0.82149 0.52112 0.0
C783 C 0.68617 0.85076 0.51207 0.0
C784 C 0.70083 0.86857 0.5209 0.0
C785 C 0.65904 0.81761 0.49406 0.0
C786 C 0.66938 0.83119 0.47579 0.0
C787 C 0.6836 0.84695 0.48502 0.0
C788 C 0.66301 0.83185 0.44767 0.0
C789 C 0.64448 0.79972 0.48523 0.0
C790 C 0.67823 0.82955 0.42748 0.0
C791 C 0.67282 0.83455 0.4014 0.0
C792 C 0.65227 0.84234 0.39539 0.0
C793 C 0.6368 0.84346 0.41536 0.0
C794 C 0.64207 0.83814 0.4412 0.0
H795 H 0.64373 0.78675 0.50017 0.0
H796 H 0.62802 0.8061 0.48256 0.0
H797 H 0.6499 0.79281 0.46623 0.0
H798 H 0.69454 0.82497 0.43211 0.0
H799 H 0.68513 0.83402 0.3864 0.0
H800 H 0.16426 0.59158 0.27594 0.0
H801 H 0.16914 0.55647 0.25502 0.0
H802 H 0.11164 0.53349 0.29258 0.0
H803 H 0.10674 0.56815 0.31369 0.0
H804 H 0.14556 0.50459 0.29578 0.0
H805 H 0.1334 0.53324 0.19326 0.0
H806 H 0.15404 0.54656 0.21175 0.0
H807 H 0.12654 0.54932 0.22154 0.0
C808 C 0.15268 0.57904 0.27981 0.0
C809 C 0.13505 0.58283 0.29647 0.0
C810 C 0.15544 0.559 0.26771 0.0
C811 C 0.14061 0.5424 0.27198 0.0
C812 C 0.12327 0.54604 0.28894 0.0
H813 H 0.10302 0.43024 0.18828 0.0
H814 H 0.10864 0.46559 0.20742 0.0
C815 C 0.12048 0.56597 0.30097 0.0
C816 C 0.14278 0.52119 0.25885 0.0
H817 H 0.13971 0.49636 0.19903 0.0
C818 C 0.14452 0.50278 0.2746 0.0
C819 C 0.1412 0.51885 0.23123 0.0
C820 C 0.13853 0.53798 0.21337 0.0
C821 C 0.14421 0.4821 0.26359 0.0
C822 C 0.14245 0.47974 0.23597 0.0
C823 C 0.14121 0.49818 0.22017 0.0
C824 C 0.13996 0.45836 0.22332 0.0
C825 C 0.14476 0.46296 0.28172 0.0
C826 C 0.15588 0.44252 0.22545 0.0
C827 C 0.15269 0.4221 0.21455 0.0
C828 C 0.13355 0.41716 0.20115 0.0
C829 C 0.11794 0.43333 0.19847 0.0
C830 C 0.12113 0.45364 0.20939 0.0
H831 H 0.14153 0.4675 0.30248 0.0
H832 H 0.13279 0.45077 0.27559 0.0
H833 H 0.16087 0.45548 0.28087 0.0
H834 H 0.17072 0.44589 0.23568 0.0
H835 H 0.16511 0.41014 0.21691 0.0
H836 H 0.5726 0.10265 0.18985 0.0
H837 H 0.5372 0.10791 0.2089 0.0
H838 H 0.55837 0.1669 0.2446 0.0
H839 H 0.59418 0.16166 0.22581 0.0
H840 H 0.5364 0.14095 0.27928 0.0
H841 H 0.49017 0.14932 0.18701 0.0
H842 H 0.50627 0.1255 0.18737 0.0
H843 H 0.51903 0.15138 0.18802 0.0
C844 C 0.5698 0.11688 0.20155 0.0
C845 C 0.58636 0.13178 0.20614 0.0
C846 C 0.54942 0.11993 0.21232 0.0
C847 C 0.54496 0.138 0.2278 0.0
C848 C 0.56139 0.15292 0.23252 0.0
H849 H 0.41194 0.16151 0.27849 0.0
H850 H 0.44789 0.16692 0.26018 0.0
C851 C 0.58185 0.1499 0.22172 0.0
C852 C 0.52343 0.14058 0.24003 0.0
H853 H 0.46989 0.14084 0.2258 0.0
C854 C 0.52187 0.14121 0.26757 0.0
C855 C 0.50443 0.14129 0.22481 0.0
C856 C 0.50502 0.14207 0.19516 0.0
C857 C 0.50185 0.14145 0.28027 0.0
C858 C 0.48286 0.14068 0.26505 0.0
C859 C 0.48442 0.14116 0.23751 0.0
C860 C 0.46132 0.13814 0.27727 0.0
C861 C 0.50126 0.14238 0.30991 0.0
C862 C 0.45683 0.12012 0.29282 0.0
C863 C 0.43636 0.11698 0.3033 0.0
C864 C 0.41975 0.13173 0.29836 0.0
C865 C 0.42431 0.14986 0.28285 0.0
C866 C 0.44486 0.15298 0.27231 0.0
H867 H 0.5161 0.14969 0.318 0.0
H868 H 0.48725 0.15171 0.31698 0.0
H869 H 0.50002 0.12585 0.31783 0.0
H870 H 0.46908 0.10818 0.29643 0.0
H871 H 0.43353 0.10276 0.315 0.0
H872 H 0.84081 0.5936 0.21976 0.0
H873 H 0.83536 0.55796 0.23898 0.0
H874 H 0.89913 0.53965 0.21539 0.0
H875 H 0.90463 0.57485 0.19588 0.0
H876 H 0.86911 0.50839 0.20443 0.0
H877 H 0.86172 0.53654 0.30781 0.0
H878 H 0.8433 0.54834 0.28482 0.0
H879 H 0.8715 0.55358 0.28177 0.0
C880 C 0.85367 0.58198 0.21861 0.0
C881 C 0.87319 0.58722 0.20629 0.0
C882 C 0.85056 0.56163 0.22975 0.0
C883 C 0.86694 0.54619 0.22894 0.0
C884 C 0.88626 0.55128 0.21631 0.0
H885 H 0.89758 0.43549 0.31981 0.0
H886 H 0.89313 0.47061 0.29961 0.0
C887 C 0.88937 0.57151 0.20517 0.0
C888 C 0.86431 0.5247 0.24126 0.0
H889 H 0.85882 0.49937 0.3005 0.0
C890 C 0.86665 0.5064 0.2254 0.0
C891 C 0.8613 0.52212 0.26867 0.0
C892 C 0.85947 0.54114 0.28688 0.0
C893 C 0.86653 0.48566 0.23623 0.0
C894 C 0.86365 0.48309 0.26366 0.0
C895 C 0.86086 0.50136 0.27946 0.0
C896 C 0.86534 0.46176 0.27662 0.0
C897 C 0.87043 0.46673 0.21838 0.0
C898 C 0.85096 0.44509 0.27078 0.0
C899 C 0.85347 0.42482 0.28234 0.0
C900 C 0.87039 0.42085 0.30002 0.0
C901 C 0.88441 0.43781 0.30624 0.0
C902 C 0.88186 0.458 0.29474 0.0
H903 H 0.87661 0.47172 0.19883 0.0
H904 H 0.88205 0.45544 0.22739 0.0
H905 H 0.85513 0.45801 0.21531 0.0
H906 H 0.83787 0.44771 0.25717 0.0
H907 H 0.84232 0.41221 0.27713 0.0
H908 H 0.56988 0.89766 0.31397 0.0
H909 H 0.5348 0.8919 0.29432 0.0
H910 H 0.55658 0.83222 0.26103 0.0
H911 H 0.59212 0.83795 0.28048 0.0
H912 H 0.53493 0.85751 0.22511 0.0
H913 H 0.48766 0.85075 0.31673 0.0
H914 H 0.50378 0.87456 0.31609 0.0
H915 H 0.51653 0.84868 0.31629 0.0
C916 C 0.5673 0.88319 0.30266 0.0
C917 C 0.58393 0.86822 0.29897 0.0
C918 C 0.54709 0.87985 0.29156 0.0
C919 C 0.54288 0.86143 0.27662 0.0
C920 C 0.5594 0.84646 0.27271 0.0
H921 H 0.41039 0.83817 0.22291 0.0
H922 H 0.44585 0.83261 0.24265 0.0
C923 C 0.57971 0.84977 0.28387 0.0
C924 C 0.52151 0.85855 0.2641 0.0
H925 H 0.46782 0.85888 0.2774 0.0
C926 C 0.52027 0.85749 0.23656 0.0
C927 C 0.50234 0.85817 0.27901 0.0
C928 C 0.50261 0.85787 0.30868 0.0
C929 C 0.50039 0.85723 0.22353 0.0
C930 C 0.48124 0.8584 0.2384 0.0
C931 C 0.48248 0.85826 0.26596 0.0
C932 C 0.45991 0.86115 0.22574 0.0
C933 C 0.50011 0.85593 0.1939 0.0
C934 C 0.45594 0.87915 0.20995 0.0
C935 C 0.43578 0.88239 0.1987 0.0
C936 C 0.41896 0.86775 0.20306 0.0
C937 C 0.42295 0.84972 0.21899 0.0
C938 C 0.4432 0.84652 0.23032 0.0
H939 H 0.51497 0.84838 0.18621 0.0
H940 H 0.48608 0.84665 0.18677 0.0
H941 H 0.49912 0.87237 0.18565 0.0
H942 H 0.46839 0.89095 0.20664 0.0
H943 H 0.43337 0.89653 0.18672 0.0
H944 H 0.84524 0.5975 0.74577 0.0
H945 H 0.84613 0.55946 0.73322 0.0
H946 H 0.84537 0.54145 0.81509 0.0
H947 H 0.84419 0.57911 0.82771 0.0
H948 H 0.87697 0.52815 0.74708 0.0
H949 H 0.79624 0.50607 0.78409 0.0
H950 H 0.80438 0.53354 0.77914 0.0
H951 H 0.81294 0.51918 0.80794 0.0
C952 C 0.84513 0.5854 0.76104 0.0
C953 C 0.84454 0.5913 0.7877 0.0
C954 C 0.84567 0.56371 0.75387 0.0
C955 C 0.84547 0.54765 0.77324 0.0
C956 C 0.84507 0.55355 0.79982 0.0
H957 H 0.84882 0.40704 0.76574 0.0
H958 H 0.84968 0.44431 0.78169 0.0
C959 C 0.84453 0.57513 0.80698 0.0
C960 C 0.84625 0.52468 0.76583 0.0
H961 H 0.8188 0.47745 0.77076 0.0
C962 C 0.86423 0.51707 0.75217 0.0
C963 C 0.82967 0.51023 0.77272 0.0
C964 C 0.80962 0.51765 0.78658 0.0
C965 C 0.86614 0.49536 0.7453 0.0
C966 C 0.84948 0.48097 0.75196 0.0
C967 C 0.83161 0.4885 0.76589 0.0
C968 C 0.84955 0.45842 0.7428 0.0
C969 C 0.88607 0.48797 0.73114 0.0
C970 C 0.84891 0.45411 0.71579 0.0
C971 C 0.84835 0.43305 0.70673 0.0
C972 C 0.84835 0.41576 0.72449 0.0
C973 C 0.84891 0.42003 0.75162 0.0
C974 C 0.84938 0.44127 0.76072 0.0
H975 H 0.89965 0.49921 0.73422 0.0
H976 H 0.89097 0.47175 0.73781 0.0
H977 H 0.88275 0.4872 0.70972 0.0
H978 H 0.84855 0.4671 0.70165 0.0
H979 H 0.84777 0.43038 0.6857 0.0
H980 H 0.57536 0.84763 0.6799 0.0
H981 H 0.53815 0.84761 0.69447 0.0
H982 H 0.55895 0.84704 0.77535 0.0
H983 H 0.59652 0.84689 0.76085 0.0
H984 H 0.52629 0.81675 0.7631 0.0
H985 H 0.50531 0.89804 0.72708 0.0
H986 H 0.51738 0.88111 0.70268 0.0
H987 H 0.53268 0.8892 0.73096 0.0
C988 C 0.57209 0.8476 0.70082 0.0
C989 C 0.58889 0.84737 0.71925 0.0
C990 C 0.55078 0.8477 0.70909 0.0
C991 C 0.54579 0.8477 0.73596 0.0
C992 C 0.5625 0.84721 0.75449 0.0
H993 H 0.42692 0.84453 0.82349 0.0
H994 H 0.46421 0.84478 0.80924 0.0
C995 C 0.58391 0.84714 0.74621 0.0
C996 C 0.52309 0.84757 0.7445 0.0
H997 H 0.47635 0.87591 0.74072 0.0
C998 C 0.51539 0.82974 0.75839 0.0
C999 C 0.5089 0.86448 0.73814 0.0
C1000 C 0.51648 0.88439 0.7241 0.0
C1001 C 0.49375 0.82818 0.76569 0.0
C1002 C 0.47955 0.84508 0.75931 0.0
C1003 C 0.48725 0.86292 0.74545 0.0
C1004 C 0.4568 0.84488 0.76768 0.0
C1005 C 0.48617 0.80825 0.7797 0.0
C1006 C 0.4402 0.84541 0.74902 0.0
C1007 C 0.41874 0.84538 0.75712 0.0
C1008 C 0.4136 0.845 0.78403 0.0
C1009 C 0.43031 0.84471 0.80261 0.0
C1010 C 0.45167 0.84473 0.79451 0.0
H1011 H 0.49736 0.79461 0.77673 0.0
H1012 H 0.48523 0.81152 0.80112 0.0
H1013 H 0.46999 0.80342 0.7728 0.0
H1014 H 0.44386 0.8457 0.7282 0.0
H1015 H 0.40621 0.84569 0.74238 0.0
H1016 H 0.15482 0.40561 0.73554 0.0
H1017 H 0.15353 0.44288 0.71981 0.0
H1018 H 0.15845 0.46551 0.79972 0.0
H1019 H 0.15956 0.4287 0.81549 0.0
H1020 H 0.12634 0.48601 0.77042 0.0
H1021 H 0.20448 0.48508 0.71781 0.0
H1022 H 0.18581 0.46445 0.70861 0.0
H1023 H 0.19698 0.46462 0.74116 0.0
C1024 C 0.15563 0.41857 0.74968 0.0
C1025 C 0.15735 0.41422 0.77672 0.0
C1026 C 0.15499 0.43981 0.74069 0.0
C1027 C 0.15613 0.45693 0.75862 0.0
C1028 C 0.15759 0.45255 0.78557 0.0
H1029 H 0.15748 0.59651 0.75572 0.0
H1030 H 0.15671 0.55863 0.76875 0.0
C1031 C 0.15825 0.43146 0.79452 0.0
C1032 C 0.15571 0.47954 0.74967 0.0
H1033 H 0.18432 0.517 0.71562 0.0
C1034 C 0.13898 0.49281 0.75838 0.0
C1035 C 0.17227 0.48833 0.73407 0.0
C1036 C 0.19103 0.47499 0.72498 0.0
C1037 C 0.13827 0.51464 0.75175 0.0
C1038 C 0.15496 0.5235 0.7364 0.0
C1039 C 0.17158 0.51017 0.72747 0.0
C1040 C 0.15532 0.54647 0.72889 0.0
C1041 C 0.11948 0.52792 0.76086 0.0
C1042 C 0.15528 0.55215 0.70223 0.0
C1043 C 0.15591 0.57366 0.69479 0.0
C1044 C 0.15664 0.58998 0.71386 0.0
C1045 C 0.1568 0.5843 0.7406 0.0
C1046 C 0.15623 0.56269 0.74805 0.0
H1047 H 0.10559 0.51775 0.76643 0.0
H1048 H 0.12428 0.53734 0.77842 0.0
H1049 H 0.11432 0.53931 0.74533 0.0
H1050 H 0.15467 0.53991 0.68713 0.0
H1051 H 0.15582 0.57747 0.67401 0.0
H1052 H 0.40767 0.15575 0.76094 0.0
H1053 H 0.44529 0.15547 0.77552 0.0
H1054 H 0.46608 0.15342 0.69469 0.0
H1055 H 0.42898 0.15409 0.68008 0.0
H1056 H 0.47832 0.12542 0.76546 0.0
H1057 H 0.49844 0.20506 0.7238 0.0
H1058 H 0.47117 0.19604 0.72795 0.0
H1059 H 0.48675 0.18706 0.7003 0.0
C1060 C 0.4203 0.15525 0.74635 0.0
C1061 C 0.41536 0.15513 0.71939 0.0
C1062 C 0.44174 0.15508 0.75467 0.0
C1063 C 0.45845 0.15487 0.73613 0.0
C1064 C 0.45347 0.15412 0.70929 0.0
H1065 H 0.59834 0.15494 0.74239 0.0
H1066 H 0.56075 0.15284 0.72795 0.0
C1067 C 0.43219 0.15437 0.70101 0.0
C1068 C 0.48119 0.15527 0.74455 0.0
H1069 H 0.52774 0.18361 0.73802 0.0
C1070 C 0.48911 0.1382 0.75964 0.0
C1071 C 0.49525 0.17192 0.73677 0.0
C1072 C 0.48746 0.19117 0.72152 0.0
C1073 C 0.51083 0.13714 0.76676 0.0
C1074 C 0.52488 0.15373 0.75886 0.0
C1075 C 0.51696 0.17081 0.7438 0.0
C1076 C 0.5476 0.15432 0.7673 0.0
C1077 C 0.51864 0.11809 0.78232 0.0
C1078 C 0.55255 0.15613 0.79407 0.0
C1079 C 0.57382 0.15738 0.80228 0.0
C1080 C 0.59065 0.15695 0.78387 0.0
C1081 C 0.58571 0.15523 0.75699 0.0
C1082 C 0.5643 0.15403 0.74876 0.0
H1083 H 0.50754 0.10423 0.78058 0.0
H1084 H 0.53483 0.11303 0.77572 0.0
H1085 H 0.51967 0.12254 0.80342 0.0
H1086 H 0.53991 0.15686 0.80865 0.0
H1087 H 0.57703 0.15884 0.82313 0.0
H1088 H 0.60875 0.07191 0.82627 0.0
H1089 H 0.61301 0.0364 0.80689 0.0
H1090 H 0.66498 0.05971 0.75897 0.0
H1091 H 0.66083 0.09549 0.77825 0.0
H1092 H 0.63313 0.03687 0.73081 0.0
H1093 H 0.66044 0.99122 0.81809 0.0
H1094 H 0.63689 0.00708 0.82392 0.0
H1095 H 0.66181 0.0201 0.81623 0.0
C1096 C 0.62127 0.06952 0.81183 0.0
C1097 C 0.63448 0.08665 0.8039 0.0
C1098 C 0.62376 0.04911 0.80087 0.0
C1099 C 0.63949 0.0453 0.78172 0.0
C1100 C 0.65284 0.06226 0.77387 0.0
H1101 H 0.66369 0.91533 0.7207 0.0
H1102 H 0.66868 0.95097 0.74019 0.0
C1103 C 0.65047 0.08269 0.78498 0.0
C1104 C 0.64098 0.02394 0.76886 0.0
H1105 H 0.64758 0.97058 0.7817 0.0
C1106 C 0.63654 0.0224 0.74186 0.0
C1107 C 0.64569 0.00509 0.7832 0.0
C1108 C 0.65169 0.00589 0.81192 0.0
C1109 C 0.63578 0.00243 0.72907 0.0
C1110 C 0.63928 0.98345 0.74375 0.0
C1111 C 0.64467 0.98508 0.77049 0.0
C1112 C 0.63643 0.9618 0.73195 0.0
C1113 C 0.63115 1.00188 0.69995 0.0
C1114 C 0.61656 0.95587 0.72129 0.0
C1115 C 0.61368 0.93562 0.7101 0.0
C1116 C 0.63055 0.92064 0.7095 0.0
C1117 C 0.65037 0.92644 0.7207 0.0
C1118 C 0.65325 0.94682 0.73186 0.0
H1119 H 0.63543 0.01729 0.69034 0.0
H1120 H 0.64005 0.98873 0.69011 0.0
H1121 H 0.61375 0.99919 0.69689 0.0
H1122 H 0.60316 0.9669 0.72176 0.0
H1123 H 0.5981 0.93171 0.70201 0.0
H1124 H 0.91044 0.66482 0.77863 0.0
H1125 H 0.94598 0.66952 0.75884 0.0
H1126 H 0.96608 0.60893 0.79126 0.0
H1127 H 0.93097 0.6042 0.81129 0.0
H1128 H 0.9962 0.64132 0.79838 0.0
H1129 H 0.96879 0.63713 0.69439 0.0
H1130 H 0.956 0.65709 0.71447 0.0
H1131 H 0.95196 0.62918 0.72155 0.0
C1132 C 0.92242 0.65249 0.78156 0.0
C1133 C 0.91772 0.63409 0.79653 0.0
C1134 C 0.94271 0.65517 0.77012 0.0
C1135 C 0.95863 0.63946 0.77333 0.0
C1136 C 0.95406 0.62126 0.78849 0.0
H1137 H 0.07055 0.60405 0.68809 0.0
H1138 H 0.03544 0.60905 0.70805 0.0
C1139 C 0.93388 0.61857 0.7999 0.0
C1140 C 0.98011 0.64166 0.76094 0.0
H1141 H 0.00575 0.64196 0.70156 0.0
C1142 C 0.99831 0.64168 0.77721 0.0
C1143 C 0.98282 0.64194 0.73331 0.0
C1144 C 0.96392 0.64117 0.71482 0.0
C1145 C 0.01913 0.64147 0.76663 0.0
C1146 C 0.02184 0.64156 0.739 0.0
C1147 C 0.00364 0.64204 0.72273 0.0
C1148 C 0.04329 0.63925 0.72657 0.0
C1149 C 0.03802 0.64019 0.7851 0.0
C1150 C 0.05942 0.6547 0.73011 0.0
C1151 C 0.0797 0.65188 0.7187 0.0
C1152 C 0.08418 0.63357 0.70345 0.0
C1153 C 0.0678 0.61833 0.69971 0.0
C1154 C 0.04763 0.62118 0.71108 0.0
H1155 H 0.03308 0.63595 0.80544 0.0
H1156 H 0.04979 0.62812 0.77811 0.0
H1157 H 0.04617 0.65599 0.78577 0.0
H1158 H 0.05633 0.66896 0.74165 0.0
H1159 H 0.09185 0.66399 0.72193 0.0
H1160 H 0.34413 0.09345 0.72406 0.0
H1161 H 0.33966 0.0578 0.74362 0.0
H1162 H 0.39206 0.034 0.6968 0.0
H1163 H 0.3967 0.06941 0.67717 0.0
H1164 H 0.35339 0.00644 0.69956 0.0
H1165 H 0.38502 0.03248 0.79689 0.0
H1166 H 0.36407 0.04843 0.78241 0.0
H1167 H 0.38994 0.04745 0.7671 0.0
C1168 C 0.35458 0.0806 0.71771 0.0
C1169 C 0.37086 0.08441 0.69909 0.0
C1170 C 0.35205 0.06026 0.729 0.0
C1171 C 0.36565 0.04332 0.72181 0.0
C1172 C 0.3814 0.04686 0.70264 0.0
H1173 H 0.40526 0.92795 0.79772 0.0
H1174 H 0.40062 0.96298 0.77739 0.0
C1175 C 0.38406 0.06717 0.69149 0.0
C1176 C 0.36417 0.02208 0.73487 0.0
H1177 H 0.37532 0.9963 0.79251 0.0
C1178 C 0.35797 0.00418 0.71996 0.0
C1179 C 0.37038 0.01922 0.76138 0.0
C1180 C 0.37788 0.03782 0.77798 0.0
C1181 C 0.35814 0.98341 0.73075 0.0
C1182 C 0.3645 0.98051 0.75726 0.0
C1183 C 0.37034 0.99852 0.77225 0.0
C1184 C 0.36683 0.95888 0.76932 0.0
C1185 C 0.35232 0.96469 0.71338 0.0
C1186 C 0.34934 0.94481 0.77167 0.0
C1187 C 0.35197 0.92454 0.7832 0.0
C1188 C 0.3721 0.91808 0.79291 0.0
C1189 C 0.38949 0.93234 0.79062 0.0
C1190 C 0.38688 0.95244 0.77898 0.0
H1191 H 0.35247 0.96909 0.69221 0.0
H1192 H 0.36354 0.95111 0.71646 0.0
H1193 H 0.33593 0.95914 0.7184 0.0
H1194 H 0.33361 0.94956 0.76485 0.0
H1195 H 0.3382 0.91405 0.78478 0.0
H1196 H 0.09348 0.34125 0.7787 0.0
H1197 H 0.05773 0.33666 0.75952 0.0
H1198 H 0.0377 0.39656 0.79387 0.0
H1199 H 0.07307 0.40117 0.81337 0.0
H1200 H 0.00726 0.36453 0.7994 0.0
H1201 H 0.03551 0.3702 0.69594 0.0
H1202 H 0.048 0.34969 0.71543 0.0
H1203 H 0.05223 0.3774 0.72352 0.0
C1204 C 0.08144 0.3534 0.78233 0.0
C1205 C 0.0863 0.37165 0.79753 0.0
C1206 C 0.06103 0.3508 0.77119 0.0
C1207 C 0.0451 0.36643 0.77491 0.0
C1208 C 0.04973 0.38432 0.79064 0.0
H1209 H 0.93324 0.40235 0.68882 0.0
H1210 H 0.9685 0.39722 0.7084 0.0
C1211 C 0.07005 0.38693 0.80176 0.0
C1212 C 0.02368 0.36456 0.76219 0.0
H1213 H 0.99853 0.36486 0.70245 0.0
C1214 C 0.00533 0.3644 0.7782 0.0
C1215 C 0.02118 0.36463 0.73451 0.0
C1216 C 0.04022 0.36566 0.71626 0.0
C1217 C 0.9846 0.36469 0.76734 0.0
C1218 C 0.98211 0.36482 0.73966 0.0
C1219 C 1.00045 0.36458 0.72365 0.0
C1220 C 0.96071 0.36702 0.72695 0.0
C1221 C 0.96557 0.36579 0.78559 0.0
C1222 C 0.9446 0.35154 0.73043 0.0
C1223 C 0.92424 0.35444 0.71924 0.0
C1224 C 0.91964 0.37285 0.70424 0.0
C1225 C 0.93607 0.388 0.70027 0.0
C1226 C 0.95633 0.38508 0.71144 0.0
H1227 H 0.97032 0.3701 0.80598 0.0
H1228 H 0.9537 0.37772 0.77848 0.0
H1229 H 0.9576 0.3499 0.7862 0.0
H1230 H 0.94771 0.33727 0.74193 0.0
H1231 H 0.91206 0.3424 0.72265 0.0
H1232 H 0.34858 0.09672 0.23635 0.0
H1233 H 0.34852 0.05928 0.22095 0.0
H1234 H 0.34776 0.03732 0.30135 0.0
H1235 H 0.34751 0.07419 0.31674 0.0
H1236 H 0.37801 0.02546 0.23233 0.0
H1237 H 0.29647 0.00628 0.26868 0.0
H1238 H 0.30602 0.03345 0.26524 0.0
H1239 H 0.31358 0.01768 0.29336 0.0
C1240 C 0.34838 0.08387 0.25066 0.0
C1241 C 0.3479 0.08842 0.27772 0.0
C1242 C 0.34835 0.06254 0.24187 0.0
C1243 C 0.3477 0.04556 0.26004 0.0
C1244 C 0.34775 0.05015 0.28699 0.0
H1245 H 0.34711 0.90615 0.25644 0.0
H1246 H 0.34833 0.94407 0.26953 0.0
C1247 C 0.34774 0.0713 0.29574 0.0
C1248 C 0.34726 0.02293 0.25121 0.0
H1249 H 0.31828 0.97664 0.25617 0.0
C1250 C 0.36488 0.01481 0.23728 0.0
C1251 C 0.33015 0.00906 0.2579 0.0
C1252 C 0.31039 0.01707 0.27191 0.0
C1253 C 0.36609 0.99303 0.23042 0.0
C1254 C 0.34907 0.97913 0.23736 0.0
C1255 C 0.33138 0.9873 0.2511 0.0
C1256 C 0.34892 0.95622 0.22966 0.0
C1257 C 0.38579 0.98496 0.21636 0.0
C1258 C 0.34858 0.95058 0.203 0.0
C1259 C 0.34785 0.92908 0.19554 0.0
C1260 C 0.34733 0.91274 0.21459 0.0
C1261 C 0.34756 0.91838 0.24134 0.0
C1262 C 0.34825 0.93999 0.24882 0.0
H1263 H 0.39956 0.99609 0.21873 0.0
H1264 H 0.39053 0.96889 0.22372 0.0
H1265 H 0.38227 0.98356 0.19503 0.0
H1266 H 0.34861 0.96284 0.18792 0.0
H1267 H 0.34755 0.92531 0.17475 0.0
H1268 H 0.92765 0.35077 0.32594 0.0
H1269 H 0.96523 0.35208 0.31303 0.0
H1270 H 0.94684 0.34908 0.23133 0.0
H1271 H 0.90891 0.3482 0.24416 0.0
H1272 H 0.98812 0.32213 0.28569 0.0
H1273 H 0.98805 0.39976 0.23244 0.0
H1274 H 0.96625 0.39152 0.25347 0.0
H1275 H 0.96848 0.38097 0.22068 0.0
C1276 C 0.93153 0.35055 0.30518 0.0
C1277 C 0.91529 0.34946 0.28603 0.0
C1278 C 0.95305 0.35127 0.29786 0.0
C1279 C 0.95885 0.35095 0.27124 0.0
C1280 C 0.9427 0.3498 0.25199 0.0
H1281 H 0.07574 0.34336 0.18421 0.0
H1282 H 0.0392 0.34536 0.20059 0.0
C1283 C 0.92106 0.34916 0.25933 0.0
C1284 C 0.98186 0.35105 0.26389 0.0
H1285 H 0.01958 0.37856 0.22891 0.0
C1286 C 0.99505 0.33455 0.27343 0.0
C1287 C 0.99087 0.36734 0.24802 0.0
C1288 C 0.97775 0.38602 0.23824 0.0
C1289 C 0.01689 0.33353 0.26688 0.0
C1290 C 0.02581 0.34962 0.25067 0.0
C1291 C 0.01269 0.36629 0.24142 0.0
C1292 C 0.04831 0.34862 0.24141 0.0
C1293 C 0.03007 0.31487 0.27661 0.0
C1294 C 0.06567 0.34993 0.25899 0.0
C1295 C 0.0868 0.34876 0.24964 0.0
C1296 C 0.09077 0.34636 0.2226 0.0
C1297 C 0.07329 0.34522 0.20517 0.0
C1298 C 0.05234 0.34639 0.21447 0.0
H1299 H 0.01988 0.30176 0.28451 0.0
H1300 H 0.0402 0.30832 0.26056 0.0
H1301 H 0.04084 0.32041 0.29259 0.0
H1302 H 0.06289 0.35197 0.27986 0.0
H1303 H 0.09995 0.34978 0.26349 0.0
H1304 H 0.65548 0.90592 0.24446 0.0
H1305 H 0.65573 0.94375 0.23081 0.0
H1306 H 0.65683 0.9633 0.31215 0.0
H1307 H 0.6568 0.92591 0.32585 0.0
H1308 H 0.62607 0.97698 0.24404 0.0
H1309 H 0.70797 0.99544 0.2801 0.0
H1310 H 0.69848 0.96836 0.27552 0.0
H1311 H 0.69088 0.98329 0.30428 0.0
C1312 C 0.65582 0.91832 0.25937 0.0
C1313 C 0.65625 0.91293 0.2862 0.0
C1314 C 0.65595 0.93987 0.25158 0.0
C1315 C 0.65668 0.95629 0.2705 0.0
C1316 C 0.65673 0.95089 0.29723 0.0
H1317 H 0.6581 0.09645 0.26499 0.0
H1318 H 0.65645 0.05889 0.27967 0.0
C1319 C 0.65659 0.92947 0.30501 0.0
C1320 C 0.65702 0.97913 0.26254 0.0
H1321 H 0.68652 0.02511 0.26728 0.0
C1322 C 0.63932 0.98749 0.24897 0.0
C1323 C 0.67428 0.99282 0.26919 0.0
C1324 C 0.69408 0.98453 0.28287 0.0
C1325 C 0.6383 0.00927 0.24217 0.0
C1326 C 0.65557 0.02295 0.24881 0.0
C1327 C 0.67323 0.01461 0.26244 0.0
C1328 C 0.65617 0.04565 0.24032 0.0
C1329 C 0.61862 0.01756 0.22824 0.0
C1330 C 0.65688 0.05053 0.21346 0.0
C1331 C 0.6579 0.07177 0.20511 0.0
C1332 C 0.65829 0.08865 0.22345 0.0
C1333 C 0.65774 0.08379 0.25043 0.0
C1334 C 0.6568 0.06239 0.25881 0.0
H1335 H 0.60469 0.00669 0.23091 0.0
H1336 H 0.61422 0.03377 0.23547 0.0
H1337 H 0.62198 0.01874 0.20686 0.0
H1338 H 0.65687 0.03785 0.1989 0.0
H1339 H 0.65846 0.07491 0.18418 0.0
H1340 H 0.09656 0.65942 0.24586 0.0
H1341 H 0.05857 0.65984 0.23315 0.0
H1342 H 0.04042 0.65048 0.31418 0.0
H1343 H 0.07804 0.65054 0.32703 0.0
H1344 H 0.0272 0.62868 0.23981 0.0
H1345 H 0.00516 0.7026 0.29416 0.0
H1346 H 0.03265 0.69497 0.28835 0.0
H1347 H 0.01753 0.68247 0.31427 0.0
C1348 C 0.08444 0.65751 0.26092 0.0
C1349 C 0.09029 0.65511 0.28744 0.0
C1350 C 0.06278 0.65775 0.25367 0.0
C1351 C 0.04666 0.65563 0.27281 0.0
C1352 C 0.05254 0.65271 0.29917 0.0
H1353 H 0.90617 0.65379 0.26336 0.0
H1354 H 0.94337 0.65169 0.27929 0.0
C1355 C 0.0741 0.6526 0.30644 0.0
C1356 C 0.0237 0.65603 0.26525 0.0
H1357 H 0.97654 0.68256 0.27569 0.0
C1358 C 0.01615 0.6405 0.24757 0.0
C1359 C 0.00924 0.67136 0.27562 0.0
C1360 C 0.01655 0.68892 0.29397 0.0
C1361 C 0.99451 0.63982 0.24005 0.0
C1362 C 0.98012 0.65531 0.25014 0.0
C1363 C 0.98759 0.67066 0.2681 0.0
C1364 C 0.95762 0.65665 0.24095 0.0
C1365 C 0.98721 0.62237 0.22154 0.0
C1366 C 0.95337 0.66059 0.21433 0.0
C1367 C 0.93233 0.66174 0.20527 0.0
C1368 C 0.915 0.6592 0.22267 0.0
C1369 C 0.9192 0.65575 0.2495 0.0
C1370 C 0.9404 0.65453 0.25859 0.0
H1371 H 0.99825 0.6084 0.22193 0.0
H1372 H 0.97081 0.61679 0.22653 0.0
H1373 H 0.98697 0.62873 0.20116 0.0
H1374 H 0.96639 0.66283 0.20051 0.0
H1375 H 0.92968 0.66465 0.18452 0.0
loop_
_geom_bond_atom_site_label_1
_geom_bond_atom_site_label_2
_geom_bond_distance
_geom_bond_site_symmetry_2
_ccdc_geom_bond_type
Co0 O1 2.216 . S
Co0 O2 2.091 . S
Co0 O4 2.004 . S
Co0 O10 2.021 . S
Co0 O12 2.137 . S
Co0 O13 2.244 . S
O1 Co0 2.216 . S
O1 C8 1.247 . S
O2 Co0 2.091 . S
O2 C8 1.261 . S
C3 O12 1.247 . S
C3 O13 1.272 . S
O4 Co0 2.004 . S
O4 C9 1.259 . S
Co5 O6 2.061 . S
Co5 O11 2.052 . S
Co5 O13 2.135 . S
O6 Co5 2.061 . S
O6 C9 1.235 . S
C7 O10 1.238 . S
C7 O11 1.241 . S
C8 O1 1.247 . S
C8 O2 1.261 . S
C9 O4 1.259 . S
C9 O6 1.235 . S
O10 Co0 2.021 . S
O10 C7 1.238 . S
O11 Co5 2.052 . S
O11 C7 1.241 . S
O12 Co0 2.137 . S
O12 C3 1.247 . S
O13 Co0 2.244 . S
O13 C3 1.272 . S
O13 Co5 2.135 . S
Co14 O15 2.216 . S
Co14 O16 2.091 . S
Co14 O18 2.004 . S
Co14 O24 2.021 . S
Co14 O26 2.137 . S
Co14 O27 2.244 . S
O15 Co14 2.216 . S
O15 C22 1.247 . S
O16 Co14 2.091 . S
O16 C22 1.261 . S
C17 O26 1.247 . S
C17 O27 1.272 . S
O18 Co14 2.004 . S
O18 C23 1.259 . S
Co19 O20 2.061 . S
Co19 O25 2.052 . S
Co19 O27 2.135 . S
O20 Co19 2.061 . S
O20 C23 1.235 . S
C21 O24 1.238 . S
C21 O25 1.241 . S
C22 O15 1.247 . S
C22 O16 1.261 . S
C23 O18 1.259 . S
C23 O20 1.235 . S
O24 Co14 2.021 . S
O24 C21 1.238 . S
O25 Co19 2.052 . S
O25 C21 1.241 . S
O26 Co14 2.137 . S
O26 C17 1.247 . S
O27 Co14 2.244 . S
O27 C17 1.272 . S
O27 Co19 2.135 . S
Co28 O29 2.216 . S
Co28 O30 2.091 . S
Co28 O32 2.004 . S
Co28 O38 2.021 . S
Co28 O40 2.137 . S
Co28 O41 2.244 . S
O29 Co28 2.216 . S
O29 C36 1.247 . S
O30 Co28 2.091 . S
O30 C36 1.261 . S
C31 O40 1.247 . S
C31 O41 1.272 . S
O32 Co28 2.004 . S
O32 C37 1.259 . S
Co33 O34 2.061 . S
Co33 O39 2.052 . S
Co33 O41 2.135 . S
O34 Co33 2.061 . S
O34 C37 1.235 . S
C35 O38 1.238 . S
C35 O39 1.241 . S
C36 O29 1.247 . S
C36 O30 1.261 . S
C37 O32 1.259 . S
C37 O34 1.235 . S
O38 Co28 2.021 . S
O38 C35 1.238 . S
O39 Co33 2.052 . S
O39 C35 1.241 . S
O40 Co28 2.137 . S
O40 C31 1.247 . S
O41 Co28 2.244 . S
O41 C31 1.272 . S
O41 Co33 2.135 . S
Co42 O43 2.216 . S
Co42 O44 2.091 . S
Co42 O46 2.004 . S
Co42 O52 2.021 . S
Co42 O54 2.137 . S
Co42 O55 2.244 . S
O43 Co42 2.216 . S
O43 C50 1.247 . S
O44 Co42 2.091 . S
O44 C50 1.261 . S
C45 O54 1.247 . S
C45 O55 1.272 . S
O46 Co42 2.004 . S
O46 C51 1.259 . S
Co47 O48 2.061 . S
Co47 O53 2.052 . S
Co47 O55 2.135 . S
O48 Co47 2.061 . S
O48 C51 1.235 . S
C49 O52 1.238 . S
C49 O53 1.241 . S
C50 O43 1.247 . S
C50 O44 1.261 . S
C51 O46 1.259 . S
C51 O48 1.235 . S
O52 Co42 2.021 . S
O52 C49 1.238 . S
O53 Co47 2.052 . S
O53 C49 1.241 . S
O54 Co42 2.137 . S
O54 C45 1.247 . S
O55 Co42 2.244 . S
O55 C45 1.272 . S
O55 Co47 2.135 . S
Co56 O57 2.216 . S
Co56 O58 2.091 . S
Co56 O60 2.004 . S
Co56 O66 2.021 . S
Co56 O68 2.137 . S
Co56 O69 2.244 . S
O57 Co56 2.216 . S
O57 C64 1.247 . S
O58 Co56 2.091 . S
O58 C64 1.261 . S
C59 O68 1.247 . S
C59 O69 1.272 . S
O60 Co56 2.004 . S
O60 C65 1.259 . S
Co61 O62 2.061 . S
Co61 O67 2.052 . S
Co61 O69 2.135 . S
O62 Co61 2.061 . S
O62 C65 1.235 . S
C63 O66 1.238 . S
C63 O67 1.241 . S
C64 O57 1.247 . S
C64 O58 1.261 . S
C65 O60 1.259 . S
C65 O62 1.235 . S
O66 Co56 2.021 . S
O66 C63 1.238 . S
O67 Co61 2.052 . S
O67 C63 1.241 . S
O68 Co56 2.137 . S
O68 C59 1.247 . S
O69 Co56 2.244 . S
O69 C59 1.272 . S
O69 Co61 2.135 . S
Co70 O71 2.216 . S
Co70 O72 2.091 . S
Co70 O74 2.004 . S
Co70 O80 2.021 . S
Co70 O82 2.137 . S
Co70 O83 2.244 . S
O71 Co70 2.216 . S
O71 C78 1.247 . S
O72 Co70 2.091 . S
O72 C78 1.261 . S
C73 O82 1.247 . S
C73 O83 1.272 . S
O74 Co70 2.004 . S
O74 C79 1.259 . S
Co75 O76 2.061 . S
Co75 O81 2.052 . S
Co75 O83 2.135 . S
O76 Co75 2.061 . S
O76 C79 1.235 . S
C77 O80 1.238 . S
C77 O81 1.241 . S
C78 O71 1.247 . S
C78 O72 1.261 . S
C79 O74 1.259 . S
C79 O76 1.235 . S
O80 Co70 2.021 . S
O80 C77 1.238 . S
O81 Co75 2.052 . S
O81 C77 1.241 . S
O82 Co70 2.137 . S
O82 C73 1.247 . S
O83 Co70 2.244 . S
O83 C73 1.272 . S
O83 Co75 2.135 . S
Co84 O85 2.216 . S
Co84 O86 2.091 . S
Co84 O88 2.004 . S
Co84 O94 2.021 . S
Co84 O96 2.137 . S
Co84 O97 2.244 . S
O85 Co84 2.216 . S
O85 C92 1.247 . S
O86 Co84 2.091 . S
O86 C92 1.261 . S
C87 O96 1.247 . S
C87 O97 1.272 . S
O88 Co84 2.004 . S
O88 C93 1.259 . S
Co89 O90 2.061 . S
Co89 O95 2.052 . S
Co89 O97 2.135 . S
O90 Co89 2.061 . S
O90 C93 1.235 . S
C91 O94 1.238 . S
C91 O95 1.241 . S
C92 O85 1.247 . S
C92 O86 1.261 . S
C93 O88 1.259 . S
C93 O90 1.235 . S
O94 Co84 2.021 . S
O94 C91 1.238 . S
O95 Co89 2.052 . S
O95 C91 1.241 . S
O96 Co84 2.137 . S
O96 C87 1.247 . S
O97 Co84 2.244 . S
O97 C87 1.272 . S
O97 Co89 2.135 . S
Co98 O99 2.216 . S
Co98 O100 2.091 . S
Co98 O102 2.004 . S
Co98 O108 2.021 . S
Co98 O110 2.137 . S
Co98 O111 2.244 . S
O99 Co98 2.216 . S
O99 C106 1.247 . S
O100 Co98 2.091 . S
O100 C106 1.261 . S
C101 O110 1.247 . S
C101 O111 1.272 . S
O102 Co98 2.004 . S
O102 C107 1.259 . S
Co103 O104 2.061 . S
Co103 O109 2.052 . S
Co103 O111 2.135 . S
O104 Co103 2.061 . S
O104 C107 1.235 . S
C105 O108 1.238 . S
C105 O109 1.241 . S
C106 O99 1.247 . S
C106 O100 1.261 . S
C107 O102 1.259 . S
C107 O104 1.235 . S
O108 Co98 2.021 . S
O108 C105 1.238 . S
O109 Co103 2.052 . S
O109 C105 1.241 . S
O110 Co98 2.137 . S
O110 C101 1.247 . S
O111 Co98 2.244 . S
O111 C101 1.272 . S
O111 Co103 2.135 . S
Co112 O113 2.216 . S
Co112 O114 2.091 . S
Co112 O116 2.004 . S
Co112 O122 2.021 . S
Co112 O124 2.137 . S
Co112 O125 2.244 . S
O113 Co112 2.216 . S
O113 C120 1.247 . S
O114 Co112 2.091 . S
O114 C120 1.261 . S
C115 O124 1.247 . S
C115 O125 1.272 . S
O116 Co112 2.004 . S
O116 C121 1.259 . S
Co117 O118 2.061 . S
Co117 O123 2.052 . S
Co117 O125 2.135 . S
O118 Co117 2.061 . S
O118 C121 1.235 . S
C119 O122 1.238 . S
C119 O123 1.241 . S
C120 O113 1.247 . S
C120 O114 1.261 . S
C121 O116 1.259 . S
C121 O118 1.235 . S
O122 Co112 2.021 . S
O122 C119 1.238 . S
O123 Co117 2.052 . S
O123 C119 1.241 . S
O124 Co112 2.137 . S
O124 C115 1.247 . S
O125 Co112 2.244 . S
O125 C115 1.272 . S
O125 Co117 2.135 . S
Co126 O127 2.216 . S
Co126 O128 2.091 . S
Co126 O130 2.004 . S
Co126 O136 2.021 . S
Co126 O138 2.137 . S
Co126 O139 2.244 . S
O127 Co126 2.216 . S
O127 C134 1.247 . S
O128 Co126 2.091 . S
O128 C134 1.261 . S
C129 O138 1.247 . S
C129 O139 1.272 . S
O130 Co126 2.004 . S
O130 C135 1.259 . S
Co131 O132 2.061 . S
Co131 O137 2.052 . S
Co131 O139 2.135 . S
O132 Co131 2.061 . S
O132 C135 1.235 . S
C133 O136 1.238 . S
C133 O137 1.241 . S
C134 O127 1.247 . S
C134 O128 1.261 . S
C135 O130 1.259 . S
C135 O132 1.235 . S
O136 Co126 2.021 . S
O136 C133 1.238 . S
O137 Co131 2.052 . S
O137 C133 1.241 . S
O138 Co126 2.137 . S
O138 C129 1.247 . S
O139 Co126 2.244 . S
O139 C129 1.272 . S
O139 Co131 2.135 . S
Co140 O141 2.216 . S
Co140 O142 2.091 . S
Co140 O144 2.004 . S
Co140 O150 2.021 . S
Co140 O152 2.137 . S
Co140 O153 2.244 . S
O141 Co140 2.216 . S
O141 C148 1.247 . S
O142 Co140 2.091 . S
O142 C148 1.261 . S
C143 O152 1.247 . S
C143 O153 1.272 . S
O144 Co140 2.004 . S
O144 C149 1.259 . S
Co145 O146 2.061 . S
Co145 O151 2.052 . S
Co145 O153 2.135 . S
O146 Co145 2.061 . S
O146 C149 1.235 . S
C147 O150 1.238 . S
C147 O151 1.241 . S
C148 O141 1.247 . S
C148 O142 1.261 . S
C149 O144 1.259 . S
C149 O146 1.235 . S
O150 Co140 2.021 . S
O150 C147 1.238 . S
O151 Co145 2.052 . S
O151 C147 1.241 . S
O152 Co140 2.137 . S
O152 C143 1.247 . S
O153 Co140 2.244 . S
O153 C143 1.272 . S
O153 Co145 2.135 . S
Co154 O155 2.216 . S
Co154 O156 2.091 . S
Co154 O158 2.004 . S
Co154 O164 2.021 . S
Co154 O166 2.137 . S
Co154 O167 2.244 . S
O155 Co154 2.216 . S
O155 C162 1.247 . S
O156 Co154 2.091 . S
O156 C162 1.261 . S
C157 O166 1.247 . S
C157 O167 1.272 . S
O158 Co154 2.004 . S
O158 C163 1.259 . S
Co159 O160 2.061 . S
Co159 O165 2.052 . S
Co159 O167 2.135 . S
O160 Co159 2.061 . S
O160 C163 1.235 . S
C161 O164 1.238 . S
C161 O165 1.241 . S
C162 O155 1.247 . S
C162 O156 1.261 . S
C163 O158 1.259 . S
C163 O160 1.235 . S
O164 Co154 2.021 . S
O164 C161 1.238 . S
O165 Co159 2.052 . S
O165 C161 1.241 . S
O166 Co154 2.137 . S
O166 C157 1.247 . S
O167 Co154 2.244 . S
O167 C157 1.272 . S
O167 Co159 2.135 . S
Co168 O169 2.216 . S
Co168 O170 2.091 . S
Co168 O172 2.004 . S
Co168 O178 2.021 . S
Co168 O180 2.137 . S
Co168 O181 2.244 . S
O169 Co168 2.216 . S
O169 C176 1.247 . S
O170 Co168 2.091 . S
O170 C176 1.261 . S
C171 O180 1.247 . S
C171 O181 1.272 . S
O172 Co168 2.004 . S
O172 C177 1.259 . S
Co173 O174 2.061 . S
Co173 O179 2.052 . S
Co173 O181 2.135 . S
O174 Co173 2.061 . S
O174 C177 1.235 . S
C175 O178 1.238 . S
C175 O179 1.241 . S
C176 O169 1.247 . S
C176 O170 1.261 . S
C177 O172 1.259 . S
C177 O174 1.235 . S
O178 Co168 2.021 . S
O178 C175 1.238 . S
O179 Co173 2.052 . S
O179 C175 1.241 . S
O180 Co168 2.137 . S
O180 C171 1.247 . S
O181 Co168 2.244 . S
O181 C171 1.272 . S
O181 Co173 2.135 . S
Co182 O183 2.216 . S
Co182 O184 2.091 . S
Co182 O186 2.004 . S
Co182 O192 2.021 . S
Co182 O194 2.137 . S
Co182 O195 2.244 . S
O183 Co182 2.216 . S
O183 C190 1.247 . S
O184 Co182 2.091 . S
O184 C190 1.261 . S
C185 O194 1.247 . S
C185 O195 1.272 . S
O186 Co182 2.004 . S
O186 C191 1.259 . S
Co187 O188 2.061 . S
Co187 O193 2.052 . S
Co187 O195 2.135 . S
O188 Co187 2.061 . S
O188 C191 1.235 . S
C189 O192 1.238 . S
C189 O193 1.241 . S
C190 O183 1.247 . S
C190 O184 1.261 . S
C191 O186 1.259 . S
C191 O188 1.235 . S
O192 Co182 2.021 . S
O192 C189 1.238 . S
O193 Co187 2.052 . S
O193 C189 1.241 . S
O194 Co182 2.137 . S
O194 C185 1.247 . S
O195 Co182 2.244 . S
O195 C185 1.272 . S
O195 Co187 2.135 . S
Co196 O197 2.216 . S
Co196 O198 2.091 . S
Co196 O200 2.004 . S
Co196 O206 2.021 . S
Co196 O208 2.137 . S
Co196 O209 2.244 . S
O197 Co196 2.216 . S
O197 C204 1.247 . S
O198 Co196 2.091 . S
O198 C204 1.261 . S
C199 O208 1.247 . S
C199 O209 1.272 . S
O200 Co196 2.004 . S
O200 C205 1.259 . S
Co201 O202 2.061 . S
Co201 O207 2.052 . S
Co201 O209 2.135 . S
O202 Co201 2.061 . S
O202 C205 1.235 . S
C203 O206 1.238 . S
C203 O207 1.241 . S
C204 O197 1.247 . S
C204 O198 1.261 . S
C205 O200 1.259 . S
C205 O202 1.235 . S
O206 Co196 2.021 . S
O206 C203 1.238 . S
O207 Co201 2.052 . S
O207 C203 1.241 . S
O208 Co196 2.137 . S
O208 C199 1.247 . S
O209 Co196 2.244 . S
O209 C199 1.272 . S
O209 Co201 2.135 . S
Co210 O211 2.216 . S
Co210 O212 2.091 . S
Co210 O214 2.004 . S
Co210 O220 2.021 . S
Co210 O222 2.137 . S
Co210 O223 2.244 . S
O211 Co210 2.216 . S
O211 C218 1.247 . S
O212 Co210 2.091 . S
O212 C218 1.261 . S
C213 O222 1.247 . S
C213 O223 1.272 . S
O214 Co210 2.004 . S
O214 C219 1.259 . S
Co215 O216 2.061 . S
Co215 O221 2.052 . S
Co215 O223 2.135 . S
O216 Co215 2.061 . S
O216 C219 1.235 . S
C217 O220 1.238 . S
C217 O221 1.241 . S
C218 O211 1.247 . S
C218 O212 1.261 . S
C219 O214 1.259 . S
C219 O216 1.235 . S
O220 Co210 2.021 . S
O220 C217 1.238 . S
O221 Co215 2.052 . S
O221 C217 1.241 . S
O222 Co210 2.137 . S
O222 C213 1.247 . S
O223 Co210 2.244 . S
O223 C213 1.272 . S
O223 Co215 2.135 . S
H224 C232 0.929 . S
H225 C234 0.930 . S
H226 C236 0.930 . S
H227 C239 0.929 . S
H228 C242 0.930 . S
H229 C244 0.960 . S
H230 C244 0.960 . S
H231 C244 0.960 . S
C232 H224 0.929 . S
C232 C233 1.377 . S
C232 C234 1.384 . S
C233 C232 1.377 . S
C233 C239 1.390 . S
C234 H225 0.930 . S
C234 C232 1.384 . S
C234 C235 1.372 . S
C235 C234 1.372 . S
C235 C236 1.400 . S
C235 C240 1.490 . S
C236 H226 0.930 . S
C236 C235 1.400 . S
C236 C239 1.386 . S
H237 C253 0.930 . S
H238 C254 0.931 . S
C239 H227 0.929 . S
C239 C233 1.390 . S
C239 C236 1.386 . S
C240 C235 1.490 . S
C240 C242 1.395 . S
C240 C243 1.403 . S
H241 C247 0.930 . S
C242 H228 0.930 . S
C242 C240 1.395 . S
C242 C245 1.403 . S
C243 C240 1.403 . S
C243 C244 1.524 . S
C243 C247 1.400 . S
C244 H229 0.960 . S
C244 H230 0.960 . S
C244 H231 0.960 . S
C244 C243 1.524 . S
C245 C242 1.403 . S
C245 C246 1.392 . S
C245 C249 1.495 . S
C246 C245 1.392 . S
C246 C247 1.385 . S
C246 C248 1.478 . S
C247 H241 0.930 . S
C247 C243 1.400 . S
C247 C246 1.385 . S
C248 C246 1.478 . S
C248 C250 1.381 . S
C248 C254 1.383 . S
C249 C245 1.495 . S
C249 H255 0.959 . S
C249 H256 0.961 . S
C249 H257 0.960 . S
C250 C248 1.381 . S
C250 C251 1.394 . S
C250 H258 0.930 . S
C251 C250 1.394 . S
C251 C252 1.383 . S
C251 H259 0.929 . S
C252 C251 1.383 . S
C252 C253 1.377 . S
C253 H237 0.930 . S
C253 C252 1.377 . S
C253 C254 1.379 . S
C254 H238 0.931 . S
C254 C248 1.383 . S
C254 C253 1.379 . S
H255 C249 0.959 . S
H256 C249 0.961 . S
H257 C249 0.960 . S
H258 C250 0.930 . S
H259 C251 0.929 . S
H260 C268 0.929 . S
H261 C270 0.930 . S
H262 C272 0.930 . S
H263 C275 0.929 . S
H264 C278 0.930 . S
H265 C280 0.960 . S
H266 C280 0.960 . S
H267 C280 0.960 . S
C268 H260 0.929 . S
C268 C269 1.377 . S
C268 C270 1.384 . S
C269 C268 1.377 . S
C269 C275 1.390 . S
C270 H261 0.930 . S
C270 C268 1.384 . S
C270 C271 1.372 . S
C271 C270 1.372 . S
C271 C272 1.400 . S
C271 C276 1.490 . S
C272 H262 0.930 . S
C272 C271 1.400 . S
C272 C275 1.386 . S
H273 C289 0.930 . S
H274 C290 0.931 . S
C275 H263 0.929 . S
C275 C269 1.390 . S
C275 C272 1.386 . S
C276 C271 1.490 . S
C276 C278 1.395 . S
C276 C279 1.403 . S
H277 C283 0.930 . S
C278 H264 0.930 . S
C278 C276 1.395 . S
C278 C281 1.403 . S
C279 C276 1.403 . S
C279 C280 1.524 . S
C279 C283 1.400 . S
C280 H265 0.960 . S
C280 H266 0.960 . S
C280 H267 0.960 . S
C280 C279 1.524 . S
C281 C278 1.403 . S
C281 C282 1.392 . S
C281 C285 1.495 . S
C282 C281 1.392 . S
C282 C283 1.385 . S
C282 C284 1.478 . S
C283 H277 0.930 . S
C283 C279 1.400 . S
C283 C282 1.385 . S
C284 C282 1.478 . S
C284 C286 1.381 . S
C284 C290 1.383 . S
C285 C281 1.495 . S
C285 H291 0.959 . S
C285 H292 0.961 . S
C285 H293 0.960 . S
C286 C284 1.381 . S
C286 C287 1.394 . S
C286 H294 0.930 . S
C287 C286 1.394 . S
C287 C288 1.383 . S
C287 H295 0.929 . S
C288 C287 1.383 . S
C288 C289 1.377 . S
C289 H273 0.930 . S
C289 C288 1.377 . S
C289 C290 1.379 . S
C290 H274 0.931 . S
C290 C284 1.383 . S
C290 C289 1.379 . S
H291 C285 0.959 . S
H292 C285 0.961 . S
H293 C285 0.960 . S
H294 C286 0.930 . S
H295 C287 0.929 . S
H296 C304 0.929 . S
H297 C306 0.930 . S
H298 C308 0.930 . S
H299 C311 0.929 . S
H300 C314 0.930 . S
H301 C316 0.960 . S
H302 C316 0.960 . S
H303 C316 0.960 . S
C304 H296 0.929 . S
C304 C305 1.377 . S
C304 C306 1.384 . S
C305 C304 1.377 . S
C305 C311 1.390 . S
C306 H297 0.930 . S
C306 C304 1.384 . S
C306 C307 1.372 . S
C307 C306 1.372 . S
C307 C308 1.400 . S
C307 C312 1.490 . S
C308 H298 0.930 . S
C308 C307 1.400 . S
C308 C311 1.386 . S
H309 C325 0.930 . S
H310 C326 0.931 . S
C311 H299 0.929 . S
C311 C305 1.390 . S
C311 C308 1.386 . S
C312 C307 1.490 . S
C312 C314 1.395 . S
C312 C315 1.403 . S
H313 C319 0.930 . S
C314 H300 0.930 . S
C314 C312 1.395 . S
C314 C317 1.403 . S
C315 C312 1.403 . S
C315 C316 1.524 . S
C315 C319 1.400 . S
C316 H301 0.960 . S
C316 H302 0.960 . S
C316 H303 0.960 . S
C316 C315 1.524 . S
C317 C314 1.403 . S
C317 C318 1.392 . S
C317 C321 1.495 . S
C318 C317 1.392 . S
C318 C319 1.385 . S
C318 C320 1.478 . S
C319 H313 0.930 . S
C319 C315 1.400 . S
C319 C318 1.385 . S
C320 C318 1.478 . S
C320 C322 1.381 . S
C320 C326 1.383 . S
C321 C317 1.495 . S
C321 H327 0.959 . S
C321 H328 0.961 . S
C321 H329 0.960 . S
C322 C320 1.381 . S
C322 C323 1.394 . S
C322 H330 0.930 . S
C323 C322 1.394 . S
C323 C324 1.383 . S
C323 H331 0.929 . S
C324 C323 1.383 . S
C324 C325 1.377 . S
C325 H309 0.930 . S
C325 C324 1.377 . S
C325 C326 1.379 . S
C326 H310 0.931 . S
C326 C320 1.383 . S
C326 C325 1.379 . S
H327 C321 0.959 . S
H328 C321 0.961 . S
H329 C321 0.960 . S
H330 C322 0.930 . S
H331 C323 0.929 . S
H332 C340 0.929 . S
H333 C342 0.930 . S
H334 C344 0.930 . S
H335 C347 0.929 . S
H336 C350 0.930 . S
H337 C352 0.960 . S
H338 C352 0.960 . S
H339 C352 0.960 . S
C340 H332 0.929 . S
C340 C341 1.377 . S
C340 C342 1.384 . S
C341 C340 1.377 . S
C341 C347 1.390 . S
C342 H333 0.930 . S
C342 C340 1.384 . S
C342 C343 1.372 . S
C343 C342 1.372 . S
C343 C344 1.400 . S
C343 C348 1.490 . S
C344 H334 0.930 . S
C344 C343 1.400 . S
C344 C347 1.386 . S
H345 C361 0.930 . S
H346 C362 0.931 . S
C347 H335 0.929 . S
C347 C341 1.390 . S
C347 C344 1.386 . S
C348 C343 1.490 . S
C348 C350 1.395 . S
C348 C351 1.403 . S
H349 C355 0.930 . S
C350 H336 0.930 . S
C350 C348 1.395 . S
C350 C353 1.403 . S
C351 C348 1.403 . S
C351 C352 1.524 . S
C351 C355 1.400 . S
C352 H337 0.960 . S
C352 H338 0.960 . S
C352 H339 0.960 . S
C352 C351 1.524 . S
C353 C350 1.403 . S
C353 C354 1.392 . S
C353 C357 1.495 . S
C354 C353 1.392 . S
C354 C355 1.385 . S
C354 C356 1.478 . S
C355 H349 0.930 . S
C355 C351 1.400 . S
C355 C354 1.385 . S
C356 C354 1.478 . S
C356 C358 1.381 . S
C356 C362 1.383 . S
C357 C353 1.495 . S
C357 H363 0.959 . S
C357 H364 0.961 . S
C357 H365 0.960 . S
C358 C356 1.381 . S
C358 C359 1.394 . S
C358 H366 0.930 . S
C359 C358 1.394 . S
C359 C360 1.383 . S
C359 H367 0.929 . S
C360 C359 1.383 . S
C360 C361 1.377 . S
C361 H345 0.930 . S
C361 C360 1.377 . S
C361 C362 1.379 . S
C362 H346 0.931 . S
C362 C356 1.383 . S
C362 C361 1.379 . S
H363 C357 0.959 . S
H364 C357 0.961 . S
H365 C357 0.960 . S
H366 C358 0.930 . S
H367 C359 0.929 . S
H368 C376 0.929 . S
H369 C378 0.930 . S
H370 C380 0.930 . S
H371 C383 0.929 . S
H372 C386 0.930 . S
H373 C388 0.960 . S
H374 C388 0.960 . S
H375 C388 0.960 . S
C376 H368 0.929 . S
C376 C377 1.377 . S
C376 C378 1.384 . S
C377 C376 1.377 . S
C377 C383 1.390 . S
C378 H369 0.930 . S
C378 C376 1.384 . S
C378 C379 1.372 . S
C379 C378 1.372 . S
C379 C380 1.400 . S
C379 C384 1.490 . S
C380 H370 0.930 . S
C380 C379 1.400 . S
C380 C383 1.386 . S
H381 C397 0.930 . S
H382 C398 0.931 . S
C383 H371 0.929 . S
C383 C377 1.390 . S
C383 C380 1.386 . S
C384 C379 1.490 . S
C384 C386 1.395 . S
C384 C387 1.403 . S
H385 C391 0.930 . S
C386 H372 0.930 . S
C386 C384 1.395 . S
C386 C389 1.403 . S
C387 C384 1.403 . S
C387 C388 1.524 . S
C387 C391 1.400 . S
C388 H373 0.960 . S
C388 H374 0.960 . S
C388 H375 0.960 . S
C388 C387 1.524 . S
C389 C386 1.403 . S
C389 C390 1.392 . S
C389 C393 1.495 . S
C390 C389 1.392 . S
C390 C391 1.385 . S
C390 C392 1.478 . S
C391 H385 0.930 . S
C391 C387 1.400 . S
C391 C390 1.385 . S
C392 C390 1.478 . S
C392 C394 1.381 . S
C392 C398 1.383 . S
C393 C389 1.495 . S
C393 H399 0.959 . S
C393 H400 0.961 . S
C393 H401 0.960 . S
C394 C392 1.381 . S
C394 C395 1.394 . S
C394 H402 0.930 . S
C395 C394 1.394 . S
C395 C396 1.383 . S
C395 H403 0.929 . S
C396 C395 1.383 . S
C396 C397 1.377 . S
C397 H381 0.930 . S
C397 C396 1.377 . S
C397 C398 1.379 . S
C398 H382 0.931 . S
C398 C392 1.383 . S
C398 C397 1.379 . S
H399 C393 0.959 . S
H400 C393 0.961 . S
H401 C393 0.960 . S
H402 C394 0.930 . S
H403 C395 0.929 . S
H404 C412 0.929 . S
H405 C414 0.930 . S
H406 C416 0.930 . S
H407 C419 0.929 . S
H408 C422 0.930 . S
H409 C424 0.960 . S
H410 C424 0.960 . S
H411 C424 0.960 . S
C412 H404 0.929 . S
C412 C413 1.377 . S
C412 C414 1.384 . S
C413 C412 1.377 . S
C413 C419 1.390 . S
C414 H405 0.930 . S
C414 C412 1.384 . S
C414 C415 1.372 . S
C415 C414 1.372 . S
C415 C416 1.400 . S
C415 C420 1.490 . S
C416 H406 0.930 . S
C416 C415 1.400 . S
C416 C419 1.386 . S
H417 C433 0.930 . S
H418 C434 0.931 . S
C419 H407 0.929 . S
C419 C413 1.390 . S
C419 C416 1.386 . S
C420 C415 1.490 . S
C420 C422 1.395 . S
C420 C423 1.403 . S
H421 C427 0.930 . S
C422 H408 0.930 . S
C422 C420 1.395 . S
C422 C425 1.403 . S
C423 C420 1.403 . S
C423 C424 1.524 . S
C423 C427 1.400 . S
C424 H409 0.960 . S
C424 H410 0.960 . S
C424 H411 0.960 . S
C424 C423 1.524 . S
C425 C422 1.403 . S
C425 C426 1.392 . S
C425 C429 1.495 . S
C426 C425 1.392 . S
C426 C427 1.385 . S
C426 C428 1.478 . S
C427 H421 0.930 . S
C427 C423 1.400 . S
C427 C426 1.385 . S
C428 C426 1.478 . S
C428 C430 1.381 . S
C428 C434 1.383 . S
C429 C425 1.495 . S
C429 H435 0.959 . S
C429 H436 0.961 . S
C429 H437 0.960 . S
C430 C428 1.381 . S
C430 C431 1.394 . S
C430 H438 0.930 . S
C431 C430 1.394 . S
C431 C432 1.383 . S
C431 H439 0.929 . S
C432 C431 1.383 . S
C432 C433 1.377 . S
C433 H417 0.930 . S
C433 C432 1.377 . S
C433 C434 1.379 . S
C434 H418 0.931 . S
C434 C428 1.383 . S
C434 C433 1.379 . S
H435 C429 0.959 . S
H436 C429 0.961 . S
H437 C429 0.960 . S
H438 C430 0.930 . S
H439 C431 0.929 . S
H440 C448 0.929 . S
H441 C450 0.930 . S
H442 C452 0.930 . S
H443 C455 0.929 . S
H444 C458 0.930 . S
H445 C460 0.960 . S
H446 C460 0.960 . S
H447 C460 0.960 . S
C448 H440 0.929 . S
C448 C449 1.377 . S
C448 C450 1.384 . S
C449 C448 1.377 . S
C449 C455 1.390 . S
C450 H441 0.930 . S
C450 C448 1.384 . S
C450 C451 1.372 . S
C451 C450 1.372 . S
C451 C452 1.400 . S
C451 C456 1.490 . S
C452 H442 0.930 . S
C452 C451 1.400 . S
C452 C455 1.386 . S
H453 C469 0.930 . S
H454 C470 0.931 . S
C455 H443 0.929 . S
C455 C449 1.390 . S
C455 C452 1.386 . S
C456 C451 1.490 . S
C456 C458 1.395 . S
C456 C459 1.403 . S
H457 C463 0.930 . S
C458 H444 0.930 . S
C458 C456 1.395 . S
C458 C461 1.403 . S
C459 C456 1.403 . S
C459 C460 1.524 . S
C459 C463 1.400 . S
C460 H445 0.960 . S
C460 H446 0.960 . S
C460 H447 0.960 . S
C460 C459 1.524 . S
C461 C458 1.403 . S
C461 C462 1.392 . S
C461 C465 1.495 . S
C462 C461 1.392 . S
C462 C463 1.385 . S
C462 C464 1.478 . S
C463 H457 0.930 . S
C463 C459 1.400 . S
C463 C462 1.385 . S
C464 C462 1.478 . S
C464 C466 1.381 . S
C464 C470 1.383 . S
C465 C461 1.495 . S
C465 H471 0.959 . S
C465 H472 0.961 . S
C465 H473 0.960 . S
C466 C464 1.381 . S
C466 C467 1.394 . S
C466 H474 0.930 . S
C467 C466 1.394 . S
C467 C468 1.383 . S
C467 H475 0.929 . S
C468 C467 1.383 . S
C468 C469 1.377 . S
C469 H453 0.930 . S
C469 C468 1.377 . S
C469 C470 1.379 . S
C470 H454 0.931 . S
C470 C464 1.383 . S
C470 C469 1.379 . S
H471 C465 0.959 . S
H472 C465 0.961 . S
H473 C465 0.960 . S
H474 C466 0.930 . S
H475 C467 0.929 . S
H476 C484 0.929 . S
H477 C486 0.930 . S
H478 C488 0.930 . S
H479 C491 0.929 . S
H480 C494 0.930 . S
H481 C496 0.960 . S
H482 C496 0.960 . S
H483 C496 0.960 . S
C484 H476 0.929 . S
C484 C485 1.377 . S
C484 C486 1.384 . S
C485 C484 1.377 . S
C485 C491 1.390 . S
C486 H477 0.930 . S
C486 C484 1.384 . S
C486 C487 1.372 . S
C487 C486 1.372 . S
C487 C488 1.400 . S
C487 C492 1.490 . S
C488 H478 0.930 . S
C488 C487 1.400 . S
C488 C491 1.386 . S
H489 C505 0.930 . S
H490 C506 0.931 . S
C491 H479 0.929 . S
C491 C485 1.390 . S
C491 C488 1.386 . S
C492 C487 1.490 . S
C492 C494 1.395 . S
C492 C495 1.403 . S
H493 C499 0.930 . S
C494 H480 0.930 . S
C494 C492 1.395 . S
C494 C497 1.403 . S
C495 C492 1.403 . S
C495 C496 1.524 . S
C495 C499 1.400 . S
C496 H481 0.960 . S
C496 H482 0.960 . S
C496 H483 0.960 . S
C496 C495 1.524 . S
C497 C494 1.403 . S
C497 C498 1.392 . S
C497 C501 1.495 . S
C498 C497 1.392 . S
C498 C499 1.385 . S
C498 C500 1.478 . S
C499 H493 0.930 . S
C499 C495 1.400 . S
C499 C498 1.385 . S
C500 C498 1.478 . S
C500 C502 1.381 . S
C500 C506 1.383 . S
C501 C497 1.495 . S
C501 H507 0.959 . S
C501 H508 0.961 . S
C501 H509 0.960 . S
C502 C500 1.381 . S
C502 C503 1.394 . S
C502 H510 0.930 . S
C503 C502 1.394 . S
C503 C504 1.383 . S
C503 H511 0.929 . S
C504 C503 1.383 . S
C504 C505 1.377 . S
C505 H489 0.930 . S
C505 C504 1.377 . S
C505 C506 1.379 . S
C506 H490 0.931 . S
C506 C500 1.383 . S
C506 C505 1.379 . S
H507 C501 0.959 . S
H508 C501 0.961 . S
H509 C501 0.960 . S
H510 C502 0.930 . S
H511 C503 0.929 . S
H512 C520 0.929 . S
H513 C522 0.930 . S
H514 C524 0.930 . S
H515 C527 0.929 . S
H516 C530 0.930 . S
H517 C532 0.960 . S
H518 C532 0.960 . S
H519 C532 0.960 . S
C520 H512 0.929 . S
C520 C521 1.377 . S
C520 C522 1.384 . S
C521 C520 1.377 . S
C521 C527 1.390 . S
C522 H513 0.930 . S
C522 C520 1.384 . S
C522 C523 1.372 . S
C523 C522 1.372 . S
C523 C524 1.400 . S
C523 C528 1.490 . S
C524 H514 0.930 . S
C524 C523 1.400 . S
C524 C527 1.386 . S
H525 C541 0.930 . S
H526 C542 0.931 . S
C527 H515 0.929 . S
C527 C521 1.390 . S
C527 C524 1.386 . S
C528 C523 1.490 . S
C528 C530 1.395 . S
C528 C531 1.403 . S
H529 C535 0.930 . S
C530 H516 0.930 . S
C530 C528 1.395 . S
C530 C533 1.403 1_556 S
C531 C528 1.403 . S
C531 C532 1.524 . S
C531 C535 1.400 1_556 S
C532 H517 0.960 . S
C532 H518 0.960 . S
C532 H519 0.960 . S
C532 C531 1.524 . S
C533 C530 1.403 1_554 S
C533 C534 1.392 . S
C533 C537 1.495 . S
C534 C533 1.392 . S
C534 C535 1.385 . S
C534 C536 1.478 . S
C535 H529 0.930 . S
C535 C531 1.400 1_554 S
C535 C534 1.385 . S
C536 C534 1.478 . S
C536 C538 1.381 . S
C536 C542 1.383 . S
C537 C533 1.495 . S
C537 H543 0.959 . S
C537 H544 0.961 . S
C537 H545 0.960 . S
C538 C536 1.381 . S
C538 C539 1.394 . S
C538 H546 0.930 . S
C539 C538 1.394 . S
C539 C540 1.383 . S
C539 H547 0.929 . S
C540 C539 1.383 . S
C540 C541 1.377 . S
C541 H525 0.930 . S
C541 C540 1.377 . S
C541 C542 1.379 . S
C542 H526 0.931 . S
C542 C536 1.383 . S
C542 C541 1.379 . S
H543 C537 0.959 . S
H544 C537 0.961 . S
H545 C537 0.960 . S
H546 C538 0.930 . S
H547 C539 0.929 . S
H548 C556 0.929 . S
H549 C558 0.930 . S
H550 C560 0.930 . S
H551 C563 0.929 . S
H552 C566 0.930 . S
H553 C568 0.960 . S
H554 C568 0.960 . S
H555 C568 0.960 . S
C556 H548 0.929 . S
C556 C557 1.377 . S
C556 C558 1.384 . S
C557 C556 1.377 . S
C557 C563 1.390 . S
C558 H549 0.930 . S
C558 C556 1.384 . S
C558 C559 1.372 . S
C559 C558 1.372 . S
C559 C560 1.400 . S
C559 C564 1.490 . S
C560 H550 0.930 . S
C560 C559 1.400 . S
C560 C563 1.386 . S
H561 C577 0.930 . S
H562 C578 0.931 . S
C563 H551 0.929 . S
C563 C557 1.390 . S
C563 C560 1.386 . S
C564 C559 1.490 . S
C564 C566 1.395 . S
C564 C567 1.403 . S
H565 C571 0.930 . S
C566 H552 0.930 . S
C566 C564 1.395 . S
C566 C569 1.403 1_556 S
C567 C564 1.403 . S
C567 C568 1.524 . S
C567 C571 1.400 1_556 S
C568 H553 0.960 . S
C568 H554 0.960 . S
C568 H555 0.960 . S
C568 C567 1.524 . S
C569 C566 1.403 1_554 S
C569 C570 1.392 . S
C569 C573 1.495 . S
C570 C569 1.392 . S
C570 C571 1.385 . S
C570 C572 1.478 . S
C571 H565 0.930 . S
C571 C567 1.400 1_554 S
C571 C570 1.385 . S
C572 C570 1.478 . S
C572 C574 1.381 . S
C572 C578 1.383 . S
C573 C569 1.495 . S
C573 H579 0.959 . S
C573 H580 0.961 . S
C573 H581 0.960 . S
C574 C572 1.381 . S
C574 C575 1.394 . S
C574 H582 0.930 . S
C575 C574 1.394 . S
C575 C576 1.383 . S
C575 H583 0.929 . S
C576 C575 1.383 . S
C576 C577 1.377 . S
C577 H561 0.930 . S
C577 C576 1.377 . S
C577 C578 1.379 . S
C578 H562 0.931 . S
C578 C572 1.383 . S
C578 C577 1.379 . S
H579 C573 0.959 . S
H580 C573 0.961 . S
H581 C573 0.960 . S
H582 C574 0.930 . S
H583 C575 0.929 . S
H584 C592 0.929 . S
H585 C594 0.930 . S
H586 C596 0.930 . S
H587 C599 0.929 . S
H588 C602 0.930 . S
H589 C604 0.960 . S
H590 C604 0.960 . S
H591 C604 0.960 . S
C592 H584 0.929 . S
C592 C593 1.377 . S
C592 C594 1.384 . S
C593 C592 1.377 . S
C593 C599 1.390 . S
C594 H585 0.930 . S
C594 C592 1.384 . S
C594 C595 1.372 . S
C595 C594 1.372 . S
C595 C596 1.400 . S
C595 C600 1.490 . S
C596 H586 0.930 . S
C596 C595 1.400 . S
C596 C599 1.386 . S
H597 C613 0.930 . S
H598 C614 0.931 . S
C599 H587 0.929 . S
C599 C593 1.390 . S
C599 C596 1.386 . S
C600 C595 1.490 . S
C600 C602 1.395 . S
C600 C603 1.403 . S
H601 C607 0.930 . S
C602 H588 0.930 . S
C602 C600 1.395 . S
C602 C605 1.403 1_556 S
C603 C600 1.403 . S
C603 C604 1.524 . S
C603 C607 1.400 1_556 S
C604 H589 0.960 . S
C604 H590 0.960 . S
C604 H591 0.960 . S
C604 C603 1.524 . S
C605 C602 1.403 1_554 S
C605 C606 1.392 . S
C605 C609 1.495 . S
C606 C605 1.392 . S
C606 C607 1.385 . S
C606 C608 1.478 . S
C607 H601 0.930 . S
C607 C603 1.400 1_554 S
C607 C606 1.385 . S
C608 C606 1.478 . S
C608 C610 1.381 . S
C608 C614 1.383 . S
C609 C605 1.495 . S
C609 H615 0.959 . S
C609 H616 0.961 . S
C609 H617 0.960 . S
C610 C608 1.381 . S
C610 C611 1.394 . S
C610 H618 0.930 . S
C611 C610 1.394 . S
C611 C612 1.383 . S
C611 H619 0.929 . S
C612 C611 1.383 . S
C612 C613 1.377 . S
C613 H597 0.930 . S
C613 C612 1.377 . S
C613 C614 1.379 . S
C614 H598 0.931 . S
C614 C608 1.383 . S
C614 C613 1.379 . S
H615 C609 0.959 . S
H616 C609 0.961 . S
H617 C609 0.960 . S
H618 C610 0.930 . S
H619 C611 0.929 . S
H620 C628 0.929 . S
H621 C630 0.930 . S
H622 C632 0.930 . S
H623 C635 0.929 . S
H624 C638 0.930 . S
H625 C640 0.960 . S
H626 C640 0.960 . S
H627 C640 0.960 . S
C628 H620 0.929 . S
C628 C629 1.377 . S
C628 C630 1.384 . S
C629 C628 1.377 . S
C629 C635 1.390 . S
C630 H621 0.930 . S
C630 C628 1.384 . S
C630 C631 1.372 . S
C631 C630 1.372 . S
C631 C632 1.400 . S
C631 C636 1.490 . S
C632 H622 0.930 . S
C632 C631 1.400 . S
C632 C635 1.386 . S
H633 C649 0.930 . S
H634 C650 0.931 . S
C635 H623 0.929 . S
C635 C629 1.390 . S
C635 C632 1.386 . S
C636 C631 1.490 . S
C636 C638 1.395 . S
C636 C639 1.403 . S
H637 C643 0.930 . S
C638 H624 0.930 . S
C638 C636 1.395 . S
C638 C641 1.403 1_554 S
C639 C636 1.403 . S
C639 C640 1.524 . S
C639 C643 1.400 1_554 S
C640 H625 0.960 . S
C640 H626 0.960 . S
C640 H627 0.960 . S
C640 C639 1.524 . S
C641 C638 1.403 1_556 S
C641 C642 1.392 . S
C641 C645 1.495 . S
C642 C641 1.392 . S
C642 C643 1.385 . S
C642 C644 1.478 . S
C643 H637 0.930 . S
C643 C639 1.400 1_556 S
C643 C642 1.385 . S
C644 C642 1.478 . S
C644 C646 1.381 . S
C644 C650 1.383 . S
C645 C641 1.495 . S
C645 H651 0.959 . S
C645 H652 0.961 . S
C645 H653 0.960 . S
C646 C644 1.381 . S
C646 C647 1.394 . S
C646 H654 0.930 . S
C647 C646 1.394 . S
C647 C648 1.383 . S
C647 H655 0.929 . S
C648 C647 1.383 . S
C648 C649 1.377 . S
C649 H633 0.930 . S
C649 C648 1.377 . S
C649 C650 1.379 . S
C650 H634 0.931 . S
C650 C644 1.383 . S
C650 C649 1.379 . S
H651 C645 0.959 . S
H652 C645 0.961 . S
H653 C645 0.960 . S
H654 C646 0.930 . S
H655 C647 0.929 . S
H656 C664 0.929 . S
H657 C666 0.930 . S
H658 C668 0.930 . S
H659 C671 0.929 . S
H660 C674 0.930 . S
H661 C676 0.960 . S
H662 C676 0.960 . S
H663 C676 0.960 . S
C664 H656 0.929 . S
C664 C665 1.377 . S
C664 C666 1.384 . S
C665 C664 1.377 . S
C665 C671 1.390 . S
C666 H657 0.930 . S
C666 C664 1.384 . S
C666 C667 1.372 . S
C667 C666 1.372 . S
C667 C668 1.400 . S
C667 C672 1.490 . S
C668 H658 0.930 . S
C668 C667 1.400 . S
C668 C671 1.386 . S
H669 C685 0.930 . S
H670 C686 0.931 . S
C671 H659 0.929 . S
C671 C665 1.390 . S
C671 C668 1.386 . S
C672 C667 1.490 . S
C672 C674 1.395 . S
C672 C675 1.403 . S
H673 C679 0.930 . S
C674 H660 0.930 . S
C674 C672 1.395 . S
C674 C677 1.403 . S
C675 C672 1.403 . S
C675 C676 1.524 . S
C675 C679 1.400 . S
C676 H661 0.960 . S
C676 H662 0.960 . S
C676 H663 0.960 . S
C676 C675 1.524 . S
C677 C674 1.403 . S
C677 C678 1.392 . S
C677 C681 1.495 . S
C678 C677 1.392 . S
C678 C679 1.385 . S
C678 C680 1.478 . S
C679 H673 0.930 . S
C679 C675 1.400 . S
C679 C678 1.385 . S
C680 C678 1.478 . S
C680 C682 1.381 . S
C680 C686 1.383 . S
C681 C677 1.495 . S
C681 H687 0.959 . S
C681 H688 0.961 . S
C681 H689 0.960 . S
C682 C680 1.381 . S
C682 C683 1.394 . S
C682 H690 0.930 . S
C683 C682 1.394 . S
C683 C684 1.383 . S
C683 H691 0.929 . S
C684 C683 1.383 . S
C684 C685 1.377 . S
C685 H669 0.930 . S
C685 C684 1.377 . S
C685 C686 1.379 . S
C686 H670 0.931 . S
C686 C680 1.383 . S
C686 C685 1.379 . S
H687 C681 0.959 . S
H688 C681 0.961 . S
H689 C681 0.960 . S
H690 C682 0.930 . S
H691 C683 0.929 . S
H692 C700 0.929 . S
H693 C702 0.930 . S
H694 C704 0.930 . S
H695 C707 0.929 . S
H696 C710 0.930 . S
H697 C712 0.960 . S
H698 C712 0.960 . S
H699 C712 0.960 . S
C700 H692 0.929 . S
C700 C701 1.377 . S
C700 C702 1.384 . S
C701 C700 1.377 . S
C701 C707 1.390 . S
C702 H693 0.930 . S
C702 C700 1.384 . S
C702 C703 1.372 . S
C703 C702 1.372 . S
C703 C704 1.400 . S
C703 C708 1.490 . S
C704 H694 0.930 . S
C704 C703 1.400 . S
C704 C707 1.386 . S
H705 C721 0.930 . S
H706 C722 0.931 . S
C707 H695 0.929 . S
C707 C701 1.390 . S
C707 C704 1.386 . S
C708 C703 1.490 . S
C708 C710 1.395 . S
C708 C711 1.403 . S
H709 C715 0.930 . S
C710 H696 0.930 . S
C710 C708 1.395 . S
C710 C713 1.403 . S
C711 C708 1.403 . S
C711 C712 1.524 . S
C711 C715 1.400 . S
C712 H697 0.960 . S
C712 H698 0.960 . S
C712 H699 0.960 . S
C712 C711 1.524 . S
C713 C710 1.403 . S
C713 C714 1.392 . S
C713 C717 1.495 . S
C714 C713 1.392 . S
C714 C715 1.385 . S
C714 C716 1.478 . S
C715 H709 0.930 . S
C715 C711 1.400 . S
C715 C714 1.385 . S
C716 C714 1.478 . S
C716 C718 1.381 . S
C716 C722 1.383 . S
C717 C713 1.495 . S
C717 H723 0.959 . S
C717 H724 0.961 . S
C717 H725 0.960 . S
C718 C716 1.381 . S
C718 C719 1.394 . S
C718 H726 0.930 . S
C719 C718 1.394 . S
C719 C720 1.383 . S
C719 H727 0.929 . S
C720 C719 1.383 . S
C720 C721 1.377 . S
C721 H705 0.930 . S
C721 C720 1.377 . S
C721 C722 1.379 . S
C722 H706 0.931 . S
C722 C716 1.383 . S
C722 C721 1.379 . S
H723 C717 0.959 . S
H724 C717 0.961 . S
H725 C717 0.960 . S
H726 C718 0.930 . S
H727 C719 0.929 . S
H728 C736 0.929 . S
H729 C738 0.930 . S
H730 C740 0.930 . S
H731 C743 0.929 . S
H732 C746 0.930 . S
H733 C748 0.960 . S
H734 C748 0.960 . S
H735 C748 0.960 . S
C736 H728 0.929 . S
C736 C737 1.377 . S
C736 C738 1.384 . S
C737 C736 1.377 . S
C737 C743 1.390 . S
C738 H729 0.930 . S
C738 C736 1.384 . S
C738 C739 1.372 . S
C739 C738 1.372 . S
C739 C740 1.400 . S
C739 C744 1.490 . S
C740 H730 0.930 . S
C740 C739 1.400 . S
C740 C743 1.386 . S
H741 C757 0.930 . S
H742 C758 0.931 . S
C743 H731 0.929 . S
C743 C737 1.390 . S
C743 C740 1.386 . S
C744 C739 1.490 . S
C744 C746 1.395 . S
C744 C747 1.403 . S
H745 C751 0.930 . S
C746 H732 0.930 . S
C746 C744 1.395 . S
C746 C749 1.403 . S
C747 C744 1.403 . S
C747 C748 1.524 . S
C747 C751 1.400 . S
C748 H733 0.960 . S
C748 H734 0.960 . S
C748 H735 0.960 . S
C748 C747 1.524 . S
C749 C746 1.403 . S
C749 C750 1.392 . S
C749 C753 1.495 . S
C750 C749 1.392 . S
C750 C751 1.385 . S
C750 C752 1.478 . S
C751 H745 0.930 . S
C751 C747 1.400 . S
C751 C750 1.385 . S
C752 C750 1.478 . S
C752 C754 1.381 . S
C752 C758 1.383 . S
C753 C749 1.495 . S
C753 H759 0.959 . S
C753 H760 0.961 . S
C753 H761 0.960 . S
C754 C752 1.381 . S
C754 C755 1.394 . S
C754 H762 0.930 . S
C755 C754 1.394 . S
C755 C756 1.383 . S
C755 H763 0.929 . S
C756 C755 1.383 . S
C756 C757 1.377 . S
C757 H741 0.930 . S
C757 C756 1.377 . S
C757 C758 1.379 . S
C758 H742 0.931 . S
C758 C752 1.383 . S
C758 C757 1.379 . S
H759 C753 0.959 . S
H760 C753 0.961 . S
H761 C753 0.960 . S
H762 C754 0.930 . S
H763 C755 0.929 . S
H764 C772 0.929 . S
H765 C774 0.930 . S
H766 C776 0.930 . S
H767 C779 0.929 . S
H768 C782 0.930 . S
H769 C784 0.960 . S
H770 C784 0.960 . S
H771 C784 0.960 . S
C772 H764 0.929 . S
C772 C773 1.377 . S
C772 C774 1.384 . S
C773 C772 1.377 . S
C773 C779 1.390 . S
C774 H765 0.930 . S
C774 C772 1.384 . S
C774 C775 1.372 . S
C775 C774 1.372 . S
C775 C776 1.400 . S
C775 C780 1.490 . S
C776 H766 0.930 . S
C776 C775 1.400 . S
C776 C779 1.386 . S
H777 C793 0.930 . S
H778 C794 0.931 . S
C779 H767 0.929 . S
C779 C773 1.390 . S
C779 C776 1.386 . S
C780 C775 1.490 . S
C780 C782 1.395 . S
C780 C783 1.403 . S
H781 C787 0.930 . S
C782 H768 0.930 . S
C782 C780 1.395 . S
C782 C785 1.403 . S
C783 C780 1.403 . S
C783 C784 1.524 . S
C783 C787 1.400 . S
C784 H769 0.960 . S
C784 H770 0.960 . S
C784 H771 0.960 . S
C784 C783 1.524 . S
C785 C782 1.403 . S
C785 C786 1.392 . S
C785 C789 1.495 . S
C786 C785 1.392 . S
C786 C787 1.385 . S
C786 C788 1.478 . S
C787 H781 0.930 . S
C787 C783 1.400 . S
C787 C786 1.385 . S
C788 C786 1.478 . S
C788 C790 1.381 . S
C788 C794 1.383 . S
C789 C785 1.495 . S
C789 H795 0.959 . S
C789 H796 0.961 . S
C789 H797 0.960 . S
C790 C788 1.381 . S
C790 C791 1.394 . S
C790 H798 0.930 . S
C791 C790 1.394 . S
C791 C792 1.383 . S
C791 H799 0.929 . S
C792 C791 1.383 . S
C792 C793 1.377 . S
C793 H777 0.930 . S
C793 C792 1.377 . S
C793 C794 1.379 . S
C794 H778 0.931 . S
C794 C788 1.383 . S
C794 C793 1.379 . S
H795 C789 0.959 . S
H796 C789 0.961 . S
H797 C789 0.960 . S
H798 C790 0.930 . S
H799 C791 0.929 . S
H800 C808 0.929 . S
H801 C810 0.930 . S
H802 C812 0.930 . S
H803 C815 0.929 . S
H804 C818 0.930 . S
H805 C820 0.960 . S
H806 C820 0.960 . S
H807 C820 0.960 . S
C808 H800 0.929 . S
C808 C809 1.377 . S
C808 C810 1.384 . S
C809 C808 1.377 . S
C809 C815 1.390 . S
C810 H801 0.930 . S
C810 C808 1.384 . S
C810 C811 1.372 . S
C811 C810 1.372 . S
C811 C812 1.400 . S
C811 C816 1.490 . S
C812 H802 0.930 . S
C812 C811 1.400 . S
C812 C815 1.386 . S
H813 C829 0.930 . S
H814 C830 0.931 . S
C815 H803 0.929 . S
C815 C809 1.390 . S
C815 C812 1.386 . S
C816 C811 1.490 . S
C816 C818 1.395 . S
C816 C819 1.403 . S
H817 C823 0.930 . S
C818 H804 0.930 . S
C818 C816 1.395 . S
C818 C821 1.403 . S
C819 C816 1.403 . S
C819 C820 1.524 . S
C819 C823 1.400 . S
C820 H805 0.960 . S
C820 H806 0.960 . S
C820 H807 0.960 . S
C820 C819 1.524 . S
C821 C818 1.403 . S
C821 C822 1.392 . S
C821 C825 1.495 . S
C822 C821 1.392 . S
C822 C823 1.385 . S
C822 C824 1.478 . S
C823 H817 0.930 . S
C823 C819 1.400 . S
C823 C822 1.385 . S
C824 C822 1.478 . S
C824 C826 1.381 . S
C824 C830 1.383 . S
C825 C821 1.495 . S
C825 H831 0.959 . S
C825 H832 0.961 . S
C825 H833 0.960 . S
C826 C824 1.381 . S
C826 C827 1.394 . S
C826 H834 0.930 . S
C827 C826 1.394 . S
C827 C828 1.383 . S
C827 H835 0.929 . S
C828 C827 1.383 . S
C828 C829 1.377 . S
C829 H813 0.930 . S
C829 C828 1.377 . S
C829 C830 1.379 . S
C830 H814 0.931 . S
C830 C824 1.383 . S
C830 C829 1.379 . S
H831 C825 0.959 . S
H832 C825 0.961 . S
H833 C825 0.960 . S
H834 C826 0.930 . S
H835 C827 0.929 . S
H836 C844 0.929 . S
H837 C846 0.930 . S
H838 C848 0.930 . S
H839 C851 0.929 . S
H840 C854 0.930 . S
H841 C856 0.960 . S
H842 C856 0.960 . S
H843 C856 0.960 . S
C844 H836 0.929 . S
C844 C845 1.377 . S
C844 C846 1.384 . S
C845 C844 1.377 . S
C845 C851 1.390 . S
C846 H837 0.930 . S
C846 C844 1.384 . S
C846 C847 1.372 . S
C847 C846 1.372 . S
C847 C848 1.400 . S
C847 C852 1.490 . S
C848 H838 0.930 . S
C848 C847 1.400 . S
C848 C851 1.386 . S
H849 C865 0.930 . S
H850 C866 0.931 . S
C851 H839 0.929 . S
C851 C845 1.390 . S
C851 C848 1.386 . S
C852 C847 1.490 . S
C852 C854 1.395 . S
C852 C855 1.403 . S
H853 C859 0.930 . S
C854 H840 0.930 . S
C854 C852 1.395 . S
C854 C857 1.403 . S
C855 C852 1.403 . S
C855 C856 1.524 . S
C855 C859 1.400 . S
C856 H841 0.960 . S
C856 H842 0.960 . S
C856 H843 0.960 . S
C856 C855 1.524 . S
C857 C854 1.403 . S
C857 C858 1.392 . S
C857 C861 1.495 . S
C858 C857 1.392 . S
C858 C859 1.385 . S
C858 C860 1.478 . S
C859 H853 0.930 . S
C859 C855 1.400 . S
C859 C858 1.385 . S
C860 C858 1.478 . S
C860 C862 1.381 . S
C860 C866 1.383 . S
C861 C857 1.495 . S
C861 H867 0.959 . S
C861 H868 0.961 . S
C861 H869 0.960 . S
C862 C860 1.381 . S
C862 C863 1.394 . S
C862 H870 0.930 . S
C863 C862 1.394 . S
C863 C864 1.383 . S
C863 H871 0.929 . S
C864 C863 1.383 . S
C864 C865 1.377 . S
C865 H849 0.930 . S
C865 C864 1.377 . S
C865 C866 1.379 . S
C866 H850 0.931 . S
C866 C860 1.383 . S
C866 C865 1.379 . S
H867 C861 0.959 . S
H868 C861 0.961 . S
H869 C861 0.960 . S
H870 C862 0.930 . S
H871 C863 0.929 . S
H872 C880 0.929 . S
H873 C882 0.930 . S
H874 C884 0.930 . S
H875 C887 0.929 . S
H876 C890 0.930 . S
H877 C892 0.960 . S
H878 C892 0.960 . S
H879 C892 0.960 . S
C880 H872 0.929 . S
C880 C881 1.377 . S
C880 C882 1.384 . S
C881 C880 1.377 . S
C881 C887 1.390 . S
C882 H873 0.930 . S
C882 C880 1.384 . S
C882 C883 1.372 . S
C883 C882 1.372 . S
C883 C884 1.400 . S
C883 C888 1.490 . S
C884 H874 0.930 . S
C884 C883 1.400 . S
C884 C887 1.386 . S
H885 C901 0.930 . S
H886 C902 0.931 . S
C887 H875 0.929 . S
C887 C881 1.390 . S
C887 C884 1.386 . S
C888 C883 1.490 . S
C888 C890 1.395 . S
C888 C891 1.403 . S
H889 C895 0.930 . S
C890 H876 0.930 . S
C890 C888 1.395 . S
C890 C893 1.403 . S
C891 C888 1.403 . S
C891 C892 1.524 . S
C891 C895 1.400 . S
C892 H877 0.960 . S
C892 H878 0.960 . S
C892 H879 0.960 . S
C892 C891 1.524 . S
C893 C890 1.403 . S
C893 C894 1.392 . S
C893 C897 1.495 . S
C894 C893 1.392 . S
C894 C895 1.385 . S
C894 C896 1.478 . S
C895 H889 0.930 . S
C895 C891 1.400 . S
C895 C894 1.385 . S
C896 C894 1.478 . S
C896 C898 1.381 . S
C896 C902 1.383 . S
C897 C893 1.495 . S
C897 H903 0.959 . S
C897 H904 0.961 . S
C897 H905 0.960 . S
C898 C896 1.381 . S
C898 C899 1.394 . S
C898 H906 0.930 . S
C899 C898 1.394 . S
C899 C900 1.383 . S
C899 H907 0.929 . S
C900 C899 1.383 . S
C900 C901 1.377 . S
C901 H885 0.930 . S
C901 C900 1.377 . S
C901 C902 1.379 . S
C902 H886 0.931 . S
C902 C896 1.383 . S
C902 C901 1.379 . S
H903 C897 0.959 . S
H904 C897 0.961 . S
H905 C897 0.960 . S
H906 C898 0.930 . S
H907 C899 0.929 . S
H908 C916 0.929 . S
H909 C918 0.930 . S
H910 C920 0.930 . S
H911 C923 0.929 . S
H912 C926 0.930 . S
H913 C928 0.960 . S
H914 C928 0.960 . S
H915 C928 0.960 . S
C916 H908 0.929 . S
C916 C917 1.377 . S
C916 C918 1.384 . S
C917 C916 1.377 . S
C917 C923 1.390 . S
C918 H909 0.930 . S
C918 C916 1.384 . S
C918 C919 1.372 . S
C919 C918 1.372 . S
C919 C920 1.400 . S
C919 C924 1.490 . S
C920 H910 0.930 . S
C920 C919 1.400 . S
C920 C923 1.386 . S
H921 C937 0.930 . S
H922 C938 0.931 . S
C923 H911 0.929 . S
C923 C917 1.390 . S
C923 C920 1.386 . S
C924 C919 1.490 . S
C924 C926 1.395 . S
C924 C927 1.403 . S
H925 C931 0.930 . S
C926 H912 0.930 . S
C926 C924 1.395 . S
C926 C929 1.403 . S
C927 C924 1.403 . S
C927 C928 1.524 . S
C927 C931 1.400 . S
C928 H913 0.960 . S
C928 H914 0.960 . S
C928 H915 0.960 . S
C928 C927 1.524 . S
C929 C926 1.403 . S
C929 C930 1.392 . S
C929 C933 1.495 . S
C930 C929 1.392 . S
C930 C931 1.385 . S
C930 C932 1.478 . S
C931 H925 0.930 . S
C931 C927 1.400 . S
C931 C930 1.385 . S
C932 C930 1.478 . S
C932 C934 1.381 . S
C932 C938 1.383 . S
C933 C929 1.495 . S
C933 H939 0.959 . S
C933 H940 0.961 . S
C933 H941 0.960 . S
C934 C932 1.381 . S
C934 C935 1.394 . S
C934 H942 0.930 . S
C935 C934 1.394 . S
C935 C936 1.383 . S
C935 H943 0.929 . S
C936 C935 1.383 . S
C936 C937 1.377 . S
C937 H921 0.930 . S
C937 C936 1.377 . S
C937 C938 1.379 . S
C938 H922 0.931 . S
C938 C932 1.383 . S
C938 C937 1.379 . S
H939 C933 0.959 . S
H940 C933 0.961 . S
H941 C933 0.960 . S
H942 C934 0.930 . S
H943 C935 0.929 . S
H944 C952 0.929 . S
H945 C954 0.930 . S
H946 C956 0.930 . S
H947 C959 0.929 . S
H948 C962 0.930 . S
H949 C964 0.960 . S
H950 C964 0.960 . S
H951 C964 0.960 . S
C952 H944 0.929 . S
C952 C953 1.377 . S
C952 C954 1.384 . S
C953 C952 1.377 . S
C953 C959 1.390 . S
C954 H945 0.930 . S
C954 C952 1.384 . S
C954 C955 1.372 . S
C955 C954 1.372 . S
C955 C956 1.400 . S
C955 C960 1.490 . S
C956 H946 0.930 . S
C956 C955 1.400 . S
C956 C959 1.386 . S
H957 C973 0.930 . S
H958 C974 0.931 . S
C959 H947 0.929 . S
C959 C953 1.390 . S
C959 C956 1.386 . S
C960 C955 1.490 . S
C960 C962 1.395 . S
C960 C963 1.403 . S
H961 C967 0.930 . S
C962 H948 0.930 . S
C962 C960 1.395 . S
C962 C965 1.403 . S
C963 C960 1.403 . S
C963 C964 1.524 . S
C963 C967 1.400 . S
C964 H949 0.960 . S
C964 H950 0.960 . S
C964 H951 0.960 . S
C964 C963 1.524 . S
C965 C962 1.403 . S
C965 C966 1.392 . S
C965 C969 1.495 . S
C966 C965 1.392 . S
C966 C967 1.385 . S
C966 C968 1.478 . S
C967 H961 0.930 . S
C967 C963 1.400 . S
C967 C966 1.385 . S
C968 C966 1.478 . S
C968 C970 1.381 . S
C968 C974 1.383 . S
C969 C965 1.495 . S
C969 H975 0.959 . S
C969 H976 0.961 . S
C969 H977 0.960 . S
C970 C968 1.381 . S
C970 C971 1.394 . S
C970 H978 0.930 . S
C971 C970 1.394 . S
C971 C972 1.383 . S
C971 H979 0.929 . S
C972 C971 1.383 . S
C972 C973 1.377 . S
C973 H957 0.930 . S
C973 C972 1.377 . S
C973 C974 1.379 . S
C974 H958 0.931 . S
C974 C968 1.383 . S
C974 C973 1.379 . S
H975 C969 0.959 . S
H976 C969 0.961 . S
H977 C969 0.960 . S
H978 C970 0.930 . S
H979 C971 0.929 . S
H980 C988 0.929 . S
H981 C990 0.930 . S
H982 C992 0.930 . S
H983 C995 0.929 . S
H984 C998 0.930 . S
H985 C1000 0.960 . S
H986 C1000 0.960 . S
H987 C1000 0.960 . S
C988 H980 0.929 . S
C988 C989 1.377 . S
C988 C990 1.384 . S
C989 C988 1.377 . S
C989 C995 1.390 . S
C990 H981 0.930 . S
C990 C988 1.384 . S
C990 C991 1.372 . S
C991 C990 1.372 . S
C991 C992 1.400 . S
C991 C996 1.490 . S
C992 H982 0.930 . S
C992 C991 1.400 . S
C992 C995 1.386 . S
H993 C1009 0.930 . S
H994 C1010 0.931 . S
C995 H983 0.929 . S
C995 C989 1.390 . S
C995 C992 1.386 . S
C996 C991 1.490 . S
C996 C998 1.395 . S
C996 C999 1.403 . S
H997 C1003 0.930 . S
C998 H984 0.930 . S
C998 C996 1.395 . S
C998 C1001 1.403 . S
C999 C996 1.403 . S
C999 C1000 1.524 . S
C999 C1003 1.400 . S
C1000 H985 0.960 . S
C1000 H986 0.960 . S
C1000 H987 0.960 . S
C1000 C999 1.524 . S
C1001 C998 1.403 . S
C1001 C1002 1.392 . S
C1001 C1005 1.495 . S
C1002 C1001 1.392 . S
C1002 C1003 1.385 . S
C1002 C1004 1.478 . S
C1003 H997 0.930 . S
C1003 C999 1.400 . S
C1003 C1002 1.385 . S
C1004 C1002 1.478 . S
C1004 C1006 1.381 . S
C1004 C1010 1.383 . S
C1005 C1001 1.495 . S
C1005 H1011 0.959 . S
C1005 H1012 0.961 . S
C1005 H1013 0.960 . S
C1006 C1004 1.381 . S
C1006 C1007 1.394 . S
C1006 H1014 0.930 . S
C1007 C1006 1.394 . S
C1007 C1008 1.383 . S
C1007 H1015 0.929 . S
C1008 C1007 1.383 . S
C1008 C1009 1.377 . S
C1009 H993 0.930 . S
C1009 C1008 1.377 . S
C1009 C1010 1.379 . S
C1010 H994 0.931 . S
C1010 C1004 1.383 . S
C1010 C1009 1.379 . S
H1011 C1005 0.959 . S
H1012 C1005 0.961 . S
H1013 C1005 0.960 . S
H1014 C1006 0.930 . S
H1015 C1007 0.929 . S
H1016 C1024 0.929 . S
H1017 C1026 0.930 . S
H1018 C1028 0.930 . S
H1019 C1031 0.929 . S
H1020 C1034 0.930 . S
H1021 C1036 0.960 . S
H1022 C1036 0.960 . S
H1023 C1036 0.960 . S
C1024 H1016 0.929 . S
C1024 C1025 1.377 . S
C1024 C1026 1.384 . S
C1025 C1024 1.377 . S
C1025 C1031 1.390 . S
C1026 H1017 0.930 . S
C1026 C1024 1.384 . S
C1026 C1027 1.372 . S
C1027 C1026 1.372 . S
C1027 C1028 1.400 . S
C1027 C1032 1.490 . S
C1028 H1018 0.930 . S
C1028 C1027 1.400 . S
C1028 C1031 1.386 . S
H1029 C1045 0.930 . S
H1030 C1046 0.931 . S
C1031 H1019 0.929 . S
C1031 C1025 1.390 . S
C1031 C1028 1.386 . S
C1032 C1027 1.490 . S
C1032 C1034 1.395 . S
C1032 C1035 1.403 . S
H1033 C1039 0.930 . S
C1034 H1020 0.930 . S
C1034 C1032 1.395 . S
C1034 C1037 1.403 . S
C1035 C1032 1.403 . S
C1035 C1036 1.524 . S
C1035 C1039 1.400 . S
C1036 H1021 0.960 . S
C1036 H1022 0.960 . S
C1036 H1023 0.960 . S
C1036 C1035 1.524 . S
C1037 C1034 1.403 . S
C1037 C1038 1.392 . S
C1037 C1041 1.495 . S
C1038 C1037 1.392 . S
C1038 C1039 1.385 . S
C1038 C1040 1.478 . S
C1039 H1033 0.930 . S
C1039 C1035 1.400 . S
C1039 C1038 1.385 . S
C1040 C1038 1.478 . S
C1040 C1042 1.381 . S
C1040 C1046 1.383 . S
C1041 C1037 1.495 . S
C1041 H1047 0.959 . S
C1041 H1048 0.961 . S
C1041 H1049 0.960 . S
C1042 C1040 1.381 . S
C1042 C1043 1.394 . S
C1042 H1050 0.930 . S
C1043 C1042 1.394 . S
C1043 C1044 1.383 . S
C1043 H1051 0.929 . S
C1044 C1043 1.383 . S
C1044 C1045 1.377 . S
C1045 H1029 0.930 . S
C1045 C1044 1.377 . S
C1045 C1046 1.379 . S
C1046 H1030 0.931 . S
C1046 C1040 1.383 . S
C1046 C1045 1.379 . S
H1047 C1041 0.959 . S
H1048 C1041 0.961 . S
H1049 C1041 0.960 . S
H1050 C1042 0.930 . S
H1051 C1043 0.929 . S
H1052 C1060 0.929 . S
H1053 C1062 0.930 . S
H1054 C1064 0.930 . S
H1055 C1067 0.929 . S
H1056 C1070 0.930 . S
H1057 C1072 0.960 . S
H1058 C1072 0.960 . S
H1059 C1072 0.960 . S
C1060 H1052 0.929 . S
C1060 C1061 1.377 . S
C1060 C1062 1.384 . S
C1061 C1060 1.377 . S
C1061 C1067 1.390 . S
C1062 H1053 0.930 . S
C1062 C1060 1.384 . S
C1062 C1063 1.372 . S
C1063 C1062 1.372 . S
C1063 C1064 1.400 . S
C1063 C1068 1.490 . S
C1064 H1054 0.930 . S
C1064 C1063 1.400 . S
C1064 C1067 1.386 . S
H1065 C1081 0.930 . S
H1066 C1082 0.931 . S
C1067 H1055 0.929 . S
C1067 C1061 1.390 . S
C1067 C1064 1.386 . S
C1068 C1063 1.490 . S
C1068 C1070 1.395 . S
C1068 C1071 1.403 . S
H1069 C1075 0.930 . S
C1070 H1056 0.930 . S
C1070 C1068 1.395 . S
C1070 C1073 1.403 . S
C1071 C1068 1.403 . S
C1071 C1072 1.524 . S
C1071 C1075 1.400 . S
C1072 H1057 0.960 . S
C1072 H1058 0.960 . S
C1072 H1059 0.960 . S
C1072 C1071 1.524 . S
C1073 C1070 1.403 . S
C1073 C1074 1.392 . S
C1073 C1077 1.495 . S
C1074 C1073 1.392 . S
C1074 C1075 1.385 . S
C1074 C1076 1.478 . S
C1075 H1069 0.930 . S
C1075 C1071 1.400 . S
C1075 C1074 1.385 . S
C1076 C1074 1.478 . S
C1076 C1078 1.381 . S
C1076 C1082 1.383 . S
C1077 C1073 1.495 . S
C1077 H1083 0.959 . S
C1077 H1084 0.961 . S
C1077 H1085 0.960 . S
C1078 C1076 1.381 . S
C1078 C1079 1.394 . S
C1078 H1086 0.930 . S
C1079 C1078 1.394 . S
C1079 C1080 1.383 . S
C1079 H1087 0.929 . S
C1080 C1079 1.383 . S
C1080 C1081 1.377 . S
C1081 H1065 0.930 . S
C1081 C1080 1.377 . S
C1081 C1082 1.379 . S
C1082 H1066 0.931 . S
C1082 C1076 1.383 . S
C1082 C1081 1.379 . S
H1083 C1077 0.959 . S
H1084 C1077 0.961 . S
H1085 C1077 0.960 . S
H1086 C1078 0.930 . S
H1087 C1079 0.929 . S
H1088 C1096 0.929 . S
H1089 C1098 0.930 . S
H1090 C1100 0.930 . S
H1091 C1103 0.929 . S
H1092 C1106 0.930 . S
H1093 C1108 0.960 1_565 S
H1094 C1108 0.960 . S
H1095 C1108 0.960 . S
C1096 H1088 0.929 . S
C1096 C1097 1.377 . S
C1096 C1098 1.384 . S
C1097 C1096 1.377 . S
C1097 C1103 1.390 . S
C1098 H1089 0.930 . S
C1098 C1096 1.384 . S
C1098 C1099 1.372 . S
C1099 C1098 1.372 . S
C1099 C1100 1.400 . S
C1099 C1104 1.490 . S
C1100 H1090 0.930 . S
C1100 C1099 1.400 . S
C1100 C1103 1.386 . S
H1101 C1117 0.930 . S
H1102 C1118 0.931 . S
C1103 H1091 0.929 . S
C1103 C1097 1.390 . S
C1103 C1100 1.386 . S
C1104 C1099 1.490 . S
C1104 C1106 1.395 . S
C1104 C1107 1.403 . S
H1105 C1111 0.930 . S
C1106 H1092 0.930 . S
C1106 C1104 1.395 . S
C1106 C1109 1.403 1_545 S
C1107 C1104 1.403 . S
C1107 C1108 1.524 . S
C1107 C1111 1.400 1_545 S
C1108 H1093 0.960 1_545 S
C1108 H1094 0.960 . S
C1108 H1095 0.960 . S
C1108 C1107 1.524 . S
C1109 C1106 1.403 1_565 S
C1109 C1110 1.392 . S
C1109 C1113 1.495 . S
C1110 C1109 1.392 . S
C1110 C1111 1.385 . S
C1110 C1112 1.478 . S
C1111 H1105 0.930 . S
C1111 C1107 1.400 1_565 S
C1111 C1110 1.385 . S
C1112 C1110 1.478 . S
C1112 C1114 1.381 . S
C1112 C1118 1.383 . S
C1113 C1109 1.495 . S
C1113 H1119 0.959 1_565 S
C1113 H1120 0.961 . S
C1113 H1121 0.960 . S
C1114 C1112 1.381 . S
C1114 C1115 1.394 . S
C1114 H1122 0.930 . S
C1115 C1114 1.394 . S
C1115 C1116 1.383 . S
C1115 H1123 0.929 . S
C1116 C1115 1.383 . S
C1116 C1117 1.377 . S
C1117 H1101 0.930 . S
C1117 C1116 1.377 . S
C1117 C1118 1.379 . S
C1118 H1102 0.931 . S
C1118 C1112 1.383 . S
C1118 C1117 1.379 . S
H1119 C1113 0.959 1_545 S
H1120 C1113 0.961 . S
H1121 C1113 0.960 . S
H1122 C1114 0.930 . S
H1123 C1115 0.929 . S
H1124 C1132 0.929 . S
H1125 C1134 0.930 . S
H1126 C1136 0.930 . S
H1127 C1139 0.929 . S
H1128 C1142 0.930 . S
H1129 C1144 0.960 . S
H1130 C1144 0.960 . S
H1131 C1144 0.960 . S
C1132 H1124 0.929 . S
C1132 C1133 1.377 . S
C1132 C1134 1.384 . S
C1133 C1132 1.377 . S
C1133 C1139 1.390 . S
C1134 H1125 0.930 . S
C1134 C1132 1.384 . S
C1134 C1135 1.372 . S
C1135 C1134 1.372 . S
C1135 C1136 1.400 . S
C1135 C1140 1.490 . S
C1136 H1126 0.930 . S
C1136 C1135 1.400 . S
C1136 C1139 1.386 . S
H1137 C1153 0.930 . S
H1138 C1154 0.931 . S
C1139 H1127 0.929 . S
C1139 C1133 1.390 . S
C1139 C1136 1.386 . S
C1140 C1135 1.490 . S
C1140 C1142 1.395 . S
C1140 C1143 1.403 . S
H1141 C1147 0.930 . S
C1142 H1128 0.930 . S
C1142 C1140 1.395 . S
C1142 C1145 1.403 1_655 S
C1143 C1140 1.403 . S
C1143 C1144 1.524 . S
C1143 C1147 1.400 1_655 S
C1144 H1129 0.960 . S
C1144 H1130 0.960 . S
C1144 H1131 0.960 . S
C1144 C1143 1.524 . S
C1145 C1142 1.403 1_455 S
C1145 C1146 1.392 . S
C1145 C1149 1.495 . S
C1146 C1145 1.392 . S
C1146 C1147 1.385 . S
C1146 C1148 1.478 . S
C1147 H1141 0.930 . S
C1147 C1143 1.400 1_455 S
C1147 C1146 1.385 . S
C1148 C1146 1.478 . S
C1148 C1150 1.381 . S
C1148 C1154 1.383 . S
C1149 C1145 1.495 . S
C1149 H1155 0.959 . S
C1149 H1156 0.961 . S
C1149 H1157 0.960 . S
C1150 C1148 1.381 . S
C1150 C1151 1.394 . S
C1150 H1158 0.930 . S
C1151 C1150 1.394 . S
C1151 C1152 1.383 . S
C1151 H1159 0.929 . S
C1152 C1151 1.383 . S
C1152 C1153 1.377 . S
C1153 H1137 0.930 . S
C1153 C1152 1.377 . S
C1153 C1154 1.379 . S
C1154 H1138 0.931 . S
C1154 C1148 1.383 . S
C1154 C1153 1.379 . S
H1155 C1149 0.959 . S
H1156 C1149 0.961 . S
H1157 C1149 0.960 . S
H1158 C1150 0.930 . S
H1159 C1151 0.929 . S
H1160 C1168 0.929 . S
H1161 C1170 0.930 . S
H1162 C1172 0.930 . S
H1163 C1175 0.929 . S
H1164 C1178 0.930 . S
H1165 C1180 0.960 . S
H1166 C1180 0.960 . S
H1167 C1180 0.960 . S
C1168 H1160 0.929 . S
C1168 C1169 1.377 . S
C1168 C1170 1.384 . S
C1169 C1168 1.377 . S
C1169 C1175 1.390 . S
C1170 H1161 0.930 . S
C1170 C1168 1.384 . S
C1170 C1171 1.372 . S
C1171 C1170 1.372 . S
C1171 C1172 1.400 . S
C1171 C1176 1.490 . S
C1172 H1162 0.930 . S
C1172 C1171 1.400 . S
C1172 C1175 1.386 . S
H1173 C1189 0.930 . S
H1174 C1190 0.931 . S
C1175 H1163 0.929 . S
C1175 C1169 1.390 . S
C1175 C1172 1.386 . S
C1176 C1171 1.490 . S
C1176 C1178 1.395 . S
C1176 C1179 1.403 . S
H1177 C1183 0.930 . S
C1178 H1164 0.930 . S
C1178 C1176 1.395 . S
C1178 C1181 1.403 1_545 S
C1179 C1176 1.403 . S
C1179 C1180 1.524 . S
C1179 C1183 1.400 1_545 S
C1180 H1165 0.960 . S
C1180 H1166 0.960 . S
C1180 H1167 0.960 . S
C1180 C1179 1.524 . S
C1181 C1178 1.403 1_565 S
C1181 C1182 1.392 . S
C1181 C1185 1.495 . S
C1182 C1181 1.392 . S
C1182 C1183 1.385 . S
C1182 C1184 1.478 . S
C1183 H1177 0.930 . S
C1183 C1179 1.400 1_565 S
C1183 C1182 1.385 . S
C1184 C1182 1.478 . S
C1184 C1186 1.381 . S
C1184 C1190 1.383 . S
C1185 C1181 1.495 . S
C1185 H1191 0.959 . S
C1185 H1192 0.961 . S
C1185 H1193 0.960 . S
C1186 C1184 1.381 . S
C1186 C1187 1.394 . S
C1186 H1194 0.930 . S
C1187 C1186 1.394 . S
C1187 C1188 1.383 . S
C1187 H1195 0.929 . S
C1188 C1187 1.383 . S
C1188 C1189 1.377 . S
C1189 H1173 0.930 . S
C1189 C1188 1.377 . S
C1189 C1190 1.379 . S
C1190 H1174 0.931 . S
C1190 C1184 1.383 . S
C1190 C1189 1.379 . S
H1191 C1185 0.959 . S
H1192 C1185 0.961 . S
H1193 C1185 0.960 . S
H1194 C1186 0.930 . S
H1195 C1187 0.929 . S
H1196 C1204 0.929 . S
H1197 C1206 0.930 . S
H1198 C1208 0.930 . S
H1199 C1211 0.929 . S
H1200 C1214 0.930 . S
H1201 C1216 0.960 . S
H1202 C1216 0.960 . S
H1203 C1216 0.960 . S
C1204 H1196 0.929 . S
C1204 C1205 1.377 . S
C1204 C1206 1.384 . S
C1205 C1204 1.377 . S
C1205 C1211 1.390 . S
C1206 H1197 0.930 . S
C1206 C1204 1.384 . S
C1206 C1207 1.372 . S
C1207 C1206 1.372 . S
C1207 C1208 1.400 . S
C1207 C1212 1.490 . S
C1208 H1198 0.930 . S
C1208 C1207 1.400 . S
C1208 C1211 1.386 . S
H1209 C1225 0.930 . S
H1210 C1226 0.931 . S
C1211 H1199 0.929 . S
C1211 C1205 1.390 . S
C1211 C1208 1.386 . S
C1212 C1207 1.490 . S
C1212 C1214 1.395 . S
C1212 C1215 1.403 . S
H1213 C1219 0.930 . S
C1214 H1200 0.930 . S
C1214 C1212 1.395 . S
C1214 C1217 1.403 1_455 S
C1215 C1212 1.403 . S
C1215 C1216 1.524 . S
C1215 C1219 1.400 1_455 S
C1216 H1201 0.960 . S
C1216 H1202 0.960 . S
C1216 H1203 0.960 . S
C1216 C1215 1.524 . S
C1217 C1214 1.403 1_655 S
C1217 C1218 1.392 . S
C1217 C1221 1.495 . S
C1218 C1217 1.392 . S
C1218 C1219 1.385 . S
C1218 C1220 1.478 . S
C1219 H1213 0.930 . S
C1219 C1215 1.400 1_655 S
C1219 C1218 1.385 . S
C1220 C1218 1.478 . S
C1220 C1222 1.381 . S
C1220 C1226 1.383 . S
C1221 C1217 1.495 . S
C1221 H1227 0.959 . S
C1221 H1228 0.961 . S
C1221 H1229 0.960 . S
C1222 C1220 1.381 . S
C1222 C1223 1.394 . S
C1222 H1230 0.930 . S
C1223 C1222 1.394 . S
C1223 C1224 1.383 . S
C1223 H1231 0.929 . S
C1224 C1223 1.383 . S
C1224 C1225 1.377 . S
C1225 H1209 0.930 . S
C1225 C1224 1.377 . S
C1225 C1226 1.379 . S
C1226 H1210 0.931 . S
C1226 C1220 1.383 . S
C1226 C1225 1.379 . S
H1227 C1221 0.959 . S
H1228 C1221 0.961 . S
H1229 C1221 0.960 . S
H1230 C1222 0.930 . S
H1231 C1223 0.929 . S
H1232 C1240 0.929 . S
H1233 C1242 0.930 . S
H1234 C1244 0.930 . S
H1235 C1247 0.929 . S
H1236 C1250 0.930 . S
H1237 C1252 0.960 1_565 S
H1238 C1252 0.960 . S
H1239 C1252 0.960 . S
C1240 H1232 0.929 . S
C1240 C1241 1.377 . S
C1240 C1242 1.384 . S
C1241 C1240 1.377 . S
C1241 C1247 1.390 . S
C1242 H1233 0.930 . S
C1242 C1240 1.384 . S
C1242 C1243 1.372 . S
C1243 C1242 1.372 . S
C1243 C1244 1.400 . S
C1243 C1248 1.490 . S
C1244 H1234 0.930 . S
C1244 C1243 1.400 . S
C1244 C1247 1.386 . S
H1245 C1261 0.930 . S
H1246 C1262 0.931 . S
C1247 H1235 0.929 . S
C1247 C1241 1.390 . S
C1247 C1244 1.386 . S
C1248 C1243 1.490 . S
C1248 C1250 1.395 . S
C1248 C1251 1.403 . S
H1249 C1255 0.930 . S
C1250 H1236 0.930 . S
C1250 C1248 1.395 . S
C1250 C1253 1.403 1_545 S
C1251 C1248 1.403 . S
C1251 C1252 1.524 . S
C1251 C1255 1.400 1_545 S
C1252 H1237 0.960 1_545 S
C1252 H1238 0.960 . S
C1252 H1239 0.960 . S
C1252 C1251 1.524 . S
C1253 C1250 1.403 1_565 S
C1253 C1254 1.392 . S
C1253 C1257 1.495 . S
C1254 C1253 1.392 . S
C1254 C1255 1.385 . S
C1254 C1256 1.478 . S
C1255 H1249 0.930 . S
C1255 C1251 1.400 1_565 S
C1255 C1254 1.385 . S
C1256 C1254 1.478 . S
C1256 C1258 1.381 . S
C1256 C1262 1.383 . S
C1257 C1253 1.495 . S
C1257 H1263 0.959 1_565 S
C1257 H1264 0.961 . S
C1257 H1265 0.960 . S
C1258 C1256 1.381 . S
C1258 C1259 1.394 . S
C1258 H1266 0.930 . S
C1259 C1258 1.394 . S
C1259 C1260 1.383 . S
C1259 H1267 0.929 . S
C1260 C1259 1.383 . S
C1260 C1261 1.377 . S
C1261 H1245 0.930 . S
C1261 C1260 1.377 . S
C1261 C1262 1.379 . S
C1262 H1246 0.931 . S
C1262 C1256 1.383 . S
C1262 C1261 1.379 . S
H1263 C1257 0.959 1_545 S
H1264 C1257 0.961 . S
H1265 C1257 0.960 . S
H1266 C1258 0.930 . S
H1267 C1259 0.929 . S
H1268 C1276 0.929 . S
H1269 C1278 0.930 . S
H1270 C1280 0.930 . S
H1271 C1283 0.929 . S
H1272 C1286 0.930 . S
H1273 C1288 0.960 . S
H1274 C1288 0.960 . S
H1275 C1288 0.960 . S
C1276 H1268 0.929 . S
C1276 C1277 1.377 . S
C1276 C1278 1.384 . S
C1277 C1276 1.377 . S
C1277 C1283 1.390 . S
C1278 H1269 0.930 . S
C1278 C1276 1.384 . S
C1278 C1279 1.372 . S
C1279 C1278 1.372 . S
C1279 C1280 1.400 . S
C1279 C1284 1.490 . S
C1280 H1270 0.930 . S
C1280 C1279 1.400 . S
C1280 C1283 1.386 . S
H1281 C1297 0.930 . S
H1282 C1298 0.931 . S
C1283 H1271 0.929 . S
C1283 C1277 1.390 . S
C1283 C1280 1.386 . S
C1284 C1279 1.490 . S
C1284 C1286 1.395 . S
C1284 C1287 1.403 . S
H1285 C1291 0.930 . S
C1286 H1272 0.930 . S
C1286 C1284 1.395 . S
C1286 C1289 1.403 1_655 S
C1287 C1284 1.403 . S
C1287 C1288 1.524 . S
C1287 C1291 1.400 1_655 S
C1288 H1273 0.960 . S
C1288 H1274 0.960 . S
C1288 H1275 0.960 . S
C1288 C1287 1.524 . S
C1289 C1286 1.403 1_455 S
C1289 C1290 1.392 . S
C1289 C1293 1.495 . S
C1290 C1289 1.392 . S
C1290 C1291 1.385 . S
C1290 C1292 1.478 . S
C1291 H1285 0.930 . S
C1291 C1287 1.400 1_455 S
C1291 C1290 1.385 . S
C1292 C1290 1.478 . S
C1292 C1294 1.381 . S
C1292 C1298 1.383 . S
C1293 C1289 1.495 . S
C1293 H1299 0.959 . S
C1293 H1300 0.961 . S
C1293 H1301 0.960 . S
C1294 C1292 1.381 . S
C1294 C1295 1.394 . S
C1294 H1302 0.930 . S
C1295 C1294 1.394 . S
C1295 C1296 1.383 . S
C1295 H1303 0.929 . S
C1296 C1295 1.383 . S
C1296 C1297 1.377 . S
C1297 H1281 0.930 . S
C1297 C1296 1.377 . S
C1297 C1298 1.379 . S
C1298 H1282 0.931 . S
C1298 C1292 1.383 . S
C1298 C1297 1.379 . S
H1299 C1293 0.959 . S
H1300 C1293 0.961 . S
H1301 C1293 0.960 . S
H1302 C1294 0.930 . S
H1303 C1295 0.929 . S
H1304 C1312 0.929 . S
H1305 C1314 0.930 . S
H1306 C1316 0.930 . S
H1307 C1319 0.929 . S
H1308 C1322 0.930 . S
H1309 C1324 0.960 . S
H1310 C1324 0.960 . S
H1311 C1324 0.960 . S
C1312 H1304 0.929 . S
C1312 C1313 1.377 . S
C1312 C1314 1.384 . S
C1313 C1312 1.377 . S
C1313 C1319 1.390 . S
C1314 H1305 0.930 . S
C1314 C1312 1.384 . S
C1314 C1315 1.372 . S
C1315 C1314 1.372 . S
C1315 C1316 1.400 . S
C1315 C1320 1.490 . S
C1316 H1306 0.930 . S
C1316 C1315 1.400 . S
C1316 C1319 1.386 . S
H1317 C1333 0.930 . S
H1318 C1334 0.931 . S
C1319 H1307 0.929 . S
C1319 C1313 1.390 . S
C1319 C1316 1.386 . S
C1320 C1315 1.490 . S
C1320 C1322 1.395 . S
C1320 C1323 1.403 . S
H1321 C1327 0.930 . S
C1322 H1308 0.930 . S
C1322 C1320 1.395 . S
C1322 C1325 1.403 1_565 S
C1323 C1320 1.403 . S
C1323 C1324 1.524 . S
C1323 C1327 1.400 1_565 S
C1324 H1309 0.960 . S
C1324 H1310 0.960 . S
C1324 H1311 0.960 . S
C1324 C1323 1.524 . S
C1325 C1322 1.403 1_545 S
C1325 C1326 1.392 . S
C1325 C1329 1.495 . S
C1326 C1325 1.392 . S
C1326 C1327 1.385 . S
C1326 C1328 1.478 . S
C1327 H1321 0.930 . S
C1327 C1323 1.400 1_545 S
C1327 C1326 1.385 . S
C1328 C1326 1.478 . S
C1328 C1330 1.381 . S
C1328 C1334 1.383 . S
C1329 C1325 1.495 . S
C1329 H1335 0.959 . S
C1329 H1336 0.961 . S
C1329 H1337 0.960 . S
C1330 C1328 1.381 . S
C1330 C1331 1.394 . S
C1330 H1338 0.930 . S
C1331 C1330 1.394 . S
C1331 C1332 1.383 . S
C1331 H1339 0.929 . S
C1332 C1331 1.383 . S
C1332 C1333 1.377 . S
C1333 H1317 0.930 . S
C1333 C1332 1.377 . S
C1333 C1334 1.379 . S
C1334 H1318 0.931 . S
C1334 C1328 1.383 . S
C1334 C1333 1.379 . S
H1335 C1329 0.959 . S
H1336 C1329 0.961 . S
H1337 C1329 0.960 . S
H1338 C1330 0.930 . S
H1339 C1331 0.929 . S
H1340 C1348 0.929 . S
H1341 C1350 0.930 . S
H1342 C1352 0.930 . S
H1343 C1355 0.929 . S
H1344 C1358 0.930 . S
H1345 C1360 0.960 1_655 S
H1346 C1360 0.960 . S
H1347 C1360 0.960 . S
C1348 H1340 0.929 . S
C1348 C1349 1.377 . S
C1348 C1350 1.384 . S
C1349 C1348 1.377 . S
C1349 C1355 1.390 . S
C1350 H1341 0.930 . S
C1350 C1348 1.384 . S
C1350 C1351 1.372 . S
C1351 C1350 1.372 . S
C1351 C1352 1.400 . S
C1351 C1356 1.490 . S
C1352 H1342 0.930 . S
C1352 C1351 1.400 . S
C1352 C1355 1.386 . S
H1353 C1369 0.930 . S
H1354 C1370 0.931 . S
C1355 H1343 0.929 . S
C1355 C1349 1.390 . S
C1355 C1352 1.386 . S
C1356 C1351 1.490 . S
C1356 C1358 1.395 . S
C1356 C1359 1.403 . S
H1357 C1363 0.930 . S
C1358 H1344 0.930 . S
C1358 C1356 1.395 . S
C1358 C1361 1.403 1_455 S
C1359 C1356 1.403 . S
C1359 C1360 1.524 . S
C1359 C1363 1.400 1_455 S
C1360 H1345 0.960 1_455 S
C1360 H1346 0.960 . S
C1360 H1347 0.960 . S
C1360 C1359 1.524 . S
C1361 C1358 1.403 1_655 S
C1361 C1362 1.392 . S
C1361 C1365 1.495 . S
C1362 C1361 1.392 . S
C1362 C1363 1.385 . S
C1362 C1364 1.478 . S
C1363 H1357 0.930 . S
C1363 C1359 1.400 1_655 S
C1363 C1362 1.385 . S
C1364 C1362 1.478 . S
C1364 C1366 1.381 . S
C1364 C1370 1.383 . S
C1365 C1361 1.495 . S
C1365 H1371 0.959 1_655 S
C1365 H1372 0.961 . S
C1365 H1373 0.960 . S
C1366 C1364 1.381 . S
C1366 C1367 1.394 . S
C1366 H1374 0.930 . S
C1367 C1366 1.394 . S
C1367 C1368 1.383 . S
C1367 H1375 0.929 . S
C1368 C1367 1.383 . S
C1368 C1369 1.377 . S
C1369 H1353 0.930 . S
C1369 C1368 1.377 . S
C1369 C1370 1.379 . S
C1370 H1354 0.931 . S
C1370 C1364 1.383 . S
C1370 C1369 1.379 . S
H1371 C1365 0.959 1_455 S
H1372 C1365 0.961 . S
H1373 C1365 0.960 . S
H1374 C1366 0.930 . S
H1375 C1367 0.929 . S
C233 C78 1.389 . S
C252 C8 1.401 . S
C269 C92 1.394 . S
C288 C22 1.377 . S
C305 C36 1.389 . S
C324 C106 1.397 . S
C341 C50 1.391 . S
C360 C64 1.398 . S
C377 C190 1.394 . S
C396 C120 1.377 . S
C413 C204 1.389 . S
C432 C134 1.400 . S
C449 C148 1.392 . S
C468 C218 1.380 . S
C485 C162 1.390 . S
C504 C176 1.391 . S
C521 C147 1.498 . S
C540 C7 1.470 . S
C557 C161 1.492 . S
C576 C21 1.511 . S
C593 C119 1.490 . S
C612 C35 1.489 . S
C629 C49 1.500 . S
C648 C133 1.490 . S
C665 C203 1.499 . S
C684 C63 1.510 . S
C701 C217 1.496 . S
C720 C77 1.467 . S
C737 C91 1.493 . S
C756 C175 1.515 . S
C773 C189 1.498 . S
C792 C105 1.513 . S
C809 C65 1.999 . S
C828 C9 1.997 . S
C845 C23 1.995 . S
C864 C79 1.995 . S
C881 C37 1.999 . S
C900 C93 1.987 . S
C917 C107 1.995 . S
C936 C51 1.995 . S
C953 C115 0.772 . S
C972 C171 0.748 . S
C989 C185 0.766 . S
C1008 C129 0.782 . S
C1025 C143 0.767 . S
C1044 C199 0.760 . S
C1061 C213 0.771 . S
C1080 C157 0.758 . S
C1097 C163 1.997 . S
C1116 C191 1.985 . S
C1133 C121 1.999 . S
C1152 C205 1.991 . S
C1169 C219 1.997 . S
C1188 C135 2.004 . S
C1205 C149 1.999 . S
C1224 C177 1.993 . S
C1241 C73 0.772 . S
C1260 C45 0.755 . S
C1277 C87 0.764 . S
C1296 C3 0.780 . S
C1313 C101 0.770 . S
C1332 C17 0.750 . S
C1349 C59 0.770 . S
C1368 C31 0.767 . S
