# Generated by pormake.
# Topology uoc, (4)-cn, num edge types: 1
# Building blocks:
#     Node 0, Type 0, BuildingBlock: NAHDIM_clean_sbu_0, # of connection points: 4
#     Node 1, Type 0, BuildingBlock: NAHDIM_clean_sbu_0, # of connection points: 4
#     Node 2, Type 0, BuildingBlock: NAHDIM_clean_sbu_0, # of connection points: 4
#     Node 3, Type 0, BuildingBlock: NAHDIM_clean_sbu_0, # of connection points: 4
#     Node 4, Type 0, BuildingBlock: NAHDIM_clean_sbu_0, # of connection points: 4
#     Node 5, Type 0, BuildingBlock: NAHDIM_clean_sbu_0, # of connection points: 4
#     Node 6, Type 0, BuildingBlock: NAHDIM_clean_sbu_0, # of connection points: 4
#     Node 7, Type 0, BuildingBlock: NAHDIM_clean_sbu_0, # of connection points: 4
#     Edge 8, Type (0, 0), BuildingBlock: CIFDUS_clean_linker_0, # of connection points: 2
#     Edge 9, Type (0, 0), BuildingBlock: CIFDUS_clean_linker_0, # of connection points: 2
#     Edge 10, Type (0, 0), BuildingBlock: CIFDUS_clean_linker_0, # of connection points: 2
#     Edge 11, Type (0, 0), BuildingBlock: CIFDUS_clean_linker_0, # of connection points: 2
#     Edge 12, Type (0, 0), BuildingBlock: CIFDUS_clean_linker_0, # of connection points: 2
#     Edge 13, Type (0, 0), BuildingBlock: CIFDUS_clean_linker_0, # of connection points: 2
#     Edge 14, Type (0, 0), BuildingBlock: CIFDUS_clean_linker_0, # of connection points: 2
#     Edge 15, Type (0, 0), BuildingBlock: CIFDUS_clean_linker_0, # of connection points: 2
#     Edge 16, Type (0, 0), BuildingBlock: CIFDUS_clean_linker_0, # of connection points: 2
#     Edge 17, Type (0, 0), BuildingBlock: CIFDUS_clean_linker_0, # of connection points: 2
#     Edge 18, Type (0, 0), BuildingBlock: CIFDUS_clean_linker_0, # of connection points: 2
#     Edge 19, Type (0, 0), BuildingBlock: CIFDUS_clean_linker_0, # of connection points: 2
#     Edge 20, Type (0, 0), BuildingBlock: CIFDUS_clean_linker_0, # of connection points: 2
#     Edge 21, Type (0, 0), BuildingBlock: CIFDUS_clean_linker_0, # of connection points: 2
#     Edge 22, Type (0, 0), BuildingBlock: CIFDUS_clean_linker_0, # of connection points: 2
#     Edge 23, Type (0, 0), BuildingBlock: CIFDUS_clean_linker_0, # of connection points: 2
# Relax obj value: 0.198
# Max RMSD: 0.197
# Mean RMSD: 0.197
data_MOF--net-uoc--node1-NAHDIM_clean_sbu_0--edge1-CIFDUS_clean_linker_0
_symmetry_space_group_name_H-M    P1
_symmetry_Int_Tables_number       1
_symmetry_cell_setting            triclinic
loop_
_symmetry_equiv_pos_as_xyz
'x, y, z'
_cell_length_a     23.957811
_cell_length_b     23.88256
_cell_length_c     47.506375
_cell_angle_alpha  90.789428
_cell_angle_beta   90.476178
_cell_angle_gamma 94.158029
loop_
_atom_site_label
_atom_site_type_symbol
_atom_site_fract_x
_atom_site_fract_y
_atom_site_fract_z
_atom_type_partial_charge
C0 C 0.06274 0.34937 0.1048 0.0
O1 O 0.11697 0.36249 0.10555 0.0
O2 O 0.14397 0.26187 0.06293 0.0
Zn3 Zn 0.10553 0.24458 0.09935 0.0
O4 O 0.15331 0.25391 0.13403 0.0
C5 C 0.10159 0.12817 0.08611 0.0
O6 O 0.15162 0.1434 0.07654 0.0
O7 O 0.04527 0.29798 0.10263 0.0
C8 C 0.20256 0.24038 0.13937 0.0
O9 O 0.23223 0.21798 0.11962 0.0
C10 C 0.19154 0.28506 0.05669 0.0
O11 O 0.22741 0.30197 0.07662 0.0
O12 O 0.07266 0.16506 0.09719 0.0
C13 C 0.85727 0.58153 0.34971 0.0
O14 O 0.86842 0.63322 0.35903 0.0
O15 O 0.7566 0.66279 0.38169 0.0
Zn16 Zn 0.74644 0.61814 0.34585 0.0
O17 O 0.74686 0.66792 0.3123 0.0
C18 C 0.63033 0.59365 0.35771 0.0
O19 O 0.63514 0.6452 0.3679 0.0
O20 O 0.80744 0.5656 0.34248 0.0
C21 C 0.71961 0.65071 0.29043 0.0
O22 O 0.69195 0.60117 0.2906 0.0
C23 C 0.75166 0.71527 0.38381 0.0
O24 O 0.74138 0.74382 0.36114 0.0
O25 O 0.67294 0.57272 0.3473 0.0
C26 C 0.3818 0.09313 0.59872 0.0
O27 O 0.32725 0.0887 0.59499 0.0
O28 O 0.31719 0.21235 0.56742 0.0
Zn29 Zn 0.36452 0.21085 0.60242 0.0
O30 O 0.3182 0.21086 0.63754 0.0
C31 C 0.40674 0.32433 0.59277 0.0
O32 O 0.35572 0.32796 0.58294 0.0
O33 O 0.40676 0.14146 0.60237 0.0
C34 C 0.3186 0.25269 0.65441 0.0
O35 O 0.3475 0.29954 0.64804 0.0
C36 C 0.33793 0.19518 0.54462 0.0
O37 O 0.38749 0.17498 0.54532 0.0
O38 O 0.42042 0.27782 0.60239 0.0
C39 C 0.65081 0.96171 0.86406 0.0
O40 O 0.68455 0.96771 0.88601 0.0
O41 O 0.73267 0.84137 0.87861 0.0
Zn42 Zn 0.73303 0.88845 0.84412 0.0
O43 O 0.7313 0.83899 0.80966 0.0
C44 C 0.84804 0.92696 0.85339 0.0
O45 O 0.85108 0.87475 0.8613 0.0
O46 O 0.6638 0.93074 0.84353 0.0
C47 C 0.76851 0.8417 0.79073 0.0
O48 O 0.8125 0.87745 0.79382 0.0
C49 C 0.68817 0.82193 0.89048 0.0
O50 O 0.63926 0.83133 0.87953 0.0
O51 O 0.80128 0.9428 0.84498 0.0
C52 C 0.59792 0.85422 0.60123 0.0
O53 O 0.65057 0.85793 0.60943 0.0
O54 O 0.66897 0.73406 0.56013 0.0
Zn55 Zn 0.6186 0.73795 0.5935 0.0
O56 O 0.66238 0.73814 0.62954 0.0
C57 C 0.58134 0.62195 0.59571 0.0
O58 O 0.63471 0.61736 0.60103 0.0
O59 O 0.57538 0.80698 0.59297 0.0
C60 C 0.71403 0.75399 0.63164 0.0
O61 O 0.74187 0.76911 0.60894 0.0
C62 C 0.67627 0.77258 0.54207 0.0
O63 O 0.65128 0.81934 0.54537 0.0
O64 O 0.56411 0.67035 0.59195 0.0
C65 C 0.34755 0.07232 0.84085 0.0
O66 O 0.31492 0.06758 0.81844 0.0
O67 O 0.25825 0.19303 0.89269 0.0
Zn68 Zn 0.26069 0.13853 0.86042 0.0
O69 O 0.25628 0.17611 0.82323 0.0
C70 C 0.14659 0.0991 0.85852 0.0
O71 O 0.14248 0.15221 0.85251 0.0
O72 O 0.33227 0.10013 0.86205 0.0
C73 C 0.27248 0.22677 0.81828 0.0
O74 O 0.29271 0.25944 0.83897 0.0
C75 C 0.30138 0.21231 0.90641 0.0
O76 O 0.35108 0.19895 0.89836 0.0
O77 O 0.19477 0.08197 0.86313 0.0
C78 C 0.89304 0.62376 0.09639 0.0
O79 O 0.83896 0.61119 0.09352 0.0
O80 O 0.82896 0.72696 0.05045 0.0
Zn81 Zn 0.85577 0.73232 0.09027 0.0
O82 O 0.79422 0.7168 0.11806 0.0
C83 C 0.93789 0.82506 0.08444 0.0
O84 O 0.96138 0.78952 0.06772 0.0
O85 O 0.91151 0.67493 0.09573 0.0
C86 C 0.78346 0.75286 0.13678 0.0
O87 O 0.80917 0.80328 0.13611 0.0
C88 C 0.77861 0.72842 0.04217 0.0
O89 O 0.73878 0.73204 0.0608 0.0
O90 O 0.89267 0.8094 0.09671 0.0
C91 C 0.12671 0.40392 0.35286 0.0
O92 O 0.11565 0.35278 0.34278 0.0
O93 O 0.23807 0.31509 0.38807 0.0
Zn94 Zn 0.23728 0.3669 0.35548 0.0
O95 O 0.22353 0.32478 0.31908 0.0
C96 C 0.31955 0.45383 0.37141 0.0
O97 O 0.27951 0.46726 0.38841 0.0
O98 O 0.1765 0.41946 0.36031 0.0
C99 C 0.26044 0.31668 0.30071 0.0
O100 O 0.31284 0.33424 0.30578 0.0
C101 C 0.27026 0.27514 0.38784 0.0
O102 O 0.29988 0.26648 0.36524 0.0
O103 O 0.31095 0.41186 0.35483 0.0
H104 H 0.29558 0.28365 0.03392 0.0
H105 H 0.12099 0.29149 0.01239 0.0
H106 H 0.14163 0.27817 0.96276 0.0
H107 H 0.20628 0.25107 0.9267 0.0
H108 H 0.38028 0.2373 0.94772 0.0
H109 H 0.36318 0.26732 -0.00388 0.0
C110 C 0.26242 0.2837 0.01824 0.0
C111 C 0.20681 0.28769 0.02675 0.0
C112 C 0.27435 0.27439 -0.01031 0.0
C113 C 0.16406 0.28764 0.00631 0.0
C114 C 0.17577 0.28001 -0.02206 0.0
C115 C 0.24073 0.25543 0.94173 0.0
C116 C 0.29417 0.24091 0.93378 0.0
C117 C 0.23033 0.27116 0.96956 0.0
C118 C 0.33854 0.24774 0.95338 0.0
C119 C 0.32875 0.26463 -0.01889 0.0
H120 H 0.68393 0.61656 0.23824 0.0
H121 H 0.76551 0.75769 0.28383 0.0
H122 H 0.7841 0.80633 0.23967 0.0
H123 H 0.78802 0.80325 0.18823 0.0
H124 H 0.71289 0.65898 0.14265 0.0
H125 H 0.67981 0.61757 0.18675 0.0
C126 C 0.70505 0.65831 0.23857 0.0
C127 C 0.72409 0.68311 0.26422 0.0
C128 C 0.71688 0.68537 0.2131 0.0
C129 C 0.75109 0.73736 0.26431 0.0
C130 C 0.76172 0.76522 0.23907 0.0
C131 C 0.7633 0.76336 0.18786 0.0
C132 C 0.7534 0.73391 0.16228 0.0
C133 C 0.74638 0.73885 0.21333 0.0
C134 C 0.72143 0.6822 0.16215 0.0
C135 C 0.70275 0.6584 0.18735 0.0
H136 H 0.36935 0.15974 0.49304 0.0
H137 H 0.24525 0.25266 0.53487 0.0
H138 H 0.20891 0.28034 0.48938 0.0
H139 H 0.21942 0.28689 0.43826 0.0
H140 H 0.34532 0.19616 0.39654 0.0
H141 H 0.37335 0.15826 0.44152 0.0
C142 C 0.33391 0.18549 0.49222 0.0
C143 C 0.31063 0.20482 0.5173 0.0
C144 C 0.31375 0.20193 0.46604 0.0
C145 C 0.26423 0.23752 0.51587 0.0
C146 C 0.24352 0.25354 0.48987 0.0
C147 C 0.25249 0.25822 0.43891 0.0
C148 C 0.28085 0.24513 0.41413 0.0
C149 C 0.26905 0.23734 0.46488 0.0
C150 C 0.32313 0.20737 0.41533 0.0
C151 C 0.33934 0.1858 0.44106 0.0
H152 H 0.82983 0.85036 0.74278 0.0
H153 H 0.68331 0.76312 0.77839 0.0
H154 H 0.6574 0.72253 0.7324 0.0
H155 H 0.67014 0.72073 0.6815 0.0
H156 H 0.81453 0.8102 0.6452 0.0
H157 H 0.84795 0.84017 0.69215 0.0
C158 C 0.7927 0.82179 0.74057 0.0
C159 C 0.75808 0.81058 0.76389 0.0
C160 C 0.77743 0.79928 0.71393 0.0
C161 C 0.71036 0.77308 0.76071 0.0
C162 C 0.69542 0.74985 0.73441 0.0
C163 C 0.70932 0.7462 0.68384 0.0
C164 C 0.7393 0.764 0.65988 0.0
C165 C 0.72766 0.76411 0.71076 0.0
C166 C 0.79042 0.79623 0.6633 0.0
C167 C 0.80943 0.81361 0.69014 0.0
H168 H 0.32598 0.29853 0.25506 0.0
H169 H 0.15464 0.28346 0.28341 0.0
H170 H 0.1227 0.25605 0.23622 0.0
H171 H 0.142 0.24282 0.18655 0.0
H172 H 0.3121 0.25576 0.15703 0.0
H173 H 0.34607 0.27721 0.20517 0.0
C174 C 0.28175 0.28869 0.25095 0.0
C175 C 0.24277 0.29376 0.27271 0.0
C176 C 0.26339 0.27299 0.22359 0.0
C177 C 0.18561 0.28037 0.26708 0.0
C178 C 0.16717 0.26477 0.24006 0.0
C179 C 0.18659 0.25019 0.19063 0.0
C180 C 0.22451 0.24864 0.16832 0.0
C181 C 0.20552 0.26212 0.21811 0.0
C182 C 0.28216 0.25701 0.17394 0.0
C183 C 0.30149 0.26941 0.2014 0.0
H184 H 0.68177 0.83571 0.49477 0.0
H185 H 0.7369 0.68319 0.5301 0.0
H186 H 0.77227 0.65576 0.48439 0.0
H187 H 0.77656 0.66912 0.43363 0.0
H188 H 0.71804 0.81932 0.39751 0.0
H189 H 0.69597 0.8541 0.44444 0.0
C190 C 0.70236 0.79693 0.49259 0.0
C191 C 0.70578 0.76108 0.51569 0.0
C192 C 0.72163 0.78078 0.46608 0.0
C193 C 0.733 0.71119 0.51256 0.0
C194 C 0.75321 0.6954 0.48642 0.0
C195 C 0.75968 0.70985 0.43601 0.0
C196 C 0.74797 0.7411 0.41209 0.0
C197 C 0.74597 0.72893 0.46289 0.0
C198 C 0.727 0.79418 0.41558 0.0
C199 C 0.71412 0.81399 0.4424 0.0
H200 H 0.33214 0.3245 0.69927 0.0
H201 H 0.25169 0.16413 0.67338 0.0
H202 H 0.22473 0.14507 0.72188 0.0
H203 H 0.23331 0.169 0.77191 0.0
H204 H 0.3174 0.32722 0.79842 0.0
H205 H 0.33298 0.35236 0.74925 0.0
C206 C 0.30792 0.28577 0.70414 0.0
C207 C 0.29461 0.24547 0.68279 0.0
C208 C 0.29365 0.27447 0.73219 0.0
C209 C 0.26299 0.19562 0.68946 0.0
C210 C 0.24764 0.18461 0.7172 0.0
C211 C 0.25452 0.20931 0.76699 0.0
C212 C 0.27495 0.2458 0.78882 0.0
C213 C 0.26429 0.22295 0.7388 0.0
C214 C 0.30166 0.29814 0.78202 0.0
C215 C 0.31073 0.31247 0.75392 0.0
H216 H 0.67907 0.74643 0.01668 0.0
H217 H 0.85235 0.72168 -0.00076 0.0
H218 H 0.8378 0.74329 0.94998 0.0
H219 H 0.77906 0.77864 0.91307 0.0
H220 H 0.60605 0.80479 0.92979 0.0
H221 H 0.61716 0.7724 -0.02199 0.0
C222 C 0.71341 0.74499 0.00202 0.0
C223 C 0.7669 0.7334 0.01176 0.0
C224 C 0.70497 0.75805 -0.02636 0.0
C225 C 0.81086 0.73118 -0.00758 0.0
C226 C 0.80267 0.74359 0.96421 0.0
C227 C 0.74359 0.77671 0.92717 0.0
C228 C 0.69211 0.79486 0.91807 0.0
C229 C 0.7504 0.75865 0.9548 0.0
C230 C 0.64625 0.79125 0.93638 0.0
C231 C 0.65264 0.77299 0.96398 0.0
H232 H 0.00595 0.08118 0.10883 0.0
H233 H 0.14697 0.04222 0.058 0.0
H234 H 0.1092 0.94481 0.05331 0.0
H235 H 0.03546 0.87103 0.06306 0.0
H236 H 0.89505 0.9101 0.11436 0.0
H237 H 0.93348 0.00707 0.11948 0.0
C238 C 0.02845 0.05141 0.09672 0.0
C239 C 0.07907 0.06902 0.08371 0.0
C240 C 0.00666 0.99544 0.09419 0.0
C241 C 0.10788 0.0298 0.06824 0.0
C242 C 0.08631 0.97407 0.06552 0.0
C243 C 0.01331 0.9007 0.07541 0.0
C244 C 0.96239 0.88331 0.08821 0.0
C245 C 0.03564 0.95647 0.07833 0.0
C246 C 0.93433 0.92231 0.10424 0.0
C247 C 0.95621 0.97785 0.10717 0.0
H248 H 0.01797 0.3853 0.33657 0.0
H249 H 0.13585 0.51199 0.37292 0.0
H250 H 0.06301 0.57821 0.37491 0.0
H251 H 0.96601 0.60025 0.36622 0.0
H252 H 0.84826 0.4734 0.32987 0.0
H253 H 0.92109 0.40726 0.32795 0.0
C254 C 0.02776 0.42734 0.34499 0.0
C255 C 0.08225 0.44359 0.3546 0.0
C256 C 0.98576 0.46527 0.34602 0.0
C257 C 0.0942 0.49831 0.3654 0.0
C258 C 0.0526 0.53627 0.36652 0.0
C259 C 0.95626 0.55818 0.35783 0.0
C260 C 0.90177 0.54187 0.34821 0.0
C261 C -0.00173 0.52023 0.35684 0.0
C262 C 0.88986 0.48711 0.33745 0.0
C263 C 0.93146 0.44919 0.33634 0.0
H264 H 0.38595 0.43187 0.58113 0.0
H265 H 0.51745 0.32926 0.60754 0.0
H266 H 0.5831 0.41225 0.61061 0.0
H267 H 0.60296 0.51397 0.6062 0.0
H268 H 0.47086 0.61662 0.58061 0.0
H269 H 0.40568 0.53348 0.57689 0.0
C270 C 0.42901 0.42758 0.58747 0.0
C271 C 0.44674 0.37443 0.59405 0.0
C272 C 0.46642 0.47548 0.58942 0.0
C273 C 0.50265 0.3697 0.60237 0.0
C274 C 0.54025 0.41713 0.60414 0.0
C275 C 0.55994 0.51819 0.59979 0.0
C276 C 0.54188 0.57146 0.59369 0.0
C277 C 0.52255 0.47024 0.5978 0.0
C278 C 0.4859 0.57615 0.58548 0.0
C279 C 0.44856 0.52861 0.58331 0.0
H280 H 0.57132 0.95353 0.82285 0.0
H281 H 0.60833 0.02797 0.90486 0.0
H282 H 0.51749 0.06827 0.905 0.0
H283 H 0.42744 0.08175 0.882 0.0
H284 H 0.39081 0.00722 0.79996 0.0
H285 H 0.48175 0.96738 0.79979 0.0
C286 C 0.55968 0.9787 0.84075 0.0
C287 C 0.59664 0.98772 0.8638 0.0
C288 C 0.50739 0.00154 0.84075 0.0
C289 C 0.58075 0.0204 0.88682 0.0
C290 C 0.52876 0.04339 0.88695 0.0
C291 C 0.43924 0.05668 0.8641 0.0
C292 C 0.40227 0.04739 0.84105 0.0
C293 C 0.49169 0.03406 0.86407 0.0
C294 C 0.41839 0.015 0.81799 0.0
C295 C 0.47043 0.99223 0.81785 0.0
H296 H 0.86669 0.51129 0.09812 0.0
H297 H 0.00681 0.63565 0.10209 0.0
H298 H 0.07129 0.5616 0.10609 0.0
H299 H 0.08811 0.46182 0.10706 0.0
H300 H 0.94835 0.33716 0.10257 0.0
H301 H 0.88344 0.4113 0.10032 0.0
C302 C 0.91132 0.52225 0.09993 0.0
C303 C 0.93187 0.57892 0.09968 0.0
C304 C 0.94821 0.47948 0.10212 0.0
C305 C 0.98983 0.59236 0.10215 0.0
C306 C 0.02677 0.55005 0.10444 0.0
C307 C 0.04344 0.45077 0.10572 0.0
C308 C 0.02315 0.39403 0.10488 0.0
C309 C 0.00644 0.49351 0.10424 0.0
C310 C 0.96512 0.38052 0.10319 0.0
C311 C 0.92796 0.42287 0.10187 0.0
H312 H 0.41438 0.42811 0.34488 0.0
H313 H 0.34738 0.55324 0.39889 0.0
H314 H 0.43772 0.60764 0.39937 0.0
H315 H 0.53556 0.61973 0.38434 0.0
H316 H 0.60277 0.49339 0.33113 0.0
H317 H 0.51237 0.43935 0.33053 0.0
C318 C 0.41946 0.46734 0.35672 0.0
C319 C 0.37418 0.48669 0.37173 0.0
C320 C 0.47153 0.49815 0.35709 0.0
C321 C 0.38159 0.53739 0.38714 0.0
C322 C 0.43321 0.56856 0.38742 0.0
C323 C 0.53043 0.5804 0.37259 0.0
C324 C 0.57577 0.5607 0.35777 0.0
C325 C 0.47844 0.54934 0.37245 0.0
C326 C 0.56855 0.50947 0.34279 0.0
C327 C 0.51686 0.47856 0.34238 0.0
H328 H 0.49313 0.08847 0.60851 0.0
H329 H 0.34315 0.98452 0.58754 0.0
H330 H 0.39698 0.90153 0.58613 0.0
H331 H 0.48653 0.85858 0.59091 0.0
H332 H 0.63609 0.96267 0.61252 0.0
H333 H 0.58233 0.0456 0.61356 0.0
C334 C 0.47213 0.04769 0.60362 0.0
C335 C 0.41419 0.04275 0.59812 0.0
C336 C 0.50323 0.00019 0.60293 0.0
C337 C 0.38769 0.98953 0.59189 0.0
C338 C 0.41844 0.94204 0.59105 0.0
C339 C 0.50742 0.89941 0.59579 0.0
C340 C 0.56526 0.9044 0.60159 0.0
C341 C 0.47622 0.9469 0.59653 0.0
C342 C 0.59161 0.9576 0.608 0.0
C343 C 0.56092 0.00508 0.6086 0.0
H344 H 0.95475 0.90441 0.86659 0.0
H345 H 0.85498 0.03829 0.84044 0.0
H346 H 0.93839 0.10324 0.84009 0.0
H347 H 0.03955 0.12193 0.84674 0.0
H348 H 0.13975 0.98803 0.87236 0.0
H349 H 0.05612 0.92324 0.8734 0.0
C350 C 0.95118 0.94781 0.86086 0.0
C351 C 0.89864 0.96638 0.85354 0.0
C352 C -0.00064 0.98495 0.86058 0.0
C353 C 0.89487 0.02279 0.84613 0.0
C354 C 0.94256 0.06002 0.84593 0.0
C355 C 0.04318 0.07861 0.85261 0.0
C356 C 0.09588 0.05991 0.85946 0.0
C357 C 0.99501 0.04153 0.85305 0.0
C358 C 0.09972 0.00357 0.86696 0.0
C359 C 0.05191 0.96646 0.86757 0.0
loop_
_geom_bond_atom_site_label_1
_geom_bond_atom_site_label_2
_geom_bond_distance
_geom_bond_site_symmetry_2
_ccdc_geom_bond_type
C0 O1 1.160 . S
C0 O7 1.185 . S
O1 C0 1.160 . S
O2 Zn3 1.899 . S
O2 C10 1.284 . S
Zn3 O2 1.899 . S
Zn3 O4 2.032 . S
Zn3 O7 2.086 . S
Zn3 O12 1.977 . S
O4 Zn3 2.032 . S
O4 C8 1.278 . S
C5 O6 1.203 . S
C5 O12 1.267 . S
O6 C5 1.203 . S
O7 C0 1.185 . S
O7 Zn3 2.086 . S
C8 O4 1.278 . S
C8 O9 1.211 . S
O9 C8 1.211 . S
C10 O2 1.284 . S
C10 O11 1.273 . S
O11 C10 1.273 . S
O12 Zn3 1.977 . S
O12 C5 1.267 . S
C13 O14 1.160 . S
C13 O20 1.185 . S
O14 C13 1.160 . S
O15 Zn16 1.899 . S
O15 C23 1.284 . S
Zn16 O15 1.899 . S
Zn16 O17 2.032 . S
Zn16 O20 2.086 . S
Zn16 O25 1.977 . S
O17 Zn16 2.032 . S
O17 C21 1.278 . S
C18 O19 1.203 . S
C18 O25 1.267 . S
O19 C18 1.203 . S
O20 C13 1.185 . S
O20 Zn16 2.086 . S
C21 O17 1.278 . S
C21 O22 1.211 . S
O22 C21 1.211 . S
C23 O15 1.284 . S
C23 O24 1.273 . S
O24 C23 1.273 . S
O25 Zn16 1.977 . S
O25 C18 1.267 . S
C26 O27 1.160 . S
C26 O33 1.185 . S
O27 C26 1.160 . S
O28 Zn29 1.899 . S
O28 C36 1.284 . S
Zn29 O28 1.899 . S
Zn29 O30 2.032 . S
Zn29 O33 2.086 . S
Zn29 O38 1.977 . S
O30 Zn29 2.032 . S
O30 C34 1.278 . S
C31 O32 1.203 . S
C31 O38 1.267 . S
O32 C31 1.203 . S
O33 C26 1.185 . S
O33 Zn29 2.086 . S
C34 O30 1.278 . S
C34 O35 1.211 . S
O35 C34 1.211 . S
C36 O28 1.284 . S
C36 O37 1.273 . S
O37 C36 1.273 . S
O38 Zn29 1.977 . S
O38 C31 1.267 . S
C39 O40 1.160 . S
C39 O46 1.185 . S
O40 C39 1.160 . S
O41 Zn42 1.899 . S
O41 C49 1.284 . S
Zn42 O41 1.899 . S
Zn42 O43 2.032 . S
Zn42 O46 2.086 . S
Zn42 O51 1.977 . S
O43 Zn42 2.032 . S
O43 C47 1.278 . S
C44 O45 1.203 . S
C44 O51 1.267 . S
O45 C44 1.203 . S
O46 C39 1.185 . S
O46 Zn42 2.086 . S
C47 O43 1.278 . S
C47 O48 1.211 . S
O48 C47 1.211 . S
C49 O41 1.284 . S
C49 O50 1.273 . S
O50 C49 1.273 . S
O51 Zn42 1.977 . S
O51 C44 1.267 . S
C52 O53 1.160 . S
C52 O59 1.185 . S
O53 C52 1.160 . S
O54 Zn55 1.899 . S
O54 C62 1.284 . S
Zn55 O54 1.899 . S
Zn55 O56 2.032 . S
Zn55 O59 2.086 . S
Zn55 O64 1.977 . S
O56 Zn55 2.032 . S
O56 C60 1.278 . S
C57 O58 1.203 . S
C57 O64 1.267 . S
O58 C57 1.203 . S
O59 C52 1.185 . S
O59 Zn55 2.086 . S
C60 O56 1.278 . S
C60 O61 1.211 . S
O61 C60 1.211 . S
C62 O54 1.284 . S
C62 O63 1.273 . S
O63 C62 1.273 . S
O64 Zn55 1.977 . S
O64 C57 1.267 . S
C65 O66 1.160 . S
C65 O72 1.185 . S
O66 C65 1.160 . S
O67 Zn68 1.899 . S
O67 C75 1.284 . S
Zn68 O67 1.899 . S
Zn68 O69 2.032 . S
Zn68 O72 2.086 . S
Zn68 O77 1.977 . S
O69 Zn68 2.032 . S
O69 C73 1.278 . S
C70 O71 1.203 . S
C70 O77 1.267 . S
O71 C70 1.203 . S
O72 C65 1.185 . S
O72 Zn68 2.086 . S
C73 O69 1.278 . S
C73 O74 1.211 . S
O74 C73 1.211 . S
C75 O67 1.284 . S
C75 O76 1.273 . S
O76 C75 1.273 . S
O77 Zn68 1.977 . S
O77 C70 1.267 . S
C78 O79 1.160 . S
C78 O85 1.185 . S
O79 C78 1.160 . S
O80 Zn81 1.899 . S
O80 C88 1.284 . S
Zn81 O80 1.899 . S
Zn81 O82 2.032 . S
Zn81 O85 2.086 . S
Zn81 O90 1.977 . S
O82 Zn81 2.032 . S
O82 C86 1.278 . S
C83 O84 1.203 . S
C83 O90 1.267 . S
O84 C83 1.203 . S
O85 C78 1.185 . S
O85 Zn81 2.086 . S
C86 O82 1.278 . S
C86 O87 1.211 . S
O87 C86 1.211 . S
C88 O80 1.284 . S
C88 O89 1.273 . S
O89 C88 1.273 . S
O90 Zn81 1.977 . S
O90 C83 1.267 . S
C91 O92 1.160 . S
C91 O98 1.185 . S
O92 C91 1.160 . S
O93 Zn94 1.899 . S
O93 C101 1.284 . S
Zn94 O93 1.899 . S
Zn94 O95 2.032 . S
Zn94 O98 2.086 . S
Zn94 O103 1.977 . S
O95 Zn94 2.032 . S
O95 C99 1.278 . S
C96 O97 1.203 . S
C96 O103 1.267 . S
O97 C96 1.203 . S
O98 C91 1.185 . S
O98 Zn94 2.086 . S
C99 O95 1.278 . S
C99 O100 1.211 . S
O100 C99 1.211 . S
C101 O93 1.284 . S
C101 O102 1.273 . S
O102 C101 1.273 . S
O103 Zn94 1.977 . S
O103 C96 1.267 . S
H104 C110 0.930 . S
H105 C113 0.930 . S
H106 C114 0.930 . S
H107 C115 0.930 . S
H108 C118 0.930 . S
H109 C119 0.930 . S
C110 H104 0.930 . S
C110 C111 1.355 . S
C110 C112 1.415 . S
C111 C110 1.355 . S
C111 C113 1.419 . S
C112 C110 1.415 . S
C112 C117 1.425 1_554 S
C112 C119 1.409 1_554 S
C113 H105 0.930 . S
C113 C111 1.419 . S
C113 C114 1.362 . S
C114 H106 0.930 . S
C114 C113 1.362 . S
C114 C117 1.409 1_554 S
C115 H107 0.930 . S
C115 C116 1.355 . S
C115 C117 1.415 . S
C116 C115 1.355 . S
C116 C118 1.419 . S
C117 C112 1.425 1_556 S
C117 C114 1.409 1_556 S
C117 C115 1.415 . S
C118 H108 0.930 . S
C118 C116 1.419 . S
C118 C119 1.362 . S
C119 H109 0.930 . S
C119 C112 1.409 1_556 S
C119 C118 1.362 . S
H120 C126 0.930 . S
H121 C129 0.930 . S
H122 C130 0.930 . S
H123 C131 0.930 . S
H124 C134 0.930 . S
H125 C135 0.930 . S
C126 H120 0.930 . S
C126 C127 1.355 . S
C126 C128 1.415 . S
C127 C126 1.355 . S
C127 C129 1.419 . S
C128 C126 1.415 . S
C128 C133 1.425 . S
C128 C135 1.409 . S
C129 H121 0.930 . S
C129 C127 1.419 . S
C129 C130 1.362 . S
C130 H122 0.930 . S
C130 C129 1.362 . S
C130 C133 1.409 . S
C131 H123 0.930 . S
C131 C132 1.355 . S
C131 C133 1.415 . S
C132 C131 1.355 . S
C132 C134 1.419 . S
C133 C128 1.425 . S
C133 C130 1.409 . S
C133 C131 1.415 . S
C134 H124 0.930 . S
C134 C132 1.419 . S
C134 C135 1.362 . S
C135 H125 0.930 . S
C135 C128 1.409 . S
C135 C134 1.362 . S
H136 C142 0.930 . S
H137 C145 0.930 . S
H138 C146 0.930 . S
H139 C147 0.930 . S
H140 C150 0.930 . S
H141 C151 0.930 . S
C142 H136 0.930 . S
C142 C143 1.355 . S
C142 C144 1.415 . S
C143 C142 1.355 . S
C143 C145 1.419 . S
C144 C142 1.415 . S
C144 C149 1.425 . S
C144 C151 1.409 . S
C145 H137 0.930 . S
C145 C143 1.419 . S
C145 C146 1.362 . S
C146 H138 0.930 . S
C146 C145 1.362 . S
C146 C149 1.409 . S
C147 H139 0.930 . S
C147 C148 1.355 . S
C147 C149 1.415 . S
C148 C147 1.355 . S
C148 C150 1.419 . S
C149 C144 1.425 . S
C149 C146 1.409 . S
C149 C147 1.415 . S
C150 H140 0.930 . S
C150 C148 1.419 . S
C150 C151 1.362 . S
C151 H141 0.930 . S
C151 C144 1.409 . S
C151 C150 1.362 . S
H152 C158 0.930 . S
H153 C161 0.930 . S
H154 C162 0.930 . S
H155 C163 0.930 . S
H156 C166 0.930 . S
H157 C167 0.930 . S
C158 H152 0.930 . S
C158 C159 1.355 . S
C158 C160 1.415 . S
C159 C158 1.355 . S
C159 C161 1.419 . S
C160 C158 1.415 . S
C160 C165 1.425 . S
C160 C167 1.409 . S
C161 H153 0.930 . S
C161 C159 1.419 . S
C161 C162 1.362 . S
C162 H154 0.930 . S
C162 C161 1.362 . S
C162 C165 1.409 . S
C163 H155 0.930 . S
C163 C164 1.355 . S
C163 C165 1.415 . S
C164 C163 1.355 . S
C164 C166 1.419 . S
C165 C160 1.425 . S
C165 C162 1.409 . S
C165 C163 1.415 . S
C166 H156 0.930 . S
C166 C164 1.419 . S
C166 C167 1.362 . S
C167 H157 0.930 . S
C167 C160 1.409 . S
C167 C166 1.362 . S
H168 C174 0.930 . S
H169 C177 0.930 . S
H170 C178 0.930 . S
H171 C179 0.930 . S
H172 C182 0.930 . S
H173 C183 0.930 . S
C174 H168 0.930 . S
C174 C175 1.355 . S
C174 C176 1.415 . S
C175 C174 1.355 . S
C175 C177 1.419 . S
C176 C174 1.415 . S
C176 C181 1.425 . S
C176 C183 1.409 . S
C177 H169 0.930 . S
C177 C175 1.419 . S
C177 C178 1.362 . S
C178 H170 0.930 . S
C178 C177 1.362 . S
C178 C181 1.409 . S
C179 H171 0.930 . S
C179 C180 1.355 . S
C179 C181 1.415 . S
C180 C179 1.355 . S
C180 C182 1.419 . S
C181 C176 1.425 . S
C181 C178 1.409 . S
C181 C179 1.415 . S
C182 H172 0.930 . S
C182 C180 1.419 . S
C182 C183 1.362 . S
C183 H173 0.930 . S
C183 C176 1.409 . S
C183 C182 1.362 . S
H184 C190 0.930 . S
H185 C193 0.930 . S
H186 C194 0.930 . S
H187 C195 0.930 . S
H188 C198 0.930 . S
H189 C199 0.930 . S
C190 H184 0.930 . S
C190 C191 1.355 . S
C190 C192 1.415 . S
C191 C190 1.355 . S
C191 C193 1.419 . S
C192 C190 1.415 . S
C192 C197 1.425 . S
C192 C199 1.409 . S
C193 H185 0.930 . S
C193 C191 1.419 . S
C193 C194 1.362 . S
C194 H186 0.930 . S
C194 C193 1.362 . S
C194 C197 1.409 . S
C195 H187 0.930 . S
C195 C196 1.355 . S
C195 C197 1.415 . S
C196 C195 1.355 . S
C196 C198 1.419 . S
C197 C192 1.425 . S
C197 C194 1.409 . S
C197 C195 1.415 . S
C198 H188 0.930 . S
C198 C196 1.419 . S
C198 C199 1.362 . S
C199 H189 0.930 . S
C199 C192 1.409 . S
C199 C198 1.362 . S
H200 C206 0.930 . S
H201 C209 0.930 . S
H202 C210 0.930 . S
H203 C211 0.930 . S
H204 C214 0.930 . S
H205 C215 0.930 . S
C206 H200 0.930 . S
C206 C207 1.355 . S
C206 C208 1.415 . S
C207 C206 1.355 . S
C207 C209 1.419 . S
C208 C206 1.415 . S
C208 C213 1.425 . S
C208 C215 1.409 . S
C209 H201 0.930 . S
C209 C207 1.419 . S
C209 C210 1.362 . S
C210 H202 0.930 . S
C210 C209 1.362 . S
C210 C213 1.409 . S
C211 H203 0.930 . S
C211 C212 1.355 . S
C211 C213 1.415 . S
C212 C211 1.355 . S
C212 C214 1.419 . S
C213 C208 1.425 . S
C213 C210 1.409 . S
C213 C211 1.415 . S
C214 H204 0.930 . S
C214 C212 1.419 . S
C214 C215 1.362 . S
C215 H205 0.930 . S
C215 C208 1.409 . S
C215 C214 1.362 . S
H216 C222 0.930 . S
H217 C225 0.930 . S
H218 C226 0.930 . S
H219 C227 0.930 . S
H220 C230 0.930 . S
H221 C231 0.930 . S
C222 H216 0.930 . S
C222 C223 1.355 . S
C222 C224 1.415 . S
C223 C222 1.355 . S
C223 C225 1.419 . S
C224 C222 1.415 . S
C224 C229 1.425 1_554 S
C224 C231 1.409 1_554 S
C225 H217 0.930 . S
C225 C223 1.419 . S
C225 C226 1.362 . S
C226 H218 0.930 . S
C226 C225 1.362 . S
C226 C229 1.409 1_554 S
C227 H219 0.930 . S
C227 C228 1.355 . S
C227 C229 1.415 . S
C228 C227 1.355 . S
C228 C230 1.419 . S
C229 C224 1.425 1_556 S
C229 C226 1.409 1_556 S
C229 C227 1.415 . S
C230 H220 0.930 . S
C230 C228 1.419 . S
C230 C231 1.362 . S
C231 H221 0.930 . S
C231 C224 1.409 1_556 S
C231 C230 1.362 . S
H232 C238 0.930 . S
H233 C241 0.930 . S
H234 C242 0.930 1_565 S
H235 C243 0.930 . S
H236 C246 0.930 . S
H237 C247 0.930 1_545 S
C238 H232 0.930 . S
C238 C239 1.355 . S
C238 C240 1.415 1_455 S
C239 C238 1.355 . S
C239 C241 1.419 . S
C240 C238 1.415 1_655 S
C240 C245 1.425 1_645 S
C240 C247 1.409 1_545 S
C241 H233 0.930 . S
C241 C239 1.419 . S
C241 C242 1.362 . S
C242 H234 0.930 1_545 S
C242 C241 1.362 . S
C242 C245 1.409 1_545 S
C243 H235 0.930 . S
C243 C244 1.355 . S
C243 C245 1.415 1_655 S
C244 C243 1.355 . S
C244 C246 1.419 . S
C245 C240 1.425 1_465 S
C245 C242 1.409 1_565 S
C245 C243 1.415 1_455 S
C246 H236 0.930 . S
C246 C244 1.419 . S
C246 C247 1.362 . S
C247 H237 0.930 1_565 S
C247 C240 1.409 1_565 S
C247 C246 1.362 . S
H248 C254 0.930 . S
H249 C257 0.930 . S
H250 C258 0.930 . S
H251 C259 0.930 . S
H252 C262 0.930 . S
H253 C263 0.930 . S
C254 H248 0.930 . S
C254 C255 1.355 . S
C254 C256 1.415 1_455 S
C255 C254 1.355 . S
C255 C257 1.419 . S
C256 C254 1.415 1_655 S
C256 C261 1.425 1_655 S
C256 C263 1.409 . S
C257 H249 0.930 . S
C257 C255 1.419 . S
C257 C258 1.362 . S
C258 H250 0.930 . S
C258 C257 1.362 . S
C258 C261 1.409 . S
C259 H251 0.930 . S
C259 C260 1.355 . S
C259 C261 1.415 1_655 S
C260 C259 1.355 . S
C260 C262 1.419 . S
C261 C256 1.425 1_455 S
C261 C258 1.409 . S
C261 C259 1.415 1_455 S
C262 H252 0.930 . S
C262 C260 1.419 . S
C262 C263 1.362 . S
C263 H253 0.930 . S
C263 C256 1.409 . S
C263 C262 1.362 . S
H264 C270 0.930 . S
H265 C273 0.930 . S
H266 C274 0.930 . S
H267 C275 0.930 . S
H268 C278 0.930 . S
H269 C279 0.930 . S
C270 H264 0.930 . S
C270 C271 1.355 . S
C270 C272 1.415 . S
C271 C270 1.355 . S
C271 C273 1.419 . S
C272 C270 1.415 . S
C272 C277 1.425 . S
C272 C279 1.409 . S
C273 H265 0.930 . S
C273 C271 1.419 . S
C273 C274 1.362 . S
C274 H266 0.930 . S
C274 C273 1.362 . S
C274 C277 1.409 . S
C275 H267 0.930 . S
C275 C276 1.355 . S
C275 C277 1.415 . S
C276 C275 1.355 . S
C276 C278 1.419 . S
C277 C272 1.425 . S
C277 C274 1.409 . S
C277 C275 1.415 . S
C278 H268 0.930 . S
C278 C276 1.419 . S
C278 C279 1.362 . S
C279 H269 0.930 . S
C279 C272 1.409 . S
C279 C278 1.362 . S
H280 C286 0.930 1_545 S
H281 C289 0.930 . S
H282 C290 0.930 . S
H283 C291 0.930 1_565 S
H284 C294 0.930 . S
H285 C295 0.930 . S
C286 H280 0.930 1_565 S
C286 C287 1.355 . S
C286 C288 1.415 1_565 S
C287 C286 1.355 . S
C287 C289 1.419 . S
C288 C286 1.415 1_545 S
C288 C293 1.425 1_545 S
C288 C295 1.409 . S
C289 H281 0.930 . S
C289 C287 1.419 . S
C289 C290 1.362 . S
C290 H282 0.930 . S
C290 C289 1.362 . S
C290 C293 1.409 . S
C291 H283 0.930 1_545 S
C291 C292 1.355 . S
C291 C293 1.415 1_545 S
C292 C291 1.355 . S
C292 C294 1.419 . S
C293 C288 1.425 1_565 S
C293 C290 1.409 . S
C293 C291 1.415 1_565 S
C294 H284 0.930 . S
C294 C292 1.419 . S
C294 C295 1.362 . S
C295 H285 0.930 . S
C295 C288 1.409 . S
C295 C294 1.362 . S
H296 C302 0.930 . S
H297 C305 0.930 . S
H298 C306 0.930 . S
H299 C307 0.930 . S
H300 C310 0.930 . S
H301 C311 0.930 . S
C302 H296 0.930 . S
C302 C303 1.355 . S
C302 C304 1.415 . S
C303 C302 1.355 . S
C303 C305 1.419 1_655 S
C304 C302 1.415 . S
C304 C309 1.425 1_655 S
C304 C311 1.409 . S
C305 H297 0.930 . S
C305 C303 1.419 1_455 S
C305 C306 1.362 . S
C306 H298 0.930 . S
C306 C305 1.362 . S
C306 C309 1.409 . S
C307 H299 0.930 . S
C307 C308 1.355 . S
C307 C309 1.415 . S
C308 C307 1.355 . S
C308 C310 1.419 1_455 S
C309 C304 1.425 1_455 S
C309 C306 1.409 . S
C309 C307 1.415 . S
C310 H300 0.930 . S
C310 C308 1.419 1_655 S
C310 C311 1.362 . S
C311 H301 0.930 . S
C311 C304 1.409 . S
C311 C310 1.362 . S
H312 C318 0.930 . S
H313 C321 0.930 . S
H314 C322 0.930 . S
H315 C323 0.930 . S
H316 C326 0.930 . S
H317 C327 0.930 . S
C318 H312 0.930 . S
C318 C319 1.355 . S
C318 C320 1.415 . S
C319 C318 1.355 . S
C319 C321 1.419 . S
C320 C318 1.415 . S
C320 C325 1.425 . S
C320 C327 1.409 . S
C321 H313 0.930 . S
C321 C319 1.419 . S
C321 C322 1.362 . S
C322 H314 0.930 . S
C322 C321 1.362 . S
C322 C325 1.409 . S
C323 H315 0.930 . S
C323 C324 1.355 . S
C323 C325 1.415 . S
C324 C323 1.355 . S
C324 C326 1.419 . S
C325 C320 1.425 . S
C325 C322 1.409 . S
C325 C323 1.415 . S
C326 H316 0.930 . S
C326 C324 1.419 . S
C326 C327 1.362 . S
C327 H317 0.930 . S
C327 C320 1.409 . S
C327 C326 1.362 . S
H328 C334 0.930 . S
H329 C337 0.930 . S
H330 C338 0.930 . S
H331 C339 0.930 . S
H332 C342 0.930 . S
H333 C343 0.930 . S
C334 H328 0.930 . S
C334 C335 1.355 . S
C334 C336 1.415 . S
C335 C334 1.355 . S
C335 C337 1.419 . S
C336 C334 1.415 . S
C336 C341 1.425 1_545 S
C336 C343 1.409 . S
C337 H329 0.930 . S
C337 C335 1.419 . S
C337 C338 1.362 1_545 S
C338 H330 0.930 . S
C338 C337 1.362 1_565 S
C338 C341 1.409 . S
C339 H331 0.930 . S
C339 C340 1.355 . S
C339 C341 1.415 . S
C340 C339 1.355 . S
C340 C342 1.419 . S
C341 C336 1.425 1_565 S
C341 C338 1.409 . S
C341 C339 1.415 . S
C342 H332 0.930 . S
C342 C340 1.419 . S
C342 C343 1.362 1_565 S
C343 H333 0.930 . S
C343 C336 1.409 . S
C343 C342 1.362 1_545 S
H344 C350 0.930 . S
H345 C353 0.934 . S
H346 C354 0.930 . S
H347 C355 0.930 . S
H348 C358 0.934 . S
H349 C359 0.930 . S
C350 H344 0.930 . S
C350 C351 1.355 . S
C350 C352 1.415 1_655 S
C351 C350 1.355 . S
C351 C353 1.408 1_565 S
C352 C350 1.415 1_455 S
C352 C357 1.425 1_465 S
C352 C359 1.409 . S
C353 H345 0.934 . S
C353 C351 1.408 1_545 S
C353 C354 1.370 . S
C354 H346 0.930 . S
C354 C353 1.370 . S
C354 C357 1.409 . S
C355 H347 0.930 . S
C355 C356 1.355 . S
C355 C357 1.415 1_455 S
C356 C355 1.355 . S
C356 C358 1.408 1_545 S
C357 C352 1.425 1_645 S
C357 C354 1.409 . S
C357 C355 1.415 1_655 S
C358 H348 0.934 . S
C358 C356 1.408 1_565 S
C358 C359 1.370 . S
C359 H349 0.930 . S
C359 C352 1.409 . S
C359 C358 1.370 . S
C111 C10 1.148 . S
C116 C75 1.149 . S
C127 C21 1.163 . S
C132 C86 1.168 . S
C143 C36 1.153 . S
C148 C101 1.182 . S
C159 C47 1.083 . S
C164 C60 1.101 . S
C175 C99 1.155 . S
C180 C8 1.164 . S
C191 C62 1.149 . S
C196 C23 1.177 . S
C207 C34 1.082 . S
C212 C73 1.100 . S
C223 C88 1.144 . S
C228 C49 1.158 . S
C239 C5 1.470 . S
C244 C83 1.490 . S
C255 C91 1.523 . S
C260 C13 1.525 . S
C271 C31 1.521 . S
C276 C57 1.497 . S
C287 C39 1.491 . S
C292 C65 1.526 . S
C303 C78 1.532 . S
C308 C0 1.513 . S
C319 C96 1.476 . S
C324 C18 1.504 . S
C335 C26 1.494 . S
C340 C52 1.512 . S
C351 C44 1.500 . S
C356 C70 1.522 . S
