# Generated by pormake.
# Topology dmp, (4)-cn, num edge types: 1
# Building blocks:
#     Node 0, Type 0, BuildingBlock: UXUYUI_clean_sbu_0, # of connection points: 4
#     Node 1, Type 0, BuildingBlock: UXUYUI_clean_sbu_0, # of connection points: 4
#     Node 2, Type 0, BuildingBlock: UXUYUI_clean_sbu_0, # of connection points: 4
#     Node 3, Type 0, BuildingBlock: UXUYUI_clean_sbu_0, # of connection points: 4
#     Edge 4, Type (0, 0), BuildingBlock: OJICUG_clean_linker_0, # of connection points: 2
#     Edge 5, Type (0, 0), BuildingBlock: OJICUG_clean_linker_0, # of connection points: 2
#     Edge 6, Type (0, 0), BuildingBlock: OJICUG_clean_linker_0, # of connection points: 2
#     Edge 7, Type (0, 0), BuildingBlock: OJICUG_clean_linker_0, # of connection points: 2
#     Edge 8, Type (0, 0), BuildingBlock: OJICUG_clean_linker_0, # of connection points: 2
#     Edge 9, Type (0, 0), BuildingBlock: OJICUG_clean_linker_0, # of connection points: 2
#     Edge 10, Type (0, 0), BuildingBlock: OJICUG_clean_linker_0, # of connection points: 2
#     Edge 11, Type (0, 0), BuildingBlock: OJICUG_clean_linker_0, # of connection points: 2
# Relax obj value: 0.351
# Max RMSD: 0.312
# Mean RMSD: 0.312
data_MOF--net-dmp--node1-UXUYUI_clean_sbu_0--edge1-OJICUG_clean_linker_0
_symmetry_space_group_name_H-M    P1
_symmetry_Int_Tables_number       1
_symmetry_cell_setting            triclinic
loop_
_symmetry_equiv_pos_as_xyz
'x, y, z'
_cell_length_a     45.967042
_cell_length_b     19.616414
_cell_length_c     23.696284
_cell_angle_alpha  89.998128
_cell_angle_beta   90.074428
_cell_angle_gamma 89.896958
loop_
_atom_site_label
_atom_site_type_symbol
_atom_site_fract_x
_atom_site_fract_y
_atom_site_fract_z
_atom_type_partial_charge
Li0 Li 0.11504 0.29244 0.2349 0.0
Li1 Li 0.11474 0.19716 0.2972 0.0
Li2 Li 0.07874 0.20428 0.22273 0.0
Li3 Li 0.07788 0.28344 0.30822 0.0
C4 C 0.14911 0.18125 0.20033 0.0
N5 N 0.20603 0.14805 0.17462 0.0
C6 C 0.17201 0.20911 0.23156 0.0
C7 C 0.15519 0.13656 0.15595 0.0
C8 C 0.20062 0.19169 0.21796 0.0
C9 C 0.18411 0.12043 0.14359 0.0
C10 C 0.13412 0.31303 0.36471 0.0
C11 C 0.13582 0.32639 0.4659 0.0
N12 N 0.16314 0.35236 0.46164 0.0
C13 C 0.16219 0.34017 0.36137 0.0
C14 C 0.1208 0.30629 0.41742 0.0
C15 C 0.17651 0.35959 0.41083 0.0
C16 C 0.14534 0.41369 0.22824 0.0
N17 N 0.13973 0.35604 0.19856 0.0
C18 C 0.17854 0.37976 0.1347 0.0
C19 C 0.15466 0.34034 0.15076 0.0
C20 C 0.18671 0.43559 0.16819 0.0
C21 C 0.16885 0.45461 0.21362 0.0
H22 H 0.13286 0.42507 0.26574 0.0
H23 H 0.14943 0.29454 0.12753 0.0
C24 C 0.14348 0.07365 0.30233 0.0
N25 N 0.14054 0.13254 0.33199 0.0
C26 C 0.16767 0.03202 0.31066 0.0
C27 C 0.18388 0.10836 0.38421 0.0
C28 C 0.15929 0.14864 0.37442 0.0
C29 C 0.18903 0.05136 0.34988 0.0
H30 H 0.12846 0.06225 0.26848 0.0
H31 H 0.15665 0.19514 0.3979 0.0
C32 C 0.07279 0.35423 0.1854 0.0
N33 N 0.07644 0.4541 0.1036 0.0
C34 C 0.06981 0.42283 0.20017 0.0
C35 C 0.07755 0.3363 0.12908 0.0
C36 C 0.07174 0.4726 0.15817 0.0
C37 C 0.07935 0.38759 0.08833 0.0
C38 C 0.07213 0.12463 0.33678 0.0
C39 C 0.06925 0.06064 0.3115 0.0
C40 C 0.07573 0.12929 0.39521 0.0
C41 C 0.07049 0.00217 0.34509 0.0
C42 C 0.07687 0.06964 0.42735 0.0
N43 N 0.07428 0.00784 0.40183 0.0
C44 C 0.06743 0.09644 0.14888 0.0
C45 C 0.03139 0.18311 0.1491 0.0
C46 C 0.05251 0.06083 0.10695 0.0
N47 N 0.05668 0.15627 0.16885 0.0
C48 C 0.01579 0.14933 0.10698 0.0
C49 C 0.02639 0.08741 0.08519 0.0
H50 H 0.08766 0.07655 0.16551 0.0
H51 H 0.0236 0.23125 0.1655 0.0
C52 C 0.0628 0.39984 0.36835 0.0
N53 N 0.05496 0.3341 0.35901 0.0
C54 C 0.04776 0.43922 0.40765 0.0
C55 C 0.01674 0.34241 0.42672 0.0
C56 C 0.03244 0.30483 0.38698 0.0
C57 C 0.02442 0.41054 0.43758 0.0
H58 H 0.08115 0.42118 0.34597 0.0
H59 H 0.02688 0.25219 0.37876 0.0
O60 O 0.12082 0.19588 0.2139 0.0
O61 O 0.11968 0.29445 0.31653 0.0
O62 O 0.07178 0.30483 0.22601 0.0
O63 O 0.07153 0.18236 0.30444 0.0
H64 H 0.16773 0.24334 0.26621 0.0
H65 H 0.13773 0.11437 0.13142 0.0
H66 H 0.21851 0.2127 0.24197 0.0
H67 H 0.18912 0.08582 0.1094 0.0
H68 H 0.12576 0.32132 0.50692 0.0
H69 H 0.17291 0.34608 0.32107 0.0
H70 H 0.09914 0.28564 0.42103 0.0
H71 H 0.19825 0.38047 0.40881 0.0
H72 H 0.19174 0.36358 0.09931 0.0
H73 H 0.17414 0.49816 0.23979 0.0
H74 H 0.17065 0.98777 0.28393 0.0
H75 H 0.19984 0.12492 0.41494 0.0
H76 H 0.06622 0.43749 0.24362 0.0
H77 H 0.08019 0.28341 0.1171 0.0
H78 H 0.06957 0.52594 0.16897 0.0
H79 H 0.08316 0.37453 0.04461 0.0
H80 H 0.06631 0.05613 0.26638 0.0
H81 H 0.07767 0.17836 0.41553 0.0
H82 H 0.06848 0.95229 0.32603 0.0
H83 H 0.0798 0.07249 0.4726 0.0
H84 H 0.06126 0.01282 0.09204 0.0
H85 H -0.00404 0.17212 0.09093 0.0
H86 H 0.05473 0.4911 0.41534 0.0
H87 H -0.00128 0.31856 0.44844 0.0
Li88 Li 0.41373 0.77884 0.2013 0.0
Li89 Li 0.41049 0.69326 0.2822 0.0
Li90 Li 0.37553 0.69565 0.20545 0.0
Li91 Li 0.37538 0.78613 0.27275 0.0
C92 C 0.41803 0.62142 0.16534 0.0
N93 N 0.41639 0.5084 0.0958 0.0
C94 C 0.42474 0.55693 0.18684 0.0
C95 C 0.41087 0.62854 0.1083 0.0
C96 C 0.42369 0.50038 0.15105 0.0
C97 C 0.41004 0.57077 0.07389 0.0
C98 C 0.41756 0.83514 0.33157 0.0
C99 C 0.40767 0.85157 0.43057 0.0
N100 N 0.41364 0.9191 0.42484 0.0
C101 C 0.42361 0.90466 0.32664 0.0
C102 C 0.40953 0.80827 0.38391 0.0
C103 C 0.42151 0.94628 0.37431 0.0
C104 C 0.43701 0.8988 0.15601 0.0
N105 N 0.43824 0.82967 0.15344 0.0
C106 C 0.47121 0.83426 0.07581 0.0
C107 C 0.45503 0.7969 0.1148 0.0
C108 C 0.47037 0.90572 0.07754 0.0
C109 C 0.4533 0.93816 0.1186 0.0
H110 H 0.42285 0.92325 0.18629 0.0
H111 H 0.45535 0.74182 0.11352 0.0
C112 C 0.41986 0.57579 0.34702 0.0
N113 N 0.4309 0.63805 0.33406 0.0
C114 C 0.43371 0.53456 0.38687 0.0
C115 C 0.46993 0.62264 0.39931 0.0
C116 C 0.45549 0.66194 0.35892 0.0
C117 C 0.45897 0.55814 0.41388 0.0
H118 H 0.40021 0.55835 0.32645 0.0
H119 H 0.46368 0.71179 0.34773 0.0
C120 C 0.3583 0.81843 0.14409 0.0
N121 N 0.33013 0.86834 0.04952 0.0
C122 C 0.33056 0.84733 0.14879 0.0
C123 C 0.37174 0.81534 0.09127 0.0
C124 C 0.31667 0.87212 0.10049 0.0
C125 C 0.35714 0.84074 0.04398 0.0
C126 C 0.33988 0.67191 0.29899 0.0
C127 C 0.31719 0.70431 0.27017 0.0
C128 C 0.33355 0.62047 0.33785 0.0
C129 C 0.28852 0.68469 0.28067 0.0
C130 C 0.30457 0.60232 0.34724 0.0
N131 N 0.28285 0.63452 0.31868 0.0
C132 C 0.34797 0.57276 0.19073 0.0
C133 C 0.32901 0.65719 0.12923 0.0
C134 C 0.32381 0.53159 0.18155 0.0
N135 N 0.34942 0.63566 0.16692 0.0
C136 C 0.30432 0.61763 0.11898 0.0
C137 C 0.30084 0.55582 0.14797 0.0
H138 H 0.36418 0.55739 0.22132 0.0
H139 H 0.3304 0.70718 0.11076 0.0
C140 C 0.34704 0.90987 0.28454 0.0
N141 N 0.3507 0.84886 0.31061 0.0
C142 C 0.32342 0.95113 0.29834 0.0
C143 C 0.3096 0.86934 0.36978 0.0
C144 C 0.33367 0.82975 0.35474 0.0
C145 C 0.30342 0.92898 0.33919 0.0
H146 H 0.36112 0.92381 0.24987 0.0
H147 H 0.33734 0.78127 0.37526 0.0
O148 O 0.41856 0.67723 0.19997 0.0
O149 O 0.4187 0.79373 0.2852 0.0
O150 O 0.3723 0.79444 0.19113 0.0
O151 O 0.36822 0.68868 0.28799 0.0
H152 H 0.43063 0.55053 0.23069 0.0
H153 H 0.40571 0.678 0.0909 0.0
H154 H 0.42869 0.45012 0.1672 0.0
H155 H 0.40431 0.57551 0.02977 0.0
H156 H 0.40136 0.83154 0.47128 0.0
H157 H 0.4298 0.9263 0.28647 0.0
H158 H 0.40439 0.75471 0.38828 0.0
H159 H 0.42609 0.00021 0.37113 0.0
H160 H 0.48424 0.80774 0.04468 0.0
H161 H 0.45194 0.99324 0.12061 0.0
H162 H 0.42444 0.48542 0.39724 0.0
H163 H 0.48955 0.64232 0.41868 0.0
H164 H 0.31973 0.85036 0.18919 0.0
H165 H 0.39318 0.7936 0.08665 0.0
H166 H 0.29518 0.8944 0.10355 0.0
H167 H 0.3673 0.83855 0.00286 0.0
H168 H 0.3217 0.74377 0.23968 0.0
H169 H 0.35084 0.59468 0.36041 0.0
H170 H 0.27078 0.7092 0.25847 0.0
H171 H 0.29936 0.56252 0.37714 0.0
H172 H 0.32207 0.48373 0.20409 0.0
H173 H 0.28705 0.6381 0.09284 0.0
H174 H 0.31975 -0.00241 0.27465 0.0
H175 H 0.29476 0.8506 0.40165 0.0
Li176 Li 0.87404 0.80842 0.7098 0.0
Li177 Li 0.90838 0.80891 0.78768 0.0
Li178 Li 0.90638 0.71434 0.71883 0.0
Li179 Li 0.86733 0.72685 0.7878 0.0
C180 C 0.91967 0.8611 0.66598 0.0
N181 N 0.92286 0.9625 0.58536 0.0
C182 C 0.92362 0.92891 0.68225 0.0
C183 C 0.91761 0.84472 0.60873 0.0
C184 C 0.92512 0.97949 0.64084 0.0
C185 C 0.9192 0.89675 0.5686 0.0
C186 C 0.85816 0.85022 0.84283 0.0
C187 C 0.86037 0.84038 0.94418 0.0
N188 N 0.84178 0.8941 0.94891 0.0
C189 C 0.83903 0.90518 0.84865 0.0
C190 C 0.86889 0.81734 0.89092 0.0
C191 C 0.83102 0.92665 0.90267 0.0
C192 C 0.83363 0.83488 0.62285 0.0
N193 N 0.85102 0.86458 0.6622 0.0
C194 C 0.82554 0.97005 0.65277 0.0
C195 C 0.84798 0.93133 0.67631 0.0
C196 C 0.80584 0.93911 0.61535 0.0
C197 C 0.81078 0.87149 0.59864 0.0
H198 H 0.83601 0.78146 0.61334 0.0
H199 H 0.86155 0.95299 0.70901 0.0
C200 C 0.95746 0.83914 0.85452 0.0
N201 N 0.93195 0.8645 0.83449 0.0
C202 C 0.97391 0.87665 0.89309 0.0
C203 C 0.93806 0.9668 0.88779 0.0
C204 C 0.9224 0.92767 0.84919 0.0
C205 C 0.96395 0.94088 0.91095 0.0
H206 H 0.96477 0.78936 0.84115 0.0
H207 H 0.90238 0.94733 0.83156 0.0
C208 C 0.85726 0.65971 0.67008 0.0
N209 N 0.84402 0.55384 0.59754 0.0
C210 C 0.84076 0.60445 0.689 0.0
C211 C 0.86668 0.66151 0.61401 0.0
C212 C 0.83439 0.55134 0.65175 0.0
C213 C 0.85986 0.60738 0.57807 0.0
C214 C 0.91733 0.64436 0.82116 0.0
C215 C 0.90173 0.58741 0.80315 0.0
C216 C 0.94145 0.63557 0.85645 0.0
C217 C 0.91053 0.52247 0.82036 0.0
C218 C 0.94958 0.5698 0.87284 0.0
N219 N 0.9341 0.51505 0.85456 0.0
C220 C 0.95351 0.67912 0.65058 0.0
C221 C 0.92226 0.5856 0.66816 0.0
C222 C 0.97027 0.63974 0.61388 0.0
N223 N 0.92971 0.65205 0.67609 0.0
C224 C 0.93843 0.54435 0.63188 0.0
C225 C 0.9625 0.57168 0.60345 0.0
H226 H 0.95913 0.73189 0.65779 0.0
H227 H 0.90313 0.56495 0.68806 0.0
C228 C 0.81074 0.72234 0.8166 0.0
N229 N 0.83574 0.68823 0.82842 0.0
C230 C 0.78398 0.69529 0.83194 0.0
C231 C 0.80905 0.5995 0.87389 0.0
C232 C 0.83555 0.6297 0.85919 0.0
C233 C 0.78277 0.63088 0.85765 0.0
H234 H 0.81151 0.76882 0.79212 0.0
H235 H 0.85565 0.60408 0.86937 0.0
O236 O 0.91756 0.81106 0.70592 0.0
O237 O 0.86621 0.82889 0.79013 0.0
O238 O 0.86372 0.71214 0.7061 0.0
O239 O 0.9093 0.70835 0.804 0.0
H240 H 0.92527 0.94243 0.72638 0.0
H241 H 0.91476 0.79243 0.59543 0.0
H242 H 0.92801 0.03226 0.65283 0.0
H243 H 0.91752 0.88485 0.52414 0.0
H244 H 0.86855 0.81555 0.98177 0.0
H245 H 0.8305 0.93102 0.81178 0.0
H246 H 0.88367 0.77463 0.88726 0.0
H247 H 0.81627 0.9692 0.90783 0.0
H248 H 0.82215 0.02173 0.66751 0.0
H249 H 0.796 0.84594 0.57 0.0
H250 H 0.99374 0.85475 0.90997 0.0
H251 H 0.92994 0.01666 0.89956 0.0
H252 H 0.83296 0.60252 0.73202 0.0
H253 H 0.87935 0.70393 0.59858 0.0
H254 H 0.82176 0.50814 0.66592 0.0
H255 H 0.86722 0.60789 0.53473 0.0
H256 H 0.88286 0.59341 0.77645 0.0
H257 H 0.95373 0.67895 0.87127 0.0
H258 H 0.89858 0.478 0.8066 0.0
H259 H 0.96821 0.5623 0.90012 0.0
H260 H 0.98895 0.66252 0.59349 0.0
H261 H 0.93147 0.49237 0.62456 0.0
H262 H 0.76436 0.72246 0.82014 0.0
H263 H 0.80926 0.54986 0.89385 0.0
Li264 Li 0.6215 0.19742 0.70778 0.0
Li265 Li 0.58555 0.1973 0.78599 0.0
Li266 Li 0.58039 0.27552 0.70372 0.0
Li267 Li 0.61813 0.28982 0.77137 0.0
C268 C 0.57527 0.10448 0.6978 0.0
N269 N 0.56735 0.96551 0.68666 0.0
C270 C 0.59088 0.0592 0.73199 0.0
C271 C 0.55566 0.07905 0.65796 0.0
C272 C 0.58655 0.98915 0.72573 0.0
C273 C 0.55197 0.00863 0.65294 0.0
C274 C 0.64725 0.20498 0.83403 0.0
C275 C 0.6564 0.23847 0.93042 0.0
N276 N 0.68542 0.22983 0.92189 0.0
C277 C 0.67716 0.19588 0.8264 0.0
C278 C 0.63677 0.22609 0.88657 0.0
C279 C 0.6961 0.20894 0.87126 0.0
C280 C 0.67639 0.17838 0.66978 0.0
N281 N 0.64983 0.14876 0.66561 0.0
C282 C 0.66983 0.05683 0.612 0.0
C283 C 0.64587 0.09029 0.63576 0.0
C284 C 0.69794 0.08402 0.61917 0.0
C285 C 0.70082 0.14672 0.64723 0.0
H286 H 0.67871 0.22561 0.69281 0.0
H287 H 0.6244 0.06865 0.63145 0.0
C288 C 0.53535 0.14026 0.83402 0.0
N289 N 0.56481 0.14283 0.83817 0.0
C290 C 0.51931 0.10091 0.87194 0.0
C291 C 0.56428 0.06824 0.91776 0.0
C292 C 0.57946 0.10705 0.87832 0.0
C293 C 0.53386 0.06503 0.91476 0.0
H294 H 0.52437 0.16888 0.80126 0.0
H295 H 0.60293 0.10837 0.87967 0.0
C296 C 0.62498 0.30233 0.63163 0.0
N297 N 0.6317 0.3185 0.5165 0.0
C298 C 0.64126 0.35667 0.61041 0.0
C299 C 0.61204 0.25627 0.59419 0.0
C300 C 0.64442 0.36395 0.55209 0.0
C301 C 0.61572 0.26531 0.53618 0.0
C302 C 0.57141 0.34596 0.82317 0.0
C303 C 0.57377 0.41399 0.80634 0.0
C304 C 0.56428 0.33051 0.87905 0.0
C305 C 0.56942 0.46563 0.84607 0.0
C306 C 0.56006 0.38361 0.91749 0.0
N307 N 0.56273 0.44949 0.90035 0.0
C308 C 0.53095 0.29311 0.63171 0.0
C309 C 0.56226 0.38811 0.6429 0.0
C310 C 0.51357 0.32976 0.5938 0.0
N311 N 0.55476 0.32285 0.65512 0.0
C312 C 0.54564 0.4264 0.60531 0.0
C313 C 0.52093 0.39737 0.58009 0.0
H314 H 0.52563 0.24092 0.64212 0.0
H315 H 0.58156 0.41 0.66161 0.0
C316 C 0.66641 0.36831 0.76934 0.0
N317 N 0.64361 0.35608 0.80424 0.0
C318 C 0.6874 0.41594 0.78365 0.0
C319 C 0.66231 0.43575 0.87175 0.0
C320 C 0.64144 0.38764 0.85533 0.0
C321 C 0.68524 0.45111 0.83488 0.0
H322 H 0.66833 0.34094 0.73005 0.0
H323 H 0.62371 0.37563 0.88341 0.0
O324 O 0.57886 0.17339 0.70323 0.0
O325 O 0.62832 0.19356 0.79037 0.0
O326 O 0.62158 0.2952 0.68877 0.0
O327 O 0.57521 0.29467 0.78487 0.0
H328 H 0.6063 0.07769 0.7628 0.0
H329 H 0.54343 0.11343 0.63115 0.0
H330 H 0.59849 0.95355 0.75186 0.0
H331 H 0.53687 0.98825 0.62225 0.0
H332 H 0.64856 0.25531 0.97114 0.0
H333 H 0.68571 0.17863 0.78645 0.0
H334 H 0.61374 0.23379 0.89319 0.0
H335 H 0.7193 0.20231 0.86584 0.0
H336 H 0.66647 0.0093 0.58972 0.0
H337 H 0.7219 0.16953 0.65471 0.0
H338 H 0.49581 0.09943 0.86853 0.0
H339 H 0.57617 0.04032 0.94982 0.0
H340 H 0.65126 0.39309 0.6387 0.0
H341 H 0.59927 0.21402 0.6095 0.0
H342 H 0.65696 0.40581 0.53513 0.0
H343 H 0.60584 0.23004 0.50678 0.0
H344 H 0.5792 0.42677 0.76325 0.0
H345 H 0.56201 0.27808 0.89255 0.0
H346 H 0.57139 0.51852 0.83377 0.0
H347 H 0.55464 0.37244 0.96092 0.0
H348 H 0.49459 0.30558 0.57564 0.0
H349 H 0.55251 0.47774 0.59518 0.0
H350 H 0.70519 0.4254 0.75474 0.0
H351 H 0.66024 0.46161 0.91192 0.0
C352 C 0.26108 0.97357 0.39603 0.0
C353 C 0.27452 0.96218 0.34358 0.0
H354 H 0.22323 0.01091 0.43941 0.0
C355 C 0.25941 0.97915 0.29395 0.0
H356 H 0.27222 0.96078 0.43492 0.0
C357 C 0.2316 0.00703 0.29649 0.0
C358 C 0.21808 0.0186 0.34871 0.0
H359 H 0.26889 0.96978 0.25283 0.0
H360 H 0.22083 0.02048 0.25733 0.0
C361 C 0.23314 0.00217 0.3986 0.0
C362 C 0.23318 0.47713 0.20928 0.0
C363 C 0.21565 0.46749 0.16139 0.0
H364 H 0.27358 0.51233 0.24229 0.0
C365 C 0.22661 0.48534 0.10804 0.0
H366 H 0.22558 0.46265 0.25085 0.0
C367 C 0.25449 0.51353 0.10302 0.0
C368 C 0.27194 0.5229 0.15117 0.0
H369 H 0.21354 0.47816 0.07045 0.0
H370 H 0.26246 0.52766 0.06166 0.0
C371 C 0.26092 0.50448 0.20425 0.0
C372 C 0.72527 0.97356 0.61417 0.0
C373 C 0.72444 0.04421 0.60433 0.0
H374 H 0.7518 0.88498 0.62485 0.0
C375 C 0.7503 0.07749 0.58844 0.0
H376 H 0.70597 0.94616 0.62707 0.0
C377 C 0.77679 0.04238 0.58816 0.0
C378 C 0.77781 0.97304 0.60255 0.0
H379 H 0.75036 0.13152 0.5791 0.0
H380 H 0.79663 0.07008 0.57927 0.0
C381 C 0.75166 0.93833 0.61304 0.0
C382 C 0.73606 0.59756 0.81171 0.0
C383 C 0.75491 0.59244 0.85835 0.0
H384 H 0.69895 0.55771 0.76883 0.0
C385 C 0.74832 0.54531 0.90132 0.0
H386 H 0.74055 0.63202 0.77712 0.0
C387 C 0.7243 0.50176 0.89596 0.0
C388 C 0.70678 0.50465 0.84746 0.0
H389 H 0.76223 0.5405 0.93801 0.0
H390 H 0.72042 0.46345 0.92799 0.0
C391 C 0.71228 0.55444 0.8065 0.0
C392 C 0.97985 0.04726 0.04083 0.0
C393 C 0.01038 0.05081 0.03995 0.0
H394 H 0.94133 0.00923 0.00114 0.0
C395 C 0.02552 0.01879 0.9957 0.0
H396 H 0.96755 0.07044 0.07474 0.0
C397 C 0.01049 0.98351 0.95361 0.0
C398 C 0.97998 0.97972 0.95471 0.0
H399 H 0.04901 0.02156 0.99322 0.0
H400 H 0.02273 0.95975 0.91988 0.0
C401 C 0.96482 0.01218 0.99865 0.0
C402 C 0.52156 0.03545 0.01437 0.0
C403 C 0.51745 0.02446 0.95635 0.0
H404 H 0.50941 0.00667 0.09842 0.0
C405 C 0.49782 0.97421 0.93835 0.0
H406 H 0.53653 0.07419 0.0291 0.0
C407 C 0.48278 0.93492 0.97785 0.0
C408 C 0.4867 0.94634 0.03587 0.0
H409 H 0.49445 0.96475 0.89378 0.0
H410 H 0.46779 0.89621 0.96314 0.0
C411 C 0.50605 -0.00283 0.05384 0.0
C412 C 0.98714 0.5593 0.5098 0.0
C413 C 0.97866 0.53034 0.56145 0.0
H414 H 0.00765 0.54394 0.42987 0.0
C415 C 0.98515 0.46146 0.57198 0.0
H416 H 0.98195 0.61186 0.49995 0.0
C417 C -0.0001 0.42246 0.53176 0.0
C418 C 0.00842 0.4515 0.48012 0.0
H419 H 0.97916 0.43792 0.61163 0.0
H420 H 0.00504 0.36985 0.5415 0.0
C421 C 0.00183 0.52033 0.46959 0.0
C422 C 0.47807 0.44587 0.44899 0.0
C423 C 0.47373 0.51609 0.45736 0.0
H424 H 0.4967 0.35341 0.48081 0.0
C425 C 0.48384 0.54622 0.50742 0.0
H426 H 0.47071 0.42138 0.41059 0.0
C427 C 0.49849 0.5073 0.54776 0.0
C428 C 0.50353 0.43739 0.53887 0.0
H429 H 0.48031 0.59994 0.51554 0.0
H430 H 0.5059 0.53209 0.586 0.0
C431 C 0.49287 0.40692 0.48929 0.0
loop_
_geom_bond_atom_site_label_1
_geom_bond_atom_site_label_2
_geom_bond_distance
_geom_bond_site_symmetry_2
_ccdc_geom_bond_type
Li0 N17 1.990 . S
Li0 O60 1.956 . S
Li0 O61 1.970 . S
Li0 O62 1.961 . S
Li1 N25 1.990 . S
Li1 O60 1.970 . S
Li1 O61 1.956 . S
Li1 O63 1.961 . S
Li2 N47 1.990 . S
Li2 O60 1.961 . S
Li2 O62 1.956 . S
Li2 O63 1.970 . S
Li3 N53 1.990 . S
Li3 O61 1.961 . S
Li3 O62 1.970 . S
Li3 O63 1.956 . S
C4 C6 1.348 . S
C4 C7 1.356 . S
C4 O60 1.325 . S
N5 C8 1.314 . S
N5 C9 1.279 . S
C6 C4 1.348 . S
C6 C8 1.353 . S
C6 H64 0.929 . S
C7 C4 1.356 . S
C7 C9 1.358 . S
C7 H65 0.930 . S
C8 N5 1.314 . S
C8 C6 1.353 . S
C8 H66 0.930 . S
C9 N5 1.279 . S
C9 C7 1.358 . S
C9 H67 0.930 . S
C10 C13 1.348 . S
C10 C14 1.356 . S
C10 O61 1.325 . S
C11 N12 1.279 . S
C11 C14 1.358 . S
C11 H68 0.930 . S
N12 C11 1.279 . S
N12 C15 1.314 . S
C13 C10 1.348 . S
C13 C15 1.353 . S
C13 H69 0.929 . S
C14 C10 1.356 . S
C14 C11 1.358 . S
C14 H70 0.930 . S
C15 N12 1.314 . S
C15 C13 1.353 . S
C15 H71 0.930 . S
C16 N17 1.314 . S
C16 C21 1.353 . S
C16 H22 0.930 . S
N17 Li0 1.990 . S
N17 C16 1.314 . S
N17 C19 1.279 . S
C18 C19 1.358 . S
C18 C20 1.356 . S
C18 H72 0.930 . S
C19 N17 1.279 . S
C19 C18 1.358 . S
C19 H23 0.930 . S
C20 C18 1.356 . S
C20 C21 1.348 . S
C21 C16 1.353 . S
C21 C20 1.348 . S
C21 H73 0.929 . S
H22 C16 0.930 . S
H23 C19 0.930 . S
C24 N25 1.314 . S
C24 C26 1.353 1_545 S
C24 H30 0.930 . S
N25 Li1 1.990 . S
N25 C24 1.314 . S
N25 C28 1.279 . S
C26 C24 1.353 1_565 S
C26 C29 1.349 . S
C26 H74 0.929 . S
C27 C28 1.358 . S
C27 C29 1.348 1_545 S
C27 H75 0.930 . S
C28 N25 1.279 . S
C28 C27 1.358 . S
C28 H31 0.930 . S
C29 C26 1.349 . S
C29 C27 1.348 1_565 S
H30 C24 0.930 . S
H31 C28 0.930 . S
C32 C34 1.348 . S
C32 C35 1.356 . S
C32 O62 1.325 . S
N33 C36 1.314 . S
N33 C37 1.279 . S
C34 C32 1.348 . S
C34 C36 1.353 . S
C34 H76 0.929 . S
C35 C32 1.356 . S
C35 C37 1.358 . S
C35 H77 0.930 . S
C36 N33 1.314 . S
C36 C34 1.353 . S
C36 H78 0.930 . S
C37 N33 1.279 . S
C37 C35 1.358 . S
C37 H79 0.930 . S
C38 C39 1.348 . S
C38 C40 1.356 . S
C38 O63 1.325 . S
C39 C38 1.348 . S
C39 C41 1.353 . S
C39 H80 0.929 . S
C40 C38 1.356 . S
C40 C42 1.358 . S
C40 H81 0.930 . S
C41 C39 1.353 . S
C41 N43 1.314 . S
C41 H82 0.930 . S
C42 C40 1.358 . S
C42 N43 1.279 . S
C42 H83 0.930 . S
N43 C41 1.314 . S
N43 C42 1.279 . S
C44 C46 1.353 . S
C44 N47 1.314 . S
C44 H50 0.930 . S
C45 N47 1.279 . S
C45 C48 1.358 . S
C45 H51 0.930 . S
C46 C44 1.353 . S
C46 C49 1.348 . S
C46 H84 0.929 . S
N47 Li2 1.990 . S
N47 C44 1.314 . S
N47 C45 1.279 . S
C48 C45 1.358 . S
C48 C49 1.356 . S
C48 H85 0.930 . S
C49 C46 1.348 . S
C49 C48 1.356 . S
H50 C44 0.930 . S
H51 C45 0.930 . S
C52 N53 1.314 . S
C52 C54 1.353 . S
C52 H58 0.930 . S
N53 Li3 1.990 . S
N53 C52 1.314 . S
N53 C56 1.279 . S
C54 C52 1.353 . S
C54 C57 1.348 . S
C54 H86 0.929 . S
C55 C56 1.358 . S
C55 C57 1.356 . S
C55 H87 0.930 . S
C56 N53 1.279 . S
C56 C55 1.358 . S
C56 H59 0.930 . S
C57 C54 1.348 . S
C57 C55 1.356 . S
H58 C52 0.930 . S
H59 C56 0.930 . S
O60 Li0 1.956 . S
O60 Li1 1.970 . S
O60 Li2 1.961 . S
O60 C4 1.325 . S
O61 Li0 1.970 . S
O61 Li1 1.956 . S
O61 Li3 1.961 . S
O61 C10 1.325 . S
O62 Li0 1.961 . S
O62 Li2 1.956 . S
O62 Li3 1.970 . S
O62 C32 1.325 . S
O63 Li1 1.961 . S
O63 Li2 1.970 . S
O63 Li3 1.956 . S
O63 C38 1.325 . S
H64 C6 0.929 . S
H65 C7 0.930 . S
H66 C8 0.930 . S
H67 C9 0.930 . S
H68 C11 0.930 . S
H69 C13 0.929 . S
H70 C14 0.930 . S
H71 C15 0.930 . S
H72 C18 0.930 . S
H73 C21 0.929 . S
H74 C26 0.929 . S
H75 C27 0.930 . S
H76 C34 0.929 . S
H77 C35 0.930 . S
H78 C36 0.930 . S
H79 C37 0.930 . S
H80 C39 0.929 . S
H81 C40 0.930 . S
H82 C41 0.930 . S
H83 C42 0.930 . S
H84 C46 0.929 . S
H85 C48 0.930 . S
H86 C54 0.929 . S
H87 C55 0.930 . S
Li88 N105 1.990 . S
Li88 O148 1.956 . S
Li88 O149 1.970 . S
Li88 O150 1.961 . S
Li89 N113 1.990 . S
Li89 O148 1.970 . S
Li89 O149 1.956 . S
Li89 O151 1.961 . S
Li90 N135 1.990 . S
Li90 O148 1.961 . S
Li90 O150 1.956 . S
Li90 O151 1.970 . S
Li91 N141 1.990 . S
Li91 O149 1.961 . S
Li91 O150 1.970 . S
Li91 O151 1.956 . S
C92 C94 1.348 . S
C92 C95 1.356 . S
C92 O148 1.325 . S
N93 C96 1.314 . S
N93 C97 1.279 . S
C94 C92 1.348 . S
C94 C96 1.353 . S
C94 H152 0.929 . S
C95 C92 1.356 . S
C95 C97 1.358 . S
C95 H153 0.930 . S
C96 N93 1.314 . S
C96 C94 1.353 . S
C96 H154 0.930 . S
C97 N93 1.279 . S
C97 C95 1.358 . S
C97 H155 0.930 . S
C98 C101 1.348 . S
C98 C102 1.356 . S
C98 O149 1.325 . S
C99 N100 1.279 . S
C99 C102 1.358 . S
C99 H156 0.930 . S
N100 C99 1.279 . S
N100 C103 1.314 . S
C101 C98 1.348 . S
C101 C103 1.353 . S
C101 H157 0.929 . S
C102 C98 1.356 . S
C102 C99 1.358 . S
C102 H158 0.930 . S
C103 N100 1.314 . S
C103 C101 1.353 . S
C103 H159 0.930 . S
C104 N105 1.314 . S
C104 C109 1.353 . S
C104 H110 0.930 . S
N105 Li88 1.990 . S
N105 C104 1.314 . S
N105 C107 1.279 . S
C106 C107 1.358 . S
C106 C108 1.356 . S
C106 H160 0.930 . S
C107 N105 1.279 . S
C107 C106 1.358 . S
C107 H111 0.930 . S
C108 C106 1.356 . S
C108 C109 1.348 . S
C109 C104 1.353 . S
C109 C108 1.348 . S
C109 H161 0.929 . S
H110 C104 0.930 . S
H111 C107 0.930 . S
C112 N113 1.314 . S
C112 C114 1.353 . S
C112 H118 0.930 . S
N113 Li89 1.990 . S
N113 C112 1.314 . S
N113 C116 1.279 . S
C114 C112 1.353 . S
C114 C117 1.348 . S
C114 H162 0.929 . S
C115 C116 1.358 . S
C115 C117 1.356 . S
C115 H163 0.930 . S
C116 N113 1.279 . S
C116 C115 1.358 . S
C116 H119 0.930 . S
C117 C114 1.348 . S
C117 C115 1.356 . S
H118 C112 0.930 . S
H119 C116 0.930 . S
C120 C122 1.348 . S
C120 C123 1.356 . S
C120 O150 1.325 . S
N121 C124 1.314 . S
N121 C125 1.279 . S
C122 C120 1.348 . S
C122 C124 1.353 . S
C122 H164 0.929 . S
C123 C120 1.356 . S
C123 C125 1.358 . S
C123 H165 0.930 . S
C124 N121 1.314 . S
C124 C122 1.353 . S
C124 H166 0.930 . S
C125 N121 1.279 . S
C125 C123 1.358 . S
C125 H167 0.930 . S
C126 C127 1.348 . S
C126 C128 1.356 . S
C126 O151 1.325 . S
C127 C126 1.348 . S
C127 C129 1.353 . S
C127 H168 0.929 . S
C128 C126 1.356 . S
C128 C130 1.358 . S
C128 H169 0.930 . S
C129 C127 1.353 . S
C129 N131 1.314 . S
C129 H170 0.930 . S
C130 C128 1.358 . S
C130 N131 1.279 . S
C130 H171 0.930 . S
N131 C129 1.314 . S
N131 C130 1.279 . S
C132 C134 1.353 . S
C132 N135 1.314 . S
C132 H138 0.930 . S
C133 N135 1.279 . S
C133 C136 1.358 . S
C133 H139 0.930 . S
C134 C132 1.353 . S
C134 C137 1.348 . S
C134 H172 0.929 . S
N135 Li90 1.990 . S
N135 C132 1.314 . S
N135 C133 1.279 . S
C136 C133 1.358 . S
C136 C137 1.356 . S
C136 H173 0.930 . S
C137 C134 1.348 . S
C137 C136 1.356 . S
H138 C132 0.930 . S
H139 C133 0.930 . S
C140 N141 1.314 . S
C140 C142 1.353 1_565 S
C140 H146 0.930 . S
N141 Li91 1.990 . S
N141 C140 1.314 . S
N141 C144 1.279 . S
C142 C140 1.353 1_545 S
C142 C145 1.349 . S
C142 H174 0.929 . S
C143 C144 1.358 . S
C143 C145 1.348 1_565 S
C143 H175 0.930 . S
C144 N141 1.279 . S
C144 C143 1.358 . S
C144 H147 0.930 . S
C145 C142 1.349 . S
C145 C143 1.348 1_545 S
H146 C140 0.930 . S
H147 C144 0.930 . S
O148 Li88 1.956 . S
O148 Li89 1.970 . S
O148 Li90 1.961 . S
O148 C92 1.325 . S
O149 Li88 1.970 . S
O149 Li89 1.956 . S
O149 Li91 1.961 . S
O149 C98 1.325 . S
O150 Li88 1.961 . S
O150 Li90 1.956 . S
O150 Li91 1.970 . S
O150 C120 1.325 . S
O151 Li89 1.961 . S
O151 Li90 1.970 . S
O151 Li91 1.956 . S
O151 C126 1.325 . S
H152 C94 0.929 . S
H153 C95 0.930 . S
H154 C96 0.930 . S
H155 C97 0.930 . S
H156 C99 0.930 . S
H157 C101 0.929 . S
H158 C102 0.930 . S
H159 C103 0.930 . S
H160 C106 0.930 . S
H161 C109 0.929 . S
H162 C114 0.929 . S
H163 C115 0.930 . S
H164 C122 0.929 . S
H165 C123 0.930 . S
H166 C124 0.930 . S
H167 C125 0.930 . S
H168 C127 0.929 . S
H169 C128 0.930 . S
H170 C129 0.930 . S
H171 C130 0.930 . S
H172 C134 0.929 . S
H173 C136 0.930 . S
H174 C142 0.929 . S
H175 C143 0.930 . S
Li176 N193 1.990 . S
Li176 O236 1.956 . S
Li176 O237 1.970 . S
Li176 O238 1.961 . S
Li177 N201 1.990 . S
Li177 O236 1.970 . S
Li177 O237 1.956 . S
Li177 O239 1.961 . S
Li178 N223 1.990 . S
Li178 O236 1.961 . S
Li178 O238 1.956 . S
Li178 O239 1.970 . S
Li179 N229 1.990 . S
Li179 O237 1.961 . S
Li179 O238 1.970 . S
Li179 O239 1.956 . S
C180 C182 1.348 . S
C180 C183 1.356 . S
C180 O236 1.325 . S
N181 C184 1.314 . S
N181 C185 1.279 . S
C182 C180 1.348 . S
C182 C184 1.353 . S
C182 H240 0.929 . S
C183 C180 1.356 . S
C183 C185 1.358 . S
C183 H241 0.930 . S
C184 N181 1.314 . S
C184 C182 1.353 . S
C184 H242 0.930 . S
C185 N181 1.279 . S
C185 C183 1.358 . S
C185 H243 0.930 . S
C186 C189 1.348 . S
C186 C190 1.356 . S
C186 O237 1.325 . S
C187 N188 1.279 . S
C187 C190 1.358 . S
C187 H244 0.930 . S
N188 C187 1.279 . S
N188 C191 1.314 . S
C189 C186 1.348 . S
C189 C191 1.353 . S
C189 H245 0.929 . S
C190 C186 1.356 . S
C190 C187 1.358 . S
C190 H246 0.930 . S
C191 N188 1.314 . S
C191 C189 1.353 . S
C191 H247 0.930 . S
C192 N193 1.314 . S
C192 C197 1.353 . S
C192 H198 0.930 . S
N193 Li176 1.990 . S
N193 C192 1.314 . S
N193 C195 1.279 . S
C194 C195 1.358 1_545 S
C194 C196 1.357 . S
C194 H248 0.930 . S
C195 N193 1.279 . S
C195 C194 1.358 1_565 S
C195 H199 0.930 . S
C196 C194 1.357 . S
C196 C197 1.336 1_545 S
C197 C192 1.353 . S
C197 C196 1.336 1_565 S
C197 H249 0.929 . S
H198 C192 0.930 . S
H199 C195 0.930 . S
C200 N201 1.314 . S
C200 C202 1.353 . S
C200 H206 0.930 . S
N201 Li177 1.990 . S
N201 C200 1.314 . S
N201 C204 1.279 . S
C202 C200 1.353 . S
C202 C205 1.348 . S
C202 H250 0.929 . S
C203 C204 1.358 . S
C203 C205 1.356 . S
C203 H251 0.930 . S
C204 N201 1.279 . S
C204 C203 1.358 . S
C204 H207 0.930 . S
C205 C202 1.348 . S
C205 C203 1.356 . S
H206 C200 0.930 . S
H207 C204 0.930 . S
C208 C210 1.348 . S
C208 C211 1.356 . S
C208 O238 1.325 . S
N209 C212 1.314 . S
N209 C213 1.279 . S
C210 C208 1.348 . S
C210 C212 1.353 . S
C210 H252 0.929 . S
C211 C208 1.356 . S
C211 C213 1.358 . S
C211 H253 0.930 . S
C212 N209 1.314 . S
C212 C210 1.353 . S
C212 H254 0.930 . S
C213 N209 1.279 . S
C213 C211 1.358 . S
C213 H255 0.930 . S
C214 C215 1.348 . S
C214 C216 1.356 . S
C214 O239 1.325 . S
C215 C214 1.348 . S
C215 C217 1.353 . S
C215 H256 0.929 . S
C216 C214 1.356 . S
C216 C218 1.358 . S
C216 H257 0.930 . S
C217 C215 1.353 . S
C217 N219 1.314 . S
C217 H258 0.930 . S
C218 C216 1.358 . S
C218 N219 1.279 . S
C218 H259 0.930 . S
N219 C217 1.314 . S
N219 C218 1.279 . S
C220 C222 1.353 . S
C220 N223 1.314 . S
C220 H226 0.930 . S
C221 N223 1.279 . S
C221 C224 1.358 . S
C221 H227 0.930 . S
C222 C220 1.353 . S
C222 C225 1.348 . S
C222 H260 0.929 . S
N223 Li178 1.990 . S
N223 C220 1.314 . S
N223 C221 1.279 . S
C224 C221 1.358 . S
C224 C225 1.356 . S
C224 H261 0.930 . S
C225 C222 1.348 . S
C225 C224 1.356 . S
H226 C220 0.930 . S
H227 C221 0.930 . S
C228 N229 1.314 . S
C228 C230 1.353 . S
C228 H234 0.930 . S
N229 Li179 1.990 . S
N229 C228 1.314 . S
N229 C232 1.279 . S
C230 C228 1.353 . S
C230 C233 1.348 . S
C230 H262 0.929 . S
C231 C232 1.358 . S
C231 C233 1.356 . S
C231 H263 0.930 . S
C232 N229 1.279 . S
C232 C231 1.358 . S
C232 H235 0.930 . S
C233 C230 1.348 . S
C233 C231 1.356 . S
H234 C228 0.930 . S
H235 C232 0.930 . S
O236 Li176 1.956 . S
O236 Li177 1.970 . S
O236 Li178 1.961 . S
O236 C180 1.325 . S
O237 Li176 1.970 . S
O237 Li177 1.956 . S
O237 Li179 1.961 . S
O237 C186 1.325 . S
O238 Li176 1.961 . S
O238 Li178 1.956 . S
O238 Li179 1.970 . S
O238 C208 1.325 . S
O239 Li177 1.961 . S
O239 Li178 1.970 . S
O239 Li179 1.956 . S
O239 C214 1.325 . S
H240 C182 0.929 . S
H241 C183 0.930 . S
H242 C184 0.930 . S
H243 C185 0.930 . S
H244 C187 0.930 . S
H245 C189 0.929 . S
H246 C190 0.930 . S
H247 C191 0.930 . S
H248 C194 0.930 . S
H249 C197 0.929 . S
H250 C202 0.929 . S
H251 C203 0.930 . S
H252 C210 0.929 . S
H253 C211 0.930 . S
H254 C212 0.930 . S
H255 C213 0.930 . S
H256 C215 0.929 . S
H257 C216 0.930 . S
H258 C217 0.930 . S
H259 C218 0.930 . S
H260 C222 0.929 . S
H261 C224 0.930 . S
H262 C230 0.929 . S
H263 C231 0.930 . S
Li264 N281 1.990 . S
Li264 O324 1.956 . S
Li264 O325 1.970 . S
Li264 O326 1.961 . S
Li265 N289 1.990 . S
Li265 O324 1.970 . S
Li265 O325 1.956 . S
Li265 O327 1.961 . S
Li266 N311 1.990 . S
Li266 O324 1.961 . S
Li266 O326 1.956 . S
Li266 O327 1.970 . S
Li267 N317 1.990 . S
Li267 O325 1.961 . S
Li267 O326 1.970 . S
Li267 O327 1.956 . S
C268 C270 1.348 . S
C268 C271 1.356 . S
C268 O324 1.325 . S
N269 C272 1.314 . S
N269 C273 1.279 . S
C270 C268 1.348 . S
C270 C272 1.353 . S
C270 H328 0.929 . S
C271 C268 1.356 . S
C271 C273 1.358 . S
C271 H329 0.930 . S
C272 N269 1.314 . S
C272 C270 1.353 . S
C272 H330 0.930 . S
C273 N269 1.279 . S
C273 C271 1.358 . S
C273 H331 0.930 . S
C274 C277 1.348 . S
C274 C278 1.356 . S
C274 O325 1.325 . S
C275 N276 1.279 . S
C275 C278 1.358 . S
C275 H332 0.930 . S
N276 C275 1.279 . S
N276 C279 1.314 . S
C277 C274 1.348 . S
C277 C279 1.353 . S
C277 H333 0.929 . S
C278 C274 1.356 . S
C278 C275 1.358 . S
C278 H334 0.930 . S
C279 N276 1.314 . S
C279 C277 1.353 . S
C279 H335 0.930 . S
C280 N281 1.314 . S
C280 C285 1.353 . S
C280 H286 0.930 . S
N281 Li264 1.990 . S
N281 C280 1.314 . S
N281 C283 1.279 . S
C282 C283 1.358 1_565 S
C282 C284 1.357 . S
C282 H336 0.930 . S
C283 N281 1.279 . S
C283 C282 1.358 1_545 S
C283 H287 0.930 . S
C284 C282 1.357 . S
C284 C285 1.336 1_565 S
C285 C280 1.353 . S
C285 C284 1.336 1_545 S
C285 H337 0.929 . S
H286 C280 0.930 . S
H287 C283 0.930 . S
C288 N289 1.314 . S
C288 C290 1.353 . S
C288 H294 0.930 . S
N289 Li265 1.990 . S
N289 C288 1.314 . S
N289 C292 1.279 . S
C290 C288 1.353 . S
C290 C293 1.348 . S
C290 H338 0.929 . S
C291 C292 1.358 . S
C291 C293 1.356 . S
C291 H339 0.930 . S
C292 N289 1.279 . S
C292 C291 1.358 . S
C292 H295 0.930 . S
C293 C290 1.348 . S
C293 C291 1.356 . S
H294 C288 0.930 . S
H295 C292 0.930 . S
C296 C298 1.348 . S
C296 C299 1.356 . S
C296 O326 1.325 . S
N297 C300 1.314 . S
N297 C301 1.279 . S
C298 C296 1.348 . S
C298 C300 1.353 . S
C298 H340 0.929 . S
C299 C296 1.356 . S
C299 C301 1.358 . S
C299 H341 0.930 . S
C300 N297 1.314 . S
C300 C298 1.353 . S
C300 H342 0.930 . S
C301 N297 1.279 . S
C301 C299 1.358 . S
C301 H343 0.930 . S
C302 C303 1.348 . S
C302 C304 1.356 . S
C302 O327 1.325 . S
C303 C302 1.348 . S
C303 C305 1.353 . S
C303 H344 0.929 . S
C304 C302 1.356 . S
C304 C306 1.358 . S
C304 H345 0.930 . S
C305 C303 1.353 . S
C305 N307 1.314 . S
C305 H346 0.930 . S
C306 C304 1.358 . S
C306 N307 1.279 . S
C306 H347 0.930 . S
N307 C305 1.314 . S
N307 C306 1.279 . S
C308 C310 1.353 . S
C308 N311 1.314 . S
C308 H314 0.930 . S
C309 N311 1.279 . S
C309 C312 1.358 . S
C309 H315 0.930 . S
C310 C308 1.353 . S
C310 C313 1.348 . S
C310 H348 0.929 . S
N311 Li266 1.990 . S
N311 C308 1.314 . S
N311 C309 1.279 . S
C312 C309 1.358 . S
C312 C313 1.356 . S
C312 H349 0.930 . S
C313 C310 1.348 . S
C313 C312 1.356 . S
H314 C308 0.930 . S
H315 C309 0.930 . S
C316 N317 1.314 . S
C316 C318 1.353 . S
C316 H322 0.930 . S
N317 Li267 1.990 . S
N317 C316 1.314 . S
N317 C320 1.279 . S
C318 C316 1.353 . S
C318 C321 1.348 . S
C318 H350 0.929 . S
C319 C320 1.358 . S
C319 C321 1.356 . S
C319 H351 0.930 . S
C320 N317 1.279 . S
C320 C319 1.358 . S
C320 H323 0.930 . S
C321 C318 1.348 . S
C321 C319 1.356 . S
H322 C316 0.930 . S
H323 C320 0.930 . S
O324 Li264 1.956 . S
O324 Li265 1.970 . S
O324 Li266 1.961 . S
O324 C268 1.325 . S
O325 Li264 1.970 . S
O325 Li265 1.956 . S
O325 Li267 1.961 . S
O325 C274 1.325 . S
O326 Li264 1.961 . S
O326 Li266 1.956 . S
O326 Li267 1.970 . S
O326 C296 1.325 . S
O327 Li265 1.961 . S
O327 Li266 1.970 . S
O327 Li267 1.956 . S
O327 C302 1.325 . S
H328 C270 0.929 . S
H329 C271 0.930 . S
H330 C272 0.930 . S
H331 C273 0.930 . S
H332 C275 0.930 . S
H333 C277 0.929 . S
H334 C278 0.930 . S
H335 C279 0.930 . S
H336 C282 0.930 . S
H337 C285 0.929 . S
H338 C290 0.929 . S
H339 C291 0.930 . S
H340 C298 0.929 . S
H341 C299 0.930 . S
H342 C300 0.930 . S
H343 C301 0.930 . S
H344 C303 0.929 . S
H345 C304 0.930 . S
H346 C305 0.930 . S
H347 C306 0.930 . S
H348 C310 0.929 . S
H349 C312 0.930 . S
H350 C318 0.929 . S
H351 C319 0.930 . S
C352 C353 1.387 . S
C352 H356 0.950 . S
C352 C361 1.390 1_545 S
C353 C352 1.387 . S
C353 C355 1.387 . S
H354 C361 0.950 . S
C355 C353 1.387 . S
C355 C357 1.390 1_545 S
C355 H359 0.950 . S
H356 C352 0.950 . S
C357 C355 1.390 1_565 S
C357 C358 1.387 . S
C357 H360 0.950 . S
C358 C357 1.387 . S
C358 C361 1.387 . S
H359 C355 0.950 . S
H360 C357 0.950 . S
C361 C352 1.390 1_565 S
C361 H354 0.950 . S
C361 C358 1.387 . S
C362 C363 1.387 . S
C362 H366 0.950 . S
C362 C371 1.390 . S
C363 C362 1.387 . S
C363 C365 1.387 . S
H364 C371 0.950 . S
C365 C363 1.387 . S
C365 C367 1.390 . S
C365 H369 0.950 . S
H366 C362 0.950 . S
C367 C365 1.390 . S
C367 C368 1.387 . S
C367 H370 0.950 . S
C368 C367 1.387 . S
C368 C371 1.387 . S
H369 C365 0.950 . S
H370 C367 0.950 . S
C371 C362 1.390 . S
C371 H364 0.950 . S
C371 C368 1.387 . S
C372 C373 1.387 . S
C372 H376 0.950 . S
C372 C381 1.390 1_565 S
C373 C372 1.387 . S
C373 C375 1.387 . S
H374 C381 0.950 . S
C375 C373 1.387 . S
C375 C377 1.390 1_565 S
C375 H379 0.950 . S
H376 C372 0.950 . S
C377 C375 1.390 1_545 S
C377 C378 1.387 . S
C377 H380 0.950 . S
C378 C377 1.387 . S
C378 C381 1.387 . S
H379 C375 0.950 . S
H380 C377 0.950 . S
C381 C372 1.390 1_545 S
C381 H374 0.950 . S
C381 C378 1.387 . S
C382 C383 1.387 . S
C382 H386 0.950 . S
C382 C391 1.390 . S
C383 C382 1.387 . S
C383 C385 1.387 . S
H384 C391 0.950 . S
C385 C383 1.387 . S
C385 C387 1.390 . S
C385 H389 0.950 . S
H386 C382 0.950 . S
C387 C385 1.390 . S
C387 C388 1.387 . S
C387 H390 0.950 . S
C388 C387 1.387 . S
C388 C391 1.387 . S
H389 C385 0.950 . S
H390 C387 0.950 . S
C391 C382 1.390 . S
C391 H384 0.950 . S
C391 C388 1.387 . S
C392 C393 1.389 1_655 S
C392 H396 0.950 . S
C392 C401 1.389 1_545 S
C393 C392 1.389 1_455 S
C393 C395 1.387 1_554 S
H394 C401 0.950 . S
C395 C393 1.387 1_556 S
C395 C397 1.397 1_545 S
C395 H399 0.950 . S
H396 C392 0.950 . S
C397 C395 1.397 1_565 S
C397 C398 1.381 1_455 S
C397 H400 0.950 . S
C398 C397 1.381 1_655 S
C398 C401 1.387 1_556 S
H399 C395 0.950 . S
H400 C397 0.950 . S
C401 C392 1.389 1_565 S
C401 H394 0.950 . S
C401 C398 1.387 1_554 S
C402 C403 1.387 1_554 S
C402 H406 0.950 . S
C402 C411 1.390 1_545 S
C403 C402 1.387 1_556 S
C403 C405 1.387 . S
H404 C411 0.950 . S
C405 C403 1.387 . S
C405 C407 1.390 1_545 S
C405 H409 0.950 . S
H406 C402 0.950 . S
C407 C405 1.390 1_565 S
C407 C408 1.387 1_556 S
C407 H410 0.950 . S
C408 C407 1.387 1_554 S
C408 C411 1.387 . S
H409 C405 0.950 . S
H410 C407 0.950 . S
C411 C402 1.390 1_565 S
C411 H404 0.950 . S
C411 C408 1.387 . S
C412 C413 1.387 . S
C412 H416 0.950 . S
C412 C421 1.390 1_655 S
C413 C412 1.387 . S
C413 C415 1.387 . S
H414 C421 0.950 . S
C415 C413 1.387 . S
C415 C417 1.390 1_655 S
C415 H419 0.950 . S
H416 C412 0.950 . S
C417 C415 1.390 1_455 S
C417 C418 1.387 . S
C417 H420 0.950 . S
C418 C417 1.387 . S
C418 C421 1.387 . S
H419 C415 0.950 . S
H420 C417 0.950 . S
C421 C412 1.390 1_455 S
C421 H414 0.950 . S
C421 C418 1.387 . S
C422 C423 1.387 . S
C422 H426 0.950 . S
C422 C431 1.390 . S
C423 C422 1.387 . S
C423 C425 1.387 . S
H424 C431 0.950 . S
C425 C423 1.387 . S
C425 C427 1.390 . S
C425 H429 0.950 . S
H426 C422 0.950 . S
C427 C425 1.390 . S
C427 C428 1.387 . S
C427 H430 0.950 . S
C428 C427 1.387 . S
C428 C431 1.387 . S
H429 C425 0.950 . S
H430 C427 0.950 . S
C431 C422 1.390 . S
C431 H424 0.950 . S
C431 C428 1.387 . S
C353 C145 1.248 . S
C358 C29 1.248 . S
C363 C20 1.251 . S
C368 C137 1.251 . S
C373 C284 1.260 . S
C378 C196 1.260 . S
C383 C233 1.257 . S
C388 C321 1.257 . S
C393 C49 2.051 . S
C398 C205 2.045 . S
C403 C293 2.045 . S
C408 C108 2.051 . S
C413 C225 2.045 . S
C418 C57 2.051 . S
C423 C117 2.052 . S
C428 C313 2.046 . S
