# Generated by pormake.
# Topology som, (6)-cn, num edge types: 1
# Building blocks:
#     Node 0, Type 0, BuildingBlock: BETFAJ_clean_sbu_0, # of connection points: 6
#     Node 1, Type 0, BuildingBlock: BETFAJ_clean_sbu_0, # of connection points: 6
#     Node 2, Type 0, BuildingBlock: BETFAJ_clean_sbu_0, # of connection points: 6
#     Node 3, Type 0, BuildingBlock: BETFAJ_clean_sbu_0, # of connection points: 6
#     Node 4, Type 0, BuildingBlock: BETFAJ_clean_sbu_0, # of connection points: 6
#     Node 5, Type 0, BuildingBlock: BETFAJ_clean_sbu_0, # of connection points: 6
#     Node 6, Type 0, BuildingBlock: BETFAJ_clean_sbu_0, # of connection points: 6
#     Node 7, Type 0, BuildingBlock: BETFAJ_clean_sbu_0, # of connection points: 6
#     Node 8, Type 0, BuildingBlock: BETFAJ_clean_sbu_0, # of connection points: 6
#     Node 9, Type 0, BuildingBlock: BETFAJ_clean_sbu_0, # of connection points: 6
#     Node 10, Type 0, BuildingBlock: BETFAJ_clean_sbu_0, # of connection points: 6
#     Node 11, Type 0, BuildingBlock: BETFAJ_clean_sbu_0, # of connection points: 6
#     Node 12, Type 0, BuildingBlock: BETFAJ_clean_sbu_0, # of connection points: 6
#     Node 13, Type 0, BuildingBlock: BETFAJ_clean_sbu_0, # of connection points: 6
#     Node 14, Type 0, BuildingBlock: BETFAJ_clean_sbu_0, # of connection points: 6
#     Node 15, Type 0, BuildingBlock: BETFAJ_clean_sbu_0, # of connection points: 6
#     Node 16, Type 0, BuildingBlock: BETFAJ_clean_sbu_0, # of connection points: 6
#     Node 17, Type 0, BuildingBlock: BETFAJ_clean_sbu_0, # of connection points: 6
#     Node 18, Type 0, BuildingBlock: BETFAJ_clean_sbu_0, # of connection points: 6
#     Node 19, Type 0, BuildingBlock: BETFAJ_clean_sbu_0, # of connection points: 6
#     Node 20, Type 0, BuildingBlock: BETFAJ_clean_sbu_0, # of connection points: 6
#     Node 21, Type 0, BuildingBlock: BETFAJ_clean_sbu_0, # of connection points: 6
#     Node 22, Type 0, BuildingBlock: BETFAJ_clean_sbu_0, # of connection points: 6
#     Node 23, Type 0, BuildingBlock: BETFAJ_clean_sbu_0, # of connection points: 6
#     Node 24, Type 0, BuildingBlock: BETFAJ_clean_sbu_0, # of connection points: 6
#     Node 25, Type 0, BuildingBlock: BETFAJ_clean_sbu_0, # of connection points: 6
#     Node 26, Type 0, BuildingBlock: BETFAJ_clean_sbu_0, # of connection points: 6
#     Node 27, Type 0, BuildingBlock: BETFAJ_clean_sbu_0, # of connection points: 6
#     Node 28, Type 0, BuildingBlock: BETFAJ_clean_sbu_0, # of connection points: 6
#     Node 29, Type 0, BuildingBlock: BETFAJ_clean_sbu_0, # of connection points: 6
#     Node 30, Type 0, BuildingBlock: BETFAJ_clean_sbu_0, # of connection points: 6
#     Node 31, Type 0, BuildingBlock: BETFAJ_clean_sbu_0, # of connection points: 6
#     Edge 32, Type (0, 0), BuildingBlock: KIFKEQ_clean_linker_1, # of connection points: 2
#     Edge 33, Type (0, 0), BuildingBlock: KIFKEQ_clean_linker_1, # of connection points: 2
#     Edge 34, Type (0, 0), BuildingBlock: KIFKEQ_clean_linker_1, # of connection points: 2
#     Edge 35, Type (0, 0), BuildingBlock: KIFKEQ_clean_linker_1, # of connection points: 2
#     Edge 36, Type (0, 0), BuildingBlock: KIFKEQ_clean_linker_1, # of connection points: 2
#     Edge 37, Type (0, 0), BuildingBlock: KIFKEQ_clean_linker_1, # of connection points: 2
#     Edge 38, Type (0, 0), BuildingBlock: KIFKEQ_clean_linker_1, # of connection points: 2
#     Edge 39, Type (0, 0), BuildingBlock: KIFKEQ_clean_linker_1, # of connection points: 2
#     Edge 40, Type (0, 0), BuildingBlock: KIFKEQ_clean_linker_1, # of connection points: 2
#     Edge 41, Type (0, 0), BuildingBlock: KIFKEQ_clean_linker_1, # of connection points: 2
#     Edge 42, Type (0, 0), BuildingBlock: KIFKEQ_clean_linker_1, # of connection points: 2
#     Edge 43, Type (0, 0), BuildingBlock: KIFKEQ_clean_linker_1, # of connection points: 2
#     Edge 44, Type (0, 0), BuildingBlock: KIFKEQ_clean_linker_1, # of connection points: 2
#     Edge 45, Type (0, 0), BuildingBlock: KIFKEQ_clean_linker_1, # of connection points: 2
#     Edge 46, Type (0, 0), BuildingBlock: KIFKEQ_clean_linker_1, # of connection points: 2
#     Edge 47, Type (0, 0), BuildingBlock: KIFKEQ_clean_linker_1, # of connection points: 2
#     Edge 48, Type (0, 0), BuildingBlock: KIFKEQ_clean_linker_1, # of connection points: 2
#     Edge 49, Type (0, 0), BuildingBlock: KIFKEQ_clean_linker_1, # of connection points: 2
#     Edge 50, Type (0, 0), BuildingBlock: KIFKEQ_clean_linker_1, # of connection points: 2
#     Edge 51, Type (0, 0), BuildingBlock: KIFKEQ_clean_linker_1, # of connection points: 2
#     Edge 52, Type (0, 0), BuildingBlock: KIFKEQ_clean_linker_1, # of connection points: 2
#     Edge 53, Type (0, 0), BuildingBlock: KIFKEQ_clean_linker_1, # of connection points: 2
#     Edge 54, Type (0, 0), BuildingBlock: KIFKEQ_clean_linker_1, # of connection points: 2
#     Edge 55, Type (0, 0), BuildingBlock: KIFKEQ_clean_linker_1, # of connection points: 2
#     Edge 56, Type (0, 0), BuildingBlock: KIFKEQ_clean_linker_1, # of connection points: 2
#     Edge 57, Type (0, 0), BuildingBlock: KIFKEQ_clean_linker_1, # of connection points: 2
#     Edge 58, Type (0, 0), BuildingBlock: KIFKEQ_clean_linker_1, # of connection points: 2
#     Edge 59, Type (0, 0), BuildingBlock: KIFKEQ_clean_linker_1, # of connection points: 2
#     Edge 60, Type (0, 0), BuildingBlock: KIFKEQ_clean_linker_1, # of connection points: 2
#     Edge 61, Type (0, 0), BuildingBlock: KIFKEQ_clean_linker_1, # of connection points: 2
#     Edge 62, Type (0, 0), BuildingBlock: KIFKEQ_clean_linker_1, # of connection points: 2
#     Edge 63, Type (0, 0), BuildingBlock: KIFKEQ_clean_linker_1, # of connection points: 2
#     Edge 64, Type (0, 0), BuildingBlock: KIFKEQ_clean_linker_1, # of connection points: 2
#     Edge 65, Type (0, 0), BuildingBlock: KIFKEQ_clean_linker_1, # of connection points: 2
#     Edge 66, Type (0, 0), BuildingBlock: KIFKEQ_clean_linker_1, # of connection points: 2
#     Edge 67, Type (0, 0), BuildingBlock: KIFKEQ_clean_linker_1, # of connection points: 2
#     Edge 68, Type (0, 0), BuildingBlock: KIFKEQ_clean_linker_1, # of connection points: 2
#     Edge 69, Type (0, 0), BuildingBlock: KIFKEQ_clean_linker_1, # of connection points: 2
#     Edge 70, Type (0, 0), BuildingBlock: KIFKEQ_clean_linker_1, # of connection points: 2
#     Edge 71, Type (0, 0), BuildingBlock: KIFKEQ_clean_linker_1, # of connection points: 2
#     Edge 72, Type (0, 0), BuildingBlock: KIFKEQ_clean_linker_1, # of connection points: 2
#     Edge 73, Type (0, 0), BuildingBlock: KIFKEQ_clean_linker_1, # of connection points: 2
#     Edge 74, Type (0, 0), BuildingBlock: KIFKEQ_clean_linker_1, # of connection points: 2
#     Edge 75, Type (0, 0), BuildingBlock: KIFKEQ_clean_linker_1, # of connection points: 2
#     Edge 76, Type (0, 0), BuildingBlock: KIFKEQ_clean_linker_1, # of connection points: 2
#     Edge 77, Type (0, 0), BuildingBlock: KIFKEQ_clean_linker_1, # of connection points: 2
#     Edge 78, Type (0, 0), BuildingBlock: KIFKEQ_clean_linker_1, # of connection points: 2
#     Edge 79, Type (0, 0), BuildingBlock: KIFKEQ_clean_linker_1, # of connection points: 2
#     Edge 80, Type (0, 0), BuildingBlock: KIFKEQ_clean_linker_1, # of connection points: 2
#     Edge 81, Type (0, 0), BuildingBlock: KIFKEQ_clean_linker_1, # of connection points: 2
#     Edge 82, Type (0, 0), BuildingBlock: KIFKEQ_clean_linker_1, # of connection points: 2
#     Edge 83, Type (0, 0), BuildingBlock: KIFKEQ_clean_linker_1, # of connection points: 2
#     Edge 84, Type (0, 0), BuildingBlock: KIFKEQ_clean_linker_1, # of connection points: 2
#     Edge 85, Type (0, 0), BuildingBlock: KIFKEQ_clean_linker_1, # of connection points: 2
#     Edge 86, Type (0, 0), BuildingBlock: KIFKEQ_clean_linker_1, # of connection points: 2
#     Edge 87, Type (0, 0), BuildingBlock: KIFKEQ_clean_linker_1, # of connection points: 2
#     Edge 88, Type (0, 0), BuildingBlock: KIFKEQ_clean_linker_1, # of connection points: 2
#     Edge 89, Type (0, 0), BuildingBlock: KIFKEQ_clean_linker_1, # of connection points: 2
#     Edge 90, Type (0, 0), BuildingBlock: KIFKEQ_clean_linker_1, # of connection points: 2
#     Edge 91, Type (0, 0), BuildingBlock: KIFKEQ_clean_linker_1, # of connection points: 2
#     Edge 92, Type (0, 0), BuildingBlock: KIFKEQ_clean_linker_1, # of connection points: 2
#     Edge 93, Type (0, 0), BuildingBlock: KIFKEQ_clean_linker_1, # of connection points: 2
#     Edge 94, Type (0, 0), BuildingBlock: KIFKEQ_clean_linker_1, # of connection points: 2
#     Edge 95, Type (0, 0), BuildingBlock: KIFKEQ_clean_linker_1, # of connection points: 2
#     Edge 96, Type (0, 0), BuildingBlock: KIFKEQ_clean_linker_1, # of connection points: 2
#     Edge 97, Type (0, 0), BuildingBlock: KIFKEQ_clean_linker_1, # of connection points: 2
#     Edge 98, Type (0, 0), BuildingBlock: KIFKEQ_clean_linker_1, # of connection points: 2
#     Edge 99, Type (0, 0), BuildingBlock: KIFKEQ_clean_linker_1, # of connection points: 2
#     Edge 100, Type (0, 0), BuildingBlock: KIFKEQ_clean_linker_1, # of connection points: 2
#     Edge 101, Type (0, 0), BuildingBlock: KIFKEQ_clean_linker_1, # of connection points: 2
#     Edge 102, Type (0, 0), BuildingBlock: KIFKEQ_clean_linker_1, # of connection points: 2
#     Edge 103, Type (0, 0), BuildingBlock: KIFKEQ_clean_linker_1, # of connection points: 2
#     Edge 104, Type (0, 0), BuildingBlock: KIFKEQ_clean_linker_1, # of connection points: 2
#     Edge 105, Type (0, 0), BuildingBlock: KIFKEQ_clean_linker_1, # of connection points: 2
#     Edge 106, Type (0, 0), BuildingBlock: KIFKEQ_clean_linker_1, # of connection points: 2
#     Edge 107, Type (0, 0), BuildingBlock: KIFKEQ_clean_linker_1, # of connection points: 2
#     Edge 108, Type (0, 0), BuildingBlock: KIFKEQ_clean_linker_1, # of connection points: 2
#     Edge 109, Type (0, 0), BuildingBlock: KIFKEQ_clean_linker_1, # of connection points: 2
#     Edge 110, Type (0, 0), BuildingBlock: KIFKEQ_clean_linker_1, # of connection points: 2
#     Edge 111, Type (0, 0), BuildingBlock: KIFKEQ_clean_linker_1, # of connection points: 2
#     Edge 112, Type (0, 0), BuildingBlock: KIFKEQ_clean_linker_1, # of connection points: 2
#     Edge 113, Type (0, 0), BuildingBlock: KIFKEQ_clean_linker_1, # of connection points: 2
#     Edge 114, Type (0, 0), BuildingBlock: KIFKEQ_clean_linker_1, # of connection points: 2
#     Edge 115, Type (0, 0), BuildingBlock: KIFKEQ_clean_linker_1, # of connection points: 2
#     Edge 116, Type (0, 0), BuildingBlock: KIFKEQ_clean_linker_1, # of connection points: 2
#     Edge 117, Type (0, 0), BuildingBlock: KIFKEQ_clean_linker_1, # of connection points: 2
#     Edge 118, Type (0, 0), BuildingBlock: KIFKEQ_clean_linker_1, # of connection points: 2
#     Edge 119, Type (0, 0), BuildingBlock: KIFKEQ_clean_linker_1, # of connection points: 2
#     Edge 120, Type (0, 0), BuildingBlock: KIFKEQ_clean_linker_1, # of connection points: 2
#     Edge 121, Type (0, 0), BuildingBlock: KIFKEQ_clean_linker_1, # of connection points: 2
#     Edge 122, Type (0, 0), BuildingBlock: KIFKEQ_clean_linker_1, # of connection points: 2
#     Edge 123, Type (0, 0), BuildingBlock: KIFKEQ_clean_linker_1, # of connection points: 2
#     Edge 124, Type (0, 0), BuildingBlock: KIFKEQ_clean_linker_1, # of connection points: 2
#     Edge 125, Type (0, 0), BuildingBlock: KIFKEQ_clean_linker_1, # of connection points: 2
#     Edge 126, Type (0, 0), BuildingBlock: KIFKEQ_clean_linker_1, # of connection points: 2
#     Edge 127, Type (0, 0), BuildingBlock: KIFKEQ_clean_linker_1, # of connection points: 2
# Relax obj value: 0.064
# Max RMSD: 0.128
# Mean RMSD: 0.128
data_MOF--net-som--node1-BETFAJ_clean_sbu_0--edge1-KIFKEQ_clean_linker_1
_symmetry_space_group_name_H-M    P1
_symmetry_Int_Tables_number       1
_symmetry_cell_setting            triclinic
loop_
_symmetry_equiv_pos_as_xyz
'x, y, z'
_cell_length_a     26.332154
_cell_length_b     56.649174
_cell_length_c     114.11235
_cell_angle_alpha  89.925646
_cell_angle_beta   90.029081
_cell_angle_gamma 89.977932
loop_
_atom_site_label
_atom_site_type_symbol
_atom_site_fract_x
_atom_site_fract_y
_atom_site_fract_z
_atom_type_partial_charge
Sm0 Sm 0.9972 0.49834 0.08193 0.0
Sm1 Sm 0.10648 0.47521 0.08108 0.0
C2 C 0.90007 0.51107 0.08143 0.0
C3 C 0.84747 0.50312 0.07907 0.0
C4 C 0.82947 0.48115 0.08304 0.0
C5 C 0.77775 0.47548 0.08213 0.0
C6 C 0.74297 0.4916 0.0772 0.0
C7 C 0.76166 0.51315 0.07282 0.0
C8 C 0.81325 0.51884 0.07377 0.0
C9 C 0.05364 0.49862 0.10249 0.0
C10 C 1.00691 0.44109 0.08183 0.0
C11 C 0.1989 0.4621 0.08767 0.0
C12 C 0.25349 0.46518 0.08474 0.0
C13 C 0.27699 0.48747 0.08509 0.0
C14 C 0.32947 0.48967 0.08333 0.0
C15 C 0.35985 0.46966 0.08115 0.0
C16 C 0.33591 0.44746 0.08053 0.0
C17 C 0.28348 0.44526 0.08234 0.0
C18 C 0.07329 0.48079 0.0582 0.0
C19 C 0.0895 0.53257 0.07625 0.0
O20 O 0.93081 0.51425 0.07254 0.0
O21 O 0.92275 0.50232 0.09067 0.0
O22 O 0.0498 0.48165 0.0954 0.0
O23 O 0.02666 0.51639 0.09888 0.0
O24 O 0.97993 0.45965 0.07877 0.0
O25 O 0.05565 0.44263 0.08465 0.0
O26 O 0.17483 0.48029 0.09211 0.0
O27 O 0.17082 0.4496 0.08048 0.0
O28 O 0.049 0.48641 0.06736 0.0
O29 O 0.11684 0.47178 0.06109 0.0
O30 O 0.12018 0.5158 0.08028 0.0
O31 O 0.04079 0.52898 0.07441 0.0
H32 H 0.85507 0.46863 0.08713 0.0
H33 H 0.76489 0.45858 0.08543 0.0
H34 H 0.73607 0.5261 0.06908 0.0
H35 H 0.82615 0.53594 0.07073 0.0
H36 H 0.25509 0.5032 0.08696 0.0
H37 H 0.3464 0.50703 0.08402 0.0
H38 H 0.3577 0.43169 0.07868 0.0
H39 H 0.26646 0.42786 0.08206 0.0
Sm40 Sm 0.30226 0.73322 0.08212 0.0
Sm41 Sm 0.1933 0.75774 0.08188 0.0
C42 C 0.39912 0.71993 0.08132 0.0
C43 C 0.45238 0.72767 0.0794 0.0
C44 C 0.48503 0.71332 0.0728 0.0
C45 C 0.53706 0.71835 0.07209 0.0
C46 C 0.55795 0.73786 0.07803 0.0
C47 C 0.52472 0.75276 0.08428 0.0
C48 C 0.47257 0.74773 0.08496 0.0
C49 C 0.24611 0.73256 0.10265 0.0
C50 C 0.29433 0.79078 0.08302 0.0
C51 C 0.10197 0.7708 0.08933 0.0
C52 C 0.04689 0.76792 0.08713 0.0
C53 C 1.01281 0.77173 0.09638 0.0
C54 C 0.96043 0.76913 0.0947 0.0
C55 C 0.94066 0.7626 0.0837 0.0
C56 C 0.97511 0.75863 0.07443 0.0
C57 C 0.02771 0.76127 0.07613 0.0
C58 C 0.22649 0.75342 0.05895 0.0
C59 C 0.20806 0.7005 0.076 0.0
O60 O 0.36858 0.71844 0.07228 0.0
O61 O 0.37631 0.72724 0.09084 0.0
O62 O 0.25118 0.74987 0.0958 0.0
O63 O 0.27095 0.7144 0.09874 0.0
O64 O 0.32071 0.77213 0.07979 0.0
O65 O 0.24549 0.78957 0.08579 0.0
O66 O 0.1263 0.75237 0.09343 0.0
O67 O 0.12856 0.78299 0.08171 0.0
O68 O 0.25001 0.74689 0.06807 0.0
O69 O 0.18362 0.76309 0.06191 0.0
O70 O 0.17827 0.71732 0.08034 0.0
O71 O 0.2569 0.70368 0.07413 0.0
H72 H 0.47051 0.69773 0.06844 0.0
H73 H 0.56104 0.70671 0.067 0.0
H74 H 0.53921 0.76785 0.08904 0.0
H75 H 0.44838 0.75914 0.09014 0.0
H76 H 0.02678 0.77669 0.10496 0.0
H77 H 0.93546 0.7719 0.1021 0.0
H78 H 0.96143 0.75378 0.06582 0.0
H79 H 0.05333 0.75815 0.06887 0.0
Sm80 Sm 0.9867 0.73554 0.1993 0.0
Sm81 Sm 0.09592 0.76017 0.19844 0.0
C82 C 0.89058 0.72175 0.20174 0.0
C83 C 0.83703 0.72982 0.20247 0.0
C84 C 0.80237 0.71667 0.20915 0.0
C85 C 0.75047 0.72219 0.20905 0.0
C86 C 0.73176 0.74103 0.20223 0.0
C87 C 0.76694 0.75463 0.19579 0.0
C88 C 0.81898 0.7491 0.19591 0.0
C89 C 0.03958 0.73438 0.17834 0.0
C90 C 0.9942 0.79321 0.1966 0.0
C91 C 0.18663 0.77273 0.19037 0.0
C92 C 0.24188 0.76952 0.1923 0.0
C93 C 0.27507 0.77239 0.1828 0.0
C94 C 0.32752 0.76938 0.18421 0.0
C95 C 0.34829 0.76335 0.19519 0.0
C96 C 0.31478 0.76053 0.20474 0.0
C97 C 0.2621 0.76352 0.2033 0.0
C98 C 0.06684 0.75565 0.22169 0.0
C99 C 0.08225 0.703 0.20441 0.0
O100 O 0.92067 0.72575 0.21066 0.0
O101 O 0.91349 0.72395 0.19163 0.0
O102 O 0.03572 0.75185 0.18512 0.0
O103 O 1.01493 0.71637 0.18253 0.0
O104 O 0.96705 0.77461 0.19959 0.0
O105 O 0.04377 0.79211 0.19459 0.0
O106 O 0.16141 0.7544 0.18648 0.0
O107 O 0.16108 0.78517 0.19807 0.0
O108 O 0.04166 0.74922 0.2128 0.0
O109 O 0.10909 0.76528 0.21829 0.0
O110 O 0.11086 0.71977 0.19965 0.0
O111 O 0.03411 0.7063 0.20705 0.0
H112 H 0.81527 0.70162 0.21421 0.0
H113 H 0.72478 0.7111 0.21401 0.0
H114 H 0.75424 0.76949 0.19058 0.0
H115 H 0.84491 0.75958 0.19069 0.0
H116 H 0.26036 0.77705 0.17423 0.0
H117 H 0.35188 0.77209 0.17668 0.0
H118 H 0.32915 0.75564 0.2133 0.0
H119 H 0.2372 0.76106 0.21076 0.0
Sm120 Sm 0.30068 0.50068 0.20088 0.0
Sm121 Sm 0.19696 0.47795 0.20078 0.0
C122 C 0.39658 0.5144 0.20386 0.0
C123 C 0.45051 0.50685 0.20383 0.0
C124 C 0.48266 0.51477 0.21281 0.0
C125 C 0.53476 0.50983 0.21255 0.0
C126 C 0.55616 0.49685 0.20327 0.0
C127 C 0.5236 0.48845 0.1944 0.0
C128 C 0.47133 0.49337 0.19467 0.0
C129 C 0.25282 0.49912 0.17919 0.0
C130 C 0.2939 0.44378 0.19881 0.0
C131 C 0.10169 0.46524 0.1961 0.0
C132 C 0.04714 0.47133 0.19761 0.0
C133 C 1.01774 0.47668 0.18768 0.0
C134 C 0.96529 0.48033 0.18861 0.0
C135 C 0.94064 0.47862 0.19953 0.0
C136 C 0.97028 0.47363 0.20952 0.0
C137 C 0.02287 0.47001 0.20857 0.0
C138 C 0.23948 0.48034 0.22293 0.0
C139 C 0.20863 0.53598 0.20423 0.0
O140 O 0.36769 0.50713 0.21245 0.0
O141 O 0.37263 0.51545 0.19383 0.0
O142 O 0.25462 0.48249 0.18655 0.0
O143 O 0.27787 0.51725 0.18303 0.0
O144 O 0.31914 0.46168 0.20322 0.0
O145 O 0.24647 0.44622 0.19521 0.0
O146 O 0.1289 0.4786 0.18918 0.0
O147 O 0.12726 0.45754 0.20517 0.0
O148 O 0.24139 0.49648 0.21525 0.0
O149 O 0.21303 0.4626 0.21911 0.0
O150 O 0.17927 0.51836 0.20069 0.0
O151 O 0.25682 0.5327 0.20671 0.0
H152 H 0.46762 0.52534 0.21991 0.0
H153 H 0.5585 0.51688 0.21946 0.0
H154 H 0.53852 0.47812 0.1872 0.0
H155 H 0.44743 0.48697 0.18763 0.0
H156 H 0.03519 0.47748 0.17909 0.0
H157 H 0.94383 0.48378 0.1807 0.0
H158 H 0.95282 0.47246 0.21809 0.0
H159 H 0.04429 0.46582 0.21641 0.0
Sm160 Sm 0.94804 0.50981 0.94924 0.0
Sm161 Sm 0.05752 0.48461 0.94972 0.0
C162 C 0.85689 0.52295 0.94173 0.0
C163 C 0.80195 0.51947 0.94407 0.0
C164 C 0.78168 0.49701 0.94644 0.0
C165 C 0.72907 0.49389 0.94766 0.0
C166 C 0.69548 0.51315 0.94657 0.0
C167 C 0.71617 0.53568 0.94446 0.0
C168 C 0.76872 0.53877 0.9432 0.0
C169 C 0.97785 0.5032 0.97237 0.0
C170 C 0.96123 0.45242 0.95437 0.0
C171 C 0.15314 0.47114 0.95324 0.0
C172 C 0.20702 0.4782 0.95156 0.0
C173 C 0.22682 0.49919 0.95631 0.0
C174 C 0.27885 0.50433 0.9554 0.0
C175 C 0.3123 0.48865 0.94971 0.0
C176 C 0.29203 0.46792 0.94479 0.0
C177 C 0.24017 0.46276 0.94573 0.0
C178 C 1.00593 0.48565 0.92852 0.0
C179 C 0.05091 0.54248 0.9468 0.0
O180 O 0.88202 0.50491 0.93748 0.0
O181 O 0.88323 0.53526 0.94934 0.0
O182 O 1.00205 0.49739 0.96325 0.0
O183 O 0.93571 0.51341 0.96929 0.0
O184 O 0.93319 0.46935 0.94955 0.0
O185 O 1.00886 0.45577 0.95746 0.0
O186 O 0.1261 0.48251 0.96104 0.0
O187 O 0.12699 0.46537 0.94391 0.0
O188 O 1.00852 0.5022 0.93589 0.0
O189 O 0.03318 0.46782 0.93202 0.0
O190 O 0.07854 0.5234 0.9486 0.0
O191 O 1.00057 0.54202 0.94599 0.0
H192 H 0.80639 0.48179 0.9472 0.0
H193 H 0.71472 0.47634 0.94945 0.0
H194 H 0.69164 0.55089 0.94343 0.0
H195 H 0.78336 0.55623 0.94131 0.0
H196 H 0.2023 0.5115 0.96085 0.0
H197 H 0.29289 0.5206 0.95917 0.0
H198 H 0.31651 0.45525 0.94048 0.0
H199 H 0.22608 0.44636 0.94209 0.0
Sm200 Sm 0.84508 0.22721 0.94827 0.0
Sm201 Sm 0.74288 0.25056 0.94701 0.0
C202 C 0.94085 0.21367 0.94474 0.0
C203 C 0.99533 0.22028 0.94596 0.0
C204 C 0.02392 0.22551 0.93588 0.0
C205 C 0.0764 0.2293 0.93659 0.0
C206 C 0.10196 0.22785 0.94741 0.0
C207 C 0.07314 0.22313 0.95755 0.0
C208 C 1.02053 0.21932 0.95683 0.0
C209 C 0.79808 0.22969 0.96987 0.0
C210 C 0.83452 0.2855 0.95146 0.0
C211 C 0.64645 0.26475 0.94808 0.0
C212 C 0.59257 0.25714 0.94905 0.0
C213 C 0.56261 0.26596 0.95824 0.0
C214 C 0.51035 0.26137 0.95868 0.0
C215 C 0.48648 0.24791 0.94989 0.0
C216 C 0.51688 0.23849 0.94087 0.0
C217 C 0.56925 0.24307 0.94044 0.0
C218 C 0.79629 0.24884 0.92602 0.0
C219 C 0.74766 0.19359 0.94635 0.0
O220 O 0.9137 0.22493 0.93693 0.0
O221 O 0.91493 0.20839 0.95416 0.0
O222 O 0.79825 0.24601 0.96226 0.0
O223 O 0.82364 0.21156 0.96619 0.0
O224 O 0.86432 0.26754 0.94857 0.0
O225 O 0.78547 0.28275 0.95295 0.0
O226 O 0.6756 0.26269 0.95731 0.0
O227 O 0.67054 0.26058 0.93829 0.0
O228 O 0.79148 0.23208 0.93324 0.0
O229 O 0.77189 0.26731 0.9297 0.0
O230 O 0.72301 0.21206 0.95032 0.0
O231 O 0.79552 0.1953 0.94297 0.0
H232 H 1.00582 0.22617 0.92736 0.0
H233 H 0.09701 0.23325 0.92862 0.0
H234 H 0.09144 0.22163 0.96602 0.0
H235 H 0.9999 0.21507 0.96476 0.0
H236 H 0.57945 0.27694 0.96496 0.0
H237 H 0.48858 0.26858 0.96588 0.0
H238 H 0.49998 0.22824 0.93388 0.0
H239 H 0.59113 0.23608 0.9332 0.0
Sm240 Sm 0.9468 0.22611 0.82893 0.0
Sm241 Sm 0.05009 0.24932 0.82858 0.0
C242 C 0.8517 0.21356 0.83395 0.0
C243 C 0.79709 0.21971 0.83243 0.0
C244 C 0.76917 0.22819 0.84204 0.0
C245 C 0.71667 0.23186 0.84119 0.0
C246 C 0.69043 0.227 0.83072 0.0
C247 C 0.71859 0.21893 0.82102 0.0
C248 C 0.77119 0.21526 0.82187 0.0
C249 C 0.9875 0.22822 0.80664 0.0
C250 C 0.95744 0.28421 0.82523 0.0
C251 C 0.14575 0.2633 0.82544 0.0
C252 C 0.19996 0.25608 0.82574 0.0
C253 C 0.23093 0.26121 0.81606 0.0
C254 C 0.28323 0.25679 0.81641 0.0
C255 C 0.30614 0.24718 0.8265 0.0
C256 C 0.27476 0.24142 0.8361 0.0
C257 C 0.22229 0.24586 0.83573 0.0
C258 C 1.00258 0.24758 0.85033 0.0
C259 C 0.04505 0.19224 0.83089 0.0
O260 O 0.87929 0.22714 0.84068 0.0
O261 O 0.87696 0.20544 0.82495 0.0
O262 O 0.99072 0.2445 0.81423 0.0
O263 O 0.96035 0.21085 0.8106 0.0
O264 O 0.9287 0.26651 0.82896 0.0
O265 O 1.00544 0.28103 0.82255 0.0
O266 O 0.11731 0.25499 0.817 0.0
O267 O 0.12137 0.26532 0.83536 0.0
O268 O 1.00496 0.23096 0.843 0.0
O269 O 0.02705 0.26585 0.84642 0.0
O270 O 0.07 0.21045 0.8267 0.0
O271 O 0.99699 0.19417 0.83415 0.0
H272 H 0.78782 0.23157 0.85034 0.0
H273 H 0.69659 0.23843 0.8488 0.0
H274 H 0.69977 0.21473 0.81284 0.0
H275 H 0.79129 0.20844 0.81432 0.0
H276 H 0.21475 0.26913 0.80825 0.0
H277 H 0.30579 0.26105 0.80877 0.0
H278 H 0.29094 0.23417 0.84405 0.0
H279 H 0.19946 0.24175 0.84336 0.0
Sm280 Sm 0.8539 0.5098 0.83163 0.0
Sm281 Sm 0.74355 0.48734 0.83226 0.0
C282 C 0.94544 0.52309 0.83879 0.0
C283 C 1.00013 0.52053 0.83625 0.0
C284 C 0.03544 0.5277 0.84472 0.0
C285 C 0.08759 0.52523 0.84272 0.0
C286 C 0.10576 0.51549 0.83217 0.0
C287 C 0.07005 0.50824 0.82369 0.0
C288 C 1.0177 0.51074 0.82571 0.0
C289 C 0.82117 0.50414 0.80872 0.0
C290 C 0.83535 0.45227 0.82731 0.0
C291 C 0.64591 0.4756 0.83198 0.0
C292 C 0.59316 0.4826 0.82901 0.0
C293 C 0.56125 0.46616 0.82351 0.0
C294 C 0.50924 0.47068 0.82224 0.0
C295 C 0.48773 0.49176 0.82648 0.0
C296 C 0.52026 0.50869 0.83153 0.0
C297 C 0.57237 0.50416 0.83279 0.0
C298 C 0.79908 0.48732 0.85297 0.0
C299 C 0.75593 0.54433 0.83093 0.0
O300 O 0.92201 0.50435 0.8428 0.0
O301 O 0.91797 0.53536 0.83136 0.0
O302 O 0.79677 0.49876 0.81789 0.0
O303 O 0.86472 0.5132 0.8116 0.0
O304 O 0.86634 0.4691 0.83115 0.0
O305 O 0.78676 0.45602 0.8253 0.0
O306 O 0.67726 0.46996 0.82351 0.0
O307 O 0.66803 0.48655 0.8407 0.0
O308 O 0.79587 0.50407 0.84572 0.0
O309 O 0.77162 0.46968 0.84947 0.0
O310 O 0.7292 0.52588 0.82762 0.0
O311 O 0.8032 0.54254 0.83479 0.0
H312 H 0.02262 0.53511 0.85295 0.0
H313 H 0.11366 0.53059 0.84956 0.0
H314 H 0.08254 0.50085 0.81543 0.0
H315 H 0.99099 0.50503 0.81907 0.0
H316 H 0.57626 0.44938 0.82056 0.0
H317 H 0.4857 0.45742 0.8181 0.0
H318 H 0.50518 0.52505 0.83498 0.0
H319 H 0.59598 0.51718 0.8371 0.0
Sm320 Sm 0.99929 -0.00217 0.58127 0.0
Sm321 Sm 0.10811 0.97492 0.58043 0.0
C322 C 0.90199 0.01029 0.58109 0.0
C323 C 0.84934 0.00248 0.57867 0.0
C324 C 0.83132 0.98034 0.58239 0.0
C325 C 0.77958 0.97474 0.58143 0.0
C326 C 0.74479 0.99111 0.57671 0.0
C327 C 0.76349 0.01286 0.57259 0.0
C328 C 0.81511 0.01847 0.57358 0.0
C329 C 0.0559 -0.00151 0.60176 0.0
C330 C 1.00929 0.94069 0.5811 0.0
C331 C 0.20057 0.96194 0.58705 0.0
C332 C 0.25518 0.96507 0.58414 0.0
C333 C 0.27893 0.98727 0.58482 0.0
C334 C 0.33142 0.98946 0.58306 0.0
C335 C 0.36157 0.96954 0.58057 0.0
C336 C 0.3374 0.94744 0.57963 0.0
C337 C 0.28497 0.94524 0.58143 0.0
C338 C 0.07539 0.98028 0.5575 0.0
C339 C 0.09072 0.03227 0.5757 0.0
O340 O 0.93248 0.01411 0.57221 0.0
O341 O 0.92496 0.00099 0.59016 0.0
O342 O 0.05154 0.98126 0.59484 0.0
O343 O 0.03018 0.01644 0.59792 0.0
O344 O 0.98247 0.95918 0.57788 0.0
O345 O 0.05777 0.94234 0.58408 0.0
O346 O 0.17633 0.98007 0.59149 0.0
O347 O 0.17261 0.94941 0.57984 0.0
O348 O 0.05071 0.98598 0.56661 0.0
O349 O 0.11878 0.97122 0.56048 0.0
O350 O 0.12194 0.01545 0.57943 0.0
O351 O 0.042 0.02875 0.57393 0.0
H352 H 0.85693 0.96761 0.58631 0.0
H353 H 0.76671 0.95769 0.58453 0.0
H354 H 0.73791 0.02601 0.56902 0.0
H355 H 0.82801 0.03571 0.57074 0.0
H356 H 0.25722 0.00293 0.58695 0.0
H357 H 0.34853 0.00673 0.58401 0.0
H358 H 0.35901 0.93174 0.57753 0.0
H359 H 0.26777 0.9279 0.58089 0.0
Sm360 Sm 0.29922 0.23567 0.57938 0.0
Sm361 Sm 0.18835 0.25779 0.57864 0.0
C362 C 0.39665 0.22365 0.57871 0.0
C363 C 0.44929 0.23103 0.57595 0.0
C364 C 0.48131 0.2152 0.57007 0.0
C365 C 0.53321 0.21997 0.56887 0.0
C366 C 0.55448 0.24069 0.57358 0.0
C367 C 0.52182 0.25706 0.57902 0.0
C368 C 0.46979 0.25228 0.5802 0.0
C369 C 0.24333 0.2349 0.60001 0.0
C370 C 0.28673 0.29259 0.57939 0.0
C371 C 0.09675 0.27102 0.58572 0.0
C372 C 0.04203 0.26869 0.58319 0.0
C373 C 1.00699 0.2751 0.59186 0.0
C374 C 0.9548 0.27286 0.58987 0.0
C375 C 0.93633 0.26414 0.57914 0.0
C376 C 0.97175 0.25766 0.57045 0.0
C377 C 0.02416 0.25992 0.57246 0.0
C378 C 0.22169 0.25244 0.55575 0.0
C379 C 0.20789 0.20047 0.57441 0.0
O380 O 0.36521 0.21938 0.57006 0.0
O381 O 0.3747 0.23334 0.5878 0.0
O382 O 0.24593 0.25179 0.59283 0.0
O383 O 0.27181 0.21758 0.59653 0.0
O384 O 0.3142 0.27449 0.57595 0.0
O385 O 0.23844 0.2904 0.58246 0.0
O386 O 0.11997 0.25214 0.58966 0.0
O387 O 0.12435 0.28338 0.57836 0.0
O388 O 0.24617 0.24714 0.56494 0.0
O389 O 0.17771 0.26106 0.55861 0.0
O390 O 0.17611 0.21718 0.57799 0.0
O391 O 0.25649 0.20424 0.57253 0.0
H392 H 0.46647 0.19868 0.56673 0.0
H393 H 0.55686 0.20717 0.56442 0.0
H394 H 0.53674 0.27313 0.58282 0.0
H395 H 0.44602 0.26483 0.5848 0.0
H396 H 1.02006 0.28173 0.60024 0.0
H397 H 0.92893 0.2776 0.59686 0.0
H398 H 0.959 0.25105 0.56205 0.0
H399 H 0.05066 0.2548 0.56566 0.0
Sm400 Sm 0.97951 0.23164 0.696 0.0
Sm401 Sm 0.08831 0.25658 0.69681 0.0
C402 C 0.8828 0.21818 0.69696 0.0
C403 C 0.8296 0.2262 0.69869 0.0
C404 C 0.79759 0.21334 0.70617 0.0
C405 C 0.74564 0.21856 0.70688 0.0
C406 C 0.72416 0.23675 0.70005 0.0
C407 C 0.75675 0.25019 0.69286 0.0
C408 C 0.80881 0.24499 0.69219 0.0
C409 C 0.03644 0.23189 0.67556 0.0
C410 C 0.98653 0.2895 0.69535 0.0
C411 C 0.17989 0.26983 0.68962 0.0
C412 C 0.23503 0.26679 0.69171 0.0
C413 C 0.26826 0.26793 0.68212 0.0
C414 C 0.32069 0.26531 0.68368 0.0
C415 C 0.34141 0.26147 0.6949 0.0
C416 C 0.30785 0.26012 0.70452 0.0
C417 C 0.25518 0.26277 0.70294 0.0
C418 C 0.05352 0.2515 0.71954 0.0
C419 C 0.07434 0.19901 0.70235 0.0
O420 O 0.91319 0.21747 0.70606 0.0
O421 O 0.90582 0.22461 0.68731 0.0
O422 O 0.03156 0.24883 0.68264 0.0
O423 O 1.01 0.21386 0.67908 0.0
O424 O 0.95982 0.27052 0.6979 0.0
O425 O 0.0361 0.28873 0.69326 0.0
O426 O 0.1555 0.25166 0.68529 0.0
O427 O 0.15328 0.28168 0.69735 0.0
O428 O 0.03079 0.24508 0.7103 0.0
O429 O 0.09621 0.26163 0.71683 0.0
O430 O 0.10437 0.2162 0.69847 0.0
O431 O 0.02506 0.20176 0.70373 0.0
H432 H 0.81256 0.19875 0.71127 0.0
H433 H 0.72219 0.20811 0.71269 0.0
H434 H 0.7418 0.26421 0.6874 0.0
H435 H 0.83243 0.25524 0.68631 0.0
H436 H 0.25356 0.27084 0.67337 0.0
H437 H 0.34496 0.266 0.67603 0.0
H438 H 0.32231 0.25737 0.7133 0.0
H439 H 0.23029 0.26174 0.71048 0.0
Sm440 Sm 0.29996 0.00076 0.70069 0.0
Sm441 Sm 0.19142 0.9752 0.69988 0.0
C442 C 0.3954 0.01463 0.70425 0.0
C443 C 0.44969 0.00825 0.70259 0.0
C444 C 0.46861 0.98562 0.70519 0.0
C445 C 0.52083 0.98075 0.70425 0.0
C446 C 0.55539 -0.00161 0.70069 0.0
C447 C 0.53595 0.02091 0.69796 0.0
C448 C 0.4839 0.02573 0.6989 0.0
C449 C 0.24866 0.00049 0.67948 0.0
C450 C 0.29473 0.9429 0.69719 0.0
C451 C 0.10043 0.9623 0.69211 0.0
C452 C 0.04538 0.96563 0.69438 0.0
C453 C 0.02613 0.98677 0.69905 0.0
C454 C 0.97352 0.99005 0.70034 0.0
C455 C 0.9389 0.97228 0.69701 0.0
C456 C 0.95864 0.951 0.69253 0.0
C457 C 1.01115 0.94776 0.69123 0.0
C458 C 0.22047 0.98076 0.72311 0.0
C459 C 0.20314 0.0324 0.70576 0.0
O460 O 0.36888 0.00263 0.71192 0.0
O461 O 0.36906 0.0205 0.69497 0.0
O462 O 0.25198 0.98347 0.68657 0.0
O463 O 0.27389 0.01861 0.68335 0.0
O464 O 0.32193 0.96204 0.69917 0.0
O465 O 0.24439 0.94324 0.69635 0.0
O466 O 0.12552 0.98058 0.68808 0.0
O467 O 0.12661 0.94977 0.69967 0.0
O468 O 0.24489 0.98712 0.71411 0.0
O469 O 0.1787 0.97051 0.71986 0.0
O470 O 0.17557 0.01561 0.70071 0.0
O471 O 0.25086 0.02907 0.70879 0.0
H472 H 0.44318 0.97176 0.70807 0.0
H473 H 0.53408 0.96312 0.70629 0.0
H474 H 0.56112 0.03509 0.69537 0.0
H475 H 0.47043 0.04338 0.69694 0.0
H476 H 0.05172 0.00085 0.70157 0.0
H477 H 0.96001 0.00654 0.70398 0.0
H478 H 0.93345 0.93701 0.68971 0.0
H479 H 0.02502 0.93137 0.68753 0.0
Sm480 Sm 0.94738 0.00872 0.44882 0.0
Sm481 Sm 0.05604 0.98369 0.44821 0.0
C482 C 0.85486 0.02136 0.44197 0.0
C483 C 0.8 0.01713 0.44446 0.0
C484 C 0.77533 -0.00328 0.44034 0.0
C485 C 0.72293 -0.00631 0.44188 0.0
C486 C 0.6935 0.01101 0.44755 0.0
C487 C 0.71831 0.03133 0.45177 0.0
C488 C 0.77079 0.03437 0.45022 0.0
C489 C 0.98179 0.00386 0.47166 0.0
C490 C 0.96118 0.95126 0.45417 0.0
C491 C 0.15161 0.96846 0.44934 0.0
C492 C 0.20563 0.97503 0.45081 0.0
C493 C 0.2226 -0.00166 0.44939 0.0
C494 C 0.27468 0.00364 0.44993 0.0
C495 C 0.31087 0.98569 0.45191 0.0
C496 C 0.2933 0.96242 0.45351 0.0
C497 C 0.24137 0.9572 0.45297 0.0
C498 C 0.99822 0.98311 0.42791 0.0
C499 C 0.04899 0.04144 0.44625 0.0
O500 O 0.88068 0.00403 0.43723 0.0
O501 O 0.88152 0.03352 0.44959 0.0
O502 O 1.00481 -0.00263 0.46246 0.0
O503 O 0.93912 0.01385 0.46881 0.0
O504 O 0.93117 0.96844 0.45032 0.0
O505 O 1.01012 0.95411 0.45595 0.0
O506 O 0.1217 0.96963 0.45849 0.0
O507 O 0.12926 0.97499 0.43962 0.0
O508 O 1.00413 0.0004 0.43471 0.0
O509 O 0.0236 0.96496 0.43169 0.0
O510 O 0.07622 0.02269 0.44902 0.0
O511 O 0.9991 0.04063 0.44467 0.0
H512 H 0.79628 0.98318 0.43571 0.0
H513 H 0.70529 0.978 0.43832 0.0
H514 H 0.6972 0.04494 0.45631 0.0
H515 H 0.7884 0.05041 0.4534 0.0
H516 H 0.19568 0.01233 0.44771 0.0
H517 H 0.28656 0.02179 0.4488 0.0
H518 H 0.31978 0.94805 0.45486 0.0
H519 H 0.22918 0.93905 0.45399 0.0
Sm520 Sm 0.84002 0.72715 0.44933 0.0
Sm521 Sm 0.73779 0.75058 0.44877 0.0
C522 C 0.93558 0.7142 0.44511 0.0
C523 C 0.98998 0.72091 0.44624 0.0
C524 C 1.0192 0.72397 0.43605 0.0
C525 C 0.07152 0.72819 0.43674 0.0
C526 C 0.09626 0.72938 0.44767 0.0
C527 C 0.06681 0.72665 0.45789 0.0
C528 C 1.01432 0.72246 0.45719 0.0
C529 C 0.79542 0.72878 0.47122 0.0
C530 C 0.82956 0.78522 0.45302 0.0
C531 C 0.64169 0.7649 0.45062 0.0
C532 C 0.5873 0.75807 0.44967 0.0
C533 C 0.56478 0.74172 0.45738 0.0
C534 C 0.51216 0.73765 0.45708 0.0
C535 C 0.48076 0.7499 0.44912 0.0
C536 C 0.50379 0.76572 0.44122 0.0
C537 C 0.55622 0.76978 0.44152 0.0
C538 C 0.78927 0.74923 0.42754 0.0
C539 C 0.74268 0.69338 0.44663 0.0
O540 O 0.90771 0.72598 0.43763 0.0
O541 O 0.91054 0.70812 0.45454 0.0
O542 O 0.79418 0.74541 0.46376 0.0
O543 O 0.82125 0.71101 0.46721 0.0
O544 O 0.85919 0.76737 0.44992 0.0
O545 O 0.78084 0.78246 0.45495 0.0
O546 O 0.66835 0.75682 0.45944 0.0
O547 O 0.6681 0.76656 0.44096 0.0
O548 O 0.78462 0.7323 0.43464 0.0
O549 O 0.76618 0.76781 0.43151 0.0
O550 O 0.7169 0.71172 0.45039 0.0
O551 O 0.79128 0.69516 0.44389 0.0
H552 H 1.0017 0.72254 0.42748 0.0
H553 H 0.09283 0.72984 0.42867 0.0
H554 H 0.08432 0.72774 0.46646 0.0
H555 H 0.99304 0.7201 0.46522 0.0
H556 H 0.58755 0.73247 0.46382 0.0
H557 H 0.49591 0.72547 0.46336 0.0
H558 H 0.48121 0.77516 0.43481 0.0
H559 H 0.57238 0.78257 0.43552 0.0
Sm560 Sm 0.95138 0.72839 0.33017 0.0
Sm561 Sm 0.05329 0.75239 0.33148 0.0
C562 C 0.85562 0.71482 0.33372 0.0
C563 C 0.80116 0.72173 0.33271 0.0
C564 C 0.77326 0.72701 0.34288 0.0
C565 C 0.72087 0.73124 0.34233 0.0
C566 C 0.69466 0.73017 0.33158 0.0
C567 C 0.72275 0.72521 0.32137 0.0
C568 C 0.77527 0.721 0.32192 0.0
C569 C 0.9986 0.73116 0.30861 0.0
C570 C 0.96085 0.78671 0.32723 0.0
C571 C 0.14919 0.76724 0.33022 0.0
C572 C 0.20367 0.76051 0.33093 0.0
C573 C 0.22486 0.74272 0.32386 0.0
C574 C 0.27748 0.73848 0.32397 0.0
C575 C 0.31011 0.75199 0.33112 0.0
C576 C 0.28835 0.7693 0.3384 0.0
C577 C 0.23595 0.77351 0.33828 0.0
C578 C 0.99957 0.75023 0.35237 0.0
C579 C 0.04953 0.69509 0.33294 0.0
O580 O 0.88328 0.72542 0.34166 0.0
O581 O 0.88111 0.71009 0.32417 0.0
O582 O 0.99825 0.74747 0.31622 0.0
O583 O 0.97298 0.71299 0.31227 0.0
O584 O 0.93133 0.76854 0.3299 0.0
O585 O 1.00987 0.78438 0.32556 0.0
O586 O 0.12277 0.76044 0.32112 0.0
O587 O 0.12276 0.76724 0.33991 0.0
O588 O 1.0052 0.7335 0.34519 0.0
O589 O 0.02298 0.76896 0.34868 0.0
O590 O 0.07506 0.71375 0.32949 0.0
O591 O 1.00062 0.6964 0.33546 0.0
H592 H 0.79179 0.7273 0.35136 0.0
H593 H 0.70065 0.73463 0.35041 0.0
H594 H 0.70414 0.72451 0.31291 0.0
H595 H 0.79535 0.7168 0.31391 0.0
H596 H 0.20101 0.73241 0.31807 0.0
H597 H 0.29273 0.7251 0.31819 0.0
H598 H 0.31187 0.77975 0.3442 0.0
H599 H 0.22069 0.78735 0.34381 0.0
Sm600 Sm 0.84652 0.0102 0.33187 0.0
Sm601 Sm 0.73764 0.98544 0.33131 0.0
C602 C 0.93775 0.02277 0.33954 0.0
C603 C 0.9927 0.01938 0.33718 0.0
C604 C 1.01301 -0.00294 0.33452 0.0
C605 C 0.06563 -0.00598 0.33326 0.0
C606 C 0.09919 0.01322 0.33459 0.0
C607 C 0.07846 0.03562 0.33698 0.0
C608 C 0.02591 0.03863 0.33828 0.0
C609 C 0.81695 0.00521 0.30868 0.0
C610 C 0.83277 0.95331 0.32574 0.0
C611 C 0.64184 0.97181 0.32826 0.0
C612 C 0.58791 0.97883 0.32982 0.0
C613 C 0.56832 1e-05 0.32521 0.0
C614 C 0.51623 0.00513 0.32606 0.0
C615 C 0.48258 0.98925 0.33156 0.0
C616 C 0.50268 0.96831 0.33634 0.0
C617 C 0.55457 0.96318 0.33546 0.0
C618 C 0.791 0.98457 0.35224 0.0
C619 C 0.74448 0.04306 0.33491 0.0
O620 O 0.91249 0.00455 0.3436 0.0
O621 O 0.91152 0.0355 0.33207 0.0
O622 O 0.79201 -0.00111 0.31763 0.0
O623 O 0.85912 0.01503 0.31198 0.0
O624 O 0.86172 0.96983 0.33058 0.0
O625 O 0.78489 0.95693 0.32299 0.0
O626 O 0.6686 0.98255 0.32018 0.0
O627 O 0.6682 0.9669 0.33768 0.0
O628 O 0.78694 0.00191 0.34536 0.0
O629 O 0.76556 0.96661 0.34825 0.0
O630 O 0.71656 0.02417 0.33295 0.0
O631 O 0.7948 0.04241 0.33556 0.0
H632 H 0.98832 0.98189 0.33358 0.0
H633 H 0.08002 0.97658 0.33124 0.0
H634 H 0.10294 0.05077 0.3382 0.0
H635 H 1.01124 0.05598 0.3404 0.0
H636 H 0.59305 0.01248 0.32083 0.0
H637 H 0.50233 0.02156 0.3224 0.0
H638 H 0.47807 0.95547 0.34049 0.0
H639 H 0.56855 0.94665 0.339 0.0
Sm640 Sm 0.48059 0.50062 0.58285 0.0
Sm641 Sm 0.58335 0.47683 0.58213 0.0
C642 C 0.38449 0.51481 0.58078 0.0
C643 C 0.33056 0.50721 0.5801 0.0
C644 C 0.29979 0.51604 0.57105 0.0
C645 C 0.24753 0.51142 0.57084 0.0
C646 C 0.22446 0.49791 0.57974 0.0
C647 C 0.2557 0.48844 0.58862 0.0
C648 C 0.3081 0.49305 0.5888 0.0
C649 C 0.53192 0.49889 0.60407 0.0
C650 C 0.48536 0.44348 0.58446 0.0
C651 C 0.67889 0.46349 0.58617 0.0
C652 C 0.73342 0.46994 0.58484 0.0
C653 C 0.76246 0.47489 0.59488 0.0
C654 C 0.81494 0.47864 0.59408 0.0
C655 C 0.84003 0.47743 0.5832 0.0
C656 C 0.81072 0.47297 0.5731 0.0
C657 C 0.75812 0.4692 0.57391 0.0
C658 C 0.53795 0.47921 0.56033 0.0
C659 C 0.57354 0.53517 0.57916 0.0
O660 O 0.41393 0.51072 0.57178 0.0
O661 O 0.40809 0.51261 0.5908 0.0
O662 O 0.52827 0.48217 0.59681 0.0
O663 O 0.50691 0.51719 0.60038 0.0
O664 O 0.46032 0.46192 0.58055 0.0
O665 O 0.53379 0.44497 0.58742 0.0
O666 O 0.65166 0.47553 0.59365 0.0
O667 O 0.65315 0.45733 0.57685 0.0
O668 O 0.53728 0.49562 0.5679 0.0
O669 O 0.56398 0.46132 0.56417 0.0
O670 O 0.60303 0.51689 0.58167 0.0
O671 O 0.52436 0.53302 0.57764 0.0
H672 H 0.31605 0.52704 0.56424 0.0
H673 H 0.22512 0.51865 0.56373 0.0
H674 H 0.23945 0.47812 0.59567 0.0
H675 H 0.33073 0.48601 0.59593 0.0
H676 H 0.7447 0.47539 0.60344 0.0
H677 H 0.8359 0.4824 0.60202 0.0
H678 H 0.82863 0.47166 0.56459 0.0
H679 H 0.73709 0.4652 0.566 0.0
Sm680 Sm 0.81107 0.73291 0.58197 0.0
Sm681 Sm 0.70945 0.75733 0.58064 0.0
C682 C 0.90725 0.71833 0.5808 0.0
C683 C 0.96132 0.72573 0.57985 0.0
C684 C 0.99254 0.71494 0.57145 0.0
C685 C 0.04485 0.7195 0.57113 0.0
C686 C 0.06758 0.73492 0.57926 0.0
C687 C 0.0359 0.74629 0.58747 0.0
C688 C 0.98344 0.74174 0.58777 0.0
C689 C 0.75737 0.73465 0.60282 0.0
C690 C 0.80779 0.79011 0.58308 0.0
C691 C 0.61375 0.77135 0.58393 0.0
C692 C 0.55916 0.76461 0.583 0.0
C693 C 0.53009 0.76206 0.59326 0.0
C694 C 0.47759 0.75812 0.59268 0.0
C695 C 0.45242 0.7567 0.5818 0.0
C696 C 0.48176 0.75875 0.57152 0.0
C697 C 0.53439 0.76273 0.57211 0.0
C698 C 0.75731 0.75426 0.55913 0.0
C699 C 0.71781 0.69885 0.57811 0.0
O700 O 0.87807 0.72064 0.57158 0.0
O701 O 0.88331 0.72249 0.59061 0.0
O702 O 0.76279 0.75158 0.59572 0.0
O703 O 0.78097 0.71601 0.59909 0.0
O704 O 0.83222 0.77146 0.57922 0.0
O705 O 0.7593 0.78895 0.58598 0.0
O706 O 0.64118 0.76114 0.59204 0.0
O707 O 0.6394 0.77544 0.57433 0.0
O708 O 0.75579 0.73798 0.56675 0.0
O709 O 0.73281 0.77275 0.56279 0.0
O710 O 0.68876 0.71733 0.58053 0.0
O711 O 0.76705 0.70074 0.57661 0.0
H712 H 0.97659 0.7025 0.56525 0.0
H713 H 0.06754 0.71075 0.56452 0.0
H714 H 0.05181 0.75813 0.59394 0.0
H715 H 0.96049 0.75032 0.59439 0.0
H716 H 0.54787 0.7636 0.60179 0.0
H717 H 0.45666 0.75626 0.60079 0.0
H718 H 0.46385 0.75802 0.56299 0.0
H719 H 0.55539 0.76483 0.56402 0.0
Sm720 Sm 0.49237 0.73498 0.69874 0.0
Sm721 Sm 0.60049 0.75941 0.69942 0.0
C722 C 0.39558 0.72157 0.69908 0.0
C723 C 0.34252 0.72929 0.70115 0.0
C724 C 0.32453 0.7513 0.69723 0.0
C725 C 0.27265 0.75686 0.69796 0.0
C726 C 0.23762 0.74057 0.70265 0.0
C727 C 0.25626 0.71891 0.70693 0.0
C728 C 0.30801 0.71335 0.70616 0.0
C729 C 0.5492 0.73495 0.67829 0.0
C730 C 0.4996 0.79251 0.69842 0.0
C731 C 0.6928 0.7725 0.69271 0.0
C732 C 0.74756 0.76905 0.69546 0.0
C733 C 0.77065 0.74668 0.69477 0.0
C734 C 0.82319 0.74414 0.69638 0.0
C735 C 0.85413 0.76387 0.69873 0.0
C736 C 0.83064 0.78614 0.69968 0.0
C737 C 0.77813 0.78868 0.69803 0.0
C738 C 0.56716 0.75426 0.7223 0.0
C739 C 0.58614 0.70186 0.70467 0.0
O740 O 0.4259 0.71914 0.70811 0.0
O741 O 0.41855 0.72994 0.6898 0.0
O742 O 0.54372 0.7521 0.6852 0.0
O743 O 0.52455 0.71665 0.68211 0.0
O744 O 0.47348 0.77374 0.70159 0.0
O745 O 0.54836 0.79139 0.69557 0.0
O746 O 0.66815 0.75461 0.68815 0.0
O747 O 0.66525 0.78483 0.70008 0.0
O748 O 0.54352 0.748 0.71316 0.0
O749 O 0.60986 0.76409 0.7194 0.0
O750 O 0.61589 0.71892 0.70055 0.0
O751 O 0.53728 0.70497 0.70652 0.0
H752 H 0.35033 0.76399 0.69335 0.0
H753 H 0.2599 0.77385 0.69474 0.0
H754 H 0.23057 0.7058 0.71047 0.0
H755 H 0.32086 0.6962 0.70916 0.0
H756 H 0.74835 0.73114 0.69275 0.0
H757 H 0.83971 0.72674 0.69543 0.0
H758 H 0.85282 0.80172 0.70168 0.0
H759 H 0.76148 0.80614 0.69858 0.0
Sm760 Sm 0.79855 0.49876 0.6997 0.0
Sm761 Sm 0.68806 0.476 0.70035 0.0
C762 C 0.8956 0.51148 0.70056 0.0
C763 C 0.94851 0.50399 0.703 0.0
C764 C 0.9809 0.51946 0.70901 0.0
C765 C 0.03287 0.51459 0.71001 0.0
C766 C 0.05386 0.49412 0.70497 0.0
C767 C 1.02086 0.47811 0.69937 0.0
C768 C 0.96876 0.48299 0.69839 0.0
C769 C 0.74301 0.49861 0.67901 0.0
C770 C 0.78763 0.44151 0.6998 0.0
C771 C 0.59667 0.46252 0.69319 0.0
C772 C 0.54182 0.46505 0.69558 0.0
C773 C 0.50707 0.45923 0.68674 0.0
C774 C 0.45481 0.46164 0.6886 0.0
C775 C 0.43593 0.46996 0.69937 0.0
C776 C 0.47107 0.47586 0.70824 0.0
C777 C 0.52354 0.47343 0.70636 0.0
C778 C 0.7209 0.48199 0.72323 0.0
C779 C 0.70584 0.53353 0.7046 0.0
O780 O 0.86436 0.51442 0.70937 0.0
O781 O 0.87357 0.50283 0.69122 0.0
O782 O 0.74612 0.48194 0.6863 0.0
O783 O 0.77058 0.5163 0.68243 0.0
O784 O 0.81508 0.45991 0.70288 0.0
O785 O 0.73895 0.44333 0.69694 0.0
O786 O 0.62011 0.4812 0.6891 0.0
O787 O 0.62401 0.45044 0.70072 0.0
O788 O 0.74526 0.48721 0.71403 0.0
O789 O 0.67708 0.47316 0.72039 0.0
O790 O 0.67506 0.51668 0.7007 0.0
O791 O 0.75441 0.52984 0.70665 0.0
H792 H 0.96626 0.53578 0.71263 0.0
H793 H 0.05676 0.5271 0.71459 0.0
H794 H 0.03553 0.46224 0.69531 0.0
H795 H 0.9447 0.47072 0.69369 0.0
H796 H 0.52042 0.45292 0.67833 0.0
H797 H 0.42921 0.45735 0.68148 0.0
H798 H 0.45803 0.48213 0.71667 0.0
H799 H 0.54978 0.4781 0.71329 0.0
Sm800 Sm 0.45013 0.50736 0.45057 0.0
Sm801 Sm 0.55286 0.48387 0.4503 0.0
C802 C 0.35439 0.52046 0.44662 0.0
C803 C 0.29999 0.51401 0.44824 0.0
C804 C 0.27533 0.49868 0.44038 0.0
C805 C 0.2228 0.49487 0.44112 0.0
C806 C 0.19338 0.50639 0.44969 0.0
C807 C 0.21834 0.52131 0.4577 0.0
C808 C 0.27084 0.52513 0.45695 0.0
C809 C 0.49461 0.5049 0.47251 0.0
C810 C 0.46027 0.44936 0.4542 0.0
C811 C 0.64878 0.47003 0.45318 0.0
C812 C 0.70291 0.47741 0.45241 0.0
C813 C 0.73198 0.47909 0.46271 0.0
C814 C 0.78419 0.48371 0.4622 0.0
C815 C 0.80894 0.48663 0.45137 0.0
C816 C 0.77963 0.48535 0.44105 0.0
C817 C 0.72728 0.48078 0.44156 0.0
C818 C 0.50323 0.48539 0.42883 0.0
C819 C 0.54749 0.54105 0.44768 0.0
O820 O 0.38149 0.50814 0.43922 0.0
O821 O 0.38047 0.52713 0.4558 0.0
O822 O 0.49498 0.4886 0.46493 0.0
O823 O 0.46965 0.52307 0.46863 0.0
O824 O 0.43148 0.46706 0.45048 0.0
O825 O 0.50844 0.45247 0.45672 0.0
O826 O 0.62114 0.47901 0.46159 0.0
O827 O 0.62321 0.46699 0.44347 0.0
O828 O 0.50631 0.50213 0.43608 0.0
O829 O 0.52833 0.46719 0.43262 0.0
O830 O 0.57323 0.52286 0.45168 0.0
O831 O 0.499 0.53912 0.44484 0.0
H832 H 0.29632 0.49007 0.43343 0.0
H833 H 0.20501 0.4835 0.4347 0.0
H834 H 0.19724 0.53023 0.46453 0.0
H835 H 0.28842 0.53725 0.46307 0.0
H836 H 0.71452 0.47624 0.47119 0.0
H837 H 0.80546 0.48422 0.47032 0.0
H838 H 0.79718 0.48779 0.43256 0.0
H839 H 0.70618 0.47949 0.43344 0.0
Sm840 Sm 0.3542 0.22464 0.4473 0.0
Sm841 Sm 0.24445 0.24806 0.4466 0.0
C842 C 0.44557 0.21117 0.44008 0.0
C843 C 0.50058 0.21358 0.44233 0.0
C844 C 0.53487 0.20395 0.43426 0.0
C845 C 0.58726 0.20671 0.43578 0.0
C846 C 0.60675 0.21926 0.44544 0.0
C847 C 0.57213 0.22865 0.45363 0.0
C848 C 0.51949 0.2259 0.45207 0.0
C849 C 0.32075 0.22992 0.47017 0.0
C850 C 0.3372 0.28204 0.45218 0.0
C851 C 0.14712 0.26054 0.44694 0.0
C852 C 0.09437 0.25302 0.44951 0.0
C853 C 0.05964 0.26976 0.45373 0.0
C854 C 1.00789 0.26431 0.45465 0.0
C855 C 0.98952 0.24195 0.45133 0.0
C856 C 0.02485 0.22487 0.44755 0.0
C857 C 0.0767 0.23034 0.44664 0.0
C858 C 0.30071 0.24812 0.426 0.0
C859 C 0.25446 0.19093 0.44705 0.0
O860 O 0.42205 0.2299 0.43607 0.0
O861 O 0.41846 0.19908 0.44764 0.0
O862 O 0.29689 0.23574 0.46097 0.0
O863 O 0.36403 0.22053 0.46733 0.0
O864 O 0.3678 0.2652 0.4482 0.0
O865 O 0.28843 0.27861 0.45403 0.0
O866 O 0.17809 0.26465 0.4557 0.0
O867 O 0.16955 0.25079 0.43793 0.0
O868 O 0.29669 0.23125 0.43315 0.0
O869 O 0.27376 0.26592 0.42954 0.0
O870 O 0.2281 0.20947 0.45039 0.0
O871 O 0.30253 0.19245 0.4437 0.0
H872 H 0.52106 0.19439 0.42668 0.0
H873 H 0.61254 0.19889 0.42939 0.0
H874 H 0.58565 0.23857 0.46111 0.0
H875 H 0.49359 0.23359 0.45838 0.0
H876 H 0.07226 0.28743 0.45589 0.0
H877 H 0.98201 0.27802 0.45748 0.0
H878 H 1.01234 0.20735 0.4451 0.0
H879 H 0.1027 0.21705 0.44339 0.0
Sm880 Sm 0.44688 0.22745 0.32781 0.0
Sm881 Sm 0.55018 0.25038 0.32796 0.0
C882 C 0.35145 0.21456 0.33217 0.0
C883 C 0.29696 0.22083 0.33056 0.0
C884 C 0.27004 0.23189 0.33967 0.0
C885 C 0.21754 0.23553 0.33883 0.0
C886 C 0.19036 0.22808 0.32888 0.0
C887 C 0.21748 0.21744 0.31965 0.0
C888 C 0.27004 0.21377 0.3205 0.0
C889 C 0.49001 0.23018 0.30574 0.0
C890 C 0.45797 0.2855 0.32457 0.0
C891 C 0.64612 0.26418 0.32517 0.0
C892 C 0.70011 0.25656 0.32528 0.0
C893 C 0.72957 0.25955 0.31513 0.0
C894 C 0.78181 0.25494 0.31526 0.0
C895 C 0.80616 0.24733 0.32559 0.0
C896 C 0.77631 0.24371 0.33568 0.0
C897 C 0.72394 0.24831 0.33554 0.0
C898 C 0.50142 0.24861 0.34954 0.0
C899 C 0.54377 0.1934 0.33 0.0
O900 O 0.37859 0.22757 0.33926 0.0
O901 O 0.37732 0.20716 0.3231 0.0
O902 O 0.49166 0.24624 0.31344 0.0
O903 O 0.46372 0.21233 0.30949 0.0
O904 O 0.42885 0.26777 0.32808 0.0
O905 O 0.50615 0.28235 0.32206 0.0
O906 O 0.61741 0.25701 0.31653 0.0
O907 O 0.62176 0.26532 0.33514 0.0
O908 O 0.50391 0.232 0.3422 0.0
O909 O 0.52638 0.26683 0.34574 0.0
O910 O 0.56914 0.2114 0.32571 0.0
O911 O 0.49612 0.19572 0.33344 0.0
H912 H 0.28937 0.2373 0.34761 0.0
H913 H 0.19819 0.24408 0.34604 0.0
H914 H 0.19785 0.2112 0.31191 0.0
H915 H 0.28931 0.20486 0.31338 0.0
H916 H 0.71232 0.26599 0.30712 0.0
H917 H 0.80321 0.25754 0.30726 0.0
H918 H 0.79367 0.23808 0.34382 0.0
H919 H 0.70244 0.24594 0.34354 0.0
Sm920 Sm 0.34931 0.5099 0.33239 0.0
Sm921 Sm 0.23965 0.48626 0.33276 0.0
C922 C 0.44072 0.52308 0.33973 0.0
C923 C 0.49563 0.52053 0.33734 0.0
C924 C 0.53043 0.52653 0.34614 0.0
C925 C 0.58271 0.52401 0.3443 0.0
C926 C 0.6016 0.51538 0.33359 0.0
C927 C 0.56641 0.5093 0.32476 0.0
C928 C 0.51392 0.51185 0.32662 0.0
C929 C 0.31709 0.5047 0.30942 0.0
C930 C 0.33313 0.45256 0.32732 0.0
C931 C 0.14263 0.47333 0.33193 0.0
C932 C 0.08953 0.48079 0.32962 0.0
C933 C 0.05683 0.46528 0.32371 0.0
C934 C 1.0048 0.47015 0.32282 0.0
C935 C 0.98399 0.49066 0.32788 0.0
C936 C 1.01728 0.50669 0.33339 0.0
C937 C 0.06944 0.5018 0.33426 0.0
C938 C 0.29536 0.48598 0.35343 0.0
C939 C 0.24906 0.5436 0.33307 0.0
O940 O 0.41709 0.50432 0.34365 0.0
O941 O 0.41349 0.53545 0.33229 0.0
O942 O 0.29259 0.49879 0.31851 0.0
O943 O 0.36018 0.51404 0.31245 0.0
O944 O 0.3633 0.4694 0.33146 0.0
O945 O 0.28442 0.45593 0.32534 0.0
O946 O 0.17371 0.47072 0.32305 0.0
O947 O 0.16483 0.48174 0.34129 0.0
O948 O 0.29132 0.50292 0.34632 0.0
O949 O 0.26862 0.46816 0.34981 0.0
O950 O 0.22243 0.52506 0.32983 0.0
O951 O 0.29771 0.54215 0.33599 0.0
H952 H 0.5171 0.53307 0.35451 0.0
H953 H 0.6083 0.52845 0.3514 0.0
H954 H 0.57942 0.50279 0.31636 0.0
H955 H 0.48767 0.50702 0.31971 0.0
H956 H 0.07132 0.44895 0.32007 0.0
H957 H 0.98073 0.45762 0.31831 0.0
H958 H 1.0028 0.52258 0.33745 0.0
H959 H 0.09371 0.51409 0.33889 0.0
Sm960 Sm 0.48725 0.0001 0.08183 0.0
Sm961 Sm 0.59604 0.97508 0.08155 0.0
C962 C 0.39081 0.01374 0.08021 0.0
C963 C 0.33754 0.00528 0.07936 0.0
C964 C 0.30464 0.01576 0.07118 0.0
C965 C 0.25275 0.0102 0.07108 0.0
C966 C 0.23236 -0.00592 0.07921 0.0
C967 C 0.26575 0.98302 0.08717 0.0
C968 C 0.31773 0.98851 0.08723 0.0
C969 C 0.54327 0.00034 0.10237 0.0
C970 C 0.49428 0.94226 0.08364 0.0
C971 C 0.68741 0.96219 0.08904 0.0
C972 C 0.74257 0.96594 0.08719 0.0
C973 C 0.77417 0.96837 0.09701 0.0
C974 C 0.82656 0.97163 0.09571 0.0
C975 C 0.84889 0.97257 0.0845 0.0
C976 C 0.81705 0.97013 0.07463 0.0
C977 C 0.76442 0.9669 0.07596 0.0
C978 C 0.56302 0.9802 0.05862 0.0
C979 C 0.58223 0.03265 0.07619 0.0
O980 O 0.4204 0.01132 0.07106 0.0
O981 O 0.41461 0.01046 0.09015 0.0
O982 O 0.53824 0.98313 0.09546 0.0
O983 O 0.51796 0.01851 0.09857 0.0
O984 O 0.46715 0.96114 0.0811 0.0
O985 O 0.54412 0.94304 0.08533 0.0
O986 O 0.66184 0.97987 0.09351 0.0
O987 O 0.66179 0.95039 0.0811 0.0
O988 O 0.53959 0.98658 0.06777 0.0
O989 O 0.60558 0.97018 0.06156 0.0
O990 O 0.61209 0.0154 0.08005 0.0
O991 O 0.53328 0.02993 0.07433 0.0
H992 H 0.31882 0.02885 0.06508 0.0
H993 H 0.2283 0.01925 0.0649 0.0
H994 H 0.25163 0.97025 0.09344 0.0
H995 H 0.34212 0.98003 0.09362 0.0
H996 H 0.75828 0.9676 0.10576 0.0
H997 H 0.84968 0.97303 0.10352 0.0
H998 H 0.83268 0.97101 0.06587 0.0
H999 H 0.7409 0.96518 0.06822 0.0
Sm1000 Sm 0.81072 0.23239 0.08029 0.0
Sm1001 Sm 0.70834 0.25631 0.07947 0.0
C1002 C 0.90659 0.21799 0.07806 0.0
C1003 C 0.96095 0.22459 0.07929 0.0
C1004 C 0.98242 0.24366 0.07313 0.0
C1005 C 0.035 0.24783 0.07355 0.0
C1006 C 0.06735 0.233 0.0801 0.0
C1007 C 0.04533 0.21439 0.08652 0.0
C1008 C 0.99294 0.21023 0.08609 0.0
C1009 C 0.75953 0.23451 0.10154 0.0
C1010 C 0.80669 0.28972 0.08237 0.0
C1011 C 0.61265 0.26967 0.08331 0.0
C1012 C 0.55821 0.26286 0.08219 0.0
C1013 C 0.53076 0.25605 0.09221 0.0
C1014 C 0.47837 0.25187 0.09162 0.0
C1015 C 0.45174 0.25454 0.08099 0.0
C1016 C 0.47938 0.26103 0.07092 0.0
C1017 C 0.53188 0.26518 0.07152 0.0
C1018 C 0.7542 0.25415 0.05773 0.0
C1019 C 0.71796 0.19811 0.07622 0.0
O1020 O 0.88027 0.22742 0.06952 0.0
O1021 O 0.87996 0.21504 0.08761 0.0
O1022 O 0.76329 0.25106 0.09418 0.0
O1023 O 0.78469 0.21618 0.09798 0.0
O1024 O 0.83246 0.27113 0.07892 0.0
O1025 O 0.75763 0.28835 0.08477 0.0
O1026 O 0.64035 0.2584 0.09102 0.0
O1027 O 0.63806 0.27514 0.07384 0.0
O1028 O 0.75443 0.23758 0.06524 0.0
O1029 O 0.72862 0.27212 0.06162 0.0
O1030 O 0.68865 0.21616 0.07918 0.0
O1031 O 0.76676 0.20061 0.07427 0.0
H1032 H 0.95884 0.25504 0.06777 0.0
H1033 H 0.05044 0.26223 0.06842 0.0
H1034 H 0.06865 0.20286 0.09186 0.0
H1035 H 0.9775 0.19538 0.09091 0.0
H1036 H 0.54961 0.25451 0.10062 0.0
H1037 H 0.45847 0.24726 0.0996 0.0
H1038 H 0.46041 0.26299 0.06256 0.0
H1039 H 0.55161 0.2706 0.06363 0.0
Sm1040 Sm 0.48985 0.23666 0.19662 0.0
Sm1041 Sm 0.59967 0.26127 0.19622 0.0
C1042 C 0.39417 0.22338 0.20008 0.0
C1043 C 0.34059 0.23142 0.1995 0.0
C1044 C 0.30852 0.22718 0.2091 0.0
C1045 C 0.25672 0.23269 0.20852 0.0
C1046 C 0.23558 0.24251 0.19828 0.0
C1047 C 0.26807 0.24725 0.18875 0.0
C1048 C 0.32001 0.2418 0.18936 0.0
C1049 C 0.54283 0.23643 0.17564 0.0
C1050 C 0.49765 0.29438 0.19341 0.0
C1051 C 0.69077 0.2736 0.18841 0.0
C1052 C 0.74599 0.26991 0.1903 0.0
C1053 C 0.77556 0.26126 0.18101 0.0
C1054 C 0.828 0.25819 0.18229 0.0
C1055 C 0.85246 0.2638 0.19289 0.0
C1056 C 0.82277 0.27248 0.20222 0.0
C1057 C 0.77009 0.27547 0.20095 0.0
C1058 C 0.56927 0.25558 0.21933 0.0
C1059 C 0.58535 0.20414 0.20195 0.0
O1060 O 0.42287 0.23213 0.20837 0.0
O1061 O 0.41854 0.22022 0.19021 0.0
O1062 O 0.53992 0.25336 0.18278 0.0
O1063 O 0.5156 0.21873 0.17929 0.0
O1064 O 0.46958 0.27555 0.19542 0.0
O1065 O 0.54798 0.29364 0.19265 0.0
O1066 O 0.6651 0.25559 0.18431 0.0
O1067 O 0.66517 0.28612 0.19608 0.0
O1068 O 0.54483 0.24968 0.21024 0.0
O1069 O 0.61181 0.26537 0.21621 0.0
O1070 O 0.61432 0.22081 0.19722 0.0
O1071 O 0.53725 0.20763 0.20454 0.0
H1072 H 0.32335 0.21905 0.21699 0.0
H1073 H 0.23295 0.22852 0.21598 0.0
H1074 H 0.25333 0.25511 0.18079 0.0
H1075 H 0.34381 0.24537 0.18182 0.0
H1076 H 0.75806 0.25704 0.17268 0.0
H1077 H 0.84954 0.25184 0.17485 0.0
H1078 H 0.84017 0.27676 0.21055 0.0
H1079 H 0.74837 0.28218 0.20828 0.0
Sm1080 Sm 0.80219 0.00251 0.1993 0.0
Sm1081 Sm 0.70032 0.97902 0.20005 0.0
C1082 C 0.89851 0.01669 0.20095 0.0
C1083 C 0.95267 0.00901 0.2006 0.0
C1084 C 0.97821 0.00239 0.21093 0.0
C1085 C 0.0306 -0.00213 0.21084 0.0
C1086 C 0.05903 -2e-05 0.20044 0.0
C1087 C 0.0332 0.00611 0.19006 0.0
C1088 C 0.98084 0.01065 0.19015 0.0
C1089 C 0.7502 0.00128 0.17815 0.0
C1090 C 0.79753 0.94542 0.19739 0.0
C1091 C 0.60448 0.9658 0.19639 0.0
C1092 C 0.55017 0.97224 0.1981 0.0
C1093 C 0.52765 0.99112 0.19198 0.0
C1094 C 0.47517 -0.00479 0.19271 0.0
C1095 C 0.44383 0.98053 0.19957 0.0
C1096 C 0.46671 0.96201 0.2059 0.0
C1097 C 0.5191 0.95788 0.20514 0.0
C1098 C 0.7462 0.98116 0.22186 0.0
C1099 C 0.71031 0.03707 0.20369 0.0
O1100 O 0.87087 0.01056 0.20997 0.0
O1101 O 0.87268 0.0168 0.19116 0.0
O1102 O 0.75492 0.98425 0.1852 0.0
O1103 O 0.77306 0.01989 0.18215 0.0
O1104 O 0.82276 0.96369 0.20141 0.0
O1105 O 0.74928 0.94729 0.19434 0.0
O1106 O 0.63125 0.97799 0.18886 0.0
O1107 O 0.63086 0.95931 0.20556 0.0
O1108 O 0.74617 -0.00242 0.21431 0.0
O1109 O 0.72059 0.96316 0.21803 0.0
O1110 O 0.68122 0.01932 0.2002 0.0
O1111 O 0.75884 0.03405 0.20585 0.0
H1112 H 0.95798 0.00119 0.21917 0.0
H1113 H 0.04889 -0.00711 0.21898 0.0
H1114 H 0.05373 0.00824 0.18191 0.0
H1115 H 0.96271 0.0161 0.18207 0.0
H1116 H 0.55033 0.0025 0.18643 0.0
H1117 H 0.45911 0.00983 0.18784 0.0
H1118 H 0.44389 0.95013 0.21116 0.0
H1119 H 0.53515 0.943 0.20983 0.0
Sm1120 Sm 0.44414 0.0093 0.94928 0.0
Sm1121 Sm 0.55429 0.98491 0.95023 0.0
C1122 C 0.3534 0.02154 0.9412 0.0
C1123 C 0.29813 0.01777 0.94309 0.0
C1124 C 0.26949 0.00651 0.93434 0.0
C1125 C 0.21702 0.00348 0.93559 0.0
C1126 C 0.19157 0.01177 0.94562 0.0
C1127 C 0.22029 0.02305 0.9544 0.0
C1128 C 0.27296 0.02601 0.95316 0.0
C1129 C 0.47253 0.00334 0.97254 0.0
C1130 C 0.45856 0.95218 0.95494 0.0
C1131 C 0.64985 0.97197 0.95422 0.0
C1132 C 0.7035 0.97973 0.95319 0.0
C1133 C 0.73525 0.97837 0.96305 0.0
C1134 C 0.78704 0.98371 0.96219 0.0
C1135 C 0.80855 0.99046 0.95141 0.0
C1136 C 0.77641 0.99229 0.94156 0.0
C1137 C 0.72448 0.98701 0.94244 0.0
C1138 C 0.50353 0.98492 0.92892 0.0
C1139 C 0.5463 0.04258 0.94676 0.0
O1140 O 0.37936 0.00353 0.93718 0.0
O1141 O 0.3788 0.03424 0.94884 0.0
O1142 O 0.49776 -0.00229 0.96354 0.0
O1143 O 0.42992 0.01286 0.96926 0.0
O1144 O 0.43013 0.96876 0.94994 0.0
O1145 O 0.50614 0.95588 0.95797 0.0
O1146 O 0.6215 0.98246 0.96207 0.0
O1147 O 0.62509 0.96687 0.9446 0.0
O1148 O 0.50546 0.00168 0.93617 0.0
O1149 O 0.53097 0.9673 0.93262 0.0
O1150 O 0.57438 0.02379 0.9489 0.0
O1151 O 0.496 0.04173 0.94584 0.0
H1152 H 0.2877 0.00024 0.92641 0.0
H1153 H 0.19622 -0.00494 0.92855 0.0
H1154 H 0.20212 0.02946 0.96229 0.0
H1155 H 0.29381 0.03483 0.96006 0.0
H1156 H 0.72015 0.97263 0.97142 0.0
H1157 H 0.81054 0.9818 0.96993 0.0
H1158 H 0.79142 -0.00225 0.93315 0.0
H1159 H 0.70099 0.9883 0.93467 0.0
Sm1160 Sm 0.35328 0.72687 0.95016 0.0
Sm1161 Sm 0.24369 0.75022 0.95002 0.0
C1162 C 0.44451 0.71388 0.94271 0.0
C1163 C 0.49951 0.71746 0.94484 0.0
C1164 C 0.53185 0.72055 0.93519 0.0
C1165 C 0.58409 0.72376 0.93678 0.0
C1166 C 0.60548 0.72395 0.94809 0.0
C1167 C 0.57294 0.72079 0.95778 0.0
C1168 C 0.52047 0.71764 0.95617 0.0
C1169 C 0.32232 0.73247 0.9732 0.0
C1170 C 0.337 0.78433 0.95495 0.0
C1171 C 0.14677 0.76323 0.95089 0.0
C1172 C 0.09364 0.75585 0.95318 0.0
C1173 C 0.06154 0.77108 0.95943 0.0
C1174 C 1.0094 0.76649 0.96025 0.0
C1175 C 0.98792 0.74656 0.9548 0.0
C1176 C 1.02062 0.73072 0.94899 0.0
C1177 C 0.07289 0.73533 0.94818 0.0
C1178 C 0.29808 0.74997 0.92921 0.0
C1179 C 0.25357 0.69291 0.94998 0.0
O1180 O 0.41939 0.7318 0.9383 0.0
O1181 O 0.41835 0.70185 0.95048 0.0
O1182 O 0.29741 0.73808 0.96412 0.0
O1183 O 0.36563 0.7234 0.97014 0.0
O1184 O 0.36702 0.76746 0.95076 0.0
O1185 O 0.28856 0.78081 0.95718 0.0
O1186 O 0.17789 0.76569 0.95977 0.0
O1187 O 0.16888 0.75492 0.94149 0.0
O1188 O 0.29403 0.7331 0.93634 0.0
O1189 O 0.27312 0.76821 0.93298 0.0
O1190 O 0.22683 0.7114 0.95325 0.0
O1191 O 0.30191 0.69449 0.94683 0.0
H1192 H 0.51664 0.72037 0.92636 0.0
H1193 H 0.60786 0.72577 0.9291 0.0
H1194 H 0.58793 0.72108 0.96661 0.0
H1195 H 0.49636 0.71541 0.96378 0.0
H1196 H 0.07655 0.78703 0.96335 0.0
H1197 H 0.98575 0.77884 0.96501 0.0
H1198 H 1.00558 0.71527 0.94462 0.0
H1199 H 0.0967 0.72325 0.94329 0.0
Sm1200 Sm 0.44287 0.72459 0.83108 0.0
Sm1201 Sm 0.5519 0.74725 0.83174 0.0
C1202 C 0.35066 0.71156 0.83785 0.0
C1203 C 0.29595 0.71516 0.83506 0.0
C1204 C 0.2706 0.73607 0.83824 0.0
C1205 C 0.21823 0.73852 0.8364 0.0
C1206 C 0.18967 0.72013 0.83136 0.0
C1207 C 0.21526 0.69935 0.82804 0.0
C1208 C 0.26763 0.69688 0.8299 0.0
C1209 C 0.47403 0.73088 0.8081 0.0
C1210 C 0.46012 0.78228 0.82699 0.0
C1211 C 0.64931 0.75939 0.8318 0.0
C1212 C 0.70204 0.75238 0.82897 0.0
C1213 C 0.7196 0.72921 0.83075 0.0
C1214 C 0.77143 0.72391 0.82961 0.0
C1215 C 0.80676 0.74165 0.82666 0.0
C1216 C 0.7885 0.7646 0.82447 0.0
C1217 C 0.73681 0.76987 0.82562 0.0
C1218 C 0.49642 0.74718 0.85239 0.0
C1219 C 0.54087 0.69023 0.83027 0.0
O1220 O 0.37552 0.72933 0.84247 0.0
O1221 O 0.37815 0.69927 0.83045 0.0
O1222 O 0.49932 0.73615 0.81717 0.0
O1223 O 0.43071 0.72183 0.81112 0.0
O1224 O 0.42921 0.76518 0.83053 0.0
O1225 O 0.50887 0.7789 0.82508 0.0
O1226 O 0.61839 0.76487 0.82321 0.0
O1227 O 0.62693 0.74825 0.84043 0.0
O1228 O 0.50055 0.73021 0.84532 0.0
O1229 O 0.52189 0.76525 0.84864 0.0
O1230 O 0.56718 0.70886 0.82701 0.0
O1231 O 0.49352 0.69179 0.83407 0.0
H1232 H 0.29094 0.75045 0.84236 0.0
H1233 H 0.19992 0.75464 0.83925 0.0
H1234 H 0.19481 0.68491 0.824 0.0
H1235 H 0.28588 0.68048 0.82745 0.0
H1236 H 0.69352 0.71536 0.83333 0.0
H1237 H 0.78393 0.70597 0.83118 0.0
H1238 H 0.81443 0.7788 0.82233 0.0
H1239 H 0.72423 0.7879 0.82432 0.0
Sm1240 Sm 0.34748 0.00724 0.83195 0.0
Sm1241 Sm 0.2384 0.98357 0.83302 0.0
C1242 C 0.43974 0.02079 0.83843 0.0
C1243 C 0.49439 0.0176 0.83559 0.0
C1244 C 0.51757 -0.00478 0.83586 0.0
C1245 C 0.57009 -0.00712 0.83418 0.0
C1246 C 0.60084 0.01283 0.83217 0.0
C1247 C 0.57721 0.03513 0.83161 0.0
C1248 C 0.52474 0.03746 0.83334 0.0
C1249 C 0.31434 0.00077 0.80914 0.0
C1250 C 0.3318 0.94936 0.82814 0.0
C1251 C 0.14143 0.97062 0.83247 0.0
C1252 C 0.08871 0.97859 0.8302 0.0
C1253 C 0.07063 0.00043 0.83431 0.0
C1254 C 1.01888 0.00611 0.83345 0.0
C1255 C 0.9841 0.99013 0.82844 0.0
C1256 C 1.00284 0.9687 0.82394 0.0
C1257 C 0.05448 0.96301 0.82484 0.0
C1258 C 0.29513 0.98414 0.85354 0.0
C1259 C 0.247 0.04102 0.83261 0.0
O1260 O 0.41571 0.00279 0.84308 0.0
O1261 O 0.41167 0.03291 0.83107 0.0
O1262 O 0.2901 -0.00471 0.81835 0.0
O1263 O 0.35767 0.01008 0.81196 0.0
O1264 O 0.36253 0.96675 0.83138 0.0
O1265 O 0.28273 0.95226 0.82649 0.0
O1266 O 0.17214 0.96785 0.82354 0.0
O1267 O 0.1641 0.97905 0.84178 0.0
O1268 O 0.29084 0.00085 0.84628 0.0
O1269 O 0.26786 0.96629 0.85019 0.0
O1270 O 0.22022 0.02221 0.82989 0.0
O1271 O 0.29609 0.03983 0.83519 0.0
H1272 H 0.49537 0.97951 0.83761 0.0
H1273 H 0.58674 0.97545 0.83482 0.0
H1274 H 0.59927 0.05088 0.82988 0.0
H1275 H 0.50795 0.05492 0.83311 0.0
H1276 H 0.09622 0.01284 0.83846 0.0
H1277 H 1.00601 0.02292 0.83685 0.0
H1278 H 0.97728 0.95584 0.82013 0.0
H1279 H 0.06741 0.946 0.82169 0.0
H1280 H 0.0386 0.39891 0.09144 0.0
H1281 H 0.91189 0.43201 0.07373 0.0
H1282 H 0.98904 0.36249 0.0932 0.0
H1283 H 0.86348 0.39594 0.0753 0.0
H1284 H 0.77085 0.33403 0.08803 0.0
H1285 H 0.82029 0.37059 0.08922 0.0
H1286 H 0.95661 0.33195 0.08048 0.0
H1287 H 0.90829 0.2958 0.07958 0.0
C1288 C 1.00052 0.39838 0.08786 0.0
C1289 C 0.97939 0.41836 0.08244 0.0
C1290 C 0.97206 0.37759 0.08889 0.0
C1291 C 0.92207 0.37642 0.08449 0.0
C1292 C 0.90131 0.39637 0.07903 0.0
C1293 C 0.92952 0.41703 0.07802 0.0
C1294 C 0.81139 0.33339 0.08646 0.0
C1295 C 0.83535 0.31204 0.08361 0.0
C1296 C 0.83971 0.35429 0.0871 0.0
C1297 C 0.89243 0.35415 0.08492 0.0
C1298 C 0.91633 0.33267 0.08237 0.0
C1299 C 0.88824 0.31193 0.08174 0.0
H1300 H 0.39243 0.93597 0.08115 0.0
H1301 H 0.5311 0.89776 0.08861 0.0
H1302 H 0.34466 0.8997 0.08201 0.0
H1303 H 0.4822 0.86108 0.0898 0.0
H1304 H 0.38925 0.7997 0.07481 0.0
H1305 H 0.43786 0.83574 0.07626 0.0
H1306 H 0.31367 0.86901 0.09468 0.0
H1307 H 0.26387 0.8327 0.09299 0.0
C1308 C 0.4129 0.91983 0.08307 0.0
C1309 C 0.46597 0.91979 0.08469 0.0
C1310 C 0.38512 0.89899 0.08369 0.0
C1311 C 0.40947 0.87749 0.08599 0.0
C1312 C 0.4624 0.87739 0.08787 0.0
C1313 C 0.49043 0.89837 0.08723 0.0
C1314 C 0.37201 0.81464 0.07919 0.0
C1315 C 0.32239 0.81333 0.08375 0.0
C1316 C 0.40032 0.83528 0.08012 0.0
C1317 C 0.37993 0.8552 0.08567 0.0
C1318 C 0.33032 0.85397 0.09027 0.0
C1319 C 0.30173 0.83323 0.08929 0.0
H1320 H 0.76484 0.90352 0.18777 0.0
H1321 H 0.89473 0.9367 0.20409 0.0
H1322 H 0.81367 0.86694 0.18581 0.0
H1323 H 0.94241 0.90043 0.20239 0.0
H1324 H 0.03114 0.83695 0.19029 0.0
H1325 H 0.98308 0.87383 0.18878 0.0
H1326 H 0.8462 0.83695 0.19884 0.0
H1327 H 0.89313 0.80044 0.20005 0.0
C1328 C 0.80358 0.90301 0.19095 0.0
C1329 C 0.82566 0.92298 0.19613 0.0
C1330 C 0.83157 0.88211 0.18984 0.0
C1331 C 0.88205 0.88083 0.19391 0.0
C1332 C 0.90407 0.90091 0.19896 0.0
C1333 C 0.87631 0.92169 0.20004 0.0
C1334 C 0.99078 0.83675 0.1921 0.0
C1335 C 0.96627 0.81576 0.19537 0.0
C1336 C 0.96324 0.85784 0.19126 0.0
C1337 C 0.91076 0.85829 0.19369 0.0
C1338 C 0.88629 0.8372 0.19672 0.0
C1339 C 0.91359 0.81624 0.19754 0.0
H1340 H 0.27145 0.40652 0.18431 0.0
H1341 H 0.38069 0.43089 0.20985 0.0
H1342 H 0.32346 0.37134 0.18094 0.0
H1343 H 0.43149 0.39582 0.20675 0.0
H1344 H 0.53554 0.33977 0.1931 0.0
H1345 H 0.48621 0.37643 0.19292 0.0
H1346 H 0.3473 0.336 0.19091 0.0
H1347 H 0.39587 0.2999 0.19065 0.0
C1348 C 0.30613 0.40422 0.18929 0.0
C1349 C 0.32189 0.42141 0.19734 0.0
C1350 C 0.33606 0.38416 0.18735 0.0
C1351 C 0.38202 0.38091 0.19349 0.0
C1352 C 0.39714 0.39802 0.20164 0.0
C1353 C 0.36756 0.41802 0.20352 0.0
C1354 C 0.49457 0.33881 0.19243 0.0
C1355 C 0.46978 0.31691 0.19207 0.0
C1356 C 0.46624 0.35975 0.19241 0.0
C1357 C 0.41271 0.35912 0.19202 0.0
C1358 C 0.38834 0.33722 0.1911 0.0
C1359 C 0.41644 0.31643 0.19109 0.0
H1360 H 1.01364 0.58791 0.94501 0.0
H1361 H 0.15349 0.54783 0.94626 0.0
H1362 H 0.0632 0.62448 0.94471 0.0
H1363 H 0.202 0.58387 0.94636 0.0
H1364 H 0.27944 0.65311 0.93762 0.0
H1365 H 0.2284 0.61737 0.93523 0.0
H1366 H 0.11459 0.64616 0.95847 0.0
H1367 H 0.16455 0.6818 0.9606 0.0
C1368 C 0.0547 0.58686 0.94516 0.0
C1369 C 0.07935 0.56493 0.94576 0.0
C1370 C 0.08312 0.60777 0.94507 0.0
C1371 C 0.13663 0.60708 0.94558 0.0
C1372 C 0.16103 0.58511 0.9458 0.0
C1373 C 0.13287 0.56436 0.94586 0.0
C1374 C 0.24374 0.65165 0.94228 0.0
C1375 C 0.22612 0.67024 0.9493 0.0
C1376 C 0.21438 0.63126 0.94089 0.0
C1377 C 0.16709 0.62903 0.94657 0.0
C1378 C 0.15011 0.64751 0.95374 0.0
C1379 C 0.17917 0.66785 0.95506 0.0
H1380 H 0.77418 0.15261 0.93491 0.0
H1381 H 0.65568 0.18408 0.95595 0.0
H1382 H 0.72327 0.1166 0.93322 0.0
H1383 H 0.60602 0.14833 0.95451 0.0
H1384 H 0.50807 0.0874 0.94306 0.0
H1385 H 0.55672 0.12411 0.94143 0.0
H1386 H 0.69633 0.08487 0.94563 0.0
H1387 H 0.64877 0.04864 0.94689 0.0
C1388 C 0.7376 0.1518 0.93923 0.0
C1389 C 0.71916 0.17117 0.94558 0.0
C1390 C 0.70836 0.13123 0.93825 0.0
C1391 C 0.66033 0.12966 0.94366 0.0
C1392 C 0.64219 0.14908 0.95001 0.0
C1393 C 0.67112 0.16954 0.95093 0.0
C1394 C 0.54912 0.08666 0.94353 0.0
C1395 C 0.57424 0.06507 0.94522 0.0
C1396 C 0.57703 0.10766 0.94264 0.0
C1397 C 0.6305 0.10741 0.94342 0.0
C1398 C 0.6554 0.08573 0.9448 0.0
C1399 C 0.62775 0.06489 0.94566 0.0
H1400 H 0.14508 0.18527 0.8262 0.0
H1401 H 1.01125 0.14885 0.8387 0.0
H1402 H 0.19383 0.14931 0.82774 0.0
H1403 H 0.06119 0.11248 0.84049 0.0
H1404 H 0.14893 0.04859 0.82615 0.0
H1405 H 0.1004 0.08469 0.82709 0.0
H1406 H 0.23067 0.12114 0.84129 0.0
H1407 H 0.28037 0.08463 0.84018 0.0
C1408 C 0.12591 0.16959 0.82936 0.0
C1409 C 0.07385 0.16993 0.83222 0.0
C1410 C 0.15431 0.14897 0.83037 0.0
C1411 C 0.13159 0.12803 0.83427 0.0
C1412 C 0.0797 0.12834 0.83734 0.0
C1413 C 0.05108 0.14913 0.83634 0.0
C1414 C 0.16762 0.06421 0.82951 0.0
C1415 C 0.2189 0.06368 0.83305 0.0
C1416 C 0.13934 0.08492 0.83015 0.0
C1417 C 0.16139 0.10576 0.83436 0.0
C1418 C 0.21266 0.10535 0.83794 0.0
C1419 C 0.24119 0.08448 0.83729 0.0
H1420 H 0.53854 0.65419 0.8463 0.0
H1421 H 0.60528 0.6757 0.81343 0.0
H1422 H 0.5946 0.61935 0.84665 0.0
H1423 H 0.66004 0.64095 0.81367 0.0
H1424 H 0.69605 0.55982 0.81343 0.0
H1425 H 0.64168 0.59472 0.81331 0.0
H1426 H 0.69948 0.61465 0.84728 0.0
H1427 H 0.7552 0.57967 0.84729 0.0
C1428 C 0.56433 0.65116 0.83906 0.0
C1429 C 0.56748 0.66742 0.8298 0.0
C1430 C 0.59676 0.63153 0.83934 0.0
C1431 C 0.63179 0.62773 0.83024 0.0
C1432 C 0.63342 0.64356 0.82079 0.0
C1433 C 0.60197 0.66332 0.82064 0.0
C1434 C 0.69782 0.57189 0.82078 0.0
C1435 C 0.73003 0.56729 0.83032 0.0
C1436 C 0.66659 0.59174 0.82073 0.0
C1437 C 0.66613 0.60711 0.83034 0.0
C1438 C 0.69896 0.60282 0.83983 0.0
C1439 C 0.73121 0.58312 0.83977 0.0
H1440 H 0.04077 0.89898 0.59116 0.0
H1441 H 0.91489 0.93126 0.57276 0.0
H1442 H 0.9911 0.86266 0.59324 0.0
H1443 H 0.86633 0.89528 0.57468 0.0
H1444 H 0.77297 0.83464 0.58843 0.0
H1445 H 0.82305 0.87104 0.5892 0.0
H1446 H 0.95851 0.83154 0.58068 0.0
H1447 H 0.90945 0.79551 0.58019 0.0
C1448 C 1.00287 0.89828 0.58749 0.0
C1449 C 0.98192 0.91798 0.5818 0.0
C1450 C 0.97436 0.87756 0.5887 0.0
C1451 C 0.92455 0.87624 0.58423 0.0
C1452 C 0.90404 0.89589 0.57846 0.0
C1453 C 0.9323 0.91647 0.57726 0.0
C1454 C 0.81346 0.83379 0.58682 0.0
C1455 C 0.83698 0.81226 0.58411 0.0
C1456 C 0.84212 0.85457 0.58722 0.0
C1457 C 0.89473 0.85412 0.58495 0.0
C1458 C 0.91827 0.83247 0.58261 0.0
C1459 C 0.88981 0.81182 0.58219 0.0
H1460 H 0.25594 0.33251 0.59108 0.0
H1461 H 0.37891 0.30394 0.57036 0.0
H1462 H 0.30529 0.3686 0.59413 0.0
H1463 H 0.42725 0.33979 0.57324 0.0
H1464 H 0.52208 0.39854 0.5882 0.0
H1465 H 0.47281 0.36184 0.58822 0.0
H1466 H 0.335 0.40183 0.58273 0.0
H1467 H 0.38328 0.43807 0.58302 0.0
C1468 C 0.29309 0.33403 0.58708 0.0
C1469 C 0.31339 0.3154 0.58048 0.0
C1470 C 0.32146 0.3546 0.58886 0.0
C1471 C 0.37047 0.35689 0.58404 0.0
C1472 C 0.39023 0.33836 0.57731 0.0
C1473 C 0.3621 0.3179 0.57556 0.0
C1474 C 0.48125 0.39942 0.58715 0.0
C1475 C 0.4568 0.42115 0.58545 0.0
C1476 C 0.45305 0.37846 0.5871 0.0
C1477 C 0.40002 0.37897 0.5854 0.0
C1478 C 0.37561 0.4008 0.58418 0.0
C1479 C 0.40359 0.42161 0.58421 0.0
H1480 H 0.88444 0.2954 0.69755 0.0
H1481 H 0.02334 0.3347 0.69214 0.0
H1482 H 0.83655 0.33169 0.69805 0.0
H1483 H 0.97434 0.37147 0.69232 0.0
H1484 H 0.88062 0.43093 0.70874 0.0
H1485 H 0.92889 0.39483 0.70656 0.0
H1486 H 0.80603 0.36424 0.68658 0.0
H1487 H 0.75673 0.40055 0.68898 0.0
C1488 C 0.90495 0.3118 0.69637 0.0
C1489 C 0.95811 0.31209 0.69492 0.0
C1490 C 0.8771 0.33268 0.69654 0.0
C1491 C 0.90145 0.35452 0.69524 0.0
C1492 C 0.95449 0.3549 0.69351 0.0
C1493 C 0.98258 0.33387 0.69335 0.0
C1494 C 0.86359 0.41653 0.70389 0.0
C1495 C 0.8146 0.41863 0.69904 0.0
C1496 C 0.89168 0.39588 0.70255 0.0
C1497 C 0.8717 0.37672 0.69629 0.0
C1498 C 0.82243 0.37865 0.69153 0.0
C1499 C 0.79409 0.3994 0.69292 0.0
H1500 H 0.52629 0.83364 0.68712 0.0
H1501 H 0.40775 0.80208 0.70814 0.0
H1502 H 0.47499 0.86946 0.68519 0.0
H1503 H 0.35765 0.83774 0.7065 0.0
H1504 H 0.25822 0.8976 0.6942 0.0
H1505 H 0.30809 0.86116 0.69328 0.0
H1506 H 0.44632 0.90168 0.69677 0.0
H1507 H 0.39745 0.93764 0.69724 0.0
C1508 C 0.48967 0.83443 0.69142 0.0
C1509 C 0.47125 0.81503 0.69778 0.0
C1510 C 0.46017 0.85491 0.69031 0.0
C1511 C 0.4119 0.85642 0.69561 0.0
C1512 C 0.39397 0.83705 0.70206 0.0
C1513 C 0.42314 0.81664 0.7031 0.0
C1514 C 0.29923 0.89867 0.69464 0.0
C1515 C 0.32357 0.92056 0.6959 0.0
C1516 C 0.32786 0.87782 0.69418 0.0
C1517 C 0.38132 0.87847 0.69501 0.0
C1518 C 0.40543 0.90044 0.69594 0.0
C1519 C 0.37705 0.92115 0.69634 0.0
H1520 H 0.15057 0.04641 0.44353 0.0
H1521 H 1.01189 0.08699 0.44545 0.0
H1522 H 0.19998 0.08221 0.44309 0.0
H1523 H 0.0619 0.12342 0.44448 0.0
H1524 H 0.16924 0.17962 0.45909 0.0
H1525 H 0.11805 0.14427 0.45745 0.0
H1526 H 0.22362 0.11609 0.43205 0.0
H1527 H 0.27604 0.15155 0.43396 0.0
C1528 C 0.13048 0.06303 0.4438 0.0
C1529 C 0.07725 0.0638 0.4448 0.0
C1530 C 0.15898 0.08365 0.44336 0.0
C1531 C 0.13506 0.10571 0.44381 0.0
C1532 C 0.08155 0.10662 0.44431 0.0
C1533 C 0.05284 0.08582 0.44479 0.0
C1534 C 0.18179 0.16585 0.45318 0.0
C1535 C 0.22683 0.16831 0.44667 0.0
C1536 C 0.15199 0.14569 0.45214 0.0
C1537 C 0.16625 0.12748 0.44451 0.0
C1538 C 0.21171 0.12976 0.43808 0.0
C1539 C 0.2419 0.14998 0.43919 0.0
H1540 H 0.77808 0.65051 0.43871 0.0
H1541 H 0.64324 0.68551 0.45162 0.0
H1542 H 0.73001 0.61364 0.43711 0.0
H1543 H 0.5963 0.64899 0.45028 0.0
H1544 H 0.51215 0.58349 0.43914 0.0
H1545 H 0.56023 0.62023 0.43701 0.0
H1546 H 0.69383 0.58565 0.45081 0.0
H1547 H 0.64684 0.54922 0.45267 0.0
C1548 C 0.73839 0.65036 0.44119 0.0
C1549 C 0.71475 0.6709 0.44537 0.0
C1550 C 0.71086 0.62929 0.44029 0.0
C1551 C 0.65927 0.62843 0.44356 0.0
C1552 C 0.63562 0.6491 0.4475 0.0
C1553 C 0.66294 0.67004 0.44839 0.0
C1554 C 0.55181 0.58377 0.44165 0.0
C1555 C 0.5754 0.56348 0.44615 0.0
C1556 C 0.57935 0.60477 0.44045 0.0
C1557 C 0.63092 0.60582 0.44373 0.0
C1558 C 0.65452 0.58538 0.44801 0.0
C1559 C 0.62718 0.56451 0.4492 0.0
H1560 H 0.15226 0.55207 0.32593 0.0
H1561 H 0.2821 0.58628 0.34179 0.0
H1562 H 0.10426 0.58828 0.32727 0.0
H1563 H 0.23291 0.62285 0.34332 0.0
H1564 H 0.15019 0.68848 0.32887 0.0
H1565 H 0.19846 0.65229 0.33004 0.0
H1566 H 0.06392 0.61478 0.34114 0.0
H1567 H 1.01455 0.65132 0.33972 0.0
C1568 C 0.17068 0.56731 0.32977 0.0
C1569 C 0.22134 0.56627 0.33372 0.0
C1570 C 0.14272 0.58805 0.33065 0.0
C1571 C 0.16452 0.60837 0.33549 0.0
C1572 C 0.21517 0.60745 0.33947 0.0
C1573 C 0.24338 0.58656 0.33859 0.0
C1574 C 0.13056 0.67259 0.3316 0.0
C1575 C 0.07817 0.67276 0.3341 0.0
C1576 C 0.15862 0.65185 0.33239 0.0
C1577 C 0.13515 0.63069 0.3357 0.0
C1578 C 0.08295 0.63084 0.33844 0.0
C1579 C 0.05467 0.65172 0.33765 0.0
H1580 H 0.78288 0.08822 0.3364 0.0
H1581 H 0.64218 0.04879 0.33646 0.0
H1582 H 0.73421 0.12503 0.33675 0.0
H1583 H 0.59437 0.08511 0.3364 0.0
H1584 H 0.51867 0.15528 0.34373 0.0
H1585 H 0.56957 0.11969 0.34696 0.0
H1586 H 0.68249 0.14577 0.3227 0.0
H1587 H 0.63277 0.18122 0.31973 0.0
C1588 C 0.7418 0.08737 0.33658 0.0
C1589 C 0.7166 0.06557 0.33625 0.0
C1590 C 0.71388 0.10842 0.33671 0.0
C1591 C 0.66035 0.10798 0.3365 0.0
C1592 C 0.63542 0.08614 0.33669 0.0
C1593 C 0.66312 0.06524 0.3366 0.0
C1594 C 0.55424 0.15327 0.33907 0.0
C1595 C 0.57162 0.171 0.33147 0.0
C1596 C 0.58349 0.13297 0.34094 0.0
C1597 C 0.6304 0.13001 0.33518 0.0
C1598 C 0.64728 0.14771 0.32751 0.0
C1599 C 0.61834 0.16795 0.3257 0.0
H1600 H 0.066 0.53438 0.11825 0.0
H1601 H 0.1094 0.46213 0.11186 0.0
H1602 H 0.11367 0.53405 0.13659 0.0
H1603 H 0.15821 0.46184 0.13014 0.0
H1604 H 0.19801 0.4625 0.1697 0.0
H1605 H 0.15051 0.46205 0.15124 0.0
H1606 H 0.19766 0.53378 0.14441 0.0
H1607 H 0.24399 0.53428 0.16292 0.0
C1608 C 0.086 0.51843 0.12074 0.0
C1609 C 0.08383 0.4983 0.11356 0.0
C1610 C 0.11371 0.51826 0.13125 0.0
C1611 C 0.14019 0.49793 0.13495 0.0
C1612 C 0.13795 0.47775 0.12773 0.0
C1613 C 0.1102 0.47795 0.11718 0.0
C1614 C 0.1982 0.47815 0.16423 0.0
C1615 C 0.22476 0.49844 0.16782 0.0
C1616 C 0.17118 0.47787 0.15359 0.0
C1617 C 0.16988 0.49791 0.14624 0.0
C1618 C 0.19688 0.51812 0.14985 0.0
C1619 C 0.22385 0.51837 0.16046 0.0
H1620 H 0.19756 0.69564 0.11324 0.0
H1621 H 0.22506 0.77022 0.11671 0.0
H1622 H 0.14646 0.69612 0.13098 0.0
H1623 H 0.17829 0.7707 0.13505 0.0
H1624 H 0.06067 0.77139 0.16383 0.0
H1625 H 0.10728 0.771 0.14546 0.0
H1626 H 0.13844 0.69653 0.15037 0.0
H1627 H 0.08751 0.69691 0.16813 0.0
C1628 C 0.19319 0.71212 0.11794 0.0
C1629 C 0.21528 0.73288 0.11358 0.0
C1630 C 0.16417 0.71245 0.12827 0.0
C1631 C 0.1577 0.73344 0.13481 0.0
C1632 C 0.18061 0.75417 0.13036 0.0
C1633 C 0.20815 0.75395 0.11982 0.0
C1634 C 0.07737 0.75495 0.16089 0.0
C1635 C 0.0701 0.73416 0.16738 0.0
C1636 C 0.10483 0.75467 0.15034 0.0
C1637 C 0.12752 0.73371 0.14612 0.0
C1638 C 0.12089 0.713 0.1529 0.0
C1639 C 0.09195 0.71317 0.16324 0.0
H1640 H 0.85692 0.5234 0.86201 0.0
H1641 H 0.81092 0.45162 0.86881 0.0
H1642 H 0.90732 0.5233 0.88006 0.0
H1643 H 0.86009 0.45159 0.88693 0.0
H1644 H 0.99321 0.45026 0.91256 0.0
H1645 H 0.9448 0.45103 0.89432 0.0
H1646 H 0.90146 0.52326 0.90117 0.0
H1647 H 0.95109 0.52254 0.91931 0.0
C1648 C 0.85747 0.50761 0.86738 0.0
C1649 C 0.82996 0.4875 0.86394 0.0
C1650 C 0.88613 0.50758 0.87779 0.0
C1651 C 0.88809 0.48742 0.88505 0.0
C1652 C 0.86037 0.46734 0.88155 0.0
C1653 C 0.8318 0.46739 0.87116 0.0
C1654 C 0.9734 0.46632 0.91016 0.0
C1655 C 0.97597 0.48631 0.91743 0.0
C1656 C 0.94525 0.46674 0.89971 0.0
C1657 C 0.91878 0.48719 0.89618 0.0
C1658 C 0.92167 0.50726 0.90346 0.0
C1659 C 0.94986 0.50681 0.91393 0.0
H1660 H 0.94703 0.21099 0.85968 0.0
H1661 H 0.99199 0.28289 0.86641 0.0
H1662 H 0.89713 0.21081 0.87778 0.0
H1663 H 0.94351 0.28263 0.88461 0.0
H1664 H 0.8103 0.28411 0.91004 0.0
H1665 H 0.85937 0.28325 0.89194 0.0
H1666 H 0.90077 0.21074 0.89883 0.0
H1667 H 0.85026 0.21155 0.91684 0.0
C1668 C 0.94652 0.22672 0.86506 0.0
C1669 C 0.97342 0.24698 0.86155 0.0
C1670 C 0.9181 0.22659 0.87551 0.0
C1671 C 0.91581 0.24674 0.88275 0.0
C1672 C 0.94334 0.26689 0.87924 0.0
C1673 C 0.9716 0.267 0.86881 0.0
C1674 C 0.82978 0.26795 0.90769 0.0
C1675 C 0.82631 0.24792 0.91493 0.0
C1676 C 0.85837 0.26748 0.89731 0.0
C1677 C 0.88462 0.24696 0.89383 0.0
C1678 C 0.88082 0.22682 0.90107 0.0
C1679 C 0.85206 0.22731 0.91147 0.0
H1680 H 0.10313 0.03557 0.61234 0.0
H1681 H 0.07567 0.96107 0.61625 0.0
H1682 H 0.15107 0.03583 0.63052 0.0
H1683 H 0.1192 0.96134 0.63505 0.0
H1684 H 0.22972 0.96243 0.66545 0.0
H1685 H 0.18683 0.96165 0.64659 0.0
H1686 H 0.15553 0.03646 0.64985 0.0
H1687 H 0.20285 0.03719 0.66812 0.0
C1688 C 0.10688 0.01925 0.61722 0.0
C1689 C 0.08566 -0.00168 0.61285 0.0
C1690 C 0.13402 0.01936 0.62782 0.0
C1691 C 0.13933 -0.00134 0.63466 0.0
C1692 C 0.11759 0.97769 0.63017 0.0
C1693 C 0.09197 0.97747 0.61935 0.0
C1694 C 0.21378 0.97868 0.66205 0.0
C1695 C 0.22002 -0.00011 0.66823 0.0
C1696 C 0.18849 0.97829 0.65119 0.0
C1697 C 0.16699 -0.00099 0.64634 0.0
C1698 C 0.17239 0.02012 0.65284 0.0
C1699 C 0.1992 0.0206 0.66348 0.0
H1700 H 0.23349 0.19912 0.6159 0.0
H1701 H 0.18391 0.27038 0.60907 0.0
H1702 H 0.18473 0.19869 0.63407 0.0
H1703 H 0.13389 0.26987 0.62715 0.0
H1704 H 0.08993 0.26913 0.66629 0.0
H1705 H 0.13978 0.2701 0.64821 0.0
H1706 H 0.10052 0.19727 0.64163 0.0
H1707 H 0.05192 0.19626 0.65983 0.0
C1708 C 0.21191 0.21469 0.61826 0.0
C1709 C 0.21263 0.23477 0.61101 0.0
C1710 C 0.18357 0.21441 0.62868 0.0
C1711 C 0.15497 0.23422 0.63218 0.0
C1712 C 0.1558 0.25435 0.62489 0.0
C1713 C 0.18423 0.25462 0.61445 0.0
C1714 C 0.09213 0.25332 0.66099 0.0
C1715 C 0.06705 0.23259 0.66455 0.0
C1716 C 0.12045 0.2539 0.65055 0.0
C1717 C 0.12448 0.23376 0.64335 0.0
C1718 C 0.09917 0.21306 0.64696 0.0
C1719 C 0.07093 0.2125 0.6574 0.0
H1720 H 0.97731 0.02078 0.41376 0.0
H1721 H 0.94859 0.94635 0.41754 0.0
H1722 H 0.93027 0.02122 0.39543 0.0
H1723 H 0.89722 0.94681 0.39983 0.0
H1724 H 0.8381 0.94715 0.36272 0.0
H1725 H 0.889 0.94691 0.38049 0.0
H1726 H 0.85966 0.02165 0.38488 0.0
H1727 H 0.81307 0.02186 0.36649 0.0
C1728 C 0.96005 0.00454 0.41072 0.0
C1729 C 0.96696 0.98351 0.41704 0.0
C1730 C 0.93236 0.00475 0.40019 0.0
C1731 C 0.9091 0.98404 0.39583 0.0
C1732 C 0.91524 0.96311 0.40246 0.0
C1733 C 0.94441 0.9628 0.41277 0.0
C1734 C 0.84294 0.96351 0.3675 0.0
C1735 C 0.8216 0.98451 0.36321 0.0
C1736 C 0.87185 0.96342 0.37785 0.0
C1737 C 0.87896 0.98424 0.38449 0.0
C1738 C 0.8568 0.00523 0.38011 0.0
C1739 C 0.82937 0.00541 0.36955 0.0
H1740 H 0.94888 0.78645 0.3627 0.0
H1741 H 0.97838 0.71204 0.36636 0.0
H1742 H 0.89678 0.78574 0.38021 0.0
H1743 H 0.93014 0.71136 0.38458 0.0
H1744 H 0.81077 0.71139 0.41342 0.0
H1745 H 0.8586 0.71114 0.39513 0.0
H1746 H 0.88997 0.78566 0.39954 0.0
H1747 H 0.83827 0.78593 0.41712 0.0
C1748 C 0.94478 0.76994 0.36741 0.0
C1749 C 0.9679 0.74934 0.36316 0.0
C1750 C 0.91516 0.76949 0.37762 0.0
C1751 C 0.90904 0.74854 0.38422 0.0
C1752 C 0.93254 0.72787 0.37986 0.0
C1753 C 0.96083 0.72821 0.3694 0.0
C1754 C 0.82774 0.7277 0.41037 0.0
C1755 C 0.82027 0.74872 0.41664 0.0
C1756 C 0.85581 0.7276 0.39987 0.0
C1757 C 0.8787 0.74843 0.39552 0.0
C1758 C 0.87208 0.7693 0.40213 0.0
C1759 C 0.84268 0.76949 0.41238 0.0
H1760 H 0.58664 0.46194 0.61335 0.0
H1761 H 0.54534 0.53441 0.6199 0.0
H1762 H 0.63755 0.46157 0.63132 0.0
H1763 H 0.59491 0.53397 0.63795 0.0
H1764 H 0.73019 0.53405 0.66301 0.0
H1765 H 0.67994 0.53364 0.64504 0.0
H1766 H 0.63367 0.46199 0.65241 0.0
H1767 H 0.68518 0.46232 0.67027 0.0
C1768 C 0.58823 0.47776 0.61866 0.0
C1769 C 0.562 0.49822 0.61515 0.0
C1770 C 0.6172 0.47753 0.62903 0.0
C1771 C 0.62074 0.49777 0.63618 0.0
C1772 C 0.59402 0.51814 0.63265 0.0
C1773 C 0.56517 0.51836 0.62231 0.0
C1774 C 0.70931 0.5182 0.6608 0.0
C1775 C 0.71169 0.49824 0.66811 0.0
C1776 C 0.68011 0.51799 0.6505 0.0
C1777 C 0.6523 0.4978 0.64718 0.0
C1778 C 0.65488 0.47779 0.65453 0.0
C1779 C 0.68418 0.47801 0.66484 0.0
H1780 H 0.73696 0.77259 0.61698 0.0
H1781 H 0.70749 0.69822 0.61322 0.0
H1782 H 0.68988 0.77297 0.63535 0.0
H1783 H 0.65646 0.69864 0.63091 0.0
H1784 H 0.59843 0.69814 0.66792 0.0
H1785 H 0.64999 0.69849 0.65028 0.0
H1786 H 0.61878 0.77309 0.64597 0.0
H1787 H 0.57128 0.77274 0.66426 0.0
C1788 C 0.71963 0.75636 0.62003 0.0
C1789 C 0.72634 0.73535 0.61371 0.0
C1790 C 0.692 0.75653 0.63058 0.0
C1791 C 0.66877 0.73579 0.63496 0.0
C1792 C 0.67461 0.71493 0.6283 0.0
C1793 C 0.70359 0.71466 0.61799 0.0
C1794 C 0.60297 0.71461 0.66319 0.0
C1795 C 0.58072 0.73538 0.66747 0.0
C1796 C 0.63225 0.71486 0.65291 0.0
C1797 C 0.63883 0.73579 0.64631 0.0
C1798 C 0.61611 0.7566 0.6507 0.0
C1799 C 0.58823 0.75644 0.6612 0.0
H1800 H 0.35154 0.52245 0.36253 0.0
H1801 H 0.30931 0.4501 0.36913 0.0
H1802 H 0.40254 0.52264 0.38046 0.0
H1803 H 0.35898 0.45037 0.38719 0.0
H1804 H 0.49201 0.45008 0.41277 0.0
H1805 H 0.4434 0.45054 0.39457 0.0
H1806 H 0.39791 0.52247 0.40147 0.0
H1807 H 0.44786 0.52209 0.41957 0.0
C1808 C 0.35304 0.50659 0.36784 0.0
C1809 C 0.32645 0.48623 0.36436 0.0
C1810 C 0.38204 0.50673 0.37819 0.0
C1811 C 0.38521 0.48651 0.38538 0.0
C1812 C 0.35836 0.46619 0.38186 0.0
C1813 C 0.32948 0.46606 0.37151 0.0
C1814 C 0.47177 0.46603 0.41039 0.0
C1815 C 0.47387 0.48604 0.41765 0.0
C1816 C 0.44347 0.46626 0.39996 0.0
C1817 C 0.41624 0.48652 0.39647 0.0
C1818 C 0.41871 0.50662 0.40373 0.0
C1819 C 0.44714 0.50637 0.41417 0.0
H1820 H 0.35638 0.21151 0.41673 0.0
H1821 H 0.31335 0.28378 0.41016 0.0
H1822 H 0.40554 0.21115 0.39851 0.0
H1823 H 0.36126 0.28337 0.39188 0.0
H1824 H 0.49195 0.2837 0.36575 0.0
H1825 H 0.44526 0.28313 0.3842 0.0
H1826 H 0.39872 0.21133 0.37739 0.0
H1827 H 0.44666 0.21185 0.359 0.0
C1828 C 0.35734 0.22732 0.41138 0.0
C1829 C 0.33101 0.2477 0.41494 0.0
C1830 C 0.38528 0.22708 0.40087 0.0
C1831 C 0.38772 0.24724 0.39362 0.0
C1832 C 0.36119 0.26759 0.39724 0.0
C1833 C 0.33333 0.26781 0.40773 0.0
C1834 C 0.47188 0.26776 0.3682 0.0
C1835 C 0.4731 0.24783 0.36087 0.0
C1836 C 0.44468 0.26746 0.37878 0.0
C1837 C 0.41771 0.24722 0.38238 0.0
C1838 C 0.41934 0.22718 0.37505 0.0
C1839 C 0.44661 0.2275 0.36444 0.0
H1840 H 0.73173 0.96356 0.16376 0.0
H1841 H 0.70007 0.0377 0.16768 0.0
H1842 H 0.68529 0.9631 0.14531 0.0
H1843 H 0.64956 0.03718 0.14988 0.0
H1844 H 0.59074 0.03751 0.11289 0.0
H1845 H 0.64231 0.03745 0.13055 0.0
H1846 H 0.61465 0.9625 0.13461 0.0
H1847 H 0.56717 0.96261 0.11631 0.0
C1848 C 0.71409 0.97972 0.16072 0.0
C1849 C 0.71996 0.00069 0.16712 0.0
C1850 C 0.68677 0.97951 0.15012 0.0
C1851 C 0.66295 0.00014 0.14577 0.0
C1852 C 0.66812 0.02097 0.15248 0.0
C1853 C 0.69682 0.0213 0.16285 0.0
C1854 C 0.59608 0.02103 0.11757 0.0
C1855 C 0.57481 9e-05 0.11322 0.0
C1856 C 0.62537 0.02094 0.12786 0.0
C1857 C 0.63299 0.0 0.1344 0.0
C1858 C 0.61123 0.97903 0.12993 0.0
C1859 C 0.58333 0.97904 0.11942 0.0
H1860 H 0.70364 0.27147 0.11032 0.0
H1861 H 0.74542 0.19932 0.11761 0.0
H1862 H 0.65088 0.27209 0.12795 0.0
H1863 H 0.69423 0.20005 0.13541 0.0
H1864 H 0.55821 0.20015 0.16022 0.0
H1865 H 0.60967 0.20004 0.14243 0.0
H1866 H 0.6516 0.27264 0.1488 0.0
H1867 H 0.59862 0.27284 0.16638 0.0
C1868 C 0.70178 0.25577 0.11573 0.0
C1869 C 0.72864 0.23532 0.1125 0.0
C1870 C 0.67174 0.25614 0.12591 0.0
C1871 C 0.66784 0.23609 0.13321 0.0
C1872 C 0.69528 0.21573 0.12999 0.0
C1873 C 0.72512 0.21535 0.11979 0.0
C1874 C 0.57832 0.2161 0.1578 0.0
C1875 C 0.57437 0.23646 0.16477 0.0
C1876 C 0.60828 0.21602 0.14762 0.0
C1877 C 0.63534 0.23631 0.14408 0.0
C1878 C 0.63104 0.25673 0.15107 0.0
C1879 C 0.6009 0.25682 0.16124 0.0
H1880 H 0.35207 0.02071 0.86241 0.0
H1881 H 0.30879 0.94866 0.86943 0.0
H1882 H 0.4031 0.02113 0.88035 0.0
H1883 H 0.35848 0.94915 0.88746 0.0
H1884 H 0.4914 0.94903 0.91315 0.0
H1885 H 0.4428 0.94917 0.89493 0.0
H1886 H 0.39833 0.02141 0.90137 0.0
H1887 H 0.44825 0.02134 0.91945 0.0
C1888 C 0.35336 0.00497 0.8678 0.0
C1889 C 0.32642 0.98464 0.86445 0.0
C1890 C 0.38238 0.00523 0.87816 0.0
C1891 C 0.38525 0.98516 0.88547 0.0
C1892 C 0.35811 0.96485 0.88205 0.0
C1893 C 0.3292 0.96461 0.87171 0.0
C1894 C 0.47132 0.96496 0.91066 0.0
C1895 C 0.47364 0.98513 0.9178 0.0
C1896 C 0.44306 0.96502 0.90022 0.0
C1897 C 0.41617 0.98529 0.89658 0.0
C1898 C 0.41885 0.00554 0.90373 0.0
C1899 C 0.44722 0.00546 0.91417 0.0
H1900 H 0.47614 0.70981 0.86689 0.0
H1901 H 0.44776 0.78417 0.86262 0.0
H1902 H 0.43127 0.71022 0.88553 0.0
H1903 H 0.39859 0.78455 0.8806 0.0
H1904 H 0.34521 0.78645 0.91801 0.0
H1905 H 0.39395 0.78543 0.89995 0.0
H1906 H 0.36236 0.71066 0.89673 0.0
H1907 H 0.31798 0.71171 0.91541 0.0
C1908 C 0.45936 0.7262 0.86988 0.0
C1909 C 0.4658 0.74698 0.86334 0.0
C1910 C 0.43301 0.7265 0.88059 0.0
C1911 C 0.41072 0.74748 0.88492 0.0
C1912 C 0.4161 0.76809 0.87803 0.0
C1913 C 0.44393 0.76791 0.86755 0.0
C1914 C 0.34911 0.76981 0.91343 0.0
C1915 C 0.32774 0.74919 0.91812 0.0
C1916 C 0.37672 0.76916 0.90291 0.0
C1917 C 0.38238 0.74797 0.89649 0.0
C1918 C 0.36043 0.72734 0.9013 0.0
C1919 C 0.33432 0.72789 0.91203 0.0
H1920 H 0.11428 0.68317 0.08195 0.0
H1921 H 0.25688 0.66337 0.06589 0.0
H1922 H 0.08623 0.64212 0.08087 0.0
H1923 H 0.22869 0.62263 0.06483 0.0
H1924 H 0.18449 0.55 0.08106 0.0
H1925 H 0.21198 0.59113 0.07978 0.0
H1926 H 0.06484 0.6109 0.06619 0.0
H1927 H 0.0372 0.57013 0.06748 0.0
C1928 C 0.13929 0.67019 0.07805 0.0
C1929 C 0.18792 0.67651 0.07411 0.0
C1930 C 0.12326 0.64672 0.07742 0.0
C1931 C 0.15564 0.62922 0.07288 0.0
C1932 C 0.20341 0.63571 0.06855 0.0
C1933 C 0.21932 0.6591 0.06912 0.0
C1934 C 0.15825 0.56307 0.07769 0.0
C1935 C 0.1086 0.5568 0.07448 0.0
C1936 C 0.17397 0.58659 0.07693 0.0
C1937 C 0.14026 0.60416 0.07298 0.0
C1938 C 0.09126 0.59775 0.06944 0.0
C1939 C 0.07564 0.57433 0.07014 0.0
H1940 H 0.03443 0.66489 0.21397 0.0
H1941 H 0.17587 0.68651 0.19792 0.0
H1942 H 0.06415 0.6243 0.21454 0.0
H1943 H 0.20535 0.64568 0.19848 0.0
H1944 H 0.25882 0.57461 0.21226 0.0
H1945 H 0.22867 0.61499 0.21315 0.0
H1946 H 0.08298 0.59291 0.19965 0.0
H1947 H 0.11305 0.55206 0.19881 0.0
C1948 C 0.07202 0.66105 0.21062 0.0
C1949 C 0.10278 0.67895 0.20584 0.0
C1950 C 0.08878 0.63775 0.21089 0.0
C1951 C 0.13674 0.63187 0.20646 0.0
C1952 C 0.16823 0.64981 0.20201 0.0
C1953 C 0.15137 0.67316 0.20169 0.0
C1954 C 0.22022 0.57822 0.20951 0.0
C1955 C 0.18832 0.56011 0.20539 0.0
C1956 C 0.20315 0.60142 0.20998 0.0
C1957 C 0.15377 0.60706 0.20638 0.0
C1958 C 0.12124 0.58895 0.20254 0.0
C1959 C 0.13843 0.56562 0.20203 0.0
H1960 H 0.78429 0.32388 0.95972 0.0
H1961 H 0.93108 0.30145 0.94683 0.0
H1962 H 0.81473 0.36407 0.96122 0.0
H1963 H 0.96153 0.34221 0.9483 0.0
H1964 H 1.00878 0.4138 0.96353 0.0
H1965 H 0.97934 0.37316 0.96343 0.0
H1966 H 0.83916 0.39529 0.94709 0.0
H1967 H 0.86831 0.43616 0.94723 0.0
C1968 C 0.82318 0.32748 0.9572 0.0
C1969 C 0.85524 0.30946 0.95305 0.0
C1970 C 0.84044 0.3506 0.95803 0.0
C1971 C 0.89019 0.35627 0.95476 0.0
C1972 C 0.92294 0.33822 0.95092 0.0
C1973 C 0.90556 0.31495 0.95006 0.0
C1974 C 0.97146 0.41011 0.95999 0.0
C1975 C 0.94088 0.42825 0.95535 0.0
C1976 C 0.95488 0.38677 0.95986 0.0
C1977 C 0.90727 0.38109 0.95517 0.0
C1978 C 0.87601 0.39924 0.95083 0.0
C1979 C 0.89267 0.42263 0.95091 0.0
H1980 H 0.93054 0.43506 0.8321 0.0
H1981 H 0.78229 0.41409 0.81948 0.0
H1982 H 0.95857 0.39402 0.83105 0.0
H1983 H 0.81055 0.37336 0.81837 0.0
H1984 H 0.86413 0.30048 0.83231 0.0
H1985 H 0.83472 0.34146 0.83227 0.0
H1986 H 0.9754 0.36334 0.81613 0.0
H1987 H 1.00492 0.32279 0.81622 0.0
C1988 C 0.90413 0.4218 0.82901 0.0
C1989 C 0.8542 0.42788 0.82592 0.0
C1990 C 0.92018 0.39832 0.82839 0.0
C1991 C 0.88655 0.38051 0.8247 0.0
C1992 C 0.83699 0.38666 0.82142 0.0
C1993 C 0.82101 0.41007 0.82199 0.0
C1994 C 0.88849 0.31402 0.82865 0.0
C1995 C 0.9369 0.30839 0.82434 0.0
C1996 C 0.87169 0.33745 0.82862 0.0
C1997 C 0.90309 0.35557 0.8243 0.0
C1998 C 0.95083 0.3498 0.81971 0.0
C1999 C 0.96752 0.32649 0.81971 0.0
H2000 H 0.037 0.07178 0.57994 0.0
H2001 H 0.18485 0.04747 0.56889 0.0
H2002 H 0.0652 0.11229 0.57866 0.0
H2003 H 0.21275 0.08844 0.56681 0.0
H2004 H 0.26288 0.16131 0.5788 0.0
H2005 H 0.23514 0.12064 0.57819 0.0
H2006 H 0.0865 0.14349 0.56653 0.0
H2007 H 0.11393 0.1846 0.56794 0.0
C2008 C 0.07544 0.07521 0.57701 0.0
C2009 C 0.10889 0.0566 0.5745 0.0
C2010 C 0.09151 0.0985 0.57616 0.0
C2011 C 0.14116 0.10377 0.57255 0.0
C2012 C 0.17445 0.08504 0.56982 0.0
C2013 C 0.1586 0.0616 0.57094 0.0
C2014 C 0.22431 0.15762 0.57605 0.0
C2015 C 0.19036 0.176 0.57344 0.0
C2016 C 0.2085 0.13424 0.57559 0.0
C2017 C 0.1586 0.12866 0.57227 0.0
C2018 C 0.12496 0.14714 0.56935 0.0
C2019 C 0.14054 0.17066 0.57009 0.0
H2020 H 0.02457 0.16119 0.7116 0.0
H2021 H 0.17089 0.18273 0.69807 0.0
H2022 H 0.05509 0.12097 0.71357 0.0
H2023 H 0.20132 0.14213 0.70005 0.0
H2024 H 0.25039 0.07098 0.715 0.0
H2025 H 0.22007 0.1115 0.71527 0.0
H2026 H 0.07883 0.08922 0.69954 0.0
H2027 H 0.10893 0.04845 0.69929 0.0
C2028 C 0.06339 0.15742 0.70909 0.0
C2029 C 0.09521 0.17519 0.70456 0.0
C2030 C 0.0807 0.13429 0.71019 0.0
C2031 C 0.1303 0.12839 0.70686 0.0
C2032 C 0.16288 0.14625 0.70274 0.0
C2033 C 0.14546 0.16947 0.70159 0.0
C2034 C 0.21264 0.0746 0.71168 0.0
C2035 C 0.18214 0.05645 0.70705 0.0
C2036 C 0.19551 0.09788 0.71178 0.0
C2037 C 0.14738 0.10352 0.70734 0.0
C2038 C 0.11607 0.08532 0.70309 0.0
C2039 C 0.13332 0.06199 0.70293 0.0
H2040 H 0.92337 0.79893 0.46071 0.0
H2041 H 0.78087 0.82538 0.44736 0.0
H2042 H 0.95422 0.8394 0.46277 0.0
H2043 H 0.81226 0.86548 0.44859 0.0
H2044 H 0.86421 0.93729 0.45943 0.0
H2045 H 0.83282 0.89677 0.46068 0.0
H2046 H 0.98255 0.87085 0.45173 0.0
H2047 H 1.01397 0.91087 0.45128 0.0
C2048 C 0.89904 0.81344 0.4581 0.0
C2049 C 0.84991 0.8092 0.45392 0.0
C2050 C 0.91657 0.83661 0.45922 0.0
C2051 C 0.88569 0.85583 0.45587 0.0
C2052 C 0.83667 0.85131 0.45157 0.0
C2053 C 0.81883 0.82828 0.45074 0.0
C2054 C 0.89023 0.92281 0.45787 0.0
C2055 C 0.94139 0.92714 0.45532 0.0
C2056 C 0.87236 0.89961 0.4585 0.0
C2057 C 0.90513 0.88042 0.45627 0.0
C2058 C 0.95639 0.88499 0.45379 0.0
C2059 C 0.97437 0.90803 0.45344 0.0
H2060 H 0.87043 0.80102 0.31782 0.0
H2061 H 1.00555 0.82607 0.33522 0.0
H2062 H 0.84059 0.84172 0.31577 0.0
H2063 H 0.97485 0.8663 0.33399 0.0
H2064 H 0.93101 0.93879 0.32268 0.0
H2065 H 0.96149 0.89813 0.3217 0.0
H2066 H 0.80749 0.87297 0.32625 0.0
H2067 H 0.77731 0.91325 0.3264 0.0
C2068 C 0.8932 0.81527 0.32135 0.0
C2069 C 0.94015 0.81064 0.32661 0.0
C2070 C 0.87627 0.83855 0.32022 0.0
C2071 C 0.9055 0.85743 0.32464 0.0
C2072 C 0.95199 0.85244 0.33015 0.0
C2073 C 0.96935 0.82934 0.33099 0.0
C2074 C 0.9039 0.92447 0.32331 0.0
C2075 C 0.85197 0.9291 0.32457 0.0
C2076 C 0.92122 0.90117 0.32285 0.0
C2077 C 0.88698 0.88215 0.32398 0.0
C2078 C 0.83494 0.887 0.3251 0.0
C2079 C 0.81762 0.91018 0.32527 0.0
H2080 H 0.52564 0.57618 0.58387 0.0
H2081 H 0.66963 0.54759 0.57261 0.0
H2082 H 0.56011 0.61579 0.583 0.0
H2083 H 0.70377 0.58754 0.57102 0.0
H2084 H 0.7653 0.65799 0.58328 0.0
H2085 H 0.73051 0.61846 0.58295 0.0
H2086 H 0.58678 0.64637 0.57076 0.0
H2087 H 0.62132 0.68635 0.5718 0.0
C2088 C 0.56459 0.57848 0.58102 0.0
C2089 C 0.59516 0.55893 0.57832 0.0
C2090 C 0.58423 0.60121 0.58042 0.0
C2091 C 0.63465 0.60494 0.57689 0.0
C2092 C 0.66501 0.5853 0.57398 0.0
C2093 C 0.64557 0.56244 0.57483 0.0
C2094 C 0.72628 0.65565 0.58049 0.0
C2095 C 0.69585 0.67512 0.57755 0.0
C2096 C 0.70644 0.63294 0.5802 0.0
C2097 C 0.65594 0.62914 0.57675 0.0
C2098 C 0.62564 0.64869 0.57365 0.0
C2099 C 0.64531 0.67156 0.57418 0.0
H2100 H 0.75842 0.57153 0.71279 0.0
H2101 H 0.61092 0.55093 0.69957 0.0
H2102 H 0.73059 0.61231 0.71379 0.0
H2103 H 0.58328 0.59207 0.70053 0.0
H2104 H 0.53737 0.66421 0.71435 0.0
H2105 H 0.56596 0.6235 0.7152 0.0
H2106 H 0.70856 0.64375 0.69944 0.0
H2107 H 0.6801 0.68479 0.69861 0.0
C2108 C 0.71992 0.57563 0.71013 0.0
C2109 C 0.68691 0.55792 0.70603 0.0
C2110 C 0.70419 0.59908 0.71066 0.0
C2111 C 0.65501 0.60538 0.70716 0.0
C2112 C 0.62139 0.58765 0.70336 0.0
C2113 C 0.63722 0.56412 0.70279 0.0
C2114 C 0.57502 0.66011 0.71113 0.0
C2115 C 0.60637 0.67776 0.70632 0.0
C2116 C 0.59118 0.63672 0.71156 0.0
C2117 C 0.63916 0.63043 0.70727 0.0
C2118 C 0.67139 0.64815 0.70286 0.0
C2119 C 0.65512 0.67164 0.70238 0.0
H2120 H 0.50778 0.41106 0.46346 0.0
H2121 H 0.36666 0.43315 0.44738 0.0
H2122 H 0.47818 0.37054 0.46379 0.0
H2123 H 0.33715 0.3922 0.44768 0.0
H2124 H 0.28537 0.31988 0.46074 0.0
H2125 H 0.31398 0.36051 0.46202 0.0
H2126 H 0.46082 0.33999 0.4486 0.0
H2127 H 0.43241 0.29903 0.44734 0.0
C2128 C 0.47028 0.40731 0.46003 0.0
C2129 C 0.43961 0.42531 0.4553 0.0
C2130 C 0.45356 0.38404 0.46018 0.0
C2131 C 0.40573 0.37825 0.45566 0.0
C2132 C 0.3742 0.39628 0.45128 0.0
C2133 C 0.39105 0.41967 0.45109 0.0
C2134 C 0.32392 0.32391 0.45811 0.0
C2135 C 0.35661 0.3062 0.45386 0.0
C2136 C 0.34007 0.34724 0.45879 0.0
C2137 C 0.38932 0.35337 0.45532 0.0
C2138 C 0.42263 0.33565 0.45139 0.0
C2139 C 0.40639 0.31223 0.45066 0.0
H2140 H 0.36374 0.30142 0.33106 0.0
H2141 H 0.50652 0.32426 0.3161 0.0
H2142 H 0.334 0.34232 0.33097 0.0
H2143 H 0.47663 0.36475 0.31596 0.0
H2144 H 0.42803 0.43568 0.33257 0.0
H2145 H 0.45714 0.39485 0.33118 0.0
H2146 H 0.31197 0.37434 0.3168 0.0
H2147 H 0.28264 0.41485 0.31822 0.0
C2148 C 0.38848 0.31506 0.32764 0.0
C2149 C 0.43751 0.30963 0.32366 0.0
C2150 C 0.37149 0.33843 0.32758 0.0
C2151 C 0.40332 0.35665 0.32355 0.0
C2152 C 0.45173 0.35109 0.31929 0.0
C2153 C 0.46862 0.32784 0.31932 0.0
C2154 C 0.40254 0.42251 0.32901 0.0
C2155 C 0.35299 0.4285 0.32558 0.0
C2156 C 0.41919 0.39917 0.3282 0.0
C2157 C 0.38654 0.38148 0.32397 0.0
C2158 C 0.33754 0.38758 0.32027 0.0
C2159 C 0.32097 0.41085 0.32104 0.0
H2160 H 0.67889 0.04613 0.07042 0.0
H2161 H 0.53075 0.0733 0.07945 0.0
H2162 H 0.71108 0.08646 0.06893 0.0
H2163 H 0.56307 0.1132 0.07877 0.0
H2164 H 0.62297 0.18474 0.06914 0.0
H2165 H 0.59084 0.14442 0.06746 0.0
H2166 H 0.7339 0.11778 0.08075 0.0
H2167 H 0.76645 0.1577 0.08162 0.0
C2168 C 0.65342 0.06074 0.07213 0.0
C2169 C 0.60246 0.05668 0.07499 0.0
C2170 C 0.67176 0.08385 0.07136 0.0
C2171 C 0.63972 0.10322 0.07376 0.0
C2172 C 0.58866 0.09892 0.07658 0.0
C2173 C 0.57016 0.07596 0.07706 0.0
C2174 C 0.64729 0.17014 0.07164 0.0
C2175 C 0.69704 0.17418 0.07546 0.0
C2176 C 0.62901 0.14706 0.07073 0.0
C2177 C 0.6598 0.12771 0.07395 0.0
C2178 C 0.70947 0.13203 0.07789 0.0
C2179 C 0.72802 0.15497 0.0785 0.0
H2180 H 0.53625 0.16652 0.21158 0.0
H2181 H 0.67939 0.18716 0.19601 0.0
H2182 H 0.56545 0.12595 0.21277 0.0
H2183 H 0.70842 0.14626 0.19722 0.0
H2184 H 0.75936 0.07563 0.21215 0.0
H2185 H 0.72954 0.11612 0.21255 0.0
H2186 H 0.58544 0.09396 0.1982 0.0
H2187 H 0.61522 0.05303 0.19781 0.0
C2188 C 0.5741 0.16247 0.20847 0.0
C2189 C 0.60549 0.18009 0.20364 0.0
C2190 C 0.59056 0.13917 0.20909 0.0
C2191 C 0.63887 0.133 0.205 0.0
C2192 C 0.67099 0.15064 0.20049 0.0
C2193 C 0.6544 0.17402 0.1998 0.0
C2194 C 0.72115 0.07925 0.20912 0.0
C2195 C 0.68967 0.06112 0.20486 0.0
C2196 C 0.70429 0.10251 0.20931 0.0
C2197 C 0.65552 0.10814 0.2053 0.0
C2198 C 0.62325 0.08999 0.20139 0.0
C2199 C 0.64024 0.06662 0.20115 0.0
H2200 H 0.43213 0.80119 0.94979 0.0
H2201 H 0.28552 0.82252 0.96326 0.0
H2202 H 0.46059 0.84222 0.95066 0.0
H2203 H 0.31414 0.86318 0.96413 0.0
H2204 H 0.36528 0.93507 0.94843 0.0
H2205 H 0.3366 0.89408 0.94928 0.0
H2206 H 0.47826 0.87379 0.96551 0.0
H2207 H 0.50711 0.91445 0.96467 0.0
C2208 C 0.40621 0.81451 0.95305 0.0
C2209 C 0.35652 0.80858 0.95638 0.0
C2210 C 0.42251 0.83797 0.95356 0.0
C2211 C 0.38931 0.85584 0.95737 0.0
C2212 C 0.34018 0.8498 0.96098 0.0
C2213 C 0.324 0.82643 0.96053 0.0
C2214 C 0.39005 0.92191 0.95229 0.0
C2215 C 0.43853 0.92803 0.95641 0.0
C2216 C 0.37364 0.89848 0.95279 0.0
C2217 C 0.40551 0.8808 0.95737 0.0
C2218 C 0.45333 0.88702 0.96177 0.0
C2219 C 0.46961 0.91038 0.96133 0.0
H2220 H 0.51354 0.8223 0.83073 0.0
H2221 H 0.36429 0.79706 0.82134 0.0
H2222 H 0.48306 0.86261 0.83037 0.0
H2223 H 0.33402 0.83774 0.82016 0.0
H2224 H 0.28114 0.90915 0.83301 0.0
H2225 H 0.31208 0.86899 0.83202 0.0
H2226 H 0.45697 0.89456 0.81935 0.0
H2227 H 0.42643 0.93514 0.82116 0.0
C2228 C 0.47428 0.82547 0.82835 0.0
C2229 C 0.44114 0.80662 0.82608 0.0
C2230 C 0.45684 0.84866 0.82805 0.0
C2231 C 0.40601 0.85361 0.82522 0.0
C2232 C 0.37316 0.83465 0.82263 0.0
C2233 C 0.39042 0.81134 0.82322 0.0
C2234 C 0.3196 0.90616 0.82998 0.0
C2235 C 0.3515 0.92518 0.82715 0.0
C2236 C 0.33726 0.88306 0.8293 0.0
C2237 C 0.38699 0.87833 0.82552 0.0
C2238 C 0.41872 0.89747 0.8225 0.0
C2239 C 0.40131 0.92072 0.82346 0.0
H2240 H 0.67343 0.50063 0.05977 0.0
H2241 H 0.6858 0.47157 0.09464 0.0
H2242 H 0.58176 0.49446 0.06022 0.0
H2243 H 0.59427 0.46564 0.09517 0.0
H2244 H 0.43375 0.43942 0.08922 0.0
H2245 H 0.52547 0.44322 0.08752 0.0
H2246 H 0.50635 0.50938 0.06918 0.0
H2247 H 0.41449 0.50496 0.07033 0.0
C2248 C 0.65661 0.49298 0.06755 0.0
C2249 C 0.6872 0.4866 0.07716 0.0
C2250 C 0.6039 0.48949 0.06783 0.0
C2251 C 0.58022 0.4796 0.07775 0.0
C2252 C 0.61099 0.47293 0.08729 0.0
C2253 C 0.66367 0.47633 0.087 0.0
C2254 C 0.44894 0.45461 0.08464 0.0
C2255 C 0.4163 0.47186 0.07991 0.0
C2256 C 0.50179 0.45695 0.08381 0.0
C2257 C 0.52371 0.47667 0.07826 0.0
C2258 C 0.49109 0.49381 0.07341 0.0
C2259 C 0.43821 0.49143 0.07421 0.0
H2260 H 0.60973 0.78017 0.07713 0.0
H2261 H 0.6344 0.70491 0.07923 0.0
H2262 H 0.70132 0.78665 0.07783 0.0
H2263 H 0.72567 0.71137 0.0799 0.0
H2264 H 0.88966 0.72902 0.07081 0.0
H2265 H 0.79814 0.72383 0.06866 0.0
H2266 H 0.77243 0.78408 0.09103 0.0
H2267 H 0.86375 0.78983 0.09279 0.0
C2268 C 0.63455 0.76498 0.07779 0.0
C2269 C 0.61425 0.74199 0.0781 0.0
C2270 C 0.68724 0.7687 0.07819 0.0
C2271 C 0.72126 0.74955 0.07892 0.0
C2272 C 0.70095 0.72657 0.07913 0.0
C2273 C 0.64834 0.72286 0.07874 0.0
C2274 C 0.86456 0.74138 0.07514 0.0
C2275 C 0.88446 0.7598 0.08202 0.0
C2276 C 0.8119 0.73823 0.07402 0.0
C2277 C 0.77752 0.75344 0.07972 0.0
C2278 C 0.79746 0.77211 0.08642 0.0
C2279 C 0.85006 0.77524 0.08756 0.0
H2280 H 0.6756 0.75401 0.18294 0.0
H2281 H 0.66026 0.73857 0.21984 0.0
H2282 H 0.5842 0.76006 0.18153 0.0
H2283 H 0.56852 0.74371 0.21832 0.0
H2284 H 0.40965 0.77669 0.21363 0.0
H2285 H 0.50155 0.77222 0.2155 0.0
H2286 H 0.50657 0.73793 0.18175 0.0
H2287 H 0.41501 0.74239 0.17989 0.0
C2288 C 0.65288 0.75205 0.19079 0.0
C2289 C 0.67573 0.74576 0.20151 0.0
C2290 C 0.60016 0.75522 0.18994 0.0
C2291 C 0.56851 0.75222 0.19978 0.0
C2292 C 0.59144 0.74635 0.21055 0.0
C2293 C 0.64419 0.74314 0.2114 0.0
C2294 C 0.43024 0.76799 0.20665 0.0
C2295 C 0.40456 0.76004 0.19657 0.0
C2296 C 0.48313 0.76544 0.20772 0.0
C2297 C 0.51193 0.75484 0.19875 0.0
C2298 C 0.4861 0.74665 0.18874 0.0
C2299 C 0.43334 0.74919 0.18768 0.0
H2300 H 0.87357 0.45329 0.21306 0.0
H2301 H 0.87931 0.51014 0.18785 0.0
H2302 H 0.78137 0.45692 0.21394 0.0
H2303 H 0.78717 0.51377 0.18872 0.0
H2304 H 0.61836 0.49849 0.18396 0.0
H2305 H 0.71027 0.49355 0.18314 0.0
H2306 H 0.71387 0.4824 0.22058 0.0
H2307 H 0.62175 0.48644 0.22133 0.0
C2308 C 0.85531 0.46676 0.2078 0.0
C2309 C 0.88418 0.4814 0.20037 0.0
C2310 C 0.80227 0.46883 0.20829 0.0
C2311 C 0.77651 0.48558 0.20137 0.0
C2312 C 0.80543 0.50035 0.19402 0.0
C2313 C 0.85844 0.49829 0.19353 0.0
C2314 C 0.63859 0.49463 0.192 0.0
C2315 C 0.61235 0.49288 0.20271 0.0
C2316 C 0.69153 0.49211 0.19156 0.0
C2317 C 0.71983 0.48771 0.20181 0.0
C2318 C 0.6935 0.48559 0.21249 0.0
C2319 C 0.64057 0.48816 0.21294 0.0
H2320 H 0.62437 0.54171 0.95713 0.0
H2321 H 0.63847 0.47682 0.93758 0.0
H2322 H 0.53236 0.53672 0.95767 0.0
H2323 H 0.54677 0.47139 0.93849 0.0
H2324 H 0.37755 0.48113 0.9313 0.0
H2325 H 0.46911 0.48726 0.93065 0.0
H2326 H 0.46588 0.51302 0.96625 0.0
H2327 H 0.37419 0.50695 0.96687 0.0
C2328 C 0.60792 0.52636 0.95295 0.0
C2329 C 0.63914 0.50969 0.9473 0.0
C2330 C 0.55506 0.52336 0.95336 0.0
C2331 C 0.53179 0.50366 0.94811 0.0
C2332 C 0.56306 0.48694 0.94251 0.0
C2333 C 0.6159 0.4899 0.94213 0.0
C2334 C 0.39632 0.488 0.93902 0.0
C2335 C 0.36821 0.49346 0.94915 0.0
C2336 C 0.449 0.49148 0.93866 0.0
C2337 C 0.47527 0.50052 0.94842 0.0
C2338 C 0.44705 0.50632 0.9585 0.0
C2339 C 0.39431 0.50284 0.95885 0.0
H2340 H 0.41245 0.27985 0.95596 0.0
H2341 H 0.43194 0.20825 0.9438 0.0
H2342 H 0.32068 0.27472 0.95566 0.0
H2343 H 0.33995 0.20316 0.94345 0.0
H2344 H 0.17363 0.21117 0.93202 0.0
H2345 H 0.26549 0.21593 0.9328 0.0
H2346 H 0.25112 0.25456 0.96523 0.0
H2347 H 0.15892 0.25054 0.96422 0.0
C2348 C 0.3973 0.26288 0.95336 0.0
C2349 C 0.43001 0.24446 0.94993 0.0
C2350 C 0.34445 0.25995 0.95318 0.0
C2351 C 0.32258 0.23852 0.94952 0.0
C2352 C 0.35524 0.22005 0.94614 0.0
C2353 C 0.40815 0.22297 0.94634 0.0
C2354 C 0.1899 0.22092 0.93927 0.0
C2355 C 0.15851 0.23058 0.94802 0.0
C2356 C 0.24282 0.22337 0.93979 0.0
C2357 C 0.26605 0.23561 0.94908 0.0
C2358 C 0.2347 0.24523 0.95787 0.0
C2359 C 0.18173 0.24271 0.95736 0.0
H2360 H 0.61915 0.21626 0.84749 0.0
H2361 H 0.63309 0.24396 0.81236 0.0
H2362 H 0.52734 0.22118 0.8465 0.0
H2363 H 0.541 0.24799 0.8112 0.0
H2364 H 0.38058 0.27642 0.81795 0.0
H2365 H 0.47227 0.27134 0.81886 0.0
H2366 H 0.45205 0.20545 0.83736 0.0
H2367 H 0.36007 0.21055 0.83643 0.0
C2368 C 0.60274 0.22347 0.83955 0.0
C2369 C 0.6339 0.22982 0.83002 0.0
C2370 C 0.54984 0.226 0.83893 0.0
C2371 C 0.52641 0.23497 0.82877 0.0
C2372 C 0.55755 0.24126 0.81923 0.0
C2373 C 0.61048 0.2387 0.81984 0.0
C2374 C 0.39553 0.26068 0.8221 0.0
C2375 C 0.36256 0.24386 0.82707 0.0
C2376 C 0.44832 0.25777 0.82262 0.0
C2377 C 0.46991 0.23794 0.82816 0.0
C2378 C 0.43699 0.22112 0.83316 0.0
C2379 C 0.3841 0.22404 0.83263 0.0
H2380 H 0.15617 0.47851 0.82175 0.0
H2381 H 0.1824 0.54608 0.83816 0.0
H2382 H 0.24753 0.47331 0.81931 0.0
H2383 H 0.27365 0.54044 0.83617 0.0
H2384 H 0.43469 0.53274 0.82197 0.0
H2385 H 0.34292 0.53882 0.82243 0.0
H2386 H 0.32134 0.46527 0.83109 0.0
H2387 H 0.41275 0.45921 0.83063 0.0
C2388 C 0.18131 0.49234 0.82477 0.0
C2389 C 0.16164 0.51267 0.83021 0.0
C2390 C 0.23386 0.48923 0.8235 0.0
C2391 C 0.26827 0.50637 0.8276 0.0
C2392 C 0.24851 0.52692 0.83281 0.0
C2393 C 0.19602 0.53003 0.83408 0.0
C2394 C 0.4104 0.51787 0.824 0.0
C2395 C 0.43142 0.49546 0.82623 0.0
C2396 C 0.35766 0.52136 0.82427 0.0
C2397 C 0.32443 0.50255 0.8268 0.0
C2398 C 0.34548 0.48011 0.8289 0.0
C2399 C 0.39812 0.47662 0.82863 0.0
H2400 H 0.41641 0.00533 0.57023 0.0
H2401 H 0.43527 0.93868 0.58815 0.0
H2402 H 0.50831 0.00964 0.56908 0.0
H2403 H 0.52702 0.9424 0.58646 0.0
H2404 H 0.68766 0.97015 0.5939 0.0
H2405 H 0.5961 0.96429 0.59439 0.0
H2406 H 0.58345 -0.00496 0.55985 0.0
H2407 H 0.67515 0.00112 0.55943 0.0
C2408 C 0.44005 0.99154 0.5739 0.0
C2409 C 0.41803 0.97169 0.57932 0.0
C2410 C 0.49294 -0.00614 0.5731 0.0
C2411 C 0.52546 0.97638 0.57768 0.0
C2412 C 0.50342 0.95639 0.58296 0.0
C2413 C 0.45056 0.9541 0.58379 0.0
C2414 C 0.6655 0.97536 0.58633 0.0
C2415 C 0.689 0.98614 0.57663 0.0
C2416 C 0.6128 0.972 0.58661 0.0
C2417 C 0.58199 0.97923 0.57717 0.0
C2418 C 0.60564 0.98963 0.56738 0.0
C2419 C 0.65836 -0.00694 0.56712 0.0
H2420 H 0.62976 0.20797 0.57702 0.0
H2421 H 0.60697 0.28211 0.56988 0.0
H2422 H 0.72112 0.2141 0.57745 0.0
H2423 H 0.69874 0.28827 0.57032 0.0
H2424 H 0.85998 0.29422 0.58589 0.0
H2425 H 0.76864 0.28876 0.58396 0.0
H2426 H 0.79416 0.22318 0.56561 0.0
H2427 H 0.8856 0.22815 0.56799 0.0
C2428 C 0.6442 0.22555 0.57535 0.0
C2429 C 0.6107 0.24452 0.57338 0.0
C2430 C 0.6968 0.22907 0.5756 0.0
C2431 C 0.7176 0.25169 0.57391 0.0
C2432 C 0.68417 0.27066 0.57182 0.0
C2433 C 0.63146 0.26713 0.57157 0.0
C2434 C 0.84619 0.27855 0.5815 0.0
C2435 C 0.88041 0.26154 0.57719 0.0
C2436 C 0.79367 0.27556 0.58025 0.0
C2437 C 0.77375 0.25548 0.57465 0.0
C2438 C 0.80798 0.23872 0.57012 0.0
C2439 C 0.86056 0.24171 0.57136 0.0
H2440 H 0.64737 0.20396 0.70116 0.0
H2441 H 0.67278 0.27915 0.69887 0.0
H2442 H 0.55609 0.21053 0.70061 0.0
H2443 H 0.58122 0.2857 0.69826 0.0
H2444 H 0.41777 0.28589 0.68383 0.0
H2445 H 0.50915 0.2802 0.6855 0.0
H2446 H 0.48475 0.2259 0.71148 0.0
H2447 H 0.39308 0.23098 0.70948 0.0
C2448 C 0.63362 0.22195 0.70071 0.0
C2449 C 0.6679 0.241 0.70008 0.0
C2450 C 0.58101 0.22572 0.70038 0.0
C2451 C 0.56092 0.24866 0.69938 0.0
C2452 C 0.59513 0.26775 0.69885 0.0
C2453 C 0.64781 0.26398 0.6992 0.0
C2454 C 0.43175 0.27261 0.68985 0.0
C2455 C 0.39768 0.25879 0.69646 0.0
C2456 C 0.48438 0.26954 0.69092 0.0
C2457 C 0.50468 0.25255 0.69862 0.0
C2458 C 0.47066 0.23896 0.70536 0.0
C2459 C 0.41795 0.24207 0.70431 0.0
H2460 H 0.86515 0.9403 0.70349 0.0
H2461 H 0.88427 0.01275 0.69254 0.0
H2462 H 0.77338 0.94596 0.70415 0.0
H2463 H 0.79272 0.01865 0.69364 0.0
H2464 H 0.62402 0.01454 0.68435 0.0
H2465 H 0.71545 0.00824 0.68369 0.0
H2466 H 0.70615 0.96515 0.71485 0.0
H2467 H 0.61456 0.97151 0.71553 0.0
C2468 C 0.84991 0.95747 0.70123 0.0
C2469 C 0.88255 0.97603 0.69793 0.0
C2470 C 0.79711 0.9608 0.70173 0.0
C2471 C 0.7752 0.98277 0.69892 0.0
C2472 C 0.80789 0.00138 0.69572 0.0
C2473 C 0.86067 -0.00193 0.69524 0.0
C2474 C 0.64137 0.00385 0.69113 0.0
C2475 C 0.61146 -0.00636 0.70003 0.0
C2476 C 0.69406 0.00024 0.69075 0.0
C2477 C 0.71866 0.98627 0.69925 0.0
C2478 C 0.68871 0.97578 0.70806 0.0
C2479 C 0.63595 0.97941 0.70844 0.0
H2480 H 0.64001 0.97042 0.45232 0.0
H2481 H 0.61871 0.04481 0.44559 0.0
H2482 H 0.5484 0.96522 0.45355 0.0
H2483 H 0.52705 0.03978 0.44733 0.0
H2484 H 0.36412 0.01628 0.43774 0.0
H2485 H 0.45555 0.02301 0.43713 0.0
H2486 H 0.47598 0.97356 0.46558 0.0
H2487 H 0.38467 0.96684 0.46619 0.0
C2488 C 0.61588 0.98571 0.45112 0.0
C2489 C 0.63716 0.00804 0.44882 0.0
C2490 C 0.56315 0.98277 0.45198 0.0
C2491 C 0.52996 0.00207 0.45057 0.0
C2492 C 0.55121 0.02444 0.44835 0.0
C2493 C 0.60399 0.02739 0.4475 0.0
C2494 C 0.38797 0.00707 0.44398 0.0
C2495 C 0.36669 0.9909 0.45198 0.0
C2496 C 0.44059 0.01093 0.44363 0.0
C2497 C 0.47354 -0.00127 0.45126 0.0
C2498 C 0.45212 0.98293 0.4594 0.0
C2499 C 0.39956 0.97909 0.45976 0.0
H2500 H 0.42546 0.70909 0.45243 0.0
H2501 H 0.40737 0.78383 0.4462 0.0
H2502 H 0.33327 0.70436 0.45241 0.0
H2503 H 0.31555 0.7791 0.44615 0.0
H2504 H 0.15598 0.75837 0.43413 0.0
H2505 H 0.24795 0.7628 0.43455 0.0
H2506 H 0.2567 0.71337 0.46333 0.0
H2507 H 0.1647 0.70825 0.46261 0.0
C2508 C 0.40193 0.72456 0.45115 0.0
C2509 C 0.42421 0.74682 0.44923 0.0
C2510 C 0.34893 0.72185 0.45114 0.0
C2511 C 0.31666 0.74132 0.44923 0.0
C2512 C 0.33899 0.7636 0.44743 0.0
C2513 C 0.39187 0.76631 0.44744 0.0
C2514 C 0.17745 0.7483 0.4405 0.0
C2515 C 0.1526 0.7329 0.44832 0.0
C2516 C 0.23032 0.75104 0.44084 0.0
C2517 C 0.26008 0.73847 0.44898 0.0
C2518 C 0.23524 0.72317 0.45685 0.0
C2519 C 0.18228 0.72046 0.45653 0.0
H2520 H 0.38442 0.78593 0.332 0.0
H2521 H 0.3644 0.71045 0.32944 0.0
H2522 H 0.47613 0.78075 0.33185 0.0
H2523 H 0.4565 0.70526 0.32927 0.0
H2524 H 0.62432 0.70632 0.31822 0.0
H2525 H 0.53237 0.71163 0.31773 0.0
H2526 H 0.5446 0.76651 0.34381 0.0
H2527 H 0.63654 0.76185 0.34396 0.0
C2528 C 0.39949 0.76817 0.33152 0.0
C2529 C 0.36661 0.74861 0.33082 0.0
C2530 C 0.45232 0.76519 0.33143 0.0
C2531 C 0.4741 0.74257 0.33061 0.0
C2532 C 0.44129 0.72299 0.32977 0.0
C2533 C 0.38832 0.72597 0.32987 0.0
C2534 C 0.60753 0.71974 0.32375 0.0
C2535 C 0.63822 0.73367 0.33112 0.0
C2536 C 0.55457 0.72258 0.32358 0.0
C2537 C 0.53069 0.73949 0.33074 0.0
C2538 C 0.56144 0.75349 0.33806 0.0
C2539 C 0.61433 0.75062 0.33825 0.0
H2540 H 0.15633 0.97642 0.34312 0.0
H2541 H 0.17023 0.04239 0.32439 0.0
H2542 H 0.24808 0.97116 0.34221 0.0
H2543 H 0.26229 0.03754 0.32385 0.0
H2544 H 0.42106 0.00839 0.31451 0.0
H2545 H 0.3293 0.01435 0.31507 0.0
H2546 H 0.3253 0.98685 0.35037 0.0
H2547 H 0.4169 0.98088 0.3498 0.0
C2548 C 0.17886 0.98978 0.33875 0.0
C2549 C 0.15555 0.00983 0.33381 0.0
C2550 C 0.23172 0.98691 0.33836 0.0
C2551 C 0.26296 0.00397 0.33301 0.0
C2552 C 0.23962 0.02392 0.32797 0.0
C2553 C 0.18672 0.02683 0.32839 0.0
C2554 C 0.40075 0.00389 0.32245 0.0
C2555 C 0.42665 -0.00595 0.33209 0.0
C2556 C 0.34797 0.00728 0.32277 0.0
C2557 C 0.31952 0.00095 0.33274 0.0
C2558 C 0.34559 0.99149 0.34245 0.0
C2559 C 0.39829 0.98809 0.34213 0.0
H2560 H 0.14988 0.52984 0.57396 0.0
H2561 H 0.17045 0.45819 0.58606 0.0
H2562 H 0.05817 0.52461 0.57454 0.0
H2563 H 0.07849 0.453 0.58668 0.0
H2564 H 0.91249 0.46059 0.5984 0.0
H2565 H 1.00429 0.46546 0.59745 0.0
H2566 H 0.98832 0.50453 0.56513 0.0
H2567 H 0.89621 0.50041 0.56632 0.0
C2568 C 0.13497 0.51284 0.57661 0.0
C2569 C 0.16799 0.49443 0.57993 0.0
C2570 C 0.08215 0.50985 0.57695 0.0
C2571 C 0.06059 0.48837 0.58065 0.0
C2572 C 0.09354 0.46992 0.58395 0.0
C2573 C 0.14644 0.4729 0.58359 0.0
C2574 C 0.9284 0.47045 0.59114 0.0
C2575 C 0.89657 0.48021 0.58247 0.0
C2576 C 0.98128 0.47298 0.59052 0.0
C2577 C 1.00407 0.48538 0.5812 0.0
C2578 C 0.97228 0.49508 0.57251 0.0
C2579 C 0.91934 0.4925 0.57312 0.0
H2580 H 0.39624 0.72998 0.56634 0.0
H2581 H 0.37968 0.77671 0.59596 0.0
H2582 H 0.30418 0.72545 0.56538 0.0
H2583 H 0.28791 0.77148 0.59528 0.0
H2584 H 0.12143 0.77581 0.58357 0.0
H2585 H 0.21334 0.78124 0.584 0.0
H2586 H 0.23428 0.70753 0.57571 0.0
H2587 H 0.14262 0.70207 0.57533 0.0
C2588 C 0.37308 0.73933 0.57265 0.0
C2589 C 0.39582 0.75368 0.58124 0.0
C2590 C 0.32013 0.73652 0.57218 0.0
C2591 C 0.28821 0.74805 0.58027 0.0
C2592 C 0.31096 0.7625 0.58882 0.0
C2593 C 0.36386 0.76525 0.5893 0.0
C2594 C 0.14554 0.76069 0.58192 0.0
C2595 C 0.12413 0.7385 0.57938 0.0
C2596 C 0.19845 0.76381 0.58216 0.0
C2597 C 0.23163 0.74484 0.57987 0.0
C2598 C 0.21019 0.72268 0.57731 0.0
C2599 C 0.15736 0.71956 0.57708 0.0
H2600 H 0.92865 0.79422 0.69104 0.0
H2601 H 0.90841 0.72767 0.70896 0.0
H2602 H 1.02035 0.78993 0.69264 0.0
H2603 H 1.0002 0.7228 0.71002 0.0
H2604 H 0.16728 0.73051 0.71977 0.0
H2605 H 0.07569 0.73685 0.71925 0.0
H2606 H 0.08936 0.76789 0.68479 0.0
H2607 H 0.18087 0.76174 0.68538 0.0
C2608 C 0.94361 0.77869 0.69538 0.0
C2609 C 0.91065 0.76132 0.69988 0.0
C2610 C 0.99646 0.77607 0.69615 0.0
C2611 C 1.01813 0.75596 0.70143 0.0
C2612 C 0.98519 0.73867 0.70601 0.0
C2613 C 0.93231 0.74132 0.70526 0.0
C2614 C 0.15076 0.73866 0.71207 0.0
C2615 C 0.18174 0.74559 0.70262 0.0
C2616 C 0.09806 0.74225 0.71175 0.0
C2617 C 0.07468 0.75283 0.70196 0.0
C2618 C 0.10581 0.76004 0.69258 0.0
C2619 C 0.15851 0.75651 0.69291 0.0
H2620 H 0.10615 0.45236 0.70795 0.0
H2621 H 0.12946 0.52688 0.70198 0.0
H2622 H 0.19785 0.44605 0.7074 0.0
H2623 H 0.22078 0.52058 0.70144 0.0
H2624 H 0.38521 0.50554 0.71086 0.0
H2625 H 0.29376 0.51067 0.71314 0.0
H2626 H 0.26799 0.44621 0.69386 0.0
H2627 H 0.35932 0.44058 0.69202 0.0
C2628 C 0.13072 0.4674 0.70648 0.0
C2629 C 0.1101 0.49015 0.70504 0.0
C2630 C 0.18342 0.46378 0.70617 0.0
C2631 C 0.21701 0.4828 0.70439 0.0
C2632 C 0.19636 0.50555 0.70304 0.0
C2633 C 0.14376 0.50917 0.70336 0.0
C2634 C 0.36011 0.49226 0.70726 0.0
C2635 C 0.37993 0.47269 0.7012 0.0
C2636 C 0.30752 0.49535 0.70844 0.0
C2637 C 0.27319 0.47894 0.70363 0.0
C2638 C 0.29306 0.45913 0.69778 0.0
C2639 C 0.3456 0.45605 0.69659 0.0
H2640 H 0.86866 0.51373 0.46583 0.0
H2641 H 0.87721 0.46752 0.43583 0.0
H2642 H 0.96076 0.51812 0.46556 0.0
H2643 H 0.96917 0.47259 0.4353 0.0
H2644 H 0.13713 0.46615 0.44587 0.0
H2645 H 0.04498 0.46175 0.44609 0.0
H2646 H 0.02898 0.53571 0.45443 0.0
H2647 H 0.12096 0.54014 0.45416 0.0
C2648 C 0.89012 0.50453 0.45916 0.0
C2649 C 0.86524 0.49023 0.45086 0.0
C2650 C 0.94303 0.50724 0.45893 0.0
C2651 C 0.97269 0.4957 0.45042 0.0
C2652 C 0.94778 0.48154 0.44207 0.0
C2653 C 0.89484 0.47888 0.44228 0.0
C2654 C 0.11402 0.48153 0.44767 0.0
C2655 C 0.13683 0.50349 0.45003 0.0
C2656 C 0.06103 0.47901 0.44779 0.0
C2657 C 0.02927 0.49836 0.45028 0.0
C2658 C 0.05209 0.5203 0.45266 0.0
C2659 C 0.10503 0.52283 0.45253 0.0
H2660 H 0.93486 0.21732 0.43491 0.0
H2661 H 0.9169 0.25571 0.46732 0.0
H2662 H 0.84345 0.2112 0.43399 0.0
H2663 H 0.82505 0.25036 0.46616 0.0
H2664 H 0.66461 0.21734 0.46556 0.0
H2665 H 0.7566 0.22184 0.46743 0.0
H2666 H 0.7679 0.23366 0.43013 0.0
H2667 H 0.6764 0.22913 0.42827 0.0
C2668 C 0.91155 0.2243 0.44192 0.0
C2669 C 0.9336 0.23705 0.45119 0.0
C2670 C 0.85886 0.22106 0.4413 0.0
C2671 C 0.82651 0.23046 0.44994 0.0
C2672 C 0.84861 0.24274 0.45937 0.0
C2673 C 0.90138 0.24602 0.45998 0.0
C2674 C 0.68668 0.22109 0.45777 0.0
C2675 C 0.66288 0.22268 0.44675 0.0
C2676 C 0.73954 0.22366 0.45885 0.0
C2677 C 0.77002 0.22792 0.44892 0.0
C2678 C 0.74602 0.22984 0.43794 0.0
C2679 C 0.69334 0.22727 0.43687 0.0
H2680 H 0.12072 0.22144 0.34648 0.0
H2681 H 0.13159 0.24065 0.30992 0.0
H2682 H 0.02878 0.22602 0.34561 0.0
H2683 H 0.03936 0.24438 0.30895 0.0
H2684 H 0.87945 0.27446 0.31504 0.0
H2685 H 0.97124 0.26954 0.31569 0.0
H2686 H 0.95318 0.20789 0.33759 0.0
H2687 H 0.86113 0.21277 0.33691 0.0
C2688 C 0.10358 0.22672 0.33825 0.0
C2689 C 0.13386 0.23078 0.32828 0.0
C2690 C 0.05065 0.22904 0.33772 0.0
C2691 C 0.02638 0.23554 0.32721 0.0
C2692 C 0.05664 0.23958 0.31723 0.0
C2693 C 0.1096 0.2372 0.31776 0.0
C2694 C 0.89489 0.25965 0.31988 0.0
C2695 C 0.86256 0.24398 0.32589 0.0
C2696 C 0.94771 0.25684 0.32026 0.0
C2697 C 0.96989 0.2383 0.32669 0.0
C2698 C 0.93761 0.22258 0.33269 0.0
C2699 C 0.8847 0.22538 0.3323 0.0
H2700 H 0.90817 0.45798 0.33092 0.0
H2701 H 0.93172 0.53248 0.325 0.0
H2702 H 0.81687 0.46435 0.33153 0.0
H2703 H 0.84007 0.53889 0.32561 0.0
H2704 H 0.67856 0.5447 0.34087 0.0
H2705 H 0.76983 0.53891 0.33905 0.0
H2706 H 0.74364 0.47426 0.31997 0.0
H2707 H 0.65223 0.47955 0.32223 0.0
C2708 C 0.89393 0.47571 0.32957 0.0
C2709 C 0.9277 0.49469 0.32787 0.0
C2710 C 0.84133 0.47937 0.32992 0.0
C2711 C 0.82071 0.50215 0.32861 0.0
C2712 C 0.85441 0.52114 0.32683 0.0
C2713 C 0.90712 0.51746 0.32647 0.0
C2714 C 0.69215 0.52915 0.33635 0.0
C2715 C 0.65767 0.51252 0.33178 0.0
C2716 C 0.7447 0.52597 0.33517 0.0
C2717 C 0.76448 0.50606 0.32938 0.0
C2718 C 0.73001 0.48965 0.32462 0.0
C2719 C 0.6774 0.49284 0.32579 0.0
H2720 H 0.91409 0.95156 0.06876 0.0
H2721 H 0.91153 0.00136 0.09737 0.0
H2722 H 1.00613 0.95613 0.06728 0.0
H2723 H 1.00326 0.00581 0.09593 0.0
H2724 H 0.17227 0.98962 0.09872 0.0
H2725 H 0.08063 0.984 0.0997 0.0
H2726 H 0.07288 0.98399 0.0619 0.0
H2727 H 0.16496 0.98892 0.06093 0.0
C2728 C 0.93297 0.96367 0.07466 0.0
C2729 C 0.90509 0.97596 0.08324 0.0
C2730 C 0.98589 0.96627 0.07382 0.0
C2731 C 1.01244 0.98121 0.08154 0.0
C2732 C 0.98443 -0.00624 0.08999 0.0
C2733 C 0.93163 0.9912 0.09082 0.0
C2734 C 0.15122 0.98809 0.09061 0.0
C2735 C 0.17629 0.98972 0.07974 0.0
C2736 C 0.09842 0.98517 0.09117 0.0
C2737 C 0.06903 0.98369 0.08088 0.0
C2738 C 0.09416 0.98491 0.07001 0.0
C2739 C 0.14701 0.98796 0.06945 0.0
H2740 H 0.14162 0.19897 0.07961 0.0
H2741 H 0.12166 0.27463 0.08028 0.0
H2742 H 0.23334 0.20412 0.07964 0.0
H2743 H 0.21374 0.27978 0.08028 0.0
H2744 H 0.38096 0.28049 0.06876 0.0
H2745 H 0.289 0.27529 0.06826 0.0
H2746 H 0.30218 0.21634 0.0921 0.0
H2747 H 0.39417 0.22098 0.09226 0.0
C2748 C 0.15669 0.21674 0.07989 0.0
C2749 C 0.12384 0.23637 0.08002 0.0
C2750 C 0.20952 0.21969 0.07989 0.0
C2751 C 0.23128 0.24237 0.08 0.0
C2752 C 0.19851 0.26204 0.08004 0.0
C2753 C 0.14556 0.25908 0.08005 0.0
C2754 C 0.36437 0.26621 0.07378 0.0
C2755 C 0.39532 0.25113 0.08053 0.0
C2756 C 0.31142 0.26342 0.07361 0.0
C2757 C 0.28784 0.24541 0.08015 0.0
C2758 C 0.31883 0.23026 0.08685 0.0
C2759 C 0.37172 0.23309 0.08704 0.0
H2760 H 0.91176 0.22761 0.18464 0.0
H2761 H 0.92092 0.29311 0.20384 0.0
H2762 H 1.0036 0.22324 0.18593 0.0
H2763 H 1.01301 0.28875 0.20513 0.0
H2764 H 0.17155 0.26033 0.21514 0.0
H2765 H 0.07959 0.26532 0.2141 0.0
H2766 H 0.08093 0.24026 0.17837 0.0
H2767 H 0.1725 0.23448 0.17955 0.0
C2768 C 0.93336 0.24119 0.18907 0.0
C2769 C 0.9087 0.26077 0.19409 0.0
C2770 C 0.98619 0.2387 0.1898 0.0
C2771 C 1.01603 0.25571 0.19557 0.0
C2772 C 0.99134 0.27515 0.20073 0.0
C2773 C 0.93841 0.27764 0.2 0.0
C2774 C 0.15221 0.25577 0.20707 0.0
C2775 C 0.17965 0.24693 0.19744 0.0
C2776 C 0.09944 0.25887 0.20644 0.0
C2777 C 0.07255 0.25312 0.19617 0.0
C2778 C 0.10012 0.24458 0.18649 0.0
C2779 C 0.15287 0.24155 0.18711 0.0
H2780 H 0.37914 0.97667 0.21841 0.0
H2781 H 0.38024 0.99199 0.18133 0.0
H2782 H 0.28691 0.98066 0.21865 0.0
H2783 H 0.28824 -0.0032 0.18166 0.0
H2784 H 0.1188 0.97855 0.18376 0.0
H2785 H 0.21094 0.97413 0.18362 0.0
H2786 H 0.21982 0.00956 0.21704 0.0
H2787 H 0.12779 0.01402 0.21717 0.0
C2788 C 0.35979 0.98092 0.2103 0.0
C2789 C 0.38742 0.98397 0.19985 0.0
C2790 C 0.3068 0.98346 0.21046 0.0
C2791 C 0.27981 0.98904 0.20017 0.0
C2792 C 0.30749 0.99222 0.18973 0.0
C2793 C 0.36048 0.98976 0.18958 0.0
C2794 C 0.14036 0.98554 0.19105 0.0
C2795 C 0.11551 -0.00337 0.20048 0.0
C2796 C 0.19336 0.98303 0.19097 0.0
C2797 C 0.22314 0.99152 0.20031 0.0
C2798 C 0.19826 0.00247 0.20977 0.0
C2799 C 0.14529 0.005 0.20985 0.0
H2800 H 0.8716 0.01314 0.96698 0.0
H2801 H 0.87259 0.97737 0.93358 0.0
H2802 H 0.96346 0.01816 0.9658 0.0
H2803 H 0.9641 0.98315 0.9322 0.0
H2804 H 0.13348 0.97339 0.93963 0.0
H2805 H 0.04164 0.96896 0.94095 0.0
H2806 H 0.0298 0.0391 0.95548 0.0
H2807 H 0.12183 0.04351 0.95419 0.0
C2808 C 0.89134 0.00639 0.95936 0.0
C2809 C 0.86446 -0.00523 0.95039 0.0
C2810 C 0.94407 0.00949 0.95863 0.0
C2811 C 0.9715 0.00101 0.94892 0.0
C2812 C 0.9445 0.98966 0.93989 0.0
C2813 C 0.89178 0.9866 0.94061 0.0
C2814 C 0.11133 0.98796 0.94304 0.0
C2815 C 0.1353 0.00885 0.94677 0.0
C2816 C 0.05851 0.98543 0.94378 0.0
C2817 C 0.028 0.00371 0.94827 0.0
C2818 C 0.05199 0.02452 0.95211 0.0
C2819 C 0.10489 0.02705 0.95138 0.0
H2820 H 0.91393 0.78022 0.95218 0.0
H2821 H 0.93363 0.70509 0.95685 0.0
H2822 H 0.82237 0.77491 0.95134 0.0
H2823 H 0.8417 0.69968 0.95556 0.0
H2824 H 0.67004 0.70149 0.96349 0.0
H2825 H 0.76164 0.70698 0.96573 0.0
H2826 H 0.75937 0.75935 0.9382 0.0
H2827 H 0.66796 0.75446 0.93625 0.0
C2828 C 0.8988 0.76255 0.95312 0.0
C2829 C 0.93151 0.7431 0.95462 0.0
C2830 C 0.84612 0.75946 0.95248 0.0
C2831 C 0.82438 0.73684 0.95331 0.0
C2832 C 0.85695 0.71739 0.95497 0.0
C2833 C 0.90979 0.72047 0.95559 0.0
C2834 C 0.68901 0.71437 0.95801 0.0
C2835 C 0.6614 0.72749 0.94968 0.0
C2836 C 0.7417 0.71733 0.9592 0.0
C2837 C 0.76815 0.73361 0.95215 0.0
C2838 C 0.7404 0.74684 0.94389 0.0
C2839 C 0.68789 0.74383 0.94267 0.0
H2840 H 0.13481 0.75931 0.82479 0.0
H2841 H 0.11644 0.68615 0.83464 0.0
H2842 H 0.04296 0.76348 0.82329 0.0
H2843 H 0.0247 0.69006 0.83262 0.0
H2844 H 0.86197 0.71392 0.84176 0.0
H2845 H 0.95356 0.70803 0.84232 0.0
H2846 H 0.97023 0.75246 0.81178 0.0
H2847 H 0.87853 0.75839 0.81123 0.0
C2848 C 0.11127 0.74407 0.82661 0.0
C2849 C 0.13337 0.72241 0.82988 0.0
C2850 C 0.05845 0.74639 0.8256 0.0
C2851 C 0.02611 0.72711 0.82783 0.0
C2852 C 0.04822 0.70538 0.83096 0.0
C2853 C 0.10104 0.70306 0.83197 0.0
C2854 C 0.885 0.72214 0.83504 0.0
C2855 C 0.8626 0.73669 0.82647 0.0
C2856 C 0.93771 0.71878 0.83537 0.0
C2857 C 0.96962 0.72985 0.82713 0.0
C2858 C 0.94711 0.74399 0.81841 0.0
C2859 C 0.89439 0.74737 0.81808 0.0
H2860 H 0.67499 0.04267 0.84045 0.0
H2861 H 0.65537 0.97757 0.8213 0.0
H2862 H 0.7667 0.03864 0.83885 0.0
H2863 H 0.7472 0.9729 0.82024 0.0
H2864 H 0.91455 0.98143 0.81097 0.0
H2865 H 0.82291 0.98774 0.8114 0.0
H2866 H 0.8353 0.01598 0.84644 0.0
H2867 H 0.92681 0.00991 0.84593 0.0
C2868 C 0.69009 0.02753 0.83584 0.0
C2869 C 0.65733 0.01048 0.831 0.0
C2870 C 0.74294 0.02504 0.83506 0.0
C2871 C 0.76477 0.00538 0.82945 0.0
C2872 C 0.73203 0.98843 0.82451 0.0
C2873 C 0.67915 0.99095 0.82526 0.0
C2874 C 0.89771 0.98898 0.81877 0.0
C2875 C 0.92829 -0.00484 0.82841 0.0
C2876 C 0.84502 -0.00746 0.81904 0.0
C2877 C 0.82129 0.00232 0.82897 0.0
C2878 C 0.85204 0.00877 0.83855 0.0
C2879 C 0.90472 0.00529 0.83826 0.0
H2880 H 0.1337 0.47841 0.0391 0.0
H2881 H 0.97847 0.49161 0.04916 0.0
H2882 H 0.1118 0.48393 0.01865 0.0
H2883 H 0.9553 0.49599 0.02847 0.0
H2884 H 0.93726 0.52449 0.99141 0.0
H2885 H 0.95936 0.51951 1.01191 0.0
H2886 H 0.07378 0.46837 1.00218 0.0
H2887 H 0.05294 0.47449 0.98149 0.0
C2888 C 0.09455 0.48231 0.03691 0.0
C2889 C 0.05782 0.48459 0.04579 0.0
C2890 C 0.08179 0.48527 0.02509 0.0
C2891 C 0.03156 0.49026 0.02169 0.0
C2892 C 0.99462 0.49252 0.03063 0.0
C2893 C 1.00768 0.4899 0.04254 0.0
C2894 C 0.96739 0.51226 0.99364 0.0
C2895 C 0.99353 0.49997 0.9848 0.0
C2896 C 0.97977 0.50918 1.00548 0.0
C2897 C 1.01831 0.4934 1.00892 0.0
C2898 C 0.04445 0.48102 1.0 0.0
C2899 C 0.03247 0.4844 0.98809 0.0
H2900 H 0.3832 0.7295 0.99225 0.0
H2901 H 0.22807 0.7435 0.9823 0.0
H2902 H 0.36164 0.73488 1.01274 0.0
H2903 H 0.20528 0.74774 1.003 0.0
H2904 H 0.18775 0.77584 0.04 0.0
H2905 H 0.21042 0.7713 0.01951 0.0
H2906 H 0.32294 0.71913 0.02917 0.0
H2907 H 0.30153 0.72478 0.04985 0.0
C2908 C 0.34417 0.73356 0.99447 0.0
C2909 C 0.30734 0.73612 0.98563 0.0
C2910 C 0.33162 0.73644 1.0063 0.0
C2911 C 0.28153 0.74163 1.00972 0.0
C2912 C 0.24451 0.74414 1.00081 0.0
C2913 C 0.25735 0.74159 0.98891 0.0
C2914 C 0.21762 0.7635 0.03775 0.0
C2915 C 0.243 0.75073 0.04657 0.0
C2916 C 0.23032 0.76068 0.02593 0.0
C2917 C 0.26838 0.74469 0.02248 0.0
C2918 C 0.29395 0.73192 0.03137 0.0
C2919 C 0.28166 0.73504 0.04327 0.0
H2920 H 0.98719 0.69964 0.29073 0.0
H2921 H 0.03379 0.77126 0.29773 0.0
H2922 H 1.00053 0.70593 0.2698 0.0
H2923 H 0.04644 0.77776 0.27674 0.0
H2924 H 0.98543 0.7318 0.23158 0.0
H2925 H 0.9678 0.72634 0.25258 0.0
H2926 H 0.10192 0.76675 0.26107 0.0
H2927 H 0.11866 0.77243 0.24035 0.0
C2928 C 1.00036 0.71676 0.2878 0.0
C2929 C 1.00958 0.73493 0.29593 0.0
C2930 C 1.00752 0.72045 0.27575 0.0
C2931 C 0.02435 0.7424 0.27147 0.0
C2932 C 0.03395 0.76053 0.27966 0.0
C2933 C 0.02666 0.75684 0.29172 0.0
C2934 C 1.01075 0.73963 0.23797 0.0
C2935 C 0.05332 0.75259 0.23428 0.0
C2936 C 1.00095 0.73639 0.25001 0.0
C2937 C 0.03338 0.74615 0.25861 0.0
C2938 C 0.07556 0.75927 0.2548 0.0
C2939 C 0.08536 0.7624 0.24286 0.0
H2940 H 0.27906 0.5196 0.2336 0.0
H2941 H 0.22406 0.44942 0.24099 0.0
H2942 H 0.2936 0.52598 0.25451 0.0
H2943 H 0.23944 0.45555 0.26188 0.0
H2944 H 0.23216 0.4824 0.30018 0.0
H2945 H 0.21164 0.47685 0.27931 0.0
H2946 H 0.3493 0.51361 0.2698 0.0
H2947 H 0.36886 0.51941 0.29035 0.0
C2948 C 0.2704 0.50547 0.23969 0.0
C2949 C 0.25056 0.48399 0.2356 0.0
C2950 C 0.27882 0.50908 0.2517 0.0
C2951 C 0.26772 0.49128 0.25998 0.0
C2952 C 0.24779 0.4698 0.25585 0.0
C2953 C 0.23942 0.4662 0.24383 0.0
C2954 C 0.25767 0.48938 0.29359 0.0
C2955 C 0.30202 0.5014 0.29694 0.0
C2956 C 0.24618 0.4861 0.28163 0.0
C2957 C 0.27869 0.49488 0.27278 0.0
C2958 C 0.32278 0.50696 0.27625 0.0
C2959 C 0.3342 0.51015 0.28811 0.0
H2960 H 0.78829 0.27166 0.98163 0.0
H2961 H 0.78714 0.1963 0.98688 0.0
H2962 H 0.78125 0.27766 1.00271 0.0
H2963 H 0.77705 0.20203 1.00792 0.0
H2964 H 0.80445 0.21792 0.04652 0.0
H2965 H 0.81535 0.21235 0.0254 0.0
H2966 H 0.73109 0.27666 0.01901 0.0
H2967 H 0.72324 0.28273 0.03993 0.0
C2968 C 0.78548 0.25635 0.9873 0.0
C2969 C 0.78821 0.23351 0.98257 0.0
C2970 C 0.78125 0.25974 0.99945 0.0
C2971 C 0.77863 0.24036 1.00724 0.0
C2972 C 0.78012 0.21749 1.00238 0.0
C2973 C 0.78526 0.21414 0.99026 0.0
C2974 C 0.7888 0.23093 0.04056 0.0
C2975 C 0.76313 0.25078 0.04494 0.0
C2976 C 0.79451 0.22766 0.0284 0.0
C2977 C 0.774 0.24399 0.02029 0.0
C2978 C 0.74849 0.26385 0.0248 0.0
C2979 C 0.74359 0.26728 0.0369 0.0
H2980 H 0.05614 0.25742 0.79579 0.0
H2981 H 0.93753 0.20711 0.78855 0.0
H2982 H 0.07007 0.2626 0.77484 0.0
H2983 H 0.9479 0.21355 0.76767 0.0
H2984 H 1.00523 0.21375 0.72986 0.0
H2985 H 0.99017 0.20772 0.75078 0.0
H2986 H 0.04581 0.27827 0.75769 0.0
H2987 H 0.06448 0.28309 0.73702 0.0
C2988 C 0.03264 0.24767 0.78969 0.0
C2989 C 0.99599 0.23179 0.79386 0.0
C2990 C 0.04007 0.2508 0.77759 0.0
C2991 C 1.00995 0.23866 0.76926 0.0
C2992 C 0.97288 0.22294 0.77357 0.0
C2993 C 0.96653 0.21935 0.78565 0.0
C2994 C 1.01356 0.22797 0.7359 0.0
C2995 C 0.03591 0.24888 0.73182 0.0
C2996 C 1.00491 0.22461 0.74797 0.0
C2997 C 1.01718 0.24237 0.75624 0.0
C2998 C 0.03729 0.26372 0.75189 0.0
C2999 C 0.04729 0.26672 0.73993 0.0
H3000 H 0.74327 0.4768 0.79991 0.0
H3001 H 0.86216 0.52474 0.78951 0.0
H3002 H 0.72091 0.47086 0.7793 0.0
H3003 H 0.83858 0.52 0.76909 0.0
H3004 H 0.81639 0.49176 0.73206 0.0
H3005 H 0.8404 0.49623 0.75268 0.0
H3006 H 0.68347 0.48661 0.7628 0.0
H3007 H 0.66067 0.48093 0.74241 0.0
C3008 C 0.76412 0.48631 0.79322 0.0
C3009 C 0.80445 0.50121 0.79635 0.0
C3010 C 0.75127 0.48304 0.78136 0.0
C3011 C 0.7779 0.49489 0.77233 0.0
C3012 C 0.81774 0.51007 0.77561 0.0
C3013 C 0.831 0.51301 0.7874 0.0
C3014 C 0.78725 0.49061 0.73874 0.0
C3015 C 0.73673 0.48593 0.73559 0.0
C3016 C 0.80081 0.4933 0.7506 0.0
C3017 C 0.76399 0.49174 0.75961 0.0
C3018 C 0.71336 0.4874 0.75631 0.0
C3019 C 0.7001 0.48436 0.74453 0.0
H3020 H 0.98154 0.99233 0.54832 0.0
H3021 H 0.13603 0.97674 0.53847 0.0
H3022 H 0.95932 -0.00286 0.52759 0.0
H3023 H 0.11509 0.98264 0.51799 0.0
H3024 H 0.05543 0.9742 0.48072 0.0
H3025 H 0.07602 0.96778 0.50141 0.0
H3026 H 0.96613 0.021 0.51116 0.0
H3027 H 0.94429 0.02634 0.49067 0.0
C3028 C 1.0108 0.99015 0.54173 0.0
C3029 C 0.06045 0.98409 0.54506 0.0
C3030 C 0.99829 -0.00697 0.52981 0.0
C3031 C 0.03532 0.99026 0.52092 0.0
C3032 C 0.08503 0.98443 0.52439 0.0
C3033 C 0.09724 0.98125 0.53623 0.0
C3034 C 0.03601 0.98454 0.48732 0.0
C3035 C 0.99831 0.00077 0.48404 0.0
C3036 C 0.04781 0.98096 0.49923 0.0
C3037 C 0.02267 -0.00622 0.50815 0.0
C3038 C 0.98563 0.01031 0.50472 0.0
C3039 C 0.97344 0.0136 0.49289 0.0
H3040 H 0.24397 0.25797 0.47901 0.0
H3041 H 0.36079 0.20886 0.48938 0.0
H3042 H 0.22202 0.26412 0.49963 0.0
H3043 H 0.33764 0.21385 0.50981 0.0
H3044 H 0.31694 0.24216 0.54687 0.0
H3045 H 0.34064 0.23765 0.52623 0.0
H3046 H 0.18405 0.24867 0.51615 0.0
H3047 H 0.16157 0.25433 0.53655 0.0
C3048 C 0.26443 0.24825 0.48569 0.0
C3049 C 0.30406 0.23295 0.48254 0.0
C3050 C 0.25183 0.25165 0.49756 0.0
C3051 C 0.27804 0.23955 0.50659 0.0
C3052 C 0.31716 0.22398 0.50329 0.0
C3053 C 0.33015 0.22089 0.49149 0.0
C3054 C 0.28781 0.24363 0.5402 0.0
C3055 C 0.23747 0.24867 0.54336 0.0
C3056 C 0.30119 0.24091 0.52832 0.0
C3057 C 0.26438 0.24282 0.51932 0.0
C3058 C 0.21395 0.24759 0.52264 0.0
C3059 C 0.20087 0.25063 0.53443 0.0
H3060 H 0.21925 0.99052 0.80003 0.0
H3061 H 0.37514 0.00246 0.79012 0.0
H3062 H 0.19628 0.98662 0.77929 0.0
H3063 H 0.35337 -0.00253 0.76965 0.0
H3064 H 0.2957 0.00884 0.73257 0.0
H3065 H 0.31601 0.01418 0.75333 0.0
H3066 H 0.19994 0.96345 0.76254 0.0
H3067 H 0.17844 0.9592 0.74195 0.0
C3068 C 0.24864 0.99203 0.79344 0.0
C3069 C 0.29891 -0.00312 0.79674 0.0
C3070 C 0.23568 0.9897 0.78151 0.0
C3071 C 0.27284 0.99185 0.7726 0.0
C3072 C 0.32322 -0.00372 0.77607 0.0
C3073 C 0.33588 -0.00108 0.7879 0.0
C3074 C 0.27474 -0.00115 0.73907 0.0
C3075 C 0.23558 0.98359 0.7356 0.0
C3076 C 0.28642 0.00178 0.75101 0.0
C3077 C 0.25972 0.98924 0.75981 0.0
C3078 C 0.22084 0.97383 0.75621 0.0
C3079 C 0.20879 0.97119 0.74432 0.0
H3080 H 0.82718 0.7001 0.48894 0.0
H3081 H 0.74613 0.76504 0.48257 0.0
H3082 H 0.82083 0.70634 0.5099 0.0
H3083 H 0.7369 0.7708 0.50371 0.0
H3084 H 0.76877 0.78735 0.54198 0.0
H3085 H 0.77752 0.78124 0.52094 0.0
H3086 H 0.77134 0.70573 0.52642 0.0
H3087 H 0.76549 0.71206 0.5475 0.0
C3088 C 0.80719 0.7156 0.49204 0.0
C3089 C 0.78725 0.7321 0.48404 0.0
C3090 C 0.8032 0.71914 0.50415 0.0
C3091 C 0.7783 0.73912 0.50872 0.0
C3092 C 0.75732 0.75542 0.50066 0.0
C3093 C 0.76206 0.75203 0.48849 0.0
C3094 C 0.76993 0.76944 0.53867 0.0
C3095 C 0.76669 0.75021 0.54643 0.0
C3096 C 0.7743 0.76589 0.52654 0.0
C3097 C 0.77476 0.74295 0.52177 0.0
C3098 C 0.77203 0.72369 0.52963 0.0
C3099 C 0.7685 0.72728 0.54178 0.0
H3100 H 0.78242 0.02088 0.23276 0.0
H3101 H 0.73362 0.94954 0.23973 0.0
H3102 H 0.7956 0.02714 0.25374 0.0
H3103 H 0.74759 0.95557 0.26067 0.0
H3104 H 0.73477 0.98159 0.29898 0.0
H3105 H 0.71637 0.97608 0.27802 0.0
H3106 H 0.85132 0.01564 0.26924 0.0
H3107 H 0.86878 0.02139 0.2899 0.0
C3108 C 0.77489 0.00647 0.23877 0.0
C3109 C 0.75709 0.9847 0.23455 0.0
C3110 C 0.78251 0.01001 0.25082 0.0
C3111 C 0.7726 0.99188 0.259 0.0
C3112 C 0.75491 0.97008 0.25472 0.0
C3113 C 0.74737 0.96654 0.24267 0.0
C3114 C 0.76012 0.98921 0.29253 0.0
C3115 C 0.8031 0.00199 0.29613 0.0
C3116 C 0.74987 0.98594 0.28051 0.0
C3117 C 0.78226 -0.00451 0.27185 0.0
C3118 C 0.82494 0.00836 0.27555 0.0
C3119 C 0.83516 0.01153 0.28747 0.0
H3120 H 0.48642 0.51528 0.54925 0.0
H3121 H 0.57029 0.45135 0.54243 0.0
H3122 H 0.47539 0.52123 0.52815 0.0
H3123 H 0.56233 0.45783 0.52154 0.0
H3124 H 0.50528 0.46292 0.48421 0.0
H3125 H 0.51208 0.45666 0.50527 0.0
H3126 H 0.51313 0.53223 0.51068 0.0
H3127 H 0.50322 0.53821 0.48964 0.0
C3128 C 0.50261 0.50255 0.54324 0.0
C3129 C 0.52904 0.48282 0.54755 0.0
C3130 C 0.49683 0.50604 0.5311 0.0
C3131 C 0.51802 0.49008 0.52293 0.0
C3132 C 0.54436 0.47035 0.52737 0.0
C3133 C 0.54932 0.46668 0.53945 0.0
C3134 C 0.50728 0.47818 0.48991 0.0
C3135 C 0.50378 0.50106 0.48524 0.0
C3136 C 0.51141 0.47464 0.50206 0.0
C3137 C 0.51321 0.49391 0.5099 0.0
C3138 C 0.51078 0.51684 0.5051 0.0
C3139 C 0.50571 0.52034 0.49297 0.0
H3140 H 0.56813 0.74201 0.79889 0.0
H3141 H 0.41264 0.72842 0.78913 0.0
H3142 H 0.59024 0.74677 0.77817 0.0
H3143 H 0.43355 0.73428 0.76864 0.0
H3144 H 0.49248 0.72525 0.73135 0.0
H3145 H 0.4718 0.71894 0.75204 0.0
H3146 H 0.58429 0.77093 0.76182 0.0
H3147 H 0.60619 0.77616 0.74133 0.0
C3148 C 0.53863 0.74029 0.79233 0.0
C3149 C 0.48873 0.7348 0.79566 0.0
C3150 C 0.55109 0.74314 0.78041 0.0
C3151 C 0.51376 0.7409 0.77155 0.0
C3152 C 0.46379 0.73565 0.77503 0.0
C3153 C 0.45162 0.7325 0.78687 0.0
C3154 C 0.51249 0.73533 0.73796 0.0
C3155 C 0.55091 0.75118 0.73469 0.0
C3156 C 0.50063 0.73183 0.74986 0.0
C3157 C 0.52644 0.74434 0.75879 0.0
C3158 C 0.56425 0.76049 0.75537 0.0
C3159 C 0.57648 0.7637 0.74354 0.0
H3160 H 0.52971 0.2696 0.29517 0.0
H3161 H 0.47608 0.19929 0.28763 0.0
H3162 H 0.54519 0.27613 0.2743 0.0
H3163 H 0.49242 0.20556 0.26679 0.0
H3164 H 0.4854 0.23246 0.22854 0.0
H3165 H 0.46486 0.22665 0.24936 0.0
H3166 H 0.60114 0.26438 0.259 0.0
H3167 H 0.62064 0.27049 0.23844 0.0
C3168 C 0.52156 0.25547 0.28906 0.0
C3169 C 0.50176 0.23392 0.29309 0.0
C3170 C 0.53055 0.25916 0.27707 0.0
C3171 C 0.52007 0.24138 0.26875 0.0
C3172 C 0.50029 0.21981 0.27284 0.0
C3173 C 0.49135 0.21612 0.28483 0.0
C3174 C 0.51059 0.23962 0.23514 0.0
C3175 C 0.55449 0.25203 0.23181 0.0
C3176 C 0.49912 0.23617 0.24709 0.0
C3177 C 0.5312 0.24513 0.25596 0.0
C3178 C 0.57492 0.25757 0.25252 0.0
C3179 C 0.58632 0.26094 0.24067 0.0
H3180 H 0.48934 0.0097 0.04942 0.0
H3181 H 0.60085 0.95755 0.03969 0.0
H3182 H 0.46894 0.01586 0.02869 0.0
H3183 H 0.57917 0.96262 0.01918 0.0
H3184 H 0.56542 0.99106 0.98204 0.0
H3185 H 0.58657 0.98629 1.00279 0.0
H3186 H 0.4305 0.00119 1.01197 0.0
H3187 H 0.41064 0.00706 0.9914 0.0
C3188 C 0.5089 -0.00069 0.04286 0.0
C3189 C 0.54669 0.98317 0.04621 0.0
C3190 C 0.49719 0.00273 0.03093 0.0
C3191 C 0.52251 0.98985 0.02206 0.0
C3192 C 0.55956 0.97337 0.02557 0.0
C3193 C 0.57167 0.97025 0.03742 0.0
C3194 C 0.53583 -0.0067 0.98852 0.0
C3195 C 0.48645 -0.00054 0.98505 0.0
C3196 C 0.54773 0.99044 1.00047 0.0
C3197 C 0.51032 -0.00668 1.00926 0.0
C3198 C 0.46082 -0.00072 1.00565 0.0
C3199 C 0.44923 0.00244 0.99376 0.0
loop_
_geom_bond_atom_site_label_1
_geom_bond_atom_site_label_2
_geom_bond_distance
_geom_bond_site_symmetry_2
_ccdc_geom_bond_type
Sm0 C2 2.846 . S
Sm0 O20 2.543 . S
Sm0 O21 2.450 . S
Sm0 O22 2.681 1_655 S
Sm0 O23 2.464 . S
Sm0 O24 2.396 . S
Sm0 O28 2.386 1_655 S
Sm0 O31 2.408 1_655 S
Sm1 C11 2.846 . S
Sm1 O22 2.386 . S
Sm1 O25 2.408 . S
Sm1 O26 2.543 . S
Sm1 O27 2.450 . S
Sm1 O28 2.681 . S
Sm1 O29 2.464 . S
Sm1 O30 2.396 . S
C2 Sm0 2.846 . S
C2 C3 1.506 . S
C2 O20 1.261 . S
C2 O21 1.242 . S
C3 C2 1.506 . S
C3 C4 1.358 . S
C3 C8 1.382 . S
C4 C3 1.358 . S
C4 C5 1.385 . S
C4 H32 0.930 . S
C5 C4 1.385 . S
C5 C6 1.395 . S
C5 H33 0.929 . S
C6 C5 1.395 . S
C6 C7 1.335 . S
C7 C6 1.335 . S
C7 C8 1.398 . S
C7 H34 0.930 . S
C8 C3 1.382 . S
C8 C7 1.398 . S
C8 H35 0.929 . S
C9 O22 1.271 . S
C9 O23 1.251 1_455 S
C10 O24 1.252 . S
C10 O25 1.272 1_655 S
C11 Sm1 2.846 . S
C11 C12 1.506 . S
C11 O26 1.261 . S
C11 O27 1.242 . S
C12 C11 1.506 . S
C12 C13 1.358 . S
C12 C17 1.382 . S
C13 C12 1.358 . S
C13 C14 1.385 . S
C13 H36 0.930 . S
C14 C13 1.385 . S
C14 C15 1.395 . S
C14 H37 0.929 . S
C15 C14 1.395 . S
C15 C16 1.335 . S
C16 C15 1.335 . S
C16 C17 1.398 . S
C16 H38 0.930 . S
C17 C12 1.382 . S
C17 C16 1.398 . S
C17 H39 0.929 . S
C18 O28 1.271 . S
C18 O29 1.251 . S
C19 O30 1.252 . S
C19 O31 1.272 . S
O20 Sm0 2.543 . S
O20 C2 1.261 . S
O21 Sm0 2.450 . S
O21 C2 1.242 . S
O22 Sm0 2.681 1_455 S
O22 Sm1 2.386 . S
O22 C9 1.271 . S
O23 Sm0 2.464 . S
O23 C9 1.251 1_655 S
O24 Sm0 2.396 . S
O24 C10 1.252 . S
O25 Sm1 2.408 . S
O25 C10 1.272 1_455 S
O26 Sm1 2.543 . S
O26 C11 1.261 . S
O27 Sm1 2.450 . S
O27 C11 1.242 . S
O28 Sm0 2.386 1_455 S
O28 Sm1 2.681 . S
O28 C18 1.271 . S
O29 Sm1 2.464 . S
O29 C18 1.251 . S
O30 Sm1 2.396 . S
O30 C19 1.252 . S
O31 Sm0 2.408 1_455 S
O31 C19 1.272 . S
H32 C4 0.930 . S
H33 C5 0.929 . S
H34 C7 0.930 . S
H35 C8 0.929 . S
H36 C13 0.930 . S
H37 C14 0.929 . S
H38 C16 0.930 . S
H39 C17 0.929 . S
Sm40 C42 2.846 . S
Sm40 O60 2.543 . S
Sm40 O61 2.450 . S
Sm40 O62 2.681 . S
Sm40 O63 2.464 . S
Sm40 O64 2.396 . S
Sm40 O68 2.386 . S
Sm40 O71 2.408 . S
Sm41 C51 2.846 . S
Sm41 O62 2.386 . S
Sm41 O65 2.408 . S
Sm41 O66 2.543 . S
Sm41 O67 2.450 . S
Sm41 O68 2.681 . S
Sm41 O69 2.464 . S
Sm41 O70 2.396 . S
C42 Sm40 2.846 . S
C42 C43 1.506 . S
C42 O60 1.261 . S
C42 O61 1.242 . S
C43 C42 1.506 . S
C43 C44 1.358 . S
C43 C48 1.382 . S
C44 C43 1.358 . S
C44 C45 1.385 . S
C44 H72 0.930 . S
C45 C44 1.385 . S
C45 C46 1.395 . S
C45 H73 0.929 . S
C46 C45 1.395 . S
C46 C47 1.335 . S
C47 C46 1.335 . S
C47 C48 1.398 . S
C47 H74 0.930 . S
C48 C43 1.382 . S
C48 C47 1.398 . S
C48 H75 0.929 . S
C49 O62 1.271 . S
C49 O63 1.251 . S
C50 O64 1.252 . S
C50 O65 1.272 . S
C51 Sm41 2.846 . S
C51 C52 1.506 . S
C51 O66 1.261 . S
C51 O67 1.242 . S
C52 C51 1.506 . S
C52 C53 1.358 1_455 S
C52 C57 1.382 1_455 S
C53 C52 1.358 1_655 S
C53 C54 1.385 . S
C53 H76 0.930 . S
C54 C53 1.385 . S
C54 C55 1.395 . S
C54 H77 0.929 . S
C55 C54 1.395 . S
C55 C56 1.335 . S
C56 C55 1.335 . S
C56 C57 1.398 . S
C56 H78 0.930 . S
C57 C52 1.382 1_655 S
C57 C56 1.398 . S
C57 H79 0.929 . S
C58 O68 1.271 . S
C58 O69 1.251 . S
C59 O70 1.252 . S
C59 O71 1.272 . S
O60 Sm40 2.543 . S
O60 C42 1.261 . S
O61 Sm40 2.450 . S
O61 C42 1.242 . S
O62 Sm40 2.681 . S
O62 Sm41 2.386 . S
O62 C49 1.271 . S
O63 Sm40 2.464 . S
O63 C49 1.251 . S
O64 Sm40 2.396 . S
O64 C50 1.252 . S
O65 Sm41 2.408 . S
O65 C50 1.272 . S
O66 Sm41 2.543 . S
O66 C51 1.261 . S
O67 Sm41 2.450 . S
O67 C51 1.242 . S
O68 Sm40 2.386 . S
O68 Sm41 2.681 . S
O68 C58 1.271 . S
O69 Sm41 2.464 . S
O69 C58 1.251 . S
O70 Sm41 2.396 . S
O70 C59 1.252 . S
O71 Sm40 2.408 . S
O71 C59 1.272 . S
H72 C44 0.930 . S
H73 C45 0.929 . S
H74 C47 0.930 . S
H75 C48 0.929 . S
H76 C53 0.930 . S
H77 C54 0.929 . S
H78 C56 0.930 . S
H79 C57 0.929 . S
Sm80 C82 2.846 . S
Sm80 O100 2.543 . S
Sm80 O101 2.450 . S
Sm80 O102 2.681 1_655 S
Sm80 O103 2.464 . S
Sm80 O104 2.396 . S
Sm80 O108 2.386 1_655 S
Sm80 O111 2.408 1_655 S
Sm81 C91 2.846 . S
Sm81 O102 2.386 . S
Sm81 O105 2.408 . S
Sm81 O106 2.543 . S
Sm81 O107 2.450 . S
Sm81 O108 2.681 . S
Sm81 O109 2.464 . S
Sm81 O110 2.396 . S
C82 Sm80 2.846 . S
C82 C83 1.506 . S
C82 O100 1.261 . S
C82 O101 1.242 . S
C83 C82 1.506 . S
C83 C84 1.358 . S
C83 C88 1.382 . S
C84 C83 1.358 . S
C84 C85 1.385 . S
C84 H112 0.930 . S
C85 C84 1.385 . S
C85 C86 1.395 . S
C85 H113 0.929 . S
C86 C85 1.395 . S
C86 C87 1.335 . S
C87 C86 1.335 . S
C87 C88 1.398 . S
C87 H114 0.930 . S
C88 C83 1.382 . S
C88 C87 1.398 . S
C88 H115 0.929 . S
C89 O102 1.271 . S
C89 O103 1.251 1_455 S
C90 O104 1.252 . S
C90 O105 1.272 1_655 S
C91 Sm81 2.846 . S
C91 C92 1.506 . S
C91 O106 1.261 . S
C91 O107 1.242 . S
C92 C91 1.506 . S
C92 C93 1.358 . S
C92 C97 1.382 . S
C93 C92 1.358 . S
C93 C94 1.385 . S
C93 H116 0.930 . S
C94 C93 1.385 . S
C94 C95 1.395 . S
C94 H117 0.929 . S
C95 C94 1.395 . S
C95 C96 1.335 . S
C96 C95 1.335 . S
C96 C97 1.398 . S
C96 H118 0.930 . S
C97 C92 1.382 . S
C97 C96 1.398 . S
C97 H119 0.929 . S
C98 O108 1.271 . S
C98 O109 1.251 . S
C99 O110 1.252 . S
C99 O111 1.272 . S
O100 Sm80 2.543 . S
O100 C82 1.261 . S
O101 Sm80 2.450 . S
O101 C82 1.242 . S
O102 Sm80 2.681 1_455 S
O102 Sm81 2.386 . S
O102 C89 1.271 . S
O103 Sm80 2.464 . S
O103 C89 1.251 1_655 S
O104 Sm80 2.396 . S
O104 C90 1.252 . S
O105 Sm81 2.408 . S
O105 C90 1.272 1_455 S
O106 Sm81 2.543 . S
O106 C91 1.261 . S
O107 Sm81 2.450 . S
O107 C91 1.242 . S
O108 Sm80 2.386 1_455 S
O108 Sm81 2.681 . S
O108 C98 1.271 . S
O109 Sm81 2.464 . S
O109 C98 1.251 . S
O110 Sm81 2.396 . S
O110 C99 1.252 . S
O111 Sm80 2.408 1_455 S
O111 C99 1.272 . S
H112 C84 0.930 . S
H113 C85 0.929 . S
H114 C87 0.930 . S
H115 C88 0.929 . S
H116 C93 0.930 . S
H117 C94 0.929 . S
H118 C96 0.930 . S
H119 C97 0.929 . S
Sm120 C122 2.846 . S
Sm120 O140 2.543 . S
Sm120 O141 2.450 . S
Sm120 O142 2.681 . S
Sm120 O143 2.464 . S
Sm120 O144 2.396 . S
Sm120 O148 2.386 . S
Sm120 O151 2.408 . S
Sm121 C131 2.846 . S
Sm121 O142 2.386 . S
Sm121 O145 2.408 . S
Sm121 O146 2.543 . S
Sm121 O147 2.450 . S
Sm121 O148 2.681 . S
Sm121 O149 2.464 . S
Sm121 O150 2.396 . S
C122 Sm120 2.846 . S
C122 C123 1.506 . S
C122 O140 1.261 . S
C122 O141 1.242 . S
C123 C122 1.506 . S
C123 C124 1.358 . S
C123 C128 1.382 . S
C124 C123 1.358 . S
C124 C125 1.385 . S
C124 H152 0.930 . S
C125 C124 1.385 . S
C125 C126 1.395 . S
C125 H153 0.929 . S
C126 C125 1.395 . S
C126 C127 1.335 . S
C127 C126 1.335 . S
C127 C128 1.398 . S
C127 H154 0.930 . S
C128 C123 1.382 . S
C128 C127 1.398 . S
C128 H155 0.929 . S
C129 O142 1.271 . S
C129 O143 1.251 . S
C130 O144 1.252 . S
C130 O145 1.272 . S
C131 Sm121 2.846 . S
C131 C132 1.506 . S
C131 O146 1.261 . S
C131 O147 1.242 . S
C132 C131 1.506 . S
C132 C133 1.358 1_455 S
C132 C137 1.382 1_455 S
C133 C132 1.358 1_655 S
C133 C134 1.385 . S
C133 H156 0.930 . S
C134 C133 1.385 . S
C134 C135 1.395 . S
C134 H157 0.929 . S
C135 C134 1.395 . S
C135 C136 1.335 . S
C136 C135 1.335 . S
C136 C137 1.398 . S
C136 H158 0.930 . S
C137 C132 1.382 1_655 S
C137 C136 1.398 . S
C137 H159 0.929 . S
C138 O148 1.271 . S
C138 O149 1.251 . S
C139 O150 1.252 . S
C139 O151 1.272 . S
O140 Sm120 2.543 . S
O140 C122 1.261 . S
O141 Sm120 2.450 . S
O141 C122 1.242 . S
O142 Sm120 2.681 . S
O142 Sm121 2.386 . S
O142 C129 1.271 . S
O143 Sm120 2.464 . S
O143 C129 1.251 . S
O144 Sm120 2.396 . S
O144 C130 1.252 . S
O145 Sm121 2.408 . S
O145 C130 1.272 . S
O146 Sm121 2.543 . S
O146 C131 1.261 . S
O147 Sm121 2.450 . S
O147 C131 1.242 . S
O148 Sm120 2.386 . S
O148 Sm121 2.681 . S
O148 C138 1.271 . S
O149 Sm121 2.464 . S
O149 C138 1.251 . S
O150 Sm121 2.396 . S
O150 C139 1.252 . S
O151 Sm120 2.408 . S
O151 C139 1.272 . S
H152 C124 0.930 . S
H153 C125 0.929 . S
H154 C127 0.930 . S
H155 C128 0.929 . S
H156 C133 0.930 . S
H157 C134 0.929 . S
H158 C136 0.930 . S
H159 C137 0.929 . S
Sm160 C162 2.846 . S
Sm160 O180 2.543 . S
Sm160 O181 2.450 . S
Sm160 O182 2.681 . S
Sm160 O183 2.464 . S
Sm160 O184 2.396 . S
Sm160 O188 2.386 . S
Sm160 O191 2.408 . S
Sm161 C171 2.846 . S
Sm161 O182 2.386 1_455 S
Sm161 O185 2.408 1_455 S
Sm161 O186 2.543 . S
Sm161 O187 2.450 . S
Sm161 O188 2.681 1_455 S
Sm161 O189 2.464 . S
Sm161 O190 2.396 . S
C162 Sm160 2.846 . S
C162 C163 1.506 . S
C162 O180 1.261 . S
C162 O181 1.242 . S
C163 C162 1.506 . S
C163 C164 1.358 . S
C163 C168 1.382 . S
C164 C163 1.358 . S
C164 C165 1.385 . S
C164 H192 0.930 . S
C165 C164 1.385 . S
C165 C166 1.395 . S
C165 H193 0.929 . S
C166 C165 1.395 . S
C166 C167 1.335 . S
C167 C166 1.335 . S
C167 C168 1.398 . S
C167 H194 0.930 . S
C168 C163 1.382 . S
C168 C167 1.398 . S
C168 H195 0.929 . S
C169 O182 1.271 . S
C169 O183 1.251 . S
C170 O184 1.252 . S
C170 O185 1.272 . S
C171 Sm161 2.846 . S
C171 C172 1.506 . S
C171 O186 1.261 . S
C171 O187 1.242 . S
C172 C171 1.506 . S
C172 C173 1.358 . S
C172 C177 1.382 . S
C173 C172 1.358 . S
C173 C174 1.385 . S
C173 H196 0.930 . S
C174 C173 1.385 . S
C174 C175 1.395 . S
C174 H197 0.929 . S
C175 C174 1.395 . S
C175 C176 1.335 . S
C176 C175 1.335 . S
C176 C177 1.398 . S
C176 H198 0.930 . S
C177 C172 1.382 . S
C177 C176 1.398 . S
C177 H199 0.929 . S
C178 O188 1.271 . S
C178 O189 1.251 1_655 S
C179 O190 1.252 . S
C179 O191 1.272 1_455 S
O180 Sm160 2.543 . S
O180 C162 1.261 . S
O181 Sm160 2.450 . S
O181 C162 1.242 . S
O182 Sm160 2.681 . S
O182 Sm161 2.386 1_655 S
O182 C169 1.271 . S
O183 Sm160 2.464 . S
O183 C169 1.251 . S
O184 Sm160 2.396 . S
O184 C170 1.252 . S
O185 Sm161 2.408 1_655 S
O185 C170 1.272 . S
O186 Sm161 2.543 . S
O186 C171 1.261 . S
O187 Sm161 2.450 . S
O187 C171 1.242 . S
O188 Sm160 2.386 . S
O188 Sm161 2.681 1_655 S
O188 C178 1.271 . S
O189 Sm161 2.464 . S
O189 C178 1.251 1_455 S
O190 Sm161 2.396 . S
O190 C179 1.252 . S
O191 Sm160 2.408 . S
O191 C179 1.272 1_655 S
H192 C164 0.930 . S
H193 C165 0.929 . S
H194 C167 0.930 . S
H195 C168 0.929 . S
H196 C173 0.930 . S
H197 C174 0.929 . S
H198 C176 0.930 . S
H199 C177 0.929 . S
Sm200 C202 2.846 . S
Sm200 O220 2.543 . S
Sm200 O221 2.450 . S
Sm200 O222 2.681 . S
Sm200 O223 2.464 . S
Sm200 O224 2.396 . S
Sm200 O228 2.386 . S
Sm200 O231 2.408 . S
Sm201 C211 2.846 . S
Sm201 O222 2.386 . S
Sm201 O225 2.408 . S
Sm201 O226 2.543 . S
Sm201 O227 2.450 . S
Sm201 O228 2.681 . S
Sm201 O229 2.464 . S
Sm201 O230 2.396 . S
C202 Sm200 2.846 . S
C202 C203 1.506 . S
C202 O220 1.261 . S
C202 O221 1.242 . S
C203 C202 1.506 . S
C203 C204 1.358 1_655 S
C203 C208 1.382 1_655 S
C204 C203 1.358 1_455 S
C204 C205 1.385 . S
C204 H232 0.930 . S
C205 C204 1.385 . S
C205 C206 1.395 . S
C205 H233 0.929 . S
C206 C205 1.395 . S
C206 C207 1.335 . S
C207 C206 1.335 . S
C207 C208 1.398 . S
C207 H234 0.930 . S
C208 C203 1.382 1_455 S
C208 C207 1.398 . S
C208 H235 0.929 . S
C209 O222 1.271 . S
C209 O223 1.251 . S
C210 O224 1.252 . S
C210 O225 1.272 . S
C211 Sm201 2.846 . S
C211 C212 1.506 . S
C211 O226 1.261 . S
C211 O227 1.242 . S
C212 C211 1.506 . S
C212 C213 1.358 . S
C212 C217 1.382 . S
C213 C212 1.358 . S
C213 C214 1.385 . S
C213 H236 0.930 . S
C214 C213 1.385 . S
C214 C215 1.395 . S
C214 H237 0.929 . S
C215 C214 1.395 . S
C215 C216 1.335 . S
C216 C215 1.335 . S
C216 C217 1.398 . S
C216 H238 0.930 . S
C217 C212 1.382 . S
C217 C216 1.398 . S
C217 H239 0.929 . S
C218 O228 1.271 . S
C218 O229 1.251 . S
C219 O230 1.252 . S
C219 O231 1.272 . S
O220 Sm200 2.543 . S
O220 C202 1.261 . S
O221 Sm200 2.450 . S
O221 C202 1.242 . S
O222 Sm200 2.681 . S
O222 Sm201 2.386 . S
O222 C209 1.271 . S
O223 Sm200 2.464 . S
O223 C209 1.251 . S
O224 Sm200 2.396 . S
O224 C210 1.252 . S
O225 Sm201 2.408 . S
O225 C210 1.272 . S
O226 Sm201 2.543 . S
O226 C211 1.261 . S
O227 Sm201 2.450 . S
O227 C211 1.242 . S
O228 Sm200 2.386 . S
O228 Sm201 2.681 . S
O228 C218 1.271 . S
O229 Sm201 2.464 . S
O229 C218 1.251 . S
O230 Sm201 2.396 . S
O230 C219 1.252 . S
O231 Sm200 2.408 . S
O231 C219 1.272 . S
H232 C204 0.930 . S
H233 C205 0.929 . S
H234 C207 0.930 . S
H235 C208 0.929 . S
H236 C213 0.930 . S
H237 C214 0.929 . S
H238 C216 0.930 . S
H239 C217 0.929 . S
Sm240 C242 2.846 . S
Sm240 O260 2.543 . S
Sm240 O261 2.450 . S
Sm240 O262 2.681 . S
Sm240 O263 2.464 . S
Sm240 O264 2.396 . S
Sm240 O268 2.386 . S
Sm240 O271 2.408 . S
Sm241 C251 2.846 . S
Sm241 O262 2.386 1_455 S
Sm241 O265 2.408 1_455 S
Sm241 O266 2.543 . S
Sm241 O267 2.450 . S
Sm241 O268 2.681 1_455 S
Sm241 O269 2.464 . S
Sm241 O270 2.396 . S
C242 Sm240 2.846 . S
C242 C243 1.506 . S
C242 O260 1.261 . S
C242 O261 1.242 . S
C243 C242 1.506 . S
C243 C244 1.358 . S
C243 C248 1.382 . S
C244 C243 1.358 . S
C244 C245 1.385 . S
C244 H272 0.930 . S
C245 C244 1.385 . S
C245 C246 1.395 . S
C245 H273 0.929 . S
C246 C245 1.395 . S
C246 C247 1.335 . S
C247 C246 1.335 . S
C247 C248 1.398 . S
C247 H274 0.930 . S
C248 C243 1.382 . S
C248 C247 1.398 . S
C248 H275 0.929 . S
C249 O262 1.271 . S
C249 O263 1.251 . S
C250 O264 1.252 . S
C250 O265 1.272 . S
C251 Sm241 2.846 . S
C251 C252 1.506 . S
C251 O266 1.261 . S
C251 O267 1.242 . S
C252 C251 1.506 . S
C252 C253 1.358 . S
C252 C257 1.382 . S
C253 C252 1.358 . S
C253 C254 1.385 . S
C253 H276 0.930 . S
C254 C253 1.385 . S
C254 C255 1.395 . S
C254 H277 0.929 . S
C255 C254 1.395 . S
C255 C256 1.335 . S
C256 C255 1.335 . S
C256 C257 1.398 . S
C256 H278 0.930 . S
C257 C252 1.382 . S
C257 C256 1.398 . S
C257 H279 0.929 . S
C258 O268 1.271 . S
C258 O269 1.251 1_655 S
C259 O270 1.252 . S
C259 O271 1.272 1_455 S
O260 Sm240 2.543 . S
O260 C242 1.261 . S
O261 Sm240 2.450 . S
O261 C242 1.242 . S
O262 Sm240 2.681 . S
O262 Sm241 2.386 1_655 S
O262 C249 1.271 . S
O263 Sm240 2.464 . S
O263 C249 1.251 . S
O264 Sm240 2.396 . S
O264 C250 1.252 . S
O265 Sm241 2.408 1_655 S
O265 C250 1.272 . S
O266 Sm241 2.543 . S
O266 C251 1.261 . S
O267 Sm241 2.450 . S
O267 C251 1.242 . S
O268 Sm240 2.386 . S
O268 Sm241 2.681 1_655 S
O268 C258 1.271 . S
O269 Sm241 2.464 . S
O269 C258 1.251 1_455 S
O270 Sm241 2.396 . S
O270 C259 1.252 . S
O271 Sm240 2.408 . S
O271 C259 1.272 1_655 S
H272 C244 0.930 . S
H273 C245 0.929 . S
H274 C247 0.930 . S
H275 C248 0.929 . S
H276 C253 0.930 . S
H277 C254 0.929 . S
H278 C256 0.930 . S
H279 C257 0.929 . S
Sm280 C282 2.846 . S
Sm280 O300 2.543 . S
Sm280 O301 2.450 . S
Sm280 O302 2.681 . S
Sm280 O303 2.464 . S
Sm280 O304 2.396 . S
Sm280 O308 2.386 . S
Sm280 O311 2.408 . S
Sm281 C291 2.846 . S
Sm281 O302 2.386 . S
Sm281 O305 2.408 . S
Sm281 O306 2.543 . S
Sm281 O307 2.450 . S
Sm281 O308 2.681 . S
Sm281 O309 2.464 . S
Sm281 O310 2.396 . S
C282 Sm280 2.846 . S
C282 C283 1.506 . S
C282 O300 1.261 . S
C282 O301 1.242 . S
C283 C282 1.506 . S
C283 C284 1.358 1_655 S
C283 C288 1.382 1_655 S
C284 C283 1.358 1_455 S
C284 C285 1.385 . S
C284 H312 0.930 . S
C285 C284 1.385 . S
C285 C286 1.395 . S
C285 H313 0.929 . S
C286 C285 1.395 . S
C286 C287 1.335 . S
C287 C286 1.335 . S
C287 C288 1.398 . S
C287 H314 0.930 . S
C288 C283 1.382 1_455 S
C288 C287 1.398 . S
C288 H315 0.929 . S
C289 O302 1.271 . S
C289 O303 1.251 . S
C290 O304 1.252 . S
C290 O305 1.272 . S
C291 Sm281 2.846 . S
C291 C292 1.506 . S
C291 O306 1.261 . S
C291 O307 1.242 . S
C292 C291 1.506 . S
C292 C293 1.358 . S
C292 C297 1.382 . S
C293 C292 1.358 . S
C293 C294 1.385 . S
C293 H316 0.930 . S
C294 C293 1.385 . S
C294 C295 1.395 . S
C294 H317 0.929 . S
C295 C294 1.395 . S
C295 C296 1.335 . S
C296 C295 1.335 . S
C296 C297 1.398 . S
C296 H318 0.930 . S
C297 C292 1.382 . S
C297 C296 1.398 . S
C297 H319 0.929 . S
C298 O308 1.271 . S
C298 O309 1.251 . S
C299 O310 1.252 . S
C299 O311 1.272 . S
O300 Sm280 2.543 . S
O300 C282 1.261 . S
O301 Sm280 2.450 . S
O301 C282 1.242 . S
O302 Sm280 2.681 . S
O302 Sm281 2.386 . S
O302 C289 1.271 . S
O303 Sm280 2.464 . S
O303 C289 1.251 . S
O304 Sm280 2.396 . S
O304 C290 1.252 . S
O305 Sm281 2.408 . S
O305 C290 1.272 . S
O306 Sm281 2.543 . S
O306 C291 1.261 . S
O307 Sm281 2.450 . S
O307 C291 1.242 . S
O308 Sm280 2.386 . S
O308 Sm281 2.681 . S
O308 C298 1.271 . S
O309 Sm281 2.464 . S
O309 C298 1.251 . S
O310 Sm281 2.396 . S
O310 C299 1.252 . S
O311 Sm280 2.408 . S
O311 C299 1.272 . S
H312 C284 0.930 . S
H313 C285 0.929 . S
H314 C287 0.930 . S
H315 C288 0.929 . S
H316 C293 0.930 . S
H317 C294 0.929 . S
H318 C296 0.930 . S
H319 C297 0.929 . S
Sm320 C322 2.837 1_545 S
Sm320 O340 2.543 1_545 S
Sm320 O341 2.450 . S
Sm320 O342 2.681 1_645 S
Sm320 O343 2.464 . S
Sm320 O344 2.396 1_545 S
Sm320 O348 2.386 1_645 S
Sm320 O351 2.408 1_655 S
Sm321 C331 2.846 . S
Sm321 O342 2.386 . S
Sm321 O345 2.408 . S
Sm321 O346 2.543 . S
Sm321 O347 2.450 . S
Sm321 O348 2.681 . S
Sm321 O349 2.464 . S
Sm321 O350 2.396 1_565 S
C322 Sm320 2.837 1_565 S
C322 C323 1.516 . S
C322 O340 1.266 . S
C322 O341 1.228 1_565 S
C323 C322 1.516 . S
C323 C324 1.358 . S
C323 C328 1.382 . S
C324 C323 1.358 . S
C324 C325 1.385 . S
C324 H352 0.930 . S
C325 C324 1.385 . S
C325 C326 1.395 . S
C325 H353 0.929 . S
C326 C325 1.395 . S
C326 C327 1.335 . S
C327 C326 1.335 . S
C327 C328 1.398 . S
C327 H354 0.930 . S
C328 C323 1.382 . S
C328 C327 1.398 . S
C328 H355 0.929 1_565 S
C329 O342 1.271 . S
C329 O343 1.251 1_465 S
C330 O344 1.252 . S
C330 O345 1.272 1_655 S
C331 Sm321 2.846 . S
C331 C332 1.506 . S
C331 O346 1.261 . S
C331 O347 1.242 . S
C332 C331 1.506 . S
C332 C333 1.358 1_565 S
C332 C337 1.382 . S
C333 C332 1.358 1_545 S
C333 C334 1.385 . S
C333 H356 0.930 . S
C334 C333 1.385 . S
C334 C335 1.395 . S
C334 H357 0.929 . S
C335 C334 1.395 . S
C335 C336 1.335 1_545 S
C336 C335 1.335 1_565 S
C336 C337 1.398 . S
C336 H358 0.930 . S
C337 C332 1.382 . S
C337 C336 1.398 . S
C337 H359 0.929 . S
C338 O348 1.271 . S
C338 O349 1.251 . S
C339 O350 1.252 . S
C339 O351 1.272 . S
O340 Sm320 2.543 1_565 S
O340 C322 1.266 . S
O341 Sm320 2.450 . S
O341 C322 1.228 1_545 S
O342 Sm320 2.681 1_465 S
O342 Sm321 2.386 . S
O342 C329 1.271 . S
O343 Sm320 2.464 . S
O343 C329 1.251 1_645 S
O344 Sm320 2.396 1_565 S
O344 C330 1.252 . S
O345 Sm321 2.408 . S
O345 C330 1.272 1_455 S
O346 Sm321 2.543 . S
O346 C331 1.261 . S
O347 Sm321 2.450 . S
O347 C331 1.242 . S
O348 Sm320 2.386 1_465 S
O348 Sm321 2.681 . S
O348 C338 1.271 . S
O349 Sm321 2.464 . S
O349 C338 1.251 . S
O350 Sm321 2.396 1_545 S
O350 C339 1.252 . S
O351 Sm320 2.408 1_455 S
O351 C339 1.272 . S
H352 C324 0.930 . S
H353 C325 0.929 . S
H354 C327 0.930 . S
H355 C328 0.929 1_545 S
H356 C333 0.930 . S
H357 C334 0.929 . S
H358 C336 0.930 . S
H359 C337 0.929 . S
Sm360 C362 2.846 . S
Sm360 O380 2.543 . S
Sm360 O381 2.450 . S
Sm360 O382 2.681 . S
Sm360 O383 2.464 . S
Sm360 O384 2.396 . S
Sm360 O388 2.386 . S
Sm360 O391 2.408 . S
Sm361 C371 2.846 . S
Sm361 O382 2.386 . S
Sm361 O385 2.408 . S
Sm361 O386 2.543 . S
Sm361 O387 2.450 . S
Sm361 O388 2.681 . S
Sm361 O389 2.464 . S
Sm361 O390 2.396 . S
C362 Sm360 2.846 . S
C362 C363 1.506 . S
C362 O380 1.261 . S
C362 O381 1.242 . S
C363 C362 1.506 . S
C363 C364 1.358 . S
C363 C368 1.382 . S
C364 C363 1.358 . S
C364 C365 1.385 . S
C364 H392 0.930 . S
C365 C364 1.385 . S
C365 C366 1.395 . S
C365 H393 0.929 . S
C366 C365 1.395 . S
C366 C367 1.335 . S
C367 C366 1.335 . S
C367 C368 1.398 . S
C367 H394 0.930 . S
C368 C363 1.382 . S
C368 C367 1.398 . S
C368 H395 0.929 . S
C369 O382 1.271 . S
C369 O383 1.251 . S
C370 O384 1.252 . S
C370 O385 1.272 . S
C371 Sm361 2.846 . S
C371 C372 1.506 . S
C371 O386 1.261 . S
C371 O387 1.242 . S
C372 C371 1.506 . S
C372 C373 1.358 1_455 S
C372 C377 1.382 1_455 S
C373 C372 1.358 1_655 S
C373 C374 1.385 . S
C373 H396 0.930 . S
C374 C373 1.385 . S
C374 C375 1.395 . S
C374 H397 0.929 . S
C375 C374 1.395 . S
C375 C376 1.335 . S
C376 C375 1.335 . S
C376 C377 1.398 . S
C376 H398 0.930 . S
C377 C372 1.382 1_655 S
C377 C376 1.398 . S
C377 H399 0.929 . S
C378 O388 1.271 . S
C378 O389 1.251 . S
C379 O390 1.252 . S
C379 O391 1.272 . S
O380 Sm360 2.543 . S
O380 C362 1.261 . S
O381 Sm360 2.450 . S
O381 C362 1.242 . S
O382 Sm360 2.681 . S
O382 Sm361 2.386 . S
O382 C369 1.271 . S
O383 Sm360 2.464 . S
O383 C369 1.251 . S
O384 Sm360 2.396 . S
O384 C370 1.252 . S
O385 Sm361 2.408 . S
O385 C370 1.272 . S
O386 Sm361 2.543 . S
O386 C371 1.261 . S
O387 Sm361 2.450 . S
O387 C371 1.242 . S
O388 Sm360 2.386 . S
O388 Sm361 2.681 . S
O388 C378 1.271 . S
O389 Sm361 2.464 . S
O389 C378 1.251 . S
O390 Sm361 2.396 . S
O390 C379 1.252 . S
O391 Sm360 2.408 . S
O391 C379 1.272 . S
H392 C364 0.930 . S
H393 C365 0.929 . S
H394 C367 0.930 . S
H395 C368 0.929 . S
H396 C373 0.930 . S
H397 C374 0.929 . S
H398 C376 0.930 . S
H399 C377 0.929 . S
Sm400 C402 2.846 . S
Sm400 O420 2.543 . S
Sm400 O421 2.450 . S
Sm400 O422 2.681 1_655 S
Sm400 O423 2.464 . S
Sm400 O424 2.396 . S
Sm400 O428 2.386 1_655 S
Sm400 O431 2.408 1_655 S
Sm401 C411 2.846 . S
Sm401 O422 2.386 . S
Sm401 O425 2.408 . S
Sm401 O426 2.543 . S
Sm401 O427 2.450 . S
Sm401 O428 2.681 . S
Sm401 O429 2.464 . S
Sm401 O430 2.396 . S
C402 Sm400 2.846 . S
C402 C403 1.506 . S
C402 O420 1.261 . S
C402 O421 1.242 . S
C403 C402 1.506 . S
C403 C404 1.358 . S
C403 C408 1.382 . S
C404 C403 1.358 . S
C404 C405 1.385 . S
C404 H432 0.930 . S
C405 C404 1.385 . S
C405 C406 1.395 . S
C405 H433 0.929 . S
C406 C405 1.395 . S
C406 C407 1.335 . S
C407 C406 1.335 . S
C407 C408 1.398 . S
C407 H434 0.930 . S
C408 C403 1.382 . S
C408 C407 1.398 . S
C408 H435 0.929 . S
C409 O422 1.271 . S
C409 O423 1.251 1_455 S
C410 O424 1.252 . S
C410 O425 1.272 1_655 S
C411 Sm401 2.846 . S
C411 C412 1.506 . S
C411 O426 1.261 . S
C411 O427 1.242 . S
C412 C411 1.506 . S
C412 C413 1.358 . S
C412 C417 1.382 . S
C413 C412 1.358 . S
C413 C414 1.385 . S
C413 H436 0.930 . S
C414 C413 1.385 . S
C414 C415 1.395 . S
C414 H437 0.929 . S
C415 C414 1.395 . S
C415 C416 1.335 . S
C416 C415 1.335 . S
C416 C417 1.398 . S
C416 H438 0.930 . S
C417 C412 1.382 . S
C417 C416 1.398 . S
C417 H439 0.929 . S
C418 O428 1.271 . S
C418 O429 1.251 . S
C419 O430 1.252 . S
C419 O431 1.272 . S
O420 Sm400 2.543 . S
O420 C402 1.261 . S
O421 Sm400 2.450 . S
O421 C402 1.242 . S
O422 Sm400 2.681 1_455 S
O422 Sm401 2.386 . S
O422 C409 1.271 . S
O423 Sm400 2.464 . S
O423 C409 1.251 1_655 S
O424 Sm400 2.396 . S
O424 C410 1.252 . S
O425 Sm401 2.408 . S
O425 C410 1.272 1_455 S
O426 Sm401 2.543 . S
O426 C411 1.261 . S
O427 Sm401 2.450 . S
O427 C411 1.242 . S
O428 Sm400 2.386 1_455 S
O428 Sm401 2.681 . S
O428 C418 1.271 . S
O429 Sm401 2.464 . S
O429 C418 1.251 . S
O430 Sm401 2.396 . S
O430 C419 1.252 . S
O431 Sm400 2.408 1_455 S
O431 C419 1.272 . S
H432 C404 0.930 . S
H433 C405 0.929 . S
H434 C407 0.930 . S
H435 C408 0.929 . S
H436 C413 0.930 . S
H437 C414 0.929 . S
H438 C416 0.930 . S
H439 C417 0.929 . S
Sm440 C442 2.837 1_545 S
Sm440 O460 2.543 1_545 S
Sm440 O461 2.450 . S
Sm440 O462 2.681 1_545 S
Sm440 O463 2.464 . S
Sm440 O464 2.396 1_545 S
Sm440 O468 2.386 1_545 S
Sm440 O471 2.408 . S
Sm441 C451 2.846 . S
Sm441 O462 2.386 . S
Sm441 O465 2.408 . S
Sm441 O466 2.543 . S
Sm441 O467 2.450 . S
Sm441 O468 2.681 . S
Sm441 O469 2.464 . S
Sm441 O470 2.396 1_565 S
C442 Sm440 2.837 1_565 S
C442 C443 1.516 . S
C442 O460 1.266 . S
C442 O461 1.228 1_565 S
C443 C442 1.516 . S
C443 C444 1.358 . S
C443 C448 1.382 . S
C444 C443 1.358 . S
C444 C445 1.385 . S
C444 H472 0.930 . S
C445 C444 1.385 . S
C445 C446 1.395 . S
C445 H473 0.929 . S
C446 C445 1.395 . S
C446 C447 1.335 . S
C447 C446 1.335 . S
C447 C448 1.398 . S
C447 H474 0.930 . S
C448 C443 1.382 . S
C448 C447 1.398 . S
C448 H475 0.929 1_565 S
C449 O462 1.271 . S
C449 O463 1.251 1_565 S
C450 O464 1.252 . S
C450 O465 1.272 . S
C451 Sm441 2.846 . S
C451 C452 1.506 . S
C451 O466 1.261 . S
C451 O467 1.242 . S
C452 C451 1.506 . S
C452 C453 1.358 1_465 S
C452 C457 1.382 1_455 S
C453 C452 1.358 1_645 S
C453 C454 1.385 . S
C453 H476 0.930 . S
C454 C453 1.385 . S
C454 C455 1.395 . S
C454 H477 0.929 . S
C455 C454 1.395 . S
C455 C456 1.335 1_545 S
C456 C455 1.335 1_565 S
C456 C457 1.398 . S
C456 H478 0.930 . S
C457 C452 1.382 1_655 S
C457 C456 1.398 . S
C457 H479 0.929 . S
C458 O468 1.271 . S
C458 O469 1.251 . S
C459 O470 1.252 . S
C459 O471 1.272 . S
O460 Sm440 2.543 1_565 S
O460 C442 1.266 . S
O461 Sm440 2.450 . S
O461 C442 1.228 1_545 S
O462 Sm440 2.681 1_565 S
O462 Sm441 2.386 . S
O462 C449 1.271 . S
O463 Sm440 2.464 . S
O463 C449 1.251 1_545 S
O464 Sm440 2.396 1_565 S
O464 C450 1.252 . S
O465 Sm441 2.408 . S
O465 C450 1.272 . S
O466 Sm441 2.543 . S
O466 C451 1.261 . S
O467 Sm441 2.450 . S
O467 C451 1.242 . S
O468 Sm440 2.386 1_565 S
O468 Sm441 2.681 . S
O468 C458 1.271 . S
O469 Sm441 2.464 . S
O469 C458 1.251 . S
O470 Sm441 2.396 1_545 S
O470 C459 1.252 . S
O471 Sm440 2.408 . S
O471 C459 1.272 . S
H472 C444 0.930 . S
H473 C445 0.929 . S
H474 C447 0.930 . S
H475 C448 0.929 1_545 S
H476 C453 0.930 . S
H477 C454 0.929 . S
H478 C456 0.930 . S
H479 C457 0.929 . S
Sm480 C482 2.846 . S
Sm480 O500 2.543 . S
Sm480 O501 2.450 . S
Sm480 O502 2.681 . S
Sm480 O503 2.464 . S
Sm480 O504 2.396 1_545 S
Sm480 O508 2.386 . S
Sm480 O511 2.408 . S
Sm481 C491 2.837 1_565 S
Sm481 O502 2.386 1_465 S
Sm481 O505 2.408 1_455 S
Sm481 O506 2.543 1_565 S
Sm481 O507 2.450 . S
Sm481 O508 2.681 1_465 S
Sm481 O509 2.464 . S
Sm481 O510 2.396 1_565 S
C482 Sm480 2.846 . S
C482 C483 1.506 . S
C482 O500 1.261 . S
C482 O501 1.242 . S
C483 C482 1.506 . S
C483 C484 1.358 1_545 S
C483 C488 1.382 . S
C484 C483 1.358 1_565 S
C484 C485 1.385 . S
C484 H512 0.930 . S
C485 C484 1.385 . S
C485 C486 1.395 . S
C485 H513 0.929 . S
C486 C485 1.395 . S
C486 C487 1.335 1_565 S
C487 C486 1.335 1_545 S
C487 C488 1.398 . S
C487 H514 0.930 . S
C488 C483 1.382 . S
C488 C487 1.398 . S
C488 H515 0.929 . S
C489 O502 1.271 . S
C489 O503 1.251 . S
C490 O504 1.252 . S
C490 O505 1.272 . S
C491 Sm481 2.837 1_545 S
C491 C492 1.516 . S
C491 O506 1.266 . S
C491 O507 1.228 1_545 S
C492 C491 1.516 . S
C492 C493 1.358 . S
C492 C497 1.382 . S
C493 C492 1.358 . S
C493 C494 1.385 . S
C493 H516 0.930 . S
C494 C493 1.385 . S
C494 C495 1.395 . S
C494 H517 0.929 . S
C495 C494 1.395 . S
C495 C496 1.335 . S
C496 C495 1.335 . S
C496 C497 1.398 . S
C496 H518 0.930 . S
C497 C492 1.382 . S
C497 C496 1.398 . S
C497 H519 0.929 1_545 S
C498 O508 1.271 . S
C498 O509 1.251 1_645 S
C499 O510 1.252 . S
C499 O511 1.272 1_455 S
O500 Sm480 2.543 . S
O500 C482 1.261 . S
O501 Sm480 2.450 . S
O501 C482 1.242 . S
O502 Sm480 2.681 . S
O502 Sm481 2.386 1_645 S
O502 C489 1.271 . S
O503 Sm480 2.464 . S
O503 C489 1.251 . S
O504 Sm480 2.396 1_565 S
O504 C490 1.252 . S
O505 Sm481 2.408 1_655 S
O505 C490 1.272 . S
O506 Sm481 2.543 1_545 S
O506 C491 1.266 . S
O507 Sm481 2.450 . S
O507 C491 1.228 1_565 S
O508 Sm480 2.386 . S
O508 Sm481 2.681 1_645 S
O508 C498 1.271 . S
O509 Sm481 2.464 . S
O509 C498 1.251 1_465 S
O510 Sm481 2.396 1_545 S
O510 C499 1.252 . S
O511 Sm480 2.408 . S
O511 C499 1.272 1_655 S
H512 C484 0.930 . S
H513 C485 0.929 . S
H514 C487 0.930 . S
H515 C488 0.929 . S
H516 C493 0.930 . S
H517 C494 0.929 . S
H518 C496 0.930 . S
H519 C497 0.929 1_565 S
Sm520 C522 2.846 . S
Sm520 O540 2.543 . S
Sm520 O541 2.450 . S
Sm520 O542 2.681 . S
Sm520 O543 2.464 . S
Sm520 O544 2.396 . S
Sm520 O548 2.386 . S
Sm520 O551 2.408 . S
Sm521 C531 2.846 . S
Sm521 O542 2.386 . S
Sm521 O545 2.408 . S
Sm521 O546 2.543 . S
Sm521 O547 2.450 . S
Sm521 O548 2.681 . S
Sm521 O549 2.464 . S
Sm521 O550 2.396 . S
C522 Sm520 2.846 . S
C522 C523 1.506 . S
C522 O540 1.261 . S
C522 O541 1.242 . S
C523 C522 1.506 . S
C523 C524 1.358 1_655 S
C523 C528 1.382 1_655 S
C524 C523 1.358 1_455 S
C524 C525 1.385 . S
C524 H552 0.930 . S
C525 C524 1.385 . S
C525 C526 1.395 . S
C525 H553 0.929 . S
C526 C525 1.395 . S
C526 C527 1.335 . S
C527 C526 1.335 . S
C527 C528 1.398 . S
C527 H554 0.930 . S
C528 C523 1.382 1_455 S
C528 C527 1.398 . S
C528 H555 0.929 . S
C529 O542 1.271 . S
C529 O543 1.251 . S
C530 O544 1.252 . S
C530 O545 1.272 . S
C531 Sm521 2.846 . S
C531 C532 1.506 . S
C531 O546 1.261 . S
C531 O547 1.242 . S
C532 C531 1.506 . S
C532 C533 1.358 . S
C532 C537 1.382 . S
C533 C532 1.358 . S
C533 C534 1.385 . S
C533 H556 0.930 . S
C534 C533 1.385 . S
C534 C535 1.395 . S
C534 H557 0.929 . S
C535 C534 1.395 . S
C535 C536 1.335 . S
C536 C535 1.335 . S
C536 C537 1.398 . S
C536 H558 0.930 . S
C537 C532 1.382 . S
C537 C536 1.398 . S
C537 H559 0.929 . S
C538 O548 1.271 . S
C538 O549 1.251 . S
C539 O550 1.252 . S
C539 O551 1.272 . S
O540 Sm520 2.543 . S
O540 C522 1.261 . S
O541 Sm520 2.450 . S
O541 C522 1.242 . S
O542 Sm520 2.681 . S
O542 Sm521 2.386 . S
O542 C529 1.271 . S
O543 Sm520 2.464 . S
O543 C529 1.251 . S
O544 Sm520 2.396 . S
O544 C530 1.252 . S
O545 Sm521 2.408 . S
O545 C530 1.272 . S
O546 Sm521 2.543 . S
O546 C531 1.261 . S
O547 Sm521 2.450 . S
O547 C531 1.242 . S
O548 Sm520 2.386 . S
O548 Sm521 2.681 . S
O548 C538 1.271 . S
O549 Sm521 2.464 . S
O549 C538 1.251 . S
O550 Sm521 2.396 . S
O550 C539 1.252 . S
O551 Sm520 2.408 . S
O551 C539 1.272 . S
H552 C524 0.930 . S
H553 C525 0.929 . S
H554 C527 0.930 . S
H555 C528 0.929 . S
H556 C533 0.930 . S
H557 C534 0.929 . S
H558 C536 0.930 . S
H559 C537 0.929 . S
Sm560 C562 2.846 . S
Sm560 O580 2.543 . S
Sm560 O581 2.450 . S
Sm560 O582 2.681 . S
Sm560 O583 2.464 . S
Sm560 O584 2.396 . S
Sm560 O588 2.386 . S
Sm560 O591 2.408 . S
Sm561 C571 2.846 . S
Sm561 O582 2.386 1_455 S
Sm561 O585 2.408 1_455 S
Sm561 O586 2.543 . S
Sm561 O587 2.450 . S
Sm561 O588 2.681 1_455 S
Sm561 O589 2.464 . S
Sm561 O590 2.396 . S
C562 Sm560 2.846 . S
C562 C563 1.506 . S
C562 O580 1.261 . S
C562 O581 1.242 . S
C563 C562 1.506 . S
C563 C564 1.358 . S
C563 C568 1.382 . S
C564 C563 1.358 . S
C564 C565 1.385 . S
C564 H592 0.930 . S
C565 C564 1.385 . S
C565 C566 1.395 . S
C565 H593 0.929 . S
C566 C565 1.395 . S
C566 C567 1.335 . S
C567 C566 1.335 . S
C567 C568 1.398 . S
C567 H594 0.930 . S
C568 C563 1.382 . S
C568 C567 1.398 . S
C568 H595 0.929 . S
C569 O582 1.271 . S
C569 O583 1.251 . S
C570 O584 1.252 . S
C570 O585 1.272 . S
C571 Sm561 2.846 . S
C571 C572 1.506 . S
C571 O586 1.261 . S
C571 O587 1.242 . S
C572 C571 1.506 . S
C572 C573 1.358 . S
C572 C577 1.382 . S
C573 C572 1.358 . S
C573 C574 1.385 . S
C573 H596 0.930 . S
C574 C573 1.385 . S
C574 C575 1.395 . S
C574 H597 0.929 . S
C575 C574 1.395 . S
C575 C576 1.335 . S
C576 C575 1.335 . S
C576 C577 1.398 . S
C576 H598 0.930 . S
C577 C572 1.382 . S
C577 C576 1.398 . S
C577 H599 0.929 . S
C578 O588 1.271 . S
C578 O589 1.251 1_655 S
C579 O590 1.252 . S
C579 O591 1.272 1_455 S
O580 Sm560 2.543 . S
O580 C562 1.261 . S
O581 Sm560 2.450 . S
O581 C562 1.242 . S
O582 Sm560 2.681 . S
O582 Sm561 2.386 1_655 S
O582 C569 1.271 . S
O583 Sm560 2.464 . S
O583 C569 1.251 . S
O584 Sm560 2.396 . S
O584 C570 1.252 . S
O585 Sm561 2.408 1_655 S
O585 C570 1.272 . S
O586 Sm561 2.543 . S
O586 C571 1.261 . S
O587 Sm561 2.450 . S
O587 C571 1.242 . S
O588 Sm560 2.386 . S
O588 Sm561 2.681 1_655 S
O588 C578 1.271 . S
O589 Sm561 2.464 . S
O589 C578 1.251 1_455 S
O590 Sm561 2.396 . S
O590 C579 1.252 . S
O591 Sm560 2.408 . S
O591 C579 1.272 1_655 S
H592 C564 0.930 . S
H593 C565 0.929 . S
H594 C567 0.930 . S
H595 C568 0.929 . S
H596 C573 0.930 . S
H597 C574 0.929 . S
H598 C576 0.930 . S
H599 C577 0.929 . S
Sm600 C602 2.846 . S
Sm600 O620 2.543 . S
Sm600 O621 2.450 . S
Sm600 O622 2.681 . S
Sm600 O623 2.464 . S
Sm600 O624 2.396 1_545 S
Sm600 O628 2.386 . S
Sm600 O631 2.408 . S
Sm601 C611 2.837 1_565 S
Sm601 O622 2.386 1_565 S
Sm601 O625 2.408 . S
Sm601 O626 2.543 1_565 S
Sm601 O627 2.450 . S
Sm601 O628 2.681 1_565 S
Sm601 O629 2.464 . S
Sm601 O630 2.396 1_565 S
C602 Sm600 2.846 . S
C602 C603 1.506 . S
C602 O620 1.261 . S
C602 O621 1.242 . S
C603 C602 1.506 . S
C603 C604 1.358 1_645 S
C603 C608 1.382 1_655 S
C604 C603 1.358 1_465 S
C604 C605 1.385 . S
C604 H632 0.930 . S
C605 C604 1.385 . S
C605 C606 1.395 . S
C605 H633 0.929 . S
C606 C605 1.395 . S
C606 C607 1.335 1_565 S
C607 C606 1.335 1_545 S
C607 C608 1.398 . S
C607 H634 0.930 . S
C608 C603 1.382 1_455 S
C608 C607 1.398 . S
C608 H635 0.929 . S
C609 O622 1.271 . S
C609 O623 1.251 . S
C610 O624 1.252 . S
C610 O625 1.272 . S
C611 Sm601 2.837 1_545 S
C611 C612 1.516 . S
C611 O626 1.266 . S
C611 O627 1.228 1_545 S
C612 C611 1.516 . S
C612 C613 1.358 . S
C612 C617 1.382 . S
C613 C612 1.358 . S
C613 C614 1.385 . S
C613 H636 0.930 . S
C614 C613 1.385 . S
C614 C615 1.395 . S
C614 H637 0.929 . S
C615 C614 1.395 . S
C615 C616 1.335 . S
C616 C615 1.335 . S
C616 C617 1.398 . S
C616 H638 0.930 . S
C617 C612 1.382 . S
C617 C616 1.398 . S
C617 H639 0.929 1_545 S
C618 O628 1.271 . S
C618 O629 1.251 1_545 S
C619 O630 1.252 . S
C619 O631 1.272 . S
O620 Sm600 2.543 . S
O620 C602 1.261 . S
O621 Sm600 2.450 . S
O621 C602 1.242 . S
O622 Sm600 2.681 . S
O622 Sm601 2.386 1_545 S
O622 C609 1.271 . S
O623 Sm600 2.464 . S
O623 C609 1.251 . S
O624 Sm600 2.396 1_565 S
O624 C610 1.252 . S
O625 Sm601 2.408 . S
O625 C610 1.272 . S
O626 Sm601 2.543 1_545 S
O626 C611 1.266 . S
O627 Sm601 2.450 . S
O627 C611 1.228 1_565 S
O628 Sm600 2.386 . S
O628 Sm601 2.681 1_545 S
O628 C618 1.271 . S
O629 Sm601 2.464 . S
O629 C618 1.251 1_565 S
O630 Sm601 2.396 1_545 S
O630 C619 1.252 . S
O631 Sm600 2.408 . S
O631 C619 1.272 . S
H632 C604 0.930 . S
H633 C605 0.929 . S
H634 C607 0.930 . S
H635 C608 0.929 . S
H636 C613 0.930 . S
H637 C614 0.929 . S
H638 C616 0.930 . S
H639 C617 0.929 1_565 S
Sm640 C642 2.846 . S
Sm640 O660 2.543 . S
Sm640 O661 2.450 . S
Sm640 O662 2.681 . S
Sm640 O663 2.464 . S
Sm640 O664 2.396 . S
Sm640 O668 2.386 . S
Sm640 O671 2.408 . S
Sm641 C651 2.846 . S
Sm641 O662 2.386 . S
Sm641 O665 2.408 . S
Sm641 O666 2.543 . S
Sm641 O667 2.450 . S
Sm641 O668 2.681 . S
Sm641 O669 2.464 . S
Sm641 O670 2.396 . S
C642 Sm640 2.846 . S
C642 C643 1.506 . S
C642 O660 1.261 . S
C642 O661 1.242 . S
C643 C642 1.506 . S
C643 C644 1.358 . S
C643 C648 1.382 . S
C644 C643 1.358 . S
C644 C645 1.385 . S
C644 H672 0.930 . S
C645 C644 1.385 . S
C645 C646 1.395 . S
C645 H673 0.929 . S
C646 C645 1.395 . S
C646 C647 1.335 . S
C647 C646 1.335 . S
C647 C648 1.398 . S
C647 H674 0.930 . S
C648 C643 1.382 . S
C648 C647 1.398 . S
C648 H675 0.929 . S
C649 O662 1.271 . S
C649 O663 1.251 . S
C650 O664 1.252 . S
C650 O665 1.272 . S
C651 Sm641 2.846 . S
C651 C652 1.506 . S
C651 O666 1.261 . S
C651 O667 1.242 . S
C652 C651 1.506 . S
C652 C653 1.358 . S
C652 C657 1.382 . S
C653 C652 1.358 . S
C653 C654 1.385 . S
C653 H676 0.930 . S
C654 C653 1.385 . S
C654 C655 1.395 . S
C654 H677 0.929 . S
C655 C654 1.395 . S
C655 C656 1.335 . S
C656 C655 1.335 . S
C656 C657 1.398 . S
C656 H678 0.930 . S
C657 C652 1.382 . S
C657 C656 1.398 . S
C657 H679 0.929 . S
C658 O668 1.271 . S
C658 O669 1.251 . S
C659 O670 1.252 . S
C659 O671 1.272 . S
O660 Sm640 2.543 . S
O660 C642 1.261 . S
O661 Sm640 2.450 . S
O661 C642 1.242 . S
O662 Sm640 2.681 . S
O662 Sm641 2.386 . S
O662 C649 1.271 . S
O663 Sm640 2.464 . S
O663 C649 1.251 . S
O664 Sm640 2.396 . S
O664 C650 1.252 . S
O665 Sm641 2.408 . S
O665 C650 1.272 . S
O666 Sm641 2.543 . S
O666 C651 1.261 . S
O667 Sm641 2.450 . S
O667 C651 1.242 . S
O668 Sm640 2.386 . S
O668 Sm641 2.681 . S
O668 C658 1.271 . S
O669 Sm641 2.464 . S
O669 C658 1.251 . S
O670 Sm641 2.396 . S
O670 C659 1.252 . S
O671 Sm640 2.408 . S
O671 C659 1.272 . S
H672 C644 0.930 . S
H673 C645 0.929 . S
H674 C647 0.930 . S
H675 C648 0.929 . S
H676 C653 0.930 . S
H677 C654 0.929 . S
H678 C656 0.930 . S
H679 C657 0.929 . S
Sm680 C682 2.846 . S
Sm680 O700 2.543 . S
Sm680 O701 2.450 . S
Sm680 O702 2.681 . S
Sm680 O703 2.464 . S
Sm680 O704 2.396 . S
Sm680 O708 2.386 . S
Sm680 O711 2.408 . S
Sm681 C691 2.846 . S
Sm681 O702 2.386 . S
Sm681 O705 2.408 . S
Sm681 O706 2.543 . S
Sm681 O707 2.450 . S
Sm681 O708 2.681 . S
Sm681 O709 2.464 . S
Sm681 O710 2.396 . S
C682 Sm680 2.846 . S
C682 C683 1.506 . S
C682 O700 1.261 . S
C682 O701 1.242 . S
C683 C682 1.506 . S
C683 C684 1.358 . S
C683 C688 1.382 . S
C684 C683 1.358 . S
C684 C685 1.385 1_655 S
C684 H712 0.930 . S
C685 C684 1.385 1_455 S
C685 C686 1.395 . S
C685 H713 0.929 . S
C686 C685 1.395 . S
C686 C687 1.335 . S
C687 C686 1.335 . S
C687 C688 1.398 1_455 S
C687 H714 0.930 . S
C688 C683 1.382 . S
C688 C687 1.398 1_655 S
C688 H715 0.929 . S
C689 O702 1.271 . S
C689 O703 1.251 . S
C690 O704 1.252 . S
C690 O705 1.272 . S
C691 Sm681 2.846 . S
C691 C692 1.506 . S
C691 O706 1.261 . S
C691 O707 1.242 . S
C692 C691 1.506 . S
C692 C693 1.358 . S
C692 C697 1.382 . S
C693 C692 1.358 . S
C693 C694 1.385 . S
C693 H716 0.930 . S
C694 C693 1.385 . S
C694 C695 1.395 . S
C694 H717 0.929 . S
C695 C694 1.395 . S
C695 C696 1.335 . S
C696 C695 1.335 . S
C696 C697 1.398 . S
C696 H718 0.930 . S
C697 C692 1.382 . S
C697 C696 1.398 . S
C697 H719 0.929 . S
C698 O708 1.271 . S
C698 O709 1.251 . S
C699 O710 1.252 . S
C699 O711 1.272 . S
O700 Sm680 2.543 . S
O700 C682 1.261 . S
O701 Sm680 2.450 . S
O701 C682 1.242 . S
O702 Sm680 2.681 . S
O702 Sm681 2.386 . S
O702 C689 1.271 . S
O703 Sm680 2.464 . S
O703 C689 1.251 . S
O704 Sm680 2.396 . S
O704 C690 1.252 . S
O705 Sm681 2.408 . S
O705 C690 1.272 . S
O706 Sm681 2.543 . S
O706 C691 1.261 . S
O707 Sm681 2.450 . S
O707 C691 1.242 . S
O708 Sm680 2.386 . S
O708 Sm681 2.681 . S
O708 C698 1.271 . S
O709 Sm681 2.464 . S
O709 C698 1.251 . S
O710 Sm681 2.396 . S
O710 C699 1.252 . S
O711 Sm680 2.408 . S
O711 C699 1.272 . S
H712 C684 0.930 . S
H713 C685 0.929 . S
H714 C687 0.930 . S
H715 C688 0.929 . S
H716 C693 0.930 . S
H717 C694 0.929 . S
H718 C696 0.930 . S
H719 C697 0.929 . S
Sm720 C722 2.846 . S
Sm720 O740 2.543 . S
Sm720 O741 2.450 . S
Sm720 O742 2.681 . S
Sm720 O743 2.464 . S
Sm720 O744 2.396 . S
Sm720 O748 2.386 . S
Sm720 O751 2.408 . S
Sm721 C731 2.846 . S
Sm721 O742 2.386 . S
Sm721 O745 2.408 . S
Sm721 O746 2.543 . S
Sm721 O747 2.450 . S
Sm721 O748 2.681 . S
Sm721 O749 2.464 . S
Sm721 O750 2.396 . S
C722 Sm720 2.846 . S
C722 C723 1.506 . S
C722 O740 1.261 . S
C722 O741 1.242 . S
C723 C722 1.506 . S
C723 C724 1.358 . S
C723 C728 1.382 . S
C724 C723 1.358 . S
C724 C725 1.385 . S
C724 H752 0.930 . S
C725 C724 1.385 . S
C725 C726 1.395 . S
C725 H753 0.929 . S
C726 C725 1.395 . S
C726 C727 1.335 . S
C727 C726 1.335 . S
C727 C728 1.398 . S
C727 H754 0.930 . S
C728 C723 1.382 . S
C728 C727 1.398 . S
C728 H755 0.929 . S
C729 O742 1.271 . S
C729 O743 1.251 . S
C730 O744 1.252 . S
C730 O745 1.272 . S
C731 Sm721 2.846 . S
C731 C732 1.506 . S
C731 O746 1.261 . S
C731 O747 1.242 . S
C732 C731 1.506 . S
C732 C733 1.358 . S
C732 C737 1.382 . S
C733 C732 1.358 . S
C733 C734 1.385 . S
C733 H756 0.930 . S
C734 C733 1.385 . S
C734 C735 1.395 . S
C734 H757 0.929 . S
C735 C734 1.395 . S
C735 C736 1.335 . S
C736 C735 1.335 . S
C736 C737 1.398 . S
C736 H758 0.930 . S
C737 C732 1.382 . S
C737 C736 1.398 . S
C737 H759 0.929 . S
C738 O748 1.271 . S
C738 O749 1.251 . S
C739 O750 1.252 . S
C739 O751 1.272 . S
O740 Sm720 2.543 . S
O740 C722 1.261 . S
O741 Sm720 2.450 . S
O741 C722 1.242 . S
O742 Sm720 2.681 . S
O742 Sm721 2.386 . S
O742 C729 1.271 . S
O743 Sm720 2.464 . S
O743 C729 1.251 . S
O744 Sm720 2.396 . S
O744 C730 1.252 . S
O745 Sm721 2.408 . S
O745 C730 1.272 . S
O746 Sm721 2.543 . S
O746 C731 1.261 . S
O747 Sm721 2.450 . S
O747 C731 1.242 . S
O748 Sm720 2.386 . S
O748 Sm721 2.681 . S
O748 C738 1.271 . S
O749 Sm721 2.464 . S
O749 C738 1.251 . S
O750 Sm721 2.396 . S
O750 C739 1.252 . S
O751 Sm720 2.408 . S
O751 C739 1.272 . S
H752 C724 0.930 . S
H753 C725 0.929 . S
H754 C727 0.930 . S
H755 C728 0.929 . S
H756 C733 0.930 . S
H757 C734 0.929 . S
H758 C736 0.930 . S
H759 C737 0.929 . S
Sm760 C762 2.846 . S
Sm760 O780 2.543 . S
Sm760 O781 2.450 . S
Sm760 O782 2.681 . S
Sm760 O783 2.464 . S
Sm760 O784 2.396 . S
Sm760 O788 2.386 . S
Sm760 O791 2.408 . S
Sm761 C771 2.846 . S
Sm761 O782 2.386 . S
Sm761 O785 2.408 . S
Sm761 O786 2.543 . S
Sm761 O787 2.450 . S
Sm761 O788 2.681 . S
Sm761 O789 2.464 . S
Sm761 O790 2.396 . S
C762 Sm760 2.846 . S
C762 C763 1.506 . S
C762 O780 1.261 . S
C762 O781 1.242 . S
C763 C762 1.506 . S
C763 C764 1.358 . S
C763 C768 1.382 . S
C764 C763 1.358 . S
C764 C765 1.385 1_655 S
C764 H792 0.930 . S
C765 C764 1.385 1_455 S
C765 C766 1.395 . S
C765 H793 0.929 . S
C766 C765 1.395 . S
C766 C767 1.335 . S
C767 C766 1.335 . S
C767 C768 1.398 1_455 S
C767 H794 0.930 . S
C768 C763 1.382 . S
C768 C767 1.398 1_655 S
C768 H795 0.929 . S
C769 O782 1.271 . S
C769 O783 1.251 . S
C770 O784 1.252 . S
C770 O785 1.272 . S
C771 Sm761 2.846 . S
C771 C772 1.506 . S
C771 O786 1.261 . S
C771 O787 1.242 . S
C772 C771 1.506 . S
C772 C773 1.358 . S
C772 C777 1.382 . S
C773 C772 1.358 . S
C773 C774 1.385 . S
C773 H796 0.930 . S
C774 C773 1.385 . S
C774 C775 1.395 . S
C774 H797 0.929 . S
C775 C774 1.395 . S
C775 C776 1.335 . S
C776 C775 1.335 . S
C776 C777 1.398 . S
C776 H798 0.930 . S
C777 C772 1.382 . S
C777 C776 1.398 . S
C777 H799 0.929 . S
C778 O788 1.271 . S
C778 O789 1.251 . S
C779 O790 1.252 . S
C779 O791 1.272 . S
O780 Sm760 2.543 . S
O780 C762 1.261 . S
O781 Sm760 2.450 . S
O781 C762 1.242 . S
O782 Sm760 2.681 . S
O782 Sm761 2.386 . S
O782 C769 1.271 . S
O783 Sm760 2.464 . S
O783 C769 1.251 . S
O784 Sm760 2.396 . S
O784 C770 1.252 . S
O785 Sm761 2.408 . S
O785 C770 1.272 . S
O786 Sm761 2.543 . S
O786 C771 1.261 . S
O787 Sm761 2.450 . S
O787 C771 1.242 . S
O788 Sm760 2.386 . S
O788 Sm761 2.681 . S
O788 C778 1.271 . S
O789 Sm761 2.464 . S
O789 C778 1.251 . S
O790 Sm761 2.396 . S
O790 C779 1.252 . S
O791 Sm760 2.408 . S
O791 C779 1.272 . S
H792 C764 0.930 . S
H793 C765 0.929 . S
H794 C767 0.930 . S
H795 C768 0.929 . S
H796 C773 0.930 . S
H797 C774 0.929 . S
H798 C776 0.930 . S
H799 C777 0.929 . S
Sm800 C802 2.846 . S
Sm800 O820 2.543 . S
Sm800 O821 2.450 . S
Sm800 O822 2.681 . S
Sm800 O823 2.464 . S
Sm800 O824 2.396 . S
Sm800 O828 2.386 . S
Sm800 O831 2.408 . S
Sm801 C811 2.846 . S
Sm801 O822 2.386 . S
Sm801 O825 2.408 . S
Sm801 O826 2.543 . S
Sm801 O827 2.450 . S
Sm801 O828 2.681 . S
Sm801 O829 2.464 . S
Sm801 O830 2.396 . S
C802 Sm800 2.846 . S
C802 C803 1.506 . S
C802 O820 1.261 . S
C802 O821 1.242 . S
C803 C802 1.506 . S
C803 C804 1.358 . S
C803 C808 1.382 . S
C804 C803 1.358 . S
C804 C805 1.385 . S
C804 H832 0.930 . S
C805 C804 1.385 . S
C805 C806 1.395 . S
C805 H833 0.929 . S
C806 C805 1.395 . S
C806 C807 1.335 . S
C807 C806 1.335 . S
C807 C808 1.398 . S
C807 H834 0.930 . S
C808 C803 1.382 . S
C808 C807 1.398 . S
C808 H835 0.929 . S
C809 O822 1.271 . S
C809 O823 1.251 . S
C810 O824 1.252 . S
C810 O825 1.272 . S
C811 Sm801 2.846 . S
C811 C812 1.506 . S
C811 O826 1.261 . S
C811 O827 1.242 . S
C812 C811 1.506 . S
C812 C813 1.358 . S
C812 C817 1.382 . S
C813 C812 1.358 . S
C813 C814 1.385 . S
C813 H836 0.930 . S
C814 C813 1.385 . S
C814 C815 1.395 . S
C814 H837 0.929 . S
C815 C814 1.395 . S
C815 C816 1.335 . S
C816 C815 1.335 . S
C816 C817 1.398 . S
C816 H838 0.930 . S
C817 C812 1.382 . S
C817 C816 1.398 . S
C817 H839 0.929 . S
C818 O828 1.271 . S
C818 O829 1.251 . S
C819 O830 1.252 . S
C819 O831 1.272 . S
O820 Sm800 2.543 . S
O820 C802 1.261 . S
O821 Sm800 2.450 . S
O821 C802 1.242 . S
O822 Sm800 2.681 . S
O822 Sm801 2.386 . S
O822 C809 1.271 . S
O823 Sm800 2.464 . S
O823 C809 1.251 . S
O824 Sm800 2.396 . S
O824 C810 1.252 . S
O825 Sm801 2.408 . S
O825 C810 1.272 . S
O826 Sm801 2.543 . S
O826 C811 1.261 . S
O827 Sm801 2.450 . S
O827 C811 1.242 . S
O828 Sm800 2.386 . S
O828 Sm801 2.681 . S
O828 C818 1.271 . S
O829 Sm801 2.464 . S
O829 C818 1.251 . S
O830 Sm801 2.396 . S
O830 C819 1.252 . S
O831 Sm800 2.408 . S
O831 C819 1.272 . S
H832 C804 0.930 . S
H833 C805 0.929 . S
H834 C807 0.930 . S
H835 C808 0.929 . S
H836 C813 0.930 . S
H837 C814 0.929 . S
H838 C816 0.930 . S
H839 C817 0.929 . S
Sm840 C842 2.846 . S
Sm840 O860 2.543 . S
Sm840 O861 2.450 . S
Sm840 O862 2.681 . S
Sm840 O863 2.464 . S
Sm840 O864 2.396 . S
Sm840 O868 2.386 . S
Sm840 O871 2.408 . S
Sm841 C851 2.846 . S
Sm841 O862 2.386 . S
Sm841 O865 2.408 . S
Sm841 O866 2.543 . S
Sm841 O867 2.450 . S
Sm841 O868 2.681 . S
Sm841 O869 2.464 . S
Sm841 O870 2.396 . S
C842 Sm840 2.846 . S
C842 C843 1.506 . S
C842 O860 1.261 . S
C842 O861 1.242 . S
C843 C842 1.506 . S
C843 C844 1.358 . S
C843 C848 1.382 . S
C844 C843 1.358 . S
C844 C845 1.385 . S
C844 H872 0.930 . S
C845 C844 1.385 . S
C845 C846 1.395 . S
C845 H873 0.929 . S
C846 C845 1.395 . S
C846 C847 1.335 . S
C847 C846 1.335 . S
C847 C848 1.398 . S
C847 H874 0.930 . S
C848 C843 1.382 . S
C848 C847 1.398 . S
C848 H875 0.929 . S
C849 O862 1.271 . S
C849 O863 1.251 . S
C850 O864 1.252 . S
C850 O865 1.272 . S
C851 Sm841 2.846 . S
C851 C852 1.506 . S
C851 O866 1.261 . S
C851 O867 1.242 . S
C852 C851 1.506 . S
C852 C853 1.358 . S
C852 C857 1.382 . S
C853 C852 1.358 . S
C853 C854 1.385 1_455 S
C853 H876 0.930 . S
C854 C853 1.385 1_655 S
C854 C855 1.395 . S
C854 H877 0.929 . S
C855 C854 1.395 . S
C855 C856 1.335 . S
C856 C855 1.335 . S
C856 C857 1.398 1_655 S
C856 H878 0.930 . S
C857 C852 1.382 . S
C857 C856 1.398 1_455 S
C857 H879 0.929 . S
C858 O868 1.271 . S
C858 O869 1.251 . S
C859 O870 1.252 . S
C859 O871 1.272 . S
O860 Sm840 2.543 . S
O860 C842 1.261 . S
O861 Sm840 2.450 . S
O861 C842 1.242 . S
O862 Sm840 2.681 . S
O862 Sm841 2.386 . S
O862 C849 1.271 . S
O863 Sm840 2.464 . S
O863 C849 1.251 . S
O864 Sm840 2.396 . S
O864 C850 1.252 . S
O865 Sm841 2.408 . S
O865 C850 1.272 . S
O866 Sm841 2.543 . S
O866 C851 1.261 . S
O867 Sm841 2.450 . S
O867 C851 1.242 . S
O868 Sm840 2.386 . S
O868 Sm841 2.681 . S
O868 C858 1.271 . S
O869 Sm841 2.464 . S
O869 C858 1.251 . S
O870 Sm841 2.396 . S
O870 C859 1.252 . S
O871 Sm840 2.408 . S
O871 C859 1.272 . S
H872 C844 0.930 . S
H873 C845 0.929 . S
H874 C847 0.930 . S
H875 C848 0.929 . S
H876 C853 0.930 . S
H877 C854 0.929 . S
H878 C856 0.930 . S
H879 C857 0.929 . S
Sm880 C882 2.846 . S
Sm880 O900 2.543 . S
Sm880 O901 2.450 . S
Sm880 O902 2.681 . S
Sm880 O903 2.464 . S
Sm880 O904 2.396 . S
Sm880 O908 2.386 . S
Sm880 O911 2.408 . S
Sm881 C891 2.846 . S
Sm881 O902 2.386 . S
Sm881 O905 2.408 . S
Sm881 O906 2.543 . S
Sm881 O907 2.450 . S
Sm881 O908 2.681 . S
Sm881 O909 2.464 . S
Sm881 O910 2.396 . S
C882 Sm880 2.846 . S
C882 C883 1.506 . S
C882 O900 1.261 . S
C882 O901 1.242 . S
C883 C882 1.506 . S
C883 C884 1.358 . S
C883 C888 1.382 . S
C884 C883 1.358 . S
C884 C885 1.385 . S
C884 H912 0.930 . S
C885 C884 1.385 . S
C885 C886 1.395 . S
C885 H913 0.929 . S
C886 C885 1.395 . S
C886 C887 1.335 . S
C887 C886 1.335 . S
C887 C888 1.398 . S
C887 H914 0.930 . S
C888 C883 1.382 . S
C888 C887 1.398 . S
C888 H915 0.929 . S
C889 O902 1.271 . S
C889 O903 1.251 . S
C890 O904 1.252 . S
C890 O905 1.272 . S
C891 Sm881 2.846 . S
C891 C892 1.506 . S
C891 O906 1.261 . S
C891 O907 1.242 . S
C892 C891 1.506 . S
C892 C893 1.358 . S
C892 C897 1.382 . S
C893 C892 1.358 . S
C893 C894 1.385 . S
C893 H916 0.930 . S
C894 C893 1.385 . S
C894 C895 1.395 . S
C894 H917 0.929 . S
C895 C894 1.395 . S
C895 C896 1.335 . S
C896 C895 1.335 . S
C896 C897 1.398 . S
C896 H918 0.930 . S
C897 C892 1.382 . S
C897 C896 1.398 . S
C897 H919 0.929 . S
C898 O908 1.271 . S
C898 O909 1.251 . S
C899 O910 1.252 . S
C899 O911 1.272 . S
O900 Sm880 2.543 . S
O900 C882 1.261 . S
O901 Sm880 2.450 . S
O901 C882 1.242 . S
O902 Sm880 2.681 . S
O902 Sm881 2.386 . S
O902 C889 1.271 . S
O903 Sm880 2.464 . S
O903 C889 1.251 . S
O904 Sm880 2.396 . S
O904 C890 1.252 . S
O905 Sm881 2.408 . S
O905 C890 1.272 . S
O906 Sm881 2.543 . S
O906 C891 1.261 . S
O907 Sm881 2.450 . S
O907 C891 1.242 . S
O908 Sm880 2.386 . S
O908 Sm881 2.681 . S
O908 C898 1.271 . S
O909 Sm881 2.464 . S
O909 C898 1.251 . S
O910 Sm881 2.396 . S
O910 C899 1.252 . S
O911 Sm880 2.408 . S
O911 C899 1.272 . S
H912 C884 0.930 . S
H913 C885 0.929 . S
H914 C887 0.930 . S
H915 C888 0.929 . S
H916 C893 0.930 . S
H917 C894 0.929 . S
H918 C896 0.930 . S
H919 C897 0.929 . S
Sm920 C922 2.846 . S
Sm920 O940 2.543 . S
Sm920 O941 2.450 . S
Sm920 O942 2.681 . S
Sm920 O943 2.464 . S
Sm920 O944 2.396 . S
Sm920 O948 2.386 . S
Sm920 O951 2.408 . S
Sm921 C931 2.846 . S
Sm921 O942 2.386 . S
Sm921 O945 2.408 . S
Sm921 O946 2.543 . S
Sm921 O947 2.450 . S
Sm921 O948 2.681 . S
Sm921 O949 2.464 . S
Sm921 O950 2.396 . S
C922 Sm920 2.846 . S
C922 C923 1.506 . S
C922 O940 1.261 . S
C922 O941 1.242 . S
C923 C922 1.506 . S
C923 C924 1.358 . S
C923 C928 1.382 . S
C924 C923 1.358 . S
C924 C925 1.385 . S
C924 H952 0.930 . S
C925 C924 1.385 . S
C925 C926 1.395 . S
C925 H953 0.929 . S
C926 C925 1.395 . S
C926 C927 1.335 . S
C927 C926 1.335 . S
C927 C928 1.398 . S
C927 H954 0.930 . S
C928 C923 1.382 . S
C928 C927 1.398 . S
C928 H955 0.929 . S
C929 O942 1.271 . S
C929 O943 1.251 . S
C930 O944 1.252 . S
C930 O945 1.272 . S
C931 Sm921 2.846 . S
C931 C932 1.506 . S
C931 O946 1.261 . S
C931 O947 1.242 . S
C932 C931 1.506 . S
C932 C933 1.358 . S
C932 C937 1.382 . S
C933 C932 1.358 . S
C933 C934 1.385 1_455 S
C933 H956 0.930 . S
C934 C933 1.385 1_655 S
C934 C935 1.395 . S
C934 H957 0.929 . S
C935 C934 1.395 . S
C935 C936 1.335 . S
C936 C935 1.335 . S
C936 C937 1.398 1_655 S
C936 H958 0.930 . S
C937 C932 1.382 . S
C937 C936 1.398 1_455 S
C937 H959 0.929 . S
C938 O948 1.271 . S
C938 O949 1.251 . S
C939 O950 1.252 . S
C939 O951 1.272 . S
O940 Sm920 2.543 . S
O940 C922 1.261 . S
O941 Sm920 2.450 . S
O941 C922 1.242 . S
O942 Sm920 2.681 . S
O942 Sm921 2.386 . S
O942 C929 1.271 . S
O943 Sm920 2.464 . S
O943 C929 1.251 . S
O944 Sm920 2.396 . S
O944 C930 1.252 . S
O945 Sm921 2.408 . S
O945 C930 1.272 . S
O946 Sm921 2.543 . S
O946 C931 1.261 . S
O947 Sm921 2.450 . S
O947 C931 1.242 . S
O948 Sm920 2.386 . S
O948 Sm921 2.681 . S
O948 C938 1.271 . S
O949 Sm921 2.464 . S
O949 C938 1.251 . S
O950 Sm921 2.396 . S
O950 C939 1.252 . S
O951 Sm920 2.408 . S
O951 C939 1.272 . S
H952 C924 0.930 . S
H953 C925 0.929 . S
H954 C927 0.930 . S
H955 C928 0.929 . S
H956 C933 0.930 . S
H957 C934 0.929 . S
H958 C936 0.930 . S
H959 C937 0.929 . S
Sm960 C962 2.837 1_545 S
Sm960 O980 2.543 1_545 S
Sm960 O981 2.450 . S
Sm960 O982 2.681 1_545 S
Sm960 O983 2.464 . S
Sm960 O984 2.396 1_545 S
Sm960 O988 2.386 1_545 S
Sm960 O991 2.408 . S
Sm961 C971 2.846 . S
Sm961 O982 2.386 . S
Sm961 O985 2.408 . S
Sm961 O986 2.543 . S
Sm961 O987 2.450 . S
Sm961 O988 2.681 . S
Sm961 O989 2.464 . S
Sm961 O990 2.396 1_565 S
C962 Sm960 2.837 1_565 S
C962 C963 1.516 . S
C962 O980 1.266 . S
C962 O981 1.228 1_565 S
C963 C962 1.516 . S
C963 C964 1.358 . S
C963 C968 1.382 . S
C964 C963 1.358 . S
C964 C965 1.385 . S
C964 H992 0.930 . S
C965 C964 1.385 . S
C965 C966 1.395 . S
C965 H993 0.929 . S
C966 C965 1.395 . S
C966 C967 1.335 . S
C967 C966 1.335 . S
C967 C968 1.398 . S
C967 H994 0.930 . S
C968 C963 1.382 . S
C968 C967 1.398 . S
C968 H995 0.929 1_565 S
C969 O982 1.271 . S
C969 O983 1.251 1_565 S
C970 O984 1.252 . S
C970 O985 1.272 . S
C971 Sm961 2.846 . S
C971 C972 1.506 . S
C971 O986 1.261 . S
C971 O987 1.242 . S
C972 C971 1.506 . S
C972 C973 1.358 1_565 S
C972 C977 1.382 . S
C973 C972 1.358 1_545 S
C973 C974 1.385 . S
C973 H996 0.930 . S
C974 C973 1.385 . S
C974 C975 1.395 . S
C974 H997 0.929 . S
C975 C974 1.395 . S
C975 C976 1.335 1_545 S
C976 C975 1.335 1_565 S
C976 C977 1.398 . S
C976 H998 0.930 . S
C977 C972 1.382 . S
C977 C976 1.398 . S
C977 H999 0.929 . S
C978 O988 1.271 . S
C978 O989 1.251 . S
C979 O990 1.252 . S
C979 O991 1.272 . S
O980 Sm960 2.543 1_565 S
O980 C962 1.266 . S
O981 Sm960 2.450 . S
O981 C962 1.228 1_545 S
O982 Sm960 2.681 1_565 S
O982 Sm961 2.386 . S
O982 C969 1.271 . S
O983 Sm960 2.464 . S
O983 C969 1.251 1_545 S
O984 Sm960 2.396 1_565 S
O984 C970 1.252 . S
O985 Sm961 2.408 . S
O985 C970 1.272 . S
O986 Sm961 2.543 . S
O986 C971 1.261 . S
O987 Sm961 2.450 . S
O987 C971 1.242 . S
O988 Sm960 2.386 1_565 S
O988 Sm961 2.681 . S
O988 C978 1.271 . S
O989 Sm961 2.464 . S
O989 C978 1.251 . S
O990 Sm961 2.396 1_545 S
O990 C979 1.252 . S
O991 Sm960 2.408 . S
O991 C979 1.272 . S
H992 C964 0.930 . S
H993 C965 0.929 . S
H994 C967 0.930 . S
H995 C968 0.929 1_545 S
H996 C973 0.930 . S
H997 C974 0.929 . S
H998 C976 0.930 . S
H999 C977 0.929 . S
Sm1000 C1002 2.846 . S
Sm1000 O1020 2.543 . S
Sm1000 O1021 2.450 . S
Sm1000 O1022 2.681 . S
Sm1000 O1023 2.464 . S
Sm1000 O1024 2.396 . S
Sm1000 O1028 2.386 . S
Sm1000 O1031 2.408 . S
Sm1001 C1011 2.846 . S
Sm1001 O1022 2.386 . S
Sm1001 O1025 2.408 . S
Sm1001 O1026 2.543 . S
Sm1001 O1027 2.450 . S
Sm1001 O1028 2.681 . S
Sm1001 O1029 2.464 . S
Sm1001 O1030 2.396 . S
C1002 Sm1000 2.846 . S
C1002 C1003 1.506 . S
C1002 O1020 1.261 . S
C1002 O1021 1.242 . S
C1003 C1002 1.506 . S
C1003 C1004 1.358 . S
C1003 C1008 1.382 . S
C1004 C1003 1.358 . S
C1004 C1005 1.385 1_655 S
C1004 H1032 0.930 . S
C1005 C1004 1.385 1_455 S
C1005 C1006 1.395 . S
C1005 H1033 0.929 . S
C1006 C1005 1.395 . S
C1006 C1007 1.335 . S
C1007 C1006 1.335 . S
C1007 C1008 1.398 1_455 S
C1007 H1034 0.930 . S
C1008 C1003 1.382 . S
C1008 C1007 1.398 1_655 S
C1008 H1035 0.929 . S
C1009 O1022 1.271 . S
C1009 O1023 1.251 . S
C1010 O1024 1.252 . S
C1010 O1025 1.272 . S
C1011 Sm1001 2.846 . S
C1011 C1012 1.506 . S
C1011 O1026 1.261 . S
C1011 O1027 1.242 . S
C1012 C1011 1.506 . S
C1012 C1013 1.358 . S
C1012 C1017 1.382 . S
C1013 C1012 1.358 . S
C1013 C1014 1.385 . S
C1013 H1036 0.930 . S
C1014 C1013 1.385 . S
C1014 C1015 1.395 . S
C1014 H1037 0.929 . S
C1015 C1014 1.395 . S
C1015 C1016 1.335 . S
C1016 C1015 1.335 . S
C1016 C1017 1.398 . S
C1016 H1038 0.930 . S
C1017 C1012 1.382 . S
C1017 C1016 1.398 . S
C1017 H1039 0.929 . S
C1018 O1028 1.271 . S
C1018 O1029 1.251 . S
C1019 O1030 1.252 . S
C1019 O1031 1.272 . S
O1020 Sm1000 2.543 . S
O1020 C1002 1.261 . S
O1021 Sm1000 2.450 . S
O1021 C1002 1.242 . S
O1022 Sm1000 2.681 . S
O1022 Sm1001 2.386 . S
O1022 C1009 1.271 . S
O1023 Sm1000 2.464 . S
O1023 C1009 1.251 . S
O1024 Sm1000 2.396 . S
O1024 C1010 1.252 . S
O1025 Sm1001 2.408 . S
O1025 C1010 1.272 . S
O1026 Sm1001 2.543 . S
O1026 C1011 1.261 . S
O1027 Sm1001 2.450 . S
O1027 C1011 1.242 . S
O1028 Sm1000 2.386 . S
O1028 Sm1001 2.681 . S
O1028 C1018 1.271 . S
O1029 Sm1001 2.464 . S
O1029 C1018 1.251 . S
O1030 Sm1001 2.396 . S
O1030 C1019 1.252 . S
O1031 Sm1000 2.408 . S
O1031 C1019 1.272 . S
H1032 C1004 0.930 . S
H1033 C1005 0.929 . S
H1034 C1007 0.930 . S
H1035 C1008 0.929 . S
H1036 C1013 0.930 . S
H1037 C1014 0.929 . S
H1038 C1016 0.930 . S
H1039 C1017 0.929 . S
Sm1040 C1042 2.846 . S
Sm1040 O1060 2.543 . S
Sm1040 O1061 2.450 . S
Sm1040 O1062 2.681 . S
Sm1040 O1063 2.464 . S
Sm1040 O1064 2.396 . S
Sm1040 O1068 2.386 . S
Sm1040 O1071 2.408 . S
Sm1041 C1051 2.846 . S
Sm1041 O1062 2.386 . S
Sm1041 O1065 2.408 . S
Sm1041 O1066 2.543 . S
Sm1041 O1067 2.450 . S
Sm1041 O1068 2.681 . S
Sm1041 O1069 2.464 . S
Sm1041 O1070 2.396 . S
C1042 Sm1040 2.846 . S
C1042 C1043 1.506 . S
C1042 O1060 1.261 . S
C1042 O1061 1.242 . S
C1043 C1042 1.506 . S
C1043 C1044 1.358 . S
C1043 C1048 1.382 . S
C1044 C1043 1.358 . S
C1044 C1045 1.385 . S
C1044 H1072 0.930 . S
C1045 C1044 1.385 . S
C1045 C1046 1.395 . S
C1045 H1073 0.929 . S
C1046 C1045 1.395 . S
C1046 C1047 1.335 . S
C1047 C1046 1.335 . S
C1047 C1048 1.398 . S
C1047 H1074 0.930 . S
C1048 C1043 1.382 . S
C1048 C1047 1.398 . S
C1048 H1075 0.929 . S
C1049 O1062 1.271 . S
C1049 O1063 1.251 . S
C1050 O1064 1.252 . S
C1050 O1065 1.272 . S
C1051 Sm1041 2.846 . S
C1051 C1052 1.506 . S
C1051 O1066 1.261 . S
C1051 O1067 1.242 . S
C1052 C1051 1.506 . S
C1052 C1053 1.358 . S
C1052 C1057 1.382 . S
C1053 C1052 1.358 . S
C1053 C1054 1.385 . S
C1053 H1076 0.930 . S
C1054 C1053 1.385 . S
C1054 C1055 1.395 . S
C1054 H1077 0.929 . S
C1055 C1054 1.395 . S
C1055 C1056 1.335 . S
C1056 C1055 1.335 . S
C1056 C1057 1.398 . S
C1056 H1078 0.930 . S
C1057 C1052 1.382 . S
C1057 C1056 1.398 . S
C1057 H1079 0.929 . S
C1058 O1068 1.271 . S
C1058 O1069 1.251 . S
C1059 O1070 1.252 . S
C1059 O1071 1.272 . S
O1060 Sm1040 2.543 . S
O1060 C1042 1.261 . S
O1061 Sm1040 2.450 . S
O1061 C1042 1.242 . S
O1062 Sm1040 2.681 . S
O1062 Sm1041 2.386 . S
O1062 C1049 1.271 . S
O1063 Sm1040 2.464 . S
O1063 C1049 1.251 . S
O1064 Sm1040 2.396 . S
O1064 C1050 1.252 . S
O1065 Sm1041 2.408 . S
O1065 C1050 1.272 . S
O1066 Sm1041 2.543 . S
O1066 C1051 1.261 . S
O1067 Sm1041 2.450 . S
O1067 C1051 1.242 . S
O1068 Sm1040 2.386 . S
O1068 Sm1041 2.681 . S
O1068 C1058 1.271 . S
O1069 Sm1041 2.464 . S
O1069 C1058 1.251 . S
O1070 Sm1041 2.396 . S
O1070 C1059 1.252 . S
O1071 Sm1040 2.408 . S
O1071 C1059 1.272 . S
H1072 C1044 0.930 . S
H1073 C1045 0.929 . S
H1074 C1047 0.930 . S
H1075 C1048 0.929 . S
H1076 C1053 0.930 . S
H1077 C1054 0.929 . S
H1078 C1056 0.930 . S
H1079 C1057 0.929 . S
Sm1080 C1082 2.837 1_545 S
Sm1080 O1100 2.543 1_545 S
Sm1080 O1101 2.450 . S
Sm1080 O1102 2.681 1_545 S
Sm1080 O1103 2.464 . S
Sm1080 O1104 2.396 1_545 S
Sm1080 O1108 2.386 1_545 S
Sm1080 O1111 2.408 . S
Sm1081 C1091 2.846 . S
Sm1081 O1102 2.386 . S
Sm1081 O1105 2.408 . S
Sm1081 O1106 2.543 . S
Sm1081 O1107 2.450 . S
Sm1081 O1108 2.681 . S
Sm1081 O1109 2.464 . S
Sm1081 O1110 2.396 1_565 S
C1082 Sm1080 2.837 1_565 S
C1082 C1083 1.516 . S
C1082 O1100 1.266 . S
C1082 O1101 1.228 1_565 S
C1083 C1082 1.516 . S
C1083 C1084 1.358 . S
C1083 C1088 1.382 . S
C1084 C1083 1.358 . S
C1084 C1085 1.385 1_655 S
C1084 H1112 0.930 . S
C1085 C1084 1.385 1_455 S
C1085 C1086 1.395 . S
C1085 H1113 0.929 . S
C1086 C1085 1.395 . S
C1086 C1087 1.335 . S
C1087 C1086 1.335 . S
C1087 C1088 1.398 1_455 S
C1087 H1114 0.930 . S
C1088 C1083 1.382 . S
C1088 C1087 1.398 1_655 S
C1088 H1115 0.929 1_565 S
C1089 O1102 1.271 . S
C1089 O1103 1.251 1_565 S
C1090 O1104 1.252 . S
C1090 O1105 1.272 . S
C1091 Sm1081 2.846 . S
C1091 C1092 1.506 . S
C1091 O1106 1.261 . S
C1091 O1107 1.242 . S
C1092 C1091 1.506 . S
C1092 C1093 1.358 1_565 S
C1092 C1097 1.382 . S
C1093 C1092 1.358 1_545 S
C1093 C1094 1.385 . S
C1093 H1116 0.930 . S
C1094 C1093 1.385 . S
C1094 C1095 1.395 . S
C1094 H1117 0.929 . S
C1095 C1094 1.395 . S
C1095 C1096 1.335 1_545 S
C1096 C1095 1.335 1_565 S
C1096 C1097 1.398 . S
C1096 H1118 0.930 . S
C1097 C1092 1.382 . S
C1097 C1096 1.398 . S
C1097 H1119 0.929 . S
C1098 O1108 1.271 . S
C1098 O1109 1.251 . S
C1099 O1110 1.252 . S
C1099 O1111 1.272 . S
O1100 Sm1080 2.543 1_565 S
O1100 C1082 1.266 . S
O1101 Sm1080 2.450 . S
O1101 C1082 1.228 1_545 S
O1102 Sm1080 2.681 1_565 S
O1102 Sm1081 2.386 . S
O1102 C1089 1.271 . S
O1103 Sm1080 2.464 . S
O1103 C1089 1.251 1_545 S
O1104 Sm1080 2.396 1_565 S
O1104 C1090 1.252 . S
O1105 Sm1081 2.408 . S
O1105 C1090 1.272 . S
O1106 Sm1081 2.543 . S
O1106 C1091 1.261 . S
O1107 Sm1081 2.450 . S
O1107 C1091 1.242 . S
O1108 Sm1080 2.386 1_565 S
O1108 Sm1081 2.681 . S
O1108 C1098 1.271 . S
O1109 Sm1081 2.464 . S
O1109 C1098 1.251 . S
O1110 Sm1081 2.396 1_545 S
O1110 C1099 1.252 . S
O1111 Sm1080 2.408 . S
O1111 C1099 1.272 . S
H1112 C1084 0.930 . S
H1113 C1085 0.929 . S
H1114 C1087 0.930 . S
H1115 C1088 0.929 1_545 S
H1116 C1093 0.930 . S
H1117 C1094 0.929 . S
H1118 C1096 0.930 . S
H1119 C1097 0.929 . S
Sm1120 C1122 2.846 . S
Sm1120 O1140 2.543 . S
Sm1120 O1141 2.450 . S
Sm1120 O1142 2.681 . S
Sm1120 O1143 2.464 . S
Sm1120 O1144 2.396 1_545 S
Sm1120 O1148 2.386 . S
Sm1120 O1151 2.408 . S
Sm1121 C1131 2.837 1_565 S
Sm1121 O1142 2.386 1_565 S
Sm1121 O1145 2.408 . S
Sm1121 O1146 2.543 1_565 S
Sm1121 O1147 2.450 . S
Sm1121 O1148 2.681 1_565 S
Sm1121 O1149 2.464 . S
Sm1121 O1150 2.396 1_565 S
C1122 Sm1120 2.846 . S
C1122 C1123 1.506 . S
C1122 O1140 1.261 . S
C1122 O1141 1.242 . S
C1123 C1122 1.506 . S
C1123 C1124 1.358 1_545 S
C1123 C1128 1.382 . S
C1124 C1123 1.358 1_565 S
C1124 C1125 1.385 . S
C1124 H1152 0.930 . S
C1125 C1124 1.385 . S
C1125 C1126 1.395 . S
C1125 H1153 0.929 . S
C1126 C1125 1.395 . S
C1126 C1127 1.335 1_565 S
C1127 C1126 1.335 1_545 S
C1127 C1128 1.398 . S
C1127 H1154 0.930 . S
C1128 C1123 1.382 . S
C1128 C1127 1.398 . S
C1128 H1155 0.929 . S
C1129 O1142 1.271 . S
C1129 O1143 1.251 . S
C1130 O1144 1.252 . S
C1130 O1145 1.272 . S
C1131 Sm1121 2.837 1_545 S
C1131 C1132 1.516 . S
C1131 O1146 1.266 . S
C1131 O1147 1.228 1_545 S
C1132 C1131 1.516 . S
C1132 C1133 1.358 . S
C1132 C1137 1.382 . S
C1133 C1132 1.358 . S
C1133 C1134 1.385 . S
C1133 H1156 0.930 . S
C1134 C1133 1.385 . S
C1134 C1135 1.395 . S
C1134 H1157 0.929 . S
C1135 C1134 1.395 . S
C1135 C1136 1.335 . S
C1136 C1135 1.335 . S
C1136 C1137 1.398 . S
C1136 H1158 0.930 . S
C1137 C1132 1.382 . S
C1137 C1136 1.398 . S
C1137 H1159 0.929 1_545 S
C1138 O1148 1.271 . S
C1138 O1149 1.251 1_545 S
C1139 O1150 1.252 . S
C1139 O1151 1.272 . S
O1140 Sm1120 2.543 . S
O1140 C1122 1.261 . S
O1141 Sm1120 2.450 . S
O1141 C1122 1.242 . S
O1142 Sm1120 2.681 . S
O1142 Sm1121 2.386 1_545 S
O1142 C1129 1.271 . S
O1143 Sm1120 2.464 . S
O1143 C1129 1.251 . S
O1144 Sm1120 2.396 1_565 S
O1144 C1130 1.252 . S
O1145 Sm1121 2.408 . S
O1145 C1130 1.272 . S
O1146 Sm1121 2.543 1_545 S
O1146 C1131 1.266 . S
O1147 Sm1121 2.450 . S
O1147 C1131 1.228 1_565 S
O1148 Sm1120 2.386 . S
O1148 Sm1121 2.681 1_545 S
O1148 C1138 1.271 . S
O1149 Sm1121 2.464 . S
O1149 C1138 1.251 1_565 S
O1150 Sm1121 2.396 1_545 S
O1150 C1139 1.252 . S
O1151 Sm1120 2.408 . S
O1151 C1139 1.272 . S
H1152 C1124 0.930 . S
H1153 C1125 0.929 . S
H1154 C1127 0.930 . S
H1155 C1128 0.929 . S
H1156 C1133 0.930 . S
H1157 C1134 0.929 . S
H1158 C1136 0.930 . S
H1159 C1137 0.929 1_565 S
Sm1160 C1162 2.846 . S
Sm1160 O1180 2.543 . S
Sm1160 O1181 2.450 . S
Sm1160 O1182 2.681 . S
Sm1160 O1183 2.464 . S
Sm1160 O1184 2.396 . S
Sm1160 O1188 2.386 . S
Sm1160 O1191 2.408 . S
Sm1161 C1171 2.846 . S
Sm1161 O1182 2.386 . S
Sm1161 O1185 2.408 . S
Sm1161 O1186 2.543 . S
Sm1161 O1187 2.450 . S
Sm1161 O1188 2.681 . S
Sm1161 O1189 2.464 . S
Sm1161 O1190 2.396 . S
C1162 Sm1160 2.846 . S
C1162 C1163 1.506 . S
C1162 O1180 1.261 . S
C1162 O1181 1.242 . S
C1163 C1162 1.506 . S
C1163 C1164 1.358 . S
C1163 C1168 1.382 . S
C1164 C1163 1.358 . S
C1164 C1165 1.385 . S
C1164 H1192 0.930 . S
C1165 C1164 1.385 . S
C1165 C1166 1.395 . S
C1165 H1193 0.929 . S
C1166 C1165 1.395 . S
C1166 C1167 1.335 . S
C1167 C1166 1.335 . S
C1167 C1168 1.398 . S
C1167 H1194 0.930 . S
C1168 C1163 1.382 . S
C1168 C1167 1.398 . S
C1168 H1195 0.929 . S
C1169 O1182 1.271 . S
C1169 O1183 1.251 . S
C1170 O1184 1.252 . S
C1170 O1185 1.272 . S
C1171 Sm1161 2.846 . S
C1171 C1172 1.506 . S
C1171 O1186 1.261 . S
C1171 O1187 1.242 . S
C1172 C1171 1.506 . S
C1172 C1173 1.358 . S
C1172 C1177 1.382 . S
C1173 C1172 1.358 . S
C1173 C1174 1.385 1_455 S
C1173 H1196 0.930 . S
C1174 C1173 1.385 1_655 S
C1174 C1175 1.395 . S
C1174 H1197 0.929 . S
C1175 C1174 1.395 . S
C1175 C1176 1.335 . S
C1176 C1175 1.335 . S
C1176 C1177 1.398 1_655 S
C1176 H1198 0.930 . S
C1177 C1172 1.382 . S
C1177 C1176 1.398 1_455 S
C1177 H1199 0.929 . S
C1178 O1188 1.271 . S
C1178 O1189 1.251 . S
C1179 O1190 1.252 . S
C1179 O1191 1.272 . S
O1180 Sm1160 2.543 . S
O1180 C1162 1.261 . S
O1181 Sm1160 2.450 . S
O1181 C1162 1.242 . S
O1182 Sm1160 2.681 . S
O1182 Sm1161 2.386 . S
O1182 C1169 1.271 . S
O1183 Sm1160 2.464 . S
O1183 C1169 1.251 . S
O1184 Sm1160 2.396 . S
O1184 C1170 1.252 . S
O1185 Sm1161 2.408 . S
O1185 C1170 1.272 . S
O1186 Sm1161 2.543 . S
O1186 C1171 1.261 . S
O1187 Sm1161 2.450 . S
O1187 C1171 1.242 . S
O1188 Sm1160 2.386 . S
O1188 Sm1161 2.681 . S
O1188 C1178 1.271 . S
O1189 Sm1161 2.464 . S
O1189 C1178 1.251 . S
O1190 Sm1161 2.396 . S
O1190 C1179 1.252 . S
O1191 Sm1160 2.408 . S
O1191 C1179 1.272 . S
H1192 C1164 0.930 . S
H1193 C1165 0.929 . S
H1194 C1167 0.930 . S
H1195 C1168 0.929 . S
H1196 C1173 0.930 . S
H1197 C1174 0.929 . S
H1198 C1176 0.930 . S
H1199 C1177 0.929 . S
Sm1200 C1202 2.846 . S
Sm1200 O1220 2.543 . S
Sm1200 O1221 2.450 . S
Sm1200 O1222 2.681 . S
Sm1200 O1223 2.464 . S
Sm1200 O1224 2.396 . S
Sm1200 O1228 2.386 . S
Sm1200 O1231 2.408 . S
Sm1201 C1211 2.846 . S
Sm1201 O1222 2.386 . S
Sm1201 O1225 2.408 . S
Sm1201 O1226 2.543 . S
Sm1201 O1227 2.450 . S
Sm1201 O1228 2.681 . S
Sm1201 O1229 2.464 . S
Sm1201 O1230 2.396 . S
C1202 Sm1200 2.846 . S
C1202 C1203 1.506 . S
C1202 O1220 1.261 . S
C1202 O1221 1.242 . S
C1203 C1202 1.506 . S
C1203 C1204 1.358 . S
C1203 C1208 1.382 . S
C1204 C1203 1.358 . S
C1204 C1205 1.385 . S
C1204 H1232 0.930 . S
C1205 C1204 1.385 . S
C1205 C1206 1.395 . S
C1205 H1233 0.929 . S
C1206 C1205 1.395 . S
C1206 C1207 1.335 . S
C1207 C1206 1.335 . S
C1207 C1208 1.398 . S
C1207 H1234 0.930 . S
C1208 C1203 1.382 . S
C1208 C1207 1.398 . S
C1208 H1235 0.929 . S
C1209 O1222 1.271 . S
C1209 O1223 1.251 . S
C1210 O1224 1.252 . S
C1210 O1225 1.272 . S
C1211 Sm1201 2.846 . S
C1211 C1212 1.506 . S
C1211 O1226 1.261 . S
C1211 O1227 1.242 . S
C1212 C1211 1.506 . S
C1212 C1213 1.358 . S
C1212 C1217 1.382 . S
C1213 C1212 1.358 . S
C1213 C1214 1.385 . S
C1213 H1236 0.930 . S
C1214 C1213 1.385 . S
C1214 C1215 1.395 . S
C1214 H1237 0.929 . S
C1215 C1214 1.395 . S
C1215 C1216 1.335 . S
C1216 C1215 1.335 . S
C1216 C1217 1.398 . S
C1216 H1238 0.930 . S
C1217 C1212 1.382 . S
C1217 C1216 1.398 . S
C1217 H1239 0.929 . S
C1218 O1228 1.271 . S
C1218 O1229 1.251 . S
C1219 O1230 1.252 . S
C1219 O1231 1.272 . S
O1220 Sm1200 2.543 . S
O1220 C1202 1.261 . S
O1221 Sm1200 2.450 . S
O1221 C1202 1.242 . S
O1222 Sm1200 2.681 . S
O1222 Sm1201 2.386 . S
O1222 C1209 1.271 . S
O1223 Sm1200 2.464 . S
O1223 C1209 1.251 . S
O1224 Sm1200 2.396 . S
O1224 C1210 1.252 . S
O1225 Sm1201 2.408 . S
O1225 C1210 1.272 . S
O1226 Sm1201 2.543 . S
O1226 C1211 1.261 . S
O1227 Sm1201 2.450 . S
O1227 C1211 1.242 . S
O1228 Sm1200 2.386 . S
O1228 Sm1201 2.681 . S
O1228 C1218 1.271 . S
O1229 Sm1201 2.464 . S
O1229 C1218 1.251 . S
O1230 Sm1201 2.396 . S
O1230 C1219 1.252 . S
O1231 Sm1200 2.408 . S
O1231 C1219 1.272 . S
H1232 C1204 0.930 . S
H1233 C1205 0.929 . S
H1234 C1207 0.930 . S
H1235 C1208 0.929 . S
H1236 C1213 0.930 . S
H1237 C1214 0.929 . S
H1238 C1216 0.930 . S
H1239 C1217 0.929 . S
Sm1240 C1242 2.846 . S
Sm1240 O1260 2.543 . S
Sm1240 O1261 2.450 . S
Sm1240 O1262 2.681 . S
Sm1240 O1263 2.464 . S
Sm1240 O1264 2.396 1_545 S
Sm1240 O1268 2.386 . S
Sm1240 O1271 2.408 . S
Sm1241 C1251 2.837 1_565 S
Sm1241 O1262 2.386 1_565 S
Sm1241 O1265 2.408 . S
Sm1241 O1266 2.543 1_565 S
Sm1241 O1267 2.450 . S
Sm1241 O1268 2.681 1_565 S
Sm1241 O1269 2.464 . S
Sm1241 O1270 2.396 1_565 S
C1242 Sm1240 2.846 . S
C1242 C1243 1.506 . S
C1242 O1260 1.261 . S
C1242 O1261 1.242 . S
C1243 C1242 1.506 . S
C1243 C1244 1.358 1_545 S
C1243 C1248 1.382 . S
C1244 C1243 1.358 1_565 S
C1244 C1245 1.385 . S
C1244 H1272 0.930 . S
C1245 C1244 1.385 . S
C1245 C1246 1.395 . S
C1245 H1273 0.929 . S
C1246 C1245 1.395 . S
C1246 C1247 1.335 1_565 S
C1247 C1246 1.335 1_545 S
C1247 C1248 1.398 . S
C1247 H1274 0.930 . S
C1248 C1243 1.382 . S
C1248 C1247 1.398 . S
C1248 H1275 0.929 . S
C1249 O1262 1.271 . S
C1249 O1263 1.251 . S
C1250 O1264 1.252 . S
C1250 O1265 1.272 . S
C1251 Sm1241 2.837 1_545 S
C1251 C1252 1.516 . S
C1251 O1266 1.266 . S
C1251 O1267 1.228 1_545 S
C1252 C1251 1.516 . S
C1252 C1253 1.358 . S
C1252 C1257 1.382 . S
C1253 C1252 1.358 . S
C1253 C1254 1.385 1_455 S
C1253 H1276 0.930 . S
C1254 C1253 1.385 1_655 S
C1254 C1255 1.395 . S
C1254 H1277 0.929 . S
C1255 C1254 1.395 . S
C1255 C1256 1.335 . S
C1256 C1255 1.335 . S
C1256 C1257 1.398 1_655 S
C1256 H1278 0.930 . S
C1257 C1252 1.382 . S
C1257 C1256 1.398 1_455 S
C1257 H1279 0.929 1_545 S
C1258 O1268 1.271 . S
C1258 O1269 1.251 1_545 S
C1259 O1270 1.252 . S
C1259 O1271 1.272 . S
O1260 Sm1240 2.543 . S
O1260 C1242 1.261 . S
O1261 Sm1240 2.450 . S
O1261 C1242 1.242 . S
O1262 Sm1240 2.681 . S
O1262 Sm1241 2.386 1_545 S
O1262 C1249 1.271 . S
O1263 Sm1240 2.464 . S
O1263 C1249 1.251 . S
O1264 Sm1240 2.396 1_565 S
O1264 C1250 1.252 . S
O1265 Sm1241 2.408 . S
O1265 C1250 1.272 . S
O1266 Sm1241 2.543 1_545 S
O1266 C1251 1.266 . S
O1267 Sm1241 2.450 . S
O1267 C1251 1.228 1_565 S
O1268 Sm1240 2.386 . S
O1268 Sm1241 2.681 1_545 S
O1268 C1258 1.271 . S
O1269 Sm1241 2.464 . S
O1269 C1258 1.251 1_565 S
O1270 Sm1241 2.396 1_545 S
O1270 C1259 1.252 . S
O1271 Sm1240 2.408 . S
O1271 C1259 1.272 . S
H1272 C1244 0.930 . S
H1273 C1245 0.929 . S
H1274 C1247 0.930 . S
H1275 C1248 0.929 . S
H1276 C1253 0.930 . S
H1277 C1254 0.929 . S
H1278 C1256 0.930 . S
H1279 C1257 0.929 1_565 S
H1280 C1288 0.950 1_455 S
H1281 C1293 0.950 . S
H1282 C1290 0.950 . S
H1283 C1292 0.950 . S
H1284 C1294 0.950 . S
H1285 C1296 0.950 . S
H1286 C1298 0.950 . S
H1287 C1299 0.950 . S
C1288 H1280 0.950 1_655 S
C1288 C1289 1.386 . S
C1288 C1290 1.391 . S
C1289 C1288 1.386 . S
C1289 C1293 1.393 . S
C1290 H1282 0.950 . S
C1290 C1288 1.391 . S
C1290 C1291 1.400 . S
C1291 C1290 1.400 . S
C1291 C1292 1.398 . S
C1291 C1297 1.491 . S
C1292 H1283 0.950 . S
C1292 C1291 1.398 . S
C1292 C1293 1.391 . S
C1293 H1281 0.950 . S
C1293 C1289 1.393 . S
C1293 C1292 1.391 . S
C1294 H1284 0.950 . S
C1294 C1295 1.386 . S
C1294 C1296 1.391 . S
C1295 C1294 1.386 . S
C1295 C1299 1.393 . S
C1296 H1285 0.950 . S
C1296 C1294 1.391 . S
C1296 C1297 1.400 . S
C1297 C1291 1.491 . S
C1297 C1296 1.400 . S
C1297 C1298 1.398 . S
C1298 H1286 0.950 . S
C1298 C1297 1.398 . S
C1298 C1299 1.391 . S
C1299 H1287 0.950 . S
C1299 C1295 1.393 . S
C1299 C1298 1.391 . S
H1300 C1308 0.950 . S
H1301 C1313 0.950 . S
H1302 C1310 0.950 . S
H1303 C1312 0.950 . S
H1304 C1314 0.950 . S
H1305 C1316 0.950 . S
H1306 C1318 0.950 . S
H1307 C1319 0.950 . S
C1308 H1300 0.950 . S
C1308 C1309 1.386 . S
C1308 C1310 1.391 . S
C1309 C1308 1.386 . S
C1309 C1313 1.393 . S
C1310 H1302 0.950 . S
C1310 C1308 1.391 . S
C1310 C1311 1.400 . S
C1311 C1310 1.400 . S
C1311 C1312 1.398 . S
C1311 C1317 1.491 . S
C1312 H1303 0.950 . S
C1312 C1311 1.398 . S
C1312 C1313 1.391 . S
C1313 H1301 0.950 . S
C1313 C1309 1.393 . S
C1313 C1312 1.391 . S
C1314 H1304 0.950 . S
C1314 C1315 1.386 . S
C1314 C1316 1.391 . S
C1315 C1314 1.386 . S
C1315 C1319 1.393 . S
C1316 H1305 0.950 . S
C1316 C1314 1.391 . S
C1316 C1317 1.400 . S
C1317 C1311 1.491 . S
C1317 C1316 1.400 . S
C1317 C1318 1.398 . S
C1318 H1306 0.950 . S
C1318 C1317 1.398 . S
C1318 C1319 1.391 . S
C1319 H1307 0.950 . S
C1319 C1315 1.393 . S
C1319 C1318 1.391 . S
H1320 C1328 0.950 . S
H1321 C1333 0.950 . S
H1322 C1330 0.950 . S
H1323 C1332 0.950 . S
H1324 C1334 0.950 . S
H1325 C1336 0.950 . S
H1326 C1338 0.950 . S
H1327 C1339 0.950 . S
C1328 H1320 0.950 . S
C1328 C1329 1.386 . S
C1328 C1330 1.391 . S
C1329 C1328 1.386 . S
C1329 C1333 1.393 . S
C1330 H1322 0.950 . S
C1330 C1328 1.391 . S
C1330 C1331 1.400 . S
C1331 C1330 1.400 . S
C1331 C1332 1.398 . S
C1331 C1337 1.491 . S
C1332 H1323 0.950 . S
C1332 C1331 1.398 . S
C1332 C1333 1.391 . S
C1333 H1321 0.950 . S
C1333 C1329 1.393 . S
C1333 C1332 1.391 . S
C1334 H1324 0.950 . S
C1334 C1335 1.386 . S
C1334 C1336 1.391 . S
C1335 C1334 1.386 . S
C1335 C1339 1.393 . S
C1336 H1325 0.950 . S
C1336 C1334 1.391 . S
C1336 C1337 1.400 . S
C1337 C1331 1.491 . S
C1337 C1336 1.400 . S
C1337 C1338 1.398 . S
C1338 H1326 0.950 . S
C1338 C1337 1.398 . S
C1338 C1339 1.391 . S
C1339 H1327 0.950 . S
C1339 C1335 1.393 . S
C1339 C1338 1.391 . S
H1340 C1348 0.950 . S
H1341 C1353 0.950 . S
H1342 C1350 0.950 . S
H1343 C1352 0.950 . S
H1344 C1354 0.950 . S
H1345 C1356 0.950 . S
H1346 C1358 0.950 . S
H1347 C1359 0.950 . S
C1348 H1340 0.950 . S
C1348 C1349 1.386 . S
C1348 C1350 1.391 . S
C1349 C1348 1.386 . S
C1349 C1353 1.393 . S
C1350 H1342 0.950 . S
C1350 C1348 1.391 . S
C1350 C1351 1.400 . S
C1351 C1350 1.400 . S
C1351 C1352 1.398 . S
C1351 C1357 1.491 . S
C1352 H1343 0.950 . S
C1352 C1351 1.398 . S
C1352 C1353 1.391 . S
C1353 H1341 0.950 . S
C1353 C1349 1.393 . S
C1353 C1352 1.391 . S
C1354 H1344 0.950 . S
C1354 C1355 1.386 . S
C1354 C1356 1.391 . S
C1355 C1354 1.386 . S
C1355 C1359 1.393 . S
C1356 H1345 0.950 . S
C1356 C1354 1.391 . S
C1356 C1357 1.400 . S
C1357 C1351 1.491 . S
C1357 C1356 1.400 . S
C1357 C1358 1.398 . S
C1358 H1346 0.950 . S
C1358 C1357 1.398 . S
C1358 C1359 1.391 . S
C1359 H1347 0.950 . S
C1359 C1355 1.393 . S
C1359 C1358 1.391 . S
H1360 C1368 0.950 . S
H1361 C1373 0.950 . S
H1362 C1370 0.950 . S
H1363 C1372 0.950 . S
H1364 C1374 0.950 . S
H1365 C1376 0.950 . S
H1366 C1378 0.950 . S
H1367 C1379 0.950 . S
C1368 H1360 0.950 . S
C1368 C1369 1.386 . S
C1368 C1370 1.391 . S
C1369 C1368 1.386 . S
C1369 C1373 1.393 . S
C1370 H1362 0.950 . S
C1370 C1368 1.391 . S
C1370 C1371 1.400 . S
C1371 C1370 1.400 . S
C1371 C1372 1.398 . S
C1371 C1377 1.491 . S
C1372 H1363 0.950 . S
C1372 C1371 1.398 . S
C1372 C1373 1.391 . S
C1373 H1361 0.950 . S
C1373 C1369 1.393 . S
C1373 C1372 1.391 . S
C1374 H1364 0.950 . S
C1374 C1375 1.386 . S
C1374 C1376 1.391 . S
C1375 C1374 1.386 . S
C1375 C1379 1.393 . S
C1376 H1365 0.950 . S
C1376 C1374 1.391 . S
C1376 C1377 1.400 . S
C1377 C1371 1.491 . S
C1377 C1376 1.400 . S
C1377 C1378 1.398 . S
C1378 H1366 0.950 . S
C1378 C1377 1.398 . S
C1378 C1379 1.391 . S
C1379 H1367 0.950 . S
C1379 C1375 1.393 . S
C1379 C1378 1.391 . S
H1380 C1388 0.950 . S
H1381 C1393 0.950 . S
H1382 C1390 0.950 . S
H1383 C1392 0.950 . S
H1384 C1394 0.950 . S
H1385 C1396 0.950 . S
H1386 C1398 0.950 . S
H1387 C1399 0.950 . S
C1388 H1380 0.950 . S
C1388 C1389 1.386 . S
C1388 C1390 1.391 . S
C1389 C1388 1.386 . S
C1389 C1393 1.393 . S
C1390 H1382 0.950 . S
C1390 C1388 1.391 . S
C1390 C1391 1.400 . S
C1391 C1390 1.400 . S
C1391 C1392 1.398 . S
C1391 C1397 1.491 . S
C1392 H1383 0.950 . S
C1392 C1391 1.398 . S
C1392 C1393 1.391 . S
C1393 H1381 0.950 . S
C1393 C1389 1.393 . S
C1393 C1392 1.391 . S
C1394 H1384 0.950 . S
C1394 C1395 1.386 . S
C1394 C1396 1.391 . S
C1395 C1394 1.386 . S
C1395 C1399 1.393 . S
C1396 H1385 0.950 . S
C1396 C1394 1.391 . S
C1396 C1397 1.400 . S
C1397 C1391 1.491 . S
C1397 C1396 1.400 . S
C1397 C1398 1.398 . S
C1398 H1386 0.950 . S
C1398 C1397 1.398 . S
C1398 C1399 1.391 . S
C1399 H1387 0.950 . S
C1399 C1395 1.393 . S
C1399 C1398 1.391 . S
H1400 C1408 0.950 . S
H1401 C1413 0.950 1_655 S
H1402 C1410 0.950 . S
H1403 C1412 0.950 . S
H1404 C1414 0.950 . S
H1405 C1416 0.950 . S
H1406 C1418 0.950 . S
H1407 C1419 0.950 . S
C1408 H1400 0.950 . S
C1408 C1409 1.386 . S
C1408 C1410 1.391 . S
C1409 C1408 1.386 . S
C1409 C1413 1.393 . S
C1410 H1402 0.950 . S
C1410 C1408 1.391 . S
C1410 C1411 1.400 . S
C1411 C1410 1.400 . S
C1411 C1412 1.398 . S
C1411 C1417 1.491 . S
C1412 H1403 0.950 . S
C1412 C1411 1.398 . S
C1412 C1413 1.391 . S
C1413 H1401 0.950 1_455 S
C1413 C1409 1.393 . S
C1413 C1412 1.391 . S
C1414 H1404 0.950 . S
C1414 C1415 1.386 . S
C1414 C1416 1.391 . S
C1415 C1414 1.386 . S
C1415 C1419 1.393 . S
C1416 H1405 0.950 . S
C1416 C1414 1.391 . S
C1416 C1417 1.400 . S
C1417 C1411 1.491 . S
C1417 C1416 1.400 . S
C1417 C1418 1.398 . S
C1418 H1406 0.950 . S
C1418 C1417 1.398 . S
C1418 C1419 1.391 . S
C1419 H1407 0.950 . S
C1419 C1415 1.393 . S
C1419 C1418 1.391 . S
H1420 C1428 0.950 . S
H1421 C1433 0.950 . S
H1422 C1430 0.950 . S
H1423 C1432 0.950 . S
H1424 C1434 0.950 . S
H1425 C1436 0.950 . S
H1426 C1438 0.950 . S
H1427 C1439 0.950 . S
C1428 H1420 0.950 . S
C1428 C1429 1.386 . S
C1428 C1430 1.391 . S
C1429 C1428 1.386 . S
C1429 C1433 1.393 . S
C1430 H1422 0.950 . S
C1430 C1428 1.391 . S
C1430 C1431 1.400 . S
C1431 C1430 1.400 . S
C1431 C1432 1.398 . S
C1431 C1437 1.491 . S
C1432 H1423 0.950 . S
C1432 C1431 1.398 . S
C1432 C1433 1.391 . S
C1433 H1421 0.950 . S
C1433 C1429 1.393 . S
C1433 C1432 1.391 . S
C1434 H1424 0.950 . S
C1434 C1435 1.386 . S
C1434 C1436 1.391 . S
C1435 C1434 1.386 . S
C1435 C1439 1.393 . S
C1436 H1425 0.950 . S
C1436 C1434 1.391 . S
C1436 C1437 1.400 . S
C1437 C1431 1.491 . S
C1437 C1436 1.400 . S
C1437 C1438 1.398 . S
C1438 H1426 0.950 . S
C1438 C1437 1.398 . S
C1438 C1439 1.391 . S
C1439 H1427 0.950 . S
C1439 C1435 1.393 . S
C1439 C1438 1.391 . S
H1440 C1448 0.950 1_455 S
H1441 C1453 0.950 . S
H1442 C1450 0.950 . S
H1443 C1452 0.950 . S
H1444 C1454 0.950 . S
H1445 C1456 0.950 . S
H1446 C1458 0.950 . S
H1447 C1459 0.950 . S
C1448 H1440 0.950 1_655 S
C1448 C1449 1.386 . S
C1448 C1450 1.391 . S
C1449 C1448 1.386 . S
C1449 C1453 1.393 . S
C1450 H1442 0.950 . S
C1450 C1448 1.391 . S
C1450 C1451 1.400 . S
C1451 C1450 1.400 . S
C1451 C1452 1.398 . S
C1451 C1457 1.491 . S
C1452 H1443 0.950 . S
C1452 C1451 1.398 . S
C1452 C1453 1.391 . S
C1453 H1441 0.950 . S
C1453 C1449 1.393 . S
C1453 C1452 1.391 . S
C1454 H1444 0.950 . S
C1454 C1455 1.386 . S
C1454 C1456 1.391 . S
C1455 C1454 1.386 . S
C1455 C1459 1.393 . S
C1456 H1445 0.950 . S
C1456 C1454 1.391 . S
C1456 C1457 1.400 . S
C1457 C1451 1.491 . S
C1457 C1456 1.400 . S
C1457 C1458 1.398 . S
C1458 H1446 0.950 . S
C1458 C1457 1.398 . S
C1458 C1459 1.391 . S
C1459 H1447 0.950 . S
C1459 C1455 1.393 . S
C1459 C1458 1.391 . S
H1460 C1468 0.950 . S
H1461 C1473 0.950 . S
H1462 C1470 0.950 . S
H1463 C1472 0.950 . S
H1464 C1474 0.950 . S
H1465 C1476 0.950 . S
H1466 C1478 0.950 . S
H1467 C1479 0.950 . S
C1468 H1460 0.950 . S
C1468 C1469 1.386 . S
C1468 C1470 1.391 . S
C1469 C1468 1.386 . S
C1469 C1473 1.393 . S
C1470 H1462 0.950 . S
C1470 C1468 1.391 . S
C1470 C1471 1.400 . S
C1471 C1470 1.400 . S
C1471 C1472 1.398 . S
C1471 C1477 1.491 . S
C1472 H1463 0.950 . S
C1472 C1471 1.398 . S
C1472 C1473 1.391 . S
C1473 H1461 0.950 . S
C1473 C1469 1.393 . S
C1473 C1472 1.391 . S
C1474 H1464 0.950 . S
C1474 C1475 1.386 . S
C1474 C1476 1.391 . S
C1475 C1474 1.386 . S
C1475 C1479 1.393 . S
C1476 H1465 0.950 . S
C1476 C1474 1.391 . S
C1476 C1477 1.400 . S
C1477 C1471 1.491 . S
C1477 C1476 1.400 . S
C1477 C1478 1.398 . S
C1478 H1466 0.950 . S
C1478 C1477 1.398 . S
C1478 C1479 1.391 . S
C1479 H1467 0.950 . S
C1479 C1475 1.393 . S
C1479 C1478 1.391 . S
H1480 C1488 0.950 . S
H1481 C1493 0.950 1_455 S
H1482 C1490 0.950 . S
H1483 C1492 0.950 . S
H1484 C1494 0.950 . S
H1485 C1496 0.950 . S
H1486 C1498 0.950 . S
H1487 C1499 0.950 . S
C1488 H1480 0.950 . S
C1488 C1489 1.386 . S
C1488 C1490 1.391 . S
C1489 C1488 1.386 . S
C1489 C1493 1.393 . S
C1490 H1482 0.950 . S
C1490 C1488 1.391 . S
C1490 C1491 1.400 . S
C1491 C1490 1.400 . S
C1491 C1492 1.398 . S
C1491 C1497 1.491 . S
C1492 H1483 0.950 . S
C1492 C1491 1.398 . S
C1492 C1493 1.391 . S
C1493 H1481 0.950 1_655 S
C1493 C1489 1.393 . S
C1493 C1492 1.391 . S
C1494 H1484 0.950 . S
C1494 C1495 1.386 . S
C1494 C1496 1.391 . S
C1495 C1494 1.386 . S
C1495 C1499 1.393 . S
C1496 H1485 0.950 . S
C1496 C1494 1.391 . S
C1496 C1497 1.400 . S
C1497 C1491 1.491 . S
C1497 C1496 1.400 . S
C1497 C1498 1.398 . S
C1498 H1486 0.950 . S
C1498 C1497 1.398 . S
C1498 C1499 1.391 . S
C1499 H1487 0.950 . S
C1499 C1495 1.393 . S
C1499 C1498 1.391 . S
H1500 C1508 0.950 . S
H1501 C1513 0.950 . S
H1502 C1510 0.950 . S
H1503 C1512 0.950 . S
H1504 C1514 0.950 . S
H1505 C1516 0.950 . S
H1506 C1518 0.950 . S
H1507 C1519 0.950 . S
C1508 H1500 0.950 . S
C1508 C1509 1.386 . S
C1508 C1510 1.391 . S
C1509 C1508 1.386 . S
C1509 C1513 1.393 . S
C1510 H1502 0.950 . S
C1510 C1508 1.391 . S
C1510 C1511 1.400 . S
C1511 C1510 1.400 . S
C1511 C1512 1.398 . S
C1511 C1517 1.491 . S
C1512 H1503 0.950 . S
C1512 C1511 1.398 . S
C1512 C1513 1.391 . S
C1513 H1501 0.950 . S
C1513 C1509 1.393 . S
C1513 C1512 1.391 . S
C1514 H1504 0.950 . S
C1514 C1515 1.386 . S
C1514 C1516 1.391 . S
C1515 C1514 1.386 . S
C1515 C1519 1.393 . S
C1516 H1505 0.950 . S
C1516 C1514 1.391 . S
C1516 C1517 1.400 . S
C1517 C1511 1.491 . S
C1517 C1516 1.400 . S
C1517 C1518 1.398 . S
C1518 H1506 0.950 . S
C1518 C1517 1.398 . S
C1518 C1519 1.391 . S
C1519 H1507 0.950 . S
C1519 C1515 1.393 . S
C1519 C1518 1.391 . S
H1520 C1528 0.950 . S
H1521 C1533 0.950 . S
H1522 C1530 0.950 . S
H1523 C1532 0.950 . S
H1524 C1534 0.950 . S
H1525 C1536 0.950 . S
H1526 C1538 0.950 . S
H1527 C1539 0.950 . S
C1528 H1520 0.950 . S
C1528 C1529 1.386 . S
C1528 C1530 1.391 . S
C1529 C1528 1.386 . S
C1529 C1533 1.393 . S
C1530 H1522 0.950 . S
C1530 C1528 1.391 . S
C1530 C1531 1.400 . S
C1531 C1530 1.400 . S
C1531 C1532 1.398 . S
C1531 C1537 1.491 . S
C1532 H1523 0.950 . S
C1532 C1531 1.398 . S
C1532 C1533 1.391 . S
C1533 H1521 0.950 . S
C1533 C1529 1.393 . S
C1533 C1532 1.391 . S
C1534 H1524 0.950 . S
C1534 C1535 1.386 . S
C1534 C1536 1.391 . S
C1535 C1534 1.386 . S
C1535 C1539 1.393 . S
C1536 H1525 0.950 . S
C1536 C1534 1.391 . S
C1536 C1537 1.400 . S
C1537 C1531 1.491 . S
C1537 C1536 1.400 . S
C1537 C1538 1.398 . S
C1538 H1526 0.950 . S
C1538 C1537 1.398 . S
C1538 C1539 1.391 . S
C1539 H1527 0.950 . S
C1539 C1535 1.393 . S
C1539 C1538 1.391 . S
H1540 C1548 0.950 . S
H1541 C1553 0.950 . S
H1542 C1550 0.950 . S
H1543 C1552 0.950 . S
H1544 C1554 0.950 . S
H1545 C1556 0.950 . S
H1546 C1558 0.950 . S
H1547 C1559 0.950 . S
C1548 H1540 0.950 . S
C1548 C1549 1.386 . S
C1548 C1550 1.391 . S
C1549 C1548 1.386 . S
C1549 C1553 1.393 . S
C1550 H1542 0.950 . S
C1550 C1548 1.391 . S
C1550 C1551 1.400 . S
C1551 C1550 1.400 . S
C1551 C1552 1.398 . S
C1551 C1557 1.491 . S
C1552 H1543 0.950 . S
C1552 C1551 1.398 . S
C1552 C1553 1.391 . S
C1553 H1541 0.950 . S
C1553 C1549 1.393 . S
C1553 C1552 1.391 . S
C1554 H1544 0.950 . S
C1554 C1555 1.386 . S
C1554 C1556 1.391 . S
C1555 C1554 1.386 . S
C1555 C1559 1.393 . S
C1556 H1545 0.950 . S
C1556 C1554 1.391 . S
C1556 C1557 1.400 . S
C1557 C1551 1.491 . S
C1557 C1556 1.400 . S
C1557 C1558 1.398 . S
C1558 H1546 0.950 . S
C1558 C1557 1.398 . S
C1558 C1559 1.391 . S
C1559 H1547 0.950 . S
C1559 C1555 1.393 . S
C1559 C1558 1.391 . S
H1560 C1568 0.950 . S
H1561 C1573 0.950 . S
H1562 C1570 0.950 . S
H1563 C1572 0.950 . S
H1564 C1574 0.950 . S
H1565 C1576 0.950 . S
H1566 C1578 0.950 . S
H1567 C1579 0.950 . S
C1568 H1560 0.950 . S
C1568 C1569 1.386 . S
C1568 C1570 1.391 . S
C1569 C1568 1.386 . S
C1569 C1573 1.393 . S
C1570 H1562 0.950 . S
C1570 C1568 1.391 . S
C1570 C1571 1.400 . S
C1571 C1570 1.400 . S
C1571 C1572 1.398 . S
C1571 C1577 1.491 . S
C1572 H1563 0.950 . S
C1572 C1571 1.398 . S
C1572 C1573 1.391 . S
C1573 H1561 0.950 . S
C1573 C1569 1.393 . S
C1573 C1572 1.391 . S
C1574 H1564 0.950 . S
C1574 C1575 1.386 . S
C1574 C1576 1.391 . S
C1575 C1574 1.386 . S
C1575 C1579 1.393 . S
C1576 H1565 0.950 . S
C1576 C1574 1.391 . S
C1576 C1577 1.400 . S
C1577 C1571 1.491 . S
C1577 C1576 1.400 . S
C1577 C1578 1.398 . S
C1578 H1566 0.950 . S
C1578 C1577 1.398 . S
C1578 C1579 1.391 . S
C1579 H1567 0.950 . S
C1579 C1575 1.393 . S
C1579 C1578 1.391 . S
H1580 C1588 0.950 . S
H1581 C1593 0.950 . S
H1582 C1590 0.950 . S
H1583 C1592 0.950 . S
H1584 C1594 0.950 . S
H1585 C1596 0.950 . S
H1586 C1598 0.950 . S
H1587 C1599 0.950 . S
C1588 H1580 0.950 . S
C1588 C1589 1.386 . S
C1588 C1590 1.391 . S
C1589 C1588 1.386 . S
C1589 C1593 1.393 . S
C1590 H1582 0.950 . S
C1590 C1588 1.391 . S
C1590 C1591 1.400 . S
C1591 C1590 1.400 . S
C1591 C1592 1.398 . S
C1591 C1597 1.491 . S
C1592 H1583 0.950 . S
C1592 C1591 1.398 . S
C1592 C1593 1.391 . S
C1593 H1581 0.950 . S
C1593 C1589 1.393 . S
C1593 C1592 1.391 . S
C1594 H1584 0.950 . S
C1594 C1595 1.386 . S
C1594 C1596 1.391 . S
C1595 C1594 1.386 . S
C1595 C1599 1.393 . S
C1596 H1585 0.950 . S
C1596 C1594 1.391 . S
C1596 C1597 1.400 . S
C1597 C1591 1.491 . S
C1597 C1596 1.400 . S
C1597 C1598 1.398 . S
C1598 H1586 0.950 . S
C1598 C1597 1.398 . S
C1598 C1599 1.391 . S
C1599 H1587 0.950 . S
C1599 C1595 1.393 . S
C1599 C1598 1.391 . S
H1600 C1608 0.950 . S
H1601 C1613 0.950 . S
H1602 C1610 0.950 . S
H1603 C1612 0.950 . S
H1604 C1614 0.950 . S
H1605 C1616 0.950 . S
H1606 C1618 0.950 . S
H1607 C1619 0.950 . S
C1608 H1600 0.950 . S
C1608 C1609 1.386 . S
C1608 C1610 1.391 . S
C1609 C1608 1.386 . S
C1609 C1613 1.393 . S
C1610 H1602 0.950 . S
C1610 C1608 1.391 . S
C1610 C1611 1.400 . S
C1611 C1610 1.400 . S
C1611 C1612 1.398 . S
C1611 C1617 1.491 . S
C1612 H1603 0.950 . S
C1612 C1611 1.398 . S
C1612 C1613 1.391 . S
C1613 H1601 0.950 . S
C1613 C1609 1.393 . S
C1613 C1612 1.391 . S
C1614 H1604 0.950 . S
C1614 C1615 1.386 . S
C1614 C1616 1.391 . S
C1615 C1614 1.386 . S
C1615 C1619 1.393 . S
C1616 H1605 0.950 . S
C1616 C1614 1.391 . S
C1616 C1617 1.400 . S
C1617 C1611 1.491 . S
C1617 C1616 1.400 . S
C1617 C1618 1.398 . S
C1618 H1606 0.950 . S
C1618 C1617 1.398 . S
C1618 C1619 1.391 . S
C1619 H1607 0.950 . S
C1619 C1615 1.393 . S
C1619 C1618 1.391 . S
H1620 C1628 0.950 . S
H1621 C1633 0.950 . S
H1622 C1630 0.950 . S
H1623 C1632 0.950 . S
H1624 C1634 0.950 . S
H1625 C1636 0.950 . S
H1626 C1638 0.950 . S
H1627 C1639 0.950 . S
C1628 H1620 0.950 . S
C1628 C1629 1.386 . S
C1628 C1630 1.391 . S
C1629 C1628 1.386 . S
C1629 C1633 1.393 . S
C1630 H1622 0.950 . S
C1630 C1628 1.391 . S
C1630 C1631 1.400 . S
C1631 C1630 1.400 . S
C1631 C1632 1.398 . S
C1631 C1637 1.491 . S
C1632 H1623 0.950 . S
C1632 C1631 1.398 . S
C1632 C1633 1.391 . S
C1633 H1621 0.950 . S
C1633 C1629 1.393 . S
C1633 C1632 1.391 . S
C1634 H1624 0.950 . S
C1634 C1635 1.386 . S
C1634 C1636 1.391 . S
C1635 C1634 1.386 . S
C1635 C1639 1.393 . S
C1636 H1625 0.950 . S
C1636 C1634 1.391 . S
C1636 C1637 1.400 . S
C1637 C1631 1.491 . S
C1637 C1636 1.400 . S
C1637 C1638 1.398 . S
C1638 H1626 0.950 . S
C1638 C1637 1.398 . S
C1638 C1639 1.391 . S
C1639 H1627 0.950 . S
C1639 C1635 1.393 . S
C1639 C1638 1.391 . S
H1640 C1648 0.950 . S
H1641 C1653 0.950 . S
H1642 C1650 0.950 . S
H1643 C1652 0.950 . S
H1644 C1654 0.950 . S
H1645 C1656 0.950 . S
H1646 C1658 0.950 . S
H1647 C1659 0.950 . S
C1648 H1640 0.950 . S
C1648 C1649 1.386 . S
C1648 C1650 1.391 . S
C1649 C1648 1.386 . S
C1649 C1653 1.393 . S
C1650 H1642 0.950 . S
C1650 C1648 1.391 . S
C1650 C1651 1.400 . S
C1651 C1650 1.400 . S
C1651 C1652 1.398 . S
C1651 C1657 1.491 . S
C1652 H1643 0.950 . S
C1652 C1651 1.398 . S
C1652 C1653 1.391 . S
C1653 H1641 0.950 . S
C1653 C1649 1.393 . S
C1653 C1652 1.391 . S
C1654 H1644 0.950 . S
C1654 C1655 1.386 . S
C1654 C1656 1.391 . S
C1655 C1654 1.386 . S
C1655 C1659 1.393 . S
C1656 H1645 0.950 . S
C1656 C1654 1.391 . S
C1656 C1657 1.400 . S
C1657 C1651 1.491 . S
C1657 C1656 1.400 . S
C1657 C1658 1.398 . S
C1658 H1646 0.950 . S
C1658 C1657 1.398 . S
C1658 C1659 1.391 . S
C1659 H1647 0.950 . S
C1659 C1655 1.393 . S
C1659 C1658 1.391 . S
H1660 C1668 0.950 . S
H1661 C1673 0.950 . S
H1662 C1670 0.950 . S
H1663 C1672 0.950 . S
H1664 C1674 0.950 . S
H1665 C1676 0.950 . S
H1666 C1678 0.950 . S
H1667 C1679 0.950 . S
C1668 H1660 0.950 . S
C1668 C1669 1.386 . S
C1668 C1670 1.391 . S
C1669 C1668 1.386 . S
C1669 C1673 1.393 . S
C1670 H1662 0.950 . S
C1670 C1668 1.391 . S
C1670 C1671 1.400 . S
C1671 C1670 1.400 . S
C1671 C1672 1.398 . S
C1671 C1677 1.491 . S
C1672 H1663 0.950 . S
C1672 C1671 1.398 . S
C1672 C1673 1.391 . S
C1673 H1661 0.950 . S
C1673 C1669 1.393 . S
C1673 C1672 1.391 . S
C1674 H1664 0.950 . S
C1674 C1675 1.386 . S
C1674 C1676 1.391 . S
C1675 C1674 1.386 . S
C1675 C1679 1.393 . S
C1676 H1665 0.950 . S
C1676 C1674 1.391 . S
C1676 C1677 1.400 . S
C1677 C1671 1.491 . S
C1677 C1676 1.400 . S
C1677 C1678 1.398 . S
C1678 H1666 0.950 . S
C1678 C1677 1.398 . S
C1678 C1679 1.391 . S
C1679 H1667 0.950 . S
C1679 C1675 1.393 . S
C1679 C1678 1.391 . S
H1680 C1688 0.950 . S
H1681 C1693 0.950 . S
H1682 C1690 0.950 . S
H1683 C1692 0.950 . S
H1684 C1694 0.950 . S
H1685 C1696 0.950 . S
H1686 C1698 0.950 . S
H1687 C1699 0.950 . S
C1688 H1680 0.950 . S
C1688 C1689 1.386 . S
C1688 C1690 1.391 . S
C1689 C1688 1.386 . S
C1689 C1693 1.393 . S
C1690 H1682 0.950 . S
C1690 C1688 1.391 . S
C1690 C1691 1.400 . S
C1691 C1690 1.400 . S
C1691 C1692 1.398 . S
C1691 C1697 1.491 . S
C1692 H1683 0.950 . S
C1692 C1691 1.398 . S
C1692 C1693 1.391 . S
C1693 H1681 0.950 . S
C1693 C1689 1.393 . S
C1693 C1692 1.391 . S
C1694 H1684 0.950 . S
C1694 C1695 1.386 . S
C1694 C1696 1.391 . S
C1695 C1694 1.386 . S
C1695 C1699 1.393 . S
C1696 H1685 0.950 . S
C1696 C1694 1.391 . S
C1696 C1697 1.400 . S
C1697 C1691 1.491 . S
C1697 C1696 1.400 . S
C1697 C1698 1.398 . S
C1698 H1686 0.950 . S
C1698 C1697 1.398 . S
C1698 C1699 1.391 . S
C1699 H1687 0.950 . S
C1699 C1695 1.393 . S
C1699 C1698 1.391 . S
H1700 C1708 0.950 . S
H1701 C1713 0.950 . S
H1702 C1710 0.950 . S
H1703 C1712 0.950 . S
H1704 C1714 0.950 . S
H1705 C1716 0.950 . S
H1706 C1718 0.950 . S
H1707 C1719 0.950 . S
C1708 H1700 0.950 . S
C1708 C1709 1.386 . S
C1708 C1710 1.391 . S
C1709 C1708 1.386 . S
C1709 C1713 1.393 . S
C1710 H1702 0.950 . S
C1710 C1708 1.391 . S
C1710 C1711 1.400 . S
C1711 C1710 1.400 . S
C1711 C1712 1.398 . S
C1711 C1717 1.491 . S
C1712 H1703 0.950 . S
C1712 C1711 1.398 . S
C1712 C1713 1.391 . S
C1713 H1701 0.950 . S
C1713 C1709 1.393 . S
C1713 C1712 1.391 . S
C1714 H1704 0.950 . S
C1714 C1715 1.386 . S
C1714 C1716 1.391 . S
C1715 C1714 1.386 . S
C1715 C1719 1.393 . S
C1716 H1705 0.950 . S
C1716 C1714 1.391 . S
C1716 C1717 1.400 . S
C1717 C1711 1.491 . S
C1717 C1716 1.400 . S
C1717 C1718 1.398 . S
C1718 H1706 0.950 . S
C1718 C1717 1.398 . S
C1718 C1719 1.391 . S
C1719 H1707 0.950 . S
C1719 C1715 1.393 . S
C1719 C1718 1.391 . S
H1720 C1728 0.950 . S
H1721 C1733 0.950 . S
H1722 C1730 0.950 . S
H1723 C1732 0.950 . S
H1724 C1734 0.950 . S
H1725 C1736 0.950 . S
H1726 C1738 0.950 . S
H1727 C1739 0.950 . S
C1728 H1720 0.950 . S
C1728 C1729 1.386 . S
C1728 C1730 1.391 . S
C1729 C1728 1.386 . S
C1729 C1733 1.393 . S
C1730 H1722 0.950 . S
C1730 C1728 1.391 . S
C1730 C1731 1.400 . S
C1731 C1730 1.400 . S
C1731 C1732 1.398 . S
C1731 C1737 1.491 . S
C1732 H1723 0.950 . S
C1732 C1731 1.398 . S
C1732 C1733 1.391 . S
C1733 H1721 0.950 . S
C1733 C1729 1.393 . S
C1733 C1732 1.391 . S
C1734 H1724 0.950 . S
C1734 C1735 1.386 . S
C1734 C1736 1.391 . S
C1735 C1734 1.386 . S
C1735 C1739 1.393 . S
C1736 H1725 0.950 . S
C1736 C1734 1.391 . S
C1736 C1737 1.400 . S
C1737 C1731 1.491 . S
C1737 C1736 1.400 . S
C1737 C1738 1.398 . S
C1738 H1726 0.950 . S
C1738 C1737 1.398 . S
C1738 C1739 1.391 . S
C1739 H1727 0.950 . S
C1739 C1735 1.393 . S
C1739 C1738 1.391 . S
H1740 C1748 0.950 . S
H1741 C1753 0.950 . S
H1742 C1750 0.950 . S
H1743 C1752 0.950 . S
H1744 C1754 0.950 . S
H1745 C1756 0.950 . S
H1746 C1758 0.950 . S
H1747 C1759 0.950 . S
C1748 H1740 0.950 . S
C1748 C1749 1.386 . S
C1748 C1750 1.391 . S
C1749 C1748 1.386 . S
C1749 C1753 1.393 . S
C1750 H1742 0.950 . S
C1750 C1748 1.391 . S
C1750 C1751 1.400 . S
C1751 C1750 1.400 . S
C1751 C1752 1.398 . S
C1751 C1757 1.491 . S
C1752 H1743 0.950 . S
C1752 C1751 1.398 . S
C1752 C1753 1.391 . S
C1753 H1741 0.950 . S
C1753 C1749 1.393 . S
C1753 C1752 1.391 . S
C1754 H1744 0.950 . S
C1754 C1755 1.386 . S
C1754 C1756 1.391 . S
C1755 C1754 1.386 . S
C1755 C1759 1.393 . S
C1756 H1745 0.950 . S
C1756 C1754 1.391 . S
C1756 C1757 1.400 . S
C1757 C1751 1.491 . S
C1757 C1756 1.400 . S
C1757 C1758 1.398 . S
C1758 H1746 0.950 . S
C1758 C1757 1.398 . S
C1758 C1759 1.391 . S
C1759 H1747 0.950 . S
C1759 C1755 1.393 . S
C1759 C1758 1.391 . S
H1760 C1768 0.950 . S
H1761 C1773 0.950 . S
H1762 C1770 0.950 . S
H1763 C1772 0.950 . S
H1764 C1774 0.950 . S
H1765 C1776 0.950 . S
H1766 C1778 0.950 . S
H1767 C1779 0.950 . S
C1768 H1760 0.950 . S
C1768 C1769 1.386 . S
C1768 C1770 1.391 . S
C1769 C1768 1.386 . S
C1769 C1773 1.393 . S
C1770 H1762 0.950 . S
C1770 C1768 1.391 . S
C1770 C1771 1.400 . S
C1771 C1770 1.400 . S
C1771 C1772 1.398 . S
C1771 C1777 1.491 . S
C1772 H1763 0.950 . S
C1772 C1771 1.398 . S
C1772 C1773 1.391 . S
C1773 H1761 0.950 . S
C1773 C1769 1.393 . S
C1773 C1772 1.391 . S
C1774 H1764 0.950 . S
C1774 C1775 1.386 . S
C1774 C1776 1.391 . S
C1775 C1774 1.386 . S
C1775 C1779 1.393 . S
C1776 H1765 0.950 . S
C1776 C1774 1.391 . S
C1776 C1777 1.400 . S
C1777 C1771 1.491 . S
C1777 C1776 1.400 . S
C1777 C1778 1.398 . S
C1778 H1766 0.950 . S
C1778 C1777 1.398 . S
C1778 C1779 1.391 . S
C1779 H1767 0.950 . S
C1779 C1775 1.393 . S
C1779 C1778 1.391 . S
H1780 C1788 0.950 . S
H1781 C1793 0.950 . S
H1782 C1790 0.950 . S
H1783 C1792 0.950 . S
H1784 C1794 0.950 . S
H1785 C1796 0.950 . S
H1786 C1798 0.950 . S
H1787 C1799 0.950 . S
C1788 H1780 0.950 . S
C1788 C1789 1.386 . S
C1788 C1790 1.391 . S
C1789 C1788 1.386 . S
C1789 C1793 1.393 . S
C1790 H1782 0.950 . S
C1790 C1788 1.391 . S
C1790 C1791 1.400 . S
C1791 C1790 1.400 . S
C1791 C1792 1.398 . S
C1791 C1797 1.491 . S
C1792 H1783 0.950 . S
C1792 C1791 1.398 . S
C1792 C1793 1.391 . S
C1793 H1781 0.950 . S
C1793 C1789 1.393 . S
C1793 C1792 1.391 . S
C1794 H1784 0.950 . S
C1794 C1795 1.386 . S
C1794 C1796 1.391 . S
C1795 C1794 1.386 . S
C1795 C1799 1.393 . S
C1796 H1785 0.950 . S
C1796 C1794 1.391 . S
C1796 C1797 1.400 . S
C1797 C1791 1.491 . S
C1797 C1796 1.400 . S
C1797 C1798 1.398 . S
C1798 H1786 0.950 . S
C1798 C1797 1.398 . S
C1798 C1799 1.391 . S
C1799 H1787 0.950 . S
C1799 C1795 1.393 . S
C1799 C1798 1.391 . S
H1800 C1808 0.950 . S
H1801 C1813 0.950 . S
H1802 C1810 0.950 . S
H1803 C1812 0.950 . S
H1804 C1814 0.950 . S
H1805 C1816 0.950 . S
H1806 C1818 0.950 . S
H1807 C1819 0.950 . S
C1808 H1800 0.950 . S
C1808 C1809 1.386 . S
C1808 C1810 1.391 . S
C1809 C1808 1.386 . S
C1809 C1813 1.393 . S
C1810 H1802 0.950 . S
C1810 C1808 1.391 . S
C1810 C1811 1.400 . S
C1811 C1810 1.400 . S
C1811 C1812 1.398 . S
C1811 C1817 1.491 . S
C1812 H1803 0.950 . S
C1812 C1811 1.398 . S
C1812 C1813 1.391 . S
C1813 H1801 0.950 . S
C1813 C1809 1.393 . S
C1813 C1812 1.391 . S
C1814 H1804 0.950 . S
C1814 C1815 1.386 . S
C1814 C1816 1.391 . S
C1815 C1814 1.386 . S
C1815 C1819 1.393 . S
C1816 H1805 0.950 . S
C1816 C1814 1.391 . S
C1816 C1817 1.400 . S
C1817 C1811 1.491 . S
C1817 C1816 1.400 . S
C1817 C1818 1.398 . S
C1818 H1806 0.950 . S
C1818 C1817 1.398 . S
C1818 C1819 1.391 . S
C1819 H1807 0.950 . S
C1819 C1815 1.393 . S
C1819 C1818 1.391 . S
H1820 C1828 0.950 . S
H1821 C1833 0.950 . S
H1822 C1830 0.950 . S
H1823 C1832 0.950 . S
H1824 C1834 0.950 . S
H1825 C1836 0.950 . S
H1826 C1838 0.950 . S
H1827 C1839 0.950 . S
C1828 H1820 0.950 . S
C1828 C1829 1.386 . S
C1828 C1830 1.391 . S
C1829 C1828 1.386 . S
C1829 C1833 1.393 . S
C1830 H1822 0.950 . S
C1830 C1828 1.391 . S
C1830 C1831 1.400 . S
C1831 C1830 1.400 . S
C1831 C1832 1.398 . S
C1831 C1837 1.491 . S
C1832 H1823 0.950 . S
C1832 C1831 1.398 . S
C1832 C1833 1.391 . S
C1833 H1821 0.950 . S
C1833 C1829 1.393 . S
C1833 C1832 1.391 . S
C1834 H1824 0.950 . S
C1834 C1835 1.386 . S
C1834 C1836 1.391 . S
C1835 C1834 1.386 . S
C1835 C1839 1.393 . S
C1836 H1825 0.950 . S
C1836 C1834 1.391 . S
C1836 C1837 1.400 . S
C1837 C1831 1.491 . S
C1837 C1836 1.400 . S
C1837 C1838 1.398 . S
C1838 H1826 0.950 . S
C1838 C1837 1.398 . S
C1838 C1839 1.391 . S
C1839 H1827 0.950 . S
C1839 C1835 1.393 . S
C1839 C1838 1.391 . S
H1840 C1848 0.950 . S
H1841 C1853 0.950 . S
H1842 C1850 0.950 . S
H1843 C1852 0.950 . S
H1844 C1854 0.950 . S
H1845 C1856 0.950 . S
H1846 C1858 0.950 . S
H1847 C1859 0.950 . S
C1848 H1840 0.950 . S
C1848 C1849 1.386 . S
C1848 C1850 1.391 . S
C1849 C1848 1.386 . S
C1849 C1853 1.393 1_565 S
C1850 H1842 0.950 . S
C1850 C1848 1.391 . S
C1850 C1851 1.400 . S
C1851 C1850 1.400 . S
C1851 C1852 1.398 1_565 S
C1851 C1857 1.491 . S
C1852 H1843 0.950 . S
C1852 C1851 1.398 1_545 S
C1852 C1853 1.391 . S
C1853 H1841 0.950 . S
C1853 C1849 1.393 1_545 S
C1853 C1852 1.391 . S
C1854 H1844 0.950 . S
C1854 C1855 1.386 1_545 S
C1854 C1856 1.391 . S
C1855 C1854 1.386 1_565 S
C1855 C1859 1.393 . S
C1856 H1845 0.950 . S
C1856 C1854 1.391 . S
C1856 C1857 1.400 1_545 S
C1857 C1851 1.491 . S
C1857 C1856 1.400 1_565 S
C1857 C1858 1.398 . S
C1858 H1846 0.950 . S
C1858 C1857 1.398 . S
C1858 C1859 1.391 . S
C1859 H1847 0.950 . S
C1859 C1855 1.393 . S
C1859 C1858 1.391 . S
H1860 C1868 0.950 . S
H1861 C1873 0.950 . S
H1862 C1870 0.950 . S
H1863 C1872 0.950 . S
H1864 C1874 0.950 . S
H1865 C1876 0.950 . S
H1866 C1878 0.950 . S
H1867 C1879 0.950 . S
C1868 H1860 0.950 . S
C1868 C1869 1.386 . S
C1868 C1870 1.391 . S
C1869 C1868 1.386 . S
C1869 C1873 1.393 . S
C1870 H1862 0.950 . S
C1870 C1868 1.391 . S
C1870 C1871 1.400 . S
C1871 C1870 1.400 . S
C1871 C1872 1.398 . S
C1871 C1877 1.491 . S
C1872 H1863 0.950 . S
C1872 C1871 1.398 . S
C1872 C1873 1.391 . S
C1873 H1861 0.950 . S
C1873 C1869 1.393 . S
C1873 C1872 1.391 . S
C1874 H1864 0.950 . S
C1874 C1875 1.386 . S
C1874 C1876 1.391 . S
C1875 C1874 1.386 . S
C1875 C1879 1.393 . S
C1876 H1865 0.950 . S
C1876 C1874 1.391 . S
C1876 C1877 1.400 . S
C1877 C1871 1.491 . S
C1877 C1876 1.400 . S
C1877 C1878 1.398 . S
C1878 H1866 0.950 . S
C1878 C1877 1.398 . S
C1878 C1879 1.391 . S
C1879 H1867 0.950 . S
C1879 C1875 1.393 . S
C1879 C1878 1.391 . S
H1880 C1888 0.950 . S
H1881 C1893 0.950 . S
H1882 C1890 0.950 . S
H1883 C1892 0.950 . S
H1884 C1894 0.950 . S
H1885 C1896 0.950 . S
H1886 C1898 0.950 . S
H1887 C1899 0.950 . S
C1888 H1880 0.950 . S
C1888 C1889 1.386 . S
C1888 C1890 1.391 . S
C1889 C1888 1.386 . S
C1889 C1893 1.393 1_545 S
C1890 H1882 0.950 . S
C1890 C1888 1.391 . S
C1890 C1891 1.400 . S
C1891 C1890 1.400 . S
C1891 C1892 1.398 1_545 S
C1891 C1897 1.491 . S
C1892 H1883 0.950 . S
C1892 C1891 1.398 1_565 S
C1892 C1893 1.391 . S
C1893 H1881 0.950 . S
C1893 C1889 1.393 1_565 S
C1893 C1892 1.391 . S
C1894 H1884 0.950 . S
C1894 C1895 1.386 1_565 S
C1894 C1896 1.391 . S
C1895 C1894 1.386 1_545 S
C1895 C1899 1.393 . S
C1896 H1885 0.950 . S
C1896 C1894 1.391 . S
C1896 C1897 1.400 1_565 S
C1897 C1891 1.491 . S
C1897 C1896 1.400 1_545 S
C1897 C1898 1.398 . S
C1898 H1886 0.950 . S
C1898 C1897 1.398 . S
C1898 C1899 1.391 . S
C1899 H1887 0.950 . S
C1899 C1895 1.393 . S
C1899 C1898 1.391 . S
H1900 C1908 0.950 . S
H1901 C1913 0.950 . S
H1902 C1910 0.950 . S
H1903 C1912 0.950 . S
H1904 C1914 0.950 . S
H1905 C1916 0.950 . S
H1906 C1918 0.950 . S
H1907 C1919 0.950 . S
C1908 H1900 0.950 . S
C1908 C1909 1.386 . S
C1908 C1910 1.391 . S
C1909 C1908 1.386 . S
C1909 C1913 1.393 . S
C1910 H1902 0.950 . S
C1910 C1908 1.391 . S
C1910 C1911 1.400 . S
C1911 C1910 1.400 . S
C1911 C1912 1.398 . S
C1911 C1917 1.491 . S
C1912 H1903 0.950 . S
C1912 C1911 1.398 . S
C1912 C1913 1.391 . S
C1913 H1901 0.950 . S
C1913 C1909 1.393 . S
C1913 C1912 1.391 . S
C1914 H1904 0.950 . S
C1914 C1915 1.386 . S
C1914 C1916 1.391 . S
C1915 C1914 1.386 . S
C1915 C1919 1.393 . S
C1916 H1905 0.950 . S
C1916 C1914 1.391 . S
C1916 C1917 1.400 . S
C1917 C1911 1.491 . S
C1917 C1916 1.400 . S
C1917 C1918 1.398 . S
C1918 H1906 0.950 . S
C1918 C1917 1.398 . S
C1918 C1919 1.391 . S
C1919 H1907 0.950 . S
C1919 C1915 1.393 . S
C1919 C1918 1.391 . S
H1920 C1928 0.950 . S
H1921 C1933 0.950 . S
H1922 C1930 0.950 . S
H1923 C1932 0.950 . S
H1924 C1934 0.950 . S
H1925 C1936 0.950 . S
H1926 C1938 0.950 . S
H1927 C1939 0.950 . S
C1928 H1920 0.950 . S
C1928 C1929 1.386 . S
C1928 C1930 1.391 . S
C1929 C1928 1.386 . S
C1929 C1933 1.393 . S
C1930 H1922 0.950 . S
C1930 C1928 1.391 . S
C1930 C1931 1.400 . S
C1931 C1930 1.400 . S
C1931 C1932 1.398 . S
C1931 C1937 1.491 . S
C1932 H1923 0.950 . S
C1932 C1931 1.398 . S
C1932 C1933 1.391 . S
C1933 H1921 0.950 . S
C1933 C1929 1.393 . S
C1933 C1932 1.391 . S
C1934 H1924 0.950 . S
C1934 C1935 1.386 . S
C1934 C1936 1.391 . S
C1935 C1934 1.386 . S
C1935 C1939 1.393 . S
C1936 H1925 0.950 . S
C1936 C1934 1.391 . S
C1936 C1937 1.400 . S
C1937 C1931 1.491 . S
C1937 C1936 1.400 . S
C1937 C1938 1.398 . S
C1938 H1926 0.950 . S
C1938 C1937 1.398 . S
C1938 C1939 1.391 . S
C1939 H1927 0.950 . S
C1939 C1935 1.393 . S
C1939 C1938 1.391 . S
H1940 C1948 0.950 . S
H1941 C1953 0.950 . S
H1942 C1950 0.950 . S
H1943 C1952 0.950 . S
H1944 C1954 0.950 . S
H1945 C1956 0.950 . S
H1946 C1958 0.950 . S
H1947 C1959 0.950 . S
C1948 H1940 0.950 . S
C1948 C1949 1.386 . S
C1948 C1950 1.391 . S
C1949 C1948 1.386 . S
C1949 C1953 1.393 . S
C1950 H1942 0.950 . S
C1950 C1948 1.391 . S
C1950 C1951 1.400 . S
C1951 C1950 1.400 . S
C1951 C1952 1.398 . S
C1951 C1957 1.491 . S
C1952 H1943 0.950 . S
C1952 C1951 1.398 . S
C1952 C1953 1.391 . S
C1953 H1941 0.950 . S
C1953 C1949 1.393 . S
C1953 C1952 1.391 . S
C1954 H1944 0.950 . S
C1954 C1955 1.386 . S
C1954 C1956 1.391 . S
C1955 C1954 1.386 . S
C1955 C1959 1.393 . S
C1956 H1945 0.950 . S
C1956 C1954 1.391 . S
C1956 C1957 1.400 . S
C1957 C1951 1.491 . S
C1957 C1956 1.400 . S
C1957 C1958 1.398 . S
C1958 H1946 0.950 . S
C1958 C1957 1.398 . S
C1958 C1959 1.391 . S
C1959 H1947 0.950 . S
C1959 C1955 1.393 . S
C1959 C1958 1.391 . S
H1960 C1968 0.950 . S
H1961 C1973 0.950 . S
H1962 C1970 0.950 . S
H1963 C1972 0.950 . S
H1964 C1974 0.950 . S
H1965 C1976 0.950 . S
H1966 C1978 0.950 . S
H1967 C1979 0.950 . S
C1968 H1960 0.950 . S
C1968 C1969 1.386 . S
C1968 C1970 1.391 . S
C1969 C1968 1.386 . S
C1969 C1973 1.393 . S
C1970 H1962 0.950 . S
C1970 C1968 1.391 . S
C1970 C1971 1.400 . S
C1971 C1970 1.400 . S
C1971 C1972 1.398 . S
C1971 C1977 1.491 . S
C1972 H1963 0.950 . S
C1972 C1971 1.398 . S
C1972 C1973 1.391 . S
C1973 H1961 0.950 . S
C1973 C1969 1.393 . S
C1973 C1972 1.391 . S
C1974 H1964 0.950 . S
C1974 C1975 1.386 . S
C1974 C1976 1.391 . S
C1975 C1974 1.386 . S
C1975 C1979 1.393 . S
C1976 H1965 0.950 . S
C1976 C1974 1.391 . S
C1976 C1977 1.400 . S
C1977 C1971 1.491 . S
C1977 C1976 1.400 . S
C1977 C1978 1.398 . S
C1978 H1966 0.950 . S
C1978 C1977 1.398 . S
C1978 C1979 1.391 . S
C1979 H1967 0.950 . S
C1979 C1975 1.393 . S
C1979 C1978 1.391 . S
H1980 C1988 0.950 . S
H1981 C1993 0.950 . S
H1982 C1990 0.950 . S
H1983 C1992 0.950 . S
H1984 C1994 0.950 . S
H1985 C1996 0.950 . S
H1986 C1998 0.950 . S
H1987 C1999 0.950 . S
C1988 H1980 0.950 . S
C1988 C1989 1.386 . S
C1988 C1990 1.391 . S
C1989 C1988 1.386 . S
C1989 C1993 1.393 . S
C1990 H1982 0.950 . S
C1990 C1988 1.391 . S
C1990 C1991 1.400 . S
C1991 C1990 1.400 . S
C1991 C1992 1.398 . S
C1991 C1997 1.491 . S
C1992 H1983 0.950 . S
C1992 C1991 1.398 . S
C1992 C1993 1.391 . S
C1993 H1981 0.950 . S
C1993 C1989 1.393 . S
C1993 C1992 1.391 . S
C1994 H1984 0.950 . S
C1994 C1995 1.386 . S
C1994 C1996 1.391 . S
C1995 C1994 1.386 . S
C1995 C1999 1.393 . S
C1996 H1985 0.950 . S
C1996 C1994 1.391 . S
C1996 C1997 1.400 . S
C1997 C1991 1.491 . S
C1997 C1996 1.400 . S
C1997 C1998 1.398 . S
C1998 H1986 0.950 . S
C1998 C1997 1.398 . S
C1998 C1999 1.391 . S
C1999 H1987 0.950 . S
C1999 C1995 1.393 . S
C1999 C1998 1.391 . S
H2000 C2008 0.950 . S
H2001 C2013 0.950 . S
H2002 C2010 0.950 . S
H2003 C2012 0.950 . S
H2004 C2014 0.950 . S
H2005 C2016 0.950 . S
H2006 C2018 0.950 . S
H2007 C2019 0.950 . S
C2008 H2000 0.950 . S
C2008 C2009 1.386 . S
C2008 C2010 1.391 . S
C2009 C2008 1.386 . S
C2009 C2013 1.393 . S
C2010 H2002 0.950 . S
C2010 C2008 1.391 . S
C2010 C2011 1.400 . S
C2011 C2010 1.400 . S
C2011 C2012 1.398 . S
C2011 C2017 1.491 . S
C2012 H2003 0.950 . S
C2012 C2011 1.398 . S
C2012 C2013 1.391 . S
C2013 H2001 0.950 . S
C2013 C2009 1.393 . S
C2013 C2012 1.391 . S
C2014 H2004 0.950 . S
C2014 C2015 1.386 . S
C2014 C2016 1.391 . S
C2015 C2014 1.386 . S
C2015 C2019 1.393 . S
C2016 H2005 0.950 . S
C2016 C2014 1.391 . S
C2016 C2017 1.400 . S
C2017 C2011 1.491 . S
C2017 C2016 1.400 . S
C2017 C2018 1.398 . S
C2018 H2006 0.950 . S
C2018 C2017 1.398 . S
C2018 C2019 1.391 . S
C2019 H2007 0.950 . S
C2019 C2015 1.393 . S
C2019 C2018 1.391 . S
H2020 C2028 0.950 . S
H2021 C2033 0.950 . S
H2022 C2030 0.950 . S
H2023 C2032 0.950 . S
H2024 C2034 0.950 . S
H2025 C2036 0.950 . S
H2026 C2038 0.950 . S
H2027 C2039 0.950 . S
C2028 H2020 0.950 . S
C2028 C2029 1.386 . S
C2028 C2030 1.391 . S
C2029 C2028 1.386 . S
C2029 C2033 1.393 . S
C2030 H2022 0.950 . S
C2030 C2028 1.391 . S
C2030 C2031 1.400 . S
C2031 C2030 1.400 . S
C2031 C2032 1.398 . S
C2031 C2037 1.491 . S
C2032 H2023 0.950 . S
C2032 C2031 1.398 . S
C2032 C2033 1.391 . S
C2033 H2021 0.950 . S
C2033 C2029 1.393 . S
C2033 C2032 1.391 . S
C2034 H2024 0.950 . S
C2034 C2035 1.386 . S
C2034 C2036 1.391 . S
C2035 C2034 1.386 . S
C2035 C2039 1.393 . S
C2036 H2025 0.950 . S
C2036 C2034 1.391 . S
C2036 C2037 1.400 . S
C2037 C2031 1.491 . S
C2037 C2036 1.400 . S
C2037 C2038 1.398 . S
C2038 H2026 0.950 . S
C2038 C2037 1.398 . S
C2038 C2039 1.391 . S
C2039 H2027 0.950 . S
C2039 C2035 1.393 . S
C2039 C2038 1.391 . S
H2040 C2048 0.950 . S
H2041 C2053 0.950 . S
H2042 C2050 0.950 . S
H2043 C2052 0.950 . S
H2044 C2054 0.950 . S
H2045 C2056 0.950 . S
H2046 C2058 0.950 . S
H2047 C2059 0.950 . S
C2048 H2040 0.950 . S
C2048 C2049 1.386 . S
C2048 C2050 1.391 . S
C2049 C2048 1.386 . S
C2049 C2053 1.393 . S
C2050 H2042 0.950 . S
C2050 C2048 1.391 . S
C2050 C2051 1.400 . S
C2051 C2050 1.400 . S
C2051 C2052 1.398 . S
C2051 C2057 1.491 . S
C2052 H2043 0.950 . S
C2052 C2051 1.398 . S
C2052 C2053 1.391 . S
C2053 H2041 0.950 . S
C2053 C2049 1.393 . S
C2053 C2052 1.391 . S
C2054 H2044 0.950 . S
C2054 C2055 1.386 . S
C2054 C2056 1.391 . S
C2055 C2054 1.386 . S
C2055 C2059 1.393 . S
C2056 H2045 0.950 . S
C2056 C2054 1.391 . S
C2056 C2057 1.400 . S
C2057 C2051 1.491 . S
C2057 C2056 1.400 . S
C2057 C2058 1.398 . S
C2058 H2046 0.950 . S
C2058 C2057 1.398 . S
C2058 C2059 1.391 . S
C2059 H2047 0.950 . S
C2059 C2055 1.393 . S
C2059 C2058 1.391 . S
H2060 C2068 0.950 . S
H2061 C2073 0.950 . S
H2062 C2070 0.950 . S
H2063 C2072 0.950 . S
H2064 C2074 0.950 . S
H2065 C2076 0.950 . S
H2066 C2078 0.950 . S
H2067 C2079 0.950 . S
C2068 H2060 0.950 . S
C2068 C2069 1.386 . S
C2068 C2070 1.391 . S
C2069 C2068 1.386 . S
C2069 C2073 1.393 . S
C2070 H2062 0.950 . S
C2070 C2068 1.391 . S
C2070 C2071 1.400 . S
C2071 C2070 1.400 . S
C2071 C2072 1.398 . S
C2071 C2077 1.491 . S
C2072 H2063 0.950 . S
C2072 C2071 1.398 . S
C2072 C2073 1.391 . S
C2073 H2061 0.950 . S
C2073 C2069 1.393 . S
C2073 C2072 1.391 . S
C2074 H2064 0.950 . S
C2074 C2075 1.386 . S
C2074 C2076 1.391 . S
C2075 C2074 1.386 . S
C2075 C2079 1.393 . S
C2076 H2065 0.950 . S
C2076 C2074 1.391 . S
C2076 C2077 1.400 . S
C2077 C2071 1.491 . S
C2077 C2076 1.400 . S
C2077 C2078 1.398 . S
C2078 H2066 0.950 . S
C2078 C2077 1.398 . S
C2078 C2079 1.391 . S
C2079 H2067 0.950 . S
C2079 C2075 1.393 . S
C2079 C2078 1.391 . S
H2080 C2088 0.950 . S
H2081 C2093 0.950 . S
H2082 C2090 0.950 . S
H2083 C2092 0.950 . S
H2084 C2094 0.950 . S
H2085 C2096 0.950 . S
H2086 C2098 0.950 . S
H2087 C2099 0.950 . S
C2088 H2080 0.950 . S
C2088 C2089 1.386 . S
C2088 C2090 1.391 . S
C2089 C2088 1.386 . S
C2089 C2093 1.393 . S
C2090 H2082 0.950 . S
C2090 C2088 1.391 . S
C2090 C2091 1.400 . S
C2091 C2090 1.400 . S
C2091 C2092 1.398 . S
C2091 C2097 1.491 . S
C2092 H2083 0.950 . S
C2092 C2091 1.398 . S
C2092 C2093 1.391 . S
C2093 H2081 0.950 . S
C2093 C2089 1.393 . S
C2093 C2092 1.391 . S
C2094 H2084 0.950 . S
C2094 C2095 1.386 . S
C2094 C2096 1.391 . S
C2095 C2094 1.386 . S
C2095 C2099 1.393 . S
C2096 H2085 0.950 . S
C2096 C2094 1.391 . S
C2096 C2097 1.400 . S
C2097 C2091 1.491 . S
C2097 C2096 1.400 . S
C2097 C2098 1.398 . S
C2098 H2086 0.950 . S
C2098 C2097 1.398 . S
C2098 C2099 1.391 . S
C2099 H2087 0.950 . S
C2099 C2095 1.393 . S
C2099 C2098 1.391 . S
H2100 C2108 0.950 . S
H2101 C2113 0.950 . S
H2102 C2110 0.950 . S
H2103 C2112 0.950 . S
H2104 C2114 0.950 . S
H2105 C2116 0.950 . S
H2106 C2118 0.950 . S
H2107 C2119 0.950 . S
C2108 H2100 0.950 . S
C2108 C2109 1.386 . S
C2108 C2110 1.391 . S
C2109 C2108 1.386 . S
C2109 C2113 1.393 . S
C2110 H2102 0.950 . S
C2110 C2108 1.391 . S
C2110 C2111 1.400 . S
C2111 C2110 1.400 . S
C2111 C2112 1.398 . S
C2111 C2117 1.491 . S
C2112 H2103 0.950 . S
C2112 C2111 1.398 . S
C2112 C2113 1.391 . S
C2113 H2101 0.950 . S
C2113 C2109 1.393 . S
C2113 C2112 1.391 . S
C2114 H2104 0.950 . S
C2114 C2115 1.386 . S
C2114 C2116 1.391 . S
C2115 C2114 1.386 . S
C2115 C2119 1.393 . S
C2116 H2105 0.950 . S
C2116 C2114 1.391 . S
C2116 C2117 1.400 . S
C2117 C2111 1.491 . S
C2117 C2116 1.400 . S
C2117 C2118 1.398 . S
C2118 H2106 0.950 . S
C2118 C2117 1.398 . S
C2118 C2119 1.391 . S
C2119 H2107 0.950 . S
C2119 C2115 1.393 . S
C2119 C2118 1.391 . S
H2120 C2128 0.950 . S
H2121 C2133 0.950 . S
H2122 C2130 0.950 . S
H2123 C2132 0.950 . S
H2124 C2134 0.950 . S
H2125 C2136 0.950 . S
H2126 C2138 0.950 . S
H2127 C2139 0.950 . S
C2128 H2120 0.950 . S
C2128 C2129 1.386 . S
C2128 C2130 1.391 . S
C2129 C2128 1.386 . S
C2129 C2133 1.393 . S
C2130 H2122 0.950 . S
C2130 C2128 1.391 . S
C2130 C2131 1.400 . S
C2131 C2130 1.400 . S
C2131 C2132 1.398 . S
C2131 C2137 1.491 . S
C2132 H2123 0.950 . S
C2132 C2131 1.398 . S
C2132 C2133 1.391 . S
C2133 H2121 0.950 . S
C2133 C2129 1.393 . S
C2133 C2132 1.391 . S
C2134 H2124 0.950 . S
C2134 C2135 1.386 . S
C2134 C2136 1.391 . S
C2135 C2134 1.386 . S
C2135 C2139 1.393 . S
C2136 H2125 0.950 . S
C2136 C2134 1.391 . S
C2136 C2137 1.400 . S
C2137 C2131 1.491 . S
C2137 C2136 1.400 . S
C2137 C2138 1.398 . S
C2138 H2126 0.950 . S
C2138 C2137 1.398 . S
C2138 C2139 1.391 . S
C2139 H2127 0.950 . S
C2139 C2135 1.393 . S
C2139 C2138 1.391 . S
H2140 C2148 0.950 . S
H2141 C2153 0.950 . S
H2142 C2150 0.950 . S
H2143 C2152 0.950 . S
H2144 C2154 0.950 . S
H2145 C2156 0.950 . S
H2146 C2158 0.950 . S
H2147 C2159 0.950 . S
C2148 H2140 0.950 . S
C2148 C2149 1.386 . S
C2148 C2150 1.391 . S
C2149 C2148 1.386 . S
C2149 C2153 1.393 . S
C2150 H2142 0.950 . S
C2150 C2148 1.391 . S
C2150 C2151 1.400 . S
C2151 C2150 1.400 . S
C2151 C2152 1.398 . S
C2151 C2157 1.491 . S
C2152 H2143 0.950 . S
C2152 C2151 1.398 . S
C2152 C2153 1.391 . S
C2153 H2141 0.950 . S
C2153 C2149 1.393 . S
C2153 C2152 1.391 . S
C2154 H2144 0.950 . S
C2154 C2155 1.386 . S
C2154 C2156 1.391 . S
C2155 C2154 1.386 . S
C2155 C2159 1.393 . S
C2156 H2145 0.950 . S
C2156 C2154 1.391 . S
C2156 C2157 1.400 . S
C2157 C2151 1.491 . S
C2157 C2156 1.400 . S
C2157 C2158 1.398 . S
C2158 H2146 0.950 . S
C2158 C2157 1.398 . S
C2158 C2159 1.391 . S
C2159 H2147 0.950 . S
C2159 C2155 1.393 . S
C2159 C2158 1.391 . S
H2160 C2168 0.950 . S
H2161 C2173 0.950 . S
H2162 C2170 0.950 . S
H2163 C2172 0.950 . S
H2164 C2174 0.950 . S
H2165 C2176 0.950 . S
H2166 C2178 0.950 . S
H2167 C2179 0.950 . S
C2168 H2160 0.950 . S
C2168 C2169 1.386 . S
C2168 C2170 1.391 . S
C2169 C2168 1.386 . S
C2169 C2173 1.393 . S
C2170 H2162 0.950 . S
C2170 C2168 1.391 . S
C2170 C2171 1.400 . S
C2171 C2170 1.400 . S
C2171 C2172 1.398 . S
C2171 C2177 1.491 . S
C2172 H2163 0.950 . S
C2172 C2171 1.398 . S
C2172 C2173 1.391 . S
C2173 H2161 0.950 . S
C2173 C2169 1.393 . S
C2173 C2172 1.391 . S
C2174 H2164 0.950 . S
C2174 C2175 1.386 . S
C2174 C2176 1.391 . S
C2175 C2174 1.386 . S
C2175 C2179 1.393 . S
C2176 H2165 0.950 . S
C2176 C2174 1.391 . S
C2176 C2177 1.400 . S
C2177 C2171 1.491 . S
C2177 C2176 1.400 . S
C2177 C2178 1.398 . S
C2178 H2166 0.950 . S
C2178 C2177 1.398 . S
C2178 C2179 1.391 . S
C2179 H2167 0.950 . S
C2179 C2175 1.393 . S
C2179 C2178 1.391 . S
H2180 C2188 0.950 . S
H2181 C2193 0.950 . S
H2182 C2190 0.950 . S
H2183 C2192 0.950 . S
H2184 C2194 0.950 . S
H2185 C2196 0.950 . S
H2186 C2198 0.950 . S
H2187 C2199 0.950 . S
C2188 H2180 0.950 . S
C2188 C2189 1.386 . S
C2188 C2190 1.391 . S
C2189 C2188 1.386 . S
C2189 C2193 1.393 . S
C2190 H2182 0.950 . S
C2190 C2188 1.391 . S
C2190 C2191 1.400 . S
C2191 C2190 1.400 . S
C2191 C2192 1.398 . S
C2191 C2197 1.491 . S
C2192 H2183 0.950 . S
C2192 C2191 1.398 . S
C2192 C2193 1.391 . S
C2193 H2181 0.950 . S
C2193 C2189 1.393 . S
C2193 C2192 1.391 . S
C2194 H2184 0.950 . S
C2194 C2195 1.386 . S
C2194 C2196 1.391 . S
C2195 C2194 1.386 . S
C2195 C2199 1.393 . S
C2196 H2185 0.950 . S
C2196 C2194 1.391 . S
C2196 C2197 1.400 . S
C2197 C2191 1.491 . S
C2197 C2196 1.400 . S
C2197 C2198 1.398 . S
C2198 H2186 0.950 . S
C2198 C2197 1.398 . S
C2198 C2199 1.391 . S
C2199 H2187 0.950 . S
C2199 C2195 1.393 . S
C2199 C2198 1.391 . S
H2200 C2208 0.950 . S
H2201 C2213 0.950 . S
H2202 C2210 0.950 . S
H2203 C2212 0.950 . S
H2204 C2214 0.950 . S
H2205 C2216 0.950 . S
H2206 C2218 0.950 . S
H2207 C2219 0.950 . S
C2208 H2200 0.950 . S
C2208 C2209 1.386 . S
C2208 C2210 1.391 . S
C2209 C2208 1.386 . S
C2209 C2213 1.393 . S
C2210 H2202 0.950 . S
C2210 C2208 1.391 . S
C2210 C2211 1.400 . S
C2211 C2210 1.400 . S
C2211 C2212 1.398 . S
C2211 C2217 1.491 . S
C2212 H2203 0.950 . S
C2212 C2211 1.398 . S
C2212 C2213 1.391 . S
C2213 H2201 0.950 . S
C2213 C2209 1.393 . S
C2213 C2212 1.391 . S
C2214 H2204 0.950 . S
C2214 C2215 1.386 . S
C2214 C2216 1.391 . S
C2215 C2214 1.386 . S
C2215 C2219 1.393 . S
C2216 H2205 0.950 . S
C2216 C2214 1.391 . S
C2216 C2217 1.400 . S
C2217 C2211 1.491 . S
C2217 C2216 1.400 . S
C2217 C2218 1.398 . S
C2218 H2206 0.950 . S
C2218 C2217 1.398 . S
C2218 C2219 1.391 . S
C2219 H2207 0.950 . S
C2219 C2215 1.393 . S
C2219 C2218 1.391 . S
H2220 C2228 0.950 . S
H2221 C2233 0.950 . S
H2222 C2230 0.950 . S
H2223 C2232 0.950 . S
H2224 C2234 0.950 . S
H2225 C2236 0.950 . S
H2226 C2238 0.950 . S
H2227 C2239 0.950 . S
C2228 H2220 0.950 . S
C2228 C2229 1.386 . S
C2228 C2230 1.391 . S
C2229 C2228 1.386 . S
C2229 C2233 1.393 . S
C2230 H2222 0.950 . S
C2230 C2228 1.391 . S
C2230 C2231 1.400 . S
C2231 C2230 1.400 . S
C2231 C2232 1.398 . S
C2231 C2237 1.491 . S
C2232 H2223 0.950 . S
C2232 C2231 1.398 . S
C2232 C2233 1.391 . S
C2233 H2221 0.950 . S
C2233 C2229 1.393 . S
C2233 C2232 1.391 . S
C2234 H2224 0.950 . S
C2234 C2235 1.386 . S
C2234 C2236 1.391 . S
C2235 C2234 1.386 . S
C2235 C2239 1.393 . S
C2236 H2225 0.950 . S
C2236 C2234 1.391 . S
C2236 C2237 1.400 . S
C2237 C2231 1.491 . S
C2237 C2236 1.400 . S
C2237 C2238 1.398 . S
C2238 H2226 0.950 . S
C2238 C2237 1.398 . S
C2238 C2239 1.391 . S
C2239 H2227 0.950 . S
C2239 C2235 1.393 . S
C2239 C2238 1.391 . S
H2240 C2248 0.950 . S
H2241 C2253 0.950 . S
H2242 C2250 0.950 . S
H2243 C2252 0.950 . S
H2244 C2254 0.950 . S
H2245 C2256 0.950 . S
H2246 C2258 0.950 . S
H2247 C2259 0.950 . S
C2248 H2240 0.950 . S
C2248 C2249 1.386 . S
C2248 C2250 1.391 . S
C2249 C2248 1.386 . S
C2249 C2253 1.393 . S
C2250 H2242 0.950 . S
C2250 C2248 1.391 . S
C2250 C2251 1.400 . S
C2251 C2250 1.400 . S
C2251 C2252 1.398 . S
C2251 C2257 1.491 . S
C2252 H2243 0.950 . S
C2252 C2251 1.398 . S
C2252 C2253 1.391 . S
C2253 H2241 0.950 . S
C2253 C2249 1.393 . S
C2253 C2252 1.391 . S
C2254 H2244 0.950 . S
C2254 C2255 1.386 . S
C2254 C2256 1.391 . S
C2255 C2254 1.386 . S
C2255 C2259 1.393 . S
C2256 H2245 0.950 . S
C2256 C2254 1.391 . S
C2256 C2257 1.400 . S
C2257 C2251 1.491 . S
C2257 C2256 1.400 . S
C2257 C2258 1.398 . S
C2258 H2246 0.950 . S
C2258 C2257 1.398 . S
C2258 C2259 1.391 . S
C2259 H2247 0.950 . S
C2259 C2255 1.393 . S
C2259 C2258 1.391 . S
H2260 C2268 0.950 . S
H2261 C2273 0.950 . S
H2262 C2270 0.950 . S
H2263 C2272 0.950 . S
H2264 C2274 0.950 . S
H2265 C2276 0.950 . S
H2266 C2278 0.950 . S
H2267 C2279 0.950 . S
C2268 H2260 0.950 . S
C2268 C2269 1.386 . S
C2268 C2270 1.391 . S
C2269 C2268 1.386 . S
C2269 C2273 1.393 . S
C2270 H2262 0.950 . S
C2270 C2268 1.391 . S
C2270 C2271 1.400 . S
C2271 C2270 1.400 . S
C2271 C2272 1.398 . S
C2271 C2277 1.491 . S
C2272 H2263 0.950 . S
C2272 C2271 1.398 . S
C2272 C2273 1.391 . S
C2273 H2261 0.950 . S
C2273 C2269 1.393 . S
C2273 C2272 1.391 . S
C2274 H2264 0.950 . S
C2274 C2275 1.386 . S
C2274 C2276 1.391 . S
C2275 C2274 1.386 . S
C2275 C2279 1.393 . S
C2276 H2265 0.950 . S
C2276 C2274 1.391 . S
C2276 C2277 1.400 . S
C2277 C2271 1.491 . S
C2277 C2276 1.400 . S
C2277 C2278 1.398 . S
C2278 H2266 0.950 . S
C2278 C2277 1.398 . S
C2278 C2279 1.391 . S
C2279 H2267 0.950 . S
C2279 C2275 1.393 . S
C2279 C2278 1.391 . S
H2280 C2288 0.950 . S
H2281 C2293 0.950 . S
H2282 C2290 0.950 . S
H2283 C2292 0.950 . S
H2284 C2294 0.950 . S
H2285 C2296 0.950 . S
H2286 C2298 0.950 . S
H2287 C2299 0.950 . S
C2288 H2280 0.950 . S
C2288 C2289 1.386 . S
C2288 C2290 1.391 . S
C2289 C2288 1.386 . S
C2289 C2293 1.393 . S
C2290 H2282 0.950 . S
C2290 C2288 1.391 . S
C2290 C2291 1.400 . S
C2291 C2290 1.400 . S
C2291 C2292 1.398 . S
C2291 C2297 1.491 . S
C2292 H2283 0.950 . S
C2292 C2291 1.398 . S
C2292 C2293 1.391 . S
C2293 H2281 0.950 . S
C2293 C2289 1.393 . S
C2293 C2292 1.391 . S
C2294 H2284 0.950 . S
C2294 C2295 1.386 . S
C2294 C2296 1.391 . S
C2295 C2294 1.386 . S
C2295 C2299 1.393 . S
C2296 H2285 0.950 . S
C2296 C2294 1.391 . S
C2296 C2297 1.400 . S
C2297 C2291 1.491 . S
C2297 C2296 1.400 . S
C2297 C2298 1.398 . S
C2298 H2286 0.950 . S
C2298 C2297 1.398 . S
C2298 C2299 1.391 . S
C2299 H2287 0.950 . S
C2299 C2295 1.393 . S
C2299 C2298 1.391 . S
H2300 C2308 0.950 . S
H2301 C2313 0.950 . S
H2302 C2310 0.950 . S
H2303 C2312 0.950 . S
H2304 C2314 0.950 . S
H2305 C2316 0.950 . S
H2306 C2318 0.950 . S
H2307 C2319 0.950 . S
C2308 H2300 0.950 . S
C2308 C2309 1.386 . S
C2308 C2310 1.391 . S
C2309 C2308 1.386 . S
C2309 C2313 1.393 . S
C2310 H2302 0.950 . S
C2310 C2308 1.391 . S
C2310 C2311 1.400 . S
C2311 C2310 1.400 . S
C2311 C2312 1.398 . S
C2311 C2317 1.491 . S
C2312 H2303 0.950 . S
C2312 C2311 1.398 . S
C2312 C2313 1.391 . S
C2313 H2301 0.950 . S
C2313 C2309 1.393 . S
C2313 C2312 1.391 . S
C2314 H2304 0.950 . S
C2314 C2315 1.386 . S
C2314 C2316 1.391 . S
C2315 C2314 1.386 . S
C2315 C2319 1.393 . S
C2316 H2305 0.950 . S
C2316 C2314 1.391 . S
C2316 C2317 1.400 . S
C2317 C2311 1.491 . S
C2317 C2316 1.400 . S
C2317 C2318 1.398 . S
C2318 H2306 0.950 . S
C2318 C2317 1.398 . S
C2318 C2319 1.391 . S
C2319 H2307 0.950 . S
C2319 C2315 1.393 . S
C2319 C2318 1.391 . S
H2320 C2328 0.950 . S
H2321 C2333 0.950 . S
H2322 C2330 0.950 . S
H2323 C2332 0.950 . S
H2324 C2334 0.950 . S
H2325 C2336 0.950 . S
H2326 C2338 0.950 . S
H2327 C2339 0.950 . S
C2328 H2320 0.950 . S
C2328 C2329 1.386 . S
C2328 C2330 1.391 . S
C2329 C2328 1.386 . S
C2329 C2333 1.393 . S
C2330 H2322 0.950 . S
C2330 C2328 1.391 . S
C2330 C2331 1.400 . S
C2331 C2330 1.400 . S
C2331 C2332 1.398 . S
C2331 C2337 1.491 . S
C2332 H2323 0.950 . S
C2332 C2331 1.398 . S
C2332 C2333 1.391 . S
C2333 H2321 0.950 . S
C2333 C2329 1.393 . S
C2333 C2332 1.391 . S
C2334 H2324 0.950 . S
C2334 C2335 1.386 . S
C2334 C2336 1.391 . S
C2335 C2334 1.386 . S
C2335 C2339 1.393 . S
C2336 H2325 0.950 . S
C2336 C2334 1.391 . S
C2336 C2337 1.400 . S
C2337 C2331 1.491 . S
C2337 C2336 1.400 . S
C2337 C2338 1.398 . S
C2338 H2326 0.950 . S
C2338 C2337 1.398 . S
C2338 C2339 1.391 . S
C2339 H2327 0.950 . S
C2339 C2335 1.393 . S
C2339 C2338 1.391 . S
H2340 C2348 0.950 . S
H2341 C2353 0.950 . S
H2342 C2350 0.950 . S
H2343 C2352 0.950 . S
H2344 C2354 0.950 . S
H2345 C2356 0.950 . S
H2346 C2358 0.950 . S
H2347 C2359 0.950 . S
C2348 H2340 0.950 . S
C2348 C2349 1.386 . S
C2348 C2350 1.391 . S
C2349 C2348 1.386 . S
C2349 C2353 1.393 . S
C2350 H2342 0.950 . S
C2350 C2348 1.391 . S
C2350 C2351 1.400 . S
C2351 C2350 1.400 . S
C2351 C2352 1.398 . S
C2351 C2357 1.491 . S
C2352 H2343 0.950 . S
C2352 C2351 1.398 . S
C2352 C2353 1.391 . S
C2353 H2341 0.950 . S
C2353 C2349 1.393 . S
C2353 C2352 1.391 . S
C2354 H2344 0.950 . S
C2354 C2355 1.386 . S
C2354 C2356 1.391 . S
C2355 C2354 1.386 . S
C2355 C2359 1.393 . S
C2356 H2345 0.950 . S
C2356 C2354 1.391 . S
C2356 C2357 1.400 . S
C2357 C2351 1.491 . S
C2357 C2356 1.400 . S
C2357 C2358 1.398 . S
C2358 H2346 0.950 . S
C2358 C2357 1.398 . S
C2358 C2359 1.391 . S
C2359 H2347 0.950 . S
C2359 C2355 1.393 . S
C2359 C2358 1.391 . S
H2360 C2368 0.950 . S
H2361 C2373 0.950 . S
H2362 C2370 0.950 . S
H2363 C2372 0.950 . S
H2364 C2374 0.950 . S
H2365 C2376 0.950 . S
H2366 C2378 0.950 . S
H2367 C2379 0.950 . S
C2368 H2360 0.950 . S
C2368 C2369 1.386 . S
C2368 C2370 1.391 . S
C2369 C2368 1.386 . S
C2369 C2373 1.393 . S
C2370 H2362 0.950 . S
C2370 C2368 1.391 . S
C2370 C2371 1.400 . S
C2371 C2370 1.400 . S
C2371 C2372 1.398 . S
C2371 C2377 1.491 . S
C2372 H2363 0.950 . S
C2372 C2371 1.398 . S
C2372 C2373 1.391 . S
C2373 H2361 0.950 . S
C2373 C2369 1.393 . S
C2373 C2372 1.391 . S
C2374 H2364 0.950 . S
C2374 C2375 1.386 . S
C2374 C2376 1.391 . S
C2375 C2374 1.386 . S
C2375 C2379 1.393 . S
C2376 H2365 0.950 . S
C2376 C2374 1.391 . S
C2376 C2377 1.400 . S
C2377 C2371 1.491 . S
C2377 C2376 1.400 . S
C2377 C2378 1.398 . S
C2378 H2366 0.950 . S
C2378 C2377 1.398 . S
C2378 C2379 1.391 . S
C2379 H2367 0.950 . S
C2379 C2375 1.393 . S
C2379 C2378 1.391 . S
H2380 C2388 0.950 . S
H2381 C2393 0.950 . S
H2382 C2390 0.950 . S
H2383 C2392 0.950 . S
H2384 C2394 0.950 . S
H2385 C2396 0.950 . S
H2386 C2398 0.950 . S
H2387 C2399 0.950 . S
C2388 H2380 0.950 . S
C2388 C2389 1.386 . S
C2388 C2390 1.391 . S
C2389 C2388 1.386 . S
C2389 C2393 1.393 . S
C2390 H2382 0.950 . S
C2390 C2388 1.391 . S
C2390 C2391 1.400 . S
C2391 C2390 1.400 . S
C2391 C2392 1.398 . S
C2391 C2397 1.491 . S
C2392 H2383 0.950 . S
C2392 C2391 1.398 . S
C2392 C2393 1.391 . S
C2393 H2381 0.950 . S
C2393 C2389 1.393 . S
C2393 C2392 1.391 . S
C2394 H2384 0.950 . S
C2394 C2395 1.386 . S
C2394 C2396 1.391 . S
C2395 C2394 1.386 . S
C2395 C2399 1.393 . S
C2396 H2385 0.950 . S
C2396 C2394 1.391 . S
C2396 C2397 1.400 . S
C2397 C2391 1.491 . S
C2397 C2396 1.400 . S
C2397 C2398 1.398 . S
C2398 H2386 0.950 . S
C2398 C2397 1.398 . S
C2398 C2399 1.391 . S
C2399 H2387 0.950 . S
C2399 C2395 1.393 . S
C2399 C2398 1.391 . S
H2400 C2408 0.950 . S
H2401 C2413 0.950 . S
H2402 C2410 0.950 . S
H2403 C2412 0.950 . S
H2404 C2414 0.950 . S
H2405 C2416 0.950 . S
H2406 C2418 0.950 . S
H2407 C2419 0.950 . S
C2408 H2400 0.950 . S
C2408 C2409 1.386 . S
C2408 C2410 1.391 . S
C2409 C2408 1.386 . S
C2409 C2413 1.393 1_545 S
C2410 H2402 0.950 . S
C2410 C2408 1.391 . S
C2410 C2411 1.400 1_545 S
C2411 C2410 1.400 1_565 S
C2411 C2412 1.398 . S
C2411 C2417 1.491 . S
C2412 H2403 0.950 . S
C2412 C2411 1.398 . S
C2412 C2413 1.391 . S
C2413 H2401 0.950 . S
C2413 C2409 1.393 1_565 S
C2413 C2412 1.391 . S
C2414 H2404 0.950 . S
C2414 C2415 1.386 . S
C2414 C2416 1.391 . S
C2415 C2414 1.386 . S
C2415 C2419 1.393 1_565 S
C2416 H2405 0.950 . S
C2416 C2414 1.391 . S
C2416 C2417 1.400 . S
C2417 C2411 1.491 . S
C2417 C2416 1.400 . S
C2417 C2418 1.398 1_565 S
C2418 H2406 0.950 . S
C2418 C2417 1.398 1_545 S
C2418 C2419 1.391 . S
C2419 H2407 0.950 . S
C2419 C2415 1.393 1_545 S
C2419 C2418 1.391 . S
H2420 C2428 0.950 . S
H2421 C2433 0.950 . S
H2422 C2430 0.950 . S
H2423 C2432 0.950 . S
H2424 C2434 0.950 . S
H2425 C2436 0.950 . S
H2426 C2438 0.950 . S
H2427 C2439 0.950 . S
C2428 H2420 0.950 . S
C2428 C2429 1.386 . S
C2428 C2430 1.391 . S
C2429 C2428 1.386 . S
C2429 C2433 1.393 . S
C2430 H2422 0.950 . S
C2430 C2428 1.391 . S
C2430 C2431 1.400 . S
C2431 C2430 1.400 . S
C2431 C2432 1.398 . S
C2431 C2437 1.491 . S
C2432 H2423 0.950 . S
C2432 C2431 1.398 . S
C2432 C2433 1.391 . S
C2433 H2421 0.950 . S
C2433 C2429 1.393 . S
C2433 C2432 1.391 . S
C2434 H2424 0.950 . S
C2434 C2435 1.386 . S
C2434 C2436 1.391 . S
C2435 C2434 1.386 . S
C2435 C2439 1.393 . S
C2436 H2425 0.950 . S
C2436 C2434 1.391 . S
C2436 C2437 1.400 . S
C2437 C2431 1.491 . S
C2437 C2436 1.400 . S
C2437 C2438 1.398 . S
C2438 H2426 0.950 . S
C2438 C2437 1.398 . S
C2438 C2439 1.391 . S
C2439 H2427 0.950 . S
C2439 C2435 1.393 . S
C2439 C2438 1.391 . S
H2440 C2448 0.950 . S
H2441 C2453 0.950 . S
H2442 C2450 0.950 . S
H2443 C2452 0.950 . S
H2444 C2454 0.950 . S
H2445 C2456 0.950 . S
H2446 C2458 0.950 . S
H2447 C2459 0.950 . S
C2448 H2440 0.950 . S
C2448 C2449 1.386 . S
C2448 C2450 1.391 . S
C2449 C2448 1.386 . S
C2449 C2453 1.393 . S
C2450 H2442 0.950 . S
C2450 C2448 1.391 . S
C2450 C2451 1.400 . S
C2451 C2450 1.400 . S
C2451 C2452 1.398 . S
C2451 C2457 1.491 . S
C2452 H2443 0.950 . S
C2452 C2451 1.398 . S
C2452 C2453 1.391 . S
C2453 H2441 0.950 . S
C2453 C2449 1.393 . S
C2453 C2452 1.391 . S
C2454 H2444 0.950 . S
C2454 C2455 1.386 . S
C2454 C2456 1.391 . S
C2455 C2454 1.386 . S
C2455 C2459 1.393 . S
C2456 H2445 0.950 . S
C2456 C2454 1.391 . S
C2456 C2457 1.400 . S
C2457 C2451 1.491 . S
C2457 C2456 1.400 . S
C2457 C2458 1.398 . S
C2458 H2446 0.950 . S
C2458 C2457 1.398 . S
C2458 C2459 1.391 . S
C2459 H2447 0.950 . S
C2459 C2455 1.393 . S
C2459 C2458 1.391 . S
H2460 C2468 0.950 . S
H2461 C2473 0.950 . S
H2462 C2470 0.950 . S
H2463 C2472 0.950 . S
H2464 C2474 0.950 . S
H2465 C2476 0.950 . S
H2466 C2478 0.950 . S
H2467 C2479 0.950 . S
C2468 H2460 0.950 . S
C2468 C2469 1.386 . S
C2468 C2470 1.391 1_545 S
C2469 C2468 1.386 . S
C2469 C2473 1.393 . S
C2470 H2462 0.950 . S
C2470 C2468 1.391 1_565 S
C2470 C2471 1.400 . S
C2471 C2470 1.400 . S
C2471 C2472 1.398 1_565 S
C2471 C2477 1.491 . S
C2472 H2463 0.950 . S
C2472 C2471 1.398 1_545 S
C2472 C2473 1.391 . S
C2473 H2461 0.950 . S
C2473 C2469 1.393 . S
C2473 C2472 1.391 . S
C2474 H2464 0.950 . S
C2474 C2475 1.386 . S
C2474 C2476 1.391 . S
C2475 C2474 1.386 . S
C2475 C2479 1.393 . S
C2476 H2465 0.950 . S
C2476 C2474 1.391 . S
C2476 C2477 1.400 . S
C2477 C2471 1.491 . S
C2477 C2476 1.400 . S
C2477 C2478 1.398 . S
C2478 H2466 0.950 . S
C2478 C2477 1.398 . S
C2478 C2479 1.391 . S
C2479 H2467 0.950 . S
C2479 C2475 1.393 . S
C2479 C2478 1.391 . S
H2480 C2488 0.950 . S
H2481 C2493 0.950 . S
H2482 C2490 0.950 . S
H2483 C2492 0.950 . S
H2484 C2494 0.950 . S
H2485 C2496 0.950 . S
H2486 C2498 0.950 . S
H2487 C2499 0.950 1_565 S
C2488 H2480 0.950 . S
C2488 C2489 1.386 . S
C2488 C2490 1.391 . S
C2489 C2488 1.386 . S
C2489 C2493 1.393 1_565 S
C2490 H2482 0.950 . S
C2490 C2488 1.391 . S
C2490 C2491 1.400 1_565 S
C2491 C2490 1.400 1_545 S
C2491 C2492 1.398 . S
C2491 C2497 1.491 . S
C2492 H2483 0.950 . S
C2492 C2491 1.398 . S
C2492 C2493 1.391 . S
C2493 H2481 0.950 . S
C2493 C2489 1.393 1_545 S
C2493 C2492 1.391 . S
C2494 H2484 0.950 . S
C2494 C2495 1.386 . S
C2494 C2496 1.391 . S
C2495 C2494 1.386 . S
C2495 C2499 1.393 . S
C2496 H2485 0.950 . S
C2496 C2494 1.391 . S
C2496 C2497 1.400 . S
C2497 C2491 1.491 . S
C2497 C2496 1.400 . S
C2497 C2498 1.398 1_545 S
C2498 H2486 0.950 . S
C2498 C2497 1.398 1_565 S
C2498 C2499 1.391 1_565 S
C2499 H2487 0.950 1_545 S
C2499 C2495 1.393 . S
C2499 C2498 1.391 1_545 S
H2500 C2508 0.950 . S
H2501 C2513 0.950 . S
H2502 C2510 0.950 . S
H2503 C2512 0.950 . S
H2504 C2514 0.950 . S
H2505 C2516 0.950 . S
H2506 C2518 0.950 . S
H2507 C2519 0.950 . S
C2508 H2500 0.950 . S
C2508 C2509 1.386 . S
C2508 C2510 1.391 . S
C2509 C2508 1.386 . S
C2509 C2513 1.393 . S
C2510 H2502 0.950 . S
C2510 C2508 1.391 . S
C2510 C2511 1.400 . S
C2511 C2510 1.400 . S
C2511 C2512 1.398 . S
C2511 C2517 1.491 . S
C2512 H2503 0.950 . S
C2512 C2511 1.398 . S
C2512 C2513 1.391 . S
C2513 H2501 0.950 . S
C2513 C2509 1.393 . S
C2513 C2512 1.391 . S
C2514 H2504 0.950 . S
C2514 C2515 1.386 . S
C2514 C2516 1.391 . S
C2515 C2514 1.386 . S
C2515 C2519 1.393 . S
C2516 H2505 0.950 . S
C2516 C2514 1.391 . S
C2516 C2517 1.400 . S
C2517 C2511 1.491 . S
C2517 C2516 1.400 . S
C2517 C2518 1.398 . S
C2518 H2506 0.950 . S
C2518 C2517 1.398 . S
C2518 C2519 1.391 . S
C2519 H2507 0.950 . S
C2519 C2515 1.393 . S
C2519 C2518 1.391 . S
H2520 C2528 0.950 . S
H2521 C2533 0.950 . S
H2522 C2530 0.950 . S
H2523 C2532 0.950 . S
H2524 C2534 0.950 . S
H2525 C2536 0.950 . S
H2526 C2538 0.950 . S
H2527 C2539 0.950 . S
C2528 H2520 0.950 . S
C2528 C2529 1.386 . S
C2528 C2530 1.391 . S
C2529 C2528 1.386 . S
C2529 C2533 1.393 . S
C2530 H2522 0.950 . S
C2530 C2528 1.391 . S
C2530 C2531 1.400 . S
C2531 C2530 1.400 . S
C2531 C2532 1.398 . S
C2531 C2537 1.491 . S
C2532 H2523 0.950 . S
C2532 C2531 1.398 . S
C2532 C2533 1.391 . S
C2533 H2521 0.950 . S
C2533 C2529 1.393 . S
C2533 C2532 1.391 . S
C2534 H2524 0.950 . S
C2534 C2535 1.386 . S
C2534 C2536 1.391 . S
C2535 C2534 1.386 . S
C2535 C2539 1.393 . S
C2536 H2525 0.950 . S
C2536 C2534 1.391 . S
C2536 C2537 1.400 . S
C2537 C2531 1.491 . S
C2537 C2536 1.400 . S
C2537 C2538 1.398 . S
C2538 H2526 0.950 . S
C2538 C2537 1.398 . S
C2538 C2539 1.391 . S
C2539 H2527 0.950 . S
C2539 C2535 1.393 . S
C2539 C2538 1.391 . S
H2540 C2548 0.950 . S
H2541 C2553 0.950 . S
H2542 C2550 0.948 1_545 S
H2543 C2552 0.952 . S
H2544 C2554 0.950 . S
H2545 C2556 0.950 . S
H2546 C2558 0.950 . S
H2547 C2559 0.950 . S
C2548 H2540 0.950 . S
C2548 C2549 1.386 . S
C2548 C2550 1.398 . S
C2549 C2548 1.386 . S
C2549 C2553 1.393 . S
C2550 H2542 0.948 1_565 S
C2550 C2548 1.398 . S
C2550 C2551 1.396 1_565 S
C2551 C2550 1.396 1_545 S
C2551 C2552 1.400 . S
C2551 C2557 1.491 . S
C2552 H2543 0.952 . S
C2552 C2551 1.400 . S
C2552 C2553 1.388 1_545 S
C2553 H2541 0.950 . S
C2553 C2549 1.393 . S
C2553 C2552 1.388 1_565 S
C2554 H2544 0.950 . S
C2554 C2555 1.386 . S
C2554 C2556 1.391 . S
C2555 C2554 1.386 . S
C2555 C2559 1.393 . S
C2556 H2545 0.950 . S
C2556 C2554 1.391 . S
C2556 C2557 1.400 . S
C2557 C2551 1.491 . S
C2557 C2556 1.400 . S
C2557 C2558 1.398 . S
C2558 H2546 0.950 . S
C2558 C2557 1.398 . S
C2558 C2559 1.391 . S
C2559 H2547 0.950 . S
C2559 C2555 1.393 . S
C2559 C2558 1.391 . S
H2560 C2568 0.950 . S
H2561 C2573 0.950 . S
H2562 C2570 0.950 . S
H2563 C2572 0.950 . S
H2564 C2574 0.950 . S
H2565 C2576 0.950 . S
H2566 C2578 0.950 1_455 S
H2567 C2579 0.950 . S
C2568 H2560 0.950 . S
C2568 C2569 1.386 . S
C2568 C2570 1.391 . S
C2569 C2568 1.386 . S
C2569 C2573 1.393 . S
C2570 H2562 0.950 . S
C2570 C2568 1.391 . S
C2570 C2571 1.400 . S
C2571 C2570 1.400 . S
C2571 C2572 1.398 . S
C2571 C2577 1.491 . S
C2572 H2563 0.950 . S
C2572 C2571 1.398 . S
C2572 C2573 1.391 . S
C2573 H2561 0.950 . S
C2573 C2569 1.393 . S
C2573 C2572 1.391 . S
C2574 H2564 0.950 . S
C2574 C2575 1.386 . S
C2574 C2576 1.391 . S
C2575 C2574 1.386 . S
C2575 C2579 1.393 . S
C2576 H2565 0.950 . S
C2576 C2574 1.391 . S
C2576 C2577 1.400 1_655 S
C2577 C2571 1.491 . S
C2577 C2576 1.400 1_455 S
C2577 C2578 1.398 1_455 S
C2578 H2566 0.950 1_655 S
C2578 C2577 1.398 1_655 S
C2578 C2579 1.391 . S
C2579 H2567 0.950 . S
C2579 C2575 1.393 . S
C2579 C2578 1.391 . S
H2580 C2588 0.950 . S
H2581 C2593 0.950 . S
H2582 C2590 0.950 . S
H2583 C2592 0.950 . S
H2584 C2594 0.950 . S
H2585 C2596 0.950 . S
H2586 C2598 0.950 . S
H2587 C2599 0.950 . S
C2588 H2580 0.950 . S
C2588 C2589 1.386 . S
C2588 C2590 1.391 . S
C2589 C2588 1.386 . S
C2589 C2593 1.393 . S
C2590 H2582 0.950 . S
C2590 C2588 1.391 . S
C2590 C2591 1.400 . S
C2591 C2590 1.400 . S
C2591 C2592 1.398 . S
C2591 C2597 1.491 . S
C2592 H2583 0.950 . S
C2592 C2591 1.398 . S
C2592 C2593 1.391 . S
C2593 H2581 0.950 . S
C2593 C2589 1.393 . S
C2593 C2592 1.391 . S
C2594 H2584 0.950 . S
C2594 C2595 1.386 . S
C2594 C2596 1.391 . S
C2595 C2594 1.386 . S
C2595 C2599 1.393 . S
C2596 H2585 0.950 . S
C2596 C2594 1.391 . S
C2596 C2597 1.400 . S
C2597 C2591 1.491 . S
C2597 C2596 1.400 . S
C2597 C2598 1.398 . S
C2598 H2586 0.950 . S
C2598 C2597 1.398 . S
C2598 C2599 1.391 . S
C2599 H2587 0.950 . S
C2599 C2595 1.393 . S
C2599 C2598 1.391 . S
H2600 C2608 0.950 . S
H2601 C2613 0.950 . S
H2602 C2610 0.950 . S
H2603 C2612 0.950 1_455 S
H2604 C2614 0.950 . S
H2605 C2616 0.950 . S
H2606 C2618 0.950 . S
H2607 C2619 0.950 . S
C2608 H2600 0.950 . S
C2608 C2609 1.386 . S
C2608 C2610 1.391 . S
C2609 C2608 1.386 . S
C2609 C2613 1.393 . S
C2610 H2602 0.950 . S
C2610 C2608 1.391 . S
C2610 C2611 1.400 1_655 S
C2611 C2610 1.400 1_455 S
C2611 C2612 1.398 1_455 S
C2611 C2617 1.491 . S
C2612 H2603 0.950 1_655 S
C2612 C2611 1.398 1_655 S
C2612 C2613 1.391 . S
C2613 H2601 0.950 . S
C2613 C2609 1.393 . S
C2613 C2612 1.391 . S
C2614 H2604 0.950 . S
C2614 C2615 1.386 . S
C2614 C2616 1.391 . S
C2615 C2614 1.386 . S
C2615 C2619 1.393 . S
C2616 H2605 0.950 . S
C2616 C2614 1.391 . S
C2616 C2617 1.400 . S
C2617 C2611 1.491 . S
C2617 C2616 1.400 . S
C2617 C2618 1.398 . S
C2618 H2606 0.950 . S
C2618 C2617 1.398 . S
C2618 C2619 1.391 . S
C2619 H2607 0.950 . S
C2619 C2615 1.393 . S
C2619 C2618 1.391 . S
H2620 C2628 0.950 . S
H2621 C2633 0.950 . S
H2622 C2630 0.950 . S
H2623 C2632 0.950 . S
H2624 C2634 0.950 . S
H2625 C2636 0.950 . S
H2626 C2638 0.950 . S
H2627 C2639 0.950 . S
C2628 H2620 0.950 . S
C2628 C2629 1.386 . S
C2628 C2630 1.391 . S
C2629 C2628 1.386 . S
C2629 C2633 1.393 . S
C2630 H2622 0.950 . S
C2630 C2628 1.391 . S
C2630 C2631 1.400 . S
C2631 C2630 1.400 . S
C2631 C2632 1.398 . S
C2631 C2637 1.491 . S
C2632 H2623 0.950 . S
C2632 C2631 1.398 . S
C2632 C2633 1.391 . S
C2633 H2621 0.950 . S
C2633 C2629 1.393 . S
C2633 C2632 1.391 . S
C2634 H2624 0.950 . S
C2634 C2635 1.386 . S
C2634 C2636 1.391 . S
C2635 C2634 1.386 . S
C2635 C2639 1.393 . S
C2636 H2625 0.950 . S
C2636 C2634 1.391 . S
C2636 C2637 1.400 . S
C2637 C2631 1.491 . S
C2637 C2636 1.400 . S
C2637 C2638 1.398 . S
C2638 H2626 0.950 . S
C2638 C2637 1.398 . S
C2638 C2639 1.391 . S
C2639 H2627 0.950 . S
C2639 C2635 1.393 . S
C2639 C2638 1.391 . S
H2640 C2648 0.950 . S
H2641 C2653 0.950 . S
H2642 C2650 0.950 . S
H2643 C2652 0.950 . S
H2644 C2654 0.950 . S
H2645 C2656 0.946 1_655 S
H2646 C2658 0.950 . S
H2647 C2659 0.950 . S
C2648 H2640 0.950 . S
C2648 C2649 1.386 . S
C2648 C2650 1.391 . S
C2649 C2648 1.386 . S
C2649 C2653 1.393 . S
C2650 H2642 0.950 . S
C2650 C2648 1.391 . S
C2650 C2651 1.400 . S
C2651 C2650 1.400 . S
C2651 C2652 1.398 . S
C2651 C2657 1.491 . S
C2652 H2643 0.950 . S
C2652 C2651 1.398 . S
C2652 C2653 1.391 . S
C2653 H2641 0.950 . S
C2653 C2649 1.393 . S
C2653 C2652 1.391 . S
C2654 H2644 0.950 . S
C2654 C2655 1.386 . S
C2654 C2656 1.391 . S
C2655 C2654 1.386 . S
C2655 C2659 1.393 . S
C2656 H2645 0.946 1_455 S
C2656 C2654 1.391 . S
C2656 C2657 1.400 1_455 S
C2657 C2651 1.491 . S
C2657 C2656 1.400 1_655 S
C2657 C2658 1.398 1_655 S
C2658 H2646 0.950 . S
C2658 C2657 1.398 1_455 S
C2658 C2659 1.391 . S
C2659 H2647 0.950 . S
C2659 C2655 1.393 . S
C2659 C2658 1.391 . S
H2660 C2668 0.950 . S
H2661 C2673 0.950 . S
H2662 C2670 0.950 . S
H2663 C2672 0.950 . S
H2664 C2674 0.950 . S
H2665 C2676 0.950 . S
H2666 C2678 0.950 . S
H2667 C2679 0.950 . S
C2668 H2660 0.950 . S
C2668 C2669 1.386 . S
C2668 C2670 1.391 . S
C2669 C2668 1.386 . S
C2669 C2673 1.393 . S
C2670 H2662 0.950 . S
C2670 C2668 1.391 . S
C2670 C2671 1.400 . S
C2671 C2670 1.400 . S
C2671 C2672 1.398 . S
C2671 C2677 1.491 . S
C2672 H2663 0.950 . S
C2672 C2671 1.398 . S
C2672 C2673 1.391 . S
C2673 H2661 0.950 . S
C2673 C2669 1.393 . S
C2673 C2672 1.391 . S
C2674 H2664 0.950 . S
C2674 C2675 1.386 . S
C2674 C2676 1.391 . S
C2675 C2674 1.386 . S
C2675 C2679 1.393 . S
C2676 H2665 0.950 . S
C2676 C2674 1.391 . S
C2676 C2677 1.400 . S
C2677 C2671 1.491 . S
C2677 C2676 1.400 . S
C2677 C2678 1.398 . S
C2678 H2666 0.950 . S
C2678 C2677 1.398 . S
C2678 C2679 1.391 . S
C2679 H2667 0.950 . S
C2679 C2675 1.393 . S
C2679 C2678 1.391 . S
H2680 C2688 0.950 . S
H2681 C2693 0.950 . S
H2682 C2690 0.950 . S
H2683 C2692 0.950 1_655 S
H2684 C2694 0.950 . S
H2685 C2696 0.950 . S
H2686 C2698 0.950 . S
H2687 C2699 0.950 . S
C2688 H2680 0.950 . S
C2688 C2689 1.386 . S
C2688 C2690 1.391 . S
C2689 C2688 1.386 . S
C2689 C2693 1.393 . S
C2690 H2682 0.950 . S
C2690 C2688 1.391 . S
C2690 C2691 1.400 1_455 S
C2691 C2690 1.400 1_655 S
C2691 C2692 1.398 1_655 S
C2691 C2697 1.491 . S
C2692 H2683 0.950 1_455 S
C2692 C2691 1.398 1_455 S
C2692 C2693 1.391 . S
C2693 H2681 0.950 . S
C2693 C2689 1.393 . S
C2693 C2692 1.391 . S
C2694 H2684 0.950 . S
C2694 C2695 1.386 . S
C2694 C2696 1.391 . S
C2695 C2694 1.386 . S
C2695 C2699 1.393 . S
C2696 H2685 0.950 . S
C2696 C2694 1.391 . S
C2696 C2697 1.400 . S
C2697 C2691 1.491 . S
C2697 C2696 1.400 . S
C2697 C2698 1.398 . S
C2698 H2686 0.950 . S
C2698 C2697 1.398 . S
C2698 C2699 1.391 . S
C2699 H2687 0.950 . S
C2699 C2695 1.393 . S
C2699 C2698 1.391 . S
H2700 C2708 0.950 . S
H2701 C2713 0.950 . S
H2702 C2710 0.950 . S
H2703 C2712 0.950 . S
H2704 C2714 0.950 . S
H2705 C2716 0.950 . S
H2706 C2718 0.950 . S
H2707 C2719 0.950 . S
C2708 H2700 0.950 . S
C2708 C2709 1.386 . S
C2708 C2710 1.391 . S
C2709 C2708 1.386 . S
C2709 C2713 1.393 . S
C2710 H2702 0.950 . S
C2710 C2708 1.391 . S
C2710 C2711 1.400 . S
C2711 C2710 1.400 . S
C2711 C2712 1.398 . S
C2711 C2717 1.491 . S
C2712 H2703 0.950 . S
C2712 C2711 1.398 . S
C2712 C2713 1.391 . S
C2713 H2701 0.950 . S
C2713 C2709 1.393 . S
C2713 C2712 1.391 . S
C2714 H2704 0.950 . S
C2714 C2715 1.386 . S
C2714 C2716 1.391 . S
C2715 C2714 1.386 . S
C2715 C2719 1.393 . S
C2716 H2705 0.950 . S
C2716 C2714 1.391 . S
C2716 C2717 1.400 . S
C2717 C2711 1.491 . S
C2717 C2716 1.400 . S
C2717 C2718 1.398 . S
C2718 H2706 0.950 . S
C2718 C2717 1.398 . S
C2718 C2719 1.391 . S
C2719 H2707 0.950 . S
C2719 C2715 1.393 . S
C2719 C2718 1.391 . S
H2720 C2728 0.950 . S
H2721 C2733 0.950 . S
H2722 C2730 0.950 . S
H2723 C2732 0.950 1_455 S
H2724 C2734 0.950 . S
H2725 C2736 0.950 . S
H2726 C2738 0.950 . S
H2727 C2739 0.950 . S
C2728 H2720 0.950 . S
C2728 C2729 1.386 1_565 S
C2728 C2730 1.391 . S
C2729 C2728 1.386 1_545 S
C2729 C2733 1.393 . S
C2730 H2722 0.950 . S
C2730 C2728 1.391 . S
C2730 C2731 1.400 1_655 S
C2731 C2730 1.400 1_455 S
C2731 C2732 1.398 1_465 S
C2731 C2737 1.491 . S
C2732 H2723 0.950 1_655 S
C2732 C2731 1.398 1_645 S
C2732 C2733 1.391 . S
C2733 H2721 0.950 . S
C2733 C2729 1.393 . S
C2733 C2732 1.391 . S
C2734 H2724 0.950 . S
C2734 C2735 1.386 1_545 S
C2734 C2736 1.391 . S
C2735 C2734 1.386 1_565 S
C2735 C2739 1.393 . S
C2736 H2725 0.950 . S
C2736 C2734 1.391 . S
C2736 C2737 1.400 1_545 S
C2737 C2731 1.491 . S
C2737 C2736 1.400 1_565 S
C2737 C2738 1.398 . S
C2738 H2726 0.950 . S
C2738 C2737 1.398 . S
C2738 C2739 1.391 . S
C2739 H2727 0.950 . S
C2739 C2735 1.393 . S
C2739 C2738 1.391 . S
H2740 C2748 0.950 . S
H2741 C2753 0.950 . S
H2742 C2750 0.950 . S
H2743 C2752 0.950 . S
H2744 C2754 0.950 . S
H2745 C2756 0.950 . S
H2746 C2758 0.950 . S
H2747 C2759 0.950 . S
C2748 H2740 0.950 . S
C2748 C2749 1.386 . S
C2748 C2750 1.391 . S
C2749 C2748 1.386 . S
C2749 C2753 1.393 . S
C2750 H2742 0.950 . S
C2750 C2748 1.391 . S
C2750 C2751 1.400 . S
C2751 C2750 1.400 . S
C2751 C2752 1.398 . S
C2751 C2757 1.491 . S
C2752 H2743 0.950 . S
C2752 C2751 1.398 . S
C2752 C2753 1.391 . S
C2753 H2741 0.950 . S
C2753 C2749 1.393 . S
C2753 C2752 1.391 . S
C2754 H2744 0.950 . S
C2754 C2755 1.386 . S
C2754 C2756 1.391 . S
C2755 C2754 1.386 . S
C2755 C2759 1.393 . S
C2756 H2745 0.950 . S
C2756 C2754 1.391 . S
C2756 C2757 1.400 . S
C2757 C2751 1.491 . S
C2757 C2756 1.400 . S
C2757 C2758 1.398 . S
C2758 H2746 0.950 . S
C2758 C2757 1.398 . S
C2758 C2759 1.391 . S
C2759 H2747 0.950 . S
C2759 C2755 1.393 . S
C2759 C2758 1.391 . S
H2760 C2768 0.950 . S
H2761 C2773 0.950 . S
H2762 C2770 0.950 . S
H2763 C2772 0.950 . S
H2764 C2774 0.950 . S
H2765 C2776 0.950 . S
H2766 C2778 0.950 . S
H2767 C2779 0.950 . S
C2768 H2760 0.950 . S
C2768 C2769 1.386 . S
C2768 C2770 1.391 . S
C2769 C2768 1.386 . S
C2769 C2773 1.393 . S
C2770 H2762 0.950 . S
C2770 C2768 1.391 . S
C2770 C2771 1.400 1_655 S
C2771 C2770 1.400 1_455 S
C2771 C2772 1.398 1_455 S
C2771 C2777 1.491 . S
C2772 H2763 0.950 . S
C2772 C2771 1.398 1_655 S
C2772 C2773 1.391 . S
C2773 H2761 0.950 . S
C2773 C2769 1.393 . S
C2773 C2772 1.391 . S
C2774 H2764 0.950 . S
C2774 C2775 1.386 . S
C2774 C2776 1.391 . S
C2775 C2774 1.386 . S
C2775 C2779 1.393 . S
C2776 H2765 0.950 . S
C2776 C2774 1.391 . S
C2776 C2777 1.400 . S
C2777 C2771 1.491 . S
C2777 C2776 1.400 . S
C2777 C2778 1.398 . S
C2778 H2766 0.950 . S
C2778 C2777 1.398 . S
C2778 C2779 1.391 . S
C2779 H2767 0.950 . S
C2779 C2775 1.393 . S
C2779 C2778 1.391 . S
H2780 C2788 0.950 . S
H2781 C2793 0.950 . S
H2782 C2790 0.950 . S
H2783 C2792 0.950 . S
H2784 C2794 0.950 . S
H2785 C2796 0.950 . S
H2786 C2798 0.950 1_545 S
H2787 C2799 0.950 . S
C2788 H2780 0.950 . S
C2788 C2789 1.386 . S
C2788 C2790 1.391 . S
C2789 C2788 1.386 . S
C2789 C2793 1.393 1_545 S
C2790 H2782 0.950 . S
C2790 C2788 1.391 . S
C2790 C2791 1.400 1_545 S
C2791 C2790 1.400 1_565 S
C2791 C2792 1.398 . S
C2791 C2797 1.491 . S
C2792 H2783 0.950 . S
C2792 C2791 1.398 . S
C2792 C2793 1.391 . S
C2793 H2781 0.950 . S
C2793 C2789 1.393 1_565 S
C2793 C2792 1.391 . S
C2794 H2784 0.950 . S
C2794 C2795 1.386 . S
C2794 C2796 1.391 . S
C2795 C2794 1.386 . S
C2795 C2799 1.393 . S
C2796 H2785 0.950 . S
C2796 C2794 1.391 . S
C2796 C2797 1.400 . S
C2797 C2791 1.491 . S
C2797 C2796 1.400 . S
C2797 C2798 1.398 . S
C2798 H2786 0.950 1_565 S
C2798 C2797 1.398 . S
C2798 C2799 1.391 . S
C2799 H2787 0.950 . S
C2799 C2795 1.393 . S
C2799 C2798 1.391 . S
H2800 C2808 0.950 . S
H2801 C2813 0.951 . S
H2802 C2810 0.950 . S
H2803 C2812 0.950 . S
H2804 C2814 0.950 . S
H2805 C2816 0.950 . S
H2806 C2818 0.950 . S
H2807 C2819 0.950 . S
C2808 H2800 0.950 . S
C2808 C2809 1.386 . S
C2808 C2810 1.391 . S
C2809 C2808 1.386 . S
C2809 C2813 1.392 1_545 S
C2810 H2802 0.950 . S
C2810 C2808 1.391 . S
C2810 C2811 1.400 . S
C2811 C2810 1.400 . S
C2811 C2812 1.398 1_545 S
C2811 C2817 1.491 . S
C2812 H2803 0.950 . S
C2812 C2811 1.398 1_565 S
C2812 C2813 1.391 . S
C2813 H2801 0.951 . S
C2813 C2809 1.392 1_565 S
C2813 C2812 1.391 . S
C2814 H2804 0.950 . S
C2814 C2815 1.386 . S
C2814 C2816 1.391 . S
C2815 C2814 1.386 . S
C2815 C2819 1.393 1_565 S
C2816 H2805 0.950 . S
C2816 C2814 1.391 . S
C2816 C2817 1.400 1_465 S
C2817 C2811 1.491 . S
C2817 C2816 1.400 1_645 S
C2817 C2818 1.398 1_655 S
C2818 H2806 0.950 . S
C2818 C2817 1.398 1_455 S
C2818 C2819 1.391 . S
C2819 H2807 0.950 . S
C2819 C2815 1.393 1_545 S
C2819 C2818 1.391 . S
H2820 C2828 0.950 . S
H2821 C2833 0.950 . S
H2822 C2830 0.950 . S
H2823 C2832 0.950 . S
H2824 C2834 0.950 . S
H2825 C2836 0.950 . S
H2826 C2838 0.950 . S
H2827 C2839 0.950 . S
C2828 H2820 0.950 . S
C2828 C2829 1.386 . S
C2828 C2830 1.391 . S
C2829 C2828 1.386 . S
C2829 C2833 1.393 . S
C2830 H2822 0.950 . S
C2830 C2828 1.391 . S
C2830 C2831 1.400 . S
C2831 C2830 1.400 . S
C2831 C2832 1.398 . S
C2831 C2837 1.491 . S
C2832 H2823 0.950 . S
C2832 C2831 1.398 . S
C2832 C2833 1.391 . S
C2833 H2821 0.950 . S
C2833 C2829 1.393 . S
C2833 C2832 1.391 . S
C2834 H2824 0.950 . S
C2834 C2835 1.386 . S
C2834 C2836 1.391 . S
C2835 C2834 1.386 . S
C2835 C2839 1.393 . S
C2836 H2825 0.950 . S
C2836 C2834 1.391 . S
C2836 C2837 1.400 . S
C2837 C2831 1.491 . S
C2837 C2836 1.400 . S
C2837 C2838 1.398 . S
C2838 H2826 0.950 . S
C2838 C2837 1.398 . S
C2838 C2839 1.391 . S
C2839 H2827 0.950 . S
C2839 C2835 1.393 . S
C2839 C2838 1.391 . S
H2840 C2848 0.950 . S
H2841 C2853 0.950 . S
H2842 C2850 0.950 1_655 S
H2843 C2852 0.950 . S
H2844 C2854 0.950 . S
H2845 C2856 0.950 . S
H2846 C2858 0.950 . S
H2847 C2859 0.950 . S
C2848 H2840 0.950 . S
C2848 C2849 1.386 . S
C2848 C2850 1.391 . S
C2849 C2848 1.386 . S
C2849 C2853 1.393 . S
C2850 H2842 0.950 1_455 S
C2850 C2848 1.391 . S
C2850 C2851 1.400 1_455 S
C2851 C2850 1.400 1_655 S
C2851 C2852 1.398 1_655 S
C2851 C2857 1.491 . S
C2852 H2843 0.950 . S
C2852 C2851 1.398 1_455 S
C2852 C2853 1.391 . S
C2853 H2841 0.950 . S
C2853 C2849 1.393 . S
C2853 C2852 1.391 . S
C2854 H2844 0.950 . S
C2854 C2855 1.386 . S
C2854 C2856 1.391 . S
C2855 C2854 1.386 . S
C2855 C2859 1.393 . S
C2856 H2845 0.950 . S
C2856 C2854 1.391 . S
C2856 C2857 1.400 . S
C2857 C2851 1.491 . S
C2857 C2856 1.400 . S
C2857 C2858 1.398 . S
C2858 H2846 0.950 . S
C2858 C2857 1.398 . S
C2858 C2859 1.391 . S
C2859 H2847 0.950 . S
C2859 C2855 1.393 . S
C2859 C2858 1.391 . S
H2860 C2868 0.950 . S
H2861 C2873 0.950 . S
H2862 C2870 0.950 . S
H2863 C2872 0.950 . S
H2864 C2874 0.950 . S
H2865 C2876 0.950 . S
H2866 C2878 0.950 . S
H2867 C2879 0.950 . S
C2868 H2860 0.950 . S
C2868 C2869 1.386 1_545 S
C2868 C2870 1.391 . S
C2869 C2868 1.386 1_565 S
C2869 C2873 1.393 . S
C2870 H2862 0.950 . S
C2870 C2868 1.391 . S
C2870 C2871 1.400 . S
C2871 C2870 1.400 . S
C2871 C2872 1.398 1_545 S
C2871 C2877 1.491 . S
C2872 H2863 0.950 . S
C2872 C2871 1.398 1_565 S
C2872 C2873 1.391 . S
C2873 H2861 0.950 . S
C2873 C2869 1.393 . S
C2873 C2872 1.391 . S
C2874 H2864 0.950 . S
C2874 C2875 1.386 1_565 S
C2874 C2876 1.391 . S
C2875 C2874 1.386 1_545 S
C2875 C2879 1.393 . S
C2876 H2865 0.950 . S
C2876 C2874 1.391 . S
C2876 C2877 1.400 1_565 S
C2877 C2871 1.491 . S
C2877 C2876 1.400 1_545 S
C2877 C2878 1.398 . S
C2878 H2866 0.950 . S
C2878 C2877 1.398 . S
C2878 C2879 1.391 . S
C2879 H2867 0.950 . S
C2879 C2875 1.393 . S
C2879 C2878 1.391 . S
H2880 C2888 0.950 . S
H2881 C2893 0.950 . S
H2882 C2890 0.950 . S
H2883 C2892 0.950 . S
H2884 C2894 0.950 . S
H2885 C2896 0.950 . S
H2886 C2898 0.950 . S
H2887 C2899 0.950 . S
C2888 H2880 0.950 . S
C2888 C2889 1.386 . S
C2888 C2890 1.391 . S
C2889 C2888 1.386 . S
C2889 C2893 1.393 1_455 S
C2890 H2882 0.950 . S
C2890 C2888 1.391 . S
C2890 C2891 1.400 . S
C2891 C2890 1.400 . S
C2891 C2892 1.398 1_455 S
C2891 C2897 1.491 1_454 S
C2892 H2883 0.950 . S
C2892 C2891 1.398 1_655 S
C2892 C2893 1.391 . S
C2893 H2881 0.950 . S
C2893 C2889 1.393 1_655 S
C2893 C2892 1.391 . S
C2894 H2884 0.950 . S
C2894 C2895 1.386 . S
C2894 C2896 1.391 . S
C2895 C2894 1.386 . S
C2895 C2899 1.393 1_655 S
C2896 H2885 0.950 . S
C2896 C2894 1.391 . S
C2896 C2897 1.400 . S
C2897 C2891 1.491 1_656 S
C2897 C2896 1.400 . S
C2897 C2898 1.398 1_655 S
C2898 H2886 0.950 . S
C2898 C2897 1.398 1_455 S
C2898 C2899 1.391 . S
C2899 H2887 0.950 . S
C2899 C2895 1.393 1_455 S
C2899 C2898 1.391 . S
H2900 C2908 0.950 . S
H2901 C2913 0.950 . S
H2902 C2910 0.950 . S
H2903 C2912 0.950 . S
H2904 C2914 0.950 . S
H2905 C2916 0.950 . S
H2906 C2918 0.950 . S
H2907 C2919 0.950 . S
C2908 H2900 0.950 . S
C2908 C2909 1.386 . S
C2908 C2910 1.391 . S
C2909 C2908 1.386 . S
C2909 C2913 1.393 . S
C2910 H2902 0.950 . S
C2910 C2908 1.391 . S
C2910 C2911 1.400 . S
C2911 C2910 1.400 . S
C2911 C2912 1.398 . S
C2911 C2917 1.491 1_556 S
C2912 H2903 0.950 . S
C2912 C2911 1.398 . S
C2912 C2913 1.391 . S
C2913 H2901 0.950 . S
C2913 C2909 1.393 . S
C2913 C2912 1.391 . S
C2914 H2904 0.950 . S
C2914 C2915 1.386 . S
C2914 C2916 1.391 . S
C2915 C2914 1.386 . S
C2915 C2919 1.393 . S
C2916 H2905 0.950 . S
C2916 C2914 1.391 . S
C2916 C2917 1.400 . S
C2917 C2911 1.491 1_554 S
C2917 C2916 1.400 . S
C2917 C2918 1.398 . S
C2918 H2906 0.950 . S
C2918 C2917 1.398 . S
C2918 C2919 1.391 . S
C2919 H2907 0.950 . S
C2919 C2915 1.393 . S
C2919 C2918 1.391 . S
H2920 C2928 0.950 . S
H2921 C2933 0.950 . S
H2922 C2930 0.950 . S
H2923 C2932 0.950 . S
H2924 C2934 0.950 . S
H2925 C2936 0.950 . S
H2926 C2938 0.950 . S
H2927 C2939 0.950 . S
C2928 H2920 0.950 . S
C2928 C2929 1.386 1_455 S
C2928 C2930 1.391 . S
C2929 C2928 1.386 1_655 S
C2929 C2933 1.393 . S
C2930 H2922 0.950 . S
C2930 C2928 1.391 . S
C2930 C2931 1.400 1_455 S
C2931 C2930 1.400 1_655 S
C2931 C2932 1.398 . S
C2931 C2937 1.491 1_655 S
C2932 H2923 0.950 . S
C2932 C2931 1.398 . S
C2932 C2933 1.391 . S
C2933 H2921 0.950 . S
C2933 C2929 1.393 . S
C2933 C2932 1.391 . S
C2934 H2924 0.950 . S
C2934 C2935 1.386 1_655 S
C2934 C2936 1.391 . S
C2935 C2934 1.386 1_455 S
C2935 C2939 1.393 . S
C2936 H2925 0.950 . S
C2936 C2934 1.391 . S
C2936 C2937 1.400 1_655 S
C2937 C2931 1.491 1_455 S
C2937 C2936 1.400 1_455 S
C2937 C2938 1.398 . S
C2938 H2926 0.950 . S
C2938 C2937 1.398 . S
C2938 C2939 1.391 . S
C2939 H2927 0.950 . S
C2939 C2935 1.393 . S
C2939 C2938 1.391 . S
H2940 C2948 0.950 . S
H2941 C2953 0.950 . S
H2942 C2950 0.950 . S
H2943 C2952 0.950 . S
H2944 C2954 0.950 . S
H2945 C2956 0.950 . S
H2946 C2958 0.950 . S
H2947 C2959 0.950 . S
C2948 H2940 0.950 . S
C2948 C2949 1.386 . S
C2948 C2950 1.391 . S
C2949 C2948 1.386 . S
C2949 C2953 1.393 . S
C2950 H2942 0.950 . S
C2950 C2948 1.391 . S
C2950 C2951 1.400 . S
C2951 C2950 1.400 . S
C2951 C2952 1.398 . S
C2951 C2957 1.491 . S
C2952 H2943 0.950 . S
C2952 C2951 1.398 . S
C2952 C2953 1.391 . S
C2953 H2941 0.950 . S
C2953 C2949 1.393 . S
C2953 C2952 1.391 . S
C2954 H2944 0.950 . S
C2954 C2955 1.386 . S
C2954 C2956 1.391 . S
C2955 C2954 1.386 . S
C2955 C2959 1.393 . S
C2956 H2945 0.950 . S
C2956 C2954 1.391 . S
C2956 C2957 1.400 . S
C2957 C2951 1.491 . S
C2957 C2956 1.400 . S
C2957 C2958 1.398 . S
C2958 H2946 0.950 . S
C2958 C2957 1.398 . S
C2958 C2959 1.391 . S
C2959 H2947 0.950 . S
C2959 C2955 1.393 . S
C2959 C2958 1.391 . S
H2960 C2968 0.950 . S
H2961 C2973 0.950 . S
H2962 C2970 0.950 . S
H2963 C2972 0.950 . S
H2964 C2974 0.950 . S
H2965 C2976 0.950 . S
H2966 C2978 0.950 . S
H2967 C2979 0.950 . S
C2968 H2960 0.950 . S
C2968 C2969 1.386 . S
C2968 C2970 1.391 . S
C2969 C2968 1.386 . S
C2969 C2973 1.393 . S
C2970 H2962 0.950 . S
C2970 C2968 1.391 . S
C2970 C2971 1.400 . S
C2971 C2970 1.400 . S
C2971 C2972 1.398 . S
C2971 C2977 1.491 1_556 S
C2972 H2963 0.950 . S
C2972 C2971 1.398 . S
C2972 C2973 1.391 . S
C2973 H2961 0.950 . S
C2973 C2969 1.393 . S
C2973 C2972 1.391 . S
C2974 H2964 0.950 . S
C2974 C2975 1.386 . S
C2974 C2976 1.391 . S
C2975 C2974 1.386 . S
C2975 C2979 1.393 . S
C2976 H2965 0.950 . S
C2976 C2974 1.391 . S
C2976 C2977 1.400 . S
C2977 C2971 1.491 1_554 S
C2977 C2976 1.400 . S
C2977 C2978 1.398 . S
C2978 H2966 0.950 . S
C2978 C2977 1.398 . S
C2978 C2979 1.391 . S
C2979 H2967 0.950 . S
C2979 C2975 1.393 . S
C2979 C2978 1.391 . S
H2980 C2988 0.950 . S
H2981 C2993 0.950 . S
H2982 C2990 0.950 . S
H2983 C2992 0.950 . S
H2984 C2994 0.950 . S
H2985 C2996 0.950 . S
H2986 C2998 0.950 . S
H2987 C2999 0.950 . S
C2988 H2980 0.950 . S
C2988 C2989 1.386 . S
C2988 C2990 1.391 . S
C2989 C2988 1.386 . S
C2989 C2993 1.393 1_655 S
C2990 H2982 0.950 . S
C2990 C2988 1.391 . S
C2990 C2991 1.400 . S
C2991 C2990 1.400 . S
C2991 C2992 1.398 1_655 S
C2991 C2997 1.491 1_655 S
C2992 H2983 0.950 . S
C2992 C2991 1.398 1_455 S
C2992 C2993 1.391 . S
C2993 H2981 0.950 . S
C2993 C2989 1.393 1_455 S
C2993 C2992 1.391 . S
C2994 H2984 0.950 . S
C2994 C2995 1.386 . S
C2994 C2996 1.391 . S
C2995 C2994 1.386 . S
C2995 C2999 1.393 1_455 S
C2996 H2985 0.950 . S
C2996 C2994 1.391 . S
C2996 C2997 1.400 . S
C2997 C2991 1.491 1_455 S
C2997 C2996 1.400 . S
C2997 C2998 1.398 1_455 S
C2998 H2986 0.950 . S
C2998 C2997 1.398 1_655 S
C2998 C2999 1.391 . S
C2999 H2987 0.950 . S
C2999 C2995 1.393 1_655 S
C2999 C2998 1.391 . S
H3000 C3008 0.950 . S
H3001 C3013 0.950 . S
H3002 C3010 0.950 . S
H3003 C3012 0.950 . S
H3004 C3014 0.950 . S
H3005 C3016 0.950 . S
H3006 C3018 0.950 . S
H3007 C3019 0.950 . S
C3008 H3000 0.950 . S
C3008 C3009 1.386 . S
C3008 C3010 1.391 . S
C3009 C3008 1.386 . S
C3009 C3013 1.393 . S
C3010 H3002 0.950 . S
C3010 C3008 1.391 . S
C3010 C3011 1.400 . S
C3011 C3010 1.400 . S
C3011 C3012 1.398 . S
C3011 C3017 1.491 . S
C3012 H3003 0.950 . S
C3012 C3011 1.398 . S
C3012 C3013 1.391 . S
C3013 H3001 0.950 . S
C3013 C3009 1.393 . S
C3013 C3012 1.391 . S
C3014 H3004 0.950 . S
C3014 C3015 1.386 . S
C3014 C3016 1.391 . S
C3015 C3014 1.386 . S
C3015 C3019 1.393 . S
C3016 H3005 0.950 . S
C3016 C3014 1.391 . S
C3016 C3017 1.400 . S
C3017 C3011 1.491 . S
C3017 C3016 1.400 . S
C3017 C3018 1.398 . S
C3018 H3006 0.950 . S
C3018 C3017 1.398 . S
C3018 C3019 1.391 . S
C3019 H3007 0.950 . S
C3019 C3015 1.393 . S
C3019 C3018 1.391 . S
H3020 C3028 0.950 . S
H3021 C3033 0.950 . S
H3022 C3030 0.950 . S
H3023 C3032 0.950 . S
H3024 C3034 0.950 . S
H3025 C3036 0.950 . S
H3026 C3038 0.950 . S
H3027 C3039 0.950 . S
C3028 H3020 0.950 . S
C3028 C3029 1.386 1_655 S
C3028 C3030 1.391 . S
C3029 C3028 1.386 1_455 S
C3029 C3033 1.393 1_565 S
C3030 H3022 0.950 . S
C3030 C3028 1.391 . S
C3030 C3031 1.421 1_655 S
C3031 C3030 1.421 1_455 S
C3031 C3032 1.379 1_565 S
C3031 C3037 1.489 1_465 S
C3032 H3023 0.950 . S
C3032 C3031 1.379 1_545 S
C3032 C3033 1.391 . S
C3033 H3021 0.950 . S
C3033 C3029 1.393 1_545 S
C3033 C3032 1.391 . S
C3034 H3024 0.950 . S
C3034 C3035 1.386 1_455 S
C3034 C3036 1.391 . S
C3035 C3034 1.386 1_655 S
C3035 C3039 1.393 1_545 S
C3036 H3025 0.950 . S
C3036 C3034 1.391 . S
C3036 C3037 1.421 1_455 S
C3037 C3031 1.489 1_645 S
C3037 C3036 1.421 1_655 S
C3037 C3038 1.379 1_545 S
C3038 H3026 0.950 . S
C3038 C3037 1.379 1_565 S
C3038 C3039 1.391 . S
C3039 H3027 0.950 . S
C3039 C3035 1.393 1_565 S
C3039 C3038 1.391 . S
H3040 C3048 0.950 . S
H3041 C3053 0.950 . S
H3042 C3050 0.950 . S
H3043 C3052 0.950 . S
H3044 C3054 0.950 . S
H3045 C3056 0.950 . S
H3046 C3058 0.950 . S
H3047 C3059 0.950 . S
C3048 H3040 0.950 . S
C3048 C3049 1.386 . S
C3048 C3050 1.391 . S
C3049 C3048 1.386 . S
C3049 C3053 1.393 . S
C3050 H3042 0.950 . S
C3050 C3048 1.391 . S
C3050 C3051 1.400 . S
C3051 C3050 1.400 . S
C3051 C3052 1.398 . S
C3051 C3057 1.491 . S
C3052 H3043 0.950 . S
C3052 C3051 1.398 . S
C3052 C3053 1.391 . S
C3053 H3041 0.950 . S
C3053 C3049 1.393 . S
C3053 C3052 1.391 . S
C3054 H3044 0.950 . S
C3054 C3055 1.386 . S
C3054 C3056 1.391 . S
C3055 C3054 1.386 . S
C3055 C3059 1.393 . S
C3056 H3045 0.950 . S
C3056 C3054 1.391 . S
C3056 C3057 1.400 . S
C3057 C3051 1.491 . S
C3057 C3056 1.400 . S
C3057 C3058 1.398 . S
C3058 H3046 0.950 . S
C3058 C3057 1.398 . S
C3058 C3059 1.391 . S
C3059 H3047 0.950 . S
C3059 C3055 1.393 . S
C3059 C3058 1.391 . S
H3060 C3068 0.950 . S
H3061 C3073 0.950 . S
H3062 C3070 0.950 . S
H3063 C3072 0.950 . S
H3064 C3074 0.950 . S
H3065 C3076 0.950 . S
H3066 C3078 0.950 . S
H3067 C3079 0.950 . S
C3068 H3060 0.950 . S
C3068 C3069 1.386 1_565 S
C3068 C3070 1.391 . S
C3069 C3068 1.386 1_545 S
C3069 C3073 1.393 . S
C3070 H3062 0.950 . S
C3070 C3068 1.391 . S
C3070 C3071 1.400 1_565 S
C3071 C3070 1.400 1_545 S
C3071 C3072 1.398 . S
C3071 C3077 1.491 1_545 S
C3072 H3063 0.950 . S
C3072 C3071 1.398 . S
C3072 C3073 1.391 . S
C3073 H3061 0.950 . S
C3073 C3069 1.393 . S
C3073 C3072 1.391 . S
C3074 H3064 0.950 . S
C3074 C3075 1.386 1_545 S
C3074 C3076 1.391 . S
C3075 C3074 1.386 1_565 S
C3075 C3079 1.393 . S
C3076 H3065 0.950 . S
C3076 C3074 1.391 . S
C3076 C3077 1.400 1_545 S
C3077 C3071 1.491 1_565 S
C3077 C3076 1.400 1_565 S
C3077 C3078 1.398 . S
C3078 H3066 0.950 . S
C3078 C3077 1.398 . S
C3078 C3079 1.391 . S
C3079 H3067 0.950 . S
C3079 C3075 1.393 . S
C3079 C3078 1.391 . S
H3080 C3088 0.950 . S
H3081 C3093 0.950 . S
H3082 C3090 0.950 . S
H3083 C3092 0.950 . S
H3084 C3094 0.950 . S
H3085 C3096 0.950 . S
H3086 C3098 0.950 . S
H3087 C3099 0.950 . S
C3088 H3080 0.950 . S
C3088 C3089 1.386 . S
C3088 C3090 1.391 . S
C3089 C3088 1.386 . S
C3089 C3093 1.393 . S
C3090 H3082 0.950 . S
C3090 C3088 1.391 . S
C3090 C3091 1.400 . S
C3091 C3090 1.400 . S
C3091 C3092 1.398 . S
C3091 C3097 1.491 . S
C3092 H3083 0.950 . S
C3092 C3091 1.398 . S
C3092 C3093 1.391 . S
C3093 H3081 0.950 . S
C3093 C3089 1.393 . S
C3093 C3092 1.391 . S
C3094 H3084 0.950 . S
C3094 C3095 1.386 . S
C3094 C3096 1.391 . S
C3095 C3094 1.386 . S
C3095 C3099 1.393 . S
C3096 H3085 0.950 . S
C3096 C3094 1.391 . S
C3096 C3097 1.400 . S
C3097 C3091 1.491 . S
C3097 C3096 1.400 . S
C3097 C3098 1.398 . S
C3098 H3086 0.950 . S
C3098 C3097 1.398 . S
C3098 C3099 1.391 . S
C3099 H3087 0.950 . S
C3099 C3095 1.393 . S
C3099 C3098 1.391 . S
H3100 C3108 0.950 . S
H3101 C3113 0.950 . S
H3102 C3110 0.950 . S
H3103 C3112 0.950 . S
H3104 C3114 0.950 . S
H3105 C3116 0.950 . S
H3106 C3118 0.950 . S
H3107 C3119 0.950 . S
C3108 H3100 0.950 . S
C3108 C3109 1.386 . S
C3108 C3110 1.391 . S
C3109 C3108 1.386 . S
C3109 C3113 1.393 1_565 S
C3110 H3102 0.950 . S
C3110 C3108 1.391 . S
C3110 C3111 1.406 . S
C3111 C3110 1.406 . S
C3111 C3112 1.393 1_565 S
C3111 C3117 1.490 1_565 S
C3112 H3103 0.950 . S
C3112 C3111 1.393 1_545 S
C3112 C3113 1.391 . S
C3113 H3101 0.950 . S
C3113 C3109 1.393 1_545 S
C3113 C3112 1.391 . S
C3114 H3104 0.950 . S
C3114 C3115 1.386 . S
C3114 C3116 1.391 . S
C3115 C3114 1.386 . S
C3115 C3119 1.393 1_545 S
C3116 H3105 0.950 . S
C3116 C3114 1.391 . S
C3116 C3117 1.406 . S
C3117 C3111 1.490 1_545 S
C3117 C3116 1.406 . S
C3117 C3118 1.393 1_545 S
C3118 H3106 0.950 . S
C3118 C3117 1.393 1_565 S
C3118 C3119 1.391 . S
C3119 H3107 0.950 . S
C3119 C3115 1.393 1_565 S
C3119 C3118 1.391 . S
H3120 C3128 0.950 . S
H3121 C3133 0.950 . S
H3122 C3130 0.950 . S
H3123 C3132 0.950 . S
H3124 C3134 0.950 . S
H3125 C3136 0.950 . S
H3126 C3138 0.950 . S
H3127 C3139 0.950 . S
C3128 H3120 0.950 . S
C3128 C3129 1.386 . S
C3128 C3130 1.391 . S
C3129 C3128 1.386 . S
C3129 C3133 1.393 . S
C3130 H3122 0.950 . S
C3130 C3128 1.391 . S
C3130 C3131 1.400 . S
C3131 C3130 1.400 . S
C3131 C3132 1.398 . S
C3131 C3137 1.491 . S
C3132 H3123 0.950 . S
C3132 C3131 1.398 . S
C3132 C3133 1.391 . S
C3133 H3121 0.950 . S
C3133 C3129 1.393 . S
C3133 C3132 1.391 . S
C3134 H3124 0.950 . S
C3134 C3135 1.386 . S
C3134 C3136 1.391 . S
C3135 C3134 1.386 . S
C3135 C3139 1.393 . S
C3136 H3125 0.950 . S
C3136 C3134 1.391 . S
C3136 C3137 1.400 . S
C3137 C3131 1.491 . S
C3137 C3136 1.400 . S
C3137 C3138 1.398 . S
C3138 H3126 0.950 . S
C3138 C3137 1.398 . S
C3138 C3139 1.391 . S
C3139 H3127 0.950 . S
C3139 C3135 1.393 . S
C3139 C3138 1.391 . S
H3140 C3148 0.950 . S
H3141 C3153 0.950 . S
H3142 C3150 0.950 . S
H3143 C3152 0.950 . S
H3144 C3154 0.950 . S
H3145 C3156 0.950 . S
H3146 C3158 0.950 . S
H3147 C3159 0.950 . S
C3148 H3140 0.950 . S
C3148 C3149 1.386 . S
C3148 C3150 1.391 . S
C3149 C3148 1.386 . S
C3149 C3153 1.393 . S
C3150 H3142 0.950 . S
C3150 C3148 1.391 . S
C3150 C3151 1.400 . S
C3151 C3150 1.400 . S
C3151 C3152 1.398 . S
C3151 C3157 1.491 . S
C3152 H3143 0.950 . S
C3152 C3151 1.398 . S
C3152 C3153 1.391 . S
C3153 H3141 0.950 . S
C3153 C3149 1.393 . S
C3153 C3152 1.391 . S
C3154 H3144 0.950 . S
C3154 C3155 1.386 . S
C3154 C3156 1.391 . S
C3155 C3154 1.386 . S
C3155 C3159 1.393 . S
C3156 H3145 0.950 . S
C3156 C3154 1.391 . S
C3156 C3157 1.400 . S
C3157 C3151 1.491 . S
C3157 C3156 1.400 . S
C3157 C3158 1.398 . S
C3158 H3146 0.950 . S
C3158 C3157 1.398 . S
C3158 C3159 1.391 . S
C3159 H3147 0.950 . S
C3159 C3155 1.393 . S
C3159 C3158 1.391 . S
H3160 C3168 0.950 . S
H3161 C3173 0.950 . S
H3162 C3170 0.950 . S
H3163 C3172 0.950 . S
H3164 C3174 0.950 . S
H3165 C3176 0.950 . S
H3166 C3178 0.950 . S
H3167 C3179 0.950 . S
C3168 H3160 0.950 . S
C3168 C3169 1.386 . S
C3168 C3170 1.391 . S
C3169 C3168 1.386 . S
C3169 C3173 1.393 . S
C3170 H3162 0.950 . S
C3170 C3168 1.391 . S
C3170 C3171 1.400 . S
C3171 C3170 1.400 . S
C3171 C3172 1.398 . S
C3171 C3177 1.491 . S
C3172 H3163 0.950 . S
C3172 C3171 1.398 . S
C3172 C3173 1.391 . S
C3173 H3161 0.950 . S
C3173 C3169 1.393 . S
C3173 C3172 1.391 . S
C3174 H3164 0.950 . S
C3174 C3175 1.386 . S
C3174 C3176 1.391 . S
C3175 C3174 1.386 . S
C3175 C3179 1.393 . S
C3176 H3165 0.950 . S
C3176 C3174 1.391 . S
C3176 C3177 1.400 . S
C3177 C3171 1.491 . S
C3177 C3176 1.400 . S
C3177 C3178 1.398 . S
C3178 H3166 0.950 . S
C3178 C3177 1.398 . S
C3178 C3179 1.391 . S
C3179 H3167 0.950 . S
C3179 C3175 1.393 . S
C3179 C3178 1.391 . S
H3180 C3188 0.950 . S
H3181 C3193 0.950 . S
H3182 C3190 0.950 . S
H3183 C3192 0.950 . S
H3184 C3194 0.950 . S
H3185 C3196 0.950 . S
H3186 C3198 0.950 . S
H3187 C3199 0.950 . S
C3188 H3180 0.950 . S
C3188 C3189 1.386 1_545 S
C3188 C3190 1.391 . S
C3189 C3188 1.386 1_565 S
C3189 C3193 1.393 . S
C3190 H3182 0.950 . S
C3190 C3188 1.391 . S
C3190 C3191 1.390 1_545 S
C3191 C3190 1.390 1_565 S
C3191 C3192 1.410 . S
C3191 C3197 1.490 1_564 S
C3192 H3183 0.950 . S
C3192 C3191 1.410 . S
C3192 C3193 1.391 . S
C3193 H3181 0.950 . S
C3193 C3189 1.393 . S
C3193 C3192 1.391 . S
C3194 H3184 0.950 . S
C3194 C3195 1.386 1_565 S
C3194 C3196 1.391 . S
C3195 C3194 1.386 1_545 S
C3195 C3199 1.393 . S
C3196 H3185 0.950 . S
C3196 C3194 1.391 . S
C3196 C3197 1.390 1_565 S
C3197 C3191 1.490 1_546 S
C3197 C3196 1.390 1_545 S
C3197 C3198 1.410 . S
C3198 H3186 0.950 . S
C3198 C3197 1.410 . S
C3198 C3199 1.391 . S
C3199 H3187 0.950 . S
C3199 C3195 1.393 . S
C3199 C3198 1.391 . S
C1289 C10 1.625 . S
C1295 C1010 1.634 . S
C1309 C970 1.631 . S
C1315 C50 1.631 . S
C1329 C1090 1.626 . S
C1335 C90 1.630 . S
C1349 C130 1.628 . S
C1355 C1050 1.633 . S
C1369 C179 1.634 . S
C1375 C1179 1.627 . S
C1389 C219 1.632 . S
C1395 C1139 1.626 . S
C1409 C259 1.625 . S
C1415 C1259 1.634 . S
C1429 C1219 1.625 . S
C1435 C299 1.633 . S
C1449 C330 1.626 . S
C1455 C690 1.634 . S
C1469 C370 1.626 . S
C1475 C650 1.634 . S
C1489 C410 1.634 . S
C1495 C770 1.625 . S
C1509 C730 1.632 . S
C1515 C450 1.630 . S
C1529 C499 1.628 . S
C1535 C859 1.629 . S
C1549 C539 1.632 . S
C1555 C819 1.626 . S
C1569 C939 1.630 . S
C1575 C579 1.631 . S
C1589 C619 1.631 . S
C1595 C899 1.631 . S
C1609 C9 1.605 . S
C1615 C129 1.614 . S
C1629 C49 1.605 . S
C1635 C89 1.616 . S
C1649 C298 1.615 . S
C1655 C178 1.605 . S
C1669 C258 1.606 . S
C1675 C218 1.614 . S
C1689 C329 1.618 . S
C1695 C449 1.606 . S
C1709 C369 1.606 . S
C1715 C409 1.615 . S
C1729 C498 1.606 . S
C1735 C618 1.618 . S
C1749 C578 1.608 . S
C1755 C538 1.618 . S
C1769 C649 1.615 . S
C1775 C769 1.614 . S
C1789 C689 1.608 . S
C1795 C729 1.618 . S
C1809 C938 1.606 . S
C1815 C818 1.613 . S
C1829 C858 1.613 . S
C1835 C898 1.606 . S
C1849 C1089 1.608 . S
C1855 C969 1.618 . S
C1869 C1009 1.613 . S
C1875 C1049 1.616 . S
C1889 C1258 1.606 . S
C1895 C1138 1.614 . S
C1909 C1218 1.606 . S
C1915 C1178 1.615 . S
C1929 C59 1.507 . S
C1935 C19 1.517 . S
C1949 C99 1.525 . S
C1955 C139 1.521 . S
C1969 C210 1.502 . S
C1975 C170 1.510 . S
C1989 C290 1.525 . S
C1995 C250 1.518 . S
C2009 C339 1.524 . S
C2015 C379 1.516 . S
C2029 C419 1.506 . S
C2035 C459 1.501 . S
C2049 C530 1.518 . S
C2055 C490 1.508 . S
C2069 C570 1.512 . S
C2075 C610 1.503 . S
C2089 C659 1.520 . S
C2095 C699 1.510 . S
C2109 C779 1.504 . S
C2115 C739 1.501 . S
C2129 C810 1.501 . S
C2135 C850 1.505 . S
C2149 C890 1.506 . S
C2155 C930 1.501 . S
C2169 C979 1.508 . S
C2175 C1019 1.517 . S
C2189 C1059 1.504 . S
C2195 C1099 1.501 . S
C2209 C1170 1.525 . S
C2215 C1130 1.521 . S
C2229 C1210 1.511 . S
C2235 C1250 1.521 . S
C2249 C6 1.675 . S
C2255 C15 1.675 . S
C2269 C46 1.672 . S
C2275 C55 1.672 . S
C2289 C86 1.672 . S
C2295 C95 1.672 . S
C2309 C135 1.685 . S
C2315 C126 1.685 . S
C2329 C166 1.670 . S
C2335 C175 1.670 . S
C2349 C215 1.675 . S
C2355 C206 1.675 . S
C2369 C246 1.681 . S
C2375 C255 1.681 . S
C2389 C286 1.671 . S
C2395 C295 1.671 . S
C2409 C335 1.670 . S
C2415 C326 1.670 . S
C2429 C366 1.684 . S
C2435 C375 1.684 . S
C2449 C406 1.682 . S
C2455 C415 1.682 . S
C2469 C455 1.684 . S
C2475 C446 1.684 . S
C2489 C486 1.685 . S
C2495 C495 1.685 . S
C2509 C535 1.671 . S
C2515 C526 1.671 . S
C2529 C575 1.684 . S
C2535 C566 1.684 . S
C2549 C606 1.685 . S
C2555 C615 1.685 . S
C2569 C646 1.682 . S
C2575 C655 1.682 . S
C2589 C695 1.679 . S
C2595 C686 1.679 . S
C2609 C735 1.681 . S
C2615 C726 1.681 . S
C2629 C766 1.671 . S
C2635 C775 1.671 . S
C2649 C815 1.670 . S
C2655 C806 1.670 . S
C2669 C855 1.685 . S
C2675 C846 1.685 . S
C2689 C886 1.685 . S
C2695 C895 1.685 . S
C2709 C935 1.674 . S
C2715 C926 1.674 . S
C2729 C975 1.683 . S
C2735 C966 1.683 . S
C2749 C1006 1.673 . S
C2755 C1015 1.673 . S
C2769 C1055 1.669 . S
C2775 C1046 1.669 . S
C2789 C1095 1.682 . S
C2795 C1086 1.682 . S
C2809 C1135 1.669 . S
C2815 C1126 1.669 . S
C2829 C1175 1.679 . S
C2835 C1166 1.679 . S
C2849 C1206 1.684 . S
C2855 C1215 1.684 . S
C2869 C1246 1.675 . S
C2875 C1255 1.675 . S
C2889 C18 1.482 . S
C2895 C169 1.482 . S
C2909 C1169 1.478 . S
C2915 C58 1.478 . S
C2929 C569 1.466 . S
C2935 C98 1.466 . S
C2949 C138 1.481 . S
C2955 C929 1.481 . S
C2969 C209 1.491 . S
C2975 C1018 1.491 . S
C2989 C249 1.492 . S
C2995 C418 1.492 . S
C3009 C289 1.479 . S
C3015 C778 1.479 . S
C3029 C338 1.492 . S
C3035 C489 1.492 . S
C3049 C849 1.475 . S
C3055 C378 1.475 . S
C3069 C1249 1.485 . S
C3075 C458 1.485 . S
C3089 C529 1.484 . S
C3095 C698 1.484 . S
C3109 C1098 1.489 . S
C3115 C609 1.489 . S
C3129 C658 1.483 . S
C3135 C809 1.483 . S
C3149 C1209 1.466 . S
C3155 C738 1.466 . S
C3169 C889 1.487 . S
C3175 C1058 1.487 . S
C3189 C978 1.473 . S
C3195 C1129 1.473 . S
