# Generated by pormake.
# Topology neb, (4)-cn, num edge types: 1
# Building blocks:
#     Node 0, Type 0, BuildingBlock: NAHDIM_clean_sbu_0, # of connection points: 4
#     Node 1, Type 0, BuildingBlock: NAHDIM_clean_sbu_0, # of connection points: 4
#     Node 2, Type 0, BuildingBlock: NAHDIM_clean_sbu_0, # of connection points: 4
#     Node 3, Type 0, BuildingBlock: NAHDIM_clean_sbu_0, # of connection points: 4
#     Node 4, Type 0, BuildingBlock: NAHDIM_clean_sbu_0, # of connection points: 4
#     Node 5, Type 0, BuildingBlock: NAHDIM_clean_sbu_0, # of connection points: 4
#     Node 6, Type 0, BuildingBlock: NAHDIM_clean_sbu_0, # of connection points: 4
#     Node 7, Type 0, BuildingBlock: NAHDIM_clean_sbu_0, # of connection points: 4
#     Node 8, Type 0, BuildingBlock: NAHDIM_clean_sbu_0, # of connection points: 4
#     Node 9, Type 0, BuildingBlock: NAHDIM_clean_sbu_0, # of connection points: 4
#     Node 10, Type 0, BuildingBlock: NAHDIM_clean_sbu_0, # of connection points: 4
#     Node 11, Type 0, BuildingBlock: NAHDIM_clean_sbu_0, # of connection points: 4
#     Node 12, Type 0, BuildingBlock: NAHDIM_clean_sbu_0, # of connection points: 4
#     Node 13, Type 0, BuildingBlock: NAHDIM_clean_sbu_0, # of connection points: 4
#     Node 14, Type 0, BuildingBlock: NAHDIM_clean_sbu_0, # of connection points: 4
#     Node 15, Type 0, BuildingBlock: NAHDIM_clean_sbu_0, # of connection points: 4
#     Edge 16, Type (0, 0), BuildingBlock: UVAHIK_clean_linker_0, # of connection points: 2
#     Edge 17, Type (0, 0), BuildingBlock: UVAHIK_clean_linker_0, # of connection points: 2
#     Edge 18, Type (0, 0), BuildingBlock: UVAHIK_clean_linker_0, # of connection points: 2
#     Edge 19, Type (0, 0), BuildingBlock: UVAHIK_clean_linker_0, # of connection points: 2
#     Edge 20, Type (0, 0), BuildingBlock: UVAHIK_clean_linker_0, # of connection points: 2
#     Edge 21, Type (0, 0), BuildingBlock: UVAHIK_clean_linker_0, # of connection points: 2
#     Edge 22, Type (0, 0), BuildingBlock: UVAHIK_clean_linker_0, # of connection points: 2
#     Edge 23, Type (0, 0), BuildingBlock: UVAHIK_clean_linker_0, # of connection points: 2
#     Edge 24, Type (0, 0), BuildingBlock: UVAHIK_clean_linker_0, # of connection points: 2
#     Edge 25, Type (0, 0), BuildingBlock: UVAHIK_clean_linker_0, # of connection points: 2
#     Edge 26, Type (0, 0), BuildingBlock: UVAHIK_clean_linker_0, # of connection points: 2
#     Edge 27, Type (0, 0), BuildingBlock: UVAHIK_clean_linker_0, # of connection points: 2
#     Edge 28, Type (0, 0), BuildingBlock: UVAHIK_clean_linker_0, # of connection points: 2
#     Edge 29, Type (0, 0), BuildingBlock: UVAHIK_clean_linker_0, # of connection points: 2
#     Edge 30, Type (0, 0), BuildingBlock: UVAHIK_clean_linker_0, # of connection points: 2
#     Edge 31, Type (0, 0), BuildingBlock: UVAHIK_clean_linker_0, # of connection points: 2
#     Edge 32, Type (0, 0), BuildingBlock: UVAHIK_clean_linker_0, # of connection points: 2
#     Edge 33, Type (0, 0), BuildingBlock: UVAHIK_clean_linker_0, # of connection points: 2
#     Edge 34, Type (0, 0), BuildingBlock: UVAHIK_clean_linker_0, # of connection points: 2
#     Edge 35, Type (0, 0), BuildingBlock: UVAHIK_clean_linker_0, # of connection points: 2
#     Edge 36, Type (0, 0), BuildingBlock: UVAHIK_clean_linker_0, # of connection points: 2
#     Edge 37, Type (0, 0), BuildingBlock: UVAHIK_clean_linker_0, # of connection points: 2
#     Edge 38, Type (0, 0), BuildingBlock: UVAHIK_clean_linker_0, # of connection points: 2
#     Edge 39, Type (0, 0), BuildingBlock: UVAHIK_clean_linker_0, # of connection points: 2
#     Edge 40, Type (0, 0), BuildingBlock: UVAHIK_clean_linker_0, # of connection points: 2
#     Edge 41, Type (0, 0), BuildingBlock: UVAHIK_clean_linker_0, # of connection points: 2
#     Edge 42, Type (0, 0), BuildingBlock: UVAHIK_clean_linker_0, # of connection points: 2
#     Edge 43, Type (0, 0), BuildingBlock: UVAHIK_clean_linker_0, # of connection points: 2
#     Edge 44, Type (0, 0), BuildingBlock: UVAHIK_clean_linker_0, # of connection points: 2
#     Edge 45, Type (0, 0), BuildingBlock: UVAHIK_clean_linker_0, # of connection points: 2
#     Edge 46, Type (0, 0), BuildingBlock: UVAHIK_clean_linker_0, # of connection points: 2
#     Edge 47, Type (0, 0), BuildingBlock: UVAHIK_clean_linker_0, # of connection points: 2
# Relax obj value: 0.079
# Max RMSD: 0.134
# Mean RMSD: 0.134
data_MOF--net-neb--node1-NAHDIM_clean_sbu_0--edge1-UVAHIK_clean_linker_0
_symmetry_space_group_name_H-M    P1
_symmetry_Int_Tables_number       1
_symmetry_cell_setting            triclinic
loop_
_symmetry_equiv_pos_as_xyz
'x, y, z'
_cell_length_a     59.270087
_cell_length_b     28.482858
_cell_length_c     92.858266
_cell_angle_alpha  90.024977
_cell_angle_beta   93.649162
_cell_angle_gamma 90.092067
loop_
_atom_site_label
_atom_site_type_symbol
_atom_site_fract_x
_atom_site_fract_y
_atom_site_fract_z
_atom_type_partial_charge
C0 C 0.08022 0.12901 0.4666 0.0
O1 O 0.09894 0.141 0.47405 0.0
O2 O 0.13115 0.17896 0.4552 0.0
Zn3 Zn 0.10398 0.1622 0.44214 0.0
O4 O 0.11228 0.11375 0.42753 0.0
C5 C 0.10951 0.23379 0.42251 0.0
O6 O 0.1281 0.20905 0.42176 0.0
O7 O 0.07851 0.13626 0.45307 0.0
C8 C 0.10056 0.11166 0.4156 0.0
O9 O 0.08313 0.1398 0.41343 0.0
C10 C 0.14855 0.15309 0.45689 0.0
O11 O 0.14868 0.11203 0.45045 0.0
O12 O 0.09504 0.22102 0.43126 0.0
C13 C 0.15665 0.08443 0.79059 0.0
O14 O 0.13875 0.06071 0.79404 0.0
O15 O 0.10944 0.17886 0.79331 0.0
Zn16 Zn 0.13532 0.15607 0.80648 0.0
O17 O 0.1237 0.10876 0.82026 0.0
C18 C 0.15195 0.25021 0.81251 0.0
O19 O 0.14882 0.25549 0.79847 0.0
O20 O 0.15904 0.1267 0.79482 0.0
C21 C 0.11325 0.12221 0.83106 0.0
O22 O 0.11032 0.16734 0.83317 0.0
C23 C 0.09271 0.15231 0.78985 0.0
O24 O 0.09263 0.10909 0.79478 0.0
O25 O 0.14799 0.21055 0.81808 0.0
C26 C 0.9106 0.85582 0.53294 0.0
O27 O 0.89334 0.83838 0.52511 0.0
O28 O 0.85926 0.80559 0.54377 0.0
Zn29 Zn 0.88491 0.8279 0.55728 0.0
O30 O 0.87391 0.87893 0.56994 0.0
C31 C 0.90048 0.73461 0.56529 0.0
O32 O 0.90039 0.72815 0.55127 0.0
O33 O 0.91071 0.85381 0.54662 0.0
C34 C 0.85716 0.87271 0.57761 0.0
O35 O 0.84654 0.83216 0.57705 0.0
C36 C 0.84445 0.83389 0.53843 0.0
O37 O 0.84634 0.87883 0.54147 0.0
O38 O 0.8951 0.77451 0.57011 0.0
C39 C 0.82929 0.89378 0.20618 0.0
O40 O 0.84926 0.91358 0.20562 0.0
O41 O 0.87656 0.81067 0.20244 0.0
Zn42 Zn 0.85032 0.82733 0.18868 0.0
O43 O 0.86111 0.87534 0.17476 0.0
C44 C 0.84033 0.7291 0.18337 0.0
O45 O 0.84729 0.72448 0.19701 0.0
O46 O 0.82546 0.85518 0.1996 0.0
C47 C 0.86527 0.86505 0.16187 0.0
O48 O 0.86216 0.82177 0.15726 0.0
C49 C 0.89393 0.79183 0.19757 0.0
O50 O 0.89408 0.7831 0.18368 0.0
O51 O 0.83951 0.76979 0.17777 0.0
C52 C 0.0823 0.63226 0.9594 0.0
O53 O 0.09512 0.66351 0.9664 0.0
O54 O 0.13356 0.68328 0.94861 0.0
Zn55 Zn 0.10857 0.6576 0.9352 0.0
O56 O 0.12159 0.61127 0.92169 0.0
C57 C 0.08985 0.74964 0.92892 0.0
O58 O 0.0922 0.75503 0.94299 0.0
O59 O 0.08495 0.62481 0.94612 0.0
C60 C 0.13107 0.62485 0.91051 0.0
O61 O 0.13247 0.67001 0.90783 0.0
C62 C 0.15026 0.65774 0.95279 0.0
O63 O 0.15073 0.61375 0.94856 0.0
O64 O 0.09504 0.71059 0.92342 0.0
C65 C 0.16097 0.64221 0.27823 0.0
O66 O 0.14403 0.66055 0.27034 0.0
O67 O 0.10743 0.67994 0.28838 0.0
Zn68 Zn 0.13418 0.66693 0.3023 0.0
O69 O 0.12545 0.61629 0.31593 0.0
C70 C 0.13962 0.7659 0.30855 0.0
O71 O 0.13268 0.77059 0.29491 0.0
O72 O 0.16057 0.64277 0.2919 0.0
C73 C 0.11649 0.62447 0.32775 0.0
O74 O 0.11258 0.66804 0.3315 0.0
C75 C 0.08989 0.69918 0.29291 0.0
O76 O 0.08967 0.7107 0.30659 0.0
O77 O 0.14236 0.72497 0.31379 0.0
C78 C 0.92224 0.35534 0.03334 0.0
O79 O 0.90872 0.32557 0.02624 0.0
O80 O 0.86867 0.31405 0.04376 0.0
Zn81 Zn 0.89472 0.334 0.0573 0.0
O82 O 0.88427 0.38116 0.07146 0.0
C83 C 0.90465 0.23661 0.06378 0.0
O84 O 0.89783 0.23011 0.05018 0.0
O85 O 0.91958 0.36319 0.04659 0.0
C86 C 0.86597 0.37596 0.07771 0.0
O87 O 0.85301 0.33951 0.07447 0.0
C88 C 0.85423 0.34286 0.03827 0.0
O89 O 0.85652 0.3878 0.04122 0.0
O90 O 0.90564 0.27809 0.06881 0.0
C91 C 0.83587 0.39635 0.70787 0.0
O92 O 0.85477 0.41845 0.70553 0.0
O93 O 0.88238 0.3056 0.70274 0.0
Zn94 Zn 0.85561 0.32771 0.69015 0.0
O95 O 0.86592 0.37616 0.67629 0.0
C96 C 0.84546 0.23119 0.68257 0.0
O97 O 0.8566 0.22263 0.69497 0.0
O98 O 0.83233 0.35598 0.70233 0.0
C99 C 0.87652 0.3638 0.66543 0.0
O100 O 0.88049 0.31901 0.66336 0.0
C101 C 0.89963 0.33146 0.70542 0.0
O102 O 0.8999 0.3741 0.70005 0.0
O103 O 0.84238 0.27348 0.67857 0.0
C104 C 0.58704 0.11785 0.96219 0.0
O105 O 0.605 0.0933 0.95941 0.0
O106 O 0.63763 0.19821 0.95671 0.0
Zn107 Zn 0.60925 0.18198 0.94464 0.0
O108 O 0.61525 0.13121 0.93043 0.0
C109 C 0.60508 0.27998 0.9372 0.0
O110 O 0.6162 0.28561 0.94978 0.0
O111 O 0.58493 0.15917 0.95711 0.0
C112 C 0.63158 0.13244 0.92221 0.0
O113 O 0.64589 0.16775 0.9232 0.0
C114 C 0.65363 0.16979 0.96 0.0
O115 O 0.6519 0.1259 0.95571 0.0
O116 O 0.59934 0.23885 0.9331 0.0
C117 C 0.65738 0.10967 0.28672 0.0
O118 O 0.63792 0.08827 0.28787 0.0
O119 O 0.61072 0.19674 0.29356 0.0
Zn120 Zn 0.63725 0.17228 0.30594 0.0
O121 O 0.6275 0.12045 0.31886 0.0
C122 C 0.65486 0.26426 0.31353 0.0
O123 O 0.65379 0.27045 0.29948 0.0
O124 O 0.6612 0.14783 0.29354 0.0
C125 C 0.61225 0.12713 0.32765 0.0
O126 O 0.60245 0.16842 0.32807 0.0
C127 C 0.5932 0.17217 0.29036 0.0
O128 O 0.59238 0.12861 0.29493 0.0
O129 O 0.64926 0.22479 0.31857 0.0
C130 C 0.40951 0.89444 0.03617 0.0
O131 O 0.39115 0.91799 0.03875 0.0
O132 O 0.3591 0.81426 0.03967 0.0
Zn133 Zn 0.3869 0.82775 0.0526 0.0
O134 O 0.38066 0.87535 0.06776 0.0
C135 C 0.39165 0.72816 0.0574 0.0
O136 O 0.38228 0.72577 0.04421 0.0
O137 O 0.41176 0.85281 0.04098 0.0
C138 C 0.36394 0.87324 0.07564 0.0
O139 O 0.34911 0.83915 0.07365 0.0
C140 C 0.34273 0.84218 0.03683 0.0
O141 O 0.34334 0.8846 0.0424 0.0
O142 O 0.39614 0.76819 0.06293 0.0
C143 C 0.3266 0.87776 0.70642 0.0
O144 O 0.34371 0.90425 0.70315 0.0
O145 O 0.37929 0.80091 0.70603 0.0
Zn146 Zn 0.35274 0.81244 0.69184 0.0
O147 O 0.35998 0.86112 0.67705 0.0
C148 C 0.36286 0.72841 0.6777 0.0
O149 O 0.38309 0.7425 0.68247 0.0
O150 O 0.32627 0.83494 0.70254 0.0
C151 C 0.37899 0.86552 0.67157 0.0
O152 O 0.39582 0.83799 0.67592 0.0
C153 C 0.39383 0.83139 0.71041 0.0
O154 O 0.39163 0.87501 0.70596 0.0
O155 O 0.34578 0.7524 0.68085 0.0
C156 C 0.58434 0.6256 0.46216 0.0
O157 O 0.60137 0.64416 0.46994 0.0
O158 O 0.63313 0.68574 0.45117 0.0
Zn159 Zn 0.60718 0.66379 0.43782 0.0
O160 O 0.61939 0.61797 0.42387 0.0
C161 C 0.59758 0.7607 0.4307 0.0
O162 O 0.60841 0.76822 0.44328 0.0
O163 O 0.58323 0.63079 0.44853 0.0
C164 C 0.63029 0.63191 0.41332 0.0
O165 O 0.63343 0.67713 0.41148 0.0
C166 C 0.64889 0.65788 0.45543 0.0
O167 O 0.64771 0.61363 0.45144 0.0
O168 O 0.59424 0.71872 0.42643 0.0
C169 C 0.66327 0.61251 0.78766 0.0
O170 O 0.64434 0.58943 0.78911 0.0
O171 O 0.61302 0.69187 0.78977 0.0
Zn172 Zn 0.63939 0.67732 0.80374 0.0
O173 O 0.63036 0.62861 0.81803 0.0
C174 C 0.63015 0.75215 0.8213 0.0
O175 O 0.611 0.72867 0.82017 0.0
O176 O 0.66553 0.65323 0.79317 0.0
C177 C 0.6402 0.6276 0.83059 0.0
O178 O 0.65654 0.65768 0.83389 0.0
C179 C 0.59582 0.66534 0.788 0.0
O180 O 0.59549 0.62521 0.79495 0.0
O181 O 0.64677 0.73689 0.81468 0.0
C182 C 0.41911 0.33659 0.52695 0.0
O183 O 0.4016 0.32135 0.51889 0.0
O184 O 0.36543 0.29831 0.53653 0.0
Zn185 Zn 0.39187 0.31075 0.55073 0.0
O186 O 0.38438 0.36062 0.56502 0.0
C187 C 0.38162 0.22705 0.56508 0.0
O188 O 0.36134 0.24152 0.5606 0.0
O189 O 0.41889 0.33373 0.5406 0.0
C190 C 0.3655 0.36588 0.57061 0.0
O191 O 0.3486 0.33768 0.56683 0.0
C192 C 0.35117 0.32875 0.53182 0.0
O193 O 0.35368 0.37275 0.53587 0.0
O194 O 0.39869 0.25111 0.56189 0.0
C195 C 0.32914 0.36269 0.21307 0.0
O196 O 0.34485 0.34159 0.22132 0.0
O197 O 0.38317 0.32408 0.20497 0.0
Zn198 Zn 0.35724 0.33423 0.19027 0.0
O199 O 0.36677 0.37768 0.17464 0.0
C200 C 0.36681 0.25168 0.1761 0.0
O201 O 0.38649 0.2731 0.17739 0.0
O202 O 0.33062 0.36271 0.19948 0.0
C203 C 0.35808 0.37303 0.16184 0.0
O204 O 0.34278 0.34027 0.15911 0.0
C205 C 0.39982 0.35193 0.20704 0.0
O206 O 0.40024 0.39112 0.1996 0.0
O207 O 0.34986 0.27134 0.18126 0.0
C208 C 0.32955 0.26734 0.51749 0.0
C209 C 0.33103 0.31357 0.52279 0.0
C210 C 0.30999 0.25166 0.5098 0.0
C211 C 0.24919 0.2742 0.50529 0.0
H212 H 0.25212 0.19564 0.47134 0.0
C213 C 0.16948 0.21669 0.47074 0.0
C214 C 0.16899 0.17083 0.46512 0.0
C215 C 0.18917 0.23464 0.47776 0.0
C216 C 0.25102 0.21703 0.48091 0.0
H217 H 0.3133 0.3799 0.5239 0.0
H218 H 0.27903 0.35236 0.51043 0.0
H219 H 0.28686 0.22735 0.48304 0.0
H220 H 0.18867 0.10746 0.46277 0.0
H221 H 0.22294 0.13851 0.47525 0.0
H222 H 0.2134 0.26342 0.5033 0.0
C223 C 0.29302 0.32826 0.51234 0.0
C224 C 0.27092 0.23535 0.48757 0.0
C225 C 0.31269 0.3441 0.51996 0.0
C226 C 0.18851 0.14299 0.46693 0.0
C227 C 0.2082 0.16091 0.47398 0.0
C228 C 0.22929 0.25573 0.49866 0.0
C229 C 0.29141 0.28175 0.5073 0.0
C230 C 0.27022 0.26398 0.49986 0.0
C231 C 0.20883 0.20711 0.47936 0.0
C232 C 0.22997 0.22679 0.48642 0.0
H233 H 0.3434 0.24293 0.51947 0.0
H234 H 0.30919 0.21551 0.50618 0.0
H235 H 0.24815 0.29558 0.51487 0.0
H236 H 0.15476 0.23916 0.4695 0.0
H237 H 0.18913 0.27052 0.48162 0.0
C238 C 0.94713 0.90042 0.53439 0.0
C239 C 0.92891 0.88084 0.52599 0.0
C240 C 0.96369 0.92661 0.52794 0.0
C241 C 0.97264 0.99643 0.4955 0.0
H242 H 0.03613 0.98355 0.50767 0.0
C243 C 0.04332 0.08578 0.46538 0.0
C244 C 0.06204 0.10387 0.47365 0.0
C245 C 0.02689 0.05939 0.47187 0.0
C246 C 0.01844 0.98803 0.50428 0.0
H247 H 0.9141 0.87247 0.50416 0.0
H248 H 0.94311 0.91796 0.4929 0.0
H249 H 0.00823 0.93426 0.51861 0.0
H250 H 0.07785 0.10953 0.49531 0.0
H251 H 0.04894 0.06416 0.50668 0.0
H252 H 0.98279 0.05035 0.48123 0.0
C253 C 0.9444 0.91353 0.50451 0.0
C254 C 0.00247 0.95969 0.51053 0.0
C255 C 0.92787 0.8872 0.51095 0.0
C256 C 0.0637 0.09589 0.48862 0.0
C257 C 0.04721 0.0696 0.49512 0.0
C258 C 0.9886 0.02487 0.48928 0.0
C259 C 0.96237 0.93389 0.51295 0.0
C260 C 0.9794 0.96353 0.50619 0.0
C261 C 0.02873 0.05062 0.4868 0.0
C262 C 0.01169 0.02098 0.49359 0.0
H263 H 0.94844 0.89622 0.54601 0.0
H264 H 0.9772 0.9422 0.53475 0.0
H265 H 0.95495 0.00077 0.4921 0.0
H266 H 0.04157 0.09112 0.45382 0.0
H267 H 0.01303 0.04485 0.46512 0.0
C268 C 0.30923 0.94501 0.71897 0.0
C269 C 0.30828 0.89775 0.71462 0.0
C270 C 0.29217 0.96419 0.72682 0.0
C271 C 0.24672 0.9319 0.75025 0.0
H272 H 0.22583 0.05847 0.74176 0.0
C273 C 0.1712 0.01527 0.77735 0.0
C274 C 0.17367 0.06229 0.78179 0.0
C275 C 0.18717 0.99441 0.76894 0.0
C276 C 0.23164 0.02326 0.74435 0.0
H277 H 0.28859 0.83356 0.71506 0.0
H278 H 0.25863 0.86728 0.72869 0.0
H279 H 0.25422 0.02323 0.72728 0.0
H280 H 0.19491 0.12422 0.78094 0.0
H281 H 0.22282 0.08771 0.76636 0.0
H282 H 0.22415 0.93207 0.76736 0.0
C283 C 0.27274 0.88932 0.72615 0.0
C284 C 0.2479 0.00305 0.73606 0.0
C285 C 0.28984 0.87007 0.71827 0.0
C286 C 0.19247 0.08797 0.77767 0.0
C287 C 0.2084 0.06714 0.76924 0.0
C288 C 0.23042 0.95212 0.75855 0.0
C289 C 0.27373 0.93662 0.7305 0.0
C290 C 0.25576 0.95727 0.73898 0.0
C291 C 0.20591 0.02015 0.76476 0.0
C292 C 0.22282 -0.00184 0.75575 0.0
H293 H 0.32323 0.96729 0.71639 0.0
H294 H 0.29364 0.00053 0.7302 0.0
H295 H 0.25264 0.89681 0.7529 0.0
H296 H 0.15689 0.99452 0.78031 0.0
H297 H 0.18465 0.95831 0.76554 0.0
C298 C 0.07324 0.21663 0.77551 0.0
C299 C 0.07326 0.17032 0.78074 0.0
C300 C 0.05463 0.23398 0.7672 0.0
C301 C 0.00423 0.19638 0.74468 0.0
H302 H 0.98314 0.32245 0.75202 0.0
C303 C 0.9195 0.26709 0.71951 0.0
C304 C 0.9194 0.31332 0.71421 0.0
C305 C 0.93833 0.2497 0.7276 0.0
C306 C 0.98897 0.28737 0.74974 0.0
H307 H 0.05379 0.10584 0.78127 0.0
H308 H 0.02123 0.13629 0.76689 0.0
H309 H 0.01605 0.29184 0.76605 0.0
H310 H 0.93897 0.37757 0.71329 0.0
H311 H 0.97187 0.34708 0.72734 0.0
H312 H 0.97709 0.19188 0.72839 0.0
C313 C 0.03572 0.159 0.76907 0.0
C314 C 0.00783 0.26984 0.75776 0.0
C315 C 0.05434 0.14163 0.77738 0.0
C316 C 0.93848 0.34184 0.71724 0.0
C317 C 0.95729 0.32446 0.72536 0.0
C318 C 0.98535 0.21389 0.73666 0.0
C319 C 0.03562 0.20543 0.76394 0.0
C320 C 0.01567 0.22414 0.75533 0.0
C321 C 0.95744 0.27816 0.73059 0.0
C322 C 0.97751 0.25957 0.73911 0.0
H323 H 0.08759 0.23961 0.77787 0.0
H324 H 0.0552 0.2697 0.76324 0.0
H325 H 0.01004 0.16129 0.74239 0.0
H326 H 0.90505 0.24421 0.71739 0.0
H327 H 0.93782 0.21407 0.73165 0.0
C328 C 0.82299 0.76802 0.52601 0.0
C329 C 0.82491 0.81609 0.52932 0.0
C330 C 0.80415 0.75089 0.51785 0.0
C331 C 0.75692 0.78768 0.49247 0.0
H332 H 0.72962 0.67107 0.50419 0.0
C333 C 0.67055 0.72344 0.46785 0.0
C334 C 0.66869 0.67554 0.46432 0.0
C335 C 0.68961 0.74045 0.47583 0.0
C336 C 0.73719 0.70342 0.5007 0.0
H337 H 0.80864 0.88394 0.52651 0.0
H338 H 0.77566 0.85395 0.51237 0.0
H339 H 0.76311 0.70117 0.5178 0.0
H340 H 0.68528 0.60784 0.46651 0.0
H341 H 0.71859 0.63762 0.48039 0.0
H342 H 0.73092 0.78999 0.4754 0.0
C343 C 0.78885 0.82958 0.51596 0.0
C344 C 0.75639 0.72065 0.50848 0.0
C345 C 0.80771 0.84673 0.52412 0.0
C346 C 0.68618 0.64493 0.46908 0.0
C347 C 0.70522 0.66193 0.47709 0.0
C348 C 0.7377 0.77048 0.48471 0.0
C349 C 0.78679 0.78142 0.51281 0.0
C350 C 0.76647 0.76298 0.50446 0.0
C351 C 0.7072 0.70993 0.48048 0.0
C352 C 0.72761 0.72818 0.48874 0.0
H353 H 0.83599 0.74348 0.5298 0.0
H354 H 0.80324 0.71372 0.51542 0.0
H355 H 0.76448 0.82002 0.48896 0.0
H356 H 0.65736 0.74797 0.46438 0.0
H357 H 0.6905 0.7775 0.47844 0.0
C358 C 0.69594 0.11056 0.27707 0.0
C359 C 0.67477 0.08879 0.27795 0.0
C360 C 0.71253 0.09003 0.26908 0.0
C361 C 0.72951 0.9761 0.2543 0.0
H362 H 0.76649 0.05258 0.2305 0.0
C363 C 0.79015 0.89523 0.21492 0.0
C364 C 0.81153 0.91628 0.2143 0.0
C365 C 0.7734 0.91657 0.22258 0.0
C366 C 0.75646 0.03082 0.23722 0.0
H367 H 0.65431 0.02876 0.27095 0.0
H368 H 0.68315 0.99328 0.25691 0.0
H369 H 0.7373 0.08959 0.24399 0.0
H370 H 0.83209 0.97623 0.22124 0.0
H371 H 0.80292 0.0132 0.23469 0.0
H372 H 0.74867 0.91735 0.24755 0.0
C373 C 0.68705 0.02584 0.26257 0.0
C374 C 0.73974 0.05202 0.24494 0.0
C375 C 0.67047 0.04635 0.27055 0.0
C376 C 0.81579 0.95913 0.22148 0.0
C377 C 0.79903 0.98049 0.22912 0.0
C378 C 0.74622 0.95491 0.24658 0.0
C379 C 0.70831 0.0473 0.2618 0.0
C380 C 0.72607 0.02489 0.25356 0.0
C381 C 0.77765 0.95944 0.22976 0.0
C382 C 0.75988 0.98202 0.23795 0.0
H383 H 0.69981 0.14324 0.28267 0.0
H384 H 0.72882 0.1072 0.26882 0.0
H385 H 0.71952 0.95431 0.26103 0.0
H386 H 0.7863 0.86228 0.20947 0.0
H387 H 0.75701 0.89976 0.22272 0.0
C388 C 0.91405 0.79161 0.22211 0.0
C389 C 0.9139 0.78082 0.20734 0.0
C390 C 0.93312 0.78226 0.23127 0.0
C391 C 0.98502 0.71075 0.23449 0.0
H392 H 0.00489 0.80432 0.26291 0.0
C393 C 0.07008 0.69672 0.26825 0.0
C394 C 0.06997 0.70858 0.28293 0.0
C395 C 0.05115 0.70545 0.25889 0.0
C396 C -0.00058 0.77762 0.25514 0.0
H397 H 0.93358 0.75138 0.19061 0.0
H398 H 0.9669 0.73536 0.2066 0.0
H399 H 0.97148 0.8192 0.2469 0.0
H400 H 0.04987 0.73885 0.29932 0.0
H401 H 0.01683 0.75362 0.28304 0.0
H402 H 0.01296 0.66914 0.24276 0.0
C403 C 0.9522 0.75065 0.21112 0.0
C404 C 0.98028 0.78614 0.24597 0.0
C405 C 0.93314 0.76006 0.20195 0.0
C406 C 0.05055 0.72941 0.28806 0.0
C407 C 0.03164 0.73814 0.27871 0.0
C408 C 0.00417 0.70221 0.24367 0.0
C409 C 0.95244 0.76187 0.22587 0.0
C410 C 0.97283 0.75276 0.23556 0.0
C411 C 0.03172 0.72626 0.26402 0.0
C412 C 0.01155 0.73551 0.25412 0.0
H413 H 0.89947 0.80748 0.22662 0.0
H414 H 0.93267 0.79071 0.24262 0.0
H415 H 0.97954 0.68409 0.22671 0.0
H416 H 0.08481 0.68074 0.26395 0.0
H417 H 0.05183 0.69641 0.24759 0.0
C418 C 0.30413 0.85549 0.0248 0.0
C419 C 0.32289 0.82606 0.02766 0.0
C420 C 0.28524 0.83945 0.01639 0.0
C421 C 0.26737 0.74833 0.98962 0.0
H422 H 0.2072 0.77399 0.00174 0.0
C423 C 0.18885 0.65104 0.96521 0.0
C424 C 0.16942 0.67794 0.96174 0.0
C425 C 0.20733 0.67064 0.97315 0.0
C426 C 0.22388 0.76698 -0.00187 0.0
H427 H 0.33655 0.75674 0.02391 0.0
H428 H 0.30366 0.72882 0.00942 0.0
H429 H 0.24008 0.80631 0.01553 0.0
H430 H 0.154 0.74637 0.96408 0.0
H431 H 0.18631 0.78056 0.97795 0.0
H432 H 0.25122 0.70866 0.97231 0.0
C433 C 0.3036 0.76447 0.01348 0.0
C434 C 0.24271 0.78555 0.00601 0.0
C435 C 0.32242 0.78043 0.02187 0.0
C436 C 0.16873 0.72468 0.96658 0.0
C437 C 0.18719 0.74423 0.97457 0.0
C438 C 0.24857 0.72972 0.98177 0.0
C439 C 0.28477 0.79372 0.01066 0.0
C440 C 0.26468 0.77606 0.00191 0.0
C441 C 0.20676 0.71752 0.97785 0.0
C442 C 0.22664 0.73849 0.986 0.0
H443 H 0.30396 0.89085 0.02908 0.0
H444 H 0.27108 0.86299 0.01428 0.0
H445 H 0.28404 0.74109 0.98602 0.0
H446 H 0.18992 0.61491 0.96168 0.0
H447 H 0.22204 0.64895 0.97569 0.0
C448 C 0.06309 0.61104 0.98179 0.0
C449 C 0.0655 0.60466 0.96696 0.0
C450 C 0.04767 0.58391 0.98898 0.0
C451 C 0.01597 0.4722 0.98613 0.0
H452 H 0.97946 0.52927 0.01456 0.0
C453 C 0.94203 0.37508 0.01103 0.0
C454 C 0.93959 0.38161 0.02585 0.0
C455 C 0.95773 0.40158 0.00387 0.0
C456 C 0.98972 0.51269 0.00677 0.0
H457 H 0.05337 0.56518 0.94801 0.0
H458 H 0.02634 0.51833 0.96052 0.0
H459 H 0.00595 0.57751 0.002 0.0
H460 H 0.95208 0.42049 0.04484 0.0
H461 H 0.97957 0.46627 0.03239 0.0
H462 H -0.00031 0.40739 0.99089 0.0
C463 C 0.03661 0.54379 0.96664 0.0
C464 C 0.00489 0.54035 -0.00043 0.0
C465 C 0.052 0.57089 0.95946 0.0
C466 C 0.95345 0.41468 0.0334 0.0
C467 C 0.96911 0.44118 0.02625 0.0
C468 C 0.00078 0.44455 0.99332 0.0
C469 C 0.03433 0.54981 0.9815 0.0
C470 C 0.0182 0.52043 0.98916 0.0
C471 C 0.97131 0.43521 0.01139 0.0
C472 C 0.9875 0.46448 0.00373 0.0
H473 H 0.07327 0.63667 0.9879 0.0
H474 H 0.04649 0.58907 0.00047 0.0
H475 H 0.02623 0.45564 0.97833 0.0
H476 H 0.93159 0.34995 0.00489 0.0
H477 H 0.95888 0.39645 0.99238 0.0
C478 C 0.29442 0.41295 0.21082 0.0
C479 C 0.31087 0.38909 0.21959 0.0
C480 C 0.27796 0.44013 0.21699 0.0
C481 C 0.25019 0.45956 0.25106 0.0
H482 H 0.23543 0.58127 0.23429 0.0
C483 C 0.19639 0.59419 0.27981 0.0
C484 C 0.17929 0.61714 0.27132 0.0
C485 C 0.21268 0.56739 0.27336 0.0
C486 C 0.23922 0.54719 0.23902 0.0
H487 H 0.32268 0.37446 0.24172 0.0
H488 H 0.29412 0.42216 0.25247 0.0
H489 H 0.26286 0.53112 0.22325 0.0
H490 H 0.16629 0.63098 0.24937 0.0
H491 H 0.19474 0.58407 0.23811 0.0
H492 H 0.22663 0.47572 0.26686 0.0
C493 C 0.29378 0.41948 0.24083 0.0
C494 C 0.25489 0.51841 0.23268 0.0
C495 C 0.31023 0.39229 0.23466 0.0
C496 C 0.17924 0.61377 0.25622 0.0
C497 C 0.19559 0.58702 0.24976 0.0
C498 C 0.23456 0.48837 0.25741 0.0
C499 C 0.27757 0.44405 0.23207 0.0
C500 C 0.26059 0.47428 0.23865 0.0
C501 C 0.2123 0.56301 0.25827 0.0
C502 C 0.22894 0.53256 0.25148 0.0
H503 H 0.29438 0.4111 0.19917 0.0
H504 H 0.2655 0.45801 0.20995 0.0
H505 H 0.25393 0.42548 0.2558 0.0
H506 H 0.197 0.5962 0.29148 0.0
H507 H 0.22557 0.54995 0.2802 0.0
C508 C 0.69216 0.15582 0.97197 0.0
C509 C 0.67436 0.18677 0.96809 0.0
C510 C 0.71193 0.17232 0.97932 0.0
C511 C 0.74511 0.28043 0.98637 0.0
H512 H 0.77268 0.21006 0.01859 0.0
C513 C 0.81706 0.3561 0.02447 0.0
C514 C 0.83445 0.3254 0.02932 0.0
C515 C 0.7979 0.33904 0.01658 0.0
C516 C 0.76537 0.22983 0.00949 0.0
H517 H 0.66331 0.25931 0.96896 0.0
H518 H 0.69769 0.28789 0.98182 0.0
H519 H 0.7385 0.18015 0.00573 0.0
H520 H 0.84561 0.25285 0.02939 0.0
H521 H 0.8124 0.2233 0.01546 0.0
H522 H 0.77198 0.33009 0.99012 0.0
C523 C 0.69648 0.25099 0.97906 0.0
C524 C 0.74577 0.2127 0.00214 0.0
C525 C 0.67671 0.2345 0.97177 0.0
C526 C 0.83246 0.27743 0.02589 0.0
C527 C 0.81335 0.26041 0.01798 0.0
C528 C 0.76474 0.29751 0.9937 0.0
C529 C 0.71433 0.22013 0.98287 0.0
C530 C 0.73538 0.23789 0.99053 0.0
C531 C 0.79575 0.29093 0.01334 0.0
C532 C 0.77507 0.27248 0.00538 0.0
H533 H 0.6909 0.11887 0.96927 0.0
H534 H 0.72548 0.14777 0.982 0.0
H535 H 0.73768 0.30029 0.97733 0.0
H536 H 0.81804 0.39322 0.02697 0.0
H537 H 0.78454 0.36341 0.01331 0.0
C538 C 0.67887 0.54587 0.77387 0.0
C539 C 0.68161 0.59105 0.77982 0.0
C540 C 0.69612 0.52524 0.76652 0.0
C541 C 0.74693 0.5535 0.74733 0.0
H542 H 0.76038 0.4214 0.75318 0.0
C543 C 0.82271 0.46331 0.72266 0.0
C544 C 0.81883 0.41852 0.71663 0.0
C545 C 0.80649 0.48459 0.73076 0.0
C546 C 0.75668 0.45821 0.75133 0.0
H547 H 0.70466 0.65004 0.78271 0.0
H548 H 0.73489 0.61381 0.76992 0.0
H549 H 0.73116 0.45836 0.76662 0.0
H550 H 0.79488 0.36087 0.71443 0.0
H551 H 0.76651 0.39817 0.72846 0.0
H552 H 0.77236 0.55326 0.73197 0.0
C553 C 0.71927 0.59456 0.77084 0.0
C554 C 0.73995 0.47939 0.75902 0.0
C555 C 0.702 0.61522 0.77822 0.0
C556 C 0.79843 0.39535 0.71895 0.0
C557 C 0.78221 0.41662 0.72707 0.0
C558 C 0.76366 0.5323 0.73962 0.0
C559 C 0.71653 0.5493 0.76493 0.0
C560 C 0.73479 0.5272 0.75705 0.0
C561 C 0.78603 0.46153 0.73303 0.0
C562 C 0.76864 0.48435 0.74148 0.0
H563 H 0.66335 0.52633 0.77486 0.0
H564 H 0.69335 0.49062 0.7619 0.0
H565 H 0.74314 0.59025 0.74542 0.0
H566 H 0.83828 0.48206 0.72111 0.0
H567 H 0.81006 0.51895 0.73537 0.0
C568 C 0.5717 0.05068 0.97591 0.0
C569 C 0.56916 0.09659 0.97051 0.0
C570 C 0.55454 0.02961 0.98326 0.0
C571 C 0.4933 0.03593 0.9876 0.0
H572 H 0.50777 0.95929 0.02144 0.0
C573 C 0.42488 0.96309 0.02313 0.0
C574 C 0.42755 0.91691 0.02827 0.0
C575 C 0.44209 0.98505 0.01604 0.0
C576 C 0.50347 0.98014 0.01191 0.0
H577 H 0.5467 0.15668 0.9688 0.0
H578 H 0.51677 0.11995 0.98178 0.0
H579 H 0.53805 -0.0014 0.00952 0.0
H580 H 0.45034 0.85734 0.02986 0.0
H581 H 0.48035 0.89559 0.01736 0.0
H582 H 0.45872 0.0174 0.98997 0.0
C583 C 0.53196 0.10007 0.98015 0.0
C584 C 0.52082 0.00272 0.00509 0.0
C585 C 0.54917 0.12121 0.9728 0.0
C586 C 0.44776 0.89299 0.02606 0.0
C587 C 0.46501 0.91501 0.01898 0.0
C588 C 0.47595 0.01335 0.99442 0.0
C589 C 0.53441 0.05392 0.9854 0.0
C590 C 0.51593 0.03081 0.99284 0.0
C591 C 0.4624 0.96136 0.01394 0.0
C592 C 0.48085 0.98514 0.00664 0.0
H593 H 0.58687 0.03067 0.97431 0.0
H594 H 0.55685 0.99383 0.98701 0.0
H595 H 0.489 0.0567 0.97805 0.0
H596 H 0.40954 0.98257 0.02468 0.0
H597 H 0.43965 0.02096 0.01244 0.0
C598 C 0.43837 0.36735 0.21887 0.0
C599 C 0.41919 0.3384 0.217 0.0
C600 C 0.45715 0.3529 0.22763 0.0
C601 C 0.47512 0.26787 0.25636 0.0
H602 H 0.5346 0.28533 0.24202 0.0
C603 C 0.55337 0.16759 0.27973 0.0
C604 C 0.57359 0.19307 0.28206 0.0
C605 C 0.53462 0.18778 0.27226 0.0
C606 C 0.51813 0.28069 0.24625 0.0
H607 H 0.40451 0.27197 0.22309 0.0
H608 H 0.43724 0.24668 0.23815 0.0
H609 H 0.5015 0.31727 0.22848 0.0
H610 H 0.59006 0.25965 0.27825 0.0
H611 H 0.55729 0.29481 0.26518 0.0
H612 H 0.49174 0.23057 0.27399 0.0
C613 C 0.43773 0.28079 0.23303 0.0
C614 C 0.49916 0.29909 0.23852 0.0
C615 C 0.41899 0.29521 0.22431 0.0
C616 C 0.57473 0.23904 0.27663 0.0
C617 C 0.556 0.25915 0.26909 0.0
C618 C 0.49406 0.24935 0.26405 0.0
C619 C 0.45712 0.30924 0.2347 0.0
C620 C 0.47741 0.29246 0.24341 0.0
C621 C 0.53572 0.23381 0.2669 0.0
C622 C 0.51574 0.25514 0.25901 0.0
H623 H 0.43903 0.4009 0.21343 0.0
H624 H 0.47172 0.3759 0.22885 0.0
H625 H 0.45865 0.26287 0.26056 0.0
H626 H 0.55193 0.1321 0.28376 0.0
H627 H 0.51932 0.16715 0.27057 0.0
C628 C 0.41556 0.77052 0.72484 0.0
C629 C 0.414 0.81659 0.71944 0.0
C630 C 0.43512 0.75534 0.7326 0.0
C631 C 0.49587 0.77929 0.73742 0.0
H632 H 0.49263 0.7024 0.77169 0.0
C633 C 0.57502 0.72694 0.77327 0.0
C634 C 0.57565 0.68153 0.77921 0.0
C635 C 0.55544 0.74356 0.76582 0.0
C636 C 0.49382 0.72331 0.76203 0.0
H637 H 0.43163 0.88313 0.71819 0.0
H638 H 0.46588 0.8565 0.73179 0.0
H639 H 0.45794 0.73242 0.75953 0.0
H640 H 0.55641 0.61748 0.78162 0.0
H641 H 0.52236 0.64619 0.76838 0.0
H642 H 0.53171 0.7698 0.7398 0.0
C643 C 0.45196 0.83211 0.7299 0.0
C644 C 0.47395 0.74064 0.7551 0.0
C645 C 0.4323 0.84743 0.72221 0.0
C646 C 0.55645 0.65271 0.77724 0.0
C647 C 0.53687 0.66929 0.76974 0.0
C648 C 0.51575 0.76179 0.74431 0.0
C649 C 0.45362 0.78579 0.73508 0.0
C650 C 0.47476 0.76872 0.74271 0.0
C651 C 0.53606 0.7151 0.76409 0.0
C652 C 0.51495 0.7335 0.75668 0.0
H653 H 0.40176 0.74586 0.7229 0.0
H654 H 0.43598 0.71932 0.73633 0.0
H655 H 0.497 0.80025 0.72777 0.0
H656 H 0.5895 0.75014 0.77463 0.0
H657 H 0.55532 0.77918 0.76174 0.0
C658 C 0.4373 0.36796 0.50529 0.0
C659 C 0.43788 0.36113 0.5203 0.0
C660 C 0.45403 0.39453 0.49913 0.0
C661 C 0.49577 0.48752 0.50826 0.0
H662 H 0.51961 0.45305 0.47181 0.0
C663 C 0.56907 0.58858 0.48402 0.0
C664 C 0.56735 0.59649 0.46905 0.0
C665 C 0.55361 0.55936 0.49043 0.0
C666 C 0.51294 0.4634 0.48192 0.0
H667 H 0.45694 0.37553 0.54056 0.0
H668 H 0.48624 0.42141 0.52978 0.0
H669 H 0.49263 0.40134 0.4827 0.0
H670 H 0.54777 0.58045 0.4491 0.0
H671 H 0.52068 0.52996 0.4603 0.0
H672 H 0.51598 0.54969 0.50745 0.0
C673 C 0.47264 0.40687 0.5228 0.0
C674 C 0.4975 0.43374 0.48817 0.0
C675 C 0.45592 0.38029 0.52897 0.0
C676 C 0.54964 0.57501 0.46066 0.0
C677 C 0.5342 0.54578 0.46706 0.0
C678 C 0.5112 0.51717 0.50202 0.0
C679 C 0.47171 0.41485 0.50784 0.0
C680 C 0.48868 0.44554 0.50139 0.0
C681 C 0.53608 0.53736 0.482 0.0
C682 C 0.5199 0.50556 0.48874 0.0
H683 H 0.42363 0.35374 0.49831 0.0
H684 H 0.45271 0.40035 0.48758 0.0
H685 H 0.48901 0.49804 0.51834 0.0
H686 H 0.58255 0.60448 0.4908 0.0
H687 H 0.55566 0.55325 0.50195 0.0
C688 C 0.1497 0.8025 0.33261 0.0
C689 C 0.14093 0.8071 0.31825 0.0
C690 C 0.14825 0.83964 0.34234 0.0
C691 C 0.11185 0.93848 0.34904 0.0
H692 H 0.15929 0.97569 0.37745 0.0
C693 C 0.09759 0.08545 0.38989 0.0
C694 C 0.10688 0.07946 0.40406 0.0
C695 C 0.10349 0.05528 0.3789 0.0
C696 C 0.14578 0.96535 0.36969 0.0
H697 H 0.12474 0.855 0.30266 0.0
H698 H 0.12203 0.91972 0.31972 0.0
H699 H 0.16733 0.91809 0.35896 0.0
H700 H 0.12972 0.03729 0.41784 0.0
H701 H 0.13943 0.98348 0.39877 0.0
H702 H 0.09002 0.98396 0.35996 0.0
C703 C 0.12994 0.88727 0.32342 0.0
C704 C 0.15045 0.93258 0.35906 0.0
C705 C 0.13161 0.8503 0.31365 0.0
C706 C 0.12231 0.04281 0.40701 0.0
C707 C 0.12801 0.01221 0.39604 0.0
C708 C 0.10711 0.97077 0.35973 0.0
C709 C 0.1378 0.88192 0.33792 0.0
C710 C 0.13349 0.91875 0.34867 0.0
C711 C 0.1186 0.01796 0.38185 0.0
C712 C 0.12398 0.98452 0.37024 0.0
H713 H 0.15706 0.7697 0.33647 0.0
H714 H 0.15433 0.83447 0.35347 0.0
H715 H 0.09834 0.9278 0.34132 0.0
H716 H 0.08588 0.11376 0.38723 0.0
H717 H 0.09626 0.06145 0.36806 0.0
C718 C 0.08981 0.30947 0.41595 0.0
C719 C 0.10534 0.27423 0.41281 0.0
C720 C 0.08662 0.34826 0.40678 0.0
C721 C 0.09253 0.38664 0.36965 0.0
H722 H 0.10372 0.5112 0.38541 0.0
C723 C 0.11811 0.53942 0.33425 0.0
C724 C 0.11099 0.58515 0.33731 0.0
C725 C 0.11354 0.50231 0.34341 0.0
C726 C 0.10005 0.47684 0.38084 0.0
H727 H 0.12921 0.25118 0.39752 0.0
H728 H 0.1233 0.31819 0.38147 0.0
H729 H 0.10195 0.44411 0.40169 0.0
H730 H 0.09306 0.62768 0.35223 0.0
H731 H 0.08469 0.56252 0.36813 0.0
H732 H 0.09076 0.41881 0.34884 0.0
C733 C 0.11372 0.31605 0.39101 0.0
C734 C 0.09909 0.43848 0.39017 0.0
C735 C 0.11722 0.27791 0.40026 0.0
C736 C 0.09889 0.59285 0.34963 0.0
C737 C 0.09417 0.55556 0.35876 0.0
C738 C 0.09322 0.42495 0.36034 0.0
C739 C 0.09852 0.3517 0.39422 0.0
C740 C 0.09599 0.39294 0.38462 0.0
C741 C 0.10155 0.50986 0.3558 0.0
C742 C 0.09771 0.47032 0.36579 0.0
H743 H 0.08047 0.30748 0.42558 0.0
H744 H 0.07481 0.37542 0.40946 0.0
H745 H 0.08982 0.35185 0.36514 0.0
H746 H 0.12758 0.5323 0.32489 0.0
H747 H 0.11993 0.46783 0.34094 0.0
C748 C 0.16025 0.33599 0.8161 0.0
C749 C 0.15742 0.29104 0.82196 0.0
C750 C 0.16293 0.37521 0.82512 0.0
C751 C 0.17418 0.41119 0.86354 0.0
H752 H 0.13641 0.51765 0.85221 0.0
C753 C 0.14043 0.54221 0.90403 0.0
C754 C 0.13942 0.59002 0.90032 0.0
C755 C 0.14711 0.50888 0.89414 0.0
C756 C 0.14737 0.4886 0.85543 0.0
H757 H 0.15621 0.25177 0.84193 0.0
H758 H 0.16044 0.31988 0.85757 0.0
H759 H 0.14054 0.45338 0.8353 0.0
H760 H 0.14521 0.6405 0.88345 0.0
H761 H 0.15669 0.58202 0.8661 0.0
H762 H 0.18015 0.44574 0.88393 0.0
C763 C 0.16092 0.32501 0.84604 0.0
C764 C 0.14979 0.45175 0.84572 0.0
C765 C 0.15832 0.28589 0.83704 0.0
C766 C 0.14576 0.60391 0.88662 0.0
C767 C 0.15226 0.57047 0.87667 0.0
C768 C 0.17163 0.44792 0.87328 0.0
C769 C 0.1628 0.37027 0.84019 0.0
C770 C 0.1628 0.41209 0.84978 0.0
C771 C 0.15278 0.52256 0.88028 0.0
C772 C 0.15779 0.48649 0.86943 0.0
H773 H 0.15979 0.34111 0.80453 0.0
H774 H 0.16467 0.40951 0.82028 0.0
H775 H 0.18468 0.3816 0.86691 0.0
H776 H 0.13573 0.53038 0.91451 0.0
H777 H 0.14709 0.47216 0.89718 0.0
C778 C 0.08388 0.78483 0.90434 0.0
C779 C 0.08405 0.79003 0.9194 0.0
C780 C 0.08124 0.82379 0.89531 0.0
C781 C 0.09138 0.95084 0.89585 0.0
H782 H 0.06374 0.94306 0.85693 0.0
C783 C 0.09737 0.10171 0.85462 0.0
C784 C 0.10491 0.08741 0.84126 0.0
C785 C 0.09045 0.06848 0.86451 0.0
C786 C 0.07148 0.94574 0.86778 0.0
H787 H 0.08023 0.83989 0.93673 0.0
H788 H 0.07528 0.90802 0.9209 0.0
H789 H 0.05823 0.87928 0.87391 0.0
H790 H 0.11044 0.02724 0.8276 0.0
H791 H 0.09831 0.96938 0.84482 0.0
H792 H 0.10496 0.01692 0.88961 0.0
C793 C 0.07763 0.87383 0.91611 0.0
C794 C 0.06837 0.90924 0.8775 0.0
C795 C 0.08035 0.83476 0.92518 0.0
C796 C 0.10481 0.03937 0.83783 0.0
C797 C 0.09769 0.00624 0.84764 0.0
C798 C 0.09434 0.9875 0.88616 0.0
C799 C 0.07859 0.86892 0.90109 0.0
C800 C 0.07884 0.91072 0.89152 0.0
C801 C 0.09067 0.0204 0.86114 0.0
C802 C 0.08494 0.98469 0.87192 0.0
H803 H 0.08665 0.75086 0.89951 0.0
H804 H 0.08237 0.81869 0.88382 0.0
H805 H 0.09993 0.95293 0.90649 0.0
H806 H 0.09721 0.1385 0.85757 0.0
H807 H 0.08502 0.08034 0.87482 0.0
C808 C 0.84699 0.14662 0.67539 0.0
C809 C 0.83905 0.19234 0.67255 0.0
C810 C 0.84344 0.1112 0.66508 0.0
C811 C 0.82819 0.03684 0.64322 0.0
H812 H 0.83893 0.07572 0.60423 0.0
C813 C 0.83237 0.90343 0.59641 0.0
C814 C 0.85043 0.91013 0.58751 0.0
C815 C 0.82684 0.93816 0.60625 0.0
C816 C 0.8359 0.06425 0.61506 0.0
H817 H 0.81981 0.236 0.65708 0.0
H818 H 0.8132 0.17394 0.63923 0.0
H819 H 0.83639 0.13462 0.62297 0.0
H820 H 0.87656 0.95889 0.58177 0.0
H821 H 0.86719 0.01882 0.59899 0.0
H822 H 0.82899 0.96622 0.63539 0.0
C823 C 0.82269 0.16572 0.64927 0.0
C824 C 0.83412 0.0981 0.62579 0.0
C825 C 0.82638 0.20124 0.65953 0.0
C826 C 0.86253 0.95259 0.58845 0.0
C827 C 0.85704 0.98717 0.59826 0.0
C828 C 0.83007 0.00292 0.63247 0.0
C829 C 0.83173 0.12061 0.65175 0.0
C830 C 0.83073 0.08479 0.64007 0.0
C831 C 0.83924 0.98028 0.60735 0.0
C832 C 0.83449 0.01623 0.61835 0.0
H833 H 0.8568 0.13859 0.68532 0.0
H834 H 0.85086 0.07705 0.66732 0.0
H835 H 0.82524 0.02542 0.65406 0.0
H836 H 0.82266 0.87117 0.59591 0.0
H837 H 0.8129 0.93198 0.613 0.0
C838 C 0.88236 0.44745 0.65837 0.0
C839 C 0.88393 0.39941 0.65516 0.0
C840 C 0.88872 0.48122 0.64852 0.0
C841 C 0.89361 0.49923 0.60997 0.0
H842 H 0.9261 0.61186 0.62247 0.0
C843 C 0.90926 0.64975 0.57027 0.0
C844 C 0.90461 0.69493 0.57539 0.0
C845 C 0.91106 0.61163 0.57977 0.0
C846 C 0.91694 0.5807 0.61882 0.0
H847 H 0.89377 0.34907 0.63918 0.0
H848 H 0.9047 0.40827 0.62188 0.0
H849 H 0.92088 0.54864 0.63968 0.0
H850 H 0.89903 0.73581 0.59457 0.0
H851 H 0.90173 0.66957 0.611 0.0
H852 H 0.88885 0.53184 0.58927 0.0
C853 C 0.8985 0.41966 0.63204 0.0
C854 C 0.91399 0.54451 0.62867 0.0
C855 C 0.89231 0.38583 0.64196 0.0
C856 C 0.90262 0.70148 0.59025 0.0
C857 C 0.90434 0.66346 0.59972 0.0
C858 C 0.89643 0.53555 0.60013 0.0
C859 C 0.89665 0.4677 0.63519 0.0
C860 C 0.9019 0.50382 0.62441 0.0
C861 C 0.90821 0.61794 0.59457 0.0
C862 C 0.90771 0.57714 0.60452 0.0
H863 H 0.87603 0.45907 0.66847 0.0
H864 H 0.88684 0.51799 0.65117 0.0
H865 H 0.88404 0.46845 0.60642 0.0
H866 H 0.91103 0.64359 0.55889 0.0
H867 H 0.91437 0.57712 0.57549 0.0
C868 C 0.87592 0.44288 0.09433 0.0
C869 C 0.86006 0.40931 0.08908 0.0
C870 C 0.87088 0.47318 0.10547 0.0
C871 C 0.86095 0.51025 0.13499 0.0
H872 H 0.80528 0.58199 0.13294 0.0
C873 C 0.8421 0.64227 0.17932 0.0
C874 C 0.83645 0.6873 0.17408 0.0
C875 C 0.84141 0.60371 0.16999 0.0
C876 C 0.82083 0.56197 0.13368 0.0
H877 H 0.82628 0.38181 0.09122 0.0
H878 H 0.81737 0.43547 0.11066 0.0
H879 H 0.81178 0.52363 0.11428 0.0
H880 H 0.82427 0.72668 0.15516 0.0
H881 H 0.82309 0.65945 0.13892 0.0
H882 H 0.87038 0.54932 0.15409 0.0
C883 C 0.83373 0.43799 0.10614 0.0
C884 C 0.82448 0.52843 0.12307 0.0
C885 C 0.83887 0.40725 0.09506 0.0
C886 C 0.82883 0.69249 0.15952 0.0
C887 C 0.82801 0.6539 0.15023 0.0
C888 C 0.85724 0.5434 0.14564 0.0
C889 C 0.8498 0.47089 0.11155 0.0
C890 C 0.84481 0.50304 0.12347 0.0
C891 C 0.83489 0.60937 0.15528 0.0
C892 C 0.83734 0.57028 0.14495 0.0
H893 H 0.8924 0.44545 0.08996 0.0
H894 H 0.88346 0.49869 0.10929 0.0
H895 H 0.87667 0.49075 0.13564 0.0
H896 H 0.84793 0.63705 0.1905 0.0
H897 H 0.84655 0.56965 0.17421 0.0
C898 C 0.87447 0.89266 0.13732 0.0
C899 C 0.87334 0.90161 0.15213 0.0
C900 C 0.88138 0.92778 0.12805 0.0
C901 C 0.88587 0.05677 0.12566 0.0
H902 H 0.92079 0.02939 0.09273 0.0
C903 C 0.91301 0.20376 0.0885 0.0
C904 C 0.9077 0.1962 0.07371 0.0
C905 C 0.91255 0.16662 0.09828 0.0
C906 C 0.911 0.03746 0.10187 0.0
H907 H 0.87935 0.95389 0.16895 0.0
H908 H 0.89185 0.01475 0.15287 0.0
H909 H 0.91272 0.96669 0.10964 0.0
H910 H 0.8992 0.14318 0.05747 0.0
H911 H 0.89835 0.07829 0.07459 0.0
H912 H 0.88401 0.12732 0.11788 0.0
C913 C 0.88687 0.98099 0.14832 0.0
C914 C 0.9063 0.00159 0.11153 0.0
C915 C 0.87979 0.94603 0.15755 0.0
C916 C 0.90329 0.1502 0.0688 0.0
C917 C 0.90288 0.11298 0.0786 0.0
C918 C 0.89068 0.09257 0.11608 0.0
C919 C 0.88748 0.97251 0.13342 0.0
C920 C 0.89352 0.01077 0.12348 0.0
C921 C 0.90684 0.12111 0.09348 0.0
C922 C 0.90315 0.08328 0.10404 0.0
H923 H 0.86959 0.85879 0.1328 0.0
H924 H 0.88136 0.9202 0.11662 0.0
H925 H 0.87559 0.06497 0.13455 0.0
H926 H 0.91669 0.23868 0.09264 0.0
H927 H 0.91606 0.17377 0.10966 0.0
C928 C 0.65221 0.82115 0.83163 0.0
C929 C 0.63214 0.79469 0.83041 0.0
C930 C 0.65379 0.8611 0.84043 0.0
C931 C 0.61798 0.94705 0.8584 0.0
H932 H 0.67122 0.96766 0.88414 0.0
C933 C 0.61615 0.06261 0.90863 0.0
C934 C 0.63366 0.09546 0.9112 0.0
C935 C 0.61744 0.02875 0.89788 0.0
C936 C 0.65638 0.96264 0.87687 0.0
H937 H 0.59806 0.7892 0.83754 0.0
H938 H 0.60091 0.8579 0.85296 0.0
H939 H 0.67077 0.90328 0.86665 0.0
H940 H 0.66651 0.11787 0.90472 0.0
H941 H 0.66885 0.05789 0.88594 0.0
H942 H 0.60333 0.00535 0.86891 0.0
C943 C 0.61531 0.84859 0.84693 0.0
C944 C 0.65612 0.9259 0.86684 0.0
C945 C 0.61373 0.80892 0.83815 0.0
C946 C 0.65272 0.09311 0.90296 0.0
C947 C 0.65411 0.05877 0.89226 0.0
C948 C 0.61818 0.98342 0.86846 0.0
C949 C 0.6353 0.87528 0.84816 0.0
C950 C 0.6367 0.91709 0.85773 0.0
C951 C 0.63634 0.02667 0.88952 0.0
C952 C 0.63719 0.99096 0.87799 0.0
H953 H 0.66669 0.81106 0.82578 0.0
H954 H 0.66937 0.8811 0.84109 0.0
H955 H 0.60296 0.94195 0.8513 0.0
H956 H 0.60124 0.06334 0.9148 0.0
H957 H 0.60365 0.00396 0.89614 0.0
C958 C 0.59054 0.31387 0.91351 0.0
C959 C 0.60223 0.31983 0.92704 0.0
C960 C 0.59038 0.34956 0.90319 0.0
C961 C 0.60416 0.47577 0.89783 0.0
H962 H 0.61612 0.43438 0.85925 0.0
C963 C 0.64192 0.59671 0.85584 0.0
C964 C 0.63301 0.59379 0.84148 0.0
C965 C 0.63514 0.56496 0.86618 0.0
C966 C 0.61245 0.44651 0.86991 0.0
H967 H 0.62199 0.3688 0.94059 0.0
H968 H 0.6221 0.43058 0.92254 0.0
H969 H 0.60886 0.37648 0.87767 0.0
H970 H 0.60988 0.55541 0.82671 0.0
H971 H 0.59818 0.49966 0.84479 0.0
H972 H 0.60855 0.54583 0.8901 0.0
C973 C 0.61278 0.39864 0.91993 0.0
C974 C 0.60821 0.41334 0.88047 0.0
C975 C 0.61282 0.36306 0.93027 0.0
C976 C 0.6171 0.55852 0.83768 0.0
C977 C 0.61045 0.52652 0.84801 0.0
C978 C 0.60854 0.50893 0.88727 0.0
C979 C 0.60201 0.39191 0.90614 0.0
C980 C 0.60433 0.42752 0.89462 0.0
C981 C 0.61942 0.52941 0.86237 0.0
C982 C 0.61305 0.49459 0.87326 0.0
H983 H 0.58203 0.28111 0.91072 0.0
H984 H 0.58154 0.34358 0.89278 0.0
H985 H 0.60087 0.48793 0.90854 0.0
H986 H 0.65416 0.62352 0.85913 0.0
H987 H 0.64257 0.56767 0.87711 0.0
C988 C 0.66453 0.349 0.31809 0.0
C989 C 0.66008 0.30401 0.32345 0.0
C990 C 0.66702 0.38739 0.32746 0.0
C991 C 0.67472 0.41986 0.36637 0.0
H992 H 0.64008 0.53003 0.35435 0.0
C993 C 0.63837 0.54927 0.40621 0.0
C994 C 0.63882 0.5975 0.40307 0.0
C995 C 0.64555 0.51648 0.39632 0.0
C996 C 0.65017 0.4999 0.35778 0.0
H997 H 0.65579 0.26369 0.34292 0.0
H998 H 0.65969 0.33039 0.35914 0.0
H999 H 0.64502 0.46681 0.33717 0.0
H1000 H 0.64761 0.64925 0.38721 0.0
H1001 H 0.65994 0.59167 0.36983 0.0
H1002 H 0.67895 0.45226 0.38719 0.0
C1003 C 0.66159 0.33616 0.34775 0.0
C1004 C 0.65307 0.46367 0.34793 0.0
C1005 C 0.65916 0.29787 0.33841 0.0
C1006 C 0.64701 0.61231 0.38993 0.0
C1007 C 0.65401 0.57941 0.37997 0.0
C1008 C 0.6717 0.45596 0.37624 0.0
C1009 C 0.6651 0.38154 0.34237 0.0
C1010 C 0.66489 0.42269 0.35221 0.0
C1011 C 0.65319 0.53115 0.38303 0.0
C1012 C 0.65893 0.49581 0.37214 0.0
H1013 H 0.66549 0.35484 0.30662 0.0
H1014 H 0.67004 0.42178 0.32299 0.0
H1015 H 0.6843 0.3892 0.36994 0.0
H1016 H 0.63224 0.53673 0.41626 0.0
H1017 H 0.64446 0.4795 0.39891 0.0
C1018 C 0.60034 0.84558 0.42411 0.0
C1019 C 0.59208 0.80033 0.42081 0.0
C1020 C 0.59773 0.88174 0.41399 0.0
C1021 C 0.58409 0.95813 0.39251 0.0
H1022 H 0.59536 0.92231 0.35333 0.0
C1023 C 0.58849 0.09528 0.34683 0.0
C1024 C 0.60608 0.08917 0.33754 0.0
C1025 C 0.58326 0.05986 0.3565 0.0
C1026 C 0.59226 0.93296 0.36422 0.0
H1027 H 0.57332 0.75827 0.40464 0.0
H1028 H 0.56828 0.82166 0.38712 0.0
H1029 H 0.59222 0.86195 0.37157 0.0
H1030 H 0.63182 0.04088 0.33102 0.0
H1031 H 0.62305 0.97974 0.34803 0.0
H1032 H 0.58538 0.02934 0.38529 0.0
C1033 C 0.57732 0.82892 0.39738 0.0
C1034 C 0.59011 0.89826 0.37466 0.0
C1035 C 0.58008 0.79265 0.40747 0.0
C1036 C 0.61811 0.04669 0.33799 0.0
C1037 C 0.61296 0.01143 0.34769 0.0
C1038 C 0.58638 0.99289 0.38208 0.0
C1039 C 0.58664 0.87359 0.40037 0.0
C1040 C 0.58641 0.91041 0.389 0.0
C1041 C 0.59555 0.01763 0.35712 0.0
C1042 C 0.59093 0.98073 0.36787 0.0
H1043 H 0.60968 0.85269 0.43428 0.0
H1044 H 0.60536 0.91549 0.41662 0.0
H1045 H 0.58092 0.96873 0.4034 0.0
H1046 H 0.57881 0.12752 0.34669 0.0
H1047 H 0.56957 0.06555 0.36349 0.0
C1048 C 0.34349 0.18404 0.16602 0.0
C1049 C 0.36448 0.20694 0.16806 0.0
C1050 C 0.34145 0.14282 0.15781 0.0
C1051 C 0.37578 0.04811 0.14246 0.0
H1052 H 0.32558 0.03745 0.11374 0.0
C1053 C 0.38025 0.93739 0.09139 0.0
C1054 C 0.3619 0.90793 0.08733 0.0
C1055 C 0.3788 0.96947 0.10263 0.0
C1056 C 0.3395 0.03962 0.12186 0.0
H1057 H 0.39982 0.20421 0.16325 0.0
H1058 H 0.3962 0.13337 0.14884 0.0
H1059 H 0.32625 0.10155 0.13128 0.0
H1060 H 0.32751 0.88941 0.09175 0.0
H1061 H 0.32486 0.94654 0.11134 0.0
H1062 H 0.38949 0.98742 0.13263 0.0
C1063 C 0.38136 0.14648 0.15375 0.0
C1064 C 0.33987 0.07621 0.13193 0.0
C1065 C 0.3834 0.18744 0.16194 0.0
C1066 C 0.34194 0.91161 0.09466 0.0
C1067 C 0.34039 0.94429 0.10583 0.0
C1068 C 0.37549 0.0119 0.13235 0.0
C1069 C 0.36037 0.12375 0.15151 0.0
C1070 C 0.35833 0.08157 0.1421 0.0
C1071 C 0.3589 0.97321 0.10997 0.0
C1072 C 0.35764 0.00799 0.12173 0.0
H1073 H 0.3286 0.19818 0.17063 0.0
H1074 H 0.32507 0.12593 0.15638 0.0
H1075 H 0.38997 0.05054 0.15037 0.0
H1076 H 0.39588 0.93545 0.08597 0.0
H1077 H 0.39321 0.99183 0.10547 0.0
C1078 C 0.35702 0.39591 0.13581 0.0
C1079 C 0.36485 0.40438 0.15018 0.0
C1080 C 0.36278 0.4262 0.12481 0.0
C1081 C 0.4025 0.5217 0.11611 0.0
H1082 H 0.35454 0.55529 0.08765 0.0
C1083 C 0.40336 0.68826 0.08071 0.0
C1084 C 0.39392 0.68549 0.06645 0.0
C1085 C 0.40277 0.64952 0.08989 0.0
C1086 C 0.36825 0.5457 0.09535 0.0
H1087 H 0.38519 0.45085 0.16425 0.0
H1088 H 0.39482 0.50436 0.1451 0.0
H1089 H 0.34755 0.49642 0.10578 0.0
H1090 H 0.37762 0.63906 0.05042 0.0
H1091 H 0.37664 0.57142 0.06648 0.0
H1092 H 0.42294 0.57233 0.10586 0.0
C1093 C 0.38455 0.47383 0.14228 0.0
C1094 C 0.36424 0.51191 0.10576 0.0
C1095 C 0.3789 0.44335 0.15328 0.0
C1096 C 0.38492 0.64246 0.06136 0.0
C1097 C 0.38424 0.60378 0.07058 0.0
C1098 C 0.40647 0.55573 0.10571 0.0
C1099 C 0.37639 0.46586 0.12792 0.0
C1100 C 0.38124 0.49982 0.11636 0.0
C1101 C 0.39266 0.60725 0.08503 0.0
C1102 C 0.3893 0.56841 0.09532 0.0
H1103 H 0.34635 0.36593 0.13304 0.0
H1104 H 0.35653 0.41855 0.11385 0.0
H1105 H 0.41608 0.51265 0.12397 0.0
H1106 H 0.41049 0.72086 0.08495 0.0
H1107 H 0.40926 0.6534 0.101 0.0
C1108 C 0.33921 0.67223 0.66218 0.0
C1109 C 0.36055 0.68821 0.66763 0.0
C1110 C 0.33751 0.63667 0.65174 0.0
C1111 C 0.36913 0.58813 0.62283 0.0
H1112 H 0.33235 0.47618 0.62559 0.0
C1113 C 0.38186 0.42901 0.58677 0.0
C1114 C 0.3629 0.40326 0.58143 0.0
C1115 C 0.37968 0.46418 0.59702 0.0
C1116 C 0.34241 0.50761 0.62454 0.0
H1117 H 0.39677 0.67825 0.66676 0.0
H1118 H 0.39371 0.61691 0.64855 0.0
H1119 H 0.33159 0.53675 0.64429 0.0
H1120 H 0.32673 0.39424 0.5827 0.0
H1121 H 0.32285 0.45656 0.60048 0.0
H1122 H 0.37991 0.55978 0.60313 0.0
C1123 C 0.37835 0.63203 0.65226 0.0
C1124 C 0.342 0.54214 0.63526 0.0
C1125 C 0.38006 0.66703 0.66275 0.0
C1126 C 0.34167 0.41344 0.58662 0.0
C1127 C 0.33947 0.44897 0.59685 0.0
C1128 C 0.36938 0.55401 0.61209 0.0
C1129 C 0.3571 0.61704 0.64648 0.0
C1130 C 0.35576 0.58219 0.63464 0.0
C1131 C 0.35846 0.47486 0.60213 0.0
C1132 C 0.35645 0.51282 0.61296 0.0
H1133 H 0.32388 0.68779 0.66576 0.0
H1134 H 0.32093 0.62563 0.64743 0.0
H1135 H 0.37955 0.61916 0.62195 0.0
H1136 H 0.3985 0.4218 0.58312 0.0
H1137 H 0.39477 0.48264 0.60108 0.0
C1138 C 0.4055 0.16918 0.57969 0.0
C1139 C 0.38412 0.18489 0.57433 0.0
C1140 C 0.40741 0.13061 0.58903 0.0
C1141 C 0.37472 0.02924 0.60208 0.0
H1142 H 0.41564 0.03873 0.63625 0.0
C1143 C 0.36269 0.92237 0.65328 0.0
C1144 C 0.38174 0.90016 0.65997 0.0
C1145 C 0.36505 0.95399 0.64201 0.0
C1146 C 0.40436 0.03534 0.62666 0.0
H1147 H 0.34801 0.17202 0.57441 0.0
H1148 H 0.3513 0.10584 0.59077 0.0
H1149 H 0.41623 0.09924 0.61763 0.0
H1150 H 0.41826 0.89426 0.66022 0.0
H1151 H 0.42236 0.95039 0.64059 0.0
H1152 H 0.36227 0.96634 0.61139 0.0
C1153 C 0.36666 0.12251 0.58761 0.0
C1154 C 0.40473 0.06986 0.61597 0.0
C1155 C 0.36477 0.16081 0.57829 0.0
C1156 C 0.40326 0.91076 0.65526 0.0
C1157 C 0.40563 0.94292 0.64407 0.0
C1158 C 0.37422 0.99506 0.6128 0.0
C1159 C 0.38797 0.10705 0.59317 0.0
C1160 C 0.38955 0.06774 0.6037 0.0
C1161 C 0.38651 0.96449 0.63727 0.0
C1162 C 0.3887 -0.00171 0.62533 0.0
H1163 H 0.42074 0.18695 0.5768 0.0
H1164 H 0.42409 0.11929 0.59301 0.0
H1165 H 0.36317 0.02592 0.59261 0.0
H1166 H 0.34588 0.91499 0.65664 0.0
H1167 H 0.35005 0.97063 0.63708 0.0
loop_
_geom_bond_atom_site_label_1
_geom_bond_atom_site_label_2
_geom_bond_distance
_geom_bond_site_symmetry_2
_ccdc_geom_bond_type
C0 O1 1.160 . S
C0 O7 1.185 . S
O1 C0 1.160 . S
O2 Zn3 1.899 . S
O2 C10 1.284 . S
Zn3 O2 1.899 . S
Zn3 O4 2.032 . S
Zn3 O7 2.086 . S
Zn3 O12 1.977 . S
O4 Zn3 2.032 . S
O4 C8 1.278 . S
C5 O6 1.203 . S
C5 O12 1.267 . S
O6 C5 1.203 . S
O7 C0 1.185 . S
O7 Zn3 2.086 . S
C8 O4 1.278 . S
C8 O9 1.211 . S
O9 C8 1.211 . S
C10 O2 1.284 . S
C10 O11 1.273 . S
O11 C10 1.273 . S
O12 Zn3 1.977 . S
O12 C5 1.267 . S
C13 O14 1.160 . S
C13 O20 1.185 . S
O14 C13 1.160 . S
O15 Zn16 1.899 . S
O15 C23 1.284 . S
Zn16 O15 1.899 . S
Zn16 O17 2.032 . S
Zn16 O20 2.086 . S
Zn16 O25 1.977 . S
O17 Zn16 2.032 . S
O17 C21 1.278 . S
C18 O19 1.203 . S
C18 O25 1.267 . S
O19 C18 1.203 . S
O20 C13 1.185 . S
O20 Zn16 2.086 . S
C21 O17 1.278 . S
C21 O22 1.211 . S
O22 C21 1.211 . S
C23 O15 1.284 . S
C23 O24 1.273 . S
O24 C23 1.273 . S
O25 Zn16 1.977 . S
O25 C18 1.267 . S
C26 O27 1.160 . S
C26 O33 1.185 . S
O27 C26 1.160 . S
O28 Zn29 1.899 . S
O28 C36 1.284 . S
Zn29 O28 1.899 . S
Zn29 O30 2.032 . S
Zn29 O33 2.086 . S
Zn29 O38 1.977 . S
O30 Zn29 2.032 . S
O30 C34 1.278 . S
C31 O32 1.203 . S
C31 O38 1.267 . S
O32 C31 1.203 . S
O33 C26 1.185 . S
O33 Zn29 2.086 . S
C34 O30 1.278 . S
C34 O35 1.211 . S
O35 C34 1.211 . S
C36 O28 1.284 . S
C36 O37 1.273 . S
O37 C36 1.273 . S
O38 Zn29 1.977 . S
O38 C31 1.267 . S
C39 O40 1.160 . S
C39 O46 1.185 . S
O40 C39 1.160 . S
O41 Zn42 1.899 . S
O41 C49 1.284 . S
Zn42 O41 1.899 . S
Zn42 O43 2.032 . S
Zn42 O46 2.086 . S
Zn42 O51 1.977 . S
O43 Zn42 2.032 . S
O43 C47 1.278 . S
C44 O45 1.203 . S
C44 O51 1.267 . S
O45 C44 1.203 . S
O46 C39 1.185 . S
O46 Zn42 2.086 . S
C47 O43 1.278 . S
C47 O48 1.211 . S
O48 C47 1.211 . S
C49 O41 1.284 . S
C49 O50 1.273 . S
O50 C49 1.273 . S
O51 Zn42 1.977 . S
O51 C44 1.267 . S
C52 O53 1.160 . S
C52 O59 1.185 . S
O53 C52 1.160 . S
O54 Zn55 1.899 . S
O54 C62 1.284 . S
Zn55 O54 1.899 . S
Zn55 O56 2.032 . S
Zn55 O59 2.086 . S
Zn55 O64 1.977 . S
O56 Zn55 2.032 . S
O56 C60 1.278 . S
C57 O58 1.203 . S
C57 O64 1.267 . S
O58 C57 1.203 . S
O59 C52 1.185 . S
O59 Zn55 2.086 . S
C60 O56 1.278 . S
C60 O61 1.211 . S
O61 C60 1.211 . S
C62 O54 1.284 . S
C62 O63 1.273 . S
O63 C62 1.273 . S
O64 Zn55 1.977 . S
O64 C57 1.267 . S
C65 O66 1.160 . S
C65 O72 1.185 . S
O66 C65 1.160 . S
O67 Zn68 1.899 . S
O67 C75 1.284 . S
Zn68 O67 1.899 . S
Zn68 O69 2.032 . S
Zn68 O72 2.086 . S
Zn68 O77 1.977 . S
O69 Zn68 2.032 . S
O69 C73 1.278 . S
C70 O71 1.203 . S
C70 O77 1.267 . S
O71 C70 1.203 . S
O72 C65 1.185 . S
O72 Zn68 2.086 . S
C73 O69 1.278 . S
C73 O74 1.211 . S
O74 C73 1.211 . S
C75 O67 1.284 . S
C75 O76 1.273 . S
O76 C75 1.273 . S
O77 Zn68 1.977 . S
O77 C70 1.267 . S
C78 O79 1.160 . S
C78 O85 1.185 . S
O79 C78 1.160 . S
O80 Zn81 1.899 . S
O80 C88 1.284 . S
Zn81 O80 1.899 . S
Zn81 O82 2.032 . S
Zn81 O85 2.086 . S
Zn81 O90 1.977 . S
O82 Zn81 2.032 . S
O82 C86 1.278 . S
C83 O84 1.203 . S
C83 O90 1.267 . S
O84 C83 1.203 . S
O85 C78 1.185 . S
O85 Zn81 2.086 . S
C86 O82 1.278 . S
C86 O87 1.211 . S
O87 C86 1.211 . S
C88 O80 1.284 . S
C88 O89 1.273 . S
O89 C88 1.273 . S
O90 Zn81 1.977 . S
O90 C83 1.267 . S
C91 O92 1.160 . S
C91 O98 1.185 . S
O92 C91 1.160 . S
O93 Zn94 1.899 . S
O93 C101 1.284 . S
Zn94 O93 1.899 . S
Zn94 O95 2.032 . S
Zn94 O98 2.086 . S
Zn94 O103 1.977 . S
O95 Zn94 2.032 . S
O95 C99 1.278 . S
C96 O97 1.203 . S
C96 O103 1.267 . S
O97 C96 1.203 . S
O98 C91 1.185 . S
O98 Zn94 2.086 . S
C99 O95 1.278 . S
C99 O100 1.211 . S
O100 C99 1.211 . S
C101 O93 1.284 . S
C101 O102 1.273 . S
O102 C101 1.273 . S
O103 Zn94 1.977 . S
O103 C96 1.267 . S
C104 O105 1.160 . S
C104 O111 1.185 . S
O105 C104 1.160 . S
O106 Zn107 1.899 . S
O106 C114 1.284 . S
Zn107 O106 1.899 . S
Zn107 O108 2.032 . S
Zn107 O111 2.086 . S
Zn107 O116 1.977 . S
O108 Zn107 2.032 . S
O108 C112 1.278 . S
C109 O110 1.203 . S
C109 O116 1.267 . S
O110 C109 1.203 . S
O111 C104 1.185 . S
O111 Zn107 2.086 . S
C112 O108 1.278 . S
C112 O113 1.211 . S
O113 C112 1.211 . S
C114 O106 1.284 . S
C114 O115 1.273 . S
O115 C114 1.273 . S
O116 Zn107 1.977 . S
O116 C109 1.267 . S
C117 O118 1.160 . S
C117 O124 1.185 . S
O118 C117 1.160 . S
O119 Zn120 1.899 . S
O119 C127 1.284 . S
Zn120 O119 1.899 . S
Zn120 O121 2.032 . S
Zn120 O124 2.086 . S
Zn120 O129 1.977 . S
O121 Zn120 2.032 . S
O121 C125 1.278 . S
C122 O123 1.203 . S
C122 O129 1.267 . S
O123 C122 1.203 . S
O124 C117 1.185 . S
O124 Zn120 2.086 . S
C125 O121 1.278 . S
C125 O126 1.211 . S
O126 C125 1.211 . S
C127 O119 1.284 . S
C127 O128 1.273 . S
O128 C127 1.273 . S
O129 Zn120 1.977 . S
O129 C122 1.267 . S
C130 O131 1.160 . S
C130 O137 1.185 . S
O131 C130 1.160 . S
O132 Zn133 1.899 . S
O132 C140 1.284 . S
Zn133 O132 1.899 . S
Zn133 O134 2.032 . S
Zn133 O137 2.086 . S
Zn133 O142 1.977 . S
O134 Zn133 2.032 . S
O134 C138 1.278 . S
C135 O136 1.203 . S
C135 O142 1.267 . S
O136 C135 1.203 . S
O137 C130 1.185 . S
O137 Zn133 2.086 . S
C138 O134 1.278 . S
C138 O139 1.211 . S
O139 C138 1.211 . S
C140 O132 1.284 . S
C140 O141 1.273 . S
O141 C140 1.273 . S
O142 Zn133 1.977 . S
O142 C135 1.267 . S
C143 O144 1.160 . S
C143 O150 1.185 . S
O144 C143 1.160 . S
O145 Zn146 1.899 . S
O145 C153 1.284 . S
Zn146 O145 1.899 . S
Zn146 O147 2.032 . S
Zn146 O150 2.086 . S
Zn146 O155 1.977 . S
O147 Zn146 2.032 . S
O147 C151 1.278 . S
C148 O149 1.203 . S
C148 O155 1.267 . S
O149 C148 1.203 . S
O150 C143 1.185 . S
O150 Zn146 2.086 . S
C151 O147 1.278 . S
C151 O152 1.211 . S
O152 C151 1.211 . S
C153 O145 1.284 . S
C153 O154 1.273 . S
O154 C153 1.273 . S
O155 Zn146 1.977 . S
O155 C148 1.267 . S
C156 O157 1.160 . S
C156 O163 1.185 . S
O157 C156 1.160 . S
O158 Zn159 1.899 . S
O158 C166 1.284 . S
Zn159 O158 1.899 . S
Zn159 O160 2.032 . S
Zn159 O163 2.086 . S
Zn159 O168 1.977 . S
O160 Zn159 2.032 . S
O160 C164 1.278 . S
C161 O162 1.203 . S
C161 O168 1.267 . S
O162 C161 1.203 . S
O163 C156 1.185 . S
O163 Zn159 2.086 . S
C164 O160 1.278 . S
C164 O165 1.211 . S
O165 C164 1.211 . S
C166 O158 1.284 . S
C166 O167 1.273 . S
O167 C166 1.273 . S
O168 Zn159 1.977 . S
O168 C161 1.267 . S
C169 O170 1.160 . S
C169 O176 1.185 . S
O170 C169 1.160 . S
O171 Zn172 1.899 . S
O171 C179 1.284 . S
Zn172 O171 1.899 . S
Zn172 O173 2.032 . S
Zn172 O176 2.086 . S
Zn172 O181 1.977 . S
O173 Zn172 2.032 . S
O173 C177 1.278 . S
C174 O175 1.203 . S
C174 O181 1.267 . S
O175 C174 1.203 . S
O176 C169 1.185 . S
O176 Zn172 2.086 . S
C177 O173 1.278 . S
C177 O178 1.211 . S
O178 C177 1.211 . S
C179 O171 1.284 . S
C179 O180 1.273 . S
O180 C179 1.273 . S
O181 Zn172 1.977 . S
O181 C174 1.267 . S
C182 O183 1.160 . S
C182 O189 1.185 . S
O183 C182 1.160 . S
O184 Zn185 1.899 . S
O184 C192 1.284 . S
Zn185 O184 1.899 . S
Zn185 O186 2.032 . S
Zn185 O189 2.086 . S
Zn185 O194 1.977 . S
O186 Zn185 2.032 . S
O186 C190 1.278 . S
C187 O188 1.203 . S
C187 O194 1.267 . S
O188 C187 1.203 . S
O189 C182 1.185 . S
O189 Zn185 2.086 . S
C190 O186 1.278 . S
C190 O191 1.211 . S
O191 C190 1.211 . S
C192 O184 1.284 . S
C192 O193 1.273 . S
O193 C192 1.273 . S
O194 Zn185 1.977 . S
O194 C187 1.267 . S
C195 O196 1.160 . S
C195 O202 1.185 . S
O196 C195 1.160 . S
O197 Zn198 1.899 . S
O197 C205 1.284 . S
Zn198 O197 1.899 . S
Zn198 O199 2.032 . S
Zn198 O202 2.086 . S
Zn198 O207 1.977 . S
O199 Zn198 2.032 . S
O199 C203 1.278 . S
C200 O201 1.203 . S
C200 O207 1.267 . S
O201 C200 1.203 . S
O202 C195 1.185 . S
O202 Zn198 2.086 . S
C203 O199 1.278 . S
C203 O204 1.211 . S
O204 C203 1.211 . S
C205 O197 1.284 . S
C205 O206 1.273 . S
O206 C205 1.273 . S
O207 Zn198 1.977 . S
O207 C200 1.267 . S
C208 C209 1.349 . S
C208 C210 1.327 . S
C208 H233 0.950 . S
C209 C208 1.349 . S
C209 C225 1.349 . S
C210 C208 1.327 . S
C210 C229 1.429 . S
C210 H234 0.950 . S
C211 C228 1.574 . S
C211 C230 1.368 . S
C211 H235 0.949 . S
H212 C216 0.949 . S
C213 C214 1.349 . S
C213 C215 1.327 . S
C213 H236 0.950 . S
C214 C213 1.349 . S
C214 C226 1.349 . S
C215 C213 1.327 . S
C215 C231 1.429 . S
C215 H237 0.950 . S
C216 H212 0.949 . S
C216 C224 1.574 . S
C216 C232 1.368 . S
H217 C225 0.950 . S
H218 C223 0.950 . S
H219 C224 0.949 . S
H220 C226 0.950 . S
H221 C227 0.950 . S
H222 C228 0.949 . S
C223 H218 0.950 . S
C223 C225 1.327 . S
C223 C229 1.429 . S
C224 C216 1.574 . S
C224 H219 0.949 . S
C224 C230 1.368 . S
C225 C209 1.349 . S
C225 H217 0.950 . S
C225 C223 1.327 . S
C226 C214 1.349 . S
C226 H220 0.950 . S
C226 C227 1.327 . S
C227 H221 0.950 . S
C227 C226 1.327 . S
C227 C231 1.429 . S
C228 C211 1.574 . S
C228 H222 0.949 . S
C228 C232 1.368 . S
C229 C210 1.429 . S
C229 C223 1.429 . S
C229 C230 1.523 . S
C230 C211 1.368 . S
C230 C224 1.368 . S
C230 C229 1.523 . S
C231 C215 1.429 . S
C231 C227 1.429 . S
C231 C232 1.523 . S
C232 C216 1.368 . S
C232 C228 1.368 . S
C232 C231 1.523 . S
H233 C208 0.950 . S
H234 C210 0.950 . S
H235 C211 0.949 . S
H236 C213 0.950 . S
H237 C215 0.950 . S
C238 C239 1.349 . S
C238 C240 1.327 . S
C238 H263 0.950 . S
C239 C238 1.349 . S
C239 C255 1.349 . S
C240 C238 1.327 . S
C240 C259 1.429 . S
C240 H264 0.950 . S
C241 C258 1.574 1_565 S
C241 C260 1.368 . S
C241 H265 0.949 . S
H242 C246 0.949 . S
C243 C244 1.349 . S
C243 C245 1.327 . S
C243 H266 0.950 . S
C244 C243 1.349 . S
C244 C256 1.349 . S
C245 C243 1.327 . S
C245 C261 1.429 . S
C245 H267 0.950 . S
C246 H242 0.949 . S
C246 C254 1.574 1_545 S
C246 C262 1.368 . S
H247 C255 0.950 . S
H248 C253 0.950 . S
H249 C254 0.949 . S
H250 C256 0.950 . S
H251 C257 0.950 . S
H252 C258 0.949 . S
C253 H248 0.950 . S
C253 C255 1.327 . S
C253 C259 1.429 . S
C254 C246 1.574 1_565 S
C254 H249 0.949 . S
C254 C260 1.368 1_455 S
C255 C239 1.349 . S
C255 H247 0.950 . S
C255 C253 1.327 . S
C256 C244 1.349 . S
C256 H250 0.950 . S
C256 C257 1.327 . S
C257 H251 0.950 . S
C257 C256 1.327 . S
C257 C261 1.429 . S
C258 C241 1.574 1_545 S
C258 H252 0.949 . S
C258 C262 1.368 1_655 S
C259 C240 1.429 . S
C259 C253 1.429 . S
C259 C260 1.523 . S
C260 C241 1.368 . S
C260 C254 1.368 1_655 S
C260 C259 1.523 . S
C261 C245 1.429 . S
C261 C257 1.429 . S
C261 C262 1.523 . S
C262 C246 1.368 . S
C262 C258 1.368 1_455 S
C262 C261 1.523 . S
H263 C238 0.950 . S
H264 C240 0.950 . S
H265 C241 0.949 . S
H266 C243 0.950 . S
H267 C245 0.950 . S
C268 C269 1.349 . S
C268 C270 1.327 . S
C268 H293 0.950 . S
C269 C268 1.349 . S
C269 C285 1.349 . S
C270 C268 1.327 . S
C270 C289 1.429 . S
C270 H294 0.950 . S
C271 C288 1.574 . S
C271 C290 1.368 . S
C271 H295 0.949 . S
H272 C276 0.949 . S
C273 C274 1.349 . S
C273 C275 1.327 . S
C273 H296 0.950 . S
C274 C273 1.349 . S
C274 C286 1.349 . S
C275 C273 1.327 . S
C275 C291 1.429 . S
C275 H297 0.950 . S
C276 H272 0.949 . S
C276 C284 1.574 . S
C276 C292 1.368 . S
H277 C285 0.950 . S
H278 C283 0.950 . S
H279 C284 0.949 . S
H280 C286 0.950 . S
H281 C287 0.950 . S
H282 C288 0.949 . S
C283 H278 0.950 . S
C283 C285 1.327 . S
C283 C289 1.429 . S
C284 C276 1.574 . S
C284 H279 0.949 . S
C284 C290 1.368 1_545 S
C285 C269 1.349 . S
C285 H277 0.950 . S
C285 C283 1.327 . S
C286 C274 1.349 . S
C286 H280 0.950 . S
C286 C287 1.327 . S
C287 H281 0.950 . S
C287 C286 1.327 . S
C287 C291 1.429 . S
C288 C271 1.574 . S
C288 H282 0.949 . S
C288 C292 1.368 1_565 S
C289 C270 1.429 . S
C289 C283 1.429 . S
C289 C290 1.523 . S
C290 C271 1.368 . S
C290 C284 1.368 1_565 S
C290 C289 1.523 . S
C291 C275 1.429 . S
C291 C287 1.429 . S
C291 C292 1.523 . S
C292 C276 1.368 . S
C292 C288 1.368 1_545 S
C292 C291 1.523 . S
H293 C268 0.950 . S
H294 C270 0.950 . S
H295 C271 0.949 . S
H296 C273 0.950 . S
H297 C275 0.950 . S
C298 C299 1.349 . S
C298 C300 1.327 . S
C298 H323 0.950 . S
C299 C298 1.349 . S
C299 C315 1.349 . S
C300 C298 1.327 . S
C300 C319 1.429 . S
C300 H324 0.950 . S
C301 C318 1.574 1_455 S
C301 C320 1.368 . S
C301 H325 0.949 . S
H302 C306 0.949 . S
C303 C304 1.349 . S
C303 C305 1.327 . S
C303 H326 0.950 . S
C304 C303 1.349 . S
C304 C316 1.349 . S
C305 C303 1.327 . S
C305 C321 1.429 . S
C305 H327 0.950 . S
C306 H302 0.949 . S
C306 C314 1.574 1_655 S
C306 C322 1.368 . S
H307 C315 0.950 . S
H308 C313 0.950 . S
H309 C314 0.949 . S
H310 C316 0.950 . S
H311 C317 0.950 . S
H312 C318 0.949 . S
C313 H308 0.950 . S
C313 C315 1.327 . S
C313 C319 1.429 . S
C314 C306 1.574 1_455 S
C314 H309 0.949 . S
C314 C320 1.368 . S
C315 C299 1.349 . S
C315 H307 0.950 . S
C315 C313 1.327 . S
C316 C304 1.349 . S
C316 H310 0.950 . S
C316 C317 1.327 . S
C317 H311 0.950 . S
C317 C316 1.327 . S
C317 C321 1.429 . S
C318 C301 1.574 1_655 S
C318 H312 0.949 . S
C318 C322 1.368 . S
C319 C300 1.429 . S
C319 C313 1.429 . S
C319 C320 1.523 . S
C320 C301 1.368 . S
C320 C314 1.368 . S
C320 C319 1.523 . S
C321 C305 1.429 . S
C321 C317 1.429 . S
C321 C322 1.523 . S
C322 C306 1.368 . S
C322 C318 1.368 . S
C322 C321 1.523 . S
H323 C298 0.950 . S
H324 C300 0.950 . S
H325 C301 0.949 . S
H326 C303 0.950 . S
H327 C305 0.950 . S
C328 C329 1.349 . S
C328 C330 1.327 . S
C328 H353 0.950 . S
C329 C328 1.349 . S
C329 C345 1.349 . S
C330 C328 1.327 . S
C330 C349 1.429 . S
C330 H354 0.950 . S
C331 C348 1.574 . S
C331 C350 1.368 . S
C331 H355 0.949 . S
H332 C336 0.949 . S
C333 C334 1.349 . S
C333 C335 1.327 . S
C333 H356 0.950 . S
C334 C333 1.349 . S
C334 C346 1.349 . S
C335 C333 1.327 . S
C335 C351 1.429 . S
C335 H357 0.950 . S
C336 H332 0.949 . S
C336 C344 1.574 . S
C336 C352 1.368 . S
H337 C345 0.950 . S
H338 C343 0.950 . S
H339 C344 0.949 . S
H340 C346 0.950 . S
H341 C347 0.950 . S
H342 C348 0.949 . S
C343 H338 0.950 . S
C343 C345 1.327 . S
C343 C349 1.429 . S
C344 C336 1.574 . S
C344 H339 0.949 . S
C344 C350 1.368 . S
C345 C329 1.349 . S
C345 H337 0.950 . S
C345 C343 1.327 . S
C346 C334 1.349 . S
C346 H340 0.950 . S
C346 C347 1.327 . S
C347 H341 0.950 . S
C347 C346 1.327 . S
C347 C351 1.429 . S
C348 C331 1.574 . S
C348 H342 0.949 . S
C348 C352 1.368 . S
C349 C330 1.429 . S
C349 C343 1.429 . S
C349 C350 1.523 . S
C350 C331 1.368 . S
C350 C344 1.368 . S
C350 C349 1.523 . S
C351 C335 1.429 . S
C351 C347 1.429 . S
C351 C352 1.523 . S
C352 C336 1.368 . S
C352 C348 1.368 . S
C352 C351 1.523 . S
H353 C328 0.950 . S
H354 C330 0.950 . S
H355 C331 0.949 . S
H356 C333 0.950 . S
H357 C335 0.950 . S
C358 C359 1.349 . S
C358 C360 1.327 . S
C358 H383 0.950 . S
C359 C358 1.349 . S
C359 C375 1.349 . S
C360 C358 1.327 . S
C360 C379 1.429 . S
C360 H384 0.950 . S
C361 C378 1.574 . S
C361 C380 1.368 1_565 S
C361 H385 0.949 . S
H362 C366 0.949 . S
C363 C364 1.349 . S
C363 C365 1.327 . S
C363 H386 0.950 . S
C364 C363 1.349 . S
C364 C376 1.349 . S
C365 C363 1.327 . S
C365 C381 1.429 . S
C365 H387 0.950 . S
C366 H362 0.949 . S
C366 C374 1.574 . S
C366 C382 1.368 1_545 S
H367 C375 0.950 . S
H368 C373 0.950 1_565 S
H369 C374 0.949 . S
H370 C376 0.950 . S
H371 C377 0.950 1_545 S
H372 C378 0.949 . S
C373 H368 0.950 1_545 S
C373 C375 1.327 . S
C373 C379 1.429 . S
C374 C366 1.574 . S
C374 H369 0.949 . S
C374 C380 1.368 . S
C375 C359 1.349 . S
C375 H367 0.950 . S
C375 C373 1.327 . S
C376 C364 1.349 . S
C376 H370 0.950 . S
C376 C377 1.327 . S
C377 H371 0.950 1_565 S
C377 C376 1.327 . S
C377 C381 1.429 . S
C378 C361 1.574 . S
C378 H372 0.949 . S
C378 C382 1.368 . S
C379 C360 1.429 . S
C379 C373 1.429 . S
C379 C380 1.523 . S
C380 C361 1.368 1_545 S
C380 C374 1.368 . S
C380 C379 1.523 . S
C381 C365 1.429 . S
C381 C377 1.429 . S
C381 C382 1.523 . S
C382 C366 1.368 1_565 S
C382 C378 1.368 . S
C382 C381 1.523 . S
H383 C358 0.950 . S
H384 C360 0.950 . S
H385 C361 0.949 . S
H386 C363 0.950 . S
H387 C365 0.950 . S
C388 C389 1.349 . S
C388 C390 1.327 . S
C388 H413 0.950 . S
C389 C388 1.349 . S
C389 C405 1.349 . S
C390 C388 1.327 . S
C390 C409 1.429 . S
C390 H414 0.950 . S
C391 C408 1.574 1_655 S
C391 C410 1.368 . S
C391 H415 0.949 . S
H392 C396 0.949 . S
C393 C394 1.349 . S
C393 C395 1.327 . S
C393 H416 0.950 . S
C394 C393 1.349 . S
C394 C406 1.349 . S
C395 C393 1.327 . S
C395 C411 1.429 . S
C395 H417 0.950 . S
C396 H392 0.949 . S
C396 C404 1.574 1_455 S
C396 C412 1.368 . S
H397 C405 0.950 . S
H398 C403 0.950 . S
H399 C404 0.949 . S
H400 C406 0.950 . S
H401 C407 0.950 . S
H402 C408 0.949 . S
C403 H398 0.950 . S
C403 C405 1.327 . S
C403 C409 1.429 . S
C404 C396 1.574 1_655 S
C404 H399 0.949 . S
C404 C410 1.368 . S
C405 C389 1.349 . S
C405 H397 0.950 . S
C405 C403 1.327 . S
C406 C394 1.349 . S
C406 H400 0.950 . S
C406 C407 1.327 . S
C407 H401 0.950 . S
C407 C406 1.327 . S
C407 C411 1.429 . S
C408 C391 1.574 1_455 S
C408 H402 0.949 . S
C408 C412 1.368 . S
C409 C390 1.429 . S
C409 C403 1.429 . S
C409 C410 1.523 . S
C410 C391 1.368 . S
C410 C404 1.368 . S
C410 C409 1.523 . S
C411 C395 1.429 . S
C411 C407 1.429 . S
C411 C412 1.523 . S
C412 C396 1.368 . S
C412 C408 1.368 . S
C412 C411 1.523 . S
H413 C388 0.950 . S
H414 C390 0.950 . S
H415 C391 0.949 . S
H416 C393 0.950 . S
H417 C395 0.950 . S
C418 C419 1.349 . S
C418 C420 1.327 . S
C418 H443 0.950 . S
C419 C418 1.349 . S
C419 C435 1.349 . S
C420 C418 1.327 . S
C420 C439 1.429 . S
C420 H444 0.950 . S
C421 C438 1.574 . S
C421 C440 1.368 1_556 S
C421 H445 0.949 . S
H422 C426 0.949 . S
C423 C424 1.349 . S
C423 C425 1.327 . S
C423 H446 0.950 . S
C424 C423 1.349 . S
C424 C436 1.349 . S
C425 C423 1.327 . S
C425 C441 1.429 . S
C425 H447 0.950 . S
C426 H422 0.949 . S
C426 C434 1.574 . S
C426 C442 1.368 1_554 S
H427 C435 0.950 . S
H428 C433 0.950 . S
H429 C434 0.949 . S
H430 C436 0.950 . S
H431 C437 0.950 . S
H432 C438 0.949 . S
C433 H428 0.950 . S
C433 C435 1.327 . S
C433 C439 1.429 . S
C434 C426 1.574 . S
C434 H429 0.949 . S
C434 C440 1.368 . S
C435 C419 1.349 . S
C435 H427 0.950 . S
C435 C433 1.327 . S
C436 C424 1.349 . S
C436 H430 0.950 . S
C436 C437 1.327 . S
C437 H431 0.950 . S
C437 C436 1.327 . S
C437 C441 1.429 . S
C438 C421 1.574 . S
C438 H432 0.949 . S
C438 C442 1.368 . S
C439 C420 1.429 . S
C439 C433 1.429 . S
C439 C440 1.523 . S
C440 C421 1.368 1_554 S
C440 C434 1.368 . S
C440 C439 1.523 . S
C441 C425 1.429 . S
C441 C437 1.429 . S
C441 C442 1.523 . S
C442 C426 1.368 1_556 S
C442 C438 1.368 . S
C442 C441 1.523 . S
H443 C418 0.950 . S
H444 C420 0.950 . S
H445 C421 0.949 . S
H446 C423 0.950 . S
H447 C425 0.950 . S
C448 C449 1.349 . S
C448 C450 1.327 . S
C448 H473 0.950 . S
C449 C448 1.349 . S
C449 C465 1.349 . S
C450 C448 1.327 . S
C450 C469 1.429 . S
C450 H474 1.000 . S
C451 C468 1.574 1_455 S
C451 C470 1.368 . S
C451 H475 0.949 . S
H452 C456 0.949 . S
C453 C454 1.349 . S
C453 C455 1.327 . S
C453 H476 0.950 . S
C454 C453 1.349 . S
C454 C466 1.349 . S
C455 C453 1.327 . S
C455 C471 1.429 . S
C455 H477 1.000 . S
C456 H452 0.949 . S
C456 C464 1.574 1_655 S
C456 C472 1.368 . S
H457 C465 0.950 . S
H458 C463 0.950 . S
H459 C464 0.949 . S
H460 C466 0.950 . S
H461 C467 0.950 . S
H462 C468 0.949 . S
C463 H458 0.950 . S
C463 C465 1.327 . S
C463 C469 1.429 . S
C464 C456 1.574 1_455 S
C464 H459 0.949 . S
C464 C470 1.368 1_554 S
C465 C449 1.349 . S
C465 H457 0.950 . S
C465 C463 1.327 . S
C466 C454 1.349 . S
C466 H460 0.950 . S
C466 C467 1.327 . S
C467 H461 0.950 . S
C467 C466 1.327 . S
C467 C471 1.429 . S
C468 C451 1.574 1_655 S
C468 H462 0.949 . S
C468 C472 1.368 1_556 S
C469 C450 1.429 . S
C469 C463 1.429 . S
C469 C470 1.523 . S
C470 C451 1.368 . S
C470 C464 1.368 1_556 S
C470 C469 1.523 . S
C471 C455 1.429 . S
C471 C467 1.429 . S
C471 C472 1.523 . S
C472 C456 1.368 . S
C472 C468 1.368 1_554 S
C472 C471 1.523 . S
H473 C448 0.950 . S
H474 C450 1.000 . S
H475 C451 0.949 . S
H476 C453 0.950 . S
H477 C455 1.000 . S
C478 C479 1.349 . S
C478 C480 1.327 . S
C478 H503 0.950 . S
C479 C478 1.349 . S
C479 C495 1.349 . S
C480 C478 1.327 . S
C480 C499 1.429 . S
C480 H504 0.950 . S
C481 C498 1.574 . S
C481 C500 1.368 . S
C481 H505 0.949 . S
H482 C486 0.949 . S
C483 C484 1.349 . S
C483 C485 1.327 . S
C483 H506 0.950 . S
C484 C483 1.349 . S
C484 C496 1.349 . S
C485 C483 1.327 . S
C485 C501 1.429 . S
C485 H507 0.950 . S
C486 H482 0.949 . S
C486 C494 1.574 . S
C486 C502 1.368 . S
H487 C495 0.950 . S
H488 C493 0.950 . S
H489 C494 0.949 . S
H490 C496 0.950 . S
H491 C497 0.950 . S
H492 C498 0.949 . S
C493 H488 0.950 . S
C493 C495 1.327 . S
C493 C499 1.429 . S
C494 C486 1.574 . S
C494 H489 0.949 . S
C494 C500 1.368 . S
C495 C479 1.349 . S
C495 H487 0.950 . S
C495 C493 1.327 . S
C496 C484 1.349 . S
C496 H490 0.950 . S
C496 C497 1.327 . S
C497 H491 0.950 . S
C497 C496 1.327 . S
C497 C501 1.429 . S
C498 C481 1.574 . S
C498 H492 0.949 . S
C498 C502 1.368 . S
C499 C480 1.429 . S
C499 C493 1.429 . S
C499 C500 1.523 . S
C500 C481 1.368 . S
C500 C494 1.368 . S
C500 C499 1.523 . S
C501 C485 1.429 . S
C501 C497 1.429 . S
C501 C502 1.523 . S
C502 C486 1.368 . S
C502 C498 1.368 . S
C502 C501 1.523 . S
H503 C478 0.950 . S
H504 C480 0.950 . S
H505 C481 0.949 . S
H506 C483 0.950 . S
H507 C485 0.950 . S
C508 C509 1.349 . S
C508 C510 1.327 . S
C508 H533 0.950 . S
C509 C508 1.349 . S
C509 C525 1.349 . S
C510 C508 1.327 . S
C510 C529 1.429 . S
C510 H534 0.950 . S
C511 C528 1.574 1_556 S
C511 C530 1.368 . S
C511 H535 0.949 . S
H512 C516 0.949 . S
C513 C514 1.349 . S
C513 C515 1.327 . S
C513 H536 0.950 . S
C514 C513 1.349 . S
C514 C526 1.349 . S
C515 C513 1.327 . S
C515 C531 1.429 . S
C515 H537 0.950 . S
C516 H512 0.949 . S
C516 C524 1.574 1_554 S
C516 C532 1.368 . S
H517 C525 0.950 . S
H518 C523 0.950 . S
H519 C524 0.949 . S
H520 C526 0.950 . S
H521 C527 0.950 . S
H522 C528 0.949 . S
C523 H518 0.950 . S
C523 C525 1.327 . S
C523 C529 1.429 . S
C524 C516 1.574 1_556 S
C524 H519 0.949 . S
C524 C530 1.368 . S
C525 C509 1.349 . S
C525 H517 0.950 . S
C525 C523 1.327 . S
C526 C514 1.349 . S
C526 H520 0.950 . S
C526 C527 1.327 . S
C527 H521 0.950 . S
C527 C526 1.327 . S
C527 C531 1.429 . S
C528 C511 1.574 1_554 S
C528 H522 0.949 . S
C528 C532 1.368 . S
C529 C510 1.429 . S
C529 C523 1.429 . S
C529 C530 1.523 . S
C530 C511 1.368 . S
C530 C524 1.368 . S
C530 C529 1.523 . S
C531 C515 1.429 . S
C531 C527 1.429 . S
C531 C532 1.523 . S
C532 C516 1.368 . S
C532 C528 1.368 . S
C532 C531 1.523 . S
H533 C508 0.950 . S
H534 C510 0.950 . S
H535 C511 0.949 . S
H536 C513 0.950 . S
H537 C515 0.950 . S
C538 C539 1.349 . S
C538 C540 1.327 . S
C538 H563 0.950 . S
C539 C538 1.349 . S
C539 C555 1.349 . S
C540 C538 1.327 . S
C540 C559 1.429 . S
C540 H564 0.950 . S
C541 C558 1.574 . S
C541 C560 1.368 . S
C541 H565 0.949 . S
H542 C546 0.949 . S
C543 C544 1.349 . S
C543 C545 1.327 . S
C543 H566 0.950 . S
C544 C543 1.349 . S
C544 C556 1.349 . S
C545 C543 1.327 . S
C545 C561 1.429 . S
C545 H567 0.950 . S
C546 H542 0.949 . S
C546 C554 1.574 . S
C546 C562 1.368 . S
H547 C555 0.950 . S
H548 C553 0.950 . S
H549 C554 0.949 . S
H550 C556 0.950 . S
H551 C557 0.950 . S
H552 C558 0.949 . S
C553 H548 0.950 . S
C553 C555 1.327 . S
C553 C559 1.429 . S
C554 C546 1.574 . S
C554 H549 0.949 . S
C554 C560 1.368 . S
C555 C539 1.349 . S
C555 H547 0.950 . S
C555 C553 1.327 . S
C556 C544 1.349 . S
C556 H550 0.950 . S
C556 C557 1.327 . S
C557 H551 0.950 . S
C557 C556 1.327 . S
C557 C561 1.429 . S
C558 C541 1.574 . S
C558 H552 0.949 . S
C558 C562 1.368 . S
C559 C540 1.429 . S
C559 C553 1.429 . S
C559 C560 1.523 . S
C560 C541 1.368 . S
C560 C554 1.368 . S
C560 C559 1.523 . S
C561 C545 1.429 . S
C561 C557 1.429 . S
C561 C562 1.523 . S
C562 C546 1.368 . S
C562 C558 1.368 . S
C562 C561 1.523 . S
H563 C538 0.950 . S
H564 C540 0.950 . S
H565 C541 0.949 . S
H566 C543 0.950 . S
H567 C545 0.950 . S
C568 C569 1.349 . S
C568 C570 1.327 . S
C568 H593 0.950 . S
C569 C568 1.349 . S
C569 C585 1.349 . S
C570 C568 1.327 . S
C570 C589 1.429 . S
C570 H594 0.950 1_545 S
C571 C588 1.574 1_556 S
C571 C590 1.368 . S
C571 H595 0.949 . S
H572 C576 0.949 . S
C573 C574 1.349 . S
C573 C575 1.327 . S
C573 H596 0.950 . S
C574 C573 1.349 . S
C574 C586 1.349 . S
C575 C573 1.327 . S
C575 C591 1.429 . S
C575 H597 0.950 1_565 S
C576 H572 0.949 . S
C576 C584 1.574 1_554 S
C576 C592 1.368 . S
H577 C585 0.950 . S
H578 C583 0.950 . S
H579 C584 0.949 . S
H580 C586 0.950 . S
H581 C587 0.950 . S
H582 C588 0.949 . S
C583 H578 0.950 . S
C583 C585 1.327 . S
C583 C589 1.429 . S
C584 C576 1.574 1_556 S
C584 H579 0.949 . S
C584 C590 1.368 1_565 S
C585 C569 1.349 . S
C585 H577 0.950 . S
C585 C583 1.327 . S
C586 C574 1.349 . S
C586 H580 0.950 . S
C586 C587 1.327 . S
C587 H581 0.950 . S
C587 C586 1.327 . S
C587 C591 1.429 . S
C588 C571 1.574 1_554 S
C588 H582 0.949 . S
C588 C592 1.368 1_545 S
C589 C570 1.429 . S
C589 C583 1.429 . S
C589 C590 1.523 . S
C590 C571 1.368 . S
C590 C584 1.368 1_545 S
C590 C589 1.523 . S
C591 C575 1.429 . S
C591 C587 1.429 . S
C591 C592 1.523 . S
C592 C576 1.368 . S
C592 C588 1.368 1_565 S
C592 C591 1.523 . S
H593 C568 0.950 . S
H594 C570 0.950 1_565 S
H595 C571 0.949 . S
H596 C573 0.950 . S
H597 C575 0.950 1_545 S
C598 C599 1.349 . S
C598 C600 1.327 . S
C598 H623 0.950 . S
C599 C598 1.349 . S
C599 C615 1.349 . S
C600 C598 1.327 . S
C600 C619 1.429 . S
C600 H624 0.950 . S
C601 C618 1.574 . S
C601 C620 1.368 . S
C601 H625 0.949 . S
H602 C606 0.949 . S
C603 C604 1.349 . S
C603 C605 1.327 . S
C603 H626 0.950 . S
C604 C603 1.349 . S
C604 C616 1.349 . S
C605 C603 1.327 . S
C605 C621 1.429 . S
C605 H627 0.950 . S
C606 H602 0.949 . S
C606 C614 1.574 . S
C606 C622 1.368 . S
H607 C615 0.950 . S
H608 C613 0.950 . S
H609 C614 0.949 . S
H610 C616 0.950 . S
H611 C617 0.950 . S
H612 C618 0.949 . S
C613 H608 0.950 . S
C613 C615 1.327 . S
C613 C619 1.429 . S
C614 C606 1.574 . S
C614 H609 0.949 . S
C614 C620 1.368 . S
C615 C599 1.349 . S
C615 H607 0.950 . S
C615 C613 1.327 . S
C616 C604 1.349 . S
C616 H610 0.950 . S
C616 C617 1.327 . S
C617 H611 0.950 . S
C617 C616 1.327 . S
C617 C621 1.429 . S
C618 C601 1.574 . S
C618 H612 0.949 . S
C618 C622 1.368 . S
C619 C600 1.429 . S
C619 C613 1.429 . S
C619 C620 1.523 . S
C620 C601 1.368 . S
C620 C614 1.368 . S
C620 C619 1.523 . S
C621 C605 1.429 . S
C621 C617 1.429 . S
C621 C622 1.523 . S
C622 C606 1.368 . S
C622 C618 1.368 . S
C622 C621 1.523 . S
H623 C598 0.950 . S
H624 C600 0.950 . S
H625 C601 0.949 . S
H626 C603 0.950 . S
H627 C605 0.950 . S
C628 C629 1.349 . S
C628 C630 1.327 . S
C628 H653 0.950 . S
C629 C628 1.349 . S
C629 C645 1.349 . S
C630 C628 1.327 . S
C630 C649 1.429 . S
C630 H654 0.950 . S
C631 C648 1.574 . S
C631 C650 1.368 . S
C631 H655 0.949 . S
H632 C636 0.949 . S
C633 C634 1.349 . S
C633 C635 1.327 . S
C633 H656 0.950 . S
C634 C633 1.349 . S
C634 C646 1.349 . S
C635 C633 1.327 . S
C635 C651 1.429 . S
C635 H657 0.950 . S
C636 H632 0.949 . S
C636 C644 1.574 . S
C636 C652 1.368 . S
H637 C645 0.950 . S
H638 C643 0.950 . S
H639 C644 0.949 . S
H640 C646 0.950 . S
H641 C647 0.950 . S
H642 C648 0.949 . S
C643 H638 0.950 . S
C643 C645 1.327 . S
C643 C649 1.429 . S
C644 C636 1.574 . S
C644 H639 0.949 . S
C644 C650 1.368 . S
C645 C629 1.349 . S
C645 H637 0.950 . S
C645 C643 1.327 . S
C646 C634 1.349 . S
C646 H640 0.950 . S
C646 C647 1.327 . S
C647 H641 0.950 . S
C647 C646 1.327 . S
C647 C651 1.429 . S
C648 C631 1.574 . S
C648 H642 0.949 . S
C648 C652 1.368 . S
C649 C630 1.429 . S
C649 C643 1.429 . S
C649 C650 1.523 . S
C650 C631 1.368 . S
C650 C644 1.368 . S
C650 C649 1.523 . S
C651 C635 1.429 . S
C651 C647 1.429 . S
C651 C652 1.523 . S
C652 C636 1.368 . S
C652 C648 1.368 . S
C652 C651 1.523 . S
H653 C628 0.950 . S
H654 C630 0.950 . S
H655 C631 0.949 . S
H656 C633 0.950 . S
H657 C635 0.950 . S
C658 C659 1.349 . S
C658 C660 1.327 . S
C658 H683 0.950 . S
C659 C658 1.349 . S
C659 C675 1.349 . S
C660 C658 1.327 . S
C660 C679 1.429 . S
C660 H684 0.950 . S
C661 C678 1.574 . S
C661 C680 1.368 . S
C661 H685 0.949 . S
H662 C666 0.949 . S
C663 C664 1.349 . S
C663 C665 1.327 . S
C663 H686 0.950 . S
C664 C663 1.349 . S
C664 C676 1.349 . S
C665 C663 1.327 . S
C665 C681 1.429 . S
C665 H687 0.950 . S
C666 H662 0.949 . S
C666 C674 1.574 . S
C666 C682 1.368 . S
H667 C675 0.950 . S
H668 C673 0.950 . S
H669 C674 0.949 . S
H670 C676 0.950 . S
H671 C677 0.950 . S
H672 C678 0.949 . S
C673 H668 0.950 . S
C673 C675 1.327 . S
C673 C679 1.429 . S
C674 C666 1.574 . S
C674 H669 0.949 . S
C674 C680 1.368 . S
C675 C659 1.349 . S
C675 H667 0.950 . S
C675 C673 1.327 . S
C676 C664 1.349 . S
C676 H670 0.950 . S
C676 C677 1.327 . S
C677 H671 0.950 . S
C677 C676 1.327 . S
C677 C681 1.429 . S
C678 C661 1.574 . S
C678 H672 0.949 . S
C678 C682 1.368 . S
C679 C660 1.429 . S
C679 C673 1.429 . S
C679 C680 1.523 . S
C680 C661 1.368 . S
C680 C674 1.368 . S
C680 C679 1.523 . S
C681 C665 1.429 . S
C681 C677 1.429 . S
C681 C682 1.523 . S
C682 C666 1.368 . S
C682 C678 1.368 . S
C682 C681 1.523 . S
H683 C658 0.950 . S
H684 C660 0.950 . S
H685 C661 0.949 . S
H686 C663 0.950 . S
H687 C665 0.950 . S
C688 C689 1.349 . S
C688 C690 1.327 . S
C688 H713 0.950 . S
C689 C688 1.349 . S
C689 C705 1.349 . S
C690 C688 1.327 . S
C690 C709 1.429 . S
C690 H714 0.950 . S
C691 C708 1.574 . S
C691 C710 1.368 . S
C691 H715 0.949 . S
H692 C696 0.949 . S
C693 C694 1.349 . S
C693 C695 1.327 . S
C693 H716 0.950 . S
C694 C693 1.349 . S
C694 C706 1.349 1_545 S
C695 C693 1.327 . S
C695 C711 1.429 1_545 S
C695 H717 0.950 . S
C696 H692 0.949 . S
C696 C704 1.574 . S
C696 C712 1.368 . S
H697 C705 0.950 . S
H698 C703 0.950 . S
H699 C704 0.949 . S
H700 C706 0.950 . S
H701 C707 0.950 . S
H702 C708 0.949 . S
C703 H698 0.950 . S
C703 C705 1.327 . S
C703 C709 1.429 . S
C704 C696 1.574 . S
C704 H699 0.949 . S
C704 C710 1.368 . S
C705 C689 1.349 . S
C705 H697 0.950 . S
C705 C703 1.327 . S
C706 C694 1.349 1_565 S
C706 H700 0.950 . S
C706 C707 1.327 . S
C707 H701 0.950 . S
C707 C706 1.327 . S
C707 C711 1.429 . S
C708 C691 1.574 . S
C708 H702 0.949 . S
C708 C712 1.368 . S
C709 C690 1.429 . S
C709 C703 1.429 . S
C709 C710 1.523 . S
C710 C691 1.368 . S
C710 C704 1.368 . S
C710 C709 1.523 . S
C711 C695 1.429 1_565 S
C711 C707 1.429 . S
C711 C712 1.523 . S
C712 C696 1.368 . S
C712 C708 1.368 . S
C712 C711 1.523 . S
H713 C688 0.950 . S
H714 C690 0.950 . S
H715 C691 0.949 . S
H716 C693 0.950 . S
H717 C695 0.950 . S
C718 C719 1.349 . S
C718 C720 1.327 . S
C718 H743 0.950 . S
C719 C718 1.349 . S
C719 C735 1.349 . S
C720 C718 1.327 . S
C720 C739 1.429 . S
C720 H744 0.950 . S
C721 C738 1.574 . S
C721 C740 1.368 . S
C721 H745 0.949 . S
H722 C726 0.949 . S
C723 C724 1.349 . S
C723 C725 1.327 . S
C723 H746 0.950 . S
C724 C723 1.349 . S
C724 C736 1.349 . S
C725 C723 1.327 . S
C725 C741 1.429 . S
C725 H747 0.950 . S
C726 H722 0.949 . S
C726 C734 1.574 . S
C726 C742 1.368 . S
H727 C735 0.950 . S
H728 C733 0.950 . S
H729 C734 0.949 . S
H730 C736 0.950 . S
H731 C737 0.950 . S
H732 C738 0.949 . S
C733 H728 0.950 . S
C733 C735 1.327 . S
C733 C739 1.429 . S
C734 C726 1.574 . S
C734 H729 0.949 . S
C734 C740 1.368 . S
C735 C719 1.349 . S
C735 H727 0.950 . S
C735 C733 1.327 . S
C736 C724 1.349 . S
C736 H730 0.950 . S
C736 C737 1.327 . S
C737 H731 0.950 . S
C737 C736 1.327 . S
C737 C741 1.429 . S
C738 C721 1.574 . S
C738 H732 0.949 . S
C738 C742 1.368 . S
C739 C720 1.429 . S
C739 C733 1.429 . S
C739 C740 1.523 . S
C740 C721 1.368 . S
C740 C734 1.368 . S
C740 C739 1.523 . S
C741 C725 1.429 . S
C741 C737 1.429 . S
C741 C742 1.523 . S
C742 C726 1.368 . S
C742 C738 1.368 . S
C742 C741 1.523 . S
H743 C718 0.950 . S
H744 C720 0.950 . S
H745 C721 0.949 . S
H746 C723 0.950 . S
H747 C725 0.950 . S
C748 C749 1.349 . S
C748 C750 1.327 . S
C748 H773 0.950 . S
C749 C748 1.349 . S
C749 C765 1.349 . S
C750 C748 1.327 . S
C750 C769 1.429 . S
C750 H774 0.950 . S
C751 C768 1.574 . S
C751 C770 1.368 . S
C751 H775 0.949 . S
H752 C756 0.949 . S
C753 C754 1.349 . S
C753 C755 1.327 . S
C753 H776 0.950 . S
C754 C753 1.349 . S
C754 C766 1.349 . S
C755 C753 1.327 . S
C755 C771 1.429 . S
C755 H777 0.950 . S
C756 H752 0.949 . S
C756 C764 1.574 . S
C756 C772 1.368 . S
H757 C765 0.950 . S
H758 C763 0.950 . S
H759 C764 0.949 . S
H760 C766 0.950 . S
H761 C767 0.950 . S
H762 C768 0.949 . S
C763 H758 0.950 . S
C763 C765 1.327 . S
C763 C769 1.429 . S
C764 C756 1.574 . S
C764 H759 0.949 . S
C764 C770 1.368 . S
C765 C749 1.349 . S
C765 H757 0.950 . S
C765 C763 1.327 . S
C766 C754 1.349 . S
C766 H760 0.950 . S
C766 C767 1.327 . S
C767 H761 0.950 . S
C767 C766 1.327 . S
C767 C771 1.429 . S
C768 C751 1.574 . S
C768 H762 0.949 . S
C768 C772 1.368 . S
C769 C750 1.429 . S
C769 C763 1.429 . S
C769 C770 1.523 . S
C770 C751 1.368 . S
C770 C764 1.368 . S
C770 C769 1.523 . S
C771 C755 1.429 . S
C771 C767 1.429 . S
C771 C772 1.523 . S
C772 C756 1.368 . S
C772 C768 1.368 . S
C772 C771 1.523 . S
H773 C748 0.950 . S
H774 C750 0.950 . S
H775 C751 0.949 . S
H776 C753 0.950 . S
H777 C755 0.950 . S
C778 C779 1.349 . S
C778 C780 1.327 . S
C778 H803 0.950 . S
C779 C778 1.349 . S
C779 C795 1.349 . S
C780 C778 1.327 . S
C780 C799 1.429 . S
C780 H804 0.950 . S
C781 C798 1.574 . S
C781 C800 1.368 . S
C781 H805 0.949 . S
H782 C786 0.949 . S
C783 C784 1.349 . S
C783 C785 1.327 . S
C783 H806 0.950 . S
C784 C783 1.349 . S
C784 C796 1.349 1_545 S
C785 C783 1.327 . S
C785 C801 1.429 1_545 S
C785 H807 0.950 . S
C786 H782 0.949 . S
C786 C794 1.574 . S
C786 C802 1.368 . S
H787 C795 0.950 . S
H788 C793 0.950 . S
H789 C794 0.949 . S
H790 C796 0.950 . S
H791 C797 0.950 . S
H792 C798 0.949 . S
C793 H788 0.950 . S
C793 C795 1.327 . S
C793 C799 1.429 . S
C794 C786 1.574 . S
C794 H789 0.949 . S
C794 C800 1.368 . S
C795 C779 1.349 . S
C795 H787 0.950 . S
C795 C793 1.327 . S
C796 C784 1.349 1_565 S
C796 H790 0.950 . S
C796 C797 1.327 . S
C797 H791 0.950 . S
C797 C796 1.327 . S
C797 C801 1.429 . S
C798 C781 1.574 . S
C798 H792 0.949 . S
C798 C802 1.368 . S
C799 C780 1.429 . S
C799 C793 1.429 . S
C799 C800 1.523 . S
C800 C781 1.368 . S
C800 C794 1.368 . S
C800 C799 1.523 . S
C801 C785 1.429 1_565 S
C801 C797 1.429 . S
C801 C802 1.523 . S
C802 C786 1.368 . S
C802 C798 1.368 . S
C802 C801 1.523 . S
H803 C778 0.950 . S
H804 C780 0.950 . S
H805 C781 0.949 . S
H806 C783 0.950 . S
H807 C785 0.950 . S
C808 C809 1.349 . S
C808 C810 1.327 . S
C808 H833 0.950 . S
C809 C808 1.349 . S
C809 C825 1.349 . S
C810 C808 1.327 . S
C810 C829 1.429 . S
C810 H834 0.950 . S
C811 C828 1.574 . S
C811 C830 1.368 . S
C811 H835 0.949 . S
H812 C816 0.949 . S
C813 C814 1.349 . S
C813 C815 1.327 . S
C813 H836 0.950 . S
C814 C813 1.349 . S
C814 C826 1.349 1_565 S
C815 C813 1.327 . S
C815 C831 1.429 1_565 S
C815 H837 0.950 . S
C816 H812 0.949 . S
C816 C824 1.574 . S
C816 C832 1.368 . S
H817 C825 0.950 . S
H818 C823 0.950 . S
H819 C824 0.949 . S
H820 C826 0.950 . S
H821 C827 0.950 . S
H822 C828 0.949 . S
C823 H818 0.950 . S
C823 C825 1.327 . S
C823 C829 1.429 . S
C824 C816 1.574 . S
C824 H819 0.949 . S
C824 C830 1.368 . S
C825 C809 1.349 . S
C825 H817 0.950 . S
C825 C823 1.327 . S
C826 C814 1.349 1_545 S
C826 H820 0.950 . S
C826 C827 1.327 . S
C827 H821 0.950 . S
C827 C826 1.327 . S
C827 C831 1.429 . S
C828 C811 1.574 . S
C828 H822 0.949 . S
C828 C832 1.368 . S
C829 C810 1.429 . S
C829 C823 1.429 . S
C829 C830 1.523 . S
C830 C811 1.368 . S
C830 C824 1.368 . S
C830 C829 1.523 . S
C831 C815 1.429 1_545 S
C831 C827 1.429 . S
C831 C832 1.523 . S
C832 C816 1.368 . S
C832 C828 1.368 . S
C832 C831 1.523 . S
H833 C808 0.950 . S
H834 C810 0.950 . S
H835 C811 0.949 . S
H836 C813 0.950 . S
H837 C815 0.950 . S
C838 C839 1.349 . S
C838 C840 1.327 . S
C838 H863 0.950 . S
C839 C838 1.349 . S
C839 C855 1.349 . S
C840 C838 1.327 . S
C840 C859 1.429 . S
C840 H864 0.950 . S
C841 C858 1.574 . S
C841 C860 1.368 . S
C841 H865 0.949 . S
H842 C846 0.949 . S
C843 C844 1.349 . S
C843 C845 1.327 . S
C843 H866 0.950 . S
C844 C843 1.349 . S
C844 C856 1.349 . S
C845 C843 1.327 . S
C845 C861 1.429 . S
C845 H867 0.950 . S
C846 H842 0.949 . S
C846 C854 1.574 . S
C846 C862 1.368 . S
H847 C855 0.950 . S
H848 C853 0.950 . S
H849 C854 0.949 . S
H850 C856 0.950 . S
H851 C857 0.950 . S
H852 C858 0.949 . S
C853 H848 0.950 . S
C853 C855 1.327 . S
C853 C859 1.429 . S
C854 C846 1.574 . S
C854 H849 0.949 . S
C854 C860 1.368 . S
C855 C839 1.349 . S
C855 H847 0.950 . S
C855 C853 1.327 . S
C856 C844 1.349 . S
C856 H850 0.950 . S
C856 C857 1.327 . S
C857 H851 0.950 . S
C857 C856 1.327 . S
C857 C861 1.429 . S
C858 C841 1.574 . S
C858 H852 0.949 . S
C858 C862 1.368 . S
C859 C840 1.429 . S
C859 C853 1.429 . S
C859 C860 1.523 . S
C860 C841 1.368 . S
C860 C854 1.368 . S
C860 C859 1.523 . S
C861 C845 1.429 . S
C861 C857 1.429 . S
C861 C862 1.523 . S
C862 C846 1.368 . S
C862 C858 1.368 . S
C862 C861 1.523 . S
H863 C838 0.950 . S
H864 C840 0.950 . S
H865 C841 0.949 . S
H866 C843 0.950 . S
H867 C845 0.950 . S
C868 C869 1.349 . S
C868 C870 1.327 . S
C868 H893 0.950 . S
C869 C868 1.349 . S
C869 C885 1.349 . S
C870 C868 1.327 . S
C870 C889 1.429 . S
C870 H894 0.950 . S
C871 C888 1.574 . S
C871 C890 1.368 . S
C871 H895 0.949 . S
H872 C876 0.949 . S
C873 C874 1.349 . S
C873 C875 1.327 . S
C873 H896 0.950 . S
C874 C873 1.349 . S
C874 C886 1.349 . S
C875 C873 1.327 . S
C875 C891 1.429 . S
C875 H897 0.950 . S
C876 H872 0.949 . S
C876 C884 1.574 . S
C876 C892 1.368 . S
H877 C885 0.950 . S
H878 C883 0.950 . S
H879 C884 0.949 . S
H880 C886 0.950 . S
H881 C887 0.950 . S
H882 C888 0.949 . S
C883 H878 0.950 . S
C883 C885 1.327 . S
C883 C889 1.429 . S
C884 C876 1.574 . S
C884 H879 0.949 . S
C884 C890 1.368 . S
C885 C869 1.349 . S
C885 H877 0.950 . S
C885 C883 1.327 . S
C886 C874 1.349 . S
C886 H880 0.950 . S
C886 C887 1.327 . S
C887 H881 0.950 . S
C887 C886 1.327 . S
C887 C891 1.429 . S
C888 C871 1.574 . S
C888 H882 0.949 . S
C888 C892 1.368 . S
C889 C870 1.429 . S
C889 C883 1.429 . S
C889 C890 1.523 . S
C890 C871 1.368 . S
C890 C884 1.368 . S
C890 C889 1.523 . S
C891 C875 1.429 . S
C891 C887 1.429 . S
C891 C892 1.523 . S
C892 C876 1.368 . S
C892 C888 1.368 . S
C892 C891 1.523 . S
H893 C868 0.950 . S
H894 C870 0.950 . S
H895 C871 0.949 . S
H896 C873 0.950 . S
H897 C875 0.950 . S
C898 C899 1.349 . S
C898 C900 1.327 . S
C898 H923 0.950 . S
C899 C898 1.349 . S
C899 C915 1.349 1_565 S
C900 C898 1.327 . S
C900 C919 1.429 1_565 S
C900 H924 0.950 . S
C901 C918 1.574 . S
C901 C920 1.368 . S
C901 H925 0.949 . S
H902 C906 0.949 . S
C903 C904 1.349 . S
C903 C905 1.327 . S
C903 H926 0.950 . S
C904 C903 1.349 . S
C904 C916 1.349 . S
C905 C903 1.327 . S
C905 C921 1.429 . S
C905 H927 0.950 . S
C906 H902 0.949 . S
C906 C914 1.574 . S
C906 C922 1.368 . S
H907 C915 0.950 . S
H908 C913 0.950 . S
H909 C914 0.949 . S
H910 C916 0.950 . S
H911 C917 0.950 . S
H912 C918 0.949 . S
C913 H908 0.950 . S
C913 C915 1.327 . S
C913 C919 1.429 . S
C914 C906 1.574 . S
C914 H909 0.949 . S
C914 C920 1.368 . S
C915 C899 1.349 1_545 S
C915 H907 0.950 . S
C915 C913 1.327 . S
C916 C904 1.349 . S
C916 H910 0.950 . S
C916 C917 1.327 . S
C917 H911 0.950 . S
C917 C916 1.327 . S
C917 C921 1.429 . S
C918 C901 1.574 . S
C918 H912 0.949 . S
C918 C922 1.368 . S
C919 C900 1.429 1_545 S
C919 C913 1.429 . S
C919 C920 1.523 . S
C920 C901 1.368 . S
C920 C914 1.368 . S
C920 C919 1.523 . S
C921 C905 1.429 . S
C921 C917 1.429 . S
C921 C922 1.523 . S
C922 C906 1.368 . S
C922 C918 1.368 . S
C922 C921 1.523 . S
H923 C898 0.950 . S
H924 C900 0.950 . S
H925 C901 0.949 . S
H926 C903 0.950 . S
H927 C905 0.950 . S
C928 C929 1.349 . S
C928 C930 1.327 . S
C928 H953 0.950 . S
C929 C928 1.349 . S
C929 C945 1.349 . S
C930 C928 1.327 . S
C930 C949 1.429 . S
C930 H954 0.950 . S
C931 C948 1.574 . S
C931 C950 1.368 . S
C931 H955 0.949 . S
H932 C936 0.949 . S
C933 C934 1.349 . S
C933 C935 1.327 1_545 S
C933 H956 0.950 . S
C934 C933 1.349 . S
C934 C946 1.349 . S
C935 C933 1.327 1_565 S
C935 C951 1.429 . S
C935 H957 0.950 . S
C936 H932 0.949 . S
C936 C944 1.574 . S
C936 C952 1.368 . S
H937 C945 0.950 . S
H938 C943 0.950 . S
H939 C944 0.949 . S
H940 C946 0.950 . S
H941 C947 0.950 . S
H942 C948 0.949 . S
C943 H938 0.950 . S
C943 C945 1.327 . S
C943 C949 1.429 . S
C944 C936 1.574 . S
C944 H939 0.949 . S
C944 C950 1.368 . S
C945 C929 1.349 . S
C945 H937 0.950 . S
C945 C943 1.327 . S
C946 C934 1.349 . S
C946 H940 0.950 . S
C946 C947 1.327 1_545 S
C947 H941 0.950 . S
C947 C946 1.327 1_565 S
C947 C951 1.429 . S
C948 C931 1.574 . S
C948 H942 0.949 . S
C948 C952 1.368 . S
C949 C930 1.429 . S
C949 C943 1.429 . S
C949 C950 1.523 . S
C950 C931 1.368 . S
C950 C944 1.368 . S
C950 C949 1.523 . S
C951 C935 1.429 . S
C951 C947 1.429 . S
C951 C952 1.523 . S
C952 C936 1.368 . S
C952 C948 1.368 . S
C952 C951 1.523 . S
H953 C928 0.950 . S
H954 C930 0.950 . S
H955 C931 0.949 . S
H956 C933 0.950 . S
H957 C935 0.950 . S
C958 C959 1.349 . S
C958 C960 1.327 . S
C958 H983 0.950 . S
C959 C958 1.349 . S
C959 C975 1.349 . S
C960 C958 1.327 . S
C960 C979 1.429 . S
C960 H984 0.950 . S
C961 C978 1.574 . S
C961 C980 1.368 . S
C961 H985 0.949 . S
H962 C966 0.949 . S
C963 C964 1.349 . S
C963 C965 1.327 . S
C963 H986 0.950 . S
C964 C963 1.349 . S
C964 C976 1.349 . S
C965 C963 1.327 . S
C965 C981 1.429 . S
C965 H987 0.950 . S
C966 H962 0.949 . S
C966 C974 1.574 . S
C966 C982 1.368 . S
H967 C975 0.950 . S
H968 C973 0.950 . S
H969 C974 0.949 . S
H970 C976 0.950 . S
H971 C977 0.950 . S
H972 C978 0.949 . S
C973 H968 0.950 . S
C973 C975 1.327 . S
C973 C979 1.429 . S
C974 C966 1.574 . S
C974 H969 0.949 . S
C974 C980 1.368 . S
C975 C959 1.349 . S
C975 H967 0.950 . S
C975 C973 1.327 . S
C976 C964 1.349 . S
C976 H970 0.950 . S
C976 C977 1.327 . S
C977 H971 0.950 . S
C977 C976 1.327 . S
C977 C981 1.429 . S
C978 C961 1.574 . S
C978 H972 0.949 . S
C978 C982 1.368 . S
C979 C960 1.429 . S
C979 C973 1.429 . S
C979 C980 1.523 . S
C980 C961 1.368 . S
C980 C974 1.368 . S
C980 C979 1.523 . S
C981 C965 1.429 . S
C981 C977 1.429 . S
C981 C982 1.523 . S
C982 C966 1.368 . S
C982 C978 1.368 . S
C982 C981 1.523 . S
H983 C958 0.950 . S
H984 C960 0.950 . S
H985 C961 0.949 . S
H986 C963 0.950 . S
H987 C965 0.950 . S
C988 C989 1.349 . S
C988 C990 1.327 . S
C988 H1013 0.950 . S
C989 C988 1.349 . S
C989 C1005 1.349 . S
C990 C988 1.327 . S
C990 C1009 1.429 . S
C990 H1014 0.950 . S
C991 C1008 1.574 . S
C991 C1010 1.368 . S
C991 H1015 0.949 . S
H992 C996 0.949 . S
C993 C994 1.349 . S
C993 C995 1.327 . S
C993 H1016 0.950 . S
C994 C993 1.349 . S
C994 C1006 1.349 . S
C995 C993 1.327 . S
C995 C1011 1.429 . S
C995 H1017 0.950 . S
C996 H992 0.949 . S
C996 C1004 1.574 . S
C996 C1012 1.368 . S
H997 C1005 0.950 . S
H998 C1003 0.950 . S
H999 C1004 0.949 . S
H1000 C1006 0.950 . S
H1001 C1007 0.950 . S
H1002 C1008 0.949 . S
C1003 H998 0.950 . S
C1003 C1005 1.327 . S
C1003 C1009 1.429 . S
C1004 C996 1.574 . S
C1004 H999 0.949 . S
C1004 C1010 1.368 . S
C1005 C989 1.349 . S
C1005 H997 0.950 . S
C1005 C1003 1.327 . S
C1006 C994 1.349 . S
C1006 H1000 0.950 . S
C1006 C1007 1.327 . S
C1007 H1001 0.950 . S
C1007 C1006 1.327 . S
C1007 C1011 1.429 . S
C1008 C991 1.574 . S
C1008 H1002 0.949 . S
C1008 C1012 1.368 . S
C1009 C990 1.429 . S
C1009 C1003 1.429 . S
C1009 C1010 1.523 . S
C1010 C991 1.368 . S
C1010 C1004 1.368 . S
C1010 C1009 1.523 . S
C1011 C995 1.429 . S
C1011 C1007 1.429 . S
C1011 C1012 1.523 . S
C1012 C996 1.368 . S
C1012 C1008 1.368 . S
C1012 C1011 1.523 . S
H1013 C988 0.950 . S
H1014 C990 0.950 . S
H1015 C991 0.949 . S
H1016 C993 0.950 . S
H1017 C995 0.950 . S
C1018 C1019 1.349 . S
C1018 C1020 1.327 . S
C1018 H1043 0.950 . S
C1019 C1018 1.349 . S
C1019 C1035 1.349 . S
C1020 C1018 1.327 . S
C1020 C1039 1.429 . S
C1020 H1044 0.950 . S
C1021 C1038 1.574 . S
C1021 C1040 1.368 . S
C1021 H1045 0.949 . S
H1022 C1026 0.949 . S
C1023 C1024 1.349 . S
C1023 C1025 1.327 . S
C1023 H1046 0.950 . S
C1024 C1023 1.349 . S
C1024 C1036 1.349 . S
C1025 C1023 1.327 . S
C1025 C1041 1.429 1_545 S
C1025 H1047 0.950 . S
C1026 H1022 0.949 . S
C1026 C1034 1.574 . S
C1026 C1042 1.368 . S
H1027 C1035 0.950 . S
H1028 C1033 0.950 . S
H1029 C1034 0.949 . S
H1030 C1036 0.950 . S
H1031 C1037 0.950 . S
H1032 C1038 0.949 . S
C1033 H1028 0.950 . S
C1033 C1035 1.327 . S
C1033 C1039 1.429 . S
C1034 C1026 1.574 . S
C1034 H1029 0.949 . S
C1034 C1040 1.368 . S
C1035 C1019 1.349 . S
C1035 H1027 0.950 . S
C1035 C1033 1.327 . S
C1036 C1024 1.349 . S
C1036 H1030 0.950 . S
C1036 C1037 1.327 1_545 S
C1037 H1031 0.950 . S
C1037 C1036 1.327 1_565 S
C1037 C1041 1.429 . S
C1038 C1021 1.574 . S
C1038 H1032 0.949 . S
C1038 C1042 1.368 . S
C1039 C1020 1.429 . S
C1039 C1033 1.429 . S
C1039 C1040 1.523 . S
C1040 C1021 1.368 . S
C1040 C1034 1.368 . S
C1040 C1039 1.523 . S
C1041 C1025 1.429 1_565 S
C1041 C1037 1.429 . S
C1041 C1042 1.523 . S
C1042 C1026 1.368 . S
C1042 C1038 1.368 . S
C1042 C1041 1.523 . S
H1043 C1018 0.950 . S
H1044 C1020 0.950 . S
H1045 C1021 0.949 . S
H1046 C1023 0.950 . S
H1047 C1025 0.950 . S
C1048 C1049 1.349 . S
C1048 C1050 1.327 . S
C1048 H1073 0.950 . S
C1049 C1048 1.349 . S
C1049 C1065 1.349 . S
C1050 C1048 1.327 . S
C1050 C1069 1.429 . S
C1050 H1074 0.950 . S
C1051 C1068 1.574 . S
C1051 C1070 1.368 . S
C1051 H1075 0.949 . S
H1052 C1056 0.949 . S
C1053 C1054 1.349 . S
C1053 C1055 1.327 1_565 S
C1053 H1076 0.950 . S
C1054 C1053 1.349 . S
C1054 C1066 1.349 . S
C1055 C1053 1.327 1_545 S
C1055 C1071 1.429 . S
C1055 H1077 0.950 . S
C1056 H1052 0.949 . S
C1056 C1064 1.574 . S
C1056 C1072 1.368 . S
H1057 C1065 0.950 . S
H1058 C1063 0.950 . S
H1059 C1064 0.949 . S
H1060 C1066 0.950 . S
H1061 C1067 0.950 . S
H1062 C1068 0.949 . S
C1063 H1058 0.950 . S
C1063 C1065 1.327 . S
C1063 C1069 1.429 . S
C1064 C1056 1.574 . S
C1064 H1059 0.949 . S
C1064 C1070 1.368 . S
C1065 C1049 1.349 . S
C1065 H1057 0.950 . S
C1065 C1063 1.327 . S
C1066 C1054 1.349 . S
C1066 H1060 0.950 . S
C1066 C1067 1.327 1_565 S
C1067 H1061 0.950 . S
C1067 C1066 1.327 1_545 S
C1067 C1071 1.429 . S
C1068 C1051 1.574 . S
C1068 H1062 0.949 . S
C1068 C1072 1.368 . S
C1069 C1050 1.429 . S
C1069 C1063 1.429 . S
C1069 C1070 1.523 . S
C1070 C1051 1.368 . S
C1070 C1064 1.368 . S
C1070 C1069 1.523 . S
C1071 C1055 1.429 . S
C1071 C1067 1.429 . S
C1071 C1072 1.523 . S
C1072 C1056 1.368 . S
C1072 C1068 1.368 . S
C1072 C1071 1.523 . S
H1073 C1048 0.950 . S
H1074 C1050 0.950 . S
H1075 C1051 0.949 . S
H1076 C1053 0.950 . S
H1077 C1055 0.950 . S
C1078 C1079 1.349 . S
C1078 C1080 1.327 . S
C1078 H1103 0.950 . S
C1079 C1078 1.349 . S
C1079 C1095 1.349 . S
C1080 C1078 1.327 . S
C1080 C1099 1.429 . S
C1080 H1104 0.950 . S
C1081 C1098 1.574 . S
C1081 C1100 1.368 . S
C1081 H1105 0.949 . S
H1082 C1086 0.949 . S
C1083 C1084 1.349 . S
C1083 C1085 1.327 . S
C1083 H1106 0.950 . S
C1084 C1083 1.349 . S
C1084 C1096 1.349 . S
C1085 C1083 1.327 . S
C1085 C1101 1.429 . S
C1085 H1107 0.950 . S
C1086 H1082 0.949 . S
C1086 C1094 1.574 . S
C1086 C1102 1.368 . S
H1087 C1095 0.950 . S
H1088 C1093 0.950 . S
H1089 C1094 0.949 . S
H1090 C1096 0.950 . S
H1091 C1097 0.950 . S
H1092 C1098 0.949 . S
C1093 H1088 0.950 . S
C1093 C1095 1.327 . S
C1093 C1099 1.429 . S
C1094 C1086 1.574 . S
C1094 H1089 0.949 . S
C1094 C1100 1.368 . S
C1095 C1079 1.349 . S
C1095 H1087 0.950 . S
C1095 C1093 1.327 . S
C1096 C1084 1.349 . S
C1096 H1090 0.950 . S
C1096 C1097 1.327 . S
C1097 H1091 0.950 . S
C1097 C1096 1.327 . S
C1097 C1101 1.429 . S
C1098 C1081 1.574 . S
C1098 H1092 0.949 . S
C1098 C1102 1.368 . S
C1099 C1080 1.429 . S
C1099 C1093 1.429 . S
C1099 C1100 1.523 . S
C1100 C1081 1.368 . S
C1100 C1094 1.368 . S
C1100 C1099 1.523 . S
C1101 C1085 1.429 . S
C1101 C1097 1.429 . S
C1101 C1102 1.523 . S
C1102 C1086 1.368 . S
C1102 C1098 1.368 . S
C1102 C1101 1.523 . S
H1103 C1078 0.950 . S
H1104 C1080 0.950 . S
H1105 C1081 0.949 . S
H1106 C1083 0.950 . S
H1107 C1085 0.950 . S
C1108 C1109 1.349 . S
C1108 C1110 1.327 . S
C1108 H1133 0.950 . S
C1109 C1108 1.349 . S
C1109 C1125 1.349 . S
C1110 C1108 1.327 . S
C1110 C1129 1.429 . S
C1110 H1134 0.950 . S
C1111 C1128 1.574 . S
C1111 C1130 1.368 . S
C1111 H1135 0.949 . S
H1112 C1116 0.949 . S
C1113 C1114 1.349 . S
C1113 C1115 1.327 . S
C1113 H1136 0.950 . S
C1114 C1113 1.349 . S
C1114 C1126 1.349 . S
C1115 C1113 1.327 . S
C1115 C1131 1.429 . S
C1115 H1137 0.950 . S
C1116 H1112 0.949 . S
C1116 C1124 1.574 . S
C1116 C1132 1.368 . S
H1117 C1125 0.950 . S
H1118 C1123 0.950 . S
H1119 C1124 0.949 . S
H1120 C1126 0.950 . S
H1121 C1127 0.950 . S
H1122 C1128 0.949 . S
C1123 H1118 0.950 . S
C1123 C1125 1.327 . S
C1123 C1129 1.429 . S
C1124 C1116 1.574 . S
C1124 H1119 0.949 . S
C1124 C1130 1.368 . S
C1125 C1109 1.349 . S
C1125 H1117 0.950 . S
C1125 C1123 1.327 . S
C1126 C1114 1.349 . S
C1126 H1120 0.950 . S
C1126 C1127 1.327 . S
C1127 H1121 0.950 . S
C1127 C1126 1.327 . S
C1127 C1131 1.429 . S
C1128 C1111 1.574 . S
C1128 H1122 0.949 . S
C1128 C1132 1.368 . S
C1129 C1110 1.429 . S
C1129 C1123 1.429 . S
C1129 C1130 1.523 . S
C1130 C1111 1.368 . S
C1130 C1124 1.368 . S
C1130 C1129 1.523 . S
C1131 C1115 1.429 . S
C1131 C1127 1.429 . S
C1131 C1132 1.523 . S
C1132 C1116 1.368 . S
C1132 C1128 1.368 . S
C1132 C1131 1.523 . S
H1133 C1108 0.950 . S
H1134 C1110 0.950 . S
H1135 C1111 0.949 . S
H1136 C1113 0.950 . S
H1137 C1115 0.950 . S
C1138 C1139 1.349 . S
C1138 C1140 1.327 . S
C1138 H1163 0.950 . S
C1139 C1138 1.349 . S
C1139 C1155 1.349 . S
C1140 C1138 1.327 . S
C1140 C1159 1.429 . S
C1140 H1164 0.950 . S
C1141 C1158 1.574 . S
C1141 C1160 1.368 . S
C1141 H1165 0.949 . S
H1142 C1146 0.949 . S
C1143 C1144 1.349 . S
C1143 C1145 1.327 1_565 S
C1143 H1166 0.950 . S
C1144 C1143 1.349 . S
C1144 C1156 1.349 . S
C1145 C1143 1.327 1_545 S
C1145 C1161 1.429 . S
C1145 H1167 0.950 . S
C1146 H1142 0.949 . S
C1146 C1154 1.574 . S
C1146 C1162 1.368 . S
H1147 C1155 0.950 . S
H1148 C1153 0.950 . S
H1149 C1154 0.949 . S
H1150 C1156 0.950 . S
H1151 C1157 0.950 . S
H1152 C1158 0.949 . S
C1153 H1148 0.950 . S
C1153 C1155 1.327 . S
C1153 C1159 1.429 . S
C1154 C1146 1.574 . S
C1154 H1149 0.949 . S
C1154 C1160 1.368 . S
C1155 C1139 1.349 . S
C1155 H1147 0.950 . S
C1155 C1153 1.327 . S
C1156 C1144 1.349 . S
C1156 H1150 0.950 . S
C1156 C1157 1.327 1_565 S
C1157 H1151 0.950 . S
C1157 C1156 1.327 1_545 S
C1157 C1161 1.429 . S
C1158 C1141 1.574 . S
C1158 H1152 0.949 . S
C1158 C1162 1.368 . S
C1159 C1140 1.429 . S
C1159 C1153 1.429 . S
C1159 C1160 1.523 . S
C1160 C1141 1.368 . S
C1160 C1154 1.368 . S
C1160 C1159 1.523 . S
C1161 C1145 1.429 . S
C1161 C1157 1.429 . S
C1161 C1162 1.523 . S
C1162 C1146 1.368 . S
C1162 C1158 1.368 . S
C1162 C1161 1.523 . S
H1163 C1138 0.950 . S
H1164 C1140 0.950 . S
H1165 C1141 0.949 . S
H1166 C1143 0.950 . S
H1167 C1145 0.950 . S
C209 C192 1.506 . S
C214 C10 1.506 . S
C239 C26 1.481 . S
C244 C0 1.481 . S
C269 C143 1.480 . S
C274 C13 1.480 . S
C299 C23 1.506 . S
C304 C101 1.506 . S
C329 C36 1.506 . S
C334 C166 1.506 . S
C359 C117 1.480 . S
C364 C39 1.480 . S
C389 C49 1.506 . S
C394 C75 1.506 . S
C419 C140 1.506 . S
C424 C62 1.506 . S
C449 C52 1.481 . S
C454 C78 1.481 . S
C479 C195 1.480 . S
C484 C65 1.480 . S
C509 C114 1.506 . S
C514 C88 1.506 . S
C539 C169 1.480 . S
C544 C91 1.480 . S
C569 C104 1.481 . S
C574 C130 1.481 . S
C599 C205 1.506 . S
C604 C127 1.506 . S
C629 C153 1.506 . S
C634 C179 1.506 . S
C659 C182 1.481 . S
C664 C156 1.481 . S
C689 C70 1.055 . S
C694 C8 1.058 . S
C719 C5 1.055 . S
C724 C73 1.059 . S
C749 C18 1.055 . S
C754 C60 1.059 . S
C779 C57 1.055 . S
C784 C21 1.059 . S
C809 C96 1.055 . S
C814 C34 1.058 . S
C839 C99 1.059 . S
C844 C31 1.055 . S
C869 C86 1.059 . S
C874 C44 1.055 . S
C899 C47 1.059 . S
C904 C83 1.055 . S
C929 C174 1.055 . S
C934 C112 1.059 . S
C959 C109 1.055 . S
C964 C177 1.059 . S
C989 C122 1.055 . S
C994 C164 1.058 . S
C1019 C161 1.055 . S
C1024 C125 1.059 . S
C1049 C200 1.055 . S
C1054 C138 1.059 . S
C1079 C203 1.059 . S
C1084 C135 1.055 . S
C1109 C148 1.055 . S
C1114 C190 1.058 . S
C1139 C187 1.055 . S
C1144 C151 1.059 . S
