# Generated by pormake.
# Topology unn, (4)-cn, num edge types: 1
# Building blocks:
#     Node 0, Type 0, BuildingBlock: MUDLON_clean_sbu_0, # of connection points: 4
#     Node 1, Type 0, BuildingBlock: MUDLON_clean_sbu_0, # of connection points: 4
#     Node 2, Type 0, BuildingBlock: MUDLON_clean_sbu_0, # of connection points: 4
#     Node 3, Type 0, BuildingBlock: MUDLON_clean_sbu_0, # of connection points: 4
#     Node 4, Type 0, BuildingBlock: MUDLON_clean_sbu_0, # of connection points: 4
#     Node 5, Type 0, BuildingBlock: MUDLON_clean_sbu_0, # of connection points: 4
#     Node 6, Type 0, BuildingBlock: MUDLON_clean_sbu_0, # of connection points: 4
#     Node 7, Type 0, BuildingBlock: MUDLON_clean_sbu_0, # of connection points: 4
#     Node 8, Type 0, BuildingBlock: MUDLON_clean_sbu_0, # of connection points: 4
#     Node 9, Type 0, BuildingBlock: MUDLON_clean_sbu_0, # of connection points: 4
#     Node 10, Type 0, BuildingBlock: MUDLON_clean_sbu_0, # of connection points: 4
#     Node 11, Type 0, BuildingBlock: MUDLON_clean_sbu_0, # of connection points: 4
#     Node 12, Type 0, BuildingBlock: MUDLON_clean_sbu_0, # of connection points: 4
#     Node 13, Type 0, BuildingBlock: MUDLON_clean_sbu_0, # of connection points: 4
#     Node 14, Type 0, BuildingBlock: MUDLON_clean_sbu_0, # of connection points: 4
#     Node 15, Type 0, BuildingBlock: MUDLON_clean_sbu_0, # of connection points: 4
#     Node 16, Type 0, BuildingBlock: MUDLON_clean_sbu_0, # of connection points: 4
#     Node 17, Type 0, BuildingBlock: MUDLON_clean_sbu_0, # of connection points: 4
#     Edge 18, Type (0, 0), BuildingBlock: OJICUG_clean_linker_0, # of connection points: 2
#     Edge 19, Type (0, 0), BuildingBlock: OJICUG_clean_linker_0, # of connection points: 2
#     Edge 20, Type (0, 0), BuildingBlock: OJICUG_clean_linker_0, # of connection points: 2
#     Edge 21, Type (0, 0), BuildingBlock: OJICUG_clean_linker_0, # of connection points: 2
#     Edge 22, Type (0, 0), BuildingBlock: OJICUG_clean_linker_0, # of connection points: 2
#     Edge 23, Type (0, 0), BuildingBlock: OJICUG_clean_linker_0, # of connection points: 2
#     Edge 24, Type (0, 0), BuildingBlock: OJICUG_clean_linker_0, # of connection points: 2
#     Edge 25, Type (0, 0), BuildingBlock: OJICUG_clean_linker_0, # of connection points: 2
#     Edge 26, Type (0, 0), BuildingBlock: OJICUG_clean_linker_0, # of connection points: 2
#     Edge 27, Type (0, 0), BuildingBlock: OJICUG_clean_linker_0, # of connection points: 2
#     Edge 28, Type (0, 0), BuildingBlock: OJICUG_clean_linker_0, # of connection points: 2
#     Edge 29, Type (0, 0), BuildingBlock: OJICUG_clean_linker_0, # of connection points: 2
#     Edge 30, Type (0, 0), BuildingBlock: OJICUG_clean_linker_0, # of connection points: 2
#     Edge 31, Type (0, 0), BuildingBlock: OJICUG_clean_linker_0, # of connection points: 2
#     Edge 32, Type (0, 0), BuildingBlock: OJICUG_clean_linker_0, # of connection points: 2
#     Edge 33, Type (0, 0), BuildingBlock: OJICUG_clean_linker_0, # of connection points: 2
#     Edge 34, Type (0, 0), BuildingBlock: OJICUG_clean_linker_0, # of connection points: 2
#     Edge 35, Type (0, 0), BuildingBlock: OJICUG_clean_linker_0, # of connection points: 2
#     Edge 36, Type (0, 0), BuildingBlock: OJICUG_clean_linker_0, # of connection points: 2
#     Edge 37, Type (0, 0), BuildingBlock: OJICUG_clean_linker_0, # of connection points: 2
#     Edge 38, Type (0, 0), BuildingBlock: OJICUG_clean_linker_0, # of connection points: 2
#     Edge 39, Type (0, 0), BuildingBlock: OJICUG_clean_linker_0, # of connection points: 2
#     Edge 40, Type (0, 0), BuildingBlock: OJICUG_clean_linker_0, # of connection points: 2
#     Edge 41, Type (0, 0), BuildingBlock: OJICUG_clean_linker_0, # of connection points: 2
#     Edge 42, Type (0, 0), BuildingBlock: OJICUG_clean_linker_0, # of connection points: 2
#     Edge 43, Type (0, 0), BuildingBlock: OJICUG_clean_linker_0, # of connection points: 2
#     Edge 44, Type (0, 0), BuildingBlock: OJICUG_clean_linker_0, # of connection points: 2
#     Edge 45, Type (0, 0), BuildingBlock: OJICUG_clean_linker_0, # of connection points: 2
#     Edge 46, Type (0, 0), BuildingBlock: OJICUG_clean_linker_0, # of connection points: 2
#     Edge 47, Type (0, 0), BuildingBlock: OJICUG_clean_linker_0, # of connection points: 2
#     Edge 48, Type (0, 0), BuildingBlock: OJICUG_clean_linker_0, # of connection points: 2
#     Edge 49, Type (0, 0), BuildingBlock: OJICUG_clean_linker_0, # of connection points: 2
#     Edge 50, Type (0, 0), BuildingBlock: OJICUG_clean_linker_0, # of connection points: 2
#     Edge 51, Type (0, 0), BuildingBlock: OJICUG_clean_linker_0, # of connection points: 2
#     Edge 52, Type (0, 0), BuildingBlock: OJICUG_clean_linker_0, # of connection points: 2
#     Edge 53, Type (0, 0), BuildingBlock: OJICUG_clean_linker_0, # of connection points: 2
# Relax obj value: 0.098
# Max RMSD: 0.215
# Mean RMSD: 0.212
data_MOF--net-unn--node1-MUDLON_clean_sbu_0--edge1-OJICUG_clean_linker_0
_symmetry_space_group_name_H-M    P1
_symmetry_Int_Tables_number       1
_symmetry_cell_setting            triclinic
loop_
_symmetry_equiv_pos_as_xyz
'x, y, z'
_cell_length_a     34.680358
_cell_length_b     34.452146
_cell_length_c     31.521123
_cell_angle_alpha  90.55116
_cell_angle_beta   89.562211
_cell_angle_gamma 120.60948
loop_
_atom_site_label
_atom_site_type_symbol
_atom_site_fract_x
_atom_site_fract_y
_atom_site_fract_z
_atom_type_partial_charge
Mg0 Mg 1.03771 0.77397 0.23341 0.0
C1 C 0.05811 0.76102 0.14719 0.0
O2 O 1.0443 0.79 0.14385 0.0
C3 C 0.05166 0.74024 0.31407 0.0
O4 O 0.09124 0.75588 0.29647 0.0
C5 C 0.94895 0.72897 0.1948 0.0
O6 O 0.959 0.69728 0.19949 0.0
O7 O 0.97672 0.7687 0.20814 0.0
O8 O 0.05925 0.74622 0.18364 0.0
O9 O 0.09614 0.83732 0.2545 0.0
C10 C 0.13437 0.84129 0.24802 0.0
O11 O 0.13717 0.81365 0.22089 0.0
O12 O 1.01984 0.73738 0.29198 0.0
Mg13 Mg 0.36812 0.34576 0.23289 0.0
C14 C 0.39263 0.337 0.3156 0.0
O15 O 0.35682 0.29846 0.30534 0.0
C16 C 0.41715 0.39112 0.15383 0.0
O17 O 0.4427 0.37561 0.16656 0.0
C18 C 0.32198 0.38387 0.27731 0.0
O19 O 0.36383 0.41638 0.27261 0.0
O20 O 0.31005 0.34536 0.26084 0.0
O21 O 0.41089 0.36734 0.28747 0.0
O22 O 0.36636 0.28598 0.20591 0.0
C23 C 0.40238 0.28472 0.20919 0.0
O24 O 0.43429 0.31432 0.23401 0.0
O25 O 0.3877 0.38968 0.179 0.0
Mg26 Mg 0.79193 1.01637 0.2406 0.0
C27 C 0.78088 0.03776 0.32743 0.0
O28 O 0.81038 1.02475 0.33047 0.0
C29 C 0.75251 1.02501 0.16047 0.0
O30 O 0.7712 0.06667 0.17451 0.0
C31 C 0.75016 0.92789 0.2804 0.0
O32 O 0.71797 0.93713 0.27652 0.0
O33 O 0.78904 0.95621 0.26617 0.0
O34 O 0.76531 0.0381 0.29118 0.0
O35 O 0.85384 0.07562 0.21813 0.0
C36 C 0.85534 0.11325 0.22253 0.0
O37 O 0.82515 0.11478 0.24674 0.0
O38 O 0.75153 0.99495 0.1842 0.0
Mg39 Mg 1.0448 0.33164 0.72815 0.0
C40 C 0.94983 0.27339 0.70102 0.0
O41 O 0.94711 0.30094 0.72836 0.0
C42 C 0.13088 0.3676 0.76705 0.0
O43 O 0.12162 0.40011 0.76555 0.0
C44 C 1.04282 0.38463 0.65354 0.0
O45 O 1.00062 0.36646 0.66472 0.0
O46 O 0.06988 0.3816 0.67836 0.0
O47 O 0.9871 0.27462 0.69713 0.0
O48 O 1.02443 0.34437 0.78916 0.0
C49 C 1.0071 0.30884 0.81157 0.0
O50 O 0.99812 0.27057 0.79358 0.0
O51 O 0.10339 0.32972 0.7499 0.0
Mg52 Mg 0.81585 0.78563 0.73975 0.0
C53 C 0.77885 0.84571 0.75512 0.0
O54 O 0.74771 0.81336 0.73166 0.0
C55 C 0.86641 0.74714 0.70489 0.0
O56 O 0.82469 0.71394 0.70819 0.0
C57 C 0.76228 0.74416 0.81904 0.0
O58 O 0.73973 0.7624 0.80477 0.0
O59 O 0.79212 0.74381 0.79562 0.0
O60 O 0.81571 0.84652 0.76037 0.0
O61 O 0.77736 0.76078 0.68237 0.0
C62 C 0.79483 0.7901 0.65324 0.0
O63 O 0.82827 0.8305 0.66282 0.0
O64 O 0.87622 0.78607 0.71874 0.0
Mg65 Mg 0.36117 1.0291 0.74319 0.0
C66 C 0.34146 0.97595 0.66359 0.0
O67 O 0.30305 0.95277 0.68364 0.0
C68 C 0.42831 0.09117 0.80686 0.0
O69 O 0.42429 0.12128 0.78521 0.0
C70 C 0.34639 0.09102 0.68664 0.0
O71 O 0.324 0.05371 0.66435 0.0
O72 O 0.35955 0.08902 0.7237 0.0
O73 O 0.37481 1.00727 0.68332 0.0
O74 O 0.30593 0.97191 0.77599 0.0
C75 C 0.31569 0.942 0.78558 0.0
O76 O 0.35387 0.94709 0.77185 0.0
O77 O 0.41128 0.05131 0.79221 0.0
Mg78 Mg 0.70898 0.11154 0.56282 0.0
C79 C 0.73026 0.09881 0.47665 0.0
O80 O 0.71842 0.1293 0.47313 0.0
C81 C 0.71793 0.07404 0.64378 0.0
O82 O 0.7596 0.09479 0.63042 0.0
C83 C 0.62173 0.0694 0.52118 0.0
O84 O 0.63055 0.03687 0.52614 0.0
O85 O 0.64963 0.10857 0.53567 0.0
O86 O 0.73052 0.08365 0.51315 0.0
O87 O 0.76763 0.174 0.58554 0.0
C88 C 0.80576 0.17752 0.57974 0.0
O89 O 0.80848 0.1492 0.55344 0.0
O90 O 0.68761 0.07135 0.61945 0.0
Mg91 Mg 1.04369 0.68081 0.57 0.0
C92 C 0.99396 0.71546 0.61353 0.0
O93 O 1.03546 0.74896 0.60967 0.0
C94 C 1.04232 0.6162 0.50375 0.0
O95 O 1.02378 0.63473 0.48205 0.0
C96 C 0.06947 0.67113 0.65228 0.0
O97 O 1.03678 0.63103 0.64075 0.0
O98 O 0.08526 0.70267 0.6252 0.0
O99 O 0.98378 0.67725 0.59737 0.0
O100 O 0.06503 0.72698 0.51771 0.0
C101 C 1.03305 0.72401 0.49573 0.0
O102 O 0.99223 0.70163 0.51134 0.0
O103 O 1.04836 0.62425 0.54343 0.0
Mg104 Mg 0.4645 0.35539 0.57675 0.0
C105 C 0.43906 0.37291 0.49227 0.0
O106 O 0.46388 0.41451 0.50613 0.0
C107 C 0.44119 0.36442 0.66308 0.0
O108 O 0.46903 0.34943 0.66708 0.0
C109 C 0.53434 0.454 0.57787 0.0
O110 O 0.50877 0.45255 0.60947 0.0
O111 O 0.52807 0.41698 0.56215 0.0
O112 O 0.43021 0.34043 0.51691 0.0
O113 O 0.45745 0.29234 0.59973 0.0
C114 C 0.41687 0.26012 0.59735 0.0
O115 O 0.38773 0.26735 0.57793 0.0
O116 O 0.43148 0.37114 0.62612 0.0
Mg117 Mg 0.69914 0.64918 0.06898 0.0
C118 C 0.75259 0.70037 -0.00365 0.0
O119 O 0.77133 0.67727 0.00795 0.0
C120 C 0.65707 0.62742 0.15137 0.0
O121 O 0.64304 0.58796 0.13326 0.0
C122 C 0.63886 0.58827 -0.00111 0.0
O123 O 0.6769 0.60904 0.97797 0.0
O124 O 0.63931 0.59351 0.03899 0.0
O125 O 0.72267 0.70001 0.02023 0.0
O126 O 0.75826 0.64836 0.09135 0.0
C127 C 0.78509 0.68687 0.10785 0.0
O128 O 0.77406 0.71811 0.10659 0.0
O129 O 0.67859 0.66284 0.12917 0.0
Mg130 Mg 0.47109 0.11286 0.07394 0.0
C131 C 0.44577 0.18203 0.09117 0.0
O132 O 0.41589 0.15641 0.0627 0.0
C133 C 0.51635 0.06791 0.03978 0.0
O134 O 0.47334 0.03774 0.03875 0.0
C135 C 0.40203 0.0683 0.14218 0.0
O136 O 0.38129 0.08364 0.11924 0.0
O137 O 0.43671 0.06943 0.12712 0.0
O138 O 0.47848 0.17595 0.09824 0.0
O139 O 0.43822 0.09684 0.01321 0.0
C140 C 0.46229 0.12623 0.98571 0.0
O141 O 0.49853 0.16319 -0.00169 0.0
O142 O 0.52861 0.10621 0.05689 0.0
Mg143 Mg 1.00817 0.35369 0.07608 0.0
C144 C 0.99544 0.3117 -0.00638 0.0
O145 O 0.95481 0.29387 0.00943 0.0
C146 C 1.0241 0.37179 0.16384 0.0
O147 O 0.98314 0.36263 0.15604 0.0
C148 C 0.04941 0.44324 0.04326 0.0
O149 O 0.08083 0.43314 0.04866 0.0
O150 O 1.00956 0.4146 0.05507 0.0
O151 O 1.0287 0.3365 0.01737 0.0
O152 O 0.95006 0.29207 0.10013 0.0
C153 C 0.96021 0.26213 0.1083 0.0
O154 O 0.99971 0.2694 0.0963 0.0
O155 O 1.0487 0.3734 0.13285 0.0
Mg156 Mg 0.37523 0.4395 0.90053 0.0
C157 C 0.38675 0.42031 0.81303 0.0
O158 O 0.37547 0.45125 0.8099 0.0
C159 C 0.39726 0.40422 0.97409 0.0
O160 O 0.43142 0.41505 0.9487 0.0
C161 C 0.28508 0.39803 0.86497 0.0
O162 O 0.29258 0.36462 0.87002 0.0
O163 O 0.31453 0.43722 0.87819 0.0
O164 O 0.39 0.40711 0.84963 0.0
O165 O 0.43749 0.50157 0.91706 0.0
C166 C 0.47392 0.50626 0.90221 0.0
O167 O 0.47197 0.48086 0.87002 0.0
O168 O 0.36357 0.4052 0.95988 0.0
Mg169 Mg 0.68728 0.99643 0.90063 0.0
C170 C 0.7133 0.9866 0.98288 0.0
O171 O 0.68016 0.94658 0.97178 0.0
C172 C 0.67818 1.02566 0.81962 0.0
O173 O 0.6386 0.99122 0.82934 0.0
C174 C 0.6395 1.03264 0.94478 0.0
O175 O 0.68154 0.06515 0.94157 0.0
O176 O 0.62802 0.99464 0.92737 0.0
O177 O 0.7293 1.01783 0.95549 0.0
O178 O 0.69016 0.93988 0.87234 0.0
C179 C 0.73068 0.95132 0.86403 0.0
O180 O 0.76275 0.9912 0.87682 0.0
O181 O 0.70879 0.04094 0.84752 0.0
Mg182 Mg 0.14062 0.69595 0.91325 0.0
C183 C 0.12398 0.71447 -0.00112 0.0
O184 O 0.15433 0.70272 0.00311 0.0
C185 C 0.10696 0.7071 0.83046 0.0
O186 O 0.12581 0.74862 0.84493 0.0
C187 C 0.09509 0.60648 0.95118 0.0
O188 O 0.06354 0.61582 0.94328 0.0
O189 O 0.13521 0.63493 0.93995 0.0
O190 O 0.11043 0.71595 0.96193 0.0
O191 O 0.20419 0.75572 0.89466 0.0
C192 C 0.20579 0.79342 0.89873 0.0
O193 O 0.17414 0.79465 0.9208 0.0
O194 O 0.10401 0.67631 0.85447 0.0
Mg195 Mg 0.37259 0.99223 0.39604 0.0
C196 C 0.2775 0.93176 0.37105 0.0
O197 O 0.27436 0.9579 0.39981 0.0
C198 C 0.4612 1.03188 0.43031 0.0
O199 O 0.4502 0.06318 0.43 0.0
C200 C 0.36534 0.04263 0.32196 0.0
O201 O 0.32349 1.02365 0.33456 0.0
O202 O 0.39405 0.04194 0.3463 0.0
O203 O 0.31526 0.93436 0.36573 0.0
O204 O 0.35351 1.0038 0.45815 0.0
C205 C 0.3379 0.96858 0.48088 0.0
O206 O 0.32898 0.93038 0.4628 0.0
O207 O 0.43372 0.99331 0.41435 0.0
Mg208 Mg 0.15338 0.46321 0.40568 0.0
C209 C 0.12397 0.53063 0.41002 0.0
O210 O 0.10151 0.50616 0.37705 0.0
C211 C 0.20146 0.42009 0.3758 0.0
O212 O 0.15921 0.38812 0.37905 0.0
C213 C 0.08757 0.4223 0.47603 0.0
O214 O 0.06857 0.44004 0.45378 0.0
O215 O 0.12117 0.42161 0.46048 0.0
O216 O 0.15449 0.52484 0.42556 0.0
O217 O 0.11881 0.44096 0.34598 0.0
C218 C 0.08141 0.40601 0.33805 0.0
O219 O 0.0569 0.37964 0.36914 0.0
O220 O 0.21267 0.45964 0.38895 0.0
Mg221 Mg 0.68076 0.6825 0.41352 0.0
C222 C 0.65828 0.63396 0.3338 0.0
O223 O 0.61935 0.61866 0.35273 0.0
C224 C 0.73879 0.74599 0.47986 0.0
O225 O 0.71946 0.76715 0.46457 0.0
C226 C 0.71411 0.7654 0.36823 0.0
O227 O 0.74562 0.75491 0.36849 0.0
O228 O 0.67733 0.73939 0.38751 0.0
O229 O 0.69386 0.65887 0.35471 0.0
O230 O 0.62635 0.62319 0.44507 0.0
C231 C 0.62449 0.62234 0.48546 0.0
O232 O 0.64904 0.65997 0.50674 0.0
O233 O 0.73244 0.71014 0.46157 0.0
C234 C 0.09796 0.72553 0.11326 0.0
C235 C 0.07348 0.74751 0.10927 0.0
H236 H 0.13342 0.69812 0.08129 0.0
C237 C 0.06481 0.75768 0.06864 0.0
H238 H 0.10518 0.71736 0.14419 0.0
C239 C 0.08071 0.74642 0.0326 0.0
C240 C 0.10597 0.72527 0.03664 0.0
H241 H 1.04583 0.77445 0.06464 0.0
H242 H 0.07379 0.75489 0.00168 0.0
C243 C 0.11427 0.71473 0.07725 0.0
C244 C 0.43903 0.39869 0.03575 0.0
C245 C 0.40189 0.39999 0.02003 0.0
H246 H 0.47349 0.39571 0.09052 0.0
C247 C 0.37137 0.40112 0.04882 0.0
H248 H 0.46344 0.39834 0.01435 0.0
C249 C 0.37764 0.40059 0.09242 0.0
C250 C 0.4143 0.39839 0.10817 0.0
H251 H 0.34278 0.40282 0.03774 0.0
H252 H 0.35305 0.40074 0.1137 0.0
C253 C 0.44508 0.39771 0.07939 0.0
C254 C 0.75523 0.05046 0.08615 0.0
C255 C 0.74085 1.01506 0.11529 0.0
H256 H 0.75881 0.06927 0.02113 0.0
C257 C 0.71869 0.97036 0.10034 0.0
H258 H 0.77289 0.08532 0.09667 0.0
C259 C 0.71082 0.96123 0.05707 0.0
C260 C 0.72535 0.99662 0.02794 0.0
H261 H 0.70753 0.94242 0.12204 0.0
H262 H 0.6932 0.9264 0.04647 0.0
C263 C 0.74777 0.04133 0.04282 0.0
C264 C 0.76446 0.05784 0.44232 0.0
C265 C 0.74251 0.0824 0.43861 0.0
H266 H 0.79406 1.02463 0.40981 0.0
C267 C 0.73246 0.09145 0.39811 0.0
H268 H 0.77262 0.05042 0.47317 0.0
C269 C 0.74431 0.07633 0.36188 0.0
C270 C 0.76691 0.05241 0.36556 0.0
H271 H 0.71531 0.11011 0.39434 0.0
H272 H 0.73635 0.08396 0.33103 0.0
C273 C 0.77682 0.04321 0.40606 0.0
C274 C 1.00214 0.72265 0.42424 0.0
C275 C 1.03917 0.73255 0.44971 0.0
H276 H 0.97667 0.71613 0.36145 0.0
C277 C 0.08032 0.74475 0.43014 0.0
H278 H 0.96987 0.71286 0.43831 0.0
C279 C 0.08407 0.74609 0.38599 0.0
C280 C 1.04679 0.73538 0.36055 0.0
H281 H 0.1094 0.75216 0.44884 0.0
H282 H 0.11626 0.75567 0.37187 0.0
C283 C 1.00587 0.72396 0.38014 0.0
C284 C 0.39835 0.31973 0.43271 0.0
C285 C 0.42666 0.36405 0.44715 0.0
H286 H 0.36601 0.27647 0.37964 0.0
C287 C 0.44516 0.39944 0.41768 0.0
H288 H 0.38384 0.29172 0.45461 0.0
C289 C 0.43539 0.39063 0.37455 0.0
C290 C 0.40668 0.34632 0.36026 0.0
H291 H 0.4675 0.43393 0.42783 0.0
H292 H 0.44963 0.41856 0.35258 0.0
C293 C 0.38837 0.31098 0.38972 0.0
C294 C 1.03506 0.34852 0.88125 0.0
C295 C 1.00344 0.31073 0.85802 0.0
H296 H 0.05838 0.37777 0.94294 0.0
C297 C 0.97079 0.27261 0.87983 0.0
H298 H 0.06109 0.378 0.86512 0.0
C299 C 0.96909 0.27257 0.92407 0.0
C300 C 1.00081 0.31013 0.94737 0.0
H301 H 0.94634 0.24289 0.86261 0.0
H302 H 0.94285 0.24315 0.94011 0.0
C303 C 1.03406 0.34804 0.92566 0.0
C304 C 0.72866 0.72875 0.93494 0.0
C305 C 0.75736 0.7153 0.95189 0.0
H306 H 0.70701 0.74748 0.87944 0.0
C307 C 0.78727 0.71095 0.92467 0.0
H308 H 0.70489 0.73192 0.95499 0.0
C309 C 0.78801 0.71914 0.88136 0.0
C310 C 0.75899 0.73209 0.86428 0.0
H311 H 0.80967 0.7004 0.93666 0.0
H312 H 0.81155 0.71555 0.86135 0.0
C313 C 0.72947 0.73706 0.89155 0.0
C314 C 0.42928 0.07261 0.92463 0.0
C315 C 0.45359 0.11709 0.93996 0.0
H316 H 0.40362 1.02943 0.87021 0.0
C317 C 0.47221 0.15287 0.91095 0.0
H318 H 0.41524 0.04438 0.94627 0.0
C319 C 0.46548 0.14439 0.86742 0.0
C320 C 0.44082 0.09994 0.85205 0.0
H321 H 0.49145 0.1875 0.92194 0.0
H322 H 0.47906 0.17265 0.84582 0.0
C323 C 0.42331 0.06408 0.88105 0.0
C324 C 0.37105 1.01192 0.5931 0.0
C325 C 0.34231 0.97337 0.61687 0.0
H326 H 0.39107 0.04109 0.53127 0.0
C327 C 0.31106 0.93387 0.59556 0.0
H328 H 0.39493 0.04313 0.60873 0.0
C329 C 0.30902 0.93269 0.55128 0.0
C330 C 0.33738 0.97134 0.52756 0.0
H331 H 0.2882 0.90386 0.61313 0.0
H332 H 0.28515 0.90153 0.53558 0.0
C333 C 0.36829 1.01104 0.54884 0.0
C334 C 0.09514 0.40084 0.59234 0.0
C335 C 0.05588 0.39774 0.60885 0.0
H336 H 0.13524 0.40964 0.53734 0.0
C337 C 1.0268 0.40212 0.58112 0.0
H338 H 0.11804 0.39709 0.61271 0.0
C339 C 1.03666 0.40924 0.53781 0.0
C340 C 0.07551 0.41154 0.52123 0.0
H341 H 0.99613 0.39954 0.59279 0.0
H342 H 1.01375 0.41281 0.5173 0.0
C343 C 0.10468 0.40735 0.54898 0.0
C344 C 0.75262 0.72404 0.55087 0.0
C345 C 0.75785 0.75783 0.52278 0.0
H346 H 0.75893 0.70758 0.61491 0.0
C347 C 0.77583 0.80219 0.53779 0.0
H348 H 0.73825 0.68942 0.54019 0.0
C349 C 0.78791 0.81257 0.58028 0.0
C350 C 0.78116 0.77854 0.60871 0.0
H351 H 0.77986 0.82874 0.51679 0.0
H352 H 0.80167 0.84707 0.59107 0.0
C353 C 0.76371 0.73423 0.59368 0.0
C354 C 0.38968 0.41461 0.7343 0.0
C355 C 0.39778 0.40328 0.77464 0.0
H356 H 0.39677 0.41084 0.66716 0.0
C357 C 0.41794 0.37698 0.77788 0.0
H358 H 0.37389 0.43461 0.73086 0.0
C359 C 0.43118 0.36356 0.74144 0.0
C360 C 0.42419 0.37593 0.70114 0.0
H361 H 0.42449 0.36766 0.80856 0.0
H362 H 0.44746 0.34402 0.74493 0.0
C363 C 0.40263 0.40091 0.69783 0.0
C364 C 0.6631 0.03617 0.70273 0.0
C365 C 0.70768 0.06077 0.68859 0.0
H366 H 0.61886 1.00632 0.75553 0.0
C367 C 0.74256 0.0754 0.71821 0.0
H368 H 0.63554 1.02476 0.68068 0.0
C369 C 0.73303 0.06551 0.76116 0.0
C370 C 0.68844 0.0404 0.7752 0.0
H371 H 0.7773 0.09493 0.70834 0.0
H372 H 0.76059 0.07672 0.78318 0.0
C373 C 0.65358 1.02591 0.74561 0.0
C374 C 0.1111 0.73364 0.75628 0.0
C375 C 0.09628 0.69782 0.78503 0.0
H376 H 0.1152 0.75334 0.69148 0.0
C377 C 0.07415 0.65333 0.76954 0.0
H378 H 0.12872 0.76835 0.76722 0.0
C379 C 0.06661 0.6448 0.72616 0.0
C380 C 0.08138 0.68059 0.69744 0.0
H381 H 0.06265 0.62507 0.7909 0.0
H382 H 1.04893 0.61011 0.71518 0.0
C383 C 0.10391 0.72511 0.71284 0.0
C384 C 0.69342 0.66697 0.26391 0.0
C385 C 0.65962 0.63103 0.28724 0.0
H386 H 0.71816 0.69473 0.20235 0.0
C387 C 0.62421 0.59474 0.26558 0.0
H388 H 0.72065 0.69578 0.27989 0.0
C389 C 0.6229 0.59405 0.2213 0.0
C390 C 0.6563 0.63025 0.19798 0.0
H391 H 0.5975 0.5669 0.28291 0.0
H392 H 0.59567 0.56527 0.20528 0.0
C393 C 0.69152 0.66679 0.21963 0.0
C394 C 0.35258 0.05689 0.20487 0.0
C395 C 0.3917 0.06008 0.18795 0.0
H396 H 0.3138 0.04954 0.26065 0.0
C397 C 0.4231 0.05993 0.21577 0.0
H398 H 0.32798 0.05743 0.1843 0.0
C399 C 0.41554 0.05659 0.25949 0.0
C400 C 0.37609 0.05267 0.27643 0.0
H401 H 0.45394 0.06306 0.20388 0.0
H402 H 0.44022 0.05598 0.27989 0.0
C403 C 0.34471 0.05292 0.24864 0.0
C404 C 0.09865 0.41318 0.26046 0.0
C405 C 0.06684 0.3952 0.29353 0.0
H406 H 0.11015 0.4192 0.19322 0.0
C407 C 1.02141 0.36782 0.2835 0.0
H408 H 0.13405 0.43407 0.26734 0.0
C409 C 1.00784 0.35993 0.24117 0.0
C410 C 1.03953 0.37854 0.20813 0.0
H411 H 0.99627 0.35347 0.3083 0.0
H412 H 0.97239 0.33931 0.23432 0.0
C413 C 0.08513 0.40454 0.21809 0.0
C414 C 0.19988 0.90688 0.3454 0.0
C415 C 0.24051 0.9074 0.34007 0.0
H416 H 0.13494 0.88658 0.32039 0.0
C417 C 0.24658 0.88792 0.30316 0.0
H418 H 0.19412 0.92189 0.37328 0.0
C419 C 0.21277 0.86819 0.27253 0.0
C420 C 0.17199 0.86735 0.27801 0.0
H421 H 0.27761 0.88825 0.29769 0.0
H422 H 0.21845 0.853 0.24475 0.0
C423 C 0.16606 0.88712 0.31478 0.0
C424 C 0.24688 0.35816 0.31135 0.0
C425 C 0.29097 0.39255 0.30295 0.0
H426 H 0.18438 0.33976 0.34134 0.0
C427 C 0.306 0.43586 0.32016 0.0
H428 H 0.23432 0.32442 0.29888 0.0
C429 C 0.27748 0.44474 0.34466 0.0
C430 C 0.23321 0.4105 0.35264 0.0
H431 H 0.33989 0.46322 0.31453 0.0
H432 H 0.28997 0.47857 0.35683 0.0
C433 C 0.21836 0.36702 0.33593 0.0
C434 C 0.69844 0.85754 0.32083 0.0
C435 C 0.74089 0.88615 0.30257 0.0
H436 H 0.65655 0.79715 0.35604 0.0
C437 C 0.77412 0.87468 0.30633 0.0
H438 H 0.67201 0.86541 0.31864 0.0
C439 C 0.76514 0.83554 0.32771 0.0
C440 C 0.72275 0.80693 0.34605 0.0
H441 H 0.80711 0.8959 0.29276 0.0
H442 H 0.79167 0.8278 0.32987 0.0
C443 C 0.6895 0.81841 0.3424 0.0
C444 C 0.87531 0.18791 0.19124 0.0
C445 C 0.88342 0.15185 0.1941 0.0
H446 H 0.89225 0.25032 0.16136 0.0
C447 C 0.91594 0.15177 0.16737 0.0
H448 H 0.85018 0.18895 0.21103 0.0
C449 C 0.94007 0.18712 0.13884 0.0
C450 C 0.9318 0.22304 0.13594 0.0
H451 H 0.92276 0.12441 0.16844 0.0
H452 H 0.96534 0.18634 0.11906 0.0
C453 C 0.899 0.22291 0.16235 0.0
C454 C 0.85599 0.7409 0.14562 0.0
C455 C 0.82728 0.69721 0.1293 0.0
H456 H 0.91659 0.78523 0.17903 0.0
C457 C 0.83898 0.66414 0.13476 0.0
H458 H 0.84808 0.76731 0.14204 0.0
C459 C 0.87837 0.67453 0.15624 0.0
C460 C 0.90698 0.71822 0.17264 0.0
H461 H 0.81762 0.63021 0.12272 0.0
H462 H 0.88637 0.64819 0.15991 0.0
C463 C 0.89534 0.75129 0.16697 0.0
C464 C 0.45224 0.25595 0.18434 0.0
C465 C 0.41225 0.25674 0.17998 0.0
H466 H 0.49461 0.23252 0.15963 0.0
C467 C 0.3842 0.23389 0.14542 0.0
H468 H 0.47484 0.27343 0.21043 0.0
C469 C 0.39592 0.21093 0.11594 0.0
C470 C 0.43588 0.21007 0.12033 0.0
H471 H 0.35346 0.23423 0.14077 0.0
H472 H 0.37328 0.19344 0.08987 0.0
C473 C 0.46388 0.23285 0.15495 0.0
C474 C 0.83837 0.22714 0.64428 0.0
C475 C 0.84359 0.20471 0.60923 0.0
H476 H 0.86727 0.26549 0.701 0.0
C477 C 0.88396 0.20447 0.60502 0.0
H478 H 0.80762 0.2276 0.64886 0.0
C479 C 0.91803 0.22573 0.63524 0.0
C480 C 0.91268 0.24788 0.67043 0.0
H481 H 0.88911 0.18727 0.57859 0.0
H482 H 0.9487 0.22507 0.6308 0.0
C483 C 0.87248 0.24846 0.67446 0.0
C484 C 0.97425 0.76611 0.65391 0.0
C485 C 0.96106 0.72304 0.63707 0.0
H486 H 0.95511 0.80758 0.68858 0.0
C487 C 0.91684 0.68796 0.64355 0.0
H488 H 1.00814 0.79401 0.64964 0.0
C489 C 0.88651 0.69584 0.66612 0.0
C490 C 0.89963 0.73899 0.6827 0.0
H491 H 0.90562 0.65444 0.63119 0.0
H492 H 0.85256 0.66801 0.67026 0.0
C493 C 0.94391 0.774 0.67641 0.0
C494 C 0.34273 0.13788 0.62847 0.0
C495 C 0.36344 0.13513 0.66549 0.0
H496 H 0.34357 0.1794 0.57799 0.0
C497 C 0.40301 0.17376 0.6794 0.0
H498 H 0.3125 0.10868 0.61668 0.0
C499 C 0.4216 0.21411 0.65647 0.0
C500 C 0.40051 0.21679 0.61965 0.0
H501 H 0.42018 0.17256 0.70748 0.0
H502 H 0.45188 0.2434 0.66803 0.0
C503 C 0.36076 0.17832 0.60611 0.0
C504 C 0.29509 0.86785 0.81861 0.0
C505 C 0.28709 0.90383 0.8142 0.0
H506 H 0.27609 0.80496 0.84874 0.0
C507 C 0.25334 0.90388 0.83897 0.0
H508 H 0.32098 0.8668 0.80008 0.0
C509 C 0.22821 0.86881 0.86746 0.0
C510 C 0.2358 0.8325 0.87152 0.0
H511 H 0.2466 0.93122 0.83669 0.0
H512 H 0.20219 0.86985 0.88576 0.0
C513 C 0.26957 0.83247 0.84671 0.0
C514 C 0.20049 0.41807 0.80842 0.0
C515 C 0.17079 0.37512 0.79114 0.0
H516 H 0.25949 0.45904 0.84535 0.0
C517 C 0.17879 0.33978 0.79882 0.0
H518 H 0.19536 0.44615 0.80325 0.0
C519 C 0.21553 0.34723 0.82331 0.0
C520 C 0.24521 0.39021 0.8406 0.0
H521 H 0.1565 0.3063 0.78625 0.0
H522 H 0.22073 0.3192 0.8285 0.0
C523 C 0.23726 0.42554 0.83278 0.0
C524 C 0.72232 0.86393 0.7844 0.0
C525 C 0.76713 0.87409 0.78175 0.0
H526 H 0.67538 0.87951 0.81298 0.0
C527 C 0.7994 0.90914 0.80714 0.0
H528 H 0.6964 0.83684 0.76562 0.0
C529 C 0.78723 0.93358 0.83426 0.0
C530 C 0.7424 0.92322 0.83709 0.0
H531 H 0.83407 0.91762 0.80618 0.0
H532 H 0.81308 0.96063 0.85314 0.0
C533 C 0.71006 0.88803 0.81192 0.0
C534 C 0.56995 0.4975 0.51108 0.0
C535 C 0.56119 0.49714 0.55479 0.0
H536 H 0.59541 0.53703 0.45455 0.0
C537 C 0.57315 0.5382 0.57518 0.0
H538 H 0.56061 0.46639 0.49424 0.0
C539 C 0.59309 0.57859 0.5525 0.0
C540 C 0.60088 0.5789 0.50864 0.0
H541 H 0.56657 0.53908 0.60873 0.0
H542 H 0.60206 0.60961 0.56935 0.0
C543 C 0.58922 0.53789 0.48818 0.0
C544 C 0.55206 1.0168 0.48046 0.0
C545 C 0.58097 0.06012 0.4975 0.0
H546 H 0.49188 0.97382 0.44565 0.0
C547 C 0.57071 0.09409 0.49108 0.0
H548 H 0.55901 0.98978 0.48462 0.0
C549 C 0.53227 0.08486 0.4686 0.0
C550 C 0.50312 0.04146 0.4519 0.0
H551 H 0.59226 0.12779 0.50354 0.0
H552 H 0.52527 0.11187 0.46464 0.0
C553 C 0.51361 1.00758 0.4579 0.0
C554 C 0.11468 0.56509 0.47744 0.0
C555 C 0.10627 0.55568 0.43383 0.0
H556 H 0.10026 0.5905 0.53414 0.0
C557 C 0.07611 0.56551 0.41398 0.0
H558 H 0.13712 0.55719 0.49387 0.0
C559 C 0.05476 0.58412 0.437 0.0
C560 C 0.06266 0.59314 0.48067 0.0
H561 H 0.06857 0.55838 0.38054 0.0
H562 H 1.032 0.59147 0.42041 0.0
C563 C 0.09297 0.58348 0.50066 0.0
C564 C 0.51584 0.53839 0.97057 0.0
C565 C 0.51623 0.5306 0.9267 0.0
H566 H 0.55394 0.5615 0.02814 0.0
C567 C 0.55696 0.54097 0.90727 0.0
H568 H 0.48485 0.5299 -0.01332 0.0
C569 C 0.59634 0.5587 0.93098 0.0
C570 C 0.59604 0.56608 0.97491 0.0
H571 H 0.55835 0.53496 0.87365 0.0
H572 H 0.62712 0.56659 0.91475 0.0
C573 C 0.5553 0.55575 -0.00554 0.0
C574 C 0.56255 1.0073 0.97427 0.0
C575 C 0.60773 0.04084 0.96965 0.0
H576 H 0.49847 0.98942 0.00031 0.0
C577 C 0.62301 0.08296 -0.01031 0.0
H578 H 0.54972 0.97449 0.95949 0.0
C579 C 0.59378 0.09155 0.01328 0.0
C580 C 0.54846 0.05825 0.01743 0.0
H581 H 0.65771 0.10962 -0.01296 0.0
H582 H 0.60659 0.1245 0.02773 0.0
C583 C 0.53325 1.01592 -0.00215 0.0
C584 C 1.039 0.53494 -0.01241 0.0
C585 C 0.08358 0.56476 0.97476 0.0
H586 H 0.99312 0.47346 0.01944 0.0
C587 C 0.11666 0.55468 0.98558 0.0
H588 H 1.01259 0.5417 0.97996 0.0
C589 C 0.10541 0.51562 0.00838 0.0
C590 C 0.0608 0.48562 0.02098 0.0
H591 H 0.15127 0.57693 0.97644 0.0
H592 H 0.13185 0.50886 0.01588 0.0
C593 C 1.02774 0.49583 0.01043 0.0
loop_
_geom_bond_atom_site_label_1
_geom_bond_atom_site_label_2
_geom_bond_distance
_geom_bond_site_symmetry_2
_ccdc_geom_bond_type
Mg0 O7 2.141 1_455 S
Mg0 O8 2.048 . S
Mg0 O9 2.048 . S
Mg0 O12 2.141 1_455 S
C1 O2 1.313 . S
C1 O8 1.195 . S
O2 C1 1.313 . S
C3 O4 1.245 . S
C3 O12 1.289 . S
O4 C3 1.245 . S
C5 O6 1.245 . S
C5 O7 1.289 . S
O6 C5 1.245 . S
O7 Mg0 2.141 1_655 S
O7 C5 1.289 . S
O8 Mg0 2.048 . S
O8 C1 1.195 . S
O9 Mg0 2.048 . S
O9 C10 1.195 . S
C10 O9 1.195 . S
C10 O11 1.313 . S
O11 C10 1.313 . S
O12 Mg0 2.141 1_655 S
O12 C3 1.289 . S
Mg13 O20 2.141 . S
Mg13 O21 2.048 . S
Mg13 O22 2.048 . S
Mg13 O25 2.141 . S
C14 O15 1.313 . S
C14 O21 1.195 . S
O15 C14 1.313 . S
C16 O17 1.245 . S
C16 O25 1.289 . S
O17 C16 1.245 . S
C18 O19 1.245 . S
C18 O20 1.289 . S
O19 C18 1.245 . S
O20 Mg13 2.141 . S
O20 C18 1.289 . S
O21 Mg13 2.048 . S
O21 C14 1.195 . S
O22 Mg13 2.048 . S
O22 C23 1.195 . S
C23 O22 1.195 . S
C23 O24 1.313 . S
O24 C23 1.313 . S
O25 Mg13 2.141 . S
O25 C16 1.289 . S
Mg26 O33 2.141 1_545 S
Mg26 O34 2.048 . S
Mg26 O35 2.048 . S
Mg26 O38 2.141 1_545 S
C27 O28 1.313 . S
C27 O34 1.195 . S
O28 C27 1.313 . S
C29 O30 1.245 . S
C29 O38 1.289 . S
O30 C29 1.245 . S
C31 O32 1.245 . S
C31 O33 1.289 . S
O32 C31 1.245 . S
O33 Mg26 2.141 1_565 S
O33 C31 1.289 . S
O34 Mg26 2.048 . S
O34 C27 1.195 . S
O35 Mg26 2.048 . S
O35 C36 1.195 . S
C36 O35 1.195 . S
C36 O37 1.313 . S
O37 C36 1.313 . S
O38 Mg26 2.141 1_565 S
O38 C29 1.289 . S
Mg39 O46 2.141 . S
Mg39 O47 2.048 1_455 S
Mg39 O48 2.048 1_455 S
Mg39 O51 2.141 . S
C40 O41 1.313 . S
C40 O47 1.195 . S
O41 C40 1.313 . S
C42 O43 1.245 . S
C42 O51 1.289 . S
O43 C42 1.245 . S
C44 O45 1.245 . S
C44 O46 1.289 . S
O45 C44 1.245 . S
O46 Mg39 2.141 . S
O46 C44 1.289 . S
O47 Mg39 2.048 1_655 S
O47 C40 1.195 . S
O48 Mg39 2.048 1_655 S
O48 C49 1.195 . S
C49 O48 1.195 . S
C49 O50 1.313 . S
O50 C49 1.313 . S
O51 Mg39 2.141 . S
O51 C42 1.289 . S
Mg52 O59 2.141 . S
Mg52 O60 2.048 . S
Mg52 O61 2.048 . S
Mg52 O64 2.141 . S
C53 O54 1.313 . S
C53 O60 1.195 . S
O54 C53 1.313 . S
C55 O56 1.245 . S
C55 O64 1.289 . S
O56 C55 1.245 . S
C57 O58 1.245 . S
C57 O59 1.289 . S
O58 C57 1.245 . S
O59 Mg52 2.141 . S
O59 C57 1.289 . S
O60 Mg52 2.048 . S
O60 C53 1.195 . S
O61 Mg52 2.048 . S
O61 C62 1.195 . S
C62 O61 1.195 . S
C62 O63 1.313 . S
O63 C62 1.313 . S
O64 Mg52 2.141 . S
O64 C55 1.289 . S
Mg65 O72 2.141 . S
Mg65 O73 2.048 1_545 S
Mg65 O74 2.048 1_545 S
Mg65 O77 2.141 . S
C66 O67 1.313 . S
C66 O73 1.195 . S
O67 C66 1.313 . S
C68 O69 1.245 . S
C68 O77 1.289 . S
O69 C68 1.245 . S
C70 O71 1.245 . S
C70 O72 1.289 . S
O71 C70 1.245 . S
O72 Mg65 2.141 . S
O72 C70 1.289 . S
O73 Mg65 2.048 1_565 S
O73 C66 1.195 . S
O74 Mg65 2.048 1_565 S
O74 C75 1.195 . S
C75 O74 1.195 . S
C75 O76 1.313 . S
O76 C75 1.313 . S
O77 Mg65 2.141 . S
O77 C68 1.289 . S
Mg78 O85 2.141 . S
Mg78 O86 2.048 . S
Mg78 O87 2.048 . S
Mg78 O90 2.141 . S
C79 O80 1.313 . S
C79 O86 1.195 . S
O80 C79 1.313 . S
C81 O82 1.245 . S
C81 O90 1.289 . S
O82 C81 1.245 . S
C83 O84 1.245 . S
C83 O85 1.289 . S
O84 C83 1.245 . S
O85 Mg78 2.141 . S
O85 C83 1.289 . S
O86 Mg78 2.048 . S
O86 C79 1.195 . S
O87 Mg78 2.048 . S
O87 C88 1.195 . S
C88 O87 1.195 . S
C88 O89 1.313 . S
O89 C88 1.313 . S
O90 Mg78 2.141 . S
O90 C81 1.289 . S
Mg91 O98 2.141 . S
Mg91 O99 2.048 . S
Mg91 O100 2.048 . S
Mg91 O103 2.141 . S
C92 O93 1.313 . S
C92 O99 1.195 . S
O93 C92 1.313 . S
C94 O95 1.245 . S
C94 O103 1.289 . S
O95 C94 1.245 . S
C96 O97 1.245 . S
C96 O98 1.289 . S
O97 C96 1.245 . S
O98 Mg91 2.141 . S
O98 C96 1.289 . S
O99 Mg91 2.048 . S
O99 C92 1.195 . S
O100 Mg91 2.048 . S
O100 C101 1.195 . S
C101 O100 1.195 . S
C101 O102 1.313 . S
O102 C101 1.313 . S
O103 Mg91 2.141 . S
O103 C94 1.289 . S
Mg104 O111 2.141 . S
Mg104 O112 2.048 . S
Mg104 O113 2.048 . S
Mg104 O116 2.141 . S
C105 O106 1.313 . S
C105 O112 1.195 . S
O106 C105 1.313 . S
C107 O108 1.245 . S
C107 O116 1.289 . S
O108 C107 1.245 . S
C109 O110 1.245 . S
C109 O111 1.289 . S
O110 C109 1.245 . S
O111 Mg104 2.141 . S
O111 C109 1.289 . S
O112 Mg104 2.048 . S
O112 C105 1.195 . S
O113 Mg104 2.048 . S
O113 C114 1.195 . S
C114 O113 1.195 . S
C114 O115 1.313 . S
O115 C114 1.313 . S
O116 Mg104 2.141 . S
O116 C107 1.289 . S
Mg117 O124 2.141 . S
Mg117 O125 2.048 . S
Mg117 O126 2.048 . S
Mg117 O129 2.141 . S
C118 O119 1.313 1_556 S
C118 O125 1.195 1_556 S
O119 C118 1.313 1_554 S
C120 O121 1.245 . S
C120 O129 1.289 . S
O121 C120 1.245 . S
C122 O123 1.245 . S
C122 O124 1.289 . S
O123 C122 1.245 . S
O124 Mg117 2.141 . S
O124 C122 1.289 . S
O125 Mg117 2.048 . S
O125 C118 1.195 1_554 S
O126 Mg117 2.048 . S
O126 C127 1.195 . S
C127 O126 1.195 . S
C127 O128 1.313 . S
O128 C127 1.313 . S
O129 Mg117 2.141 . S
O129 C120 1.289 . S
Mg130 O137 2.141 . S
Mg130 O138 2.048 . S
Mg130 O139 2.048 . S
Mg130 O142 2.141 . S
C131 O132 1.313 . S
C131 O138 1.195 . S
O132 C131 1.313 . S
C133 O134 1.245 . S
C133 O142 1.289 . S
O134 C133 1.245 . S
C135 O136 1.245 . S
C135 O137 1.289 . S
O136 C135 1.245 . S
O137 Mg130 2.141 . S
O137 C135 1.289 . S
O138 Mg130 2.048 . S
O138 C131 1.195 . S
O139 Mg130 2.048 . S
O139 C140 1.195 1_554 S
C140 O139 1.195 1_556 S
C140 O141 1.313 1_556 S
O141 C140 1.313 1_554 S
O142 Mg130 2.141 . S
O142 C133 1.289 . S
Mg143 O150 2.141 . S
Mg143 O151 2.048 . S
Mg143 O152 2.048 . S
Mg143 O155 2.141 . S
C144 O145 1.313 1_556 S
C144 O151 1.195 1_556 S
O145 C144 1.313 1_554 S
C146 O147 1.245 . S
C146 O155 1.289 . S
O147 C146 1.245 . S
C148 O149 1.245 . S
C148 O150 1.289 . S
O149 C148 1.245 . S
O150 Mg143 2.141 . S
O150 C148 1.289 . S
O151 Mg143 2.048 . S
O151 C144 1.195 1_554 S
O152 Mg143 2.048 . S
O152 C153 1.195 . S
C153 O152 1.195 . S
C153 O154 1.313 . S
O154 C153 1.313 . S
O155 Mg143 2.141 . S
O155 C146 1.289 . S
Mg156 O163 2.141 . S
Mg156 O164 2.048 . S
Mg156 O165 2.048 . S
Mg156 O168 2.141 . S
C157 O158 1.313 . S
C157 O164 1.195 . S
O158 C157 1.313 . S
C159 O160 1.245 1_554 S
C159 O168 1.289 1_554 S
O160 C159 1.245 1_556 S
C161 O162 1.245 . S
C161 O163 1.289 . S
O162 C161 1.245 . S
O163 Mg156 2.141 . S
O163 C161 1.289 . S
O164 Mg156 2.048 . S
O164 C157 1.195 . S
O165 Mg156 2.048 . S
O165 C166 1.195 . S
C166 O165 1.195 . S
C166 O167 1.313 . S
O167 C166 1.313 . S
O168 Mg156 2.141 . S
O168 C159 1.289 1_556 S
Mg169 O176 2.141 . S
Mg169 O177 2.048 . S
Mg169 O178 2.048 . S
Mg169 O181 2.141 . S
C170 O171 1.308 1_554 S
C170 O177 1.183 1_554 S
O171 C170 1.308 1_556 S
C172 O173 1.245 . S
C172 O181 1.289 . S
O173 C172 1.245 . S
C174 O175 1.245 . S
C174 O176 1.289 . S
O175 C174 1.245 . S
O176 Mg169 2.141 . S
O176 C174 1.289 . S
O177 Mg169 2.048 . S
O177 C170 1.183 1_556 S
O178 Mg169 2.048 . S
O178 C179 1.195 . S
C179 O178 1.195 . S
C179 O180 1.313 . S
O180 C179 1.313 . S
O181 Mg169 2.141 . S
O181 C172 1.289 . S
Mg182 O189 2.141 . S
Mg182 O190 2.048 . S
Mg182 O191 2.048 . S
Mg182 O194 2.141 . S
C183 O184 1.313 1_554 S
C183 O190 1.195 1_554 S
O184 C183 1.313 1_556 S
C185 O186 1.245 . S
C185 O194 1.289 . S
O186 C185 1.245 . S
C187 O188 1.245 . S
C187 O189 1.289 . S
O188 C187 1.245 . S
O189 Mg182 2.141 . S
O189 C187 1.289 . S
O190 Mg182 2.048 . S
O190 C183 1.195 1_556 S
O191 Mg182 2.048 . S
O191 C192 1.195 . S
C192 O191 1.195 . S
C192 O193 1.313 . S
O193 C192 1.313 . S
O194 Mg182 2.141 . S
O194 C185 1.289 . S
Mg195 O202 2.141 . S
Mg195 O203 2.048 . S
Mg195 O204 2.048 . S
Mg195 O207 2.141 . S
C196 O197 1.313 . S
C196 O203 1.195 . S
O197 C196 1.313 . S
C198 O199 1.245 . S
C198 O207 1.289 . S
O199 C198 1.245 . S
C200 O201 1.245 . S
C200 O202 1.289 . S
O201 C200 1.245 . S
O202 Mg195 2.141 . S
O202 C200 1.289 . S
O203 Mg195 2.048 . S
O203 C196 1.195 . S
O204 Mg195 2.048 . S
O204 C205 1.195 . S
C205 O204 1.195 . S
C205 O206 1.313 . S
O206 C205 1.313 . S
O207 Mg195 2.141 . S
O207 C198 1.289 . S
Mg208 O215 2.141 . S
Mg208 O216 2.048 . S
Mg208 O217 2.048 . S
Mg208 O220 2.141 . S
C209 O210 1.313 . S
C209 O216 1.195 . S
O210 C209 1.313 . S
C211 O212 1.245 . S
C211 O220 1.289 . S
O212 C211 1.245 . S
C213 O214 1.245 . S
C213 O215 1.289 . S
O214 C213 1.245 . S
O215 Mg208 2.141 . S
O215 C213 1.289 . S
O216 Mg208 2.048 . S
O216 C209 1.195 . S
O217 Mg208 2.048 . S
O217 C218 1.195 . S
C218 O217 1.195 . S
C218 O219 1.313 . S
O219 C218 1.313 . S
O220 Mg208 2.141 . S
O220 C211 1.289 . S
Mg221 O228 2.141 . S
Mg221 O229 2.048 . S
Mg221 O230 2.048 . S
Mg221 O233 2.141 . S
C222 O223 1.313 . S
C222 O229 1.195 . S
O223 C222 1.313 . S
C224 O225 1.245 . S
C224 O233 1.289 . S
O225 C224 1.245 . S
C226 O227 1.245 . S
C226 O228 1.289 . S
O227 C226 1.245 . S
O228 Mg221 2.141 . S
O228 C226 1.289 . S
O229 Mg221 2.048 . S
O229 C222 1.195 . S
O230 Mg221 2.048 . S
O230 C231 1.195 . S
C231 O230 1.195 . S
C231 O232 1.313 . S
O232 C231 1.313 . S
O233 Mg221 2.141 . S
O233 C224 1.289 . S
C234 C235 1.387 . S
C234 H238 0.950 . S
C234 C243 1.390 . S
C235 C234 1.387 . S
C235 C237 1.387 . S
H236 C243 0.950 . S
C237 C235 1.387 . S
C237 C239 1.390 . S
C237 H241 0.950 . S
H238 C234 0.950 . S
C239 C237 1.390 . S
C239 C240 1.387 . S
C239 H242 0.950 . S
C240 C239 1.387 . S
C240 C243 1.387 . S
H241 C237 0.950 . S
H242 C239 0.950 . S
C243 C234 1.390 . S
C243 H236 0.950 . S
C243 C240 1.387 . S
C244 C245 1.387 . S
C244 H248 0.950 . S
C244 C253 1.390 . S
C245 C244 1.387 . S
C245 C247 1.387 . S
H246 C253 0.950 . S
C247 C245 1.387 . S
C247 C249 1.390 . S
C247 H251 0.950 . S
H248 C244 0.950 . S
C249 C247 1.390 . S
C249 C250 1.387 . S
C249 H252 0.950 . S
C250 C249 1.387 . S
C250 C253 1.387 . S
H251 C247 0.950 . S
H252 C249 0.950 . S
C253 C244 1.390 . S
C253 H246 0.950 . S
C253 C250 1.387 . S
C254 C255 1.387 . S
C254 H258 0.950 1_565 S
C254 C263 1.390 . S
C255 C254 1.387 . S
C255 C257 1.387 . S
H256 C263 0.950 . S
C257 C255 1.387 . S
C257 C259 1.390 . S
C257 H261 0.950 . S
H258 C254 0.950 1_545 S
C259 C257 1.390 . S
C259 C260 1.387 . S
C259 H262 0.950 . S
C260 C259 1.387 . S
C260 C263 1.387 . S
H261 C257 0.950 . S
H262 C259 0.950 . S
C263 C254 1.390 . S
C263 H256 0.950 . S
C263 C260 1.387 . S
C264 C265 1.387 . S
C264 H268 0.950 . S
C264 C273 1.390 . S
C265 C264 1.387 . S
C265 C267 1.387 . S
H266 C273 0.950 . S
C267 C265 1.387 . S
C267 C269 1.390 . S
C267 H271 0.950 . S
H268 C264 0.950 . S
C269 C267 1.390 . S
C269 C270 1.387 . S
C269 H272 0.950 . S
C270 C269 1.387 . S
C270 C273 1.387 . S
H271 C267 0.950 . S
H272 C269 0.950 . S
C273 C264 1.390 . S
C273 H266 0.950 . S
C273 C270 1.387 . S
C274 C275 1.387 . S
C274 H278 0.950 . S
C274 C283 1.390 . S
C275 C274 1.387 . S
C275 C277 1.387 . S
H276 C283 0.950 . S
C277 C275 1.387 . S
C277 C279 1.390 . S
C277 H281 0.950 . S
H278 C274 0.950 . S
C279 C277 1.390 . S
C279 C280 1.387 . S
C279 H282 0.950 1_655 S
C280 C279 1.387 . S
C280 C283 1.387 . S
H281 C277 0.950 . S
H282 C279 0.950 1_455 S
C283 C274 1.390 . S
C283 H276 0.950 . S
C283 C280 1.387 . S
C284 C285 1.387 . S
C284 H288 0.950 . S
C284 C293 1.390 . S
C285 C284 1.387 . S
C285 C287 1.387 . S
H286 C293 0.950 . S
C287 C285 1.387 . S
C287 C289 1.390 . S
C287 H291 0.950 . S
H288 C284 0.950 . S
C289 C287 1.390 . S
C289 C290 1.387 . S
C289 H292 0.950 . S
C290 C289 1.387 . S
C290 C293 1.387 . S
H291 C287 0.950 . S
H292 C289 0.950 . S
C293 C284 1.390 . S
C293 H286 0.950 . S
C293 C290 1.387 . S
C294 C295 1.387 . S
C294 H298 0.950 . S
C294 C303 1.390 . S
C295 C294 1.387 . S
C295 C297 1.387 . S
H296 C303 0.950 . S
C297 C295 1.387 . S
C297 C299 1.390 . S
C297 H301 0.950 . S
H298 C294 0.950 . S
C299 C297 1.390 . S
C299 C300 1.387 . S
C299 H302 0.950 . S
C300 C299 1.387 . S
C300 C303 1.387 . S
H301 C297 0.950 . S
H302 C299 0.950 . S
C303 C294 1.390 . S
C303 H296 0.950 . S
C303 C300 1.387 . S
C304 C305 1.387 . S
C304 H308 0.950 . S
C304 C313 1.390 . S
C305 C304 1.387 . S
C305 C307 1.387 . S
H306 C313 0.950 . S
C307 C305 1.387 . S
C307 C309 1.390 . S
C307 H311 0.950 . S
H308 C304 0.950 . S
C309 C307 1.390 . S
C309 C310 1.387 . S
C309 H312 0.950 . S
C310 C309 1.387 . S
C310 C313 1.387 . S
H311 C307 0.950 . S
H312 C309 0.950 . S
C313 C304 1.390 . S
C313 H306 0.950 . S
C313 C310 1.387 . S
C314 C315 1.387 . S
C314 H318 0.950 . S
C314 C323 1.390 . S
C315 C314 1.387 . S
C315 C317 1.387 . S
H316 C323 0.950 . S
C317 C315 1.387 . S
C317 C319 1.390 . S
C317 H321 0.950 . S
H318 C314 0.950 . S
C319 C317 1.390 . S
C319 C320 1.387 . S
C319 H322 0.950 . S
C320 C319 1.387 . S
C320 C323 1.387 . S
H321 C317 0.950 . S
H322 C319 0.950 . S
C323 C314 1.390 . S
C323 H316 0.950 . S
C323 C320 1.387 . S
C324 C325 1.387 . S
C324 H328 0.950 1_565 S
C324 C333 1.390 . S
C325 C324 1.387 . S
C325 C327 1.387 . S
H326 C333 0.950 . S
C327 C325 1.387 . S
C327 C329 1.390 . S
C327 H331 0.950 . S
H328 C324 0.950 1_545 S
C329 C327 1.390 . S
C329 C330 1.387 . S
C329 H332 0.950 . S
C330 C329 1.387 . S
C330 C333 1.387 . S
H331 C327 0.950 . S
H332 C329 0.950 . S
C333 C324 1.390 . S
C333 H326 0.950 . S
C333 C330 1.387 . S
C334 C335 1.387 . S
C334 H338 0.950 . S
C334 C343 1.390 . S
C335 C334 1.387 . S
C335 C337 1.387 . S
H336 C343 0.950 . S
C337 C335 1.387 . S
C337 C339 1.390 . S
C337 H341 0.950 . S
H338 C334 0.950 . S
C339 C337 1.390 . S
C339 C340 1.387 . S
C339 H342 0.950 . S
C340 C339 1.387 . S
C340 C343 1.387 . S
H341 C337 0.950 . S
H342 C339 0.950 . S
C343 C334 1.390 . S
C343 H336 0.950 . S
C343 C340 1.387 . S
C344 C345 1.387 . S
C344 H348 0.950 . S
C344 C353 1.390 . S
C345 C344 1.387 . S
C345 C347 1.387 . S
H346 C353 0.950 . S
C347 C345 1.387 . S
C347 C349 1.390 . S
C347 H351 0.950 . S
H348 C344 0.950 . S
C349 C347 1.390 . S
C349 C350 1.387 . S
C349 H352 0.950 . S
C350 C349 1.387 . S
C350 C353 1.387 . S
H351 C347 0.950 . S
H352 C349 0.950 . S
C353 C344 1.390 . S
C353 H346 0.950 . S
C353 C350 1.387 . S
C354 C355 1.387 . S
C354 H358 0.950 . S
C354 C363 1.390 . S
C355 C354 1.387 . S
C355 C357 1.387 . S
H356 C363 0.950 . S
C357 C355 1.387 . S
C357 C359 1.390 . S
C357 H361 0.950 . S
H358 C354 0.950 . S
C359 C357 1.390 . S
C359 C360 1.387 . S
C359 H362 0.950 . S
C360 C359 1.387 . S
C360 C363 1.387 . S
H361 C357 0.950 . S
H362 C359 0.950 . S
C363 C354 1.390 . S
C363 H356 0.950 . S
C363 C360 1.387 . S
C364 C365 1.387 . S
C364 H368 0.950 . S
C364 C373 1.390 . S
C365 C364 1.387 . S
C365 C367 1.387 . S
H366 C373 0.950 . S
C367 C365 1.387 . S
C367 C369 1.390 1_545 S
C367 H371 0.950 . S
H368 C364 0.950 . S
C369 C367 1.390 1_565 S
C369 C370 1.387 . S
C369 H372 0.950 . S
C370 C369 1.387 . S
C370 C373 1.387 1_565 S
H371 C367 0.950 . S
H372 C369 0.950 . S
C373 C364 1.390 . S
C373 H366 0.950 . S
C373 C370 1.387 1_545 S
C374 C375 1.387 . S
C374 H378 0.950 . S
C374 C383 1.390 1_455 S
C375 C374 1.387 . S
C375 C377 1.387 . S
H376 C383 0.950 . S
C377 C375 1.387 . S
C377 C379 1.390 . S
C377 H381 0.950 . S
H378 C374 0.950 . S
C379 C377 1.390 . S
C379 C380 1.387 1_455 S
C379 H382 0.950 . S
C380 C379 1.387 1_655 S
C380 C383 1.387 . S
H381 C377 0.950 . S
H382 C379 0.950 . S
C383 C374 1.390 1_655 S
C383 H376 0.950 . S
C383 C380 1.387 . S
C384 C385 1.387 . S
C384 H388 0.950 . S
C384 C393 1.390 . S
C385 C384 1.387 . S
C385 C387 1.387 . S
H386 C393 0.950 . S
C387 C385 1.387 . S
C387 C389 1.390 . S
C387 H391 0.950 . S
H388 C384 0.950 . S
C389 C387 1.390 . S
C389 C390 1.387 . S
C389 H392 0.950 . S
C390 C389 1.387 . S
C390 C393 1.387 . S
H391 C387 0.950 . S
H392 C389 0.950 . S
C393 C384 1.390 . S
C393 H386 0.950 . S
C393 C390 1.387 . S
C394 C395 1.387 . S
C394 H398 0.950 . S
C394 C403 1.390 1_545 S
C395 C394 1.387 . S
C395 C397 1.387 . S
H396 C403 0.950 . S
C397 C395 1.387 . S
C397 C399 1.390 1_545 S
C397 H401 0.950 . S
H398 C394 0.950 . S
C399 C397 1.390 1_565 S
C399 C400 1.387 . S
C399 H402 0.950 . S
C400 C399 1.387 . S
C400 C403 1.387 . S
H401 C397 0.950 . S
H402 C399 0.950 . S
C403 C394 1.390 1_565 S
C403 H396 0.950 . S
C403 C400 1.387 . S
C404 C405 1.387 . S
C404 H408 0.950 . S
C404 C413 1.390 . S
C405 C404 1.387 . S
C405 C407 1.387 . S
H406 C413 0.950 . S
C407 C405 1.387 . S
C407 C409 1.390 1_455 S
C407 H411 0.950 . S
H408 C404 0.950 . S
C409 C407 1.390 1_655 S
C409 C410 1.387 . S
C409 H412 0.950 . S
C410 C409 1.387 . S
C410 C413 1.387 1_655 S
H411 C407 0.950 . S
H412 C409 0.950 . S
C413 C404 1.390 . S
C413 H406 0.950 . S
C413 C410 1.387 1_455 S
C414 C415 1.387 . S
C414 H418 0.950 . S
C414 C423 1.390 . S
C415 C414 1.387 . S
C415 C417 1.387 . S
H416 C423 0.950 . S
C417 C415 1.387 . S
C417 C419 1.390 . S
C417 H421 0.950 . S
H418 C414 0.950 . S
C419 C417 1.390 . S
C419 C420 1.387 . S
C419 H422 0.950 . S
C420 C419 1.387 . S
C420 C423 1.387 . S
H421 C417 0.950 . S
H422 C419 0.950 . S
C423 C414 1.390 . S
C423 H416 0.950 . S
C423 C420 1.387 . S
C424 C425 1.387 . S
C424 H428 0.950 . S
C424 C433 1.390 . S
C425 C424 1.387 . S
C425 C427 1.387 . S
H426 C433 0.950 . S
C427 C425 1.387 . S
C427 C429 1.390 . S
C427 H431 0.950 . S
H428 C424 0.950 . S
C429 C427 1.390 . S
C429 C430 1.387 . S
C429 H432 0.950 . S
C430 C429 1.387 . S
C430 C433 1.387 . S
H431 C427 0.950 . S
H432 C429 0.950 . S
C433 C424 1.390 . S
C433 H426 0.950 . S
C433 C430 1.387 . S
C434 C435 1.387 . S
C434 H438 0.950 . S
C434 C443 1.390 . S
C435 C434 1.387 . S
C435 C437 1.387 . S
H436 C443 0.950 . S
C437 C435 1.387 . S
C437 C439 1.390 . S
C437 H441 0.950 . S
H438 C434 0.950 . S
C439 C437 1.390 . S
C439 C440 1.387 . S
C439 H442 0.950 . S
C440 C439 1.387 . S
C440 C443 1.387 . S
H441 C437 0.950 . S
H442 C439 0.950 . S
C443 C434 1.390 . S
C443 H436 0.950 . S
C443 C440 1.387 . S
C444 C445 1.387 . S
C444 H448 0.950 . S
C444 C453 1.390 . S
C445 C444 1.387 . S
C445 C447 1.387 . S
H446 C453 0.950 . S
C447 C445 1.387 . S
C447 C449 1.390 . S
C447 H451 0.950 . S
H448 C444 0.950 . S
C449 C447 1.390 . S
C449 C450 1.387 . S
C449 H452 0.950 . S
C450 C449 1.387 . S
C450 C453 1.387 . S
H451 C447 0.950 . S
H452 C449 0.950 . S
C453 C444 1.390 . S
C453 H446 0.950 . S
C453 C450 1.387 . S
C454 C455 1.387 . S
C454 H458 0.950 . S
C454 C463 1.390 . S
C455 C454 1.387 . S
C455 C457 1.387 . S
H456 C463 0.950 . S
C457 C455 1.387 . S
C457 C459 1.390 . S
C457 H461 0.950 . S
H458 C454 0.950 . S
C459 C457 1.390 . S
C459 C460 1.387 . S
C459 H462 0.950 . S
C460 C459 1.387 . S
C460 C463 1.387 . S
H461 C457 0.950 . S
H462 C459 0.950 . S
C463 C454 1.390 . S
C463 H456 0.950 . S
C463 C460 1.387 . S
C464 C465 1.387 . S
C464 H468 0.950 . S
C464 C473 1.390 . S
C465 C464 1.387 . S
C465 C467 1.387 . S
H466 C473 0.950 . S
C467 C465 1.387 . S
C467 C469 1.390 . S
C467 H471 0.950 . S
H468 C464 0.950 . S
C469 C467 1.390 . S
C469 C470 1.387 . S
C469 H472 0.950 . S
C470 C469 1.387 . S
C470 C473 1.387 . S
H471 C467 0.950 . S
H472 C469 0.950 . S
C473 C464 1.390 . S
C473 H466 0.950 . S
C473 C470 1.387 . S
C474 C475 1.387 . S
C474 H478 0.950 . S
C474 C483 1.390 . S
C475 C474 1.387 . S
C475 C477 1.387 . S
H476 C483 0.950 . S
C477 C475 1.387 . S
C477 C479 1.390 . S
C477 H481 0.950 . S
H478 C474 0.950 . S
C479 C477 1.390 . S
C479 C480 1.387 . S
C479 H482 0.950 . S
C480 C479 1.387 . S
C480 C483 1.387 . S
H481 C477 0.950 . S
H482 C479 0.950 . S
C483 C474 1.390 . S
C483 H476 0.950 . S
C483 C480 1.387 . S
C484 C485 1.387 . S
C484 H488 0.950 . S
C484 C493 1.390 . S
C485 C484 1.387 . S
C485 C487 1.387 . S
H486 C493 0.950 . S
C487 C485 1.387 . S
C487 C489 1.390 . S
C487 H491 0.950 . S
H488 C484 0.950 . S
C489 C487 1.390 . S
C489 C490 1.387 . S
C489 H492 0.950 . S
C490 C489 1.387 . S
C490 C493 1.387 . S
H491 C487 0.950 . S
H492 C489 0.950 . S
C493 C484 1.390 . S
C493 H486 0.950 . S
C493 C490 1.387 . S
C494 C495 1.387 . S
C494 H498 0.950 . S
C494 C503 1.390 . S
C495 C494 1.387 . S
C495 C497 1.387 . S
H496 C503 0.950 . S
C497 C495 1.387 . S
C497 C499 1.390 . S
C497 H501 0.950 . S
H498 C494 0.950 . S
C499 C497 1.390 . S
C499 C500 1.387 . S
C499 H502 0.950 . S
C500 C499 1.387 . S
C500 C503 1.387 . S
H501 C497 0.950 . S
H502 C499 0.950 . S
C503 C494 1.390 . S
C503 H496 0.950 . S
C503 C500 1.387 . S
C504 C505 1.387 . S
C504 H508 0.950 . S
C504 C513 1.390 . S
C505 C504 1.387 . S
C505 C507 1.387 . S
H506 C513 0.950 . S
C507 C505 1.387 . S
C507 C509 1.390 . S
C507 H511 0.950 . S
H508 C504 0.950 . S
C509 C507 1.390 . S
C509 C510 1.387 . S
C509 H512 0.950 . S
C510 C509 1.387 . S
C510 C513 1.387 . S
H511 C507 0.950 . S
H512 C509 0.950 . S
C513 C504 1.390 . S
C513 H506 0.950 . S
C513 C510 1.387 . S
C514 C515 1.387 . S
C514 H518 0.950 . S
C514 C523 1.390 . S
C515 C514 1.387 . S
C515 C517 1.387 . S
H516 C523 0.950 . S
C517 C515 1.387 . S
C517 C519 1.390 . S
C517 H521 0.950 . S
H518 C514 0.950 . S
C519 C517 1.390 . S
C519 C520 1.387 . S
C519 H522 0.950 . S
C520 C519 1.387 . S
C520 C523 1.387 . S
H521 C517 0.950 . S
H522 C519 0.950 . S
C523 C514 1.390 . S
C523 H516 0.950 . S
C523 C520 1.387 . S
C524 C525 1.387 . S
C524 H528 0.950 . S
C524 C533 1.390 . S
C525 C524 1.387 . S
C525 C527 1.387 . S
H526 C533 0.950 . S
C527 C525 1.387 . S
C527 C529 1.390 . S
C527 H531 0.950 . S
H528 C524 0.950 . S
C529 C527 1.390 . S
C529 C530 1.387 . S
C529 H532 0.950 . S
C530 C529 1.387 . S
C530 C533 1.387 . S
H531 C527 0.950 . S
H532 C529 0.950 . S
C533 C524 1.390 . S
C533 H526 0.950 . S
C533 C530 1.387 . S
C534 C535 1.387 . S
C534 H538 0.950 . S
C534 C543 1.390 . S
C535 C534 1.387 . S
C535 C537 1.387 . S
H536 C543 0.950 . S
C537 C535 1.387 . S
C537 C539 1.390 . S
C537 H541 0.950 . S
H538 C534 0.950 . S
C539 C537 1.390 . S
C539 C540 1.387 . S
C539 H542 0.950 . S
C540 C539 1.387 . S
C540 C543 1.387 . S
H541 C537 0.950 . S
H542 C539 0.950 . S
C543 C534 1.390 . S
C543 H536 0.950 . S
C543 C540 1.387 . S
C544 C545 1.387 1_565 S
C544 H548 0.950 . S
C544 C553 1.390 . S
C545 C544 1.387 1_545 S
C545 C547 1.387 . S
H546 C553 0.950 . S
C547 C545 1.387 . S
C547 C549 1.390 . S
C547 H551 0.950 . S
H548 C544 0.950 . S
C549 C547 1.390 . S
C549 C550 1.387 1_545 S
C549 H552 0.950 . S
C550 C549 1.387 1_565 S
C550 C553 1.387 . S
H551 C547 0.950 . S
H552 C549 0.950 . S
C553 C544 1.390 . S
C553 H546 0.950 . S
C553 C550 1.387 . S
C554 C555 1.387 . S
C554 H558 0.950 . S
C554 C563 1.390 . S
C555 C554 1.387 . S
C555 C557 1.387 1_455 S
H556 C563 0.950 . S
C557 C555 1.387 1_655 S
C557 C559 1.390 . S
C557 H561 0.950 . S
H558 C554 0.950 . S
C559 C557 1.390 . S
C559 C560 1.387 . S
C559 H562 0.950 . S
C560 C559 1.387 . S
C560 C563 1.387 1_655 S
H561 C557 0.950 . S
H562 C559 0.950 . S
C563 C554 1.390 . S
C563 H556 0.950 . S
C563 C560 1.387 1_455 S
C564 C565 1.387 . S
C564 H568 0.950 . S
C564 C573 1.390 1_556 S
C565 C564 1.387 . S
C565 C567 1.387 . S
H566 C573 0.950 . S
C567 C565 1.387 . S
C567 C569 1.390 1_556 S
C567 H571 0.950 . S
H568 C564 0.950 . S
C569 C567 1.390 1_554 S
C569 C570 1.387 . S
C569 H572 0.950 . S
C570 C569 1.387 . S
C570 C573 1.387 . S
H571 C567 0.950 . S
H572 C569 0.950 . S
C573 C564 1.390 1_554 S
C573 H566 0.950 . S
C573 C570 1.387 . S
C574 C575 1.387 . S
C574 H578 0.950 . S
C574 C583 1.390 1_556 S
C575 C574 1.387 . S
C575 C577 1.387 1_565 S
H576 C583 0.950 . S
C577 C575 1.387 1_545 S
C577 C579 1.390 1_556 S
C577 H581 0.950 . S
H578 C574 0.950 . S
C579 C577 1.390 1_554 S
C579 C580 1.387 . S
C579 H582 0.950 . S
C580 C579 1.387 . S
C580 C583 1.387 1_545 S
H581 C577 0.950 . S
H582 C579 0.950 . S
C583 C574 1.390 1_554 S
C583 H576 0.950 . S
C583 C580 1.387 1_565 S
C584 C585 1.387 1_554 S
C584 H588 0.950 . S
C584 C593 1.390 1_455 S
C585 C584 1.387 1_556 S
C585 C587 1.387 . S
H586 C593 0.950 . S
C587 C585 1.387 . S
C587 C589 1.390 . S
C587 H591 0.950 . S
H588 C584 0.950 . S
C589 C587 1.390 . S
C589 C590 1.387 1_456 S
C589 H592 0.950 . S
C590 C589 1.387 1_654 S
C590 C593 1.387 . S
H591 C587 0.950 . S
H592 C589 0.950 . S
C593 C584 1.390 1_655 S
C593 H586 0.950 . S
C593 C590 1.387 . S
C235 C1 1.961 . S
C240 C183 1.965 . S
C245 C159 1.864 . S
C250 C16 1.861 . S
C255 C29 1.901 . S
C260 C170 1.941 . S
C265 C79 1.962 . S
C270 C27 1.963 . S
C275 C101 2.069 . S
C280 C3 1.915 . S
C285 C105 1.966 . S
C290 C14 1.968 . S
C295 C49 1.967 . S
C300 C144 2.094 . S
C305 C118 2.075 . S
C310 C57 1.921 . S
C315 C140 1.935 . S
C320 C68 2.084 . S
C325 C66 2.095 . S
C330 C205 1.967 . S
C335 C44 1.862 . S
C340 C213 1.863 . S
C345 C224 2.077 . S
C350 C62 1.923 . S
C355 C157 1.916 . S
C360 C107 1.893 . S
C365 C81 1.868 . S
C370 C172 1.870 . S
C375 C185 1.860 . S
C380 C96 2.034 . S
C385 C222 2.042 . S
C390 C120 2.061 . S
C395 C135 1.865 . S
C400 C200 1.864 . S
C405 C218 1.916 . S
C410 C146 2.066 . S
C415 C196 1.642 . S
C420 C10 1.642 . S
C425 C18 1.562 . S
C430 C211 1.563 . S
C435 C31 1.559 . S
C440 C226 1.581 . S
C445 C36 1.627 . S
C450 C153 1.644 . S
C455 C127 1.628 . S
C460 C5 1.601 . S
C465 C23 1.625 . S
C470 C131 1.626 . S
C475 C88 1.630 . S
C480 C40 1.631 . S
C485 C92 1.628 . S
C490 C55 1.602 . S
C495 C70 1.628 . S
C500 C114 1.612 . S
C505 C75 1.660 . S
C510 C192 1.644 . S
C515 C42 1.563 . S
C520 C161 1.564 . S
C525 C53 1.640 . S
C530 C179 1.641 . S
C535 C109 1.590 . S
C540 C231 1.614 . S
C545 C83 1.575 . S
C550 C198 1.574 . S
C555 C209 1.597 . S
C560 C94 1.609 . S
C565 C166 1.601 . S
C570 C122 1.611 . S
C575 C174 1.575 . S
C580 C133 1.575 . S
C585 C187 1.576 . S
C590 C148 1.598 . S
