# Generated by pormake.
# Topology afi, (4)-cn, num edge types: 1
# Building blocks:
#     Node 0, Type 0, BuildingBlock: UXUYUI_clean_sbu_0, # of connection points: 4
#     Node 1, Type 0, BuildingBlock: UXUYUI_clean_sbu_0, # of connection points: 4
#     Node 2, Type 0, BuildingBlock: UXUYUI_clean_sbu_0, # of connection points: 4
#     Node 3, Type 0, BuildingBlock: UXUYUI_clean_sbu_0, # of connection points: 4
#     Node 4, Type 0, BuildingBlock: UXUYUI_clean_sbu_0, # of connection points: 4
#     Node 5, Type 0, BuildingBlock: UXUYUI_clean_sbu_0, # of connection points: 4
#     Node 6, Type 0, BuildingBlock: UXUYUI_clean_sbu_0, # of connection points: 4
#     Node 7, Type 0, BuildingBlock: UXUYUI_clean_sbu_0, # of connection points: 4
#     Node 8, Type 0, BuildingBlock: UXUYUI_clean_sbu_0, # of connection points: 4
#     Node 9, Type 0, BuildingBlock: UXUYUI_clean_sbu_0, # of connection points: 4
#     Node 10, Type 0, BuildingBlock: UXUYUI_clean_sbu_0, # of connection points: 4
#     Node 11, Type 0, BuildingBlock: UXUYUI_clean_sbu_0, # of connection points: 4
#     Node 12, Type 0, BuildingBlock: UXUYUI_clean_sbu_0, # of connection points: 4
#     Node 13, Type 0, BuildingBlock: UXUYUI_clean_sbu_0, # of connection points: 4
#     Node 14, Type 0, BuildingBlock: UXUYUI_clean_sbu_0, # of connection points: 4
#     Node 15, Type 0, BuildingBlock: UXUYUI_clean_sbu_0, # of connection points: 4
#     Node 16, Type 0, BuildingBlock: UXUYUI_clean_sbu_0, # of connection points: 4
#     Node 17, Type 0, BuildingBlock: UXUYUI_clean_sbu_0, # of connection points: 4
#     Node 18, Type 0, BuildingBlock: UXUYUI_clean_sbu_0, # of connection points: 4
#     Node 19, Type 0, BuildingBlock: UXUYUI_clean_sbu_0, # of connection points: 4
#     Node 20, Type 0, BuildingBlock: UXUYUI_clean_sbu_0, # of connection points: 4
#     Node 21, Type 0, BuildingBlock: UXUYUI_clean_sbu_0, # of connection points: 4
#     Node 22, Type 0, BuildingBlock: UXUYUI_clean_sbu_0, # of connection points: 4
#     Node 23, Type 0, BuildingBlock: UXUYUI_clean_sbu_0, # of connection points: 4
#     Edge 24, Type (0, 0), BuildingBlock: XUDNAN_clean_linker_2, # of connection points: 2
#     Edge 25, Type (0, 0), BuildingBlock: XUDNAN_clean_linker_2, # of connection points: 2
#     Edge 26, Type (0, 0), BuildingBlock: XUDNAN_clean_linker_2, # of connection points: 2
#     Edge 27, Type (0, 0), BuildingBlock: XUDNAN_clean_linker_2, # of connection points: 2
#     Edge 28, Type (0, 0), BuildingBlock: XUDNAN_clean_linker_2, # of connection points: 2
#     Edge 29, Type (0, 0), BuildingBlock: XUDNAN_clean_linker_2, # of connection points: 2
#     Edge 30, Type (0, 0), BuildingBlock: XUDNAN_clean_linker_2, # of connection points: 2
#     Edge 31, Type (0, 0), BuildingBlock: XUDNAN_clean_linker_2, # of connection points: 2
#     Edge 32, Type (0, 0), BuildingBlock: XUDNAN_clean_linker_2, # of connection points: 2
#     Edge 33, Type (0, 0), BuildingBlock: XUDNAN_clean_linker_2, # of connection points: 2
#     Edge 34, Type (0, 0), BuildingBlock: XUDNAN_clean_linker_2, # of connection points: 2
#     Edge 35, Type (0, 0), BuildingBlock: XUDNAN_clean_linker_2, # of connection points: 2
#     Edge 36, Type (0, 0), BuildingBlock: XUDNAN_clean_linker_2, # of connection points: 2
#     Edge 37, Type (0, 0), BuildingBlock: XUDNAN_clean_linker_2, # of connection points: 2
#     Edge 38, Type (0, 0), BuildingBlock: XUDNAN_clean_linker_2, # of connection points: 2
#     Edge 39, Type (0, 0), BuildingBlock: XUDNAN_clean_linker_2, # of connection points: 2
#     Edge 40, Type (0, 0), BuildingBlock: XUDNAN_clean_linker_2, # of connection points: 2
#     Edge 41, Type (0, 0), BuildingBlock: XUDNAN_clean_linker_2, # of connection points: 2
#     Edge 42, Type (0, 0), BuildingBlock: XUDNAN_clean_linker_2, # of connection points: 2
#     Edge 43, Type (0, 0), BuildingBlock: XUDNAN_clean_linker_2, # of connection points: 2
#     Edge 44, Type (0, 0), BuildingBlock: XUDNAN_clean_linker_2, # of connection points: 2
#     Edge 45, Type (0, 0), BuildingBlock: XUDNAN_clean_linker_2, # of connection points: 2
#     Edge 46, Type (0, 0), BuildingBlock: XUDNAN_clean_linker_2, # of connection points: 2
#     Edge 47, Type (0, 0), BuildingBlock: XUDNAN_clean_linker_2, # of connection points: 2
#     Edge 48, Type (0, 0), BuildingBlock: XUDNAN_clean_linker_2, # of connection points: 2
#     Edge 49, Type (0, 0), BuildingBlock: XUDNAN_clean_linker_2, # of connection points: 2
#     Edge 50, Type (0, 0), BuildingBlock: XUDNAN_clean_linker_2, # of connection points: 2
#     Edge 51, Type (0, 0), BuildingBlock: XUDNAN_clean_linker_2, # of connection points: 2
#     Edge 52, Type (0, 0), BuildingBlock: XUDNAN_clean_linker_2, # of connection points: 2
#     Edge 53, Type (0, 0), BuildingBlock: XUDNAN_clean_linker_2, # of connection points: 2
#     Edge 54, Type (0, 0), BuildingBlock: XUDNAN_clean_linker_2, # of connection points: 2
#     Edge 55, Type (0, 0), BuildingBlock: XUDNAN_clean_linker_2, # of connection points: 2
#     Edge 56, Type (0, 0), BuildingBlock: XUDNAN_clean_linker_2, # of connection points: 2
#     Edge 57, Type (0, 0), BuildingBlock: XUDNAN_clean_linker_2, # of connection points: 2
#     Edge 58, Type (0, 0), BuildingBlock: XUDNAN_clean_linker_2, # of connection points: 2
#     Edge 59, Type (0, 0), BuildingBlock: XUDNAN_clean_linker_2, # of connection points: 2
#     Edge 60, Type (0, 0), BuildingBlock: XUDNAN_clean_linker_2, # of connection points: 2
#     Edge 61, Type (0, 0), BuildingBlock: XUDNAN_clean_linker_2, # of connection points: 2
#     Edge 62, Type (0, 0), BuildingBlock: XUDNAN_clean_linker_2, # of connection points: 2
#     Edge 63, Type (0, 0), BuildingBlock: XUDNAN_clean_linker_2, # of connection points: 2
#     Edge 64, Type (0, 0), BuildingBlock: XUDNAN_clean_linker_2, # of connection points: 2
#     Edge 65, Type (0, 0), BuildingBlock: XUDNAN_clean_linker_2, # of connection points: 2
#     Edge 66, Type (0, 0), BuildingBlock: XUDNAN_clean_linker_2, # of connection points: 2
#     Edge 67, Type (0, 0), BuildingBlock: XUDNAN_clean_linker_2, # of connection points: 2
#     Edge 68, Type (0, 0), BuildingBlock: XUDNAN_clean_linker_2, # of connection points: 2
#     Edge 69, Type (0, 0), BuildingBlock: XUDNAN_clean_linker_2, # of connection points: 2
#     Edge 70, Type (0, 0), BuildingBlock: XUDNAN_clean_linker_2, # of connection points: 2
#     Edge 71, Type (0, 0), BuildingBlock: XUDNAN_clean_linker_2, # of connection points: 2
# Relax obj value: 0.134
# Max RMSD: 0.127
# Mean RMSD: 0.126
data_MOF--net-afi--node1-UXUYUI_clean_sbu_0--edge1-XUDNAN_clean_linker_2
_symmetry_space_group_name_H-M    P1
_symmetry_Int_Tables_number       1
_symmetry_cell_setting            triclinic
loop_
_symmetry_equiv_pos_as_xyz
'x, y, z'
_cell_length_a     96.931265
_cell_length_b     96.930681
_cell_length_c     60.328168
_cell_angle_alpha  90.008182
_cell_angle_beta   90.001643
_cell_angle_gamma 120.01297
loop_
_atom_site_label
_atom_site_type_symbol
_atom_site_fract_x
_atom_site_fract_y
_atom_site_fract_z
_atom_type_partial_charge
Li0 Li 0.47029 0.12316 0.19241 0.0
Li1 Li 0.44221 0.1062 0.1948 0.0
Li2 Li 0.45242 0.11875 0.15991 0.0
Li3 Li 0.4512 0.13412 0.1929 0.0
C4 C 0.46674 0.10052 0.16153 0.0
N5 N 0.48646 0.09535 0.13385 0.0
C6 C 0.46425 0.08513 0.15855 0.0
C7 C 0.4793 0.11329 0.15037 0.0
C8 C 0.47434 0.08277 0.14451 0.0
C9 C 0.48912 0.11042 0.13646 0.0
C10 C 0.45382 0.11619 0.23643 0.0
C11 C 0.44407 0.11293 0.27391 0.0
N12 N 0.44842 0.10176 0.27743 0.0
C13 C 0.45831 0.10478 0.24043 0.0
C14 C 0.44673 0.12039 0.25328 0.0
C15 C 0.45542 0.09757 0.26127 0.0
C16 C 0.49989 0.14185 0.21316 0.0
N17 N 0.49075 0.12764 0.20288 0.0
C18 C 0.5105 0.12021 0.20945 0.0
C19 C 0.49566 0.11676 0.20121 0.0
C20 C 0.5203 0.13483 0.22013 0.0
C21 C 0.51473 0.1457 0.22198 0.0
H22 H 0.49554 0.15014 0.21472 0.0
H23 H 0.48804 0.10531 0.19367 0.0
C24 C 0.42588 0.07296 0.20183 0.0
N25 N 0.4267 0.08667 0.20885 0.0
C26 C 0.41608 0.05858 0.2127 0.0
C27 C 0.40759 0.07253 0.23735 0.0
C28 C 0.41763 0.08665 0.22608 0.0
C29 C 0.40691 0.05825 0.23097 0.0
H30 H 0.43317 0.07326 0.18811 0.0
H31 H 0.41844 0.09767 0.23142 0.0
C32 C 0.47772 0.1541 0.16409 0.0
N33 N 0.49419 0.18441 0.14639 0.0
C34 C 0.46943 0.16106 0.15482 0.0
C35 C 0.49436 0.16252 0.16428 0.0
C36 C 0.47798 0.17641 0.146 0.0
C37 C 0.50247 0.17783 0.15525 0.0
C38 C 0.41768 0.1075 0.1797 0.0
C39 C 0.40872 0.09355 0.16747 0.0
C40 C 0.41036 0.11148 0.19652 0.0
C41 C 0.39257 0.08375 0.17232 0.0
C42 C 0.39417 0.10139 0.20083 0.0
N43 N 0.38568 0.08785 0.18876 0.0
C44 C 0.44144 0.1024 0.1194 0.0
C45 C 0.46073 0.12966 0.115 0.0
C46 C 0.44068 0.10009 0.09647 0.0
N47 N 0.45131 0.11701 0.1282 0.0
C48 C 0.46037 0.12789 0.09199 0.0
C49 C 0.45031 0.11292 0.08241 0.0
H50 H 0.43437 0.09244 0.13025 0.0
H51 H 0.46885 0.14105 0.12225 0.0
C52 C 0.4595 0.16272 0.21627 0.0
N53 N 0.44916 0.15195 0.20145 0.0
C54 C 0.45852 0.17624 0.2217 0.0
C55 C 0.43613 0.16714 0.19674 0.0
C56 C 0.43762 0.15391 0.19169 0.0
C57 C 0.44676 0.17866 0.21176 0.0
H58 H 0.46868 0.16093 0.22359 0.0
H59 H 0.42968 0.14526 0.17974 0.0
O60 O 0.45676 0.1029 0.17509 0.0
O61 O 0.45629 0.12318 0.21606 0.0
O62 O 0.46961 0.13909 0.17283 0.0
O63 O 0.43356 0.11716 0.17536 0.0
H64 H 0.45463 0.07509 0.16699 0.0
H65 H 0.48154 0.12529 0.15236 0.0
H66 H 0.47253 0.07092 0.14209 0.0
H67 H 0.49886 0.12019 0.12775 0.0
H68 H 0.43852 0.11599 0.2871 0.0
H69 H 0.46375 0.10137 0.22748 0.0
H70 H 0.44322 0.12923 0.25037 0.0
H71 H 0.45871 0.08863 0.26458 0.0
H72 H 0.51424 0.11147 0.20735 0.0
H73 H 0.5216 0.15696 0.23049 0.0
H74 H 0.41616 0.04797 0.2073 0.0
H75 H 0.40056 0.07285 0.25109 0.0
H76 H 0.45655 0.15458 0.15421 0.0
H77 H 0.50094 0.15722 0.17117 0.0
H78 H 0.47173 0.18195 0.13877 0.0
H79 H 0.51536 0.18447 0.15524 0.0
H80 H 0.41419 0.09025 0.15448 0.0
H81 H 0.41715 0.12207 0.20644 0.0
H82 H 0.3855 0.07289 0.16304 0.0
H83 H 0.38838 0.10428 0.21388 0.0
H84 H 0.43268 0.08835 0.08986 0.0
H85 H 0.46826 0.13804 0.08187 0.0
H86 H 0.46712 0.18488 0.23312 0.0
H87 H 0.42671 0.16831 0.18891 0.0
Li88 Li 0.34908 0.47172 0.19277 0.0
Li89 Li 0.33827 0.44282 0.19597 0.0
Li90 Li 0.33455 0.45441 0.16079 0.0
Li91 Li 0.3194 0.45217 0.19459 0.0
C92 C 0.36908 0.46554 0.16464 0.0
N93 N 0.39829 0.48096 0.14355 0.0
C94 C 0.38101 0.4621 0.17037 0.0
C95 C 0.37194 0.47667 0.14797 0.0
C96 C 0.39572 0.47007 0.15959 0.0
C97 C 0.3868 0.48436 0.13754 0.0
C98 C 0.33893 0.45247 0.23713 0.0
C99 C 0.33068 0.43297 0.26639 0.0
N100 N 0.34479 0.44222 0.2769 0.0
C101 C 0.35331 0.46183 0.24828 0.0
C102 C 0.32746 0.43798 0.24631 0.0
C103 C 0.35605 0.45643 0.26836 0.0
C104 C 0.36208 0.50359 0.20662 0.0
N105 N 0.36572 0.49205 0.20209 0.0
C106 C 0.39288 0.50936 0.2124 0.0
C107 C 0.38072 0.4946 0.205 0.0
C108 C 0.38952 0.52159 0.21713 0.0
C109 C 0.37385 0.51853 0.21414 0.0
H110 H 0.34997 0.50113 0.20455 0.0
H111 H 0.38324 0.48511 0.20188 0.0
C112 C 0.33243 0.41182 0.20831 0.0
N113 N 0.34312 0.42772 0.20863 0.0
C114 C 0.33599 0.40113 0.21888 0.0
C115 C 0.36155 0.42336 0.22949 0.0
C116 C 0.3575 0.4336 0.21879 0.0
C117 C 0.35068 0.40697 0.22965 0.0
H118 H 0.32109 0.40747 0.20008 0.0
H119 H 0.36571 0.4463 0.21893 0.0
C120 C 0.3308 0.48217 0.1618 0.0
N121 N 0.32958 0.50451 0.13465 0.0
C122 C 0.31612 0.48062 0.15604 0.0
C123 C 0.34487 0.49524 0.15405 0.0
C124 C 0.31575 0.492 0.14222 0.0
C125 C 0.344 0.50636 0.14026 0.0
C126 C 0.3032 0.42422 0.17402 0.0
C127 C 0.29583 0.42364 0.15386 0.0
C128 C 0.29421 0.41421 0.19139 0.0
C129 C 0.27949 0.4131 0.15147 0.0
C130 C 0.2779 0.40386 0.18836 0.0
N131 N 0.27095 0.40353 0.16864 0.0
C132 C 0.3414 0.44458 0.12093 0.0
C133 C 0.32916 0.46017 0.11533 0.0
C134 C 0.34317 0.44364 0.09811 0.0
N135 N 0.33472 0.45295 0.1291 0.0
C136 C 0.33077 0.45964 0.09237 0.0
C137 C 0.33806 0.45146 0.08344 0.0
H138 H 0.34561 0.43882 0.13224 0.0
H139 H 0.32365 0.46655 0.12204 0.0
C140 C 0.2994 0.45098 0.2289 0.0
N141 N 0.29978 0.44919 0.20661 0.0
C142 C 0.28554 0.44865 0.23925 0.0
C143 C 0.27269 0.44317 0.20345 0.0
C144 C 0.28683 0.44552 0.19378 0.0
C145 C 0.2719 0.44457 0.22653 0.0
H146 H 0.3099 0.45425 0.23873 0.0
H147 H 0.28742 0.4443 0.17606 0.0
O148 O 0.35464 0.4579 0.17518 0.0
O149 O 0.33612 0.45745 0.2173 0.0
O150 O 0.33136 0.47113 0.17532 0.0
O151 O 0.31916 0.43447 0.17668 0.0
H152 H 0.37896 0.45339 0.18304 0.0
H153 H 0.36276 0.47921 0.14295 0.0
H154 H 0.40509 0.46759 0.16396 0.0
H155 H 0.38917 0.49301 0.12462 0.0
H156 H 0.32196 0.42172 0.27359 0.0
H157 H 0.36229 0.4731 0.24145 0.0
H158 H 0.31627 0.43061 0.2379 0.0
H159 H 0.36715 0.46352 0.27713 0.0
H160 H 0.40478 0.51118 0.21428 0.0
H161 H 0.37061 0.52746 0.21796 0.0
H162 H 0.32739 0.3885 0.21877 0.0
H163 H 0.37296 0.42818 0.23777 0.0
H164 H 0.30513 0.47068 0.16201 0.0
H165 H 0.35635 0.49689 0.15875 0.0
H166 H 0.30446 0.49087 0.13751 0.0
H167 H 0.35479 0.51649 0.13408 0.0
H168 H 0.30262 0.43129 0.14024 0.0
H169 H 0.29974 0.41451 0.20709 0.0
H170 H 0.27361 0.41256 0.13599 0.0
H171 H 0.27078 0.39611 0.2017 0.0
H172 H 0.34854 0.4369 0.09206 0.0
H173 H 0.32673 0.46594 0.0818 0.0
H174 H 0.28555 0.45017 0.25704 0.0
H175 H 0.26242 0.44 0.19305 0.0
Li176 Li 0.87739 0.34815 0.19357 0.0
Li177 Li 0.89609 0.33699 0.19553 0.0
Li178 Li 0.87982 0.33355 0.16142 0.0
Li179 Li 0.867 0.31824 0.19542 0.0
C180 C 0.90646 0.36476 0.16051 0.0
N181 N 0.92626 0.38691 0.12966 0.0
C182 C 0.92225 0.36825 0.15832 0.0
C183 C 0.90079 0.3726 0.14711 0.0
C184 C 0.93206 0.37948 0.1426 0.0
C185 C 0.91097 0.38373 0.13157 0.0
C186 C 0.8816 0.33346 0.23942 0.0
C187 C 0.88366 0.31842 0.26978 0.0
N188 N 0.88556 0.33011 0.28405 0.0
C189 C 0.8835 0.3453 0.25437 0.0
C190 C 0.88162 0.31988 0.24715 0.0
C191 C 0.88552 0.3434 0.27688 0.0
C192 C 0.86108 0.36278 0.21323 0.0
N193 N 0.87458 0.36532 0.20274 0.0
C194 C 0.88513 0.39346 0.20353 0.0
C195 C 0.88661 0.38028 0.1982 0.0
C196 C 0.87127 0.39125 0.21405 0.0
C197 C 0.85921 0.37571 0.21925 0.0
H198 H 0.85174 0.35073 0.21673 0.0
H199 H 0.89736 0.382 0.19034 0.0
C200 C 0.92543 0.33719 0.19451 0.0
N201 N 0.91621 0.3412 0.2068 0.0
C202 C 0.94065 0.34111 0.20185 0.0
C203 C 0.93633 0.35267 0.23474 0.0
C204 C 0.92137 0.34883 0.22654 0.0
C205 C 0.94637 0.34906 0.22222 0.0
H206 H 0.92111 0.33131 0.1787 0.0
H207 H 0.914 0.3522 0.23583 0.0
C208 C 0.84825 0.33086 0.16522 0.0
N209 N 0.82409 0.3316 0.14196 0.0
C210 C 0.83345 0.31701 0.16292 0.0
C211 C 0.85072 0.34511 0.15593 0.0
C212 C 0.8214 0.31762 0.15102 0.0
C213 C 0.83837 0.34524 0.14418 0.0
C214 C 0.88377 0.30382 0.17582 0.0
C215 C 0.87815 0.29432 0.15685 0.0
C216 C 0.88947 0.29891 0.19365 0.0
C217 C 0.87802 0.27984 0.15623 0.0
C218 C 0.88916 0.28437 0.19238 0.0
N219 N 0.88347 0.2752 0.17387 0.0
C220 C 0.89144 0.33998 0.11617 0.0
C221 C 0.86389 0.32198 0.12101 0.0
C222 C 0.88957 0.33931 0.09312 0.0
N223 N 0.87857 0.33183 0.12963 0.0
C224 C 0.86147 0.32094 0.09814 0.0
C225 C 0.87433 0.32998 0.08387 0.0
H226 H 0.90314 0.34719 0.12322 0.0
H227 H 0.85399 0.31495 0.1319 0.0
C228 C 0.84359 0.2974 0.22641 0.0
N229 N 0.85007 0.2984 0.20607 0.0
C230 C 0.83129 0.28279 0.2342 0.0
C231 C 0.83232 0.27064 0.19973 0.0
C232 C 0.84447 0.28547 0.19256 0.0
C233 C 0.82565 0.26913 0.22088 0.0
H234 H 0.84796 0.30793 0.23663 0.0
H235 H 0.84935 0.28669 0.17613 0.0
O236 O 0.89671 0.35382 0.17587 0.0
O237 O 0.87964 0.33518 0.21736 0.0
O238 O 0.86018 0.33041 0.1767 0.0
O239 O 0.88403 0.31804 0.17663 0.0
H240 H 0.92688 0.36239 0.16863 0.0
H241 H 0.88865 0.3701 0.14861 0.0
H242 H 0.94429 0.38228 0.14071 0.0
H243 H 0.90671 0.38985 0.12104 0.0
H244 H 0.88368 0.30796 0.276 0.0
H245 H 0.88347 0.35586 0.24862 0.0
H246 H 0.8799 0.31051 0.23584 0.0
H247 H 0.88705 0.35248 0.28865 0.0
H248 H 0.89477 0.4053 0.19957 0.0
H249 H 0.84835 0.37359 0.22736 0.0
H250 H 0.94797 0.33832 0.19133 0.0
H251 H 0.93997 0.3585 0.2507 0.0
H252 H 0.83134 0.30589 0.17012 0.0
H253 H 0.862 0.35597 0.15787 0.0
H254 H 0.80991 0.30697 0.14899 0.0
H255 H 0.84012 0.35619 0.13686 0.0
H256 H 0.87384 0.29804 0.14283 0.0
H257 H 0.89422 0.30631 0.20822 0.0
H258 H 0.8736 0.2723 0.14173 0.0
H259 H 0.8935 0.2804 0.20609 0.0
H260 H 0.89985 0.34637 0.08274 0.0
H261 H 0.8496 0.31319 0.09171 0.0
H262 H 0.82646 0.28214 0.25061 0.0
H263 H 0.82806 0.26049 0.18872 0.0
Li264 Li 0.5609 0.8959 0.19275 0.0
Li265 Li 0.53178 0.87887 0.19124 0.0
Li266 Li 0.54945 0.86656 0.1946 0.0
Li267 Li 0.54754 0.87866 0.15948 0.0
C268 C 0.55026 0.88672 0.23658 0.0
N269 N 0.55776 0.89878 0.27916 0.0
C270 C 0.54592 0.89767 0.24399 0.0
C271 C 0.55851 0.88196 0.25082 0.0
C272 C 0.5498 0.90361 0.26557 0.0
C273 C 0.56217 0.88817 0.27228 0.0
C274 C 0.53801 0.90492 0.16613 0.0
C275 C 0.51853 0.90762 0.14463 0.0
N276 N 0.52231 0.92127 0.15576 0.0
C277 C 0.54179 0.91903 0.17726 0.0
C278 C 0.52636 0.89921 0.14959 0.0
C279 C 0.53369 0.9271 0.17182 0.0
C280 C 0.58209 0.92831 0.18616 0.0
N281 N 0.57777 0.91659 0.20153 0.0
C282 C 0.59548 0.93552 0.22811 0.0
C283 C 0.58455 0.91986 0.22202 0.0
C284 C 0.59969 0.94792 0.21283 0.0
C285 C 0.59307 0.94411 0.19146 0.0
H286 H 0.57664 0.92541 0.16991 0.0
H287 H 0.5814 0.91042 0.23384 0.0
C288 C 0.49925 0.86109 0.20188 0.0
N289 N 0.5118 0.87622 0.20107 0.0
C290 C 0.48466 0.85804 0.21067 0.0
C291 C 0.49606 0.88622 0.21748 0.0
C292 C 0.51042 0.88872 0.20852 0.0
C293 C 0.48298 0.87068 0.21892 0.0
H294 H 0.50068 0.8513 0.19618 0.0
H295 H 0.52057 0.9006 0.20824 0.0
C296 C 0.58084 0.88207 0.1792 0.0
N297 N 0.60841 0.88113 0.18715 0.0
C298 C 0.58809 0.8783 0.16206 0.0
C299 C 0.58758 0.88536 0.20037 0.0
C300 C 0.60203 0.87789 0.16642 0.0
C301 C 0.60154 0.88483 0.20406 0.0
C302 C 0.52069 0.8488 0.16094 0.0
C303 C 0.52161 0.83497 0.15809 0.0
C304 C 0.5097 0.85094 0.14862 0.0
C305 C 0.51168 0.82361 0.1426 0.0
C306 C 0.49998 0.8393 0.1333 0.0
N307 N 0.50117 0.82601 0.13061 0.0
C308 C 0.54364 0.84374 0.2272 0.0
C309 C 0.55901 0.84301 0.19714 0.0
C310 C 0.54491 0.83173 0.23811 0.0
N311 N 0.551 0.84941 0.2074 0.0
C312 C 0.56037 0.83078 0.20733 0.0
C313 C 0.5535 0.82522 0.22827 0.0
H314 H 0.53697 0.84873 0.23468 0.0
H315 H 0.56441 0.84745 0.18112 0.0
C316 C 0.55102 0.8893 0.11464 0.0
N317 N 0.5487 0.87705 0.12805 0.0
C318 C 0.55245 0.88827 0.0917 0.0
C319 C 0.54902 0.86202 0.09684 0.0
C320 C 0.54794 0.86368 0.11964 0.0
C321 C 0.55145 0.87446 0.08243 0.0
H322 H 0.55203 0.9 0.12178 0.0
H323 H 0.54665 0.85434 0.13068 0.0
O324 O 0.54643 0.88062 0.21558 0.0
O325 O 0.54587 0.89689 0.17116 0.0
O326 O 0.56703 0.88221 0.1753 0.0
O327 O 0.53037 0.86007 0.17595 0.0
H328 H 0.53978 0.90167 0.23313 0.0
H329 H 0.56228 0.87375 0.24529 0.0
H330 H 0.54651 0.91211 0.2715 0.0
H331 H 0.56857 0.88462 0.28343 0.0
H332 H 0.50946 0.90332 0.13188 0.0
H333 H 0.5507 0.92357 0.19022 0.0
H334 H 0.52346 0.88845 0.14059 0.0
H335 H 0.53641 0.93797 0.1804 0.0
H336 H 0.60053 0.93791 0.24463 0.0
H337 H 0.59591 0.95331 0.1792 0.0
H338 H 0.47486 0.84588 0.21122 0.0
H339 H 0.49541 0.8963 0.22395 0.0
H340 H 0.58293 0.87564 0.14561 0.0
H341 H 0.58201 0.88813 0.21382 0.0
H342 H 0.60776 0.87495 0.15334 0.0
H343 H 0.60688 0.88732 0.22038 0.0
H344 H 0.52999 0.8331 0.16762 0.0
H345 H 0.50864 0.86143 0.15096 0.0
H346 H 0.51232 0.8129 0.1401 0.0
H347 H 0.49145 0.84083 0.12359 0.0
H348 H 0.53921 0.82755 0.25408 0.0
H349 H 0.56705 0.82601 0.1992 0.0
H350 H 0.55466 0.89833 0.08145 0.0
H351 H 0.54793 0.85104 0.09065 0.0
Li352 Li 0.65398 0.53066 0.1936 0.0
Li353 Li 0.66478 0.55937 0.19679 0.0
Li354 Li 0.66824 0.54772 0.16137 0.0
Li355 Li 0.68381 0.54989 0.19495 0.0
C356 C 0.63351 0.53556 0.16654 0.0
N357 N 0.60364 0.51765 0.14788 0.0
C358 C 0.62088 0.53753 0.17367 0.0
C359 C 0.63099 0.52465 0.14971 0.0
C360 C 0.60585 0.5283 0.16411 0.0
C361 C 0.6158 0.51567 0.14053 0.0
C362 C 0.66631 0.55091 0.2381 0.0
C363 C 0.67836 0.5703 0.26734 0.0
N364 N 0.66423 0.56331 0.27837 0.0
C365 C 0.65194 0.54382 0.2498 0.0
C366 C 0.67967 0.56417 0.24699 0.0
C367 C 0.65112 0.5503 0.2701 0.0
C368 C 0.63933 0.49768 0.20306 0.0
N369 N 0.6371 0.51045 0.20289 0.0
C370 C 0.61052 0.49448 0.21647 0.0
C371 C 0.62313 0.50917 0.20966 0.0
C372 C 0.61235 0.48098 0.21649 0.0
C373 C 0.62704 0.48275 0.20975 0.0
H374 H 0.65068 0.4991 0.19809 0.0
H375 H 0.6218 0.51959 0.20987 0.0
C376 C 0.6705 0.59065 0.20601 0.0
N377 N 0.66014 0.57483 0.20874 0.0
C378 C 0.6666 0.6019 0.21362 0.0
C379 C 0.64145 0.58036 0.22675 0.0
C380 C 0.64588 0.56955 0.21898 0.0
C381 C 0.65181 0.59681 0.22393 0.0
H382 H 0.68167 0.59456 0.19755 0.0
H383 H 0.63778 0.5569 0.22071 0.0
C384 C 0.67354 0.52122 0.16141 0.0
N385 N 0.67797 0.50155 0.1327 0.0
C386 C 0.6889 0.52415 0.15676 0.0
C387 C 0.66042 0.50813 0.15172 0.0
C388 C 0.6909 0.51411 0.14213 0.0
C389 C 0.66291 0.49838 0.13718 0.0
C390 C 0.69909 0.57933 0.1744 0.0
C391 C 0.70625 0.58185 0.15354 0.0
C392 C 0.70772 0.58916 0.19213 0.0
C393 C 0.722 0.59406 0.15084 0.0
C394 C 0.72345 0.60123 0.18877 0.0
N395 N 0.73021 0.60341 0.16837 0.0
C396 C 0.66074 0.55679 0.12123 0.0
C397 C 0.67697 0.54514 0.11638 0.0
C398 C 0.6609 0.55942 0.09845 0.0
N399 N 0.66869 0.54975 0.12974 0.0
C400 C 0.67738 0.54747 0.09347 0.0
C401 C 0.66936 0.55481 0.08425 0.0
H402 H 0.65439 0.56049 0.13221 0.0
H403 H 0.68359 0.54001 0.12345 0.0
C404 C 0.7039 0.54723 0.22648 0.0
N405 N 0.70365 0.55272 0.20581 0.0
C406 C 0.71812 0.54924 0.23537 0.0
C407 C 0.73156 0.56245 0.20153 0.0
C408 C 0.71705 0.55991 0.19314 0.0
C409 C 0.7322 0.55714 0.22292 0.0
H410 H 0.69305 0.54135 0.23612 0.0
H411 H 0.71651 0.56365 0.17648 0.0
O412 O 0.64826 0.54437 0.17592 0.0
O413 O 0.66729 0.54489 0.21805 0.0
O414 O 0.67138 0.53091 0.17577 0.0
O415 O 0.6837 0.56739 0.17734 0.0
H416 H 0.62262 0.54602 0.18654 0.0
H417 H 0.64069 0.52322 0.14368 0.0
H418 H 0.59594 0.52963 0.16958 0.0
H419 H 0.61369 0.50715 0.12752 0.0
H420 H 0.68859 0.58061 0.27438 0.0
H421 H 0.64151 0.5335 0.24319 0.0
H422 H 0.69092 0.56965 0.23828 0.0
H423 H 0.64005 0.54501 0.27927 0.0
H424 H 0.5994 0.49368 0.22139 0.0
H425 H 0.6291 0.47275 0.2099 0.0
H426 H 0.67505 0.61444 0.21129 0.0
H427 H 0.62982 0.57582 0.23423 0.0
H428 H 0.69918 0.53414 0.16421 0.0
H429 H 0.64842 0.50542 0.15553 0.0
H430 H 0.70273 0.51631 0.13827 0.0
H431 H 0.65286 0.48824 0.12952 0.0
H432 H 0.69974 0.57441 0.13961 0.0
H433 H 0.70235 0.58745 0.20834 0.0
H434 H 0.72771 0.5961 0.13482 0.0
H435 H 0.73029 0.60887 0.20237 0.0
H436 H 0.65444 0.565 0.09203 0.0
H437 H 0.68427 0.54398 0.08317 0.0
H438 H 0.71818 0.54498 0.25195 0.0
H439 H 0.74215 0.56838 0.19132 0.0
Li440 Li 0.12198 0.66818 0.1612 0.0
Li441 Li 0.13408 0.68403 0.19519 0.0
Li442 Li 0.12388 0.65423 0.19426 0.0
Li443 Li 0.10513 0.66429 0.19535 0.0
C444 C 0.1529 0.67289 0.16298 0.0
N445 N 0.17604 0.67525 0.13397 0.0
C446 C 0.16639 0.68768 0.15886 0.0
C447 C 0.15128 0.65927 0.15262 0.0
C448 C 0.17792 0.68865 0.14406 0.0
C449 C 0.16308 0.66071 0.13794 0.0
C450 C 0.11628 0.69715 0.17588 0.0
C451 C 0.11035 0.71579 0.19387 0.0
N452 N 0.11484 0.72489 0.17522 0.0
C453 C 0.12066 0.70658 0.1568 0.0
C454 C 0.11095 0.70169 0.1945 0.0
C455 C 0.11992 0.72061 0.15683 0.0
C456 C 0.1107 0.65948 0.11666 0.0
N457 N 0.12296 0.66994 0.12966 0.0
C458 C 0.13734 0.68496 0.09787 0.0
C459 C 0.13605 0.68258 0.12074 0.0
C460 C 0.12483 0.67449 0.08391 0.0
C461 C 0.11138 0.66154 0.09363 0.0
H462 H 0.10025 0.64972 0.1242 0.0
H463 H 0.1454 0.69101 0.13145 0.0
C464 C 0.15882 0.70548 0.22417 0.0
N465 N 0.15105 0.70421 0.20483 0.0
C466 C 0.17242 0.71987 0.2299 0.0
C467 C 0.16947 0.7314 0.196 0.0
C468 C 0.15608 0.71681 0.19085 0.0
C469 C 0.17808 0.73303 0.21553 0.0
H470 H 0.15477 0.69518 0.23479 0.0
H471 H 0.15006 0.71539 0.17526 0.0
C472 C 0.09761 0.63235 0.16969 0.0
N473 N 0.08256 0.60029 0.15942 0.0
C474 C 0.08346 0.62163 0.1804 0.0
C475 C 0.10396 0.62681 0.1535 0.0
C476 C 0.07607 0.60545 0.17506 0.0
C477 C 0.09622 0.61055 0.14861 0.0
C478 C 0.11757 0.6685 0.23904 0.0
C479 C 0.11223 0.65547 0.25333 0.0
C480 C 0.11914 0.68279 0.24685 0.0
C481 C 0.10816 0.65684 0.27511 0.0
C482 C 0.11497 0.68369 0.26875 0.0
N483 N 0.10959 0.67079 0.2823 0.0
C484 C 0.1426 0.64042 0.20595 0.0
C485 C 0.11506 0.62432 0.21373 0.0
C486 C 0.14568 0.62901 0.2152 0.0
N487 N 0.12747 0.63787 0.20533 0.0
C488 C 0.11756 0.61252 0.22291 0.0
C489 C 0.13306 0.61486 0.22388 0.0
H490 H 0.15232 0.65144 0.19964 0.0
H491 H 0.10325 0.62283 0.21385 0.0
C492 C 0.07604 0.66453 0.19345 0.0
N493 N 0.08434 0.65909 0.20517 0.0
C494 C 0.06019 0.65949 0.1988 0.0
C495 C 0.06176 0.64351 0.22836 0.0
C496 C 0.07754 0.6488 0.22238 0.0
C497 C 0.05278 0.64867 0.2163 0.0
H498 H 0.08158 0.67241 0.17951 0.0
H499 H 0.08413 0.64412 0.23084 0.0
O500 O 0.14148 0.67174 0.17738 0.0
O501 O 0.11694 0.68338 0.1761 0.0
O502 O 0.105 0.64822 0.17472 0.0
O503 O 0.12169 0.66739 0.21771 0.0
H504 H 0.16789 0.69833 0.16689 0.0
H505 H 0.14111 0.64769 0.15602 0.0
H506 H 0.18838 0.70003 0.14059 0.0
H507 H 0.16196 0.65027 0.12976 0.0
H508 H 0.10627 0.71946 0.20818 0.0
H509 H 0.1247 0.70315 0.14218 0.0
H510 H 0.10713 0.69432 0.20919 0.0
H511 H 0.12338 0.72809 0.14223 0.0
H512 H 0.14806 0.69498 0.09128 0.0
H513 H 0.10131 0.6533 0.08368 0.0
H514 H 0.17875 0.72045 0.24497 0.0
H515 H 0.17318 0.74122 0.18453 0.0
H516 H 0.07829 0.62573 0.19281 0.0
H517 H 0.11468 0.63499 0.14468 0.0
H518 H 0.06517 0.597 0.18333 0.0
H519 H 0.10103 0.60609 0.13616 0.0
H520 H 0.11113 0.64439 0.2476 0.0
H521 H 0.12369 0.69312 0.23621 0.0
H522 H 0.10389 0.64681 0.2863 0.0
H523 H 0.11608 0.69466 0.275 0.0
H524 H 0.1578 0.63126 0.21561 0.0
H525 H 0.10756 0.60193 0.22983 0.0
H526 H 0.05372 0.66381 0.18911 0.0
H527 H 0.05643 0.63491 0.24163 0.0
Li528 Li 0.86628 0.54868 0.313 0.0
Li529 Li 0.88055 0.54645 0.34512 0.0
Li530 Li 0.89492 0.55848 0.30985 0.0
Li531 Li 0.87669 0.52985 0.31203 0.0
C532 C 0.88737 0.58129 0.32384 0.0
N533 N 0.89443 0.61152 0.31114 0.0
C534 C 0.89407 0.59385 0.33903 0.0
C535 C 0.88422 0.5841 0.30222 0.0
C536 C 0.89757 0.60906 0.33228 0.0
C537 C 0.88788 0.59946 0.2961 0.0
C538 C 0.84686 0.52561 0.34415 0.0
C539 C 0.821 0.50607 0.35788 0.0
N540 N 0.81998 0.51776 0.36894 0.0
C541 C 0.84558 0.53744 0.35562 0.0
C542 C 0.8345 0.5098 0.34523 0.0
C543 C 0.83188 0.53322 0.36807 0.0
C544 C 0.83967 0.54215 0.28672 0.0
N545 N 0.84894 0.55136 0.30368 0.0
C546 C 0.83427 0.56513 0.30547 0.0
C547 C 0.84627 0.56247 0.31342 0.0
C548 C 0.82474 0.55604 0.28766 0.0
C549 C 0.82734 0.54422 0.27849 0.0
H550 H 0.84204 0.53336 0.27935 0.0
H551 H 0.85364 0.56948 0.3271 0.0
C552 C 0.8931 0.56205 0.38534 0.0
N553 N 0.88196 0.54788 0.37663 0.0
C554 C 0.89398 0.56451 0.40821 0.0
C555 C 0.87217 0.53759 0.41284 0.0
C556 C 0.87178 0.53561 0.38985 0.0
C557 C 0.88322 0.55229 0.42231 0.0
H558 H 0.90116 0.57152 0.37443 0.0
H559 H 0.86314 0.52439 0.38254 0.0
C560 C 0.88358 0.54644 0.26808 0.0
N561 N 0.89599 0.55019 0.22587 0.0
C562 C 0.89465 0.54163 0.26333 0.0
C563 C 0.8787 0.55303 0.25135 0.0
C564 C 0.90082 0.54366 0.2419 0.0
C565 C 0.88515 0.55486 0.23012 0.0
C566 C 0.90425 0.53491 0.33464 0.0
C567 C 0.91499 0.53439 0.31968 0.0
C568 C 0.90155 0.52721 0.3551 0.0
C569 C 0.92273 0.526 0.32535 0.0
C570 C 0.90954 0.51896 0.36016 0.0
N571 N 0.91986 0.51852 0.3453 0.0
C572 C 0.92845 0.57563 0.30513 0.0
C573 C 0.91489 0.58233 0.27842 0.0
C574 C 0.943 0.58529 0.29451 0.0
N575 N 0.91472 0.57403 0.29669 0.0
C576 C 0.92917 0.59228 0.26746 0.0
C577 C 0.94348 0.59359 0.27512 0.0
H578 H 0.92806 0.569 0.31975 0.0
H579 H 0.90391 0.58093 0.27188 0.0
C580 C 0.86419 0.50574 0.28051 0.0
N581 N 0.87233 0.50977 0.29999 0.0
C582 C 0.86193 0.4924 0.26869 0.0
C583 C 0.8756 0.48691 0.29782 0.0
C584 C 0.87754 0.50036 0.30914 0.0
C585 C 0.86806 0.48302 0.27702 0.0
H586 H 0.85981 0.51318 0.27382 0.0
H587 H 0.88352 0.50341 0.32493 0.0
O588 O 0.88385 0.56634 0.33024 0.0
O589 O 0.86015 0.5294 0.33189 0.0
O590 O 0.87758 0.5448 0.28903 0.0
O591 O 0.89667 0.5432 0.32951 0.0
H592 H 0.89653 0.59188 0.35587 0.0
H593 H 0.87898 0.57452 0.29027 0.0
H594 H 0.90277 0.61889 0.34387 0.0
H595 H 0.8855 0.60179 0.27941 0.0
H596 H 0.81134 0.49387 0.35891 0.0
H597 H 0.85509 0.54972 0.35501 0.0
H598 H 0.83535 0.50053 0.33642 0.0
H599 H 0.83071 0.54224 0.37706 0.0
H600 H 0.83249 0.57423 0.31311 0.0
H601 H 0.82027 0.53704 0.26466 0.0
H602 H 0.90294 0.57593 0.41475 0.0
H603 H 0.86357 0.52785 0.42298 0.0
H604 H 0.89844 0.53642 0.27607 0.0
H605 H 0.87011 0.55679 0.25478 0.0
H606 H 0.90944 0.54004 0.238 0.0
H607 H 0.88154 0.56001 0.21702 0.0
H608 H 0.91738 0.54042 0.30388 0.0
H609 H 0.89331 0.5275 0.36689 0.0
H610 H 0.93104 0.52546 0.3139 0.0
H611 H 0.90752 0.5129 0.3759 0.0
H612 H 0.95363 0.58574 0.301 0.0
H613 H 0.92892 0.59868 0.2529 0.0
H614 H 0.85568 0.48964 0.253 0.0
H615 H 0.88051 0.48003 0.30491 0.0
Li616 Li 0.3342 0.87916 0.34265 0.0
Li617 Li 0.31939 0.86833 0.30846 0.0
Li618 Li 0.34854 0.87831 0.30965 0.0
Li619 Li 0.33813 0.89702 0.31068 0.0
C620 C 0.32062 0.84617 0.33651 0.0
N621 N 0.29934 0.81824 0.35771 0.0
C622 C 0.30698 0.84475 0.34655 0.0
C623 C 0.32346 0.83339 0.33727 0.0
C624 C 0.29636 0.83054 0.35717 0.0
C625 C 0.31256 0.81937 0.34807 0.0
C626 C 0.30471 0.88436 0.32793 0.0
C627 C 0.28651 0.89029 0.30862 0.0
N628 N 0.27629 0.88446 0.32608 0.0
C629 C 0.29411 0.87859 0.34578 0.0
C630 C 0.30097 0.89039 0.30928 0.0
C631 C 0.27977 0.87868 0.34449 0.0
C632 C 0.32942 0.88702 0.38622 0.0
N633 N 0.33326 0.87751 0.37426 0.0
C634 C 0.33419 0.86431 0.40721 0.0
C635 C 0.33591 0.86649 0.38431 0.0
C636 C 0.32991 0.8737 0.41996 0.0
C637 C 0.32777 0.88537 0.40927 0.0
H638 H 0.32739 0.89569 0.3778 0.0
H639 H 0.33916 0.85921 0.37453 0.0
C640 C 0.30312 0.84472 0.27742 0.0
N641 N 0.30038 0.85188 0.29487 0.0
C642 C 0.29044 0.83241 0.26596 0.0
C643 C 0.27221 0.83477 0.29088 0.0
C644 C 0.2853 0.84707 0.3019 0.0
C645 C 0.27469 0.82733 0.27251 0.0
H646 H 0.31523 0.84859 0.27243 0.0
H647 H 0.28336 0.85267 0.31608 0.0
C648 C 0.36752 0.89998 0.34281 0.0
N649 N 0.39395 0.90684 0.36807 0.0
C650 C 0.37891 0.91579 0.34738 0.0
C651 C 0.36958 0.88764 0.35099 0.0
C652 C 0.39219 0.91902 0.3602 0.0
C653 C 0.38302 0.89136 0.36378 0.0
C654 C 0.3353 0.88588 0.26566 0.0
C655 C 0.34863 0.89138 0.25193 0.0
C656 C 0.32109 0.88411 0.25715 0.0
C657 C 0.34763 0.89537 0.22997 0.0
C658 C 0.32056 0.8882 0.2351 0.0
N659 N 0.33373 0.89372 0.22208 0.0
C660 C 0.3619 0.86029 0.29404 0.0
C661 C 0.38 0.88809 0.2954 0.0
C662 C 0.37386 0.8575 0.28631 0.0
N663 N 0.36519 0.87536 0.29856 0.0
C664 C 0.39235 0.88586 0.28773 0.0
C665 C 0.38939 0.87037 0.2832 0.0
H666 H 0.34995 0.85042 0.29648 0.0
H667 H 0.38225 0.89997 0.29904 0.0
C668 C 0.33729 0.92593 0.31338 0.0
N669 N 0.34332 0.91801 0.30201 0.0
C670 C 0.34211 0.94177 0.30819 0.0
C671 C 0.35916 0.94097 0.2796 0.0
C672 C 0.3541 0.92521 0.28545 0.0
C673 C 0.35328 0.94953 0.29117 0.0
H674 H 0.329 0.92005 0.32682 0.0
H675 H 0.35916 0.91888 0.27721 0.0
O676 O 0.33124 0.85999 0.32608 0.0
O677 O 0.31878 0.88431 0.32894 0.0
O678 O 0.35465 0.89669 0.3299 0.0
O679 O 0.33605 0.88176 0.28712 0.0
H680 H 0.30465 0.85454 0.34621 0.0
H681 H 0.334 0.83432 0.32967 0.0
H682 H 0.28576 0.82929 0.365 0.0
H683 H 0.3146 0.80938 0.34881 0.0
H684 H 0.28345 0.89489 0.29426 0.0
H685 H 0.2969 0.87403 0.36045 0.0
H686 H 0.3092 0.89524 0.29556 0.0
H687 H 0.27141 0.87417 0.35812 0.0
H688 H 0.33615 0.85533 0.41488 0.0
H689 H 0.3244 0.8928 0.41854 0.0
H690 H 0.29297 0.82683 0.25223 0.0
H691 H 0.2603 0.83128 0.29648 0.0
H692 H 0.37751 0.92547 0.341 0.0
H693 H 0.36098 0.87535 0.34735 0.0
H694 H 0.40112 0.93121 0.36386 0.0
H695 H 0.38478 0.88194 0.37022 0.0
H696 H 0.35966 0.89264 0.25822 0.0
H697 H 0.31053 0.87946 0.26736 0.0
H698 H 0.35788 0.89974 0.21918 0.0
H699 H 0.30965 0.88692 0.2283 0.0
H700 H 0.37095 0.8454 0.28266 0.0
H701 H 0.40415 0.89612 0.28578 0.0
H702 H 0.33726 0.94792 0.31751 0.0
H703 H 0.36804 0.94658 0.26671 0.0
Li704 Li 0.44135 0.33751 0.30967 0.0
Li705 Li 0.47034 0.34815 0.31033 0.0
Li706 Li 0.45107 0.31856 0.30645 0.0
Li707 Li 0.45438 0.33213 0.34236 0.0
C708 C 0.44966 0.33787 0.26603 0.0
N709 N 0.43857 0.34107 0.22529 0.0
C710 C 0.45819 0.35196 0.25392 0.0
C711 C 0.43562 0.32534 0.25731 0.0
C712 C 0.45235 0.35337 0.23338 0.0
C713 C 0.43017 0.3272 0.23672 0.0
C714 C 0.46527 0.36782 0.33971 0.0
C715 C 0.48441 0.38696 0.36526 0.0
N716 N 0.48138 0.39826 0.35711 0.0
C717 C 0.46219 0.37956 0.33179 0.0
C718 C 0.47634 0.37148 0.35675 0.0
C719 C 0.47052 0.3949 0.34071 0.0
C720 C 0.41042 0.33415 0.30866 0.0
N721 N 0.42558 0.34264 0.30081 0.0
C722 C 0.41919 0.36008 0.28102 0.0
C723 C 0.43011 0.35544 0.28734 0.0
C724 C 0.40348 0.35163 0.28895 0.0
C725 C 0.39912 0.33849 0.30294 0.0
H726 H 0.40718 0.32417 0.31963 0.0
H727 H 0.44234 0.36228 0.28188 0.0
C728 C 0.50182 0.36132 0.29527 0.0
N729 N 0.49028 0.36494 0.29994 0.0
C730 C 0.51613 0.37265 0.28556 0.0
C731 C 0.50647 0.3913 0.2857 0.0
C732 C 0.49232 0.37958 0.29537 0.0
C733 C 0.51852 0.38783 0.2804 0.0
H734 H 0.49976 0.34947 0.29857 0.0
H735 H 0.48276 0.38199 0.29842 0.0
C736 C 0.42215 0.30192 0.32746 0.0
N737 N 0.39795 0.27053 0.32914 0.0
C738 C 0.42086 0.2924 0.34563 0.0
C739 C 0.411 0.29555 0.3103 0.0
C740 C 0.40857 0.27654 0.34613 0.0
C741 C 0.39889 0.27963 0.31141 0.0
C742 C 0.48212 0.32927 0.33701 0.0
C743 C 0.4822 0.31495 0.33904 0.0
C744 C 0.49407 0.34303 0.34717 0.0
C745 C 0.49412 0.31458 0.35161 0.0
C746 C 0.50579 0.34218 0.35957 0.0
N747 N 0.50556 0.32809 0.36154 0.0
C748 C 0.45311 0.30135 0.27059 0.0
C749 C 0.44302 0.28573 0.30305 0.0
C750 C 0.45202 0.2884 0.25898 0.0
N751 N 0.44847 0.29978 0.29213 0.0
C752 C 0.44162 0.27238 0.29202 0.0
C753 C 0.4461 0.27359 0.26961 0.0
H754 H 0.45788 0.31277 0.26245 0.0
H755 H 0.43993 0.28488 0.32037 0.0
C756 C 0.44855 0.33748 0.38668 0.0
N757 N 0.45379 0.32952 0.37381 0.0
C758 C 0.44739 0.33531 0.40968 0.0
C759 C 0.45714 0.31687 0.4057 0.0
C760 C 0.45796 0.31929 0.38284 0.0
C761 C 0.45165 0.3248 0.41951 0.0
H762 H 0.44506 0.34537 0.37905 0.0
H763 H 0.46165 0.31274 0.37229 0.0
O764 O 0.45517 0.33631 0.2862 0.0
O765 O 0.45716 0.35272 0.33122 0.0
O766 O 0.43408 0.31747 0.3267 0.0
O767 O 0.47052 0.32981 0.32479 0.0
H768 H 0.46914 0.36173 0.26037 0.0
H769 H 0.42905 0.31427 0.2663 0.0
H770 H 0.45877 0.36423 0.22387 0.0
H771 H 0.41929 0.31761 0.2298 0.0
H772 H 0.49304 0.38996 0.37842 0.0
H773 H 0.45353 0.37689 0.31879 0.0
H774 H 0.47856 0.36245 0.36349 0.0
H775 H 0.46834 0.40414 0.33462 0.0
H776 H 0.42315 0.37049 0.2706 0.0
H777 H 0.38712 0.33166 0.3094 0.0
H778 H 0.52514 0.36949 0.2819 0.0
H779 H 0.50768 0.40274 0.28161 0.0
H780 H 0.42931 0.29718 0.35913 0.0
H781 H 0.41164 0.30283 0.29634 0.0
H782 H 0.40749 0.269 0.36002 0.0
H783 H 0.39022 0.27452 0.29821 0.0
H784 H 0.47308 0.30421 0.33114 0.0
H785 H 0.49441 0.35428 0.34529 0.0
H786 H 0.49428 0.30356 0.35346 0.0
H787 H 0.51511 0.35274 0.36756 0.0
H788 H 0.45605 0.29008 0.24194 0.0
H789 H 0.43697 0.26123 0.30092 0.0
H790 H 0.44285 0.3415 0.41953 0.0
H791 H 0.46077 0.30882 0.41244 0.0
Li792 Li 0.1245 0.47058 0.30725 0.0
Li793 Li 0.10635 0.4413 0.30597 0.0
Li794 Li 0.1209 0.45374 0.34031 0.0
Li795 Li 0.13433 0.45133 0.30652 0.0
C796 C 0.0988 0.4658 0.33443 0.0
N797 N 0.08671 0.48363 0.3529 0.0
C798 C 0.08364 0.46288 0.32847 0.0
C799 C 0.10778 0.47772 0.34984 0.0
C800 C 0.07775 0.47205 0.33796 0.0
C801 C 0.10147 0.48661 0.35899 0.0
C802 C 0.13066 0.45668 0.26488 0.0
C803 C 0.13983 0.4451 0.23727 0.0
N804 N 0.14929 0.45981 0.22844 0.0
C805 C 0.1404 0.47166 0.25545 0.0
C806 C 0.13028 0.44326 0.25564 0.0
C807 C 0.14975 0.473 0.23705 0.0
C808 C 0.14318 0.50334 0.29687 0.0
N809 N 0.12803 0.49088 0.29794 0.0
C810 C 0.11772 0.50743 0.28576 0.0
C811 C 0.11539 0.49259 0.29228 0.0
C812 C 0.13325 0.52062 0.28464 0.0
C813 C 0.14608 0.51835 0.29017 0.0
H814 H 0.15304 0.50157 0.30101 0.0
H815 H 0.10348 0.48243 0.29285 0.0
C816 C 0.07317 0.42075 0.30835 0.0
N817 N 0.08609 0.42542 0.29508 0.0
C818 C 0.05798 0.40969 0.30071 0.0
C819 C 0.06975 0.40808 0.26617 0.0
C820 C 0.08469 0.41933 0.27437 0.0
C821 C 0.05615 0.40328 0.27932 0.0
H822 H 0.07467 0.42576 0.32479 0.0
H823 H 0.09514 0.42334 0.26412 0.0
C824 C 0.15357 0.47966 0.33905 0.0
N825 N 0.17915 0.49871 0.36607 0.0
C826 C 0.16519 0.47551 0.34344 0.0
C827 C 0.15503 0.49357 0.34823 0.0
C828 C 0.17801 0.48528 0.35719 0.0
C829 C 0.16803 0.50302 0.36191 0.0
C830 C 0.10715 0.41831 0.32624 0.0
C831 C 0.0972 0.41194 0.34467 0.0
C832 C 0.10533 0.40846 0.30823 0.0
C833 C 0.08547 0.39584 0.3447 0.0
C834 C 0.09345 0.39243 0.30886 0.0
N835 N 0.08384 0.38651 0.32693 0.0
C836 C 0.105 0.44698 0.38129 0.0
C837 C 0.13273 0.45689 0.3849 0.0
C838 C 0.10296 0.4448 0.40419 0.0
N839 N 0.11969 0.45279 0.37208 0.0
C840 C 0.13128 0.45519 0.40793 0.0
C841 C 0.1162 0.44883 0.41776 0.0
H842 H 0.09477 0.44361 0.37076 0.0
H843 H 0.14421 0.46108 0.37732 0.0
C844 C 0.16473 0.46081 0.28757 0.0
N845 N 0.15153 0.44849 0.29688 0.0
C846 C 0.17746 0.45883 0.28097 0.0
C847 C 0.16277 0.43156 0.29373 0.0
C848 C 0.15036 0.43408 0.30008 0.0
C849 C 0.17662 0.44406 0.28418 0.0
H850 H 0.16543 0.47223 0.28552 0.0
H851 H 0.13986 0.42455 0.3078 0.0
O852 O 0.10478 0.45702 0.3251 0.0
O853 O 0.12161 0.45517 0.28312 0.0
O854 O 0.141 0.4703 0.32549 0.0
O855 O 0.11844 0.43414 0.32568 0.0
H856 H 0.07656 0.45372 0.31649 0.0
H857 H 0.11946 0.48001 0.35475 0.0
H858 H 0.06606 0.46997 0.33344 0.0
H859 H 0.10829 0.49588 0.37094 0.0
H860 H 0.13976 0.43484 0.23009 0.0
H861 H 0.14079 0.48215 0.26227 0.0
H862 H 0.12293 0.43159 0.2628 0.0
H863 H 0.15738 0.48454 0.22964 0.0
H864 H 0.10742 0.50856 0.28192 0.0
H865 H 0.15828 0.52801 0.28909 0.0
H866 H 0.04777 0.40619 0.31138 0.0
H867 H 0.0688 0.40353 0.2495 0.0
H868 H 0.16423 0.46477 0.33654 0.0
H869 H 0.14629 0.4971 0.34476 0.0
H870 H 0.18705 0.48217 0.36083 0.0
H871 H 0.16929 0.5138 0.36916 0.0
H872 H 0.09846 0.41933 0.35879 0.0
H873 H 0.11282 0.41318 0.29374 0.0
H874 H 0.07766 0.39078 0.35883 0.0
H875 H 0.09182 0.38471 0.29496 0.0
H876 H 0.09114 0.43987 0.4112 0.0
H877 H 0.14173 0.45823 0.41786 0.0
H878 H 0.18799 0.46886 0.27397 0.0
H879 H 0.16152 0.41993 0.29631 0.0
Li880 Li 0.66673 0.12017 0.34213 0.0
Li881 Li 0.68247 0.1339 0.30886 0.0
Li882 Li 0.6536 0.12564 0.31077 0.0
Li883 Li 0.66252 0.10511 0.30588 0.0
C884 C 0.67021 0.15166 0.34314 0.0
N885 N 0.66765 0.17278 0.37117 0.0
C886 C 0.68367 0.16625 0.34828 0.0
C887 C 0.65543 0.14786 0.35206 0.0
C888 C 0.68214 0.17675 0.36255 0.0
C889 C 0.65438 0.15869 0.36625 0.0
C890 C 0.69379 0.11307 0.32944 0.0
C891 C 0.71057 0.10232 0.31908 0.0
N892 N 0.71882 0.10794 0.33834 0.0
C893 C 0.70239 0.11869 0.34916 0.0
C894 C 0.69784 0.10476 0.3143 0.0
C895 C 0.71502 0.11599 0.35334 0.0
C896 C 0.66053 0.10289 0.38183 0.0
N897 N 0.66744 0.11793 0.37353 0.0
C898 C 0.67574 0.12893 0.40985 0.0
C899 C 0.67506 0.13086 0.38698 0.0
C900 C 0.66863 0.11354 0.41894 0.0
C901 C 0.66092 0.10041 0.40457 0.0
H902 H 0.65473 0.09281 0.37073 0.0
H903 H 0.68087 0.1427 0.38 0.0
C904 C 0.70282 0.16227 0.28598 0.0
N905 N 0.70267 0.15039 0.29816 0.0
C906 C 0.71709 0.17438 0.27705 0.0
C907 C 0.73082 0.16196 0.29368 0.0
C908 C 0.71632 0.15011 0.30226 0.0
C909 C 0.73134 0.17425 0.28072 0.0
H910 H 0.69178 0.1622 0.28295 0.0
H911 H 0.71604 0.1407 0.31208 0.0
C912 C 0.6326 0.09503 0.33698 0.0
N913 N 0.6043 0.07433 0.35785 0.0
C914 C 0.6227 0.07986 0.32821 0.0
C915 C 0.62816 0.09967 0.3564 0.0
C916 C 0.60842 0.06957 0.33899 0.0
C917 C 0.61379 0.08903 0.36669 0.0
C918 C 0.67266 0.12633 0.26548 0.0
C919 C 0.66759 0.13293 0.24901 0.0
C920 C 0.68516 0.12347 0.2611 0.0
C921 C 0.67518 0.13663 0.22841 0.0
C922 C 0.6925 0.12739 0.24032 0.0
N923 N 0.68739 0.13382 0.22454 0.0
C924 C 0.64229 0.1431 0.28756 0.0
C925 C 0.62243 0.12185 0.30866 0.0
C926 C 0.63101 0.14661 0.27895 0.0
N927 N 0.63779 0.13074 0.30182 0.0
C928 C 0.6108 0.12509 0.30077 0.0
C929 C 0.61494 0.13746 0.28538 0.0
H930 H 0.65462 0.15003 0.28249 0.0
H931 H 0.61911 0.11212 0.32007 0.0
C932 C 0.65648 0.07323 0.30522 0.0
N933 N 0.65726 0.08524 0.29265 0.0
C934 C 0.65266 0.05864 0.29543 0.0
C935 C 0.65059 0.06917 0.26005 0.0
C936 C 0.65426 0.08343 0.27052 0.0
C937 C 0.64978 0.05655 0.27251 0.0
H938 H 0.65886 0.075 0.32282 0.0
H939 H 0.65464 0.09304 0.26097 0.0
O940 O 0.67158 0.14125 0.32929 0.0
O941 O 0.68133 0.1155 0.32512 0.0
O942 O 0.64666 0.10518 0.32667 0.0
O943 O 0.66543 0.1227 0.28579 0.0
H944 H 0.69519 0.16936 0.34141 0.0
H945 H 0.64488 0.13671 0.34801 0.0
H946 H 0.69247 0.18806 0.36677 0.0
H947 H 0.64302 0.1559 0.37331 0.0
H948 H 0.71386 0.09594 0.3075 0.0
H949 H 0.69938 0.12513 0.36106 0.0
H950 H 0.69124 0.10021 0.29903 0.0
H951 H 0.72181 0.1203 0.36852 0.0
H952 H 0.68207 0.13939 0.42021 0.0
H953 H 0.65515 0.08832 0.41084 0.0
H954 H 0.71689 0.18353 0.26699 0.0
H955 H 0.74154 0.16151 0.29725 0.0
H956 H 0.62599 0.07608 0.3132 0.0
H957 H 0.63574 0.1113 0.36355 0.0
H958 H 0.60062 0.05779 0.33238 0.0
H959 H 0.61021 0.09246 0.38174 0.0
H960 H 0.65781 0.13505 0.25202 0.0
H961 H 0.68924 0.11841 0.27369 0.0
H962 H 0.67136 0.14171 0.21549 0.0
H963 H 0.70225 0.12532 0.23675 0.0
H964 H 0.63483 0.15613 0.26695 0.0
H965 H 0.59869 0.11791 0.30666 0.0
H966 H 0.65218 0.04921 0.3056 0.0
H967 H 0.64816 0.06794 0.24241 0.0
Li968 Li 0.55015 0.68279 0.30859 0.0
Li969 Li 0.54778 0.66818 0.3432 0.0
Li970 Li 0.56034 0.66465 0.30969 0.0
Li971 Li 0.53139 0.65381 0.31138 0.0
C972 C 0.58313 0.68938 0.33003 0.0
N973 N 0.61495 0.69853 0.33413 0.0
C974 C 0.58877 0.68625 0.34961 0.0
C975 C 0.59366 0.69724 0.31259 0.0
C976 C 0.60491 0.69097 0.35136 0.0
C977 C 0.60971 0.70173 0.31496 0.0
C978 C 0.52314 0.67413 0.34381 0.0
C979 C 0.50424 0.66511 0.37388 0.0
N980 N 0.50722 0.68028 0.37684 0.0
C981 C 0.52595 0.68961 0.34703 0.0
C982 C 0.51213 0.66176 0.35722 0.0
C983 C 0.51781 0.69248 0.36387 0.0
C984 C 0.54088 0.70286 0.28665 0.0
N985 N 0.55291 0.7025 0.29775 0.0
C986 C 0.56867 0.7309 0.29663 0.0
C987 C 0.56667 0.71611 0.30269 0.0
C988 C 0.55642 0.73166 0.28529 0.0
C989 C 0.54247 0.7174 0.27999 0.0
H990 H 0.52992 0.69188 0.28341 0.0
H991 H 0.57594 0.7155 0.31183 0.0
C992 C 0.54793 0.65856 0.38808 0.0
N993 N 0.54877 0.67025 0.3747 0.0
C994 C 0.54931 0.6607 0.41109 0.0
C995 C 0.5521 0.6867 0.40605 0.0
C996 C 0.551 0.68419 0.38321 0.0
C997 C 0.55146 0.67496 0.42043 0.0
H998 H 0.54649 0.64771 0.38086 0.0
H999 H 0.552 0.69343 0.37218 0.0
C1000 C 0.54512 0.67225 0.26754 0.0
N1001 N 0.54253 0.68616 0.22898 0.0
C1002 C 0.53025 0.66668 0.25756 0.0
C1003 C 0.55869 0.68482 0.25784 0.0
C1004 C 0.52919 0.67388 0.23807 0.0
C1005 C 0.55713 0.69172 0.23838 0.0
C1006 C 0.53658 0.63211 0.3324 0.0
C1007 C 0.54099 0.62275 0.31999 0.0
C1008 C 0.52356 0.62482 0.34677 0.0
C1009 C 0.53213 0.60618 0.32199 0.0
C1010 C 0.515 0.60822 0.34828 0.0
N1011 N 0.51942 0.59932 0.33596 0.0
C1012 C 0.58459 0.65611 0.31241 0.0
C1013 C 0.57828 0.6608 0.27626 0.0
C1014 C 0.59565 0.65225 0.30382 0.0
N1015 N 0.57622 0.66031 0.29857 0.0
C1016 C 0.58915 0.65701 0.26698 0.0
C1017 C 0.59801 0.65262 0.28077 0.0
H1018 H 0.58253 0.65558 0.33009 0.0
H1019 H 0.57125 0.66382 0.26558 0.0
C1020 C 0.49813 0.63843 0.30425 0.0
N1021 N 0.5113 0.63706 0.30143 0.0
C1022 C 0.48354 0.62706 0.29523 0.0
C1023 C 0.49628 0.6129 0.28096 0.0
C1024 C 0.51067 0.62468 0.28994 0.0
C1025 C 0.48253 0.61413 0.28333 0.0
H1026 H 0.49903 0.6486 0.31296 0.0
H1027 H 0.52143 0.6242 0.28718 0.0
O1028 O 0.56733 0.68462 0.32785 0.0
O1029 O 0.53106 0.67111 0.32749 0.0
O1030 O 0.54639 0.66547 0.28675 0.0
O1031 O 0.54509 0.64834 0.33064 0.0
H1032 H 0.58075 0.68014 0.36325 0.0
H1033 H 0.58946 0.6997 0.2973 0.0
H1034 H 0.60944 0.68857 0.36638 0.0
H1035 H 0.61798 0.70774 0.30155 0.0
H1036 H 0.49572 0.65566 0.38444 0.0
H1037 H 0.53443 0.69932 0.33678 0.0
H1038 H 0.50973 0.6497 0.35479 0.0
H1039 H 0.51992 0.70441 0.36664 0.0
H1040 H 0.57962 0.74164 0.30095 0.0
H1041 H 0.53267 0.71752 0.27155 0.0
H1042 H 0.54904 0.6514 0.42134 0.0
H1043 H 0.55344 0.69777 0.41229 0.0
H1044 H 0.51962 0.65696 0.26481 0.0
H1045 H 0.57028 0.68932 0.26542 0.0
H1046 H 0.51775 0.66973 0.2302 0.0
H1047 H 0.56751 0.70153 0.23078 0.0
H1048 H 0.55105 0.62821 0.3088 0.0
H1049 H 0.5201 0.63191 0.35663 0.0
H1050 H 0.53535 0.59877 0.31241 0.0
H1051 H 0.50486 0.60241 0.35927 0.0
H1052 H 0.60225 0.64901 0.31509 0.0
H1053 H 0.59027 0.65711 0.24911 0.0
H1054 H 0.47318 0.62841 0.29738 0.0
H1055 H 0.49604 0.60327 0.27155 0.0
Li1056 Li 0.56118 0.8963 0.81013 0.0
Li1057 Li 0.54797 0.87854 0.84194 0.0
Li1058 Li 0.55139 0.86744 0.80547 0.0
Li1059 Li 0.53153 0.87645 0.80928 0.0
C1060 C 0.584 0.88927 0.82696 0.0
N1061 N 0.61669 0.90253 0.82803 0.0
C1062 C 0.59247 0.89669 0.84623 0.0
C1063 C 0.59209 0.88838 0.80835 0.0
C1064 C 0.60902 0.90339 0.84641 0.0
C1065 C 0.60864 0.89521 0.80919 0.0
C1066 C 0.5392 0.90252 0.84391 0.0
C1067 C 0.5191 0.90277 0.86717 0.0
N1068 N 0.52984 0.91777 0.87394 0.0
C1069 C 0.54999 0.91801 0.85088 0.0
C1070 C 0.52358 0.89489 0.85192 0.0
C1071 C 0.54506 0.92549 0.86616 0.0
C1072 C 0.575 0.92351 0.78253 0.0
N1073 N 0.5767 0.91755 0.80209 0.0
C1074 C 0.59861 0.94296 0.81218 0.0
C1075 C 0.58825 0.92688 0.81681 0.0
C1076 C 0.59696 0.94956 0.7923 0.0
C1077 C 0.58511 0.93953 0.77721 0.0
H1078 H 0.56542 0.91598 0.7714 0.0
H1079 H 0.58904 0.92202 0.83255 0.0
C1080 C 0.5435 0.86211 0.88226 0.0
N1081 N 0.5485 0.87677 0.87343 0.0
C1082 C 0.54437 0.86032 0.90511 0.0
C1083 C 0.55541 0.88871 0.90942 0.0
C1084 C 0.55451 0.88998 0.88646 0.0
C1085 C 0.55042 0.87374 0.91899 0.0
H1086 H 0.53904 0.85183 0.87151 0.0
H1087 H 0.55894 0.90156 0.87902 0.0
C1088 C 0.55043 0.88147 0.76384 0.0
N1089 N 0.55554 0.8805 0.71897 0.0
C1090 C 0.53755 0.87498 0.74915 0.0
C1091 C 0.56591 0.88762 0.75571 0.0
C1092 C 0.54038 0.87455 0.72652 0.0
C1093 C 0.56824 0.88698 0.73297 0.0
C1094 C 0.51821 0.84648 0.83145 0.0
C1095 C 0.51232 0.83181 0.82074 0.0
C1096 C 0.50942 0.84817 0.8485 0.0
C1097 C 0.49753 0.81909 0.82706 0.0
C1098 C 0.49469 0.83517 0.85435 0.0
N1099 N 0.48909 0.82103 0.84358 0.0
C1100 C 0.56407 0.84658 0.8019 0.0
C1101 C 0.54735 0.84518 0.77229 0.0
C1102 C 0.56647 0.8349 0.79193 0.0
N1103 N 0.55477 0.85158 0.79184 0.0
C1104 C 0.54966 0.83374 0.76157 0.0
C1105 C 0.55937 0.82852 0.77135 0.0
H1106 H 0.56963 0.85168 0.81764 0.0
H1107 H 0.53954 0.84887 0.76503 0.0
C1108 C 0.50955 0.88573 0.79532 0.0
N1109 N 0.51164 0.87298 0.79819 0.0
C1110 C 0.49574 0.88385 0.78518 0.0
C1111 C 0.48635 0.8557 0.78157 0.0
C1112 C 0.5004 0.85816 0.79153 0.0
C1113 C 0.48395 0.86868 0.7779 0.0
H1114 H 0.51884 0.89745 0.80034 0.0
H1115 H 0.5025 0.84829 0.79335 0.0
O1116 O 0.5678 0.88257 0.82656 0.0
O1117 O 0.54383 0.89506 0.82891 0.0
O1118 O 0.54785 0.882 0.78602 0.0
O1119 O 0.53265 0.85903 0.82542 0.0
H1120 H 0.58633 0.89733 0.86084 0.0
H1121 H 0.58566 0.88236 0.7935 0.0
H1122 H 0.61576 0.90926 0.86116 0.0
H1123 H 0.61507 0.89465 0.79489 0.0
H1124 H 0.50706 0.89699 0.87356 0.0
H1125 H 0.56208 0.92414 0.84467 0.0
H1126 H 0.51498 0.88306 0.84627 0.0
H1127 H 0.55331 0.93743 0.87183 0.0
H1128 H 0.60761 0.95023 0.82426 0.0
H1129 H 0.58318 0.94416 0.7619 0.0
H1130 H 0.54037 0.84856 0.91186 0.0
H1131 H 0.56041 0.89937 0.91951 0.0
H1132 H 0.52551 0.87026 0.75518 0.0
H1133 H 0.57601 0.89297 0.7668 0.0
H1134 H 0.53053 0.8695 0.71496 0.0
H1135 H 0.58016 0.89169 0.72645 0.0
H1136 H 0.51905 0.83031 0.80759 0.0
H1137 H 0.51398 0.85934 0.85725 0.0
H1138 H 0.49276 0.80769 0.81884 0.0
H1139 H 0.48774 0.8363 0.86749 0.0
H1140 H 0.57402 0.83112 0.79998 0.0
H1141 H 0.54374 0.82888 0.74591 0.0
H1142 H 0.49459 0.89427 0.78241 0.0
H1143 H 0.47756 0.84375 0.77657 0.0
Li1144 Li 0.66758 0.54886 0.844 0.0
Li1145 Li 0.66559 0.56039 0.80865 0.0
Li1146 Li 0.6529 0.53088 0.81301 0.0
Li1147 Li 0.68231 0.54773 0.80969 0.0
C1148 C 0.63519 0.53986 0.84256 0.0
N1149 N 0.60932 0.52749 0.87081 0.0
C1150 C 0.62773 0.54864 0.8475 0.0
C1151 C 0.62943 0.52475 0.85181 0.0
C1152 C 0.61469 0.54219 0.86188 0.0
C1153 C 0.61635 0.51871 0.86609 0.0
C1154 C 0.69468 0.58278 0.82658 0.0
C1155 C 0.71525 0.6068 0.80954 0.0
N1156 N 0.71401 0.61551 0.8263 0.0
C1157 C 0.69374 0.59193 0.84379 0.0
C1158 C 0.70564 0.59023 0.80945 0.0
C1159 C 0.70356 0.60848 0.84328 0.0
C1160 C 0.67619 0.54606 0.88824 0.0
N1161 N 0.66861 0.55172 0.87534 0.0
C1162 C 0.6624 0.56232 0.90711 0.0
C1163 C 0.66187 0.55981 0.88428 0.0
C1164 C 0.67009 0.55659 0.92094 0.0
C1165 C 0.67702 0.54831 0.91121 0.0
H1166 H 0.68168 0.53988 0.88066 0.0
H1167 H 0.65619 0.56446 0.87362 0.0
C1168 C 0.65535 0.57228 0.77416 0.0
N1169 N 0.66193 0.57604 0.79474 0.0
C1170 C 0.65148 0.58246 0.76298 0.0
C1171 C 0.66046 0.59999 0.79474 0.0
C1172 C 0.66434 0.58949 0.80527 0.0
C1173 C 0.65402 0.59653 0.77324 0.0
H1174 H 0.6527 0.56115 0.76655 0.0
H1175 H 0.6689 0.59191 0.82199 0.0
C1176 C 0.66671 0.51591 0.83785 0.0
N1177 N 0.66092 0.48591 0.84958 0.0
C1178 C 0.67192 0.50776 0.82422 0.0
C1179 C 0.65868 0.50885 0.85755 0.0
C1180 C 0.66884 0.49259 0.83041 0.0
C1181 C 0.65582 0.49366 0.86316 0.0
C1182 C 0.66981 0.54587 0.76645 0.0
C1183 C 0.66218 0.53268 0.75239 0.0
C1184 C 0.68165 0.56046 0.75803 0.0
C1185 C 0.66663 0.53431 0.7301 0.0
C1186 C 0.68575 0.5616 0.73564 0.0
N1187 N 0.67823 0.54861 0.72226 0.0
C1188 C 0.62578 0.51511 0.78845 0.0
C1189 C 0.63179 0.49674 0.80555 0.0
C1190 C 0.61335 0.50289 0.77656 0.0
N1191 N 0.63491 0.51192 0.80222 0.0
C1192 C 0.61942 0.4841 0.79395 0.0
C1193 C 0.61028 0.48718 0.77879 0.0
H1194 H 0.62856 0.5273 0.78612 0.0
H1195 H 0.63912 0.4944 0.81658 0.0
C1196 C 0.71544 0.55691 0.80685 0.0
N1197 N 0.70066 0.54774 0.79805 0.0
C1198 C 0.72838 0.55577 0.79868 0.0
C1199 C 0.71066 0.5362 0.77223 0.0
C1200 C 0.69813 0.53759 0.78101 0.0
C1201 C 0.726 0.54509 0.78133 0.0
H1202 H 0.71712 0.56482 0.82052 0.0
H1203 H 0.68626 0.53017 0.77459 0.0
O1204 O 0.64809 0.54609 0.82872 0.0
O1205 O 0.68525 0.56657 0.82689 0.0
O1206 O 0.66978 0.53085 0.83219 0.0
O1207 O 0.66556 0.54448 0.7883 0.0
H1208 H 0.63206 0.56036 0.84041 0.0
H1209 H 0.63495 0.51774 0.84793 0.0
H1210 H 0.60884 0.54888 0.86595 0.0
H1211 H 0.61178 0.50703 0.87341 0.0
H1212 H 0.72375 0.61274 0.79633 0.0
H1213 H 0.68543 0.58633 0.85729 0.0
H1214 H 0.70681 0.58329 0.79632 0.0
H1215 H 0.70288 0.61572 0.8564 0.0
H1216 H 0.65674 0.56862 0.91384 0.0
H1217 H 0.68328 0.54389 0.92117 0.0
H1218 H 0.64609 0.5791 0.7467 0.0
H1219 H 0.66244 0.61064 0.80331 0.0
H1220 H 0.67815 0.51301 0.80895 0.0
H1221 H 0.65469 0.51502 0.86844 0.0
H1222 H 0.67275 0.48613 0.81996 0.0
H1223 H 0.64958 0.48804 0.87832 0.0
H1224 H 0.65299 0.5213 0.75866 0.0
H1225 H 0.68747 0.57081 0.76862 0.0
H1226 H 0.66087 0.5242 0.71903 0.0
H1227 H 0.69489 0.57283 0.72889 0.0
H1228 H 0.60641 0.50578 0.76538 0.0
H1229 H 0.61749 0.47217 0.79612 0.0
H1230 H 0.73997 0.56277 0.80633 0.0
H1231 H 0.70825 0.52803 0.7586 0.0
Li1232 Li 0.1075 0.66626 0.80864 0.0
Li1233 Li 0.12203 0.66791 0.84315 0.0
Li1234 Li 0.13654 0.68386 0.80914 0.0
Li1235 Li 0.12571 0.6547 0.81049 0.0
C1236 C 0.11163 0.69275 0.82962 0.0
N1237 N 0.09398 0.70786 0.83315 0.0
C1238 C 0.10256 0.69071 0.84862 0.0
C1239 C 0.11188 0.70259 0.81252 0.0
C1240 C 0.09368 0.69843 0.85007 0.0
C1241 C 0.10282 0.71008 0.81458 0.0
C1242 C 0.09653 0.63634 0.84103 0.0
C1243 C 0.09281 0.61473 0.86474 0.0
N1244 N 0.07768 0.61141 0.86908 0.0
C1245 C 0.0809 0.63263 0.84553 0.0
C1246 C 0.10251 0.62726 0.85052 0.0
C1247 C 0.07158 0.62001 0.85983 0.0
C1248 C 0.08573 0.65659 0.77423 0.0
N1249 N 0.08785 0.6621 0.79538 0.0
C1250 C 0.0618 0.65916 0.7955 0.0
C1251 C 0.07619 0.66333 0.80621 0.0
C1252 C 0.05939 0.65358 0.77352 0.0
C1253 C 0.07162 0.65231 0.76295 0.0
H1254 H 0.09491 0.65517 0.7662 0.0
H1255 H 0.0779 0.66724 0.82325 0.0
C1256 C 0.13662 0.67916 0.88399 0.0
N1257 N 0.12225 0.66894 0.87482 0.0
C1258 C 0.13808 0.68163 0.90687 0.0
C1259 C 0.10996 0.66277 0.91063 0.0
C1260 C 0.109 0.66079 0.8876 0.0
C1261 C 0.12461 0.67346 0.92048 0.0
H1262 H 0.14693 0.6856 0.87344 0.0
H1263 H 0.09763 0.65306 0.87998 0.0
C1264 C 0.12897 0.67361 0.76626 0.0
N1265 N 0.14025 0.6859 0.72462 0.0
C1266 C 0.13762 0.66824 0.75403 0.0
C1267 C 0.12591 0.68509 0.75725 0.0
C1268 C 0.14326 0.67464 0.73302 0.0
C1269 C 0.13176 0.6912 0.73619 0.0
C1270 C 0.15356 0.66753 0.83537 0.0
C1271 C 0.16832 0.67474 0.82466 0.0
C1272 C 0.15039 0.65643 0.85218 0.0
C1273 C 0.17961 0.6705 0.83073 0.0
C1274 C 0.16199 0.65249 0.85776 0.0
N1275 N 0.17623 0.65954 0.84699 0.0
C1276 C 0.1561 0.71715 0.81015 0.0
C1277 C 0.1643 0.70463 0.7837 0.0
C1278 C 0.16913 0.73203 0.80498 0.0
N1279 N 0.15396 0.70383 0.7996 0.0
C1280 C 0.17737 0.71931 0.77777 0.0
C1281 C 0.18002 0.73322 0.78868 0.0
H1282 H 0.14783 0.71618 0.82293 0.0
H1283 H 0.16264 0.69385 0.77599 0.0
C1284 C 0.11277 0.62456 0.79335 0.0
N1285 N 0.12712 0.63707 0.79926 0.0
C1286 C 0.11186 0.61153 0.78225 0.0
C1287 C 0.14056 0.62417 0.78402 0.0
C1288 C 0.14092 0.63708 0.79502 0.0
C1289 C 0.12589 0.61137 0.77705 0.0
H1290 H 0.10201 0.62497 0.7966 0.0
H1291 H 0.15222 0.6473 0.7993 0.0
O1292 O 0.12042 0.68533 0.82793 0.0
O1293 O 0.10581 0.64867 0.82713 0.0
O1294 O 0.12334 0.66747 0.78682 0.0
O1295 O 0.14239 0.67156 0.82967 0.0
H1296 H 0.10231 0.68319 0.86204 0.0
H1297 H 0.11901 0.70444 0.79785 0.0
H1298 H 0.08654 0.69692 0.86462 0.0
H1299 H 0.10284 0.71768 0.80144 0.0
H1300 H 0.0973 0.60763 0.87229 0.0
H1301 H 0.07608 0.63951 0.83819 0.0
H1302 H 0.11448 0.6298 0.84687 0.0
H1303 H 0.05949 0.61706 0.86359 0.0
H1304 H 0.05268 0.66029 0.80431 0.0
H1305 H 0.07016 0.64764 0.74627 0.0
H1306 H 0.14961 0.6899 0.91383 0.0
H1307 H 0.09926 0.65642 0.92054 0.0
H1308 H 0.14001 0.6593 0.76075 0.0
H1309 H 0.11907 0.6892 0.76642 0.0
H1310 H 0.15003 0.67067 0.72339 0.0
H1311 H 0.12953 0.70012 0.72903 0.0
H1312 H 0.17098 0.68344 0.81172 0.0
H1313 H 0.13913 0.65097 0.8609 0.0
H1314 H 0.19105 0.67591 0.8225 0.0
H1315 H 0.15969 0.64387 0.87069 0.0
H1316 H 0.17075 0.7425 0.81374 0.0
H1317 H 0.18564 0.7197 0.76537 0.0
H1318 H 0.1003 0.60183 0.77733 0.0
H1319 H 0.15164 0.62455 0.78009 0.0
Li1320 Li 0.44164 0.10579 0.81114 0.0
Li1321 Li 0.45728 0.12257 0.84209 0.0
Li1322 Li 0.45223 0.13457 0.80932 0.0
Li1323 Li 0.47083 0.12437 0.80672 0.0
C1324 C 0.42048 0.1132 0.83068 0.0
N1325 N 0.38786 0.10065 0.82997 0.0
C1326 C 0.41161 0.10736 0.85016 0.0
C1327 C 0.41277 0.11266 0.81086 0.0
C1328 C 0.39512 0.10107 0.84946 0.0
C1329 C 0.39627 0.10627 0.81084 0.0
C1330 C 0.45479 0.09233 0.83927 0.0
C1331 C 0.45828 0.07068 0.85188 0.0
N1332 N 0.44508 0.06538 0.86481 0.0
C1333 C 0.44128 0.0867 0.8527 0.0
C1334 C 0.46338 0.08429 0.83885 0.0
C1335 C 0.43656 0.07304 0.86547 0.0
C1336 C 0.42869 0.07882 0.78405 0.0
N1337 N 0.42541 0.0849 0.8023 0.0
C1338 C 0.40138 0.06021 0.80852 0.0
C1339 C 0.41202 0.07597 0.81446 0.0
C1340 C 0.40467 0.05341 0.79011 0.0
C1341 C 0.41845 0.06305 0.77762 0.0
H1342 H 0.43956 0.08609 0.77489 0.0
H1343 H 0.40977 0.08082 0.82919 0.0
C1344 C 0.45012 0.12707 0.88622 0.0
N1345 N 0.45906 0.12281 0.8737 0.0
C1346 C 0.44945 0.12513 0.90925 0.0
C1347 C 0.46771 0.11509 0.9061 0.0
C1348 C 0.46805 0.11725 0.8832 0.0
C1349 C 0.45804 0.1187 0.91941 0.0
H1350 H 0.44307 0.13144 0.87823 0.0
H1351 H 0.47504 0.11391 0.87295 0.0
C1352 C 0.45211 0.12455 0.76541 0.0
N1353 N 0.44999 0.13319 0.72247 0.0
C1354 C 0.46584 0.13552 0.7541 0.0
C1355 C 0.43735 0.11772 0.75475 0.0
C1356 C 0.46451 0.13982 0.73244 0.0
C1357 C 0.43651 0.12231 0.73307 0.0
C1358 C 0.48718 0.1499 0.83624 0.0
C1359 C 0.49454 0.16624 0.84043 0.0
C1360 C 0.49459 0.14138 0.84291 0.0
C1361 C 0.50922 0.17382 0.85133 0.0
C1362 C 0.50927 0.14938 0.85379 0.0
N1363 N 0.51622 0.1653 0.85773 0.0
C1364 C 0.43663 0.15294 0.80766 0.0
C1365 C 0.45893 0.16186 0.78392 0.0
C1366 C 0.43387 0.16496 0.80002 0.0
N1367 N 0.44876 0.15137 0.79917 0.0
C1368 C 0.45661 0.17406 0.77579 0.0
C1369 C 0.44382 0.17563 0.78367 0.0
H1370 H 0.42912 0.14498 0.82051 0.0
H1371 H 0.46889 0.16081 0.7781 0.0
C1372 C 0.4868 0.11149 0.78538 0.0
N1373 N 0.48887 0.12574 0.79227 0.0
C1374 C 0.49879 0.11075 0.77366 0.0
C1375 C 0.51501 0.1394 0.77647 0.0
C1376 C 0.50262 0.1396 0.78817 0.0
C1377 C 0.51308 0.12483 0.76883 0.0
H1378 H 0.4757 0.10069 0.78881 0.0
H1379 H 0.50388 0.15079 0.79365 0.0
O1380 O 0.43659 0.11916 0.83099 0.0
O1381 O 0.45979 0.10581 0.82685 0.0
O1382 O 0.45319 0.12012 0.78657 0.0
O1383 O 0.4729 0.14241 0.82535 0.0
H1384 H 0.41736 0.10755 0.86561 0.0
H1385 H 0.41948 0.1172 0.79571 0.0
H1386 H 0.38809 0.09647 0.86439 0.0
H1387 H 0.39015 0.10579 0.79561 0.0
H1388 H 0.46483 0.06434 0.85175 0.0
H1389 H 0.4346 0.09289 0.8534 0.0
H1390 H 0.47393 0.08858 0.82865 0.0
H1391 H 0.42614 0.06856 0.87596 0.0
H1392 H 0.39083 0.05335 0.81852 0.0
H1393 H 0.42167 0.05832 0.76354 0.0
H1394 H 0.44178 0.12799 0.91886 0.0
H1395 H 0.47473 0.11036 0.91326 0.0
H1396 H 0.47738 0.1408 0.76204 0.0
H1397 H 0.42666 0.10887 0.76304 0.0
H1398 H 0.47502 0.14841 0.72356 0.0
H1399 H 0.42516 0.11718 0.72464 0.0
H1400 H 0.48896 0.173 0.83526 0.0
H1401 H 0.48915 0.12876 0.8396 0.0
H1402 H 0.51507 0.18647 0.85467 0.0
H1403 H 0.51515 0.14295 0.85904 0.0
H1404 H 0.42414 0.16598 0.80705 0.0
H1405 H 0.46462 0.18201 0.76323 0.0
H1406 H 0.49688 0.09923 0.76842 0.0
H1407 H 0.52578 0.15054 0.77296 0.0
Li1408 Li 0.33466 0.45474 0.84296 0.0
Li1409 Li 0.33708 0.44175 0.80911 0.0
Li1410 Li 0.34711 0.47157 0.8103 0.0
Li1411 Li 0.31836 0.45221 0.80897 0.0
C1412 C 0.36562 0.46097 0.84242 0.0
N1413 N 0.38822 0.46528 0.87377 0.0
C1414 C 0.36846 0.44853 0.84749 0.0
C1415 C 0.37445 0.47567 0.85302 0.0
C1416 C 0.37988 0.45093 0.86347 0.0
C1417 C 0.38577 0.4776 0.86889 0.0
C1418 C 0.307 0.41931 0.82698 0.0
C1419 C 0.28842 0.39626 0.806 0.0
N1420 N 0.28494 0.38719 0.82461 0.0
C1421 C 0.30318 0.4098 0.84593 0.0
C1422 C 0.29953 0.41253 0.80687 0.0
C1423 C 0.29202 0.39357 0.84438 0.0
C1424 C 0.33231 0.46317 0.8878 0.0
N1425 N 0.33508 0.45348 0.8745 0.0
C1426 C 0.34039 0.44191 0.90599 0.0
C1427 C 0.33865 0.44269 0.88315 0.0
C1428 C 0.33809 0.45209 0.92011 0.0
C1429 C 0.33369 0.46262 0.91082 0.0
H1430 H 0.32919 0.47144 0.88055 0.0
H1431 H 0.34033 0.43481 0.87224 0.0
C1432 C 0.35127 0.42912 0.78078 0.0
N1433 N 0.34181 0.42597 0.7989 0.0
C1434 C 0.3565 0.41862 0.77446 0.0
C1435 C 0.34169 0.40156 0.80509 0.0
C1436 C 0.33694 0.41248 0.81097 0.0
C1437 C 0.35192 0.40471 0.78691 0.0
H1438 H 0.3552 0.44009 0.7717 0.0
H1439 H 0.32985 0.41043 0.82568 0.0
C1440 C 0.33271 0.48562 0.83373 0.0
N1441 N 0.33875 0.5162 0.84186 0.0
C1442 C 0.32312 0.49099 0.82413 0.0
C1443 C 0.34524 0.49573 0.84767 0.0
C1444 C 0.3264 0.50651 0.8284 0.0
C1445 C 0.34814 0.51117 0.85151 0.0
C1446 C 0.33061 0.45455 0.76511 0.0
C1447 C 0.33406 0.46827 0.75318 0.0
C1448 C 0.323 0.43974 0.75455 0.0
C1449 C 0.32944 0.46688 0.73099 0.0
C1450 C 0.31858 0.43884 0.73233 0.0
N1451 N 0.32184 0.45232 0.72111 0.0
C1452 C 0.3787 0.49404 0.79874 0.0
C1453 C 0.36054 0.50344 0.79403 0.0
C1454 C 0.39134 0.50866 0.79167 0.0
N1455 N 0.3637 0.49178 0.80005 0.0
C1456 C 0.37284 0.51831 0.78724 0.0
C1457 C 0.38849 0.52107 0.7861 0.0
H1458 H 0.38087 0.4845 0.80329 0.0
H1459 H 0.34846 0.50121 0.79442 0.0
C1460 C 0.28462 0.4376 0.80845 0.0
N1461 N 0.29823 0.44877 0.79843 0.0
C1462 C 0.26978 0.43472 0.80091 0.0
C1463 C 0.28321 0.45532 0.77341 0.0
C1464 C 0.29778 0.45777 0.78147 0.0
C1465 C 0.26892 0.44356 0.78304 0.0
H1466 H 0.28527 0.43094 0.82239 0.0
H1467 H 0.30873 0.46697 0.77429 0.0
O1468 O 0.3544 0.4588 0.82695 0.0
O1469 O 0.31801 0.43519 0.8282 0.0
O1470 O 0.32971 0.47049 0.82963 0.0
O1471 O 0.33517 0.45572 0.7868 0.0
H1472 H 0.3618 0.43711 0.83932 0.0
H1473 H 0.37264 0.48551 0.84896 0.0
H1474 H 0.38211 0.44137 0.86768 0.0
H1475 H 0.39265 0.4889 0.8773 0.0
H1476 H 0.28255 0.39085 0.79054 0.0
H1477 H 0.30884 0.4149 0.86163 0.0
H1478 H 0.30217 0.41978 0.79217 0.0
H1479 H 0.28899 0.38604 0.85888 0.0
H1480 H 0.34352 0.43343 0.91255 0.0
H1481 H 0.33181 0.47065 0.92119 0.0
H1482 H 0.36457 0.42173 0.76054 0.0
H1483 H 0.33763 0.39092 0.81503 0.0
H1484 H 0.3133 0.48328 0.81343 0.0
H1485 H 0.35264 0.4917 0.85545 0.0
H1486 H 0.31912 0.51085 0.82099 0.0
H1487 H 0.35785 0.51915 0.8622 0.0
H1488 H 0.34011 0.47985 0.76105 0.0
H1489 H 0.32068 0.42906 0.76333 0.0
H1490 H 0.3319 0.47738 0.72161 0.0
H1491 H 0.31263 0.42745 0.72396 0.0
H1492 H 0.40326 0.51036 0.79103 0.0
H1493 H 0.37014 0.52752 0.78272 0.0
H1494 H 0.25911 0.42579 0.80918 0.0
H1495 H 0.28314 0.46242 0.7596 0.0
Li1496 Li 0.89609 0.33666 0.81014 0.0
Li1497 Li 0.87946 0.33261 0.84303 0.0
Li1498 Li 0.86727 0.31734 0.80714 0.0
Li1499 Li 0.87703 0.34687 0.8107 0.0
C1500 C 0.88837 0.30605 0.829 0.0
N1501 N 0.89918 0.28464 0.83222 0.0
C1502 C 0.8959 0.30533 0.84835 0.0
C1503 C 0.88614 0.29577 0.8114 0.0
C1504 C 0.90133 0.29445 0.84963 0.0
C1505 C 0.89175 0.28506 0.81332 0.0
C1506 C 0.90552 0.3643 0.84424 0.0
C1507 C 0.91052 0.38534 0.86995 0.0
N1508 N 0.92513 0.38723 0.87436 0.0
C1509 C 0.92064 0.36653 0.84885 0.0
C1510 C 0.90045 0.37385 0.8547 0.0
C1511 C 0.93035 0.37816 0.86419 0.0
C1512 C 0.92382 0.35483 0.78546 0.0
N1513 N 0.91688 0.34218 0.7995 0.0
C1514 C 0.93971 0.33889 0.7974 0.0
C1515 C 0.92458 0.33432 0.80575 0.0
C1516 C 0.94705 0.35171 0.7825 0.0
C1517 C 0.93889 0.35975 0.7766 0.0
H1518 H 0.9176 0.36109 0.78105 0.0
H1519 H 0.91914 0.32459 0.81734 0.0
C1520 C 0.86285 0.3221 0.88318 0.0
N1521 N 0.87775 0.33091 0.87465 0.0
C1522 C 0.86044 0.32118 0.90606 0.0
C1523 C 0.88884 0.33787 0.91113 0.0
C1524 C 0.8907 0.33838 0.88811 0.0
C1525 C 0.8735 0.32941 0.92041 0.0
H1526 H 0.85277 0.31592 0.87217 0.0
H1527 H 0.90248 0.34491 0.88105 0.0
C1528 C 0.88645 0.33644 0.76588 0.0
N1529 N 0.89793 0.33914 0.72327 0.0
C1530 C 0.88782 0.34861 0.75201 0.0
C1531 C 0.89092 0.32566 0.75813 0.0
C1532 C 0.89363 0.34976 0.73049 0.0
C1533 C 0.89673 0.32725 0.73654 0.0
C1534 C 0.84795 0.33145 0.83408 0.0
C1535 C 0.83259 0.32258 0.82534 0.0
C1536 C 0.85126 0.34333 0.84974 0.0
C1537 C 0.82079 0.32587 0.83232 0.0
C1538 C 0.83913 0.34625 0.8563 0.0
N1539 N 0.82428 0.33753 0.84752 0.0
C1540 C 0.84205 0.28514 0.80699 0.0
C1541 C 0.84947 0.29759 0.77177 0.0
C1542 C 0.83035 0.27096 0.79728 0.0
N1543 N 0.85134 0.29804 0.79413 0.0
C1544 C 0.8381 0.28365 0.76138 0.0
C1545 C 0.82839 0.2701 0.77415 0.0
H1546 H 0.84378 0.28588 0.82476 0.0
H1547 H 0.85676 0.30808 0.76196 0.0
C1548 C 0.8865 0.37864 0.80034 0.0
N1549 N 0.8737 0.36366 0.80116 0.0
C1550 C 0.88466 0.3914 0.79352 0.0
C1551 C 0.85653 0.37304 0.78838 0.0
C1552 C 0.85895 0.36062 0.79501 0.0
C1553 C 0.86948 0.38868 0.78765 0.0
H1554 H 0.89814 0.38067 0.80502 0.0
H1555 H 0.84906 0.34855 0.79518 0.0
O1556 O 0.88298 0.31662 0.8275 0.0
O1557 O 0.89589 0.35304 0.82919 0.0
O1558 O 0.88051 0.335 0.78684 0.0
O1559 O 0.85965 0.32844 0.82734 0.0
H1560 H 0.89761 0.31316 0.86217 0.0
H1561 H 0.8801 0.29601 0.79646 0.0
H1562 H 0.90727 0.2938 0.86445 0.0
H1563 H 0.89016 0.27707 0.7998 0.0
H1564 H 0.90673 0.39278 0.87824 0.0
H1565 H 0.92476 0.35929 0.84079 0.0
H1566 H 0.88891 0.37247 0.85102 0.0
H1567 H 0.94205 0.37996 0.86803 0.0
H1568 H 0.94568 0.33256 0.80281 0.0
H1569 H 0.94399 0.36961 0.76504 0.0
H1570 H 0.84844 0.31414 0.91242 0.0
H1571 H 0.89927 0.34441 0.92148 0.0
H1572 H 0.88434 0.35701 0.75777 0.0
H1573 H 0.88996 0.31622 0.76868 0.0
H1574 H 0.89469 0.35907 0.71952 0.0
H1575 H 0.90026 0.319 0.73032 0.0
H1576 H 0.82986 0.31332 0.81323 0.0
H1577 H 0.86305 0.35017 0.8568 0.0
H1578 H 0.80886 0.31914 0.82566 0.0
H1579 H 0.84153 0.35542 0.8684 0.0
H1580 H 0.82309 0.26073 0.80766 0.0
H1581 H 0.83677 0.28354 0.74354 0.0
H1582 H 0.89494 0.4033 0.79323 0.0
H1583 H 0.84468 0.37044 0.78362 0.0
Li1584 Li 0.13502 0.45332 0.69332 0.0
Li1585 Li 0.12454 0.47163 0.68941 0.0
Li1586 Li 0.10586 0.44187 0.69276 0.0
Li1587 Li 0.12091 0.4538 0.65823 0.0
C1588 C 0.12625 0.45732 0.73576 0.0
N1589 N 0.13593 0.45778 0.77895 0.0
C1590 C 0.1361 0.47183 0.74632 0.0
C1591 C 0.12109 0.44305 0.74727 0.0
C1592 C 0.14094 0.47181 0.76814 0.0
C1593 C 0.12618 0.44353 0.76906 0.0
C1594 C 0.15286 0.48623 0.66712 0.0
C1595 C 0.16229 0.51086 0.6471 0.0
N1596 N 0.17599 0.51746 0.65915 0.0
C1597 C 0.16709 0.49318 0.67914 0.0
C1598 C 0.15049 0.49507 0.65081 0.0
C1599 C 0.17862 0.50901 0.67492 0.0
C1600 C 0.1534 0.43825 0.69661 0.0
N1601 N 0.1518 0.45041 0.70496 0.0
C1602 C 0.17359 0.4575 0.72982 0.0
C1603 C 0.16178 0.46015 0.72101 0.0
C1604 C 0.17522 0.44474 0.72195 0.0
C1605 C 0.16501 0.43515 0.70496 0.0
H1606 H 0.14565 0.43093 0.68344 0.0
H1607 H 0.1606 0.47 0.727 0.0
C1608 C 0.11224 0.4915 0.69751 0.0
N1609 N 0.12624 0.49148 0.69771 0.0
C1610 C 0.11176 0.50518 0.70323 0.0
C1611 C 0.1401 0.5186 0.71009 0.0
C1612 C 0.14003 0.50459 0.70416 0.0
C1613 C 0.12583 0.51904 0.70944 0.0
H1614 H 0.10134 0.48081 0.69306 0.0
H1615 H 0.15095 0.50419 0.7049 0.0
C1616 C 0.11213 0.41902 0.67618 0.0
N1617 N 0.09835 0.38629 0.67854 0.0
C1618 C 0.10509 0.40966 0.6574 0.0
C1619 C 0.11234 0.41176 0.69608 0.0
C1620 C 0.09813 0.39312 0.65895 0.0
C1621 C 0.10527 0.39519 0.69696 0.0
C1622 C 0.0954 0.45902 0.65721 0.0
C1623 C 0.0798 0.44669 0.65366 0.0
C1624 C 0.10138 0.47303 0.64482 0.0
C1625 C 0.07053 0.44847 0.63743 0.0
C1626 C 0.09174 0.47437 0.62875 0.0
N1627 N 0.07665 0.46215 0.62539 0.0
C1628 C 0.08138 0.42962 0.72437 0.0
C1629 C 0.07588 0.41286 0.6931 0.0
C1630 C 0.06641 0.41923 0.73332 0.0
N1631 N 0.08581 0.42628 0.70462 0.0
C1632 C 0.06086 0.40205 0.70153 0.0
C1633 C 0.05591 0.40525 0.72182 0.0
H1634 H 0.0894 0.44052 0.733 0.0
H1635 H 0.07942 0.41073 0.67707 0.0
C1636 C 0.13266 0.45944 0.61368 0.0
N1637 N 0.1196 0.45133 0.62676 0.0
C1638 C 0.13143 0.45727 0.59067 0.0
C1639 C 0.10333 0.43858 0.59511 0.0
C1640 C 0.10516 0.44095 0.61796 0.0
C1641 C 0.11659 0.44668 0.58105 0.0
H1642 H 0.14407 0.46746 0.62112 0.0
H1643 H 0.09504 0.43436 0.62873 0.0
O1644 O 0.12138 0.45711 0.71443 0.0
O1645 O 0.14144 0.47076 0.67105 0.0
O1646 O 0.11892 0.43523 0.675 0.0
O1647 O 0.10468 0.45744 0.67295 0.0
H1648 H 0.1401 0.48297 0.7377 0.0
H1649 H 0.11314 0.43174 0.73954 0.0
H1650 H 0.14867 0.48295 0.77646 0.0
H1651 H 0.12232 0.43258 0.77814 0.0
H1652 H 0.16058 0.51787 0.6346 0.0
H1653 H 0.16918 0.48647 0.69167 0.0
H1654 H 0.13969 0.48977 0.64106 0.0
H1655 H 0.18965 0.51457 0.6842 0.0
H1656 H 0.18118 0.4652 0.74292 0.0
H1657 H 0.16606 0.4254 0.69803 0.0
H1658 H 0.10042 0.50483 0.70305 0.0
H1659 H 0.15121 0.529 0.71486 0.0
H1660 H 0.10495 0.4151 0.64181 0.0
H1661 H 0.11799 0.41885 0.71064 0.0
H1662 H 0.09257 0.38573 0.64457 0.0
H1663 H 0.10531 0.38941 0.71228 0.0
H1664 H 0.07494 0.43581 0.66322 0.0
H1665 H 0.11331 0.4828 0.64768 0.0
H1666 H 0.05847 0.43898 0.63439 0.0
H1667 H 0.09624 0.48513 0.61899 0.0
H1668 H 0.06308 0.4221 0.74905 0.0
H1669 H 0.05301 0.39156 0.69195 0.0
H1670 H 0.14206 0.46359 0.58063 0.0
H1671 H 0.09159 0.43051 0.58861 0.0
Li1672 Li 0.68324 0.13455 0.69288 0.0
Li1673 Li 0.65356 0.12332 0.69035 0.0
Li1674 Li 0.66459 0.10611 0.69513 0.0
Li1675 Li 0.6674 0.11889 0.65914 0.0
C1676 C 0.66468 0.11671 0.73603 0.0
N1677 N 0.66044 0.10244 0.77702 0.0
C1678 C 0.65095 0.11257 0.74836 0.0
C1679 C 0.67634 0.11374 0.74462 0.0
C1680 C 0.64901 0.10534 0.76904 0.0
C1681 C 0.67394 0.10645 0.76534 0.0
C1682 C 0.67095 0.15374 0.66968 0.0
C1683 C 0.66519 0.17208 0.65041 0.0
N1684 N 0.67152 0.18249 0.6676 0.0
C1685 C 0.67744 0.16463 0.68713 0.0
C1686 C 0.66484 0.1575 0.65112 0.0
C1687 C 0.67761 0.17911 0.68576 0.0
C1688 C 0.71372 0.16085 0.68597 0.0
N1689 N 0.70325 0.15177 0.70198 0.0
C1690 C 0.72191 0.16704 0.73036 0.0
C1691 C 0.70697 0.15467 0.72385 0.0
C1692 C 0.7331 0.17659 0.71419 0.0
C1693 C 0.72875 0.17341 0.69172 0.0
H1694 H 0.71037 0.15829 0.66871 0.0
H1695 H 0.69838 0.14731 0.73624 0.0
C1696 C 0.622 0.11096 0.70248 0.0
N1697 N 0.63538 0.12516 0.69846 0.0
C1698 C 0.60767 0.11033 0.70755 0.0
C1699 C 0.6212 0.13905 0.70563 0.0
C1700 C 0.63529 0.13912 0.70024 0.0
C1701 C 0.60712 0.12448 0.70897 0.0
H1702 H 0.62244 0.10004 0.70162 0.0
H1703 H 0.64602 0.1503 0.69741 0.0
C1704 C 0.69398 0.1113 0.67667 0.0
N1705 N 0.71442 0.0992 0.67699 0.0
C1706 C 0.69263 0.10038 0.66048 0.0
C1707 C 0.70581 0.1162 0.6929 0.0
C1708 C 0.70306 0.09437 0.66096 0.0
C1709 C 0.716 0.1099 0.69281 0.0
C1710 C 0.63498 0.09831 0.66042 0.0
C1711 C 0.62415 0.08209 0.65765 0.0
C1712 C 0.63284 0.10954 0.64873 0.0
C1713 C 0.61131 0.07735 0.64317 0.0
C1714 C 0.61984 0.10434 0.63443 0.0
N1715 N 0.60943 0.08849 0.63196 0.0
C1716 C 0.64472 0.07948 0.71956 0.0
C1717 C 0.66846 0.07941 0.71036 0.0
C1718 C 0.63925 0.0655 0.73177 0.0
N1719 N 0.65922 0.08634 0.70951 0.0
C1720 C 0.66323 0.06513 0.72195 0.0
C1721 C 0.64857 0.0582 0.73305 0.0
H1722 H 0.63751 0.08509 0.71837 0.0
H1723 H 0.67989 0.0849 0.70231 0.0
C1724 C 0.67543 0.12987 0.61478 0.0
N1725 N 0.66811 0.11673 0.62789 0.0
C1726 C 0.67609 0.12825 0.59182 0.0
C1727 C 0.66161 0.09964 0.59639 0.0
C1728 C 0.66124 0.10181 0.61921 0.0
C1729 C 0.66918 0.11297 0.58234 0.0
H1730 H 0.68087 0.14159 0.62218 0.0
H1731 H 0.65551 0.09158 0.63006 0.0
O1732 O 0.66666 0.12358 0.71562 0.0
O1733 O 0.67088 0.13961 0.67049 0.0
O1734 O 0.68402 0.11746 0.67629 0.0
O1735 O 0.64767 0.10307 0.6744 0.0
H1736 H 0.64185 0.11486 0.74199 0.0
H1737 H 0.68701 0.11682 0.73525 0.0
H1738 H 0.63842 0.10202 0.77873 0.0
H1739 H 0.6828 0.10396 0.77212 0.0
H1740 H 0.66047 0.17513 0.63618 0.0
H1741 H 0.68207 0.16186 0.70172 0.0
H1742 H 0.65991 0.14926 0.63737 0.0
H1743 H 0.68253 0.18762 0.69918 0.0
H1744 H 0.72476 0.16891 0.74785 0.0
H1745 H 0.73681 0.1806 0.67868 0.0
H1746 H 0.59711 0.09887 0.71041 0.0
H1747 H 0.62123 0.15022 0.70665 0.0
H1748 H 0.68359 0.09655 0.64774 0.0
H1749 H 0.70711 0.12475 0.70542 0.0
H1750 H 0.70213 0.08586 0.64859 0.0
H1751 H 0.72518 0.11353 0.70531 0.0
H1752 H 0.62568 0.07326 0.66658 0.0
H1753 H 0.64111 0.12213 0.65071 0.0
H1754 H 0.60283 0.06483 0.64084 0.0
H1755 H 0.61803 0.1129 0.62528 0.0
H1756 H 0.62782 0.06037 0.74006 0.0
H1757 H 0.67069 0.05976 0.72267 0.0
H1758 H 0.6822 0.13886 0.58168 0.0
H1759 H 0.65592 0.08764 0.58982 0.0
Li1760 Li 0.55085 0.68302 0.6949 0.0
Li1761 Li 0.53086 0.65511 0.69477 0.0
Li1762 Li 0.56072 0.66439 0.69478 0.0
Li1763 Li 0.54695 0.66804 0.66126 0.0
C1764 C 0.54716 0.67244 0.73817 0.0
N1765 N 0.54656 0.68407 0.77971 0.0
C1766 C 0.53456 0.67479 0.74418 0.0
C1767 C 0.5594 0.6759 0.75327 0.0
C1768 C 0.5345 0.68072 0.76527 0.0
C1769 C 0.55889 0.68179 0.7742 0.0
C1770 C 0.51713 0.66822 0.66713 0.0
C1771 C 0.49578 0.65185 0.64201 0.0
N1772 N 0.48786 0.65945 0.64846 0.0
C1773 C 0.50882 0.67593 0.67343 0.0
C1774 C 0.51061 0.65612 0.65126 0.0
C1775 C 0.49402 0.67129 0.66384 0.0
C1776 C 0.54944 0.7108 0.69081 0.0
N1777 N 0.55503 0.70367 0.70466 0.0
C1778 C 0.56574 0.72621 0.729 0.0
C1779 C 0.56323 0.71111 0.72339 0.0
C1780 C 0.56003 0.73381 0.71496 0.0
C1781 C 0.55181 0.72591 0.69563 0.0
H1782 H 0.54324 0.70479 0.67581 0.0
H1783 H 0.56804 0.70549 0.73383 0.0
C1784 C 0.50921 0.62435 0.71061 0.0
N1785 N 0.51097 0.6389 0.70622 0.0
C1786 C 0.49519 0.61243 0.72034 0.0
C1787 C 0.485 0.63064 0.72057 0.0
C1788 C 0.49924 0.64222 0.71101 0.0
C1789 C 0.48287 0.61553 0.72564 0.0
H1790 H 0.51884 0.62211 0.70698 0.0
H1791 H 0.50102 0.65396 0.70783 0.0
C1792 C 0.57903 0.69881 0.67764 0.0
N1793 N 0.60107 0.73068 0.68333 0.0
C1794 C 0.57995 0.71004 0.6623 0.0
C1795 C 0.58933 0.70375 0.69583 0.0
C1796 C 0.59117 0.72611 0.66549 0.0
C1797 C 0.6004 0.71993 0.69842 0.0
C1798 C 0.54005 0.63511 0.66359 0.0
C1799 C 0.55249 0.63231 0.65841 0.0
C1800 C 0.52466 0.62462 0.65598 0.0
C1801 C 0.54936 0.61917 0.64531 0.0
C1802 C 0.52202 0.61163 0.64291 0.0
N1803 N 0.53433 0.6092 0.63787 0.0
C1804 C 0.57206 0.64755 0.71977 0.0
C1805 C 0.59067 0.66619 0.69431 0.0
C1806 C 0.58286 0.64267 0.72593 0.0
N1807 N 0.57611 0.65902 0.70412 0.0
C1808 C 0.60186 0.66172 0.70001 0.0
C1809 C 0.59796 0.64967 0.71584 0.0
H1810 H 0.56031 0.64198 0.72713 0.0
H1811 H 0.59351 0.67521 0.68179 0.0
C1812 C 0.5452 0.68111 0.62085 0.0
N1813 N 0.54716 0.66926 0.62956 0.0
C1814 C 0.54623 0.6837 0.59799 0.0
C1815 C 0.55085 0.66159 0.5933 0.0
C1816 C 0.5499 0.65953 0.6163 0.0
C1817 C 0.54923 0.67395 0.58392 0.0
H1818 H 0.5431 0.68873 0.63176 0.0
H1819 H 0.55173 0.65039 0.62349 0.0
O1820 O 0.54747 0.66665 0.71767 0.0
O1821 O 0.53158 0.67258 0.67654 0.0
O1822 O 0.5678 0.6831 0.67522 0.0
O1823 O 0.5429 0.6479 0.67642 0.0
H1824 H 0.52504 0.67221 0.73261 0.0
H1825 H 0.56921 0.67411 0.7488 0.0
H1826 H 0.52488 0.68268 0.77014 0.0
H1827 H 0.5683 0.68457 0.78605 0.0
H1828 H 0.49059 0.6425 0.6297 0.0
H1829 H 0.51369 0.68529 0.68578 0.0
H1830 H 0.51694 0.65015 0.64604 0.0
H1831 H 0.48742 0.6771 0.66865 0.0
H1832 H 0.57235 0.73201 0.74389 0.0
H1833 H 0.54713 0.73129 0.68441 0.0
H1834 H 0.49424 0.60108 0.72424 0.0
H1835 H 0.4758 0.63356 0.72405 0.0
H1836 H 0.57199 0.70639 0.6482 0.0
H1837 H 0.58862 0.69522 0.708 0.0
H1838 H 0.59197 0.73495 0.65382 0.0
H1839 H 0.6084 0.72395 0.71248 0.0
H1840 H 0.56446 0.64028 0.66427 0.0
H1841 H 0.51483 0.62641 0.66022 0.0
H1842 H 0.55889 0.61691 0.64104 0.0
H1843 H 0.51018 0.60344 0.63683 0.0
H1844 H 0.57922 0.63317 0.73795 0.0
H1845 H 0.6134 0.66759 0.692 0.0
H1846 H 0.54478 0.6933 0.5914 0.0
H1847 H 0.55337 0.65394 0.58304 0.0
Li1848 Li 0.87939 0.5314 0.6955 0.0
Li1849 Li 0.86897 0.5497 0.69801 0.0
Li1850 Li 0.88074 0.54739 0.66281 0.0
Li1851 Li 0.89769 0.56097 0.69438 0.0
C1852 C 0.85392 0.51748 0.66531 0.0
N1853 N 0.8387 0.49093 0.63845 0.0
C1854 C 0.83763 0.51062 0.66104 0.0
C1855 C 0.86248 0.51086 0.65594 0.0
C1856 C 0.83014 0.49718 0.64742 0.0
C1857 C 0.85457 0.49743 0.6424 0.0
C1858 C 0.88071 0.54943 0.73996 0.0
C1859 C 0.88424 0.56638 0.77123 0.0
N1860 N 0.87437 0.55331 0.78343 0.0
C1861 C 0.87082 0.53615 0.7529 0.0
C1862 C 0.88767 0.56466 0.74925 0.0
C1863 C 0.86766 0.53836 0.7748 0.0
C1864 C 0.88905 0.51023 0.71225 0.0
N1865 N 0.8763 0.51181 0.70683 0.0
C1866 C 0.85833 0.48569 0.72036 0.0
C1867 C 0.86115 0.49992 0.71065 0.0
C1868 C 0.87123 0.48374 0.7266 0.0
C1869 C 0.88678 0.49622 0.72222 0.0
H1870 H 0.90098 0.52001 0.7093 0.0
H1871 H 0.85124 0.5016 0.70649 0.0
C1872 C 0.84751 0.56184 0.70688 0.0
N1873 N 0.85136 0.55036 0.71094 0.0
C1874 C 0.83328 0.56024 0.71521 0.0
C1875 C 0.82752 0.53526 0.7319 0.0
C1876 C 0.84168 0.53725 0.72311 0.0
C1877 C 0.82293 0.54665 0.7276 0.0
H1878 H 0.85512 0.5719 0.69651 0.0
H1879 H 0.84473 0.52804 0.72539 0.0
C1880 C 0.91077 0.54916 0.66203 0.0
N1881 N 0.93655 0.5592 0.63399 0.0
C1882 C 0.91681 0.56366 0.65083 0.0
C1883 C 0.91777 0.53973 0.65894 0.0
C1884 C 0.92989 0.56855 0.63675 0.0
C1885 C 0.93081 0.54502 0.64469 0.0
C1886 C 0.88908 0.58283 0.67814 0.0
C1887 C 0.89509 0.5919 0.65885 0.0
C1888 C 0.88881 0.59024 0.69787 0.0
C1889 C 0.9009 0.60831 0.6597 0.0
C1890 C 0.89473 0.60667 0.69804 0.0
N1891 N 0.90062 0.61529 0.67912 0.0
C1892 C 0.87237 0.55578 0.62276 0.0
C1893 C 0.8853 0.54073 0.61796 0.0
C1894 C 0.87201 0.55769 0.59988 0.0
N1895 N 0.87921 0.54768 0.63132 0.0
C1896 C 0.88525 0.54239 0.59495 0.0
C1897 C 0.87878 0.55121 0.58562 0.0
H1898 H 0.86747 0.56104 0.63379 0.0
H1899 H 0.89054 0.5342 0.62514 0.0
C1900 C 0.92537 0.57329 0.72029 0.0
N1901 N 0.91856 0.57714 0.70348 0.0
C1902 C 0.9411 0.58379 0.72663 0.0
C1903 C 0.94241 0.60223 0.69866 0.0
C1904 C 0.92674 0.59132 0.69273 0.0
C1905 C 0.94995 0.59844 0.71557 0.0
H1906 H 0.91869 0.56183 0.72836 0.0
H1907 H 0.92134 0.59407 0.67911 0.0
O1908 O 0.86138 0.53066 0.67857 0.0
O1909 O 0.88393 0.54749 0.71849 0.0
O1910 O 0.89774 0.54391 0.67544 0.0
O1911 O 0.88348 0.56679 0.67762 0.0
H1912 H 0.83086 0.51563 0.6682 0.0
H1913 H 0.8751 0.516 0.65909 0.0
H1914 H 0.81753 0.49174 0.64397 0.0
H1915 H 0.86104 0.49218 0.63503 0.0
H1916 H 0.88949 0.57811 0.77861 0.0
H1917 H 0.86555 0.52426 0.74605 0.0
H1918 H 0.89575 0.57503 0.73968 0.0
H1919 H 0.8599 0.5282 0.78495 0.0
H1920 H 0.84613 0.47634 0.72304 0.0
H1921 H 0.8971 0.49539 0.72702 0.0
H1922 H 0.83013 0.5692 0.71119 0.0
H1923 H 0.82007 0.52469 0.74158 0.0
H1924 H 0.91133 0.57094 0.65275 0.0
H1925 H 0.9131 0.5284 0.66735 0.0
H1926 H 0.93468 0.57973 0.62793 0.0
H1927 H 0.93633 0.53783 0.64208 0.0
H1928 H 0.89543 0.58637 0.64344 0.0
H1929 H 0.88397 0.58336 0.71283 0.0
H1930 H 0.90568 0.61549 0.64494 0.0
H1931 H 0.89461 0.61256 0.71321 0.0
H1932 H 0.86659 0.5643 0.59345 0.0
H1933 H 0.89069 0.53726 0.58466 0.0
H1934 H 0.94642 0.58019 0.73951 0.0
H1935 H 0.94862 0.61343 0.68982 0.0
Li1936 Li 0.34918 0.87764 0.69147 0.0
Li1937 Li 0.32044 0.86781 0.69493 0.0
Li1938 Li 0.33449 0.88081 0.66016 0.0
Li1939 Li 0.33842 0.89648 0.69349 0.0
C1940 C 0.33705 0.85348 0.65973 0.0
N1941 N 0.34828 0.83925 0.63084 0.0
C1942 C 0.32782 0.83725 0.65497 0.0
C1943 C 0.35199 0.8625 0.6498 0.0
C1944 C 0.33371 0.83027 0.64032 0.0
C1945 C 0.35746 0.85508 0.63524 0.0
C1946 C 0.33204 0.87749 0.7368 0.0
C1947 C 0.31549 0.87806 0.7662 0.0
N1948 N 0.31993 0.86949 0.77923 0.0
C1949 C 0.33657 0.86883 0.75053 0.0
C1950 C 0.32154 0.88227 0.74471 0.0
C1951 C 0.33026 0.86485 0.77191 0.0
C1952 C 0.38045 0.8872 0.70538 0.0
N1953 N 0.36602 0.87432 0.70071 0.0
C1954 C 0.37569 0.85664 0.70953 0.0
C1955 C 0.36338 0.85923 0.70287 0.0
C1956 C 0.39081 0.8697 0.71424 0.0
C1957 C 0.39309 0.88515 0.71225 0.0
H1958 H 0.38214 0.89906 0.70374 0.0
H1959 H 0.35169 0.84921 0.69942 0.0
C1960 C 0.28698 0.84907 0.70409 0.0
N1961 N 0.30164 0.85097 0.70811 0.0
C1962 C 0.27353 0.83697 0.71479 0.0
C1963 C 0.29059 0.82909 0.73345 0.0
C1964 C 0.30359 0.84105 0.72203 0.0
C1965 C 0.27536 0.82702 0.72996 0.0
H1966 H 0.28573 0.857 0.69272 0.0
H1967 H 0.31532 0.84256 0.72447 0.0
C1968 C 0.36437 0.91014 0.66099 0.0
N1969 N 0.38307 0.93651 0.63506 0.0
C1970 C 0.35813 0.91929 0.65254 0.0
C1971 C 0.38011 0.91436 0.65624 0.0
C1972 C 0.36777 0.93259 0.63948 0.0
C1973 C 0.38937 0.92774 0.6431 0.0
C1974 C 0.31081 0.89219 0.67369 0.0
C1975 C 0.31217 0.89994 0.65358 0.0
C1976 C 0.30156 0.89315 0.69075 0.0
C1977 C 0.30451 0.90881 0.65104 0.0
C1978 C 0.2941 0.90214 0.68757 0.0
N1979 N 0.29573 0.90974 0.66795 0.0
C1980 C 0.3175 0.87008 0.6205 0.0
C1981 C 0.34519 0.88703 0.61476 0.0
C1982 C 0.31495 0.8676 0.5977 0.0
N1983 N 0.33243 0.87961 0.62857 0.0
C1984 C 0.34317 0.88501 0.59182 0.0
C1985 C 0.3279 0.87505 0.58305 0.0
H1986 H 0.30759 0.86421 0.63187 0.0
H1987 H 0.35702 0.89418 0.62148 0.0
C1988 C 0.35227 0.9197 0.72557 0.0
N1989 N 0.34364 0.91658 0.7066 0.0
C1990 C 0.35691 0.93371 0.73735 0.0
C1991 C 0.34426 0.94155 0.70951 0.0
C1992 C 0.3397 0.92723 0.69831 0.0
C1993 C 0.35285 0.94482 0.72944 0.0
H1994 H 0.35559 0.91126 0.73157 0.0
H1995 H 0.33308 0.92473 0.68304 0.0
O1996 O 0.33137 0.86046 0.67398 0.0
O1997 O 0.33793 0.88133 0.71573 0.0
O1998 O 0.35511 0.89696 0.67357 0.0
O1999 O 0.31812 0.88336 0.67643 0.0
H2000 H 0.31622 0.83012 0.66253 0.0
H2001 H 0.35932 0.87508 0.65329 0.0
H2002 H 0.3267 0.8177 0.63649 0.0
H2003 H 0.36899 0.86191 0.62743 0.0
H2004 H 0.30729 0.88161 0.77251 0.0
H2005 H 0.34476 0.86511 0.74463 0.0
H2006 H 0.31811 0.88917 0.73438 0.0
H2007 H 0.33357 0.85805 0.78269 0.0
H2008 H 0.37336 0.84453 0.71119 0.0
H2009 H 0.40458 0.89554 0.71559 0.0
H2010 H 0.26193 0.83566 0.71172 0.0
H2011 H 0.29238 0.82149 0.74485 0.0
H2012 H 0.34596 0.91609 0.65589 0.0
H2013 H 0.38507 0.9073 0.6625 0.0
H2014 H 0.36308 0.93978 0.63281 0.0
H2015 H 0.40157 0.93113 0.63924 0.0
H2016 H 0.3191 0.89917 0.64009 0.0
H2017 H 0.30014 0.88698 0.70626 0.0
H2018 H 0.30555 0.91495 0.63562 0.0
H2019 H 0.28698 0.90306 0.70067 0.0
H2020 H 0.30297 0.85989 0.59161 0.0
H2021 H 0.3535 0.89075 0.58111 0.0
H2022 H 0.36381 0.93591 0.75239 0.0
H2023 H 0.34092 0.94984 0.70285 0.0
Li2024 Li 0.45371 0.31972 0.6954 0.0
Li2025 Li 0.47199 0.34844 0.69037 0.0
Li2026 Li 0.44252 0.33765 0.69408 0.0
Li2027 Li 0.45416 0.33381 0.65984 0.0
C2028 C 0.4558 0.33192 0.73716 0.0
N2029 N 0.45159 0.32068 0.78013 0.0
C2030 C 0.46895 0.33673 0.75108 0.0
C2031 C 0.4405 0.32157 0.74517 0.0
C2032 C 0.46658 0.33087 0.77273 0.0
C2033 C 0.43862 0.31597 0.76692 0.0
C2034 C 0.48684 0.33514 0.67053 0.0
C2035 C 0.51202 0.35126 0.65215 0.0
N2036 N 0.51879 0.34503 0.66561 0.0
C2037 C 0.494 0.32879 0.68404 0.0
C2038 C 0.49586 0.34635 0.65432 0.0
C2039 C 0.51019 0.33398 0.68134 0.0
C2040 C 0.43925 0.28645 0.69796 0.0
N2041 N 0.45078 0.30014 0.70734 0.0
C2042 C 0.45714 0.28528 0.73294 0.0
C2043 C 0.45984 0.29982 0.72434 0.0
C2044 C 0.44507 0.27092 0.72387 0.0
C2045 C 0.43615 0.27167 0.706 0.0
H2046 H 0.43244 0.28701 0.68415 0.0
H2047 H 0.46918 0.31084 0.73123 0.0
C2048 C 0.4946 0.38086 0.69186 0.0
N2049 N 0.49216 0.36633 0.69807 0.0
C2050 C 0.50877 0.39465 0.69719 0.0
C2051 C 0.51767 0.37842 0.71582 0.0
C2052 C 0.50329 0.36487 0.70998 0.0
C2053 C 0.52055 0.39356 0.70928 0.0
H2054 H 0.48542 0.38179 0.68304 0.0
H2055 H 0.50097 0.35323 0.71514 0.0
C2056 C 0.4193 0.30924 0.67617 0.0
N2057 N 0.38642 0.2923 0.67413 0.0
C2058 C 0.41143 0.31018 0.65732 0.0
C2059 C 0.41046 0.2995 0.69384 0.0
C2060 C 0.39479 0.30157 0.65664 0.0
C2061 C 0.39385 0.29109 0.69254 0.0
C2062 C 0.45745 0.36325 0.65652 0.0
C2063 C 0.44435 0.36548 0.65417 0.0
C2064 C 0.47013 0.37052 0.64158 0.0
C2065 C 0.44407 0.37481 0.63671 0.0
C2066 C 0.4694 0.37974 0.62432 0.0
N2067 N 0.45649 0.38167 0.62226 0.0
C2068 C 0.43235 0.35047 0.72686 0.0
C2069 C 0.41322 0.33892 0.69816 0.0
C2070 C 0.42267 0.35488 0.73829 0.0
N2071 N 0.42745 0.34245 0.70734 0.0
C2072 C 0.40318 0.34326 0.70898 0.0
C2073 C 0.40784 0.35125 0.72943 0.0
H2074 H 0.4439 0.35359 0.73351 0.0
H2075 H 0.40974 0.333 0.68232 0.0
C2076 C 0.45978 0.32359 0.61933 0.0
N2077 N 0.45255 0.33123 0.62825 0.0
C2078 C 0.45907 0.32079 0.59656 0.0
C2079 C 0.44361 0.33392 0.59236 0.0
C2080 C 0.44444 0.33628 0.61529 0.0
C2081 C 0.45089 0.32597 0.58277 0.0
H2082 H 0.466 0.31953 0.62997 0.0
H2083 H 0.4384 0.34193 0.62272 0.0
O2084 O 0.45791 0.33745 0.71586 0.0
O2085 O 0.47106 0.33036 0.6731 0.0
O2086 O 0.43558 0.31753 0.67707 0.0
O2087 O 0.45794 0.35418 0.67354 0.0
H2088 H 0.48086 0.34484 0.7452 0.0
H2089 H 0.43019 0.31799 0.73475 0.0
H2090 H 0.47665 0.33442 0.78365 0.0
H2091 H 0.42684 0.30791 0.77331 0.0
H2092 H 0.51917 0.35999 0.63975 0.0
H2093 H 0.48716 0.32004 0.69659 0.0
H2094 H 0.49044 0.35122 0.64355 0.0
H2095 H 0.51591 0.32925 0.69178 0.0
H2096 H 0.46428 0.2853 0.74677 0.0
H2097 H 0.42697 0.26094 0.69815 0.0
H2098 H 0.51034 0.40609 0.69226 0.0
H2099 H 0.52646 0.37708 0.72518 0.0
H2100 H 0.41807 0.31756 0.64344 0.0
H2101 H 0.41635 0.29834 0.70834 0.0
H2102 H 0.38854 0.30227 0.64222 0.0
H2103 H 0.38686 0.28355 0.70613 0.0
H2104 H 0.43448 0.36003 0.66564 0.0
H2105 H 0.48042 0.36905 0.64328 0.0
H2106 H 0.43398 0.37658 0.63464 0.0
H2107 H 0.4791 0.38538 0.61259 0.0
H2108 H 0.42691 0.36136 0.75374 0.0
H2109 H 0.39186 0.34032 0.70154 0.0
H2110 H 0.4649 0.31468 0.58978 0.0
H2111 H 0.437 0.33789 0.5823 0.0
H2112 H 0.38991 0.02738 0.21534 0.0
H2113 H 0.40275 0.05514 0.27609 0.0
H2114 H 0.38844 0.03039 0.29781 0.0
H2115 H 0.35057 0.99567 0.23344 0.0
H2116 H 0.35262 0.98031 0.21959 0.0
H2117 H 0.36243 1.00028 0.20862 0.0
H2118 H 0.38952 0.00102 0.20998 0.0
H2119 H 0.37981 0.98109 0.22097 0.0
H2120 H 0.39621 0.99698 0.23579 0.0
H2121 H 0.37432 0.00258 0.31319 0.0
H2122 H 0.36204 0.97381 0.32101 0.0
H2123 H 0.35903 0.96411 0.2504 0.0
C2124 C 0.38968 0.0283 0.2332 0.0
C2125 C 0.3974 0.0433 0.24393 0.0
C2126 C 0.39667 0.04388 0.26737 0.0
C2127 C 0.38863 0.02985 0.27991 0.0
C2128 C 0.38135 0.0153 0.26881 0.0
C2129 C 0.38178 0.01442 0.24598 0.0
C2130 C 0.37377 0.99727 0.2382 0.0
C2131 C 0.35897 0.99314 0.22413 0.0
C2132 C 0.38553 0.9939 0.22549 0.0
C2133 C 0.36916 0.98865 0.26025 0.0
C2134 C 0.37343 0.99926 0.27768 0.0
C2135 C 0.37077 0.99415 0.29966 0.0
C2136 C 0.36372 0.97777 0.30393 0.0
C2137 C 0.35951 0.96669 0.28633 0.0
C2138 C 0.36216 0.97228 0.26422 0.0
H2139 H 0.39843 0.36115 0.24844 0.0
H2140 H 0.38303 0.3548 0.31704 0.0
H2141 H 0.36581 0.36618 0.3085 0.0
H2142 H 0.40168 0.39818 0.2404 0.0
H2143 H 0.39431 0.39449 0.21233 0.0
H2144 H 0.40394 0.38419 0.22327 0.0
H2145 H 0.37908 0.35705 0.21367 0.0
H2146 H 0.36936 0.36729 0.20262 0.0
H2147 H 0.35983 0.35255 0.22406 0.0
H2148 H 0.35233 0.38066 0.29326 0.0
H2149 H 0.34336 0.39673 0.27217 0.0
H2150 H 0.36764 0.3937 0.21374 0.0
C2151 C 0.39129 0.36199 0.2616 0.0
C2152 C 0.39203 0.35705 0.28339 0.0
C2153 C 0.38247 0.35829 0.30016 0.0
C2154 C 0.3727 0.36479 0.29548 0.0
C2155 C 0.37248 0.36981 0.2739 0.0
C2156 C 0.38142 0.36835 0.25719 0.0
C2157 C 0.37966 0.37533 0.23564 0.0
C2158 C 0.39586 0.38885 0.22744 0.0
C2159 C 0.3715 0.36228 0.21795 0.0
C2160 C 0.3689 0.38159 0.24305 0.0
C2161 C 0.36467 0.37807 0.2651 0.0
C2162 C 0.35535 0.38325 0.27591 0.0
C2163 C 0.35032 0.39233 0.26388 0.0
C2164 C 0.3547 0.39616 0.24143 0.0
C2165 C 0.36399 0.39065 0.23085 0.0
H2166 H 0.96671 0.37592 0.24609 0.0
H2167 H 0.9636 0.33368 0.21607 0.0
H2168 H 0.99121 0.3427 0.22776 0.0
H2169 H 0.00662 0.40305 0.23293 0.0
H2170 H 0.01104 0.41359 0.25893 0.0
H2171 H 0.99102 0.40376 0.24825 0.0
H2172 H 0.9807 0.38766 0.28474 0.0
H2173 H 1.0007 0.39749 0.29558 0.0
H2174 H 0.98932 0.37604 0.29443 0.0
H2175 H 0.01976 0.35709 0.24144 0.0
H2176 H 0.04639 0.37507 0.2575 0.0
H2177 H 0.02983 0.40666 0.28057 0.0
C2178 C 0.97161 0.36831 0.24228 0.0
C2179 C 0.96283 0.35405 0.23003 0.0
C2180 C 0.97006 0.34479 0.22505 0.0
C2181 C 0.98573 0.34975 0.23179 0.0
C2182 C 0.99397 0.36387 0.24378 0.0
C2183 C 0.98708 0.37292 0.24918 0.0
C2184 C 0.99842 0.3876 0.26225 0.0
C2185 C 0.00199 0.4029 0.24984 0.0
C2186 C 0.99189 0.38716 0.28564 0.0
C2187 C 0.0129 0.38556 0.26305 0.0
C2188 C 0.01013 0.37182 0.25228 0.0
C2189 C 0.022 0.36779 0.2501 0.0
C2190 C 0.03708 0.37808 0.25918 0.0
C2191 C 0.04008 0.39215 0.27041 0.0
C2192 C 0.02777 0.39583 0.27242 0.0
H2193 H 0.59919 0.96279 0.25127 0.0
H2194 H 0.62431 0.9712 0.18877 0.0
H2195 H 0.64107 0.99967 0.19843 0.0
H2196 H 0.59774 0.99832 0.25156 0.0
H2197 H 0.6006 0.00154 0.28104 0.0
H2198 H 0.59147 0.98162 0.27006 0.0
H2199 H 0.61278 0.97725 0.28964 0.0
H2200 H 0.62197 0.99717 0.30072 0.0
H2201 H 0.6336 0.99099 0.28463 0.0
H2202 H 0.65389 0.0274 0.21376 0.0
H2203 H 0.66185 0.05257 0.23364 0.0
H2204 H 0.62846 0.02615 0.28626 0.0
C2205 C 0.60845 0.97056 0.23983 0.0
C2206 C 0.6105 0.96478 0.21929 0.0
C2207 C 0.62248 0.9754 0.20452 0.0
C2208 C 0.63211 0.99156 0.20993 0.0
C2209 C 0.62964 0.9969 0.23017 0.0
C2210 C 0.61813 0.98672 0.24493 0.0
C2211 C 0.61732 0.99567 0.26504 0.0
C2212 C 0.6008 0.9942 0.26703 0.0
C2213 C 0.62168 0.98992 0.28626 0.0
C2214 C 0.63001 0.0125 0.25915 0.0
C2215 C 0.63703 0.01293 0.23902 0.0
C2216 C 0.64857 0.0272 0.22961 0.0
C2217 C 0.65295 0.04143 0.24095 0.0
C2218 C 0.64579 0.0413 0.26149 0.0
C2219 C 0.63432 0.02659 0.27077 0.0
H2220 H 0.60288 0.62812 0.29356 0.0
H2221 H 0.61818 0.66635 0.24547 0.0
H2222 H 0.63481 0.65712 0.22699 0.0
H2223 H 0.64155 0.62921 0.29697 0.0
H2224 H 0.63215 0.60788 0.29982 0.0
H2225 H 0.62237 0.61823 0.31024 0.0
H2226 H 0.59746 0.6 0.28659 0.0
H2227 H 0.60719 0.58969 0.27598 0.0
H2228 H 0.59959 0.59871 0.25709 0.0
H2229 H 0.64807 0.64254 0.21203 0.0
H2230 H 0.65743 0.62395 0.20203 0.0
H2231 H 0.63455 0.5959 0.26084 0.0
C2232 C 0.61001 0.6348 0.27947 0.0
C2233 C 0.60916 0.64795 0.27095 0.0
C2234 C 0.61845 0.65612 0.25215 0.0
C2235 C 0.62803 0.65104 0.24162 0.0
C2236 C 0.62834 0.63786 0.2502 0.0
C2237 C 0.6197 0.62993 0.26881 0.0
C2238 C 0.62164 0.61571 0.27411 0.0
C2239 C 0.62992 0.61789 0.29662 0.0
C2240 C 0.60551 0.60011 0.27339 0.0
C2241 C 0.63235 0.61662 0.2552 0.0
C2242 C 0.63618 0.62957 0.24171 0.0
C2243 C 0.64536 0.63251 0.22267 0.0
C2244 C 0.65071 0.62191 0.21719 0.0
C2245 C 0.64686 0.60848 0.2307 0.0
C2246 C 0.63766 0.60597 0.25007 0.0
H2247 H 0.03792 0.64306 0.25691 0.0
H2248 H 0.02854 0.63851 0.18615 0.0
H2249 H 0.99969 0.62542 0.19357 0.0
H2250 H 0.00581 0.60557 0.27208 0.0
H2251 H 0.00125 0.6123 0.29744 0.0
H2252 H 0.02125 0.62249 0.28668 0.0
H2253 H 0.02107 0.64914 0.2867 0.0
H2254 H 0.00107 0.63903 0.29757 0.0
H2255 H 0.00543 0.65039 0.27231 0.0
H2256 H 0.97191 0.61078 0.20852 0.0
H2257 H 0.94707 0.59645 0.2299 0.0
H2258 H 0.97428 0.61127 0.29118 0.0
C2259 C 0.02979 0.63941 0.24298 0.0
C2260 C 0.03551 0.6419 0.22093 0.0
C2261 C 0.02448 0.637 0.20317 0.0
C2262 C 0.00806 0.62946 0.20721 0.0
C2263 C 0.00282 0.62702 0.22912 0.0
C2264 C 0.01335 0.63196 0.24672 0.0
C2265 C 0.00456 0.62745 0.26868 0.0
C2266 C 0.00845 0.61629 0.282 0.0
C2267 C 0.00825 0.64239 0.2821 0.0
C2268 C 0.98745 0.61883 0.26064 0.0
C2269 C 0.98674 0.6188 0.23777 0.0
C2270 C 0.9723 0.61097 0.22645 0.0
C2271 C 0.95821 0.60295 0.23881 0.0
C2272 C 0.95857 0.60283 0.26233 0.0
C2273 C 0.97348 0.61102 0.27327 0.0
H2274 H 0.61042 0.96484 0.75291 0.0
H2275 H 0.60503 0.97374 0.82203 0.0
H2276 H 0.61946 0.00263 0.81481 0.0
H2277 H 0.65015 0.99978 0.74488 0.0
H2278 H 0.64574 0.00334 0.71715 0.0
H2279 H 0.6361 0.98336 0.72806 0.0
H2280 H 0.60849 0.9803 0.71962 0.0
H2281 H 0.61802 1.00025 0.70871 0.0
H2282 H 0.60365 0.99461 0.73076 0.0
H2283 H 0.63201 0.03025 0.79957 0.0
H2284 H 0.64303 0.055 0.77733 0.0
H2285 H 0.64103 0.02855 0.71835 0.0
C2286 C 0.61239 0.97287 0.76657 0.0
C2287 C 0.60667 0.96699 0.78809 0.0
C2288 C 0.60954 0.97792 0.8055 0.0
C2289 C 0.61766 0.99437 0.80155 0.0
C2290 C 0.62294 0.99975 0.78012 0.0
C2291 C 0.62055 0.98935 0.76293 0.0
C2292 C 0.6269 0.99824 0.74126 0.0
C2293 C 0.64053 0.99605 0.73232 0.0
C2294 C 0.61346 0.99304 0.72408 0.0
C2295 C 0.63296 0.01521 0.74889 0.0
C2296 C 0.63055 0.0158 0.77138 0.0
C2297 C 0.6342 0.02999 0.78203 0.0
C2298 C 0.64039 0.04394 0.76932 0.0
C2299 C 0.643 0.04359 0.74633 0.0
C2300 C 0.6394 0.02909 0.73603 0.0
H2301 H 0.63702 0.60987 0.79005 0.0
H2302 H 0.65989 0.60642 0.73016 0.0
H2303 H 0.64957 0.62139 0.7096 0.0
H2304 H 0.60193 0.60354 0.76499 0.0
H2305 H 0.59937 0.6174 0.78195 0.0
H2306 H 0.60999 0.60805 0.79269 0.0
H2307 H 0.6345 0.63573 0.80094 0.0
H2308 H 0.62389 0.6452 0.79039 0.0
H2309 H 0.64304 0.65024 0.77901 0.0
H2310 H 0.63495 0.63454 0.69485 0.0
H2311 H 0.61716 0.64523 0.68686 0.0
H2312 H 0.60403 0.64066 0.75642 0.0
C2313 C 0.6402 0.61264 0.77275 0.0
C2314 C 0.6493 0.60705 0.76169 0.0
C2315 C 0.65288 0.61055 0.7389 0.0
C2316 C 0.64714 0.6191 0.72713 0.0
C2317 C 0.63788 0.62412 0.73838 0.0
C2318 C 0.6345 0.62113 0.76071 0.0
C2319 C 0.62344 0.62698 0.76847 0.0
C2320 C 0.60776 0.61317 0.77755 0.0
C2321 C 0.63172 0.64033 0.78572 0.0
C2322 C 0.6208 0.63333 0.7469 0.0
C2323 C 0.62938 0.63172 0.72981 0.0
C2324 C 0.62837 0.6361 0.70816 0.0
C2325 C 0.61827 0.64224 0.70381 0.0
C2326 C 0.60926 0.64393 0.72101 0.0
C2327 C 0.61069 0.63949 0.74287 0.0
H2328 H 0.96498 0.60476 0.75634 0.0
H2329 H 0.97406 0.61635 0.68634 0.0
H2330 H 0.00259 0.63357 0.69431 0.0
H2331 H 0.99522 0.6436 0.77786 0.0
H2332 H 1.00068 0.63506 0.80036 0.0
H2333 H 0.98064 0.62479 0.78963 0.0
H2334 H 0.98295 0.59966 0.78242 0.0
H2335 H 0.00295 0.60982 0.79319 0.0
H2336 H 0.99916 0.60133 0.76575 0.0
H2337 H 0.03025 0.64836 0.70925 0.0
H2338 H 0.05542 0.65893 0.73004 0.0
H2339 H 0.02881 0.6367 0.79008 0.0
C2340 C 0.97293 0.61094 0.74267 0.0
C2341 C 0.96713 0.60929 0.72071 0.0
C2342 C 0.97803 0.61768 0.70337 0.0
C2343 C 0.99433 0.62745 0.7077 0.0
C2344 C 0.99961 0.62872 0.72946 0.0
C2345 C 0.98928 0.62068 0.74666 0.0
C2346 C 0.99822 0.62342 0.76834 0.0
C2347 C 0.9934 0.63224 0.78503 0.0
C2348 C 0.99567 0.60762 0.77798 0.0
C2349 C 0.01522 0.63394 0.76049 0.0
C2350 C 0.0157 0.63701 0.73805 0.0
C2351 C 0.03003 0.64607 0.72684 0.0
C2352 C 0.04427 0.65193 0.73878 0.0
C2353 C 0.04413 0.64859 0.76169 0.0
C2354 C 0.02935 0.63967 0.77268 0.0
H2355 H 0.39651 0.03892 0.74893 0.0
H2356 H 0.3899 0.02862 0.81948 0.0
H2357 H 0.374 0.99998 0.81125 0.0
H2358 H 0.3574 0.00681 0.7309 0.0
H2359 H 0.36525 0.00259 0.70636 0.0
H2360 H 0.37487 0.02249 0.71757 0.0
H2361 H 0.40156 0.02249 0.71993 0.0
H2362 H 0.39204 0.00262 0.70871 0.0
H2363 H 0.40233 0.00678 0.73489 0.0
H2364 H 0.36051 0.97246 0.79584 0.0
H2365 H 0.3505 0.94773 0.77407 0.0
H2366 H 0.36636 0.9755 0.71348 0.0
C2367 C 0.39167 0.03067 0.76267 0.0
C2368 C 0.39437 0.03615 0.78488 0.0
C2369 C 0.38773 0.02486 0.80232 0.0
C2370 C 0.37874 0.00852 0.79783 0.0
C2371 C 0.37645 0.00355 0.77582 0.0
C2372 C 0.3827 0.01427 0.7585 0.0
C2373 C 0.37919 0.0057 0.73639 0.0
C2374 C 0.36854 0.00963 0.72196 0.0
C2375 C 0.3947 0.00963 0.72428 0.0
C2376 C 0.37029 0.9885 0.74406 0.0
C2377 C 0.36874 0.98757 0.76686 0.0
C2378 C 0.36156 0.97303 0.77797 0.0
C2379 C 0.35599 0.95906 0.76547 0.0
C2380 C 0.35766 0.95969 0.7421 0.0
C2381 C 0.36471 0.97463 0.73128 0.0
H2382 H 0.35889 0.39666 0.74604 0.0
H2383 H 0.36075 0.38921 0.81677 0.0
H2384 H 0.37282 0.37264 0.80922 0.0
H2385 H 0.35119 0.35734 0.72777 0.0
H2386 H 0.36395 0.36519 0.70385 0.0
H2387 H 0.35386 0.37517 0.71448 0.0
H2388 H 0.38089 0.4014 0.71815 0.0
H2389 H 0.39104 0.39153 0.70748 0.0
H2390 H 0.39673 0.40148 0.73394 0.0
H2391 H 0.38634 0.3585 0.79461 0.0
H2392 H 0.40116 0.34821 0.77369 0.0
H2393 H 0.39168 0.36551 0.71248 0.0
C2394 C 0.36175 0.3915 0.75996 0.0
C2395 C 0.35861 0.39412 0.78202 0.0
C2396 C 0.36258 0.38708 0.79969 0.0
C2397 C 0.36955 0.3777 0.7956 0.0
C2398 C 0.37257 0.37546 0.77374 0.0
C2399 C 0.36884 0.38216 0.75619 0.0
C2400 C 0.37427 0.37867 0.73437 0.0
C2401 C 0.35996 0.36848 0.71923 0.0
C2402 C 0.38646 0.39419 0.72282 0.0
C2403 C 0.38194 0.36928 0.7425 0.0
C2404 C 0.38065 0.36744 0.76525 0.0
C2405 C 0.38735 0.35978 0.77677 0.0
C2406 C 0.39582 0.35406 0.76477 0.0
C2407 C 0.39759 0.35608 0.74148 0.0
C2408 C 0.39032 0.36358 0.73022 0.0
H2409 H 0.03476 0.41322 0.73941 0.0
H2410 H 0.04044 0.37265 0.72379 0.0
H2411 H 0.01327 0.35446 0.73787 0.0
H2412 H 0.01257 0.39768 0.79007 0.0
H2413 H 0.99982 0.40594 0.78506 0.0
H2414 H 0.01975 0.41566 0.77399 0.0
H2415 H 0.00851 0.41414 0.73451 0.0
H2416 H 0.98855 0.40436 0.74544 0.0
H2417 H 0.99372 0.3951 0.72356 0.0
H2418 H 0.98541 0.34076 0.75355 0.0
H2419 H 0.95882 0.33252 0.76902 0.0
H2420 H 0.97163 0.38218 0.77481 0.0
C2421 C 0.03035 0.40051 0.73918 0.0
C2422 C 0.03972 0.39433 0.7306 0.0
C2423 C 0.03341 0.37762 0.73016 0.0
C2424 C 0.01804 0.36722 0.7382 0.0
C2425 C 0.0091 0.37372 0.7465 0.0
C2426 C 0.01502 0.38998 0.74699 0.0
C2427 C 0.0029 0.39391 0.75633 0.0
C2428 C 0.00913 0.40388 0.77763 0.0
C2429 C 0.99814 0.40238 0.73892 0.0
C2430 C 0.98926 0.37733 0.76118 0.0
C2431 C 0.99307 0.36584 0.7554 0.0
C2432 C 0.98232 0.34966 0.75822 0.0
C2433 C 0.96727 0.3451 0.76715 0.0
C2434 C 0.96309 0.35668 0.7732 0.0
C2435 C 0.97433 0.373 0.77015 0.0
H2436 H 0.45178 0.19463 0.2516 0.0
H2437 H 0.43972 0.19597 0.18257 0.0
H2438 H 0.43742 0.21968 0.19025 0.0
H2439 H 0.42605 0.20745 0.27527 0.0
H2440 H 0.44004 0.21958 0.29638 0.0
H2441 H 0.44037 0.20238 0.28576 0.0
H2442 H 0.47017 0.22003 0.27541 0.0
H2443 H 0.46996 0.23726 0.28614 0.0
H2444 H 0.47623 0.23724 0.25802 0.0
H2445 H 0.43621 0.24308 0.20524 0.0
H2446 H 0.4373 0.26539 0.22623 0.0
H2447 H 0.45177 0.25001 0.28508 0.0
C2448 C 0.44878 0.19995 0.23803 0.0
C2449 C 0.44575 0.19323 0.2165 0.0
C2450 C 0.44173 0.20059 0.19932 0.0
C2451 C 0.44049 0.21415 0.20347 0.0
C2452 C 0.44343 0.22036 0.22486 0.0
C2453 C 0.44759 0.21359 0.24184 0.0
C2454 C 0.45043 0.22286 0.26323 0.0
C2455 C 0.43851 0.21244 0.28122 0.0
C2456 C 0.46773 0.22976 0.27116 0.0
C2457 C 0.44723 0.2359 0.25557 0.0
C2458 C 0.44313 0.23416 0.23341 0.0
C2459 C 0.43954 0.24465 0.22257 0.0
C2460 C 0.4403 0.25736 0.23464 0.0
C2461 C 0.44477 0.25962 0.25732 0.0
C2462 C 0.44817 0.24861 0.26786 0.0
H2463 H 0.19615 0.45517 0.24743 0.0
H2464 H 0.18818 0.42803 0.30805 0.0
H2465 H 0.21082 0.42422 0.29889 0.0
H2466 H 0.20796 0.43204 0.2133 0.0
H2467 H 0.22302 0.44913 0.19856 0.0
H2468 H 0.20577 0.44928 0.20936 0.0
H2469 H 0.22404 0.4752 0.23109 0.0
H2470 H 0.24134 0.47516 0.22029 0.0
H2471 H 0.23878 0.47569 0.24981 0.0
H2472 H 0.23471 0.42401 0.28401 0.0
H2473 H 0.25861 0.42762 0.26437 0.0
H2474 H 0.25159 0.45525 0.21361 0.0
C2475 C 0.19919 0.44846 0.25881 0.0
C2476 C 0.19028 0.44179 0.2784 0.0
C2477 C 0.19461 0.433 0.29275 0.0
C2478 C 0.20751 0.43083 0.28775 0.0
C2479 C 0.216 0.43753 0.26833 0.0
C2480 C 0.21206 0.44617 0.25407 0.0
C2481 C 0.2234 0.45237 0.23451 0.0
C2482 C 0.2145 0.44528 0.21264 0.0
C2483 C 0.23243 0.47069 0.2339 0.0
C2484 C 0.23442 0.44601 0.24017 0.0
C2485 C 0.22988 0.43744 0.25972 0.0
C2486 C 0.23838 0.43068 0.26867 0.0
C2487 C 0.25198 0.43286 0.25746 0.0
C2488 C 0.25699 0.44175 0.23751 0.0
C2489 C 0.24795 0.44825 0.22868 0.0
H2490 H 0.7428 0.20656 0.27727 0.0
H2491 H 0.75439 0.16983 0.26142 0.0
H2492 H 0.77985 0.19014 0.24508 0.0
H2493 H 0.75918 0.22965 0.22745 0.0
H2494 H 0.76665 0.24857 0.24121 0.0
H2495 H 0.74937 0.23116 0.25195 0.0
H2496 H 0.76326 0.23565 0.29011 0.0
H2497 H 0.7806 0.25304 0.27947 0.0
H2498 H 0.78252 0.23712 0.29171 0.0
H2499 H 0.80381 0.21422 0.22993 0.0
H2500 H 0.82491 0.24068 0.21729 0.0
H2501 H 0.79786 0.26189 0.24266 0.0
C2502 C 0.75064 0.20278 0.27024 0.0
C2503 C 0.74661 0.18659 0.27073 0.0
C2504 C 0.75731 0.18217 0.26155 0.0
C2505 C 0.77177 0.19361 0.25211 0.0
C2506 C 0.77539 0.20944 0.25197 0.0
C2507 C 0.76517 0.21406 0.26078 0.0
C2508 C 0.77197 0.23188 0.25845 0.0
C2509 C 0.76115 0.23553 0.2439 0.0
C2510 C 0.77475 0.23989 0.2813 0.0
C2511 C 0.78759 0.23654 0.24693 0.0
C2512 C 0.7893 0.22339 0.24331 0.0
C2513 C 0.80261 0.22461 0.23266 0.0
C2514 C 0.81449 0.23967 0.22545 0.0
C2515 C 0.81302 0.25333 0.22895 0.0
C2516 C 0.79939 0.25169 0.23995 0.0
H2517 H 0.54854 0.79648 0.21246 0.0
H2518 H 0.56305 0.82647 0.27102 0.0
H2519 H 0.56617 0.80614 0.29152 0.0
H2520 H 0.52539 0.75961 0.24118 0.0
H2521 H 0.53089 0.74831 0.22317 0.0
H2522 H 0.53058 0.76554 0.21268 0.0
H2523 H 0.55999 0.77782 0.2002 0.0
H2524 H 0.56039 0.76061 0.21063 0.0
H2525 H 0.57489 0.78024 0.22014 0.0
H2526 H 0.56767 0.78271 0.30566 0.0
H2527 H 0.56608 0.75692 0.31327 0.0
H2528 H 0.54972 0.74155 0.24603 0.0
C2529 C 0.55252 0.79879 0.22953 0.0
C2530 C 0.5556 0.81304 0.2402 0.0
C2531 C 0.56055 0.81558 0.26263 0.0
C2532 C 0.56242 0.80415 0.27435 0.0
C2533 C 0.5592 0.79019 0.26344 0.0
C2534 C 0.55426 0.7874 0.24158 0.0
C2535 C 0.55097 0.77109 0.23409 0.0
C2536 C 0.53341 0.76052 0.22739 0.0
C2537 C 0.56223 0.77253 0.21514 0.0
C2538 C 0.55475 0.76514 0.25519 0.0
C2539 C 0.55964 0.77643 0.27181 0.0
C2540 C 0.56388 0.77377 0.29277 0.0
C2541 C 0.56301 0.75914 0.2969 0.0
C2542 C 0.55782 0.74728 0.28023 0.0
C2543 C 0.55365 0.75037 0.25911 0.0
H2544 H 0.73907 0.53547 0.2416 0.0
H2545 H 0.75994 0.58551 0.22505 0.0
H2546 H 0.78575 0.59076 0.24055 0.0
H2547 H 0.76026 0.54051 0.29297 0.0
H2548 H 0.76289 0.52359 0.28841 0.0
H2549 H 0.74593 0.52387 0.27671 0.0
H2550 H 0.7538 0.5191 0.23759 0.0
H2551 H 0.77078 0.51881 0.24917 0.0
H2552 H 0.77349 0.53248 0.22711 0.0
H2553 H 0.80903 0.59064 0.25845 0.0
H2554 H 0.82888 0.58488 0.27526 0.0
H2555 H 0.79335 0.53468 0.27847 0.0
C2556 C 0.74908 0.54753 0.24141 0.0
C2557 C 0.74757 0.56013 0.23228 0.0
C2558 C 0.76093 0.57572 0.23195 0.0
C2559 C 0.77558 0.57881 0.24077 0.0
C2560 C 0.77671 0.56613 0.24962 0.0
C2561 C 0.76387 0.55077 0.24982 0.0
C2562 C 0.76846 0.53921 0.25956 0.0
C2563 C 0.75881 0.53133 0.28067 0.0
C2564 C 0.76652 0.52666 0.24233 0.0
C2565 C 0.78585 0.55047 0.26486 0.0
C2566 C 0.79032 0.56597 0.2592 0.0
C2567 C 0.8057 0.57854 0.26289 0.0
C2568 C 0.81686 0.57518 0.27252 0.0
C2569 C 0.81262 0.55936 0.2781 0.0
C2570 C 0.79691 0.54687 0.27418 0.0
H2571 H 0.19009 0.74789 0.2559 0.0
H2572 H 0.20091 0.75211 0.18548 0.0
H2573 H 0.22604 0.77696 0.19243 0.0
H2574 H 0.20684 0.78982 0.26714 0.0
H2575 H 0.21498 0.78903 0.29367 0.0
H2576 H 0.19742 0.77174 0.28327 0.0
H2577 H 0.21133 0.75498 0.28739 0.0
H2578 H 0.22891 0.77219 0.29788 0.0
H2579 H 0.23032 0.76164 0.27417 0.0
H2580 H 0.25005 0.80115 0.20666 0.0
H2581 H 0.27195 0.82292 0.22758 0.0
H2582 H 0.24653 0.80265 0.2891 0.0
C2583 C 0.19775 0.75398 0.24194 0.0
C2584 C 0.19331 0.74806 0.22007 0.0
C2585 C 0.20374 0.75653 0.20231 0.0
C2586 C 0.21814 0.77063 0.20609 0.0
C2587 C 0.22209 0.77614 0.22775 0.0
C2588 C 0.21228 0.76808 0.24542 0.0
C2589 C 0.21961 0.77646 0.26713 0.0
C2590 C 0.20908 0.7821 0.27847 0.0
C2591 C 0.22273 0.76568 0.28255 0.0
C2592 C 0.23507 0.79045 0.25886 0.0
C2593 C 0.2362 0.79003 0.23608 0.0
C2594 C 0.24936 0.80158 0.22453 0.0
C2595 C 0.26179 0.81385 0.2366 0.0
C2596 C 0.26107 0.81447 0.26003 0.0
C2597 C 0.24742 0.80262 0.27122 0.0
H2598 H 0.55607 0.74503 0.75499 0.0
H2599 H 0.56975 0.75892 0.68655 0.0
H2600 H 0.57243 0.78516 0.6942 0.0
H2601 H 0.53254 0.76333 0.76072 0.0
H2602 H 0.53829 0.76966 0.78897 0.0
H2603 H 0.53849 0.75233 0.77863 0.0
H2604 H 0.56815 0.76474 0.78984 0.0
H2605 H 0.56804 0.7821 0.80029 0.0
H2606 H 0.58248 0.78425 0.77972 0.0
H2607 H 0.57187 0.80905 0.70837 0.0
H2608 H 0.56865 0.82945 0.72855 0.0
H2609 H 0.55588 0.80057 0.78809 0.0
C2610 C 0.55991 0.75372 0.74174 0.0
C2611 C 0.56268 0.74994 0.72015 0.0
C2612 C 0.56741 0.76151 0.70314 0.0
C2613 C 0.56905 0.77647 0.70735 0.0
C2614 C 0.56597 0.77973 0.72869 0.0
C2615 C 0.56157 0.76874 0.74565 0.0
C2616 C 0.55828 0.77504 0.76682 0.0
C2617 C 0.54087 0.76446 0.77421 0.0
C2618 C 0.56994 0.77663 0.78526 0.0
C2619 C 0.5614 0.79123 0.75904 0.0
C2620 C 0.56583 0.79367 0.73698 0.0
C2621 C 0.56857 0.80735 0.72571 0.0
C2622 C 0.56665 0.81883 0.73725 0.0
C2623 C 0.56211 0.81659 0.75985 0.0
C2624 C 0.55962 0.80267 0.77092 0.0
H2625 H 0.75791 0.56739 0.77506 0.0
H2626 H 0.72373 0.51677 0.76987 0.0
H2627 H 0.74465 0.5121 0.75507 0.0
H2628 H 0.78005 0.57069 0.72578 0.0
H2629 H 0.79922 0.58432 0.73759 0.0
H2630 H 0.78159 0.584 0.74776 0.0
H2631 H 0.78803 0.57903 0.78764 0.0
H2632 H 0.80574 0.57944 0.77762 0.0
H2633 H 0.79105 0.56242 0.7929 0.0
H2634 H 0.7686 0.51268 0.74002 0.0
H2635 H 0.79495 0.51827 0.72721 0.0
H2636 H 0.8146 0.56827 0.74384 0.0
C2637 C 0.75486 0.55531 0.77099 0.0
C2638 C 0.73905 0.54249 0.77332 0.0
C2639 C 0.7356 0.52687 0.76771 0.0
C2640 C 0.74743 0.52405 0.75942 0.0
C2641 C 0.76277 0.53693 0.75702 0.0
C2642 C 0.76661 0.55223 0.76278 0.0
C2643 C 0.78416 0.56385 0.75871 0.0
C2644 C 0.78638 0.57646 0.74143 0.0
C2645 C 0.79275 0.57164 0.78052 0.0
C2646 C 0.78949 0.55264 0.74969 0.0
C2647 C 0.77689 0.53719 0.74883 0.0
C2648 C 0.77863 0.52469 0.74086 0.0
C2649 C 0.79371 0.52799 0.73377 0.0
C2650 C 0.80698 0.54367 0.73485 0.0
C2651 C 0.80474 0.55617 0.74277 0.0
H2652 H 0.24757 0.80216 0.71372 0.0
H2653 H 0.2725 0.8242 0.77473 0.0
H2654 H 0.25015 0.80329 0.79643 0.0
H2655 H 0.20715 0.78855 0.73366 0.0
H2656 H 0.19866 0.76998 0.71871 0.0
H2657 H 0.21604 0.78734 0.70802 0.0
H2658 H 0.23118 0.77162 0.70684 0.0
H2659 H 0.21388 0.75425 0.71756 0.0
H2660 H 0.23271 0.76216 0.73172 0.0
H2661 H 0.22543 0.7799 0.8114 0.0
H2662 H 0.20064 0.75456 0.81878 0.0
H2663 H 0.19221 0.74677 0.74807 0.0
C2664 C 0.24816 0.80264 0.73165 0.0
C2665 C 0.26162 0.81479 0.74266 0.0
C2666 C 0.26222 0.81495 0.7661 0.0
C2667 C 0.24959 0.80318 0.77851 0.0
C2668 C 0.23653 0.79125 0.7672 0.0
C2669 C 0.23575 0.7908 0.7443 0.0
C2670 C 0.22077 0.77612 0.73629 0.0
C2671 C 0.21002 0.78078 0.72341 0.0
C2672 C 0.22489 0.76541 0.72228 0.0
C2673 C 0.21332 0.76835 0.75823 0.0
C2674 C 0.22251 0.7774 0.77584 0.0
C2675 C 0.21811 0.77272 0.79775 0.0
C2676 C 0.20399 0.75836 0.80179 0.0
C2677 C 0.19452 0.74874 0.78401 0.0
C2678 C 0.19927 0.75386 0.76196 0.0
H2679 H 0.46655 0.26205 0.7381 0.0
H2680 H 0.41587 0.24429 0.73031 0.0
H2681 H 0.41011 0.2181 0.74462 0.0
H2682 H 0.46604 0.22627 0.72215 0.0
H2683 H 0.48072 0.22836 0.74225 0.0
H2684 H 0.48094 0.2458 0.73149 0.0
H2685 H 0.47935 0.25474 0.77143 0.0
H2686 H 0.4792 0.23736 0.78233 0.0
H2687 H 0.46343 0.24129 0.78945 0.0
H2688 H 0.4098 0.19378 0.75948 0.0
H2689 H 0.41497 0.173 0.77398 0.0
H2690 H 0.46581 0.20676 0.77323 0.0
C2691 C 0.45423 0.25271 0.73961 0.0
C2692 C 0.44167 0.25525 0.73296 0.0
C2693 C 0.42572 0.2426 0.73494 0.0
C2694 C 0.42231 0.2277 0.74319 0.0
C2695 C 0.43497 0.2256 0.74946 0.0
C2696 C 0.4506 0.23775 0.74783 0.0
C2697 C 0.46199 0.23233 0.75564 0.0
C2698 C 0.47307 0.23324 0.73675 0.0
C2699 C 0.47155 0.24201 0.77592 0.0
C2700 C 0.4503 0.21521 0.76184 0.0
C2701 C 0.43478 0.21159 0.75817 0.0
C2702 C 0.4219 0.1965 0.76254 0.0
C2703 C 0.42497 0.1848 0.77091 0.0
C2704 C 0.44079 0.18822 0.77486 0.0
C2705 C 0.45359 0.20368 0.77021 0.0
H2706 H 0.20622 0.46621 0.73352 0.0
H2707 H 0.17173 0.41559 0.73196 0.0
H2708 H 0.19188 0.4098 0.74736 0.0
H2709 H 0.24022 0.46304 0.71816 0.0
H2710 H 0.25375 0.47882 0.73631 0.0
H2711 H 0.23659 0.47902 0.72525 0.0
H2712 H 0.22743 0.48063 0.76504 0.0
H2713 H 0.24458 0.48048 0.77623 0.0
H2714 H 0.22487 0.4658 0.78519 0.0
H2715 H 0.21576 0.40949 0.76291 0.0
H2716 H 0.24179 0.41467 0.77718 0.0
H2717 H 0.26057 0.46552 0.76939 0.0
C2718 C 0.20285 0.45391 0.73659 0.0
C2719 C 0.18738 0.44135 0.73145 0.0
C2720 C 0.18355 0.42541 0.73546 0.0
C2721 C 0.19489 0.422 0.74433 0.0
C2722 C 0.21002 0.43466 0.74913 0.0
C2723 C 0.21403 0.45029 0.74542 0.0
C2724 C 0.23117 0.46168 0.75189 0.0
C2725 C 0.24101 0.4712 0.7317 0.0
C2726 C 0.23206 0.4728 0.77071 0.0
C2727 C 0.23617 0.44999 0.75981 0.0
C2728 C 0.22378 0.43447 0.75812 0.0
C2729 C 0.22553 0.4216 0.76439 0.0
C2730 C 0.24034 0.42468 0.77261 0.0
C2731 C 0.25324 0.4405 0.77448 0.0
C2732 C 0.25103 0.45328 0.76796 0.0
H2733 H 0.79691 0.2511 0.78538 0.0
H2734 H 0.83263 0.25574 0.73798 0.0
H2735 H 0.81235 0.23174 0.71832 0.0
H2736 H 0.77456 0.20755 0.78733 0.0
H2737 H 0.75552 0.20655 0.78915 0.0
H2738 H 0.77305 0.2235 0.8003 0.0
H2739 H 0.76764 0.24235 0.77604 0.0
H2740 H 0.75012 0.22547 0.76479 0.0
H2741 H 0.76552 0.23933 0.74647 0.0
H2742 H 0.78817 0.20775 0.70333 0.0
H2743 H 0.76157 0.18562 0.69343 0.0
H2744 H 0.74124 0.1972 0.74968 0.0
C2745 C 0.80048 0.24689 0.77107 0.0
C2746 C 0.81633 0.25521 0.7632 0.0
C2747 C 0.82052 0.24955 0.74418 0.0
C2748 C 0.80911 0.23592 0.73298 0.0
C2749 C 0.79355 0.2281 0.74098 0.0
C2750 C 0.78919 0.23337 0.75956 0.0
C2751 C 0.7715 0.2232 0.76406 0.0
C2752 C 0.76848 0.21469 0.78655 0.0
C2753 C 0.76321 0.23319 0.76275 0.0
C2754 C 0.76657 0.21148 0.74501 0.0
C2755 C 0.7795 0.21445 0.73201 0.0
C2756 C 0.77794 0.20532 0.71335 0.0
C2757 C 0.76273 0.19285 0.70775 0.0
C2758 C 0.74922 0.18967 0.72065 0.0
C2759 C 0.75129 0.19914 0.73959 0.0
H2760 H 0.45211 0.13317 0.04896 0.0
H2761 H 0.44899 0.08748 0.06061 0.0
H2762 H 0.44987 0.08378 0.02032 0.0
H2763 H 0.42817 0.12191 0.99896 0.0
H2764 H 0.44029 0.14089 0.98565 0.0
H2765 H 0.43877 0.13973 0.01543 0.0
H2766 H 0.46951 0.15355 0.0185 0.0
H2767 H 0.47113 0.15475 0.98874 0.0
H2768 H 0.47993 0.14516 0.00415 0.0
H2769 H 0.452 0.08535 0.97902 0.0
H2770 H 0.45477 0.09187 0.93919 0.0
H2771 H 0.45713 0.13683 0.95407 0.0
C2772 C 0.45164 0.12239 0.04306 0.0
C2773 C 0.45038 0.11057 0.05803 0.0
C2774 C 0.44965 0.09658 0.04954 0.0
C2775 C 0.45025 0.09441 0.02666 0.0
C2776 C 0.45158 0.10632 0.01243 0.0
C2777 C 0.45222 0.12003 0.02025 0.0
C2778 C 0.4539 0.13109 0.00136 0.0
C2779 C 0.43942 0.13354 1.00029 0.0
C2780 C 0.46955 0.14708 0.00331 0.0
C2781 C 0.45424 0.12151 0.98172 0.0
C2782 C 0.45287 0.10726 0.98851 0.0
C2783 C 0.4531 0.09647 0.97349 0.0
C2784 C 0.4548 0.10035 0.95091 0.0
C2785 C 0.45629 0.11491 0.94349 0.0
C2786 C 0.45591 0.12556 0.95919 0.0
H2787 H 0.31877 0.45119 0.95412 0.0
H2788 H 0.36352 0.45285 0.94057 0.0
H2789 H 0.36833 0.4528 0.98078 0.0
H2790 H 0.33171 0.47658 0.00218 0.0
H2791 H 0.3132 0.46519 0.01695 0.0
H2792 H 0.31329 0.46545 0.98709 0.0
H2793 H 0.29917 0.43461 0.98646 0.0
H2794 H 0.29902 0.43426 0.01632 0.0
H2795 H 0.30791 0.42466 1.00115 0.0
H2796 H 0.36859 0.45322 0.02225 0.0
H2797 H 0.36398 0.45321 0.06239 0.0
H2798 H 0.31838 0.45 0.04923 0.0
C2799 C 0.3296 0.45162 0.95967 0.0
C2800 C 0.34079 0.45202 0.94429 0.0
C2801 C 0.35475 0.45239 0.95212 0.0
C2802 C 0.35761 0.45244 0.9749 0.0
C2803 C 0.34633 0.45199 0.98964 0.0
C2804 C 0.33256 0.45149 0.98239 0.0
C2805 C 0.32225 0.45075 0.00176 0.0
C2806 C 0.31999 0.46537 0.002 0.0
C2807 C 0.30613 0.43514 0.00139 0.0
C2808 C 0.33247 0.4511 0.02101 0.0
C2809 C 0.34631 0.45184 0.01362 0.0
C2810 C 0.35772 0.45249 0.02825 0.0
C2811 C 0.35492 0.45235 0.05106 0.0
C2812 C 0.34074 0.45145 0.05912 0.0
C2813 C 0.3294 0.45082 0.04374 0.0
H2814 H 0.89212 0.32841 0.95443 0.0
H2815 H 0.84935 0.33099 0.94164 0.0
H2816 H 0.84494 0.33113 0.9818 0.0
H2817 H 0.87765 0.30306 0.00224 0.0
H2818 H 0.89635 0.31311 0.0169 0.0
H2819 H 0.89613 0.31297 0.98704 0.0
H2820 H 0.91249 0.34382 0.98665 0.0
H2821 H 0.91277 0.34406 0.01651 0.0
H2822 H 0.90521 0.355 0.00159 0.0
H2823 H 0.84505 0.33108 0.02308 0.0
H2824 H 0.84988 0.33113 0.0632 0.0
H2825 H 0.89282 0.32909 0.04965 0.0
C2826 C 0.88189 0.32912 0.96003 0.0
C2827 C 0.87101 0.32953 0.94476 0.0
C2828 C 0.85769 0.33031 0.95291 0.0
C2829 C 0.85513 0.33052 0.97573 0.0
C2830 C 0.86603 0.33005 0.99026 0.0
C2831 C 0.87917 0.32941 0.9828 0.0
C2832 C 0.8891 0.32913 0.00205 0.0
C2833 C 0.88984 0.31364 0.00205 0.0
C2834 C 0.90589 0.34388 0.00167 0.0
C2835 C 0.87944 0.32966 0.02145 0.0
C2836 C 0.86618 0.33017 0.01423 0.0
C2837 C 0.85537 0.33064 0.02896 0.0
C2838 C 0.85817 0.33056 0.05173 0.0
C2839 C 0.87167 0.33002 0.05961 0.0
C2840 C 0.88246 0.32963 0.04417 0.0
H2841 H 0.54179 0.88665 0.04807 0.0
H2842 H 0.56536 0.85934 0.06122 0.0
H2843 H 0.56727 0.85599 0.02116 0.0
H2844 H 0.51942 0.86504 1.00105 0.0
H2845 H 0.52228 0.88235 0.986 0.0
H2846 H 0.52253 0.88253 0.01585 0.0
H2847 H 0.55047 0.90787 0.01554 0.0
H2848 H 0.55029 0.90781 0.98568 0.0
H2849 H 0.56644 0.90775 1.00038 0.0
H2850 H 0.5659 0.85476 0.97973 0.0
H2851 H 0.56282 0.85726 0.93951 0.0
H2852 H 0.54179 0.88676 0.953 0.0
C2853 C 0.54755 0.88013 0.04263 0.0
C2854 C 0.5532 0.87307 0.05805 0.0
C2855 C 0.5605 0.86451 0.04995 0.0
C2856 C 0.56179 0.86265 0.02715 0.0
C2857 C 0.55597 0.86961 0.01252 0.0
C2858 C 0.54917 0.87835 0.01989 0.0
C2859 C 0.5441 0.88483 1.0006 0.0
C2860 C 0.52601 0.87829 1.0009 0.0
C2861 C 0.55338 0.90315 1.00055 0.0
C2862 C 0.54892 0.87818 0.98126 0.0
C2863 C 0.55569 0.86938 0.98853 0.0
C2864 C 0.5607 0.8617 0.97381 0.0
C2865 C 0.55882 0.8631 0.95103 0.0
C2866 C 0.55209 0.8722 0.94317 0.0
C2867 C 0.54713 0.87986 0.95855 0.0
H2868 H 0.66671 0.53503 0.04975 0.0
H2869 H 0.67405 0.58211 0.06415 0.0
H2870 H 0.67542 0.58776 0.02408 0.0
H2871 H 0.69327 0.54649 0.00258 0.0
H2872 H 0.68068 0.52854 0.98723 0.0
H2873 H 0.68043 0.52821 0.01709 0.0
H2874 H 0.64991 0.51695 0.0168 0.0
H2875 H 0.65006 0.51723 0.98695 0.0
H2876 H 0.64188 0.52754 0.00205 0.0
H2877 H 0.67608 0.58838 0.98263 0.0
H2878 H 0.67534 0.58374 0.94237 0.0
H2879 H 0.66709 0.53604 0.95467 0.0
C2880 C 0.66873 0.54657 0.04446 0.0
C2881 C 0.67023 0.55812 0.06009 0.0
C2882 C 0.67266 0.57301 0.05249 0.0
C2883 C 0.67356 0.57637 0.02977 0.0
C2884 C 0.67199 0.56472 0.01483 0.0
C2885 C 0.66959 0.5501 0.02182 0.0
C2886 C 0.66799 0.53957 0.00226 0.0
C2887 C 0.68139 0.53546 0.0023 0.0
C2888 C 0.65147 0.52443 0.00201 0.0
C2889 C 0.66985 0.55056 0.9832 0.0
C2890 C 0.6722 0.56502 0.99084 0.0
C2891 C 0.67417 0.57708 0.97643 0.0
C2892 C 0.67363 0.57428 0.95357 0.0
C2893 C 0.67105 0.55948 0.94527 0.0
C2894 C 0.66923 0.54753 0.96041 0.0
H2895 H 0.11254 0.65174 0.95464 0.0
H2896 H 0.13936 0.70245 0.94085 0.0
H2897 H 0.14168 0.70813 0.981 0.0
H2898 H 0.0908 0.65399 0.00224 0.0
H2899 H 0.09186 0.63851 0.01734 0.0
H2900 H 0.09181 0.63835 0.98747 0.0
H2901 H 0.1182 0.63767 0.98744 0.0
H2902 H 0.11831 0.6378 0.01729 0.0
H2903 H 0.13522 0.65284 0.00222 0.0
H2904 H 0.14086 0.70839 0.0223 0.0
H2905 H 0.13824 0.70333 0.06243 0.0
H2906 H 0.11323 0.65233 0.04987 0.0
C2907 C 0.11878 0.66403 0.96011 0.0
C2908 C 0.12578 0.67668 0.94466 0.0
C2909 C 0.13404 0.6926 0.95243 0.0
C2910 C 0.13534 0.69594 0.97517 0.0
C2911 C 0.12838 0.68323 0.98997 0.0
C2912 C 0.12034 0.66759 0.98282 0.0
C2913 C 0.11443 0.65616 0.0023 0.0
C2914 C 0.09614 0.64617 0.00233 0.0
C2915 C 0.12199 0.64549 0.00231 0.0
C2916 C 0.12048 0.66784 0.02148 0.0
C2917 C 0.12835 0.68338 0.01394 0.0
C2918 C 0.13485 0.69627 0.02842 0.0
C2919 C 0.13342 0.69324 0.05125 0.0
C2920 C 0.12573 0.67741 0.05951 0.0
C2921 C 0.11909 0.66457 0.04426 0.0
H2922 H 0.87472 0.53049 0.55152 0.0
H2923 H 0.88513 0.57884 0.56464 0.0
H2924 H 0.88697 0.58413 0.5245 0.0
H2925 H 0.90195 0.54043 0.5059 0.0
H2926 H 0.88908 0.52266 0.49038 0.0
H2927 H 0.88804 0.52244 0.52019 0.0
H2928 H 0.85783 0.51269 0.51809 0.0
H2929 H 0.85878 0.5129 0.48826 0.0
H2930 H 0.85109 0.52403 0.50239 0.0
H2931 H 0.88791 0.58434 0.4831 0.0
H2932 H 0.88794 0.57949 0.44303 0.0
H2933 H 0.87817 0.53141 0.45663 0.0
C2934 C 0.87746 0.54222 0.54599 0.0
C2935 C 0.87965 0.5542 0.56132 0.0
C2936 C 0.88307 0.56934 0.55328 0.0
C2937 C 0.88426 0.57251 0.53049 0.0
C2938 C 0.88206 0.56046 0.51589 0.0
C2939 C 0.87874 0.54562 0.52327 0.0
C2940 C 0.87708 0.53483 0.50402 0.0
C2941 C 0.8898 0.5298 0.5052 0.0
C2942 C 0.86019 0.52025 0.50315 0.0
C2943 C 0.88004 0.54596 0.4847 0.0
C2944 C 0.88285 0.56067 0.49194 0.0
C2945 C 0.88582 0.57291 0.47722 0.0
C2946 C 0.88594 0.57006 0.45447 0.0
C2947 C 0.88319 0.55511 0.44657 0.0
C2948 C 0.88019 0.54293 0.46203 0.0
H2949 H 0.34048 0.89661 0.5488 0.0
H2950 H 0.31033 0.84621 0.56272 0.0
H2951 H 0.30708 0.84053 0.52256 0.0
H2952 H 0.31852 0.89748 0.50045 0.0
H2953 H 0.33616 0.91161 0.48571 0.0
H2954 H 0.33587 0.91179 0.51557 0.0
H2955 H 0.36095 0.90876 0.51655 0.0
H2956 H 0.36132 0.90857 0.48671 0.0
H2957 H 0.36073 0.89236 0.50213 0.0
H2958 H 0.30814 0.84013 0.48114 0.0
H2959 H 0.31243 0.84516 0.4409 0.0
H2960 H 0.34136 0.89588 0.45356 0.0
C2961 C 0.33319 0.88439 0.54336 0.0
C2962 C 0.32562 0.87184 0.55887 0.0
C2963 C 0.31607 0.85601 0.55113 0.0
C2964 C 0.31422 0.85266 0.52836 0.0
C2965 C 0.32189 0.86528 0.51353 0.0
C2966 C 0.33109 0.88084 0.52067 0.0
C2967 C 0.33803 0.89219 0.50121 0.0
C2968 C 0.33177 0.90396 0.50071 0.0
C2969 C 0.35634 0.90098 0.50168 0.0
C2970 C 0.33146 0.88054 0.48204 0.0
C2971 C 0.32222 0.86508 0.48955 0.0
C2972 C 0.31527 0.85218 0.47505 0.0
C2973 C 0.31784 0.85515 0.45226 0.0
C2974 C 0.3272 0.8709 0.44415 0.0
C2975 C 0.334 0.88374 0.45929 0.0
H2976 H 0.45611 0.34671 0.5485 0.0
H2977 H 0.44285 0.29773 0.56268 0.0
H2978 H 0.441 0.29202 0.52255 0.0
H2979 H 0.43072 0.33861 0.50039 0.0
H2980 H 0.44515 0.35598 0.48544 0.0
H2981 H 0.44493 0.35614 0.5153 0.0
H2982 H 0.47462 0.36369 0.516 0.0
H2983 H 0.47494 0.36358 0.48615 0.0
H2984 H 0.48071 0.35133 0.50155 0.0
H2985 H 0.44041 0.29154 0.48117 0.0
H2986 H 0.44222 0.29649 0.44098 0.0
H2987 H 0.45722 0.34621 0.45338 0.0
C2988 C 0.45268 0.33476 0.54311 0.0
C2989 C 0.4496 0.32264 0.55865 0.0
C2990 C 0.44537 0.3072 0.55102 0.0
C2991 C 0.44421 0.30383 0.52829 0.0
C2992 C 0.4474 0.31605 0.51339 0.0
C2993 C 0.45163 0.33123 0.52044 0.0
C2994 C 0.45496 0.34231 0.50091 0.0
C2995 C 0.44324 0.34863 0.50049 0.0
C2996 C 0.47234 0.35604 0.50117 0.0
C2997 C 0.45196 0.33098 0.48182 0.0
C2998 C 0.4475 0.31588 0.48942 0.0
C2999 C 0.44401 0.30335 0.47499 0.0
C3000 C 0.44522 0.30633 0.45216 0.0
C3001 C 0.45005 0.3218 0.44386 0.0
C3002 C 0.45337 0.33423 0.45904 0.0
H3003 H 0.13232 0.46821 0.54718 0.0
H3004 H 0.09709 0.41859 0.55932 0.0
H3005 H 0.09307 0.41404 0.51917 0.0
H3006 H 0.11363 0.47434 0.50054 0.0
H3007 H 0.13188 0.48647 0.48556 0.0
H3008 H 0.13204 0.48604 0.5154 0.0
H3009 H 0.15355 0.47763 0.51454 0.0
H3010 H 0.15353 0.47812 0.48468 0.0
H3011 H 0.14991 0.46027 0.49893 0.0
H3012 H 0.09191 0.41497 0.47789 0.0
H3013 H 0.09526 0.42094 0.43778 0.0
H3014 H 0.13252 0.4693 0.45197 0.0
C3015 C 0.1239 0.45632 0.54147 0.0
C3016 C 0.11486 0.44384 0.55663 0.0
C3017 C 0.10388 0.42851 0.54824 0.0
C3018 C 0.10158 0.42574 0.52539 0.0
C3019 C 0.11051 0.43833 0.51101 0.0
C3020 C 0.1216 0.45327 0.51866 0.0
C3021 C 0.1298 0.46466 0.49957 0.0
C3022 C 0.12664 0.4787 0.50032 0.0
C3023 C 0.14776 0.47051 0.49942 0.0
C3024 C 0.12146 0.45381 0.48003 0.0
C3025 C 0.11029 0.4387 0.48705 0.0
C3026 C 0.10069 0.42671 0.47217 0.0
C3027 C 0.10261 0.43023 0.44946 0.0
C3028 C 0.11414 0.44554 0.44186 0.0
C3029 C 0.12371 0.45745 0.45738 0.0
H3030 H 0.66537 0.13036 0.45339 0.0
H3031 H 0.674 0.09138 0.43932 0.0
H3032 H 0.67523 0.08716 0.47943 0.0
H3033 H 0.69189 0.14595 0.5006 0.0
H3034 H 0.67907 0.15108 0.51577 0.0
H3035 H 0.67889 0.15109 0.48591 0.0
H3036 H 0.64844 0.13146 0.48613 0.0
H3037 H 0.64852 0.13139 0.51598 0.0
H3038 H 0.64062 0.11289 0.50096 0.0
H3039 H 0.67552 0.08712 0.52096 0.0
H3040 H 0.67465 0.09112 0.56119 0.0
H3041 H 0.66574 0.13008 0.5484 0.0
C3042 C 0.66767 0.12103 0.45872 0.0
C3043 C 0.66952 0.11116 0.44315 0.0
C3044 C 0.67229 0.09894 0.45089 0.0
C3045 C 0.67313 0.09652 0.47364 0.0
C3046 C 0.6712 0.10642 0.48851 0.0
C3047 C 0.66853 0.11844 0.48139 0.0
C3048 C 0.66671 0.1273 0.50085 0.0
C3049 C 0.67993 0.1449 0.50077 0.0
C3050 C 0.65008 0.12565 0.50098 0.0
C3051 C 0.66872 0.11834 0.52001 0.0
C3052 C 0.67133 0.10637 0.5125 0.0
C3053 C 0.67344 0.09643 0.52705 0.0
C3054 C 0.67281 0.09873 0.54988 0.0
C3055 C 0.67004 0.11086 0.55803 0.0
C3056 C 0.66804 0.12081 0.54277 0.0
H3057 H 0.53735 0.65308 0.45447 0.0
H3058 H 0.57019 0.70333 0.4421 0.0
H3059 H 0.57261 0.70841 0.4822 0.0
H3060 H 0.51754 0.6575 0.50127 0.0
H3061 H 0.51628 0.64081 0.51624 0.0
H3062 H 0.51675 0.64099 0.48639 0.0
H3063 H 0.54123 0.63695 0.48705 0.0
H3064 H 0.54079 0.63669 0.51691 0.0
H3065 H 0.55871 0.65063 0.50252 0.0
H3066 H 0.57108 0.70835 0.52353 0.0
H3067 H 0.56695 0.70276 0.56365 0.0
H3068 H 0.53651 0.65242 0.54962 0.0
C3069 C 0.54521 0.66514 0.4601 0.0
C3070 C 0.55336 0.67782 0.44487 0.0
C3071 C 0.56341 0.69343 0.4532 0.0
C3072 C 0.565 0.69645 0.47604 0.0
C3073 C 0.55669 0.68373 0.49048 0.0
C3074 C 0.54714 0.66835 0.4829 0.0
C3075 C 0.53979 0.65678 0.50205 0.0
C3076 C 0.52151 0.64854 0.50144 0.0
C3077 C 0.54547 0.64454 0.50213 0.0
C3078 C 0.54658 0.66811 0.52154 0.0
C3079 C 0.55624 0.68361 0.51445 0.0
C3080 C 0.5636 0.69626 0.52931 0.0
C3081 C 0.56111 0.69298 0.55204 0.0
C3082 C 0.5514 0.67717 0.55974 0.0
C3083 C 0.54409 0.6646 0.54421 0.0
H3084 H 0.52874 0.11418 0.23911 0.0
H3085 H 0.54784 0.16407 0.22224 0.0
H3086 H 0.57375 0.1703 0.23811 0.0
H3087 H 0.54971 0.1198 0.28994 0.0
H3088 H 0.55327 0.10346 0.28535 0.0
H3089 H 0.53599 0.10296 0.27344 0.0
H3090 H 0.54452 0.09896 0.23434 0.0
H3091 H 0.56176 0.09933 0.24614 0.0
H3092 H 0.56413 0.11297 0.22421 0.0
H3093 H 0.59764 0.17113 0.25625 0.0
H3094 H 0.6179 0.16631 0.27351 0.0
H3095 H 0.58372 0.11555 0.27523 0.0
C3096 C 0.53836 0.12641 0.23845 0.0
C3097 C 0.53608 0.13862 0.22947 0.0
C3098 C 0.54906 0.1545 0.22941 0.0
C3099 C 0.56391 0.15816 0.23826 0.0
C3100 C 0.56568 0.14582 0.24693 0.0
C3101 C 0.5533 0.13025 0.2469 0.0
C3102 C 0.55842 0.11911 0.25662 0.0
C3103 C 0.54877 0.11085 0.27758 0.0
C3104 C 0.55713 0.10688 0.23929 0.0
C3105 C 0.57563 0.13087 0.26219 0.0
C3106 C 0.57956 0.14623 0.25662 0.0
C3107 C 0.59473 0.15912 0.26049 0.0
C3108 C 0.60621 0.15623 0.27018 0.0
C3109 C 0.60254 0.14052 0.27571 0.0
C3110 C 0.58697 0.12774 0.27159 0.0
H3111 H 0.46815 0.58155 0.28429 0.0
H3112 H 0.46302 0.62034 0.25775 0.0
H3113 H 0.43843 0.60091 0.23826 0.0
H3114 H 0.45498 0.55671 0.2365 0.0
H3115 H 0.44432 0.53836 0.25183 0.0
H3116 H 0.46127 0.55528 0.26411 0.0
H3117 H 0.44398 0.55397 0.29771 0.0
H3118 H 0.42699 0.53699 0.28557 0.0
H3119 H 0.42582 0.55438 0.29304 0.0
H3120 H 0.41513 0.5773 0.22036 0.0
H3121 H 0.39411 0.55118 0.2066 0.0
H3122 H 0.41387 0.52777 0.24617 0.0
C3123 C 0.46181 0.58593 0.27439 0.0
C3124 C 0.46743 0.60242 0.2725 0.0
C3125 C 0.45879 0.60772 0.25957 0.0
C3126 C 0.44488 0.5968 0.24838 0.0
C3127 C 0.43971 0.58061 0.25047 0.0
C3128 C 0.44782 0.57518 0.26332 0.0
C3129 C 0.43967 0.55717 0.26293 0.0
C3130 C 0.45072 0.55156 0.25326 0.0
C3131 C 0.43376 0.55022 0.2862 0.0
C3132 C 0.42589 0.55334 0.24752 0.0
C3133 C 0.42611 0.56701 0.24053 0.0
C3134 C 0.41474 0.56649 0.2259 0.0
C3135 C 0.40278 0.55158 0.21827 0.0
C3136 C 0.40225 0.53736 0.22533 0.0
C3137 C 0.414 0.53837 0.24021 0.0
H3138 H 0.86244 0.45349 0.29099 0.0
H3139 H 0.87275 0.48306 0.23234 0.0
H3140 H 0.87287 0.462 0.20969 0.0
H3141 H 0.88791 0.4382 0.27719 0.0
H3142 H 0.87487 0.41855 0.28805 0.0
H3143 H 0.87445 0.43547 0.29957 0.0
H3144 H 0.84415 0.42185 0.29171 0.0
H3145 H 0.84448 0.40488 0.28012 0.0
H3146 H 0.8369 0.41529 0.26397 0.0
H3147 H 0.87379 0.43882 0.19375 0.0
H3148 H 0.87496 0.41448 0.1854 0.0
H3149 H 0.86394 0.3996 0.254 0.0
C3150 C 0.86466 0.45551 0.27337 0.0
C3151 C 0.86743 0.4699 0.26344 0.0
C3152 C 0.87025 0.47203 0.2403 0.0
C3153 C 0.87045 0.46017 0.22728 0.0
C3154 C 0.86776 0.4462 0.23759 0.0
C3155 C 0.86488 0.44376 0.26008 0.0
C3156 C 0.86292 0.42786 0.26709 0.0
C3157 C 0.87581 0.43016 0.28397 0.0
C3158 C 0.84611 0.41682 0.27626 0.0
C3159 C 0.86537 0.42186 0.24506 0.0
C3160 C 0.86813 0.43265 0.22829 0.0
C3161 C 0.87149 0.4302 0.20668 0.0
C3162 C 0.87218 0.41639 0.20211 0.0
C3163 C 0.86945 0.40519 0.21903 0.0
C3164 C 0.86581 0.40788 0.24072 0.0
H3165 H 0.46782 0.88826 0.21597 0.0
H3166 H 0.46435 0.84628 0.24725 0.0
H3167 H 0.43988 0.84144 0.26648 0.0
H3168 H 0.45509 0.90148 0.26318 0.0
H3169 H 0.44405 0.90839 0.24711 0.0
H3170 H 0.46103 0.9083 0.23513 0.0
H3171 H 0.44353 0.89107 0.20246 0.0
H3172 H 0.42651 0.89113 0.21431 0.0
H3173 H 0.4256 0.87249 0.20817 0.0
H3174 H 0.41626 0.84153 0.28315 0.0
H3175 H 0.39483 0.84634 0.29576 0.0
H3176 H 0.41353 0.88821 0.25363 0.0
C3177 C 0.46194 0.87807 0.22691 0.0
C3178 C 0.46798 0.86759 0.22997 0.0
C3179 C 0.45982 0.85432 0.24429 0.0
C3180 C 0.44597 0.85152 0.25543 0.0
C3181 C 0.4404 0.86211 0.2521 0.0
C3182 C 0.44809 0.87509 0.23817 0.0
C3183 C 0.43967 0.88471 0.23767 0.0
C3184 C 0.45061 0.90173 0.24629 0.0
C3185 C 0.43346 0.88485 0.21426 0.0
C3186 C 0.42609 0.87514 0.2536 0.0
C3187 C 0.42674 0.86214 0.26171 0.0
C3188 C 0.41557 0.8516 0.2768 0.0
C3189 C 0.40337 0.85439 0.28376 0.0
C3190 C 0.4024 0.8676 0.27562 0.0
C3191 C 0.41399 0.87809 0.26034 0.0
H3192 H 0.59115 0.47425 0.25076 0.0
H3193 H 0.60326 0.4519 0.19769 0.0
H3194 H 0.58106 0.42564 0.20891 0.0
H3195 H 0.57966 0.44284 0.29092 0.0
H3196 H 0.56346 0.44486 0.3019 0.0
H3197 H 0.58058 0.46188 0.29009 0.0
H3198 H 0.56223 0.46607 0.26304 0.0
H3199 H 0.54505 0.44907 0.27478 0.0
H3200 H 0.54874 0.44988 0.24539 0.0
H3201 H 0.5573 0.4019 0.22541 0.0
H3202 H 0.53339 0.38231 0.2458 0.0
H3203 H 0.53655 0.42011 0.28791 0.0
C3204 C 0.58909 0.46386 0.24139 0.0
C3205 C 0.59901 0.46516 0.22337 0.0
C3206 C 0.596 0.4512 0.21176 0.0
C3207 C 0.58336 0.43624 0.21793 0.0
C3208 C 0.57382 0.4354 0.23573 0.0
C3209 C 0.57652 0.44883 0.24729 0.0
C3210 C 0.56439 0.44467 0.26564 0.0
C3211 C 0.57251 0.44881 0.28849 0.0
C3212 C 0.55452 0.45291 0.26198 0.0
C3213 C 0.55436 0.42682 0.26246 0.0
C3214 C 0.56006 0.42171 0.24519 0.0
C3215 C 0.55277 0.40574 0.23904 0.0
C3216 C 0.53925 0.39469 0.25082 0.0
C3217 C 0.53314 0.39965 0.26854 0.0
C3218 C 0.54086 0.41596 0.27437 0.0
H3219 H 0.11633 0.58235 0.21875 0.0
H3220 H 0.15655 0.62035 0.25364 0.0
H3221 H 0.16118 0.60045 0.27268 0.0
H3222 H 0.10175 0.55445 0.26356 0.0
H3223 H 0.09617 0.5373 0.24624 0.0
H3224 H 0.09618 0.55453 0.23506 0.0
H3225 H 0.11527 0.55629 0.2037 0.0
H3226 H 0.11527 0.53902 0.21473 0.0
H3227 H 0.13384 0.55732 0.21075 0.0
H3228 H 0.1607 0.57637 0.28906 0.0
H3229 H 0.15594 0.54994 0.30046 0.0
H3230 H 0.11676 0.52766 0.25355 0.0
C3231 C 0.1261 0.58647 0.23042 0.0
C3232 C 0.1361 0.60289 0.23472 0.0
C3233 C 0.14886 0.60783 0.24993 0.0
C3234 C 0.15152 0.59662 0.2609 0.0
C3235 C 0.1414 0.58052 0.25636 0.0
C3236 C 0.12902 0.57545 0.24137 0.0
C3237 C 0.11995 0.55745 0.23938 0.0
C3238 C 0.10248 0.55053 0.24649 0.0
C3239 C 0.12116 0.55222 0.21573 0.0
C3240 C 0.12907 0.5532 0.25577 0.0
C3241 C 0.14136 0.56667 0.26542 0.0
C3242 C 0.15122 0.56574 0.28142 0.0
C3243 C 0.14848 0.55063 0.28767 0.0
C3244 C 0.13604 0.53661 0.27784 0.0
C3245 C 0.12627 0.53804 0.26163 0.0
H3246 H 0.46666 0.88391 0.78494 0.0
H3247 H 0.4688 0.84863 0.74288 0.0
H3248 H 0.44505 0.84475 0.72274 0.0
H3249 H 0.42409 0.86516 0.78823 0.0
H3250 H 0.4238 0.88359 0.78681 0.0
H3251 H 0.44077 0.88333 0.79849 0.0
H3252 H 0.45935 0.90509 0.77065 0.0
H3253 H 0.44244 0.90543 0.75889 0.0
H3254 H 0.45535 0.90181 0.74136 0.0
H3255 H 0.4211 0.84463 0.70702 0.0
H3256 H 0.39894 0.84888 0.69614 0.0
H3257 H 0.41283 0.88489 0.74737 0.0
C3258 C 0.46223 0.87544 0.77141 0.0
C3259 C 0.46958 0.86645 0.76574 0.0
C3260 C 0.46323 0.8554 0.74799 0.0
C3261 C 0.44979 0.85319 0.73628 0.0
C3262 C 0.44286 0.86221 0.74234 0.0
C3263 C 0.44889 0.87318 0.75939 0.0
C3264 C 0.43933 0.88154 0.76227 0.0
C3265 C 0.43154 0.8782 0.78532 0.0
C3266 C 0.44974 0.89953 0.75803 0.0
C3267 C 0.42698 0.87353 0.74418 0.0
C3268 C 0.4292 0.86237 0.73295 0.0
C3269 C 0.41922 0.85333 0.71569 0.0
C3270 C 0.40663 0.85577 0.70971 0.0
C3271 C 0.40415 0.8672 0.7209 0.0
C3272 C 0.41452 0.87618 0.73835 0.0
H3273 H 0.5882 0.45629 0.79035 0.0
H3274 H 0.60521 0.48906 0.73467 0.0
H3275 H 0.58496 0.46824 0.71062 0.0
H3276 H 0.57948 0.42066 0.75855 0.0
H3277 H 0.56185 0.40783 0.77435 0.0
H3278 H 0.5781 0.42512 0.78719 0.0
H3279 H 0.55883 0.43521 0.79827 0.0
H3280 H 0.54254 0.41795 0.78551 0.0
H3281 H 0.54703 0.43762 0.77717 0.0
H3282 H 0.56252 0.44443 0.69287 0.0
H3283 H 0.53876 0.41903 0.68255 0.0
H3284 H 0.53614 0.40139 0.74945 0.0
C3285 C 0.58778 0.45901 0.77304 0.0
C3286 C 0.59823 0.47436 0.76444 0.0
C3287 C 0.59716 0.4775 0.74174 0.0
C3288 C 0.58579 0.4657 0.72789 0.0
C3289 C 0.57561 0.45077 0.73691 0.0
C3290 C 0.57647 0.44735 0.75893 0.0
C3291 C 0.56372 0.43044 0.76451 0.0
C3292 C 0.57124 0.42042 0.77157 0.0
C3293 C 0.55236 0.43031 0.78242 0.0
C3294 C 0.55544 0.42502 0.74227 0.0
C3295 C 0.56259 0.43693 0.72657 0.0
C3296 C 0.55685 0.43499 0.70498 0.0
C3297 C 0.5433 0.42055 0.69931 0.0
C3298 C 0.53559 0.40825 0.71519 0.0
C3299 C 0.54191 0.41049 0.73687 0.0
H3300 H 0.14113 0.59409 0.78349 0.0
H3301 H 0.10886 0.5994 0.7391 0.0
H3302 H 0.10657 0.57734 0.71609 0.0
H3303 H 0.16147 0.58384 0.74089 0.0
H3304 H 0.16292 0.56942 0.75811 0.0
H3305 H 0.16281 0.58625 0.77059 0.0
H3306 H 0.13876 0.56718 0.79502 0.0
H3307 H 0.13881 0.5503 0.78264 0.0
H3308 H 0.12097 0.55171 0.782 0.0
H3309 H 0.107 0.55441 0.69857 0.0
H3310 H 0.10949 0.53122 0.68795 0.0
H3311 H 0.14108 0.54003 0.74385 0.0
C3312 C 0.13375 0.5907 0.76877 0.0
C3313 C 0.12512 0.5984 0.76309 0.0
C3314 C 0.11542 0.59353 0.74388 0.0
C3315 C 0.11413 0.58109 0.73062 0.0
C3316 C 0.12263 0.57363 0.73677 0.0
C3317 C 0.13224 0.57818 0.75538 0.0
C3318 C 0.1395 0.56763 0.7587 0.0
C3319 C 0.15776 0.57737 0.75696 0.0
C3320 C 0.13418 0.55867 0.7809 0.0
C3321 C 0.13231 0.55635 0.7392 0.0
C3322 C 0.12272 0.56015 0.72671 0.0
C3323 C 0.11448 0.55131 0.70818 0.0
C3324 C 0.1159 0.5381 0.70238 0.0
C3325 C 0.12541 0.53374 0.71512 0.0
C3326 C 0.13387 0.54316 0.73363 0.0
H3327 H 0.60076 0.1413 0.74009 0.0
H3328 H 0.57889 0.10597 0.68804 0.0
H3329 H 0.55282 0.10356 0.6963 0.0
H3330 H 0.56883 0.12235 0.77821 0.0
H3331 H 0.57061 0.14051 0.78902 0.0
H3332 H 0.58785 0.14052 0.77789 0.0
H3333 H 0.59239 0.16308 0.75066 0.0
H3334 H 0.57516 0.16315 0.76173 0.0
H3335 H 0.57649 0.16038 0.73243 0.0
H3336 H 0.52913 0.10405 0.71098 0.0
H3337 H 0.50883 0.10678 0.73196 0.0
H3338 H 0.54562 0.14126 0.77548 0.0
C3339 C 0.5905 0.13328 0.73023 0.0
C3340 C 0.59178 0.12385 0.71338 0.0
C3341 C 0.5781 0.11323 0.70108 0.0
C3342 C 0.56329 0.11185 0.70557 0.0
C3343 C 0.56235 0.12113 0.72246 0.0
C3344 C 0.57555 0.13163 0.73466 0.0
C3345 C 0.57102 0.1395 0.75276 0.0
C3346 C 0.5748 0.13547 0.77583 0.0
C3347 C 0.57925 0.1576 0.74917 0.0
C3348 C 0.5532 0.13163 0.74897 0.0
C3349 C 0.54851 0.1212 0.73127 0.0
C3350 C 0.53264 0.11219 0.72485 0.0
C3351 C 0.52118 0.11375 0.73698 0.0
C3352 C 0.5256 0.12414 0.75546 0.0
C3353 C 0.54188 0.13334 0.76131 0.0
H3354 H 0.41193 0.52784 0.75537 0.0
H3355 H 0.39495 0.55 0.80212 0.0
H3356 H 0.4172 0.57654 0.79172 0.0
H3357 H 0.45382 0.55418 0.76382 0.0
H3358 H 0.45897 0.55461 0.73502 0.0
H3359 H 0.44176 0.53735 0.74619 0.0
H3360 H 0.42399 0.53974 0.7161 0.0
H3361 H 0.44116 0.55699 0.70481 0.0
H3362 H 0.42394 0.55822 0.71311 0.0
H3363 H 0.44161 0.60047 0.77709 0.0
H3364 H 0.466 0.62045 0.75818 0.0
H3365 H 0.46646 0.58291 0.71939 0.0
C3366 C 0.41297 0.5383 0.76345 0.0
C3367 C 0.40178 0.53693 0.77958 0.0
C3368 C 0.40336 0.55085 0.78962 0.0
C3369 C 0.41598 0.56594 0.78389 0.0
C3370 C 0.42681 0.5669 0.76793 0.0
C3371 C 0.42539 0.55348 0.75772 0.0
C3372 C 0.43847 0.55788 0.74075 0.0
C3373 C 0.44887 0.55057 0.74682 0.0
C3374 C 0.43147 0.55291 0.7173 0.0
C3375 C 0.4476 0.57584 0.74325 0.0
C3376 C 0.44067 0.58077 0.75904 0.0
C3377 C 0.44706 0.59677 0.76452 0.0
C3378 C 0.46087 0.60806 0.75353 0.0
C3379 C 0.46814 0.60335 0.73707 0.0
C3380 C 0.46133 0.58696 0.73197 0.0
H3381 H 0.88729 0.41275 0.75829 0.0
H3382 H 0.84635 0.39478 0.80201 0.0
H3383 H 0.8424 0.41717 0.79123 0.0
H3384 H 0.90231 0.45448 0.76817 0.0
H3385 H 0.90828 0.46023 0.73982 0.0
H3386 H 0.90795 0.44286 0.75106 0.0
H3387 H 0.88922 0.42564 0.71932 0.0
H3388 H 0.88951 0.44296 0.70795 0.0
H3389 H 0.87078 0.42552 0.7147 0.0
H3390 H 0.84331 0.44176 0.77646 0.0
H3391 H 0.84829 0.46637 0.75762 0.0
H3392 H 0.88796 0.46773 0.72212 0.0
C3393 C 0.87756 0.4136 0.76567 0.0
C3394 C 0.86713 0.40208 0.78101 0.0
C3395 C 0.85439 0.40343 0.7901 0.0
C3396 C 0.8521 0.41613 0.78416 0.0
C3397 C 0.86259 0.42729 0.769 0.0
C3398 C 0.875 0.42611 0.75976 0.0
C3399 C 0.88436 0.43954 0.74352 0.0
C3400 C 0.90176 0.44989 0.7511 0.0
C3401 C 0.8834 0.43302 0.71998 0.0
C3402 C 0.87535 0.44852 0.74521 0.0
C3403 C 0.86287 0.44127 0.76005 0.0
C3404 C 0.85295 0.44747 0.76463 0.0
C3405 C 0.85582 0.4614 0.75369 0.0
C3406 C 0.86843 0.46898 0.73815 0.0
C3407 C 0.87831 0.46237 0.73398 0.0
loop_
_geom_bond_atom_site_label_1
_geom_bond_atom_site_label_2
_geom_bond_distance
_geom_bond_site_symmetry_2
_ccdc_geom_bond_type
Li0 N17 1.990 . S
Li0 O60 1.956 . S
Li0 O61 1.970 . S
Li0 O62 1.961 . S
Li1 N25 1.990 . S
Li1 O60 1.970 . S
Li1 O61 1.956 . S
Li1 O63 1.961 . S
Li2 N47 1.990 . S
Li2 O60 1.961 . S
Li2 O62 1.956 . S
Li2 O63 1.970 . S
Li3 N53 1.990 . S
Li3 O61 1.961 . S
Li3 O62 1.970 . S
Li3 O63 1.956 . S
C4 C6 1.348 . S
C4 C7 1.356 . S
C4 O60 1.325 . S
N5 C8 1.314 . S
N5 C9 1.279 . S
C6 C4 1.348 . S
C6 C8 1.353 . S
C6 H64 0.929 . S
C7 C4 1.356 . S
C7 C9 1.358 . S
C7 H65 0.930 . S
C8 N5 1.314 . S
C8 C6 1.353 . S
C8 H66 0.930 . S
C9 N5 1.279 . S
C9 C7 1.358 . S
C9 H67 0.930 . S
C10 C13 1.348 . S
C10 C14 1.356 . S
C10 O61 1.325 . S
C11 N12 1.279 . S
C11 C14 1.358 . S
C11 H68 0.930 . S
N12 C11 1.279 . S
N12 C15 1.314 . S
C13 C10 1.348 . S
C13 C15 1.353 . S
C13 H69 0.929 . S
C14 C10 1.356 . S
C14 C11 1.358 . S
C14 H70 0.930 . S
C15 N12 1.314 . S
C15 C13 1.353 . S
C15 H71 0.930 . S
C16 N17 1.314 . S
C16 C21 1.353 . S
C16 H22 0.930 . S
N17 Li0 1.990 . S
N17 C16 1.314 . S
N17 C19 1.279 . S
C18 C19 1.358 . S
C18 C20 1.356 . S
C18 H72 0.930 . S
C19 N17 1.279 . S
C19 C18 1.358 . S
C19 H23 0.930 . S
C20 C18 1.356 . S
C20 C21 1.348 . S
C21 C16 1.353 . S
C21 C20 1.348 . S
C21 H73 0.929 . S
H22 C16 0.930 . S
H23 C19 0.930 . S
C24 N25 1.314 . S
C24 C26 1.353 . S
C24 H30 0.930 . S
N25 Li1 1.990 . S
N25 C24 1.314 . S
N25 C28 1.279 . S
C26 C24 1.353 . S
C26 C29 1.348 . S
C26 H74 0.929 . S
C27 C28 1.358 . S
C27 C29 1.356 . S
C27 H75 0.930 . S
C28 N25 1.279 . S
C28 C27 1.358 . S
C28 H31 0.930 . S
C29 C26 1.348 . S
C29 C27 1.356 . S
H30 C24 0.930 . S
H31 C28 0.930 . S
C32 C34 1.348 . S
C32 C35 1.356 . S
C32 O62 1.325 . S
N33 C36 1.314 . S
N33 C37 1.279 . S
C34 C32 1.348 . S
C34 C36 1.353 . S
C34 H76 0.929 . S
C35 C32 1.356 . S
C35 C37 1.358 . S
C35 H77 0.930 . S
C36 N33 1.314 . S
C36 C34 1.353 . S
C36 H78 0.930 . S
C37 N33 1.279 . S
C37 C35 1.358 . S
C37 H79 0.930 . S
C38 C39 1.348 . S
C38 C40 1.356 . S
C38 O63 1.325 . S
C39 C38 1.348 . S
C39 C41 1.353 . S
C39 H80 0.929 . S
C40 C38 1.356 . S
C40 C42 1.358 . S
C40 H81 0.930 . S
C41 C39 1.353 . S
C41 N43 1.314 . S
C41 H82 0.930 . S
C42 C40 1.358 . S
C42 N43 1.279 . S
C42 H83 0.930 . S
N43 C41 1.314 . S
N43 C42 1.279 . S
C44 C46 1.353 . S
C44 N47 1.314 . S
C44 H50 0.930 . S
C45 N47 1.279 . S
C45 C48 1.358 . S
C45 H51 0.930 . S
C46 C44 1.353 . S
C46 C49 1.348 . S
C46 H84 0.929 . S
N47 Li2 1.990 . S
N47 C44 1.314 . S
N47 C45 1.279 . S
C48 C45 1.358 . S
C48 C49 1.356 . S
C48 H85 0.930 . S
C49 C46 1.348 . S
C49 C48 1.356 . S
H50 C44 0.930 . S
H51 C45 0.930 . S
C52 N53 1.314 . S
C52 C54 1.353 . S
C52 H58 0.930 . S
N53 Li3 1.990 . S
N53 C52 1.314 . S
N53 C56 1.279 . S
C54 C52 1.353 . S
C54 C57 1.348 . S
C54 H86 0.929 . S
C55 C56 1.358 . S
C55 C57 1.356 . S
C55 H87 0.930 . S
C56 N53 1.279 . S
C56 C55 1.358 . S
C56 H59 0.930 . S
C57 C54 1.348 . S
C57 C55 1.356 . S
H58 C52 0.930 . S
H59 C56 0.930 . S
O60 Li0 1.956 . S
O60 Li1 1.970 . S
O60 Li2 1.961 . S
O60 C4 1.325 . S
O61 Li0 1.970 . S
O61 Li1 1.956 . S
O61 Li3 1.961 . S
O61 C10 1.325 . S
O62 Li0 1.961 . S
O62 Li2 1.956 . S
O62 Li3 1.970 . S
O62 C32 1.325 . S
O63 Li1 1.961 . S
O63 Li2 1.970 . S
O63 Li3 1.956 . S
O63 C38 1.325 . S
H64 C6 0.929 . S
H65 C7 0.930 . S
H66 C8 0.930 . S
H67 C9 0.930 . S
H68 C11 0.930 . S
H69 C13 0.929 . S
H70 C14 0.930 . S
H71 C15 0.930 . S
H72 C18 0.930 . S
H73 C21 0.929 . S
H74 C26 0.929 . S
H75 C27 0.930 . S
H76 C34 0.929 . S
H77 C35 0.930 . S
H78 C36 0.930 . S
H79 C37 0.930 . S
H80 C39 0.929 . S
H81 C40 0.930 . S
H82 C41 0.930 . S
H83 C42 0.930 . S
H84 C46 0.929 . S
H85 C48 0.930 . S
H86 C54 0.929 . S
H87 C55 0.930 . S
Li88 N105 1.990 . S
Li88 O148 1.956 . S
Li88 O149 1.970 . S
Li88 O150 1.961 . S
Li89 N113 1.990 . S
Li89 O148 1.970 . S
Li89 O149 1.956 . S
Li89 O151 1.961 . S
Li90 N135 1.990 . S
Li90 O148 1.961 . S
Li90 O150 1.956 . S
Li90 O151 1.970 . S
Li91 N141 1.990 . S
Li91 O149 1.961 . S
Li91 O150 1.970 . S
Li91 O151 1.956 . S
C92 C94 1.348 . S
C92 C95 1.356 . S
C92 O148 1.325 . S
N93 C96 1.314 . S
N93 C97 1.279 . S
C94 C92 1.348 . S
C94 C96 1.353 . S
C94 H152 0.929 . S
C95 C92 1.356 . S
C95 C97 1.358 . S
C95 H153 0.930 . S
C96 N93 1.314 . S
C96 C94 1.353 . S
C96 H154 0.930 . S
C97 N93 1.279 . S
C97 C95 1.358 . S
C97 H155 0.930 . S
C98 C101 1.348 . S
C98 C102 1.356 . S
C98 O149 1.325 . S
C99 N100 1.279 . S
C99 C102 1.358 . S
C99 H156 0.930 . S
N100 C99 1.279 . S
N100 C103 1.314 . S
C101 C98 1.348 . S
C101 C103 1.353 . S
C101 H157 0.929 . S
C102 C98 1.356 . S
C102 C99 1.358 . S
C102 H158 0.930 . S
C103 N100 1.314 . S
C103 C101 1.353 . S
C103 H159 0.930 . S
C104 N105 1.314 . S
C104 C109 1.353 . S
C104 H110 0.930 . S
N105 Li88 1.990 . S
N105 C104 1.314 . S
N105 C107 1.279 . S
C106 C107 1.358 . S
C106 C108 1.356 . S
C106 H160 0.930 . S
C107 N105 1.279 . S
C107 C106 1.358 . S
C107 H111 0.930 . S
C108 C106 1.356 . S
C108 C109 1.348 . S
C109 C104 1.353 . S
C109 C108 1.348 . S
C109 H161 0.929 . S
H110 C104 0.930 . S
H111 C107 0.930 . S
C112 N113 1.314 . S
C112 C114 1.353 . S
C112 H118 0.930 . S
N113 Li89 1.990 . S
N113 C112 1.314 . S
N113 C116 1.279 . S
C114 C112 1.353 . S
C114 C117 1.348 . S
C114 H162 0.929 . S
C115 C116 1.358 . S
C115 C117 1.356 . S
C115 H163 0.930 . S
C116 N113 1.279 . S
C116 C115 1.358 . S
C116 H119 0.930 . S
C117 C114 1.348 . S
C117 C115 1.356 . S
H118 C112 0.930 . S
H119 C116 0.930 . S
C120 C122 1.348 . S
C120 C123 1.356 . S
C120 O150 1.325 . S
N121 C124 1.314 . S
N121 C125 1.279 . S
C122 C120 1.348 . S
C122 C124 1.353 . S
C122 H164 0.929 . S
C123 C120 1.356 . S
C123 C125 1.358 . S
C123 H165 0.930 . S
C124 N121 1.314 . S
C124 C122 1.353 . S
C124 H166 0.930 . S
C125 N121 1.279 . S
C125 C123 1.358 . S
C125 H167 0.930 . S
C126 C127 1.348 . S
C126 C128 1.356 . S
C126 O151 1.325 . S
C127 C126 1.348 . S
C127 C129 1.353 . S
C127 H168 0.929 . S
C128 C126 1.356 . S
C128 C130 1.358 . S
C128 H169 0.930 . S
C129 C127 1.353 . S
C129 N131 1.314 . S
C129 H170 0.930 . S
C130 C128 1.358 . S
C130 N131 1.279 . S
C130 H171 0.930 . S
N131 C129 1.314 . S
N131 C130 1.279 . S
C132 C134 1.353 . S
C132 N135 1.314 . S
C132 H138 0.930 . S
C133 N135 1.279 . S
C133 C136 1.358 . S
C133 H139 0.930 . S
C134 C132 1.353 . S
C134 C137 1.348 . S
C134 H172 0.929 . S
N135 Li90 1.990 . S
N135 C132 1.314 . S
N135 C133 1.279 . S
C136 C133 1.358 . S
C136 C137 1.356 . S
C136 H173 0.930 . S
C137 C134 1.348 . S
C137 C136 1.356 . S
H138 C132 0.930 . S
H139 C133 0.930 . S
C140 N141 1.314 . S
C140 C142 1.353 . S
C140 H146 0.930 . S
N141 Li91 1.990 . S
N141 C140 1.314 . S
N141 C144 1.279 . S
C142 C140 1.353 . S
C142 C145 1.348 . S
C142 H174 0.929 . S
C143 C144 1.358 . S
C143 C145 1.356 . S
C143 H175 0.930 . S
C144 N141 1.279 . S
C144 C143 1.358 . S
C144 H147 0.930 . S
C145 C142 1.348 . S
C145 C143 1.356 . S
H146 C140 0.930 . S
H147 C144 0.930 . S
O148 Li88 1.956 . S
O148 Li89 1.970 . S
O148 Li90 1.961 . S
O148 C92 1.325 . S
O149 Li88 1.970 . S
O149 Li89 1.956 . S
O149 Li91 1.961 . S
O149 C98 1.325 . S
O150 Li88 1.961 . S
O150 Li90 1.956 . S
O150 Li91 1.970 . S
O150 C120 1.325 . S
O151 Li89 1.961 . S
O151 Li90 1.970 . S
O151 Li91 1.956 . S
O151 C126 1.325 . S
H152 C94 0.929 . S
H153 C95 0.930 . S
H154 C96 0.930 . S
H155 C97 0.930 . S
H156 C99 0.930 . S
H157 C101 0.929 . S
H158 C102 0.930 . S
H159 C103 0.930 . S
H160 C106 0.930 . S
H161 C109 0.929 . S
H162 C114 0.929 . S
H163 C115 0.930 . S
H164 C122 0.929 . S
H165 C123 0.930 . S
H166 C124 0.930 . S
H167 C125 0.930 . S
H168 C127 0.929 . S
H169 C128 0.930 . S
H170 C129 0.930 . S
H171 C130 0.930 . S
H172 C134 0.929 . S
H173 C136 0.930 . S
H174 C142 0.929 . S
H175 C143 0.930 . S
Li176 N193 1.990 . S
Li176 O236 1.956 . S
Li176 O237 1.970 . S
Li176 O238 1.961 . S
Li177 N201 1.990 . S
Li177 O236 1.970 . S
Li177 O237 1.956 . S
Li177 O239 1.961 . S
Li178 N223 1.990 . S
Li178 O236 1.961 . S
Li178 O238 1.956 . S
Li178 O239 1.970 . S
Li179 N229 1.990 . S
Li179 O237 1.961 . S
Li179 O238 1.970 . S
Li179 O239 1.956 . S
C180 C182 1.348 . S
C180 C183 1.356 . S
C180 O236 1.325 . S
N181 C184 1.314 . S
N181 C185 1.279 . S
C182 C180 1.348 . S
C182 C184 1.353 . S
C182 H240 0.929 . S
C183 C180 1.356 . S
C183 C185 1.358 . S
C183 H241 0.930 . S
C184 N181 1.314 . S
C184 C182 1.353 . S
C184 H242 0.930 . S
C185 N181 1.279 . S
C185 C183 1.358 . S
C185 H243 0.930 . S
C186 C189 1.348 . S
C186 C190 1.356 . S
C186 O237 1.325 . S
C187 N188 1.279 . S
C187 C190 1.358 . S
C187 H244 0.930 . S
N188 C187 1.279 . S
N188 C191 1.314 . S
C189 C186 1.348 . S
C189 C191 1.353 . S
C189 H245 0.929 . S
C190 C186 1.356 . S
C190 C187 1.358 . S
C190 H246 0.930 . S
C191 N188 1.314 . S
C191 C189 1.353 . S
C191 H247 0.930 . S
C192 N193 1.314 . S
C192 C197 1.353 . S
C192 H198 0.930 . S
N193 Li176 1.990 . S
N193 C192 1.314 . S
N193 C195 1.279 . S
C194 C195 1.358 . S
C194 C196 1.356 . S
C194 H248 0.930 . S
C195 N193 1.279 . S
C195 C194 1.358 . S
C195 H199 0.930 . S
C196 C194 1.356 . S
C196 C197 1.348 . S
C197 C192 1.353 . S
C197 C196 1.348 . S
C197 H249 0.929 . S
H198 C192 0.930 . S
H199 C195 0.930 . S
C200 N201 1.314 . S
C200 C202 1.353 . S
C200 H206 0.930 . S
N201 Li177 1.990 . S
N201 C200 1.314 . S
N201 C204 1.279 . S
C202 C200 1.353 . S
C202 C205 1.348 . S
C202 H250 0.929 . S
C203 C204 1.358 . S
C203 C205 1.356 . S
C203 H251 0.930 . S
C204 N201 1.279 . S
C204 C203 1.358 . S
C204 H207 0.930 . S
C205 C202 1.348 . S
C205 C203 1.356 . S
H206 C200 0.930 . S
H207 C204 0.930 . S
C208 C210 1.348 . S
C208 C211 1.356 . S
C208 O238 1.325 . S
N209 C212 1.314 . S
N209 C213 1.279 . S
C210 C208 1.348 . S
C210 C212 1.353 . S
C210 H252 0.929 . S
C211 C208 1.356 . S
C211 C213 1.358 . S
C211 H253 0.930 . S
C212 N209 1.314 . S
C212 C210 1.353 . S
C212 H254 0.930 . S
C213 N209 1.279 . S
C213 C211 1.358 . S
C213 H255 0.930 . S
C214 C215 1.348 . S
C214 C216 1.356 . S
C214 O239 1.325 . S
C215 C214 1.348 . S
C215 C217 1.353 . S
C215 H256 0.929 . S
C216 C214 1.356 . S
C216 C218 1.358 . S
C216 H257 0.930 . S
C217 C215 1.353 . S
C217 N219 1.314 . S
C217 H258 0.930 . S
C218 C216 1.358 . S
C218 N219 1.279 . S
C218 H259 0.930 . S
N219 C217 1.314 . S
N219 C218 1.279 . S
C220 C222 1.353 . S
C220 N223 1.314 . S
C220 H226 0.930 . S
C221 N223 1.279 . S
C221 C224 1.358 . S
C221 H227 0.930 . S
C222 C220 1.353 . S
C222 C225 1.348 . S
C222 H260 0.929 . S
N223 Li178 1.990 . S
N223 C220 1.314 . S
N223 C221 1.279 . S
C224 C221 1.358 . S
C224 C225 1.356 . S
C224 H261 0.930 . S
C225 C222 1.348 . S
C225 C224 1.356 . S
H226 C220 0.930 . S
H227 C221 0.930 . S
C228 N229 1.314 . S
C228 C230 1.353 . S
C228 H234 0.930 . S
N229 Li179 1.990 . S
N229 C228 1.314 . S
N229 C232 1.279 . S
C230 C228 1.353 . S
C230 C233 1.348 . S
C230 H262 0.929 . S
C231 C232 1.358 . S
C231 C233 1.356 . S
C231 H263 0.930 . S
C232 N229 1.279 . S
C232 C231 1.358 . S
C232 H235 0.930 . S
C233 C230 1.348 . S
C233 C231 1.356 . S
H234 C228 0.930 . S
H235 C232 0.930 . S
O236 Li176 1.956 . S
O236 Li177 1.970 . S
O236 Li178 1.961 . S
O236 C180 1.325 . S
O237 Li176 1.970 . S
O237 Li177 1.956 . S
O237 Li179 1.961 . S
O237 C186 1.325 . S
O238 Li176 1.961 . S
O238 Li178 1.956 . S
O238 Li179 1.970 . S
O238 C208 1.325 . S
O239 Li177 1.961 . S
O239 Li178 1.970 . S
O239 Li179 1.956 . S
O239 C214 1.325 . S
H240 C182 0.929 . S
H241 C183 0.930 . S
H242 C184 0.930 . S
H243 C185 0.930 . S
H244 C187 0.930 . S
H245 C189 0.929 . S
H246 C190 0.930 . S
H247 C191 0.930 . S
H248 C194 0.930 . S
H249 C197 0.929 . S
H250 C202 0.929 . S
H251 C203 0.930 . S
H252 C210 0.929 . S
H253 C211 0.930 . S
H254 C212 0.930 . S
H255 C213 0.930 . S
H256 C215 0.929 . S
H257 C216 0.930 . S
H258 C217 0.930 . S
H259 C218 0.930 . S
H260 C222 0.929 . S
H261 C224 0.930 . S
H262 C230 0.929 . S
H263 C231 0.930 . S
Li264 N281 1.990 . S
Li264 O324 1.956 . S
Li264 O325 1.970 . S
Li264 O326 1.961 . S
Li265 N289 1.990 . S
Li265 O324 1.970 . S
Li265 O325 1.956 . S
Li265 O327 1.961 . S
Li266 N311 1.990 . S
Li266 O324 1.961 . S
Li266 O326 1.956 . S
Li266 O327 1.970 . S
Li267 N317 1.990 . S
Li267 O325 1.961 . S
Li267 O326 1.970 . S
Li267 O327 1.956 . S
C268 C270 1.348 . S
C268 C271 1.356 . S
C268 O324 1.325 . S
N269 C272 1.314 . S
N269 C273 1.279 . S
C270 C268 1.348 . S
C270 C272 1.353 . S
C270 H328 0.929 . S
C271 C268 1.356 . S
C271 C273 1.358 . S
C271 H329 0.930 . S
C272 N269 1.314 . S
C272 C270 1.353 . S
C272 H330 0.930 . S
C273 N269 1.279 . S
C273 C271 1.358 . S
C273 H331 0.930 . S
C274 C277 1.348 . S
C274 C278 1.356 . S
C274 O325 1.325 . S
C275 N276 1.279 . S
C275 C278 1.358 . S
C275 H332 0.930 . S
N276 C275 1.279 . S
N276 C279 1.314 . S
C277 C274 1.348 . S
C277 C279 1.353 . S
C277 H333 0.929 . S
C278 C274 1.356 . S
C278 C275 1.358 . S
C278 H334 0.930 . S
C279 N276 1.314 . S
C279 C277 1.353 . S
C279 H335 0.930 . S
C280 N281 1.314 . S
C280 C285 1.353 . S
C280 H286 0.930 . S
N281 Li264 1.990 . S
N281 C280 1.314 . S
N281 C283 1.279 . S
C282 C283 1.358 . S
C282 C284 1.356 . S
C282 H336 0.930 . S
C283 N281 1.279 . S
C283 C282 1.358 . S
C283 H287 0.930 . S
C284 C282 1.356 . S
C284 C285 1.348 . S
C285 C280 1.353 . S
C285 C284 1.348 . S
C285 H337 0.929 . S
H286 C280 0.930 . S
H287 C283 0.930 . S
C288 N289 1.314 . S
C288 C290 1.353 . S
C288 H294 0.930 . S
N289 Li265 1.990 . S
N289 C288 1.314 . S
N289 C292 1.279 . S
C290 C288 1.353 . S
C290 C293 1.348 . S
C290 H338 0.929 . S
C291 C292 1.358 . S
C291 C293 1.356 . S
C291 H339 0.930 . S
C292 N289 1.279 . S
C292 C291 1.358 . S
C292 H295 0.930 . S
C293 C290 1.348 . S
C293 C291 1.356 . S
H294 C288 0.930 . S
H295 C292 0.930 . S
C296 C298 1.348 . S
C296 C299 1.356 . S
C296 O326 1.325 . S
N297 C300 1.314 . S
N297 C301 1.279 . S
C298 C296 1.348 . S
C298 C300 1.353 . S
C298 H340 0.929 . S
C299 C296 1.356 . S
C299 C301 1.358 . S
C299 H341 0.930 . S
C300 N297 1.314 . S
C300 C298 1.353 . S
C300 H342 0.930 . S
C301 N297 1.279 . S
C301 C299 1.358 . S
C301 H343 0.930 . S
C302 C303 1.348 . S
C302 C304 1.356 . S
C302 O327 1.325 . S
C303 C302 1.348 . S
C303 C305 1.353 . S
C303 H344 0.929 . S
C304 C302 1.356 . S
C304 C306 1.358 . S
C304 H345 0.930 . S
C305 C303 1.353 . S
C305 N307 1.314 . S
C305 H346 0.930 . S
C306 C304 1.358 . S
C306 N307 1.279 . S
C306 H347 0.930 . S
N307 C305 1.314 . S
N307 C306 1.279 . S
C308 C310 1.353 . S
C308 N311 1.314 . S
C308 H314 0.930 . S
C309 N311 1.279 . S
C309 C312 1.358 . S
C309 H315 0.930 . S
C310 C308 1.353 . S
C310 C313 1.348 . S
C310 H348 0.929 . S
N311 Li266 1.990 . S
N311 C308 1.314 . S
N311 C309 1.279 . S
C312 C309 1.358 . S
C312 C313 1.356 . S
C312 H349 0.930 . S
C313 C310 1.348 . S
C313 C312 1.356 . S
H314 C308 0.930 . S
H315 C309 0.930 . S
C316 N317 1.314 . S
C316 C318 1.353 . S
C316 H322 0.930 . S
N317 Li267 1.990 . S
N317 C316 1.314 . S
N317 C320 1.279 . S
C318 C316 1.353 . S
C318 C321 1.348 . S
C318 H350 0.929 . S
C319 C320 1.358 . S
C319 C321 1.356 . S
C319 H351 0.930 . S
C320 N317 1.279 . S
C320 C319 1.358 . S
C320 H323 0.930 . S
C321 C318 1.348 . S
C321 C319 1.356 . S
H322 C316 0.930 . S
H323 C320 0.930 . S
O324 Li264 1.956 . S
O324 Li265 1.970 . S
O324 Li266 1.961 . S
O324 C268 1.325 . S
O325 Li264 1.970 . S
O325 Li265 1.956 . S
O325 Li267 1.961 . S
O325 C274 1.325 . S
O326 Li264 1.961 . S
O326 Li266 1.956 . S
O326 Li267 1.970 . S
O326 C296 1.325 . S
O327 Li265 1.961 . S
O327 Li266 1.970 . S
O327 Li267 1.956 . S
O327 C302 1.325 . S
H328 C270 0.929 . S
H329 C271 0.930 . S
H330 C272 0.930 . S
H331 C273 0.930 . S
H332 C275 0.930 . S
H333 C277 0.929 . S
H334 C278 0.930 . S
H335 C279 0.930 . S
H336 C282 0.930 . S
H337 C285 0.929 . S
H338 C290 0.929 . S
H339 C291 0.930 . S
H340 C298 0.929 . S
H341 C299 0.930 . S
H342 C300 0.930 . S
H343 C301 0.930 . S
H344 C303 0.929 . S
H345 C304 0.930 . S
H346 C305 0.930 . S
H347 C306 0.930 . S
H348 C310 0.929 . S
H349 C312 0.930 . S
H350 C318 0.929 . S
H351 C319 0.930 . S
Li352 N369 1.990 . S
Li352 O412 1.956 . S
Li352 O413 1.970 . S
Li352 O414 1.961 . S
Li353 N377 1.990 . S
Li353 O412 1.970 . S
Li353 O413 1.956 . S
Li353 O415 1.961 . S
Li354 N399 1.990 . S
Li354 O412 1.961 . S
Li354 O414 1.956 . S
Li354 O415 1.970 . S
Li355 N405 1.990 . S
Li355 O413 1.961 . S
Li355 O414 1.970 . S
Li355 O415 1.956 . S
C356 C358 1.348 . S
C356 C359 1.356 . S
C356 O412 1.325 . S
N357 C360 1.314 . S
N357 C361 1.279 . S
C358 C356 1.348 . S
C358 C360 1.353 . S
C358 H416 0.929 . S
C359 C356 1.356 . S
C359 C361 1.358 . S
C359 H417 0.930 . S
C360 N357 1.314 . S
C360 C358 1.353 . S
C360 H418 0.930 . S
C361 N357 1.279 . S
C361 C359 1.358 . S
C361 H419 0.930 . S
C362 C365 1.348 . S
C362 C366 1.356 . S
C362 O413 1.325 . S
C363 N364 1.279 . S
C363 C366 1.358 . S
C363 H420 0.930 . S
N364 C363 1.279 . S
N364 C367 1.314 . S
C365 C362 1.348 . S
C365 C367 1.353 . S
C365 H421 0.929 . S
C366 C362 1.356 . S
C366 C363 1.358 . S
C366 H422 0.930 . S
C367 N364 1.314 . S
C367 C365 1.353 . S
C367 H423 0.930 . S
C368 N369 1.314 . S
C368 C373 1.353 . S
C368 H374 0.930 . S
N369 Li352 1.990 . S
N369 C368 1.314 . S
N369 C371 1.279 . S
C370 C371 1.358 . S
C370 C372 1.356 . S
C370 H424 0.930 . S
C371 N369 1.279 . S
C371 C370 1.358 . S
C371 H375 0.930 . S
C372 C370 1.356 . S
C372 C373 1.348 . S
C373 C368 1.353 . S
C373 C372 1.348 . S
C373 H425 0.929 . S
H374 C368 0.930 . S
H375 C371 0.930 . S
C376 N377 1.314 . S
C376 C378 1.353 . S
C376 H382 0.930 . S
N377 Li353 1.990 . S
N377 C376 1.314 . S
N377 C380 1.279 . S
C378 C376 1.353 . S
C378 C381 1.348 . S
C378 H426 0.929 . S
C379 C380 1.358 . S
C379 C381 1.356 . S
C379 H427 0.930 . S
C380 N377 1.279 . S
C380 C379 1.358 . S
C380 H383 0.930 . S
C381 C378 1.348 . S
C381 C379 1.356 . S
H382 C376 0.930 . S
H383 C380 0.930 . S
C384 C386 1.348 . S
C384 C387 1.356 . S
C384 O414 1.325 . S
N385 C388 1.314 . S
N385 C389 1.279 . S
C386 C384 1.348 . S
C386 C388 1.353 . S
C386 H428 0.929 . S
C387 C384 1.356 . S
C387 C389 1.358 . S
C387 H429 0.930 . S
C388 N385 1.314 . S
C388 C386 1.353 . S
C388 H430 0.930 . S
C389 N385 1.279 . S
C389 C387 1.358 . S
C389 H431 0.930 . S
C390 C391 1.348 . S
C390 C392 1.356 . S
C390 O415 1.325 . S
C391 C390 1.348 . S
C391 C393 1.353 . S
C391 H432 0.929 . S
C392 C390 1.356 . S
C392 C394 1.358 . S
C392 H433 0.930 . S
C393 C391 1.353 . S
C393 N395 1.314 . S
C393 H434 0.930 . S
C394 C392 1.358 . S
C394 N395 1.279 . S
C394 H435 0.930 . S
N395 C393 1.314 . S
N395 C394 1.279 . S
C396 C398 1.353 . S
C396 N399 1.314 . S
C396 H402 0.930 . S
C397 N399 1.279 . S
C397 C400 1.358 . S
C397 H403 0.930 . S
C398 C396 1.353 . S
C398 C401 1.348 . S
C398 H436 0.929 . S
N399 Li354 1.990 . S
N399 C396 1.314 . S
N399 C397 1.279 . S
C400 C397 1.358 . S
C400 C401 1.356 . S
C400 H437 0.930 . S
C401 C398 1.348 . S
C401 C400 1.356 . S
H402 C396 0.930 . S
H403 C397 0.930 . S
C404 N405 1.314 . S
C404 C406 1.353 . S
C404 H410 0.930 . S
N405 Li355 1.990 . S
N405 C404 1.314 . S
N405 C408 1.279 . S
C406 C404 1.353 . S
C406 C409 1.348 . S
C406 H438 0.929 . S
C407 C408 1.358 . S
C407 C409 1.356 . S
C407 H439 0.930 . S
C408 N405 1.279 . S
C408 C407 1.358 . S
C408 H411 0.930 . S
C409 C406 1.348 . S
C409 C407 1.356 . S
H410 C404 0.930 . S
H411 C408 0.930 . S
O412 Li352 1.956 . S
O412 Li353 1.970 . S
O412 Li354 1.961 . S
O412 C356 1.325 . S
O413 Li352 1.970 . S
O413 Li353 1.956 . S
O413 Li355 1.961 . S
O413 C362 1.325 . S
O414 Li352 1.961 . S
O414 Li354 1.956 . S
O414 Li355 1.970 . S
O414 C384 1.325 . S
O415 Li353 1.961 . S
O415 Li354 1.970 . S
O415 Li355 1.956 . S
O415 C390 1.325 . S
H416 C358 0.929 . S
H417 C359 0.930 . S
H418 C360 0.930 . S
H419 C361 0.930 . S
H420 C363 0.930 . S
H421 C365 0.929 . S
H422 C366 0.930 . S
H423 C367 0.930 . S
H424 C370 0.930 . S
H425 C373 0.929 . S
H426 C378 0.929 . S
H427 C379 0.930 . S
H428 C386 0.929 . S
H429 C387 0.930 . S
H430 C388 0.930 . S
H431 C389 0.930 . S
H432 C391 0.929 . S
H433 C392 0.930 . S
H434 C393 0.930 . S
H435 C394 0.930 . S
H436 C398 0.929 . S
H437 C400 0.930 . S
H438 C406 0.929 . S
H439 C407 0.930 . S
Li440 N457 1.990 . S
Li440 O500 1.956 . S
Li440 O501 1.970 . S
Li440 O502 1.961 . S
Li441 N465 1.990 . S
Li441 O500 1.970 . S
Li441 O501 1.956 . S
Li441 O503 1.961 . S
Li442 N487 1.990 . S
Li442 O500 1.961 . S
Li442 O502 1.956 . S
Li442 O503 1.970 . S
Li443 N493 1.990 . S
Li443 O501 1.961 . S
Li443 O502 1.970 . S
Li443 O503 1.956 . S
C444 C446 1.348 . S
C444 C447 1.356 . S
C444 O500 1.325 . S
N445 C448 1.314 . S
N445 C449 1.279 . S
C446 C444 1.348 . S
C446 C448 1.353 . S
C446 H504 0.929 . S
C447 C444 1.356 . S
C447 C449 1.358 . S
C447 H505 0.930 . S
C448 N445 1.314 . S
C448 C446 1.353 . S
C448 H506 0.930 . S
C449 N445 1.279 . S
C449 C447 1.358 . S
C449 H507 0.930 . S
C450 C453 1.348 . S
C450 C454 1.356 . S
C450 O501 1.325 . S
C451 N452 1.279 . S
C451 C454 1.358 . S
C451 H508 0.930 . S
N452 C451 1.279 . S
N452 C455 1.314 . S
C453 C450 1.348 . S
C453 C455 1.353 . S
C453 H509 0.929 . S
C454 C450 1.356 . S
C454 C451 1.358 . S
C454 H510 0.930 . S
C455 N452 1.314 . S
C455 C453 1.353 . S
C455 H511 0.930 . S
C456 N457 1.314 . S
C456 C461 1.353 . S
C456 H462 0.930 . S
N457 Li440 1.990 . S
N457 C456 1.314 . S
N457 C459 1.279 . S
C458 C459 1.358 . S
C458 C460 1.356 . S
C458 H512 0.930 . S
C459 N457 1.279 . S
C459 C458 1.358 . S
C459 H463 0.930 . S
C460 C458 1.356 . S
C460 C461 1.348 . S
C461 C456 1.353 . S
C461 C460 1.348 . S
C461 H513 0.929 . S
H462 C456 0.930 . S
H463 C459 0.930 . S
C464 N465 1.314 . S
C464 C466 1.353 . S
C464 H470 0.930 . S
N465 Li441 1.990 . S
N465 C464 1.314 . S
N465 C468 1.279 . S
C466 C464 1.353 . S
C466 C469 1.348 . S
C466 H514 0.929 . S
C467 C468 1.358 . S
C467 C469 1.356 . S
C467 H515 0.930 . S
C468 N465 1.279 . S
C468 C467 1.358 . S
C468 H471 0.930 . S
C469 C466 1.348 . S
C469 C467 1.356 . S
H470 C464 0.930 . S
H471 C468 0.930 . S
C472 C474 1.348 . S
C472 C475 1.356 . S
C472 O502 1.325 . S
N473 C476 1.314 . S
N473 C477 1.279 . S
C474 C472 1.348 . S
C474 C476 1.353 . S
C474 H516 0.929 . S
C475 C472 1.356 . S
C475 C477 1.358 . S
C475 H517 0.930 . S
C476 N473 1.314 . S
C476 C474 1.353 . S
C476 H518 0.930 . S
C477 N473 1.279 . S
C477 C475 1.358 . S
C477 H519 0.930 . S
C478 C479 1.348 . S
C478 C480 1.356 . S
C478 O503 1.325 . S
C479 C478 1.348 . S
C479 C481 1.353 . S
C479 H520 0.929 . S
C480 C478 1.356 . S
C480 C482 1.358 . S
C480 H521 0.930 . S
C481 C479 1.353 . S
C481 N483 1.314 . S
C481 H522 0.930 . S
C482 C480 1.358 . S
C482 N483 1.279 . S
C482 H523 0.930 . S
N483 C481 1.314 . S
N483 C482 1.279 . S
C484 C486 1.353 . S
C484 N487 1.314 . S
C484 H490 0.930 . S
C485 N487 1.279 . S
C485 C488 1.358 . S
C485 H491 0.930 . S
C486 C484 1.353 . S
C486 C489 1.348 . S
C486 H524 0.929 . S
N487 Li442 1.990 . S
N487 C484 1.314 . S
N487 C485 1.279 . S
C488 C485 1.358 . S
C488 C489 1.356 . S
C488 H525 0.930 . S
C489 C486 1.348 . S
C489 C488 1.356 . S
H490 C484 0.930 . S
H491 C485 0.930 . S
C492 N493 1.314 . S
C492 C494 1.353 . S
C492 H498 0.930 . S
N493 Li443 1.990 . S
N493 C492 1.314 . S
N493 C496 1.279 . S
C494 C492 1.353 . S
C494 C497 1.348 . S
C494 H526 0.929 . S
C495 C496 1.358 . S
C495 C497 1.356 . S
C495 H527 0.930 . S
C496 N493 1.279 . S
C496 C495 1.358 . S
C496 H499 0.930 . S
C497 C494 1.348 . S
C497 C495 1.356 . S
H498 C492 0.930 . S
H499 C496 0.930 . S
O500 Li440 1.956 . S
O500 Li441 1.970 . S
O500 Li442 1.961 . S
O500 C444 1.325 . S
O501 Li440 1.970 . S
O501 Li441 1.956 . S
O501 Li443 1.961 . S
O501 C450 1.325 . S
O502 Li440 1.961 . S
O502 Li442 1.956 . S
O502 Li443 1.970 . S
O502 C472 1.325 . S
O503 Li441 1.961 . S
O503 Li442 1.970 . S
O503 Li443 1.956 . S
O503 C478 1.325 . S
H504 C446 0.929 . S
H505 C447 0.930 . S
H506 C448 0.930 . S
H507 C449 0.930 . S
H508 C451 0.930 . S
H509 C453 0.929 . S
H510 C454 0.930 . S
H511 C455 0.930 . S
H512 C458 0.930 . S
H513 C461 0.929 . S
H514 C466 0.929 . S
H515 C467 0.930 . S
H516 C474 0.929 . S
H517 C475 0.930 . S
H518 C476 0.930 . S
H519 C477 0.930 . S
H520 C479 0.929 . S
H521 C480 0.930 . S
H522 C481 0.930 . S
H523 C482 0.930 . S
H524 C486 0.929 . S
H525 C488 0.930 . S
H526 C494 0.929 . S
H527 C495 0.930 . S
Li528 N545 1.990 . S
Li528 O588 1.956 . S
Li528 O589 1.970 . S
Li528 O590 1.961 . S
Li529 N553 1.990 . S
Li529 O588 1.970 . S
Li529 O589 1.956 . S
Li529 O591 1.961 . S
Li530 N575 1.990 . S
Li530 O588 1.961 . S
Li530 O590 1.956 . S
Li530 O591 1.970 . S
Li531 N581 1.990 . S
Li531 O589 1.961 . S
Li531 O590 1.970 . S
Li531 O591 1.956 . S
C532 C534 1.348 . S
C532 C535 1.356 . S
C532 O588 1.325 . S
N533 C536 1.314 . S
N533 C537 1.279 . S
C534 C532 1.348 . S
C534 C536 1.353 . S
C534 H592 0.929 . S
C535 C532 1.356 . S
C535 C537 1.358 . S
C535 H593 0.930 . S
C536 N533 1.314 . S
C536 C534 1.353 . S
C536 H594 0.930 . S
C537 N533 1.279 . S
C537 C535 1.358 . S
C537 H595 0.930 . S
C538 C541 1.348 . S
C538 C542 1.356 . S
C538 O589 1.325 . S
C539 N540 1.279 . S
C539 C542 1.358 . S
C539 H596 0.930 . S
N540 C539 1.279 . S
N540 C543 1.314 . S
C541 C538 1.348 . S
C541 C543 1.353 . S
C541 H597 0.929 . S
C542 C538 1.356 . S
C542 C539 1.358 . S
C542 H598 0.930 . S
C543 N540 1.314 . S
C543 C541 1.353 . S
C543 H599 0.930 . S
C544 N545 1.314 . S
C544 C549 1.353 . S
C544 H550 0.930 . S
N545 Li528 1.990 . S
N545 C544 1.314 . S
N545 C547 1.279 . S
C546 C547 1.358 . S
C546 C548 1.356 . S
C546 H600 0.930 . S
C547 N545 1.279 . S
C547 C546 1.358 . S
C547 H551 0.930 . S
C548 C546 1.356 . S
C548 C549 1.348 . S
C549 C544 1.353 . S
C549 C548 1.348 . S
C549 H601 0.929 . S
H550 C544 0.930 . S
H551 C547 0.930 . S
C552 N553 1.314 . S
C552 C554 1.353 . S
C552 H558 0.930 . S
N553 Li529 1.990 . S
N553 C552 1.314 . S
N553 C556 1.279 . S
C554 C552 1.353 . S
C554 C557 1.348 . S
C554 H602 0.929 . S
C555 C556 1.358 . S
C555 C557 1.356 . S
C555 H603 0.930 . S
C556 N553 1.279 . S
C556 C555 1.358 . S
C556 H559 0.930 . S
C557 C554 1.348 . S
C557 C555 1.356 . S
H558 C552 0.930 . S
H559 C556 0.930 . S
C560 C562 1.348 . S
C560 C563 1.356 . S
C560 O590 1.325 . S
N561 C564 1.314 . S
N561 C565 1.279 . S
C562 C560 1.348 . S
C562 C564 1.353 . S
C562 H604 0.929 . S
C563 C560 1.356 . S
C563 C565 1.358 . S
C563 H605 0.930 . S
C564 N561 1.314 . S
C564 C562 1.353 . S
C564 H606 0.930 . S
C565 N561 1.279 . S
C565 C563 1.358 . S
C565 H607 0.930 . S
C566 C567 1.348 . S
C566 C568 1.356 . S
C566 O591 1.325 . S
C567 C566 1.348 . S
C567 C569 1.353 . S
C567 H608 0.929 . S
C568 C566 1.356 . S
C568 C570 1.358 . S
C568 H609 0.930 . S
C569 C567 1.353 . S
C569 N571 1.314 . S
C569 H610 0.930 . S
C570 C568 1.358 . S
C570 N571 1.279 . S
C570 H611 0.930 . S
N571 C569 1.314 . S
N571 C570 1.279 . S
C572 C574 1.353 . S
C572 N575 1.314 . S
C572 H578 0.930 . S
C573 N575 1.279 . S
C573 C576 1.358 . S
C573 H579 0.930 . S
C574 C572 1.353 . S
C574 C577 1.348 . S
C574 H612 0.929 . S
N575 Li530 1.990 . S
N575 C572 1.314 . S
N575 C573 1.279 . S
C576 C573 1.358 . S
C576 C577 1.356 . S
C576 H613 0.930 . S
C577 C574 1.348 . S
C577 C576 1.356 . S
H578 C572 0.930 . S
H579 C573 0.930 . S
C580 N581 1.314 . S
C580 C582 1.353 . S
C580 H586 0.930 . S
N581 Li531 1.990 . S
N581 C580 1.314 . S
N581 C584 1.279 . S
C582 C580 1.353 . S
C582 C585 1.348 . S
C582 H614 0.929 . S
C583 C584 1.358 . S
C583 C585 1.356 . S
C583 H615 0.930 . S
C584 N581 1.279 . S
C584 C583 1.358 . S
C584 H587 0.930 . S
C585 C582 1.348 . S
C585 C583 1.356 . S
H586 C580 0.930 . S
H587 C584 0.930 . S
O588 Li528 1.956 . S
O588 Li529 1.970 . S
O588 Li530 1.961 . S
O588 C532 1.325 . S
O589 Li528 1.970 . S
O589 Li529 1.956 . S
O589 Li531 1.961 . S
O589 C538 1.325 . S
O590 Li528 1.961 . S
O590 Li530 1.956 . S
O590 Li531 1.970 . S
O590 C560 1.325 . S
O591 Li529 1.961 . S
O591 Li530 1.970 . S
O591 Li531 1.956 . S
O591 C566 1.325 . S
H592 C534 0.929 . S
H593 C535 0.930 . S
H594 C536 0.930 . S
H595 C537 0.930 . S
H596 C539 0.930 . S
H597 C541 0.929 . S
H598 C542 0.930 . S
H599 C543 0.930 . S
H600 C546 0.930 . S
H601 C549 0.929 . S
H602 C554 0.929 . S
H603 C555 0.930 . S
H604 C562 0.929 . S
H605 C563 0.930 . S
H606 C564 0.930 . S
H607 C565 0.930 . S
H608 C567 0.929 . S
H609 C568 0.930 . S
H610 C569 0.930 . S
H611 C570 0.930 . S
H612 C574 0.929 . S
H613 C576 0.930 . S
H614 C582 0.929 . S
H615 C583 0.930 . S
Li616 N633 1.990 . S
Li616 O676 1.956 . S
Li616 O677 1.970 . S
Li616 O678 1.961 . S
Li617 N641 1.990 . S
Li617 O676 1.970 . S
Li617 O677 1.956 . S
Li617 O679 1.961 . S
Li618 N663 1.990 . S
Li618 O676 1.961 . S
Li618 O678 1.956 . S
Li618 O679 1.970 . S
Li619 N669 1.990 . S
Li619 O677 1.961 . S
Li619 O678 1.970 . S
Li619 O679 1.956 . S
C620 C622 1.348 . S
C620 C623 1.356 . S
C620 O676 1.325 . S
N621 C624 1.314 . S
N621 C625 1.279 . S
C622 C620 1.348 . S
C622 C624 1.353 . S
C622 H680 0.929 . S
C623 C620 1.356 . S
C623 C625 1.358 . S
C623 H681 0.930 . S
C624 N621 1.314 . S
C624 C622 1.353 . S
C624 H682 0.930 . S
C625 N621 1.279 . S
C625 C623 1.358 . S
C625 H683 0.930 . S
C626 C629 1.348 . S
C626 C630 1.356 . S
C626 O677 1.325 . S
C627 N628 1.279 . S
C627 C630 1.358 . S
C627 H684 0.930 . S
N628 C627 1.279 . S
N628 C631 1.314 . S
C629 C626 1.348 . S
C629 C631 1.353 . S
C629 H685 0.929 . S
C630 C626 1.356 . S
C630 C627 1.358 . S
C630 H686 0.930 . S
C631 N628 1.314 . S
C631 C629 1.353 . S
C631 H687 0.930 . S
C632 N633 1.314 . S
C632 C637 1.353 . S
C632 H638 0.930 . S
N633 Li616 1.990 . S
N633 C632 1.314 . S
N633 C635 1.279 . S
C634 C635 1.358 . S
C634 C636 1.356 . S
C634 H688 0.930 . S
C635 N633 1.279 . S
C635 C634 1.358 . S
C635 H639 0.930 . S
C636 C634 1.356 . S
C636 C637 1.348 . S
C637 C632 1.353 . S
C637 C636 1.348 . S
C637 H689 0.929 . S
H638 C632 0.930 . S
H639 C635 0.930 . S
C640 N641 1.314 . S
C640 C642 1.353 . S
C640 H646 0.930 . S
N641 Li617 1.990 . S
N641 C640 1.314 . S
N641 C644 1.279 . S
C642 C640 1.353 . S
C642 C645 1.348 . S
C642 H690 0.929 . S
C643 C644 1.358 . S
C643 C645 1.356 . S
C643 H691 0.930 . S
C644 N641 1.279 . S
C644 C643 1.358 . S
C644 H647 0.930 . S
C645 C642 1.348 . S
C645 C643 1.356 . S
H646 C640 0.930 . S
H647 C644 0.930 . S
C648 C650 1.348 . S
C648 C651 1.356 . S
C648 O678 1.325 . S
N649 C652 1.314 . S
N649 C653 1.279 . S
C650 C648 1.348 . S
C650 C652 1.353 . S
C650 H692 0.929 . S
C651 C648 1.356 . S
C651 C653 1.358 . S
C651 H693 0.930 . S
C652 N649 1.314 . S
C652 C650 1.353 . S
C652 H694 0.930 . S
C653 N649 1.279 . S
C653 C651 1.358 . S
C653 H695 0.930 . S
C654 C655 1.348 . S
C654 C656 1.356 . S
C654 O679 1.325 . S
C655 C654 1.348 . S
C655 C657 1.353 . S
C655 H696 0.929 . S
C656 C654 1.356 . S
C656 C658 1.358 . S
C656 H697 0.930 . S
C657 C655 1.353 . S
C657 N659 1.314 . S
C657 H698 0.930 . S
C658 C656 1.358 . S
C658 N659 1.279 . S
C658 H699 0.930 . S
N659 C657 1.314 . S
N659 C658 1.279 . S
C660 C662 1.353 . S
C660 N663 1.314 . S
C660 H666 0.930 . S
C661 N663 1.279 . S
C661 C664 1.358 . S
C661 H667 0.930 . S
C662 C660 1.353 . S
C662 C665 1.348 . S
C662 H700 0.929 . S
N663 Li618 1.990 . S
N663 C660 1.314 . S
N663 C661 1.279 . S
C664 C661 1.358 . S
C664 C665 1.356 . S
C664 H701 0.930 . S
C665 C662 1.348 . S
C665 C664 1.356 . S
H666 C660 0.930 . S
H667 C661 0.930 . S
C668 N669 1.314 . S
C668 C670 1.353 . S
C668 H674 0.930 . S
N669 Li619 1.990 . S
N669 C668 1.314 . S
N669 C672 1.279 . S
C670 C668 1.353 . S
C670 C673 1.348 . S
C670 H702 0.929 . S
C671 C672 1.358 . S
C671 C673 1.356 . S
C671 H703 0.930 . S
C672 N669 1.279 . S
C672 C671 1.358 . S
C672 H675 0.930 . S
C673 C670 1.348 . S
C673 C671 1.356 . S
H674 C668 0.930 . S
H675 C672 0.930 . S
O676 Li616 1.956 . S
O676 Li617 1.970 . S
O676 Li618 1.961 . S
O676 C620 1.325 . S
O677 Li616 1.970 . S
O677 Li617 1.956 . S
O677 Li619 1.961 . S
O677 C626 1.325 . S
O678 Li616 1.961 . S
O678 Li618 1.956 . S
O678 Li619 1.970 . S
O678 C648 1.325 . S
O679 Li617 1.961 . S
O679 Li618 1.970 . S
O679 Li619 1.956 . S
O679 C654 1.325 . S
H680 C622 0.929 . S
H681 C623 0.930 . S
H682 C624 0.930 . S
H683 C625 0.930 . S
H684 C627 0.930 . S
H685 C629 0.929 . S
H686 C630 0.930 . S
H687 C631 0.930 . S
H688 C634 0.930 . S
H689 C637 0.929 . S
H690 C642 0.929 . S
H691 C643 0.930 . S
H692 C650 0.929 . S
H693 C651 0.930 . S
H694 C652 0.930 . S
H695 C653 0.930 . S
H696 C655 0.929 . S
H697 C656 0.930 . S
H698 C657 0.930 . S
H699 C658 0.930 . S
H700 C662 0.929 . S
H701 C664 0.930 . S
H702 C670 0.929 . S
H703 C671 0.930 . S
Li704 N721 1.990 . S
Li704 O764 1.956 . S
Li704 O765 1.970 . S
Li704 O766 1.961 . S
Li705 N729 1.990 . S
Li705 O764 1.970 . S
Li705 O765 1.956 . S
Li705 O767 1.961 . S
Li706 N751 1.990 . S
Li706 O764 1.961 . S
Li706 O766 1.956 . S
Li706 O767 1.970 . S
Li707 N757 1.990 . S
Li707 O765 1.961 . S
Li707 O766 1.970 . S
Li707 O767 1.956 . S
C708 C710 1.348 . S
C708 C711 1.356 . S
C708 O764 1.325 . S
N709 C712 1.314 . S
N709 C713 1.279 . S
C710 C708 1.348 . S
C710 C712 1.353 . S
C710 H768 0.929 . S
C711 C708 1.356 . S
C711 C713 1.358 . S
C711 H769 0.930 . S
C712 N709 1.314 . S
C712 C710 1.353 . S
C712 H770 0.930 . S
C713 N709 1.279 . S
C713 C711 1.358 . S
C713 H771 0.930 . S
C714 C717 1.348 . S
C714 C718 1.356 . S
C714 O765 1.325 . S
C715 N716 1.279 . S
C715 C718 1.358 . S
C715 H772 0.930 . S
N716 C715 1.279 . S
N716 C719 1.314 . S
C717 C714 1.348 . S
C717 C719 1.353 . S
C717 H773 0.929 . S
C718 C714 1.356 . S
C718 C715 1.358 . S
C718 H774 0.930 . S
C719 N716 1.314 . S
C719 C717 1.353 . S
C719 H775 0.930 . S
C720 N721 1.314 . S
C720 C725 1.353 . S
C720 H726 0.930 . S
N721 Li704 1.990 . S
N721 C720 1.314 . S
N721 C723 1.279 . S
C722 C723 1.358 . S
C722 C724 1.356 . S
C722 H776 0.930 . S
C723 N721 1.279 . S
C723 C722 1.358 . S
C723 H727 0.930 . S
C724 C722 1.356 . S
C724 C725 1.348 . S
C725 C720 1.353 . S
C725 C724 1.348 . S
C725 H777 0.929 . S
H726 C720 0.930 . S
H727 C723 0.930 . S
C728 N729 1.314 . S
C728 C730 1.353 . S
C728 H734 0.930 . S
N729 Li705 1.990 . S
N729 C728 1.314 . S
N729 C732 1.279 . S
C730 C728 1.353 . S
C730 C733 1.348 . S
C730 H778 0.929 . S
C731 C732 1.358 . S
C731 C733 1.356 . S
C731 H779 0.930 . S
C732 N729 1.279 . S
C732 C731 1.358 . S
C732 H735 0.930 . S
C733 C730 1.348 . S
C733 C731 1.356 . S
H734 C728 0.930 . S
H735 C732 0.930 . S
C736 C738 1.348 . S
C736 C739 1.356 . S
C736 O766 1.325 . S
N737 C740 1.314 . S
N737 C741 1.279 . S
C738 C736 1.348 . S
C738 C740 1.353 . S
C738 H780 0.929 . S
C739 C736 1.356 . S
C739 C741 1.358 . S
C739 H781 0.930 . S
C740 N737 1.314 . S
C740 C738 1.353 . S
C740 H782 0.930 . S
C741 N737 1.279 . S
C741 C739 1.358 . S
C741 H783 0.930 . S
C742 C743 1.348 . S
C742 C744 1.356 . S
C742 O767 1.325 . S
C743 C742 1.348 . S
C743 C745 1.353 . S
C743 H784 0.929 . S
C744 C742 1.356 . S
C744 C746 1.358 . S
C744 H785 0.930 . S
C745 C743 1.353 . S
C745 N747 1.314 . S
C745 H786 0.930 . S
C746 C744 1.358 . S
C746 N747 1.279 . S
C746 H787 0.930 . S
N747 C745 1.314 . S
N747 C746 1.279 . S
C748 C750 1.353 . S
C748 N751 1.314 . S
C748 H754 0.930 . S
C749 N751 1.279 . S
C749 C752 1.358 . S
C749 H755 0.930 . S
C750 C748 1.353 . S
C750 C753 1.348 . S
C750 H788 0.929 . S
N751 Li706 1.990 . S
N751 C748 1.314 . S
N751 C749 1.279 . S
C752 C749 1.358 . S
C752 C753 1.356 . S
C752 H789 0.930 . S
C753 C750 1.348 . S
C753 C752 1.356 . S
H754 C748 0.930 . S
H755 C749 0.930 . S
C756 N757 1.314 . S
C756 C758 1.353 . S
C756 H762 0.930 . S
N757 Li707 1.990 . S
N757 C756 1.314 . S
N757 C760 1.279 . S
C758 C756 1.353 . S
C758 C761 1.348 . S
C758 H790 0.929 . S
C759 C760 1.358 . S
C759 C761 1.356 . S
C759 H791 0.930 . S
C760 N757 1.279 . S
C760 C759 1.358 . S
C760 H763 0.930 . S
C761 C758 1.348 . S
C761 C759 1.356 . S
H762 C756 0.930 . S
H763 C760 0.930 . S
O764 Li704 1.956 . S
O764 Li705 1.970 . S
O764 Li706 1.961 . S
O764 C708 1.325 . S
O765 Li704 1.970 . S
O765 Li705 1.956 . S
O765 Li707 1.961 . S
O765 C714 1.325 . S
O766 Li704 1.961 . S
O766 Li706 1.956 . S
O766 Li707 1.970 . S
O766 C736 1.325 . S
O767 Li705 1.961 . S
O767 Li706 1.970 . S
O767 Li707 1.956 . S
O767 C742 1.325 . S
H768 C710 0.929 . S
H769 C711 0.930 . S
H770 C712 0.930 . S
H771 C713 0.930 . S
H772 C715 0.930 . S
H773 C717 0.929 . S
H774 C718 0.930 . S
H775 C719 0.930 . S
H776 C722 0.930 . S
H777 C725 0.929 . S
H778 C730 0.929 . S
H779 C731 0.930 . S
H780 C738 0.929 . S
H781 C739 0.930 . S
H782 C740 0.930 . S
H783 C741 0.930 . S
H784 C743 0.929 . S
H785 C744 0.930 . S
H786 C745 0.930 . S
H787 C746 0.930 . S
H788 C750 0.929 . S
H789 C752 0.930 . S
H790 C758 0.929 . S
H791 C759 0.930 . S
Li792 N809 1.990 . S
Li792 O852 1.956 . S
Li792 O853 1.970 . S
Li792 O854 1.961 . S
Li793 N817 1.990 . S
Li793 O852 1.970 . S
Li793 O853 1.956 . S
Li793 O855 1.961 . S
Li794 N839 1.990 . S
Li794 O852 1.961 . S
Li794 O854 1.956 . S
Li794 O855 1.970 . S
Li795 N845 1.990 . S
Li795 O853 1.961 . S
Li795 O854 1.970 . S
Li795 O855 1.956 . S
C796 C798 1.348 . S
C796 C799 1.356 . S
C796 O852 1.325 . S
N797 C800 1.314 . S
N797 C801 1.279 . S
C798 C796 1.348 . S
C798 C800 1.353 . S
C798 H856 0.929 . S
C799 C796 1.356 . S
C799 C801 1.358 . S
C799 H857 0.930 . S
C800 N797 1.314 . S
C800 C798 1.353 . S
C800 H858 0.930 . S
C801 N797 1.279 . S
C801 C799 1.358 . S
C801 H859 0.930 . S
C802 C805 1.348 . S
C802 C806 1.356 . S
C802 O853 1.325 . S
C803 N804 1.279 . S
C803 C806 1.358 . S
C803 H860 0.930 . S
N804 C803 1.279 . S
N804 C807 1.314 . S
C805 C802 1.348 . S
C805 C807 1.353 . S
C805 H861 0.929 . S
C806 C802 1.356 . S
C806 C803 1.358 . S
C806 H862 0.930 . S
C807 N804 1.314 . S
C807 C805 1.353 . S
C807 H863 0.930 . S
C808 N809 1.314 . S
C808 C813 1.353 . S
C808 H814 0.930 . S
N809 Li792 1.990 . S
N809 C808 1.314 . S
N809 C811 1.279 . S
C810 C811 1.358 . S
C810 C812 1.356 . S
C810 H864 0.930 . S
C811 N809 1.279 . S
C811 C810 1.358 . S
C811 H815 0.930 . S
C812 C810 1.356 . S
C812 C813 1.348 . S
C813 C808 1.353 . S
C813 C812 1.348 . S
C813 H865 0.929 . S
H814 C808 0.930 . S
H815 C811 0.930 . S
C816 N817 1.314 . S
C816 C818 1.353 . S
C816 H822 0.930 . S
N817 Li793 1.990 . S
N817 C816 1.314 . S
N817 C820 1.279 . S
C818 C816 1.353 . S
C818 C821 1.348 . S
C818 H866 0.929 . S
C819 C820 1.358 . S
C819 C821 1.356 . S
C819 H867 0.930 . S
C820 N817 1.279 . S
C820 C819 1.358 . S
C820 H823 0.930 . S
C821 C818 1.348 . S
C821 C819 1.356 . S
H822 C816 0.930 . S
H823 C820 0.930 . S
C824 C826 1.348 . S
C824 C827 1.356 . S
C824 O854 1.325 . S
N825 C828 1.314 . S
N825 C829 1.279 . S
C826 C824 1.348 . S
C826 C828 1.353 . S
C826 H868 0.929 . S
C827 C824 1.356 . S
C827 C829 1.358 . S
C827 H869 0.930 . S
C828 N825 1.314 . S
C828 C826 1.353 . S
C828 H870 0.930 . S
C829 N825 1.279 . S
C829 C827 1.358 . S
C829 H871 0.930 . S
C830 C831 1.348 . S
C830 C832 1.356 . S
C830 O855 1.325 . S
C831 C830 1.348 . S
C831 C833 1.353 . S
C831 H872 0.929 . S
C832 C830 1.356 . S
C832 C834 1.358 . S
C832 H873 0.930 . S
C833 C831 1.353 . S
C833 N835 1.314 . S
C833 H874 0.930 . S
C834 C832 1.358 . S
C834 N835 1.279 . S
C834 H875 0.930 . S
N835 C833 1.314 . S
N835 C834 1.279 . S
C836 C838 1.353 . S
C836 N839 1.314 . S
C836 H842 0.930 . S
C837 N839 1.279 . S
C837 C840 1.358 . S
C837 H843 0.930 . S
C838 C836 1.353 . S
C838 C841 1.348 . S
C838 H876 0.929 . S
N839 Li794 1.990 . S
N839 C836 1.314 . S
N839 C837 1.279 . S
C840 C837 1.358 . S
C840 C841 1.356 . S
C840 H877 0.930 . S
C841 C838 1.348 . S
C841 C840 1.356 . S
H842 C836 0.930 . S
H843 C837 0.930 . S
C844 N845 1.314 . S
C844 C846 1.353 . S
C844 H850 0.930 . S
N845 Li795 1.990 . S
N845 C844 1.314 . S
N845 C848 1.279 . S
C846 C844 1.353 . S
C846 C849 1.348 . S
C846 H878 0.929 . S
C847 C848 1.358 . S
C847 C849 1.356 . S
C847 H879 0.930 . S
C848 N845 1.279 . S
C848 C847 1.358 . S
C848 H851 0.930 . S
C849 C846 1.348 . S
C849 C847 1.356 . S
H850 C844 0.930 . S
H851 C848 0.930 . S
O852 Li792 1.956 . S
O852 Li793 1.970 . S
O852 Li794 1.961 . S
O852 C796 1.325 . S
O853 Li792 1.970 . S
O853 Li793 1.956 . S
O853 Li795 1.961 . S
O853 C802 1.325 . S
O854 Li792 1.961 . S
O854 Li794 1.956 . S
O854 Li795 1.970 . S
O854 C824 1.325 . S
O855 Li793 1.961 . S
O855 Li794 1.970 . S
O855 Li795 1.956 . S
O855 C830 1.325 . S
H856 C798 0.929 . S
H857 C799 0.930 . S
H858 C800 0.930 . S
H859 C801 0.930 . S
H860 C803 0.930 . S
H861 C805 0.929 . S
H862 C806 0.930 . S
H863 C807 0.930 . S
H864 C810 0.930 . S
H865 C813 0.929 . S
H866 C818 0.929 . S
H867 C819 0.930 . S
H868 C826 0.929 . S
H869 C827 0.930 . S
H870 C828 0.930 . S
H871 C829 0.930 . S
H872 C831 0.929 . S
H873 C832 0.930 . S
H874 C833 0.930 . S
H875 C834 0.930 . S
H876 C838 0.929 . S
H877 C840 0.930 . S
H878 C846 0.929 . S
H879 C847 0.930 . S
Li880 N897 1.990 . S
Li880 O940 1.956 . S
Li880 O941 1.970 . S
Li880 O942 1.961 . S
Li881 N905 1.990 . S
Li881 O940 1.970 . S
Li881 O941 1.956 . S
Li881 O943 1.961 . S
Li882 N927 1.990 . S
Li882 O940 1.961 . S
Li882 O942 1.956 . S
Li882 O943 1.970 . S
Li883 N933 1.990 . S
Li883 O941 1.961 . S
Li883 O942 1.970 . S
Li883 O943 1.956 . S
C884 C886 1.348 . S
C884 C887 1.356 . S
C884 O940 1.325 . S
N885 C888 1.314 . S
N885 C889 1.279 . S
C886 C884 1.348 . S
C886 C888 1.353 . S
C886 H944 0.929 . S
C887 C884 1.356 . S
C887 C889 1.358 . S
C887 H945 0.930 . S
C888 N885 1.314 . S
C888 C886 1.353 . S
C888 H946 0.930 . S
C889 N885 1.279 . S
C889 C887 1.358 . S
C889 H947 0.930 . S
C890 C893 1.348 . S
C890 C894 1.356 . S
C890 O941 1.325 . S
C891 N892 1.279 . S
C891 C894 1.358 . S
C891 H948 0.930 . S
N892 C891 1.279 . S
N892 C895 1.314 . S
C893 C890 1.348 . S
C893 C895 1.353 . S
C893 H949 0.929 . S
C894 C890 1.356 . S
C894 C891 1.358 . S
C894 H950 0.930 . S
C895 N892 1.314 . S
C895 C893 1.353 . S
C895 H951 0.930 . S
C896 N897 1.314 . S
C896 C901 1.353 . S
C896 H902 0.930 . S
N897 Li880 1.990 . S
N897 C896 1.314 . S
N897 C899 1.279 . S
C898 C899 1.358 . S
C898 C900 1.356 . S
C898 H952 0.930 . S
C899 N897 1.279 . S
C899 C898 1.358 . S
C899 H903 0.930 . S
C900 C898 1.356 . S
C900 C901 1.348 . S
C901 C896 1.353 . S
C901 C900 1.348 . S
C901 H953 0.929 . S
H902 C896 0.930 . S
H903 C899 0.930 . S
C904 N905 1.314 . S
C904 C906 1.353 . S
C904 H910 0.930 . S
N905 Li881 1.990 . S
N905 C904 1.314 . S
N905 C908 1.279 . S
C906 C904 1.353 . S
C906 C909 1.348 . S
C906 H954 0.929 . S
C907 C908 1.358 . S
C907 C909 1.356 . S
C907 H955 0.930 . S
C908 N905 1.279 . S
C908 C907 1.358 . S
C908 H911 0.930 . S
C909 C906 1.348 . S
C909 C907 1.356 . S
H910 C904 0.930 . S
H911 C908 0.930 . S
C912 C914 1.348 . S
C912 C915 1.356 . S
C912 O942 1.325 . S
N913 C916 1.314 . S
N913 C917 1.279 . S
C914 C912 1.348 . S
C914 C916 1.353 . S
C914 H956 0.929 . S
C915 C912 1.356 . S
C915 C917 1.358 . S
C915 H957 0.930 . S
C916 N913 1.314 . S
C916 C914 1.353 . S
C916 H958 0.930 . S
C917 N913 1.279 . S
C917 C915 1.358 . S
C917 H959 0.930 . S
C918 C919 1.348 . S
C918 C920 1.356 . S
C918 O943 1.325 . S
C919 C918 1.348 . S
C919 C921 1.353 . S
C919 H960 0.929 . S
C920 C918 1.356 . S
C920 C922 1.358 . S
C920 H961 0.930 . S
C921 C919 1.353 . S
C921 N923 1.314 . S
C921 H962 0.930 . S
C922 C920 1.358 . S
C922 N923 1.279 . S
C922 H963 0.930 . S
N923 C921 1.314 . S
N923 C922 1.279 . S
C924 C926 1.353 . S
C924 N927 1.314 . S
C924 H930 0.930 . S
C925 N927 1.279 . S
C925 C928 1.358 . S
C925 H931 0.930 . S
C926 C924 1.353 . S
C926 C929 1.348 . S
C926 H964 0.929 . S
N927 Li882 1.990 . S
N927 C924 1.314 . S
N927 C925 1.279 . S
C928 C925 1.358 . S
C928 C929 1.356 . S
C928 H965 0.930 . S
C929 C926 1.348 . S
C929 C928 1.356 . S
H930 C924 0.930 . S
H931 C925 0.930 . S
C932 N933 1.314 . S
C932 C934 1.353 . S
C932 H938 0.930 . S
N933 Li883 1.990 . S
N933 C932 1.314 . S
N933 C936 1.279 . S
C934 C932 1.353 . S
C934 C937 1.348 . S
C934 H966 0.929 . S
C935 C936 1.358 . S
C935 C937 1.356 . S
C935 H967 0.930 . S
C936 N933 1.279 . S
C936 C935 1.358 . S
C936 H939 0.930 . S
C937 C934 1.348 . S
C937 C935 1.356 . S
H938 C932 0.930 . S
H939 C936 0.930 . S
O940 Li880 1.956 . S
O940 Li881 1.970 . S
O940 Li882 1.961 . S
O940 C884 1.325 . S
O941 Li880 1.970 . S
O941 Li881 1.956 . S
O941 Li883 1.961 . S
O941 C890 1.325 . S
O942 Li880 1.961 . S
O942 Li882 1.956 . S
O942 Li883 1.970 . S
O942 C912 1.325 . S
O943 Li881 1.961 . S
O943 Li882 1.970 . S
O943 Li883 1.956 . S
O943 C918 1.325 . S
H944 C886 0.929 . S
H945 C887 0.930 . S
H946 C888 0.930 . S
H947 C889 0.930 . S
H948 C891 0.930 . S
H949 C893 0.929 . S
H950 C894 0.930 . S
H951 C895 0.930 . S
H952 C898 0.930 . S
H953 C901 0.929 . S
H954 C906 0.929 . S
H955 C907 0.930 . S
H956 C914 0.929 . S
H957 C915 0.930 . S
H958 C916 0.930 . S
H959 C917 0.930 . S
H960 C919 0.929 . S
H961 C920 0.930 . S
H962 C921 0.930 . S
H963 C922 0.930 . S
H964 C926 0.929 . S
H965 C928 0.930 . S
H966 C934 0.929 . S
H967 C935 0.930 . S
Li968 N985 1.990 . S
Li968 O1028 1.956 . S
Li968 O1029 1.970 . S
Li968 O1030 1.961 . S
Li969 N993 1.990 . S
Li969 O1028 1.970 . S
Li969 O1029 1.956 . S
Li969 O1031 1.961 . S
Li970 N1015 1.990 . S
Li970 O1028 1.961 . S
Li970 O1030 1.956 . S
Li970 O1031 1.970 . S
Li971 N1021 1.990 . S
Li971 O1029 1.961 . S
Li971 O1030 1.970 . S
Li971 O1031 1.956 . S
C972 C974 1.348 . S
C972 C975 1.356 . S
C972 O1028 1.325 . S
N973 C976 1.314 . S
N973 C977 1.279 . S
C974 C972 1.348 . S
C974 C976 1.353 . S
C974 H1032 0.929 . S
C975 C972 1.356 . S
C975 C977 1.358 . S
C975 H1033 0.930 . S
C976 N973 1.314 . S
C976 C974 1.353 . S
C976 H1034 0.930 . S
C977 N973 1.279 . S
C977 C975 1.358 . S
C977 H1035 0.930 . S
C978 C981 1.348 . S
C978 C982 1.356 . S
C978 O1029 1.325 . S
C979 N980 1.279 . S
C979 C982 1.358 . S
C979 H1036 0.930 . S
N980 C979 1.279 . S
N980 C983 1.314 . S
C981 C978 1.348 . S
C981 C983 1.353 . S
C981 H1037 0.929 . S
C982 C978 1.356 . S
C982 C979 1.358 . S
C982 H1038 0.930 . S
C983 N980 1.314 . S
C983 C981 1.353 . S
C983 H1039 0.930 . S
C984 N985 1.314 . S
C984 C989 1.353 . S
C984 H990 0.930 . S
N985 Li968 1.990 . S
N985 C984 1.314 . S
N985 C987 1.279 . S
C986 C987 1.358 . S
C986 C988 1.356 . S
C986 H1040 0.930 . S
C987 N985 1.279 . S
C987 C986 1.358 . S
C987 H991 0.930 . S
C988 C986 1.356 . S
C988 C989 1.348 . S
C989 C984 1.353 . S
C989 C988 1.348 . S
C989 H1041 0.929 . S
H990 C984 0.930 . S
H991 C987 0.930 . S
C992 N993 1.314 . S
C992 C994 1.353 . S
C992 H998 0.930 . S
N993 Li969 1.990 . S
N993 C992 1.314 . S
N993 C996 1.279 . S
C994 C992 1.353 . S
C994 C997 1.348 . S
C994 H1042 0.929 . S
C995 C996 1.358 . S
C995 C997 1.356 . S
C995 H1043 0.930 . S
C996 N993 1.279 . S
C996 C995 1.358 . S
C996 H999 0.930 . S
C997 C994 1.348 . S
C997 C995 1.356 . S
H998 C992 0.930 . S
H999 C996 0.930 . S
C1000 C1002 1.348 . S
C1000 C1003 1.356 . S
C1000 O1030 1.325 . S
N1001 C1004 1.314 . S
N1001 C1005 1.279 . S
C1002 C1000 1.348 . S
C1002 C1004 1.353 . S
C1002 H1044 0.929 . S
C1003 C1000 1.356 . S
C1003 C1005 1.358 . S
C1003 H1045 0.930 . S
C1004 N1001 1.314 . S
C1004 C1002 1.353 . S
C1004 H1046 0.930 . S
C1005 N1001 1.279 . S
C1005 C1003 1.358 . S
C1005 H1047 0.930 . S
C1006 C1007 1.348 . S
C1006 C1008 1.356 . S
C1006 O1031 1.325 . S
C1007 C1006 1.348 . S
C1007 C1009 1.353 . S
C1007 H1048 0.929 . S
C1008 C1006 1.356 . S
C1008 C1010 1.358 . S
C1008 H1049 0.930 . S
C1009 C1007 1.353 . S
C1009 N1011 1.314 . S
C1009 H1050 0.930 . S
C1010 C1008 1.358 . S
C1010 N1011 1.279 . S
C1010 H1051 0.930 . S
N1011 C1009 1.314 . S
N1011 C1010 1.279 . S
C1012 C1014 1.353 . S
C1012 N1015 1.314 . S
C1012 H1018 0.930 . S
C1013 N1015 1.279 . S
C1013 C1016 1.358 . S
C1013 H1019 0.930 . S
C1014 C1012 1.353 . S
C1014 C1017 1.348 . S
C1014 H1052 0.929 . S
N1015 Li970 1.990 . S
N1015 C1012 1.314 . S
N1015 C1013 1.279 . S
C1016 C1013 1.358 . S
C1016 C1017 1.356 . S
C1016 H1053 0.930 . S
C1017 C1014 1.348 . S
C1017 C1016 1.356 . S
H1018 C1012 0.930 . S
H1019 C1013 0.930 . S
C1020 N1021 1.314 . S
C1020 C1022 1.353 . S
C1020 H1026 0.930 . S
N1021 Li971 1.990 . S
N1021 C1020 1.314 . S
N1021 C1024 1.279 . S
C1022 C1020 1.353 . S
C1022 C1025 1.348 . S
C1022 H1054 0.929 . S
C1023 C1024 1.358 . S
C1023 C1025 1.356 . S
C1023 H1055 0.930 . S
C1024 N1021 1.279 . S
C1024 C1023 1.358 . S
C1024 H1027 0.930 . S
C1025 C1022 1.348 . S
C1025 C1023 1.356 . S
H1026 C1020 0.930 . S
H1027 C1024 0.930 . S
O1028 Li968 1.956 . S
O1028 Li969 1.970 . S
O1028 Li970 1.961 . S
O1028 C972 1.325 . S
O1029 Li968 1.970 . S
O1029 Li969 1.956 . S
O1029 Li971 1.961 . S
O1029 C978 1.325 . S
O1030 Li968 1.961 . S
O1030 Li970 1.956 . S
O1030 Li971 1.970 . S
O1030 C1000 1.325 . S
O1031 Li969 1.961 . S
O1031 Li970 1.970 . S
O1031 Li971 1.956 . S
O1031 C1006 1.325 . S
H1032 C974 0.929 . S
H1033 C975 0.930 . S
H1034 C976 0.930 . S
H1035 C977 0.930 . S
H1036 C979 0.930 . S
H1037 C981 0.929 . S
H1038 C982 0.930 . S
H1039 C983 0.930 . S
H1040 C986 0.930 . S
H1041 C989 0.929 . S
H1042 C994 0.929 . S
H1043 C995 0.930 . S
H1044 C1002 0.929 . S
H1045 C1003 0.930 . S
H1046 C1004 0.930 . S
H1047 C1005 0.930 . S
H1048 C1007 0.929 . S
H1049 C1008 0.930 . S
H1050 C1009 0.930 . S
H1051 C1010 0.930 . S
H1052 C1014 0.929 . S
H1053 C1016 0.930 . S
H1054 C1022 0.929 . S
H1055 C1023 0.930 . S
Li1056 N1073 1.990 . S
Li1056 O1116 1.956 . S
Li1056 O1117 1.970 . S
Li1056 O1118 1.961 . S
Li1057 N1081 1.990 . S
Li1057 O1116 1.970 . S
Li1057 O1117 1.956 . S
Li1057 O1119 1.961 . S
Li1058 N1103 1.990 . S
Li1058 O1116 1.961 . S
Li1058 O1118 1.956 . S
Li1058 O1119 1.970 . S
Li1059 N1109 1.990 . S
Li1059 O1117 1.961 . S
Li1059 O1118 1.970 . S
Li1059 O1119 1.956 . S
C1060 C1062 1.348 . S
C1060 C1063 1.356 . S
C1060 O1116 1.325 . S
N1061 C1064 1.314 . S
N1061 C1065 1.279 . S
C1062 C1060 1.348 . S
C1062 C1064 1.353 . S
C1062 H1120 0.929 . S
C1063 C1060 1.356 . S
C1063 C1065 1.358 . S
C1063 H1121 0.930 . S
C1064 N1061 1.314 . S
C1064 C1062 1.353 . S
C1064 H1122 0.930 . S
C1065 N1061 1.279 . S
C1065 C1063 1.358 . S
C1065 H1123 0.930 . S
C1066 C1069 1.348 . S
C1066 C1070 1.356 . S
C1066 O1117 1.325 . S
C1067 N1068 1.279 . S
C1067 C1070 1.358 . S
C1067 H1124 0.930 . S
N1068 C1067 1.279 . S
N1068 C1071 1.314 . S
C1069 C1066 1.348 . S
C1069 C1071 1.353 . S
C1069 H1125 0.929 . S
C1070 C1066 1.356 . S
C1070 C1067 1.358 . S
C1070 H1126 0.930 . S
C1071 N1068 1.314 . S
C1071 C1069 1.353 . S
C1071 H1127 0.930 . S
C1072 N1073 1.314 . S
C1072 C1077 1.353 . S
C1072 H1078 0.930 . S
N1073 Li1056 1.990 . S
N1073 C1072 1.314 . S
N1073 C1075 1.279 . S
C1074 C1075 1.358 . S
C1074 C1076 1.356 . S
C1074 H1128 0.930 . S
C1075 N1073 1.279 . S
C1075 C1074 1.358 . S
C1075 H1079 0.930 . S
C1076 C1074 1.356 . S
C1076 C1077 1.348 . S
C1077 C1072 1.353 . S
C1077 C1076 1.348 . S
C1077 H1129 0.929 . S
H1078 C1072 0.930 . S
H1079 C1075 0.930 . S
C1080 N1081 1.314 . S
C1080 C1082 1.353 . S
C1080 H1086 0.930 . S
N1081 Li1057 1.990 . S
N1081 C1080 1.314 . S
N1081 C1084 1.279 . S
C1082 C1080 1.353 . S
C1082 C1085 1.348 . S
C1082 H1130 0.929 . S
C1083 C1084 1.358 . S
C1083 C1085 1.356 . S
C1083 H1131 0.930 . S
C1084 N1081 1.279 . S
C1084 C1083 1.358 . S
C1084 H1087 0.930 . S
C1085 C1082 1.348 . S
C1085 C1083 1.356 . S
H1086 C1080 0.930 . S
H1087 C1084 0.930 . S
C1088 C1090 1.348 . S
C1088 C1091 1.356 . S
C1088 O1118 1.325 . S
N1089 C1092 1.314 . S
N1089 C1093 1.279 . S
C1090 C1088 1.348 . S
C1090 C1092 1.353 . S
C1090 H1132 0.929 . S
C1091 C1088 1.356 . S
C1091 C1093 1.358 . S
C1091 H1133 0.930 . S
C1092 N1089 1.314 . S
C1092 C1090 1.353 . S
C1092 H1134 0.930 . S
C1093 N1089 1.279 . S
C1093 C1091 1.358 . S
C1093 H1135 0.930 . S
C1094 C1095 1.348 . S
C1094 C1096 1.356 . S
C1094 O1119 1.325 . S
C1095 C1094 1.348 . S
C1095 C1097 1.353 . S
C1095 H1136 0.929 . S
C1096 C1094 1.356 . S
C1096 C1098 1.358 . S
C1096 H1137 0.930 . S
C1097 C1095 1.353 . S
C1097 N1099 1.314 . S
C1097 H1138 0.930 . S
C1098 C1096 1.358 . S
C1098 N1099 1.279 . S
C1098 H1139 0.930 . S
N1099 C1097 1.314 . S
N1099 C1098 1.279 . S
C1100 C1102 1.353 . S
C1100 N1103 1.314 . S
C1100 H1106 0.930 . S
C1101 N1103 1.279 . S
C1101 C1104 1.358 . S
C1101 H1107 0.930 . S
C1102 C1100 1.353 . S
C1102 C1105 1.348 . S
C1102 H1140 0.929 . S
N1103 Li1058 1.990 . S
N1103 C1100 1.314 . S
N1103 C1101 1.279 . S
C1104 C1101 1.358 . S
C1104 C1105 1.356 . S
C1104 H1141 0.930 . S
C1105 C1102 1.348 . S
C1105 C1104 1.356 . S
H1106 C1100 0.930 . S
H1107 C1101 0.930 . S
C1108 N1109 1.314 . S
C1108 C1110 1.353 . S
C1108 H1114 0.930 . S
N1109 Li1059 1.990 . S
N1109 C1108 1.314 . S
N1109 C1112 1.279 . S
C1110 C1108 1.353 . S
C1110 C1113 1.348 . S
C1110 H1142 0.929 . S
C1111 C1112 1.358 . S
C1111 C1113 1.356 . S
C1111 H1143 0.930 . S
C1112 N1109 1.279 . S
C1112 C1111 1.358 . S
C1112 H1115 0.930 . S
C1113 C1110 1.348 . S
C1113 C1111 1.356 . S
H1114 C1108 0.930 . S
H1115 C1112 0.930 . S
O1116 Li1056 1.956 . S
O1116 Li1057 1.970 . S
O1116 Li1058 1.961 . S
O1116 C1060 1.325 . S
O1117 Li1056 1.970 . S
O1117 Li1057 1.956 . S
O1117 Li1059 1.961 . S
O1117 C1066 1.325 . S
O1118 Li1056 1.961 . S
O1118 Li1058 1.956 . S
O1118 Li1059 1.970 . S
O1118 C1088 1.325 . S
O1119 Li1057 1.961 . S
O1119 Li1058 1.970 . S
O1119 Li1059 1.956 . S
O1119 C1094 1.325 . S
H1120 C1062 0.929 . S
H1121 C1063 0.930 . S
H1122 C1064 0.930 . S
H1123 C1065 0.930 . S
H1124 C1067 0.930 . S
H1125 C1069 0.929 . S
H1126 C1070 0.930 . S
H1127 C1071 0.930 . S
H1128 C1074 0.930 . S
H1129 C1077 0.929 . S
H1130 C1082 0.929 . S
H1131 C1083 0.930 . S
H1132 C1090 0.929 . S
H1133 C1091 0.930 . S
H1134 C1092 0.930 . S
H1135 C1093 0.930 . S
H1136 C1095 0.929 . S
H1137 C1096 0.930 . S
H1138 C1097 0.930 . S
H1139 C1098 0.930 . S
H1140 C1102 0.929 . S
H1141 C1104 0.930 . S
H1142 C1110 0.929 . S
H1143 C1111 0.930 . S
Li1144 N1161 1.990 . S
Li1144 O1204 1.956 . S
Li1144 O1205 1.970 . S
Li1144 O1206 1.961 . S
Li1145 N1169 1.990 . S
Li1145 O1204 1.970 . S
Li1145 O1205 1.956 . S
Li1145 O1207 1.961 . S
Li1146 N1191 1.990 . S
Li1146 O1204 1.961 . S
Li1146 O1206 1.956 . S
Li1146 O1207 1.970 . S
Li1147 N1197 1.990 . S
Li1147 O1205 1.961 . S
Li1147 O1206 1.970 . S
Li1147 O1207 1.956 . S
C1148 C1150 1.348 . S
C1148 C1151 1.356 . S
C1148 O1204 1.325 . S
N1149 C1152 1.314 . S
N1149 C1153 1.279 . S
C1150 C1148 1.348 . S
C1150 C1152 1.353 . S
C1150 H1208 0.929 . S
C1151 C1148 1.356 . S
C1151 C1153 1.358 . S
C1151 H1209 0.930 . S
C1152 N1149 1.314 . S
C1152 C1150 1.353 . S
C1152 H1210 0.930 . S
C1153 N1149 1.279 . S
C1153 C1151 1.358 . S
C1153 H1211 0.930 . S
C1154 C1157 1.348 . S
C1154 C1158 1.356 . S
C1154 O1205 1.325 . S
C1155 N1156 1.279 . S
C1155 C1158 1.358 . S
C1155 H1212 0.930 . S
N1156 C1155 1.279 . S
N1156 C1159 1.314 . S
C1157 C1154 1.348 . S
C1157 C1159 1.353 . S
C1157 H1213 0.929 . S
C1158 C1154 1.356 . S
C1158 C1155 1.358 . S
C1158 H1214 0.930 . S
C1159 N1156 1.314 . S
C1159 C1157 1.353 . S
C1159 H1215 0.930 . S
C1160 N1161 1.314 . S
C1160 C1165 1.353 . S
C1160 H1166 0.930 . S
N1161 Li1144 1.990 . S
N1161 C1160 1.314 . S
N1161 C1163 1.279 . S
C1162 C1163 1.358 . S
C1162 C1164 1.356 . S
C1162 H1216 0.930 . S
C1163 N1161 1.279 . S
C1163 C1162 1.358 . S
C1163 H1167 0.930 . S
C1164 C1162 1.356 . S
C1164 C1165 1.348 . S
C1165 C1160 1.353 . S
C1165 C1164 1.348 . S
C1165 H1217 0.929 . S
H1166 C1160 0.930 . S
H1167 C1163 0.930 . S
C1168 N1169 1.314 . S
C1168 C1170 1.353 . S
C1168 H1174 0.930 . S
N1169 Li1145 1.990 . S
N1169 C1168 1.314 . S
N1169 C1172 1.279 . S
C1170 C1168 1.353 . S
C1170 C1173 1.348 . S
C1170 H1218 0.929 . S
C1171 C1172 1.358 . S
C1171 C1173 1.356 . S
C1171 H1219 0.930 . S
C1172 N1169 1.279 . S
C1172 C1171 1.358 . S
C1172 H1175 0.930 . S
C1173 C1170 1.348 . S
C1173 C1171 1.356 . S
H1174 C1168 0.930 . S
H1175 C1172 0.930 . S
C1176 C1178 1.348 . S
C1176 C1179 1.356 . S
C1176 O1206 1.325 . S
N1177 C1180 1.314 . S
N1177 C1181 1.279 . S
C1178 C1176 1.348 . S
C1178 C1180 1.353 . S
C1178 H1220 0.929 . S
C1179 C1176 1.356 . S
C1179 C1181 1.358 . S
C1179 H1221 0.930 . S
C1180 N1177 1.314 . S
C1180 C1178 1.353 . S
C1180 H1222 0.930 . S
C1181 N1177 1.279 . S
C1181 C1179 1.358 . S
C1181 H1223 0.930 . S
C1182 C1183 1.348 . S
C1182 C1184 1.356 . S
C1182 O1207 1.325 . S
C1183 C1182 1.348 . S
C1183 C1185 1.353 . S
C1183 H1224 0.929 . S
C1184 C1182 1.356 . S
C1184 C1186 1.358 . S
C1184 H1225 0.930 . S
C1185 C1183 1.353 . S
C1185 N1187 1.314 . S
C1185 H1226 0.930 . S
C1186 C1184 1.358 . S
C1186 N1187 1.279 . S
C1186 H1227 0.930 . S
N1187 C1185 1.314 . S
N1187 C1186 1.279 . S
C1188 C1190 1.353 . S
C1188 N1191 1.314 . S
C1188 H1194 0.930 . S
C1189 N1191 1.279 . S
C1189 C1192 1.358 . S
C1189 H1195 0.930 . S
C1190 C1188 1.353 . S
C1190 C1193 1.348 . S
C1190 H1228 0.929 . S
N1191 Li1146 1.990 . S
N1191 C1188 1.314 . S
N1191 C1189 1.279 . S
C1192 C1189 1.358 . S
C1192 C1193 1.356 . S
C1192 H1229 0.930 . S
C1193 C1190 1.348 . S
C1193 C1192 1.356 . S
H1194 C1188 0.930 . S
H1195 C1189 0.930 . S
C1196 N1197 1.314 . S
C1196 C1198 1.353 . S
C1196 H1202 0.930 . S
N1197 Li1147 1.990 . S
N1197 C1196 1.314 . S
N1197 C1200 1.279 . S
C1198 C1196 1.353 . S
C1198 C1201 1.348 . S
C1198 H1230 0.929 . S
C1199 C1200 1.358 . S
C1199 C1201 1.356 . S
C1199 H1231 0.930 . S
C1200 N1197 1.279 . S
C1200 C1199 1.358 . S
C1200 H1203 0.930 . S
C1201 C1198 1.348 . S
C1201 C1199 1.356 . S
H1202 C1196 0.930 . S
H1203 C1200 0.930 . S
O1204 Li1144 1.956 . S
O1204 Li1145 1.970 . S
O1204 Li1146 1.961 . S
O1204 C1148 1.325 . S
O1205 Li1144 1.970 . S
O1205 Li1145 1.956 . S
O1205 Li1147 1.961 . S
O1205 C1154 1.325 . S
O1206 Li1144 1.961 . S
O1206 Li1146 1.956 . S
O1206 Li1147 1.970 . S
O1206 C1176 1.325 . S
O1207 Li1145 1.961 . S
O1207 Li1146 1.970 . S
O1207 Li1147 1.956 . S
O1207 C1182 1.325 . S
H1208 C1150 0.929 . S
H1209 C1151 0.930 . S
H1210 C1152 0.930 . S
H1211 C1153 0.930 . S
H1212 C1155 0.930 . S
H1213 C1157 0.929 . S
H1214 C1158 0.930 . S
H1215 C1159 0.930 . S
H1216 C1162 0.930 . S
H1217 C1165 0.929 . S
H1218 C1170 0.929 . S
H1219 C1171 0.930 . S
H1220 C1178 0.929 . S
H1221 C1179 0.930 . S
H1222 C1180 0.930 . S
H1223 C1181 0.930 . S
H1224 C1183 0.929 . S
H1225 C1184 0.930 . S
H1226 C1185 0.930 . S
H1227 C1186 0.930 . S
H1228 C1190 0.929 . S
H1229 C1192 0.930 . S
H1230 C1198 0.929 . S
H1231 C1199 0.930 . S
Li1232 N1249 1.990 . S
Li1232 O1292 1.956 . S
Li1232 O1293 1.970 . S
Li1232 O1294 1.961 . S
Li1233 N1257 1.990 . S
Li1233 O1292 1.970 . S
Li1233 O1293 1.956 . S
Li1233 O1295 1.961 . S
Li1234 N1279 1.990 . S
Li1234 O1292 1.961 . S
Li1234 O1294 1.956 . S
Li1234 O1295 1.970 . S
Li1235 N1285 1.990 . S
Li1235 O1293 1.961 . S
Li1235 O1294 1.970 . S
Li1235 O1295 1.956 . S
C1236 C1238 1.348 . S
C1236 C1239 1.356 . S
C1236 O1292 1.325 . S
N1237 C1240 1.314 . S
N1237 C1241 1.279 . S
C1238 C1236 1.348 . S
C1238 C1240 1.353 . S
C1238 H1296 0.929 . S
C1239 C1236 1.356 . S
C1239 C1241 1.358 . S
C1239 H1297 0.930 . S
C1240 N1237 1.314 . S
C1240 C1238 1.353 . S
C1240 H1298 0.930 . S
C1241 N1237 1.279 . S
C1241 C1239 1.358 . S
C1241 H1299 0.930 . S
C1242 C1245 1.348 . S
C1242 C1246 1.356 . S
C1242 O1293 1.325 . S
C1243 N1244 1.279 . S
C1243 C1246 1.358 . S
C1243 H1300 0.930 . S
N1244 C1243 1.279 . S
N1244 C1247 1.314 . S
C1245 C1242 1.348 . S
C1245 C1247 1.353 . S
C1245 H1301 0.929 . S
C1246 C1242 1.356 . S
C1246 C1243 1.358 . S
C1246 H1302 0.930 . S
C1247 N1244 1.314 . S
C1247 C1245 1.353 . S
C1247 H1303 0.930 . S
C1248 N1249 1.314 . S
C1248 C1253 1.353 . S
C1248 H1254 0.930 . S
N1249 Li1232 1.990 . S
N1249 C1248 1.314 . S
N1249 C1251 1.279 . S
C1250 C1251 1.358 . S
C1250 C1252 1.356 . S
C1250 H1304 0.930 . S
C1251 N1249 1.279 . S
C1251 C1250 1.358 . S
C1251 H1255 0.930 . S
C1252 C1250 1.356 . S
C1252 C1253 1.348 . S
C1253 C1248 1.353 . S
C1253 C1252 1.348 . S
C1253 H1305 0.929 . S
H1254 C1248 0.930 . S
H1255 C1251 0.930 . S
C1256 N1257 1.314 . S
C1256 C1258 1.353 . S
C1256 H1262 0.930 . S
N1257 Li1233 1.990 . S
N1257 C1256 1.314 . S
N1257 C1260 1.279 . S
C1258 C1256 1.353 . S
C1258 C1261 1.348 . S
C1258 H1306 0.929 . S
C1259 C1260 1.358 . S
C1259 C1261 1.356 . S
C1259 H1307 0.930 . S
C1260 N1257 1.279 . S
C1260 C1259 1.358 . S
C1260 H1263 0.930 . S
C1261 C1258 1.348 . S
C1261 C1259 1.356 . S
H1262 C1256 0.930 . S
H1263 C1260 0.930 . S
C1264 C1266 1.348 . S
C1264 C1267 1.356 . S
C1264 O1294 1.325 . S
N1265 C1268 1.314 . S
N1265 C1269 1.279 . S
C1266 C1264 1.348 . S
C1266 C1268 1.353 . S
C1266 H1308 0.929 . S
C1267 C1264 1.356 . S
C1267 C1269 1.358 . S
C1267 H1309 0.930 . S
C1268 N1265 1.314 . S
C1268 C1266 1.353 . S
C1268 H1310 0.930 . S
C1269 N1265 1.279 . S
C1269 C1267 1.358 . S
C1269 H1311 0.930 . S
C1270 C1271 1.348 . S
C1270 C1272 1.356 . S
C1270 O1295 1.325 . S
C1271 C1270 1.348 . S
C1271 C1273 1.353 . S
C1271 H1312 0.929 . S
C1272 C1270 1.356 . S
C1272 C1274 1.358 . S
C1272 H1313 0.930 . S
C1273 C1271 1.353 . S
C1273 N1275 1.314 . S
C1273 H1314 0.930 . S
C1274 C1272 1.358 . S
C1274 N1275 1.279 . S
C1274 H1315 0.930 . S
N1275 C1273 1.314 . S
N1275 C1274 1.279 . S
C1276 C1278 1.353 . S
C1276 N1279 1.314 . S
C1276 H1282 0.930 . S
C1277 N1279 1.279 . S
C1277 C1280 1.358 . S
C1277 H1283 0.930 . S
C1278 C1276 1.353 . S
C1278 C1281 1.348 . S
C1278 H1316 0.929 . S
N1279 Li1234 1.990 . S
N1279 C1276 1.314 . S
N1279 C1277 1.279 . S
C1280 C1277 1.358 . S
C1280 C1281 1.356 . S
C1280 H1317 0.930 . S
C1281 C1278 1.348 . S
C1281 C1280 1.356 . S
H1282 C1276 0.930 . S
H1283 C1277 0.930 . S
C1284 N1285 1.314 . S
C1284 C1286 1.353 . S
C1284 H1290 0.930 . S
N1285 Li1235 1.990 . S
N1285 C1284 1.314 . S
N1285 C1288 1.279 . S
C1286 C1284 1.353 . S
C1286 C1289 1.348 . S
C1286 H1318 0.929 . S
C1287 C1288 1.358 . S
C1287 C1289 1.356 . S
C1287 H1319 0.930 . S
C1288 N1285 1.279 . S
C1288 C1287 1.358 . S
C1288 H1291 0.930 . S
C1289 C1286 1.348 . S
C1289 C1287 1.356 . S
H1290 C1284 0.930 . S
H1291 C1288 0.930 . S
O1292 Li1232 1.956 . S
O1292 Li1233 1.970 . S
O1292 Li1234 1.961 . S
O1292 C1236 1.325 . S
O1293 Li1232 1.970 . S
O1293 Li1233 1.956 . S
O1293 Li1235 1.961 . S
O1293 C1242 1.325 . S
O1294 Li1232 1.961 . S
O1294 Li1234 1.956 . S
O1294 Li1235 1.970 . S
O1294 C1264 1.325 . S
O1295 Li1233 1.961 . S
O1295 Li1234 1.970 . S
O1295 Li1235 1.956 . S
O1295 C1270 1.325 . S
H1296 C1238 0.929 . S
H1297 C1239 0.930 . S
H1298 C1240 0.930 . S
H1299 C1241 0.930 . S
H1300 C1243 0.930 . S
H1301 C1245 0.929 . S
H1302 C1246 0.930 . S
H1303 C1247 0.930 . S
H1304 C1250 0.930 . S
H1305 C1253 0.929 . S
H1306 C1258 0.929 . S
H1307 C1259 0.930 . S
H1308 C1266 0.929 . S
H1309 C1267 0.930 . S
H1310 C1268 0.930 . S
H1311 C1269 0.930 . S
H1312 C1271 0.929 . S
H1313 C1272 0.930 . S
H1314 C1273 0.930 . S
H1315 C1274 0.930 . S
H1316 C1278 0.929 . S
H1317 C1280 0.930 . S
H1318 C1286 0.929 . S
H1319 C1287 0.930 . S
Li1320 N1337 1.990 . S
Li1320 O1380 1.956 . S
Li1320 O1381 1.970 . S
Li1320 O1382 1.961 . S
Li1321 N1345 1.990 . S
Li1321 O1380 1.970 . S
Li1321 O1381 1.956 . S
Li1321 O1383 1.961 . S
Li1322 N1367 1.990 . S
Li1322 O1380 1.961 . S
Li1322 O1382 1.956 . S
Li1322 O1383 1.970 . S
Li1323 N1373 1.990 . S
Li1323 O1381 1.961 . S
Li1323 O1382 1.970 . S
Li1323 O1383 1.956 . S
C1324 C1326 1.348 . S
C1324 C1327 1.356 . S
C1324 O1380 1.325 . S
N1325 C1328 1.314 . S
N1325 C1329 1.279 . S
C1326 C1324 1.348 . S
C1326 C1328 1.353 . S
C1326 H1384 0.929 . S
C1327 C1324 1.356 . S
C1327 C1329 1.358 . S
C1327 H1385 0.930 . S
C1328 N1325 1.314 . S
C1328 C1326 1.353 . S
C1328 H1386 0.930 . S
C1329 N1325 1.279 . S
C1329 C1327 1.358 . S
C1329 H1387 0.930 . S
C1330 C1333 1.348 . S
C1330 C1334 1.356 . S
C1330 O1381 1.325 . S
C1331 N1332 1.279 . S
C1331 C1334 1.358 . S
C1331 H1388 0.930 . S
N1332 C1331 1.279 . S
N1332 C1335 1.314 . S
C1333 C1330 1.348 . S
C1333 C1335 1.353 . S
C1333 H1389 0.929 . S
C1334 C1330 1.356 . S
C1334 C1331 1.358 . S
C1334 H1390 0.930 . S
C1335 N1332 1.314 . S
C1335 C1333 1.353 . S
C1335 H1391 0.930 . S
C1336 N1337 1.314 . S
C1336 C1341 1.353 . S
C1336 H1342 0.930 . S
N1337 Li1320 1.990 . S
N1337 C1336 1.314 . S
N1337 C1339 1.279 . S
C1338 C1339 1.358 . S
C1338 C1340 1.356 . S
C1338 H1392 0.930 . S
C1339 N1337 1.279 . S
C1339 C1338 1.358 . S
C1339 H1343 0.930 . S
C1340 C1338 1.356 . S
C1340 C1341 1.348 . S
C1341 C1336 1.353 . S
C1341 C1340 1.348 . S
C1341 H1393 0.929 . S
H1342 C1336 0.930 . S
H1343 C1339 0.930 . S
C1344 N1345 1.314 . S
C1344 C1346 1.353 . S
C1344 H1350 0.930 . S
N1345 Li1321 1.990 . S
N1345 C1344 1.314 . S
N1345 C1348 1.279 . S
C1346 C1344 1.353 . S
C1346 C1349 1.348 . S
C1346 H1394 0.929 . S
C1347 C1348 1.358 . S
C1347 C1349 1.356 . S
C1347 H1395 0.930 . S
C1348 N1345 1.279 . S
C1348 C1347 1.358 . S
C1348 H1351 0.930 . S
C1349 C1346 1.348 . S
C1349 C1347 1.356 . S
H1350 C1344 0.930 . S
H1351 C1348 0.930 . S
C1352 C1354 1.348 . S
C1352 C1355 1.356 . S
C1352 O1382 1.325 . S
N1353 C1356 1.314 . S
N1353 C1357 1.279 . S
C1354 C1352 1.348 . S
C1354 C1356 1.353 . S
C1354 H1396 0.929 . S
C1355 C1352 1.356 . S
C1355 C1357 1.358 . S
C1355 H1397 0.930 . S
C1356 N1353 1.314 . S
C1356 C1354 1.353 . S
C1356 H1398 0.930 . S
C1357 N1353 1.279 . S
C1357 C1355 1.358 . S
C1357 H1399 0.930 . S
C1358 C1359 1.348 . S
C1358 C1360 1.356 . S
C1358 O1383 1.325 . S
C1359 C1358 1.348 . S
C1359 C1361 1.353 . S
C1359 H1400 0.929 . S
C1360 C1358 1.356 . S
C1360 C1362 1.358 . S
C1360 H1401 0.930 . S
C1361 C1359 1.353 . S
C1361 N1363 1.314 . S
C1361 H1402 0.930 . S
C1362 C1360 1.358 . S
C1362 N1363 1.279 . S
C1362 H1403 0.930 . S
N1363 C1361 1.314 . S
N1363 C1362 1.279 . S
C1364 C1366 1.353 . S
C1364 N1367 1.314 . S
C1364 H1370 0.930 . S
C1365 N1367 1.279 . S
C1365 C1368 1.358 . S
C1365 H1371 0.930 . S
C1366 C1364 1.353 . S
C1366 C1369 1.348 . S
C1366 H1404 0.929 . S
N1367 Li1322 1.990 . S
N1367 C1364 1.314 . S
N1367 C1365 1.279 . S
C1368 C1365 1.358 . S
C1368 C1369 1.356 . S
C1368 H1405 0.930 . S
C1369 C1366 1.348 . S
C1369 C1368 1.356 . S
H1370 C1364 0.930 . S
H1371 C1365 0.930 . S
C1372 N1373 1.314 . S
C1372 C1374 1.353 . S
C1372 H1378 0.930 . S
N1373 Li1323 1.990 . S
N1373 C1372 1.314 . S
N1373 C1376 1.279 . S
C1374 C1372 1.353 . S
C1374 C1377 1.348 . S
C1374 H1406 0.929 . S
C1375 C1376 1.358 . S
C1375 C1377 1.356 . S
C1375 H1407 0.930 . S
C1376 N1373 1.279 . S
C1376 C1375 1.358 . S
C1376 H1379 0.930 . S
C1377 C1374 1.348 . S
C1377 C1375 1.356 . S
H1378 C1372 0.930 . S
H1379 C1376 0.930 . S
O1380 Li1320 1.956 . S
O1380 Li1321 1.970 . S
O1380 Li1322 1.961 . S
O1380 C1324 1.325 . S
O1381 Li1320 1.970 . S
O1381 Li1321 1.956 . S
O1381 Li1323 1.961 . S
O1381 C1330 1.325 . S
O1382 Li1320 1.961 . S
O1382 Li1322 1.956 . S
O1382 Li1323 1.970 . S
O1382 C1352 1.325 . S
O1383 Li1321 1.961 . S
O1383 Li1322 1.970 . S
O1383 Li1323 1.956 . S
O1383 C1358 1.325 . S
H1384 C1326 0.929 . S
H1385 C1327 0.930 . S
H1386 C1328 0.930 . S
H1387 C1329 0.930 . S
H1388 C1331 0.930 . S
H1389 C1333 0.929 . S
H1390 C1334 0.930 . S
H1391 C1335 0.930 . S
H1392 C1338 0.930 . S
H1393 C1341 0.929 . S
H1394 C1346 0.929 . S
H1395 C1347 0.930 . S
H1396 C1354 0.929 . S
H1397 C1355 0.930 . S
H1398 C1356 0.930 . S
H1399 C1357 0.930 . S
H1400 C1359 0.929 . S
H1401 C1360 0.930 . S
H1402 C1361 0.930 . S
H1403 C1362 0.930 . S
H1404 C1366 0.929 . S
H1405 C1368 0.930 . S
H1406 C1374 0.929 . S
H1407 C1375 0.930 . S
Li1408 N1425 1.990 . S
Li1408 O1468 1.956 . S
Li1408 O1469 1.970 . S
Li1408 O1470 1.961 . S
Li1409 N1433 1.990 . S
Li1409 O1468 1.970 . S
Li1409 O1469 1.956 . S
Li1409 O1471 1.961 . S
Li1410 N1455 1.990 . S
Li1410 O1468 1.961 . S
Li1410 O1470 1.956 . S
Li1410 O1471 1.970 . S
Li1411 N1461 1.990 . S
Li1411 O1469 1.961 . S
Li1411 O1470 1.970 . S
Li1411 O1471 1.956 . S
C1412 C1414 1.348 . S
C1412 C1415 1.356 . S
C1412 O1468 1.325 . S
N1413 C1416 1.314 . S
N1413 C1417 1.279 . S
C1414 C1412 1.348 . S
C1414 C1416 1.353 . S
C1414 H1472 0.929 . S
C1415 C1412 1.356 . S
C1415 C1417 1.358 . S
C1415 H1473 0.930 . S
C1416 N1413 1.314 . S
C1416 C1414 1.353 . S
C1416 H1474 0.930 . S
C1417 N1413 1.279 . S
C1417 C1415 1.358 . S
C1417 H1475 0.930 . S
C1418 C1421 1.348 . S
C1418 C1422 1.356 . S
C1418 O1469 1.325 . S
C1419 N1420 1.279 . S
C1419 C1422 1.358 . S
C1419 H1476 0.930 . S
N1420 C1419 1.279 . S
N1420 C1423 1.314 . S
C1421 C1418 1.348 . S
C1421 C1423 1.353 . S
C1421 H1477 0.929 . S
C1422 C1418 1.356 . S
C1422 C1419 1.358 . S
C1422 H1478 0.930 . S
C1423 N1420 1.314 . S
C1423 C1421 1.353 . S
C1423 H1479 0.930 . S
C1424 N1425 1.314 . S
C1424 C1429 1.353 . S
C1424 H1430 0.930 . S
N1425 Li1408 1.990 . S
N1425 C1424 1.314 . S
N1425 C1427 1.279 . S
C1426 C1427 1.358 . S
C1426 C1428 1.356 . S
C1426 H1480 0.930 . S
C1427 N1425 1.279 . S
C1427 C1426 1.358 . S
C1427 H1431 0.930 . S
C1428 C1426 1.356 . S
C1428 C1429 1.348 . S
C1429 C1424 1.353 . S
C1429 C1428 1.348 . S
C1429 H1481 0.929 . S
H1430 C1424 0.930 . S
H1431 C1427 0.930 . S
C1432 N1433 1.314 . S
C1432 C1434 1.353 . S
C1432 H1438 0.930 . S
N1433 Li1409 1.990 . S
N1433 C1432 1.314 . S
N1433 C1436 1.279 . S
C1434 C1432 1.353 . S
C1434 C1437 1.348 . S
C1434 H1482 0.929 . S
C1435 C1436 1.358 . S
C1435 C1437 1.356 . S
C1435 H1483 0.930 . S
C1436 N1433 1.279 . S
C1436 C1435 1.358 . S
C1436 H1439 0.930 . S
C1437 C1434 1.348 . S
C1437 C1435 1.356 . S
H1438 C1432 0.930 . S
H1439 C1436 0.930 . S
C1440 C1442 1.348 . S
C1440 C1443 1.356 . S
C1440 O1470 1.325 . S
N1441 C1444 1.314 . S
N1441 C1445 1.279 . S
C1442 C1440 1.348 . S
C1442 C1444 1.353 . S
C1442 H1484 0.929 . S
C1443 C1440 1.356 . S
C1443 C1445 1.358 . S
C1443 H1485 0.930 . S
C1444 N1441 1.314 . S
C1444 C1442 1.353 . S
C1444 H1486 0.930 . S
C1445 N1441 1.279 . S
C1445 C1443 1.358 . S
C1445 H1487 0.930 . S
C1446 C1447 1.348 . S
C1446 C1448 1.356 . S
C1446 O1471 1.325 . S
C1447 C1446 1.348 . S
C1447 C1449 1.353 . S
C1447 H1488 0.929 . S
C1448 C1446 1.356 . S
C1448 C1450 1.358 . S
C1448 H1489 0.930 . S
C1449 C1447 1.353 . S
C1449 N1451 1.314 . S
C1449 H1490 0.930 . S
C1450 C1448 1.358 . S
C1450 N1451 1.279 . S
C1450 H1491 0.930 . S
N1451 C1449 1.314 . S
N1451 C1450 1.279 . S
C1452 C1454 1.353 . S
C1452 N1455 1.314 . S
C1452 H1458 0.930 . S
C1453 N1455 1.279 . S
C1453 C1456 1.358 . S
C1453 H1459 0.930 . S
C1454 C1452 1.353 . S
C1454 C1457 1.348 . S
C1454 H1492 0.929 . S
N1455 Li1410 1.990 . S
N1455 C1452 1.314 . S
N1455 C1453 1.279 . S
C1456 C1453 1.358 . S
C1456 C1457 1.356 . S
C1456 H1493 0.930 . S
C1457 C1454 1.348 . S
C1457 C1456 1.356 . S
H1458 C1452 0.930 . S
H1459 C1453 0.930 . S
C1460 N1461 1.314 . S
C1460 C1462 1.353 . S
C1460 H1466 0.930 . S
N1461 Li1411 1.990 . S
N1461 C1460 1.314 . S
N1461 C1464 1.279 . S
C1462 C1460 1.353 . S
C1462 C1465 1.348 . S
C1462 H1494 0.929 . S
C1463 C1464 1.358 . S
C1463 C1465 1.356 . S
C1463 H1495 0.930 . S
C1464 N1461 1.279 . S
C1464 C1463 1.358 . S
C1464 H1467 0.930 . S
C1465 C1462 1.348 . S
C1465 C1463 1.356 . S
H1466 C1460 0.930 . S
H1467 C1464 0.930 . S
O1468 Li1408 1.956 . S
O1468 Li1409 1.970 . S
O1468 Li1410 1.961 . S
O1468 C1412 1.325 . S
O1469 Li1408 1.970 . S
O1469 Li1409 1.956 . S
O1469 Li1411 1.961 . S
O1469 C1418 1.325 . S
O1470 Li1408 1.961 . S
O1470 Li1410 1.956 . S
O1470 Li1411 1.970 . S
O1470 C1440 1.325 . S
O1471 Li1409 1.961 . S
O1471 Li1410 1.970 . S
O1471 Li1411 1.956 . S
O1471 C1446 1.325 . S
H1472 C1414 0.929 . S
H1473 C1415 0.930 . S
H1474 C1416 0.930 . S
H1475 C1417 0.930 . S
H1476 C1419 0.930 . S
H1477 C1421 0.929 . S
H1478 C1422 0.930 . S
H1479 C1423 0.930 . S
H1480 C1426 0.930 . S
H1481 C1429 0.929 . S
H1482 C1434 0.929 . S
H1483 C1435 0.930 . S
H1484 C1442 0.929 . S
H1485 C1443 0.930 . S
H1486 C1444 0.930 . S
H1487 C1445 0.930 . S
H1488 C1447 0.929 . S
H1489 C1448 0.930 . S
H1490 C1449 0.930 . S
H1491 C1450 0.930 . S
H1492 C1454 0.929 . S
H1493 C1456 0.930 . S
H1494 C1462 0.929 . S
H1495 C1463 0.930 . S
Li1496 N1513 1.990 . S
Li1496 O1556 1.956 . S
Li1496 O1557 1.970 . S
Li1496 O1558 1.961 . S
Li1497 N1521 1.990 . S
Li1497 O1556 1.970 . S
Li1497 O1557 1.956 . S
Li1497 O1559 1.961 . S
Li1498 N1543 1.990 . S
Li1498 O1556 1.961 . S
Li1498 O1558 1.956 . S
Li1498 O1559 1.970 . S
Li1499 N1549 1.990 . S
Li1499 O1557 1.961 . S
Li1499 O1558 1.970 . S
Li1499 O1559 1.956 . S
C1500 C1502 1.348 . S
C1500 C1503 1.356 . S
C1500 O1556 1.325 . S
N1501 C1504 1.314 . S
N1501 C1505 1.279 . S
C1502 C1500 1.348 . S
C1502 C1504 1.353 . S
C1502 H1560 0.929 . S
C1503 C1500 1.356 . S
C1503 C1505 1.358 . S
C1503 H1561 0.930 . S
C1504 N1501 1.314 . S
C1504 C1502 1.353 . S
C1504 H1562 0.930 . S
C1505 N1501 1.279 . S
C1505 C1503 1.358 . S
C1505 H1563 0.930 . S
C1506 C1509 1.348 . S
C1506 C1510 1.356 . S
C1506 O1557 1.325 . S
C1507 N1508 1.279 . S
C1507 C1510 1.358 . S
C1507 H1564 0.930 . S
N1508 C1507 1.279 . S
N1508 C1511 1.314 . S
C1509 C1506 1.348 . S
C1509 C1511 1.353 . S
C1509 H1565 0.929 . S
C1510 C1506 1.356 . S
C1510 C1507 1.358 . S
C1510 H1566 0.930 . S
C1511 N1508 1.314 . S
C1511 C1509 1.353 . S
C1511 H1567 0.930 . S
C1512 N1513 1.314 . S
C1512 C1517 1.353 . S
C1512 H1518 0.930 . S
N1513 Li1496 1.990 . S
N1513 C1512 1.314 . S
N1513 C1515 1.279 . S
C1514 C1515 1.358 . S
C1514 C1516 1.356 . S
C1514 H1568 0.930 . S
C1515 N1513 1.279 . S
C1515 C1514 1.358 . S
C1515 H1519 0.930 . S
C1516 C1514 1.356 . S
C1516 C1517 1.348 . S
C1517 C1512 1.353 . S
C1517 C1516 1.348 . S
C1517 H1569 0.929 . S
H1518 C1512 0.930 . S
H1519 C1515 0.930 . S
C1520 N1521 1.314 . S
C1520 C1522 1.353 . S
C1520 H1526 0.930 . S
N1521 Li1497 1.990 . S
N1521 C1520 1.314 . S
N1521 C1524 1.279 . S
C1522 C1520 1.353 . S
C1522 C1525 1.348 . S
C1522 H1570 0.929 . S
C1523 C1524 1.358 . S
C1523 C1525 1.356 . S
C1523 H1571 0.930 . S
C1524 N1521 1.279 . S
C1524 C1523 1.358 . S
C1524 H1527 0.930 . S
C1525 C1522 1.348 . S
C1525 C1523 1.356 . S
H1526 C1520 0.930 . S
H1527 C1524 0.930 . S
C1528 C1530 1.348 . S
C1528 C1531 1.356 . S
C1528 O1558 1.325 . S
N1529 C1532 1.314 . S
N1529 C1533 1.279 . S
C1530 C1528 1.348 . S
C1530 C1532 1.353 . S
C1530 H1572 0.929 . S
C1531 C1528 1.356 . S
C1531 C1533 1.358 . S
C1531 H1573 0.930 . S
C1532 N1529 1.314 . S
C1532 C1530 1.353 . S
C1532 H1574 0.930 . S
C1533 N1529 1.279 . S
C1533 C1531 1.358 . S
C1533 H1575 0.930 . S
C1534 C1535 1.348 . S
C1534 C1536 1.356 . S
C1534 O1559 1.325 . S
C1535 C1534 1.348 . S
C1535 C1537 1.353 . S
C1535 H1576 0.929 . S
C1536 C1534 1.356 . S
C1536 C1538 1.358 . S
C1536 H1577 0.930 . S
C1537 C1535 1.353 . S
C1537 N1539 1.314 . S
C1537 H1578 0.930 . S
C1538 C1536 1.358 . S
C1538 N1539 1.279 . S
C1538 H1579 0.930 . S
N1539 C1537 1.314 . S
N1539 C1538 1.279 . S
C1540 C1542 1.353 . S
C1540 N1543 1.314 . S
C1540 H1546 0.930 . S
C1541 N1543 1.279 . S
C1541 C1544 1.358 . S
C1541 H1547 0.930 . S
C1542 C1540 1.353 . S
C1542 C1545 1.348 . S
C1542 H1580 0.929 . S
N1543 Li1498 1.990 . S
N1543 C1540 1.314 . S
N1543 C1541 1.279 . S
C1544 C1541 1.358 . S
C1544 C1545 1.356 . S
C1544 H1581 0.930 . S
C1545 C1542 1.348 . S
C1545 C1544 1.356 . S
H1546 C1540 0.930 . S
H1547 C1541 0.930 . S
C1548 N1549 1.314 . S
C1548 C1550 1.353 . S
C1548 H1554 0.930 . S
N1549 Li1499 1.990 . S
N1549 C1548 1.314 . S
N1549 C1552 1.279 . S
C1550 C1548 1.353 . S
C1550 C1553 1.348 . S
C1550 H1582 0.929 . S
C1551 C1552 1.358 . S
C1551 C1553 1.356 . S
C1551 H1583 0.930 . S
C1552 N1549 1.279 . S
C1552 C1551 1.358 . S
C1552 H1555 0.930 . S
C1553 C1550 1.348 . S
C1553 C1551 1.356 . S
H1554 C1548 0.930 . S
H1555 C1552 0.930 . S
O1556 Li1496 1.956 . S
O1556 Li1497 1.970 . S
O1556 Li1498 1.961 . S
O1556 C1500 1.325 . S
O1557 Li1496 1.970 . S
O1557 Li1497 1.956 . S
O1557 Li1499 1.961 . S
O1557 C1506 1.325 . S
O1558 Li1496 1.961 . S
O1558 Li1498 1.956 . S
O1558 Li1499 1.970 . S
O1558 C1528 1.325 . S
O1559 Li1497 1.961 . S
O1559 Li1498 1.970 . S
O1559 Li1499 1.956 . S
O1559 C1534 1.325 . S
H1560 C1502 0.929 . S
H1561 C1503 0.930 . S
H1562 C1504 0.930 . S
H1563 C1505 0.930 . S
H1564 C1507 0.930 . S
H1565 C1509 0.929 . S
H1566 C1510 0.930 . S
H1567 C1511 0.930 . S
H1568 C1514 0.930 . S
H1569 C1517 0.929 . S
H1570 C1522 0.929 . S
H1571 C1523 0.930 . S
H1572 C1530 0.929 . S
H1573 C1531 0.930 . S
H1574 C1532 0.930 . S
H1575 C1533 0.930 . S
H1576 C1535 0.929 . S
H1577 C1536 0.930 . S
H1578 C1537 0.930 . S
H1579 C1538 0.930 . S
H1580 C1542 0.929 . S
H1581 C1544 0.930 . S
H1582 C1550 0.929 . S
H1583 C1551 0.930 . S
Li1584 N1601 1.990 . S
Li1584 O1644 1.956 . S
Li1584 O1645 1.970 . S
Li1584 O1646 1.961 . S
Li1585 N1609 1.990 . S
Li1585 O1644 1.970 . S
Li1585 O1645 1.956 . S
Li1585 O1647 1.961 . S
Li1586 N1631 1.990 . S
Li1586 O1644 1.961 . S
Li1586 O1646 1.956 . S
Li1586 O1647 1.970 . S
Li1587 N1637 1.990 . S
Li1587 O1645 1.961 . S
Li1587 O1646 1.970 . S
Li1587 O1647 1.956 . S
C1588 C1590 1.348 . S
C1588 C1591 1.356 . S
C1588 O1644 1.325 . S
N1589 C1592 1.314 . S
N1589 C1593 1.279 . S
C1590 C1588 1.348 . S
C1590 C1592 1.353 . S
C1590 H1648 0.929 . S
C1591 C1588 1.356 . S
C1591 C1593 1.358 . S
C1591 H1649 0.930 . S
C1592 N1589 1.314 . S
C1592 C1590 1.353 . S
C1592 H1650 0.930 . S
C1593 N1589 1.279 . S
C1593 C1591 1.358 . S
C1593 H1651 0.930 . S
C1594 C1597 1.348 . S
C1594 C1598 1.356 . S
C1594 O1645 1.325 . S
C1595 N1596 1.279 . S
C1595 C1598 1.358 . S
C1595 H1652 0.930 . S
N1596 C1595 1.279 . S
N1596 C1599 1.314 . S
C1597 C1594 1.348 . S
C1597 C1599 1.353 . S
C1597 H1653 0.929 . S
C1598 C1594 1.356 . S
C1598 C1595 1.358 . S
C1598 H1654 0.930 . S
C1599 N1596 1.314 . S
C1599 C1597 1.353 . S
C1599 H1655 0.930 . S
C1600 N1601 1.314 . S
C1600 C1605 1.353 . S
C1600 H1606 0.930 . S
N1601 Li1584 1.990 . S
N1601 C1600 1.314 . S
N1601 C1603 1.279 . S
C1602 C1603 1.358 . S
C1602 C1604 1.356 . S
C1602 H1656 0.930 . S
C1603 N1601 1.279 . S
C1603 C1602 1.358 . S
C1603 H1607 0.930 . S
C1604 C1602 1.356 . S
C1604 C1605 1.348 . S
C1605 C1600 1.353 . S
C1605 C1604 1.348 . S
C1605 H1657 0.929 . S
H1606 C1600 0.930 . S
H1607 C1603 0.930 . S
C1608 N1609 1.314 . S
C1608 C1610 1.353 . S
C1608 H1614 0.930 . S
N1609 Li1585 1.990 . S
N1609 C1608 1.314 . S
N1609 C1612 1.279 . S
C1610 C1608 1.353 . S
C1610 C1613 1.348 . S
C1610 H1658 0.929 . S
C1611 C1612 1.358 . S
C1611 C1613 1.356 . S
C1611 H1659 0.930 . S
C1612 N1609 1.279 . S
C1612 C1611 1.358 . S
C1612 H1615 0.930 . S
C1613 C1610 1.348 . S
C1613 C1611 1.356 . S
H1614 C1608 0.930 . S
H1615 C1612 0.930 . S
C1616 C1618 1.348 . S
C1616 C1619 1.356 . S
C1616 O1646 1.325 . S
N1617 C1620 1.314 . S
N1617 C1621 1.279 . S
C1618 C1616 1.348 . S
C1618 C1620 1.353 . S
C1618 H1660 0.929 . S
C1619 C1616 1.356 . S
C1619 C1621 1.358 . S
C1619 H1661 0.930 . S
C1620 N1617 1.314 . S
C1620 C1618 1.353 . S
C1620 H1662 0.930 . S
C1621 N1617 1.279 . S
C1621 C1619 1.358 . S
C1621 H1663 0.930 . S
C1622 C1623 1.348 . S
C1622 C1624 1.356 . S
C1622 O1647 1.325 . S
C1623 C1622 1.348 . S
C1623 C1625 1.353 . S
C1623 H1664 0.929 . S
C1624 C1622 1.356 . S
C1624 C1626 1.358 . S
C1624 H1665 0.930 . S
C1625 C1623 1.353 . S
C1625 N1627 1.314 . S
C1625 H1666 0.930 . S
C1626 C1624 1.358 . S
C1626 N1627 1.279 . S
C1626 H1667 0.930 . S
N1627 C1625 1.314 . S
N1627 C1626 1.279 . S
C1628 C1630 1.353 . S
C1628 N1631 1.314 . S
C1628 H1634 0.930 . S
C1629 N1631 1.279 . S
C1629 C1632 1.358 . S
C1629 H1635 0.930 . S
C1630 C1628 1.353 . S
C1630 C1633 1.348 . S
C1630 H1668 0.929 . S
N1631 Li1586 1.990 . S
N1631 C1628 1.314 . S
N1631 C1629 1.279 . S
C1632 C1629 1.358 . S
C1632 C1633 1.356 . S
C1632 H1669 0.930 . S
C1633 C1630 1.348 . S
C1633 C1632 1.356 . S
H1634 C1628 0.930 . S
H1635 C1629 0.930 . S
C1636 N1637 1.314 . S
C1636 C1638 1.353 . S
C1636 H1642 0.930 . S
N1637 Li1587 1.990 . S
N1637 C1636 1.314 . S
N1637 C1640 1.279 . S
C1638 C1636 1.353 . S
C1638 C1641 1.348 . S
C1638 H1670 0.929 . S
C1639 C1640 1.358 . S
C1639 C1641 1.356 . S
C1639 H1671 0.930 . S
C1640 N1637 1.279 . S
C1640 C1639 1.358 . S
C1640 H1643 0.930 . S
C1641 C1638 1.348 . S
C1641 C1639 1.356 . S
H1642 C1636 0.930 . S
H1643 C1640 0.930 . S
O1644 Li1584 1.956 . S
O1644 Li1585 1.970 . S
O1644 Li1586 1.961 . S
O1644 C1588 1.325 . S
O1645 Li1584 1.970 . S
O1645 Li1585 1.956 . S
O1645 Li1587 1.961 . S
O1645 C1594 1.325 . S
O1646 Li1584 1.961 . S
O1646 Li1586 1.956 . S
O1646 Li1587 1.970 . S
O1646 C1616 1.325 . S
O1647 Li1585 1.961 . S
O1647 Li1586 1.970 . S
O1647 Li1587 1.956 . S
O1647 C1622 1.325 . S
H1648 C1590 0.929 . S
H1649 C1591 0.930 . S
H1650 C1592 0.930 . S
H1651 C1593 0.930 . S
H1652 C1595 0.930 . S
H1653 C1597 0.929 . S
H1654 C1598 0.930 . S
H1655 C1599 0.930 . S
H1656 C1602 0.930 . S
H1657 C1605 0.929 . S
H1658 C1610 0.929 . S
H1659 C1611 0.930 . S
H1660 C1618 0.929 . S
H1661 C1619 0.930 . S
H1662 C1620 0.930 . S
H1663 C1621 0.930 . S
H1664 C1623 0.929 . S
H1665 C1624 0.930 . S
H1666 C1625 0.930 . S
H1667 C1626 0.930 . S
H1668 C1630 0.929 . S
H1669 C1632 0.930 . S
H1670 C1638 0.929 . S
H1671 C1639 0.930 . S
Li1672 N1689 1.990 . S
Li1672 O1732 1.956 . S
Li1672 O1733 1.970 . S
Li1672 O1734 1.961 . S
Li1673 N1697 1.990 . S
Li1673 O1732 1.970 . S
Li1673 O1733 1.956 . S
Li1673 O1735 1.961 . S
Li1674 N1719 1.990 . S
Li1674 O1732 1.961 . S
Li1674 O1734 1.956 . S
Li1674 O1735 1.970 . S
Li1675 N1725 1.990 . S
Li1675 O1733 1.961 . S
Li1675 O1734 1.970 . S
Li1675 O1735 1.956 . S
C1676 C1678 1.348 . S
C1676 C1679 1.356 . S
C1676 O1732 1.325 . S
N1677 C1680 1.314 . S
N1677 C1681 1.279 . S
C1678 C1676 1.348 . S
C1678 C1680 1.353 . S
C1678 H1736 0.929 . S
C1679 C1676 1.356 . S
C1679 C1681 1.358 . S
C1679 H1737 0.930 . S
C1680 N1677 1.314 . S
C1680 C1678 1.353 . S
C1680 H1738 0.930 . S
C1681 N1677 1.279 . S
C1681 C1679 1.358 . S
C1681 H1739 0.930 . S
C1682 C1685 1.348 . S
C1682 C1686 1.356 . S
C1682 O1733 1.325 . S
C1683 N1684 1.279 . S
C1683 C1686 1.358 . S
C1683 H1740 0.930 . S
N1684 C1683 1.279 . S
N1684 C1687 1.314 . S
C1685 C1682 1.348 . S
C1685 C1687 1.353 . S
C1685 H1741 0.929 . S
C1686 C1682 1.356 . S
C1686 C1683 1.358 . S
C1686 H1742 0.930 . S
C1687 N1684 1.314 . S
C1687 C1685 1.353 . S
C1687 H1743 0.930 . S
C1688 N1689 1.314 . S
C1688 C1693 1.353 . S
C1688 H1694 0.930 . S
N1689 Li1672 1.990 . S
N1689 C1688 1.314 . S
N1689 C1691 1.279 . S
C1690 C1691 1.358 . S
C1690 C1692 1.356 . S
C1690 H1744 0.930 . S
C1691 N1689 1.279 . S
C1691 C1690 1.358 . S
C1691 H1695 0.930 . S
C1692 C1690 1.356 . S
C1692 C1693 1.348 . S
C1693 C1688 1.353 . S
C1693 C1692 1.348 . S
C1693 H1745 0.929 . S
H1694 C1688 0.930 . S
H1695 C1691 0.930 . S
C1696 N1697 1.314 . S
C1696 C1698 1.353 . S
C1696 H1702 0.930 . S
N1697 Li1673 1.990 . S
N1697 C1696 1.314 . S
N1697 C1700 1.279 . S
C1698 C1696 1.353 . S
C1698 C1701 1.348 . S
C1698 H1746 0.929 . S
C1699 C1700 1.358 . S
C1699 C1701 1.356 . S
C1699 H1747 0.930 . S
C1700 N1697 1.279 . S
C1700 C1699 1.358 . S
C1700 H1703 0.930 . S
C1701 C1698 1.348 . S
C1701 C1699 1.356 . S
H1702 C1696 0.930 . S
H1703 C1700 0.930 . S
C1704 C1706 1.348 . S
C1704 C1707 1.356 . S
C1704 O1734 1.325 . S
N1705 C1708 1.314 . S
N1705 C1709 1.279 . S
C1706 C1704 1.348 . S
C1706 C1708 1.353 . S
C1706 H1748 0.929 . S
C1707 C1704 1.356 . S
C1707 C1709 1.358 . S
C1707 H1749 0.930 . S
C1708 N1705 1.314 . S
C1708 C1706 1.353 . S
C1708 H1750 0.930 . S
C1709 N1705 1.279 . S
C1709 C1707 1.358 . S
C1709 H1751 0.930 . S
C1710 C1711 1.348 . S
C1710 C1712 1.356 . S
C1710 O1735 1.325 . S
C1711 C1710 1.348 . S
C1711 C1713 1.353 . S
C1711 H1752 0.929 . S
C1712 C1710 1.356 . S
C1712 C1714 1.358 . S
C1712 H1753 0.930 . S
C1713 C1711 1.353 . S
C1713 N1715 1.314 . S
C1713 H1754 0.930 . S
C1714 C1712 1.358 . S
C1714 N1715 1.279 . S
C1714 H1755 0.930 . S
N1715 C1713 1.314 . S
N1715 C1714 1.279 . S
C1716 C1718 1.353 . S
C1716 N1719 1.314 . S
C1716 H1722 0.930 . S
C1717 N1719 1.279 . S
C1717 C1720 1.358 . S
C1717 H1723 0.930 . S
C1718 C1716 1.353 . S
C1718 C1721 1.348 . S
C1718 H1756 0.929 . S
N1719 Li1674 1.990 . S
N1719 C1716 1.314 . S
N1719 C1717 1.279 . S
C1720 C1717 1.358 . S
C1720 C1721 1.356 . S
C1720 H1757 0.930 . S
C1721 C1718 1.348 . S
C1721 C1720 1.356 . S
H1722 C1716 0.930 . S
H1723 C1717 0.930 . S
C1724 N1725 1.314 . S
C1724 C1726 1.353 . S
C1724 H1730 0.930 . S
N1725 Li1675 1.990 . S
N1725 C1724 1.314 . S
N1725 C1728 1.279 . S
C1726 C1724 1.353 . S
C1726 C1729 1.348 . S
C1726 H1758 0.929 . S
C1727 C1728 1.358 . S
C1727 C1729 1.356 . S
C1727 H1759 0.930 . S
C1728 N1725 1.279 . S
C1728 C1727 1.358 . S
C1728 H1731 0.930 . S
C1729 C1726 1.348 . S
C1729 C1727 1.356 . S
H1730 C1724 0.930 . S
H1731 C1728 0.930 . S
O1732 Li1672 1.956 . S
O1732 Li1673 1.970 . S
O1732 Li1674 1.961 . S
O1732 C1676 1.325 . S
O1733 Li1672 1.970 . S
O1733 Li1673 1.956 . S
O1733 Li1675 1.961 . S
O1733 C1682 1.325 . S
O1734 Li1672 1.961 . S
O1734 Li1674 1.956 . S
O1734 Li1675 1.970 . S
O1734 C1704 1.325 . S
O1735 Li1673 1.961 . S
O1735 Li1674 1.970 . S
O1735 Li1675 1.956 . S
O1735 C1710 1.325 . S
H1736 C1678 0.929 . S
H1737 C1679 0.930 . S
H1738 C1680 0.930 . S
H1739 C1681 0.930 . S
H1740 C1683 0.930 . S
H1741 C1685 0.929 . S
H1742 C1686 0.930 . S
H1743 C1687 0.930 . S
H1744 C1690 0.930 . S
H1745 C1693 0.929 . S
H1746 C1698 0.929 . S
H1747 C1699 0.930 . S
H1748 C1706 0.929 . S
H1749 C1707 0.930 . S
H1750 C1708 0.930 . S
H1751 C1709 0.930 . S
H1752 C1711 0.929 . S
H1753 C1712 0.930 . S
H1754 C1713 0.930 . S
H1755 C1714 0.930 . S
H1756 C1718 0.929 . S
H1757 C1720 0.930 . S
H1758 C1726 0.929 . S
H1759 C1727 0.930 . S
Li1760 N1777 1.990 . S
Li1760 O1820 1.956 . S
Li1760 O1821 1.970 . S
Li1760 O1822 1.961 . S
Li1761 N1785 1.990 . S
Li1761 O1820 1.970 . S
Li1761 O1821 1.956 . S
Li1761 O1823 1.961 . S
Li1762 N1807 1.990 . S
Li1762 O1820 1.961 . S
Li1762 O1822 1.956 . S
Li1762 O1823 1.970 . S
Li1763 N1813 1.990 . S
Li1763 O1821 1.961 . S
Li1763 O1822 1.970 . S
Li1763 O1823 1.956 . S
C1764 C1766 1.348 . S
C1764 C1767 1.356 . S
C1764 O1820 1.325 . S
N1765 C1768 1.314 . S
N1765 C1769 1.279 . S
C1766 C1764 1.348 . S
C1766 C1768 1.353 . S
C1766 H1824 0.929 . S
C1767 C1764 1.356 . S
C1767 C1769 1.358 . S
C1767 H1825 0.930 . S
C1768 N1765 1.314 . S
C1768 C1766 1.353 . S
C1768 H1826 0.930 . S
C1769 N1765 1.279 . S
C1769 C1767 1.358 . S
C1769 H1827 0.930 . S
C1770 C1773 1.348 . S
C1770 C1774 1.356 . S
C1770 O1821 1.325 . S
C1771 N1772 1.279 . S
C1771 C1774 1.358 . S
C1771 H1828 0.930 . S
N1772 C1771 1.279 . S
N1772 C1775 1.314 . S
C1773 C1770 1.348 . S
C1773 C1775 1.353 . S
C1773 H1829 0.929 . S
C1774 C1770 1.356 . S
C1774 C1771 1.358 . S
C1774 H1830 0.930 . S
C1775 N1772 1.314 . S
C1775 C1773 1.353 . S
C1775 H1831 0.930 . S
C1776 N1777 1.314 . S
C1776 C1781 1.353 . S
C1776 H1782 0.930 . S
N1777 Li1760 1.990 . S
N1777 C1776 1.314 . S
N1777 C1779 1.279 . S
C1778 C1779 1.358 . S
C1778 C1780 1.356 . S
C1778 H1832 0.930 . S
C1779 N1777 1.279 . S
C1779 C1778 1.358 . S
C1779 H1783 0.930 . S
C1780 C1778 1.356 . S
C1780 C1781 1.348 . S
C1781 C1776 1.353 . S
C1781 C1780 1.348 . S
C1781 H1833 0.929 . S
H1782 C1776 0.930 . S
H1783 C1779 0.930 . S
C1784 N1785 1.314 . S
C1784 C1786 1.353 . S
C1784 H1790 0.930 . S
N1785 Li1761 1.990 . S
N1785 C1784 1.314 . S
N1785 C1788 1.279 . S
C1786 C1784 1.353 . S
C1786 C1789 1.348 . S
C1786 H1834 0.929 . S
C1787 C1788 1.358 . S
C1787 C1789 1.356 . S
C1787 H1835 0.930 . S
C1788 N1785 1.279 . S
C1788 C1787 1.358 . S
C1788 H1791 0.930 . S
C1789 C1786 1.348 . S
C1789 C1787 1.356 . S
H1790 C1784 0.930 . S
H1791 C1788 0.930 . S
C1792 C1794 1.348 . S
C1792 C1795 1.356 . S
C1792 O1822 1.325 . S
N1793 C1796 1.314 . S
N1793 C1797 1.279 . S
C1794 C1792 1.348 . S
C1794 C1796 1.353 . S
C1794 H1836 0.929 . S
C1795 C1792 1.356 . S
C1795 C1797 1.358 . S
C1795 H1837 0.930 . S
C1796 N1793 1.314 . S
C1796 C1794 1.353 . S
C1796 H1838 0.930 . S
C1797 N1793 1.279 . S
C1797 C1795 1.358 . S
C1797 H1839 0.930 . S
C1798 C1799 1.348 . S
C1798 C1800 1.356 . S
C1798 O1823 1.325 . S
C1799 C1798 1.348 . S
C1799 C1801 1.353 . S
C1799 H1840 0.929 . S
C1800 C1798 1.356 . S
C1800 C1802 1.358 . S
C1800 H1841 0.930 . S
C1801 C1799 1.353 . S
C1801 N1803 1.314 . S
C1801 H1842 0.930 . S
C1802 C1800 1.358 . S
C1802 N1803 1.279 . S
C1802 H1843 0.930 . S
N1803 C1801 1.314 . S
N1803 C1802 1.279 . S
C1804 C1806 1.353 . S
C1804 N1807 1.314 . S
C1804 H1810 0.930 . S
C1805 N1807 1.279 . S
C1805 C1808 1.358 . S
C1805 H1811 0.930 . S
C1806 C1804 1.353 . S
C1806 C1809 1.348 . S
C1806 H1844 0.929 . S
N1807 Li1762 1.990 . S
N1807 C1804 1.314 . S
N1807 C1805 1.279 . S
C1808 C1805 1.358 . S
C1808 C1809 1.356 . S
C1808 H1845 0.930 . S
C1809 C1806 1.348 . S
C1809 C1808 1.356 . S
H1810 C1804 0.930 . S
H1811 C1805 0.930 . S
C1812 N1813 1.314 . S
C1812 C1814 1.353 . S
C1812 H1818 0.930 . S
N1813 Li1763 1.990 . S
N1813 C1812 1.314 . S
N1813 C1816 1.279 . S
C1814 C1812 1.353 . S
C1814 C1817 1.348 . S
C1814 H1846 0.929 . S
C1815 C1816 1.358 . S
C1815 C1817 1.356 . S
C1815 H1847 0.930 . S
C1816 N1813 1.279 . S
C1816 C1815 1.358 . S
C1816 H1819 0.930 . S
C1817 C1814 1.348 . S
C1817 C1815 1.356 . S
H1818 C1812 0.930 . S
H1819 C1816 0.930 . S
O1820 Li1760 1.956 . S
O1820 Li1761 1.970 . S
O1820 Li1762 1.961 . S
O1820 C1764 1.325 . S
O1821 Li1760 1.970 . S
O1821 Li1761 1.956 . S
O1821 Li1763 1.961 . S
O1821 C1770 1.325 . S
O1822 Li1760 1.961 . S
O1822 Li1762 1.956 . S
O1822 Li1763 1.970 . S
O1822 C1792 1.325 . S
O1823 Li1761 1.961 . S
O1823 Li1762 1.970 . S
O1823 Li1763 1.956 . S
O1823 C1798 1.325 . S
H1824 C1766 0.929 . S
H1825 C1767 0.930 . S
H1826 C1768 0.930 . S
H1827 C1769 0.930 . S
H1828 C1771 0.930 . S
H1829 C1773 0.929 . S
H1830 C1774 0.930 . S
H1831 C1775 0.930 . S
H1832 C1778 0.930 . S
H1833 C1781 0.929 . S
H1834 C1786 0.929 . S
H1835 C1787 0.930 . S
H1836 C1794 0.929 . S
H1837 C1795 0.930 . S
H1838 C1796 0.930 . S
H1839 C1797 0.930 . S
H1840 C1799 0.929 . S
H1841 C1800 0.930 . S
H1842 C1801 0.930 . S
H1843 C1802 0.930 . S
H1844 C1806 0.929 . S
H1845 C1808 0.930 . S
H1846 C1814 0.929 . S
H1847 C1815 0.930 . S
Li1848 N1865 1.990 . S
Li1848 O1908 1.956 . S
Li1848 O1909 1.970 . S
Li1848 O1910 1.961 . S
Li1849 N1873 1.990 . S
Li1849 O1908 1.970 . S
Li1849 O1909 1.956 . S
Li1849 O1911 1.961 . S
Li1850 N1895 1.990 . S
Li1850 O1908 1.961 . S
Li1850 O1910 1.956 . S
Li1850 O1911 1.970 . S
Li1851 N1901 1.990 . S
Li1851 O1909 1.961 . S
Li1851 O1910 1.970 . S
Li1851 O1911 1.956 . S
C1852 C1854 1.348 . S
C1852 C1855 1.356 . S
C1852 O1908 1.325 . S
N1853 C1856 1.314 . S
N1853 C1857 1.279 . S
C1854 C1852 1.348 . S
C1854 C1856 1.353 . S
C1854 H1912 0.929 . S
C1855 C1852 1.356 . S
C1855 C1857 1.358 . S
C1855 H1913 0.930 . S
C1856 N1853 1.314 . S
C1856 C1854 1.353 . S
C1856 H1914 0.930 . S
C1857 N1853 1.279 . S
C1857 C1855 1.358 . S
C1857 H1915 0.930 . S
C1858 C1861 1.348 . S
C1858 C1862 1.356 . S
C1858 O1909 1.325 . S
C1859 N1860 1.279 . S
C1859 C1862 1.358 . S
C1859 H1916 0.930 . S
N1860 C1859 1.279 . S
N1860 C1863 1.314 . S
C1861 C1858 1.348 . S
C1861 C1863 1.353 . S
C1861 H1917 0.929 . S
C1862 C1858 1.356 . S
C1862 C1859 1.358 . S
C1862 H1918 0.930 . S
C1863 N1860 1.314 . S
C1863 C1861 1.353 . S
C1863 H1919 0.930 . S
C1864 N1865 1.314 . S
C1864 C1869 1.353 . S
C1864 H1870 0.930 . S
N1865 Li1848 1.990 . S
N1865 C1864 1.314 . S
N1865 C1867 1.279 . S
C1866 C1867 1.358 . S
C1866 C1868 1.356 . S
C1866 H1920 0.930 . S
C1867 N1865 1.279 . S
C1867 C1866 1.358 . S
C1867 H1871 0.930 . S
C1868 C1866 1.356 . S
C1868 C1869 1.348 . S
C1869 C1864 1.353 . S
C1869 C1868 1.348 . S
C1869 H1921 0.929 . S
H1870 C1864 0.930 . S
H1871 C1867 0.930 . S
C1872 N1873 1.314 . S
C1872 C1874 1.353 . S
C1872 H1878 0.930 . S
N1873 Li1849 1.990 . S
N1873 C1872 1.314 . S
N1873 C1876 1.279 . S
C1874 C1872 1.353 . S
C1874 C1877 1.348 . S
C1874 H1922 0.929 . S
C1875 C1876 1.358 . S
C1875 C1877 1.356 . S
C1875 H1923 0.930 . S
C1876 N1873 1.279 . S
C1876 C1875 1.358 . S
C1876 H1879 0.930 . S
C1877 C1874 1.348 . S
C1877 C1875 1.356 . S
H1878 C1872 0.930 . S
H1879 C1876 0.930 . S
C1880 C1882 1.348 . S
C1880 C1883 1.356 . S
C1880 O1910 1.325 . S
N1881 C1884 1.314 . S
N1881 C1885 1.279 . S
C1882 C1880 1.348 . S
C1882 C1884 1.353 . S
C1882 H1924 0.929 . S
C1883 C1880 1.356 . S
C1883 C1885 1.358 . S
C1883 H1925 0.930 . S
C1884 N1881 1.314 . S
C1884 C1882 1.353 . S
C1884 H1926 0.930 . S
C1885 N1881 1.279 . S
C1885 C1883 1.358 . S
C1885 H1927 0.930 . S
C1886 C1887 1.348 . S
C1886 C1888 1.356 . S
C1886 O1911 1.325 . S
C1887 C1886 1.348 . S
C1887 C1889 1.353 . S
C1887 H1928 0.929 . S
C1888 C1886 1.356 . S
C1888 C1890 1.358 . S
C1888 H1929 0.930 . S
C1889 C1887 1.353 . S
C1889 N1891 1.314 . S
C1889 H1930 0.930 . S
C1890 C1888 1.358 . S
C1890 N1891 1.279 . S
C1890 H1931 0.930 . S
N1891 C1889 1.314 . S
N1891 C1890 1.279 . S
C1892 C1894 1.353 . S
C1892 N1895 1.314 . S
C1892 H1898 0.930 . S
C1893 N1895 1.279 . S
C1893 C1896 1.358 . S
C1893 H1899 0.930 . S
C1894 C1892 1.353 . S
C1894 C1897 1.348 . S
C1894 H1932 0.929 . S
N1895 Li1850 1.990 . S
N1895 C1892 1.314 . S
N1895 C1893 1.279 . S
C1896 C1893 1.358 . S
C1896 C1897 1.356 . S
C1896 H1933 0.930 . S
C1897 C1894 1.348 . S
C1897 C1896 1.356 . S
H1898 C1892 0.930 . S
H1899 C1893 0.930 . S
C1900 N1901 1.314 . S
C1900 C1902 1.353 . S
C1900 H1906 0.930 . S
N1901 Li1851 1.990 . S
N1901 C1900 1.314 . S
N1901 C1904 1.279 . S
C1902 C1900 1.353 . S
C1902 C1905 1.348 . S
C1902 H1934 0.929 . S
C1903 C1904 1.358 . S
C1903 C1905 1.356 . S
C1903 H1935 0.930 . S
C1904 N1901 1.279 . S
C1904 C1903 1.358 . S
C1904 H1907 0.930 . S
C1905 C1902 1.348 . S
C1905 C1903 1.356 . S
H1906 C1900 0.930 . S
H1907 C1904 0.930 . S
O1908 Li1848 1.956 . S
O1908 Li1849 1.970 . S
O1908 Li1850 1.961 . S
O1908 C1852 1.325 . S
O1909 Li1848 1.970 . S
O1909 Li1849 1.956 . S
O1909 Li1851 1.961 . S
O1909 C1858 1.325 . S
O1910 Li1848 1.961 . S
O1910 Li1850 1.956 . S
O1910 Li1851 1.970 . S
O1910 C1880 1.325 . S
O1911 Li1849 1.961 . S
O1911 Li1850 1.970 . S
O1911 Li1851 1.956 . S
O1911 C1886 1.325 . S
H1912 C1854 0.929 . S
H1913 C1855 0.930 . S
H1914 C1856 0.930 . S
H1915 C1857 0.930 . S
H1916 C1859 0.930 . S
H1917 C1861 0.929 . S
H1918 C1862 0.930 . S
H1919 C1863 0.930 . S
H1920 C1866 0.930 . S
H1921 C1869 0.929 . S
H1922 C1874 0.929 . S
H1923 C1875 0.930 . S
H1924 C1882 0.929 . S
H1925 C1883 0.930 . S
H1926 C1884 0.930 . S
H1927 C1885 0.930 . S
H1928 C1887 0.929 . S
H1929 C1888 0.930 . S
H1930 C1889 0.930 . S
H1931 C1890 0.930 . S
H1932 C1894 0.929 . S
H1933 C1896 0.930 . S
H1934 C1902 0.929 . S
H1935 C1903 0.930 . S
Li1936 N1953 1.990 . S
Li1936 O1996 1.956 . S
Li1936 O1997 1.970 . S
Li1936 O1998 1.961 . S
Li1937 N1961 1.990 . S
Li1937 O1996 1.970 . S
Li1937 O1997 1.956 . S
Li1937 O1999 1.961 . S
Li1938 N1983 1.990 . S
Li1938 O1996 1.961 . S
Li1938 O1998 1.956 . S
Li1938 O1999 1.970 . S
Li1939 N1989 1.990 . S
Li1939 O1997 1.961 . S
Li1939 O1998 1.970 . S
Li1939 O1999 1.956 . S
C1940 C1942 1.348 . S
C1940 C1943 1.356 . S
C1940 O1996 1.325 . S
N1941 C1944 1.314 . S
N1941 C1945 1.279 . S
C1942 C1940 1.348 . S
C1942 C1944 1.353 . S
C1942 H2000 0.929 . S
C1943 C1940 1.356 . S
C1943 C1945 1.358 . S
C1943 H2001 0.930 . S
C1944 N1941 1.314 . S
C1944 C1942 1.353 . S
C1944 H2002 0.930 . S
C1945 N1941 1.279 . S
C1945 C1943 1.358 . S
C1945 H2003 0.930 . S
C1946 C1949 1.348 . S
C1946 C1950 1.356 . S
C1946 O1997 1.325 . S
C1947 N1948 1.279 . S
C1947 C1950 1.358 . S
C1947 H2004 0.930 . S
N1948 C1947 1.279 . S
N1948 C1951 1.314 . S
C1949 C1946 1.348 . S
C1949 C1951 1.353 . S
C1949 H2005 0.929 . S
C1950 C1946 1.356 . S
C1950 C1947 1.358 . S
C1950 H2006 0.930 . S
C1951 N1948 1.314 . S
C1951 C1949 1.353 . S
C1951 H2007 0.930 . S
C1952 N1953 1.314 . S
C1952 C1957 1.353 . S
C1952 H1958 0.930 . S
N1953 Li1936 1.990 . S
N1953 C1952 1.314 . S
N1953 C1955 1.279 . S
C1954 C1955 1.358 . S
C1954 C1956 1.356 . S
C1954 H2008 0.930 . S
C1955 N1953 1.279 . S
C1955 C1954 1.358 . S
C1955 H1959 0.930 . S
C1956 C1954 1.356 . S
C1956 C1957 1.348 . S
C1957 C1952 1.353 . S
C1957 C1956 1.348 . S
C1957 H2009 0.929 . S
H1958 C1952 0.930 . S
H1959 C1955 0.930 . S
C1960 N1961 1.314 . S
C1960 C1962 1.353 . S
C1960 H1966 0.930 . S
N1961 Li1937 1.990 . S
N1961 C1960 1.314 . S
N1961 C1964 1.279 . S
C1962 C1960 1.353 . S
C1962 C1965 1.348 . S
C1962 H2010 0.929 . S
C1963 C1964 1.358 . S
C1963 C1965 1.356 . S
C1963 H2011 0.930 . S
C1964 N1961 1.279 . S
C1964 C1963 1.358 . S
C1964 H1967 0.930 . S
C1965 C1962 1.348 . S
C1965 C1963 1.356 . S
H1966 C1960 0.930 . S
H1967 C1964 0.930 . S
C1968 C1970 1.348 . S
C1968 C1971 1.356 . S
C1968 O1998 1.325 . S
N1969 C1972 1.314 . S
N1969 C1973 1.279 . S
C1970 C1968 1.348 . S
C1970 C1972 1.353 . S
C1970 H2012 0.929 . S
C1971 C1968 1.356 . S
C1971 C1973 1.358 . S
C1971 H2013 0.930 . S
C1972 N1969 1.314 . S
C1972 C1970 1.353 . S
C1972 H2014 0.930 . S
C1973 N1969 1.279 . S
C1973 C1971 1.358 . S
C1973 H2015 0.930 . S
C1974 C1975 1.348 . S
C1974 C1976 1.356 . S
C1974 O1999 1.325 . S
C1975 C1974 1.348 . S
C1975 C1977 1.353 . S
C1975 H2016 0.929 . S
C1976 C1974 1.356 . S
C1976 C1978 1.358 . S
C1976 H2017 0.930 . S
C1977 C1975 1.353 . S
C1977 N1979 1.314 . S
C1977 H2018 0.930 . S
C1978 C1976 1.358 . S
C1978 N1979 1.279 . S
C1978 H2019 0.930 . S
N1979 C1977 1.314 . S
N1979 C1978 1.279 . S
C1980 C1982 1.353 . S
C1980 N1983 1.314 . S
C1980 H1986 0.930 . S
C1981 N1983 1.279 . S
C1981 C1984 1.358 . S
C1981 H1987 0.930 . S
C1982 C1980 1.353 . S
C1982 C1985 1.348 . S
C1982 H2020 0.929 . S
N1983 Li1938 1.990 . S
N1983 C1980 1.314 . S
N1983 C1981 1.279 . S
C1984 C1981 1.358 . S
C1984 C1985 1.356 . S
C1984 H2021 0.930 . S
C1985 C1982 1.348 . S
C1985 C1984 1.356 . S
H1986 C1980 0.930 . S
H1987 C1981 0.930 . S
C1988 N1989 1.314 . S
C1988 C1990 1.353 . S
C1988 H1994 0.930 . S
N1989 Li1939 1.990 . S
N1989 C1988 1.314 . S
N1989 C1992 1.279 . S
C1990 C1988 1.353 . S
C1990 C1993 1.348 . S
C1990 H2022 0.929 . S
C1991 C1992 1.358 . S
C1991 C1993 1.356 . S
C1991 H2023 0.930 . S
C1992 N1989 1.279 . S
C1992 C1991 1.358 . S
C1992 H1995 0.930 . S
C1993 C1990 1.348 . S
C1993 C1991 1.356 . S
H1994 C1988 0.930 . S
H1995 C1992 0.930 . S
O1996 Li1936 1.956 . S
O1996 Li1937 1.970 . S
O1996 Li1938 1.961 . S
O1996 C1940 1.325 . S
O1997 Li1936 1.970 . S
O1997 Li1937 1.956 . S
O1997 Li1939 1.961 . S
O1997 C1946 1.325 . S
O1998 Li1936 1.961 . S
O1998 Li1938 1.956 . S
O1998 Li1939 1.970 . S
O1998 C1968 1.325 . S
O1999 Li1937 1.961 . S
O1999 Li1938 1.970 . S
O1999 Li1939 1.956 . S
O1999 C1974 1.325 . S
H2000 C1942 0.929 . S
H2001 C1943 0.930 . S
H2002 C1944 0.930 . S
H2003 C1945 0.930 . S
H2004 C1947 0.930 . S
H2005 C1949 0.929 . S
H2006 C1950 0.930 . S
H2007 C1951 0.930 . S
H2008 C1954 0.930 . S
H2009 C1957 0.929 . S
H2010 C1962 0.929 . S
H2011 C1963 0.930 . S
H2012 C1970 0.929 . S
H2013 C1971 0.930 . S
H2014 C1972 0.930 . S
H2015 C1973 0.930 . S
H2016 C1975 0.929 . S
H2017 C1976 0.930 . S
H2018 C1977 0.930 . S
H2019 C1978 0.930 . S
H2020 C1982 0.929 . S
H2021 C1984 0.930 . S
H2022 C1990 0.929 . S
H2023 C1991 0.930 . S
Li2024 N2041 1.990 . S
Li2024 O2084 1.956 . S
Li2024 O2085 1.970 . S
Li2024 O2086 1.961 . S
Li2025 N2049 1.990 . S
Li2025 O2084 1.970 . S
Li2025 O2085 1.956 . S
Li2025 O2087 1.961 . S
Li2026 N2071 1.990 . S
Li2026 O2084 1.961 . S
Li2026 O2086 1.956 . S
Li2026 O2087 1.970 . S
Li2027 N2077 1.990 . S
Li2027 O2085 1.961 . S
Li2027 O2086 1.970 . S
Li2027 O2087 1.956 . S
C2028 C2030 1.348 . S
C2028 C2031 1.356 . S
C2028 O2084 1.325 . S
N2029 C2032 1.314 . S
N2029 C2033 1.279 . S
C2030 C2028 1.348 . S
C2030 C2032 1.353 . S
C2030 H2088 0.929 . S
C2031 C2028 1.356 . S
C2031 C2033 1.358 . S
C2031 H2089 0.930 . S
C2032 N2029 1.314 . S
C2032 C2030 1.353 . S
C2032 H2090 0.930 . S
C2033 N2029 1.279 . S
C2033 C2031 1.358 . S
C2033 H2091 0.930 . S
C2034 C2037 1.348 . S
C2034 C2038 1.356 . S
C2034 O2085 1.325 . S
C2035 N2036 1.279 . S
C2035 C2038 1.358 . S
C2035 H2092 0.930 . S
N2036 C2035 1.279 . S
N2036 C2039 1.314 . S
C2037 C2034 1.348 . S
C2037 C2039 1.353 . S
C2037 H2093 0.929 . S
C2038 C2034 1.356 . S
C2038 C2035 1.358 . S
C2038 H2094 0.930 . S
C2039 N2036 1.314 . S
C2039 C2037 1.353 . S
C2039 H2095 0.930 . S
C2040 N2041 1.314 . S
C2040 C2045 1.353 . S
C2040 H2046 0.930 . S
N2041 Li2024 1.990 . S
N2041 C2040 1.314 . S
N2041 C2043 1.279 . S
C2042 C2043 1.358 . S
C2042 C2044 1.356 . S
C2042 H2096 0.930 . S
C2043 N2041 1.279 . S
C2043 C2042 1.358 . S
C2043 H2047 0.930 . S
C2044 C2042 1.356 . S
C2044 C2045 1.348 . S
C2045 C2040 1.353 . S
C2045 C2044 1.348 . S
C2045 H2097 0.929 . S
H2046 C2040 0.930 . S
H2047 C2043 0.930 . S
C2048 N2049 1.314 . S
C2048 C2050 1.353 . S
C2048 H2054 0.930 . S
N2049 Li2025 1.990 . S
N2049 C2048 1.314 . S
N2049 C2052 1.279 . S
C2050 C2048 1.353 . S
C2050 C2053 1.348 . S
C2050 H2098 0.929 . S
C2051 C2052 1.358 . S
C2051 C2053 1.356 . S
C2051 H2099 0.930 . S
C2052 N2049 1.279 . S
C2052 C2051 1.358 . S
C2052 H2055 0.930 . S
C2053 C2050 1.348 . S
C2053 C2051 1.356 . S
H2054 C2048 0.930 . S
H2055 C2052 0.930 . S
C2056 C2058 1.348 . S
C2056 C2059 1.356 . S
C2056 O2086 1.325 . S
N2057 C2060 1.314 . S
N2057 C2061 1.279 . S
C2058 C2056 1.348 . S
C2058 C2060 1.353 . S
C2058 H2100 0.929 . S
C2059 C2056 1.356 . S
C2059 C2061 1.358 . S
C2059 H2101 0.930 . S
C2060 N2057 1.314 . S
C2060 C2058 1.353 . S
C2060 H2102 0.930 . S
C2061 N2057 1.279 . S
C2061 C2059 1.358 . S
C2061 H2103 0.930 . S
C2062 C2063 1.348 . S
C2062 C2064 1.356 . S
C2062 O2087 1.325 . S
C2063 C2062 1.348 . S
C2063 C2065 1.353 . S
C2063 H2104 0.929 . S
C2064 C2062 1.356 . S
C2064 C2066 1.358 . S
C2064 H2105 0.930 . S
C2065 C2063 1.353 . S
C2065 N2067 1.314 . S
C2065 H2106 0.930 . S
C2066 C2064 1.358 . S
C2066 N2067 1.279 . S
C2066 H2107 0.930 . S
N2067 C2065 1.314 . S
N2067 C2066 1.279 . S
C2068 C2070 1.353 . S
C2068 N2071 1.314 . S
C2068 H2074 0.930 . S
C2069 N2071 1.279 . S
C2069 C2072 1.358 . S
C2069 H2075 0.930 . S
C2070 C2068 1.353 . S
C2070 C2073 1.348 . S
C2070 H2108 0.929 . S
N2071 Li2026 1.990 . S
N2071 C2068 1.314 . S
N2071 C2069 1.279 . S
C2072 C2069 1.358 . S
C2072 C2073 1.356 . S
C2072 H2109 0.930 . S
C2073 C2070 1.348 . S
C2073 C2072 1.356 . S
H2074 C2068 0.930 . S
H2075 C2069 0.930 . S
C2076 N2077 1.314 . S
C2076 C2078 1.353 . S
C2076 H2082 0.930 . S
N2077 Li2027 1.990 . S
N2077 C2076 1.314 . S
N2077 C2080 1.279 . S
C2078 C2076 1.353 . S
C2078 C2081 1.348 . S
C2078 H2110 0.929 . S
C2079 C2080 1.358 . S
C2079 C2081 1.356 . S
C2079 H2111 0.930 . S
C2080 N2077 1.279 . S
C2080 C2079 1.358 . S
C2080 H2083 0.930 . S
C2081 C2078 1.348 . S
C2081 C2079 1.356 . S
H2082 C2076 0.930 . S
H2083 C2080 0.930 . S
O2084 Li2024 1.956 . S
O2084 Li2025 1.970 . S
O2084 Li2026 1.961 . S
O2084 C2028 1.325 . S
O2085 Li2024 1.970 . S
O2085 Li2025 1.956 . S
O2085 Li2027 1.961 . S
O2085 C2034 1.325 . S
O2086 Li2024 1.961 . S
O2086 Li2026 1.956 . S
O2086 Li2027 1.970 . S
O2086 C2056 1.325 . S
O2087 Li2025 1.961 . S
O2087 Li2026 1.970 . S
O2087 Li2027 1.956 . S
O2087 C2062 1.325 . S
H2088 C2030 0.929 . S
H2089 C2031 0.930 . S
H2090 C2032 0.930 . S
H2091 C2033 0.930 . S
H2092 C2035 0.930 . S
H2093 C2037 0.929 . S
H2094 C2038 0.930 . S
H2095 C2039 0.930 . S
H2096 C2042 0.930 . S
H2097 C2045 0.929 . S
H2098 C2050 0.929 . S
H2099 C2051 0.930 . S
H2100 C2058 0.929 . S
H2101 C2059 0.930 . S
H2102 C2060 0.930 . S
H2103 C2061 0.930 . S
H2104 C2063 0.929 . S
H2105 C2064 0.930 . S
H2106 C2065 0.930 . S
H2107 C2066 0.930 . S
H2108 C2070 0.929 . S
H2109 C2072 0.930 . S
H2110 C2078 0.929 . S
H2111 C2079 0.930 . S
H2112 C2124 0.930 . S
H2113 C2126 0.930 . S
H2114 C2127 0.930 . S
H2115 C2131 0.959 . S
H2116 C2131 0.959 . S
H2117 C2131 0.961 1_545 S
H2118 C2132 0.960 . S
H2119 C2132 0.961 . S
H2120 C2132 0.959 . S
H2121 C2135 0.929 . S
H2122 C2136 0.931 . S
H2123 C2138 0.930 . S
C2124 H2112 0.930 . S
C2124 C2125 1.399 . S
C2124 C2129 1.399 . S
C2125 C2124 1.399 . S
C2125 C2126 1.376 . S
C2126 H2113 0.930 . S
C2126 C2125 1.376 . S
C2126 C2127 1.388 . S
C2127 H2114 0.930 . S
C2127 C2126 1.388 . S
C2127 C2128 1.390 . S
C2128 C2127 1.390 . S
C2128 C2129 1.394 . S
C2128 C2134 1.465 1_545 S
C2129 C2124 1.399 . S
C2129 C2128 1.394 . S
C2129 C2130 1.516 1_545 S
C2130 C2129 1.516 1_565 S
C2130 C2131 1.502 . S
C2130 C2132 1.561 . S
C2130 C2133 1.526 . S
C2131 H2115 0.959 . S
C2131 H2116 0.959 . S
C2131 H2117 0.961 1_565 S
C2131 C2130 1.502 . S
C2132 H2118 0.960 . S
C2132 H2119 0.961 . S
C2132 H2120 0.959 . S
C2132 C2130 1.561 . S
C2133 C2130 1.526 . S
C2133 C2134 1.396 . S
C2133 C2138 1.390 . S
C2134 C2128 1.465 1_565 S
C2134 C2133 1.396 . S
C2134 C2135 1.399 . S
C2135 H2121 0.929 . S
C2135 C2134 1.399 . S
C2135 C2136 1.385 . S
C2136 H2122 0.931 . S
C2136 C2135 1.385 . S
C2136 C2137 1.389 . S
C2137 C2136 1.389 . S
C2137 C2138 1.387 . S
C2138 H2123 0.930 . S
C2138 C2133 1.390 . S
C2138 C2137 1.387 . S
H2139 C2151 0.930 . S
H2140 C2153 0.930 . S
H2141 C2154 0.930 . S
H2142 C2158 0.959 . S
H2143 C2158 0.959 . S
H2144 C2158 0.961 . S
H2145 C2159 0.960 . S
H2146 C2159 0.961 . S
H2147 C2159 0.959 . S
H2148 C2162 0.929 . S
H2149 C2163 0.931 . S
H2150 C2165 0.930 . S
C2151 H2139 0.930 . S
C2151 C2152 1.399 . S
C2151 C2156 1.399 . S
C2152 C2151 1.399 . S
C2152 C2153 1.376 . S
C2153 H2140 0.930 . S
C2153 C2152 1.376 . S
C2153 C2154 1.388 . S
C2154 H2141 0.930 . S
C2154 C2153 1.388 . S
C2154 C2155 1.390 . S
C2155 C2154 1.390 . S
C2155 C2156 1.394 . S
C2155 C2161 1.465 . S
C2156 C2151 1.399 . S
C2156 C2155 1.394 . S
C2156 C2157 1.516 . S
C2157 C2156 1.516 . S
C2157 C2158 1.502 . S
C2157 C2159 1.561 . S
C2157 C2160 1.526 . S
C2158 H2142 0.959 . S
C2158 H2143 0.959 . S
C2158 H2144 0.961 . S
C2158 C2157 1.502 . S
C2159 H2145 0.960 . S
C2159 H2146 0.961 . S
C2159 H2147 0.959 . S
C2159 C2157 1.561 . S
C2160 C2157 1.526 . S
C2160 C2161 1.396 . S
C2160 C2165 1.390 . S
C2161 C2155 1.465 . S
C2161 C2160 1.396 . S
C2161 C2162 1.399 . S
C2162 H2148 0.929 . S
C2162 C2161 1.399 . S
C2162 C2163 1.385 . S
C2163 H2149 0.931 . S
C2163 C2162 1.385 . S
C2163 C2164 1.389 . S
C2164 C2163 1.389 . S
C2164 C2165 1.387 . S
C2165 H2150 0.930 . S
C2165 C2160 1.390 . S
C2165 C2164 1.387 . S
H2166 C2178 0.930 . S
H2167 C2180 0.930 . S
H2168 C2181 0.930 . S
H2169 C2185 0.959 1_455 S
H2170 C2185 0.959 1_455 S
H2171 C2185 0.961 . S
H2172 C2186 0.960 . S
H2173 C2186 0.961 . S
H2174 C2186 0.959 . S
H2175 C2189 0.929 . S
H2176 C2190 0.931 . S
H2177 C2192 0.930 . S
C2178 H2166 0.930 . S
C2178 C2179 1.399 . S
C2178 C2183 1.399 . S
C2179 C2178 1.399 . S
C2179 C2180 1.376 . S
C2180 H2167 0.930 . S
C2180 C2179 1.376 . S
C2180 C2181 1.388 . S
C2181 H2168 0.930 . S
C2181 C2180 1.388 . S
C2181 C2182 1.390 . S
C2182 C2181 1.390 . S
C2182 C2183 1.394 . S
C2182 C2188 1.465 1_655 S
C2183 C2178 1.399 . S
C2183 C2182 1.394 . S
C2183 C2184 1.516 . S
C2184 C2183 1.516 . S
C2184 C2185 1.502 . S
C2184 C2186 1.561 . S
C2184 C2187 1.526 1_655 S
C2185 H2169 0.959 1_655 S
C2185 H2170 0.959 1_655 S
C2185 H2171 0.961 . S
C2185 C2184 1.502 . S
C2186 H2172 0.960 . S
C2186 H2173 0.961 . S
C2186 H2174 0.959 . S
C2186 C2184 1.561 . S
C2187 C2184 1.526 1_455 S
C2187 C2188 1.396 . S
C2187 C2192 1.390 . S
C2188 C2182 1.465 1_455 S
C2188 C2187 1.396 . S
C2188 C2189 1.399 . S
C2189 H2175 0.929 . S
C2189 C2188 1.399 . S
C2189 C2190 1.385 . S
C2190 H2176 0.931 . S
C2190 C2189 1.385 . S
C2190 C2191 1.389 . S
C2191 C2190 1.389 . S
C2191 C2192 1.387 . S
C2192 H2177 0.930 . S
C2192 C2187 1.390 . S
C2192 C2191 1.387 . S
H2193 C2205 0.930 . S
H2194 C2207 0.930 . S
H2195 C2208 0.930 . S
H2196 C2212 0.959 . S
H2197 C2212 1.001 . S
H2198 C2212 0.961 . S
H2199 C2213 0.960 . S
H2200 C2213 0.961 . S
H2201 C2213 0.959 . S
H2202 C2216 0.929 . S
H2203 C2217 0.931 . S
H2204 C2219 0.930 . S
C2205 H2193 0.930 . S
C2205 C2206 1.399 . S
C2205 C2210 1.399 . S
C2206 C2205 1.399 . S
C2206 C2207 1.376 . S
C2207 H2194 0.930 . S
C2207 C2206 1.376 . S
C2207 C2208 1.388 . S
C2208 H2195 0.930 . S
C2208 C2207 1.388 . S
C2208 C2209 1.390 . S
C2209 C2208 1.390 . S
C2209 C2210 1.394 . S
C2209 C2215 1.465 1_565 S
C2210 C2205 1.399 . S
C2210 C2209 1.394 . S
C2210 C2211 1.516 . S
C2211 C2210 1.516 . S
C2211 C2212 1.502 . S
C2211 C2213 1.561 . S
C2211 C2214 1.526 1_565 S
C2212 H2196 0.959 . S
C2212 H2197 1.001 . S
C2212 H2198 0.961 . S
C2212 C2211 1.502 . S
C2213 H2199 0.960 . S
C2213 H2200 0.961 . S
C2213 H2201 0.959 . S
C2213 C2211 1.561 . S
C2214 C2211 1.526 1_545 S
C2214 C2215 1.396 . S
C2214 C2219 1.390 . S
C2215 C2209 1.465 1_545 S
C2215 C2214 1.396 . S
C2215 C2216 1.399 . S
C2216 H2202 0.929 . S
C2216 C2215 1.399 . S
C2216 C2217 1.385 . S
C2217 H2203 0.931 . S
C2217 C2216 1.385 . S
C2217 C2218 1.389 . S
C2218 C2217 1.389 . S
C2218 C2219 1.387 . S
C2219 H2204 0.930 . S
C2219 C2214 1.390 . S
C2219 C2218 1.387 . S
H2220 C2232 0.930 . S
H2221 C2234 0.930 . S
H2222 C2235 0.930 . S
H2223 C2239 0.959 . S
H2224 C2239 0.959 . S
H2225 C2239 0.961 . S
H2226 C2240 0.960 . S
H2227 C2240 0.961 . S
H2228 C2240 0.959 . S
H2229 C2243 0.929 . S
H2230 C2244 0.931 . S
H2231 C2246 0.930 . S
C2232 H2220 0.930 . S
C2232 C2233 1.399 . S
C2232 C2237 1.399 . S
C2233 C2232 1.399 . S
C2233 C2234 1.376 . S
C2234 H2221 0.930 . S
C2234 C2233 1.376 . S
C2234 C2235 1.388 . S
C2235 H2222 0.930 . S
C2235 C2234 1.388 . S
C2235 C2236 1.390 . S
C2236 C2235 1.390 . S
C2236 C2237 1.394 . S
C2236 C2242 1.465 . S
C2237 C2232 1.399 . S
C2237 C2236 1.394 . S
C2237 C2238 1.516 . S
C2238 C2237 1.516 . S
C2238 C2239 1.502 . S
C2238 C2240 1.561 . S
C2238 C2241 1.526 . S
C2239 H2223 0.959 . S
C2239 H2224 0.959 . S
C2239 H2225 0.961 . S
C2239 C2238 1.502 . S
C2240 H2226 0.960 . S
C2240 H2227 0.961 . S
C2240 H2228 0.959 . S
C2240 C2238 1.561 . S
C2241 C2238 1.526 . S
C2241 C2242 1.396 . S
C2241 C2246 1.390 . S
C2242 C2236 1.465 . S
C2242 C2241 1.396 . S
C2242 C2243 1.399 . S
C2243 H2229 0.929 . S
C2243 C2242 1.399 . S
C2243 C2244 1.385 . S
C2244 H2230 0.931 . S
C2244 C2243 1.385 . S
C2244 C2245 1.389 . S
C2245 C2244 1.389 . S
C2245 C2246 1.387 . S
C2246 H2231 0.930 . S
C2246 C2241 1.390 . S
C2246 C2245 1.387 . S
H2247 C2259 0.930 . S
H2248 C2261 0.930 . S
H2249 C2262 0.930 . S
H2250 C2266 0.959 . S
H2251 C2266 0.959 . S
H2252 C2266 0.961 . S
H2253 C2267 0.960 . S
H2254 C2267 0.961 1_655 S
H2255 C2267 0.981 . S
H2256 C2270 0.929 . S
H2257 C2271 0.931 . S
H2258 C2273 0.930 . S
C2259 H2247 0.930 . S
C2259 C2260 1.399 . S
C2259 C2264 1.399 . S
C2260 C2259 1.399 . S
C2260 C2261 1.376 . S
C2261 H2248 0.930 . S
C2261 C2260 1.376 . S
C2261 C2262 1.388 . S
C2262 H2249 0.930 . S
C2262 C2261 1.388 . S
C2262 C2263 1.390 . S
C2263 C2262 1.390 . S
C2263 C2264 1.394 . S
C2263 C2269 1.465 1_455 S
C2264 C2259 1.399 . S
C2264 C2263 1.394 . S
C2264 C2265 1.516 . S
C2265 C2264 1.516 . S
C2265 C2266 1.502 . S
C2265 C2267 1.561 . S
C2265 C2268 1.526 1_455 S
C2266 H2250 0.959 . S
C2266 H2251 0.959 . S
C2266 H2252 0.961 . S
C2266 C2265 1.502 . S
C2267 H2253 0.960 . S
C2267 H2254 0.961 1_455 S
C2267 H2255 0.981 . S
C2267 C2265 1.561 . S
C2268 C2265 1.526 1_655 S
C2268 C2269 1.396 . S
C2268 C2273 1.390 . S
C2269 C2263 1.465 1_655 S
C2269 C2268 1.396 . S
C2269 C2270 1.399 . S
C2270 H2256 0.929 . S
C2270 C2269 1.399 . S
C2270 C2271 1.385 . S
C2271 H2257 0.931 . S
C2271 C2270 1.385 . S
C2271 C2272 1.389 . S
C2272 C2271 1.389 . S
C2272 C2273 1.387 . S
C2273 H2258 0.930 . S
C2273 C2268 1.390 . S
C2273 C2272 1.387 . S
H2274 C2286 0.930 . S
H2275 C2288 0.930 . S
H2276 C2289 0.930 . S
H2277 C2293 0.959 1_545 S
H2278 C2293 0.959 1_545 S
H2279 C2293 0.961 . S
H2280 C2294 0.960 . S
H2281 C2294 0.961 . S
H2282 C2294 0.959 . S
H2283 C2297 0.929 . S
H2284 C2298 0.931 . S
H2285 C2300 0.930 . S
C2286 H2274 0.930 . S
C2286 C2287 1.399 . S
C2286 C2291 1.399 . S
C2287 C2286 1.399 . S
C2287 C2288 1.376 . S
C2288 H2275 0.930 . S
C2288 C2287 1.376 . S
C2288 C2289 1.388 . S
C2289 H2276 0.930 . S
C2289 C2288 1.388 . S
C2289 C2290 1.390 . S
C2290 C2289 1.390 . S
C2290 C2291 1.394 . S
C2290 C2296 1.465 1_565 S
C2291 C2286 1.399 . S
C2291 C2290 1.394 . S
C2291 C2292 1.516 . S
C2292 C2291 1.516 . S
C2292 C2293 1.502 . S
C2292 C2294 1.561 . S
C2292 C2295 1.526 1_565 S
C2293 H2277 0.959 1_565 S
C2293 H2278 0.959 1_565 S
C2293 H2279 0.961 . S
C2293 C2292 1.502 . S
C2294 H2280 0.960 . S
C2294 H2281 0.961 . S
C2294 H2282 0.959 . S
C2294 C2292 1.561 . S
C2295 C2292 1.526 1_545 S
C2295 C2296 1.396 . S
C2295 C2300 1.390 . S
C2296 C2290 1.465 1_545 S
C2296 C2295 1.396 . S
C2296 C2297 1.399 . S
C2297 H2283 0.929 . S
C2297 C2296 1.399 . S
C2297 C2298 1.385 . S
C2298 H2284 0.931 . S
C2298 C2297 1.385 . S
C2298 C2299 1.389 . S
C2299 C2298 1.389 . S
C2299 C2300 1.387 . S
C2300 H2285 0.930 . S
C2300 C2295 1.390 . S
C2300 C2299 1.387 . S
H2301 C2313 0.930 . S
H2302 C2315 0.930 . S
H2303 C2316 0.930 . S
H2304 C2320 0.959 . S
H2305 C2320 0.959 . S
H2306 C2320 0.961 . S
H2307 C2321 0.960 . S
H2308 C2321 0.961 . S
H2309 C2321 0.959 . S
H2310 C2324 0.929 . S
H2311 C2325 0.931 . S
H2312 C2327 0.930 . S
C2313 H2301 0.930 . S
C2313 C2314 1.399 . S
C2313 C2318 1.399 . S
C2314 C2313 1.399 . S
C2314 C2315 1.376 . S
C2315 H2302 0.930 . S
C2315 C2314 1.376 . S
C2315 C2316 1.388 . S
C2316 H2303 0.930 . S
C2316 C2315 1.388 . S
C2316 C2317 1.390 . S
C2317 C2316 1.390 . S
C2317 C2318 1.394 . S
C2317 C2323 1.465 . S
C2318 C2313 1.399 . S
C2318 C2317 1.394 . S
C2318 C2319 1.516 . S
C2319 C2318 1.516 . S
C2319 C2320 1.502 . S
C2319 C2321 1.561 . S
C2319 C2322 1.526 . S
C2320 H2304 0.959 . S
C2320 H2305 0.959 . S
C2320 H2306 0.961 . S
C2320 C2319 1.502 . S
C2321 H2307 0.960 . S
C2321 H2308 0.961 . S
C2321 H2309 0.959 . S
C2321 C2319 1.561 . S
C2322 C2319 1.526 . S
C2322 C2323 1.396 . S
C2322 C2327 1.390 . S
C2323 C2317 1.465 . S
C2323 C2322 1.396 . S
C2323 C2324 1.399 . S
C2324 H2310 0.929 . S
C2324 C2323 1.399 . S
C2324 C2325 1.385 . S
C2325 H2311 0.931 . S
C2325 C2324 1.385 . S
C2325 C2326 1.389 . S
C2326 C2325 1.389 . S
C2326 C2327 1.387 . S
C2327 H2312 0.930 . S
C2327 C2322 1.390 . S
C2327 C2326 1.387 . S
H2328 C2340 0.930 . S
H2329 C2342 0.930 . S
H2330 C2343 0.930 . S
H2331 C2347 0.959 . S
H2332 C2347 0.987 . S
H2333 C2347 0.961 . S
H2334 C2348 0.960 . S
H2335 C2348 0.961 . S
H2336 C2348 0.959 . S
H2337 C2351 0.929 . S
H2338 C2352 0.931 . S
H2339 C2354 0.930 . S
C2340 H2328 0.930 . S
C2340 C2341 1.399 . S
C2340 C2345 1.399 . S
C2341 C2340 1.399 . S
C2341 C2342 1.376 . S
C2342 H2329 0.930 . S
C2342 C2341 1.376 . S
C2342 C2343 1.388 . S
C2343 H2330 0.930 . S
C2343 C2342 1.388 . S
C2343 C2344 1.390 . S
C2344 C2343 1.390 . S
C2344 C2345 1.394 . S
C2344 C2350 1.465 1_655 S
C2345 C2340 1.399 . S
C2345 C2344 1.394 . S
C2345 C2346 1.516 . S
C2346 C2345 1.516 . S
C2346 C2347 1.502 . S
C2346 C2348 1.561 . S
C2346 C2349 1.526 1_655 S
C2347 H2331 0.959 . S
C2347 H2332 0.987 . S
C2347 H2333 0.961 . S
C2347 C2346 1.502 . S
C2348 H2334 0.960 . S
C2348 H2335 0.961 . S
C2348 H2336 0.959 . S
C2348 C2346 1.561 . S
C2349 C2346 1.526 1_455 S
C2349 C2350 1.396 . S
C2349 C2354 1.390 . S
C2350 C2344 1.465 1_455 S
C2350 C2349 1.396 . S
C2350 C2351 1.399 . S
C2351 H2337 0.929 . S
C2351 C2350 1.399 . S
C2351 C2352 1.385 . S
C2352 H2338 0.931 . S
C2352 C2351 1.385 . S
C2352 C2353 1.389 . S
C2353 C2352 1.389 . S
C2353 C2354 1.387 . S
C2354 H2339 0.930 . S
C2354 C2349 1.390 . S
C2354 C2353 1.387 . S
H2355 C2367 0.930 . S
H2356 C2369 0.930 . S
H2357 C2370 0.930 . S
H2358 C2374 0.959 . S
H2359 C2374 0.959 . S
H2360 C2374 0.961 . S
H2361 C2375 0.960 . S
H2362 C2375 0.961 . S
H2363 C2375 0.959 . S
H2364 C2378 0.929 . S
H2365 C2379 0.931 . S
H2366 C2381 0.930 . S
C2367 H2355 0.930 . S
C2367 C2368 1.399 . S
C2367 C2372 1.399 . S
C2368 C2367 1.399 . S
C2368 C2369 1.376 . S
C2369 H2356 0.930 . S
C2369 C2368 1.376 . S
C2369 C2370 1.388 . S
C2370 H2357 0.930 . S
C2370 C2369 1.388 . S
C2370 C2371 1.390 . S
C2371 C2370 1.390 . S
C2371 C2372 1.394 . S
C2371 C2377 1.465 1_545 S
C2372 C2367 1.399 . S
C2372 C2371 1.394 . S
C2372 C2373 1.516 . S
C2373 C2372 1.516 . S
C2373 C2374 1.502 . S
C2373 C2375 1.561 . S
C2373 C2376 1.526 1_545 S
C2374 H2358 0.959 . S
C2374 H2359 0.959 . S
C2374 H2360 0.961 . S
C2374 C2373 1.502 . S
C2375 H2361 0.960 . S
C2375 H2362 0.961 . S
C2375 H2363 0.959 . S
C2375 C2373 1.561 . S
C2376 C2373 1.526 1_565 S
C2376 C2377 1.396 . S
C2376 C2381 1.390 . S
C2377 C2371 1.465 1_565 S
C2377 C2376 1.396 . S
C2377 C2378 1.399 . S
C2378 H2364 0.929 . S
C2378 C2377 1.399 . S
C2378 C2379 1.385 . S
C2379 H2365 0.931 . S
C2379 C2378 1.385 . S
C2379 C2380 1.389 . S
C2380 C2379 1.389 . S
C2380 C2381 1.387 . S
C2381 H2366 0.930 . S
C2381 C2376 1.390 . S
C2381 C2380 1.387 . S
H2382 C2394 0.930 . S
H2383 C2396 0.930 . S
H2384 C2397 0.930 . S
H2385 C2401 0.959 . S
H2386 C2401 0.959 . S
H2387 C2401 0.961 . S
H2388 C2402 0.960 . S
H2389 C2402 0.961 . S
H2390 C2402 0.959 . S
H2391 C2405 0.929 . S
H2392 C2406 0.931 . S
H2393 C2408 0.930 . S
C2394 H2382 0.930 . S
C2394 C2395 1.399 . S
C2394 C2399 1.399 . S
C2395 C2394 1.399 . S
C2395 C2396 1.376 . S
C2396 H2383 0.930 . S
C2396 C2395 1.376 . S
C2396 C2397 1.388 . S
C2397 H2384 0.930 . S
C2397 C2396 1.388 . S
C2397 C2398 1.390 . S
C2398 C2397 1.390 . S
C2398 C2399 1.394 . S
C2398 C2404 1.465 . S
C2399 C2394 1.399 . S
C2399 C2398 1.394 . S
C2399 C2400 1.516 . S
C2400 C2399 1.516 . S
C2400 C2401 1.502 . S
C2400 C2402 1.561 . S
C2400 C2403 1.526 . S
C2401 H2385 0.959 . S
C2401 H2386 0.959 . S
C2401 H2387 0.961 . S
C2401 C2400 1.502 . S
C2402 H2388 0.960 . S
C2402 H2389 0.961 . S
C2402 H2390 0.959 . S
C2402 C2400 1.561 . S
C2403 C2400 1.526 . S
C2403 C2404 1.396 . S
C2403 C2408 1.390 . S
C2404 C2398 1.465 . S
C2404 C2403 1.396 . S
C2404 C2405 1.399 . S
C2405 H2391 0.929 . S
C2405 C2404 1.399 . S
C2405 C2406 1.385 . S
C2406 H2392 0.931 . S
C2406 C2405 1.385 . S
C2406 C2407 1.389 . S
C2407 C2406 1.389 . S
C2407 C2408 1.387 . S
C2408 H2393 0.930 . S
C2408 C2403 1.390 . S
C2408 C2407 1.387 . S
H2409 C2421 0.930 . S
H2410 C2423 0.930 . S
H2411 C2424 0.930 . S
H2412 C2428 0.959 . S
H2413 C2428 0.959 1_655 S
H2414 C2428 0.961 . S
H2415 C2429 0.960 1_455 S
H2416 C2429 0.961 . S
H2417 C2429 0.959 . S
H2418 C2432 0.929 . S
H2419 C2433 0.931 . S
H2420 C2435 0.930 . S
C2421 H2409 0.930 . S
C2421 C2422 1.399 . S
C2421 C2426 1.399 . S
C2422 C2421 1.399 . S
C2422 C2423 1.376 . S
C2423 H2410 0.930 . S
C2423 C2422 1.376 . S
C2423 C2424 1.388 . S
C2424 H2411 0.930 . S
C2424 C2423 1.388 . S
C2424 C2425 1.390 . S
C2425 C2424 1.390 . S
C2425 C2426 1.394 . S
C2425 C2431 1.465 1_455 S
C2426 C2421 1.399 . S
C2426 C2425 1.394 . S
C2426 C2427 1.516 1_455 S
C2427 C2426 1.516 1_655 S
C2427 C2428 1.502 1_655 S
C2427 C2429 1.561 . S
C2427 C2430 1.526 . S
C2428 H2412 0.959 . S
C2428 H2413 0.959 1_455 S
C2428 H2414 0.961 . S
C2428 C2427 1.502 1_455 S
C2429 H2415 0.960 1_655 S
C2429 H2416 0.961 . S
C2429 H2417 0.959 . S
C2429 C2427 1.561 . S
C2430 C2427 1.526 . S
C2430 C2431 1.396 . S
C2430 C2435 1.390 . S
C2431 C2425 1.465 1_655 S
C2431 C2430 1.396 . S
C2431 C2432 1.399 . S
C2432 H2418 0.929 . S
C2432 C2431 1.399 . S
C2432 C2433 1.385 . S
C2433 H2419 0.931 . S
C2433 C2432 1.385 . S
C2433 C2434 1.389 . S
C2434 C2433 1.389 . S
C2434 C2435 1.387 . S
C2435 H2420 0.930 . S
C2435 C2430 1.390 . S
C2435 C2434 1.387 . S
H2436 C2448 0.930 . S
H2437 C2450 0.930 . S
H2438 C2451 0.930 . S
H2439 C2455 0.959 . S
H2440 C2455 0.959 . S
H2441 C2455 0.961 . S
H2442 C2456 0.960 . S
H2443 C2456 0.961 . S
H2444 C2456 0.959 . S
H2445 C2459 0.929 . S
H2446 C2460 0.931 . S
H2447 C2462 0.930 . S
C2448 H2436 0.930 . S
C2448 C2449 1.399 . S
C2448 C2453 1.399 . S
C2449 C2448 1.399 . S
C2449 C2450 1.376 . S
C2450 H2437 0.930 . S
C2450 C2449 1.376 . S
C2450 C2451 1.388 . S
C2451 H2438 0.930 . S
C2451 C2450 1.388 . S
C2451 C2452 1.390 . S
C2452 C2451 1.390 . S
C2452 C2453 1.394 . S
C2452 C2458 1.465 . S
C2453 C2448 1.399 . S
C2453 C2452 1.394 . S
C2453 C2454 1.516 . S
C2454 C2453 1.516 . S
C2454 C2455 1.502 . S
C2454 C2456 1.561 . S
C2454 C2457 1.526 . S
C2455 H2439 0.959 . S
C2455 H2440 0.959 . S
C2455 H2441 0.961 . S
C2455 C2454 1.502 . S
C2456 H2442 0.960 . S
C2456 H2443 0.961 . S
C2456 H2444 0.959 . S
C2456 C2454 1.561 . S
C2457 C2454 1.526 . S
C2457 C2458 1.396 . S
C2457 C2462 1.390 . S
C2458 C2452 1.465 . S
C2458 C2457 1.396 . S
C2458 C2459 1.399 . S
C2459 H2445 0.929 . S
C2459 C2458 1.399 . S
C2459 C2460 1.385 . S
C2460 H2446 0.931 . S
C2460 C2459 1.385 . S
C2460 C2461 1.389 . S
C2461 C2460 1.389 . S
C2461 C2462 1.387 . S
C2462 H2447 0.930 . S
C2462 C2457 1.390 . S
C2462 C2461 1.387 . S
H2463 C2475 0.930 . S
H2464 C2477 0.930 . S
H2465 C2478 0.930 . S
H2466 C2482 0.959 . S
H2467 C2482 0.959 . S
H2468 C2482 0.961 . S
H2469 C2483 0.960 . S
H2470 C2483 0.961 . S
H2471 C2483 0.959 . S
H2472 C2486 0.929 . S
H2473 C2487 0.931 . S
H2474 C2489 0.930 . S
C2475 H2463 0.930 . S
C2475 C2476 1.399 . S
C2475 C2480 1.399 . S
C2476 C2475 1.399 . S
C2476 C2477 1.376 . S
C2477 H2464 0.930 . S
C2477 C2476 1.376 . S
C2477 C2478 1.388 . S
C2478 H2465 0.930 . S
C2478 C2477 1.388 . S
C2478 C2479 1.390 . S
C2479 C2478 1.390 . S
C2479 C2480 1.394 . S
C2479 C2485 1.465 . S
C2480 C2475 1.399 . S
C2480 C2479 1.394 . S
C2480 C2481 1.516 . S
C2481 C2480 1.516 . S
C2481 C2482 1.502 . S
C2481 C2483 1.561 . S
C2481 C2484 1.526 . S
C2482 H2466 0.959 . S
C2482 H2467 0.959 . S
C2482 H2468 0.961 . S
C2482 C2481 1.502 . S
C2483 H2469 0.960 . S
C2483 H2470 0.961 . S
C2483 H2471 0.959 . S
C2483 C2481 1.561 . S
C2484 C2481 1.526 . S
C2484 C2485 1.396 . S
C2484 C2489 1.390 . S
C2485 C2479 1.465 . S
C2485 C2484 1.396 . S
C2485 C2486 1.399 . S
C2486 H2472 0.929 . S
C2486 C2485 1.399 . S
C2486 C2487 1.385 . S
C2487 H2473 0.931 . S
C2487 C2486 1.385 . S
C2487 C2488 1.389 . S
C2488 C2487 1.389 . S
C2488 C2489 1.387 . S
C2489 H2474 0.930 . S
C2489 C2484 1.390 . S
C2489 C2488 1.387 . S
H2490 C2502 0.930 . S
H2491 C2504 0.930 . S
H2492 C2505 0.930 . S
H2493 C2509 0.959 . S
H2494 C2509 0.959 . S
H2495 C2509 0.961 . S
H2496 C2510 0.960 . S
H2497 C2510 0.961 . S
H2498 C2510 0.959 . S
H2499 C2513 0.929 . S
H2500 C2514 0.931 . S
H2501 C2516 0.930 . S
C2502 H2490 0.930 . S
C2502 C2503 1.399 . S
C2502 C2507 1.399 . S
C2503 C2502 1.399 . S
C2503 C2504 1.376 . S
C2504 H2491 0.930 . S
C2504 C2503 1.376 . S
C2504 C2505 1.388 . S
C2505 H2492 0.930 . S
C2505 C2504 1.388 . S
C2505 C2506 1.390 . S
C2506 C2505 1.390 . S
C2506 C2507 1.394 . S
C2506 C2512 1.465 . S
C2507 C2502 1.399 . S
C2507 C2506 1.394 . S
C2507 C2508 1.516 . S
C2508 C2507 1.516 . S
C2508 C2509 1.502 . S
C2508 C2510 1.561 . S
C2508 C2511 1.526 . S
C2509 H2493 0.959 . S
C2509 H2494 0.959 . S
C2509 H2495 0.961 . S
C2509 C2508 1.502 . S
C2510 H2496 0.960 . S
C2510 H2497 0.961 . S
C2510 H2498 0.959 . S
C2510 C2508 1.561 . S
C2511 C2508 1.526 . S
C2511 C2512 1.396 . S
C2511 C2516 1.390 . S
C2512 C2506 1.465 . S
C2512 C2511 1.396 . S
C2512 C2513 1.399 . S
C2513 H2499 0.929 . S
C2513 C2512 1.399 . S
C2513 C2514 1.385 . S
C2514 H2500 0.931 . S
C2514 C2513 1.385 . S
C2514 C2515 1.389 . S
C2515 C2514 1.389 . S
C2515 C2516 1.387 . S
C2516 H2501 0.930 . S
C2516 C2511 1.390 . S
C2516 C2515 1.387 . S
H2517 C2529 0.930 . S
H2518 C2531 0.930 . S
H2519 C2532 0.930 . S
H2520 C2536 0.959 . S
H2521 C2536 0.959 . S
H2522 C2536 0.961 . S
H2523 C2537 0.960 . S
H2524 C2537 0.961 . S
H2525 C2537 0.959 . S
H2526 C2540 0.929 . S
H2527 C2541 0.931 . S
H2528 C2543 0.930 . S
C2529 H2517 0.930 . S
C2529 C2530 1.399 . S
C2529 C2534 1.399 . S
C2530 C2529 1.399 . S
C2530 C2531 1.376 . S
C2531 H2518 0.930 . S
C2531 C2530 1.376 . S
C2531 C2532 1.388 . S
C2532 H2519 0.930 . S
C2532 C2531 1.388 . S
C2532 C2533 1.390 . S
C2533 C2532 1.390 . S
C2533 C2534 1.394 . S
C2533 C2539 1.465 . S
C2534 C2529 1.399 . S
C2534 C2533 1.394 . S
C2534 C2535 1.516 . S
C2535 C2534 1.516 . S
C2535 C2536 1.502 . S
C2535 C2537 1.561 . S
C2535 C2538 1.526 . S
C2536 H2520 0.959 . S
C2536 H2521 0.959 . S
C2536 H2522 0.961 . S
C2536 C2535 1.502 . S
C2537 H2523 0.960 . S
C2537 H2524 0.961 . S
C2537 H2525 0.959 . S
C2537 C2535 1.561 . S
C2538 C2535 1.526 . S
C2538 C2539 1.396 . S
C2538 C2543 1.390 . S
C2539 C2533 1.465 . S
C2539 C2538 1.396 . S
C2539 C2540 1.399 . S
C2540 H2526 0.929 . S
C2540 C2539 1.399 . S
C2540 C2541 1.385 . S
C2541 H2527 0.931 . S
C2541 C2540 1.385 . S
C2541 C2542 1.389 . S
C2542 C2541 1.389 . S
C2542 C2543 1.387 . S
C2543 H2528 0.930 . S
C2543 C2538 1.390 . S
C2543 C2542 1.387 . S
H2544 C2556 0.930 . S
H2545 C2558 0.930 . S
H2546 C2559 0.930 . S
H2547 C2563 0.959 . S
H2548 C2563 0.959 . S
H2549 C2563 0.961 . S
H2550 C2564 0.960 . S
H2551 C2564 0.961 . S
H2552 C2564 0.959 . S
H2553 C2567 0.929 . S
H2554 C2568 0.931 . S
H2555 C2570 0.930 . S
C2556 H2544 0.930 . S
C2556 C2557 1.399 . S
C2556 C2561 1.399 . S
C2557 C2556 1.399 . S
C2557 C2558 1.376 . S
C2558 H2545 0.930 . S
C2558 C2557 1.376 . S
C2558 C2559 1.388 . S
C2559 H2546 0.930 . S
C2559 C2558 1.388 . S
C2559 C2560 1.390 . S
C2560 C2559 1.390 . S
C2560 C2561 1.394 . S
C2560 C2566 1.465 . S
C2561 C2556 1.399 . S
C2561 C2560 1.394 . S
C2561 C2562 1.516 . S
C2562 C2561 1.516 . S
C2562 C2563 1.502 . S
C2562 C2564 1.561 . S
C2562 C2565 1.526 . S
C2563 H2547 0.959 . S
C2563 H2548 0.959 . S
C2563 H2549 0.961 . S
C2563 C2562 1.502 . S
C2564 H2550 0.960 . S
C2564 H2551 0.961 . S
C2564 H2552 0.959 . S
C2564 C2562 1.561 . S
C2565 C2562 1.526 . S
C2565 C2566 1.396 . S
C2565 C2570 1.390 . S
C2566 C2560 1.465 . S
C2566 C2565 1.396 . S
C2566 C2567 1.399 . S
C2567 H2553 0.929 . S
C2567 C2566 1.399 . S
C2567 C2568 1.385 . S
C2568 H2554 0.931 . S
C2568 C2567 1.385 . S
C2568 C2569 1.389 . S
C2569 C2568 1.389 . S
C2569 C2570 1.387 . S
C2570 H2555 0.930 . S
C2570 C2565 1.390 . S
C2570 C2569 1.387 . S
H2571 C2583 0.930 . S
H2572 C2585 0.930 . S
H2573 C2586 0.930 . S
H2574 C2590 0.959 . S
H2575 C2590 0.959 . S
H2576 C2590 0.961 . S
H2577 C2591 0.960 . S
H2578 C2591 0.961 . S
H2579 C2591 0.959 . S
H2580 C2594 0.929 . S
H2581 C2595 0.931 . S
H2582 C2597 0.930 . S
C2583 H2571 0.930 . S
C2583 C2584 1.399 . S
C2583 C2588 1.399 . S
C2584 C2583 1.399 . S
C2584 C2585 1.376 . S
C2585 H2572 0.930 . S
C2585 C2584 1.376 . S
C2585 C2586 1.388 . S
C2586 H2573 0.930 . S
C2586 C2585 1.388 . S
C2586 C2587 1.390 . S
C2587 C2586 1.390 . S
C2587 C2588 1.394 . S
C2587 C2593 1.465 . S
C2588 C2583 1.399 . S
C2588 C2587 1.394 . S
C2588 C2589 1.516 . S
C2589 C2588 1.516 . S
C2589 C2590 1.502 . S
C2589 C2591 1.561 . S
C2589 C2592 1.526 . S
C2590 H2574 0.959 . S
C2590 H2575 0.959 . S
C2590 H2576 0.961 . S
C2590 C2589 1.502 . S
C2591 H2577 0.960 . S
C2591 H2578 0.961 . S
C2591 H2579 0.959 . S
C2591 C2589 1.561 . S
C2592 C2589 1.526 . S
C2592 C2593 1.396 . S
C2592 C2597 1.390 . S
C2593 C2587 1.465 . S
C2593 C2592 1.396 . S
C2593 C2594 1.399 . S
C2594 H2580 0.929 . S
C2594 C2593 1.399 . S
C2594 C2595 1.385 . S
C2595 H2581 0.931 . S
C2595 C2594 1.385 . S
C2595 C2596 1.389 . S
C2596 C2595 1.389 . S
C2596 C2597 1.387 . S
C2597 H2582 0.930 . S
C2597 C2592 1.390 . S
C2597 C2596 1.387 . S
H2598 C2610 0.930 . S
H2599 C2612 0.930 . S
H2600 C2613 0.930 . S
H2601 C2617 0.959 . S
H2602 C2617 0.959 . S
H2603 C2617 0.961 . S
H2604 C2618 0.960 . S
H2605 C2618 0.961 . S
H2606 C2618 0.959 . S
H2607 C2621 0.929 . S
H2608 C2622 0.931 . S
H2609 C2624 0.930 . S
C2610 H2598 0.930 . S
C2610 C2611 1.399 . S
C2610 C2615 1.399 . S
C2611 C2610 1.399 . S
C2611 C2612 1.376 . S
C2612 H2599 0.930 . S
C2612 C2611 1.376 . S
C2612 C2613 1.388 . S
C2613 H2600 0.930 . S
C2613 C2612 1.388 . S
C2613 C2614 1.390 . S
C2614 C2613 1.390 . S
C2614 C2615 1.394 . S
C2614 C2620 1.465 . S
C2615 C2610 1.399 . S
C2615 C2614 1.394 . S
C2615 C2616 1.516 . S
C2616 C2615 1.516 . S
C2616 C2617 1.502 . S
C2616 C2618 1.561 . S
C2616 C2619 1.526 . S
C2617 H2601 0.959 . S
C2617 H2602 0.959 . S
C2617 H2603 0.961 . S
C2617 C2616 1.502 . S
C2618 H2604 0.960 . S
C2618 H2605 0.961 . S
C2618 H2606 0.959 . S
C2618 C2616 1.561 . S
C2619 C2616 1.526 . S
C2619 C2620 1.396 . S
C2619 C2624 1.390 . S
C2620 C2614 1.465 . S
C2620 C2619 1.396 . S
C2620 C2621 1.399 . S
C2621 H2607 0.929 . S
C2621 C2620 1.399 . S
C2621 C2622 1.385 . S
C2622 H2608 0.931 . S
C2622 C2621 1.385 . S
C2622 C2623 1.389 . S
C2623 C2622 1.389 . S
C2623 C2624 1.387 . S
C2624 H2609 0.930 . S
C2624 C2619 1.390 . S
C2624 C2623 1.387 . S
H2625 C2637 0.930 . S
H2626 C2639 0.930 . S
H2627 C2640 0.930 . S
H2628 C2644 0.959 . S
H2629 C2644 0.959 . S
H2630 C2644 0.961 . S
H2631 C2645 0.960 . S
H2632 C2645 0.961 . S
H2633 C2645 0.959 . S
H2634 C2648 0.929 . S
H2635 C2649 0.931 . S
H2636 C2651 0.930 . S
C2637 H2625 0.930 . S
C2637 C2638 1.399 . S
C2637 C2642 1.399 . S
C2638 C2637 1.399 . S
C2638 C2639 1.376 . S
C2639 H2626 0.930 . S
C2639 C2638 1.376 . S
C2639 C2640 1.388 . S
C2640 H2627 0.930 . S
C2640 C2639 1.388 . S
C2640 C2641 1.390 . S
C2641 C2640 1.390 . S
C2641 C2642 1.394 . S
C2641 C2647 1.465 . S
C2642 C2637 1.399 . S
C2642 C2641 1.394 . S
C2642 C2643 1.516 . S
C2643 C2642 1.516 . S
C2643 C2644 1.502 . S
C2643 C2645 1.561 . S
C2643 C2646 1.526 . S
C2644 H2628 0.959 . S
C2644 H2629 0.959 . S
C2644 H2630 0.961 . S
C2644 C2643 1.502 . S
C2645 H2631 0.960 . S
C2645 H2632 0.961 . S
C2645 H2633 0.959 . S
C2645 C2643 1.561 . S
C2646 C2643 1.526 . S
C2646 C2647 1.396 . S
C2646 C2651 1.390 . S
C2647 C2641 1.465 . S
C2647 C2646 1.396 . S
C2647 C2648 1.399 . S
C2648 H2634 0.929 . S
C2648 C2647 1.399 . S
C2648 C2649 1.385 . S
C2649 H2635 0.931 . S
C2649 C2648 1.385 . S
C2649 C2650 1.389 . S
C2650 C2649 1.389 . S
C2650 C2651 1.387 . S
C2651 H2636 0.930 . S
C2651 C2646 1.390 . S
C2651 C2650 1.387 . S
H2652 C2664 0.930 . S
H2653 C2666 0.930 . S
H2654 C2667 0.930 . S
H2655 C2671 0.959 . S
H2656 C2671 0.959 . S
H2657 C2671 0.961 . S
H2658 C2672 0.960 . S
H2659 C2672 0.961 . S
H2660 C2672 0.959 . S
H2661 C2675 0.929 . S
H2662 C2676 0.931 . S
H2663 C2678 0.930 . S
C2664 H2652 0.930 . S
C2664 C2665 1.399 . S
C2664 C2669 1.399 . S
C2665 C2664 1.399 . S
C2665 C2666 1.376 . S
C2666 H2653 0.930 . S
C2666 C2665 1.376 . S
C2666 C2667 1.388 . S
C2667 H2654 0.930 . S
C2667 C2666 1.388 . S
C2667 C2668 1.390 . S
C2668 C2667 1.390 . S
C2668 C2669 1.394 . S
C2668 C2674 1.465 . S
C2669 C2664 1.399 . S
C2669 C2668 1.394 . S
C2669 C2670 1.516 . S
C2670 C2669 1.516 . S
C2670 C2671 1.502 . S
C2670 C2672 1.561 . S
C2670 C2673 1.526 . S
C2671 H2655 0.959 . S
C2671 H2656 0.959 . S
C2671 H2657 0.961 . S
C2671 C2670 1.502 . S
C2672 H2658 0.960 . S
C2672 H2659 0.961 . S
C2672 H2660 0.959 . S
C2672 C2670 1.561 . S
C2673 C2670 1.526 . S
C2673 C2674 1.396 . S
C2673 C2678 1.390 . S
C2674 C2668 1.465 . S
C2674 C2673 1.396 . S
C2674 C2675 1.399 . S
C2675 H2661 0.929 . S
C2675 C2674 1.399 . S
C2675 C2676 1.385 . S
C2676 H2662 0.931 . S
C2676 C2675 1.385 . S
C2676 C2677 1.389 . S
C2677 C2676 1.389 . S
C2677 C2678 1.387 . S
C2678 H2663 0.930 . S
C2678 C2673 1.390 . S
C2678 C2677 1.387 . S
H2679 C2691 0.930 . S
H2680 C2693 0.930 . S
H2681 C2694 0.930 . S
H2682 C2698 0.959 . S
H2683 C2698 0.959 . S
H2684 C2698 0.961 . S
H2685 C2699 0.960 . S
H2686 C2699 0.961 . S
H2687 C2699 0.959 . S
H2688 C2702 0.929 . S
H2689 C2703 0.931 . S
H2690 C2705 0.930 . S
C2691 H2679 0.930 . S
C2691 C2692 1.399 . S
C2691 C2696 1.399 . S
C2692 C2691 1.399 . S
C2692 C2693 1.376 . S
C2693 H2680 0.930 . S
C2693 C2692 1.376 . S
C2693 C2694 1.388 . S
C2694 H2681 0.930 . S
C2694 C2693 1.388 . S
C2694 C2695 1.390 . S
C2695 C2694 1.390 . S
C2695 C2696 1.394 . S
C2695 C2701 1.465 . S
C2696 C2691 1.399 . S
C2696 C2695 1.394 . S
C2696 C2697 1.516 . S
C2697 C2696 1.516 . S
C2697 C2698 1.502 . S
C2697 C2699 1.561 . S
C2697 C2700 1.526 . S
C2698 H2682 0.959 . S
C2698 H2683 0.959 . S
C2698 H2684 0.961 . S
C2698 C2697 1.502 . S
C2699 H2685 0.960 . S
C2699 H2686 0.961 . S
C2699 H2687 0.959 . S
C2699 C2697 1.561 . S
C2700 C2697 1.526 . S
C2700 C2701 1.396 . S
C2700 C2705 1.390 . S
C2701 C2695 1.465 . S
C2701 C2700 1.396 . S
C2701 C2702 1.399 . S
C2702 H2688 0.929 . S
C2702 C2701 1.399 . S
C2702 C2703 1.385 . S
C2703 H2689 0.931 . S
C2703 C2702 1.385 . S
C2703 C2704 1.389 . S
C2704 C2703 1.389 . S
C2704 C2705 1.387 . S
C2705 H2690 0.930 . S
C2705 C2700 1.390 . S
C2705 C2704 1.387 . S
H2706 C2718 0.930 . S
H2707 C2720 0.930 . S
H2708 C2721 0.930 . S
H2709 C2725 0.959 . S
H2710 C2725 0.959 . S
H2711 C2725 0.961 . S
H2712 C2726 0.960 . S
H2713 C2726 0.961 . S
H2714 C2726 0.959 . S
H2715 C2729 0.929 . S
H2716 C2730 0.931 . S
H2717 C2732 0.930 . S
C2718 H2706 0.930 . S
C2718 C2719 1.399 . S
C2718 C2723 1.399 . S
C2719 C2718 1.399 . S
C2719 C2720 1.376 . S
C2720 H2707 0.930 . S
C2720 C2719 1.376 . S
C2720 C2721 1.388 . S
C2721 H2708 0.930 . S
C2721 C2720 1.388 . S
C2721 C2722 1.390 . S
C2722 C2721 1.390 . S
C2722 C2723 1.394 . S
C2722 C2728 1.465 . S
C2723 C2718 1.399 . S
C2723 C2722 1.394 . S
C2723 C2724 1.516 . S
C2724 C2723 1.516 . S
C2724 C2725 1.502 . S
C2724 C2726 1.561 . S
C2724 C2727 1.526 . S
C2725 H2709 0.959 . S
C2725 H2710 0.959 . S
C2725 H2711 0.961 . S
C2725 C2724 1.502 . S
C2726 H2712 0.960 . S
C2726 H2713 0.961 . S
C2726 H2714 0.959 . S
C2726 C2724 1.561 . S
C2727 C2724 1.526 . S
C2727 C2728 1.396 . S
C2727 C2732 1.390 . S
C2728 C2722 1.465 . S
C2728 C2727 1.396 . S
C2728 C2729 1.399 . S
C2729 H2715 0.929 . S
C2729 C2728 1.399 . S
C2729 C2730 1.385 . S
C2730 H2716 0.931 . S
C2730 C2729 1.385 . S
C2730 C2731 1.389 . S
C2731 C2730 1.389 . S
C2731 C2732 1.387 . S
C2732 H2717 0.930 . S
C2732 C2727 1.390 . S
C2732 C2731 1.387 . S
H2733 C2745 0.930 . S
H2734 C2747 0.930 . S
H2735 C2748 0.930 . S
H2736 C2752 0.959 . S
H2737 C2752 0.959 . S
H2738 C2752 0.961 . S
H2739 C2753 0.960 . S
H2740 C2753 0.961 . S
H2741 C2753 0.959 . S
H2742 C2756 0.929 . S
H2743 C2757 0.931 . S
H2744 C2759 0.930 . S
C2745 H2733 0.930 . S
C2745 C2746 1.399 . S
C2745 C2750 1.399 . S
C2746 C2745 1.399 . S
C2746 C2747 1.376 . S
C2747 H2734 0.930 . S
C2747 C2746 1.376 . S
C2747 C2748 1.388 . S
C2748 H2735 0.930 . S
C2748 C2747 1.388 . S
C2748 C2749 1.390 . S
C2749 C2748 1.390 . S
C2749 C2750 1.394 . S
C2749 C2755 1.465 . S
C2750 C2745 1.399 . S
C2750 C2749 1.394 . S
C2750 C2751 1.516 . S
C2751 C2750 1.516 . S
C2751 C2752 1.502 . S
C2751 C2753 1.561 . S
C2751 C2754 1.526 . S
C2752 H2736 0.959 . S
C2752 H2737 0.959 . S
C2752 H2738 0.961 . S
C2752 C2751 1.502 . S
C2753 H2739 0.960 . S
C2753 H2740 0.961 . S
C2753 H2741 0.959 . S
C2753 C2751 1.561 . S
C2754 C2751 1.526 . S
C2754 C2755 1.396 . S
C2754 C2759 1.390 . S
C2755 C2749 1.465 . S
C2755 C2754 1.396 . S
C2755 C2756 1.399 . S
C2756 H2742 0.929 . S
C2756 C2755 1.399 . S
C2756 C2757 1.385 . S
C2757 H2743 0.931 . S
C2757 C2756 1.385 . S
C2757 C2758 1.389 . S
C2758 C2757 1.389 . S
C2758 C2759 1.387 . S
C2759 H2744 0.930 . S
C2759 C2754 1.390 . S
C2759 C2758 1.387 . S
H2760 C2772 0.930 . S
H2761 C2774 0.930 . S
H2762 C2775 0.930 . S
H2763 C2779 0.962 . S
H2764 C2779 0.977 . S
H2765 C2779 0.942 1_554 S
H2766 C2780 0.959 1_554 S
H2767 C2780 0.962 . S
H2768 C2780 0.959 . S
H2769 C2783 0.929 . S
H2770 C2784 0.931 . S
H2771 C2786 0.930 . S
C2772 H2760 0.930 . S
C2772 C2773 1.399 . S
C2772 C2777 1.399 . S
C2773 C2772 1.399 . S
C2773 C2774 1.376 . S
C2774 H2761 0.930 . S
C2774 C2773 1.376 . S
C2774 C2775 1.388 . S
C2775 H2762 0.930 . S
C2775 C2774 1.388 . S
C2775 C2776 1.390 . S
C2776 C2775 1.390 . S
C2776 C2777 1.394 . S
C2776 C2782 1.465 1_554 S
C2777 C2772 1.399 . S
C2777 C2776 1.394 . S
C2777 C2778 1.518 1_554 S
C2778 C2777 1.518 1_556 S
C2778 C2779 1.502 . S
C2778 C2780 1.561 . S
C2778 C2781 1.524 . S
C2779 H2763 0.962 . S
C2779 H2764 0.977 . S
C2779 H2765 0.942 1_556 S
C2779 C2778 1.502 . S
C2780 H2766 0.959 1_556 S
C2780 H2767 0.962 . S
C2780 H2768 0.959 . S
C2780 C2778 1.561 . S
C2781 C2778 1.524 . S
C2781 C2782 1.396 . S
C2781 C2786 1.390 . S
C2782 C2776 1.465 1_556 S
C2782 C2781 1.396 . S
C2782 C2783 1.399 . S
C2783 H2769 0.929 . S
C2783 C2782 1.399 . S
C2783 C2784 1.385 . S
C2784 H2770 0.931 . S
C2784 C2783 1.385 . S
C2784 C2785 1.389 . S
C2785 C2784 1.389 . S
C2785 C2786 1.387 . S
C2786 H2771 0.930 . S
C2786 C2781 1.390 . S
C2786 C2785 1.387 . S
H2787 C2799 0.930 . S
H2788 C2801 0.930 . S
H2789 C2802 0.930 . S
H2790 C2806 0.962 . S
H2791 C2806 0.980 . S
H2792 C2806 0.939 1_556 S
H2793 C2807 0.957 1_556 S
H2794 C2807 0.964 . S
H2795 C2807 0.959 . S
H2796 C2810 0.929 . S
H2797 C2811 0.931 . S
H2798 C2813 0.930 . S
C2799 H2787 0.930 . S
C2799 C2800 1.399 . S
C2799 C2804 1.399 . S
C2800 C2799 1.399 . S
C2800 C2801 1.376 . S
C2801 H2788 0.930 . S
C2801 C2800 1.376 . S
C2801 C2802 1.388 . S
C2802 H2789 0.930 . S
C2802 C2801 1.388 . S
C2802 C2803 1.390 . S
C2803 C2802 1.390 . S
C2803 C2804 1.394 . S
C2803 C2809 1.465 1_556 S
C2804 C2799 1.399 . S
C2804 C2803 1.394 . S
C2804 C2805 1.517 1_556 S
C2805 C2804 1.517 1_554 S
C2805 C2806 1.501 . S
C2805 C2807 1.561 . S
C2805 C2808 1.525 . S
C2806 H2790 0.962 . S
C2806 H2791 0.980 . S
C2806 H2792 0.939 1_554 S
C2806 C2805 1.501 . S
C2807 H2793 0.957 1_554 S
C2807 H2794 0.964 . S
C2807 H2795 0.959 . S
C2807 C2805 1.561 . S
C2808 C2805 1.525 . S
C2808 C2809 1.396 . S
C2808 C2813 1.390 . S
C2809 C2803 1.465 1_554 S
C2809 C2808 1.396 . S
C2809 C2810 1.399 . S
C2810 H2796 0.929 . S
C2810 C2809 1.399 . S
C2810 C2811 1.385 . S
C2811 H2797 0.931 . S
C2811 C2810 1.385 . S
C2811 C2812 1.389 . S
C2812 C2811 1.389 . S
C2812 C2813 1.387 . S
C2813 H2798 0.930 . S
C2813 C2808 1.390 . S
C2813 C2812 1.387 . S
H2814 C2826 0.930 . S
H2815 C2828 0.930 . S
H2816 C2829 0.930 . S
H2817 C2833 0.962 . S
H2818 C2833 0.979 . S
H2819 C2833 0.940 1_556 S
H2820 C2834 0.959 1_556 S
H2821 C2834 0.962 . S
H2822 C2834 0.959 . S
H2823 C2837 0.929 . S
H2824 C2838 0.931 . S
H2825 C2840 0.930 . S
C2826 H2814 0.930 . S
C2826 C2827 1.399 . S
C2826 C2831 1.399 . S
C2827 C2826 1.399 . S
C2827 C2828 1.376 . S
C2828 H2815 0.930 . S
C2828 C2827 1.376 . S
C2828 C2829 1.388 . S
C2829 H2816 0.930 . S
C2829 C2828 1.388 . S
C2829 C2830 1.390 . S
C2830 C2829 1.390 . S
C2830 C2831 1.394 . S
C2830 C2836 1.465 1_556 S
C2831 C2826 1.399 . S
C2831 C2830 1.394 . S
C2831 C2832 1.518 1_556 S
C2832 C2831 1.518 1_554 S
C2832 C2833 1.501 . S
C2832 C2834 1.561 . S
C2832 C2835 1.524 . S
C2833 H2817 0.962 . S
C2833 H2818 0.979 . S
C2833 H2819 0.940 1_554 S
C2833 C2832 1.501 . S
C2834 H2820 0.959 1_554 S
C2834 H2821 0.962 . S
C2834 H2822 0.959 . S
C2834 C2832 1.561 . S
C2835 C2832 1.524 . S
C2835 C2836 1.396 . S
C2835 C2840 1.390 . S
C2836 C2830 1.465 1_554 S
C2836 C2835 1.396 . S
C2836 C2837 1.399 . S
C2837 H2823 0.929 . S
C2837 C2836 1.399 . S
C2837 C2838 1.385 . S
C2838 H2824 0.931 . S
C2838 C2837 1.385 . S
C2838 C2839 1.389 . S
C2839 C2838 1.389 . S
C2839 C2840 1.387 . S
C2840 H2825 0.930 . S
C2840 C2835 1.390 . S
C2840 C2839 1.387 . S
H2841 C2853 0.930 . S
H2842 C2855 0.930 . S
H2843 C2856 0.930 . S
H2844 C2860 0.962 . S
H2845 C2860 0.979 . S
H2846 C2860 0.939 1_554 S
H2847 C2861 0.958 1_554 S
H2848 C2861 0.963 . S
H2849 C2861 0.959 . S
H2850 C2864 0.929 . S
H2851 C2865 0.931 . S
H2852 C2867 0.930 . S
C2853 H2841 0.930 . S
C2853 C2854 1.399 . S
C2853 C2858 1.399 . S
C2854 C2853 1.399 . S
C2854 C2855 1.376 . S
C2855 H2842 0.930 . S
C2855 C2854 1.376 . S
C2855 C2856 1.388 . S
C2856 H2843 0.930 . S
C2856 C2855 1.388 . S
C2856 C2857 1.390 . S
C2857 C2856 1.390 . S
C2857 C2858 1.394 . S
C2857 C2863 1.465 1_554 S
C2858 C2853 1.399 . S
C2858 C2857 1.394 . S
C2858 C2859 1.517 1_554 S
C2859 C2858 1.517 1_556 S
C2859 C2860 1.501 . S
C2859 C2861 1.561 . S
C2859 C2862 1.525 . S
C2860 H2844 0.962 . S
C2860 H2845 0.979 . S
C2860 H2846 0.939 1_556 S
C2860 C2859 1.501 . S
C2861 H2847 0.958 1_556 S
C2861 H2848 0.963 . S
C2861 H2849 0.959 . S
C2861 C2859 1.561 . S
C2862 C2859 1.525 . S
C2862 C2863 1.396 . S
C2862 C2867 1.390 . S
C2863 C2857 1.465 1_556 S
C2863 C2862 1.396 . S
C2863 C2864 1.399 . S
C2864 H2850 0.929 . S
C2864 C2863 1.399 . S
C2864 C2865 1.385 . S
C2865 H2851 0.931 . S
C2865 C2864 1.385 . S
C2865 C2866 1.389 . S
C2866 C2865 1.389 . S
C2866 C2867 1.387 . S
C2867 H2852 0.930 . S
C2867 C2862 1.390 . S
C2867 C2866 1.387 . S
H2868 C2880 0.930 . S
H2869 C2882 0.930 . S
H2870 C2883 0.930 . S
H2871 C2887 0.962 . S
H2872 C2887 0.978 . S
H2873 C2887 0.940 1_554 S
H2874 C2888 0.957 1_554 S
H2875 C2888 0.964 . S
H2876 C2888 0.959 . S
H2877 C2891 0.929 . S
H2878 C2892 0.931 . S
H2879 C2894 0.930 . S
C2880 H2868 0.930 . S
C2880 C2881 1.399 . S
C2880 C2885 1.399 . S
C2881 C2880 1.399 . S
C2881 C2882 1.376 . S
C2882 H2869 0.930 . S
C2882 C2881 1.376 . S
C2882 C2883 1.388 . S
C2883 H2870 0.930 . S
C2883 C2882 1.388 . S
C2883 C2884 1.390 . S
C2884 C2883 1.390 . S
C2884 C2885 1.394 . S
C2884 C2890 1.465 1_554 S
C2885 C2880 1.399 . S
C2885 C2884 1.394 . S
C2885 C2886 1.517 1_554 S
C2886 C2885 1.517 1_556 S
C2886 C2887 1.502 . S
C2886 C2888 1.561 . S
C2886 C2889 1.525 . S
C2887 H2871 0.962 . S
C2887 H2872 0.978 . S
C2887 H2873 0.940 1_556 S
C2887 C2886 1.502 . S
C2888 H2874 0.957 1_556 S
C2888 H2875 0.964 . S
C2888 H2876 0.959 . S
C2888 C2886 1.561 . S
C2889 C2886 1.525 . S
C2889 C2890 1.396 . S
C2889 C2894 1.390 . S
C2890 C2884 1.465 1_556 S
C2890 C2889 1.396 . S
C2890 C2891 1.399 . S
C2891 H2877 0.929 . S
C2891 C2890 1.399 . S
C2891 C2892 1.385 . S
C2892 H2878 0.931 . S
C2892 C2891 1.385 . S
C2892 C2893 1.389 . S
C2893 C2892 1.389 . S
C2893 C2894 1.387 . S
C2894 H2879 0.930 . S
C2894 C2889 1.390 . S
C2894 C2893 1.387 . S
H2895 C2907 0.930 . S
H2896 C2909 0.930 . S
H2897 C2910 0.930 . S
H2898 C2914 0.962 . S
H2899 C2914 0.977 . S
H2900 C2914 0.941 1_556 S
H2901 C2915 0.960 1_556 S
H2902 C2915 0.961 . S
H2903 C2915 0.959 . S
H2904 C2918 0.929 . S
H2905 C2919 0.931 . S
H2906 C2921 0.930 . S
C2907 H2895 0.930 . S
C2907 C2908 1.399 . S
C2907 C2912 1.399 . S
C2908 C2907 1.399 . S
C2908 C2909 1.376 . S
C2909 H2896 0.930 . S
C2909 C2908 1.376 . S
C2909 C2910 1.388 . S
C2910 H2897 0.930 . S
C2910 C2909 1.388 . S
C2910 C2911 1.390 . S
C2911 C2910 1.390 . S
C2911 C2912 1.394 . S
C2911 C2917 1.465 1_556 S
C2912 C2907 1.399 . S
C2912 C2911 1.394 . S
C2912 C2913 1.518 1_556 S
C2913 C2912 1.518 1_554 S
C2913 C2914 1.502 . S
C2913 C2915 1.561 . S
C2913 C2916 1.524 . S
C2914 H2898 0.962 . S
C2914 H2899 0.977 . S
C2914 H2900 0.941 1_554 S
C2914 C2913 1.502 . S
C2915 H2901 0.960 1_554 S
C2915 H2902 0.961 . S
C2915 H2903 0.959 . S
C2915 C2913 1.561 . S
C2916 C2913 1.524 . S
C2916 C2917 1.396 . S
C2916 C2921 1.390 . S
C2917 C2911 1.465 1_554 S
C2917 C2916 1.396 . S
C2917 C2918 1.399 . S
C2918 H2904 0.929 . S
C2918 C2917 1.399 . S
C2918 C2919 1.385 . S
C2919 H2905 0.931 . S
C2919 C2918 1.385 . S
C2919 C2920 1.389 . S
C2920 C2919 1.389 . S
C2920 C2921 1.387 . S
C2921 H2906 0.930 . S
C2921 C2916 1.390 . S
C2921 C2920 1.387 . S
H2922 C2934 0.930 . S
H2923 C2936 0.930 . S
H2924 C2937 0.930 . S
H2925 C2941 0.959 . S
H2926 C2941 0.959 . S
H2927 C2941 0.961 . S
H2928 C2942 0.960 . S
H2929 C2942 0.961 . S
H2930 C2942 0.959 . S
H2931 C2945 0.929 . S
H2932 C2946 0.931 . S
H2933 C2948 0.930 . S
C2934 H2922 0.930 . S
C2934 C2935 1.399 . S
C2934 C2939 1.399 . S
C2935 C2934 1.399 . S
C2935 C2936 1.376 . S
C2936 H2923 0.930 . S
C2936 C2935 1.376 . S
C2936 C2937 1.388 . S
C2937 H2924 0.930 . S
C2937 C2936 1.388 . S
C2937 C2938 1.390 . S
C2938 C2937 1.390 . S
C2938 C2939 1.394 . S
C2938 C2944 1.465 . S
C2939 C2934 1.399 . S
C2939 C2938 1.394 . S
C2939 C2940 1.516 . S
C2940 C2939 1.516 . S
C2940 C2941 1.502 . S
C2940 C2942 1.561 . S
C2940 C2943 1.526 . S
C2941 H2925 0.959 . S
C2941 H2926 0.959 . S
C2941 H2927 0.961 . S
C2941 C2940 1.502 . S
C2942 H2928 0.960 . S
C2942 H2929 0.961 . S
C2942 H2930 0.959 . S
C2942 C2940 1.561 . S
C2943 C2940 1.526 . S
C2943 C2944 1.396 . S
C2943 C2948 1.390 . S
C2944 C2938 1.465 . S
C2944 C2943 1.396 . S
C2944 C2945 1.399 . S
C2945 H2931 0.929 . S
C2945 C2944 1.399 . S
C2945 C2946 1.385 . S
C2946 H2932 0.931 . S
C2946 C2945 1.385 . S
C2946 C2947 1.389 . S
C2947 C2946 1.389 . S
C2947 C2948 1.387 . S
C2948 H2933 0.930 . S
C2948 C2943 1.390 . S
C2948 C2947 1.387 . S
H2949 C2961 0.930 . S
H2950 C2963 0.930 . S
H2951 C2964 0.930 . S
H2952 C2968 0.959 . S
H2953 C2968 0.959 . S
H2954 C2968 0.961 . S
H2955 C2969 0.960 . S
H2956 C2969 0.961 . S
H2957 C2969 0.959 . S
H2958 C2972 0.929 . S
H2959 C2973 0.931 . S
H2960 C2975 0.930 . S
C2961 H2949 0.930 . S
C2961 C2962 1.399 . S
C2961 C2966 1.399 . S
C2962 C2961 1.399 . S
C2962 C2963 1.376 . S
C2963 H2950 0.930 . S
C2963 C2962 1.376 . S
C2963 C2964 1.388 . S
C2964 H2951 0.930 . S
C2964 C2963 1.388 . S
C2964 C2965 1.390 . S
C2965 C2964 1.390 . S
C2965 C2966 1.394 . S
C2965 C2971 1.465 . S
C2966 C2961 1.399 . S
C2966 C2965 1.394 . S
C2966 C2967 1.516 . S
C2967 C2966 1.516 . S
C2967 C2968 1.502 . S
C2967 C2969 1.561 . S
C2967 C2970 1.526 . S
C2968 H2952 0.959 . S
C2968 H2953 0.959 . S
C2968 H2954 0.961 . S
C2968 C2967 1.502 . S
C2969 H2955 0.960 . S
C2969 H2956 0.961 . S
C2969 H2957 0.959 . S
C2969 C2967 1.561 . S
C2970 C2967 1.526 . S
C2970 C2971 1.396 . S
C2970 C2975 1.390 . S
C2971 C2965 1.465 . S
C2971 C2970 1.396 . S
C2971 C2972 1.399 . S
C2972 H2958 0.929 . S
C2972 C2971 1.399 . S
C2972 C2973 1.385 . S
C2973 H2959 0.931 . S
C2973 C2972 1.385 . S
C2973 C2974 1.389 . S
C2974 C2973 1.389 . S
C2974 C2975 1.387 . S
C2975 H2960 0.930 . S
C2975 C2970 1.390 . S
C2975 C2974 1.387 . S
H2976 C2988 0.930 . S
H2977 C2990 0.930 . S
H2978 C2991 0.930 . S
H2979 C2995 0.959 . S
H2980 C2995 0.959 . S
H2981 C2995 0.961 . S
H2982 C2996 0.960 . S
H2983 C2996 0.961 . S
H2984 C2996 0.959 . S
H2985 C2999 0.929 . S
H2986 C3000 0.931 . S
H2987 C3002 0.930 . S
C2988 H2976 0.930 . S
C2988 C2989 1.399 . S
C2988 C2993 1.399 . S
C2989 C2988 1.399 . S
C2989 C2990 1.376 . S
C2990 H2977 0.930 . S
C2990 C2989 1.376 . S
C2990 C2991 1.388 . S
C2991 H2978 0.930 . S
C2991 C2990 1.388 . S
C2991 C2992 1.390 . S
C2992 C2991 1.390 . S
C2992 C2993 1.394 . S
C2992 C2998 1.465 . S
C2993 C2988 1.399 . S
C2993 C2992 1.394 . S
C2993 C2994 1.516 . S
C2994 C2993 1.516 . S
C2994 C2995 1.502 . S
C2994 C2996 1.561 . S
C2994 C2997 1.526 . S
C2995 H2979 0.959 . S
C2995 H2980 0.959 . S
C2995 H2981 0.961 . S
C2995 C2994 1.502 . S
C2996 H2982 0.960 . S
C2996 H2983 0.961 . S
C2996 H2984 0.959 . S
C2996 C2994 1.561 . S
C2997 C2994 1.526 . S
C2997 C2998 1.396 . S
C2997 C3002 1.390 . S
C2998 C2992 1.465 . S
C2998 C2997 1.396 . S
C2998 C2999 1.399 . S
C2999 H2985 0.929 . S
C2999 C2998 1.399 . S
C2999 C3000 1.385 . S
C3000 H2986 0.931 . S
C3000 C2999 1.385 . S
C3000 C3001 1.389 . S
C3001 C3000 1.389 . S
C3001 C3002 1.387 . S
C3002 H2987 0.930 . S
C3002 C2997 1.390 . S
C3002 C3001 1.387 . S
H3003 C3015 0.930 . S
H3004 C3017 0.930 . S
H3005 C3018 0.930 . S
H3006 C3022 0.959 . S
H3007 C3022 0.959 . S
H3008 C3022 0.961 . S
H3009 C3023 0.960 . S
H3010 C3023 0.961 . S
H3011 C3023 0.959 . S
H3012 C3026 0.929 . S
H3013 C3027 0.931 . S
H3014 C3029 0.930 . S
C3015 H3003 0.930 . S
C3015 C3016 1.399 . S
C3015 C3020 1.399 . S
C3016 C3015 1.399 . S
C3016 C3017 1.376 . S
C3017 H3004 0.930 . S
C3017 C3016 1.376 . S
C3017 C3018 1.388 . S
C3018 H3005 0.930 . S
C3018 C3017 1.388 . S
C3018 C3019 1.390 . S
C3019 C3018 1.390 . S
C3019 C3020 1.394 . S
C3019 C3025 1.465 . S
C3020 C3015 1.399 . S
C3020 C3019 1.394 . S
C3020 C3021 1.516 . S
C3021 C3020 1.516 . S
C3021 C3022 1.502 . S
C3021 C3023 1.561 . S
C3021 C3024 1.526 . S
C3022 H3006 0.959 . S
C3022 H3007 0.959 . S
C3022 H3008 0.961 . S
C3022 C3021 1.502 . S
C3023 H3009 0.960 . S
C3023 H3010 0.961 . S
C3023 H3011 0.959 . S
C3023 C3021 1.561 . S
C3024 C3021 1.526 . S
C3024 C3025 1.396 . S
C3024 C3029 1.390 . S
C3025 C3019 1.465 . S
C3025 C3024 1.396 . S
C3025 C3026 1.399 . S
C3026 H3012 0.929 . S
C3026 C3025 1.399 . S
C3026 C3027 1.385 . S
C3027 H3013 0.931 . S
C3027 C3026 1.385 . S
C3027 C3028 1.389 . S
C3028 C3027 1.389 . S
C3028 C3029 1.387 . S
C3029 H3014 0.930 . S
C3029 C3024 1.390 . S
C3029 C3028 1.387 . S
H3030 C3042 0.930 . S
H3031 C3044 0.930 . S
H3032 C3045 0.930 . S
H3033 C3049 0.959 . S
H3034 C3049 0.959 . S
H3035 C3049 0.961 . S
H3036 C3050 0.960 . S
H3037 C3050 0.961 . S
H3038 C3050 0.959 . S
H3039 C3053 0.929 . S
H3040 C3054 0.931 . S
H3041 C3056 0.930 . S
C3042 H3030 0.930 . S
C3042 C3043 1.399 . S
C3042 C3047 1.399 . S
C3043 C3042 1.399 . S
C3043 C3044 1.376 . S
C3044 H3031 0.930 . S
C3044 C3043 1.376 . S
C3044 C3045 1.388 . S
C3045 H3032 0.930 . S
C3045 C3044 1.388 . S
C3045 C3046 1.390 . S
C3046 C3045 1.390 . S
C3046 C3047 1.394 . S
C3046 C3052 1.465 . S
C3047 C3042 1.399 . S
C3047 C3046 1.394 . S
C3047 C3048 1.516 . S
C3048 C3047 1.516 . S
C3048 C3049 1.502 . S
C3048 C3050 1.561 . S
C3048 C3051 1.526 . S
C3049 H3033 0.959 . S
C3049 H3034 0.959 . S
C3049 H3035 0.961 . S
C3049 C3048 1.502 . S
C3050 H3036 0.960 . S
C3050 H3037 0.961 . S
C3050 H3038 0.959 . S
C3050 C3048 1.561 . S
C3051 C3048 1.526 . S
C3051 C3052 1.396 . S
C3051 C3056 1.390 . S
C3052 C3046 1.465 . S
C3052 C3051 1.396 . S
C3052 C3053 1.399 . S
C3053 H3039 0.929 . S
C3053 C3052 1.399 . S
C3053 C3054 1.385 . S
C3054 H3040 0.931 . S
C3054 C3053 1.385 . S
C3054 C3055 1.389 . S
C3055 C3054 1.389 . S
C3055 C3056 1.387 . S
C3056 H3041 0.930 . S
C3056 C3051 1.390 . S
C3056 C3055 1.387 . S
H3057 C3069 0.930 . S
H3058 C3071 0.930 . S
H3059 C3072 0.930 . S
H3060 C3076 0.959 . S
H3061 C3076 0.959 . S
H3062 C3076 0.961 . S
H3063 C3077 0.960 . S
H3064 C3077 0.961 . S
H3065 C3077 0.959 . S
H3066 C3080 0.929 . S
H3067 C3081 0.931 . S
H3068 C3083 0.930 . S
C3069 H3057 0.930 . S
C3069 C3070 1.399 . S
C3069 C3074 1.399 . S
C3070 C3069 1.399 . S
C3070 C3071 1.376 . S
C3071 H3058 0.930 . S
C3071 C3070 1.376 . S
C3071 C3072 1.388 . S
C3072 H3059 0.930 . S
C3072 C3071 1.388 . S
C3072 C3073 1.390 . S
C3073 C3072 1.390 . S
C3073 C3074 1.394 . S
C3073 C3079 1.465 . S
C3074 C3069 1.399 . S
C3074 C3073 1.394 . S
C3074 C3075 1.516 . S
C3075 C3074 1.516 . S
C3075 C3076 1.502 . S
C3075 C3077 1.561 . S
C3075 C3078 1.526 . S
C3076 H3060 0.959 . S
C3076 H3061 0.959 . S
C3076 H3062 0.961 . S
C3076 C3075 1.502 . S
C3077 H3063 0.960 . S
C3077 H3064 0.961 . S
C3077 H3065 0.959 . S
C3077 C3075 1.561 . S
C3078 C3075 1.526 . S
C3078 C3079 1.396 . S
C3078 C3083 1.390 . S
C3079 C3073 1.465 . S
C3079 C3078 1.396 . S
C3079 C3080 1.399 . S
C3080 H3066 0.929 . S
C3080 C3079 1.399 . S
C3080 C3081 1.385 . S
C3081 H3067 0.931 . S
C3081 C3080 1.385 . S
C3081 C3082 1.389 . S
C3082 C3081 1.389 . S
C3082 C3083 1.387 . S
C3083 H3068 0.930 . S
C3083 C3078 1.390 . S
C3083 C3082 1.387 . S
H3084 C3096 0.930 . S
H3085 C3098 0.930 . S
H3086 C3099 0.930 . S
H3087 C3103 0.959 . S
H3088 C3103 0.959 . S
H3089 C3103 0.961 . S
H3090 C3104 0.960 . S
H3091 C3104 0.961 . S
H3092 C3104 0.959 . S
H3093 C3107 0.929 . S
H3094 C3108 0.931 . S
H3095 C3110 0.930 . S
C3096 H3084 0.930 . S
C3096 C3097 1.399 . S
C3096 C3101 1.399 . S
C3097 C3096 1.399 . S
C3097 C3098 1.376 . S
C3098 H3085 0.930 . S
C3098 C3097 1.376 . S
C3098 C3099 1.388 . S
C3099 H3086 0.930 . S
C3099 C3098 1.388 . S
C3099 C3100 1.390 . S
C3100 C3099 1.390 . S
C3100 C3101 1.394 . S
C3100 C3106 1.465 . S
C3101 C3096 1.399 . S
C3101 C3100 1.394 . S
C3101 C3102 1.516 . S
C3102 C3101 1.516 . S
C3102 C3103 1.502 . S
C3102 C3104 1.561 . S
C3102 C3105 1.526 . S
C3103 H3087 0.959 . S
C3103 H3088 0.959 . S
C3103 H3089 0.961 . S
C3103 C3102 1.502 . S
C3104 H3090 0.960 . S
C3104 H3091 0.961 . S
C3104 H3092 0.959 . S
C3104 C3102 1.561 . S
C3105 C3102 1.526 . S
C3105 C3106 1.396 . S
C3105 C3110 1.390 . S
C3106 C3100 1.465 . S
C3106 C3105 1.396 . S
C3106 C3107 1.399 . S
C3107 H3093 0.929 . S
C3107 C3106 1.399 . S
C3107 C3108 1.385 . S
C3108 H3094 0.931 . S
C3108 C3107 1.385 . S
C3108 C3109 1.389 . S
C3109 C3108 1.389 . S
C3109 C3110 1.387 . S
C3110 H3095 0.930 . S
C3110 C3105 1.390 . S
C3110 C3109 1.387 . S
H3111 C3123 0.930 . S
H3112 C3125 0.930 . S
H3113 C3126 0.930 . S
H3114 C3130 0.959 . S
H3115 C3130 0.959 . S
H3116 C3130 0.961 . S
H3117 C3131 0.960 . S
H3118 C3131 0.961 . S
H3119 C3131 0.959 . S
H3120 C3134 0.929 . S
H3121 C3135 0.931 . S
H3122 C3137 0.930 . S
C3123 H3111 0.930 . S
C3123 C3124 1.399 . S
C3123 C3128 1.399 . S
C3124 C3123 1.399 . S
C3124 C3125 1.376 . S
C3125 H3112 0.930 . S
C3125 C3124 1.376 . S
C3125 C3126 1.388 . S
C3126 H3113 0.930 . S
C3126 C3125 1.388 . S
C3126 C3127 1.390 . S
C3127 C3126 1.390 . S
C3127 C3128 1.394 . S
C3127 C3133 1.465 . S
C3128 C3123 1.399 . S
C3128 C3127 1.394 . S
C3128 C3129 1.516 . S
C3129 C3128 1.516 . S
C3129 C3130 1.502 . S
C3129 C3131 1.561 . S
C3129 C3132 1.526 . S
C3130 H3114 0.959 . S
C3130 H3115 0.959 . S
C3130 H3116 0.961 . S
C3130 C3129 1.502 . S
C3131 H3117 0.960 . S
C3131 H3118 0.961 . S
C3131 H3119 0.959 . S
C3131 C3129 1.561 . S
C3132 C3129 1.526 . S
C3132 C3133 1.396 . S
C3132 C3137 1.390 . S
C3133 C3127 1.465 . S
C3133 C3132 1.396 . S
C3133 C3134 1.399 . S
C3134 H3120 0.929 . S
C3134 C3133 1.399 . S
C3134 C3135 1.385 . S
C3135 H3121 0.931 . S
C3135 C3134 1.385 . S
C3135 C3136 1.389 . S
C3136 C3135 1.389 . S
C3136 C3137 1.387 . S
C3137 H3122 0.930 . S
C3137 C3132 1.390 . S
C3137 C3136 1.387 . S
H3138 C3150 0.930 . S
H3139 C3152 0.930 . S
H3140 C3153 0.930 . S
H3141 C3157 0.959 . S
H3142 C3157 0.959 . S
H3143 C3157 0.961 . S
H3144 C3158 0.960 . S
H3145 C3158 0.961 . S
H3146 C3158 0.959 . S
H3147 C3161 0.929 . S
H3148 C3162 0.931 . S
H3149 C3164 0.930 . S
C3150 H3138 0.930 . S
C3150 C3151 1.399 . S
C3150 C3155 1.399 . S
C3151 C3150 1.399 . S
C3151 C3152 1.376 . S
C3152 H3139 0.930 . S
C3152 C3151 1.376 . S
C3152 C3153 1.388 . S
C3153 H3140 0.930 . S
C3153 C3152 1.388 . S
C3153 C3154 1.390 . S
C3154 C3153 1.390 . S
C3154 C3155 1.394 . S
C3154 C3160 1.465 . S
C3155 C3150 1.399 . S
C3155 C3154 1.394 . S
C3155 C3156 1.516 . S
C3156 C3155 1.516 . S
C3156 C3157 1.502 . S
C3156 C3158 1.561 . S
C3156 C3159 1.526 . S
C3157 H3141 0.959 . S
C3157 H3142 0.959 . S
C3157 H3143 0.961 . S
C3157 C3156 1.502 . S
C3158 H3144 0.960 . S
C3158 H3145 0.961 . S
C3158 H3146 0.959 . S
C3158 C3156 1.561 . S
C3159 C3156 1.526 . S
C3159 C3160 1.396 . S
C3159 C3164 1.390 . S
C3160 C3154 1.465 . S
C3160 C3159 1.396 . S
C3160 C3161 1.399 . S
C3161 H3147 0.929 . S
C3161 C3160 1.399 . S
C3161 C3162 1.385 . S
C3162 H3148 0.931 . S
C3162 C3161 1.385 . S
C3162 C3163 1.389 . S
C3163 C3162 1.389 . S
C3163 C3164 1.387 . S
C3164 H3149 0.930 . S
C3164 C3159 1.390 . S
C3164 C3163 1.387 . S
H3165 C3177 0.930 . S
H3166 C3179 0.930 . S
H3167 C3180 0.930 . S
H3168 C3184 0.959 . S
H3169 C3184 0.959 . S
H3170 C3184 0.961 . S
H3171 C3185 0.960 . S
H3172 C3185 0.961 . S
H3173 C3185 0.959 . S
H3174 C3188 0.929 . S
H3175 C3189 0.931 . S
H3176 C3191 0.930 . S
C3177 H3165 0.930 . S
C3177 C3178 1.399 . S
C3177 C3182 1.399 . S
C3178 C3177 1.399 . S
C3178 C3179 1.376 . S
C3179 H3166 0.930 . S
C3179 C3178 1.376 . S
C3179 C3180 1.388 . S
C3180 H3167 0.930 . S
C3180 C3179 1.388 . S
C3180 C3181 1.390 . S
C3181 C3180 1.390 . S
C3181 C3182 1.394 . S
C3181 C3187 1.465 . S
C3182 C3177 1.399 . S
C3182 C3181 1.394 . S
C3182 C3183 1.516 . S
C3183 C3182 1.516 . S
C3183 C3184 1.502 . S
C3183 C3185 1.561 . S
C3183 C3186 1.526 . S
C3184 H3168 0.959 . S
C3184 H3169 0.959 . S
C3184 H3170 0.961 . S
C3184 C3183 1.502 . S
C3185 H3171 0.960 . S
C3185 H3172 0.961 . S
C3185 H3173 0.959 . S
C3185 C3183 1.561 . S
C3186 C3183 1.526 . S
C3186 C3187 1.396 . S
C3186 C3191 1.390 . S
C3187 C3181 1.465 . S
C3187 C3186 1.396 . S
C3187 C3188 1.399 . S
C3188 H3174 0.929 . S
C3188 C3187 1.399 . S
C3188 C3189 1.385 . S
C3189 H3175 0.931 . S
C3189 C3188 1.385 . S
C3189 C3190 1.389 . S
C3190 C3189 1.389 . S
C3190 C3191 1.387 . S
C3191 H3176 0.930 . S
C3191 C3186 1.390 . S
C3191 C3190 1.387 . S
H3192 C3204 0.930 . S
H3193 C3206 0.930 . S
H3194 C3207 0.930 . S
H3195 C3211 0.959 . S
H3196 C3211 0.959 . S
H3197 C3211 0.961 . S
H3198 C3212 0.960 . S
H3199 C3212 0.961 . S
H3200 C3212 0.959 . S
H3201 C3215 0.929 . S
H3202 C3216 0.931 . S
H3203 C3218 0.930 . S
C3204 H3192 0.930 . S
C3204 C3205 1.399 . S
C3204 C3209 1.399 . S
C3205 C3204 1.399 . S
C3205 C3206 1.376 . S
C3206 H3193 0.930 . S
C3206 C3205 1.376 . S
C3206 C3207 1.388 . S
C3207 H3194 0.930 . S
C3207 C3206 1.388 . S
C3207 C3208 1.390 . S
C3208 C3207 1.390 . S
C3208 C3209 1.394 . S
C3208 C3214 1.465 . S
C3209 C3204 1.399 . S
C3209 C3208 1.394 . S
C3209 C3210 1.516 . S
C3210 C3209 1.516 . S
C3210 C3211 1.502 . S
C3210 C3212 1.561 . S
C3210 C3213 1.526 . S
C3211 H3195 0.959 . S
C3211 H3196 0.959 . S
C3211 H3197 0.961 . S
C3211 C3210 1.502 . S
C3212 H3198 0.960 . S
C3212 H3199 0.961 . S
C3212 H3200 0.959 . S
C3212 C3210 1.561 . S
C3213 C3210 1.526 . S
C3213 C3214 1.396 . S
C3213 C3218 1.390 . S
C3214 C3208 1.465 . S
C3214 C3213 1.396 . S
C3214 C3215 1.399 . S
C3215 H3201 0.929 . S
C3215 C3214 1.399 . S
C3215 C3216 1.385 . S
C3216 H3202 0.931 . S
C3216 C3215 1.385 . S
C3216 C3217 1.389 . S
C3217 C3216 1.389 . S
C3217 C3218 1.387 . S
C3218 H3203 0.930 . S
C3218 C3213 1.390 . S
C3218 C3217 1.387 . S
H3219 C3231 0.930 . S
H3220 C3233 0.930 . S
H3221 C3234 0.930 . S
H3222 C3238 0.959 . S
H3223 C3238 0.959 . S
H3224 C3238 0.961 . S
H3225 C3239 0.960 . S
H3226 C3239 0.961 . S
H3227 C3239 0.959 . S
H3228 C3242 0.929 . S
H3229 C3243 0.931 . S
H3230 C3245 0.930 . S
C3231 H3219 0.930 . S
C3231 C3232 1.399 . S
C3231 C3236 1.399 . S
C3232 C3231 1.399 . S
C3232 C3233 1.376 . S
C3233 H3220 0.930 . S
C3233 C3232 1.376 . S
C3233 C3234 1.388 . S
C3234 H3221 0.930 . S
C3234 C3233 1.388 . S
C3234 C3235 1.390 . S
C3235 C3234 1.390 . S
C3235 C3236 1.394 . S
C3235 C3241 1.465 . S
C3236 C3231 1.399 . S
C3236 C3235 1.394 . S
C3236 C3237 1.516 . S
C3237 C3236 1.516 . S
C3237 C3238 1.502 . S
C3237 C3239 1.561 . S
C3237 C3240 1.526 . S
C3238 H3222 0.959 . S
C3238 H3223 0.959 . S
C3238 H3224 0.961 . S
C3238 C3237 1.502 . S
C3239 H3225 0.960 . S
C3239 H3226 0.961 . S
C3239 H3227 0.959 . S
C3239 C3237 1.561 . S
C3240 C3237 1.526 . S
C3240 C3241 1.396 . S
C3240 C3245 1.390 . S
C3241 C3235 1.465 . S
C3241 C3240 1.396 . S
C3241 C3242 1.399 . S
C3242 H3228 0.929 . S
C3242 C3241 1.399 . S
C3242 C3243 1.385 . S
C3243 H3229 0.931 . S
C3243 C3242 1.385 . S
C3243 C3244 1.389 . S
C3244 C3243 1.389 . S
C3244 C3245 1.387 . S
C3245 H3230 0.930 . S
C3245 C3240 1.390 . S
C3245 C3244 1.387 . S
H3246 C3258 0.930 . S
H3247 C3260 0.930 . S
H3248 C3261 0.930 . S
H3249 C3265 0.959 . S
H3250 C3265 0.959 . S
H3251 C3265 0.961 . S
H3252 C3266 0.960 . S
H3253 C3266 0.961 . S
H3254 C3266 0.959 . S
H3255 C3269 0.929 . S
H3256 C3270 0.931 . S
H3257 C3272 0.930 . S
C3258 H3246 0.930 . S
C3258 C3259 1.399 . S
C3258 C3263 1.399 . S
C3259 C3258 1.399 . S
C3259 C3260 1.376 . S
C3260 H3247 0.930 . S
C3260 C3259 1.376 . S
C3260 C3261 1.388 . S
C3261 H3248 0.930 . S
C3261 C3260 1.388 . S
C3261 C3262 1.390 . S
C3262 C3261 1.390 . S
C3262 C3263 1.394 . S
C3262 C3268 1.465 . S
C3263 C3258 1.399 . S
C3263 C3262 1.394 . S
C3263 C3264 1.516 . S
C3264 C3263 1.516 . S
C3264 C3265 1.502 . S
C3264 C3266 1.561 . S
C3264 C3267 1.526 . S
C3265 H3249 0.959 . S
C3265 H3250 0.959 . S
C3265 H3251 0.961 . S
C3265 C3264 1.502 . S
C3266 H3252 0.960 . S
C3266 H3253 0.961 . S
C3266 H3254 0.959 . S
C3266 C3264 1.561 . S
C3267 C3264 1.526 . S
C3267 C3268 1.396 . S
C3267 C3272 1.390 . S
C3268 C3262 1.465 . S
C3268 C3267 1.396 . S
C3268 C3269 1.399 . S
C3269 H3255 0.929 . S
C3269 C3268 1.399 . S
C3269 C3270 1.385 . S
C3270 H3256 0.931 . S
C3270 C3269 1.385 . S
C3270 C3271 1.389 . S
C3271 C3270 1.389 . S
C3271 C3272 1.387 . S
C3272 H3257 0.930 . S
C3272 C3267 1.390 . S
C3272 C3271 1.387 . S
H3273 C3285 0.930 . S
H3274 C3287 0.930 . S
H3275 C3288 0.930 . S
H3276 C3292 0.959 . S
H3277 C3292 0.959 . S
H3278 C3292 0.961 . S
H3279 C3293 0.960 . S
H3280 C3293 0.961 . S
H3281 C3293 0.959 . S
H3282 C3296 0.929 . S
H3283 C3297 0.931 . S
H3284 C3299 0.930 . S
C3285 H3273 0.930 . S
C3285 C3286 1.399 . S
C3285 C3290 1.399 . S
C3286 C3285 1.399 . S
C3286 C3287 1.376 . S
C3287 H3274 0.930 . S
C3287 C3286 1.376 . S
C3287 C3288 1.388 . S
C3288 H3275 0.930 . S
C3288 C3287 1.388 . S
C3288 C3289 1.390 . S
C3289 C3288 1.390 . S
C3289 C3290 1.394 . S
C3289 C3295 1.465 . S
C3290 C3285 1.399 . S
C3290 C3289 1.394 . S
C3290 C3291 1.516 . S
C3291 C3290 1.516 . S
C3291 C3292 1.502 . S
C3291 C3293 1.561 . S
C3291 C3294 1.526 . S
C3292 H3276 0.959 . S
C3292 H3277 0.959 . S
C3292 H3278 0.961 . S
C3292 C3291 1.502 . S
C3293 H3279 0.960 . S
C3293 H3280 0.961 . S
C3293 H3281 0.959 . S
C3293 C3291 1.561 . S
C3294 C3291 1.526 . S
C3294 C3295 1.396 . S
C3294 C3299 1.390 . S
C3295 C3289 1.465 . S
C3295 C3294 1.396 . S
C3295 C3296 1.399 . S
C3296 H3282 0.929 . S
C3296 C3295 1.399 . S
C3296 C3297 1.385 . S
C3297 H3283 0.931 . S
C3297 C3296 1.385 . S
C3297 C3298 1.389 . S
C3298 C3297 1.389 . S
C3298 C3299 1.387 . S
C3299 H3284 0.930 . S
C3299 C3294 1.390 . S
C3299 C3298 1.387 . S
H3300 C3312 0.930 . S
H3301 C3314 0.930 . S
H3302 C3315 0.930 . S
H3303 C3319 0.959 . S
H3304 C3319 0.959 . S
H3305 C3319 0.961 . S
H3306 C3320 0.960 . S
H3307 C3320 0.961 . S
H3308 C3320 0.959 . S
H3309 C3323 0.929 . S
H3310 C3324 0.931 . S
H3311 C3326 0.930 . S
C3312 H3300 0.930 . S
C3312 C3313 1.399 . S
C3312 C3317 1.399 . S
C3313 C3312 1.399 . S
C3313 C3314 1.376 . S
C3314 H3301 0.930 . S
C3314 C3313 1.376 . S
C3314 C3315 1.388 . S
C3315 H3302 0.930 . S
C3315 C3314 1.388 . S
C3315 C3316 1.390 . S
C3316 C3315 1.390 . S
C3316 C3317 1.394 . S
C3316 C3322 1.465 . S
C3317 C3312 1.399 . S
C3317 C3316 1.394 . S
C3317 C3318 1.516 . S
C3318 C3317 1.516 . S
C3318 C3319 1.502 . S
C3318 C3320 1.561 . S
C3318 C3321 1.526 . S
C3319 H3303 0.959 . S
C3319 H3304 0.959 . S
C3319 H3305 0.961 . S
C3319 C3318 1.502 . S
C3320 H3306 0.960 . S
C3320 H3307 0.961 . S
C3320 H3308 0.959 . S
C3320 C3318 1.561 . S
C3321 C3318 1.526 . S
C3321 C3322 1.396 . S
C3321 C3326 1.390 . S
C3322 C3316 1.465 . S
C3322 C3321 1.396 . S
C3322 C3323 1.399 . S
C3323 H3309 0.929 . S
C3323 C3322 1.399 . S
C3323 C3324 1.385 . S
C3324 H3310 0.931 . S
C3324 C3323 1.385 . S
C3324 C3325 1.389 . S
C3325 C3324 1.389 . S
C3325 C3326 1.387 . S
C3326 H3311 0.930 . S
C3326 C3321 1.390 . S
C3326 C3325 1.387 . S
H3327 C3339 0.930 . S
H3328 C3341 0.930 . S
H3329 C3342 0.930 . S
H3330 C3346 0.959 . S
H3331 C3346 0.959 . S
H3332 C3346 0.961 . S
H3333 C3347 0.960 . S
H3334 C3347 0.961 . S
H3335 C3347 0.959 . S
H3336 C3350 0.929 . S
H3337 C3351 0.931 . S
H3338 C3353 0.930 . S
C3339 H3327 0.930 . S
C3339 C3340 1.399 . S
C3339 C3344 1.399 . S
C3340 C3339 1.399 . S
C3340 C3341 1.376 . S
C3341 H3328 0.930 . S
C3341 C3340 1.376 . S
C3341 C3342 1.388 . S
C3342 H3329 0.930 . S
C3342 C3341 1.388 . S
C3342 C3343 1.390 . S
C3343 C3342 1.390 . S
C3343 C3344 1.394 . S
C3343 C3349 1.465 . S
C3344 C3339 1.399 . S
C3344 C3343 1.394 . S
C3344 C3345 1.516 . S
C3345 C3344 1.516 . S
C3345 C3346 1.502 . S
C3345 C3347 1.561 . S
C3345 C3348 1.526 . S
C3346 H3330 0.959 . S
C3346 H3331 0.959 . S
C3346 H3332 0.961 . S
C3346 C3345 1.502 . S
C3347 H3333 0.960 . S
C3347 H3334 0.961 . S
C3347 H3335 0.959 . S
C3347 C3345 1.561 . S
C3348 C3345 1.526 . S
C3348 C3349 1.396 . S
C3348 C3353 1.390 . S
C3349 C3343 1.465 . S
C3349 C3348 1.396 . S
C3349 C3350 1.399 . S
C3350 H3336 0.929 . S
C3350 C3349 1.399 . S
C3350 C3351 1.385 . S
C3351 H3337 0.931 . S
C3351 C3350 1.385 . S
C3351 C3352 1.389 . S
C3352 C3351 1.389 . S
C3352 C3353 1.387 . S
C3353 H3338 0.930 . S
C3353 C3348 1.390 . S
C3353 C3352 1.387 . S
H3354 C3366 0.930 . S
H3355 C3368 0.930 . S
H3356 C3369 0.930 . S
H3357 C3373 0.959 . S
H3358 C3373 0.959 . S
H3359 C3373 0.961 . S
H3360 C3374 0.960 . S
H3361 C3374 0.961 . S
H3362 C3374 0.959 . S
H3363 C3377 0.929 . S
H3364 C3378 0.931 . S
H3365 C3380 0.930 . S
C3366 H3354 0.930 . S
C3366 C3367 1.399 . S
C3366 C3371 1.399 . S
C3367 C3366 1.399 . S
C3367 C3368 1.376 . S
C3368 H3355 0.930 . S
C3368 C3367 1.376 . S
C3368 C3369 1.388 . S
C3369 H3356 0.930 . S
C3369 C3368 1.388 . S
C3369 C3370 1.390 . S
C3370 C3369 1.390 . S
C3370 C3371 1.394 . S
C3370 C3376 1.465 . S
C3371 C3366 1.399 . S
C3371 C3370 1.394 . S
C3371 C3372 1.516 . S
C3372 C3371 1.516 . S
C3372 C3373 1.502 . S
C3372 C3374 1.561 . S
C3372 C3375 1.526 . S
C3373 H3357 0.959 . S
C3373 H3358 0.959 . S
C3373 H3359 0.961 . S
C3373 C3372 1.502 . S
C3374 H3360 0.960 . S
C3374 H3361 0.961 . S
C3374 H3362 0.959 . S
C3374 C3372 1.561 . S
C3375 C3372 1.526 . S
C3375 C3376 1.396 . S
C3375 C3380 1.390 . S
C3376 C3370 1.465 . S
C3376 C3375 1.396 . S
C3376 C3377 1.399 . S
C3377 H3363 0.929 . S
C3377 C3376 1.399 . S
C3377 C3378 1.385 . S
C3378 H3364 0.931 . S
C3378 C3377 1.385 . S
C3378 C3379 1.389 . S
C3379 C3378 1.389 . S
C3379 C3380 1.387 . S
C3380 H3365 0.930 . S
C3380 C3375 1.390 . S
C3380 C3379 1.387 . S
H3381 C3393 0.930 . S
H3382 C3395 0.930 . S
H3383 C3396 0.930 . S
H3384 C3400 0.959 . S
H3385 C3400 0.959 . S
H3386 C3400 0.961 . S
H3387 C3401 0.960 . S
H3388 C3401 0.961 . S
H3389 C3401 0.959 . S
H3390 C3404 0.929 . S
H3391 C3405 0.931 . S
H3392 C3407 0.930 . S
C3393 H3381 0.930 . S
C3393 C3394 1.399 . S
C3393 C3398 1.399 . S
C3394 C3393 1.399 . S
C3394 C3395 1.376 . S
C3395 H3382 0.930 . S
C3395 C3394 1.376 . S
C3395 C3396 1.388 . S
C3396 H3383 0.930 . S
C3396 C3395 1.388 . S
C3396 C3397 1.390 . S
C3397 C3396 1.390 . S
C3397 C3398 1.394 . S
C3397 C3403 1.465 . S
C3398 C3393 1.399 . S
C3398 C3397 1.394 . S
C3398 C3399 1.516 . S
C3399 C3398 1.516 . S
C3399 C3400 1.502 . S
C3399 C3401 1.561 . S
C3399 C3402 1.526 . S
C3400 H3384 0.959 . S
C3400 H3385 0.959 . S
C3400 H3386 0.961 . S
C3400 C3399 1.502 . S
C3401 H3387 0.960 . S
C3401 H3388 0.961 . S
C3401 H3389 0.959 . S
C3401 C3399 1.561 . S
C3402 C3399 1.526 . S
C3402 C3403 1.396 . S
C3402 C3407 1.390 . S
C3403 C3397 1.465 . S
C3403 C3402 1.396 . S
C3403 C3404 1.399 . S
C3404 H3390 0.929 . S
C3404 C3403 1.399 . S
C3404 C3405 1.385 . S
C3405 H3391 0.931 . S
C3405 C3404 1.385 . S
C3405 C3406 1.389 . S
C3406 C3405 1.389 . S
C3406 C3407 1.387 . S
C3407 H3392 0.930 . S
C3407 C3402 1.390 . S
C3407 C3406 1.387 . S
C2125 C29 1.203 . S
C2137 C673 1.209 . S
C2152 C724 1.231 . S
C2164 C117 1.222 . S
C2179 C205 1.253 . S
C2191 C821 1.250 . S
C2206 C284 1.249 . S
C2218 C937 1.242 . S
C2233 C1017 1.225 . S
C2245 C381 1.234 . S
C2260 C497 1.226 . S
C2272 C577 1.218 . S
C2287 C1076 1.191 . S
C2299 C1721 1.196 . S
C2314 C1173 1.227 . S
C2326 C1809 1.218 . S
C2341 C1905 1.194 . S
C2353 C1252 1.202 . S
C2368 C1340 1.196 . S
C2380 C1993 1.205 . S
C2395 C1437 1.198 . S
C2407 C2073 1.207 . S
C2422 C1633 1.238 . S
C2434 C1516 1.239 . S
C2449 C57 0.989 . S
C2461 C753 1.015 . S
C2476 C849 0.997 . S
C2488 C145 1.019 . S
C2503 C909 1.016 . S
C2515 C233 1.009 . S
C2530 C313 1.018 . S
C2542 C988 1.002 . S
C2557 C409 1.003 . S
C2569 C548 1.018 . S
C2584 C469 0.987 . S
C2596 C645 1.010 . S
C2611 C1780 1.018 . S
C2623 C1105 1.027 . S
C2638 C1201 0.999 . S
C2650 C1877 0.999 . S
C2665 C1965 1.013 . S
C2677 C1281 1.001 . S
C2692 C2044 1.027 . S
C2704 C1369 1.027 . S
C2719 C1604 1.028 . S
C2731 C1465 1.021 . S
C2746 C1545 1.023 . S
C2758 C1692 1.011 . S
C2773 C49 1.515 . S
C2785 C1349 1.515 . S
C2800 C1428 1.517 . S
C2812 C137 1.517 . S
C2827 C1525 1.513 . S
C2839 C225 1.514 . S
C2854 C321 1.525 . S
C2866 C1085 1.525 . S
C2881 C401 1.522 . S
C2893 C1164 1.522 . S
C2908 C1261 1.522 . S
C2920 C460 1.523 . S
C2935 C1897 1.527 . S
C2947 C557 1.527 . S
C2962 C1985 1.518 . S
C2974 C636 1.519 . S
C2989 C2081 1.521 . S
C3001 C761 1.521 . S
C3016 C1641 1.527 . S
C3028 C841 1.526 . S
C3043 C900 1.518 . S
C3055 C1729 1.518 . S
C3070 C997 1.527 . S
C3082 C1817 1.527 . S
C3097 C20 1.626 . S
C3109 C929 1.622 . S
C3124 C1025 1.621 . S
C3136 C108 1.626 . S
C3151 C585 1.612 . S
C3163 C196 1.620 . S
C3178 C293 1.623 . S
C3190 C665 1.626 . S
C3205 C372 1.617 . S
C3217 C733 1.609 . S
C3232 C489 1.622 . S
C3244 C812 1.626 . S
C3259 C1113 1.614 . S
C3271 C1956 1.625 . S
C3286 C1193 1.603 . S
C3298 C2053 1.615 . S
C3313 C1289 1.603 . S
C3325 C1613 1.609 . S
C3340 C1701 1.612 . S
C3352 C1377 1.603 . S
C3367 C1457 1.625 . S
C3379 C1789 1.613 . S
C3394 C1553 1.625 . S
C3406 C1868 1.615 . S
