# Generated by pormake.
# Topology whc, (6)-cn, num edge types: 1
# Building blocks:
#     Node 0, Type 0, BuildingBlock: IZENUY_clean_sbu_0, # of connection points: 6
#     Node 1, Type 0, BuildingBlock: IZENUY_clean_sbu_0, # of connection points: 6
#     Node 2, Type 0, BuildingBlock: IZENUY_clean_sbu_0, # of connection points: 6
#     Node 3, Type 0, BuildingBlock: IZENUY_clean_sbu_0, # of connection points: 6
#     Node 4, Type 0, BuildingBlock: IZENUY_clean_sbu_0, # of connection points: 6
#     Node 5, Type 0, BuildingBlock: IZENUY_clean_sbu_0, # of connection points: 6
#     Node 6, Type 0, BuildingBlock: IZENUY_clean_sbu_0, # of connection points: 6
#     Node 7, Type 0, BuildingBlock: IZENUY_clean_sbu_0, # of connection points: 6
#     Edge 8, Type (0, 0), BuildingBlock: UVAHIK_clean_linker_0, # of connection points: 2
#     Edge 9, Type (0, 0), BuildingBlock: UVAHIK_clean_linker_0, # of connection points: 2
#     Edge 10, Type (0, 0), BuildingBlock: UVAHIK_clean_linker_0, # of connection points: 2
#     Edge 11, Type (0, 0), BuildingBlock: UVAHIK_clean_linker_0, # of connection points: 2
#     Edge 12, Type (0, 0), BuildingBlock: UVAHIK_clean_linker_0, # of connection points: 2
#     Edge 13, Type (0, 0), BuildingBlock: UVAHIK_clean_linker_0, # of connection points: 2
#     Edge 14, Type (0, 0), BuildingBlock: UVAHIK_clean_linker_0, # of connection points: 2
#     Edge 15, Type (0, 0), BuildingBlock: UVAHIK_clean_linker_0, # of connection points: 2
#     Edge 16, Type (0, 0), BuildingBlock: UVAHIK_clean_linker_0, # of connection points: 2
#     Edge 17, Type (0, 0), BuildingBlock: UVAHIK_clean_linker_0, # of connection points: 2
#     Edge 18, Type (0, 0), BuildingBlock: UVAHIK_clean_linker_0, # of connection points: 2
#     Edge 19, Type (0, 0), BuildingBlock: UVAHIK_clean_linker_0, # of connection points: 2
#     Edge 20, Type (0, 0), BuildingBlock: UVAHIK_clean_linker_0, # of connection points: 2
#     Edge 21, Type (0, 0), BuildingBlock: UVAHIK_clean_linker_0, # of connection points: 2
#     Edge 22, Type (0, 0), BuildingBlock: UVAHIK_clean_linker_0, # of connection points: 2
#     Edge 23, Type (0, 0), BuildingBlock: UVAHIK_clean_linker_0, # of connection points: 2
#     Edge 24, Type (0, 0), BuildingBlock: UVAHIK_clean_linker_0, # of connection points: 2
#     Edge 25, Type (0, 0), BuildingBlock: UVAHIK_clean_linker_0, # of connection points: 2
#     Edge 26, Type (0, 0), BuildingBlock: UVAHIK_clean_linker_0, # of connection points: 2
#     Edge 27, Type (0, 0), BuildingBlock: UVAHIK_clean_linker_0, # of connection points: 2
#     Edge 28, Type (0, 0), BuildingBlock: UVAHIK_clean_linker_0, # of connection points: 2
#     Edge 29, Type (0, 0), BuildingBlock: UVAHIK_clean_linker_0, # of connection points: 2
#     Edge 30, Type (0, 0), BuildingBlock: UVAHIK_clean_linker_0, # of connection points: 2
#     Edge 31, Type (0, 0), BuildingBlock: UVAHIK_clean_linker_0, # of connection points: 2
# Relax obj value: 0.363
# Max RMSD: 0.283
# Mean RMSD: 0.283
data_MOF--net-whc--node1-IZENUY_clean_sbu_0--edge1-UVAHIK_clean_linker_0
_symmetry_space_group_name_H-M    P1
_symmetry_Int_Tables_number       1
_symmetry_cell_setting            triclinic
loop_
_symmetry_equiv_pos_as_xyz
'x, y, z'
_cell_length_a     44.621409
_cell_length_b     44.655179
_cell_length_c     37.591586
_cell_angle_alpha  90.022952
_cell_angle_beta   90.179371
_cell_angle_gamma 89.648935
loop_
_atom_site_label
_atom_site_type_symbol
_atom_site_fract_x
_atom_site_fract_y
_atom_site_fract_z
_atom_type_partial_charge
Fe0 Fe 0.48148 0.17287 0.07698 0.0
Fe1 Fe 0.41349 0.18219 0.07095 0.0
O2 O 0.4492 0.19515 0.08486 0.0
Fe3 Fe 0.45281 0.22982 0.10695 0.0
O4 O 0.47841 0.2439 0.07358 0.0
O5 O 0.50754 0.20428 0.07339 0.0
O6 O 0.47571 0.17548 0.02955 0.0
C7 C 0.45207 0.16716 0.01398 0.0
C8 C 0.49174 0.19102 0.14512 0.0
O9 O 0.4281 0.16274 0.03131 0.0
C10 C 0.40101 0.20966 0.1373 0.0
O11 O 0.46177 0.13721 0.07914 0.0
O12 O 0.41713 0.14906 0.09909 0.0
O13 O 0.48357 0.21719 0.13604 0.0
O14 O 0.48869 0.16915 0.1242 0.0
C15 C 0.40977 0.24154 0.05275 0.0
O16 O 0.3926 0.19979 0.10739 0.0
O17 O 0.42751 0.21844 0.14199 0.0
C18 C 0.43866 0.1308 0.09669 0.0
O19 O 0.40747 0.21464 0.04266 0.0
O20 O 0.42274 0.24824 0.08169 0.0
C21 C 0.50303 0.23155 0.06609 0.0
Fe22 Fe 0.19513 0.58194 0.90906 0.0
Fe23 Fe 0.19367 0.51518 0.88938 0.0
O24 O 0.21316 0.5494 0.89233 0.0
Fe25 Fe 0.25074 0.55137 0.878 0.0
O26 O 0.26313 0.56167 0.92217 0.0
O27 O 0.22974 0.59775 0.92832 0.0
O28 O 0.18919 0.56425 0.95133 0.0
C29 C 0.17617 0.53963 0.95602 0.0
C30 C 0.22608 0.60673 0.85491 0.0
O31 O 0.17199 0.52145 0.9305 0.0
C32 C 0.22476 0.51911 0.82458 0.0
O33 O 0.15715 0.57149 0.89394 0.0
O34 O 0.16525 0.53174 0.86129 0.0
O35 O 0.24822 0.59068 0.86424 0.0
O36 O 0.20031 0.60194 0.86734 0.0
C37 C 0.24826 0.49396 0.91013 0.0
O38 O 0.21212 0.50319 0.848 0.0
O39 O 0.23986 0.54174 0.83322 0.0
C40 C 0.14841 0.55287 0.87073 0.0
O41 O 0.22076 0.49593 0.91696 0.0
O42 O 0.26048 0.5123 0.88907 0.0
C43 C 0.25424 0.58524 0.93755 0.0
Fe44 Fe 0.58605 0.81004 0.07142 0.0
Fe45 Fe 0.54657 0.76523 0.11151 0.0
O46 O 0.5504 0.79873 0.08707 0.0
Fe47 Fe 0.51858 0.82148 0.07827 0.0
O48 O 0.5235 0.81681 0.03092 0.0
O49 O 0.57119 0.82888 0.03148 0.0
O50 O 0.5899 0.77648 0.04446 0.0
C51 C 0.58695 0.75009 0.05609 0.0
C52 C 0.56302 0.86282 0.09547 0.0
O53 O 0.57526 0.74502 0.08618 0.0
C54 C 0.50901 0.80668 0.14768 0.0
O55 O 0.60752 0.79278 0.10765 0.0
O56 O 0.57341 0.77715 0.14495 0.0
O57 O 0.53946 0.85659 0.07841 0.0
O58 O 0.58411 0.84405 0.09827 0.0
C59 C 0.49535 0.76293 0.07168 0.0
O60 O 0.51706 0.78003 0.14074 0.0
O61 O 0.51204 0.82736 0.12518 0.0
C62 C 0.6002 0.78392 0.13832 0.0
O63 O 0.51965 0.75036 0.08011 0.0
O64 O 0.49163 0.79069 0.0767 0.0
C65 C 0.54698 0.82424 0.01463 0.0
Fe66 Fe 0.81298 0.48106 0.91382 0.0
Fe67 Fe 0.75892 0.4489 0.88188 0.0
O68 O 0.79311 0.44751 0.90565 0.0
Fe69 Fe 0.80775 0.41293 0.9214 0.0
O70 O 0.82466 0.42936 0.96158 0.0
O71 O 0.80894 0.47623 0.96134 0.0
O72 O 0.77999 0.50556 0.91479 0.0
C73 C 0.75283 0.49994 0.92096 0.0
C74 C 0.85902 0.43981 0.89924 0.0
O75 O 0.74223 0.4746 0.91371 0.0
C76 C 0.78222 0.39709 0.85445 0.0
O77 O 0.81803 0.4874 0.86664 0.0
O78 O 0.7708 0.47936 0.85253 0.0
O79 O 0.8421 0.41747 0.89558 0.0
O80 O 0.84983 0.4633 0.91441 0.0
C81 C 0.74797 0.40674 0.93664 0.0
O82 O 0.77263 0.42319 0.84825 0.0
O83 O 0.79278 0.39034 0.88471 0.0
C84 C 0.79669 0.48876 0.84456 0.0
O85 O 0.74145 0.41873 0.90709 0.0
O86 O 0.77462 0.40597 0.94803 0.0
C87 C 0.81828 0.45342 0.97798 0.0
Fe88 Fe 0.5493 0.23663 0.61742 0.0
Fe89 Fe 0.58682 0.19213 0.57374 0.0
O90 O 0.55173 0.20444 0.59028 0.0
Fe91 Fe 0.51903 0.1841 0.5795 0.0
O92 O 0.49349 0.21636 0.58065 0.0
O93 O 0.52324 0.2548 0.5872 0.0
O94 O 0.57911 0.25664 0.59391 0.0
C95 C 0.59031 0.25266 0.56327 0.0
C96 C 0.5101 0.19515 0.65004 0.0
O97 O 0.59179 0.22686 0.54952 0.0
C98 C 0.56156 0.13934 0.59294 0.0
O99 O 0.57537 0.22125 0.64981 0.0
O100 O 0.60898 0.20621 0.61133 0.0
O101 O 0.51225 0.17577 0.62577 0.0
O102 O 0.519 0.22179 0.64529 0.0
C103 C 0.54742 0.18342 0.51581 0.0
O104 O 0.58343 0.1567 0.59763 0.0
O105 O 0.53834 0.14801 0.57655 0.0
C106 C 0.60195 0.21381 0.64264 0.0
O107 O 0.57129 0.17644 0.53234 0.0
O108 O 0.52425 0.19132 0.53261 0.0
C109 C 0.4985 0.24405 0.57761 0.0
Fe110 Fe 0.19771 0.41716 0.40634 0.0
Fe111 Fe 0.24855 0.45107 0.36975 0.0
O112 O 0.21232 0.45081 0.3885 0.0
Fe113 Fe 0.19093 0.48419 0.38907 0.0
O114 O 0.17292 0.47615 0.43202 0.0
O115 O 0.19412 0.43395 0.44962 0.0
O116 O 0.23464 0.40303 0.42131 0.0
C117 C 0.25875 0.41697 0.42827 0.0
C118 C 0.14703 0.44438 0.37312 0.0
O119 O 0.26522 0.44076 0.41192 0.0
C120 C 0.21598 0.48242 0.32081 0.0
O121 O 0.20076 0.39788 0.36383 0.0
O122 O 0.24722 0.41213 0.35496 0.0
O123 O 0.16139 0.46709 0.36368 0.0
O124 O 0.15817 0.42596 0.39528 0.0
C125 C 0.24582 0.50685 0.40476 0.0
O126 O 0.23325 0.46066 0.32697 0.0
O127 O 0.20525 0.4979 0.34609 0.0
C128 C 0.22514 0.39576 0.34706 0.0
O129 O 0.25671 0.49041 0.38059 0.0
O130 O 0.21917 0.50356 0.4146 0.0
C131 C 0.18059 0.45808 0.45649 0.0
Fe132 Fe 0.41049 0.81373 0.57144 0.0
Fe133 Fe 0.47847 0.82074 0.57804 0.0
O134 O 0.44552 0.80044 0.58734 0.0
Fe135 Fe 0.44766 0.76721 0.61262 0.0
O136 O 0.41681 0.74874 0.58887 0.0
O137 O 0.40481 0.77989 0.54556 0.0
O138 O 0.42603 0.83059 0.53088 0.0
C139 C 0.44995 0.82427 0.51427 0.0
C140 C 0.39615 0.79089 0.63968 0.0
O141 O 0.4731 0.81564 0.53078 0.0
C142 C 0.48772 0.80642 0.64762 0.0
O143 O 0.41433 0.84833 0.59685 0.0
O144 O 0.45975 0.85722 0.57724 0.0
O145 O 0.42257 0.78227 0.64608 0.0
O146 O 0.3885 0.79879 0.60861 0.0
C147 C 0.49787 0.76057 0.57221 0.0
O148 O 0.48541 0.82699 0.62483 0.0
O149 O 0.47878 0.78011 0.64081 0.0
C150 C 0.43647 0.86552 0.59357 0.0
O151 O 0.50339 0.78797 0.57734 0.0
O152 O 0.47291 0.74976 0.58086 0.0
C153 C 0.40517 0.75384 0.55864 0.0
Fe154 Fe 0.80558 0.58693 0.41885 0.0
Fe155 Fe 0.76006 0.54923 0.37667 0.0
O156 O 0.7925 0.55179 0.40353 0.0
Fe157 Fe 0.81237 0.51889 0.41537 0.0
O158 O 0.80444 0.52542 0.46189 0.0
O159 O 0.82045 0.57196 0.46109 0.0
O160 O 0.77077 0.59424 0.4423 0.0
C161 C 0.7448 0.59256 0.42891 0.0
C162 C 0.85834 0.55962 0.40243 0.0
O163 O 0.7403 0.57983 0.39924 0.0
C164 C 0.80152 0.50903 0.34501 0.0
O165 O 0.7923 0.60824 0.38024 0.0
O166 O 0.77532 0.57421 0.34339 0.0
O167 O 0.84865 0.53712 0.41893 0.0
O168 O 0.84136 0.58167 0.39588 0.0
C169 C 0.75254 0.49953 0.41786 0.0
O170 O 0.77479 0.51808 0.34978 0.0
O171 O 0.82104 0.51121 0.36925 0.0
C172 C 0.78374 0.60061 0.34947 0.0
O173 O 0.74176 0.5242 0.40775 0.0
O174 O 0.78009 0.494 0.41414 0.0
C175 C 0.81241 0.54884 0.47811 0.0
C176 C 0.2477 0.37738 0.29149 0.0
C177 C 0.23065 0.37124 0.32184 0.0
C178 C 0.26069 0.35416 0.27218 0.0
C179 C 0.26602 0.27379 0.25498 0.0
H180 H 0.35048 0.29251 0.2462 0.0
C181 C 0.38732 0.22488 0.19923 0.0
C182 C 0.37835 0.21639 0.16485 0.0
C183 C 0.36648 0.23666 0.22314 0.0
C184 C 0.32711 0.28653 0.24895 0.0
H185 H 0.21166 0.33622 0.35441 0.0
H186 H 0.23489 0.29509 0.32045 0.0
H187 H 0.31721 0.32752 0.27569 0.0
H188 H 0.34004 0.21106 0.12972 0.0
H189 H 0.3039 0.23241 0.17108 0.0
H190 H 0.27617 0.23277 0.22753 0.0
C191 C 0.23788 0.31794 0.31155 0.0
C192 C 0.30794 0.30686 0.2654 0.0
C193 C 0.22454 0.34137 0.33084 0.0
C194 C 0.34772 0.21759 0.15595 0.0
C195 C 0.32692 0.22966 0.17977 0.0
C196 C 0.28532 0.25332 0.23819 0.0
C197 C 0.25726 0.32434 0.28316 0.0
C198 C 0.27714 0.30108 0.26787 0.0
C199 C 0.33632 0.24054 0.21303 0.0
C200 C 0.31604 0.25975 0.23458 0.0
H201 H 0.25262 0.40027 0.28405 0.0
H202 H 0.27504 0.35964 0.24994 0.0
H203 H 0.24235 0.26878 0.25682 0.0
H204 H 0.41067 0.2237 0.20712 0.0
H205 H 0.37429 0.24417 0.24893 0.0
C206 C 0.22342 0.6425 0.80378 0.0
C207 C 0.23278 0.63568 0.83849 0.0
C208 C 0.23576 0.66708 0.78594 0.0
C209 C 0.30695 0.70589 0.78531 0.0
H210 H 0.26923 0.76114 0.71924 0.0
C211 C 0.38023 0.78288 0.70262 0.0
C212 C 0.37278 0.78485 0.66641 0.0
C213 C 0.35951 0.7719 0.72707 0.0
C214 C 0.28012 0.74577 0.7375 0.0
H215 H 0.26015 0.64988 0.88297 0.0
H216 H 0.28119 0.69295 0.85227 0.0
H217 H 0.23812 0.7279 0.75531 0.0
H218 H 0.33725 0.77858 0.62765 0.0
H219 H 0.30163 0.75827 0.66988 0.0
H220 H 0.34879 0.72206 0.76668 0.0
C221 C 0.26486 0.6793 0.83849 0.0
C222 C 0.26227 0.72683 0.75816 0.0
C223 C 0.25275 0.6548 0.85608 0.0
C224 C 0.34361 0.77741 0.65546 0.0
C225 C 0.32309 0.76586 0.67978 0.0
C226 C 0.3247 0.72445 0.76453 0.0
C227 C 0.25754 0.68494 0.80275 0.0
C228 C 0.27559 0.70661 0.78214 0.0
C229 C 0.33115 0.76194 0.7157 0.0
C230 C 0.31163 0.74452 0.74011 0.0
H231 H 0.20821 0.62778 0.78975 0.0
H232 H 0.22984 0.67086 0.75834 0.0
H233 H 0.31793 0.69008 0.80298 0.0
H234 H 0.40244 0.78884 0.71184 0.0
H235 H 0.36622 0.7701 0.7547 0.0
C236 C 0.76337 0.6171 0.2903 0.0
C237 C 0.77676 0.62434 0.32309 0.0
C238 C 0.75075 0.63953 0.26897 0.0
C239 C 0.7142 0.71199 0.27995 0.0
H240 H 0.71226 0.71205 0.17686 0.0
C241 C 0.65447 0.77762 0.15375 0.0
C242 C 0.62419 0.77527 0.16373 0.0
C243 C 0.67703 0.7645 0.17442 0.0
C244 C 0.71289 0.71264 0.20566 0.0
H245 H 0.78975 0.66116 0.35753 0.0
H246 H 0.76775 0.70013 0.32024 0.0
H247 H 0.74698 0.67869 0.20814 0.0
H248 H 0.59419 0.75924 0.20475 0.0
H249 H 0.63365 0.73646 0.24091 0.0
H250 H 0.6795 0.74531 0.27748 0.0
C251 C 0.7666 0.67707 0.3114 0.0
C252 C 0.73259 0.69336 0.22353 0.0
C253 C 0.77937 0.6547 0.33262 0.0
C254 C 0.61724 0.76136 0.19619 0.0
C255 C 0.63987 0.74838 0.21698 0.0
C256 C 0.69433 0.73109 0.26209 0.0
C257 C 0.75121 0.66961 0.28002 0.0
C258 C 0.7331 0.69248 0.26086 0.0
C259 C 0.66988 0.74897 0.20568 0.0
C260 C 0.69312 0.73126 0.22477 0.0
H261 H 0.7611 0.59399 0.28203 0.0
H262 H 0.73899 0.63307 0.24494 0.0
H263 H 0.71383 0.71159 0.30876 0.0
H264 H 0.66072 0.78838 0.12907 0.0
H265 H 0.70002 0.76572 0.16537 0.0
C266 C 0.77779 0.34262 0.83929 0.0
C267 C 0.77494 0.3728 0.82899 0.0
C268 C 0.76549 0.31985 0.81842 0.0
C269 C 0.7149 0.28333 0.78604 0.0
H270 H 0.71346 0.28374 0.68295 0.0
C271 C 0.61926 0.23361 0.70169 0.0
C272 C 0.62613 0.22102 0.66838 0.0
C273 C 0.64183 0.24604 0.72283 0.0
C274 C 0.71398 0.28294 0.71174 0.0
H275 H 0.75897 0.40243 0.7872 0.0
H276 H 0.73765 0.36274 0.75081 0.0
H277 H 0.74696 0.31753 0.71469 0.0
H278 H 0.66254 0.2094 0.63263 0.0
H279 H 0.70179 0.23097 0.66962 0.0
H280 H 0.68134 0.24928 0.78309 0.0
C281 C 0.74932 0.35667 0.77508 0.0
C282 C 0.73296 0.30253 0.7299 0.0
C283 C 0.76146 0.37946 0.79604 0.0
C284 C 0.65636 0.21915 0.65797 0.0
C285 C 0.67888 0.23169 0.67905 0.0
C286 C 0.69578 0.26386 0.76788 0.0
C287 C 0.75032 0.32672 0.78663 0.0
C288 C 0.73319 0.30337 0.76725 0.0
C289 C 0.67174 0.24617 0.71112 0.0
C290 C 0.69467 0.26387 0.73053 0.0
H291 H 0.78816 0.33661 0.86441 0.0
H292 H 0.76702 0.29694 0.82772 0.0
H293 H 0.71432 0.28361 0.81485 0.0
H294 H 0.59626 0.23533 0.71064 0.0
H295 H 0.63555 0.25713 0.74735 0.0
C296 C 0.48866 0.20918 0.70908 0.0
C297 C 0.49611 0.18692 0.68417 0.0
C298 C 0.47737 0.20137 0.74232 0.0
C299 C 0.44235 0.17924 0.80591 0.0
H300 H 0.49092 0.12144 0.85762 0.0
C301 C 0.42611 0.15815 0.95582 0.0
C302 C 0.45284 0.16115 0.97538 0.0
C303 C 0.42692 0.15505 0.91884 0.0
C304 C 0.47698 0.1374 0.84339 0.0
H305 H 0.49672 0.13901 0.67417 0.0
H306 H 0.4773 0.12542 0.73263 0.0
H307 H 0.49921 0.12881 0.79407 0.0
H308 H 0.50137 0.16192 0.97173 0.0
H309 H 0.50273 0.1565 0.90741 0.0
H310 H 0.42118 0.18894 0.85561 0.0
C311 C 0.4802 0.14888 0.72627 0.0
C312 C 0.48154 0.14144 0.80701 0.0
C313 C 0.49124 0.1567 0.69283 0.0
C314 C 0.48037 0.15978 0.95743 0.0
C315 C 0.48118 0.15639 0.92059 0.0
C316 C 0.43767 0.17507 0.84226 0.0
C317 C 0.4735 0.17115 0.75146 0.0
C318 C 0.46496 0.16313 0.78821 0.0
C319 C 0.45447 0.15455 0.90087 0.0
C320 C 0.45565 0.15484 0.86155 0.0
H321 H 0.49205 0.23265 0.7032 0.0
H322 H 0.4728 0.219 0.7614 0.0
H323 H 0.42905 0.19588 0.79192 0.0
H324 H 0.40454 0.15915 0.96892 0.0
H325 H 0.40602 0.15356 0.90423 0.0
C326 C 0.16366 0.55444 0.01812 0.0
C327 C 0.1667 0.53182 0.99234 0.0
C328 C 0.16059 0.5471 0.05394 0.0
C329 C 0.18832 0.49017 0.1126 0.0
H330 H 0.14154 0.53076 0.18504 0.0
C331 C 0.20735 0.46415 0.25947 0.0
C332 C 0.20662 0.488 0.2838 0.0
C333 C 0.19751 0.46812 0.22468 0.0
C334 C 0.15494 0.51946 0.16512 0.0
H335 H 0.16648 0.48386 0.98335 0.0
H336 H 0.16146 0.471 0.0463 0.0
H337 H 0.13007 0.53924 0.12208 0.0
H338 H 0.19441 0.5346 0.29112 0.0
H339 H 0.17853 0.54215 0.22929 0.0
H340 H 0.21434 0.4717 0.15484 0.0
C341 C 0.16151 0.49438 0.03864 0.0
C342 C 0.14817 0.52409 0.12917 0.0
C343 C 0.16425 0.50173 0.00268 0.0
C344 C 0.19547 0.51594 0.27274 0.0
C345 C 0.18609 0.52011 0.23748 0.0
C346 C 0.19533 0.48586 0.14832 0.0
C347 C 0.1608 0.51702 0.06464 0.0
C348 C 0.16496 0.50959 0.10263 0.0
C349 C 0.18722 0.49623 0.213 0.0
C350 C 0.17886 0.50054 0.17507 0.0
H351 H 0.16516 0.57785 0.01083 0.0
H352 H 0.16024 0.56498 0.07343 0.0
H353 H 0.20213 0.47931 0.09268 0.0
H354 H 0.21501 0.44208 0.26748 0.0
H355 H 0.19789 0.44899 0.20696 0.0
C356 C 0.51795 0.83071 0.95819 0.0
C357 C 0.5457 0.82949 0.9759 0.0
C358 C 0.51672 0.83411 0.92136 0.0
C359 C 0.55931 0.81686 0.84204 0.0
H360 H 0.49857 0.8657 0.79562 0.0
C361 C 0.50742 0.84244 0.69296 0.0
C362 C 0.50187 0.81278 0.68233 0.0
C363 C 0.51831 0.84851 0.72707 0.0
C364 C 0.516 0.85233 0.8081 0.0
H365 H 0.59393 0.83144 0.96897 0.0
H366 H 0.59168 0.83704 0.90433 0.0
H367 H 0.50674 0.87061 0.85961 0.0
H368 H 0.5047 0.76619 0.69851 0.0
H369 H 0.52375 0.77681 0.75786 0.0
H370 H 0.56783 0.79782 0.79073 0.0
C371 C 0.57095 0.83545 0.91912 0.0
C372 C 0.52047 0.85495 0.84472 0.0
C373 C 0.57219 0.83234 0.95607 0.0
C374 C 0.50862 0.78928 0.70592 0.0
C375 C 0.51977 0.79534 0.73983 0.0
C376 C 0.55469 0.81408 0.80546 0.0
C377 C 0.5432 0.83611 0.90143 0.0
C378 C 0.54161 0.83667 0.86214 0.0
C379 C 0.52418 0.82501 0.75096 0.0
C380 C 0.53244 0.83122 0.78834 0.0
H381 H 0.49713 0.82863 0.9727 0.0
H382 H 0.49502 0.83413 0.90834 0.0
H383 H 0.57565 0.80238 0.85484 0.0
H384 H 0.50258 0.86104 0.67534 0.0
H385 H 0.52169 0.87157 0.73497 0.0
C386 C 0.78691 0.48483 0.28786 0.0
C387 C 0.80953 0.49518 0.31072 0.0
C388 C 0.79396 0.47453 0.25391 0.0
C389 C 0.8164 0.4431 0.18767 0.0
H390 H 0.86192 0.49973 0.13166 0.0
C391 C 0.83138 0.42954 0.03625 0.0
C392 C 0.824 0.45538 0.01663 0.0
C393 C 0.83547 0.43113 0.07304 0.0
C394 C 0.84936 0.48361 0.14704 0.0
H395 H 0.85741 0.50198 0.31648 0.0
H396 H 0.8697 0.48425 0.2566 0.0
H397 H 0.85818 0.50647 0.19598 0.0
H398 H 0.8159 0.50327 0.02013 0.0
H399 H 0.82295 0.50597 0.08431 0.0
H400 H 0.8064 0.42104 0.13857 0.0
C401 C 0.84655 0.48405 0.26519 0.0
C402 C 0.84748 0.48728 0.18385 0.0
C403 C 0.83952 0.49404 0.29943 0.0
C404 C 0.82152 0.48295 0.03445 0.0
C405 C 0.82582 0.48455 0.07117 0.0
C406 C 0.81845 0.43932 0.15091 0.0
C407 C 0.82374 0.47464 0.24196 0.0
C408 C 0.83021 0.46758 0.20432 0.0
C409 C 0.83248 0.4586 0.09087 0.0
C410 C 0.83418 0.46007 0.13014 0.0
H411 H 0.76361 0.48533 0.29588 0.0
H412 H 0.77588 0.46776 0.23642 0.0
H413 H 0.80313 0.42748 0.20293 0.0
H414 H 0.83347 0.40795 0.02332 0.0
H415 H 0.84073 0.41082 0.08759 0.0
C416 C 0.51139 0.15741 0.19343 0.0
C417 C 0.50556 0.18642 0.18049 0.0
C418 C 0.52141 0.15318 0.22834 0.0
C419 C 0.51657 0.15401 0.30953 0.0
H420 H 0.5758 0.20505 0.35431 0.0
C421 C 0.51812 0.1797 0.45917 0.0
C422 C 0.54592 0.17957 0.47683 0.0
C423 C 0.51673 0.17647 0.4223 0.0
C424 C 0.5595 0.19036 0.34209 0.0
H425 H 0.50738 0.23379 0.1934 0.0
H426 H 0.52511 0.22636 0.25398 0.0
H427 H 0.56897 0.20672 0.28977 0.0
H428 H 0.59406 0.17599 0.4697 0.0
H429 H 0.59155 0.17076 0.40503 0.0
H430 H 0.50639 0.1384 0.36195 0.0
C431 C 0.52183 0.20691 0.23721 0.0
C432 C 0.55548 0.19145 0.30526 0.0
C433 C 0.51147 0.21113 0.20255 0.0
C434 C 0.57229 0.17607 0.45685 0.0
C435 C 0.5709 0.17318 0.41988 0.0
C436 C 0.52039 0.15314 0.34638 0.0
C437 C 0.52627 0.17791 0.25068 0.0
C438 C 0.53356 0.17374 0.28876 0.0
C439 C 0.5431 0.17338 0.40229 0.0
C440 C 0.54144 0.17176 0.36305 0.0
H441 H 0.50745 0.13792 0.17697 0.0
H442 H 0.52491 0.13059 0.23806 0.0
H443 H 0.49935 0.14029 0.2975 0.0
H444 H 0.4974 0.18234 0.4738 0.0
H445 H 0.49502 0.17711 0.40932 0.0
C446 C 0.17398 0.44316 0.51978 0.0
C447 C 0.17533 0.46588 0.494 0.0
C448 C 0.17459 0.45029 0.55589 0.0
C449 C 0.208 0.5047 0.61357 0.0
H450 H 0.15874 0.47018 0.68759 0.0
C451 C 0.22526 0.5345 0.76093 0.0
C452 C 0.2204 0.51219 0.78656 0.0
C453 C 0.21813 0.52944 0.72533 0.0
C454 C 0.17298 0.47966 0.66727 0.0
H455 H 0.17693 0.51386 0.48556 0.0
H456 H 0.17855 0.52632 0.54896 0.0
H457 H 0.14633 0.46114 0.62517 0.0
H458 H 0.20507 0.46677 0.7949 0.0
H459 H 0.19388 0.45737 0.73235 0.0
H460 H 0.23553 0.52207 0.65512 0.0
C461 C 0.1768 0.50306 0.54108 0.0
C462 C 0.16565 0.47471 0.6316 0.0
C463 C 0.17565 0.49595 0.50492 0.0
C464 C 0.20902 0.48439 0.77572 0.0
C465 C 0.20231 0.47915 0.73993 0.0
C466 C 0.21561 0.50927 0.64914 0.0
C467 C 0.17707 0.48023 0.56678 0.0
C468 C 0.18313 0.4872 0.6045 0.0
C469 C 0.2064 0.50178 0.71437 0.0
C470 C 0.19824 0.49677 0.67648 0.0
H471 H 0.17367 0.41979 0.51203 0.0
H472 H 0.17494 0.4323 0.57522 0.0
H473 H 0.22218 0.51406 0.59309 0.0
H474 H 0.23355 0.55635 0.76853 0.0
H475 H 0.22108 0.54759 0.7066 0.0
C476 C 0.48817 0.78994 0.20587 0.0
C477 C 0.49501 0.81335 0.18234 0.0
C478 C 0.47705 0.79615 0.23968 0.0
C479 C 0.44197 0.81556 0.30483 0.0
H480 H 0.49129 0.86973 0.36014 0.0
C481 C 0.42501 0.83332 0.45553 0.0
C482 C 0.4514 0.82919 0.47552 0.0
C483 C 0.42633 0.83656 0.41863 0.0
C484 C 0.47718 0.85476 0.34491 0.0
H485 H 0.49425 0.86162 0.17529 0.0
H486 H 0.47545 0.87241 0.23494 0.0
H487 H 0.49922 0.86531 0.29607 0.0
H488 H 0.4999 0.82601 0.47264 0.0
H489 H 0.50215 0.83176 0.4083 0.0
H490 H 0.42081 0.80404 0.35391 0.0
C491 C 0.47873 0.84931 0.22701 0.0
C492 C 0.48152 0.85243 0.30827 0.0
C493 C 0.48952 0.84308 0.19294 0.0
C494 C 0.47916 0.8291 0.458 0.0
C495 C 0.48049 0.83265 0.4212 0.0
C496 C 0.43746 0.81808 0.34141 0.0
C497 C 0.47277 0.82588 0.2508 0.0
C498 C 0.46458 0.83212 0.28812 0.0
C499 C 0.45408 0.83607 0.40114 0.0
C500 C 0.45566 0.83702 0.36191 0.0
H501 H 0.49197 0.76679 0.1985 0.0
H502 H 0.47298 0.77767 0.25767 0.0
H503 H 0.42849 0.79991 0.28977 0.0
H504 H 0.40328 0.83342 0.46829 0.0
H505 H 0.40568 0.83922 0.40371 0.0
C506 C 0.77756 0.50318 0.78468 0.0
C507 C 0.80112 0.50296 0.80953 0.0
C508 C 0.7816 0.51527 0.75098 0.0
C509 C 0.83999 0.53106 0.68563 0.0
H510 H 0.77266 0.56725 0.63575 0.0
C511 C 0.83379 0.56815 0.53523 0.0
C512 C 0.81443 0.54854 0.51716 0.0
C513 C 0.83517 0.568 0.57237 0.0
C514 C 0.79173 0.55757 0.64958 0.0
H515 H 0.84734 0.51582 0.81871 0.0
H516 H 0.85429 0.53744 0.75954 0.0
H517 H 0.76973 0.55926 0.69989 0.0
H518 H 0.78116 0.51375 0.52352 0.0
H519 H 0.78304 0.51417 0.58852 0.0
H520 H 0.86166 0.52915 0.63475 0.0
C521 C 0.83277 0.52792 0.76622 0.0
C522 C 0.79004 0.55277 0.68612 0.0
C523 C 0.82875 0.51563 0.8001 0.0
C524 C 0.7964 0.52894 0.53678 0.0
C525 C 0.79735 0.52926 0.57381 0.0
C526 C 0.84183 0.53632 0.64906 0.0
C527 C 0.80924 0.52767 0.74124 0.0
C528 C 0.81362 0.53828 0.70428 0.0
C529 C 0.81671 0.54875 0.59175 0.0
C530 C 0.81728 0.54861 0.63077 0.0
H531 H 0.75604 0.49344 0.79092 0.0
H532 H 0.76322 0.514 0.73217 0.0
H533 H 0.85846 0.51968 0.69875 0.0
H534 H 0.84799 0.58341 0.52066 0.0
H535 H 0.85025 0.58313 0.58596 0.0
C536 C 0.29667 0.4686 0.92653 0.0
C537 C 0.26533 0.46775 0.92341 0.0
C538 C 0.31263 0.44355 0.9388 0.0
C539 C 0.3017 0.37019 0.98515 0.0
H540 H 0.38214 0.35453 0.95079 0.0
C541 C 0.36767 0.26053 0.01443 0.0
C542 C 0.39473 0.26569 0.03256 0.0
C543 C 0.35212 0.28435 -0.00151 0.0
C544 C 0.35965 0.35867 0.96047 0.0
H545 H 0.22616 0.43982 0.92997 0.0
H546 H 0.25385 0.39589 0.94956 0.0
H547 H 0.35425 0.39777 0.9283 0.0
H548 H 0.42749 0.29931 0.04683 0.0
H549 H 0.40079 0.34069 0.01788 0.0
H550 H 0.30707 0.33038 0.01649 0.0
C551 C 0.26625 0.4161 0.94399 0.0
C552 C 0.34372 0.38361 0.94792 0.0
C553 C 0.2503 0.4413 0.93249 0.0
C554 C 0.40659 0.29477 0.03316 0.0
C555 C 0.39143 0.31839 0.01651 0.0
C556 C 0.31741 0.34493 -0.00293 0.0
C557 C 0.29766 0.41684 0.94752 0.0
C558 C 0.31457 0.38991 0.96032 0.0
C559 C 0.3638 0.31349 -0.00035 0.0
C560 C 0.34658 0.33911 0.98507 0.0
H561 H 0.30882 0.48878 0.91994 0.0
H562 H 0.33668 0.44534 0.9418 0.0
H563 H 0.27967 0.37447 -0.00394 0.0
H564 H 0.35799 0.23835 0.01373 0.0
H565 H 0.33084 0.2801 0.98554 0.0
C566 C 0.30355 0.58896 0.96923 0.0
C567 C 0.27569 0.6018 0.96019 0.0
C568 C 0.32564 0.60611 0.98578 0.0
C569 C 0.34951 0.68413 0.99195 0.0
H570 H 0.4045 0.65401 0.06376 0.0
C571 C 0.44154 0.75787 0.05379 0.0
C572 C 0.46978 0.74458 0.05952 0.0
C573 C 0.41705 0.74049 0.04371 0.0
C574 C 0.38948 0.66262 0.04345 0.0
H575 H 0.24855 0.64221 0.96356 0.0
H576 H 0.28706 0.67201 0.99268 0.0
H577 H 0.36219 0.62333 0.04491 0.0
H578 H 0.49453 0.7026 0.05854 0.0
H579 H 0.45185 0.67232 0.04038 0.0
H580 H 0.37698 0.72313 0.98993 0.0
C581 C 0.29194 0.64882 0.98639 0.0
C582 C 0.36521 0.6451 0.03277 0.0
C583 C 0.26981 0.63165 0.96995 0.0
C584 C 0.47307 0.71353 0.05451 0.0
C585 C 0.44855 0.69614 0.04436 0.0
C586 C 0.37378 0.70159 0.00255 0.0
C587 C 0.32035 0.63645 0.99361 0.0
C588 C 0.34506 0.65562 0.00677 0.0
C589 C 0.42024 0.70941 0.03899 0.0
C590 C 0.39414 0.69098 0.02828 0.0
H591 H 0.30877 0.56598 0.96227 0.0
H592 H 0.34735 0.59597 0.99086 0.0
H593 H 0.33472 0.69262 0.97135 0.0
H594 H 0.43817 0.78172 0.05752 0.0
H595 H 0.39549 0.75135 0.04017 0.0
C596 C 0.5885 0.69563 0.04221 0.0
C597 C 0.59972 0.72452 0.03632 0.0
C598 C 0.60183 0.6708 0.02613 0.0
C599 C 0.65607 0.64777 0.95605 0.0
H600 H 0.66476 0.57732 0.0157 0.0
C601 C 0.74256 0.55438 0.92999 0.0
C602 C 0.73281 0.52457 0.93244 0.0
C603 C 0.72382 0.57795 0.94008 0.0
C604 C 0.66214 0.59668 -0.00142 0.0
H605 H 0.63306 0.75027 0.0081 0.0
H606 H 0.65715 0.70674 0.98084 0.0
H607 H 0.63679 0.62048 0.03758 0.0
H608 H 0.6958 0.49608 0.94763 0.0
H609 H 0.66311 0.53756 0.96607 0.0
H610 H 0.68262 0.62413 0.91769 0.0
C611 C 0.63761 0.70328 -0.00269 0.0
C612 C 0.64604 0.62143 0.01102 0.0
C613 C 0.62394 0.72824 0.01304 0.0
C614 C 0.70391 0.51882 0.94542 0.0
C615 C 0.68526 0.54249 0.95601 0.0
C616 C 0.67247 0.62312 0.9438 0.0
C617 C 0.62702 0.67419 0.00418 0.0
C618 C 0.64296 0.64739 0.99002 0.0
C619 C 0.69505 0.57226 0.95327 0.0
C620 C 0.67586 0.59746 0.96509 0.0
H621 H 0.5695 0.69216 0.05959 0.0
H622 H 0.59254 0.64889 0.03127 0.0
H623 H 0.65373 0.66713 0.93891 0.0
H624 H 0.76466 0.55962 0.91999 0.0
H625 H 0.73205 0.60067 0.93813 0.0
C626 C 0.73056 0.36648 0.97812 0.0
C627 C 0.72404 0.39102 0.95599 0.0
C628 C 0.70732 0.34992 0.99322 0.0
C629 C 0.62761 0.35256 0.01712 0.0
H630 H 0.62898 0.26712 -0.00117 0.0
C631 C 0.52359 0.27894 0.04018 0.0
C632 C 0.52833 0.24989 0.05342 0.0
C633 C 0.54785 0.29642 0.02947 0.0
C634 C 0.6284 0.29085 0.00474 0.0
H635 H 0.68832 0.41848 0.93382 0.0
H636 H 0.64789 0.38992 0.96069 0.0
H637 H 0.67146 0.29765 0.98116 0.0
H638 H 0.56225 0.21644 0.06599 0.0
H639 H 0.60437 0.24709 0.04843 0.0
H640 H 0.58479 0.34588 0.04109 0.0
C641 C 0.67086 0.38332 0.9661 0.0
C642 C 0.65276 0.3083 -0.00543 0.0
C643 C 0.69399 0.39952 0.95057 0.0
C644 C 0.55777 0.23865 0.05561 0.0
C645 C 0.58198 0.25622 0.04535 0.0
C646 C 0.60339 0.33506 0.02772 0.0
C647 C 0.67726 0.35803 0.98698 0.0
C648 C 0.65248 0.33934 0.00038 0.0
C649 C 0.57738 0.28534 0.03216 0.0
C650 C 0.60335 0.30399 0.02139 0.0
H651 H 0.75353 0.35943 0.98269 0.0
H652 H 0.71278 0.33059 0.00944 0.0
H653 H 0.62696 0.37646 0.02207 0.0
H654 H 0.50114 0.28815 0.03799 0.0
H655 H 0.54339 0.31854 0.01883 0.0
C656 C 0.61349 0.27593 0.50929 0.0
C657 C 0.60373 0.27846 0.54468 0.0
C658 C 0.62627 0.30044 0.49203 0.0
C659 C 0.63504 0.3831 0.49828 0.0
H660 H 0.70639 0.36816 0.44234 0.0
C661 C 0.74558 0.44925 0.44515 0.0
C662 C 0.7328 0.47549 0.43092 0.0
C663 C 0.72753 0.42577 0.45631 0.0
C664 C 0.68653 0.37273 0.45797 0.0
H665 H 0.59948 0.30881 0.58956 0.0
H666 H 0.62238 0.35111 0.55985 0.0
H667 H 0.67894 0.32616 0.46689 0.0
H668 H 0.69092 0.49787 0.41784 0.0
H669 H 0.65919 0.45644 0.43712 0.0
H670 H 0.64356 0.42979 0.49068 0.0
C671 C 0.61962 0.33046 0.54511 0.0
C672 C 0.67055 0.34861 0.47165 0.0
C673 C 0.60672 0.30607 0.56226 0.0
C674 C 0.70143 0.47793 0.42868 0.0
C675 C 0.68328 0.45425 0.43978 0.0
C676 C 0.65113 0.40727 0.4847 0.0
C677 C 0.62967 0.32793 0.50984 0.0
C678 C 0.64492 0.35351 0.49251 0.0
C679 C 0.69621 0.4278 0.45339 0.0
C680 C 0.67741 0.40233 0.46501 0.0
H681 H 0.61122 0.25506 0.49487 0.0
H682 H 0.63344 0.29786 0.46469 0.0
H683 H 0.61509 0.38762 0.51377 0.0
H684 H 0.76966 0.44675 0.4477 0.0
H685 H 0.73819 0.40605 0.46752 0.0
C686 C 0.47902 0.29507 0.5612 0.0
C687 C 0.47404 0.26425 0.56577 0.0
C688 C 0.45567 0.31401 0.5503 0.0
C689 C 0.37318 0.31923 0.5457 0.0
H690 H 0.38762 0.37591 0.46966 0.0
C691 C 0.27823 0.37319 0.46319 0.0
C692 C 0.28184 0.40271 0.45107 0.0
C693 C 0.30136 0.35867 0.48155 0.0
C694 C 0.3833 0.36061 0.49137 0.0
H695 H 0.44064 0.22917 0.56241 0.0
H696 H 0.40015 0.26216 0.54327 0.0
H697 H 0.42908 0.3461 0.49314 0.0
H698 H 0.31194 0.44073 0.45054 0.0
H699 H 0.3521 0.41549 0.48301 0.0
H700 H 0.32732 0.33345 0.54363 0.0
C701 C 0.42196 0.27174 0.54852 0.0
C702 C 0.40706 0.34349 0.50476 0.0
C703 C 0.44526 0.25282 0.55923 0.0
C704 C 0.30856 0.41785 0.45913 0.0
C705 C 0.33164 0.40335 0.4776 0.0
C706 C 0.34942 0.33642 0.53239 0.0
C707 C 0.42689 0.30252 0.54394 0.0
C708 C 0.40216 0.3223 0.53167 0.0
C709 C 0.32855 0.3734 0.48836 0.0
C710 C 0.35413 0.35698 0.5047 0.0
H711 H 0.50091 0.30459 0.566 0.0
H712 H 0.46008 0.33769 0.54716 0.0
H713 H 0.36884 0.3034 0.56687 0.0
H714 H 0.25794 0.36089 0.45747 0.0
H715 H 0.29835 0.3355 0.48916 0.0
C716 C 0.37565 0.7067 0.5608 0.0
C717 C 0.38878 0.72959 0.5406 0.0
C718 C 0.35992 0.68372 0.54412 0.0
C719 C 0.35588 0.63863 0.46622 0.0
H720 H 0.27236 0.62623 0.48988 0.0
C721 C 0.28567 0.54576 0.39897 0.0
C722 C 0.26321 0.53207 0.41923 0.0
C723 C 0.30098 0.57062 0.41224 0.0
C724 C 0.2958 0.62896 0.48337 0.0
H725 H 0.39615 0.74625 0.48722 0.0
H726 H 0.36932 0.7051 0.45783 0.0
H727 H 0.29928 0.66819 0.51598 0.0
H728 H 0.23993 0.53275 0.46971 0.0
H729 H 0.26759 0.57494 0.49369 0.0
H730 H 0.35318 0.59867 0.43513 0.0
C731 C 0.37096 0.70543 0.48659 0.0
C732 C 0.31105 0.65321 0.49808 0.0
C733 C 0.38613 0.72891 0.50335 0.0
C734 C 0.2569 0.54315 0.45334 0.0
C735 C 0.27262 0.56754 0.46693 0.0
C736 C 0.34083 0.61395 0.45206 0.0
C737 C 0.3576 0.68281 0.50694 0.0
C738 C 0.34119 0.65815 0.48971 0.0
C739 C 0.2946 0.58194 0.4464 0.0
C740 C 0.31059 0.60865 0.46061 0.0
H741 H 0.37719 0.70677 0.58957 0.0
H742 H 0.34983 0.6664 0.56025 0.0
H743 H 0.37927 0.64196 0.45972 0.0
H744 H 0.29082 0.53776 0.37246 0.0
H745 H 0.31737 0.58128 0.39537 0.0
C746 C 0.72352 0.63032 0.47151 0.0
C747 C 0.71916 0.60715 0.44682 0.0
C748 C 0.69891 0.64482 0.48698 0.0
C749 C 0.61719 0.65719 0.47314 0.0
H750 H 0.62107 0.68815 0.56941 0.0
C751 C 0.51598 0.71244 0.54494 0.0
C752 C 0.52221 0.74069 0.55961 0.0
C753 C 0.5393 0.69413 0.53257 0.0
C754 C 0.61973 0.67959 0.54248 0.0
H755 H 0.68574 0.58005 0.42017 0.0
H756 H 0.64302 0.60446 0.44797 0.0
H757 H 0.66326 0.65948 0.54573 0.0
H758 H 0.55775 0.77163 0.57348 0.0
H759 H 0.59827 0.73949 0.55246 0.0
H760 H 0.57342 0.67708 0.47027 0.0
C761 C 0.66528 0.6123 0.45453 0.0
C762 C 0.64395 0.66334 0.5288 0.0
C763 C 0.6898 0.59817 0.4387 0.0
C764 C 0.55217 0.75004 0.56217 0.0
C765 C 0.57542 0.73158 0.55039 0.0
C766 C 0.59283 0.67307 0.48703 0.0
C767 C 0.66945 0.63611 0.47849 0.0
C768 C 0.64316 0.65224 0.49378 0.0
C769 C 0.56922 0.70355 0.53531 0.0
C770 C 0.59404 0.68473 0.52164 0.0
H771 H 0.74589 0.63779 0.47819 0.0
H772 H 0.70304 0.66332 0.50491 0.0
H773 H 0.6159 0.64951 0.44586 0.0
H774 H 0.49311 0.70469 0.54256 0.0
H775 H 0.534 0.67254 0.52109 0.0
C776 C 0.43483 0.07566 0.09621 0.0
C777 C 0.43883 0.10216 0.11554 0.0
C778 C 0.44647 0.04864 0.10914 0.0
C779 C 0.47083 0.99307 0.15014 0.0
H780 H 0.55698 0.00453 0.14655 0.0
C781 C 0.55152 0.8932 0.14824 0.0
C782 C 0.56363 0.89167 0.11388 0.0
C783 C 0.53967 0.92017 0.161 0.0
C784 C 0.53303 0.0011 0.1485 0.0
H785 H 0.45606 0.12137 0.16421 0.0
H786 H 0.47746 0.07419 0.18637 0.0
H787 H 0.52338 0.04815 0.14765 0.0
H788 H 0.57528 0.91703 0.06702 0.0
H789 H 0.55623 0.96471 0.09014 0.0
H790 H 0.48045 0.946 0.14956 0.0
C791 C 0.46475 0.07414 0.16176 0.0
C792 C 0.51384 0.02594 0.14923 0.0
C793 C 0.45241 0.10098 0.14923 0.0
C794 C 0.56672 0.91796 0.09395 0.0
C795 C 0.55563 0.94511 0.10709 0.0
C796 C 0.49004 0.96823 0.15031 0.0
C797 C 0.46297 0.04806 0.14105 0.0
C798 C 0.48259 0.02209 0.14876 0.0
C799 C 0.54053 0.94602 0.13983 0.0
C800 C 0.52124 0.97207 0.14818 0.0
H801 H 0.42511 0.07631 0.06976 0.0
H802 H 0.44512 0.02885 0.09253 0.0
H803 H 0.44682 0.98962 0.14948 0.0
H804 H 0.54849 0.87298 0.16369 0.0
H805 H 0.52803 0.92038 0.18625 0.0
C806 C 0.91128 0.44444 0.919 0.0
C807 C 0.89113 0.4381 0.8914 0.0
C808 C 0.94053 0.45296 0.91149 0.0
C809 C 0.98222 0.49087 0.84046 0.0
H810 H 0.04775 0.48059 0.90743 0.0
C811 C 0.10691 0.53367 0.83263 0.0
C812 C 0.11614 0.54919 0.86333 0.0
C813 C 0.07821 0.52136 0.83062 0.0
C814 C 0.02956 0.48366 0.88858 0.0
H815 H 0.88582 0.43396 0.83443 0.0
H816 H 0.93768 0.44803 0.82097 0.0
H817 H 0.00305 0.44994 0.91323 0.0
H818 H 0.10182 0.56608 0.91465 0.0
H819 H 0.05186 0.54411 0.91129 0.0
H820 H 0.00957 0.52431 0.81551 0.0
C821 C 0.93073 0.44679 0.8485 0.0
C822 C 0.00396 0.46614 0.89185 0.0
C823 C 0.90126 0.4382 0.85613 0.0
C824 C 0.09527 0.55452 0.89053 0.0
C825 C 0.06682 0.54171 0.8888 0.0
C826 C 0.00821 0.50803 0.83679 0.0
C827 C 0.95034 0.45544 0.87609 0.0
C828 C 0.97953 0.47013 0.86854 0.0
C829 C 0.05859 0.52403 0.8595 0.0
C830 C 0.03164 0.50511 0.86149 0.0
H831 H 0.90369 0.44502 0.94636 0.0
H832 H 0.95463 0.4598 0.93349 0.0
H833 H 0.96378 0.49485 0.82224 0.0
H834 H 0.12263 0.52916 0.81134 0.0
H835 H 0.07226 0.50778 0.80781 0.0
C836 C 0.44749 0.90053 0.64242 0.0
C837 C 0.43628 0.89592 0.60797 0.0
C838 C 0.45883 0.92848 0.65218 0.0
C839 C 0.4661 0.00771 0.62406 0.0
H840 H 0.54942 0.99842 0.65247 0.0
C841 C 0.55944 0.08514 0.58179 0.0
C842 C 0.56153 0.10863 0.6064 0.0
C843 C 0.54691 0.05788 0.59182 0.0
C844 C 0.52605 0.00132 0.64527 0.0
H845 H 0.42624 0.91675 0.55742 0.0
H846 H 0.44497 0.96591 0.57465 0.0
H847 H 0.51607 0.95496 0.65327 0.0
H848 H 0.55391 0.12191 0.661 0.0
H849 H 0.53172 0.07394 0.67861 0.0
H850 H 0.47666 0.05374 0.6143 0.0
C851 C 0.44498 0.94818 0.59431 0.0
C852 C 0.50692 0.97661 0.64585 0.0
C853 C 0.43406 0.92013 0.58444 0.0
C854 C 0.55332 0.10371 0.64194 0.0
C855 C 0.5404 0.07649 0.6519 0.0
C856 C 0.48516 0.03237 0.62372 0.0
C857 C 0.45885 0.95221 0.62762 0.0
C858 C 0.477 0.97938 0.63415 0.0
C859 C 0.53603 0.05396 0.62645 0.0
C860 C 0.51539 0.02911 0.63338 0.0
H861 H 0.44997 0.88186 0.66063 0.0
H862 H 0.46924 0.93103 0.67807 0.0
H863 H 0.44317 0.01051 0.61503 0.0
H864 H 0.56487 0.08881 0.55406 0.0
H865 H 0.54337 0.0408 0.57178 0.0
C866 C 0.91058 0.55155 0.4208 0.0
C867 C 0.89033 0.55949 0.39373 0.0
C868 C 0.93848 0.53943 0.41241 0.0
C869 C 0.99696 0.52742 0.34865 0.0
H870 H 0.00159 0.4477 0.38963 0.0
C871 C 0.10421 0.45799 0.33389 0.0
C872 C 0.11461 0.44496 0.36565 0.0
C873 C 0.07453 0.46776 0.33084 0.0
C874 C 0.00081 0.46992 0.37813 0.0
H875 H 0.88392 0.5632 0.33682 0.0
H876 H 0.93367 0.54265 0.32197 0.0
H877 H 0.95652 0.47802 0.3978 0.0
H878 H 0.10174 0.42967 0.41801 0.0
H879 H 0.0502 0.44718 0.41321 0.0
H880 H 0.0418 0.52026 0.3307 0.0
C881 C 0.92771 0.54583 0.34963 0.0
C882 C 0.97496 0.48721 0.38272 0.0
C883 C 0.89952 0.5579 0.35809 0.0
C884 C 0.09419 0.43932 0.39307 0.0
C885 C 0.06459 0.44952 0.39026 0.0
C886 C 0.02309 0.51029 0.3445 0.0
C887 C 0.94665 0.5351 0.3768 0.0
C888 C 0.97308 0.5163 0.36867 0.0
C889 C 0.05479 0.46514 0.35974 0.0
C890 C 0.02558 0.48152 0.35984 0.0
H891 H 0.90375 0.55224 0.44844 0.0
H892 H 0.95292 0.53162 0.43376 0.0
H893 H 0.99592 0.54981 0.33762 0.0
H894 H 0.11957 0.46248 0.31229 0.0
H895 H 0.06755 0.47883 0.30654 0.0
loop_
_geom_bond_atom_site_label_1
_geom_bond_atom_site_label_2
_geom_bond_distance
_geom_bond_site_symmetry_2
_ccdc_geom_bond_type
Fe0 O2 1.918 . S
Fe0 O5 1.997 . S
Fe0 O6 2.002 . S
Fe0 O11 1.976 . S
Fe0 O14 1.996 . S
Fe1 O2 1.918 . S
Fe1 O9 1.997 . S
Fe1 O12 1.996 . S
Fe1 O16 1.976 . S
Fe1 O19 2.002 . S
O2 Fe0 1.918 . S
O2 Fe1 1.918 . S
O2 Fe3 1.918 . S
Fe3 O2 1.918 . S
Fe3 O4 2.002 . S
Fe3 O13 1.976 . S
Fe3 O17 1.996 . S
Fe3 O20 1.997 . S
O4 Fe3 2.002 . S
O4 C21 1.295 . S
O5 Fe0 1.997 . S
O5 C21 1.235 . S
O6 Fe0 2.002 . S
O6 C7 1.295 . S
C7 O6 1.295 . S
C7 O9 1.235 . S
C8 O13 1.287 . S
C8 O14 1.255 . S
O9 Fe1 1.997 . S
O9 C7 1.235 . S
C10 O16 1.287 . S
C10 O17 1.255 . S
O11 Fe0 1.976 . S
O11 C18 1.287 . S
O12 Fe1 1.996 . S
O12 C18 1.255 . S
O13 Fe3 1.976 . S
O13 C8 1.287 . S
O14 Fe0 1.996 . S
O14 C8 1.255 . S
C15 O19 1.295 . S
C15 O20 1.235 . S
O16 Fe1 1.976 . S
O16 C10 1.287 . S
O17 Fe3 1.996 . S
O17 C10 1.255 . S
C18 O11 1.287 . S
C18 O12 1.255 . S
O19 Fe1 2.002 . S
O19 C15 1.295 . S
O20 Fe3 1.997 . S
O20 C15 1.235 . S
C21 O4 1.295 . S
C21 O5 1.235 . S
Fe22 O24 1.918 . S
Fe22 O27 1.997 . S
Fe22 O28 2.002 . S
Fe22 O33 1.976 . S
Fe22 O36 1.996 . S
Fe23 O24 1.918 . S
Fe23 O31 1.997 . S
Fe23 O34 1.996 . S
Fe23 O38 1.976 . S
Fe23 O41 2.002 . S
O24 Fe22 1.918 . S
O24 Fe23 1.918 . S
O24 Fe25 1.918 . S
Fe25 O24 1.918 . S
Fe25 O26 2.002 . S
Fe25 O35 1.976 . S
Fe25 O39 1.996 . S
Fe25 O42 1.997 . S
O26 Fe25 2.002 . S
O26 C43 1.295 . S
O27 Fe22 1.997 . S
O27 C43 1.235 . S
O28 Fe22 2.002 . S
O28 C29 1.295 . S
C29 O28 1.295 . S
C29 O31 1.235 . S
C30 O35 1.287 . S
C30 O36 1.255 . S
O31 Fe23 1.997 . S
O31 C29 1.235 . S
C32 O38 1.287 . S
C32 O39 1.255 . S
O33 Fe22 1.976 . S
O33 C40 1.287 . S
O34 Fe23 1.996 . S
O34 C40 1.255 . S
O35 Fe25 1.976 . S
O35 C30 1.287 . S
O36 Fe22 1.996 . S
O36 C30 1.255 . S
C37 O41 1.295 . S
C37 O42 1.235 . S
O38 Fe23 1.976 . S
O38 C32 1.287 . S
O39 Fe25 1.996 . S
O39 C32 1.255 . S
C40 O33 1.287 . S
C40 O34 1.255 . S
O41 Fe23 2.002 . S
O41 C37 1.295 . S
O42 Fe25 1.997 . S
O42 C37 1.235 . S
C43 O26 1.295 . S
C43 O27 1.235 . S
Fe44 O46 1.918 . S
Fe44 O49 1.997 . S
Fe44 O50 2.002 . S
Fe44 O55 1.976 . S
Fe44 O58 1.996 . S
Fe45 O46 1.918 . S
Fe45 O53 1.997 . S
Fe45 O56 1.996 . S
Fe45 O60 1.976 . S
Fe45 O63 2.002 . S
O46 Fe44 1.918 . S
O46 Fe45 1.918 . S
O46 Fe47 1.918 . S
Fe47 O46 1.918 . S
Fe47 O48 2.002 . S
Fe47 O57 1.976 . S
Fe47 O61 1.996 . S
Fe47 O64 1.997 . S
O48 Fe47 2.002 . S
O48 C65 1.295 . S
O49 Fe44 1.997 . S
O49 C65 1.235 . S
O50 Fe44 2.002 . S
O50 C51 1.295 . S
C51 O50 1.295 . S
C51 O53 1.235 . S
C52 O57 1.287 . S
C52 O58 1.255 . S
O53 Fe45 1.997 . S
O53 C51 1.235 . S
C54 O60 1.287 . S
C54 O61 1.255 . S
O55 Fe44 1.976 . S
O55 C62 1.287 . S
O56 Fe45 1.996 . S
O56 C62 1.255 . S
O57 Fe47 1.976 . S
O57 C52 1.287 . S
O58 Fe44 1.996 . S
O58 C52 1.255 . S
C59 O63 1.295 . S
C59 O64 1.235 . S
O60 Fe45 1.976 . S
O60 C54 1.287 . S
O61 Fe47 1.996 . S
O61 C54 1.255 . S
C62 O55 1.287 . S
C62 O56 1.255 . S
O63 Fe45 2.002 . S
O63 C59 1.295 . S
O64 Fe47 1.997 . S
O64 C59 1.235 . S
C65 O48 1.295 . S
C65 O49 1.235 . S
Fe66 O68 1.918 . S
Fe66 O71 1.997 . S
Fe66 O72 2.002 . S
Fe66 O77 1.976 . S
Fe66 O80 1.996 . S
Fe67 O68 1.918 . S
Fe67 O75 1.997 . S
Fe67 O78 1.996 . S
Fe67 O82 1.976 . S
Fe67 O85 2.002 . S
O68 Fe66 1.918 . S
O68 Fe67 1.918 . S
O68 Fe69 1.918 . S
Fe69 O68 1.918 . S
Fe69 O70 2.002 . S
Fe69 O79 1.976 . S
Fe69 O83 1.996 . S
Fe69 O86 1.997 . S
O70 Fe69 2.002 . S
O70 C87 1.295 . S
O71 Fe66 1.997 . S
O71 C87 1.235 . S
O72 Fe66 2.002 . S
O72 C73 1.295 . S
C73 O72 1.295 . S
C73 O75 1.235 . S
C74 O79 1.287 . S
C74 O80 1.255 . S
O75 Fe67 1.997 . S
O75 C73 1.235 . S
C76 O82 1.287 . S
C76 O83 1.255 . S
O77 Fe66 1.976 . S
O77 C84 1.287 . S
O78 Fe67 1.996 . S
O78 C84 1.255 . S
O79 Fe69 1.976 . S
O79 C74 1.287 . S
O80 Fe66 1.996 . S
O80 C74 1.255 . S
C81 O85 1.295 . S
C81 O86 1.235 . S
O82 Fe67 1.976 . S
O82 C76 1.287 . S
O83 Fe69 1.996 . S
O83 C76 1.255 . S
C84 O77 1.287 . S
C84 O78 1.255 . S
O85 Fe67 2.002 . S
O85 C81 1.295 . S
O86 Fe69 1.997 . S
O86 C81 1.235 . S
C87 O70 1.295 . S
C87 O71 1.235 . S
Fe88 O90 1.918 . S
Fe88 O93 1.997 . S
Fe88 O94 2.002 . S
Fe88 O99 1.976 . S
Fe88 O102 1.996 . S
Fe89 O90 1.918 . S
Fe89 O97 1.997 . S
Fe89 O100 1.996 . S
Fe89 O104 1.976 . S
Fe89 O107 2.002 . S
O90 Fe88 1.918 . S
O90 Fe89 1.918 . S
O90 Fe91 1.918 . S
Fe91 O90 1.918 . S
Fe91 O92 2.002 . S
Fe91 O101 1.976 . S
Fe91 O105 1.996 . S
Fe91 O108 1.997 . S
O92 Fe91 2.002 . S
O92 C109 1.295 . S
O93 Fe88 1.997 . S
O93 C109 1.235 . S
O94 Fe88 2.002 . S
O94 C95 1.295 . S
C95 O94 1.295 . S
C95 O97 1.235 . S
C96 O101 1.287 . S
C96 O102 1.255 . S
O97 Fe89 1.997 . S
O97 C95 1.235 . S
C98 O104 1.287 . S
C98 O105 1.255 . S
O99 Fe88 1.976 . S
O99 C106 1.287 . S
O100 Fe89 1.996 . S
O100 C106 1.255 . S
O101 Fe91 1.976 . S
O101 C96 1.287 . S
O102 Fe88 1.996 . S
O102 C96 1.255 . S
C103 O107 1.295 . S
C103 O108 1.235 . S
O104 Fe89 1.976 . S
O104 C98 1.287 . S
O105 Fe91 1.996 . S
O105 C98 1.255 . S
C106 O99 1.287 . S
C106 O100 1.255 . S
O107 Fe89 2.002 . S
O107 C103 1.295 . S
O108 Fe91 1.997 . S
O108 C103 1.235 . S
C109 O92 1.295 . S
C109 O93 1.235 . S
Fe110 O112 1.918 . S
Fe110 O115 1.997 . S
Fe110 O116 2.002 . S
Fe110 O121 1.976 . S
Fe110 O124 1.996 . S
Fe111 O112 1.918 . S
Fe111 O119 1.997 . S
Fe111 O122 1.996 . S
Fe111 O126 1.976 . S
Fe111 O129 2.002 . S
O112 Fe110 1.918 . S
O112 Fe111 1.918 . S
O112 Fe113 1.918 . S
Fe113 O112 1.918 . S
Fe113 O114 2.002 . S
Fe113 O123 1.976 . S
Fe113 O127 1.996 . S
Fe113 O130 1.997 . S
O114 Fe113 2.002 . S
O114 C131 1.295 . S
O115 Fe110 1.997 . S
O115 C131 1.235 . S
O116 Fe110 2.002 . S
O116 C117 1.295 . S
C117 O116 1.295 . S
C117 O119 1.235 . S
C118 O123 1.287 . S
C118 O124 1.255 . S
O119 Fe111 1.997 . S
O119 C117 1.235 . S
C120 O126 1.287 . S
C120 O127 1.255 . S
O121 Fe110 1.976 . S
O121 C128 1.287 . S
O122 Fe111 1.996 . S
O122 C128 1.255 . S
O123 Fe113 1.976 . S
O123 C118 1.287 . S
O124 Fe110 1.996 . S
O124 C118 1.255 . S
C125 O129 1.295 . S
C125 O130 1.235 . S
O126 Fe111 1.976 . S
O126 C120 1.287 . S
O127 Fe113 1.996 . S
O127 C120 1.255 . S
C128 O121 1.287 . S
C128 O122 1.255 . S
O129 Fe111 2.002 . S
O129 C125 1.295 . S
O130 Fe113 1.997 . S
O130 C125 1.235 . S
C131 O114 1.295 . S
C131 O115 1.235 . S
Fe132 O134 1.918 . S
Fe132 O137 1.997 . S
Fe132 O138 2.002 . S
Fe132 O143 1.976 . S
Fe132 O146 1.996 . S
Fe133 O134 1.918 . S
Fe133 O141 1.997 . S
Fe133 O144 1.996 . S
Fe133 O148 1.976 . S
Fe133 O151 2.002 . S
O134 Fe132 1.918 . S
O134 Fe133 1.918 . S
O134 Fe135 1.918 . S
Fe135 O134 1.918 . S
Fe135 O136 2.002 . S
Fe135 O145 1.976 . S
Fe135 O149 1.996 . S
Fe135 O152 1.997 . S
O136 Fe135 2.002 . S
O136 C153 1.295 . S
O137 Fe132 1.997 . S
O137 C153 1.235 . S
O138 Fe132 2.002 . S
O138 C139 1.295 . S
C139 O138 1.295 . S
C139 O141 1.235 . S
C140 O145 1.287 . S
C140 O146 1.255 . S
O141 Fe133 1.997 . S
O141 C139 1.235 . S
C142 O148 1.287 . S
C142 O149 1.255 . S
O143 Fe132 1.976 . S
O143 C150 1.287 . S
O144 Fe133 1.996 . S
O144 C150 1.255 . S
O145 Fe135 1.976 . S
O145 C140 1.287 . S
O146 Fe132 1.996 . S
O146 C140 1.255 . S
C147 O151 1.295 . S
C147 O152 1.235 . S
O148 Fe133 1.976 . S
O148 C142 1.287 . S
O149 Fe135 1.996 . S
O149 C142 1.255 . S
C150 O143 1.287 . S
C150 O144 1.255 . S
O151 Fe133 2.002 . S
O151 C147 1.295 . S
O152 Fe135 1.997 . S
O152 C147 1.235 . S
C153 O136 1.295 . S
C153 O137 1.235 . S
Fe154 O156 1.918 . S
Fe154 O159 1.997 . S
Fe154 O160 2.002 . S
Fe154 O165 1.976 . S
Fe154 O168 1.996 . S
Fe155 O156 1.918 . S
Fe155 O163 1.997 . S
Fe155 O166 1.996 . S
Fe155 O170 1.976 . S
Fe155 O173 2.002 . S
O156 Fe154 1.918 . S
O156 Fe155 1.918 . S
O156 Fe157 1.918 . S
Fe157 O156 1.918 . S
Fe157 O158 2.002 . S
Fe157 O167 1.976 . S
Fe157 O171 1.996 . S
Fe157 O174 1.997 . S
O158 Fe157 2.002 . S
O158 C175 1.295 . S
O159 Fe154 1.997 . S
O159 C175 1.235 . S
O160 Fe154 2.002 . S
O160 C161 1.295 . S
C161 O160 1.295 . S
C161 O163 1.235 . S
C162 O167 1.287 . S
C162 O168 1.255 . S
O163 Fe155 1.997 . S
O163 C161 1.235 . S
C164 O170 1.287 . S
C164 O171 1.255 . S
O165 Fe154 1.976 . S
O165 C172 1.287 . S
O166 Fe155 1.996 . S
O166 C172 1.255 . S
O167 Fe157 1.976 . S
O167 C162 1.287 . S
O168 Fe154 1.996 . S
O168 C162 1.255 . S
C169 O173 1.295 . S
C169 O174 1.235 . S
O170 Fe155 1.976 . S
O170 C164 1.287 . S
O171 Fe157 1.996 . S
O171 C164 1.255 . S
C172 O165 1.287 . S
C172 O166 1.255 . S
O173 Fe155 2.002 . S
O173 C169 1.295 . S
O174 Fe157 1.997 . S
O174 C169 1.235 . S
C175 O158 1.295 . S
C175 O159 1.235 . S
C176 C177 1.349 . S
C176 C178 1.327 . S
C176 H201 0.950 . S
C177 C176 1.349 . S
C177 C193 1.349 . S
C178 C176 1.327 . S
C178 C197 1.429 . S
C178 H202 0.950 . S
C179 C196 1.574 . S
C179 C198 1.368 . S
C179 H203 0.949 . S
H180 C184 0.949 . S
C181 C182 1.349 . S
C181 C183 1.327 . S
C181 H204 0.950 . S
C182 C181 1.349 . S
C182 C194 1.349 . S
C183 C181 1.327 . S
C183 C199 1.429 . S
C183 H205 0.950 . S
C184 H180 0.949 . S
C184 C192 1.574 . S
C184 C200 1.368 . S
H185 C193 0.950 . S
H186 C191 0.950 . S
H187 C192 0.949 . S
H188 C194 0.950 . S
H189 C195 0.950 . S
H190 C196 0.949 . S
C191 H186 0.950 . S
C191 C193 1.327 . S
C191 C197 1.429 . S
C192 C184 1.574 . S
C192 H187 0.949 . S
C192 C198 1.368 . S
C193 C177 1.349 . S
C193 H185 0.950 . S
C193 C191 1.327 . S
C194 C182 1.349 . S
C194 H188 0.950 . S
C194 C195 1.327 . S
C195 H189 0.950 . S
C195 C194 1.327 . S
C195 C199 1.429 . S
C196 C179 1.574 . S
C196 H190 0.949 . S
C196 C200 1.368 . S
C197 C178 1.429 . S
C197 C191 1.429 . S
C197 C198 1.523 . S
C198 C179 1.368 . S
C198 C192 1.368 . S
C198 C197 1.523 . S
C199 C183 1.429 . S
C199 C195 1.429 . S
C199 C200 1.523 . S
C200 C184 1.368 . S
C200 C196 1.368 . S
C200 C199 1.523 . S
H201 C176 0.950 . S
H202 C178 0.950 . S
H203 C179 0.949 . S
H204 C181 0.950 . S
H205 C183 0.950 . S
C206 C207 1.349 . S
C206 C208 1.327 . S
C206 H231 0.950 . S
C207 C206 1.349 . S
C207 C223 1.349 . S
C208 C206 1.327 . S
C208 C227 1.429 . S
C208 H232 0.950 . S
C209 C226 1.574 . S
C209 C228 1.368 . S
C209 H233 0.949 . S
H210 C214 0.949 . S
C211 C212 1.349 . S
C211 C213 1.327 . S
C211 H234 0.950 . S
C212 C211 1.349 . S
C212 C224 1.349 . S
C213 C211 1.327 . S
C213 C229 1.429 . S
C213 H235 0.950 . S
C214 H210 0.949 . S
C214 C222 1.574 . S
C214 C230 1.368 . S
H215 C223 0.950 . S
H216 C221 0.950 . S
H217 C222 0.949 . S
H218 C224 0.950 . S
H219 C225 0.950 . S
H220 C226 0.949 . S
C221 H216 0.950 . S
C221 C223 1.327 . S
C221 C227 1.429 . S
C222 C214 1.574 . S
C222 H217 0.949 . S
C222 C228 1.368 . S
C223 C207 1.349 . S
C223 H215 0.950 . S
C223 C221 1.327 . S
C224 C212 1.349 . S
C224 H218 0.950 . S
C224 C225 1.327 . S
C225 H219 0.950 . S
C225 C224 1.327 . S
C225 C229 1.429 . S
C226 C209 1.574 . S
C226 H220 0.949 . S
C226 C230 1.368 . S
C227 C208 1.429 . S
C227 C221 1.429 . S
C227 C228 1.523 . S
C228 C209 1.368 . S
C228 C222 1.368 . S
C228 C227 1.523 . S
C229 C213 1.429 . S
C229 C225 1.429 . S
C229 C230 1.523 . S
C230 C214 1.368 . S
C230 C226 1.368 . S
C230 C229 1.523 . S
H231 C206 0.950 . S
H232 C208 0.950 . S
H233 C209 0.949 . S
H234 C211 0.950 . S
H235 C213 0.950 . S
C236 C237 1.349 . S
C236 C238 1.327 . S
C236 H261 0.950 . S
C237 C236 1.349 . S
C237 C253 1.349 . S
C238 C236 1.327 . S
C238 C257 1.429 . S
C238 H262 0.950 . S
C239 C256 1.574 . S
C239 C258 1.368 . S
C239 H263 0.949 . S
H240 C244 0.949 . S
C241 C242 1.349 . S
C241 C243 1.327 . S
C241 H264 0.950 . S
C242 C241 1.349 . S
C242 C254 1.349 . S
C243 C241 1.327 . S
C243 C259 1.429 . S
C243 H265 0.950 . S
C244 H240 0.949 . S
C244 C252 1.574 . S
C244 C260 1.368 . S
H245 C253 0.950 . S
H246 C251 0.950 . S
H247 C252 0.949 . S
H248 C254 0.950 . S
H249 C255 0.950 . S
H250 C256 0.949 . S
C251 H246 0.950 . S
C251 C253 1.327 . S
C251 C257 1.429 . S
C252 C244 1.574 . S
C252 H247 0.949 . S
C252 C258 1.368 . S
C253 C237 1.349 . S
C253 H245 0.950 . S
C253 C251 1.327 . S
C254 C242 1.349 . S
C254 H248 0.950 . S
C254 C255 1.327 . S
C255 H249 0.950 . S
C255 C254 1.327 . S
C255 C259 1.429 . S
C256 C239 1.574 . S
C256 H250 0.949 . S
C256 C260 1.368 . S
C257 C238 1.429 . S
C257 C251 1.429 . S
C257 C258 1.523 . S
C258 C239 1.368 . S
C258 C252 1.368 . S
C258 C257 1.523 . S
C259 C243 1.429 . S
C259 C255 1.429 . S
C259 C260 1.523 . S
C260 C244 1.368 . S
C260 C256 1.368 . S
C260 C259 1.523 . S
H261 C236 0.950 . S
H262 C238 0.950 . S
H263 C239 0.949 . S
H264 C241 0.950 . S
H265 C243 0.950 . S
C266 C267 1.349 . S
C266 C268 1.327 . S
C266 H291 0.950 . S
C267 C266 1.349 . S
C267 C283 1.349 . S
C268 C266 1.327 . S
C268 C287 1.429 . S
C268 H292 0.950 . S
C269 C286 1.574 . S
C269 C288 1.368 . S
C269 H293 0.949 . S
H270 C274 0.949 . S
C271 C272 1.349 . S
C271 C273 1.327 . S
C271 H294 0.950 . S
C272 C271 1.349 . S
C272 C284 1.349 . S
C273 C271 1.327 . S
C273 C289 1.429 . S
C273 H295 0.950 . S
C274 H270 0.949 . S
C274 C282 1.574 . S
C274 C290 1.368 . S
H275 C283 0.950 . S
H276 C281 0.950 . S
H277 C282 0.949 . S
H278 C284 0.950 . S
H279 C285 0.950 . S
H280 C286 0.949 . S
C281 H276 0.950 . S
C281 C283 1.327 . S
C281 C287 1.429 . S
C282 C274 1.574 . S
C282 H277 0.949 . S
C282 C288 1.368 . S
C283 C267 1.349 . S
C283 H275 0.950 . S
C283 C281 1.327 . S
C284 C272 1.349 . S
C284 H278 0.950 . S
C284 C285 1.327 . S
C285 H279 0.950 . S
C285 C284 1.327 . S
C285 C289 1.429 . S
C286 C269 1.574 . S
C286 H280 0.949 . S
C286 C290 1.368 . S
C287 C268 1.429 . S
C287 C281 1.429 . S
C287 C288 1.523 . S
C288 C269 1.368 . S
C288 C282 1.368 . S
C288 C287 1.523 . S
C289 C273 1.429 . S
C289 C285 1.429 . S
C289 C290 1.523 . S
C290 C274 1.368 . S
C290 C286 1.368 . S
C290 C289 1.523 . S
H291 C266 0.950 . S
H292 C268 0.950 . S
H293 C269 0.949 . S
H294 C271 0.950 . S
H295 C273 0.950 . S
C296 C297 1.349 . S
C296 C298 1.327 . S
C296 H321 0.950 . S
C297 C296 1.349 . S
C297 C313 1.349 . S
C298 C296 1.327 . S
C298 C317 1.429 . S
C298 H322 0.950 . S
C299 C316 1.574 . S
C299 C318 1.368 . S
C299 H323 0.949 . S
H300 C304 0.949 . S
C301 C302 1.349 . S
C301 C303 1.327 . S
C301 H324 0.950 . S
C302 C301 1.349 . S
C302 C314 1.349 . S
C303 C301 1.327 . S
C303 C319 1.429 . S
C303 H325 0.950 . S
C304 H300 0.949 . S
C304 C312 1.574 . S
C304 C320 1.368 . S
H305 C313 0.950 . S
H306 C311 0.950 . S
H307 C312 0.949 . S
H308 C314 0.950 . S
H309 C315 0.950 . S
H310 C316 0.949 . S
C311 H306 0.950 . S
C311 C313 1.327 . S
C311 C317 1.429 . S
C312 C304 1.574 . S
C312 H307 0.949 . S
C312 C318 1.368 . S
C313 C297 1.349 . S
C313 H305 0.950 . S
C313 C311 1.327 . S
C314 C302 1.349 . S
C314 H308 0.950 . S
C314 C315 1.327 . S
C315 H309 0.950 . S
C315 C314 1.327 . S
C315 C319 1.429 . S
C316 C299 1.574 . S
C316 H310 0.949 . S
C316 C320 1.368 . S
C317 C298 1.429 . S
C317 C311 1.429 . S
C317 C318 1.523 . S
C318 C299 1.368 . S
C318 C312 1.368 . S
C318 C317 1.523 . S
C319 C303 1.429 . S
C319 C315 1.429 . S
C319 C320 1.523 . S
C320 C304 1.368 . S
C320 C316 1.368 . S
C320 C319 1.523 . S
H321 C296 0.950 . S
H322 C298 0.950 . S
H323 C299 0.949 . S
H324 C301 0.950 . S
H325 C303 0.950 . S
C326 C327 1.349 . S
C326 C328 1.327 . S
C326 H351 0.950 . S
C327 C326 1.349 . S
C327 C343 1.349 . S
C328 C326 1.327 . S
C328 C347 1.429 . S
C328 H352 0.950 . S
C329 C346 1.574 . S
C329 C348 1.368 . S
C329 H353 0.949 . S
H330 C334 0.949 . S
C331 C332 1.349 . S
C331 C333 1.327 . S
C331 H354 0.950 . S
C332 C331 1.349 . S
C332 C344 1.349 . S
C333 C331 1.327 . S
C333 C349 1.429 . S
C333 H355 0.950 . S
C334 H330 0.949 . S
C334 C342 1.574 . S
C334 C350 1.368 . S
H335 C343 0.950 . S
H336 C341 0.950 . S
H337 C342 0.949 . S
H338 C344 0.950 . S
H339 C345 0.950 . S
H340 C346 0.949 . S
C341 H336 0.950 . S
C341 C343 1.327 . S
C341 C347 1.429 . S
C342 C334 1.574 . S
C342 H337 0.949 . S
C342 C348 1.368 . S
C343 C327 1.349 . S
C343 H335 0.950 . S
C343 C341 1.327 . S
C344 C332 1.349 . S
C344 H338 0.950 . S
C344 C345 1.327 . S
C345 H339 0.950 . S
C345 C344 1.327 . S
C345 C349 1.429 . S
C346 C329 1.574 . S
C346 H340 0.949 . S
C346 C350 1.368 . S
C347 C328 1.429 . S
C347 C341 1.429 . S
C347 C348 1.523 . S
C348 C329 1.368 . S
C348 C342 1.368 . S
C348 C347 1.523 . S
C349 C333 1.429 . S
C349 C345 1.429 . S
C349 C350 1.523 . S
C350 C334 1.368 . S
C350 C346 1.368 . S
C350 C349 1.523 . S
H351 C326 0.950 . S
H352 C328 0.950 . S
H353 C329 0.949 . S
H354 C331 0.950 . S
H355 C333 0.950 . S
C356 C357 1.349 . S
C356 C358 1.327 . S
C356 H381 0.950 . S
C357 C356 1.349 . S
C357 C373 1.349 . S
C358 C356 1.327 . S
C358 C377 1.429 . S
C358 H382 0.950 . S
C359 C376 1.574 . S
C359 C378 1.368 . S
C359 H383 0.949 . S
H360 C364 0.949 . S
C361 C362 1.349 . S
C361 C363 1.327 . S
C361 H384 0.950 . S
C362 C361 1.349 . S
C362 C374 1.349 . S
C363 C361 1.327 . S
C363 C379 1.429 . S
C363 H385 0.950 . S
C364 H360 0.949 . S
C364 C372 1.574 . S
C364 C380 1.368 . S
H365 C373 0.950 . S
H366 C371 0.950 . S
H367 C372 0.949 . S
H368 C374 0.950 . S
H369 C375 0.950 . S
H370 C376 0.949 . S
C371 H366 0.950 . S
C371 C373 1.327 . S
C371 C377 1.429 . S
C372 C364 1.574 . S
C372 H367 0.949 . S
C372 C378 1.368 . S
C373 C357 1.349 . S
C373 H365 0.950 . S
C373 C371 1.327 . S
C374 C362 1.349 . S
C374 H368 0.950 . S
C374 C375 1.327 . S
C375 H369 0.950 . S
C375 C374 1.327 . S
C375 C379 1.429 . S
C376 C359 1.574 . S
C376 H370 0.949 . S
C376 C380 1.368 . S
C377 C358 1.429 . S
C377 C371 1.429 . S
C377 C378 1.523 . S
C378 C359 1.368 . S
C378 C372 1.368 . S
C378 C377 1.523 . S
C379 C363 1.429 . S
C379 C375 1.429 . S
C379 C380 1.523 . S
C380 C364 1.368 . S
C380 C376 1.368 . S
C380 C379 1.523 . S
H381 C356 0.950 . S
H382 C358 0.950 . S
H383 C359 0.949 . S
H384 C361 0.950 . S
H385 C363 0.950 . S
C386 C387 1.349 . S
C386 C388 1.327 . S
C386 H411 0.950 . S
C387 C386 1.349 . S
C387 C403 1.349 . S
C388 C386 1.327 . S
C388 C407 1.429 . S
C388 H412 0.950 . S
C389 C406 1.574 . S
C389 C408 1.368 . S
C389 H413 0.949 . S
H390 C394 0.949 . S
C391 C392 1.349 . S
C391 C393 1.327 . S
C391 H414 0.950 . S
C392 C391 1.349 . S
C392 C404 1.349 . S
C393 C391 1.327 . S
C393 C409 1.429 . S
C393 H415 0.950 . S
C394 H390 0.949 . S
C394 C402 1.574 . S
C394 C410 1.368 . S
H395 C403 0.950 . S
H396 C401 0.950 . S
H397 C402 0.949 . S
H398 C404 0.950 . S
H399 C405 0.950 . S
H400 C406 0.949 . S
C401 H396 0.950 . S
C401 C403 1.327 . S
C401 C407 1.429 . S
C402 C394 1.574 . S
C402 H397 0.949 . S
C402 C408 1.368 . S
C403 C387 1.349 . S
C403 H395 0.950 . S
C403 C401 1.327 . S
C404 C392 1.349 . S
C404 H398 0.950 . S
C404 C405 1.327 . S
C405 H399 0.950 . S
C405 C404 1.327 . S
C405 C409 1.429 . S
C406 C389 1.574 . S
C406 H400 0.949 . S
C406 C410 1.368 . S
C407 C388 1.429 . S
C407 C401 1.429 . S
C407 C408 1.523 . S
C408 C389 1.368 . S
C408 C402 1.368 . S
C408 C407 1.523 . S
C409 C393 1.429 . S
C409 C405 1.429 . S
C409 C410 1.523 . S
C410 C394 1.368 . S
C410 C406 1.368 . S
C410 C409 1.523 . S
H411 C386 0.950 . S
H412 C388 0.950 . S
H413 C389 0.949 . S
H414 C391 0.950 . S
H415 C393 0.950 . S
C416 C417 1.349 . S
C416 C418 1.327 . S
C416 H441 0.950 . S
C417 C416 1.349 . S
C417 C433 1.349 . S
C418 C416 1.327 . S
C418 C437 1.429 . S
C418 H442 0.950 . S
C419 C436 1.574 . S
C419 C438 1.368 . S
C419 H443 0.949 . S
H420 C424 0.949 . S
C421 C422 1.349 . S
C421 C423 1.327 . S
C421 H444 0.950 . S
C422 C421 1.349 . S
C422 C434 1.349 . S
C423 C421 1.327 . S
C423 C439 1.429 . S
C423 H445 0.950 . S
C424 H420 0.949 . S
C424 C432 1.574 . S
C424 C440 1.368 . S
H425 C433 0.950 . S
H426 C431 0.950 . S
H427 C432 0.949 . S
H428 C434 0.950 . S
H429 C435 0.950 . S
H430 C436 0.949 . S
C431 H426 0.950 . S
C431 C433 1.327 . S
C431 C437 1.429 . S
C432 C424 1.574 . S
C432 H427 0.949 . S
C432 C438 1.368 . S
C433 C417 1.349 . S
C433 H425 0.950 . S
C433 C431 1.327 . S
C434 C422 1.349 . S
C434 H428 0.950 . S
C434 C435 1.327 . S
C435 H429 0.950 . S
C435 C434 1.327 . S
C435 C439 1.429 . S
C436 C419 1.574 . S
C436 H430 0.949 . S
C436 C440 1.368 . S
C437 C418 1.429 . S
C437 C431 1.429 . S
C437 C438 1.523 . S
C438 C419 1.368 . S
C438 C432 1.368 . S
C438 C437 1.523 . S
C439 C423 1.429 . S
C439 C435 1.429 . S
C439 C440 1.523 . S
C440 C424 1.368 . S
C440 C436 1.368 . S
C440 C439 1.523 . S
H441 C416 0.950 . S
H442 C418 0.950 . S
H443 C419 0.949 . S
H444 C421 0.950 . S
H445 C423 0.950 . S
C446 C447 1.349 . S
C446 C448 1.327 . S
C446 H471 0.950 . S
C447 C446 1.349 . S
C447 C463 1.349 . S
C448 C446 1.327 . S
C448 C467 1.429 . S
C448 H472 0.950 . S
C449 C466 1.574 . S
C449 C468 1.368 . S
C449 H473 0.949 . S
H450 C454 0.949 . S
C451 C452 1.349 . S
C451 C453 1.327 . S
C451 H474 0.950 . S
C452 C451 1.349 . S
C452 C464 1.349 . S
C453 C451 1.327 . S
C453 C469 1.429 . S
C453 H475 0.950 . S
C454 H450 0.949 . S
C454 C462 1.574 . S
C454 C470 1.368 . S
H455 C463 0.950 . S
H456 C461 0.950 . S
H457 C462 0.949 . S
H458 C464 0.950 . S
H459 C465 0.950 . S
H460 C466 0.949 . S
C461 H456 0.950 . S
C461 C463 1.327 . S
C461 C467 1.429 . S
C462 C454 1.574 . S
C462 H457 0.949 . S
C462 C468 1.368 . S
C463 C447 1.349 . S
C463 H455 0.950 . S
C463 C461 1.327 . S
C464 C452 1.349 . S
C464 H458 0.950 . S
C464 C465 1.327 . S
C465 H459 0.950 . S
C465 C464 1.327 . S
C465 C469 1.429 . S
C466 C449 1.574 . S
C466 H460 0.949 . S
C466 C470 1.368 . S
C467 C448 1.429 . S
C467 C461 1.429 . S
C467 C468 1.523 . S
C468 C449 1.368 . S
C468 C462 1.368 . S
C468 C467 1.523 . S
C469 C453 1.429 . S
C469 C465 1.429 . S
C469 C470 1.523 . S
C470 C454 1.368 . S
C470 C466 1.368 . S
C470 C469 1.523 . S
H471 C446 0.950 . S
H472 C448 0.950 . S
H473 C449 0.949 . S
H474 C451 0.950 . S
H475 C453 0.950 . S
C476 C477 1.349 . S
C476 C478 1.327 . S
C476 H501 0.950 . S
C477 C476 1.349 . S
C477 C493 1.349 . S
C478 C476 1.327 . S
C478 C497 1.429 . S
C478 H502 0.950 . S
C479 C496 1.574 . S
C479 C498 1.368 . S
C479 H503 0.949 . S
H480 C484 0.949 . S
C481 C482 1.349 . S
C481 C483 1.327 . S
C481 H504 0.950 . S
C482 C481 1.349 . S
C482 C494 1.349 . S
C483 C481 1.327 . S
C483 C499 1.429 . S
C483 H505 0.950 . S
C484 H480 0.949 . S
C484 C492 1.574 . S
C484 C500 1.368 . S
H485 C493 0.950 . S
H486 C491 0.950 . S
H487 C492 0.949 . S
H488 C494 0.950 . S
H489 C495 0.950 . S
H490 C496 0.949 . S
C491 H486 0.950 . S
C491 C493 1.327 . S
C491 C497 1.429 . S
C492 C484 1.574 . S
C492 H487 0.949 . S
C492 C498 1.368 . S
C493 C477 1.349 . S
C493 H485 0.950 . S
C493 C491 1.327 . S
C494 C482 1.349 . S
C494 H488 0.950 . S
C494 C495 1.327 . S
C495 H489 0.950 . S
C495 C494 1.327 . S
C495 C499 1.429 . S
C496 C479 1.574 . S
C496 H490 0.949 . S
C496 C500 1.368 . S
C497 C478 1.429 . S
C497 C491 1.429 . S
C497 C498 1.523 . S
C498 C479 1.368 . S
C498 C492 1.368 . S
C498 C497 1.523 . S
C499 C483 1.429 . S
C499 C495 1.429 . S
C499 C500 1.523 . S
C500 C484 1.368 . S
C500 C496 1.368 . S
C500 C499 1.523 . S
H501 C476 0.950 . S
H502 C478 0.950 . S
H503 C479 0.949 . S
H504 C481 0.950 . S
H505 C483 0.950 . S
C506 C507 1.349 . S
C506 C508 1.327 . S
C506 H531 0.950 . S
C507 C506 1.349 . S
C507 C523 1.349 . S
C508 C506 1.327 . S
C508 C527 1.429 . S
C508 H532 0.950 . S
C509 C526 1.574 . S
C509 C528 1.368 . S
C509 H533 0.949 . S
H510 C514 0.949 . S
C511 C512 1.349 . S
C511 C513 1.327 . S
C511 H534 0.950 . S
C512 C511 1.349 . S
C512 C524 1.349 . S
C513 C511 1.327 . S
C513 C529 1.429 . S
C513 H535 0.950 . S
C514 H510 0.949 . S
C514 C522 1.574 . S
C514 C530 1.368 . S
H515 C523 0.950 . S
H516 C521 0.950 . S
H517 C522 0.949 . S
H518 C524 0.950 . S
H519 C525 0.950 . S
H520 C526 0.949 . S
C521 H516 0.950 . S
C521 C523 1.327 . S
C521 C527 1.429 . S
C522 C514 1.574 . S
C522 H517 0.949 . S
C522 C528 1.368 . S
C523 C507 1.349 . S
C523 H515 0.950 . S
C523 C521 1.327 . S
C524 C512 1.349 . S
C524 H518 0.950 . S
C524 C525 1.327 . S
C525 H519 0.950 . S
C525 C524 1.327 . S
C525 C529 1.429 . S
C526 C509 1.574 . S
C526 H520 0.949 . S
C526 C530 1.368 . S
C527 C508 1.429 . S
C527 C521 1.429 . S
C527 C528 1.523 . S
C528 C509 1.368 . S
C528 C522 1.368 . S
C528 C527 1.523 . S
C529 C513 1.429 . S
C529 C525 1.429 . S
C529 C530 1.523 . S
C530 C514 1.368 . S
C530 C526 1.368 . S
C530 C529 1.523 . S
H531 C506 0.950 . S
H532 C508 0.950 . S
H533 C509 0.949 . S
H534 C511 0.950 . S
H535 C513 0.950 . S
C536 C537 1.349 . S
C536 C538 1.327 . S
C536 H561 0.950 . S
C537 C536 1.349 . S
C537 C553 1.349 . S
C538 C536 1.327 . S
C538 C557 1.429 . S
C538 H562 0.950 . S
C539 C556 1.574 . S
C539 C558 1.368 1_554 S
C539 H563 0.949 . S
H540 C544 0.949 . S
C541 C542 1.349 . S
C541 C543 1.327 . S
C541 H564 0.950 . S
C542 C541 1.349 . S
C542 C554 1.349 . S
C543 C541 1.327 . S
C543 C559 1.429 . S
C543 H565 0.950 . S
C544 H540 0.949 . S
C544 C552 1.574 . S
C544 C560 1.368 . S
H545 C553 0.950 . S
H546 C551 0.950 1_554 S
H547 C552 0.949 . S
H548 C554 0.950 1_556 S
H549 C555 0.950 . S
H550 C556 0.949 . S
C551 H546 0.950 1_556 S
C551 C553 1.327 . S
C551 C557 1.429 . S
C552 C544 1.574 . S
C552 H547 0.949 . S
C552 C558 1.368 . S
C553 C537 1.349 . S
C553 H545 0.950 . S
C553 C551 1.327 . S
C554 C542 1.349 . S
C554 H548 0.950 1_554 S
C554 C555 1.327 1_554 S
C555 H549 0.950 . S
C555 C554 1.327 1_556 S
C555 C559 1.429 1_556 S
C556 C539 1.574 . S
C556 H550 0.949 . S
C556 C560 1.368 1_554 S
C557 C538 1.429 . S
C557 C551 1.429 . S
C557 C558 1.523 . S
C558 C539 1.368 1_556 S
C558 C552 1.368 . S
C558 C557 1.523 . S
C559 C543 1.429 . S
C559 C555 1.429 1_554 S
C559 C560 1.523 1_554 S
C560 C544 1.368 . S
C560 C556 1.368 1_556 S
C560 C559 1.523 1_556 S
H561 C536 0.950 . S
H562 C538 0.950 . S
H563 C539 0.949 . S
H564 C541 0.950 . S
H565 C543 0.950 . S
C566 C567 1.349 . S
C566 C568 1.327 . S
C566 H591 0.950 . S
C567 C566 1.349 . S
C567 C583 1.349 . S
C568 C566 1.327 . S
C568 C587 1.429 . S
C568 H592 0.950 . S
C569 C586 1.574 . S
C569 C588 1.368 . S
C569 H593 0.949 . S
H570 C574 0.949 . S
C571 C572 1.349 . S
C571 C573 1.327 . S
C571 H594 0.950 . S
C572 C571 1.349 . S
C572 C584 1.349 . S
C573 C571 1.327 . S
C573 C589 1.429 . S
C573 H595 0.950 . S
C574 H570 0.949 . S
C574 C582 1.574 1_554 S
C574 C590 1.368 . S
H575 C583 0.950 . S
H576 C581 0.950 . S
H577 C582 0.949 . S
H578 C584 0.950 . S
H579 C585 0.950 . S
H580 C586 0.949 . S
C581 H576 0.950 . S
C581 C583 1.327 . S
C581 C587 1.429 . S
C582 C574 1.574 1_556 S
C582 H577 0.949 . S
C582 C588 1.368 1_556 S
C583 C567 1.349 . S
C583 H575 0.950 . S
C583 C581 1.327 . S
C584 C572 1.349 . S
C584 H578 0.950 . S
C584 C585 1.327 . S
C585 H579 0.950 . S
C585 C584 1.327 . S
C585 C589 1.429 . S
C586 C569 1.574 . S
C586 H580 0.949 . S
C586 C590 1.368 . S
C587 C568 1.429 . S
C587 C581 1.429 . S
C587 C588 1.523 1_556 S
C588 C569 1.368 . S
C588 C582 1.368 1_554 S
C588 C587 1.523 1_554 S
C589 C573 1.429 . S
C589 C585 1.429 . S
C589 C590 1.523 . S
C590 C574 1.368 . S
C590 C586 1.368 . S
C590 C589 1.523 . S
H591 C566 0.950 . S
H592 C568 0.950 . S
H593 C569 0.949 . S
H594 C571 0.950 . S
H595 C573 0.950 . S
C596 C597 1.349 . S
C596 C598 1.327 . S
C596 H621 0.950 . S
C597 C596 1.349 . S
C597 C613 1.349 . S
C598 C596 1.327 . S
C598 C617 1.429 . S
C598 H622 0.950 . S
C599 C616 1.574 . S
C599 C618 1.368 . S
C599 H623 0.949 . S
H600 C604 0.949 . S
C601 C602 1.349 . S
C601 C603 1.327 . S
C601 H624 0.950 . S
C602 C601 1.349 . S
C602 C614 1.349 . S
C603 C601 1.327 . S
C603 C619 1.429 . S
C603 H625 0.950 . S
C604 H600 0.949 . S
C604 C612 1.574 . S
C604 C620 1.368 1_554 S
H605 C613 0.950 1_556 S
H606 C611 0.950 . S
H607 C612 0.949 . S
H608 C614 0.950 . S
H609 C615 0.950 . S
H610 C616 0.949 . S
C611 H606 0.950 . S
C611 C613 1.327 1_556 S
C611 C617 1.429 1_556 S
C612 C604 1.574 . S
C612 H607 0.949 . S
C612 C618 1.368 1_554 S
C613 C597 1.349 . S
C613 H605 0.950 1_554 S
C613 C611 1.327 1_554 S
C614 C602 1.349 . S
C614 H608 0.950 . S
C614 C615 1.327 . S
C615 H609 0.950 . S
C615 C614 1.327 . S
C615 C619 1.429 . S
C616 C599 1.574 . S
C616 H610 0.949 . S
C616 C620 1.368 . S
C617 C598 1.429 . S
C617 C611 1.429 1_554 S
C617 C618 1.523 1_554 S
C618 C599 1.368 . S
C618 C612 1.368 1_556 S
C618 C617 1.523 1_556 S
C619 C603 1.429 . S
C619 C615 1.429 . S
C619 C620 1.523 . S
C620 C604 1.368 1_556 S
C620 C616 1.368 . S
C620 C619 1.523 . S
H621 C596 0.950 . S
H622 C598 0.950 . S
H623 C599 0.949 . S
H624 C601 0.950 . S
H625 C603 0.950 . S
C626 C627 1.349 . S
C626 C628 1.327 . S
C626 H651 0.950 . S
C627 C626 1.349 . S
C627 C643 1.349 . S
C628 C626 1.327 . S
C628 C647 1.429 . S
C628 H652 0.950 . S
C629 C646 1.574 . S
C629 C648 1.368 . S
C629 H653 0.949 . S
H630 C634 0.949 1_556 S
C631 C632 1.349 . S
C631 C633 1.327 . S
C631 H654 0.950 . S
C632 C631 1.349 . S
C632 C644 1.349 . S
C633 C631 1.327 . S
C633 C649 1.429 . S
C633 H655 0.950 . S
C634 H630 0.949 1_554 S
C634 C642 1.574 1_554 S
C634 C650 1.368 . S
H635 C643 0.950 . S
H636 C641 0.950 1_554 S
H637 C642 0.949 . S
H638 C644 0.950 . S
H639 C645 0.950 . S
H640 C646 0.949 . S
C641 H636 0.950 1_556 S
C641 C643 1.327 . S
C641 C647 1.429 . S
C642 C634 1.574 1_556 S
C642 H637 0.949 . S
C642 C648 1.368 1_556 S
C643 C627 1.349 . S
C643 H635 0.950 . S
C643 C641 1.327 . S
C644 C632 1.349 . S
C644 H638 0.950 . S
C644 C645 1.327 . S
C645 H639 0.950 . S
C645 C644 1.327 . S
C645 C649 1.429 . S
C646 C629 1.574 . S
C646 H640 0.949 . S
C646 C650 1.368 . S
C647 C628 1.429 . S
C647 C641 1.429 . S
C647 C648 1.523 1_556 S
C648 C629 1.368 . S
C648 C642 1.368 1_554 S
C648 C647 1.523 1_554 S
C649 C633 1.429 . S
C649 C645 1.429 . S
C649 C650 1.523 . S
C650 C634 1.368 . S
C650 C646 1.368 . S
C650 C649 1.523 . S
H651 C626 0.950 . S
H652 C628 0.950 . S
H653 C629 0.949 . S
H654 C631 0.950 . S
H655 C633 0.950 . S
C656 C657 1.349 . S
C656 C658 1.327 . S
C656 H681 0.950 . S
C657 C656 1.349 . S
C657 C673 1.349 . S
C658 C656 1.327 . S
C658 C677 1.429 . S
C658 H682 0.950 . S
C659 C676 1.574 . S
C659 C678 1.368 . S
C659 H683 0.949 . S
H660 C664 0.949 . S
C661 C662 1.349 . S
C661 C663 1.327 . S
C661 H684 0.950 . S
C662 C661 1.349 . S
C662 C674 1.349 . S
C663 C661 1.327 . S
C663 C679 1.429 . S
C663 H685 0.950 . S
C664 H660 0.949 . S
C664 C672 1.574 . S
C664 C680 1.368 . S
H665 C673 0.950 . S
H666 C671 0.950 . S
H667 C672 0.949 . S
H668 C674 0.950 . S
H669 C675 0.950 . S
H670 C676 0.949 . S
C671 H666 0.950 . S
C671 C673 1.327 . S
C671 C677 1.429 . S
C672 C664 1.574 . S
C672 H667 0.949 . S
C672 C678 1.368 . S
C673 C657 1.349 . S
C673 H665 0.950 . S
C673 C671 1.327 . S
C674 C662 1.349 . S
C674 H668 0.950 . S
C674 C675 1.327 . S
C675 H669 0.950 . S
C675 C674 1.327 . S
C675 C679 1.429 . S
C676 C659 1.574 . S
C676 H670 0.949 . S
C676 C680 1.368 . S
C677 C658 1.429 . S
C677 C671 1.429 . S
C677 C678 1.523 . S
C678 C659 1.368 . S
C678 C672 1.368 . S
C678 C677 1.523 . S
C679 C663 1.429 . S
C679 C675 1.429 . S
C679 C680 1.523 . S
C680 C664 1.368 . S
C680 C676 1.368 . S
C680 C679 1.523 . S
H681 C656 0.950 . S
H682 C658 0.950 . S
H683 C659 0.949 . S
H684 C661 0.950 . S
H685 C663 0.950 . S
C686 C687 1.349 . S
C686 C688 1.327 . S
C686 H711 0.950 . S
C687 C686 1.349 . S
C687 C703 1.349 . S
C688 C686 1.327 . S
C688 C707 1.429 . S
C688 H712 0.950 . S
C689 C706 1.574 . S
C689 C708 1.368 . S
C689 H713 0.949 . S
H690 C694 0.949 . S
C691 C692 1.349 . S
C691 C693 1.327 . S
C691 H714 0.950 . S
C692 C691 1.349 . S
C692 C704 1.349 . S
C693 C691 1.327 . S
C693 C709 1.429 . S
C693 H715 0.950 . S
C694 H690 0.949 . S
C694 C702 1.574 . S
C694 C710 1.368 . S
H695 C703 0.950 . S
H696 C701 0.950 . S
H697 C702 0.949 . S
H698 C704 0.950 . S
H699 C705 0.950 . S
H700 C706 0.949 . S
C701 H696 0.950 . S
C701 C703 1.327 . S
C701 C707 1.429 . S
C702 C694 1.574 . S
C702 H697 0.949 . S
C702 C708 1.368 . S
C703 C687 1.349 . S
C703 H695 0.950 . S
C703 C701 1.327 . S
C704 C692 1.349 . S
C704 H698 0.950 . S
C704 C705 1.327 . S
C705 H699 0.950 . S
C705 C704 1.327 . S
C705 C709 1.429 . S
C706 C689 1.574 . S
C706 H700 0.949 . S
C706 C710 1.368 . S
C707 C688 1.429 . S
C707 C701 1.429 . S
C707 C708 1.523 . S
C708 C689 1.368 . S
C708 C702 1.368 . S
C708 C707 1.523 . S
C709 C693 1.429 . S
C709 C705 1.429 . S
C709 C710 1.523 . S
C710 C694 1.368 . S
C710 C706 1.368 . S
C710 C709 1.523 . S
H711 C686 0.950 . S
H712 C688 0.950 . S
H713 C689 0.949 . S
H714 C691 0.950 . S
H715 C693 0.950 . S
C716 C717 1.349 . S
C716 C718 1.327 . S
C716 H741 0.950 . S
C717 C716 1.349 . S
C717 C733 1.349 . S
C718 C716 1.327 . S
C718 C737 1.429 . S
C718 H742 0.950 . S
C719 C736 1.574 . S
C719 C738 1.368 . S
C719 H743 0.949 . S
H720 C724 0.949 . S
C721 C722 1.349 . S
C721 C723 1.327 . S
C721 H744 0.950 . S
C722 C721 1.349 . S
C722 C734 1.349 . S
C723 C721 1.327 . S
C723 C739 1.429 . S
C723 H745 0.950 . S
C724 H720 0.949 . S
C724 C732 1.574 . S
C724 C740 1.368 . S
H725 C733 0.950 . S
H726 C731 0.950 . S
H727 C732 0.949 . S
H728 C734 0.950 . S
H729 C735 0.950 . S
H730 C736 0.949 . S
C731 H726 0.950 . S
C731 C733 1.327 . S
C731 C737 1.429 . S
C732 C724 1.574 . S
C732 H727 0.949 . S
C732 C738 1.368 . S
C733 C717 1.349 . S
C733 H725 0.950 . S
C733 C731 1.327 . S
C734 C722 1.349 . S
C734 H728 0.950 . S
C734 C735 1.327 . S
C735 H729 0.950 . S
C735 C734 1.327 . S
C735 C739 1.429 . S
C736 C719 1.574 . S
C736 H730 0.949 . S
C736 C740 1.368 . S
C737 C718 1.429 . S
C737 C731 1.429 . S
C737 C738 1.523 . S
C738 C719 1.368 . S
C738 C732 1.368 . S
C738 C737 1.523 . S
C739 C723 1.429 . S
C739 C735 1.429 . S
C739 C740 1.523 . S
C740 C724 1.368 . S
C740 C736 1.368 . S
C740 C739 1.523 . S
H741 C716 0.950 . S
H742 C718 0.950 . S
H743 C719 0.949 . S
H744 C721 0.950 . S
H745 C723 0.950 . S
C746 C747 1.349 . S
C746 C748 1.327 . S
C746 H771 0.950 . S
C747 C746 1.349 . S
C747 C763 1.349 . S
C748 C746 1.327 . S
C748 C767 1.429 . S
C748 H772 0.950 . S
C749 C766 1.574 . S
C749 C768 1.368 . S
C749 H773 0.949 . S
H750 C754 0.949 . S
C751 C752 1.349 . S
C751 C753 1.327 . S
C751 H774 0.950 . S
C752 C751 1.349 . S
C752 C764 1.349 . S
C753 C751 1.327 . S
C753 C769 1.429 . S
C753 H775 0.950 . S
C754 H750 0.949 . S
C754 C762 1.574 . S
C754 C770 1.368 . S
H755 C763 0.950 . S
H756 C761 0.950 . S
H757 C762 0.949 . S
H758 C764 0.950 . S
H759 C765 0.950 . S
H760 C766 0.949 . S
C761 H756 0.950 . S
C761 C763 1.327 . S
C761 C767 1.429 . S
C762 C754 1.574 . S
C762 H757 0.949 . S
C762 C768 1.368 . S
C763 C747 1.349 . S
C763 H755 0.950 . S
C763 C761 1.327 . S
C764 C752 1.349 . S
C764 H758 0.950 . S
C764 C765 1.327 . S
C765 H759 0.950 . S
C765 C764 1.327 . S
C765 C769 1.429 . S
C766 C749 1.574 . S
C766 H760 0.949 . S
C766 C770 1.368 . S
C767 C748 1.429 . S
C767 C761 1.429 . S
C767 C768 1.523 . S
C768 C749 1.368 . S
C768 C762 1.368 . S
C768 C767 1.523 . S
C769 C753 1.429 . S
C769 C765 1.429 . S
C769 C770 1.523 . S
C770 C754 1.368 . S
C770 C766 1.368 . S
C770 C769 1.523 . S
H771 C746 0.950 . S
H772 C748 0.950 . S
H773 C749 0.949 . S
H774 C751 0.950 . S
H775 C753 0.950 . S
C776 C777 1.349 . S
C776 C778 1.327 . S
C776 H801 0.950 . S
C777 C776 1.349 . S
C777 C793 1.349 . S
C778 C776 1.327 . S
C778 C797 1.429 . S
C778 H802 0.950 . S
C779 C796 1.574 1_545 S
C779 C798 1.368 . S
C779 H803 0.949 . S
H780 C784 0.949 . S
C781 C782 1.349 . S
C781 C783 1.327 . S
C781 H804 0.950 . S
C782 C781 1.349 . S
C782 C794 1.349 . S
C783 C781 1.327 . S
C783 C799 1.429 . S
C783 H805 0.950 . S
C784 H780 0.949 . S
C784 C792 1.574 1_565 S
C784 C800 1.368 . S
H785 C793 0.950 . S
H786 C791 0.950 . S
H787 C792 0.949 . S
H788 C794 0.950 . S
H789 C795 0.950 . S
H790 C796 0.949 . S
C791 H786 0.950 . S
C791 C793 1.327 . S
C791 C797 1.429 . S
C792 C784 1.574 1_545 S
C792 H787 0.949 . S
C792 C798 1.368 . S
C793 C777 1.349 . S
C793 H785 0.950 . S
C793 C791 1.327 . S
C794 C782 1.349 . S
C794 H788 0.950 . S
C794 C795 1.327 . S
C795 H789 0.950 . S
C795 C794 1.327 . S
C795 C799 1.429 . S
C796 C779 1.574 1_565 S
C796 H790 0.949 . S
C796 C800 1.368 . S
C797 C778 1.429 . S
C797 C791 1.429 . S
C797 C798 1.523 . S
C798 C779 1.368 . S
C798 C792 1.368 . S
C798 C797 1.523 . S
C799 C783 1.429 . S
C799 C795 1.429 . S
C799 C800 1.523 . S
C800 C784 1.368 . S
C800 C796 1.368 . S
C800 C799 1.523 . S
H801 C776 0.950 . S
H802 C778 0.950 . S
H803 C779 0.949 . S
H804 C781 0.950 . S
H805 C783 0.950 . S
C806 C807 1.349 . S
C806 C808 1.327 . S
C806 H831 0.950 . S
C807 C806 1.349 . S
C807 C823 1.349 . S
C808 C806 1.327 . S
C808 C827 1.429 . S
C808 H832 0.950 . S
C809 C826 1.574 1_655 S
C809 C828 1.368 . S
C809 H833 0.949 . S
H810 C814 0.949 . S
C811 C812 1.349 . S
C811 C813 1.327 . S
C811 H834 0.950 . S
C812 C811 1.349 . S
C812 C824 1.349 . S
C813 C811 1.327 . S
C813 C829 1.429 . S
C813 H835 0.950 . S
C814 H810 0.949 . S
C814 C822 1.574 1_455 S
C814 C830 1.368 . S
H815 C823 0.950 . S
H816 C821 0.950 . S
H817 C822 0.949 . S
H818 C824 0.950 . S
H819 C825 0.950 . S
H820 C826 0.949 . S
C821 H816 0.950 . S
C821 C823 1.327 . S
C821 C827 1.429 . S
C822 C814 1.574 1_655 S
C822 H817 0.949 . S
C822 C828 1.368 . S
C823 C807 1.349 . S
C823 H815 0.950 . S
C823 C821 1.327 . S
C824 C812 1.349 . S
C824 H818 0.950 . S
C824 C825 1.327 . S
C825 H819 0.950 . S
C825 C824 1.327 . S
C825 C829 1.429 . S
C826 C809 1.574 1_455 S
C826 H820 0.949 . S
C826 C830 1.368 . S
C827 C808 1.429 . S
C827 C821 1.429 . S
C827 C828 1.523 . S
C828 C809 1.368 . S
C828 C822 1.368 . S
C828 C827 1.523 . S
C829 C813 1.429 . S
C829 C825 1.429 . S
C829 C830 1.523 . S
C830 C814 1.368 . S
C830 C826 1.368 . S
C830 C829 1.523 . S
H831 C806 0.950 . S
H832 C808 0.950 . S
H833 C809 0.949 . S
H834 C811 0.950 . S
H835 C813 0.950 . S
C836 C837 1.349 . S
C836 C838 1.327 . S
C836 H861 0.950 . S
C837 C836 1.349 . S
C837 C853 1.349 . S
C838 C836 1.327 . S
C838 C857 1.429 . S
C838 H862 0.950 . S
C839 C856 1.574 1_565 S
C839 C858 1.368 . S
C839 H863 0.949 . S
H840 C844 0.949 . S
C841 C842 1.349 . S
C841 C843 1.327 . S
C841 H864 0.950 . S
C842 C841 1.349 . S
C842 C854 1.349 . S
C843 C841 1.327 . S
C843 C859 1.429 . S
C843 H865 0.950 . S
C844 H840 0.949 . S
C844 C852 1.574 1_545 S
C844 C860 1.368 . S
H845 C853 0.950 . S
H846 C851 0.950 . S
H847 C852 0.949 . S
H848 C854 0.950 . S
H849 C855 0.950 . S
H850 C856 0.949 . S
C851 H846 0.950 . S
C851 C853 1.327 . S
C851 C857 1.429 . S
C852 C844 1.574 1_565 S
C852 H847 0.949 . S
C852 C858 1.368 . S
C853 C837 1.349 . S
C853 H845 0.950 . S
C853 C851 1.327 . S
C854 C842 1.349 . S
C854 H848 0.950 . S
C854 C855 1.327 . S
C855 H849 0.950 . S
C855 C854 1.327 . S
C855 C859 1.429 . S
C856 C839 1.574 1_545 S
C856 H850 0.949 . S
C856 C860 1.368 . S
C857 C838 1.429 . S
C857 C851 1.429 . S
C857 C858 1.523 . S
C858 C839 1.368 . S
C858 C852 1.368 . S
C858 C857 1.523 . S
C859 C843 1.429 . S
C859 C855 1.429 . S
C859 C860 1.523 . S
C860 C844 1.368 . S
C860 C856 1.368 . S
C860 C859 1.523 . S
H861 C836 0.950 . S
H862 C838 0.950 . S
H863 C839 0.949 . S
H864 C841 0.950 . S
H865 C843 0.950 . S
C866 C867 1.349 . S
C866 C868 1.327 . S
C866 H891 0.950 . S
C867 C866 1.349 . S
C867 C883 1.349 . S
C868 C866 1.327 . S
C868 C887 1.429 . S
C868 H892 0.950 . S
C869 C886 1.574 1_655 S
C869 C888 1.368 . S
C869 H893 0.949 . S
H870 C874 0.949 . S
C871 C872 1.349 . S
C871 C873 1.327 . S
C871 H894 0.950 . S
C872 C871 1.349 . S
C872 C884 1.349 . S
C873 C871 1.327 . S
C873 C889 1.429 . S
C873 H895 0.950 . S
C874 H870 0.949 . S
C874 C882 1.574 1_455 S
C874 C890 1.368 . S
H875 C883 0.950 . S
H876 C881 0.950 . S
H877 C882 0.949 . S
H878 C884 0.950 . S
H879 C885 0.950 . S
H880 C886 0.949 . S
C881 H876 0.950 . S
C881 C883 1.327 . S
C881 C887 1.429 . S
C882 C874 1.574 1_655 S
C882 H877 0.949 . S
C882 C888 1.368 . S
C883 C867 1.349 . S
C883 H875 0.950 . S
C883 C881 1.327 . S
C884 C872 1.349 . S
C884 H878 0.950 . S
C884 C885 1.327 . S
C885 H879 0.950 . S
C885 C884 1.327 . S
C885 C889 1.429 . S
C886 C869 1.574 1_455 S
C886 H880 0.949 . S
C886 C890 1.368 . S
C887 C868 1.429 . S
C887 C881 1.429 . S
C887 C888 1.523 . S
C888 C869 1.368 . S
C888 C882 1.368 . S
C888 C887 1.523 . S
C889 C873 1.429 . S
C889 C885 1.429 . S
C889 C890 1.523 . S
C890 C874 1.368 . S
C890 C886 1.368 . S
C890 C889 1.523 . S
H891 C866 0.950 . S
H892 C868 0.950 . S
H893 C869 0.949 . S
H894 C871 0.950 . S
H895 C873 0.950 . S
C177 C128 1.162 . S
C182 C10 1.162 . S
C207 C30 1.196 . S
C212 C140 1.196 . S
C237 C172 1.162 . S
C242 C62 1.162 . S
C267 C76 1.196 . S
C272 C106 1.196 . S
C297 C96 1.087 . S
C302 C7 1.093 1_556 S
C327 C29 1.101 1_554 S
C332 C120 1.098 . S
C357 C65 1.093 1_556 S
C362 C142 1.087 . S
C387 C164 1.098 . S
C392 C87 1.101 1_554 S
C417 C8 1.098 . S
C422 C103 1.101 . S
C447 C131 1.093 . S
C452 C32 1.087 . S
C477 C54 1.098 . S
C482 C139 1.101 . S
C507 C84 1.087 . S
C512 C175 1.093 . S
C537 C37 1.066 . S
C542 C15 1.061 . S
C567 C43 1.054 . S
C572 C59 1.062 . S
C597 C51 1.061 . S
C602 C73 1.066 . S
C627 C81 1.054 . S
C632 C21 1.062 . S
C657 C95 1.054 . S
C662 C169 1.062 . S
C687 C109 1.066 . S
C692 C117 1.061 . S
C717 C153 1.054 . S
C722 C125 1.062 . S
C747 C161 1.061 . S
C752 C147 1.066 . S
C777 C18 1.397 . S
C782 C52 1.397 . S
C807 C74 1.399 . S
C812 C40 1.399 . S
C837 C150 1.399 . S
C842 C98 1.399 . S
C867 C162 1.397 . S
C872 C118 1.397 . S
