# Generated by pormake.
# Topology umu, (4)-cn, num edge types: 1
# Building blocks:
#     Node 0, Type 0, BuildingBlock: GALJAG_clean_sbu_0, # of connection points: 4
#     Node 1, Type 0, BuildingBlock: GALJAG_clean_sbu_0, # of connection points: 4
#     Node 2, Type 0, BuildingBlock: GALJAG_clean_sbu_0, # of connection points: 4
#     Node 3, Type 0, BuildingBlock: GALJAG_clean_sbu_0, # of connection points: 4
#     Node 4, Type 0, BuildingBlock: GALJAG_clean_sbu_0, # of connection points: 4
#     Node 5, Type 0, BuildingBlock: GALJAG_clean_sbu_0, # of connection points: 4
#     Node 6, Type 0, BuildingBlock: GALJAG_clean_sbu_0, # of connection points: 4
#     Node 7, Type 0, BuildingBlock: GALJAG_clean_sbu_0, # of connection points: 4
#     Node 8, Type 0, BuildingBlock: GALJAG_clean_sbu_0, # of connection points: 4
#     Node 9, Type 0, BuildingBlock: GALJAG_clean_sbu_0, # of connection points: 4
#     Node 10, Type 0, BuildingBlock: GALJAG_clean_sbu_0, # of connection points: 4
#     Node 11, Type 0, BuildingBlock: GALJAG_clean_sbu_0, # of connection points: 4
#     Node 12, Type 0, BuildingBlock: GALJAG_clean_sbu_0, # of connection points: 4
#     Node 13, Type 0, BuildingBlock: GALJAG_clean_sbu_0, # of connection points: 4
#     Node 14, Type 0, BuildingBlock: GALJAG_clean_sbu_0, # of connection points: 4
#     Node 15, Type 0, BuildingBlock: GALJAG_clean_sbu_0, # of connection points: 4
#     Node 16, Type 0, BuildingBlock: GALJAG_clean_sbu_0, # of connection points: 4
#     Node 17, Type 0, BuildingBlock: GALJAG_clean_sbu_0, # of connection points: 4
#     Node 18, Type 0, BuildingBlock: GALJAG_clean_sbu_0, # of connection points: 4
#     Node 19, Type 0, BuildingBlock: GALJAG_clean_sbu_0, # of connection points: 4
#     Node 20, Type 0, BuildingBlock: GALJAG_clean_sbu_0, # of connection points: 4
#     Node 21, Type 0, BuildingBlock: GALJAG_clean_sbu_0, # of connection points: 4
#     Node 22, Type 0, BuildingBlock: GALJAG_clean_sbu_0, # of connection points: 4
#     Node 23, Type 0, BuildingBlock: GALJAG_clean_sbu_0, # of connection points: 4
#     Node 24, Type 0, BuildingBlock: GALJAG_clean_sbu_0, # of connection points: 4
#     Node 25, Type 0, BuildingBlock: GALJAG_clean_sbu_0, # of connection points: 4
#     Node 26, Type 0, BuildingBlock: GALJAG_clean_sbu_0, # of connection points: 4
#     Node 27, Type 0, BuildingBlock: GALJAG_clean_sbu_0, # of connection points: 4
#     Node 28, Type 0, BuildingBlock: GALJAG_clean_sbu_0, # of connection points: 4
#     Node 29, Type 0, BuildingBlock: GALJAG_clean_sbu_0, # of connection points: 4
#     Node 30, Type 0, BuildingBlock: GALJAG_clean_sbu_0, # of connection points: 4
#     Node 31, Type 0, BuildingBlock: GALJAG_clean_sbu_0, # of connection points: 4
#     Edge 32, Type (0, 0), None
#     Edge 33, Type (0, 0), None
#     Edge 34, Type (0, 0), None
#     Edge 35, Type (0, 0), None
#     Edge 36, Type (0, 0), None
#     Edge 37, Type (0, 0), None
#     Edge 38, Type (0, 0), None
#     Edge 39, Type (0, 0), None
#     Edge 40, Type (0, 0), None
#     Edge 41, Type (0, 0), None
#     Edge 42, Type (0, 0), None
#     Edge 43, Type (0, 0), None
#     Edge 44, Type (0, 0), None
#     Edge 45, Type (0, 0), None
#     Edge 46, Type (0, 0), None
#     Edge 47, Type (0, 0), None
#     Edge 48, Type (0, 0), None
#     Edge 49, Type (0, 0), None
#     Edge 50, Type (0, 0), None
#     Edge 51, Type (0, 0), None
#     Edge 52, Type (0, 0), None
#     Edge 53, Type (0, 0), None
#     Edge 54, Type (0, 0), None
#     Edge 55, Type (0, 0), None
#     Edge 56, Type (0, 0), None
#     Edge 57, Type (0, 0), None
#     Edge 58, Type (0, 0), None
#     Edge 59, Type (0, 0), None
#     Edge 60, Type (0, 0), None
#     Edge 61, Type (0, 0), None
#     Edge 62, Type (0, 0), None
#     Edge 63, Type (0, 0), None
#     Edge 64, Type (0, 0), None
#     Edge 65, Type (0, 0), None
#     Edge 66, Type (0, 0), None
#     Edge 67, Type (0, 0), None
#     Edge 68, Type (0, 0), None
#     Edge 69, Type (0, 0), None
#     Edge 70, Type (0, 0), None
#     Edge 71, Type (0, 0), None
#     Edge 72, Type (0, 0), None
#     Edge 73, Type (0, 0), None
#     Edge 74, Type (0, 0), None
#     Edge 75, Type (0, 0), None
#     Edge 76, Type (0, 0), None
#     Edge 77, Type (0, 0), None
#     Edge 78, Type (0, 0), None
#     Edge 79, Type (0, 0), None
#     Edge 80, Type (0, 0), None
#     Edge 81, Type (0, 0), None
#     Edge 82, Type (0, 0), None
#     Edge 83, Type (0, 0), None
#     Edge 84, Type (0, 0), None
#     Edge 85, Type (0, 0), None
#     Edge 86, Type (0, 0), None
#     Edge 87, Type (0, 0), None
#     Edge 88, Type (0, 0), None
#     Edge 89, Type (0, 0), None
#     Edge 90, Type (0, 0), None
#     Edge 91, Type (0, 0), None
#     Edge 92, Type (0, 0), None
#     Edge 93, Type (0, 0), None
#     Edge 94, Type (0, 0), None
#     Edge 95, Type (0, 0), None
# Relax obj value: 0.104
# Max RMSD: 0.078
# Mean RMSD: 0.078
data_MOF--net-umu--node1-GALJAG_clean_sbu_0--edge1-none
_symmetry_space_group_name_H-M    P1
_symmetry_Int_Tables_number       1
_symmetry_cell_setting            triclinic
loop_
_symmetry_equiv_pos_as_xyz
'x, y, z'
_cell_length_a     36.729624
_cell_length_b     36.719884
_cell_length_c     12.009952
_cell_angle_alpha  90.0
_cell_angle_beta   90.000564
_cell_angle_gamma 89.999999
loop_
_atom_site_label
_atom_site_type_symbol
_atom_site_fract_x
_atom_site_fract_y
_atom_site_fract_z
_atom_type_partial_charge
In0 In 0.19721 0.14499 0.08093 0.0
O1 O 0.24648 0.13948 0.96982 0.0
O2 O 0.19643 0.15832 0.89834 0.0
C3 C 0.2279 0.12327 0.27538 0.0
C4 C 0.15008 0.09782 0.98882 0.0
C5 C 0.19253 0.21715 0.11454 0.0
O6 O 0.24531 0.1249 0.18509 0.0
O7 O 0.19415 0.12979 0.26653 0.0
O8 O 0.16465 0.19723 0.1261 0.0
O9 O 0.22135 0.20057 0.08998 0.0
C10 C 0.22921 0.14965 0.88422 0.0
O11 O 0.14005 0.12873 0.02393 0.0
O12 O 0.1822 0.08883 0.01451 0.0
In13 In 0.07946 0.94685 0.33104 0.0
O14 O 0.08529 -0.00392 0.2199 0.0
O15 O 0.06621 0.94613 0.14837 0.0
C16 C 0.10117 0.97762 0.52539 0.0
C17 C 0.12656 0.89959 0.23928 0.0
C18 C 0.0073 0.94222 0.36445 0.0
O19 O 0.09943 -0.00498 0.4351 0.0
O20 O 0.09473 0.94385 0.51664 0.0
O21 O 0.0272 0.91435 0.37641 0.0
O22 O 0.02389 0.97102 0.33962 0.0
C23 C 0.07506 0.97887 0.13426 0.0
O24 O 0.09557 0.88964 0.27391 0.0
O25 O 0.13563 0.93166 0.26531 0.0
In26 In 0.27738 0.82912 0.58095 0.0
O27 O 0.33457 0.84531 0.52398 0.0
O28 O 0.29252 0.88532 0.51506 0.0
C29 C 0.28203 0.75694 0.61442 0.0
C30 C 0.24539 0.82456 0.38418 0.0
C31 C 0.24666 0.85081 0.77538 0.0
O32 O 0.3099 0.77686 0.62626 0.0
O33 O 0.25323 0.77353 0.58965 0.0
O34 O 0.22926 0.84922 0.68506 0.0
O35 O 0.28041 0.84426 0.76659 0.0
C36 C 0.32461 0.87629 0.48922 0.0
O37 O 0.22812 0.83466 0.46983 0.0
O38 O 0.27819 0.81593 0.39826 0.0
In39 In 0.39516 0.02719 0.83101 0.0
O40 O 0.38962 0.9779 0.71992 0.0
O41 O 0.40835 0.02798 0.6483 0.0
C42 C 0.3735 -0.00355 0.02546 0.0
C43 C 0.34799 0.07442 0.73925 0.0
C44 C 0.46733 0.03186 0.86441 0.0
O45 O 0.37509 0.97906 0.93513 0.0
O46 O 0.38004 0.03021 0.01667 0.0
O47 O 0.44741 0.05973 0.87626 0.0
O48 O 0.45075 0.00305 0.83967 0.0
C49 C 0.39972 -0.00482 0.63425 0.0
O50 O 0.37896 0.08439 0.77398 0.0
O51 O 0.33897 0.04231 0.76512 0.0
In52 In 0.19714 0.8291 0.07832 0.0
O53 O 0.24639 0.83467 0.18946 0.0
O54 O 0.19634 0.81588 0.26101 0.0
C55 C 0.22785 0.85078 0.88392 0.0
C56 C 0.14992 0.87622 0.17015 0.0
C57 C 0.1925 0.75694 0.04481 0.0
O58 O 0.24525 0.8492 0.97423 0.0
O59 O 0.1941 0.84426 0.8927 0.0
O60 O 0.16462 0.77685 0.03298 0.0
O61 O 0.22129 0.77353 0.06959 0.0
C62 C 0.22912 0.82455 0.27511 0.0
O63 O 0.13995 0.84526 0.13534 0.0
O64 O 0.182 0.88527 0.14427 0.0
In65 In 0.39517 0.94688 0.32844 0.0
O66 O 0.37896 0.88968 0.38542 0.0
O67 O 0.33898 0.93177 0.39432 0.0
C68 C 0.46734 0.94222 0.29505 0.0
C69 C 0.39972 0.97889 0.5252 0.0
C70 C 0.37353 0.97763 0.134 0.0
O71 O 0.44742 0.91434 0.2832 0.0
O72 O 0.45076 0.97102 0.31978 0.0
O73 O 0.37511 -0.00497 0.22433 0.0
O74 O 0.38005 0.94387 0.14277 0.0
C75 C 0.348 0.89967 0.42018 0.0
O76 O 0.38963 -0.00383 0.43953 0.0
O77 O 0.40835 0.94609 0.51114 0.0
In78 In 0.27742 0.14498 0.57835 0.0
O79 O 0.3346 0.12875 0.6353 0.0
O80 O 0.29251 0.08879 0.6444 0.0
C81 C 0.28206 0.21715 0.5448 0.0
C82 C 0.24546 0.14963 0.77513 0.0
C83 C 0.2467 0.1233 0.38394 0.0
O84 O 0.30994 0.19723 0.53304 0.0
O85 O 0.25327 0.20056 0.56951 0.0
O86 O 0.2293 0.12487 0.47425 0.0
O87 O 0.28045 0.12983 0.39273 0.0
C88 C 0.32461 0.0978 0.67018 0.0
O89 O 0.22817 0.13949 0.68954 0.0
O90 O 0.27826 0.15824 0.76099 0.0
In91 In 0.07955 0.02717 0.82836 0.0
O92 O 0.0957 0.08437 0.88535 0.0
O93 O 0.13579 0.04237 0.89362 0.0
C94 C 0.00737 0.03187 0.79513 0.0
C95 C 0.07509 -0.00483 0.02522 0.0
C96 C 0.10118 -0.00354 0.6339 0.0
O97 O 0.02731 0.05973 0.78312 0.0
O98 O 0.02394 0.00307 0.82001 0.0
O99 O 0.09979 0.97908 0.72429 0.0
O100 O 0.09451 0.03019 0.64264 0.0
C101 C 0.12672 0.07444 0.91971 0.0
O102 O 0.0848 0.9778 0.93933 0.0
O103 O 0.06681 0.02807 0.01136 0.0
In104 In 0.77745 0.82916 0.07856 0.0
O105 O 0.72816 0.83473 0.18959 0.0
O106 O 0.77822 0.81603 0.26131 0.0
C107 C 0.74669 0.85078 0.88407 0.0
C108 C 0.82471 0.87636 0.17021 0.0
C109 C 0.78211 0.75695 0.04533 0.0
O110 O 0.72931 0.84921 0.97443 0.0
O111 O 0.78043 0.84424 0.89284 0.0
O112 O 0.80997 0.77687 0.03333 0.0
O113 O 0.75333 0.77354 0.07014 0.0
C114 C 0.74542 0.82465 0.2753 0.0
O115 O 0.83465 0.84537 0.13555 0.0
O116 O 0.79262 0.88539 0.14435 0.0
In117 In 0.89544 0.02726 0.82856 0.0
O118 O 0.88965 0.97804 0.93972 0.0
O119 O 0.909 0.02794 0.011 0.0
C120 C 0.87379 -0.00351 0.63409 0.0
C121 C 0.84826 0.07443 0.92068 0.0
C122 C 0.9676 0.0319 0.7951 0.0
O123 O 0.87552 0.97908 0.72437 0.0
O124 O 0.8802 0.03027 0.64291 0.0
O125 O 0.9477 0.05979 0.78336 0.0
O126 O 0.951 0.00309 0.81966 0.0
C127 C 0.90007 -0.00479 0.0252 0.0
O128 O 0.87916 0.08446 0.88558 0.0
O129 O 0.8393 0.0423 0.89502 0.0
In130 In 0.69711 0.14495 0.57855 0.0
O131 O 0.74641 0.13931 0.68954 0.0
O132 O 0.69638 0.15804 0.76134 0.0
C133 C 0.72787 0.12332 0.38407 0.0
C134 C 0.64984 0.0978 0.67021 0.0
C135 C 0.69245 0.21715 0.54534 0.0
O136 O 0.74525 0.1249 0.47442 0.0
O137 O 0.69412 0.12985 0.39283 0.0
O138 O 0.66459 0.19723 0.5333 0.0
O139 O 0.72124 0.20056 0.57019 0.0
C140 C 0.72917 0.14938 0.77529 0.0
O141 O 0.63991 0.1288 0.63558 0.0
O142 O 0.68192 0.08874 0.64427 0.0
In143 In 0.57928 0.94688 0.32846 0.0
O144 O 0.58482 -0.00383 0.43953 0.0
O145 O 0.5661 0.9461 0.51116 0.0
C146 C 0.60094 0.97762 0.13399 0.0
C147 C 0.62646 0.89966 0.42024 0.0
C148 C 0.50712 0.94221 0.29509 0.0
O149 O 0.59935 -0.00498 0.22432 0.0
O150 O 0.5944 0.94387 0.14278 0.0
O151 O 0.52703 0.91434 0.28319 0.0
O152 O 0.5237 0.97102 0.31983 0.0
C153 C 0.57473 0.9789 0.5252 0.0
O154 O 0.5955 0.88968 0.38547 0.0
O155 O 0.63547 0.93177 0.39438 0.0
In156 In 0.7775 0.14495 0.08111 0.0
O157 O 0.83473 0.12884 0.0241 0.0
O158 O 0.79278 0.08872 0.01571 0.0
C159 C 0.78213 0.21715 0.11431 0.0
C160 C 0.74548 0.14935 0.88431 0.0
C161 C 0.74671 0.12335 0.27556 0.0
O162 O 0.80998 0.19723 0.12651 0.0
O163 O 0.75336 0.20056 0.0893 0.0
O164 O 0.72935 0.12488 0.18517 0.0
O165 O 0.78046 0.12988 0.26685 0.0
C166 C 0.82485 0.09781 0.98968 0.0
O167 O 0.72822 0.13931 0.97006 0.0
O168 O 0.77828 0.15799 0.89829 0.0
In169 In 0.57927 0.0272 0.83101 0.0
O170 O 0.59549 0.0844 0.77403 0.0
O171 O 0.63546 0.04231 0.76509 0.0
C172 C 0.50711 0.03186 0.86436 0.0
C173 C 0.57473 -0.00481 0.63425 0.0
C174 C 0.60091 -0.00355 0.02546 0.0
O175 O 0.52702 0.05974 0.87627 0.0
O176 O 0.52369 0.00306 0.83962 0.0
O177 O 0.59934 0.97906 0.93512 0.0
O178 O 0.59439 0.03021 0.01669 0.0
C179 C 0.62645 0.07442 0.73924 0.0
O180 O 0.58482 0.97792 0.71993 0.0
O181 O 0.56609 0.02799 0.6483 0.0
In182 In 0.69709 0.82913 0.58108 0.0
O183 O 0.74637 0.83474 0.47004 0.0
O184 O 0.69633 0.81598 0.39834 0.0
C185 C 0.72785 0.85075 0.77554 0.0
C186 C 0.64984 0.87629 0.48931 0.0
C187 C 0.69243 0.75694 0.61437 0.0
O188 O 0.74523 0.84919 0.68519 0.0
O189 O 0.6941 0.84424 0.76679 0.0
O190 O 0.66457 0.77686 0.62635 0.0
O191 O 0.72122 0.77353 0.58954 0.0
C192 C 0.72912 0.82464 0.38433 0.0
O193 O 0.63989 0.84531 0.52404 0.0
O194 O 0.68193 0.88533 0.51523 0.0
In195 In 0.89536 0.94694 0.331 0.0
O196 O 0.87905 0.88974 0.2741 0.0
O197 O 0.83915 0.93189 0.2649 0.0
C198 C 0.96752 0.94223 0.36439 0.0
C199 C 0.90005 0.97894 0.13427 0.0
C200 C 0.87378 0.97767 0.52553 0.0
O201 O 0.94759 0.91436 0.37618 0.0
O202 O 0.95095 0.97105 0.33973 0.0
O203 O 0.87524 -0.00494 0.43517 0.0
O204 O 0.88035 0.94392 0.51673 0.0
C205 C 0.84812 0.89975 0.2392 0.0
O206 O 0.89002 -0.00375 0.21994 0.0
O207 O 0.90854 0.9461 0.1483 0.0
In208 In 0.69709 0.64496 0.58108 0.0
O209 O 0.63989 0.62878 0.52405 0.0
O210 O 0.68193 0.58876 0.51524 0.0
C211 C 0.69243 0.71715 0.61433 0.0
C212 C 0.72912 0.64945 0.38434 0.0
C213 C 0.72785 0.62332 0.77557 0.0
O214 O 0.66457 0.69723 0.62637 0.0
O215 O 0.72122 0.70056 0.58951 0.0
O216 O 0.74523 0.6249 0.68522 0.0
O217 O 0.6941 0.62985 0.76679 0.0
C218 C 0.64984 0.5978 0.48934 0.0
O219 O 0.74637 0.63936 0.47006 0.0
O220 O 0.69633 0.6581 0.39834 0.0
In221 In 0.57927 0.44689 0.83104 0.0
O222 O 0.58482 0.49617 0.71996 0.0
O223 O 0.56609 0.4461 0.64833 0.0
C224 C 0.60094 0.47763 0.02549 0.0
C225 C 0.62645 0.39967 0.73927 0.0
C226 C 0.50711 0.44222 0.86443 0.0
O227 O 0.59934 0.49503 0.93516 0.0
O228 O 0.5944 0.44388 0.01671 0.0
O229 O 0.52702 0.41435 0.87627 0.0
O230 O 0.52369 0.47103 0.83969 0.0
C231 C 0.57472 0.47891 0.63428 0.0
O232 O 0.59549 0.38968 0.77407 0.0
O233 O 0.63546 0.43178 0.76508 0.0
In234 In 0.7775 0.32915 0.08112 0.0
O235 O 0.72822 0.33478 0.97007 0.0
O236 O 0.77828 0.31611 0.89829 0.0
C237 C 0.74672 0.35077 0.27558 0.0
C238 C 0.82485 0.37629 0.9897 0.0
C239 C 0.78213 0.25694 0.11427 0.0
O240 O 0.72935 0.34921 0.1852 0.0
O241 O 0.78046 0.34421 0.26685 0.0
O242 O 0.80998 0.27686 0.12653 0.0
O243 O 0.75336 0.27354 0.08927 0.0
C244 C 0.74548 0.32474 0.88432 0.0
O245 O 0.83473 0.34525 0.02411 0.0
O246 O 0.79278 0.38538 0.01572 0.0
In247 In 0.89536 0.52716 0.33102 0.0
O248 O 0.89002 0.47784 0.21997 0.0
O249 O 0.90854 0.528 0.14832 0.0
C250 C 0.87375 0.49644 0.52557 0.0
C251 C 0.84812 0.57435 0.23922 0.0
C252 C 0.96752 0.53187 0.36446 0.0
O253 O 0.87523 0.47904 0.43521 0.0
O254 O 0.88035 0.53018 0.51675 0.0
O255 O 0.94759 0.55974 0.37618 0.0
O256 O 0.95095 0.50305 0.3398 0.0
C257 C 0.90006 0.49515 0.1343 0.0
O258 O 0.87905 0.58436 0.27414 0.0
O259 O 0.83916 0.54221 0.26489 0.0
In260 In 0.69711 0.32914 0.57856 0.0
O261 O 0.63991 0.34529 0.63561 0.0
O262 O 0.68191 0.38535 0.64425 0.0
C263 C 0.69245 0.25694 0.54538 0.0
C264 C 0.72916 0.32472 0.7753 0.0
C265 C 0.72787 0.35074 0.38409 0.0
O266 O 0.6646 0.27686 0.53328 0.0
O267 O 0.72123 0.27353 0.57024 0.0
O268 O 0.74525 0.34918 0.47445 0.0
O269 O 0.69412 0.34423 0.39283 0.0
C270 C 0.64984 0.37629 0.67023 0.0
O271 O 0.7464 0.33479 0.68954 0.0
O272 O 0.69637 0.31605 0.76134 0.0
In273 In 0.89544 0.44684 0.82858 0.0
O274 O 0.87916 0.38964 0.88559 0.0
O275 O 0.8393 0.4318 0.89504 0.0
C276 C 0.9676 0.44221 0.79508 0.0
C277 C 0.90007 0.47888 0.02523 0.0
C278 C 0.87381 0.47761 0.63413 0.0
O279 O 0.9477 0.41431 0.7834 0.0
O280 O 0.951 0.47102 0.81965 0.0
O281 O 0.87552 0.49502 0.72441 0.0
O282 O 0.88021 0.44383 0.64293 0.0
C283 C 0.84826 0.39967 0.92071 0.0
O284 O 0.88965 0.49606 0.93975 0.0
O285 O 0.90901 0.44616 0.01102 0.0
In286 In 0.77745 0.64494 0.07857 0.0
O287 O 0.83465 0.62873 0.13559 0.0
O288 O 0.79262 0.58871 0.14433 0.0
C289 C 0.78212 0.71715 0.04537 0.0
C290 C 0.74543 0.64943 0.27532 0.0
C291 C 0.74668 0.62334 0.88409 0.0
O292 O 0.80997 0.69722 0.03331 0.0
O293 O 0.75333 0.70056 0.07019 0.0
O294 O 0.7293 0.62489 0.97445 0.0
O295 O 0.78043 0.62986 0.89284 0.0
C296 C 0.82471 0.59774 0.17023 0.0
O297 O 0.72817 0.63936 0.1896 0.0
O298 O 0.77822 0.65806 0.26132 0.0
In299 In 0.57928 0.52721 0.32848 0.0
O300 O 0.5955 0.58441 0.38549 0.0
O301 O 0.63547 0.54232 0.39441 0.0
C302 C 0.50711 0.53187 0.29508 0.0
C303 C 0.57472 0.49519 0.52523 0.0
C304 C 0.60091 0.49646 0.13403 0.0
O305 O 0.52703 0.55974 0.28323 0.0
O306 O 0.5237 0.50306 0.31982 0.0
O307 O 0.59935 0.47906 0.22436 0.0
O308 O 0.5944 0.53022 0.1428 0.0
C309 C 0.62645 0.57442 0.42027 0.0
O310 O 0.58482 0.47792 0.43956 0.0
O311 O 0.56609 0.52799 0.51118 0.0
In312 In 0.27742 0.32911 0.57836 0.0
O313 O 0.22816 0.33459 0.68954 0.0
O314 O 0.27825 0.31586 0.76101 0.0
C315 C 0.2467 0.35081 0.38394 0.0
C316 C 0.32461 0.37629 0.67019 0.0
C317 C 0.28207 0.25694 0.54485 0.0
O318 O 0.2293 0.34921 0.47425 0.0
O319 O 0.28044 0.34427 0.39275 0.0
O320 O 0.30994 0.27686 0.53303 0.0
O321 O 0.25327 0.27352 0.56956 0.0
C322 C 0.24545 0.32446 0.77514 0.0
O323 O 0.3346 0.34533 0.63532 0.0
O324 O 0.29251 0.3853 0.64443 0.0
In325 In 0.39517 0.5272 0.32847 0.0
O326 O 0.38962 0.47791 0.43955 0.0
O327 O 0.40835 0.52799 0.51118 0.0
C328 C 0.37351 0.49646 0.13402 0.0
C329 C 0.348 0.57442 0.4202 0.0
C330 C 0.46734 0.53187 0.29512 0.0
O331 O 0.3751 0.47906 0.22434 0.0
O332 O 0.38005 0.53021 0.1428 0.0
O333 O 0.44742 0.55974 0.28321 0.0
O334 O 0.45076 0.50306 0.31985 0.0
C335 C 0.39972 0.49518 0.52523 0.0
O336 O 0.37896 0.5844 0.38545 0.0
O337 O 0.33898 0.54232 0.39436 0.0
In338 In 0.19714 0.645 0.07834 0.0
O339 O 0.13995 0.62885 0.13536 0.0
O340 O 0.18201 0.58884 0.14429 0.0
C341 C 0.1925 0.71716 0.04486 0.0
C342 C 0.22913 0.64955 0.27511 0.0
C343 C 0.22785 0.62329 0.88392 0.0
O344 O 0.16463 0.69725 0.03297 0.0
O345 O 0.22129 0.70058 0.06964 0.0
O346 O 0.24525 0.62491 0.97423 0.0
O347 O 0.1941 0.62983 0.89272 0.0
C348 C 0.14992 0.59788 0.17017 0.0
O349 O 0.2464 0.63943 0.18946 0.0
O350 O 0.19635 0.65821 0.26103 0.0
In351 In 0.07955 0.44694 0.82839 0.0
O352 O 0.0848 0.49631 0.93935 0.0
O353 O 0.06682 0.44603 0.0114 0.0
C354 C 0.1012 0.47764 0.63392 0.0
C355 C 0.12672 0.39965 0.91972 0.0
C356 C 0.00738 0.44223 0.7952 0.0
O357 O 0.09979 0.49502 0.72431 0.0
O358 O 0.09451 0.44392 0.64267 0.0
O359 O 0.02731 0.41438 0.78313 0.0
O360 O 0.02394 0.47103 0.82008 0.0
C361 C 0.07509 0.47894 0.02525 0.0
O362 O 0.0957 0.38974 0.88538 0.0
O363 O 0.13579 0.43173 0.89365 0.0
In364 In 0.27739 0.64498 0.58096 0.0
O365 O 0.22813 0.63943 0.46983 0.0
O366 O 0.2782 0.65817 0.39827 0.0
C367 C 0.24666 0.62331 0.77539 0.0
C368 C 0.32461 0.59781 0.48924 0.0
C369 C 0.28203 0.71715 0.61438 0.0
O370 O 0.22926 0.62488 0.68506 0.0
O371 O 0.28041 0.62984 0.76661 0.0
O372 O 0.3099 0.69724 0.62628 0.0
O373 O 0.25324 0.70056 0.58962 0.0
C374 C 0.2454 0.64953 0.38418 0.0
O375 O 0.33458 0.62878 0.52399 0.0
O376 O 0.29252 0.58877 0.51509 0.0
In377 In 0.07946 0.52726 0.33107 0.0
O378 O 0.09557 0.58447 0.27393 0.0
O379 O 0.13563 0.54245 0.26536 0.0
C380 C 0.0073 0.53188 0.36443 0.0
C381 C 0.07507 0.49524 0.13429 0.0
C382 C 0.10114 0.49648 0.52541 0.0
O383 O 0.0272 0.55976 0.37646 0.0
O384 O 0.02389 0.50309 0.3396 0.0
O385 O 0.09942 0.47908 0.43511 0.0
O386 O 0.09472 0.53026 0.51667 0.0
C387 C 0.12656 0.57452 0.2393 0.0
O388 O 0.0853 0.47803 0.21993 0.0
O389 O 0.06621 0.52798 0.14839 0.0
In390 In 0.19721 0.3291 0.08094 0.0
O391 O 0.14005 0.34537 0.02394 0.0
O392 O 0.1822 0.38526 0.01454 0.0
C393 C 0.19253 0.25694 0.1145 0.0
C394 C 0.2292 0.32445 0.88423 0.0
C395 C 0.2279 0.35079 0.27538 0.0
O396 O 0.16465 0.27686 0.12613 0.0
O397 O 0.22135 0.27352 0.08994 0.0
O398 O 0.24531 0.34919 0.18509 0.0
O399 O 0.19414 0.34429 0.26655 0.0
C400 C 0.15008 0.37628 0.98883 0.0
O401 O 0.24647 0.33462 0.96982 0.0
O402 O 0.19642 0.31577 0.89835 0.0
In403 In 0.39517 0.44689 0.83104 0.0
O404 O 0.37896 0.38969 0.774 0.0
O405 O 0.33897 0.43176 0.76517 0.0
C406 C 0.46733 0.44222 0.86439 0.0
C407 C 0.39971 0.4789 0.63428 0.0
C408 C 0.37353 0.47763 0.02548 0.0
O409 O 0.44741 0.41435 0.87631 0.0
O410 O 0.45075 0.47103 0.83965 0.0
O411 O 0.3751 0.49503 0.93515 0.0
O412 O 0.38005 0.44387 0.01671 0.0
C413 C 0.34799 0.39967 0.73926 0.0
O414 O 0.38961 0.49617 0.71995 0.0
O415 O 0.40835 0.4461 0.64833 0.0
loop_
_geom_bond_atom_site_label_1
_geom_bond_atom_site_label_2
_geom_bond_distance
_geom_bond_site_symmetry_2
_ccdc_geom_bond_type
In0 O1 2.294 1_554 S
In0 O2 2.326 1_554 S
In0 O6 2.266 . S
In0 O7 2.326 . S
In0 O8 2.266 . S
In0 O9 2.326 . S
In0 O11 2.294 . S
In0 O12 2.326 . S
O1 In0 2.294 1_556 S
O1 C10 1.240 . S
O2 In0 2.326 1_556 S
O2 C10 1.252 . S
C3 O6 1.252 . S
C3 O7 1.260 . S
C4 O11 1.240 . S
C4 O12 1.252 . S
C5 O8 1.252 . S
C5 O9 1.260 . S
O6 In0 2.266 . S
O6 C3 1.252 . S
O7 In0 2.326 . S
O7 C3 1.260 . S
O8 In0 2.266 . S
O8 C5 1.252 . S
O9 In0 2.326 . S
O9 C5 1.260 . S
C10 O1 1.240 . S
C10 O2 1.252 . S
O11 In0 2.294 . S
O11 C4 1.240 . S
O12 In0 2.326 . S
O12 C4 1.252 . S
In13 O14 2.294 1_565 S
In13 O15 2.326 . S
In13 O19 2.266 1_565 S
In13 O20 2.326 . S
In13 O21 2.266 . S
In13 O22 2.340 . S
In13 O24 2.294 . S
In13 O25 2.326 . S
O14 In13 2.294 1_545 S
O14 C23 1.244 . S
O15 In13 2.326 . S
O15 C23 1.245 1_565 S
C16 O19 1.252 1_565 S
C16 O20 1.260 . S
C17 O24 1.240 . S
C17 O25 1.252 . S
C18 O21 1.252 . S
C18 O22 1.289 . S
O19 In13 2.266 1_545 S
O19 C16 1.252 1_545 S
O20 In13 2.326 . S
O20 C16 1.260 . S
O21 In13 2.266 . S
O21 C18 1.252 . S
O22 In13 2.340 . S
O22 C18 1.289 . S
C23 O14 1.244 . S
C23 O15 1.245 1_545 S
O24 In13 2.294 . S
O24 C17 1.240 . S
O25 In13 2.326 . S
O25 C17 1.252 . S
In26 O27 2.294 . S
In26 O28 2.326 . S
In26 O32 2.266 . S
In26 O33 2.326 . S
In26 O34 2.266 . S
In26 O35 2.326 . S
In26 O37 2.294 . S
In26 O38 2.326 . S
O27 In26 2.294 . S
O27 C36 1.240 . S
O28 In26 2.326 . S
O28 C36 1.252 . S
C29 O32 1.252 . S
C29 O33 1.260 . S
C30 O37 1.240 . S
C30 O38 1.252 . S
C31 O34 1.252 . S
C31 O35 1.260 . S
O32 In26 2.266 . S
O32 C29 1.252 . S
O33 In26 2.326 . S
O33 C29 1.260 . S
O34 In26 2.266 . S
O34 C31 1.252 . S
O35 In26 2.326 . S
O35 C31 1.260 . S
C36 O27 1.240 . S
C36 O28 1.252 . S
O37 In26 2.294 . S
O37 C30 1.240 . S
O38 In26 2.326 . S
O38 C30 1.252 . S
In39 O40 2.294 1_545 S
In39 O41 2.326 . S
In39 O45 2.266 1_545 S
In39 O46 2.326 . S
In39 O47 2.266 . S
In39 O48 2.335 . S
In39 O50 2.294 . S
In39 O51 2.326 . S
O40 In39 2.294 1_565 S
O40 C49 1.249 . S
O41 In39 2.326 . S
O41 C49 1.235 1_545 S
C42 O45 1.252 1_544 S
C42 O46 1.260 1_554 S
C43 O50 1.240 . S
C43 O51 1.252 . S
C44 O47 1.252 . S
C44 O48 1.279 . S
O45 In39 2.266 1_565 S
O45 C42 1.252 1_566 S
O46 In39 2.326 . S
O46 C42 1.260 1_556 S
O47 In39 2.266 . S
O47 C44 1.252 . S
O48 In39 2.335 . S
O48 C44 1.279 . S
C49 O40 1.249 . S
C49 O41 1.235 1_565 S
O50 In39 2.294 . S
O50 C43 1.240 . S
O51 In39 2.326 . S
O51 C43 1.252 . S
In52 O53 2.294 . S
In52 O54 2.326 . S
In52 O58 2.266 1_554 S
In52 O59 2.326 1_554 S
In52 O60 2.266 . S
In52 O61 2.326 . S
In52 O63 2.294 . S
In52 O64 2.326 . S
O53 In52 2.294 . S
O53 C62 1.240 . S
O54 In52 2.326 . S
O54 C62 1.252 . S
C55 O58 1.252 . S
C55 O59 1.260 . S
C56 O63 1.240 . S
C56 O64 1.252 . S
C57 O60 1.252 . S
C57 O61 1.260 . S
O58 In52 2.266 1_556 S
O58 C55 1.252 . S
O59 In52 2.326 1_556 S
O59 C55 1.260 . S
O60 In52 2.266 . S
O60 C57 1.252 . S
O61 In52 2.326 . S
O61 C57 1.260 . S
C62 O53 1.240 . S
C62 O54 1.252 . S
O63 In52 2.294 . S
O63 C56 1.240 . S
O64 In52 2.326 . S
O64 C56 1.252 . S
In65 O66 2.294 . S
In65 O67 2.326 . S
In65 O71 2.266 . S
In65 O72 2.326 . S
In65 O73 2.266 1_565 S
In65 O74 2.326 . S
In65 O76 2.294 1_565 S
In65 O77 2.326 . S
O66 In65 2.294 . S
O66 C75 1.240 . S
O67 In65 2.326 . S
O67 C75 1.252 . S
C68 O71 1.252 . S
C68 O72 1.260 . S
C69 O76 1.243 . S
C69 O77 1.246 1_545 S
C70 O73 1.252 1_565 S
C70 O74 1.260 . S
O71 In65 2.266 . S
O71 C68 1.252 . S
O72 In65 2.326 . S
O72 C68 1.260 . S
O73 In65 2.266 1_545 S
O73 C70 1.252 1_545 S
O74 In65 2.326 . S
O74 C70 1.260 . S
C75 O66 1.240 . S
C75 O67 1.252 . S
O76 In65 2.294 1_545 S
O76 C69 1.243 . S
O77 In65 2.326 . S
O77 C69 1.246 1_565 S
In78 O79 2.294 . S
In78 O80 2.326 . S
In78 O84 2.266 . S
In78 O85 2.326 . S
In78 O86 2.266 . S
In78 O87 2.326 . S
In78 O89 2.294 . S
In78 O90 2.326 . S
O79 In78 2.294 . S
O79 C88 1.240 . S
O80 In78 2.326 . S
O80 C88 1.252 . S
C81 O84 1.252 . S
C81 O85 1.260 . S
C82 O89 1.240 . S
C82 O90 1.252 . S
C83 O86 1.252 . S
C83 O87 1.260 . S
O84 In78 2.266 . S
O84 C81 1.252 . S
O85 In78 2.326 . S
O85 C81 1.260 . S
O86 In78 2.266 . S
O86 C83 1.252 . S
O87 In78 2.326 . S
O87 C83 1.260 . S
C88 O79 1.240 . S
C88 O80 1.252 . S
O89 In78 2.294 . S
O89 C82 1.240 . S
O90 In78 2.326 . S
O90 C82 1.252 . S
In91 O92 2.294 . S
In91 O93 2.326 . S
In91 O97 2.266 . S
In91 O98 2.335 . S
In91 O99 2.266 1_545 S
In91 O100 2.326 . S
In91 O102 2.294 1_545 S
In91 O103 2.326 1_556 S
O92 In91 2.294 . S
O92 C101 1.240 . S
O93 In91 2.326 . S
O93 C101 1.252 . S
C94 O97 1.252 . S
C94 O98 1.279 . S
C95 O102 1.249 1_554 S
C95 O103 1.235 1_565 S
C96 O99 1.252 1_545 S
C96 O100 1.260 . S
O97 In91 2.266 . S
O97 C94 1.252 . S
O98 In91 2.335 . S
O98 C94 1.279 . S
O99 In91 2.266 1_565 S
O99 C96 1.252 1_565 S
O100 In91 2.326 . S
O100 C96 1.260 . S
C101 O92 1.240 . S
C101 O93 1.252 . S
O102 In91 2.294 1_565 S
O102 C95 1.249 1_556 S
O103 In91 2.326 1_554 S
O103 C95 1.235 1_545 S
In104 O105 2.294 . S
In104 O106 2.326 . S
In104 O110 2.266 1_554 S
In104 O111 2.326 1_554 S
In104 O112 2.266 . S
In104 O113 2.326 . S
In104 O115 2.294 . S
In104 O116 2.326 . S
O105 In104 2.294 . S
O105 C114 1.240 . S
O106 In104 2.326 . S
O106 C114 1.252 . S
C107 O110 1.252 . S
C107 O111 1.260 . S
C108 O115 1.240 . S
C108 O116 1.252 . S
C109 O112 1.252 . S
C109 O113 1.260 . S
O110 In104 2.266 1_556 S
O110 C107 1.252 . S
O111 In104 2.326 1_556 S
O111 C107 1.260 . S
O112 In104 2.266 . S
O112 C109 1.252 . S
O113 In104 2.326 . S
O113 C109 1.260 . S
C114 O105 1.240 . S
C114 O106 1.252 . S
O115 In104 2.294 . S
O115 C108 1.240 . S
O116 In104 2.326 . S
O116 C108 1.252 . S
In117 O118 2.294 1_545 S
In117 O119 2.326 1_556 S
In117 O123 2.266 1_545 S
In117 O124 2.326 . S
In117 O125 2.266 . S
In117 O126 2.335 . S
In117 O128 2.294 . S
In117 O129 2.326 . S
O118 In117 2.294 1_565 S
O118 C127 1.249 1_556 S
O119 In117 2.326 1_554 S
O119 C127 1.235 1_545 S
C120 O123 1.252 1_545 S
C120 O124 1.260 . S
C121 O128 1.240 . S
C121 O129 1.252 . S
C122 O125 1.252 . S
C122 O126 1.279 . S
O123 In117 2.266 1_565 S
O123 C120 1.252 1_565 S
O124 In117 2.326 . S
O124 C120 1.260 . S
O125 In117 2.266 . S
O125 C122 1.252 . S
O126 In117 2.335 . S
O126 C122 1.279 . S
C127 O118 1.249 1_554 S
C127 O119 1.235 1_565 S
O128 In117 2.294 . S
O128 C121 1.240 . S
O129 In117 2.326 . S
O129 C121 1.252 . S
In130 O131 2.294 . S
In130 O132 2.326 . S
In130 O136 2.266 . S
In130 O137 2.326 . S
In130 O138 2.266 . S
In130 O139 2.326 . S
In130 O141 2.294 . S
In130 O142 2.326 . S
O131 In130 2.294 . S
O131 C140 1.240 . S
O132 In130 2.326 . S
O132 C140 1.252 . S
C133 O136 1.252 . S
C133 O137 1.260 . S
C134 O141 1.240 . S
C134 O142 1.252 . S
C135 O138 1.252 . S
C135 O139 1.260 . S
O136 In130 2.266 . S
O136 C133 1.252 . S
O137 In130 2.326 . S
O137 C133 1.260 . S
O138 In130 2.266 . S
O138 C135 1.252 . S
O139 In130 2.326 . S
O139 C135 1.260 . S
C140 O131 1.240 . S
C140 O132 1.252 . S
O141 In130 2.294 . S
O141 C134 1.240 . S
O142 In130 2.326 . S
O142 C134 1.252 . S
In143 O144 2.294 1_565 S
In143 O145 2.326 . S
In143 O149 2.266 1_565 S
In143 O150 2.326 . S
In143 O151 2.266 . S
In143 O152 2.326 . S
In143 O154 2.294 . S
In143 O155 2.326 . S
O144 In143 2.294 1_545 S
O144 C153 1.243 . S
O145 In143 2.326 . S
O145 C153 1.246 1_565 S
C146 O149 1.252 1_565 S
C146 O150 1.260 . S
C147 O154 1.240 . S
C147 O155 1.252 . S
C148 O151 1.252 . S
C148 O152 1.260 . S
O149 In143 2.266 1_545 S
O149 C146 1.252 1_545 S
O150 In143 2.326 . S
O150 C146 1.260 . S
O151 In143 2.266 . S
O151 C148 1.252 . S
O152 In143 2.326 . S
O152 C148 1.260 . S
C153 O144 1.243 . S
C153 O145 1.246 1_545 S
O154 In143 2.294 . S
O154 C147 1.240 . S
O155 In143 2.326 . S
O155 C147 1.252 . S
In156 O157 2.294 . S
In156 O158 2.326 . S
In156 O162 2.266 . S
In156 O163 2.326 . S
In156 O164 2.266 . S
In156 O165 2.326 . S
In156 O167 2.294 1_554 S
In156 O168 2.326 1_554 S
O157 In156 2.294 . S
O157 C166 1.240 . S
O158 In156 2.326 . S
O158 C166 1.252 . S
C159 O162 1.252 . S
C159 O163 1.260 . S
C160 O167 1.240 . S
C160 O168 1.252 . S
C161 O164 1.252 . S
C161 O165 1.260 . S
O162 In156 2.266 . S
O162 C159 1.252 . S
O163 In156 2.326 . S
O163 C159 1.260 . S
O164 In156 2.266 . S
O164 C161 1.252 . S
O165 In156 2.326 . S
O165 C161 1.260 . S
C166 O157 1.240 . S
C166 O158 1.252 . S
O167 In156 2.294 1_556 S
O167 C160 1.240 . S
O168 In156 2.326 1_556 S
O168 C160 1.252 . S
In169 O170 2.294 . S
In169 O171 2.326 . S
In169 O175 2.266 . S
In169 O176 2.335 . S
In169 O177 2.266 1_545 S
In169 O178 2.326 . S
In169 O180 2.294 1_545 S
In169 O181 2.326 . S
O170 In169 2.294 . S
O170 C179 1.240 . S
O171 In169 2.326 . S
O171 C179 1.252 . S
C172 O175 1.252 . S
C172 O176 1.279 . S
C173 O180 1.249 . S
C173 O181 1.235 1_565 S
C174 O177 1.252 1_544 S
C174 O178 1.260 1_554 S
O175 In169 2.266 . S
O175 C172 1.252 . S
O176 In169 2.335 . S
O176 C172 1.279 . S
O177 In169 2.266 1_565 S
O177 C174 1.252 1_566 S
O178 In169 2.326 . S
O178 C174 1.260 1_556 S
C179 O170 1.240 . S
C179 O171 1.252 . S
O180 In169 2.294 1_565 S
O180 C173 1.249 . S
O181 In169 2.326 . S
O181 C173 1.235 1_545 S
In182 O183 2.294 . S
In182 O184 2.326 . S
In182 O188 2.266 . S
In182 O189 2.326 . S
In182 O190 2.266 . S
In182 O191 2.326 . S
In182 O193 2.294 . S
In182 O194 2.326 . S
O183 In182 2.294 . S
O183 C192 1.240 . S
O184 In182 2.326 . S
O184 C192 1.252 . S
C185 O188 1.252 . S
C185 O189 1.260 . S
C186 O193 1.240 . S
C186 O194 1.252 . S
C187 O190 1.252 . S
C187 O191 1.260 . S
O188 In182 2.266 . S
O188 C185 1.252 . S
O189 In182 2.326 . S
O189 C185 1.260 . S
O190 In182 2.266 . S
O190 C187 1.252 . S
O191 In182 2.326 . S
O191 C187 1.260 . S
C192 O183 1.240 . S
C192 O184 1.252 . S
O193 In182 2.294 . S
O193 C186 1.240 . S
O194 In182 2.326 . S
O194 C186 1.252 . S
In195 O196 2.294 . S
In195 O197 2.326 . S
In195 O201 2.266 . S
In195 O202 2.340 . S
In195 O203 2.266 1_565 S
In195 O204 2.326 . S
In195 O206 2.294 1_565 S
In195 O207 2.326 . S
O196 In195 2.294 . S
O196 C205 1.240 . S
O197 In195 2.326 . S
O197 C205 1.252 . S
C198 O201 1.252 . S
C198 O202 1.289 . S
C199 O206 1.244 . S
C199 O207 1.245 1_545 S
C200 O203 1.252 1_565 S
C200 O204 1.260 . S
O201 In195 2.266 . S
O201 C198 1.252 . S
O202 In195 2.340 . S
O202 C198 1.289 . S
O203 In195 2.266 1_545 S
O203 C200 1.252 1_545 S
O204 In195 2.326 . S
O204 C200 1.260 . S
C205 O196 1.240 . S
C205 O197 1.252 . S
O206 In195 2.294 1_545 S
O206 C199 1.244 . S
O207 In195 2.326 . S
O207 C199 1.245 1_565 S
In208 O209 2.294 . S
In208 O210 2.326 . S
In208 O214 2.266 . S
In208 O215 2.326 . S
In208 O216 2.266 . S
In208 O217 2.326 . S
In208 O219 2.294 . S
In208 O220 2.326 . S
O209 In208 2.294 . S
O209 C218 1.240 . S
O210 In208 2.326 . S
O210 C218 1.252 . S
C211 O214 1.252 . S
C211 O215 1.260 . S
C212 O219 1.240 . S
C212 O220 1.252 . S
C213 O216 1.252 . S
C213 O217 1.260 . S
O214 In208 2.266 . S
O214 C211 1.252 . S
O215 In208 2.326 . S
O215 C211 1.260 . S
O216 In208 2.266 . S
O216 C213 1.252 . S
O217 In208 2.326 . S
O217 C213 1.260 . S
C218 O209 1.240 . S
C218 O210 1.252 . S
O219 In208 2.294 . S
O219 C212 1.240 . S
O220 In208 2.326 . S
O220 C212 1.252 . S
In221 O222 2.294 . S
In221 O223 2.326 . S
In221 O227 2.266 . S
In221 O228 2.326 . S
In221 O229 2.266 . S
In221 O230 2.326 . S
In221 O232 2.294 . S
In221 O233 2.326 . S
O222 In221 2.294 . S
O222 C231 1.240 . S
O223 In221 2.326 . S
O223 C231 1.252 . S
C224 O227 1.252 1_554 S
C224 O228 1.260 1_554 S
C225 O232 1.240 . S
C225 O233 1.252 . S
C226 O229 1.252 . S
C226 O230 1.260 . S
O227 In221 2.266 . S
O227 C224 1.252 1_556 S
O228 In221 2.326 . S
O228 C224 1.260 1_556 S
O229 In221 2.266 . S
O229 C226 1.252 . S
O230 In221 2.326 . S
O230 C226 1.260 . S
C231 O222 1.240 . S
C231 O223 1.252 . S
O232 In221 2.294 . S
O232 C225 1.240 . S
O233 In221 2.326 . S
O233 C225 1.252 . S
In234 O235 2.294 1_554 S
In234 O236 2.326 1_554 S
In234 O240 2.266 . S
In234 O241 2.326 . S
In234 O242 2.266 . S
In234 O243 2.326 . S
In234 O245 2.294 . S
In234 O246 2.326 . S
O235 In234 2.294 1_556 S
O235 C244 1.240 . S
O236 In234 2.326 1_556 S
O236 C244 1.252 . S
C237 O240 1.252 . S
C237 O241 1.260 . S
C238 O245 1.240 . S
C238 O246 1.252 . S
C239 O242 1.252 . S
C239 O243 1.260 . S
O240 In234 2.266 . S
O240 C237 1.252 . S
O241 In234 2.326 . S
O241 C237 1.260 . S
O242 In234 2.266 . S
O242 C239 1.252 . S
O243 In234 2.326 . S
O243 C239 1.260 . S
C244 O235 1.240 . S
C244 O236 1.252 . S
O245 In234 2.294 . S
O245 C238 1.240 . S
O246 In234 2.326 . S
O246 C238 1.252 . S
In247 O248 2.294 . S
In247 O249 2.326 . S
In247 O253 2.266 . S
In247 O254 2.326 . S
In247 O255 2.266 . S
In247 O256 2.326 . S
In247 O258 2.294 . S
In247 O259 2.326 . S
O248 In247 2.294 . S
O248 C257 1.240 . S
O249 In247 2.326 . S
O249 C257 1.252 . S
C250 O253 1.252 . S
C250 O254 1.260 . S
C251 O258 1.240 . S
C251 O259 1.252 . S
C252 O255 1.252 . S
C252 O256 1.260 . S
O253 In247 2.266 . S
O253 C250 1.252 . S
O254 In247 2.326 . S
O254 C250 1.260 . S
O255 In247 2.266 . S
O255 C252 1.252 . S
O256 In247 2.326 . S
O256 C252 1.260 . S
C257 O248 1.240 . S
C257 O249 1.252 . S
O258 In247 2.294 . S
O258 C251 1.240 . S
O259 In247 2.326 . S
O259 C251 1.252 . S
In260 O261 2.294 . S
In260 O262 2.326 . S
In260 O266 2.266 . S
In260 O267 2.326 . S
In260 O268 2.266 . S
In260 O269 2.326 . S
In260 O271 2.294 . S
In260 O272 2.326 . S
O261 In260 2.294 . S
O261 C270 1.240 . S
O262 In260 2.326 . S
O262 C270 1.252 . S
C263 O266 1.252 . S
C263 O267 1.260 . S
C264 O271 1.240 . S
C264 O272 1.252 . S
C265 O268 1.252 . S
C265 O269 1.260 . S
O266 In260 2.266 . S
O266 C263 1.252 . S
O267 In260 2.326 . S
O267 C263 1.260 . S
O268 In260 2.266 . S
O268 C265 1.252 . S
O269 In260 2.326 . S
O269 C265 1.260 . S
C270 O261 1.240 . S
C270 O262 1.252 . S
O271 In260 2.294 . S
O271 C264 1.240 . S
O272 In260 2.326 . S
O272 C264 1.252 . S
In273 O274 2.294 . S
In273 O275 2.326 . S
In273 O279 2.266 . S
In273 O280 2.326 . S
In273 O281 2.266 . S
In273 O282 2.326 . S
In273 O284 2.294 . S
In273 O285 2.326 1_556 S
O274 In273 2.294 . S
O274 C283 1.240 . S
O275 In273 2.326 . S
O275 C283 1.252 . S
C276 O279 1.252 . S
C276 O280 1.260 . S
C277 O284 1.240 1_554 S
C277 O285 1.252 . S
C278 O281 1.252 . S
C278 O282 1.260 . S
O279 In273 2.266 . S
O279 C276 1.252 . S
O280 In273 2.326 . S
O280 C276 1.260 . S
O281 In273 2.266 . S
O281 C278 1.252 . S
O282 In273 2.326 . S
O282 C278 1.260 . S
C283 O274 1.240 . S
C283 O275 1.252 . S
O284 In273 2.294 . S
O284 C277 1.240 1_556 S
O285 In273 2.326 1_554 S
O285 C277 1.252 . S
In286 O287 2.294 . S
In286 O288 2.326 . S
In286 O292 2.266 . S
In286 O293 2.326 . S
In286 O294 2.266 1_554 S
In286 O295 2.326 1_554 S
In286 O297 2.294 . S
In286 O298 2.326 . S
O287 In286 2.294 . S
O287 C296 1.240 . S
O288 In286 2.326 . S
O288 C296 1.252 . S
C289 O292 1.252 . S
C289 O293 1.260 . S
C290 O297 1.240 . S
C290 O298 1.252 . S
C291 O294 1.252 . S
C291 O295 1.260 . S
O292 In286 2.266 . S
O292 C289 1.252 . S
O293 In286 2.326 . S
O293 C289 1.260 . S
O294 In286 2.266 1_556 S
O294 C291 1.252 . S
O295 In286 2.326 1_556 S
O295 C291 1.260 . S
C296 O287 1.240 . S
C296 O288 1.252 . S
O297 In286 2.294 . S
O297 C290 1.240 . S
O298 In286 2.326 . S
O298 C290 1.252 . S
In299 O300 2.294 . S
In299 O301 2.326 . S
In299 O305 2.266 . S
In299 O306 2.326 . S
In299 O307 2.266 . S
In299 O308 2.326 . S
In299 O310 2.294 . S
In299 O311 2.326 . S
O300 In299 2.294 . S
O300 C309 1.240 . S
O301 In299 2.326 . S
O301 C309 1.252 . S
C302 O305 1.252 . S
C302 O306 1.260 . S
C303 O310 1.240 . S
C303 O311 1.252 . S
C304 O307 1.252 . S
C304 O308 1.260 . S
O305 In299 2.266 . S
O305 C302 1.252 . S
O306 In299 2.326 . S
O306 C302 1.260 . S
O307 In299 2.266 . S
O307 C304 1.252 . S
O308 In299 2.326 . S
O308 C304 1.260 . S
C309 O300 1.240 . S
C309 O301 1.252 . S
O310 In299 2.294 . S
O310 C303 1.240 . S
O311 In299 2.326 . S
O311 C303 1.252 . S
In312 O313 2.294 . S
In312 O314 2.326 . S
In312 O318 2.266 . S
In312 O319 2.326 . S
In312 O320 2.266 . S
In312 O321 2.326 . S
In312 O323 2.294 . S
In312 O324 2.326 . S
O313 In312 2.294 . S
O313 C322 1.240 . S
O314 In312 2.326 . S
O314 C322 1.252 . S
C315 O318 1.252 . S
C315 O319 1.260 . S
C316 O323 1.240 . S
C316 O324 1.252 . S
C317 O320 1.252 . S
C317 O321 1.260 . S
O318 In312 2.266 . S
O318 C315 1.252 . S
O319 In312 2.326 . S
O319 C315 1.260 . S
O320 In312 2.266 . S
O320 C317 1.252 . S
O321 In312 2.326 . S
O321 C317 1.260 . S
C322 O313 1.240 . S
C322 O314 1.252 . S
O323 In312 2.294 . S
O323 C316 1.240 . S
O324 In312 2.326 . S
O324 C316 1.252 . S
In325 O326 2.294 . S
In325 O327 2.326 . S
In325 O331 2.266 . S
In325 O332 2.326 . S
In325 O333 2.266 . S
In325 O334 2.326 . S
In325 O336 2.294 . S
In325 O337 2.326 . S
O326 In325 2.294 . S
O326 C335 1.240 . S
O327 In325 2.326 . S
O327 C335 1.252 . S
C328 O331 1.252 . S
C328 O332 1.260 . S
C329 O336 1.240 . S
C329 O337 1.252 . S
C330 O333 1.252 . S
C330 O334 1.260 . S
O331 In325 2.266 . S
O331 C328 1.252 . S
O332 In325 2.326 . S
O332 C328 1.260 . S
O333 In325 2.266 . S
O333 C330 1.252 . S
O334 In325 2.326 . S
O334 C330 1.260 . S
C335 O326 1.240 . S
C335 O327 1.252 . S
O336 In325 2.294 . S
O336 C329 1.240 . S
O337 In325 2.326 . S
O337 C329 1.252 . S
In338 O339 2.294 . S
In338 O340 2.326 . S
In338 O344 2.266 . S
In338 O345 2.326 . S
In338 O346 2.266 1_554 S
In338 O347 2.326 1_554 S
In338 O349 2.294 . S
In338 O350 2.326 . S
O339 In338 2.294 . S
O339 C348 1.240 . S
O340 In338 2.326 . S
O340 C348 1.252 . S
C341 O344 1.252 . S
C341 O345 1.260 . S
C342 O349 1.240 . S
C342 O350 1.252 . S
C343 O346 1.252 . S
C343 O347 1.260 . S
O344 In338 2.266 . S
O344 C341 1.252 . S
O345 In338 2.326 . S
O345 C341 1.260 . S
O346 In338 2.266 1_556 S
O346 C343 1.252 . S
O347 In338 2.326 1_556 S
O347 C343 1.260 . S
C348 O339 1.240 . S
C348 O340 1.252 . S
O349 In338 2.294 . S
O349 C342 1.240 . S
O350 In338 2.326 . S
O350 C342 1.252 . S
In351 O352 2.294 . S
In351 O353 2.326 1_556 S
In351 O357 2.266 . S
In351 O358 2.326 . S
In351 O359 2.266 . S
In351 O360 2.326 . S
In351 O362 2.294 . S
In351 O363 2.326 . S
O352 In351 2.294 . S
O352 C361 1.240 1_556 S
O353 In351 2.326 1_554 S
O353 C361 1.252 . S
C354 O357 1.252 . S
C354 O358 1.260 . S
C355 O362 1.240 . S
C355 O363 1.252 . S
C356 O359 1.252 . S
C356 O360 1.260 . S
O357 In351 2.266 . S
O357 C354 1.252 . S
O358 In351 2.326 . S
O358 C354 1.260 . S
O359 In351 2.266 . S
O359 C356 1.252 . S
O360 In351 2.326 . S
O360 C356 1.260 . S
C361 O352 1.240 1_554 S
C361 O353 1.252 . S
O362 In351 2.294 . S
O362 C355 1.240 . S
O363 In351 2.326 . S
O363 C355 1.252 . S
In364 O365 2.294 . S
In364 O366 2.326 . S
In364 O370 2.266 . S
In364 O371 2.326 . S
In364 O372 2.266 . S
In364 O373 2.326 . S
In364 O375 2.294 . S
In364 O376 2.326 . S
O365 In364 2.294 . S
O365 C374 1.240 . S
O366 In364 2.326 . S
O366 C374 1.252 . S
C367 O370 1.252 . S
C367 O371 1.260 . S
C368 O375 1.240 . S
C368 O376 1.252 . S
C369 O372 1.252 . S
C369 O373 1.260 . S
O370 In364 2.266 . S
O370 C367 1.252 . S
O371 In364 2.326 . S
O371 C367 1.260 . S
O372 In364 2.266 . S
O372 C369 1.252 . S
O373 In364 2.326 . S
O373 C369 1.260 . S
C374 O365 1.240 . S
C374 O366 1.252 . S
O375 In364 2.294 . S
O375 C368 1.240 . S
O376 In364 2.326 . S
O376 C368 1.252 . S
In377 O378 2.294 . S
In377 O379 2.326 . S
In377 O383 2.266 . S
In377 O384 2.326 . S
In377 O385 2.266 . S
In377 O386 2.326 . S
In377 O388 2.294 . S
In377 O389 2.326 . S
O378 In377 2.294 . S
O378 C387 1.240 . S
O379 In377 2.326 . S
O379 C387 1.252 . S
C380 O383 1.252 . S
C380 O384 1.260 . S
C381 O388 1.240 . S
C381 O389 1.252 . S
C382 O385 1.252 . S
C382 O386 1.260 . S
O383 In377 2.266 . S
O383 C380 1.252 . S
O384 In377 2.326 . S
O384 C380 1.260 . S
O385 In377 2.266 . S
O385 C382 1.252 . S
O386 In377 2.326 . S
O386 C382 1.260 . S
C387 O378 1.240 . S
C387 O379 1.252 . S
O388 In377 2.294 . S
O388 C381 1.240 . S
O389 In377 2.326 . S
O389 C381 1.252 . S
In390 O391 2.294 . S
In390 O392 2.326 . S
In390 O396 2.266 . S
In390 O397 2.326 . S
In390 O398 2.266 . S
In390 O399 2.326 . S
In390 O401 2.294 1_554 S
In390 O402 2.326 1_554 S
O391 In390 2.294 . S
O391 C400 1.240 . S
O392 In390 2.326 . S
O392 C400 1.252 . S
C393 O396 1.252 . S
C393 O397 1.260 . S
C394 O401 1.240 . S
C394 O402 1.252 . S
C395 O398 1.252 . S
C395 O399 1.260 . S
O396 In390 2.266 . S
O396 C393 1.252 . S
O397 In390 2.326 . S
O397 C393 1.260 . S
O398 In390 2.266 . S
O398 C395 1.252 . S
O399 In390 2.326 . S
O399 C395 1.260 . S
C400 O391 1.240 . S
C400 O392 1.252 . S
O401 In390 2.294 1_556 S
O401 C394 1.240 . S
O402 In390 2.326 1_556 S
O402 C394 1.252 . S
In403 O404 2.294 . S
In403 O405 2.326 . S
In403 O409 2.266 . S
In403 O410 2.326 . S
In403 O411 2.266 . S
In403 O412 2.326 . S
In403 O414 2.294 . S
In403 O415 2.326 . S
O404 In403 2.294 . S
O404 C413 1.240 . S
O405 In403 2.326 . S
O405 C413 1.252 . S
C406 O409 1.252 . S
C406 O410 1.260 . S
C407 O414 1.240 . S
C407 O415 1.252 . S
C408 O411 1.252 1_554 S
C408 O412 1.260 1_554 S
O409 In403 2.266 . S
O409 C406 1.252 . S
O410 In403 2.326 . S
O410 C406 1.260 . S
O411 In403 2.266 . S
O411 C408 1.252 1_556 S
O412 In403 2.326 . S
O412 C408 1.260 1_556 S
C413 O404 1.240 . S
C413 O405 1.252 . S
O414 In403 2.294 . S
O414 C407 1.240 . S
O415 In403 2.326 . S
O415 C407 1.252 . S
C101 C4 1.854 1_556 S
C17 C56 1.854 . S
C75 C36 1.854 . S
C43 C88 1.854 . S
C108 C205 1.854 . S
C121 C166 1.854 1_556 S
C134 C179 1.854 . S
C147 C186 1.854 . S
C218 C309 1.854 . S
C225 C270 1.854 . S
C283 C238 1.854 1_556 S
C296 C251 1.854 . S
C316 C413 1.854 . S
C368 C329 1.854 . S
C387 C348 1.854 . S
C355 C400 1.854 1_556 S
C10 C82 1.035 . S
C23 C95 1.034 1_545 S
C62 C30 1.035 . S
C49 C69 1.034 1_565 S
C114 C192 1.035 . S
C127 C199 1.034 1_565 S
C160 C140 1.035 . S
C173 C153 1.034 1_565 S
C212 C290 1.035 . S
C303 C231 1.035 . S
C264 C244 1.035 . S
C257 C277 1.035 . S
C322 C394 1.035 . S
C335 C407 1.035 . S
C374 C342 1.035 . S
C381 C361 1.035 . S
C5 C393 1.655 . S
C18 C198 1.655 1_455 S
C29 C369 1.655 . S
C44 C172 1.655 . S
C57 C341 1.655 . S
C68 C148 1.655 . S
C81 C317 1.655 . S
C122 C94 1.655 1_655 S
C289 C109 1.655 . S
C135 C263 1.655 . S
C239 C159 1.655 . S
C211 C187 1.655 . S
C226 C406 1.655 . S
C252 C380 1.655 1_655 S
C276 C356 1.655 1_655 S
C330 C302 1.655 . S
C3 C83 1.535 . S
C16 C96 1.535 1_565 S
C55 C31 1.536 . S
C42 C70 1.535 1_545 S
C107 C185 1.536 . S
C120 C200 1.535 1_545 S
C161 C133 1.535 . S
C146 C174 1.535 1_565 S
C291 C213 1.535 . S
C304 C224 1.535 . S
C265 C237 1.535 . S
C278 C250 1.535 . S
C395 C315 1.535 . S
C408 C328 1.535 . S
C343 C367 1.535 . S
C382 C354 1.535 . S
