# Generated by pormake.
# Topology whw, (6)-cn, num edge types: 1
# Building blocks:
#     Node 0, Type 0, BuildingBlock: BETFAJ_clean_sbu_0, # of connection points: 6
#     Node 1, Type 0, BuildingBlock: BETFAJ_clean_sbu_0, # of connection points: 6
#     Node 2, Type 0, BuildingBlock: BETFAJ_clean_sbu_0, # of connection points: 6
#     Node 3, Type 0, BuildingBlock: BETFAJ_clean_sbu_0, # of connection points: 6
#     Node 4, Type 0, BuildingBlock: BETFAJ_clean_sbu_0, # of connection points: 6
#     Node 5, Type 0, BuildingBlock: BETFAJ_clean_sbu_0, # of connection points: 6
#     Node 6, Type 0, BuildingBlock: BETFAJ_clean_sbu_0, # of connection points: 6
#     Node 7, Type 0, BuildingBlock: BETFAJ_clean_sbu_0, # of connection points: 6
#     Node 8, Type 0, BuildingBlock: BETFAJ_clean_sbu_0, # of connection points: 6
#     Node 9, Type 0, BuildingBlock: BETFAJ_clean_sbu_0, # of connection points: 6
#     Node 10, Type 0, BuildingBlock: BETFAJ_clean_sbu_0, # of connection points: 6
#     Node 11, Type 0, BuildingBlock: BETFAJ_clean_sbu_0, # of connection points: 6
#     Node 12, Type 0, BuildingBlock: BETFAJ_clean_sbu_0, # of connection points: 6
#     Node 13, Type 0, BuildingBlock: BETFAJ_clean_sbu_0, # of connection points: 6
#     Node 14, Type 0, BuildingBlock: BETFAJ_clean_sbu_0, # of connection points: 6
#     Node 15, Type 0, BuildingBlock: BETFAJ_clean_sbu_0, # of connection points: 6
#     Edge 16, Type (0, 0), BuildingBlock: OJICUG_clean_linker_0, # of connection points: 2
#     Edge 17, Type (0, 0), BuildingBlock: OJICUG_clean_linker_0, # of connection points: 2
#     Edge 18, Type (0, 0), BuildingBlock: OJICUG_clean_linker_0, # of connection points: 2
#     Edge 19, Type (0, 0), BuildingBlock: OJICUG_clean_linker_0, # of connection points: 2
#     Edge 20, Type (0, 0), BuildingBlock: OJICUG_clean_linker_0, # of connection points: 2
#     Edge 21, Type (0, 0), BuildingBlock: OJICUG_clean_linker_0, # of connection points: 2
#     Edge 22, Type (0, 0), BuildingBlock: OJICUG_clean_linker_0, # of connection points: 2
#     Edge 23, Type (0, 0), BuildingBlock: OJICUG_clean_linker_0, # of connection points: 2
#     Edge 24, Type (0, 0), BuildingBlock: OJICUG_clean_linker_0, # of connection points: 2
#     Edge 25, Type (0, 0), BuildingBlock: OJICUG_clean_linker_0, # of connection points: 2
#     Edge 26, Type (0, 0), BuildingBlock: OJICUG_clean_linker_0, # of connection points: 2
#     Edge 27, Type (0, 0), BuildingBlock: OJICUG_clean_linker_0, # of connection points: 2
#     Edge 28, Type (0, 0), BuildingBlock: OJICUG_clean_linker_0, # of connection points: 2
#     Edge 29, Type (0, 0), BuildingBlock: OJICUG_clean_linker_0, # of connection points: 2
#     Edge 30, Type (0, 0), BuildingBlock: OJICUG_clean_linker_0, # of connection points: 2
#     Edge 31, Type (0, 0), BuildingBlock: OJICUG_clean_linker_0, # of connection points: 2
#     Edge 32, Type (0, 0), BuildingBlock: OJICUG_clean_linker_0, # of connection points: 2
#     Edge 33, Type (0, 0), BuildingBlock: OJICUG_clean_linker_0, # of connection points: 2
#     Edge 34, Type (0, 0), BuildingBlock: OJICUG_clean_linker_0, # of connection points: 2
#     Edge 35, Type (0, 0), BuildingBlock: OJICUG_clean_linker_0, # of connection points: 2
#     Edge 36, Type (0, 0), BuildingBlock: OJICUG_clean_linker_0, # of connection points: 2
#     Edge 37, Type (0, 0), BuildingBlock: OJICUG_clean_linker_0, # of connection points: 2
#     Edge 38, Type (0, 0), BuildingBlock: OJICUG_clean_linker_0, # of connection points: 2
#     Edge 39, Type (0, 0), BuildingBlock: OJICUG_clean_linker_0, # of connection points: 2
#     Edge 40, Type (0, 0), BuildingBlock: OJICUG_clean_linker_0, # of connection points: 2
#     Edge 41, Type (0, 0), BuildingBlock: OJICUG_clean_linker_0, # of connection points: 2
#     Edge 42, Type (0, 0), BuildingBlock: OJICUG_clean_linker_0, # of connection points: 2
#     Edge 43, Type (0, 0), BuildingBlock: OJICUG_clean_linker_0, # of connection points: 2
#     Edge 44, Type (0, 0), BuildingBlock: OJICUG_clean_linker_0, # of connection points: 2
#     Edge 45, Type (0, 0), BuildingBlock: OJICUG_clean_linker_0, # of connection points: 2
#     Edge 46, Type (0, 0), BuildingBlock: OJICUG_clean_linker_0, # of connection points: 2
#     Edge 47, Type (0, 0), BuildingBlock: OJICUG_clean_linker_0, # of connection points: 2
#     Edge 48, Type (0, 0), BuildingBlock: OJICUG_clean_linker_0, # of connection points: 2
#     Edge 49, Type (0, 0), BuildingBlock: OJICUG_clean_linker_0, # of connection points: 2
#     Edge 50, Type (0, 0), BuildingBlock: OJICUG_clean_linker_0, # of connection points: 2
#     Edge 51, Type (0, 0), BuildingBlock: OJICUG_clean_linker_0, # of connection points: 2
#     Edge 52, Type (0, 0), BuildingBlock: OJICUG_clean_linker_0, # of connection points: 2
#     Edge 53, Type (0, 0), BuildingBlock: OJICUG_clean_linker_0, # of connection points: 2
#     Edge 54, Type (0, 0), BuildingBlock: OJICUG_clean_linker_0, # of connection points: 2
#     Edge 55, Type (0, 0), BuildingBlock: OJICUG_clean_linker_0, # of connection points: 2
#     Edge 56, Type (0, 0), BuildingBlock: OJICUG_clean_linker_0, # of connection points: 2
#     Edge 57, Type (0, 0), BuildingBlock: OJICUG_clean_linker_0, # of connection points: 2
#     Edge 58, Type (0, 0), BuildingBlock: OJICUG_clean_linker_0, # of connection points: 2
#     Edge 59, Type (0, 0), BuildingBlock: OJICUG_clean_linker_0, # of connection points: 2
#     Edge 60, Type (0, 0), BuildingBlock: OJICUG_clean_linker_0, # of connection points: 2
#     Edge 61, Type (0, 0), BuildingBlock: OJICUG_clean_linker_0, # of connection points: 2
#     Edge 62, Type (0, 0), BuildingBlock: OJICUG_clean_linker_0, # of connection points: 2
#     Edge 63, Type (0, 0), BuildingBlock: OJICUG_clean_linker_0, # of connection points: 2
# Relax obj value: 0.408
# Max RMSD: 0.271
# Mean RMSD: 0.228
data_MOF--net-whw--node1-BETFAJ_clean_sbu_0--edge1-OJICUG_clean_linker_0
_symmetry_space_group_name_H-M    P1
_symmetry_Int_Tables_number       1
_symmetry_cell_setting            triclinic
loop_
_symmetry_equiv_pos_as_xyz
'x, y, z'
_cell_length_a     33.587335
_cell_length_b     33.465137
_cell_length_c     27.417895
_cell_angle_alpha  89.606583
_cell_angle_beta   98.499663
_cell_angle_gamma 94.410463
loop_
_atom_site_label
_atom_site_type_symbol
_atom_site_fract_x
_atom_site_fract_y
_atom_site_fract_z
_atom_type_partial_charge
Sm0 Sm 0.08711 0.15233 0.16257 0.0
Sm1 Sm 0.00119 0.1274 0.17395 0.0
C2 C 0.15975 0.15383 0.13609 0.0
C3 C 0.17498 0.13528 0.09489 0.0
C4 C 0.1538 0.10113 0.07203 0.0
C5 C 0.16464 0.08582 1.02924 0.0
C6 C 0.19757 0.10392 1.00873 0.0
C7 C 0.22058 0.13659 1.03393 0.0
C8 C 0.20907 0.1524 0.07647 0.0
C9 C 0.05023 0.20796 0.20836 0.0
C10 C 0.0131 0.17502 0.07075 0.0
C11 C 0.93285 0.10035 0.20412 0.0
C12 C 0.91787 0.10321 0.25156 0.0
C13 C 0.93488 0.13321 0.2854 0.0
C14 C 0.92358 0.13427 0.33212 0.0
C15 C 0.89571 0.10475 0.34645 0.0
C16 C 0.87885 0.07433 0.31289 0.0
C17 C 0.8897 0.07374 0.26546 0.0
C18 C 0.03093 0.07955 0.10932 0.0
C19 C 0.0716 0.1398 0.27838 0.0
O20 O 0.14719 0.12854 0.16825 0.0
O21 O 0.13522 0.18215 0.12419 0.0
O22 O 0.03486 0.18629 0.17257 0.0
O23 O 0.08911 0.20612 0.21701 0.0
O24 O 0.05185 0.16752 0.08345 0.0
O25 O 0.98714 0.16741 0.10293 0.0
O26 O 0.93637 0.13369 0.17922 0.0
O27 O 0.96402 0.079 0.20525 0.0
O28 O 0.05115 0.09121 0.1508 0.0
O29 O 0.99486 0.09107 0.10404 0.0
O30 O 0.03277 0.13464 0.25844 0.0
O31 O 0.09952 0.14268 0.24856 0.0
H32 H 0.12787 0.08714 0.08644 0.0
H33 H 0.14561 0.06114 1.01097 0.0
H34 H 0.24666 0.1508 1.01999 0.0
H35 H 0.2261 0.17853 0.09414 0.0
H36 H 0.95786 0.15516 0.27643 0.0
H37 H 0.93774 0.15748 0.35775 0.0
H38 H 0.85753 0.05109 0.32343 0.0
H39 H 0.87691 0.04983 0.24013 0.0
Sm40 Sm 0.17868 0.80692 0.47482 0.0
Sm41 Sm 0.17371 0.72459 0.43203 0.0
C42 C 0.17656 0.87278 0.52729 0.0
C43 C 0.16366 0.88554 0.57357 0.0
C44 C 0.13657 0.91558 0.5719 0.0
C45 C 0.12232 0.9271 0.61464 0.0
C46 C 0.13519 0.909 0.66005 0.0
C47 C 0.1633 0.87976 0.66201 0.0
C48 C 0.1773 0.86798 0.61911 0.0
C49 C 0.24588 0.78977 0.4342 0.0
C50 C 0.18506 0.72858 0.5481 0.0
C51 C 0.17737 0.66312 0.37317 0.0
C52 C 0.15766 0.65589 0.32209 0.0
C53 C 0.17429 0.63132 0.29049 0.0
C54 C 0.15646 0.62637 0.24119 0.0
C55 C 0.12167 0.64589 0.22283 0.0
C56 C 0.10513 0.67043 0.25478 0.0
C57 C 0.12307 0.67553 0.30384 0.0
C58 C 0.10087 0.74433 0.45736 0.0
C59 C 0.15518 0.80282 0.35855 0.0
O60 O 0.14776 0.86028 0.49204 0.0
O61 O 0.20814 0.85172 0.53068 0.0
O62 O 0.22729 0.76622 0.46111 0.0
O63 O 0.23084 0.82431 0.43137 0.0
O64 O 0.1713 0.76429 0.53989 0.0
O65 O 0.19662 0.7084 0.51212 0.0
O66 O 0.20497 0.69308 0.37918 0.0
O67 O 0.15321 0.6626 0.40642 0.0
O68 O 0.12517 0.76741 0.43724 0.0
O69 O 0.1149 0.70941 0.46437 0.0
O70 O 0.16507 0.76536 0.36314 0.0
O71 O 0.15289 0.82499 0.39731 0.0
H72 H 0.12587 0.92972 0.53725 0.0
H73 H 0.10085 0.94985 0.61211 0.0
H74 H 0.17332 0.86493 0.69639 0.0
H75 H 0.19814 0.84466 0.62151 0.0
H76 H 0.20118 0.61626 0.30382 0.0
H77 H 0.16971 0.60705 0.21752 0.0
H78 H 0.07876 0.68633 0.24158 0.0
H79 H 0.11013 0.69521 0.32746 0.0
Sm80 Sm 0.4725 0.90019 0.71147 0.0
Sm81 Sm 0.49489 0.85791 0.60512 0.0
C82 C 0.44931 0.89603 0.80226 0.0
C83 C 0.44702 0.87792 0.85394 0.0
C84 C 0.42689 0.83989 0.86055 0.0
C85 C 0.41994 0.82551 0.90796 0.0
C86 C 0.43247 0.84834 0.95183 0.0
C87 C 0.45332 0.88613 0.94504 0.0
C88 C 0.46022 0.9005 0.89758 0.0
C89 C 0.49523 0.95034 0.6376 0.0
C90 C 0.56398 0.87091 0.7054 0.0
C91 C 0.52412 0.83627 0.5235 0.0
C92 C 0.531 0.82074 0.47318 0.0
C93 C 0.52311 0.84318 0.4294 0.0
C94 C 0.53367 0.83027 0.38394 0.0
C95 C 0.55292 0.79438 0.37993 0.0
C96 C 0.56009 0.77175 0.42385 0.0
C97 C 0.5494 0.78457 0.46913 0.0
C98 C 0.45256 0.8149 0.6701 0.0
C99 C 0.40709 0.89511 0.60887 0.0
O100 O 0.43091 0.87615 0.76311 0.0
O101 O 0.47998 0.92017 0.79205 0.0
O102 O 0.50629 0.91582 0.64771 0.0
O103 O 0.47533 0.96276 0.67189 0.0
O104 O 0.53785 0.88475 0.73179 0.0
O105 O 0.55557 0.85982 0.65825 0.0
O106 O 0.51016 0.87144 0.52904 0.0
O107 O 0.5218 0.81257 0.5616 0.0
O108 O 0.48016 0.8418 0.67929 0.0
O109 O 0.4487 0.80597 0.62312 0.0
O110 O 0.43485 0.88538 0.58203 0.0
O111 O 0.41242 0.89804 0.65775 0.0
H112 H 0.41541 0.82128 0.82865 0.0
H113 H 0.40344 0.7966 0.90965 0.0
H114 H 0.46456 0.90516 0.97656 0.0
H115 H 0.47533 0.93005 0.89504 0.0
H116 H 0.5092 0.87125 0.43027 0.0
H117 H 0.52659 0.84879 0.35182 0.0
H118 H 0.57513 0.7443 0.42399 0.0
H119 H 0.55656 0.76633 0.50156 0.0
Sm120 Sm 0.36104 0.18251 0.91489 0.0
Sm121 Sm 0.36061 0.26404 0.86913 0.0
C122 C 0.3679 0.11916 0.97331 0.0
C123 C 0.38341 0.109 1.02491 0.0
C124 C 0.4147 0.08319 1.03405 0.0
C125 C 0.4309 0.07386 0.08232 0.0
C126 C 0.41592 0.08985 0.12263 0.0
C127 C 0.38392 0.11498 0.1135 0.0
C128 C 0.36788 0.12458 0.06511 0.0
C129 C 0.29537 0.19111 0.84285 0.0
C130 C 0.34752 0.26164 0.98072 0.0
C131 C 0.35302 0.32326 0.80464 0.0
C132 C 0.37278 0.33151 0.76076 0.0
C133 C 0.35461 0.35438 0.7219 0.0
C134 C 0.37287 0.36078 0.67947 0.0
C135 C 0.40961 0.34436 0.67525 0.0
C136 C 0.42765 0.32146 0.71443 0.0
C137 C 0.40937 0.31504 0.75668 0.0
C138 C 0.43371 0.25164 0.92616 0.0
C139 C 0.38939 0.18767 0.80952 0.0
O140 O 0.39499 0.1315 0.94572 0.0
O141 O 0.33513 0.13857 0.9651 0.0
O142 O 0.30968 0.21727 0.87564 0.0
O143 O 0.31325 0.15834 0.85108 0.0
O144 O 0.36291 0.22655 0.98 0.0
O145 O 0.3357 0.28045 0.93925 0.0
O146 O 0.32787 0.29132 0.802 0.0
O147 O 0.37666 0.32645 0.84695 0.0
O148 O 0.41236 0.22592 0.89814 0.0
O149 O 0.4172 0.28549 0.92304 0.0
O150 O 0.37714 0.22423 0.80822 0.0
O151 O 0.39104 0.16563 0.84961 0.0
H152 H 0.42694 0.0705 1.00371 0.0
H153 H 0.45523 0.05411 0.08813 0.0
H154 H 0.37202 0.1281 0.14381 0.0
H155 H 0.34373 0.14454 0.05929 0.0
H156 H 0.32626 0.36712 0.72427 0.0
H157 H 0.35839 0.37888 0.65014 0.0
H158 H 0.45557 0.30789 0.7121 0.0
H159 H 0.42366 0.29682 0.78605 0.0
Sm160 Sm 0.06052 0.90669 0.94788 0.0
Sm161 Sm 0.97758 0.90703 0.88572 0.0
C162 C 0.12331 0.91797 1.01798 0.0
C163 C 0.13002 0.90729 0.07039 0.0
C164 C 0.10013 0.91183 0.10036 0.0
C165 C 0.10444 0.89647 0.14812 0.0
C166 C 0.13853 0.87612 0.16648 0.0
C167 C 0.16899 0.87285 0.13699 0.0
C168 C 0.16476 0.88837 0.08931 0.0
C169 C 0.03647 0.83578 0.89779 0.0
C170 C 0.97732 0.8823 0.99878 0.0
C171 C 0.91382 0.89693 0.8154 0.0
C172 C 0.9022 0.87995 0.76469 0.0
C173 C 0.92181 0.89321 0.7249 0.0
C174 C 0.90995 0.87652 0.67756 0.0
C175 C 0.87826 0.84606 0.66878 0.0
C176 C 0.8586 0.83315 0.7087 0.0
C177 C 0.87036 0.84991 0.75585 0.0
C178 C 0.00206 0.97444 0.94469 0.0
C179 C 0.05994 0.92329 0.83412 0.0
O180 O 0.09808 0.9454 1.00512 0.0
O181 O 0.11839 0.88761 0.98742 0.0
O182 O 0.01378 0.85654 0.91849 0.0
O183 O 0.07339 0.85163 0.90499 0.0
O184 O 0.01667 0.89259 1.00497 0.0
O185 O 0.95519 0.88133 0.9548 0.0
O186 O 0.92213 0.87128 0.85101 0.0
O187 O 0.93742 0.93015 0.82128 0.0
O188 O 0.02346 0.95652 0.91903 0.0
O189 O 0.96515 0.95858 0.93623 0.0
O190 O 0.02251 0.90704 0.82979 0.0
O191 O 0.08058 0.933 0.87761 0.0
H192 H 0.07284 0.92603 0.08641 0.0
H193 H 0.08038 0.89914 0.16994 0.0
H194 H 0.19583 0.85778 0.15058 0.0
H195 H 0.18801 0.88447 0.06663 0.0
H196 H 0.94645 0.91632 0.73033 0.0
H197 H 0.92619 0.88695 0.64802 0.0
H198 H 0.83377 0.81022 0.70347 0.0
H199 H 0.85445 0.83929 0.78563 0.0
Sm200 Sm 0.41886 0.80394 0.27545 0.0
Sm201 Sm 0.40525 0.71671 0.24175 0.0
C202 C 0.40929 0.87516 0.31132 0.0
C203 C 0.3902 0.89265 0.35045 0.0
C204 C 0.34821 0.88738 0.35083 0.0
C205 C 0.33155 0.8993 0.39172 0.0
C206 C 0.35648 0.91789 0.43197 0.0
C207 C 0.39776 0.92654 0.42923 0.0
C208 C 0.41449 0.91394 0.38899 0.0
C209 C 0.48053 0.77739 0.23134 0.0
C210 C 0.44526 0.73133 0.35805 0.0
C211 C 0.39347 0.64603 0.19669 0.0
C212 C 0.39447 0.63351 0.14576 0.0
C213 C 0.40819 0.66138 0.11259 0.0
C214 C 0.40501 0.65199 0.06283 0.0
C215 C 0.38754 0.61448 1.04502 0.0
C216 C 0.37503 0.5858 0.07847 0.0
C217 C 0.37829 0.5954 0.12868 0.0
C218 C 0.34878 0.74088 0.29627 0.0
C219 C 0.40332 0.7904 0.15431 0.0
O220 O 0.38482 0.85777 0.27468 0.0
O221 O 0.4415 0.85563 0.32526 0.0
O222 O 0.46057 0.75789 0.26011 0.0
O223 O 0.47244 0.81471 0.23152 0.0
O224 O 0.43377 0.76866 0.35104 0.0
O225 O 0.44271 0.7065 0.31965 0.0
O226 O 0.42807 0.65909 0.22214 0.0
O227 O 0.36435 0.66874 0.20178 0.0
O228 O 0.36262 0.76158 0.26261 0.0
O229 O 0.36302 0.70603 0.29949 0.0
O230 O 0.40363 0.75152 0.1652 0.0
O231 O 0.40439 0.8168 0.19051 0.0
H232 H 0.32841 0.87267 0.32053 0.0
H233 H 0.29972 0.89219 0.39307 0.0
H234 H 0.41782 0.94002 0.46015 0.0
H235 H 0.44677 0.91911 0.38917 0.0
H236 H 0.42049 0.69085 0.12493 0.0
H237 H 0.41576 0.67435 1.0381 0.0
H238 H 0.36154 0.55663 0.06556 0.0
H239 H 0.36719 0.5736 0.15382 0.0
Sm240 Sm 0.48592 0.08959 0.4363 0.0
Sm241 Sm 0.57067 0.09236 0.41001 0.0
C242 C 0.42136 0.07864 0.48051 0.0
C243 C 0.41578 0.09419 0.52838 0.0
C244 C 0.38971 0.07366 0.55702 0.0
C245 C 0.38727 0.08756 0.60436 0.0
C246 C 0.41103 0.12202 0.62325 0.0
C247 C 0.43749 0.142 0.59451 0.0
C248 C 0.43979 0.12824 0.54749 0.0
C249 C 0.50942 0.16146 0.39492 0.0
C250 C 0.56488 0.11867 0.52052 0.0
C251 C 0.63602 0.10286 0.36623 0.0
C252 C 0.64529 0.12029 0.31929 0.0
C253 C 0.61868 0.1453 0.292 0.0
C254 C 0.62833 0.1632 0.24857 0.0
C255 C 0.66473 0.15634 0.23139 0.0
C256 C 0.69089 0.13051 0.25832 0.0
C257 C 0.68128 0.11275 0.302 0.0
C258 C 0.54962 0.02665 0.46539 0.0
C259 C 0.49123 0.07328 0.32483 0.0
O260 O 0.44855 0.05268 0.48256 0.0
O261 O 0.4248 0.10565 0.44646 0.0
O262 O 0.5317 0.14149 0.42554 0.0
O263 O 0.47312 0.14425 0.38681 0.0
O264 O 0.52632 0.10555 0.51079 0.0
O265 O 0.58834 0.12149 0.48585 0.0
O266 O 0.62662 0.12822 0.39805 0.0
O267 O 0.6128 0.06941 0.36313 0.0
O268 O 0.52728 0.0414 0.42948 0.0
O269 O 0.58593 0.04357 0.46814 0.0
O270 O 0.5278 0.09133 0.33576 0.0
O271 O 0.47022 0.06132 0.35984 0.0
H272 H 0.3715 0.04695 0.54294 0.0
H273 H 0.36646 0.07182 0.62583 0.0
H274 H 0.45664 0.16818 0.60852 0.0
H275 H 0.46073 0.14403 0.5262 0.0
H276 H 0.59059 0.15129 0.30454 0.0
H277 H 0.60716 0.18234 0.2283 0.0
H278 H 0.71921 0.12476 0.24625 0.0
H279 H 0.70218 0.0935 0.32259 0.0
Sm280 Sm 0.11989 0.16828 0.61611 0.0
Sm281 Sm 0.14119 0.25355 0.58488 0.0
C282 C 0.12435 0.09716 0.65852 0.0
C283 C 0.14474 0.08226 0.70573 0.0
C284 C 0.18659 0.08995 0.71978 0.0
C285 C 0.20406 0.0841 0.76847 0.0
C286 C 0.18006 0.06989 0.80355 0.0
C287 C 0.13909 0.05801 0.78822 0.0
C288 C 0.12153 0.06429 0.73964 0.0
C289 C 0.05234 0.20888 0.58326 0.0
C290 C 0.11344 0.24269 0.69657 0.0
C291 C 0.15296 0.32257 0.54033 0.0
C292 C 0.15294 0.33272 0.48817 0.0
C293 C 0.12936 0.30874 0.4514 0.0
C294 C 0.1315 0.31637 0.40184 0.0
C295 C 0.15713 0.34831 0.38795 0.0
C296 C 0.18113 0.37205 0.42489 0.0
C297 C 0.17923 0.36409 0.47472 0.0
C298 C 0.19995 0.22589 0.65367 0.0
C299 C 0.11675 0.18123 0.49526 0.0
O300 O 0.14746 0.11011 0.62625 0.0
O301 O 0.0951 0.12024 0.66189 0.0
O302 O 0.08593 0.22254 0.60483 0.0
O303 O 0.05439 0.1707 0.57582 0.0
O304 O 0.11803 0.20374 0.69037 0.0
O305 O 0.11627 0.26811 0.65894 0.0
O306 O 0.11804 0.31007 0.55342 0.0
O307 O 0.18242 0.30111 0.55895 0.0
O308 O 0.18048 0.20425 0.61802 0.0
O309 O 0.19205 0.26296 0.6482 0.0
O310 O 0.12874 0.21913 0.50763 0.0
O311 O 0.11278 0.1546 0.53075 0.0
H312 H 0.20544 0.10256 0.69397 0.0
H313 H 0.23583 0.09279 0.77944 0.0
H314 H 0.1199 0.04704 0.81467 0.0
H315 H 0.08931 0.05757 0.72942 0.0
H316 H 0.10897 0.28427 0.46088 0.0
H317 H 0.11173 0.29821 0.37436 0.0
H318 H 0.20086 0.39704 0.41519 0.0
H319 H 0.19819 0.38245 0.50272 0.0
Sm320 Sm 0.93252 0.3079 0.78374 0.0
Sm321 Sm 0.91529 0.22086 0.75132 0.0
C322 C 0.92655 0.38072 0.81763 0.0
C323 C 0.90642 0.39997 0.85446 0.0
C324 C 0.86417 0.3955 0.85246 0.0
C325 C 0.84623 0.40781 0.89201 0.0
C326 C 0.8702 0.42548 0.93359 0.0
C327 C 0.9118 0.43435 0.93275 0.0
C328 C 0.92977 0.42147 0.89358 0.0
C329 C 0.99207 0.27873 0.73799 0.0
C330 C 0.95681 0.23541 0.86731 0.0
C331 C 0.90055 0.15036 0.70603 0.0
C332 C 0.90005 0.13819 0.65457 0.0
C333 C 0.91593 0.16524 0.62203 0.0
C334 C 0.91189 0.15649 0.57202 0.0
C335 C 0.89108 0.12062 0.5531 0.0
C336 C 0.87607 0.09274 0.58586 0.0
C337 C 0.88041 0.10161 0.63641 0.0
C338 C 0.86046 0.24785 0.80623 0.0
C339 C 0.91379 0.29352 0.66308 0.0
O340 O 0.9028 0.3645 0.77966 0.0
O341 O 0.95647 0.35889 0.83427 0.0
O342 O 0.97216 0.26009 0.7675 0.0
O343 O 0.9855 0.3164 0.73858 0.0
O344 O 0.94677 0.27319 0.85987 0.0
O345 O 0.95282 0.21006 0.82919 0.0
O346 O 0.93584 0.16244 0.73061 0.0
O347 O 0.87236 0.17377 0.71258 0.0
O348 O 0.87457 0.26777 0.77213 0.0
O349 O 0.87362 0.21251 0.80985 0.0
O350 O 0.9131 0.25471 0.67425 0.0
O351 O 0.91657 0.32026 0.69911 0.0
H352 H 0.84514 0.38057 0.82169 0.0
H353 H 0.81418 0.40074 0.89182 0.0
H354 H 0.93125 0.44758 0.96454 0.0
H355 H 0.96225 0.42613 0.89533 0.0
H356 H 0.93064 0.19369 0.63504 0.0
H357 H 0.9247 0.17816 0.54799 0.0
H358 H 0.85996 0.06482 0.57223 0.0
H359 H 0.86752 0.0805 0.661 0.0
Sm360 Sm 0.61052 0.66765 0.10967 0.0
Sm361 Sm 0.63141 0.75317 0.07949 0.0
C362 C 0.616 0.59707 0.15315 0.0
C363 C 0.63678 0.58408 0.20118 0.0
C364 C 0.67842 0.5935 0.21514 0.0
C365 C 0.69588 0.59031 0.26432 0.0
C366 C 0.67212 0.57709 0.30004 0.0
C367 C 0.63156 0.56341 0.28518 0.0
C368 C 0.61397 0.567 0.23605 0.0
C369 C 0.54286 0.70822 0.07744 0.0
C370 C 0.60362 0.74167 0.19084 0.0
C371 C 0.64354 0.82168 1.03455 0.0
C372 C 0.64246 0.82989 0.98179 0.0
C373 C 0.61464 0.80771 0.94718 0.0
C374 C 0.61657 0.81166 0.89706 0.0
C375 C 0.64638 0.83789 0.88033 0.0
C376 C 0.67441 0.85998 0.91507 0.0
C377 C 0.67257 0.85582 0.96552 0.0
C378 C 0.69057 0.72527 0.14736 0.0
C379 C 0.60599 0.68166 0.9888 0.0
O380 O 0.6389 0.60991 0.1206 0.0
O381 O 0.58597 0.61941 0.15538 0.0
O382 O 0.57641 0.72175 0.0992 0.0
O383 O 0.54486 0.67004 0.06977 0.0
O384 O 0.60838 0.70281 0.18419 0.0
O385 O 0.60643 0.76738 0.15352 0.0
O386 O 0.60894 0.81035 0.04935 0.0
O387 O 0.67295 0.80011 0.05306 0.0
O388 O 0.67103 0.70381 0.11159 0.0
O389 O 0.68232 0.76228 0.14261 0.0
O390 O 0.61752 0.71956 1.00171 0.0
O391 O 0.60301 0.6545 1.02401 0.0
H392 H 0.69701 0.60556 0.18873 0.0
H393 H 0.72737 0.60028 0.27505 0.0
H394 H 0.61259 0.55313 0.31217 0.0
H395 H 0.58192 0.55907 0.22603 0.0
H396 H 0.59144 0.78709 0.9588 0.0
H397 H 0.59373 0.79505 0.87134 0.0
H398 H 0.69749 0.88062 0.90319 0.0
H399 H 0.69487 0.87248 0.99184 0.0
Sm400 Sm 0.68025 0.31 0.97236 0.0
Sm401 Sm 0.68037 0.22735 0.9319 0.0
C402 C 0.67378 0.3761 1.02239 0.0
C403 C 0.66091 0.38862 0.06872 0.0
C404 C 0.6321 0.41701 0.06698 0.0
C405 C 0.61799 0.4282 0.10994 0.0
C406 C 0.63272 0.41142 0.15555 0.0
C407 C 0.66246 0.38386 0.1575 0.0
C408 C 0.67632 0.37239 0.11442 0.0
C409 C 0.74954 0.29566 0.93455 0.0
C410 C 0.69175 0.23336 0.04777 0.0
C411 C 0.68893 0.16606 0.87501 0.0
C412 C 0.66997 0.15729 0.82399 0.0
C413 C 0.68887 0.13446 0.7928 0.0
C414 C 0.67181 0.12857 0.74335 0.0
C415 C 0.63557 0.14545 0.72447 0.0
C416 C 0.61678 0.16825 0.75602 0.0
C417 C 0.63389 0.17423 0.80521 0.0
C418 C 0.60641 0.24238 0.95742 0.0
C419 C 0.65847 0.30301 0.85591 0.0
O420 O 0.64527 0.3608 0.98846 0.0
O421 O 0.70709 0.35771 1.02568 0.0
O422 O 0.73142 0.27175 0.96148 0.0
O423 O 0.7325 0.32913 0.92956 0.0
O424 O 0.67584 0.26803 1.03883 0.0
O425 O 0.70446 0.21364 1.01227 0.0
O426 O 0.71445 0.19774 0.88047 0.0
O427 O 0.66451 0.16413 0.90804 0.0
O428 O 0.62875 0.26712 0.9365 0.0
O429 O 0.62241 0.20834 0.96363 0.0
O430 O 0.66946 0.26607 0.86191 0.0
O431 O 0.65539 0.32598 0.89369 0.0
H432 H 0.61999 0.43007 1.03217 0.0
H433 H 0.59518 0.44962 0.10745 0.0
H434 H 0.67391 0.37003 0.19207 0.0
H435 H 0.69848 0.35031 0.11683 0.0
H436 H 0.71696 0.12155 0.80654 0.0
H437 H 0.68682 0.11062 0.71997 0.0
H438 H 0.58924 0.18217 0.74242 0.0
H439 H 0.61919 0.19263 0.82848 0.0
Sm440 Sm 0.85366 0.68748 0.41023 0.0
Sm441 Sm 0.85359 0.76707 0.3586 0.0
C442 C 0.8594 0.62462 0.46925 0.0
C443 C 0.87397 0.61441 0.52103 0.0
C444 C 0.90316 0.58642 0.53083 0.0
C445 C 0.91834 0.57677 0.57935 0.0
C446 C 0.90441 0.59469 0.61919 0.0
C447 C 0.87458 0.62218 0.60937 0.0
C448 C 0.85957 0.63206 0.56075 0.0
C449 C 0.78895 0.69362 0.33517 0.0
C450 C 0.84453 0.76907 0.4751 0.0
C451 C 0.84237 0.83008 0.30104 0.0
C452 C 0.86165 0.84008 0.25704 0.0
C453 C 0.89261 0.81723 0.24629 0.0
C454 C 0.91114 0.82516 0.20467 0.0
C455 C 0.89884 0.85597 0.17227 0.0
C456 C 0.86735 0.87866 0.18251 0.0
C457 C 0.84896 0.87084 0.22479 0.0
C458 C 0.93036 0.74666 0.39423 0.0
C459 C 0.88093 0.68993 0.30426 0.0
O460 O 0.88716 0.63661 0.4423 0.0
O461 O 0.82677 0.64426 0.46028 0.0
O462 O 0.80274 0.72066 0.36681 0.0
O463 O 0.8078 0.66164 0.34474 0.0
O464 O 0.84866 0.7301 0.47473 0.0
O465 O 0.84232 0.79033 0.43408 0.0
O466 O 0.81757 0.79773 0.29679 0.0
O467 O 0.86676 0.83165 0.34304 0.0
O468 O 0.90039 0.74078 0.41721 0.0
O469 O 0.92012 0.76393 0.3525 0.0
O470 O 0.86202 0.72307 0.29821 0.0
O471 O 0.88837 0.67278 0.34768 0.0
H472 H 0.9145 0.5722 0.50082 0.0
H473 H 0.94101 0.55523 0.58571 0.0
H474 H 0.86359 0.63684 0.6393 0.0
H475 H 0.8371 0.6538 0.55436 0.0
H476 H 0.90235 0.79284 0.26986 0.0
H477 H 0.93468 0.80663 0.19738 0.0
H478 H 0.85727 0.90265 0.15813 0.0
H479 H 0.82487 0.88861 0.23214 0.0
Sm480 Sm 0.57535 0.65711 0.65577 0.0
Sm481 Sm 0.4917 0.62243 0.66527 0.0
C482 C 0.64813 0.66733 0.6299 0.0
C483 C 0.66436 0.64956 0.58889 0.0
C484 C 0.64526 0.61392 0.56752 0.0
C485 C 0.65674 0.59859 0.52515 0.0
C486 C 0.68817 0.61828 0.50334 0.0
C487 C 0.70903 0.65284 0.52677 0.0
C488 C 0.69694 0.66856 0.56906 0.0
C489 C 0.52692 0.70707 0.69423 0.0
C490 C 0.5014 0.67005 0.5606 0.0
C491 C 0.42415 0.59219 0.69421 0.0
C492 C 0.40869 0.59495 0.74132 0.0
C493 C 0.41736 0.63004 0.76982 0.0
C494 C 0.40735 0.63115 0.81725 0.0
C495 C 0.38891 0.59705 0.83738 0.0
C496 C 0.37966 0.56206 0.80857 0.0
C497 C 0.38939 0.56109 0.76072 0.0
C498 C 0.52811 0.57792 0.60416 0.0
C499 C 0.56048 0.64287 0.77085 0.0
O500 O 0.63882 0.6417 0.66352 0.0
O501 O 0.62026 0.69238 0.61732 0.0
O502 O 0.51776 0.6833 0.65934 0.0
O503 O 0.56585 0.7106 0.70746 0.0
O504 O 0.54087 0.66715 0.57496 0.0
O505 O 0.47532 0.65949 0.59184 0.0
O506 O 0.42632 0.62531 0.66871 0.0
O507 O 0.45632 0.57218 0.69599 0.0
O508 O 0.54665 0.5924 0.6453 0.0
O509 O 0.49043 0.58451 0.5979 0.0
O510 O 0.52226 0.63298 0.75034 0.0
O511 O 0.58834 0.64965 0.74154 0.0
H512 H 0.62036 0.59864 0.5828 0.0
H513 H 0.63928 0.57245 0.5082 0.0
H514 H 0.73388 0.66844 0.51169 0.0
H515 H 0.71229 0.69597 0.58545 0.0
H516 H 0.43316 0.65622 0.75618 0.0
H517 H 0.41563 0.65826 0.83894 0.0
H518 H 0.36546 0.53539 0.8233 0.0
H519 H 0.38304 0.53357 0.73945 0.0
Sm520 Sm 0.97521 0.39663 0.21563 0.0
Sm521 Sm 0.00617 0.35655 0.1138 0.0
C522 C 0.95094 0.39033 0.30564 0.0
C523 C 0.95049 0.37664 0.35933 0.0
C524 C 0.95504 0.33651 0.37454 0.0
C525 C 0.94938 0.32323 0.42283 0.0
C526 C 0.93834 0.3492 0.45862 0.0
C527 C 0.93425 0.38949 0.44308 0.0
C528 C 0.94019 0.40274 0.395 0.0
C529 C 0.00028 0.4478 0.14467 0.0
C530 C 0.07202 0.37821 0.2123 0.0
C531 C 0.02619 0.33567 1.02605 0.0
C532 C 0.0382 0.32239 0.97719 0.0
C533 C 0.03202 0.34546 0.93374 0.0
C534 C 0.0441 0.33306 0.8889 0.0
C535 C 0.06296 0.29689 0.88514 0.0
C536 C 0.06904 0.27397 0.92893 0.0
C537 C 0.05695 0.28634 0.9736 0.0
C538 C 0.97734 0.30766 0.18409 0.0
C539 C 0.91337 0.39104 0.11256 0.0
O540 O 0.94168 0.3638 0.27003 0.0
O541 O 0.97337 0.42162 0.29273 0.0
O542 O 0.0137 0.41437 0.15683 0.0
O543 O 0.97581 0.45822 0.17509 0.0
O544 O 0.04234 0.38565 0.2373 0.0
O545 O 0.0671 0.37036 0.16421 0.0
O546 O 0.0122 0.37038 1.03359 0.0
O547 O 0.02872 0.31249 0.06494 0.0
O548 O 0.96627 0.34112 0.17099 0.0
O549 O 0.00189 0.29633 0.15522 0.0
O550 O 0.94151 0.37627 0.08954 0.0
O551 O 0.9176 0.39991 0.16023 0.0
H552 H 0.96247 0.31492 0.34871 0.0
H553 H 0.95378 0.29222 0.43182 0.0
H554 H 0.9252 0.41114 0.46756 0.0
H555 H 0.93543 0.43359 0.38518 0.0
H556 H 0.01774 0.37335 0.93427 0.0
H557 H 0.03811 0.35194 0.85691 0.0
H558 H 0.08386 0.24638 0.92934 0.0
H559 H 0.06265 0.26747 1.00574 0.0
Sm560 Sm 0.56464 0.40493 0.44564 0.0
Sm561 Sm 0.4809 0.40214 0.38698 0.0
C562 C 0.62741 0.41787 0.51513 0.0
C563 C 0.63477 0.4 0.56408 0.0
C564 C 0.66006 0.42036 0.60262 0.0
C565 C 0.66386 0.40458 0.65026 0.0
C566 C 0.6423 0.3683 0.6597 0.0
C567 C 0.61717 0.34799 0.62076 0.0
C568 C 0.61337 0.36377 0.57339 0.0
C569 C 0.54223 0.33252 0.39819 0.0
C570 C 0.48428 0.37536 0.49967 0.0
C571 C 0.41581 0.39117 0.31879 0.0
C572 C 0.40344 0.37413 0.26828 0.0
C573 C 0.37437 0.34138 0.26112 0.0
C574 C 0.3622 0.32435 0.21423 0.0
C575 C 0.37857 0.33978 0.17296 0.0
C576 C 0.40722 0.37306 0.17995 0.0
C577 C 0.41959 0.38999 0.22705 0.0
C578 C 0.50434 0.4704 0.44461 0.0
C579 C 0.56044 0.42191 0.33206 0.0
O580 O 0.59739 0.44091 0.50882 0.0
O581 O 0.6271 0.39331 0.47816 0.0
O582 O 0.51927 0.35288 0.41894 0.0
O583 O 0.57868 0.34953 0.4042 0.0
O584 O 0.52314 0.38761 0.50452 0.0
O585 O 0.46122 0.3741 0.45633 0.0
O586 O 0.4254 0.36564 0.35413 0.0
O587 O 0.43886 0.42474 0.32399 0.0
O588 O 0.52556 0.4535 0.41781 0.0
O589 O 0.46821 0.4526 0.43879 0.0
O590 O 0.52436 0.40276 0.32939 0.0
O591 O 0.5811 0.43355 0.37483 0.0
H592 H 0.67631 0.44865 0.59601 0.0
H593 H 0.68365 0.42064 0.67966 0.0
H594 H 0.59972 0.32036 0.62714 0.0
H595 H 0.59305 0.34803 0.54413 0.0
H596 H 0.36106 0.32875 0.29203 0.0
H597 H 0.33975 0.29911 0.21028 0.0
H598 H 0.42083 0.38547 0.14919 0.0
H599 H 0.44201 0.41525 0.23115 0.0
Sm600 Sm 0.96979 0.59749 0.93379 0.0
Sm601 Sm 0.05516 0.59404 0.90875 0.0
C602 C 0.90027 0.59326 0.96916 0.0
C603 C 0.88837 0.59833 1.01816 0.0
C604 C 0.90001 0.57239 0.05728 0.0
C605 C 0.89811 0.58363 0.1058 0.0
C606 C 0.88358 0.62057 0.11546 0.0
C607 C 0.86724 0.64392 0.07574 0.0
C608 C 0.86977 0.63297 1.02754 0.0
C609 C 0.99821 0.66573 0.88834 0.0
C610 C 0.04881 0.62207 1.01905 0.0
C611 C 0.12117 0.60203 0.86592 0.0
C612 C 0.13159 0.6189 0.81912 0.0
C613 C 0.10714 0.64609 0.79232 0.0
C614 C 0.11785 0.66312 0.74889 0.0
C615 C 0.15313 0.65319 0.73113 0.0
C616 C 0.17705 0.6252 0.75753 0.0
C617 C 0.16641 0.60832 0.80123 0.0
C618 C 0.03219 0.53042 0.96562 0.0
C619 C 0.97599 0.57733 0.82253 0.0
O620 O 0.91889 0.56151 0.96124 0.0
O621 O 0.91635 0.62582 0.95115 0.0
O622 O 0.01852 0.6458 0.92097 0.0
O623 O 0.96152 0.64968 0.87897 0.0
O624 O 0.00975 0.61078 1.00925 0.0
O625 O 0.07247 0.62354 0.98452 0.0
O626 O 0.11248 0.62788 0.89766 0.0
O627 O 0.09681 0.56935 0.86251 0.0
O628 O 0.00918 0.54635 0.9311 0.0
O629 O 0.06929 0.54423 0.96556 0.0
O630 O 0.01379 0.59205 0.83353 0.0
O631 O 0.95346 0.56926 0.85725 0.0
H632 H 0.91233 0.54448 0.05067 0.0
H633 H 0.9101 0.56457 0.13563 0.0
H634 H 0.85423 0.67173 0.08202 0.0
H635 H 0.85943 0.6529 0.9978 0.0
H636 H 0.07991 0.6544 0.80522 0.0
H637 H 0.09835 0.68401 0.72906 0.0
H638 H 0.20446 0.61705 0.74503 0.0
H639 H 0.18561 0.58731 0.82135 0.0
C640 C 0.19274 0.05271 0.94067 0.0
C641 C 0.20386 0.09209 0.9583 0.0
H642 H 0.1761 0.01462 0.87711 0.0
C643 C 0.2148 0.12158 0.92486 0.0
H644 H 0.18544 0.02883 0.96546 0.0
C645 C 0.21069 0.11295 0.87463 0.0
C646 C 0.19511 0.07487 0.85668 0.0
H647 H 0.22323 0.15228 0.93653 0.0
H648 H 0.21621 0.13714 0.84943 0.0
C649 C 0.18775 0.04434 0.89019 0.0
C650 C 0.15694 0.79978 0.26796 0.0
C651 C 0.14862 0.82077 0.30904 0.0
H652 H 0.16019 0.80096 0.19064 0.0
C653 C 0.13605 0.85981 0.30271 0.0
H654 H 0.16668 0.76964 0.27158 0.0
C655 C 0.13246 0.87774 0.25632 0.0
C656 C 0.14164 0.85706 0.21553 0.0
H657 H 0.12944 0.87677 0.33366 0.0
H658 H 0.12329 0.90808 0.25254 0.0
C659 C 0.15359 0.81781 0.22169 0.0
C660 C 0.33264 0.8824 0.5022 0.0
C661 C 0.34329 0.91927 0.48093 0.0
H662 H 0.34484 0.84541 0.56562 0.0
C663 C 0.35713 0.95218 0.51207 0.0
H664 H 0.32115 0.85666 0.47913 0.0
C665 C 0.37006 0.94571 0.56208 0.0
C666 C 0.36951 0.9064 0.58017 0.0
H667 H 0.36483 0.98109 0.4965 0.0
H668 H 0.38767 0.96982 0.58348 0.0
C669 C 0.34605 0.87591 0.55204 0.0
C670 C 0.40055 0.19579 0.72252 0.0
C671 C 0.39861 0.17079 0.76355 0.0
H672 H 0.40518 0.19973 0.64595 0.0
C673 C 0.40201 0.12948 0.75869 0.0
H674 H 0.39787 0.22773 0.72497 0.0
C675 C 0.40622 0.11336 0.71305 0.0
C676 C 0.40735 0.13843 0.67192 0.0
H677 H 0.40035 0.10949 0.78969 0.0
H678 H 0.40855 0.08141 0.70987 0.0
C679 C 0.40482 0.17978 0.6772 0.0
C680 C 0.89589 0.86828 0.08129 0.0
C681 C 0.91882 0.86361 0.12784 0.0
H682 H 0.89623 0.87705 1.00392 0.0
C683 C 0.96111 0.86457 0.13149 0.0
H684 H 0.86325 0.86726 0.07727 0.0
C685 C 0.98004 0.87009 0.08957 0.0
C686 C 0.95713 0.87443 1.04289 0.0
H687 H 0.97964 0.86132 0.16694 0.0
H688 H 0.01266 0.87092 0.09383 0.0
C689 C 0.91481 0.87341 1.03923 0.0
C690 C 0.95766 0.23535 0.96194 0.0
C691 C 0.97172 0.2207 0.91971 0.0
H692 H 0.95809 0.23231 1.041 0.0
C693 C -0.00024 0.19102 0.9284 0.0
H694 H 0.93609 0.25803 0.95762 0.0
C695 C 0.01352 0.17719 0.97679 0.0
C696 C -0.00128 0.19106 1.01886 0.0
H697 H 0.01172 0.17878 0.89761 0.0
H698 H 0.03537 0.15478 0.98111 0.0
C699 C 0.97025 0.22036 1.01019 0.0
C700 C 0.57559 0.13051 0.65929 0.0
C701 C 0.61739 0.13956 0.67203 0.0
H702 H 0.52626 0.11686 0.60169 0.0
C703 C 0.64159 0.14314 0.63434 0.0
H704 H 0.55618 0.1272 0.68753 0.0
C705 C 0.62441 0.13745 0.585 0.0
C706 C 0.58267 0.12783 0.5723 0.0
H707 H 0.67381 0.15058 0.64297 0.0
H708 H 0.644 0.14003 0.55693 0.0
C709 C 0.55844 0.12459 0.61003 0.0
C710 C 0.56982 0.74015 0.32057 0.0
C711 C 0.56598 0.78099 0.3311 0.0
H712 H 0.58443 0.69612 0.27035 0.0
C713 C 0.57534 0.80872 0.29427 0.0
H714 H 0.56244 0.71713 0.34635 0.0
C715 C 0.5877 0.79631 0.24964 0.0
C716 C 0.59163 0.75555 0.23952 0.0
H717 H 0.57363 0.84046 0.2999 0.0
H718 H 0.59415 0.81892 0.22288 0.0
C719 C 0.58246 0.72784 0.27619 0.0
C720 C 0.69959 0.62415 0.36843 0.0
C721 C 0.68677 0.58478 0.35281 0.0
H722 H 0.70965 0.66587 0.42805 0.0
C723 C 0.68182 0.55506 0.38811 0.0
H724 H 0.70321 0.64768 0.34174 0.0
C725 C 0.68659 0.56522 0.43808 0.0
C726 C 0.69493 0.60554 0.45341 0.0
H727 H 0.67228 0.52442 0.37681 0.0
H728 H 0.68129 0.54178 0.4643 0.0
C729 C 0.7034 0.63452 0.41817 0.0
C730 C 0.64702 0.36044 0.79806 0.0
C731 C 0.65195 0.31944 0.80564 0.0
H732 H 0.64012 0.40809 0.74569 0.0
C733 C 0.65311 0.2946 0.76485 0.0
H734 H 0.64616 0.38037 0.82879 0.0
C735 C 0.64992 0.31052 0.7175 0.0
C736 C 0.64562 0.3516 0.70999 0.0
H737 H 0.65701 0.26289 0.76944 0.0
H738 H 0.65154 0.29078 0.68682 0.0
C739 C 0.64399 0.37641 0.75063 0.0
C740 C 0.88004 0.4443 0.06607 0.0
C741 C 0.87834 0.40388 0.08004 0.0
H742 H 0.87742 0.48413 1.00448 0.0
C743 C 0.85617 0.37522 0.04789 0.0
H744 H 0.89661 0.46694 0.09079 0.0
C745 C 0.84426 0.38522 0.99878 0.0
C746 C 0.85587 0.42354 0.98194 0.0
H747 H 0.85423 0.3439 0.0583 0.0
H748 H 0.83324 0.3611 0.97294 0.0
C749 C 0.86908 0.45418 1.01662 0.0
C750 C 0.90016 0.69413 0.22108 0.0
C751 C 0.88935 0.67028 0.25988 0.0
H752 H 0.90792 0.69673 0.14542 0.0
C753 C 0.88034 0.62891 0.25267 0.0
H754 H 0.90747 0.72608 0.22607 0.0
C755 C 0.87947 0.6121 0.20591 0.0
C756 C 0.8879 0.63657 0.16623 0.0
H757 H 0.8714 0.61016 0.28216 0.0
H758 H 0.87036 0.58052 0.20032 0.0
C759 C 0.89984 0.67738 0.17484 0.0
C760 C 0.4238 0.35556 0.54078 0.0
C761 C 0.46567 0.36504 0.54439 0.0
H762 H 0.37339 0.34141 0.57904 0.0
C763 C 0.48912 0.36672 0.59139 0.0
H764 H 0.40477 0.35399 0.50523 0.0
C765 C 0.47102 0.35968 0.63376 0.0
C766 C 0.42903 0.35095 0.63016 0.0
H767 H 0.52142 0.37412 0.59562 0.0
H768 H 0.48983 0.36197 0.66944 0.0
C769 C 0.4057 0.34868 0.58314 0.0
C770 C 0.50344 0.6742 0.46716 0.0
C771 C 0.48676 0.68591 0.50884 0.0
H772 H 0.50324 0.67779 0.38835 0.0
C773 C 0.45665 0.71354 0.50014 0.0
H774 H 0.52672 0.65324 0.47165 0.0
C775 C 0.4442 0.729 0.45215 0.0
C776 C 0.46013 0.71642 0.41025 0.0
H777 H 0.44311 0.72388 0.53077 0.0
H778 H 0.42125 0.75031 0.44771 0.0
C779 C 0.48985 0.6884 0.41895 0.0
C780 C 0.06068 0.63466 0.15799 0.0
C781 C 0.10282 0.64101 0.17047 0.0
H782 H 0.01051 0.62373 0.10054 0.0
C783 C 0.12685 0.64273 0.13259 0.0
H784 H 0.04138 0.63291 0.18641 0.0
C785 C 0.1092 0.63774 0.08335 0.0
C786 C 0.0671 0.63065 0.07085 0.0
H787 H 0.15935 0.64812 0.14101 0.0
H788 H 0.12871 0.63881 0.05519 0.0
C789 C 0.04301 0.62938 0.10875 0.0
C790 C 0.09851 0.29793 0.75525 0.0
C791 C 0.10165 0.25701 0.74516 0.0
H792 H 0.08516 0.34255 0.80541 0.0
C793 C 0.09187 0.22955 0.7818 0.0
H794 H 0.10546 0.32037 0.72851 0.0
C795 C 0.07933 0.24224 0.82607 0.0
C796 C 0.07627 0.28323 0.83658 0.0
H797 H 0.0932 0.19774 0.77598 0.0
H798 H 0.07133 0.21937 0.85173 0.0
C799 C 0.0863 0.31072 0.79982 0.0
C800 C 0.01459 0.2956 0.26362 0.0
C801 C 0.97664 0.29104 0.23368 0.0
H802 H 0.07297 0.27143 0.27393 0.0
C803 C 0.95823 0.2523 0.22994 0.0
H804 H 0.02645 0.32444 0.27874 0.0
C805 C 0.98349 0.22171 0.22696 0.0
C806 C 0.02557 0.23016 0.23641 0.0
H807 H 0.92678 0.2472 0.21387 0.0
H808 H 0.97066 0.19415 0.20962 0.0
C809 C 0.04097 0.26546 0.26163 0.0
C810 C 0.988 0.71943 0.45057 0.0
C811 C 0.97304 0.74866 0.41734 0.0
H812 H 0.04097 0.69505 0.48955 0.0
C813 C -2e-05 0.77911 0.40278 0.0
H814 H 0.96776 0.69574 0.46235 0.0
C815 C 0.04133 0.77931 0.41898 0.0
C816 C 0.05685 0.74851 0.44926 0.0
H817 H 0.9892 0.80237 0.37764 0.0
H818 H 0.06129 0.80242 0.40548 0.0
C819 C 0.02976 0.71913 0.46607 0.0
C820 C 0.50469 0.75847 0.74837 0.0
C821 C 0.49568 0.72725 0.71393 0.0
H822 H 0.4857 0.81413 0.76993 0.0
C823 C 0.45549 0.71982 0.69029 0.0
H824 H 0.53451 0.7636 0.7696 0.0
C825 C 0.42832 0.74892 0.69093 0.0
C826 C 0.44438 0.78629 0.70907 0.0
H827 H 0.44684 0.69527 0.66486 0.0
H828 H 0.40066 0.74619 0.66483 0.0
C829 C 0.47617 0.78675 0.74917 0.0
C830 C 0.54585 0.2826 0.95071 0.0
C831 C 0.56243 0.24529 0.95537 0.0
H832 H 0.49196 0.31392 0.93915 0.0
C833 C 0.53628 0.21026 0.9546 0.0
H834 H 0.56529 0.31002 0.95129 0.0
C835 C 0.49436 0.21237 0.94664 0.0
C836 C 0.47776 0.24959 0.94048 0.0
H837 H 0.54815 0.18101 0.95809 0.0
H838 H 0.47493 0.18485 0.94421 0.0
C839 C 0.5039 0.28476 0.94391 0.0
C840 C 0.05771 0.76628 0.89071 0.0
C841 C 0.02674 0.79266 0.88675 0.0
H842 H 0.07278 0.70504 0.89461 0.0
C843 C 0.98641 0.77691 0.87701 0.0
H844 H 0.08912 0.77757 0.89815 0.0
C845 C 0.97716 0.73542 0.87382 0.0
C846 C 0.00807 0.70899 0.8815 0.0
H847 H 0.96202 0.79659 0.8736 0.0
H848 H 0.94572 0.72409 0.8683 0.0
C849 C 0.04843 0.72478 0.88871 0.0
C850 C 0.50647 0.76268 0.10337 0.0
C851 C 0.51093 0.72129 0.103 0.0
H852 H 0.49622 0.81348 0.14566 0.0
C853 C 0.50321 0.69848 0.14434 0.0
H854 H 0.5139 0.78121 0.07292 0.0
C855 C 0.49517 0.71717 0.1867 0.0
C856 C 0.49277 0.75868 0.18797 0.0
H857 H 0.50817 0.66686 0.14626 0.0
H858 H 0.49254 0.69937 0.21929 0.0
C859 C 0.49806 0.78131 0.14576 0.0
C860 C 0.486 0.23023 0.37968 0.0
C861 C 0.51786 0.20491 0.38774 0.0
H862 H 0.46886 0.29077 0.37718 0.0
C863 C 0.55778 0.22195 0.39378 0.0
H864 H 0.45488 0.21792 0.37494 0.0
C865 C 0.56573 0.26362 0.394 0.0
C866 C 0.53386 0.28897 0.38933 0.0
H867 H 0.58284 0.20307 0.39986 0.0
H868 H 0.59684 0.27593 0.40044 0.0
C869 C 0.49394 0.27191 0.38103 0.0
C870 C 0.01285 0.19917 0.65042 0.0
C871 C 0.02041 0.2219 0.60891 0.0
H872 H 0.00233 0.20018 0.72547 0.0
C873 C 0.01573 0.26324 0.6091 0.0
H874 H 0.01778 0.16754 0.65235 0.0
C875 C 0.00779 0.28198 0.65163 0.0
C876 C 0.00292 0.25951 0.69411 0.0
H877 H 0.0229 0.28169 0.57847 0.0
H878 H 0.00618 0.31418 0.6515 0.0
C879 C 0.00499 0.21794 0.69286 0.0
C880 C 0.01636 0.01043 0.07782 0.0
C881 C 0.03893 0.04741 0.07593 0.0
H882 H 0.9853 0.95992 1.03766 0.0
C883 C 0.05297 0.05808 1.03126 0.0
H884 H 0.00332 0.00214 0.11068 0.0
C885 C 0.04378 0.03293 0.9894 0.0
C886 C 0.01824 -0.00225 0.9905 0.0
H887 H 0.06787 0.08752 1.02725 0.0
H888 H 0.05375 0.04271 0.95514 0.0
C889 C 0.00546 0.98643 1.03553 0.0
C890 C 0.27804 0.80099 0.35769 0.0
C891 C 0.27291 0.77756 0.39961 0.0
H892 H 0.30524 0.80739 0.29138 0.0
C893 C 0.29274 0.7422 0.40685 0.0
H894 H 0.26252 0.8281 0.35054 0.0
C895 C 0.31739 0.73072 0.37318 0.0
C896 C 0.32261 0.75417 0.3313 0.0
H897 H 0.28926 0.72346 0.43854 0.0
H898 H 0.33249 0.70333 0.3801 0.0
C899 C 0.30248 0.7893 0.32378 0.0
C900 C 0.55827 0.01193 0.55633 0.0
C901 C 0.53485 0.00727 0.5093 0.0
H902 H 0.56355 -0.00161 0.63373 0.0
C903 C 0.4972 0.98533 0.50554 0.0
H904 H 0.58747 0.02872 0.5608 0.0
C905 C 0.48313 0.96878 0.54774 0.0
C906 C 0.50661 0.97343 0.59458 0.0
H907 H 0.47875 0.981 0.46986 0.0
H908 H 0.45422 0.95173 0.54348 0.0
C909 C 0.54437 -0.00488 0.59835 0.0
C910 C 0.26877 0.17295 0.75388 0.0
C911 C 0.2691 0.19835 0.79508 0.0
H912 H 0.24718 0.16137 0.67662 0.0
C913 C 0.24497 0.23078 0.78944 0.0
H914 H 0.2875 0.14785 0.75675 0.0
C915 C 0.2216 0.23796 0.74392 0.0
C916 C 0.22165 0.21313 0.70231 0.0
H917 H 0.24437 0.25085 0.82011 0.0
H918 H 0.20376 0.26372 0.74119 0.0
C919 C 0.24545 0.18034 0.70795 0.0
C920 C 0.79912 0.24919 0.91178 0.0
C921 C 0.77934 0.28447 0.90306 0.0
H922 H 0.84041 0.21043 0.88826 0.0
C923 C 0.78698 0.30841 0.86241 0.0
H924 H 0.79386 0.23014 0.94264 0.0
C925 C 0.81338 0.29692 0.83073 0.0
C926 C 0.833 0.26154 0.8394 0.0
H927 H 0.7718 0.33562 0.85435 0.0
H928 H 0.81784 0.3152 0.79898 0.0
C929 C 0.82569 0.23793 0.88042 0.0
C930 C 0.76321 0.67501 0.246 0.0
C931 C 0.76201 0.6995 0.28759 0.0
H932 H 0.74184 0.66347 0.16865 0.0
C933 C 0.73545 0.72993 0.28281 0.0
H934 H 0.78375 0.65143 0.24835 0.0
C935 C 0.71113 0.73612 0.23774 0.0
C936 C 0.7127 0.71238 0.19564 0.0
H937 H 0.73364 0.74919 0.31387 0.0
H938 H 0.69149 0.76047 0.23567 0.0
C939 C 0.73896 0.68152 0.20038 0.0
C940 C 0.55044 0.55865 0.526 0.0
C941 C 0.54027 0.54691 0.57237 0.0
H942 H 0.54832 0.54321 0.44941 0.0
C943 C 0.52316 0.50767 0.57711 0.0
H944 H 0.56115 0.5894 0.52006 0.0
C945 C 0.51284 0.48243 0.53585 0.0
C946 C 0.52103 0.49499 0.48907 0.0
H947 H 0.51314 0.49824 0.6115 0.0
H948 H 0.49641 0.45388 0.54021 0.0
C949 C 0.54192 0.53257 0.48505 0.0
C950 C 0.99055 0.51867 1.03466 0.0
C951 C 0.02009 0.50653 1.00784 0.0
H952 H 0.96192 0.51071 0.0998 0.0
C953 C 0.04339 0.47535 1.027 0.0
H954 H 0.97398 0.54399 1.02263 0.0
C955 C 0.03689 0.45651 0.07132 0.0
C956 C 0.00722 0.46866 0.09812 0.0
H957 H 0.06727 0.466 1.00809 0.0
H958 H 0.05565 0.43277 0.08506 0.0
C959 C 0.98426 0.50012 0.07939 0.0
C960 C 0.06356 0.12988 0.37128 0.0
C961 C 0.0839 0.1486 0.33439 0.0
H962 H 0.05829 0.12367 0.44895 0.0
C963 C 0.11552 0.17794 0.35183 0.0
H964 H 0.03879 0.10755 0.36048 0.0
C965 C 0.1258 0.18839 0.40287 0.0
C966 C 0.1062 0.16903 0.43996 0.0
H967 H 0.13185 0.19395 0.32556 0.0
H968 H 0.14961 0.21177 0.41334 0.0
C969 C 0.07496 0.13921 0.42267 0.0
C970 C 0.07461 0.91799 0.70057 0.0
C971 C 0.11675 0.91803 0.70426 0.0
H972 H 0.02376 0.91993 0.73865 0.0
C973 C 0.14048 0.92402 0.75074 0.0
H974 H 0.05551 0.91319 0.66533 0.0
C975 C 0.12222 0.92821 0.79299 0.0
C976 C 0.07992 0.9258 0.78948 0.0
H977 H 0.17308 0.9246 0.7545 0.0
H978 H 0.14116 0.93145 0.82853 0.0
C979 C 0.05641 0.92166 0.74268 0.0
C980 C 0.40878 0.77838 0.06195 0.0
C981 C 0.40744 0.80512 0.10143 0.0
H982 H 0.41812 0.76953 0.98683 0.0
C983 C 0.41384 0.84634 0.09042 0.0
H984 H 0.40458 0.74646 0.06786 0.0
C985 C 0.42156 0.85999 1.04302 0.0
C986 C 0.42354 0.8333 1.0035 0.0
H987 H 0.41352 0.86849 0.11893 0.0
H988 H 0.42574 0.89199 1.03761 0.0
C989 C 0.41662 0.79198 1.01454 0.0
C990 C 0.49544 0.08033 0.23482 0.0
C991 C 0.47185 0.07236 0.27258 0.0
H992 H 0.49629 0.09214 0.15817 0.0
C993 C 0.42959 0.06778 0.26019 0.0
H994 H 0.52807 0.08413 0.24307 0.0
C995 C 0.41132 0.07278 0.2114 0.0
C996 C 0.43496 0.0819 0.17393 0.0
H997 H 0.41053 0.06188 0.28843 0.0
H998 H 0.37868 0.06993 0.20305 0.0
C999 C 0.47723 0.08484 0.18609 0.0
C1000 C 0.84791 0.76699 0.56747 0.0
C1001 C 0.84807 0.78964 0.52399 0.0
H1002 H 0.85759 0.76658 0.64642 0.0
C1003 C 0.85629 0.83146 0.52855 0.0
H1004 H 0.84194 0.73472 0.56568 0.0
C1005 C 0.86551 0.84985 0.57526 0.0
C1006 C 0.86646 0.827 0.61874 0.0
H1007 H 0.85698 0.84993 0.49605 0.0
H1008 H 0.87217 0.88203 0.57728 0.0
C1009 C 0.85685 0.78536 0.61402 0.0
C1010 C 0.89286 0.07663 0.47955 0.0
C1011 C 0.88505 0.11344 0.49916 0.0
H1012 H 0.90205 0.04489 0.41479 0.0
C1013 C 0.87482 0.14507 0.46685 0.0
H1014 H 0.90083 0.05179 0.50363 0.0
C1015 C 0.87571 0.14119 0.41653 0.0
C1016 C 0.88641 0.10547 0.39736 0.0
H1017 H 0.8677 0.17348 0.48079 0.0
H1018 H 0.86974 0.16673 0.39279 0.0
C1019 C 0.89349 0.07265 0.42885 0.0
C1020 C 0.67534 0.23583 0.13377 0.0
C1021 C 0.68974 0.21455 0.09672 0.0
H1022 H 0.65659 0.23436 0.20503 0.0
C1023 C 0.69845 0.17447 0.10569 0.0
H1024 H 0.66856 0.26683 0.12848 0.0
C1025 C 0.6914 0.15574 0.14991 0.0
C1026 C 0.67529 0.17664 0.18593 0.0
H1027 H 0.70945 0.15716 0.07795 0.0
H1028 H 0.69716 0.12449 0.15511 0.0
C1029 C 0.66816 0.21713 0.17766 0.0
C1030 C 0.6106 0.82396 0.74572 0.0
C1031 C 0.60302 0.86369 0.73379 0.0
H1032 H 0.63198 0.78411 0.80339 0.0
C1033 C 0.62257 0.89483 0.76443 0.0
H1034 H 0.59567 0.79952 0.72252 0.0
C1035 C 0.64277 0.88616 0.81094 0.0
C1036 C 0.64344 0.84624 0.82689 0.0
H1037 H 0.61698 0.92572 0.75564 0.0
H1038 H 0.65254 0.91076 0.83644 0.0
C1039 C 0.63084 0.8152 0.79233 0.0
C1040 C 0.60222 0.68213 0.84488 0.0
C1041 C 0.57211 0.65142 0.8271 0.0
H1042 H 0.63542 0.71612 0.90676 0.0
C1043 C 0.55353 0.63045 0.86401 0.0
H1044 H 0.6173 0.69974 0.81875 0.0
C1045 C 0.5652 0.6391 0.91561 0.0
C1046 C 0.595 0.67022 0.93321 0.0
H1047 H 0.53009 0.60683 0.85307 0.0
H1048 H 0.54994 0.62183 0.94186 0.0
C1049 C 0.61277 0.69171 0.89613 0.0
C1050 C 0.55496 0.41973 0.24051 0.0
C1051 C 0.5792 0.42561 0.28663 0.0
H1052 H 0.55299 0.41078 0.16306 0.0
C1053 C 0.62135 0.4309 0.28879 0.0
H1054 H 0.52238 0.4158 0.23758 0.0
C1055 C 0.63894 0.4277 0.2459 0.0
C1056 C 0.61463 0.41985 0.20016 0.0
H1057 H 0.64079 0.43556 0.3238 0.0
H1058 H 0.67154 0.4304 0.24862 0.0
C1059 C 0.57248 0.41705 0.19774 0.0
C1060 C 0.9335 0.3615 0.55144 0.0
C1061 C 0.93087 0.33467 0.51094 0.0
H1062 H 0.93005 0.37058 0.62851 0.0
C1063 C 0.92078 0.29381 0.5217 0.0
H1064 H 0.9418 0.39301 0.54689 0.0
C1065 C 0.91418 0.28075 0.56975 0.0
C1066 C 0.91703 0.3077 0.60994 0.0
H1067 H 0.91758 0.27141 0.49288 0.0
H1068 H 0.9071 0.24915 0.57541 0.0
C1069 C 0.92669 0.34845 0.59928 0.0
C1070 C 0.98166 0.58119 0.73261 0.0
C1071 C 0.95727 0.57617 0.77004 0.0
H1072 H 0.9841 0.59107 0.65589 0.0
C1073 C 0.91507 0.57455 0.75699 0.0
H1074 H 0.01427 0.58266 0.74136 0.0
C1075 C 0.89777 0.57974 0.70788 0.0
C1076 C 0.92228 0.58614 0.67076 0.0
H1077 H 0.8954 0.57092 0.78492 0.0
H1078 H 0.86522 0.57929 0.69903 0.0
C1079 C 0.96436 0.58594 0.68355 0.0
C1080 C 0.3634 0.27806 0.11928 0.0
C1081 C 0.36698 0.32011 0.12342 0.0
H1082 H 0.354 0.22688 0.07144 0.0
C1083 C 0.36051 0.34283 0.07987 0.0
H1084 H 0.36849 0.25952 0.1518 0.0
C1085 C 0.35178 0.32396 1.03342 0.0
C1086 C 0.34982 0.28193 1.02941 0.0
H1087 H 0.36258 0.37526 0.08166 0.0
H1088 H 0.34823 0.34235 1.00064 0.0
C1089 C 0.35514 0.25929 0.07302 0.0
C1090 C 0.36669 0.6358 0.9584 0.0
C1091 C 0.38196 0.60647 0.9914 0.0
H1092 H 0.3561 0.65529 0.88353 0.0
C1093 C 0.39473 0.57143 0.97275 0.0
H1094 H 0.35588 0.66274 0.97182 0.0
C1095 C 0.39484 0.56716 0.92203 0.0
C1096 C 0.3821 0.59785 0.88943 0.0
H1097 H 0.40668 0.54844 0.99749 0.0
H1098 H 0.40705 0.54098 0.9087 0.0
C1099 C 0.36676 0.63154 0.90795 0.0
C1100 C 0.18722 0.66872 0.60502 0.0
C1101 C 0.18185 0.70964 0.59678 0.0
H1102 H 0.18213 0.61863 0.65377 0.0
C1103 C 0.16961 0.73207 0.63444 0.0
H1104 H 0.19648 0.65051 0.57682 0.0
C1105 C 0.16123 0.71386 0.67815 0.0
C1106 C 0.16497 0.67267 0.68572 0.0
H1107 H 0.16545 0.76373 0.62978 0.0
H1108 H 0.1514 0.73207 0.70596 0.0
C1109 C 0.17896 0.65045 0.64911 0.0
C1110 C 0.12677 0.33904 0.25144 0.0
C1111 C 0.11156 0.37662 0.24245 0.0
H1112 H 0.15431 0.30011 0.30662 0.0
C1113 C 0.12405 0.40784 0.27646 0.0
H1114 H 0.11755 0.31462 0.22549 0.0
C1115 C 0.14487 0.39968 0.32282 0.0
C1116 C 0.15315 0.36013 0.33542 0.0
H1117 H 0.11259 0.43712 0.27 0.0
H1118 H 0.14924 0.42312 0.35058 0.0
C1119 C 0.14734 0.33068 0.29808 0.0
loop_
_geom_bond_atom_site_label_1
_geom_bond_atom_site_label_2
_geom_bond_distance
_geom_bond_site_symmetry_2
_ccdc_geom_bond_type
Sm0 C2 2.846 1_554 S
Sm0 O20 2.543 . S
Sm0 O21 2.450 . S
Sm0 O22 2.681 1_455 S
Sm0 O23 2.464 . S
Sm0 O24 2.396 1_455 S
Sm0 O28 2.386 . S
Sm0 O31 2.408 . S
Sm1 C11 2.846 . S
Sm1 O22 2.386 . S
Sm1 O25 2.408 . S
Sm1 O26 2.543 . S
Sm1 O27 2.450 . S
Sm1 O28 2.681 1_655 S
Sm1 O29 2.464 . S
Sm1 O30 2.396 1_655 S
C2 Sm0 2.846 1_556 S
C2 C3 1.506 . S
C2 O20 1.261 1_556 S
C2 O21 1.242 1_556 S
C3 C2 1.506 . S
C3 C4 1.358 . S
C3 C8 1.382 . S
C4 C3 1.358 . S
C4 C5 1.385 . S
C4 H32 0.930 . S
C5 C4 1.385 . S
C5 C6 1.395 . S
C5 H33 0.929 . S
C6 C5 1.395 . S
C6 C7 1.335 . S
C7 C6 1.335 . S
C7 C8 1.398 . S
C7 H34 0.930 . S
C8 C3 1.382 . S
C8 C7 1.398 . S
C8 H35 0.929 . S
C9 O22 1.271 1_455 S
C9 O23 1.251 . S
C10 O24 1.252 . S
C10 O25 1.272 . S
C11 Sm1 2.846 . S
C11 C12 1.506 . S
C11 O26 1.261 . S
C11 O27 1.242 . S
C12 C11 1.506 . S
C12 C13 1.358 . S
C12 C17 1.382 . S
C13 C12 1.358 . S
C13 C14 1.385 . S
C13 H36 0.930 . S
C14 C13 1.385 . S
C14 C15 1.395 . S
C14 H37 0.929 . S
C15 C14 1.395 . S
C15 C16 1.335 . S
C16 C15 1.335 . S
C16 C17 1.398 . S
C16 H38 0.930 . S
C17 C12 1.382 . S
C17 C16 1.398 . S
C17 H39 0.929 . S
C18 O28 1.271 1_655 S
C18 O29 1.251 . S
C19 O30 1.252 . S
C19 O31 1.272 . S
O20 Sm0 2.543 . S
O20 C2 1.261 1_554 S
O21 Sm0 2.450 . S
O21 C2 1.242 1_554 S
O22 Sm0 2.681 1_655 S
O22 Sm1 2.386 . S
O22 C9 1.271 1_655 S
O23 Sm0 2.464 . S
O23 C9 1.251 . S
O24 Sm0 2.396 1_655 S
O24 C10 1.252 . S
O25 Sm1 2.408 . S
O25 C10 1.272 . S
O26 Sm1 2.543 . S
O26 C11 1.261 . S
O27 Sm1 2.450 . S
O27 C11 1.242 . S
O28 Sm0 2.386 . S
O28 Sm1 2.681 1_455 S
O28 C18 1.271 1_455 S
O29 Sm1 2.464 . S
O29 C18 1.251 . S
O30 Sm1 2.396 1_455 S
O30 C19 1.252 . S
O31 Sm0 2.408 . S
O31 C19 1.272 . S
H32 C4 0.930 . S
H33 C5 0.929 . S
H34 C7 0.930 . S
H35 C8 0.929 . S
H36 C13 0.930 . S
H37 C14 0.929 . S
H38 C16 0.930 . S
H39 C17 0.929 . S
Sm40 C42 2.846 . S
Sm40 O60 2.543 . S
Sm40 O61 2.450 . S
Sm40 O62 2.681 . S
Sm40 O63 2.464 . S
Sm40 O64 2.396 . S
Sm40 O68 2.386 . S
Sm40 O71 2.408 . S
Sm41 C51 2.846 . S
Sm41 O62 2.386 . S
Sm41 O65 2.408 . S
Sm41 O66 2.543 . S
Sm41 O67 2.450 . S
Sm41 O68 2.681 . S
Sm41 O69 2.464 . S
Sm41 O70 2.396 . S
C42 Sm40 2.846 . S
C42 C43 1.506 . S
C42 O60 1.261 . S
C42 O61 1.242 . S
C43 C42 1.506 . S
C43 C44 1.358 . S
C43 C48 1.382 . S
C44 C43 1.358 . S
C44 C45 1.385 . S
C44 H72 0.930 . S
C45 C44 1.385 . S
C45 C46 1.395 . S
C45 H73 0.929 . S
C46 C45 1.395 . S
C46 C47 1.335 . S
C47 C46 1.335 . S
C47 C48 1.398 . S
C47 H74 0.930 . S
C48 C43 1.382 . S
C48 C47 1.398 . S
C48 H75 0.929 . S
C49 O62 1.271 . S
C49 O63 1.251 . S
C50 O64 1.252 . S
C50 O65 1.272 . S
C51 Sm41 2.846 . S
C51 C52 1.506 . S
C51 O66 1.261 . S
C51 O67 1.242 . S
C52 C51 1.506 . S
C52 C53 1.358 . S
C52 C57 1.382 . S
C53 C52 1.358 . S
C53 C54 1.385 . S
C53 H76 0.930 . S
C54 C53 1.385 . S
C54 C55 1.395 . S
C54 H77 0.929 . S
C55 C54 1.395 . S
C55 C56 1.335 . S
C56 C55 1.335 . S
C56 C57 1.398 . S
C56 H78 0.930 . S
C57 C52 1.382 . S
C57 C56 1.398 . S
C57 H79 0.929 . S
C58 O68 1.271 . S
C58 O69 1.251 . S
C59 O70 1.252 . S
C59 O71 1.272 . S
O60 Sm40 2.543 . S
O60 C42 1.261 . S
O61 Sm40 2.450 . S
O61 C42 1.242 . S
O62 Sm40 2.681 . S
O62 Sm41 2.386 . S
O62 C49 1.271 . S
O63 Sm40 2.464 . S
O63 C49 1.251 . S
O64 Sm40 2.396 . S
O64 C50 1.252 . S
O65 Sm41 2.408 . S
O65 C50 1.272 . S
O66 Sm41 2.543 . S
O66 C51 1.261 . S
O67 Sm41 2.450 . S
O67 C51 1.242 . S
O68 Sm40 2.386 . S
O68 Sm41 2.681 . S
O68 C58 1.271 . S
O69 Sm41 2.464 . S
O69 C58 1.251 . S
O70 Sm41 2.396 . S
O70 C59 1.252 . S
O71 Sm40 2.408 . S
O71 C59 1.272 . S
H72 C44 0.930 . S
H73 C45 0.929 . S
H74 C47 0.930 . S
H75 C48 0.929 . S
H76 C53 0.930 . S
H77 C54 0.929 . S
H78 C56 0.930 . S
H79 C57 0.929 . S
Sm80 C82 2.846 . S
Sm80 O100 2.543 . S
Sm80 O101 2.450 . S
Sm80 O102 2.681 . S
Sm80 O103 2.464 . S
Sm80 O104 2.396 . S
Sm80 O108 2.386 . S
Sm80 O111 2.408 . S
Sm81 C91 2.846 . S
Sm81 O102 2.386 . S
Sm81 O105 2.408 . S
Sm81 O106 2.543 . S
Sm81 O107 2.450 . S
Sm81 O108 2.681 . S
Sm81 O109 2.464 . S
Sm81 O110 2.396 . S
C82 Sm80 2.846 . S
C82 C83 1.506 . S
C82 O100 1.261 . S
C82 O101 1.242 . S
C83 C82 1.506 . S
C83 C84 1.358 . S
C83 C88 1.382 . S
C84 C83 1.358 . S
C84 C85 1.385 . S
C84 H112 0.930 . S
C85 C84 1.385 . S
C85 C86 1.395 . S
C85 H113 0.929 . S
C86 C85 1.395 . S
C86 C87 1.335 . S
C87 C86 1.335 . S
C87 C88 1.398 . S
C87 H114 0.930 . S
C88 C83 1.382 . S
C88 C87 1.398 . S
C88 H115 0.929 . S
C89 O102 1.271 . S
C89 O103 1.251 . S
C90 O104 1.252 . S
C90 O105 1.272 . S
C91 Sm81 2.846 . S
C91 C92 1.506 . S
C91 O106 1.261 . S
C91 O107 1.242 . S
C92 C91 1.506 . S
C92 C93 1.358 . S
C92 C97 1.382 . S
C93 C92 1.358 . S
C93 C94 1.385 . S
C93 H116 0.930 . S
C94 C93 1.385 . S
C94 C95 1.395 . S
C94 H117 0.929 . S
C95 C94 1.395 . S
C95 C96 1.335 . S
C96 C95 1.335 . S
C96 C97 1.398 . S
C96 H118 0.930 . S
C97 C92 1.382 . S
C97 C96 1.398 . S
C97 H119 0.929 . S
C98 O108 1.271 . S
C98 O109 1.251 . S
C99 O110 1.252 . S
C99 O111 1.272 . S
O100 Sm80 2.543 . S
O100 C82 1.261 . S
O101 Sm80 2.450 . S
O101 C82 1.242 . S
O102 Sm80 2.681 . S
O102 Sm81 2.386 . S
O102 C89 1.271 . S
O103 Sm80 2.464 . S
O103 C89 1.251 . S
O104 Sm80 2.396 . S
O104 C90 1.252 . S
O105 Sm81 2.408 . S
O105 C90 1.272 . S
O106 Sm81 2.543 . S
O106 C91 1.261 . S
O107 Sm81 2.450 . S
O107 C91 1.242 . S
O108 Sm80 2.386 . S
O108 Sm81 2.681 . S
O108 C98 1.271 . S
O109 Sm81 2.464 . S
O109 C98 1.251 . S
O110 Sm81 2.396 . S
O110 C99 1.252 . S
O111 Sm80 2.408 . S
O111 C99 1.272 . S
H112 C84 0.930 . S
H113 C85 0.929 . S
H114 C87 0.930 . S
H115 C88 0.929 . S
H116 C93 0.930 . S
H117 C94 0.929 . S
H118 C96 0.930 . S
H119 C97 0.929 . S
Sm120 C122 2.846 . S
Sm120 O140 2.543 . S
Sm120 O141 2.450 . S
Sm120 O142 2.681 . S
Sm120 O143 2.464 . S
Sm120 O144 2.396 . S
Sm120 O148 2.386 . S
Sm120 O151 2.408 . S
Sm121 C131 2.846 . S
Sm121 O142 2.386 . S
Sm121 O145 2.408 . S
Sm121 O146 2.543 . S
Sm121 O147 2.450 . S
Sm121 O148 2.681 . S
Sm121 O149 2.464 . S
Sm121 O150 2.396 . S
C122 Sm120 2.846 . S
C122 C123 1.506 1_556 S
C122 O140 1.261 . S
C122 O141 1.242 . S
C123 C122 1.506 1_554 S
C123 C124 1.358 . S
C123 C128 1.382 . S
C124 C123 1.358 . S
C124 C125 1.385 . S
C124 H152 0.930 . S
C125 C124 1.385 . S
C125 C126 1.395 . S
C125 H153 0.929 . S
C126 C125 1.395 . S
C126 C127 1.335 . S
C127 C126 1.335 . S
C127 C128 1.398 . S
C127 H154 0.930 . S
C128 C123 1.382 . S
C128 C127 1.398 . S
C128 H155 0.929 1_554 S
C129 O142 1.271 . S
C129 O143 1.251 . S
C130 O144 1.252 . S
C130 O145 1.272 . S
C131 Sm121 2.846 . S
C131 C132 1.506 . S
C131 O146 1.261 . S
C131 O147 1.242 . S
C132 C131 1.506 . S
C132 C133 1.358 . S
C132 C137 1.382 . S
C133 C132 1.358 . S
C133 C134 1.385 . S
C133 H156 0.930 . S
C134 C133 1.385 . S
C134 C135 1.395 . S
C134 H157 0.929 . S
C135 C134 1.395 . S
C135 C136 1.335 . S
C136 C135 1.335 . S
C136 C137 1.398 . S
C136 H158 0.930 . S
C137 C132 1.382 . S
C137 C136 1.398 . S
C137 H159 0.929 . S
C138 O148 1.271 . S
C138 O149 1.251 . S
C139 O150 1.252 . S
C139 O151 1.272 . S
O140 Sm120 2.543 . S
O140 C122 1.261 . S
O141 Sm120 2.450 . S
O141 C122 1.242 . S
O142 Sm120 2.681 . S
O142 Sm121 2.386 . S
O142 C129 1.271 . S
O143 Sm120 2.464 . S
O143 C129 1.251 . S
O144 Sm120 2.396 . S
O144 C130 1.252 . S
O145 Sm121 2.408 . S
O145 C130 1.272 . S
O146 Sm121 2.543 . S
O146 C131 1.261 . S
O147 Sm121 2.450 . S
O147 C131 1.242 . S
O148 Sm120 2.386 . S
O148 Sm121 2.681 . S
O148 C138 1.271 . S
O149 Sm121 2.464 . S
O149 C138 1.251 . S
O150 Sm121 2.396 . S
O150 C139 1.252 . S
O151 Sm120 2.408 . S
O151 C139 1.272 . S
H152 C124 0.930 . S
H153 C125 0.929 . S
H154 C127 0.930 . S
H155 C128 0.929 1_556 S
H156 C133 0.930 . S
H157 C134 0.929 . S
H158 C136 0.930 . S
H159 C137 0.929 . S
Sm160 C162 2.846 1_556 S
Sm160 O180 2.543 1_556 S
Sm160 O181 2.450 . S
Sm160 O182 2.681 . S
Sm160 O183 2.464 . S
Sm160 O184 2.396 . S
Sm160 O188 2.386 . S
Sm160 O191 2.408 . S
Sm161 C171 2.846 . S
Sm161 O182 2.386 1_655 S
Sm161 O185 2.408 . S
Sm161 O186 2.543 . S
Sm161 O187 2.450 . S
Sm161 O188 2.681 1_655 S
Sm161 O189 2.464 . S
Sm161 O190 2.396 1_655 S
C162 Sm160 2.846 1_554 S
C162 C163 1.506 . S
C162 O180 1.261 . S
C162 O181 1.242 1_554 S
C163 C162 1.506 . S
C163 C164 1.358 . S
C163 C168 1.382 . S
C164 C163 1.358 . S
C164 C165 1.385 . S
C164 H192 0.930 . S
C165 C164 1.385 . S
C165 C166 1.395 . S
C165 H193 0.929 . S
C166 C165 1.395 . S
C166 C167 1.335 . S
C167 C166 1.335 . S
C167 C168 1.398 . S
C167 H194 0.930 . S
C168 C163 1.382 . S
C168 C167 1.398 . S
C168 H195 0.929 . S
C169 O182 1.271 . S
C169 O183 1.251 . S
C170 O184 1.252 1_655 S
C170 O185 1.272 . S
C171 Sm161 2.846 . S
C171 C172 1.506 . S
C171 O186 1.261 . S
C171 O187 1.242 . S
C172 C171 1.506 . S
C172 C173 1.358 . S
C172 C177 1.382 . S
C173 C172 1.358 . S
C173 C174 1.385 . S
C173 H196 0.930 . S
C174 C173 1.385 . S
C174 C175 1.395 . S
C174 H197 0.929 . S
C175 C174 1.395 . S
C175 C176 1.335 . S
C176 C175 1.335 . S
C176 C177 1.398 . S
C176 H198 0.930 . S
C177 C172 1.382 . S
C177 C176 1.398 . S
C177 H199 0.929 . S
C178 O188 1.271 . S
C178 O189 1.251 1_455 S
C179 O190 1.252 . S
C179 O191 1.272 . S
O180 Sm160 2.543 1_554 S
O180 C162 1.261 . S
O181 Sm160 2.450 . S
O181 C162 1.242 1_556 S
O182 Sm160 2.681 . S
O182 Sm161 2.386 1_455 S
O182 C169 1.271 . S
O183 Sm160 2.464 . S
O183 C169 1.251 . S
O184 Sm160 2.396 . S
O184 C170 1.252 1_455 S
O185 Sm161 2.408 . S
O185 C170 1.272 . S
O186 Sm161 2.543 . S
O186 C171 1.261 . S
O187 Sm161 2.450 . S
O187 C171 1.242 . S
O188 Sm160 2.386 . S
O188 Sm161 2.681 1_455 S
O188 C178 1.271 . S
O189 Sm161 2.464 . S
O189 C178 1.251 1_655 S
O190 Sm161 2.396 1_455 S
O190 C179 1.252 . S
O191 Sm160 2.408 . S
O191 C179 1.272 . S
H192 C164 0.930 . S
H193 C165 0.929 . S
H194 C167 0.930 . S
H195 C168 0.929 . S
H196 C173 0.930 . S
H197 C174 0.929 . S
H198 C176 0.930 . S
H199 C177 0.929 . S
Sm200 C202 2.846 . S
Sm200 O220 2.543 . S
Sm200 O221 2.450 . S
Sm200 O222 2.681 . S
Sm200 O223 2.464 . S
Sm200 O224 2.396 . S
Sm200 O228 2.386 . S
Sm200 O231 2.408 . S
Sm201 C211 2.846 . S
Sm201 O222 2.386 . S
Sm201 O225 2.408 . S
Sm201 O226 2.543 . S
Sm201 O227 2.450 . S
Sm201 O228 2.681 . S
Sm201 O229 2.464 . S
Sm201 O230 2.396 . S
C202 Sm200 2.846 . S
C202 C203 1.506 . S
C202 O220 1.261 . S
C202 O221 1.242 . S
C203 C202 1.506 . S
C203 C204 1.358 . S
C203 C208 1.382 . S
C204 C203 1.358 . S
C204 C205 1.385 . S
C204 H232 0.930 . S
C205 C204 1.385 . S
C205 C206 1.395 . S
C205 H233 0.929 . S
C206 C205 1.395 . S
C206 C207 1.335 . S
C207 C206 1.335 . S
C207 C208 1.398 . S
C207 H234 0.930 . S
C208 C203 1.382 . S
C208 C207 1.398 . S
C208 H235 0.929 . S
C209 O222 1.271 . S
C209 O223 1.251 . S
C210 O224 1.252 . S
C210 O225 1.272 . S
C211 Sm201 2.846 . S
C211 C212 1.506 . S
C211 O226 1.261 . S
C211 O227 1.242 . S
C212 C211 1.506 . S
C212 C213 1.358 1_554 S
C212 C217 1.382 . S
C213 C212 1.358 1_556 S
C213 C214 1.385 . S
C213 H236 0.930 1_556 S
C214 C213 1.385 . S
C214 C215 1.395 . S
C214 H237 0.929 . S
C215 C214 1.395 . S
C215 C216 1.335 . S
C216 C215 1.335 . S
C216 C217 1.398 1_556 S
C216 H238 0.930 . S
C217 C212 1.382 . S
C217 C216 1.398 1_554 S
C217 H239 0.929 . S
C218 O228 1.271 . S
C218 O229 1.251 . S
C219 O230 1.252 . S
C219 O231 1.272 . S
O220 Sm200 2.543 . S
O220 C202 1.261 . S
O221 Sm200 2.450 . S
O221 C202 1.242 . S
O222 Sm200 2.681 . S
O222 Sm201 2.386 . S
O222 C209 1.271 . S
O223 Sm200 2.464 . S
O223 C209 1.251 . S
O224 Sm200 2.396 . S
O224 C210 1.252 . S
O225 Sm201 2.408 . S
O225 C210 1.272 . S
O226 Sm201 2.543 . S
O226 C211 1.261 . S
O227 Sm201 2.450 . S
O227 C211 1.242 . S
O228 Sm200 2.386 . S
O228 Sm201 2.681 . S
O228 C218 1.271 . S
O229 Sm201 2.464 . S
O229 C218 1.251 . S
O230 Sm201 2.396 . S
O230 C219 1.252 . S
O231 Sm200 2.408 . S
O231 C219 1.272 . S
H232 C204 0.930 . S
H233 C205 0.929 . S
H234 C207 0.930 . S
H235 C208 0.929 . S
H236 C213 0.930 1_554 S
H237 C214 0.929 . S
H238 C216 0.930 . S
H239 C217 0.929 . S
Sm240 C242 2.846 . S
Sm240 O260 2.543 . S
Sm240 O261 2.450 . S
Sm240 O262 2.681 . S
Sm240 O263 2.464 . S
Sm240 O264 2.396 . S
Sm240 O268 2.386 . S
Sm240 O271 2.408 . S
Sm241 C251 2.846 . S
Sm241 O262 2.386 . S
Sm241 O265 2.408 . S
Sm241 O266 2.543 . S
Sm241 O267 2.450 . S
Sm241 O268 2.681 . S
Sm241 O269 2.464 . S
Sm241 O270 2.396 . S
C242 Sm240 2.846 . S
C242 C243 1.506 . S
C242 O260 1.261 . S
C242 O261 1.242 . S
C243 C242 1.506 . S
C243 C244 1.358 . S
C243 C248 1.382 . S
C244 C243 1.358 . S
C244 C245 1.385 . S
C244 H272 0.930 . S
C245 C244 1.385 . S
C245 C246 1.395 . S
C245 H273 0.929 . S
C246 C245 1.395 . S
C246 C247 1.335 . S
C247 C246 1.335 . S
C247 C248 1.398 . S
C247 H274 0.930 . S
C248 C243 1.382 . S
C248 C247 1.398 . S
C248 H275 0.929 . S
C249 O262 1.271 . S
C249 O263 1.251 . S
C250 O264 1.252 . S
C250 O265 1.272 . S
C251 Sm241 2.846 . S
C251 C252 1.506 . S
C251 O266 1.261 . S
C251 O267 1.242 . S
C252 C251 1.506 . S
C252 C253 1.358 . S
C252 C257 1.382 . S
C253 C252 1.358 . S
C253 C254 1.385 . S
C253 H276 0.930 . S
C254 C253 1.385 . S
C254 C255 1.395 . S
C254 H277 0.929 . S
C255 C254 1.395 . S
C255 C256 1.335 . S
C256 C255 1.335 . S
C256 C257 1.398 . S
C256 H278 0.930 . S
C257 C252 1.382 . S
C257 C256 1.398 . S
C257 H279 0.929 . S
C258 O268 1.271 . S
C258 O269 1.251 . S
C259 O270 1.252 . S
C259 O271 1.272 . S
O260 Sm240 2.543 . S
O260 C242 1.261 . S
O261 Sm240 2.450 . S
O261 C242 1.242 . S
O262 Sm240 2.681 . S
O262 Sm241 2.386 . S
O262 C249 1.271 . S
O263 Sm240 2.464 . S
O263 C249 1.251 . S
O264 Sm240 2.396 . S
O264 C250 1.252 . S
O265 Sm241 2.408 . S
O265 C250 1.272 . S
O266 Sm241 2.543 . S
O266 C251 1.261 . S
O267 Sm241 2.450 . S
O267 C251 1.242 . S
O268 Sm240 2.386 . S
O268 Sm241 2.681 . S
O268 C258 1.271 . S
O269 Sm241 2.464 . S
O269 C258 1.251 . S
O270 Sm241 2.396 . S
O270 C259 1.252 . S
O271 Sm240 2.408 . S
O271 C259 1.272 . S
H272 C244 0.930 . S
H273 C245 0.929 . S
H274 C247 0.930 . S
H275 C248 0.929 . S
H276 C253 0.930 . S
H277 C254 0.929 . S
H278 C256 0.930 . S
H279 C257 0.929 . S
Sm280 C282 2.846 . S
Sm280 O300 2.543 . S
Sm280 O301 2.450 . S
Sm280 O302 2.681 . S
Sm280 O303 2.464 . S
Sm280 O304 2.396 . S
Sm280 O308 2.386 . S
Sm280 O311 2.408 . S
Sm281 C291 2.846 . S
Sm281 O302 2.386 . S
Sm281 O305 2.408 . S
Sm281 O306 2.543 . S
Sm281 O307 2.450 . S
Sm281 O308 2.681 . S
Sm281 O309 2.464 . S
Sm281 O310 2.396 . S
C282 Sm280 2.846 . S
C282 C283 1.506 . S
C282 O300 1.261 . S
C282 O301 1.242 . S
C283 C282 1.506 . S
C283 C284 1.358 . S
C283 C288 1.382 . S
C284 C283 1.358 . S
C284 C285 1.385 . S
C284 H312 0.930 . S
C285 C284 1.385 . S
C285 C286 1.395 . S
C285 H313 0.929 . S
C286 C285 1.395 . S
C286 C287 1.335 . S
C287 C286 1.335 . S
C287 C288 1.398 . S
C287 H314 0.930 . S
C288 C283 1.382 . S
C288 C287 1.398 . S
C288 H315 0.929 . S
C289 O302 1.271 . S
C289 O303 1.251 . S
C290 O304 1.252 . S
C290 O305 1.272 . S
C291 Sm281 2.846 . S
C291 C292 1.506 . S
C291 O306 1.261 . S
C291 O307 1.242 . S
C292 C291 1.506 . S
C292 C293 1.358 . S
C292 C297 1.382 . S
C293 C292 1.358 . S
C293 C294 1.385 . S
C293 H316 0.930 . S
C294 C293 1.385 . S
C294 C295 1.395 . S
C294 H317 0.929 . S
C295 C294 1.395 . S
C295 C296 1.335 . S
C296 C295 1.335 . S
C296 C297 1.398 . S
C296 H318 0.930 . S
C297 C292 1.382 . S
C297 C296 1.398 . S
C297 H319 0.929 . S
C298 O308 1.271 . S
C298 O309 1.251 . S
C299 O310 1.252 . S
C299 O311 1.272 . S
O300 Sm280 2.543 . S
O300 C282 1.261 . S
O301 Sm280 2.450 . S
O301 C282 1.242 . S
O302 Sm280 2.681 . S
O302 Sm281 2.386 . S
O302 C289 1.271 . S
O303 Sm280 2.464 . S
O303 C289 1.251 . S
O304 Sm280 2.396 . S
O304 C290 1.252 . S
O305 Sm281 2.408 . S
O305 C290 1.272 . S
O306 Sm281 2.543 . S
O306 C291 1.261 . S
O307 Sm281 2.450 . S
O307 C291 1.242 . S
O308 Sm280 2.386 . S
O308 Sm281 2.681 . S
O308 C298 1.271 . S
O309 Sm281 2.464 . S
O309 C298 1.251 . S
O310 Sm281 2.396 . S
O310 C299 1.252 . S
O311 Sm280 2.408 . S
O311 C299 1.272 . S
H312 C284 0.930 . S
H313 C285 0.929 . S
H314 C287 0.930 . S
H315 C288 0.929 . S
H316 C293 0.930 . S
H317 C294 0.929 . S
H318 C296 0.930 . S
H319 C297 0.929 . S
Sm320 C322 2.846 . S
Sm320 O340 2.543 . S
Sm320 O341 2.450 . S
Sm320 O342 2.681 . S
Sm320 O343 2.464 . S
Sm320 O344 2.396 . S
Sm320 O348 2.386 . S
Sm320 O351 2.408 . S
Sm321 C331 2.846 . S
Sm321 O342 2.386 . S
Sm321 O345 2.408 . S
Sm321 O346 2.543 . S
Sm321 O347 2.450 . S
Sm321 O348 2.681 . S
Sm321 O349 2.464 . S
Sm321 O350 2.396 . S
C322 Sm320 2.846 . S
C322 C323 1.506 . S
C322 O340 1.261 . S
C322 O341 1.242 . S
C323 C322 1.506 . S
C323 C324 1.358 . S
C323 C328 1.382 . S
C324 C323 1.358 . S
C324 C325 1.385 . S
C324 H352 0.930 . S
C325 C324 1.385 . S
C325 C326 1.395 . S
C325 H353 0.929 . S
C326 C325 1.395 . S
C326 C327 1.335 . S
C327 C326 1.335 . S
C327 C328 1.398 . S
C327 H354 0.930 . S
C328 C323 1.382 . S
C328 C327 1.398 . S
C328 H355 0.929 . S
C329 O342 1.271 . S
C329 O343 1.251 . S
C330 O344 1.252 . S
C330 O345 1.272 . S
C331 Sm321 2.846 . S
C331 C332 1.506 . S
C331 O346 1.261 . S
C331 O347 1.242 . S
C332 C331 1.506 . S
C332 C333 1.358 . S
C332 C337 1.382 . S
C333 C332 1.358 . S
C333 C334 1.385 . S
C333 H356 0.930 . S
C334 C333 1.385 . S
C334 C335 1.395 . S
C334 H357 0.929 . S
C335 C334 1.395 . S
C335 C336 1.335 . S
C336 C335 1.335 . S
C336 C337 1.398 . S
C336 H358 0.930 . S
C337 C332 1.382 . S
C337 C336 1.398 . S
C337 H359 0.929 . S
C338 O348 1.271 . S
C338 O349 1.251 . S
C339 O350 1.252 . S
C339 O351 1.272 . S
O340 Sm320 2.543 . S
O340 C322 1.261 . S
O341 Sm320 2.450 . S
O341 C322 1.242 . S
O342 Sm320 2.681 . S
O342 Sm321 2.386 . S
O342 C329 1.271 . S
O343 Sm320 2.464 . S
O343 C329 1.251 . S
O344 Sm320 2.396 . S
O344 C330 1.252 . S
O345 Sm321 2.408 . S
O345 C330 1.272 . S
O346 Sm321 2.543 . S
O346 C331 1.261 . S
O347 Sm321 2.450 . S
O347 C331 1.242 . S
O348 Sm320 2.386 . S
O348 Sm321 2.681 . S
O348 C338 1.271 . S
O349 Sm321 2.464 . S
O349 C338 1.251 . S
O350 Sm321 2.396 . S
O350 C339 1.252 . S
O351 Sm320 2.408 . S
O351 C339 1.272 . S
H352 C324 0.930 . S
H353 C325 0.929 . S
H354 C327 0.930 . S
H355 C328 0.929 . S
H356 C333 0.930 . S
H357 C334 0.929 . S
H358 C336 0.930 . S
H359 C337 0.929 . S
Sm360 C362 2.846 . S
Sm360 O380 2.543 . S
Sm360 O381 2.450 . S
Sm360 O382 2.681 . S
Sm360 O383 2.464 . S
Sm360 O384 2.396 . S
Sm360 O388 2.386 . S
Sm360 O391 2.408 . S
Sm361 C371 2.846 1_554 S
Sm361 O382 2.386 . S
Sm361 O385 2.408 . S
Sm361 O386 2.543 1_554 S
Sm361 O387 2.450 1_554 S
Sm361 O388 2.681 . S
Sm361 O389 2.464 . S
Sm361 O390 2.396 . S
C362 Sm360 2.846 . S
C362 C363 1.506 . S
C362 O380 1.261 . S
C362 O381 1.242 . S
C363 C362 1.506 . S
C363 C364 1.358 . S
C363 C368 1.382 . S
C364 C363 1.358 . S
C364 C365 1.385 . S
C364 H392 0.930 . S
C365 C364 1.385 . S
C365 C366 1.395 . S
C365 H393 0.929 . S
C366 C365 1.395 . S
C366 C367 1.335 . S
C367 C366 1.335 . S
C367 C368 1.398 . S
C367 H394 0.930 . S
C368 C363 1.382 . S
C368 C367 1.398 . S
C368 H395 0.929 . S
C369 O382 1.271 . S
C369 O383 1.251 . S
C370 O384 1.252 . S
C370 O385 1.272 . S
C371 Sm361 2.846 1_556 S
C371 C372 1.506 . S
C371 O386 1.261 . S
C371 O387 1.242 . S
C372 C371 1.506 . S
C372 C373 1.358 . S
C372 C377 1.382 . S
C373 C372 1.358 . S
C373 C374 1.385 . S
C373 H396 0.930 . S
C374 C373 1.385 . S
C374 C375 1.395 . S
C374 H397 0.929 . S
C375 C374 1.395 . S
C375 C376 1.335 . S
C376 C375 1.335 . S
C376 C377 1.398 . S
C376 H398 0.930 . S
C377 C372 1.382 . S
C377 C376 1.398 . S
C377 H399 0.929 . S
C378 O388 1.271 . S
C378 O389 1.251 . S
C379 O390 1.253 . S
C379 O391 1.283 . S
O380 Sm360 2.543 . S
O380 C362 1.261 . S
O381 Sm360 2.450 . S
O381 C362 1.242 . S
O382 Sm360 2.681 . S
O382 Sm361 2.386 . S
O382 C369 1.271 . S
O383 Sm360 2.464 . S
O383 C369 1.251 . S
O384 Sm360 2.396 . S
O384 C370 1.252 . S
O385 Sm361 2.408 . S
O385 C370 1.272 . S
O386 Sm361 2.543 1_556 S
O386 C371 1.261 . S
O387 Sm361 2.450 1_556 S
O387 C371 1.242 . S
O388 Sm360 2.386 . S
O388 Sm361 2.681 . S
O388 C378 1.271 . S
O389 Sm361 2.464 . S
O389 C378 1.251 . S
O390 Sm361 2.396 . S
O390 C379 1.253 . S
O391 Sm360 2.408 . S
O391 C379 1.283 . S
H392 C364 0.930 . S
H393 C365 0.929 . S
H394 C367 0.930 . S
H395 C368 0.929 . S
H396 C373 0.930 . S
H397 C374 0.929 . S
H398 C376 0.930 . S
H399 C377 0.929 . S
Sm400 C402 2.846 1_556 S
Sm400 O420 2.543 . S
Sm400 O421 2.450 . S
Sm400 O422 2.681 . S
Sm400 O423 2.464 . S
Sm400 O424 2.396 . S
Sm400 O428 2.386 . S
Sm400 O431 2.408 . S
Sm401 C411 2.846 . S
Sm401 O422 2.386 . S
Sm401 O425 2.408 . S
Sm401 O426 2.543 . S
Sm401 O427 2.450 . S
Sm401 O428 2.681 . S
Sm401 O429 2.464 . S
Sm401 O430 2.396 . S
C402 Sm400 2.846 1_554 S
C402 C403 1.506 . S
C402 O420 1.261 1_554 S
C402 O421 1.242 1_554 S
C403 C402 1.506 . S
C403 C404 1.358 . S
C403 C408 1.382 . S
C404 C403 1.358 . S
C404 C405 1.385 . S
C404 H432 0.930 . S
C405 C404 1.385 . S
C405 C406 1.395 . S
C405 H433 0.929 . S
C406 C405 1.395 . S
C406 C407 1.335 . S
C407 C406 1.335 . S
C407 C408 1.398 . S
C407 H434 0.930 . S
C408 C403 1.382 . S
C408 C407 1.398 . S
C408 H435 0.929 . S
C409 O422 1.271 . S
C409 O423 1.251 . S
C410 O424 1.252 . S
C410 O425 1.272 . S
C411 Sm401 2.846 . S
C411 C412 1.506 . S
C411 O426 1.261 . S
C411 O427 1.242 . S
C412 C411 1.506 . S
C412 C413 1.358 . S
C412 C417 1.382 . S
C413 C412 1.358 . S
C413 C414 1.385 . S
C413 H436 0.930 . S
C414 C413 1.385 . S
C414 C415 1.395 . S
C414 H437 0.929 . S
C415 C414 1.395 . S
C415 C416 1.335 . S
C416 C415 1.335 . S
C416 C417 1.398 . S
C416 H438 0.930 . S
C417 C412 1.382 . S
C417 C416 1.398 . S
C417 H439 0.929 . S
C418 O428 1.271 . S
C418 O429 1.251 . S
C419 O430 1.252 . S
C419 O431 1.272 . S
O420 Sm400 2.543 . S
O420 C402 1.261 1_556 S
O421 Sm400 2.450 . S
O421 C402 1.242 1_556 S
O422 Sm400 2.681 . S
O422 Sm401 2.386 . S
O422 C409 1.271 . S
O423 Sm400 2.464 . S
O423 C409 1.251 . S
O424 Sm400 2.396 . S
O424 C410 1.252 . S
O425 Sm401 2.408 . S
O425 C410 1.272 . S
O426 Sm401 2.543 . S
O426 C411 1.261 . S
O427 Sm401 2.450 . S
O427 C411 1.242 . S
O428 Sm400 2.386 . S
O428 Sm401 2.681 . S
O428 C418 1.271 . S
O429 Sm401 2.464 . S
O429 C418 1.251 . S
O430 Sm401 2.396 . S
O430 C419 1.252 . S
O431 Sm400 2.408 . S
O431 C419 1.272 . S
H432 C404 0.930 . S
H433 C405 0.929 . S
H434 C407 0.930 . S
H435 C408 0.929 . S
H436 C413 0.930 . S
H437 C414 0.929 . S
H438 C416 0.930 . S
H439 C417 0.929 . S
Sm440 C442 2.846 . S
Sm440 O460 2.543 . S
Sm440 O461 2.450 . S
Sm440 O462 2.681 . S
Sm440 O463 2.464 . S
Sm440 O464 2.396 . S
Sm440 O468 2.386 . S
Sm440 O471 2.408 . S
Sm441 C451 2.846 . S
Sm441 O462 2.386 . S
Sm441 O465 2.408 . S
Sm441 O466 2.543 . S
Sm441 O467 2.450 . S
Sm441 O468 2.681 . S
Sm441 O469 2.464 . S
Sm441 O470 2.396 . S
C442 Sm440 2.846 . S
C442 C443 1.506 . S
C442 O460 1.261 . S
C442 O461 1.242 . S
C443 C442 1.506 . S
C443 C444 1.358 . S
C443 C448 1.382 . S
C444 C443 1.358 . S
C444 C445 1.385 . S
C444 H472 0.930 . S
C445 C444 1.385 . S
C445 C446 1.395 . S
C445 H473 0.929 . S
C446 C445 1.395 . S
C446 C447 1.335 . S
C447 C446 1.335 . S
C447 C448 1.398 . S
C447 H474 0.930 . S
C448 C443 1.382 . S
C448 C447 1.398 . S
C448 H475 0.929 . S
C449 O462 1.271 . S
C449 O463 1.251 . S
C450 O464 1.252 . S
C450 O465 1.272 . S
C451 Sm441 2.846 . S
C451 C452 1.506 . S
C451 O466 1.261 . S
C451 O467 1.242 . S
C452 C451 1.506 . S
C452 C453 1.358 . S
C452 C457 1.382 . S
C453 C452 1.358 . S
C453 C454 1.385 . S
C453 H476 0.930 . S
C454 C453 1.385 . S
C454 C455 1.395 . S
C454 H477 0.929 . S
C455 C454 1.395 . S
C455 C456 1.335 . S
C456 C455 1.335 . S
C456 C457 1.398 . S
C456 H478 0.930 . S
C457 C452 1.382 . S
C457 C456 1.398 . S
C457 H479 0.929 . S
C458 O468 1.271 . S
C458 O469 1.251 . S
C459 O470 1.252 . S
C459 O471 1.272 . S
O460 Sm440 2.543 . S
O460 C442 1.261 . S
O461 Sm440 2.450 . S
O461 C442 1.242 . S
O462 Sm440 2.681 . S
O462 Sm441 2.386 . S
O462 C449 1.271 . S
O463 Sm440 2.464 . S
O463 C449 1.251 . S
O464 Sm440 2.396 . S
O464 C450 1.252 . S
O465 Sm441 2.408 . S
O465 C450 1.272 . S
O466 Sm441 2.543 . S
O466 C451 1.261 . S
O467 Sm441 2.450 . S
O467 C451 1.242 . S
O468 Sm440 2.386 . S
O468 Sm441 2.681 . S
O468 C458 1.271 . S
O469 Sm441 2.464 . S
O469 C458 1.251 . S
O470 Sm441 2.396 . S
O470 C459 1.252 . S
O471 Sm440 2.408 . S
O471 C459 1.272 . S
H472 C444 0.930 . S
H473 C445 0.929 . S
H474 C447 0.930 . S
H475 C448 0.929 . S
H476 C453 0.930 . S
H477 C454 0.929 . S
H478 C456 0.930 . S
H479 C457 0.929 . S
Sm480 C482 2.846 . S
Sm480 O500 2.543 . S
Sm480 O501 2.450 . S
Sm480 O502 2.681 . S
Sm480 O503 2.464 . S
Sm480 O504 2.396 . S
Sm480 O508 2.386 . S
Sm480 O511 2.408 . S
Sm481 C491 2.846 . S
Sm481 O502 2.386 . S
Sm481 O505 2.408 . S
Sm481 O506 2.543 . S
Sm481 O507 2.450 . S
Sm481 O508 2.681 . S
Sm481 O509 2.464 . S
Sm481 O510 2.396 . S
C482 Sm480 2.846 . S
C482 C483 1.506 . S
C482 O500 1.261 . S
C482 O501 1.242 . S
C483 C482 1.506 . S
C483 C484 1.358 . S
C483 C488 1.382 . S
C484 C483 1.358 . S
C484 C485 1.385 . S
C484 H512 0.930 . S
C485 C484 1.385 . S
C485 C486 1.395 . S
C485 H513 0.929 . S
C486 C485 1.395 . S
C486 C487 1.335 . S
C487 C486 1.335 . S
C487 C488 1.398 . S
C487 H514 0.930 . S
C488 C483 1.382 . S
C488 C487 1.398 . S
C488 H515 0.929 . S
C489 O502 1.271 . S
C489 O503 1.251 . S
C490 O504 1.252 . S
C490 O505 1.272 . S
C491 Sm481 2.846 . S
C491 C492 1.506 . S
C491 O506 1.261 . S
C491 O507 1.242 . S
C492 C491 1.506 . S
C492 C493 1.358 . S
C492 C497 1.382 . S
C493 C492 1.358 . S
C493 C494 1.385 . S
C493 H516 0.930 . S
C494 C493 1.385 . S
C494 C495 1.395 . S
C494 H517 0.929 . S
C495 C494 1.395 . S
C495 C496 1.335 . S
C496 C495 1.335 . S
C496 C497 1.398 . S
C496 H518 0.930 . S
C497 C492 1.382 . S
C497 C496 1.398 . S
C497 H519 0.929 . S
C498 O508 1.271 . S
C498 O509 1.251 . S
C499 O510 1.252 . S
C499 O511 1.272 . S
O500 Sm480 2.543 . S
O500 C482 1.261 . S
O501 Sm480 2.450 . S
O501 C482 1.242 . S
O502 Sm480 2.681 . S
O502 Sm481 2.386 . S
O502 C489 1.271 . S
O503 Sm480 2.464 . S
O503 C489 1.251 . S
O504 Sm480 2.396 . S
O504 C490 1.252 . S
O505 Sm481 2.408 . S
O505 C490 1.272 . S
O506 Sm481 2.543 . S
O506 C491 1.261 . S
O507 Sm481 2.450 . S
O507 C491 1.242 . S
O508 Sm480 2.386 . S
O508 Sm481 2.681 . S
O508 C498 1.271 . S
O509 Sm481 2.464 . S
O509 C498 1.251 . S
O510 Sm481 2.396 . S
O510 C499 1.252 . S
O511 Sm480 2.408 . S
O511 C499 1.272 . S
H512 C484 0.930 . S
H513 C485 0.929 . S
H514 C487 0.930 . S
H515 C488 0.929 . S
H516 C493 0.930 . S
H517 C494 0.929 . S
H518 C496 0.930 . S
H519 C497 0.929 . S
Sm520 C522 2.846 . S
Sm520 O540 2.543 . S
Sm520 O541 2.450 . S
Sm520 O542 2.681 1_655 S
Sm520 O543 2.464 . S
Sm520 O544 2.396 1_655 S
Sm520 O548 2.386 1_655 S
Sm520 O551 2.408 . S
Sm521 C531 2.846 1_554 S
Sm521 O542 2.386 . S
Sm521 O545 2.408 . S
Sm521 O546 2.543 . S
Sm521 O547 2.450 . S
Sm521 O548 2.681 . S
Sm521 O549 2.464 . S
Sm521 O550 2.396 . S
C522 Sm520 2.846 . S
C522 C523 1.506 . S
C522 O540 1.261 . S
C522 O541 1.242 . S
C523 C522 1.506 . S
C523 C524 1.358 . S
C523 C528 1.382 . S
C524 C523 1.358 . S
C524 C525 1.385 . S
C524 H552 0.930 . S
C525 C524 1.385 . S
C525 C526 1.395 . S
C525 H553 0.929 . S
C526 C525 1.395 . S
C526 C527 1.335 . S
C527 C526 1.335 . S
C527 C528 1.398 . S
C527 H554 0.930 . S
C528 C523 1.382 . S
C528 C527 1.398 . S
C528 H555 0.929 . S
C529 O542 1.271 . S
C529 O543 1.251 1_455 S
C530 O544 1.252 . S
C530 O545 1.272 . S
C531 Sm521 2.846 1_556 S
C531 C532 1.506 . S
C531 O546 1.261 1_556 S
C531 O547 1.242 1_556 S
C532 C531 1.506 . S
C532 C533 1.358 . S
C532 C537 1.382 . S
C533 C532 1.358 . S
C533 C534 1.385 . S
C533 H556 0.930 . S
C534 C533 1.385 . S
C534 C535 1.395 . S
C534 H557 0.929 . S
C535 C534 1.395 . S
C535 C536 1.335 . S
C536 C535 1.335 . S
C536 C537 1.398 . S
C536 H558 0.930 . S
C537 C532 1.382 . S
C537 C536 1.398 . S
C537 H559 0.929 . S
C538 O548 1.271 . S
C538 O549 1.251 . S
C539 O550 1.252 1_655 S
C539 O551 1.272 . S
O540 Sm520 2.543 . S
O540 C522 1.261 . S
O541 Sm520 2.450 . S
O541 C522 1.242 . S
O542 Sm520 2.681 1_455 S
O542 Sm521 2.386 . S
O542 C529 1.271 . S
O543 Sm520 2.464 . S
O543 C529 1.251 1_655 S
O544 Sm520 2.396 1_455 S
O544 C530 1.252 . S
O545 Sm521 2.408 . S
O545 C530 1.272 . S
O546 Sm521 2.543 . S
O546 C531 1.261 1_554 S
O547 Sm521 2.450 . S
O547 C531 1.242 1_554 S
O548 Sm520 2.386 1_455 S
O548 Sm521 2.681 . S
O548 C538 1.271 . S
O549 Sm521 2.464 . S
O549 C538 1.251 . S
O550 Sm521 2.396 . S
O550 C539 1.252 1_455 S
O551 Sm520 2.408 . S
O551 C539 1.272 . S
H552 C524 0.930 . S
H553 C525 0.929 . S
H554 C527 0.930 . S
H555 C528 0.929 . S
H556 C533 0.930 . S
H557 C534 0.929 . S
H558 C536 0.930 . S
H559 C537 0.929 . S
Sm560 C562 2.846 . S
Sm560 O580 2.543 . S
Sm560 O581 2.450 . S
Sm560 O582 2.681 . S
Sm560 O583 2.464 . S
Sm560 O584 2.396 . S
Sm560 O588 2.386 . S
Sm560 O591 2.408 . S
Sm561 C571 2.846 . S
Sm561 O582 2.386 . S
Sm561 O585 2.408 . S
Sm561 O586 2.543 . S
Sm561 O587 2.450 . S
Sm561 O588 2.681 . S
Sm561 O589 2.464 . S
Sm561 O590 2.396 . S
C562 Sm560 2.846 . S
C562 C563 1.506 . S
C562 O580 1.261 . S
C562 O581 1.242 . S
C563 C562 1.506 . S
C563 C564 1.358 . S
C563 C568 1.382 . S
C564 C563 1.358 . S
C564 C565 1.385 . S
C564 H592 0.930 . S
C565 C564 1.385 . S
C565 C566 1.395 . S
C565 H593 0.929 . S
C566 C565 1.395 . S
C566 C567 1.335 . S
C567 C566 1.335 . S
C567 C568 1.398 . S
C567 H594 0.930 . S
C568 C563 1.382 . S
C568 C567 1.398 . S
C568 H595 0.929 . S
C569 O582 1.271 . S
C569 O583 1.251 . S
C570 O584 1.252 . S
C570 O585 1.272 . S
C571 Sm561 2.846 . S
C571 C572 1.506 . S
C571 O586 1.261 . S
C571 O587 1.242 . S
C572 C571 1.506 . S
C572 C573 1.358 . S
C572 C577 1.382 . S
C573 C572 1.358 . S
C573 C574 1.385 . S
C573 H596 0.930 . S
C574 C573 1.385 . S
C574 C575 1.395 . S
C574 H597 0.929 . S
C575 C574 1.395 . S
C575 C576 1.335 . S
C576 C575 1.335 . S
C576 C577 1.398 . S
C576 H598 0.930 . S
C577 C572 1.382 . S
C577 C576 1.398 . S
C577 H599 0.929 . S
C578 O588 1.271 . S
C578 O589 1.251 . S
C579 O590 1.252 . S
C579 O591 1.272 . S
O580 Sm560 2.543 . S
O580 C562 1.261 . S
O581 Sm560 2.450 . S
O581 C562 1.242 . S
O582 Sm560 2.681 . S
O582 Sm561 2.386 . S
O582 C569 1.271 . S
O583 Sm560 2.464 . S
O583 C569 1.251 . S
O584 Sm560 2.396 . S
O584 C570 1.252 . S
O585 Sm561 2.408 . S
O585 C570 1.272 . S
O586 Sm561 2.543 . S
O586 C571 1.261 . S
O587 Sm561 2.450 . S
O587 C571 1.242 . S
O588 Sm560 2.386 . S
O588 Sm561 2.681 . S
O588 C578 1.271 . S
O589 Sm561 2.464 . S
O589 C578 1.251 . S
O590 Sm561 2.396 . S
O590 C579 1.252 . S
O591 Sm560 2.408 . S
O591 C579 1.272 . S
H592 C564 0.930 . S
H593 C565 0.929 . S
H594 C567 0.930 . S
H595 C568 0.929 . S
H596 C573 0.930 . S
H597 C574 0.929 . S
H598 C576 0.930 . S
H599 C577 0.929 . S
Sm600 C602 2.846 . S
Sm600 O620 2.543 . S
Sm600 O621 2.450 . S
Sm600 O622 2.681 1_655 S
Sm600 O623 2.464 . S
Sm600 O624 2.396 1_655 S
Sm600 O628 2.386 1_655 S
Sm600 O631 2.408 . S
Sm601 C611 2.846 . S
Sm601 O622 2.386 . S
Sm601 O625 2.408 . S
Sm601 O626 2.543 . S
Sm601 O627 2.450 . S
Sm601 O628 2.681 . S
Sm601 O629 2.464 . S
Sm601 O630 2.396 . S
C602 Sm600 2.846 . S
C602 C603 1.506 1_556 S
C602 O620 1.261 . S
C602 O621 1.242 . S
C603 C602 1.506 1_554 S
C603 C604 1.358 . S
C603 C608 1.382 . S
C604 C603 1.358 . S
C604 C605 1.385 . S
C604 H632 0.930 . S
C605 C604 1.385 . S
C605 C606 1.395 . S
C605 H633 0.929 . S
C606 C605 1.395 . S
C606 C607 1.335 . S
C607 C606 1.335 . S
C607 C608 1.398 . S
C607 H634 0.930 . S
C608 C603 1.382 . S
C608 C607 1.398 . S
C608 H635 0.929 . S
C609 O622 1.271 . S
C609 O623 1.251 1_455 S
C610 O624 1.252 . S
C610 O625 1.272 . S
C611 Sm601 2.846 . S
C611 C612 1.506 . S
C611 O626 1.261 . S
C611 O627 1.242 . S
C612 C611 1.506 . S
C612 C613 1.358 . S
C612 C617 1.382 . S
C613 C612 1.358 . S
C613 C614 1.385 . S
C613 H636 0.930 . S
C614 C613 1.385 . S
C614 C615 1.395 . S
C614 H637 0.929 . S
C615 C614 1.395 . S
C615 C616 1.335 . S
C616 C615 1.335 . S
C616 C617 1.398 . S
C616 H638 0.930 . S
C617 C612 1.382 . S
C617 C616 1.398 . S
C617 H639 0.929 . S
C618 O628 1.271 . S
C618 O629 1.251 . S
C619 O630 1.252 1_655 S
C619 O631 1.272 . S
O620 Sm600 2.543 . S
O620 C602 1.261 . S
O621 Sm600 2.450 . S
O621 C602 1.242 . S
O622 Sm600 2.681 1_455 S
O622 Sm601 2.386 . S
O622 C609 1.271 . S
O623 Sm600 2.464 . S
O623 C609 1.251 1_655 S
O624 Sm600 2.396 1_455 S
O624 C610 1.252 . S
O625 Sm601 2.408 . S
O625 C610 1.272 . S
O626 Sm601 2.543 . S
O626 C611 1.261 . S
O627 Sm601 2.450 . S
O627 C611 1.242 . S
O628 Sm600 2.386 1_455 S
O628 Sm601 2.681 . S
O628 C618 1.271 . S
O629 Sm601 2.464 . S
O629 C618 1.251 . S
O630 Sm601 2.396 . S
O630 C619 1.252 1_455 S
O631 Sm600 2.408 . S
O631 C619 1.272 . S
H632 C604 0.930 . S
H633 C605 0.929 . S
H634 C607 0.930 . S
H635 C608 0.929 . S
H636 C613 0.930 . S
H637 C614 0.929 . S
H638 C616 0.930 . S
H639 C617 0.929 . S
C640 C641 1.387 . S
C640 H644 0.950 . S
C640 C649 1.390 . S
C641 C640 1.387 . S
C641 C643 1.387 . S
H642 C649 0.950 . S
C643 C641 1.387 . S
C643 C645 1.390 . S
C643 H647 0.950 . S
H644 C640 0.950 . S
C645 C643 1.390 . S
C645 C646 1.387 . S
C645 H648 0.950 . S
C646 C645 1.387 . S
C646 C649 1.387 . S
H647 C643 0.950 . S
H648 C645 0.950 . S
C649 C640 1.390 . S
C649 H642 0.950 . S
C649 C646 1.387 . S
C650 C651 1.387 . S
C650 H654 0.950 . S
C650 C659 1.390 . S
C651 C650 1.387 . S
C651 C653 1.387 . S
H652 C659 0.950 . S
C653 C651 1.387 . S
C653 C655 1.390 . S
C653 H657 0.950 . S
H654 C650 0.950 . S
C655 C653 1.390 . S
C655 C656 1.387 . S
C655 H658 0.950 . S
C656 C655 1.387 . S
C656 C659 1.387 . S
H657 C653 0.950 . S
H658 C655 0.950 . S
C659 C650 1.390 . S
C659 H652 0.950 . S
C659 C656 1.387 . S
C660 C661 1.387 . S
C660 H664 0.950 . S
C660 C669 1.390 . S
C661 C660 1.387 . S
C661 C663 1.387 . S
H662 C669 0.950 . S
C663 C661 1.387 . S
C663 C665 1.390 . S
C663 H667 0.950 . S
H664 C660 0.950 . S
C665 C663 1.390 . S
C665 C666 1.387 . S
C665 H668 0.950 . S
C666 C665 1.387 . S
C666 C669 1.387 . S
H667 C663 0.950 . S
H668 C665 0.950 . S
C669 C660 1.390 . S
C669 H662 0.950 . S
C669 C666 1.387 . S
C670 C671 1.387 . S
C670 H674 0.950 . S
C670 C679 1.390 . S
C671 C670 1.387 . S
C671 C673 1.387 . S
H672 C679 0.950 . S
C673 C671 1.387 . S
C673 C675 1.390 . S
C673 H677 0.950 . S
H674 C670 0.950 . S
C675 C673 1.390 . S
C675 C676 1.387 . S
C675 H678 0.950 . S
C676 C675 1.387 . S
C676 C679 1.387 . S
H677 C673 0.950 . S
H678 C675 0.950 . S
C679 C670 1.390 . S
C679 H672 0.950 . S
C679 C676 1.387 . S
C680 C681 1.387 . S
C680 H684 0.950 . S
C680 C689 1.390 . S
C681 C680 1.387 . S
C681 C683 1.387 . S
H682 C689 0.950 1_556 S
C683 C681 1.387 . S
C683 C685 1.390 . S
C683 H687 0.950 . S
H684 C680 0.950 . S
C685 C683 1.390 . S
C685 C686 1.387 1_554 S
C685 H688 0.950 1_554 S
C686 C685 1.387 1_556 S
C686 C689 1.387 1_556 S
H687 C683 0.950 . S
H688 C685 0.950 1_556 S
C689 C680 1.390 . S
C689 H682 0.950 1_554 S
C689 C686 1.387 1_554 S
C690 C691 1.387 . S
C690 H694 0.950 . S
C690 C699 1.390 . S
C691 C690 1.387 . S
C691 C693 1.387 . S
H692 C699 0.950 . S
C693 C691 1.387 . S
C693 C695 1.390 . S
C693 H697 0.950 . S
H694 C690 0.950 . S
C695 C693 1.390 . S
C695 C696 1.387 . S
C695 H698 0.950 . S
C696 C695 1.387 . S
C696 C699 1.387 . S
H697 C693 0.950 . S
H698 C695 0.950 . S
C699 C690 1.390 . S
C699 H692 0.950 . S
C699 C696 1.387 . S
C700 C701 1.387 . S
C700 H704 0.950 . S
C700 C709 1.390 . S
C701 C700 1.387 . S
C701 C703 1.387 . S
H702 C709 0.950 . S
C703 C701 1.387 . S
C703 C705 1.390 . S
C703 H707 0.950 . S
H704 C700 0.950 . S
C705 C703 1.390 . S
C705 C706 1.387 . S
C705 H708 0.950 . S
C706 C705 1.387 . S
C706 C709 1.387 . S
H707 C703 0.950 . S
H708 C705 0.950 . S
C709 C700 1.390 . S
C709 H702 0.950 . S
C709 C706 1.387 . S
C710 C711 1.387 . S
C710 H714 0.950 . S
C710 C719 1.390 . S
C711 C710 1.387 . S
C711 C713 1.387 . S
H712 C719 0.950 . S
C713 C711 1.387 . S
C713 C715 1.390 . S
C713 H717 0.950 . S
H714 C710 0.950 . S
C715 C713 1.390 . S
C715 C716 1.387 . S
C715 H718 0.950 . S
C716 C715 1.387 . S
C716 C719 1.387 . S
H717 C713 0.950 . S
H718 C715 0.950 . S
C719 C710 1.390 . S
C719 H712 0.950 . S
C719 C716 1.387 . S
C720 C721 1.387 . S
C720 H724 0.950 . S
C720 C729 1.390 . S
C721 C720 1.387 . S
C721 C723 1.387 . S
H722 C729 0.950 . S
C723 C721 1.387 . S
C723 C725 1.390 . S
C723 H727 0.950 . S
H724 C720 0.950 . S
C725 C723 1.390 . S
C725 C726 1.387 . S
C725 H728 0.950 . S
C726 C725 1.387 . S
C726 C729 1.387 . S
H727 C723 0.950 . S
H728 C725 0.950 . S
C729 C720 1.390 . S
C729 H722 0.950 . S
C729 C726 1.387 . S
C730 C731 1.387 . S
C730 H734 0.950 . S
C730 C739 1.390 . S
C731 C730 1.387 . S
C731 C733 1.387 . S
H732 C739 0.950 . S
C733 C731 1.387 . S
C733 C735 1.390 . S
C733 H737 0.950 . S
H734 C730 0.950 . S
C735 C733 1.390 . S
C735 C736 1.387 . S
C735 H738 0.950 . S
C736 C735 1.387 . S
C736 C739 1.387 . S
H737 C733 0.950 . S
H738 C735 0.950 . S
C739 C730 1.390 . S
C739 H732 0.950 . S
C739 C736 1.387 . S
C740 C741 1.387 . S
C740 H744 0.950 . S
C740 C749 1.390 . S
C741 C740 1.387 . S
C741 C743 1.387 1_554 S
H742 C749 0.950 . S
C743 C741 1.387 1_556 S
C743 C745 1.390 . S
C743 H747 0.950 . S
H744 C740 0.950 . S
C745 C743 1.390 . S
C745 C746 1.387 . S
C745 H748 0.950 . S
C746 C745 1.387 . S
C746 C749 1.387 1_556 S
H747 C743 0.950 . S
H748 C745 0.950 . S
C749 C740 1.390 . S
C749 H742 0.950 . S
C749 C746 1.387 1_554 S
C750 C751 1.387 . S
C750 H754 0.950 . S
C750 C759 1.390 . S
C751 C750 1.387 . S
C751 C753 1.387 . S
H752 C759 0.950 . S
C753 C751 1.387 . S
C753 C755 1.390 . S
C753 H757 0.950 . S
H754 C750 0.950 . S
C755 C753 1.390 . S
C755 C756 1.387 . S
C755 H758 0.950 . S
C756 C755 1.387 . S
C756 C759 1.387 . S
H757 C753 0.950 . S
H758 C755 0.950 . S
C759 C750 1.390 . S
C759 H752 0.950 . S
C759 C756 1.387 . S
C760 C761 1.387 . S
C760 H764 0.950 . S
C760 C769 1.390 . S
C761 C760 1.387 . S
C761 C763 1.387 . S
H762 C769 0.950 . S
C763 C761 1.387 . S
C763 C765 1.390 . S
C763 H767 0.950 . S
H764 C760 0.950 . S
C765 C763 1.390 . S
C765 C766 1.387 . S
C765 H768 0.950 . S
C766 C765 1.387 . S
C766 C769 1.387 . S
H767 C763 0.950 . S
H768 C765 0.950 . S
C769 C760 1.390 . S
C769 H762 0.950 . S
C769 C766 1.387 . S
C770 C771 1.387 . S
C770 H774 0.950 . S
C770 C779 1.390 . S
C771 C770 1.387 . S
C771 C773 1.387 . S
H772 C779 0.950 . S
C773 C771 1.387 . S
C773 C775 1.390 . S
C773 H777 0.950 . S
H774 C770 0.950 . S
C775 C773 1.390 . S
C775 C776 1.387 . S
C775 H778 0.950 . S
C776 C775 1.387 . S
C776 C779 1.387 . S
H777 C773 0.950 . S
H778 C775 0.950 . S
C779 C770 1.390 . S
C779 H772 0.950 . S
C779 C776 1.387 . S
C780 C781 1.387 . S
C780 H784 0.950 . S
C780 C789 1.390 . S
C781 C780 1.387 . S
C781 C783 1.387 . S
H782 C789 0.950 . S
C783 C781 1.387 . S
C783 C785 1.390 . S
C783 H787 0.950 . S
H784 C780 0.950 . S
C785 C783 1.390 . S
C785 C786 1.387 . S
C785 H788 0.950 . S
C786 C785 1.387 . S
C786 C789 1.387 . S
H787 C783 0.950 . S
H788 C785 0.950 . S
C789 C780 1.390 . S
C789 H782 0.950 . S
C789 C786 1.387 . S
C790 C791 1.387 . S
C790 H794 0.950 . S
C790 C799 1.390 . S
C791 C790 1.387 . S
C791 C793 1.387 . S
H792 C799 0.950 . S
C793 C791 1.387 . S
C793 C795 1.390 . S
C793 H797 0.950 . S
H794 C790 0.950 . S
C795 C793 1.390 . S
C795 C796 1.387 . S
C795 H798 0.950 . S
C796 C795 1.387 . S
C796 C799 1.387 . S
H797 C793 0.950 . S
H798 C795 0.950 . S
C799 C790 1.390 . S
C799 H792 0.950 . S
C799 C796 1.387 . S
C800 C801 1.387 . S
C800 H804 0.950 . S
C800 C809 1.390 . S
C801 C800 1.387 . S
C801 C803 1.388 1_455 S
H802 C809 0.950 . S
C803 C801 1.388 1_655 S
C803 C805 1.390 . S
C803 H807 0.950 . S
H804 C800 0.950 . S
C805 C803 1.390 . S
C805 C806 1.388 1_655 S
C805 H808 0.950 . S
C806 C805 1.388 1_455 S
C806 C809 1.387 . S
H807 C803 0.950 . S
H808 C805 0.950 . S
C809 C800 1.390 . S
C809 H802 0.950 . S
C809 C806 1.387 . S
C810 C811 1.387 1_455 S
C810 H814 0.950 . S
C810 C819 1.390 . S
C811 C810 1.387 1_655 S
C811 C813 1.390 . S
H812 C819 0.950 . S
C813 C811 1.390 . S
C813 C815 1.384 1_655 S
C813 H817 0.954 . S
H814 C810 0.950 . S
C815 C813 1.384 1_455 S
C815 C816 1.387 . S
C815 H818 0.950 . S
C816 C815 1.387 . S
C816 C819 1.387 . S
H817 C813 0.954 . S
H818 C815 0.950 . S
C819 C810 1.390 . S
C819 H812 0.950 . S
C819 C816 1.387 . S
C820 C821 1.387 . S
C820 H824 0.950 . S
C820 C829 1.390 . S
C821 C820 1.387 . S
C821 C823 1.387 . S
H822 C829 0.950 . S
C823 C821 1.387 . S
C823 C825 1.390 . S
C823 H827 0.950 . S
H824 C820 0.950 . S
C825 C823 1.390 . S
C825 C826 1.387 . S
C825 H828 0.950 . S
C826 C825 1.387 . S
C826 C829 1.387 . S
H827 C823 0.950 . S
H828 C825 0.950 . S
C829 C820 1.390 . S
C829 H822 0.950 . S
C829 C826 1.387 . S
C830 C831 1.387 . S
C830 H834 0.950 . S
C830 C839 1.390 . S
C831 C830 1.387 . S
C831 C833 1.387 . S
H832 C839 0.950 . S
C833 C831 1.387 . S
C833 C835 1.390 . S
C833 H837 0.950 . S
H834 C830 0.950 . S
C835 C833 1.390 . S
C835 C836 1.387 . S
C835 H838 0.950 . S
C836 C835 1.387 . S
C836 C839 1.387 . S
H837 C833 0.950 . S
H838 C835 0.950 . S
C839 C830 1.390 . S
C839 H832 0.950 . S
C839 C836 1.387 . S
C840 C841 1.387 . S
C840 H844 0.950 . S
C840 C849 1.390 . S
C841 C840 1.387 . S
C841 C843 1.387 . S
H842 C849 0.950 . S
C843 C841 1.387 . S
C843 C845 1.390 . S
C843 H847 0.950 . S
H844 C840 0.950 . S
C845 C843 1.390 . S
C845 C846 1.387 . S
C845 H848 0.950 . S
C846 C845 1.387 . S
C846 C849 1.387 . S
H847 C843 0.950 . S
H848 C845 0.950 . S
C849 C840 1.390 . S
C849 H842 0.950 . S
C849 C846 1.387 . S
C850 C851 1.387 . S
C850 H854 0.950 . S
C850 C859 1.390 . S
C851 C850 1.387 . S
C851 C853 1.387 . S
H852 C859 0.950 . S
C853 C851 1.387 . S
C853 C855 1.390 . S
C853 H857 0.950 . S
H854 C850 0.950 . S
C855 C853 1.390 . S
C855 C856 1.387 . S
C855 H858 0.950 . S
C856 C855 1.387 . S
C856 C859 1.387 . S
H857 C853 0.950 . S
H858 C855 0.950 . S
C859 C850 1.390 . S
C859 H852 0.950 . S
C859 C856 1.387 . S
C860 C861 1.387 . S
C860 H864 0.950 . S
C860 C869 1.390 . S
C861 C860 1.387 . S
C861 C863 1.387 . S
H862 C869 0.950 . S
C863 C861 1.387 . S
C863 C865 1.390 . S
C863 H867 0.950 . S
H864 C860 0.950 . S
C865 C863 1.390 . S
C865 C866 1.387 . S
C865 H868 0.950 . S
C866 C865 1.387 . S
C866 C869 1.387 . S
H867 C863 0.950 . S
H868 C865 0.950 . S
C869 C860 1.390 . S
C869 H862 0.950 . S
C869 C866 1.387 . S
C870 C871 1.387 . S
C870 H874 0.950 . S
C870 C879 1.390 . S
C871 C870 1.387 . S
C871 C873 1.387 . S
H872 C879 0.950 1_655 S
C873 C871 1.387 . S
C873 C875 1.390 . S
C873 H877 0.950 . S
H874 C870 0.950 . S
C875 C873 1.390 . S
C875 C876 1.387 1_455 S
C875 H878 0.940 1_455 S
C876 C875 1.387 1_655 S
C876 C879 1.387 1_655 S
H877 C873 0.950 . S
H878 C875 0.940 1_655 S
C879 C870 1.390 . S
C879 H872 0.950 1_455 S
C879 C876 1.387 1_455 S
C880 C881 1.387 1_655 S
C880 H884 0.950 . S
C880 C889 1.385 1_654 S
C881 C880 1.387 1_455 S
C881 C883 1.387 1_565 S
H882 C889 0.950 1_655 S
C883 C881 1.387 1_545 S
C883 C885 1.390 1_554 S
C883 H887 0.950 . S
H884 C880 0.950 . S
C885 C883 1.390 1_556 S
C885 C886 1.387 1_545 S
C885 H888 0.950 . S
C886 C885 1.387 1_565 S
C886 C889 1.393 . S
H887 C883 0.950 . S
H888 C885 0.950 . S
C889 C880 1.385 1_456 S
C889 H882 0.950 1_455 S
C889 C886 1.393 . S
C890 C891 1.387 . S
C890 H894 0.950 . S
C890 C899 1.390 . S
C891 C890 1.387 . S
C891 C893 1.387 . S
H892 C899 0.950 . S
C893 C891 1.387 . S
C893 C895 1.390 . S
C893 H897 0.950 . S
H894 C890 0.950 . S
C895 C893 1.390 . S
C895 C896 1.387 . S
C895 H898 0.950 . S
C896 C895 1.387 . S
C896 C899 1.387 . S
H897 C893 0.950 . S
H898 C895 0.950 . S
C899 C890 1.390 . S
C899 H892 0.950 . S
C899 C896 1.387 . S
C900 C901 1.387 . S
C900 H904 0.950 . S
C900 C909 1.390 . S
C901 C900 1.387 . S
C901 C903 1.387 1_545 S
H902 C909 0.950 . S
C903 C901 1.387 1_565 S
C903 C905 1.390 . S
C903 H907 0.950 . S
H904 C900 0.950 . S
C905 C903 1.390 . S
C905 C906 1.387 . S
C905 H908 0.950 . S
C906 C905 1.387 . S
C906 C909 1.387 1_565 S
H907 C903 0.950 . S
H908 C905 0.950 . S
C909 C900 1.390 . S
C909 H902 0.950 . S
C909 C906 1.387 1_545 S
C910 C911 1.387 . S
C910 H914 0.950 . S
C910 C919 1.390 . S
C911 C910 1.387 . S
C911 C913 1.387 . S
H912 C919 0.950 . S
C913 C911 1.387 . S
C913 C915 1.390 . S
C913 H917 0.950 . S
H914 C910 0.950 . S
C915 C913 1.390 . S
C915 C916 1.387 . S
C915 H918 0.950 . S
C916 C915 1.387 . S
C916 C919 1.387 . S
H917 C913 0.950 . S
H918 C915 0.950 . S
C919 C910 1.390 . S
C919 H912 0.950 . S
C919 C916 1.387 . S
C920 C921 1.387 . S
C920 H924 0.950 . S
C920 C929 1.390 . S
C921 C920 1.387 . S
C921 C923 1.387 . S
H922 C929 0.950 . S
C923 C921 1.387 . S
C923 C925 1.390 . S
C923 H927 0.950 . S
H924 C920 0.950 . S
C925 C923 1.390 . S
C925 C926 1.387 . S
C925 H928 0.950 . S
C926 C925 1.387 . S
C926 C929 1.387 . S
H927 C923 0.950 . S
H928 C925 0.950 . S
C929 C920 1.390 . S
C929 H922 0.950 . S
C929 C926 1.387 . S
C930 C931 1.387 . S
C930 H934 0.950 . S
C930 C939 1.390 . S
C931 C930 1.387 . S
C931 C933 1.387 . S
H932 C939 0.950 . S
C933 C931 1.387 . S
C933 C935 1.390 . S
C933 H937 0.950 . S
H934 C930 0.950 . S
C935 C933 1.390 . S
C935 C936 1.387 . S
C935 H938 0.950 . S
C936 C935 1.387 . S
C936 C939 1.387 . S
H937 C933 0.950 . S
H938 C935 0.950 . S
C939 C930 1.390 . S
C939 H932 0.950 . S
C939 C936 1.387 . S
C940 C941 1.387 . S
C940 H944 0.950 . S
C940 C949 1.390 . S
C941 C940 1.387 . S
C941 C943 1.387 . S
H942 C949 0.950 . S
C943 C941 1.387 . S
C943 C945 1.390 . S
C943 H947 0.950 . S
H944 C940 0.950 . S
C945 C943 1.390 . S
C945 C946 1.387 . S
C945 H948 0.950 . S
C946 C945 1.387 . S
C946 C949 1.387 . S
H947 C943 0.950 . S
H948 C945 0.950 . S
C949 C940 1.390 . S
C949 H942 0.950 . S
C949 C946 1.387 . S
C950 C951 1.387 . S
C950 H954 0.950 . S
C950 C959 1.390 1_556 S
C951 C950 1.387 . S
C951 C953 1.387 . S
H952 C959 0.950 . S
C953 C951 1.387 . S
C953 C955 1.390 1_556 S
C953 H957 0.950 . S
H954 C950 0.950 . S
C955 C953 1.390 1_554 S
C955 C956 1.387 . S
C955 H958 0.950 . S
C956 C955 1.387 . S
C956 C959 1.387 . S
H957 C953 0.950 . S
H958 C955 0.950 . S
C959 C950 1.390 1_554 S
C959 H952 0.950 . S
C959 C956 1.387 . S
C960 C961 1.387 . S
C960 H964 0.950 . S
C960 C969 1.390 . S
C961 C960 1.387 . S
C961 C963 1.387 . S
H962 C969 0.950 . S
C963 C961 1.387 . S
C963 C965 1.390 . S
C963 H967 0.950 . S
H964 C960 0.950 . S
C965 C963 1.390 . S
C965 C966 1.387 . S
C965 H968 0.950 . S
C966 C965 1.387 . S
C966 C969 1.387 . S
H967 C963 0.950 . S
H968 C965 0.950 . S
C969 C960 1.390 . S
C969 H962 0.950 . S
C969 C966 1.387 . S
C970 C971 1.387 . S
C970 H974 0.950 . S
C970 C979 1.390 . S
C971 C970 1.387 . S
C971 C973 1.387 . S
H972 C979 0.950 . S
C973 C971 1.387 . S
C973 C975 1.390 . S
C973 H977 0.950 . S
H974 C970 0.950 . S
C975 C973 1.390 . S
C975 C976 1.387 . S
C975 H978 0.950 . S
C976 C975 1.387 . S
C976 C979 1.387 . S
H977 C973 0.950 . S
H978 C975 0.950 . S
C979 C970 1.390 . S
C979 H972 0.950 . S
C979 C976 1.387 . S
C980 C981 1.387 1_556 S
C980 H984 0.950 . S
C980 C989 1.390 . S
C981 C980 1.387 1_554 S
C981 C983 1.387 . S
H982 C989 0.950 . S
C983 C981 1.387 . S
C983 C985 1.390 1_554 S
C983 H987 0.950 . S
H984 C980 0.950 . S
C985 C983 1.390 1_556 S
C985 C986 1.387 . S
C985 H988 0.950 . S
C986 C985 1.387 . S
C986 C989 1.387 . S
H987 C983 0.950 . S
H988 C985 0.950 . S
C989 C980 1.390 . S
C989 H982 0.950 . S
C989 C986 1.387 . S
C990 C991 1.387 . S
C990 H994 0.950 . S
C990 C999 1.390 . S
C991 C990 1.387 . S
C991 C993 1.387 . S
H992 C999 0.950 . S
C993 C991 1.387 . S
C993 C995 1.390 . S
C993 H997 0.950 . S
H994 C990 0.950 . S
C995 C993 1.390 . S
C995 C996 1.387 . S
C995 H998 0.950 . S
C996 C995 1.387 . S
C996 C999 1.387 . S
H997 C993 0.950 . S
H998 C995 0.950 . S
C999 C990 1.390 . S
C999 H992 0.950 . S
C999 C996 1.387 . S
C1000 C1001 1.387 . S
C1000 H1004 0.950 . S
C1000 C1009 1.390 . S
C1001 C1000 1.387 . S
C1001 C1003 1.387 . S
H1002 C1009 0.950 . S
C1003 C1001 1.387 . S
C1003 C1005 1.390 . S
C1003 H1007 0.950 . S
H1004 C1000 0.950 . S
C1005 C1003 1.390 . S
C1005 C1006 1.387 . S
C1005 H1008 0.950 . S
C1006 C1005 1.387 . S
C1006 C1009 1.387 . S
H1007 C1003 0.950 . S
H1008 C1005 0.950 . S
C1009 C1000 1.390 . S
C1009 H1002 0.950 . S
C1009 C1006 1.387 . S
C1010 C1011 1.387 . S
C1010 H1014 0.950 . S
C1010 C1019 1.390 . S
C1011 C1010 1.387 . S
C1011 C1013 1.387 . S
H1012 C1019 0.950 . S
C1013 C1011 1.387 . S
C1013 C1015 1.390 . S
C1013 H1017 0.950 . S
H1014 C1010 0.950 . S
C1015 C1013 1.390 . S
C1015 C1016 1.387 . S
C1015 H1018 0.950 . S
C1016 C1015 1.387 . S
C1016 C1019 1.387 . S
H1017 C1013 0.950 . S
H1018 C1015 0.950 . S
C1019 C1010 1.390 . S
C1019 H1012 0.950 . S
C1019 C1016 1.387 . S
C1020 C1021 1.387 . S
C1020 H1024 0.950 . S
C1020 C1029 1.390 . S
C1021 C1020 1.387 . S
C1021 C1023 1.387 . S
H1022 C1029 0.950 . S
C1023 C1021 1.387 . S
C1023 C1025 1.390 . S
C1023 H1027 0.950 1_554 S
H1024 C1020 0.950 . S
C1025 C1023 1.390 . S
C1025 C1026 1.387 . S
C1025 H1028 0.950 . S
C1026 C1025 1.387 . S
C1026 C1029 1.387 . S
H1027 C1023 0.950 1_556 S
H1028 C1025 0.950 . S
C1029 C1020 1.390 . S
C1029 H1022 0.950 . S
C1029 C1026 1.387 . S
C1030 C1031 1.387 . S
C1030 H1034 0.950 . S
C1030 C1039 1.390 . S
C1031 C1030 1.387 . S
C1031 C1033 1.387 . S
H1032 C1039 0.950 . S
C1033 C1031 1.387 . S
C1033 C1035 1.390 . S
C1033 H1037 0.950 . S
H1034 C1030 0.950 . S
C1035 C1033 1.390 . S
C1035 C1036 1.387 . S
C1035 H1038 0.950 . S
C1036 C1035 1.387 . S
C1036 C1039 1.387 . S
H1037 C1033 0.950 . S
H1038 C1035 0.950 . S
C1039 C1030 1.390 . S
C1039 H1032 0.950 . S
C1039 C1036 1.387 . S
C1040 C1041 1.387 . S
C1040 H1044 0.950 . S
C1040 C1049 1.390 . S
C1041 C1040 1.387 . S
C1041 C1043 1.387 . S
H1042 C1049 0.950 . S
C1043 C1041 1.387 . S
C1043 C1045 1.390 . S
C1043 H1047 0.950 . S
H1044 C1040 0.950 . S
C1045 C1043 1.390 . S
C1045 C1046 1.387 . S
C1045 H1048 0.950 . S
C1046 C1045 1.387 . S
C1046 C1049 1.387 . S
H1047 C1043 0.950 . S
H1048 C1045 0.950 . S
C1049 C1040 1.390 . S
C1049 H1042 0.950 . S
C1049 C1046 1.387 . S
C1050 C1051 1.387 . S
C1050 H1054 0.950 . S
C1050 C1059 1.390 . S
C1051 C1050 1.387 . S
C1051 C1053 1.387 . S
H1052 C1059 0.950 . S
C1053 C1051 1.387 . S
C1053 C1055 1.390 . S
C1053 H1057 0.950 . S
H1054 C1050 0.950 . S
C1055 C1053 1.390 . S
C1055 C1056 1.387 . S
C1055 H1058 0.950 . S
C1056 C1055 1.387 . S
C1056 C1059 1.387 . S
H1057 C1053 0.950 . S
H1058 C1055 0.950 . S
C1059 C1050 1.390 . S
C1059 H1052 0.950 . S
C1059 C1056 1.387 . S
C1060 C1061 1.387 . S
C1060 H1064 0.950 . S
C1060 C1069 1.390 . S
C1061 C1060 1.387 . S
C1061 C1063 1.387 . S
H1062 C1069 0.950 . S
C1063 C1061 1.387 . S
C1063 C1065 1.390 . S
C1063 H1067 0.950 . S
H1064 C1060 0.950 . S
C1065 C1063 1.390 . S
C1065 C1066 1.387 . S
C1065 H1068 0.950 . S
C1066 C1065 1.387 . S
C1066 C1069 1.387 . S
H1067 C1063 0.950 . S
H1068 C1065 0.950 . S
C1069 C1060 1.390 . S
C1069 H1062 0.950 . S
C1069 C1066 1.387 . S
C1070 C1071 1.387 . S
C1070 H1074 0.950 . S
C1070 C1079 1.390 . S
C1071 C1070 1.387 . S
C1071 C1073 1.387 . S
H1072 C1079 0.950 . S
C1073 C1071 1.387 . S
C1073 C1075 1.390 . S
C1073 H1077 0.950 . S
H1074 C1070 0.950 . S
C1075 C1073 1.390 . S
C1075 C1076 1.387 . S
C1075 H1078 0.950 . S
C1076 C1075 1.387 . S
C1076 C1079 1.387 . S
H1077 C1073 0.950 . S
H1078 C1075 0.950 . S
C1079 C1070 1.390 . S
C1079 H1072 0.950 . S
C1079 C1076 1.387 . S
C1080 C1081 1.387 . S
C1080 H1084 0.950 . S
C1080 C1089 1.390 . S
C1081 C1080 1.387 . S
C1081 C1083 1.387 . S
H1082 C1089 0.950 . S
C1083 C1081 1.387 . S
C1083 C1085 1.390 1_554 S
C1083 H1087 0.950 . S
H1084 C1080 0.950 . S
C1085 C1083 1.390 1_556 S
C1085 C1086 1.387 . S
C1085 H1088 0.950 . S
C1086 C1085 1.387 . S
C1086 C1089 1.387 1_556 S
H1087 C1083 0.950 . S
H1088 C1085 0.950 . S
C1089 C1080 1.390 . S
C1089 H1082 0.950 . S
C1089 C1086 1.387 1_554 S
C1090 C1091 1.387 . S
C1090 H1094 0.950 . S
C1090 C1099 1.390 . S
C1091 C1090 1.387 . S
C1091 C1093 1.387 . S
H1092 C1099 0.950 . S
C1093 C1091 1.387 . S
C1093 C1095 1.390 . S
C1093 H1097 0.950 . S
H1094 C1090 0.950 . S
C1095 C1093 1.390 . S
C1095 C1096 1.387 . S
C1095 H1098 0.950 . S
C1096 C1095 1.387 . S
C1096 C1099 1.387 . S
H1097 C1093 0.950 . S
H1098 C1095 0.950 . S
C1099 C1090 1.390 . S
C1099 H1092 0.950 . S
C1099 C1096 1.387 . S
C1100 C1101 1.387 . S
C1100 H1104 0.950 . S
C1100 C1109 1.390 . S
C1101 C1100 1.387 . S
C1101 C1103 1.387 . S
H1102 C1109 0.950 . S
C1103 C1101 1.387 . S
C1103 C1105 1.390 . S
C1103 H1107 0.950 . S
H1104 C1100 0.950 . S
C1105 C1103 1.390 . S
C1105 C1106 1.387 . S
C1105 H1108 0.950 . S
C1106 C1105 1.387 . S
C1106 C1109 1.387 . S
H1107 C1103 0.950 . S
H1108 C1105 0.950 . S
C1109 C1100 1.390 . S
C1109 H1102 0.950 . S
C1109 C1106 1.387 . S
C1110 C1111 1.387 . S
C1110 H1114 0.950 . S
C1110 C1119 1.390 . S
C1111 C1110 1.387 . S
C1111 C1113 1.387 . S
H1112 C1119 0.950 . S
C1113 C1111 1.387 . S
C1113 C1115 1.390 . S
C1113 H1117 0.950 . S
H1114 C1110 0.950 . S
C1115 C1113 1.390 . S
C1115 C1116 1.387 . S
C1115 H1118 0.950 . S
C1116 C1115 1.387 . S
C1116 C1119 1.387 . S
H1117 C1113 0.950 . S
H1118 C1115 0.950 . S
C1119 C1110 1.390 . S
C1119 H1112 0.950 . S
C1119 C1116 1.387 . S
C641 C6 1.174 . S
C646 C286 1.342 . S
C651 C59 1.175 . S
C656 C166 1.120 . S
C661 C206 0.829 . S
C666 C99 0.468 . S
C671 C139 1.075 . S
C676 C246 1.032 . S
C681 C455 1.032 . S
C686 C170 1.068 . S
C691 C330 2.895 . S
C696 C10 2.801 1_556 S
C701 C415 1.094 . S
C706 C250 1.144 . S
C711 C95 2.042 . S
C716 C370 2.025 . S
C721 C366 1.343 . S
C726 C486 1.179 . S
C731 C419 1.175 . S
C736 C566 1.120 . S
C741 C539 0.461 . S
C746 C326 0.826 . S
C751 C459 1.077 . S
C756 C606 1.035 . S
C761 C570 1.066 . S
C766 C135 1.027 . S
C771 C490 2.800 . S
C776 C210 2.896 . S
C781 C55 1.094 . S
C786 C610 1.144 1_554 S
C791 C290 2.026 . S
C796 C535 2.041 . S
C801 C538 0.943 . S
C806 C9 0.949 . S
C811 C458 0.779 . S
C816 C58 0.776 . S
C821 C489 0.946 . S
C826 C98 0.943 . S
C831 C418 0.784 . S
C836 C138 0.782 . S
C841 C169 0.764 . S
C846 C609 0.763 . S
C851 C369 1.363 . S
C856 C209 1.656 . S
C861 C249 0.769 . S
C866 C569 0.769 . S
C871 C289 1.368 . S
C876 C329 1.658 . S
C881 C18 1.956 1_465 S
C886 C178 1.917 . S
C891 C49 1.778 . S
C896 C218 1.816 . S
C901 C258 1.979 . S
C906 C89 1.987 . S
C911 C129 2.202 . S
C916 C298 2.158 . S
C921 C409 1.780 . S
C926 C338 1.818 . S
C931 C449 2.202 . S
C936 C378 2.158 . S
C941 C498 1.955 . S
C946 C578 1.919 . S
C951 C618 1.976 . S
C956 C529 1.984 . S
C961 C19 3.688 . S
C966 C299 3.712 . S
C971 C46 2.082 . S
C976 C179 2.211 . S
C981 C219 2.965 . S
C986 C86 2.885 . S
C991 C259 2.183 . S
C996 C126 2.046 . S
C1001 C450 2.164 . S
C1006 C175 2.038 . S
C1011 C335 0.826 . S
C1016 C15 0.828 . S
C1021 C410 2.172 1_554 S
C1026 C255 2.046 . S
C1031 C90 1.162 . S
C1036 C375 1.079 . S
C1041 C499 3.689 . S
C1046 C379 3.701 1_556 S
C1051 C579 2.211 . S
C1056 C406 2.081 . S
C1061 C526 2.883 . S
C1066 C339 2.965 . S
C1071 C619 2.183 . S
C1076 C446 2.046 . S
C1081 C575 2.040 . S
C1086 C130 2.165 . S
C1091 C215 0.832 . S
C1096 C495 0.826 . S
C1101 C50 2.173 . S
C1106 C615 2.049 . S
C1111 C530 1.163 . S
C1116 C295 1.079 . S
