# Generated by pormake.
# Topology mer, (4)-cn, num edge types: 1
# Building blocks:
#     Node 0, Type 0, BuildingBlock: NAHDIM_clean_sbu_0, # of connection points: 4
#     Node 1, Type 0, BuildingBlock: NAHDIM_clean_sbu_0, # of connection points: 4
#     Node 2, Type 0, BuildingBlock: NAHDIM_clean_sbu_0, # of connection points: 4
#     Node 3, Type 0, BuildingBlock: NAHDIM_clean_sbu_0, # of connection points: 4
#     Node 4, Type 0, BuildingBlock: NAHDIM_clean_sbu_0, # of connection points: 4
#     Node 5, Type 0, BuildingBlock: NAHDIM_clean_sbu_0, # of connection points: 4
#     Node 6, Type 0, BuildingBlock: NAHDIM_clean_sbu_0, # of connection points: 4
#     Node 7, Type 0, BuildingBlock: NAHDIM_clean_sbu_0, # of connection points: 4
#     Node 8, Type 0, BuildingBlock: NAHDIM_clean_sbu_0, # of connection points: 4
#     Node 9, Type 0, BuildingBlock: NAHDIM_clean_sbu_0, # of connection points: 4
#     Node 10, Type 0, BuildingBlock: NAHDIM_clean_sbu_0, # of connection points: 4
#     Node 11, Type 0, BuildingBlock: NAHDIM_clean_sbu_0, # of connection points: 4
#     Node 12, Type 0, BuildingBlock: NAHDIM_clean_sbu_0, # of connection points: 4
#     Node 13, Type 0, BuildingBlock: NAHDIM_clean_sbu_0, # of connection points: 4
#     Node 14, Type 0, BuildingBlock: NAHDIM_clean_sbu_0, # of connection points: 4
#     Node 15, Type 0, BuildingBlock: NAHDIM_clean_sbu_0, # of connection points: 4
#     Node 16, Type 0, BuildingBlock: NAHDIM_clean_sbu_0, # of connection points: 4
#     Node 17, Type 0, BuildingBlock: NAHDIM_clean_sbu_0, # of connection points: 4
#     Node 18, Type 0, BuildingBlock: NAHDIM_clean_sbu_0, # of connection points: 4
#     Node 19, Type 0, BuildingBlock: NAHDIM_clean_sbu_0, # of connection points: 4
#     Node 20, Type 0, BuildingBlock: NAHDIM_clean_sbu_0, # of connection points: 4
#     Node 21, Type 0, BuildingBlock: NAHDIM_clean_sbu_0, # of connection points: 4
#     Node 22, Type 0, BuildingBlock: NAHDIM_clean_sbu_0, # of connection points: 4
#     Node 23, Type 0, BuildingBlock: NAHDIM_clean_sbu_0, # of connection points: 4
#     Node 24, Type 0, BuildingBlock: NAHDIM_clean_sbu_0, # of connection points: 4
#     Node 25, Type 0, BuildingBlock: NAHDIM_clean_sbu_0, # of connection points: 4
#     Node 26, Type 0, BuildingBlock: NAHDIM_clean_sbu_0, # of connection points: 4
#     Node 27, Type 0, BuildingBlock: NAHDIM_clean_sbu_0, # of connection points: 4
#     Node 28, Type 0, BuildingBlock: NAHDIM_clean_sbu_0, # of connection points: 4
#     Node 29, Type 0, BuildingBlock: NAHDIM_clean_sbu_0, # of connection points: 4
#     Node 30, Type 0, BuildingBlock: NAHDIM_clean_sbu_0, # of connection points: 4
#     Node 31, Type 0, BuildingBlock: NAHDIM_clean_sbu_0, # of connection points: 4
#     Edge 32, Type (0, 0), BuildingBlock: KIFKEQ_clean_linker_1, # of connection points: 2
#     Edge 33, Type (0, 0), BuildingBlock: KIFKEQ_clean_linker_1, # of connection points: 2
#     Edge 34, Type (0, 0), BuildingBlock: KIFKEQ_clean_linker_1, # of connection points: 2
#     Edge 35, Type (0, 0), BuildingBlock: KIFKEQ_clean_linker_1, # of connection points: 2
#     Edge 36, Type (0, 0), BuildingBlock: KIFKEQ_clean_linker_1, # of connection points: 2
#     Edge 37, Type (0, 0), BuildingBlock: KIFKEQ_clean_linker_1, # of connection points: 2
#     Edge 38, Type (0, 0), BuildingBlock: KIFKEQ_clean_linker_1, # of connection points: 2
#     Edge 39, Type (0, 0), BuildingBlock: KIFKEQ_clean_linker_1, # of connection points: 2
#     Edge 40, Type (0, 0), BuildingBlock: KIFKEQ_clean_linker_1, # of connection points: 2
#     Edge 41, Type (0, 0), BuildingBlock: KIFKEQ_clean_linker_1, # of connection points: 2
#     Edge 42, Type (0, 0), BuildingBlock: KIFKEQ_clean_linker_1, # of connection points: 2
#     Edge 43, Type (0, 0), BuildingBlock: KIFKEQ_clean_linker_1, # of connection points: 2
#     Edge 44, Type (0, 0), BuildingBlock: KIFKEQ_clean_linker_1, # of connection points: 2
#     Edge 45, Type (0, 0), BuildingBlock: KIFKEQ_clean_linker_1, # of connection points: 2
#     Edge 46, Type (0, 0), BuildingBlock: KIFKEQ_clean_linker_1, # of connection points: 2
#     Edge 47, Type (0, 0), BuildingBlock: KIFKEQ_clean_linker_1, # of connection points: 2
#     Edge 48, Type (0, 0), BuildingBlock: KIFKEQ_clean_linker_1, # of connection points: 2
#     Edge 49, Type (0, 0), BuildingBlock: KIFKEQ_clean_linker_1, # of connection points: 2
#     Edge 50, Type (0, 0), BuildingBlock: KIFKEQ_clean_linker_1, # of connection points: 2
#     Edge 51, Type (0, 0), BuildingBlock: KIFKEQ_clean_linker_1, # of connection points: 2
#     Edge 52, Type (0, 0), BuildingBlock: KIFKEQ_clean_linker_1, # of connection points: 2
#     Edge 53, Type (0, 0), BuildingBlock: KIFKEQ_clean_linker_1, # of connection points: 2
#     Edge 54, Type (0, 0), BuildingBlock: KIFKEQ_clean_linker_1, # of connection points: 2
#     Edge 55, Type (0, 0), BuildingBlock: KIFKEQ_clean_linker_1, # of connection points: 2
#     Edge 56, Type (0, 0), BuildingBlock: KIFKEQ_clean_linker_1, # of connection points: 2
#     Edge 57, Type (0, 0), BuildingBlock: KIFKEQ_clean_linker_1, # of connection points: 2
#     Edge 58, Type (0, 0), BuildingBlock: KIFKEQ_clean_linker_1, # of connection points: 2
#     Edge 59, Type (0, 0), BuildingBlock: KIFKEQ_clean_linker_1, # of connection points: 2
#     Edge 60, Type (0, 0), BuildingBlock: KIFKEQ_clean_linker_1, # of connection points: 2
#     Edge 61, Type (0, 0), BuildingBlock: KIFKEQ_clean_linker_1, # of connection points: 2
#     Edge 62, Type (0, 0), BuildingBlock: KIFKEQ_clean_linker_1, # of connection points: 2
#     Edge 63, Type (0, 0), BuildingBlock: KIFKEQ_clean_linker_1, # of connection points: 2
#     Edge 64, Type (0, 0), BuildingBlock: KIFKEQ_clean_linker_1, # of connection points: 2
#     Edge 65, Type (0, 0), BuildingBlock: KIFKEQ_clean_linker_1, # of connection points: 2
#     Edge 66, Type (0, 0), BuildingBlock: KIFKEQ_clean_linker_1, # of connection points: 2
#     Edge 67, Type (0, 0), BuildingBlock: KIFKEQ_clean_linker_1, # of connection points: 2
#     Edge 68, Type (0, 0), BuildingBlock: KIFKEQ_clean_linker_1, # of connection points: 2
#     Edge 69, Type (0, 0), BuildingBlock: KIFKEQ_clean_linker_1, # of connection points: 2
#     Edge 70, Type (0, 0), BuildingBlock: KIFKEQ_clean_linker_1, # of connection points: 2
#     Edge 71, Type (0, 0), BuildingBlock: KIFKEQ_clean_linker_1, # of connection points: 2
#     Edge 72, Type (0, 0), BuildingBlock: KIFKEQ_clean_linker_1, # of connection points: 2
#     Edge 73, Type (0, 0), BuildingBlock: KIFKEQ_clean_linker_1, # of connection points: 2
#     Edge 74, Type (0, 0), BuildingBlock: KIFKEQ_clean_linker_1, # of connection points: 2
#     Edge 75, Type (0, 0), BuildingBlock: KIFKEQ_clean_linker_1, # of connection points: 2
#     Edge 76, Type (0, 0), BuildingBlock: KIFKEQ_clean_linker_1, # of connection points: 2
#     Edge 77, Type (0, 0), BuildingBlock: KIFKEQ_clean_linker_1, # of connection points: 2
#     Edge 78, Type (0, 0), BuildingBlock: KIFKEQ_clean_linker_1, # of connection points: 2
#     Edge 79, Type (0, 0), BuildingBlock: KIFKEQ_clean_linker_1, # of connection points: 2
#     Edge 80, Type (0, 0), BuildingBlock: KIFKEQ_clean_linker_1, # of connection points: 2
#     Edge 81, Type (0, 0), BuildingBlock: KIFKEQ_clean_linker_1, # of connection points: 2
#     Edge 82, Type (0, 0), BuildingBlock: KIFKEQ_clean_linker_1, # of connection points: 2
#     Edge 83, Type (0, 0), BuildingBlock: KIFKEQ_clean_linker_1, # of connection points: 2
#     Edge 84, Type (0, 0), BuildingBlock: KIFKEQ_clean_linker_1, # of connection points: 2
#     Edge 85, Type (0, 0), BuildingBlock: KIFKEQ_clean_linker_1, # of connection points: 2
#     Edge 86, Type (0, 0), BuildingBlock: KIFKEQ_clean_linker_1, # of connection points: 2
#     Edge 87, Type (0, 0), BuildingBlock: KIFKEQ_clean_linker_1, # of connection points: 2
#     Edge 88, Type (0, 0), BuildingBlock: KIFKEQ_clean_linker_1, # of connection points: 2
#     Edge 89, Type (0, 0), BuildingBlock: KIFKEQ_clean_linker_1, # of connection points: 2
#     Edge 90, Type (0, 0), BuildingBlock: KIFKEQ_clean_linker_1, # of connection points: 2
#     Edge 91, Type (0, 0), BuildingBlock: KIFKEQ_clean_linker_1, # of connection points: 2
#     Edge 92, Type (0, 0), BuildingBlock: KIFKEQ_clean_linker_1, # of connection points: 2
#     Edge 93, Type (0, 0), BuildingBlock: KIFKEQ_clean_linker_1, # of connection points: 2
#     Edge 94, Type (0, 0), BuildingBlock: KIFKEQ_clean_linker_1, # of connection points: 2
#     Edge 95, Type (0, 0), BuildingBlock: KIFKEQ_clean_linker_1, # of connection points: 2
# Relax obj value: 0.160
# Max RMSD: 0.165
# Mean RMSD: 0.153
data_MOF--net-mer--node1-NAHDIM_clean_sbu_0--edge1-KIFKEQ_clean_linker_1
_symmetry_space_group_name_H-M    P1
_symmetry_Int_Tables_number       1
_symmetry_cell_setting            triclinic
loop_
_symmetry_equiv_pos_as_xyz
'x, y, z'
_cell_length_a     70.637363
_cell_length_b     68.958676
_cell_length_c     44.9844
_cell_angle_alpha  89.976764
_cell_angle_beta   90.020832
_cell_angle_gamma 90.017246
loop_
_atom_site_label
_atom_site_type_symbol
_atom_site_fract_x
_atom_site_fract_y
_atom_site_fract_z
_atom_type_partial_charge
C0 C 0.06392 0.24068 0.30585 0.0
O1 O 0.07505 0.2478 0.28515 0.0
O2 O 0.10957 0.2601 0.31593 0.0
Zn3 Zn 0.09868 0.238 0.33939 0.0
O4 O 0.10187 0.2435 0.38313 0.0
C5 C 0.11731 0.20906 0.30286 0.0
O6 O 0.11196 0.22019 0.28069 0.0
O7 O 0.07103 0.23524 0.33043 0.0
C8 C 0.11555 0.23628 0.39781 0.0
O9 O 0.12782 0.22508 0.38416 0.0
C10 C 0.12688 0.26451 0.31946 0.0
O11 O 0.13712 0.25456 0.33847 0.0
O12 O 0.11267 0.21361 0.32922 0.0
C13 C 0.69279 0.12098 0.30018 0.0
O14 O 0.70427 0.11041 0.2839 0.0
O15 O 0.71974 0.08191 0.33174 0.0
Zn16 Zn 0.71942 0.10992 0.34388 0.0
O17 O 0.742 0.12428 0.32809 0.0
C18 C 0.70708 0.10516 0.40522 0.0
O19 O 0.69186 0.09743 0.39331 0.0
O20 O 0.69613 0.12276 0.32779 0.0
C21 C 0.75784 0.12326 0.34138 0.0
O22 O 0.75948 0.1119 0.3647 0.0
C23 C 0.73131 0.07466 0.3132 0.0
O24 O 0.7441 0.08583 0.3007 0.0
O25 O 0.7201 0.11154 0.3884 0.0
C26 C 0.92665 0.75234 0.29925 0.0
O27 O 0.91585 0.7589 0.2777 0.0
O28 O 0.88237 0.7154 0.30957 0.0
Zn29 Zn 0.89126 0.74033 0.32798 0.0
O30 O 0.88655 0.73884 0.37192 0.0
C31 C 0.85994 0.76034 0.3012 0.0
O32 O 0.85316 0.74264 0.29961 0.0
O33 O 0.91913 0.74408 0.32156 0.0
C34 C 0.89556 0.75005 0.38929 0.0
O35 O 0.90778 0.7624 0.37801 0.0
C36 C 0.88837 0.70878 0.28498 0.0
O37 O 0.90154 0.71829 0.27042 0.0
O38 O 0.87639 0.76297 0.31193 0.0
C39 C 0.29862 0.85614 0.29525 0.0
O40 O 0.28256 0.86002 0.28177 0.0
O41 O 0.281 0.90465 0.32817 0.0
Zn42 Zn 0.28008 0.87684 0.34119 0.0
O43 O 0.25535 0.86449 0.32973 0.0
C44 C 0.27789 0.8893 0.40211 0.0
O45 O 0.27179 0.90534 0.38961 0.0
O46 O 0.30117 0.86218 0.32162 0.0
C47 C 0.23944 0.87123 0.33789 0.0
O48 O 0.23893 0.88713 0.35395 0.0
C49 C 0.27167 0.91138 0.30633 0.0
O50 O 0.26083 0.89972 0.2907 0.0
O51 O 0.28266 0.87511 0.38571 0.0
C52 C 0.0577 0.74273 0.70878 0.0
O53 O 0.06599 0.72585 0.7123 0.0
O54 O 0.10806 0.73369 0.70174 0.0
Zn55 Zn 0.09303 0.75385 0.68003 0.0
O56 O 0.09268 0.74716 0.63654 0.0
C57 C 0.11446 0.78369 0.70905 0.0
O58 O 0.1127 0.77195 0.7319 0.0
O59 O 0.06659 0.75641 0.69598 0.0
C60 C 0.10851 0.74728 0.62309 0.0
O61 O 0.1239 0.75148 0.63818 0.0
C62 C 0.10781 0.71577 0.69519 0.0
O63 O 0.09651 0.70957 0.67401 0.0
O64 O 0.10666 0.77919 0.68455 0.0
C65 C 0.31122 0.11685 0.69601 0.0
O66 O 0.30186 0.10411 0.71197 0.0
O67 O 0.2783 0.08192 0.66676 0.0
Zn68 Zn 0.28106 0.10974 0.65429 0.0
O69 O 0.25937 0.12541 0.67024 0.0
C70 C 0.27355 0.09784 0.59401 0.0
O71 O 0.26664 0.08253 0.6076 0.0
O72 O 0.30523 0.12114 0.67019 0.0
C73 C 0.24255 0.12243 0.66137 0.0
O74 O 0.23934 0.10862 0.64191 0.0
C75 C 0.26944 0.07631 0.6898 0.0
O76 O 0.26197 0.08922 0.70777 0.0
O77 O 0.28074 0.11143 0.60942 0.0
C78 C 0.93227 0.24055 0.70289 0.0
O79 O 0.92253 0.25524 0.71341 0.0
O80 O 0.88468 0.25393 0.69245 0.0
Zn81 Zn 0.89747 0.23193 0.67111 0.0
O82 O 0.8968 0.23691 0.62701 0.0
C83 C 0.87501 0.20483 0.70441 0.0
O84 O 0.87732 0.21776 0.72554 0.0
O85 O 0.92442 0.22883 0.68489 0.0
C86 C 0.88127 0.24197 0.61499 0.0
O87 O 0.86616 0.2439 0.63175 0.0
C88 C 0.88586 0.2715 0.68419 0.0
O89 O 0.8961 0.27592 0.66077 0.0
O90 O 0.88281 0.20759 0.67931 0.0
C91 C 0.67885 0.87329 0.68447 0.0
O92 O 0.67561 0.89203 0.68586 0.0
O93 O 0.71238 0.91132 0.66667 0.0
Zn94 Zn 0.71466 0.8834 0.65487 0.0
O95 O 0.73905 0.87258 0.6703 0.0
C96 C 0.71955 0.89506 0.59375 0.0
O97 O 0.72436 0.91159 0.60613 0.0
O98 O 0.69389 0.86717 0.67217 0.0
C99 C 0.75509 0.88028 0.66548 0.0
O100 O 0.75605 0.89641 0.65 0.0
C101 C 0.71593 0.91744 0.69271 0.0
O102 O 0.7206 0.90498 0.71357 0.0
O103 O 0.71462 0.88095 0.61023 0.0
C104 C 0.91732 0.75219 0.71027 0.0
O105 O 0.90628 0.73986 0.72424 0.0
O106 O 0.86974 0.7384 0.69221 0.0
Zn107 Zn 0.88485 0.75891 0.6712 0.0
O108 O 0.88788 0.75242 0.62804 0.0
C109 C 0.86287 0.78969 0.6974 0.0
O110 O 0.8647 0.77921 0.72163 0.0
O111 O 0.91082 0.76177 0.68841 0.0
C112 C 0.87377 0.75174 0.61056 0.0
O113 O 0.85669 0.75458 0.62128 0.0
C114 C 0.86907 0.72082 0.68382 0.0
O115 O 0.87906 0.71534 0.66067 0.0
O116 O 0.87075 0.78403 0.67357 0.0
C117 C 0.25658 0.93219 0.71236 0.0
O118 O 0.2645 0.92265 0.73437 0.0
O119 O 0.27312 0.88286 0.71035 0.0
Zn120 Zn 0.25502 0.89482 0.68128 0.0
O121 O 0.26502 0.89273 0.63962 0.0
C122 C 0.22002 0.88074 0.7067 0.0
O123 O 0.2257 0.89034 0.7303 0.0
O124 O 0.25136 0.9231 0.68922 0.0
C125 C 0.26272 0.87775 0.62358 0.0
O126 O 0.25414 0.86253 0.63486 0.0
C127 C 0.29088 0.88262 0.70591 0.0
O128 O 0.29774 0.89076 0.68179 0.0
O129 O 0.2302 0.8809 0.68343 0.0
C130 C 0.07356 0.24148 0.71428 0.0
O131 O 0.08294 0.25179 0.73392 0.0
O132 O 0.11717 0.26653 0.70065 0.0
Zn133 Zn 0.10853 0.24234 0.67966 0.0
O134 O 0.10865 0.24611 0.63536 0.0
C135 C 0.14324 0.22353 0.69585 0.0
O136 O 0.1489 0.24159 0.69869 0.0
O137 O 0.08189 0.23578 0.69085 0.0
C138 C 0.12369 0.24857 0.62037 0.0
O139 O 0.14005 0.2494 0.63421 0.0
C140 C 0.11764 0.28309 0.68826 0.0
O141 O 0.11164 0.28494 0.66076 0.0
O142 O 0.12611 0.22017 0.68889 0.0
C143 C 0.72385 0.06216 0.71695 0.0
O144 O 0.71471 0.07182 0.73761 0.0
O145 O 0.71265 0.11391 0.71497 0.0
Zn146 Zn 0.73003 0.09979 0.68723 0.0
O147 O 0.72128 0.10302 0.64501 0.0
C148 C 0.76554 0.11284 0.71365 0.0
O149 O 0.75872 0.10557 0.73843 0.0
O150 O 0.73129 0.07126 0.69536 0.0
C151 C 0.73262 0.09675 0.6253 0.0
O152 O 0.74865 0.08884 0.6338 0.0
C153 C 0.69474 0.11257 0.71364 0.0
O154 O 0.68702 0.10085 0.69404 0.0
O155 O 0.75586 0.11166 0.68993 0.0
C156 C 0.92333 0.25768 0.30731 0.0
O157 O 0.9166 0.27518 0.3028 0.0
O158 O 0.87616 0.27397 0.30997 0.0
Zn159 Zn 0.8862 0.25072 0.33201 0.0
O160 O 0.88655 0.25516 0.37632 0.0
C161 C 0.8529 0.22935 0.3142 0.0
O162 O 0.84636 0.2468 0.30857 0.0
O163 O 0.91275 0.24488 0.31902 0.0
C164 C 0.87177 0.25252 0.39193 0.0
O165 O 0.85588 0.24771 0.37867 0.0
C166 C 0.87275 0.29028 0.32195 0.0
O167 O 0.87606 0.29267 0.35045 0.0
O168 O 0.86974 0.22747 0.32377 0.0
C169 C 0.72654 0.93001 0.29345 0.0
O170 O 0.70996 0.92141 0.29453 0.0
O171 O 0.71663 0.88029 0.28757 0.0
Zn172 Zn 0.73783 0.89236 0.31104 0.0
O173 O 0.73115 0.89247 0.35459 0.0
C174 C 0.76481 0.86722 0.28164 0.0
O175 O 0.75249 0.86794 0.25978 0.0
O176 O 0.74133 0.92011 0.29878 0.0
C177 C 0.73712 0.87965 0.37263 0.0
O178 O 0.74771 0.86543 0.36261 0.0
C179 C 0.71067 0.86349 0.29435 0.0
O180 O 0.71846 0.8543 0.31681 0.0
O181 O 0.76175 0.877 0.30509 0.0
C182 C 0.06847 0.75588 0.30464 0.0
O183 O 0.07858 0.746 0.28539 0.0
O184 O 0.11338 0.73341 0.3171 0.0
Zn185 Zn 0.1024 0.75492 0.34191 0.0
O186 O 0.10104 0.74763 0.38509 0.0
C187 C 0.12772 0.78288 0.31507 0.0
O188 O 0.12492 0.7725 0.29098 0.0
O189 O 0.07599 0.7613 0.32891 0.0
C190 C 0.11528 0.7419 0.39994 0.0
O191 O 0.13162 0.73966 0.38642 0.0
C192 C 0.11264 0.71555 0.32396 0.0
O193 O 0.1041 0.71028 0.34861 0.0
O194 O 0.11919 0.77828 0.33889 0.0
C195 C 0.26956 0.05617 0.29423 0.0
O196 O 0.28533 0.06603 0.29763 0.0
O197 O 0.27372 0.10745 0.28889 0.0
Zn198 Zn 0.25409 0.09242 0.31176 0.0
O199 O 0.26005 0.09255 0.35549 0.0
C200 C 0.22512 0.11594 0.28417 0.0
O201 O 0.2385 0.11935 0.26457 0.0
O202 O 0.25384 0.0647 0.29833 0.0
C203 C 0.25749 0.10745 0.37161 0.0
O204 O 0.25101 0.12342 0.35934 0.0
C205 C 0.2894 0.11298 0.29985 0.0
O206 O 0.2935 0.10865 0.32756 0.0
O207 O 0.22848 0.10455 0.30576 0.0
C208 C 0.55784 0.73869 0.78543 0.0
O209 O 0.56713 0.74927 0.76603 0.0
O210 O 0.60456 0.75638 0.78909 0.0
Zn211 Zn 0.59449 0.73462 0.81419 0.0
O212 O 0.5981 0.74133 0.8574 0.0
C213 C 0.61781 0.70749 0.78137 0.0
O214 O 0.61737 0.72101 0.7608 0.0
O215 O 0.56673 0.73092 0.8069 0.0
C216 C 0.61304 0.73659 0.87137 0.0
O217 O 0.6265 0.7272 0.85725 0.0
C218 C 0.60369 0.77394 0.7975 0.0
O219 O 0.59595 0.77807 0.82328 0.0
O220 O 0.60867 0.71001 0.80537 0.0
C221 C 0.20549 0.63069 0.79162 0.0
O222 O 0.22316 0.63212 0.78278 0.0
O223 O 0.2268 0.58124 0.82637 0.0
Zn224 Zn 0.22315 0.60904 0.83808 0.0
O225 O 0.24681 0.62415 0.82948 0.0
C226 C 0.221 0.59735 0.89986 0.0
O227 O 0.22788 0.58101 0.88945 0.0
O228 O 0.20171 0.62095 0.81487 0.0
C229 C 0.26108 0.62459 0.84661 0.0
O230 O 0.26097 0.61418 0.87108 0.0
C231 C 0.22548 0.57523 0.79976 0.0
O232 O 0.2215 0.58758 0.77843 0.0
O233 O 0.2176 0.61118 0.88195 0.0
C234 C 0.43444 0.25239 0.79238 0.0
O235 O 0.4243 0.24589 0.77 0.0
O236 O 0.3898 0.22802 0.80016 0.0
Zn237 Zn 0.39923 0.24974 0.82572 0.0
O238 O 0.39668 0.24267 0.86879 0.0
C239 C 0.37621 0.2767 0.79278 0.0
O240 O 0.38081 0.26547 0.77032 0.0
O241 O 0.42652 0.2553 0.81734 0.0
C242 C 0.3814 0.23573 0.87923 0.0
O243 O 0.3671 0.23254 0.86121 0.0
C244 C 0.39441 0.21038 0.80377 0.0
O245 O 0.40624 0.20571 0.82515 0.0
O246 O 0.38302 0.27311 0.81834 0.0
C247 C 0.803 0.36731 0.79076 0.0
O248 O 0.79089 0.37762 0.77521 0.0
O249 O 0.78128 0.4095 0.82606 0.0
Zn250 Zn 0.78006 0.3814 0.83797 0.0
O251 O 0.75576 0.36904 0.82464 0.0
C252 C 0.77655 0.39269 0.89942 0.0
O253 O 0.77072 0.409 0.88739 0.0
O254 O 0.80145 0.36691 0.81889 0.0
C255 C 0.73971 0.37478 0.83384 0.0
O256 O 0.73882 0.38977 0.85178 0.0
C257 C 0.77145 0.41692 0.8053 0.0
O258 O 0.75972 0.4059 0.79018 0.0
O259 O 0.78167 0.37886 0.88258 0.0
C260 C 0.55648 0.24283 0.20693 0.0
O261 O 0.5653 0.22792 0.2187 0.0
O262 O 0.60497 0.22913 0.20161 0.0
Zn263 Zn 0.59241 0.24982 0.17713 0.0
O264 O 0.59322 0.2422 0.13407 0.0
C265 C 0.61684 0.27864 0.20389 0.0
O266 O 0.6167 0.26665 0.22658 0.0
O267 O 0.56537 0.25401 0.18932 0.0
C268 C 0.60925 0.24129 0.12132 0.0
O269 O 0.62459 0.24485 0.13691 0.0
C270 C 0.60404 0.2113 0.19465 0.0
O271 O 0.59418 0.20611 0.17119 0.0
O272 O 0.60708 0.27462 0.18098 0.0
C273 C 0.80221 0.61262 0.19021 0.0
O274 O 0.79577 0.59711 0.20378 0.0
O275 O 0.76617 0.58003 0.16218 0.0
Zn276 Zn 0.7692 0.60811 0.15174 0.0
O277 O 0.74738 0.62352 0.16756 0.0
C278 C 0.78094 0.60221 0.09085 0.0
O279 O 0.79387 0.59108 0.1031 0.0
O280 O 0.79338 0.61927 0.16782 0.0
C281 C 0.73119 0.62144 0.1557 0.0
O282 O 0.72906 0.60862 0.13436 0.0
C283 C 0.75892 0.57423 0.18646 0.0
O284 O 0.7534 0.58701 0.20629 0.0
O285 O 0.76908 0.61089 0.10737 0.0
C286 C 0.43154 0.72544 0.21436 0.0
O287 O 0.42158 0.73533 0.23379 0.0
O288 O 0.3834 0.74245 0.20488 0.0
Zn289 Zn 0.39591 0.72131 0.18151 0.0
O290 O 0.39408 0.72842 0.1383 0.0
C291 C 0.37328 0.69335 0.21268 0.0
O292 O 0.37598 0.70541 0.23489 0.0
O293 O 0.42335 0.71809 0.19187 0.0
C294 C 0.37899 0.73593 0.12808 0.0
O295 O 0.36462 0.73883 0.14608 0.0
C296 C 0.38843 0.76012 0.20433 0.0
O297 O 0.40349 0.76522 0.18907 0.0
O298 O 0.38122 0.69677 0.18789 0.0
C299 C 0.19339 0.36559 0.19682 0.0
O300 O 0.20582 0.37708 0.20959 0.0
O301 O 0.21057 0.4081 0.16177 0.0
Zn302 Zn 0.2127 0.38049 0.14776 0.0
O303 O 0.23773 0.36879 0.15942 0.0
C304 C 0.21429 0.39303 0.08682 0.0
O305 O 0.22048 0.40901 0.0994 0.0
O306 O 0.19293 0.36473 0.16862 0.0
C307 C 0.25186 0.36769 0.14201 0.0
O308 O 0.25072 0.37539 0.11537 0.0
C309 C 0.22488 0.41862 0.16748 0.0
O310 O 0.24195 0.41142 0.1641 0.0
O311 O 0.20956 0.37879 0.10319 0.0
C312 C 0.41515 0.24399 0.19805 0.0
O313 O 0.40406 0.23697 0.2189 0.0
O314 O 0.37103 0.22021 0.18565 0.0
Zn315 Zn 0.38161 0.24182 0.16063 0.0
O316 O 0.38176 0.23438 0.11742 0.0
C317 C 0.34959 0.26538 0.17742 0.0
O318 O 0.34345 0.2489 0.18843 0.0
O319 O 0.4084 0.24731 0.17238 0.0
C320 C 0.36702 0.23564 0.10132 0.0
O321 O 0.35105 0.24139 0.11338 0.0
C322 C 0.36896 0.20298 0.17621 0.0
O323 O 0.37434 0.19865 0.14906 0.0
O324 O 0.36578 0.26594 0.16512 0.0
C325 C 0.75637 0.42992 0.21153 0.0
O326 O 0.76656 0.4214 0.23219 0.0
O327 O 0.77807 0.38292 0.20709 0.0
Zn328 Zn 0.75699 0.3924 0.18088 0.0
O329 O 0.76442 0.39112 0.13775 0.0
C330 C 0.71751 0.38061 0.18245 0.0
O331 O 0.71438 0.39777 0.17076 0.0
O332 O 0.75077 0.42018 0.18925 0.0
C333 C 0.76137 0.37671 0.12084 0.0
O334 O 0.75327 0.36111 0.13178 0.0
C335 C 0.79505 0.38084 0.19837 0.0
O336 O 0.79958 0.38571 0.17104 0.0
O337 O 0.73437 0.37552 0.18837 0.0
C338 C 0.57151 0.74323 0.19111 0.0
O339 O 0.58365 0.74551 0.21298 0.0
O340 O 0.61371 0.77334 0.17585 0.0
Zn341 Zn 0.60404 0.75023 0.15303 0.0
O342 O 0.60475 0.75416 0.10863 0.0
C343 C 0.63696 0.72902 0.17222 0.0
O344 O 0.64363 0.74659 0.17645 0.0
O345 O 0.5772 0.74471 0.16442 0.0
C346 C 0.61995 0.75266 0.0937 0.0
O347 O 0.63599 0.74957 0.10771 0.0
C348 C 0.62209 0.78779 0.16427 0.0
O349 O 0.62379 0.78879 0.13525 0.0
O350 O 0.62012 0.72695 0.16277 0.0
C351 C 0.20773 0.56223 0.18699 0.0
O352 O 0.19327 0.57018 0.17324 0.0
O353 O 0.20183 0.6156 0.20691 0.0
Zn354 Zn 0.22073 0.60077 0.18229 0.0
O355 O 0.21427 0.60123 0.13869 0.0
C356 C 0.25654 0.61108 0.21032 0.0
O357 O 0.25002 0.60123 0.23314 0.0
O358 O 0.22155 0.5729 0.19466 0.0
C359 C 0.21921 0.61511 0.12182 0.0
O360 O 0.22794 0.63016 0.13338 0.0
C361 C 0.18712 0.62341 0.19588 0.0
O362 O 0.18373 0.62157 0.16731 0.0
O363 O 0.24647 0.61262 0.18704 0.0
C364 C 0.41739 0.75093 0.81021 0.0
O365 O 0.40507 0.75225 0.78841 0.0
O366 O 0.37456 0.78021 0.82562 0.0
Zn367 Zn 0.38483 0.75731 0.84823 0.0
O368 O 0.38408 0.7614 0.89251 0.0
C369 C 0.35333 0.7342 0.82745 0.0
O370 O 0.34641 0.75118 0.81987 0.0
O371 O 0.41178 0.75272 0.83689 0.0
C372 C 0.36927 0.75757 0.90744 0.0
O373 O 0.35388 0.75202 0.8934 0.0
C374 C 0.36694 0.79485 0.83789 0.0
O375 O 0.36599 0.79569 0.86702 0.0
O376 O 0.36969 0.73333 0.83912 0.0
C377 C 0.22918 0.43101 0.77738 0.0
O378 O 0.21428 0.42206 0.76654 0.0
O379 O 0.21619 0.3813 0.78249 0.0
Zn380 Zn 0.2372 0.39395 0.80571 0.0
O381 O 0.23056 0.39416 0.84913 0.0
C382 C 0.26276 0.3642 0.78419 0.0
O383 O 0.2476 0.35798 0.77021 0.0
O384 O 0.24081 0.42166 0.79346 0.0
C385 C 0.23174 0.37924 0.8656 0.0
O386 O 0.23755 0.36278 0.85405 0.0
C387 C 0.19947 0.37983 0.79268 0.0
O388 O 0.1955 0.38729 0.8188 0.0
O389 O 0.26164 0.37932 0.80025 0.0
C390 C 0.57556 0.24834 0.80089 0.0
O391 O 0.58518 0.23463 0.7874 0.0
O392 O 0.62163 0.22961 0.81934 0.0
Zn393 Zn 0.60856 0.25163 0.84013 0.0
O394 O 0.60527 0.24541 0.88343 0.0
C395 C 0.63252 0.28075 0.81334 0.0
O396 O 0.62918 0.27092 0.78887 0.0
O397 O 0.58295 0.25726 0.82272 0.0
C398 C 0.61831 0.23733 0.89844 0.0
O399 O 0.63412 0.23235 0.88508 0.0
C400 C 0.61674 0.21198 0.82233 0.0
O401 O 0.60217 0.20766 0.83922 0.0
O402 O 0.62494 0.27527 0.83753 0.0
C403 C 0.77403 0.56184 0.79218 0.0
O404 O 0.78989 0.57126 0.79714 0.0
O405 O 0.77757 0.61432 0.78683 0.0
Zn406 Zn 0.75864 0.59818 0.80955 0.0
O407 O 0.76589 0.59762 0.85275 0.0
C408 C 0.72395 0.61146 0.78161 0.0
O409 O 0.73178 0.60471 0.75724 0.0
O410 O 0.7584 0.57075 0.79501 0.0
C411 C 0.7649 0.61276 0.86875 0.0
O412 O 0.75935 0.62913 0.85661 0.0
C413 C 0.77452 0.6323 0.78281 0.0
O414 O 0.75884 0.64 0.79316 0.0
O415 O 0.7327 0.60983 0.80616 0.0
H416 H 0.19329 0.10979 0.31735 0.0
H417 H 0.21616 0.14659 0.24836 0.0
H418 H 0.16481 0.12968 0.31898 0.0
H419 H 0.18801 0.16685 0.25069 0.0
H420 H 0.13074 0.19524 0.24978 0.0
H421 H 0.15459 0.17009 0.24227 0.0
H422 H 0.15767 0.16124 0.33729 0.0
H423 H 0.13357 0.18578 0.34467 0.0
C424 C 0.19219 0.12206 0.30241 0.0
C425 C 0.20706 0.12674 0.28294 0.0
C426 C 0.17591 0.13352 0.30344 0.0
C427 C 0.1742 0.15001 0.28522 0.0
C428 C 0.18873 0.15416 0.26482 0.0
C429 C 0.20495 0.1426 0.26362 0.0
C430 C 0.13633 0.18771 0.269 0.0
C431 C 0.13034 0.1926 0.29782 0.0
C432 C 0.15008 0.17338 0.26471 0.0
C433 C 0.15814 0.1637 0.28917 0.0
C434 C 0.15161 0.16816 0.31789 0.0
C435 C 0.13784 0.18238 0.32214 0.0
H436 H 0.75956 0.14736 0.29318 0.0
H437 H 0.79148 0.1288 0.37007 0.0
H438 H 0.78385 0.17136 0.28193 0.0
H439 H 0.81548 0.15312 0.35931 0.0
H440 H 0.86181 0.19127 0.32411 0.0
H441 H 0.84016 0.16375 0.32612 0.0
H442 H 0.79354 0.20163 0.30375 0.0
H443 H 0.8152 0.22897 0.30095 0.0
C444 C 0.77182 0.1483 0.30756 0.0
C445 C 0.77351 0.1363 0.33268 0.0
C446 C 0.7857 0.16213 0.3012 0.0
C447 C 0.80152 0.1643 0.31987 0.0
C448 C 0.80358 0.15171 0.34426 0.0
C449 C 0.78975 0.13783 0.35055 0.0
C450 C 0.84697 0.19367 0.31925 0.0
C451 C 0.8402 0.21234 0.3126 0.0
C452 C 0.83456 0.17791 0.32055 0.0
C453 C 0.8151 0.18049 0.31531 0.0
C454 C 0.80847 0.19905 0.30756 0.0
C455 C 0.82089 0.21478 0.30615 0.0
H456 H 0.8245 0.75957 0.27708 0.0
H457 H 0.86794 0.79898 0.3076 0.0
H458 H 0.80325 0.78683 0.26884 0.0
H459 H 0.84669 0.82633 0.29894 0.0
H460 H 0.79307 0.8627 0.32252 0.0
H461 H 0.81762 0.83794 0.32329 0.0
H462 H 0.7978 0.81613 0.23882 0.0
H463 H 0.77302 0.84079 0.23817 0.0
C464 C 0.82962 0.77407 0.28164 0.0
C465 C 0.84785 0.77708 0.29325 0.0
C466 C 0.81747 0.78972 0.27672 0.0
C467 C 0.82327 0.80873 0.28336 0.0
C468 C 0.84175 0.81182 0.29396 0.0
C469 C 0.85394 0.79616 0.29878 0.0
C470 C 0.79407 0.85278 0.30392 0.0
C471 C 0.78099 0.85362 0.2804 0.0
C472 C 0.80823 0.83866 0.30428 0.0
C473 C 0.80959 0.82501 0.28118 0.0
C474 C 0.79696 0.8263 0.25711 0.0
C475 C 0.78283 0.84049 0.25668 0.0
H476 H 0.15093 0.79452 0.2697 0.0
H477 H 0.13705 0.80657 0.36143 0.0
H478 H 0.17662 0.81815 0.2721 0.0
H479 H 0.16286 0.82983 0.36393 0.0
H480 H 0.20325 0.88005 0.35487 0.0
H481 H 0.17465 0.861 0.3462 0.0
H482 H 0.20738 0.81906 0.29677 0.0
H483 H 0.23583 0.83822 0.3049 0.0
C484 C 0.15324 0.80232 0.29027 0.0
C485 C 0.14204 0.79854 0.31543 0.0
C486 C 0.16802 0.81578 0.29169 0.0
C487 C 0.17186 0.82578 0.31826 0.0
C488 C 0.16016 0.82255 0.34303 0.0
C489 C 0.14543 0.80909 0.34164 0.0
C490 C 0.2043 0.86687 0.34188 0.0
C491 C 0.22184 0.86057 0.33079 0.0
C492 C 0.18792 0.85592 0.33703 0.0
C493 C 0.18876 0.83847 0.32092 0.0
C494 C 0.2062 0.83254 0.30897 0.0
C495 C 0.22255 0.84346 0.31385 0.0
H496 H 0.12016 0.81143 0.66665 0.0
H497 H 0.13753 0.79439 0.75502 0.0
H498 H 0.14361 0.83732 0.66702 0.0
H499 H 0.16131 0.81998 0.75506 0.0
H500 H 0.19543 0.87576 0.75321 0.0
H501 H 0.16759 0.85474 0.75488 0.0
H502 H 0.17772 0.83774 0.66382 0.0
H503 H 0.20513 0.85893 0.66192 0.0
C504 C 0.12888 0.8133 0.68626 0.0
C505 C 0.12712 0.80073 0.71069 0.0
C506 C 0.14238 0.82808 0.6864 0.0
C507 C 0.15449 0.83056 0.71091 0.0
C508 C 0.15212 0.81857 0.73592 0.0
C509 C 0.13854 0.80382 0.73582 0.0
C510 C 0.19158 0.86766 0.73348 0.0
C511 C 0.20254 0.86896 0.70748 0.0
C512 C 0.17569 0.85557 0.73449 0.0
C513 C 0.17044 0.84457 0.70949 0.0
C514 C 0.18118 0.84624 0.68332 0.0
C515 C 0.19701 0.85829 0.68231 0.0
H516 H 0.24351 0.14963 0.70549 0.0
H517 H 0.20654 0.12436 0.63947 0.0
H518 H 0.21875 0.17258 0.71904 0.0
H519 H 0.18203 0.14767 0.65229 0.0
H520 H 0.13643 0.18451 0.69233 0.0
H521 H 0.15974 0.15853 0.68877 0.0
H522 H 0.2048 0.20061 0.69699 0.0
H523 H 0.18158 0.2264 0.70149 0.0
C524 C 0.23007 0.14893 0.69393 0.0
C525 C 0.22704 0.13529 0.67123 0.0
C526 C 0.21591 0.16214 0.70161 0.0
C527 C 0.19844 0.1621 0.6866 0.0
C528 C 0.19521 0.14799 0.66459 0.0
C529 C 0.20932 0.13469 0.65708 0.0
C530 C 0.15131 0.18816 0.6938 0.0
C531 C 0.15715 0.20753 0.69697 0.0
C532 C 0.16468 0.17328 0.69157 0.0
C533 C 0.18416 0.17748 0.69232 0.0
C534 C 0.18993 0.19679 0.69668 0.0
C535 C 0.17659 0.21163 0.69908 0.0
H536 H 0.78931 0.12025 0.76057 0.0
H537 H 0.78284 0.12971 0.66611 0.0
H538 H 0.81818 0.13982 0.76015 0.0
H539 H 0.8112 0.14951 0.66586 0.0
H540 H 0.86924 0.17411 0.66719 0.0
H541 H 0.84498 0.14915 0.67111 0.0
H542 H 0.82622 0.17382 0.75433 0.0
H543 H 0.85084 0.19845 0.75085 0.0
C544 C 0.79409 0.12639 0.73972 0.0
C545 C 0.78372 0.1235 0.71341 0.0
C546 C 0.81057 0.13767 0.73951 0.0
C547 C 0.817 0.14625 0.71298 0.0
C548 C 0.80686 0.14289 0.6866 0.0
C549 C 0.79046 0.13164 0.6868 0.0
C550 C 0.86011 0.17405 0.68653 0.0
C551 C 0.86182 0.1884 0.70854 0.0
C552 C 0.84614 0.15979 0.68871 0.0
C553 C 0.83349 0.15964 0.71282 0.0
C554 C 0.83581 0.17341 0.73557 0.0
C555 C 0.84987 0.18762 0.73349 0.0
H556 H 0.84018 0.80319 0.74215 0.0
H557 H 0.85616 0.8142 0.65093 0.0
H558 H 0.81587 0.82824 0.7386 0.0
H559 H 0.83173 0.83891 0.64729 0.0
H560 H 0.79188 0.88946 0.65226 0.0
H561 H 0.82018 0.8706 0.66411 0.0
H562 H 0.78572 0.82923 0.71184 0.0
H563 H 0.75762 0.84812 0.70049 0.0
C564 C 0.83869 0.81112 0.72149 0.0
C565 C 0.84994 0.80654 0.69671 0.0
C566 C 0.82471 0.8254 0.71942 0.0
C567 C 0.82177 0.83543 0.69259 0.0
C568 C 0.83374 0.83158 0.66837 0.0
C569 C 0.84766 0.8173 0.6704 0.0
C570 C 0.79041 0.8765 0.66565 0.0
C571 C 0.77249 0.87017 0.67515 0.0
C572 C 0.8066 0.86566 0.67233 0.0
C573 C 0.80517 0.84838 0.68878 0.0
C574 C 0.78735 0.84258 0.69942 0.0
C575 C 0.7712 0.85334 0.69267 0.0
H576 H 0.64394 0.70068 0.73776 0.0
H577 H 0.62051 0.67608 0.81811 0.0
H578 H 0.66766 0.67506 0.73644 0.0
H579 H 0.6439 0.65017 0.81632 0.0
H580 H 0.70504 0.62816 0.82778 0.0
H581 H 0.67743 0.64902 0.82552 0.0
H582 H 0.6744 0.64074 0.73042 0.0
H583 H 0.70247 0.62009 0.73257 0.0
C584 C 0.64362 0.6896 0.75482 0.0
C585 C 0.63051 0.69056 0.77826 0.0
C586 C 0.65716 0.67483 0.75397 0.0
C587 C 0.65781 0.66067 0.77646 0.0
C588 C 0.64402 0.66107 0.79899 0.0
C589 C 0.63056 0.67588 0.79993 0.0
C590 C 0.69841 0.6306 0.80638 0.0
C591 C 0.70605 0.62256 0.78032 0.0
C592 C 0.68245 0.64247 0.80512 0.0
C593 C 0.67369 0.64657 0.77778 0.0
C594 C 0.68096 0.63804 0.75178 0.0
C595 C 0.69698 0.62614 0.75305 0.0
H596 H 0.29134 0.63337 0.88212 0.0
H597 H 0.26613 0.64679 0.79699 0.0
H598 H 0.31501 0.65855 0.87408 0.0
H599 H 0.29004 0.67164 0.78869 0.0
H600 H 0.31689 0.7315 0.80767 0.0
H601 H 0.29619 0.70335 0.80956 0.0
H602 H 0.34209 0.6688 0.8446 0.0
H603 H 0.36276 0.69713 0.84333 0.0
C604 C 0.29104 0.64146 0.86148 0.0
C605 C 0.27673 0.63823 0.84036 0.0
C606 C 0.30467 0.65583 0.85679 0.0
C607 C 0.30431 0.6672 0.83083 0.0
C608 C 0.2905 0.66336 0.80914 0.0
C609 C 0.27685 0.64905 0.81386 0.0
C610 C 0.32265 0.71787 0.81548 0.0
C611 C 0.34143 0.71661 0.82557 0.0
C612 C 0.3108 0.70167 0.8164 0.0
C613 C 0.31748 0.68384 0.82735 0.0
C614 C 0.33646 0.6824 0.83645 0.0
C615 C 0.34832 0.69861 0.83555 0.0
H616 H 0.36255 0.30123 0.8353 0.0
H617 H 0.35679 0.28653 0.74233 0.0
H618 H 0.33626 0.3238 0.83094 0.0
H619 H 0.33067 0.30949 0.73784 0.0
H620 H 0.26924 0.3301 0.75507 0.0
H621 H 0.29807 0.31077 0.75517 0.0
H622 H 0.3258 0.35412 0.80917 0.0
H623 H 0.2968 0.37329 0.80965 0.0
C624 C 0.35587 0.30303 0.8138 0.0
C625 C 0.36168 0.29196 0.78921 0.0
C626 C 0.34084 0.31607 0.81126 0.0
C627 C 0.33129 0.31837 0.78407 0.0
C628 C 0.33755 0.30782 0.7592 0.0
C629 C 0.3526 0.29476 0.76174 0.0
C630 C 0.28152 0.33559 0.7668 0.0
C631 C 0.28067 0.35316 0.78253 0.0
C632 C 0.2981 0.32456 0.76667 0.0
C633 C 0.31423 0.33089 0.78223 0.0
C634 C 0.31354 0.34873 0.7973 0.0
C635 C 0.29694 0.35974 0.79747 0.0
H636 H 0.65368 0.29449 0.76686 0.0
H637 H 0.64219 0.30389 0.86013 0.0
H638 H 0.678 0.31965 0.76841 0.0
H639 H 0.66663 0.32867 0.86175 0.0
H640 H 0.70348 0.38131 0.85286 0.0
H641 H 0.67577 0.36086 0.84467 0.0
H642 H 0.70942 0.32223 0.79066 0.0
H643 H 0.73697 0.3428 0.79831 0.0
C644 C 0.65622 0.30201 0.78761 0.0
C645 C 0.6461 0.29708 0.81342 0.0
C646 C 0.67021 0.31636 0.78852 0.0
C647 C 0.6743 0.3261 0.81523 0.0
C648 C 0.66368 0.32163 0.84073 0.0
C649 C 0.64975 0.30729 0.83985 0.0
C650 C 0.7049 0.36859 0.83892 0.0
C651 C 0.72247 0.36358 0.82649 0.0
C652 C 0.68904 0.35683 0.83435 0.0
C653 C 0.69043 0.33985 0.81721 0.0
C654 C 0.70782 0.33531 0.80373 0.0
C655 C 0.72366 0.34704 0.80831 0.0
H656 H 0.62056 0.30602 0.16037 0.0
H657 H 0.6422 0.28959 0.24668 0.0
H658 H 0.6439 0.33194 0.15751 0.0
H659 H 0.66537 0.31577 0.24397 0.0
H660 H 0.7195 0.34444 0.20681 0.0
H661 H 0.69387 0.32143 0.21433 0.0
H662 H 0.65399 0.36298 0.17901 0.0
H663 H 0.67978 0.38602 0.17099 0.0
C664 C 0.63012 0.3081 0.17893 0.0
C665 C 0.62963 0.29563 0.20365 0.0
C666 C 0.64343 0.32305 0.17735 0.0
C667 C 0.65656 0.32582 0.20043 0.0
C668 C 0.65561 0.3138 0.22564 0.0
C669 C 0.64226 0.29888 0.22726 0.0
C670 C 0.70527 0.34875 0.20077 0.0
C671 C 0.7017 0.36704 0.18815 0.0
C672 C 0.69054 0.33559 0.20531 0.0
C673 C 0.67189 0.3404 0.19733 0.0
C674 C 0.66825 0.3588 0.18513 0.0
C675 C 0.68301 0.37201 0.18063 0.0
H676 H 0.6971 0.62534 0.12776 0.0
H677 H 0.73011 0.64795 0.20085 0.0
H678 H 0.67326 0.65017 0.13619 0.0
H679 H 0.70594 0.67245 0.20992 0.0
H680 H 0.67473 0.72895 0.18475 0.0
H681 H 0.69612 0.7014 0.18494 0.0
H682 H 0.64904 0.66288 0.16805 0.0
H683 H 0.62764 0.69064 0.16695 0.0
C684 C 0.69909 0.63537 0.14601 0.0
C685 C 0.71561 0.63483 0.16339 0.0
C686 C 0.68535 0.64956 0.15098 0.0
C687 C 0.68775 0.66343 0.17359 0.0
C688 C 0.70383 0.66223 0.19195 0.0
C689 C 0.71763 0.64812 0.18685 0.0
C690 C 0.66888 0.7146 0.18138 0.0
C691 C 0.64951 0.71201 0.17553 0.0
C692 C 0.68115 0.69875 0.18171 0.0
C693 C 0.67432 0.67991 0.17639 0.0
C694 C 0.6548 0.67724 0.17175 0.0
C695 C 0.64253 0.69313 0.17126 0.0
H696 H 0.27417 0.63118 0.16616 0.0
H697 H 0.28121 0.61279 0.25738 0.0
H698 H 0.30416 0.6483 0.16847 0.0
H699 H 0.31159 0.62977 0.2595 0.0
H700 H 0.34938 0.68582 0.2591 0.0
H701 H 0.32257 0.66356 0.25953 0.0
H702 H 0.3381 0.64322 0.17204 0.0
H703 H 0.36464 0.66576 0.1713 0.0
C704 C 0.28221 0.63063 0.18666 0.0
C705 C 0.27525 0.62069 0.21164 0.0
C706 C 0.29951 0.64032 0.18789 0.0
C707 C 0.31031 0.64032 0.21413 0.0
C708 C 0.30351 0.63015 0.23903 0.0
C709 C 0.28616 0.62038 0.23778 0.0
C710 C 0.34726 0.67638 0.24015 0.0
C711 C 0.35898 0.67776 0.21499 0.0
C712 C 0.33193 0.66355 0.24046 0.0
C713 C 0.32806 0.65181 0.21565 0.0
C714 C 0.34048 0.65236 0.19125 0.0
C715 C 0.35576 0.66521 0.1909 0.0
H716 H 0.28226 0.358 0.10754 0.0
H717 H 0.25897 0.35054 0.19565 0.0
H718 H 0.30741 0.33515 0.11943 0.0
H719 H 0.28441 0.32803 0.20777 0.0
H720 H 0.31354 0.26824 0.19867 0.0
H721 H 0.2917 0.2952 0.19289 0.0
H722 H 0.33538 0.3285 0.14905 0.0
H723 H 0.35719 0.30127 0.15423 0.0
C724 C 0.2827 0.35177 0.12963 0.0
C725 C 0.26849 0.35591 0.15051 0.0
C726 C 0.2972 0.33874 0.13652 0.0
C727 C 0.29782 0.32963 0.16448 0.0
C728 C 0.28413 0.33453 0.18586 0.0
C729 C 0.26961 0.34751 0.17894 0.0
C730 C 0.31858 0.28137 0.18808 0.0
C731 C 0.33706 0.28254 0.17669 0.0
C732 C 0.30608 0.29691 0.18494 0.0
C733 C 0.31178 0.314 0.17042 0.0
C734 C 0.33048 0.31543 0.15999 0.0
C735 C 0.343 0.29987 0.1631 0.0
H736 H 0.95044 0.28227 0.28584 0.0
H737 H 0.94183 0.22331 0.31564 0.0
H738 H 0.9843 0.27612 0.28156 0.0
H739 H 0.97564 0.21711 0.31086 0.0
H740 H 0.03737 0.22563 0.34331 0.0
H741 H 0.00315 0.22813 0.33927 0.0
H742 H 0.00908 0.25776 0.25515 0.0
H743 H 0.0435 0.25552 0.25937 0.0
C744 C 0.95572 0.26792 0.29104 0.0
C745 C 0.94348 0.25336 0.30145 0.0
C746 C 0.97511 0.26436 0.28839 0.0
C747 C 0.98264 0.24617 0.2961 0.0
C748 C 0.97028 0.23136 0.3052 0.0
C749 C 0.9509 0.23491 0.30783 0.0
C750 C 0.03141 0.23251 0.32379 0.0
C751 C 0.04316 0.24052 0.30178 0.0
C752 C 0.01177 0.23382 0.32137 0.0
C753 C 0.00342 0.24318 0.29692 0.0
C754 C 0.01514 0.25065 0.2744 0.0
C755 C 0.03483 0.24928 0.27677 0.0
H756 H 0.7051 0.04849 0.33233 0.0
H757 H 0.75558 0.05345 0.27855 0.0
H758 H 0.7042 0.01383 0.32287 0.0
H759 H 0.75449 0.01859 0.26873 0.0
H760 H 0.75808 0.95303 0.29664 0.0
H761 H 0.75914 0.98838 0.29756 0.0
H762 H 0.69874 0.99044 0.28284 0.0
H763 H 0.69758 0.95515 0.28241 0.0
C764 C 0.71594 0.04221 0.31829 0.0
C765 C 0.73046 0.05373 0.30628 0.0
C766 C 0.71532 0.02234 0.31266 0.0
C767 C 0.72922 0.01349 0.29494 0.0
C768 C 0.74365 0.02501 0.28263 0.0
C769 C 0.74423 0.04496 0.28817 0.0
C770 C 0.74506 0.96102 0.29319 0.0
C771 C 0.7277 0.95129 0.28986 0.0
C772 C 0.7457 0.98128 0.29357 0.0
C773 C 0.72898 0.99217 0.29063 0.0
C774 C 0.7118 0.98242 0.28572 0.0
C775 C 0.71116 0.9622 0.28534 0.0
H776 H 0.0464 0.74256 0.25876 0.0
H777 H 0.04397 0.77551 0.34044 0.0
H778 H 0.01184 0.74363 0.2554 0.0
H779 H 0.00964 0.77662 0.33687 0.0
H780 H 0.95171 0.74677 0.3443 0.0
H781 H 0.98595 0.74996 0.34286 0.0
H782 H 0.98316 0.76611 0.2502 0.0
H783 H 0.94859 0.76288 0.25154 0.0
C784 C 0.03855 0.75029 0.2757 0.0
C785 C 0.04791 0.7587 0.30009 0.0
C786 C 0.01878 0.75095 0.27369 0.0
C787 C 0.00809 0.75998 0.29609 0.0
C788 C 0.01753 0.76927 0.31957 0.0
C789 C 0.03721 0.76867 0.32153 0.0
C790 C 0.95833 0.75103 0.32358 0.0
C791 C 0.94744 0.75457 0.29802 0.0
C792 C 0.97795 0.753 0.32283 0.0
C793 C 0.98718 0.75842 0.29647 0.0
C794 C 0.97637 0.76187 0.27079 0.0
C795 C 0.95662 0.7601 0.27161 0.0
H796 H 0.24996 0.93181 0.26672 0.0
H797 H 0.29492 0.9384 0.33118 0.0
H798 H 0.25005 0.96686 0.25835 0.0
H799 H 0.29483 0.97324 0.32304 0.0
H800 H 0.30085 0.03338 0.28754 0.0
H801 H 0.30206 -0.0019 0.28547 0.0
H802 H 0.24098 -0.00427 0.28814 0.0
H803 H 0.2397 0.03105 0.28978 0.0
C804 C 0.25995 0.9407 0.27891 0.0
C805 C 0.27238 0.93235 0.2997 0.0
C806 C 0.25993 0.96075 0.27419 0.0
C807 C 0.27246 0.97277 0.29 0.0
C808 C 0.2852 0.96433 0.3102 0.0
C809 C 0.28514 0.94437 0.31503 0.0
C810 C 0.28766 0.02537 0.28727 0.0
C811 C 0.27018 0.03501 0.2892 0.0
C812 C 0.28837 0.00515 0.2862 0.0
C813 C 0.27163 0.99416 0.28698 0.0
C814 C 0.25412 0.00382 0.28732 0.0
C815 C 0.2534 0.02405 0.28843 0.0
H816 H 0.03819 0.77672 0.71322 0.0
H817 H 0.03188 0.71471 0.72291 0.0
H818 H 0.00431 0.78086 0.72092 0.0
H819 H -0.0021 0.71877 0.72952 0.0
H820 H 0.93728 0.73133 0.75172 0.0
H821 H 0.97161 0.73061 0.7584 0.0
H822 H 0.97767 0.77435 0.69019 0.0
H823 H 0.94363 0.77549 0.68423 0.0
C824 C 0.02957 0.76398 0.71718 0.0
C825 C 0.03763 0.74537 0.717 0.0
C826 C 0.01015 0.76635 0.72151 0.0
C827 C -0.00167 0.75013 0.72539 0.0
C828 C 0.00658 0.73159 0.72685 0.0
C829 C 0.02606 0.72925 0.72283 0.0
C830 C 0.94596 0.74102 0.73856 0.0
C831 C 0.93774 0.75332 0.71724 0.0
C832 C 0.96562 0.74053 0.74226 0.0
C833 C 0.97742 0.75233 0.7247 0.0
C834 C 0.96906 0.76525 0.70441 0.0
C835 C 0.94948 0.76578 0.70079 0.0
H836 H 0.24173 0.95567 0.66965 0.0
H837 H 0.26953 0.95722 0.75531 0.0
H838 H 0.24379 0.99078 0.66646 0.0
H839 H 0.27156 0.99261 0.75191 0.0
H840 H 0.25584 0.05861 0.74008 0.0
H841 H 0.25103 0.02378 0.74813 0.0
H842 H 0.27265 0.01214 0.66017 0.0
H843 H 0.27747 0.04663 0.65207 0.0
C844 C 0.24811 0.9635 0.68797 0.0
C845 C 0.25571 0.95361 0.71257 0.0
C846 C 0.24933 0.98361 0.68605 0.0
C847 C 0.25808 0.99433 0.70873 0.0
C848 C 0.26474 0.98464 0.73413 0.0
C849 C 0.26362 0.96441 0.73601 0.0
C850 C 0.25958 0.04858 0.72252 0.0
C851 C 0.26698 0.05536 0.69542 0.0
C852 C 0.25689 0.0287 0.72719 0.0
C853 C 0.26131 0.01536 0.70466 0.0
C854 C 0.26886 0.02215 0.67774 0.0
C855 C 0.27173 0.04191 0.6732 0.0
H856 H 0.05018 0.22262 0.67579 0.0
H857 H 0.05027 0.25327 0.7596 0.0
H858 H 0.01598 0.22062 0.67739 0.0
H859 H 0.0158 0.25068 0.76171 0.0
H860 H 0.9554 0.2672 0.72923 0.0
H861 H 0.98951 0.26515 0.73614 0.0
H862 H 0.98902 0.20685 0.70082 0.0
H863 H 0.95499 0.20922 0.69287 0.0
C864 C 0.04292 0.22864 0.69487 0.0
C865 C 0.05296 0.23828 0.71743 0.0
C866 C 0.02324 0.22735 0.69591 0.0
C867 C 0.01309 0.23554 0.71965 0.0
C868 C 0.02318 0.24447 0.74289 0.0
C869 C 0.04293 0.24585 0.74178 0.0
C870 C 0.96255 0.25387 0.72323 0.0
C871 C 0.95256 0.23847 0.71012 0.0
C872 C 0.98211 0.25263 0.7274 0.0
C873 C 0.99206 0.23589 0.71881 0.0
C874 C 0.98186 0.22012 0.70711 0.0
C875 C 0.96235 0.22144 0.70265 0.0
H876 H 0.7412 0.03853 0.6769 0.0
H877 H 0.70688 0.03722 0.75648 0.0
H878 H 0.73912 0.00347 0.6733 0.0
H879 H 0.70476 0.00185 0.75262 0.0
H880 H 0.72252 0.93605 0.74565 0.0
H881 H 0.72498 0.97107 0.75397 0.0
H882 H 0.71228 0.98128 0.66137 0.0
H883 H 0.70992 0.94657 0.65296 0.0
C884 C 0.7333 0.03077 0.69377 0.0
C885 C 0.72403 0.04071 0.71682 0.0
C886 C 0.73204 0.01067 0.69159 0.0
C887 C 0.72155 -1e-05 0.71242 0.0
C888 C 0.71295 0.00976 0.73627 0.0
C889 C 0.71413 0.02999 0.73841 0.0
C890 C 0.72014 0.9458 0.72715 0.0
C891 C 0.71615 0.93853 0.69861 0.0
C892 C 0.72149 0.96582 0.73195 0.0
C893 C 0.71904 0.97884 0.70824 0.0
C894 C 0.71457 0.97155 0.67995 0.0
C895 C 0.71311 0.95165 0.67519 0.0
H896 H 0.53491 0.71557 0.81886 0.0
H897 H 0.53355 0.75925 0.74993 0.0
H898 H 0.50054 0.71648 0.82191 0.0
H899 H 0.49908 0.76043 0.75348 0.0
H900 H 0.4351 0.74809 0.75607 0.0
H901 H 0.46884 0.74273 0.74677 0.0
H902 H 0.47902 0.74089 0.84144 0.0
H903 H 0.44557 0.7459 0.85072 0.0
C904 C 0.52727 0.72527 0.80418 0.0
C905 C 0.53696 0.73754 0.78444 0.0
C906 C 0.50758 0.72583 0.80602 0.0
C907 C 0.49714 0.73875 0.78828 0.0
C908 C 0.50674 0.75027 0.76736 0.0
C909 C 0.52649 0.74965 0.76543 0.0
C910 C 0.44456 0.74644 0.77485 0.0
C911 C 0.43766 0.74743 0.80412 0.0
C912 C 0.46386 0.74343 0.76952 0.0
C913 C 0.47655 0.74125 0.79337 0.0
C914 C 0.46957 0.74214 0.82257 0.0
C915 C 0.45038 0.74518 0.82788 0.0
H916 H 0.25783 0.45379 0.79829 0.0
H917 H 0.20486 0.45639 0.75027 0.0
H918 H 0.25886 0.48905 0.8 0.0
H919 H 0.20582 0.49174 0.75238 0.0
H920 H 0.21994 0.55648 0.74675 0.0
H921 H 0.22298 0.52173 0.7369 0.0
H922 H 0.23948 0.51232 0.82825 0.0
H923 H 0.23666 0.54684 0.83803 0.0
C924 C 0.24651 0.46187 0.78778 0.0
C925 C 0.23112 0.45228 0.77452 0.0
C926 C 0.24708 0.48207 0.78888 0.0
C927 C 0.23229 0.49312 0.77671 0.0
C928 C 0.21746 0.48359 0.76186 0.0
C929 C 0.21687 0.46334 0.76078 0.0
C930 C 0.22435 0.54699 0.76464 0.0
C931 C 0.228 0.5544 0.7932 0.0
C932 C 0.22602 0.52711 0.75901 0.0
C933 C 0.23153 0.51434 0.78177 0.0
C934 C 0.2355 0.52183 0.81013 0.0
C935 C 0.23373 0.54162 0.81579 0.0
H936 H 0.45677 0.24525 0.7437 0.0
H937 H 0.45901 0.26493 0.83486 0.0
H938 H 0.4913 0.24703 0.74087 0.0
H939 H 0.49324 0.26622 0.83228 0.0
H940 H 0.55371 0.27899 0.81763 0.0
H941 H 0.51972 0.28279 0.81094 0.0
H942 H 0.51795 0.22918 0.76127 0.0
H943 H 0.55209 0.22571 0.76716 0.0
C944 C 0.4646 0.25008 0.76304 0.0
C945 C 0.45515 0.25485 0.78954 0.0
C946 C 0.48437 0.25101 0.76146 0.0
C947 C 0.49504 0.25676 0.78634 0.0
C948 C 0.48549 0.26204 0.81252 0.0
C949 C 0.46581 0.26115 0.81408 0.0
C950 C 0.54611 0.26816 0.8049 0.0
C951 C 0.55552 0.25191 0.79328 0.0
C952 C 0.52662 0.2703 0.80117 0.0
C953 C 0.51606 0.25613 0.78601 0.0
C954 C 0.52566 0.24043 0.77292 0.0
C955 C 0.54522 0.23839 0.77642 0.0
H956 H 0.75106 0.43814 0.76498 0.0
H957 H 0.79502 0.4432 0.83142 0.0
H958 H 0.75254 0.4731 0.75646 0.0
H959 H 0.79626 0.47801 0.82323 0.0
H960 H 0.80484 0.53803 0.7883 0.0
H961 H 0.80505 0.5027 0.78682 0.0
H962 H 0.74391 0.50231 0.78453 0.0
H963 H 0.74367 0.53762 0.78545 0.0
C964 C 0.76109 0.44667 0.77766 0.0
C965 C 0.77286 0.43791 0.79898 0.0
C966 C 0.76189 0.46669 0.77284 0.0
C967 C 0.77453 0.47831 0.78915 0.0
C968 C 0.78657 0.46944 0.80997 0.0
C969 C 0.78574 0.44948 0.81484 0.0
C970 C 0.79145 0.53043 0.78704 0.0
C971 C 0.77423 0.54063 0.78734 0.0
C972 C 0.79157 0.51018 0.78634 0.0
C973 C 0.77449 0.49972 0.78592 0.0
C974 C 0.75731 0.50995 0.78465 0.0
C975 C 0.75718 0.5302 0.78534 0.0
H976 H 0.44131 0.25861 0.15967 0.0
H977 H 0.43536 0.23528 0.2484 0.0
H978 H 0.47533 0.26034 0.16627 0.0
H979 H 0.46963 0.23744 0.25526 0.0
H980 H 0.5317 0.218 0.23402 0.0
H981 H 0.49731 0.22059 0.23569 0.0
H982 H 0.50048 0.27652 0.19261 0.0
H983 H 0.5348 0.27371 0.19021 0.0
C984 C 0.44724 0.25409 0.18078 0.0
C985 C 0.43563 0.24666 0.20343 0.0
C986 C 0.46678 0.25524 0.18465 0.0
C987 C 0.47521 0.24904 0.21131 0.0
C988 C 0.46356 0.24215 0.23435 0.0
C989 C 0.44394 0.241 0.23047 0.0
C990 C 0.52508 0.23097 0.22527 0.0
C991 C 0.53594 0.24551 0.21157 0.0
C992 C 0.50536 0.2325 0.22639 0.0
C993 C 0.49615 0.24867 0.21398 0.0
C994 C 0.50713 0.2637 0.20182 0.0
C995 C 0.52681 0.26212 0.20055 0.0
H996 H 0.74956 0.55616 0.23876 0.0
H997 H 0.76366 0.54483 0.14687 0.0
H998 H 0.74657 0.52122 0.2476 0.0
H999 H 0.7607 0.5102 0.15576 0.0
H1000 H 0.73621 0.45147 0.17185 0.0
H1001 H 0.7349 0.48661 0.16802 0.0
H1002 H 0.76863 0.49179 0.24768 0.0
H1003 H 0.76993 0.45644 0.25174 0.0
C1004 C 0.75196 0.54625 0.22047 0.0
C1005 C 0.75685 0.55324 0.19212 0.0
C1006 C 0.75031 0.52629 0.22558 0.0
C1007 C 0.75327 0.51306 0.20232 0.0
C1008 C 0.75805 0.52009 0.17399 0.0
C1009 C 0.75988 0.53994 0.16897 0.0
C1010 C 0.74317 0.46004 0.18881 0.0
C1011 C 0.75342 0.45114 0.21187 0.0
C1012 C 0.74245 0.48018 0.18652 0.0
C1013 C 0.7519 0.49188 0.20729 0.0
C1014 C 0.7612 0.48308 0.23139 0.0
C1015 C 0.76199 0.46285 0.23364 0.0
H1016 H 0.45559 0.70282 0.18222 0.0
H1017 H 0.45472 0.74706 0.25025 0.0
H1018 H 0.48991 0.70517 0.17968 0.0
H1019 H 0.48915 0.74971 0.2472 0.0
H1020 H 0.55371 0.74038 0.2452 0.0
H1021 H 0.52019 0.73367 0.25442 0.0
H1022 H 0.5104 0.73029 0.15975 0.0
H1023 H 0.54366 0.73662 0.15057 0.0
C1024 C 0.46274 0.71293 0.19684 0.0
C1025 C 0.45243 0.72495 0.21614 0.0
C1026 C 0.4824 0.71434 0.19528 0.0
C1027 C 0.4922 0.72787 0.21285 0.0
C1028 C 0.48201 0.73909 0.23344 0.0
C1029 C 0.46228 0.73762 0.23512 0.0
C1030 C 0.54439 0.7381 0.22641 0.0
C1031 C 0.55135 0.73902 0.19716 0.0
C1032 C 0.5252 0.73433 0.23169 0.0
C1033 C 0.51269 0.7313 0.20783 0.0
C1034 C 0.51973 0.73217 0.17865 0.0
C1035 C 0.5388 0.73596 0.17338 0.0
H1036 H 0.19198 0.43667 0.18315 0.0
H1037 H 0.25177 0.44703 0.17044 0.0
H1038 H 0.18718 0.471 0.19333 0.0
H1039 H 0.24689 0.48145 0.17964 0.0
H1040 H 0.23521 0.54109 0.21513 0.0
H1041 H 0.23888 0.50592 0.21541 0.0
H1042 H 0.18712 0.5002 0.16486 0.0
H1043 H 0.18317 0.53518 0.1654 0.0
C1044 C 0.20411 0.44628 0.18259 0.0
C1045 C 0.22224 0.43917 0.17574 0.0
C1046 C 0.20135 0.46597 0.1883 0.0
C1047 C 0.21661 0.47903 0.18707 0.0
C1048 C 0.23485 0.47179 0.18116 0.0
C1049 C 0.23764 0.45206 0.17567 0.0
C1050 C 0.22449 0.53229 0.20445 0.0
C1051 C 0.20896 0.54093 0.19006 0.0
C1052 C 0.22665 0.51214 0.20444 0.0
C1053 C 0.21339 0.50023 0.18995 0.0
C1054 C 0.1975 0.50889 0.17656 0.0
C1055 C 0.19528 0.52899 0.17672 0.0
H1056 H 0.09288 0.25886 0.43293 0.0
H1057 H 0.14248 0.22221 0.43563 0.0
H1058 H 0.09543 0.26407 0.4864 0.0
H1059 H 0.14477 0.22709 0.48909 0.0
H1060 H 0.1531 0.25223 0.58116 0.0
H1061 H 0.15163 0.25131 0.52698 0.0
H1062 H 0.09083 0.24506 0.5313 0.0
H1063 H 0.09222 0.24639 0.58528 0.0
C1064 C 0.10433 0.25193 0.44491 0.0
C1065 C 0.11742 0.24004 0.43005 0.0
C1066 C 0.10575 0.25486 0.47556 0.0
C1067 C 0.12027 0.24596 0.49201 0.0
C1068 C 0.13356 0.23437 0.47703 0.0
C1069 C 0.13216 0.23145 0.44639 0.0
C1070 C 0.13941 0.25084 0.57053 0.0
C1071 C 0.12279 0.24928 0.58754 0.0
C1072 C 0.13858 0.2502 0.5395 0.0
C1073 C 0.12112 0.24802 0.52484 0.0
C1074 C 0.10448 0.24698 0.54187 0.0
C1075 C 0.1053 0.24762 0.57285 0.0
H1076 H 0.75547 0.0879 0.57852 0.0
H1077 H 0.69961 0.10944 0.59967 0.0
H1078 H 0.74844 0.09076 0.52578 0.0
H1079 H 0.69264 0.11245 0.54657 0.0
H1080 H 0.68249 0.09253 0.44826 0.0
H1081 H 0.68802 0.09113 0.50189 0.0
H1082 H 0.74311 0.11706 0.48943 0.0
H1083 H 0.73774 0.11832 0.43606 0.0
C1084 C 0.74168 0.09328 0.57193 0.0
C1085 C 0.72811 0.09848 0.5933 0.0
C1086 C 0.7377 0.09503 0.54168 0.0
C1087 C 0.72003 0.10194 0.53205 0.0
C1088 C 0.70634 0.10698 0.55337 0.0
C1089 C 0.71038 0.10534 0.58373 0.0
C1090 C 0.69573 0.09804 0.457 0.0
C1091 C 0.70972 0.10541 0.43786 0.0
C1092 C 0.69885 0.09731 0.48771 0.0
C1093 C 0.71606 0.10384 0.4998 0.0
C1094 C 0.72983 0.11164 0.48071 0.0
C1095 C 0.72669 0.11244 0.45012 0.0
H1096 H 0.91446 0.76994 0.43252 0.0
H1097 H 0.86941 0.72836 0.41948 0.0
H1098 H 0.90904 0.76894 0.48597 0.0
H1099 H 0.86414 0.72724 0.47311 0.0
H1100 H 0.84699 0.75037 0.56661 0.0
H1101 H 0.85228 0.74897 0.51302 0.0
H1102 H 0.91263 0.74616 0.52791 0.0
H1103 H 0.90742 0.74777 0.58135 0.0
C1104 C 0.90344 0.76054 0.44105 0.0
C1105 C 0.89236 0.74924 0.42175 0.0
C1106 C 0.90042 0.75987 0.4717 0.0
C1107 C 0.88621 0.74796 0.48373 0.0
C1108 C 0.8751 0.73667 0.46445 0.0
C1109 C 0.87818 0.73725 0.43376 0.0
C1110 C 0.86137 0.74931 0.55846 0.0
C1111 C 0.87678 0.74932 0.57824 0.0
C1112 C 0.8644 0.74842 0.52777 0.0
C1113 C 0.88288 0.7476 0.51628 0.0
C1114 C 0.89824 0.74709 0.5361 0.0
C1115 C 0.89523 0.7479 0.56673 0.0
H1116 H 0.25645 0.84997 0.58126 0.0
H1117 H 0.28081 0.90689 0.59382 0.0
H1118 H 0.26214 0.85248 0.52793 0.0
H1119 H 0.2868 0.90922 0.54065 0.0
H1120 H 0.26848 0.91681 0.44308 0.0
H1121 H 0.26699 0.91328 0.49682 0.0
H1122 H 0.28655 0.85413 0.48928 0.0
H1123 H 0.28774 0.85753 0.43528 0.0
C1124 C 0.26326 0.86289 0.57273 0.0
C1125 C 0.26799 0.87831 0.59176 0.0
C1126 C 0.26661 0.86429 0.54217 0.0
C1127 C 0.27477 0.88113 0.53003 0.0
C1128 C 0.28018 0.89621 0.54925 0.0
C1129 C 0.27683 0.89481 0.57975 0.0
C1130 C 0.27259 0.90308 0.45284 0.0
C1131 C 0.27816 0.88743 0.43487 0.0
C1132 C 0.27185 0.90109 0.4837 0.0
C1133 C 0.27666 0.88342 0.49733 0.0
C1134 C 0.28256 0.86786 0.47941 0.0
C1135 C 0.28333 0.86986 0.4485 0.0
H1136 H 0.08509 0.75069 0.43528 0.0
H1137 H 0.14201 0.72782 0.4384 0.0
H1138 H 0.0835 0.7498 0.48918 0.0
H1139 H 0.14018 0.72628 0.4925 0.0
H1140 H 0.13904 0.75213 0.58677 0.0
H1141 H 0.14037 0.74845 0.53309 0.0
H1142 H 0.08186 0.73004 0.53243 0.0
H1143 H 0.08037 0.73441 0.58617 0.0
C1144 C 0.09718 0.74516 0.44746 0.0
C1145 C 0.11375 0.73948 0.43254 0.0
C1146 C 0.09621 0.74453 0.47844 0.0
C1147 C 0.11174 0.73805 0.49528 0.0
C1148 C 0.12808 0.73168 0.48027 0.0
C1149 C 0.12909 0.73246 0.44924 0.0
C1150 C 0.12648 0.74718 0.57521 0.0
C1151 C 0.10955 0.74372 0.59071 0.0
C1152 C 0.12729 0.74492 0.54439 0.0
C1153 C 0.11122 0.73898 0.52833 0.0
C1154 C 0.09442 0.73496 0.544 0.0
C1155 C 0.09358 0.73737 0.57483 0.0
H1156 H 0.2709 0.07667 0.4035 0.0
H1157 H 0.25262 0.13616 0.41294 0.0
H1158 H 0.27599 0.07467 0.45694 0.0
H1159 H 0.25742 0.13402 0.46657 0.0
H1160 H 0.28486 0.1281 0.55867 0.0
H1161 H 0.28217 0.13071 0.50467 0.0
H1162 H 0.25644 0.0739 0.50149 0.0
H1163 H 0.2594 0.07114 0.5552 0.0
C1164 C 0.26797 0.08934 0.41696 0.0
C1165 C 0.26126 0.10655 0.40395 0.0
C1166 C 0.27081 0.08815 0.44762 0.0
C1167 C 0.267 0.10415 0.46603 0.0
C1168 C 0.26065 0.1215 0.45297 0.0
C1169 C 0.25779 0.12268 0.42225 0.0
C1170 C 0.27871 0.11614 0.54641 0.0
C1171 C 0.27236 0.09941 0.56124 0.0
C1172 C 0.27707 0.11769 0.51551 0.0
C1173 C 0.26911 0.1025 0.49879 0.0
C1174 C 0.26289 0.08574 0.51365 0.0
C1175 C 0.26449 0.08421 0.54449 0.0
H1176 H 0.84421 0.24277 0.43176 0.0
H1177 H 0.90173 0.26385 0.42641 0.0
H1178 H 0.84667 0.2415 0.48566 0.0
H1179 H 0.90401 0.26312 0.48048 0.0
H1180 H 0.90863 0.23539 0.57318 0.0
H1181 H 0.90615 0.23948 0.51954 0.0
H1182 H 0.84896 0.26071 0.52982 0.0
H1183 H 0.85126 0.25606 0.58338 0.0
C1184 C 0.8573 0.24739 0.44211 0.0
C1185 C 0.87281 0.2533 0.42477 0.0
C1186 C 0.85869 0.24676 0.47307 0.0
C1187 C 0.87557 0.25214 0.48746 0.0
C1188 C 0.89091 0.25856 0.47011 0.0
C1189 C 0.88956 0.2591 0.43912 0.0
C1190 C 0.89555 0.24099 0.564 0.0
C1191 C 0.8801 0.24528 0.58254 0.0
C1192 C 0.89417 0.24347 0.53324 0.0
C1193 C 0.87734 0.2504 0.52031 0.0
C1194 C 0.86202 0.25504 0.53896 0.0
C1195 C 0.86338 0.25247 0.56971 0.0
H1196 H 0.72832 0.9226 0.55235 0.0
H1197 H 0.71321 0.86213 0.56126 0.0
H1198 H 0.73137 0.91844 0.49879 0.0
H1199 H 0.71605 0.85807 0.50755 0.0
H1200 H 0.74701 0.85446 0.41694 0.0
H1201 H 0.74156 0.85804 0.47017 0.0
H1202 H 0.71216 0.91197 0.45427 0.0
H1203 H 0.71779 0.90856 0.40106 0.0
C1204 C 0.72552 0.90845 0.54288 0.0
C1205 C 0.72058 0.89268 0.5611 0.0
C1206 C 0.72716 0.9061 0.51215 0.0
C1207 C 0.72396 0.88792 0.49895 0.0
C1208 C 0.71881 0.8722 0.51712 0.0
C1209 C 0.71709 0.87456 0.54786 0.0
C1210 C 0.7393 0.86704 0.42476 0.0
C1211 C 0.73292 0.88127 0.40476 0.0
C1212 C 0.73609 0.86903 0.45526 0.0
C1213 C 0.72648 0.88532 0.46643 0.0
C1214 C 0.71981 0.89938 0.44638 0.0
C1215 C 0.72296 0.89736 0.41587 0.0
H1216 H 0.58871 0.75241 0.05793 0.0
H1217 H 0.64984 0.75328 0.0551 0.0
H1218 H 0.58767 0.74993 0.00406 0.0
H1219 H 0.64883 0.7515 0.001 0.0
H1220 H 0.63965 0.7228 0.91002 0.0
H1221 H 0.64166 0.7284 0.96333 0.0
H1222 H 0.59304 0.76634 0.95842 0.0
H1223 H 0.59065 0.76016 0.90524 0.0
C1224 C 0.60194 0.75238 0.04577 0.0
C1225 C 0.61936 0.75292 0.06082 0.0
C1226 C 0.60135 0.75107 0.0148 0.0
C1227 C 0.61817 0.75044 0.9981 0.0
C1228 C 0.6356 0.75159 0.01316 0.0
C1229 C 0.63619 0.75274 0.04418 0.0
C1230 C 0.62945 0.73242 0.92029 0.0
C1231 C 0.61492 0.74092 0.90344 0.0
C1232 C 0.63067 0.73574 0.95087 0.0
C1233 C 0.61749 0.7478 0.96527 0.0
C1234 C 0.60324 0.7567 0.9482 0.0
C1235 C 0.60191 0.75323 0.91766 0.0
H1236 H 0.20944 0.63007 0.92913 0.0
H1237 H 0.22671 0.57071 0.94389 0.0
H1238 H 0.2067 0.63485 0.98271 0.0
H1239 H 0.22427 0.57561 0.99734 0.0
H1240 H 0.20307 0.58528 0.09085 0.0
H1241 H 0.20135 0.58133 0.03709 0.0
H1242 H 0.2283 0.63705 0.02529 0.0
H1243 H 0.22976 0.64117 0.07906 0.0
C1244 C 0.21257 0.61802 0.94377 0.0
C1245 C 0.21835 0.60002 0.93223 0.0
C1246 C 0.2111 0.6208 0.97447 0.0
C1247 C 0.2153 0.60563 0.99427 0.0
C1248 C 0.22069 0.58753 0.98268 0.0
C1249 C 0.22221 0.58476 0.95202 0.0
C1250 C 0.20847 0.59679 0.07681 0.0
C1251 C 0.21667 0.61349 0.08925 0.0
C1252 C 0.20757 0.59446 0.04599 0.0
C1253 C 0.21482 0.6088 0.02692 0.0
C1254 C 0.22243 0.6258 0.03936 0.0
C1255 C 0.22336 0.62812 0.0702 0.0
H1256 H 0.34 0.24255 0.05908 0.0
H1257 H 0.39702 0.22104 0.07026 0.0
H1258 H 0.34339 0.24008 0.00532 0.0
H1259 H 0.40022 0.21807 0.01656 0.0
H1260 H 0.40758 0.24298 0.92243 0.0
H1261 H 0.40358 0.24042 0.97591 0.0
H1262 H 0.3468 0.21858 0.96312 0.0
H1263 H 0.35065 0.22161 0.90938 0.0
C1264 C 0.35315 0.237 0.05009 0.0
C1265 C 0.36832 0.2322 0.06893 0.0
C1266 C 0.35506 0.23548 0.01925 0.0
C1267 C 0.37214 0.22903 0.0066 0.0
C1268 C 0.387 0.22344 0.02555 0.0
C1269 C 0.38513 0.22506 0.05635 0.0
C1270 C 0.39428 0.23748 0.93096 0.0
C1271 C 0.37939 0.23262 0.91163 0.0
C1272 C 0.39203 0.23588 0.96168 0.0
C1273 C 0.37485 0.22931 0.97384 0.0
C1274 C 0.36012 0.22394 0.95448 0.0
C1275 C 0.36237 0.22558 0.92368 0.0
H1276 H 0.75436 0.34992 0.07723 0.0
H1277 H 0.7783 0.40683 0.09174 0.0
H1278 H 0.75947 0.35353 0.02386 0.0
H1279 H 0.7837 0.41025 0.03856 0.0
H1280 H 0.76623 0.41933 0.94121 0.0
H1281 H 0.76403 0.41483 0.99474 0.0
H1282 H 0.78397 0.35593 0.98537 0.0
H1283 H 0.78587 0.36031 0.93158 0.0
C1284 C 0.7609 0.3631 0.0691 0.0
C1285 C 0.76577 0.37815 0.08873 0.0
C1286 C 0.76392 0.36513 0.03852 0.0
C1287 C 0.77187 0.38224 0.02695 0.0
C1288 C 0.77725 0.39703 0.04671 0.0
C1289 C 0.77424 0.39501 0.07723 0.0
C1290 C 0.77024 0.40544 0.95053 0.0
C1291 C 0.77618 0.39017 0.9321 0.0
C1292 C 0.76909 0.4029 0.98127 0.0
C1293 C 0.77384 0.38503 0.99434 0.0
C1294 C 0.78001 0.36981 0.97595 0.0
C1295 C 0.7812 0.37236 0.94515 0.0
H1296 H 0.58067 0.23125 0.08325 0.0
H1297 H 0.64072 0.2431 0.08623 0.0
H1298 H 0.58248 0.22741 0.02946 0.0
H1299 H 0.64243 0.23983 0.03246 0.0
H1300 H 0.64284 0.21977 0.9371 0.0
H1301 H 0.6403 0.21787 0.9911 0.0
H1302 H 0.58681 0.24819 0.98725 0.0
H1303 H 0.58908 0.24959 0.93339 0.0
C1304 C 0.59427 0.23298 0.07244 0.0
C1305 C 0.61053 0.23761 0.08899 0.0
C1306 C 0.59529 0.23087 0.04159 0.0
C1307 C 0.61258 0.23344 0.02658 0.0
C1308 C 0.62893 0.23751 0.04329 0.0
C1309 C 0.62793 0.23952 0.07414 0.0
C1310 C 0.63045 0.22586 0.94778 0.0
C1311 C 0.61622 0.23493 0.93095 0.0
C1312 C 0.62904 0.22486 0.97875 0.0
C1313 C 0.6134 0.23297 0.99356 0.0
C1314 C 0.59893 0.24156 0.9766 0.0
C1315 C 0.6003 0.24248 0.94567 0.0
H1316 H 0.80354 0.58536 0.04869 0.0
H1317 H 0.75577 0.62393 0.05906 0.0
H1318 H 0.80117 0.58858 0.99476 0.0
H1319 H 0.75321 0.62683 0.00533 0.0
H1320 H 0.76424 0.64234 0.90914 0.0
H1321 H 0.76956 0.64036 0.96258 0.0
H1322 H 0.77982 0.57881 0.95479 0.0
H1323 H 0.77488 0.58083 0.90127 0.0
C1324 C 0.79255 0.59452 0.03949 0.0
C1325 C 0.77984 0.60437 0.05817 0.0
C1326 C 0.79114 0.59629 0.00859 0.0
C1327 C 0.77701 0.60797 0.99576 0.0
C1328 C 0.76443 0.61795 0.0145 0.0
C1329 C 0.76583 0.61617 0.04532 0.0
C1330 C 0.76774 0.6284 0.91878 0.0
C1331 C 0.76904 0.61173 0.90096 0.0
C1332 C 0.7707 0.62725 0.94944 0.0
C1333 C 0.77501 0.6094 0.96296 0.0
C1334 C 0.77672 0.59281 0.94503 0.0
C1335 C 0.77378 0.59396 0.91436 0.0
H1336 H 0.39883 0.768 0.94328 0.0
H1337 H 0.34132 0.74665 0.94595 0.0
H1338 H 0.40095 0.76484 0.99714 0.0
H1339 H 0.3436 0.74309 -0.0003 0.0
H1340 H 0.34906 0.7527 0.0993 0.0
H1341 H 0.34643 0.76042 0.04654 0.0
H1342 H 0.40282 0.73808 0.03204 0.0
H1343 H 0.40561 0.73075 0.08478 0.0
C1344 C 0.3866 0.76275 0.95536 0.0
C1345 C 0.36995 0.75745 0.9403 0.0
C1346 C 0.38786 0.76082 0.98621 0.0
C1347 C 0.37252 0.75354 0.00268 0.0
C1348 C 0.35563 0.74891 0.98772 0.0
C1349 C 0.35435 0.75086 0.95687 0.0
C1350 C 0.36093 0.74952 0.08487 0.0
C1351 C 0.37752 0.74105 0.09623 0.0
C1352 C 0.35939 0.75388 0.05462 0.0
C1353 C 0.37441 0.74986 0.03508 0.0
C1354 C 0.39109 0.74163 0.04655 0.0
C1355 C 0.39264 0.73728 0.07677 0.0
H1356 H 0.21645 0.41013 0.89491 0.0
H1357 H 0.23655 0.35162 0.90869 0.0
H1358 H 0.21013 0.41317 0.94787 0.0
H1359 H 0.23066 0.35486 0.96189 0.0
H1360 H 0.20378 0.36162 0.05331 0.0
H1361 H 0.20614 0.35798 -0.00056 0.0
H1362 H 0.22842 0.41618 0.99271 0.0
H1363 H 0.22564 0.41999 0.04623 0.0
C1364 C 0.21954 0.39791 0.90925 0.0
C1365 C 0.22714 0.38067 0.89761 0.0
C1366 C 0.21598 0.39969 0.93964 0.0
C1367 C 0.22001 0.38432 0.95917 0.0
C1368 C 0.2272 0.36691 0.94743 0.0
C1369 C 0.23069 0.36509 0.91695 0.0
C1370 C 0.20902 0.37369 0.04027 0.0
C1371 C 0.21455 0.39109 0.05407 0.0
C1372 C 0.21048 0.37155 0.00943 0.0
C1373 C 0.21751 0.38677 0.99176 0.0
C1374 C 0.2227 0.40427 0.00557 0.0
C1375 C 0.2212 0.40641 0.03633 0.0
H1376 H 0.19227 0.36316 0.25728 0.0
H1377 H 0.16769 0.33858 0.17774 0.0
H1378 H 0.17488 0.33988 0.28746 0.0
H1379 H 0.15046 0.31509 0.20804 0.0
H1380 H 0.11057 0.28599 0.27512 0.0
H1381 H 0.12515 0.31188 0.24597 0.0
H1382 H 0.17721 0.30462 0.29515 0.0
H1383 H 0.16265 0.27898 0.32448 0.0
C1384 C 0.18306 0.35288 0.24623 0.0
C1385 C 0.18148 0.35261 0.21509 0.0
C1386 C 0.17318 0.33947 0.26353 0.0
C1387 C 0.16147 0.32555 0.25009 0.0
C1388 C 0.1593 0.32574 0.21903 0.0
C1389 C 0.16923 0.33913 0.20168 0.0
C1390 C 0.1251 0.28999 0.27979 0.0
C1391 C 0.13548 0.28043 0.30209 0.0
C1392 C 0.13346 0.30475 0.263 0.0
C1393 C 0.15229 0.3103 0.26833 0.0
C1394 C 0.16258 0.30085 0.29081 0.0
C1395 C 0.15427 0.28606 0.30748 0.0
H1396 H 0.60673 0.17228 0.18441 0.0
H1397 H 0.62549 0.21743 0.24422 0.0
H1398 H 0.6259 0.14872 0.21153 0.0
H1399 H 0.64484 0.19401 0.27087 0.0
H1400 H 0.66732 0.1452 0.32698 0.0
H1401 H 0.64357 0.16554 0.30295 0.0
H1402 H 0.65972 0.14236 0.21742 0.0
H1403 H 0.68317 0.12177 0.24142 0.0
C1404 C 0.61485 0.17716 0.20341 0.0
C1405 C 0.61467 0.19674 0.21205 0.0
C1406 C 0.62589 0.16368 0.21885 0.0
C1407 C 0.63692 0.16951 0.24329 0.0
C1408 C 0.63632 0.18899 0.25238 0.0
C1409 C 0.62532 0.20245 0.23695 0.0
C1410 C 0.66566 0.14429 0.30308 0.0
C1411 C 0.67725 0.132 0.28607 0.0
C1412 C 0.65211 0.156 0.28932 0.0
C1413 C 0.64987 0.15567 0.25827 0.0
C1414 C 0.66097 0.14283 0.24141 0.0
C1415 C 0.6745 0.13111 0.25516 0.0
H1416 H 0.82086 0.6062 0.24265 0.0
H1417 H 0.82016 0.64382 0.16576 0.0
H1418 H 0.84504 0.62666 0.2655 0.0
H1419 H 0.84404 0.66432 0.18875 0.0
H1420 H 0.89456 0.693 0.22999 0.0
H1421 H 0.87692 0.66671 0.20641 0.0
H1422 H 0.84372 0.65961 0.28632 0.0
H1423 H 0.86144 0.68559 0.30999 0.0
C1424 C 0.82603 0.61867 0.23046 0.0
C1425 C 0.81843 0.62352 0.20256 0.0
C1426 C 0.83981 0.63042 0.24361 0.0
C1427 C 0.84634 0.64717 0.22901 0.0
C1428 C 0.83944 0.65142 0.20045 0.0
C1429 C 0.82563 0.63974 0.18738 0.0
C1430 C 0.88368 0.68564 0.24266 0.0
C1431 C 0.87925 0.69153 0.27173 0.0
C1432 C 0.87355 0.67063 0.22911 0.0
C1433 C 0.85887 0.66118 0.24445 0.0
C1434 C 0.85508 0.66646 0.27401 0.0
C1435 C 0.86515 0.68148 0.28749 0.0
H1436 H 0.35235 0.75551 0.22406 0.0
H1437 H 0.39707 0.79805 0.21664 0.0
H1438 H 0.33152 0.78 0.24517 0.0
H1439 H 0.37607 0.82261 0.23829 0.0
H1440 H 0.33539 0.8501 0.31214 0.0
H1441 H 0.35819 0.82769 0.28975 0.0
H1442 H 0.31678 0.81164 0.22361 0.0
H1443 H 0.29408 0.83407 0.24559 0.0
C1444 C 0.35779 0.77005 0.22714 0.0
C1445 C 0.37635 0.77487 0.21864 0.0
C1446 C 0.34581 0.78408 0.23905 0.0
C1447 C 0.35219 0.80316 0.2431 0.0
C1448 C 0.37087 0.80796 0.23536 0.0
C1449 C 0.38283 0.79394 0.22295 0.0
C1450 C 0.33122 0.8419 0.29267 0.0
C1451 C 0.31291 0.84373 0.28072 0.0
C1452 C 0.34429 0.82919 0.27983 0.0
C1453 C 0.33913 0.81791 0.25515 0.0
C1454 C 0.321 0.82008 0.24282 0.0
C1455 C 0.30806 0.83297 0.25534 0.0
H1456 H 0.21009 0.65921 0.75047 0.0
H1457 H 0.16706 0.62679 0.79744 0.0
H1458 H 0.18561 0.67891 0.72713 0.0
H1459 H 0.1425 0.64652 0.77359 0.0
H1460 H 0.10704 0.67605 0.69553 0.0
H1461 H 0.13018 0.65415 0.7185 0.0
H1462 H 0.1617 0.70349 0.75067 0.0
H1463 H 0.13865 0.72532 0.72826 0.0
C1464 C 0.1954 0.65615 0.75559 0.0
C1465 C 0.19049 0.64153 0.77594 0.0
C1466 C 0.18143 0.66748 0.74231 0.0
C1467 C 0.16226 0.66426 0.74878 0.0
C1468 C 0.15723 0.64921 0.76825 0.0
C1469 C 0.17126 0.63802 0.78194 0.0
C1470 C 0.11886 0.68218 0.70766 0.0
C1471 C 0.12107 0.70238 0.71004 0.0
C1472 C 0.13201 0.66967 0.72083 0.0
C1473 C 0.14771 0.67721 0.73608 0.0
C1474 C 0.14978 0.69737 0.73875 0.0
C1475 C 0.13653 0.70983 0.72605 0.0
H1476 H 0.32481 0.11436 0.75276 0.0
H1477 H 0.33353 0.14419 0.66934 0.0
H1478 H 0.34785 0.13557 0.7765 0.0
H1479 H 0.35691 0.16511 0.69299 0.0
H1480 H 0.37081 0.21576 0.75662 0.0
H1481 H 0.35378 0.19128 0.72859 0.0
H1482 H 0.3808 0.14622 0.78014 0.0
H1483 H 0.3977 0.17088 0.8088 0.0
C1484 C 0.33191 0.1252 0.73934 0.0
C1485 C 0.32712 0.12779 0.70927 0.0
C1486 C 0.34522 0.13728 0.75293 0.0
C1487 C 0.35406 0.15216 0.7367 0.0
C1488 C 0.35007 0.154 0.70621 0.0
C1489 C 0.33673 0.14196 0.69264 0.0
C1490 C 0.37328 0.20064 0.76187 0.0
C1491 C 0.38549 0.19528 0.78513 0.0
C1492 C 0.36363 0.18658 0.74558 0.0
C1493 C 0.36594 0.16679 0.75212 0.0
C1494 C 0.3786 0.16136 0.77478 0.0
C1495 C 0.38832 0.17548 0.79109 0.0
H1496 H 0.86535 0.26723 0.73509 0.0
H1497 H 0.88277 0.31007 0.67044 0.0
H1498 H 0.84705 0.29174 0.76117 0.0
H1499 H 0.86458 0.33474 0.69694 0.0
H1500 H 0.80923 0.36404 0.73105 0.0
H1501 H 0.83085 0.34194 0.7059 0.0
H1502 H 0.85087 0.32124 0.79094 0.0
H1503 H 0.82904 0.3431 0.81615 0.0
C1504 C 0.8654 0.28192 0.72656 0.0
C1505 C 0.87546 0.28669 0.70062 0.0
C1506 C 0.85501 0.29601 0.74166 0.0
C1507 C 0.85441 0.31518 0.73115 0.0
C1508 C 0.86466 0.32004 0.70542 0.0
C1509 C 0.87513 0.30593 0.69033 0.0
C1510 C 0.81835 0.3549 0.7444 0.0
C1511 C 0.81729 0.35519 0.7756 0.0
C1512 C 0.83083 0.34232 0.72997 0.0
C1513 C 0.84247 0.32977 0.74645 0.0
C1514 C 0.84186 0.33054 0.77765 0.0
C1515 C 0.82941 0.34313 0.79208 0.0
H1516 H 0.64589 0.88075 0.71471 0.0
H1517 H 0.68249 0.83402 0.68649 0.0
H1518 H 0.62551 0.85733 0.74004 0.0
H1519 H 0.66255 0.81088 0.71226 0.0
H1520 H 0.61621 0.771 0.74036 0.0
H1521 H 0.63207 0.79571 0.71085 0.0
H1522 H 0.62665 0.83635 0.78347 0.0
H1523 H 0.61023 0.81176 0.81271 0.0
C1524 C 0.64955 0.86551 0.71381 0.0
C1525 C 0.66583 0.85926 0.69862 0.0
C1526 C 0.63794 0.85212 0.72845 0.0
C1527 C 0.64238 0.83223 0.72815 0.0
C1528 C 0.6585 0.82603 0.71253 0.0
C1529 C 0.67004 0.83935 0.69791 0.0
C1530 C 0.61827 0.78526 0.74996 0.0
C1531 C 0.61214 0.78938 0.77898 0.0
C1532 C 0.62743 0.7994 0.73308 0.0
C1533 C 0.63082 0.81795 0.74492 0.0
C1534 C 0.62411 0.82227 0.77358 0.0
C1535 C 0.61481 0.80814 0.79042 0.0
H1536 H 0.86141 0.68312 0.66883 0.0
H1537 H 0.84786 0.72737 0.73345 0.0
H1538 H 0.8388 0.66122 0.69249 0.0
H1539 H 0.82564 0.7054 0.75735 0.0
H1540 H 0.7716 0.67077 0.76977 0.0
H1541 H 0.79499 0.69145 0.74595 0.0
H1542 H 0.83302 0.64265 0.73811 0.0
H1543 H 0.80938 0.62176 0.76149 0.0
C1544 C 0.85375 0.68811 0.68822 0.0
C1545 C 0.85633 0.70703 0.69912 0.0
C1546 C 0.84086 0.67553 0.70185 0.0
C1547 C 0.83031 0.68163 0.72664 0.0
C1548 C 0.83327 0.70039 0.73794 0.0
C1549 C 0.84611 0.71294 0.72433 0.0
C1550 C 0.78492 0.6644 0.76293 0.0
C1551 C 0.78865 0.64463 0.76761 0.0
C1552 C 0.79839 0.6763 0.74944 0.0
C1553 C 0.81593 0.66873 0.74036 0.0
C1554 C 0.81958 0.64888 0.74466 0.0
C1555 C 0.80607 0.63695 0.75816 0.0
H1556 H 0.34604 0.82594 0.85651 0.0
H1557 H 0.36738 0.79794 0.77736 0.0
H1558 H 0.32915 0.84938 0.82567 0.0
H1559 H 0.35035 0.82121 0.74666 0.0
H1560 H 0.32868 0.87501 0.69964 0.0
H1561 H 0.34879 0.85588 0.73268 0.0
H1562 H 0.3015 0.84743 0.79216 0.0
H1563 H 0.28148 0.86667 0.75944 0.0
C1564 C 0.34726 0.82487 0.83257 0.0
C1565 C 0.35795 0.81 0.81939 0.0
C1566 C 0.33752 0.83825 0.81492 0.0
C1567 C 0.33836 0.83708 0.78376 0.0
C1568 C 0.34957 0.82261 0.77061 0.0
C1569 C 0.35923 0.8092 0.78823 0.0
C1570 C 0.32263 0.86923 0.71992 0.0
C1571 C 0.30346 0.87225 0.72682 0.0
C1572 C 0.33413 0.85821 0.73875 0.0
C1573 C 0.32671 0.85011 0.76495 0.0
C1574 C 0.30769 0.85365 0.77229 0.0
C1575 C 0.29618 0.86457 0.75342 0.0
H1576 H 0.12697 0.28555 0.74697 0.0
H1577 H 0.1286 0.31786 0.66464 0.0
H1578 H 0.14458 0.31135 0.7716 0.0
H1579 H 0.14624 0.34371 0.68944 0.0
H1580 H 0.20168 0.36628 0.73579 0.0
H1581 H 0.17935 0.34503 0.71034 0.0
H1582 H 0.14253 0.34641 0.78692 0.0
H1583 H 0.16488 0.36768 0.81252 0.0
C1584 C 0.13089 0.29827 0.73422 0.0
C1585 C 0.12652 0.29961 0.70381 0.0
C1586 C 0.14086 0.31309 0.74839 0.0
C1587 C 0.14682 0.32949 0.73239 0.0
C1588 C 0.14194 0.33114 0.70222 0.0
C1589 C 0.13178 0.31639 0.68809 0.0
C1590 C 0.18872 0.36224 0.74709 0.0
C1591 C 0.18511 0.36853 0.77625 0.0
C1592 C 0.17588 0.35018 0.73243 0.0
C1593 C 0.15925 0.34404 0.74672 0.0
C1594 C 0.15533 0.35081 0.77551 0.0
C1595 C 0.16809 0.36304 0.79009 0.0
H1596 H 0.70659 0.13958 0.75381 0.0
H1597 H 0.65599 0.11458 0.7156 0.0
H1598 H 0.68732 0.16261 0.78139 0.0
H1599 H 0.63669 0.13786 0.7432 0.0
H1600 H 0.60877 0.17311 0.81959 0.0
H1601 H 0.62735 0.14779 0.79508 0.0
H1602 H 0.66782 0.19086 0.76642 0.0
H1603 H 0.64947 0.21604 0.7909 0.0
C1604 C 0.69135 0.1389 0.75142 0.0
C1605 C 0.68284 0.12535 0.73228 0.0
C1606 C 0.68032 0.15217 0.76713 0.0
C1607 C 0.66053 0.15216 0.76418 0.0
C1608 C 0.65192 0.13814 0.74597 0.0
C1609 C 0.66298 0.12488 0.7301 0.0
C1610 C 0.62164 0.17714 0.80806 0.0
C1611 C 0.62767 0.19657 0.80724 0.0
C1612 C 0.63221 0.16267 0.79395 0.0
C1613 C 0.64908 0.16734 0.77902 0.0
C1614 C 0.65503 0.18677 0.77814 0.0
C1615 C 0.64443 0.20122 0.79202 0.0
H1616 H 0.83075 0.36854 0.18413 0.0
H1617 H 0.7907 0.37086 0.25668 0.0
H1618 H 0.85205 0.34906 0.21475 0.0
H1619 H 0.81185 0.35124 0.28702 0.0
H1620 H 0.85926 0.32525 0.34147 0.0
H1621 H 0.84288 0.35 0.31231 0.0
H1622 H 0.85021 0.31538 0.23314 0.0
H1623 H 0.8667 0.29081 0.26206 0.0
C1624 C 0.82658 0.36511 0.2067 0.0
C1625 C 0.80894 0.37106 0.21787 0.0
C1626 C 0.83874 0.35388 0.22417 0.0
C1627 C 0.83355 0.3485 0.2532 0.0
C1628 C 0.81633 0.35528 0.26483 0.0
C1629 C 0.80415 0.36641 0.24735 0.0
C1630 C 0.85755 0.32303 0.31779 0.0
C1631 C 0.86414 0.306 0.30412 0.0
C1632 C 0.84812 0.33717 0.30113 0.0
C1633 C 0.84523 0.33461 0.27046 0.0
C1634 C 0.85242 0.31789 0.25666 0.0
C1635 C 0.86174 0.30373 0.2733 0.0
H1636 H 0.64696 0.8162 0.14765 0.0
H1637 H 0.6201 0.79081 0.22471 0.0
H1638 H 0.66673 0.836 0.18001 0.0
H1639 H 0.63953 0.81097 0.25703 0.0
H1640 H 0.69594 0.82723 0.3016 0.0
H1641 H 0.67259 0.81099 0.27067 0.0
H1642 H 0.66785 0.86226 0.2159 0.0
H1643 H 0.69161 0.87842 0.24653 0.0
C1644 C 0.64501 0.81512 0.17147 0.0
C1645 C 0.63211 0.80177 0.18361 0.0
C1646 C 0.6563 0.82654 0.19004 0.0
C1647 C 0.65486 0.8249 0.22112 0.0
C1648 C 0.64126 0.81227 0.23319 0.0
C1649 C 0.63004 0.80081 0.21465 0.0
C1650 C 0.68986 0.8351 0.28307 0.0
C1651 C 0.69572 0.85407 0.27644 0.0
C1652 C 0.67634 0.82583 0.26545 0.0
C1653 C 0.66832 0.83534 0.24082 0.0
C1654 C 0.67392 0.85446 0.23451 0.0
C1655 C 0.68747 0.86374 0.25214 0.0
H1656 H 0.12727 0.72106 0.26848 0.0
H1657 H 0.1191 0.67718 0.33591 0.0
H1658 H 0.14387 0.69761 0.23755 0.0
H1659 H 0.1357 0.65365 0.30474 0.0
H1660 H 0.18845 0.62786 0.25624 0.0
H1661 H 0.169 0.64914 0.28692 0.0
H1662 H 0.13793 0.66724 0.20902 0.0
H1663 H 0.15742 0.64606 0.17822 0.0
C1664 C 0.12891 0.70638 0.27664 0.0
C1665 C 0.12192 0.701 0.30471 0.0
C1666 C 0.13832 0.69291 0.25881 0.0
C1667 C 0.14107 0.6738 0.26873 0.0
C1668 C 0.1339 0.66833 0.29664 0.0
C1669 C 0.12433 0.68178 0.3144 0.0
C1670 C 0.17739 0.63628 0.24566 0.0
C1671 C 0.17456 0.63535 0.21475 0.0
C1672 C 0.16618 0.64837 0.26328 0.0
C1673 C 0.15199 0.6599 0.25034 0.0
C1674 C 0.1489 0.65867 0.21954 0.0
C1675 C 0.16001 0.64647 0.20194 0.0
H1676 H 0.32217 0.1306 0.31778 0.0
H1677 H 0.28651 0.12174 0.24085 0.0
H1678 H 0.3432 0.15099 0.28812 0.0
H1679 H 0.30743 0.14222 0.2114 0.0
H1680 H 0.35778 0.1664 0.1606 0.0
H1681 H 0.34008 0.14322 0.19079 0.0
H1682 H 0.3407 0.18347 0.26433 0.0
H1683 H 0.3585 0.20657 0.23436 0.0
C1684 C 0.31887 0.13291 0.29454 0.0
C1685 C 0.30263 0.12462 0.2817 0.0
C1686 C 0.33087 0.14465 0.27761 0.0
C1687 C 0.32694 0.1482 0.24746 0.0
C1688 C 0.31094 0.13956 0.23448 0.0
C1689 C 0.29889 0.12794 0.25143 0.0
C1690 C 0.35429 0.17023 0.18329 0.0
C1691 C 0.35944 0.18836 0.19503 0.0
C1692 C 0.34408 0.15699 0.20051 0.0
C1693 C 0.33895 0.16157 0.22987 0.0
C1694 C 0.34461 0.17946 0.24188 0.0
C1695 C 0.3547 0.19273 0.22462 0.0
loop_
_geom_bond_atom_site_label_1
_geom_bond_atom_site_label_2
_geom_bond_distance
_geom_bond_site_symmetry_2
_ccdc_geom_bond_type
C0 O1 1.160 . S
C0 O7 1.185 . S
O1 C0 1.160 . S
O2 Zn3 1.899 . S
O2 C10 1.284 . S
Zn3 O2 1.899 . S
Zn3 O4 2.032 . S
Zn3 O7 2.086 . S
Zn3 O12 1.977 . S
O4 Zn3 2.032 . S
O4 C8 1.278 . S
C5 O6 1.203 . S
C5 O12 1.267 . S
O6 C5 1.203 . S
O7 C0 1.185 . S
O7 Zn3 2.086 . S
C8 O4 1.278 . S
C8 O9 1.211 . S
O9 C8 1.211 . S
C10 O2 1.284 . S
C10 O11 1.273 . S
O11 C10 1.273 . S
O12 Zn3 1.977 . S
O12 C5 1.267 . S
C13 O14 1.160 . S
C13 O20 1.185 . S
O14 C13 1.160 . S
O15 Zn16 1.899 . S
O15 C23 1.284 . S
Zn16 O15 1.899 . S
Zn16 O17 2.032 . S
Zn16 O20 2.086 . S
Zn16 O25 1.977 . S
O17 Zn16 2.032 . S
O17 C21 1.278 . S
C18 O19 1.203 . S
C18 O25 1.267 . S
O19 C18 1.203 . S
O20 C13 1.185 . S
O20 Zn16 2.086 . S
C21 O17 1.278 . S
C21 O22 1.211 . S
O22 C21 1.211 . S
C23 O15 1.284 . S
C23 O24 1.273 . S
O24 C23 1.273 . S
O25 Zn16 1.977 . S
O25 C18 1.267 . S
C26 O27 1.160 . S
C26 O33 1.185 . S
O27 C26 1.160 . S
O28 Zn29 1.899 . S
O28 C36 1.284 . S
Zn29 O28 1.899 . S
Zn29 O30 2.032 . S
Zn29 O33 2.086 . S
Zn29 O38 1.977 . S
O30 Zn29 2.032 . S
O30 C34 1.278 . S
C31 O32 1.203 . S
C31 O38 1.267 . S
O32 C31 1.203 . S
O33 C26 1.185 . S
O33 Zn29 2.086 . S
C34 O30 1.278 . S
C34 O35 1.211 . S
O35 C34 1.211 . S
C36 O28 1.284 . S
C36 O37 1.273 . S
O37 C36 1.273 . S
O38 Zn29 1.977 . S
O38 C31 1.267 . S
C39 O40 1.160 . S
C39 O46 1.185 . S
O40 C39 1.160 . S
O41 Zn42 1.899 . S
O41 C49 1.284 . S
Zn42 O41 1.899 . S
Zn42 O43 2.032 . S
Zn42 O46 2.086 . S
Zn42 O51 1.977 . S
O43 Zn42 2.032 . S
O43 C47 1.278 . S
C44 O45 1.203 . S
C44 O51 1.267 . S
O45 C44 1.203 . S
O46 C39 1.185 . S
O46 Zn42 2.086 . S
C47 O43 1.278 . S
C47 O48 1.211 . S
O48 C47 1.211 . S
C49 O41 1.284 . S
C49 O50 1.273 . S
O50 C49 1.273 . S
O51 Zn42 1.977 . S
O51 C44 1.267 . S
C52 O53 1.160 . S
C52 O59 1.185 . S
O53 C52 1.160 . S
O54 Zn55 1.899 . S
O54 C62 1.284 . S
Zn55 O54 1.899 . S
Zn55 O56 2.032 . S
Zn55 O59 2.086 . S
Zn55 O64 1.977 . S
O56 Zn55 2.032 . S
O56 C60 1.278 . S
C57 O58 1.203 . S
C57 O64 1.267 . S
O58 C57 1.203 . S
O59 C52 1.185 . S
O59 Zn55 2.086 . S
C60 O56 1.278 . S
C60 O61 1.211 . S
O61 C60 1.211 . S
C62 O54 1.284 . S
C62 O63 1.273 . S
O63 C62 1.273 . S
O64 Zn55 1.977 . S
O64 C57 1.267 . S
C65 O66 1.160 . S
C65 O72 1.185 . S
O66 C65 1.160 . S
O67 Zn68 1.899 . S
O67 C75 1.284 . S
Zn68 O67 1.899 . S
Zn68 O69 2.032 . S
Zn68 O72 2.086 . S
Zn68 O77 1.977 . S
O69 Zn68 2.032 . S
O69 C73 1.278 . S
C70 O71 1.203 . S
C70 O77 1.267 . S
O71 C70 1.203 . S
O72 C65 1.185 . S
O72 Zn68 2.086 . S
C73 O69 1.278 . S
C73 O74 1.211 . S
O74 C73 1.211 . S
C75 O67 1.284 . S
C75 O76 1.273 . S
O76 C75 1.273 . S
O77 Zn68 1.977 . S
O77 C70 1.267 . S
C78 O79 1.160 . S
C78 O85 1.185 . S
O79 C78 1.160 . S
O80 Zn81 1.899 . S
O80 C88 1.284 . S
Zn81 O80 1.899 . S
Zn81 O82 2.032 . S
Zn81 O85 2.086 . S
Zn81 O90 1.977 . S
O82 Zn81 2.032 . S
O82 C86 1.278 . S
C83 O84 1.203 . S
C83 O90 1.267 . S
O84 C83 1.203 . S
O85 C78 1.185 . S
O85 Zn81 2.086 . S
C86 O82 1.278 . S
C86 O87 1.211 . S
O87 C86 1.211 . S
C88 O80 1.284 . S
C88 O89 1.273 . S
O89 C88 1.273 . S
O90 Zn81 1.977 . S
O90 C83 1.267 . S
C91 O92 1.160 . S
C91 O98 1.185 . S
O92 C91 1.160 . S
O93 Zn94 1.899 . S
O93 C101 1.284 . S
Zn94 O93 1.899 . S
Zn94 O95 2.032 . S
Zn94 O98 2.086 . S
Zn94 O103 1.977 . S
O95 Zn94 2.032 . S
O95 C99 1.278 . S
C96 O97 1.203 . S
C96 O103 1.267 . S
O97 C96 1.203 . S
O98 C91 1.185 . S
O98 Zn94 2.086 . S
C99 O95 1.278 . S
C99 O100 1.211 . S
O100 C99 1.211 . S
C101 O93 1.284 . S
C101 O102 1.273 . S
O102 C101 1.273 . S
O103 Zn94 1.977 . S
O103 C96 1.267 . S
C104 O105 1.160 . S
C104 O111 1.185 . S
O105 C104 1.160 . S
O106 Zn107 1.899 . S
O106 C114 1.284 . S
Zn107 O106 1.899 . S
Zn107 O108 2.032 . S
Zn107 O111 2.086 . S
Zn107 O116 1.977 . S
O108 Zn107 2.032 . S
O108 C112 1.278 . S
C109 O110 1.203 . S
C109 O116 1.267 . S
O110 C109 1.203 . S
O111 C104 1.185 . S
O111 Zn107 2.086 . S
C112 O108 1.278 . S
C112 O113 1.211 . S
O113 C112 1.211 . S
C114 O106 1.284 . S
C114 O115 1.273 . S
O115 C114 1.273 . S
O116 Zn107 1.977 . S
O116 C109 1.267 . S
C117 O118 1.160 . S
C117 O124 1.185 . S
O118 C117 1.160 . S
O119 Zn120 1.899 . S
O119 C127 1.284 . S
Zn120 O119 1.899 . S
Zn120 O121 2.032 . S
Zn120 O124 2.086 . S
Zn120 O129 1.977 . S
O121 Zn120 2.032 . S
O121 C125 1.278 . S
C122 O123 1.203 . S
C122 O129 1.267 . S
O123 C122 1.203 . S
O124 C117 1.185 . S
O124 Zn120 2.086 . S
C125 O121 1.278 . S
C125 O126 1.211 . S
O126 C125 1.211 . S
C127 O119 1.284 . S
C127 O128 1.273 . S
O128 C127 1.273 . S
O129 Zn120 1.977 . S
O129 C122 1.267 . S
C130 O131 1.160 . S
C130 O137 1.185 . S
O131 C130 1.160 . S
O132 Zn133 1.899 . S
O132 C140 1.284 . S
Zn133 O132 1.899 . S
Zn133 O134 2.032 . S
Zn133 O137 2.086 . S
Zn133 O142 1.977 . S
O134 Zn133 2.032 . S
O134 C138 1.278 . S
C135 O136 1.203 . S
C135 O142 1.267 . S
O136 C135 1.203 . S
O137 C130 1.185 . S
O137 Zn133 2.086 . S
C138 O134 1.278 . S
C138 O139 1.211 . S
O139 C138 1.211 . S
C140 O132 1.284 . S
C140 O141 1.273 . S
O141 C140 1.273 . S
O142 Zn133 1.977 . S
O142 C135 1.267 . S
C143 O144 1.160 . S
C143 O150 1.185 . S
O144 C143 1.160 . S
O145 Zn146 1.899 . S
O145 C153 1.284 . S
Zn146 O145 1.899 . S
Zn146 O147 2.032 . S
Zn146 O150 2.086 . S
Zn146 O155 1.977 . S
O147 Zn146 2.032 . S
O147 C151 1.278 . S
C148 O149 1.203 . S
C148 O155 1.267 . S
O149 C148 1.203 . S
O150 C143 1.185 . S
O150 Zn146 2.086 . S
C151 O147 1.278 . S
C151 O152 1.211 . S
O152 C151 1.211 . S
C153 O145 1.284 . S
C153 O154 1.273 . S
O154 C153 1.273 . S
O155 Zn146 1.977 . S
O155 C148 1.267 . S
C156 O157 1.160 . S
C156 O163 1.185 . S
O157 C156 1.160 . S
O158 Zn159 1.899 . S
O158 C166 1.284 . S
Zn159 O158 1.899 . S
Zn159 O160 2.032 . S
Zn159 O163 2.086 . S
Zn159 O168 1.977 . S
O160 Zn159 2.032 . S
O160 C164 1.278 . S
C161 O162 1.203 . S
C161 O168 1.267 . S
O162 C161 1.203 . S
O163 C156 1.185 . S
O163 Zn159 2.086 . S
C164 O160 1.278 . S
C164 O165 1.211 . S
O165 C164 1.211 . S
C166 O158 1.284 . S
C166 O167 1.273 . S
O167 C166 1.273 . S
O168 Zn159 1.977 . S
O168 C161 1.267 . S
C169 O170 1.160 . S
C169 O176 1.185 . S
O170 C169 1.160 . S
O171 Zn172 1.899 . S
O171 C179 1.284 . S
Zn172 O171 1.899 . S
Zn172 O173 2.032 . S
Zn172 O176 2.086 . S
Zn172 O181 1.977 . S
O173 Zn172 2.032 . S
O173 C177 1.278 . S
C174 O175 1.203 . S
C174 O181 1.267 . S
O175 C174 1.203 . S
O176 C169 1.185 . S
O176 Zn172 2.086 . S
C177 O173 1.278 . S
C177 O178 1.211 . S
O178 C177 1.211 . S
C179 O171 1.284 . S
C179 O180 1.273 . S
O180 C179 1.273 . S
O181 Zn172 1.977 . S
O181 C174 1.267 . S
C182 O183 1.160 . S
C182 O189 1.185 . S
O183 C182 1.160 . S
O184 Zn185 1.899 . S
O184 C192 1.284 . S
Zn185 O184 1.899 . S
Zn185 O186 2.032 . S
Zn185 O189 2.086 . S
Zn185 O194 1.977 . S
O186 Zn185 2.032 . S
O186 C190 1.278 . S
C187 O188 1.203 . S
C187 O194 1.267 . S
O188 C187 1.203 . S
O189 C182 1.185 . S
O189 Zn185 2.086 . S
C190 O186 1.278 . S
C190 O191 1.211 . S
O191 C190 1.211 . S
C192 O184 1.284 . S
C192 O193 1.273 . S
O193 C192 1.273 . S
O194 Zn185 1.977 . S
O194 C187 1.267 . S
C195 O196 1.160 . S
C195 O202 1.185 . S
O196 C195 1.160 . S
O197 Zn198 1.899 . S
O197 C205 1.284 . S
Zn198 O197 1.899 . S
Zn198 O199 2.032 . S
Zn198 O202 2.086 . S
Zn198 O207 1.977 . S
O199 Zn198 2.032 . S
O199 C203 1.278 . S
C200 O201 1.203 . S
C200 O207 1.267 . S
O201 C200 1.203 . S
O202 C195 1.185 . S
O202 Zn198 2.086 . S
C203 O199 1.278 . S
C203 O204 1.211 . S
O204 C203 1.211 . S
C205 O197 1.284 . S
C205 O206 1.273 . S
O206 C205 1.273 . S
O207 Zn198 1.977 . S
O207 C200 1.267 . S
C208 O209 1.160 . S
C208 O215 1.185 . S
O209 C208 1.160 . S
O210 Zn211 1.899 . S
O210 C218 1.284 . S
Zn211 O210 1.899 . S
Zn211 O212 2.032 . S
Zn211 O215 2.086 . S
Zn211 O220 1.977 . S
O212 Zn211 2.032 . S
O212 C216 1.278 . S
C213 O214 1.203 . S
C213 O220 1.267 . S
O214 C213 1.203 . S
O215 C208 1.185 . S
O215 Zn211 2.086 . S
C216 O212 1.278 . S
C216 O217 1.211 . S
O217 C216 1.211 . S
C218 O210 1.284 . S
C218 O219 1.273 . S
O219 C218 1.273 . S
O220 Zn211 1.977 . S
O220 C213 1.267 . S
C221 O222 1.160 . S
C221 O228 1.185 . S
O222 C221 1.160 . S
O223 Zn224 1.899 . S
O223 C231 1.284 . S
Zn224 O223 1.899 . S
Zn224 O225 2.032 . S
Zn224 O228 2.086 . S
Zn224 O233 1.977 . S
O225 Zn224 2.032 . S
O225 C229 1.278 . S
C226 O227 1.203 . S
C226 O233 1.267 . S
O227 C226 1.203 . S
O228 C221 1.185 . S
O228 Zn224 2.086 . S
C229 O225 1.278 . S
C229 O230 1.211 . S
O230 C229 1.211 . S
C231 O223 1.284 . S
C231 O232 1.273 . S
O232 C231 1.273 . S
O233 Zn224 1.977 . S
O233 C226 1.267 . S
C234 O235 1.160 . S
C234 O241 1.185 . S
O235 C234 1.160 . S
O236 Zn237 1.899 . S
O236 C244 1.284 . S
Zn237 O236 1.899 . S
Zn237 O238 2.032 . S
Zn237 O241 2.086 . S
Zn237 O246 1.977 . S
O238 Zn237 2.032 . S
O238 C242 1.278 . S
C239 O240 1.203 . S
C239 O246 1.267 . S
O240 C239 1.203 . S
O241 C234 1.185 . S
O241 Zn237 2.086 . S
C242 O238 1.278 . S
C242 O243 1.211 . S
O243 C242 1.211 . S
C244 O236 1.284 . S
C244 O245 1.273 . S
O245 C244 1.273 . S
O246 Zn237 1.977 . S
O246 C239 1.267 . S
C247 O248 1.160 . S
C247 O254 1.185 . S
O248 C247 1.160 . S
O249 Zn250 1.899 . S
O249 C257 1.284 . S
Zn250 O249 1.899 . S
Zn250 O251 2.032 . S
Zn250 O254 2.086 . S
Zn250 O259 1.977 . S
O251 Zn250 2.032 . S
O251 C255 1.278 . S
C252 O253 1.203 . S
C252 O259 1.267 . S
O253 C252 1.203 . S
O254 C247 1.185 . S
O254 Zn250 2.086 . S
C255 O251 1.278 . S
C255 O256 1.211 . S
O256 C255 1.211 . S
C257 O249 1.284 . S
C257 O258 1.273 . S
O258 C257 1.273 . S
O259 Zn250 1.977 . S
O259 C252 1.267 . S
C260 O261 1.160 . S
C260 O267 1.185 . S
O261 C260 1.160 . S
O262 Zn263 1.899 . S
O262 C270 1.284 . S
Zn263 O262 1.899 . S
Zn263 O264 2.032 . S
Zn263 O267 2.086 . S
Zn263 O272 1.977 . S
O264 Zn263 2.032 . S
O264 C268 1.278 . S
C265 O266 1.203 . S
C265 O272 1.267 . S
O266 C265 1.203 . S
O267 C260 1.185 . S
O267 Zn263 2.086 . S
C268 O264 1.278 . S
C268 O269 1.211 . S
O269 C268 1.211 . S
C270 O262 1.284 . S
C270 O271 1.273 . S
O271 C270 1.273 . S
O272 Zn263 1.977 . S
O272 C265 1.267 . S
C273 O274 1.160 . S
C273 O280 1.185 . S
O274 C273 1.160 . S
O275 Zn276 1.899 . S
O275 C283 1.284 . S
Zn276 O275 1.899 . S
Zn276 O277 2.032 . S
Zn276 O280 2.086 . S
Zn276 O285 1.977 . S
O277 Zn276 2.032 . S
O277 C281 1.278 . S
C278 O279 1.203 . S
C278 O285 1.267 . S
O279 C278 1.203 . S
O280 C273 1.185 . S
O280 Zn276 2.086 . S
C281 O277 1.278 . S
C281 O282 1.211 . S
O282 C281 1.211 . S
C283 O275 1.284 . S
C283 O284 1.273 . S
O284 C283 1.273 . S
O285 Zn276 1.977 . S
O285 C278 1.267 . S
C286 O287 1.160 . S
C286 O293 1.185 . S
O287 C286 1.160 . S
O288 Zn289 1.899 . S
O288 C296 1.284 . S
Zn289 O288 1.899 . S
Zn289 O290 2.032 . S
Zn289 O293 2.086 . S
Zn289 O298 1.977 . S
O290 Zn289 2.032 . S
O290 C294 1.278 . S
C291 O292 1.203 . S
C291 O298 1.267 . S
O292 C291 1.203 . S
O293 C286 1.185 . S
O293 Zn289 2.086 . S
C294 O290 1.278 . S
C294 O295 1.211 . S
O295 C294 1.211 . S
C296 O288 1.284 . S
C296 O297 1.273 . S
O297 C296 1.273 . S
O298 Zn289 1.977 . S
O298 C291 1.267 . S
C299 O300 1.160 . S
C299 O306 1.185 . S
O300 C299 1.160 . S
O301 Zn302 1.899 . S
O301 C309 1.284 . S
Zn302 O301 1.899 . S
Zn302 O303 2.032 . S
Zn302 O306 2.086 . S
Zn302 O311 1.977 . S
O303 Zn302 2.032 . S
O303 C307 1.278 . S
C304 O305 1.203 . S
C304 O311 1.267 . S
O305 C304 1.203 . S
O306 C299 1.185 . S
O306 Zn302 2.086 . S
C307 O303 1.278 . S
C307 O308 1.211 . S
O308 C307 1.211 . S
C309 O301 1.284 . S
C309 O310 1.273 . S
O310 C309 1.273 . S
O311 Zn302 1.977 . S
O311 C304 1.267 . S
C312 O313 1.160 . S
C312 O319 1.185 . S
O313 C312 1.160 . S
O314 Zn315 1.899 . S
O314 C322 1.284 . S
Zn315 O314 1.899 . S
Zn315 O316 2.032 . S
Zn315 O319 2.086 . S
Zn315 O324 1.977 . S
O316 Zn315 2.032 . S
O316 C320 1.278 . S
C317 O318 1.203 . S
C317 O324 1.267 . S
O318 C317 1.203 . S
O319 C312 1.185 . S
O319 Zn315 2.086 . S
C320 O316 1.278 . S
C320 O321 1.211 . S
O321 C320 1.211 . S
C322 O314 1.284 . S
C322 O323 1.273 . S
O323 C322 1.273 . S
O324 Zn315 1.977 . S
O324 C317 1.267 . S
C325 O326 1.160 . S
C325 O332 1.185 . S
O326 C325 1.160 . S
O327 Zn328 1.899 . S
O327 C335 1.284 . S
Zn328 O327 1.899 . S
Zn328 O329 2.032 . S
Zn328 O332 2.086 . S
Zn328 O337 1.977 . S
O329 Zn328 2.032 . S
O329 C333 1.278 . S
C330 O331 1.203 . S
C330 O337 1.267 . S
O331 C330 1.203 . S
O332 C325 1.185 . S
O332 Zn328 2.086 . S
C333 O329 1.278 . S
C333 O334 1.211 . S
O334 C333 1.211 . S
C335 O327 1.284 . S
C335 O336 1.273 . S
O336 C335 1.273 . S
O337 Zn328 1.977 . S
O337 C330 1.267 . S
C338 O339 1.160 . S
C338 O345 1.185 . S
O339 C338 1.160 . S
O340 Zn341 1.899 . S
O340 C348 1.284 . S
Zn341 O340 1.899 . S
Zn341 O342 2.032 . S
Zn341 O345 2.086 . S
Zn341 O350 1.977 . S
O342 Zn341 2.032 . S
O342 C346 1.278 . S
C343 O344 1.203 . S
C343 O350 1.267 . S
O344 C343 1.203 . S
O345 C338 1.185 . S
O345 Zn341 2.086 . S
C346 O342 1.278 . S
C346 O347 1.211 . S
O347 C346 1.211 . S
C348 O340 1.284 . S
C348 O349 1.273 . S
O349 C348 1.273 . S
O350 Zn341 1.977 . S
O350 C343 1.267 . S
C351 O352 1.160 . S
C351 O358 1.185 . S
O352 C351 1.160 . S
O353 Zn354 1.899 . S
O353 C361 1.284 . S
Zn354 O353 1.899 . S
Zn354 O355 2.032 . S
Zn354 O358 2.086 . S
Zn354 O363 1.977 . S
O355 Zn354 2.032 . S
O355 C359 1.278 . S
C356 O357 1.203 . S
C356 O363 1.267 . S
O357 C356 1.203 . S
O358 C351 1.185 . S
O358 Zn354 2.086 . S
C359 O355 1.278 . S
C359 O360 1.211 . S
O360 C359 1.211 . S
C361 O353 1.284 . S
C361 O362 1.273 . S
O362 C361 1.273 . S
O363 Zn354 1.977 . S
O363 C356 1.267 . S
C364 O365 1.160 . S
C364 O371 1.185 . S
O365 C364 1.160 . S
O366 Zn367 1.899 . S
O366 C374 1.284 . S
Zn367 O366 1.899 . S
Zn367 O368 2.032 . S
Zn367 O371 2.086 . S
Zn367 O376 1.977 . S
O368 Zn367 2.032 . S
O368 C372 1.278 . S
C369 O370 1.203 . S
C369 O376 1.267 . S
O370 C369 1.203 . S
O371 C364 1.185 . S
O371 Zn367 2.086 . S
C372 O368 1.278 . S
C372 O373 1.211 . S
O373 C372 1.211 . S
C374 O366 1.284 . S
C374 O375 1.273 . S
O375 C374 1.273 . S
O376 Zn367 1.977 . S
O376 C369 1.267 . S
C377 O378 1.160 . S
C377 O384 1.185 . S
O378 C377 1.160 . S
O379 Zn380 1.899 . S
O379 C387 1.284 . S
Zn380 O379 1.899 . S
Zn380 O381 2.032 . S
Zn380 O384 2.086 . S
Zn380 O389 1.977 . S
O381 Zn380 2.032 . S
O381 C385 1.278 . S
C382 O383 1.203 . S
C382 O389 1.267 . S
O383 C382 1.203 . S
O384 C377 1.185 . S
O384 Zn380 2.086 . S
C385 O381 1.278 . S
C385 O386 1.211 . S
O386 C385 1.211 . S
C387 O379 1.284 . S
C387 O388 1.273 . S
O388 C387 1.273 . S
O389 Zn380 1.977 . S
O389 C382 1.267 . S
C390 O391 1.160 . S
C390 O397 1.185 . S
O391 C390 1.160 . S
O392 Zn393 1.899 . S
O392 C400 1.284 . S
Zn393 O392 1.899 . S
Zn393 O394 2.032 . S
Zn393 O397 2.086 . S
Zn393 O402 1.977 . S
O394 Zn393 2.032 . S
O394 C398 1.278 . S
C395 O396 1.203 . S
C395 O402 1.267 . S
O396 C395 1.203 . S
O397 C390 1.185 . S
O397 Zn393 2.086 . S
C398 O394 1.278 . S
C398 O399 1.211 . S
O399 C398 1.211 . S
C400 O392 1.284 . S
C400 O401 1.273 . S
O401 C400 1.273 . S
O402 Zn393 1.977 . S
O402 C395 1.267 . S
C403 O404 1.160 . S
C403 O410 1.185 . S
O404 C403 1.160 . S
O405 Zn406 1.899 . S
O405 C413 1.284 . S
Zn406 O405 1.899 . S
Zn406 O407 2.032 . S
Zn406 O410 2.086 . S
Zn406 O415 1.977 . S
O407 Zn406 2.032 . S
O407 C411 1.278 . S
C408 O409 1.203 . S
C408 O415 1.267 . S
O409 C408 1.203 . S
O410 C403 1.185 . S
O410 Zn406 2.086 . S
C411 O407 1.278 . S
C411 O412 1.211 . S
O412 C411 1.211 . S
C413 O405 1.284 . S
C413 O414 1.273 . S
O414 C413 1.273 . S
O415 Zn406 1.977 . S
O415 C408 1.267 . S
H416 C424 0.950 . S
H417 C429 0.950 . S
H418 C426 0.950 . S
H419 C428 0.950 . S
H420 C430 0.950 . S
H421 C432 0.950 . S
H422 C434 0.950 . S
H423 C435 0.950 . S
C424 H416 0.950 . S
C424 C425 1.386 . S
C424 C426 1.391 . S
C425 C424 1.386 . S
C425 C429 1.393 . S
C426 H418 0.950 . S
C426 C424 1.391 . S
C426 C427 1.400 . S
C427 C426 1.400 . S
C427 C428 1.398 . S
C427 C433 1.491 . S
C428 H419 0.950 . S
C428 C427 1.398 . S
C428 C429 1.391 . S
C429 H417 0.950 . S
C429 C425 1.393 . S
C429 C428 1.391 . S
C430 H420 0.950 . S
C430 C431 1.386 . S
C430 C432 1.391 . S
C431 C430 1.386 . S
C431 C435 1.393 . S
C432 H421 0.950 . S
C432 C430 1.391 . S
C432 C433 1.400 . S
C433 C427 1.491 . S
C433 C432 1.400 . S
C433 C434 1.398 . S
C434 H422 0.950 . S
C434 C433 1.398 . S
C434 C435 1.391 . S
C435 H423 0.950 . S
C435 C431 1.393 . S
C435 C434 1.391 . S
H436 C444 0.950 . S
H437 C449 0.950 . S
H438 C446 0.950 . S
H439 C448 0.950 . S
H440 C450 0.950 . S
H441 C452 0.950 . S
H442 C454 0.950 . S
H443 C455 0.950 . S
C444 H436 0.950 . S
C444 C445 1.386 . S
C444 C446 1.391 . S
C445 C444 1.386 . S
C445 C449 1.393 . S
C446 H438 0.950 . S
C446 C444 1.391 . S
C446 C447 1.400 . S
C447 C446 1.400 . S
C447 C448 1.398 . S
C447 C453 1.491 . S
C448 H439 0.950 . S
C448 C447 1.398 . S
C448 C449 1.391 . S
C449 H437 0.950 . S
C449 C445 1.393 . S
C449 C448 1.391 . S
C450 H440 0.950 . S
C450 C451 1.386 . S
C450 C452 1.391 . S
C451 C450 1.386 . S
C451 C455 1.393 . S
C452 H441 0.950 . S
C452 C450 1.391 . S
C452 C453 1.400 . S
C453 C447 1.491 . S
C453 C452 1.400 . S
C453 C454 1.398 . S
C454 H442 0.950 . S
C454 C453 1.398 . S
C454 C455 1.391 . S
C455 H443 0.950 . S
C455 C451 1.393 . S
C455 C454 1.391 . S
H456 C464 0.950 . S
H457 C469 0.950 . S
H458 C466 0.950 . S
H459 C468 0.950 . S
H460 C470 0.950 . S
H461 C472 0.950 . S
H462 C474 0.950 . S
H463 C475 0.950 . S
C464 H456 0.950 . S
C464 C465 1.386 . S
C464 C466 1.391 . S
C465 C464 1.386 . S
C465 C469 1.393 . S
C466 H458 0.950 . S
C466 C464 1.391 . S
C466 C467 1.400 . S
C467 C466 1.400 . S
C467 C468 1.398 . S
C467 C473 1.491 . S
C468 H459 0.950 . S
C468 C467 1.398 . S
C468 C469 1.391 . S
C469 H457 0.950 . S
C469 C465 1.393 . S
C469 C468 1.391 . S
C470 H460 0.950 . S
C470 C471 1.386 . S
C470 C472 1.391 . S
C471 C470 1.386 . S
C471 C475 1.393 . S
C472 H461 0.950 . S
C472 C470 1.391 . S
C472 C473 1.400 . S
C473 C467 1.491 . S
C473 C472 1.400 . S
C473 C474 1.398 . S
C474 H462 0.950 . S
C474 C473 1.398 . S
C474 C475 1.391 . S
C475 H463 0.950 . S
C475 C471 1.393 . S
C475 C474 1.391 . S
H476 C484 0.950 . S
H477 C489 0.950 . S
H478 C486 0.950 . S
H479 C488 0.950 . S
H480 C490 0.950 . S
H481 C492 0.950 . S
H482 C494 0.950 . S
H483 C495 0.950 . S
C484 H476 0.950 . S
C484 C485 1.386 . S
C484 C486 1.391 . S
C485 C484 1.386 . S
C485 C489 1.393 . S
C486 H478 0.950 . S
C486 C484 1.391 . S
C486 C487 1.400 . S
C487 C486 1.400 . S
C487 C488 1.398 . S
C487 C493 1.491 . S
C488 H479 0.950 . S
C488 C487 1.398 . S
C488 C489 1.391 . S
C489 H477 0.950 . S
C489 C485 1.393 . S
C489 C488 1.391 . S
C490 H480 0.950 . S
C490 C491 1.386 . S
C490 C492 1.391 . S
C491 C490 1.386 . S
C491 C495 1.393 . S
C492 H481 0.950 . S
C492 C490 1.391 . S
C492 C493 1.400 . S
C493 C487 1.491 . S
C493 C492 1.400 . S
C493 C494 1.398 . S
C494 H482 0.950 . S
C494 C493 1.398 . S
C494 C495 1.391 . S
C495 H483 0.950 . S
C495 C491 1.393 . S
C495 C494 1.391 . S
H496 C504 0.950 . S
H497 C509 0.950 . S
H498 C506 0.950 . S
H499 C508 0.950 . S
H500 C510 0.950 . S
H501 C512 0.950 . S
H502 C514 0.950 . S
H503 C515 0.950 . S
C504 H496 0.950 . S
C504 C505 1.386 . S
C504 C506 1.391 . S
C505 C504 1.386 . S
C505 C509 1.393 . S
C506 H498 0.950 . S
C506 C504 1.391 . S
C506 C507 1.400 . S
C507 C506 1.400 . S
C507 C508 1.398 . S
C507 C513 1.491 . S
C508 H499 0.950 . S
C508 C507 1.398 . S
C508 C509 1.391 . S
C509 H497 0.950 . S
C509 C505 1.393 . S
C509 C508 1.391 . S
C510 H500 0.950 . S
C510 C511 1.386 . S
C510 C512 1.391 . S
C511 C510 1.386 . S
C511 C515 1.393 . S
C512 H501 0.950 . S
C512 C510 1.391 . S
C512 C513 1.400 . S
C513 C507 1.491 . S
C513 C512 1.400 . S
C513 C514 1.398 . S
C514 H502 0.950 . S
C514 C513 1.398 . S
C514 C515 1.391 . S
C515 H503 0.950 . S
C515 C511 1.393 . S
C515 C514 1.391 . S
H516 C524 0.950 . S
H517 C529 0.950 . S
H518 C526 0.950 . S
H519 C528 0.950 . S
H520 C530 0.950 . S
H521 C532 0.950 . S
H522 C534 0.950 . S
H523 C535 0.950 . S
C524 H516 0.950 . S
C524 C525 1.386 . S
C524 C526 1.391 . S
C525 C524 1.386 . S
C525 C529 1.393 . S
C526 H518 0.950 . S
C526 C524 1.391 . S
C526 C527 1.400 . S
C527 C526 1.400 . S
C527 C528 1.398 . S
C527 C533 1.491 . S
C528 H519 0.950 . S
C528 C527 1.398 . S
C528 C529 1.391 . S
C529 H517 0.950 . S
C529 C525 1.393 . S
C529 C528 1.391 . S
C530 H520 0.950 . S
C530 C531 1.386 . S
C530 C532 1.391 . S
C531 C530 1.386 . S
C531 C535 1.393 . S
C532 H521 0.950 . S
C532 C530 1.391 . S
C532 C533 1.400 . S
C533 C527 1.491 . S
C533 C532 1.400 . S
C533 C534 1.398 . S
C534 H522 0.950 . S
C534 C533 1.398 . S
C534 C535 1.391 . S
C535 H523 0.950 . S
C535 C531 1.393 . S
C535 C534 1.391 . S
H536 C544 0.950 . S
H537 C549 0.950 . S
H538 C546 0.950 . S
H539 C548 0.950 . S
H540 C550 0.950 . S
H541 C552 0.950 . S
H542 C554 0.950 . S
H543 C555 0.950 . S
C544 H536 0.950 . S
C544 C545 1.386 . S
C544 C546 1.391 . S
C545 C544 1.386 . S
C545 C549 1.393 . S
C546 H538 0.950 . S
C546 C544 1.391 . S
C546 C547 1.400 . S
C547 C546 1.400 . S
C547 C548 1.398 . S
C547 C553 1.491 . S
C548 H539 0.950 . S
C548 C547 1.398 . S
C548 C549 1.391 . S
C549 H537 0.950 . S
C549 C545 1.393 . S
C549 C548 1.391 . S
C550 H540 0.950 . S
C550 C551 1.386 . S
C550 C552 1.391 . S
C551 C550 1.386 . S
C551 C555 1.393 . S
C552 H541 0.950 . S
C552 C550 1.391 . S
C552 C553 1.400 . S
C553 C547 1.491 . S
C553 C552 1.400 . S
C553 C554 1.398 . S
C554 H542 0.950 . S
C554 C553 1.398 . S
C554 C555 1.391 . S
C555 H543 0.950 . S
C555 C551 1.393 . S
C555 C554 1.391 . S
H556 C564 0.950 . S
H557 C569 0.950 . S
H558 C566 0.950 . S
H559 C568 0.950 . S
H560 C570 0.950 . S
H561 C572 0.950 . S
H562 C574 0.950 . S
H563 C575 0.950 . S
C564 H556 0.950 . S
C564 C565 1.386 . S
C564 C566 1.391 . S
C565 C564 1.386 . S
C565 C569 1.393 . S
C566 H558 0.950 . S
C566 C564 1.391 . S
C566 C567 1.400 . S
C567 C566 1.400 . S
C567 C568 1.398 . S
C567 C573 1.491 . S
C568 H559 0.950 . S
C568 C567 1.398 . S
C568 C569 1.391 . S
C569 H557 0.950 . S
C569 C565 1.393 . S
C569 C568 1.391 . S
C570 H560 0.950 . S
C570 C571 1.386 . S
C570 C572 1.391 . S
C571 C570 1.386 . S
C571 C575 1.393 . S
C572 H561 0.950 . S
C572 C570 1.391 . S
C572 C573 1.400 . S
C573 C567 1.491 . S
C573 C572 1.400 . S
C573 C574 1.398 . S
C574 H562 0.950 . S
C574 C573 1.398 . S
C574 C575 1.391 . S
C575 H563 0.950 . S
C575 C571 1.393 . S
C575 C574 1.391 . S
H576 C584 0.950 . S
H577 C589 0.950 . S
H578 C586 0.950 . S
H579 C588 0.950 . S
H580 C590 0.950 . S
H581 C592 0.950 . S
H582 C594 0.950 . S
H583 C595 0.950 . S
C584 H576 0.950 . S
C584 C585 1.386 . S
C584 C586 1.391 . S
C585 C584 1.386 . S
C585 C589 1.393 . S
C586 H578 0.950 . S
C586 C584 1.391 . S
C586 C587 1.400 . S
C587 C586 1.400 . S
C587 C588 1.398 . S
C587 C593 1.491 . S
C588 H579 0.950 . S
C588 C587 1.398 . S
C588 C589 1.391 . S
C589 H577 0.950 . S
C589 C585 1.393 . S
C589 C588 1.391 . S
C590 H580 0.950 . S
C590 C591 1.386 . S
C590 C592 1.391 . S
C591 C590 1.386 . S
C591 C595 1.393 . S
C592 H581 0.950 . S
C592 C590 1.391 . S
C592 C593 1.400 . S
C593 C587 1.491 . S
C593 C592 1.400 . S
C593 C594 1.398 . S
C594 H582 0.950 . S
C594 C593 1.398 . S
C594 C595 1.391 . S
C595 H583 0.950 . S
C595 C591 1.393 . S
C595 C594 1.391 . S
H596 C604 0.950 . S
H597 C609 0.950 . S
H598 C606 0.950 . S
H599 C608 0.950 . S
H600 C610 0.950 . S
H601 C612 0.950 . S
H602 C614 0.950 . S
H603 C615 0.950 . S
C604 H596 0.950 . S
C604 C605 1.386 . S
C604 C606 1.391 . S
C605 C604 1.386 . S
C605 C609 1.393 . S
C606 H598 0.950 . S
C606 C604 1.391 . S
C606 C607 1.400 . S
C607 C606 1.400 . S
C607 C608 1.398 . S
C607 C613 1.491 . S
C608 H599 0.950 . S
C608 C607 1.398 . S
C608 C609 1.391 . S
C609 H597 0.950 . S
C609 C605 1.393 . S
C609 C608 1.391 . S
C610 H600 0.950 . S
C610 C611 1.386 . S
C610 C612 1.391 . S
C611 C610 1.386 . S
C611 C615 1.393 . S
C612 H601 0.950 . S
C612 C610 1.391 . S
C612 C613 1.400 . S
C613 C607 1.491 . S
C613 C612 1.400 . S
C613 C614 1.398 . S
C614 H602 0.950 . S
C614 C613 1.398 . S
C614 C615 1.391 . S
C615 H603 0.950 . S
C615 C611 1.393 . S
C615 C614 1.391 . S
H616 C624 0.950 . S
H617 C629 0.950 . S
H618 C626 0.950 . S
H619 C628 0.950 . S
H620 C630 0.950 . S
H621 C632 0.950 . S
H622 C634 0.950 . S
H623 C635 0.950 . S
C624 H616 0.950 . S
C624 C625 1.386 . S
C624 C626 1.391 . S
C625 C624 1.386 . S
C625 C629 1.393 . S
C626 H618 0.950 . S
C626 C624 1.391 . S
C626 C627 1.400 . S
C627 C626 1.400 . S
C627 C628 1.398 . S
C627 C633 1.491 . S
C628 H619 0.950 . S
C628 C627 1.398 . S
C628 C629 1.391 . S
C629 H617 0.950 . S
C629 C625 1.393 . S
C629 C628 1.391 . S
C630 H620 0.950 . S
C630 C631 1.386 . S
C630 C632 1.391 . S
C631 C630 1.386 . S
C631 C635 1.393 . S
C632 H621 0.950 . S
C632 C630 1.391 . S
C632 C633 1.400 . S
C633 C627 1.491 . S
C633 C632 1.400 . S
C633 C634 1.398 . S
C634 H622 0.950 . S
C634 C633 1.398 . S
C634 C635 1.391 . S
C635 H623 0.950 . S
C635 C631 1.393 . S
C635 C634 1.391 . S
H636 C644 0.950 . S
H637 C649 0.950 . S
H638 C646 0.950 . S
H639 C648 0.950 . S
H640 C650 0.950 . S
H641 C652 0.950 . S
H642 C654 0.950 . S
H643 C655 0.950 . S
C644 H636 0.950 . S
C644 C645 1.386 . S
C644 C646 1.391 . S
C645 C644 1.386 . S
C645 C649 1.393 . S
C646 H638 0.950 . S
C646 C644 1.391 . S
C646 C647 1.400 . S
C647 C646 1.400 . S
C647 C648 1.398 . S
C647 C653 1.491 . S
C648 H639 0.950 . S
C648 C647 1.398 . S
C648 C649 1.391 . S
C649 H637 0.950 . S
C649 C645 1.393 . S
C649 C648 1.391 . S
C650 H640 0.950 . S
C650 C651 1.386 . S
C650 C652 1.391 . S
C651 C650 1.386 . S
C651 C655 1.393 . S
C652 H641 0.950 . S
C652 C650 1.391 . S
C652 C653 1.400 . S
C653 C647 1.491 . S
C653 C652 1.400 . S
C653 C654 1.398 . S
C654 H642 0.950 . S
C654 C653 1.398 . S
C654 C655 1.391 . S
C655 H643 0.950 . S
C655 C651 1.393 . S
C655 C654 1.391 . S
H656 C664 0.950 . S
H657 C669 0.950 . S
H658 C666 0.950 . S
H659 C668 0.950 . S
H660 C670 0.950 . S
H661 C672 0.950 . S
H662 C674 0.950 . S
H663 C675 0.950 . S
C664 H656 0.950 . S
C664 C665 1.386 . S
C664 C666 1.391 . S
C665 C664 1.386 . S
C665 C669 1.393 . S
C666 H658 0.950 . S
C666 C664 1.391 . S
C666 C667 1.400 . S
C667 C666 1.400 . S
C667 C668 1.398 . S
C667 C673 1.491 . S
C668 H659 0.950 . S
C668 C667 1.398 . S
C668 C669 1.391 . S
C669 H657 0.950 . S
C669 C665 1.393 . S
C669 C668 1.391 . S
C670 H660 0.950 . S
C670 C671 1.386 . S
C670 C672 1.391 . S
C671 C670 1.386 . S
C671 C675 1.393 . S
C672 H661 0.950 . S
C672 C670 1.391 . S
C672 C673 1.400 . S
C673 C667 1.491 . S
C673 C672 1.400 . S
C673 C674 1.398 . S
C674 H662 0.950 . S
C674 C673 1.398 . S
C674 C675 1.391 . S
C675 H663 0.950 . S
C675 C671 1.393 . S
C675 C674 1.391 . S
H676 C684 0.950 . S
H677 C689 0.950 . S
H678 C686 0.950 . S
H679 C688 0.950 . S
H680 C690 0.950 . S
H681 C692 0.950 . S
H682 C694 0.950 . S
H683 C695 0.950 . S
C684 H676 0.950 . S
C684 C685 1.386 . S
C684 C686 1.391 . S
C685 C684 1.386 . S
C685 C689 1.393 . S
C686 H678 0.950 . S
C686 C684 1.391 . S
C686 C687 1.400 . S
C687 C686 1.400 . S
C687 C688 1.398 . S
C687 C693 1.491 . S
C688 H679 0.950 . S
C688 C687 1.398 . S
C688 C689 1.391 . S
C689 H677 0.950 . S
C689 C685 1.393 . S
C689 C688 1.391 . S
C690 H680 0.950 . S
C690 C691 1.386 . S
C690 C692 1.391 . S
C691 C690 1.386 . S
C691 C695 1.393 . S
C692 H681 0.950 . S
C692 C690 1.391 . S
C692 C693 1.400 . S
C693 C687 1.491 . S
C693 C692 1.400 . S
C693 C694 1.398 . S
C694 H682 0.950 . S
C694 C693 1.398 . S
C694 C695 1.391 . S
C695 H683 0.950 . S
C695 C691 1.393 . S
C695 C694 1.391 . S
H696 C704 0.950 . S
H697 C709 0.950 . S
H698 C706 0.950 . S
H699 C708 0.950 . S
H700 C710 0.950 . S
H701 C712 0.950 . S
H702 C714 0.950 . S
H703 C715 0.950 . S
C704 H696 0.950 . S
C704 C705 1.386 . S
C704 C706 1.391 . S
C705 C704 1.386 . S
C705 C709 1.393 . S
C706 H698 0.950 . S
C706 C704 1.391 . S
C706 C707 1.400 . S
C707 C706 1.400 . S
C707 C708 1.398 . S
C707 C713 1.491 . S
C708 H699 0.950 . S
C708 C707 1.398 . S
C708 C709 1.391 . S
C709 H697 0.950 . S
C709 C705 1.393 . S
C709 C708 1.391 . S
C710 H700 0.950 . S
C710 C711 1.386 . S
C710 C712 1.391 . S
C711 C710 1.386 . S
C711 C715 1.393 . S
C712 H701 0.950 . S
C712 C710 1.391 . S
C712 C713 1.400 . S
C713 C707 1.491 . S
C713 C712 1.400 . S
C713 C714 1.398 . S
C714 H702 0.950 . S
C714 C713 1.398 . S
C714 C715 1.391 . S
C715 H703 0.950 . S
C715 C711 1.393 . S
C715 C714 1.391 . S
H716 C724 0.950 . S
H717 C729 0.950 . S
H718 C726 0.950 . S
H719 C728 0.950 . S
H720 C730 0.950 . S
H721 C732 0.950 . S
H722 C734 0.950 . S
H723 C735 0.950 . S
C724 H716 0.950 . S
C724 C725 1.386 . S
C724 C726 1.391 . S
C725 C724 1.386 . S
C725 C729 1.393 . S
C726 H718 0.950 . S
C726 C724 1.391 . S
C726 C727 1.400 . S
C727 C726 1.400 . S
C727 C728 1.398 . S
C727 C733 1.491 . S
C728 H719 0.950 . S
C728 C727 1.398 . S
C728 C729 1.391 . S
C729 H717 0.950 . S
C729 C725 1.393 . S
C729 C728 1.391 . S
C730 H720 0.950 . S
C730 C731 1.386 . S
C730 C732 1.391 . S
C731 C730 1.386 . S
C731 C735 1.393 . S
C732 H721 0.950 . S
C732 C730 1.391 . S
C732 C733 1.400 . S
C733 C727 1.491 . S
C733 C732 1.400 . S
C733 C734 1.398 . S
C734 H722 0.950 . S
C734 C733 1.398 . S
C734 C735 1.391 . S
C735 H723 0.950 . S
C735 C731 1.393 . S
C735 C734 1.391 . S
H736 C744 0.950 . S
H737 C749 0.950 . S
H738 C746 0.950 . S
H739 C748 0.950 . S
H740 C750 0.950 . S
H741 C752 0.950 . S
H742 C754 0.950 . S
H743 C755 0.950 . S
C744 H736 0.950 . S
C744 C745 1.386 . S
C744 C746 1.391 . S
C745 C744 1.386 . S
C745 C749 1.393 . S
C746 H738 0.950 . S
C746 C744 1.391 . S
C746 C747 1.400 . S
C747 C746 1.400 . S
C747 C748 1.398 . S
C747 C753 1.491 1_655 S
C748 H739 0.950 . S
C748 C747 1.398 . S
C748 C749 1.391 . S
C749 H737 0.950 . S
C749 C745 1.393 . S
C749 C748 1.391 . S
C750 H740 0.950 . S
C750 C751 1.386 . S
C750 C752 1.391 . S
C751 C750 1.386 . S
C751 C755 1.393 . S
C752 H741 0.950 . S
C752 C750 1.391 . S
C752 C753 1.400 . S
C753 C747 1.491 1_455 S
C753 C752 1.400 . S
C753 C754 1.398 . S
C754 H742 0.950 . S
C754 C753 1.398 . S
C754 C755 1.391 . S
C755 H743 0.950 . S
C755 C751 1.393 . S
C755 C754 1.391 . S
H756 C764 0.950 . S
H757 C769 0.950 . S
H758 C766 0.950 . S
H759 C768 0.950 . S
H760 C770 0.950 . S
H761 C772 0.950 . S
H762 C774 0.950 . S
H763 C775 0.950 . S
C764 H756 0.950 . S
C764 C765 1.386 . S
C764 C766 1.391 . S
C765 C764 1.386 . S
C765 C769 1.393 . S
C766 H758 0.950 . S
C766 C764 1.391 . S
C766 C767 1.400 . S
C767 C766 1.400 . S
C767 C768 1.398 . S
C767 C773 1.491 1_545 S
C768 H759 0.950 . S
C768 C767 1.398 . S
C768 C769 1.391 . S
C769 H757 0.950 . S
C769 C765 1.393 . S
C769 C768 1.391 . S
C770 H760 0.950 . S
C770 C771 1.386 . S
C770 C772 1.391 . S
C771 C770 1.386 . S
C771 C775 1.393 . S
C772 H761 0.950 . S
C772 C770 1.391 . S
C772 C773 1.400 . S
C773 C767 1.491 1_565 S
C773 C772 1.400 . S
C773 C774 1.398 . S
C774 H762 0.950 . S
C774 C773 1.398 . S
C774 C775 1.391 . S
C775 H763 0.950 . S
C775 C771 1.393 . S
C775 C774 1.391 . S
H776 C784 0.950 . S
H777 C789 0.950 . S
H778 C786 0.950 . S
H779 C788 0.950 . S
H780 C790 0.950 . S
H781 C792 0.950 . S
H782 C794 0.950 . S
H783 C795 0.950 . S
C784 H776 0.950 . S
C784 C785 1.386 . S
C784 C786 1.391 . S
C785 C784 1.386 . S
C785 C789 1.393 . S
C786 H778 0.950 . S
C786 C784 1.391 . S
C786 C787 1.400 . S
C787 C786 1.400 . S
C787 C788 1.398 . S
C787 C793 1.491 1_455 S
C788 H779 0.950 . S
C788 C787 1.398 . S
C788 C789 1.391 . S
C789 H777 0.950 . S
C789 C785 1.393 . S
C789 C788 1.391 . S
C790 H780 0.950 . S
C790 C791 1.386 . S
C790 C792 1.391 . S
C791 C790 1.386 . S
C791 C795 1.393 . S
C792 H781 0.950 . S
C792 C790 1.391 . S
C792 C793 1.400 . S
C793 C787 1.491 1_655 S
C793 C792 1.400 . S
C793 C794 1.398 . S
C794 H782 0.950 . S
C794 C793 1.398 . S
C794 C795 1.391 . S
C795 H783 0.950 . S
C795 C791 1.393 . S
C795 C794 1.391 . S
H796 C804 0.950 . S
H797 C809 0.950 . S
H798 C806 0.950 . S
H799 C808 0.950 . S
H800 C810 0.950 . S
H801 C812 0.950 . S
H802 C814 0.950 . S
H803 C815 0.950 . S
C804 H796 0.950 . S
C804 C805 1.386 . S
C804 C806 1.391 . S
C805 C804 1.386 . S
C805 C809 1.393 . S
C806 H798 0.950 . S
C806 C804 1.391 . S
C806 C807 1.400 . S
C807 C806 1.400 . S
C807 C808 1.398 . S
C807 C813 1.491 1_565 S
C808 H799 0.950 . S
C808 C807 1.398 . S
C808 C809 1.391 . S
C809 H797 0.950 . S
C809 C805 1.393 . S
C809 C808 1.391 . S
C810 H800 0.950 . S
C810 C811 1.386 . S
C810 C812 1.391 . S
C811 C810 1.386 . S
C811 C815 1.393 . S
C812 H801 0.950 . S
C812 C810 1.391 . S
C812 C813 1.400 . S
C813 C807 1.491 1_545 S
C813 C812 1.400 . S
C813 C814 1.398 . S
C814 H802 0.950 . S
C814 C813 1.398 . S
C814 C815 1.391 . S
C815 H803 0.950 . S
C815 C811 1.393 . S
C815 C814 1.391 . S
H816 C824 0.950 . S
H817 C829 0.950 . S
H818 C826 0.950 . S
H819 C828 0.950 . S
H820 C830 0.950 . S
H821 C832 0.950 . S
H822 C834 0.950 . S
H823 C835 0.950 . S
C824 H816 0.950 . S
C824 C825 1.386 . S
C824 C826 1.391 . S
C825 C824 1.386 . S
C825 C829 1.393 . S
C826 H818 0.950 . S
C826 C824 1.391 . S
C826 C827 1.400 . S
C827 C826 1.400 . S
C827 C828 1.398 . S
C827 C833 1.491 1_455 S
C828 H819 0.950 . S
C828 C827 1.398 . S
C828 C829 1.391 . S
C829 H817 0.950 . S
C829 C825 1.393 . S
C829 C828 1.391 . S
C830 H820 0.950 . S
C830 C831 1.386 . S
C830 C832 1.391 . S
C831 C830 1.386 . S
C831 C835 1.393 . S
C832 H821 0.950 . S
C832 C830 1.391 . S
C832 C833 1.400 . S
C833 C827 1.491 1_655 S
C833 C832 1.400 . S
C833 C834 1.398 . S
C834 H822 0.950 . S
C834 C833 1.398 . S
C834 C835 1.391 . S
C835 H823 0.950 . S
C835 C831 1.393 . S
C835 C834 1.391 . S
H836 C844 0.950 . S
H837 C849 0.950 . S
H838 C846 0.950 . S
H839 C848 0.950 . S
H840 C850 0.950 . S
H841 C852 0.950 . S
H842 C854 0.950 . S
H843 C855 0.950 . S
C844 H836 0.950 . S
C844 C845 1.386 . S
C844 C846 1.391 . S
C845 C844 1.386 . S
C845 C849 1.393 . S
C846 H838 0.950 . S
C846 C844 1.391 . S
C846 C847 1.400 . S
C847 C846 1.400 . S
C847 C848 1.398 . S
C847 C853 1.491 1_565 S
C848 H839 0.950 . S
C848 C847 1.398 . S
C848 C849 1.391 . S
C849 H837 0.950 . S
C849 C845 1.393 . S
C849 C848 1.391 . S
C850 H840 0.950 . S
C850 C851 1.386 . S
C850 C852 1.391 . S
C851 C850 1.386 . S
C851 C855 1.393 . S
C852 H841 0.950 . S
C852 C850 1.391 . S
C852 C853 1.400 . S
C853 C847 1.491 1_545 S
C853 C852 1.400 . S
C853 C854 1.398 . S
C854 H842 0.950 . S
C854 C853 1.398 . S
C854 C855 1.391 . S
C855 H843 0.950 . S
C855 C851 1.393 . S
C855 C854 1.391 . S
H856 C864 0.950 . S
H857 C869 0.950 . S
H858 C866 0.950 . S
H859 C868 0.950 . S
H860 C870 0.950 . S
H861 C872 0.950 . S
H862 C874 0.950 . S
H863 C875 0.950 . S
C864 H856 0.950 . S
C864 C865 1.386 . S
C864 C866 1.391 . S
C865 C864 1.386 . S
C865 C869 1.393 . S
C866 H858 0.950 . S
C866 C864 1.391 . S
C866 C867 1.400 . S
C867 C866 1.400 . S
C867 C868 1.398 . S
C867 C873 1.491 1_455 S
C868 H859 0.950 . S
C868 C867 1.398 . S
C868 C869 1.391 . S
C869 H857 0.950 . S
C869 C865 1.393 . S
C869 C868 1.391 . S
C870 H860 0.950 . S
C870 C871 1.386 . S
C870 C872 1.391 . S
C871 C870 1.386 . S
C871 C875 1.393 . S
C872 H861 0.950 . S
C872 C870 1.391 . S
C872 C873 1.400 . S
C873 C867 1.491 1_655 S
C873 C872 1.400 . S
C873 C874 1.398 . S
C874 H862 0.950 . S
C874 C873 1.398 . S
C874 C875 1.391 . S
C875 H863 0.950 . S
C875 C871 1.393 . S
C875 C874 1.391 . S
H876 C884 0.950 . S
H877 C889 0.950 . S
H878 C886 0.950 . S
H879 C888 0.950 . S
H880 C890 0.950 . S
H881 C892 0.950 . S
H882 C894 0.950 . S
H883 C895 0.950 . S
C884 H876 0.950 . S
C884 C885 1.386 . S
C884 C886 1.391 . S
C885 C884 1.386 . S
C885 C889 1.393 . S
C886 H878 0.950 . S
C886 C884 1.391 . S
C886 C887 1.400 . S
C887 C886 1.400 . S
C887 C888 1.398 . S
C887 C893 1.491 1_545 S
C888 H879 0.950 . S
C888 C887 1.398 . S
C888 C889 1.391 . S
C889 H877 0.950 . S
C889 C885 1.393 . S
C889 C888 1.391 . S
C890 H880 0.950 . S
C890 C891 1.386 . S
C890 C892 1.391 . S
C891 C890 1.386 . S
C891 C895 1.393 . S
C892 H881 0.950 . S
C892 C890 1.391 . S
C892 C893 1.400 . S
C893 C887 1.491 1_565 S
C893 C892 1.400 . S
C893 C894 1.398 . S
C894 H882 0.950 . S
C894 C893 1.398 . S
C894 C895 1.391 . S
C895 H883 0.950 . S
C895 C891 1.393 . S
C895 C894 1.391 . S
H896 C904 0.950 . S
H897 C909 0.950 . S
H898 C906 0.950 . S
H899 C908 0.950 . S
H900 C910 0.950 . S
H901 C912 0.950 . S
H902 C914 0.950 . S
H903 C915 0.950 . S
C904 H896 0.950 . S
C904 C905 1.386 . S
C904 C906 1.391 . S
C905 C904 1.386 . S
C905 C909 1.393 . S
C906 H898 0.950 . S
C906 C904 1.391 . S
C906 C907 1.400 . S
C907 C906 1.400 . S
C907 C908 1.398 . S
C907 C913 1.491 . S
C908 H899 0.950 . S
C908 C907 1.398 . S
C908 C909 1.391 . S
C909 H897 0.950 . S
C909 C905 1.393 . S
C909 C908 1.391 . S
C910 H900 0.950 . S
C910 C911 1.386 . S
C910 C912 1.391 . S
C911 C910 1.386 . S
C911 C915 1.393 . S
C912 H901 0.950 . S
C912 C910 1.391 . S
C912 C913 1.400 . S
C913 C907 1.491 . S
C913 C912 1.400 . S
C913 C914 1.398 . S
C914 H902 0.950 . S
C914 C913 1.398 . S
C914 C915 1.391 . S
C915 H903 0.950 . S
C915 C911 1.393 . S
C915 C914 1.391 . S
H916 C924 0.950 . S
H917 C929 0.950 . S
H918 C926 0.950 . S
H919 C928 0.950 . S
H920 C930 0.950 . S
H921 C932 0.950 . S
H922 C934 0.950 . S
H923 C935 0.950 . S
C924 H916 0.950 . S
C924 C925 1.386 . S
C924 C926 1.391 . S
C925 C924 1.386 . S
C925 C929 1.393 . S
C926 H918 0.950 . S
C926 C924 1.391 . S
C926 C927 1.400 . S
C927 C926 1.400 . S
C927 C928 1.398 . S
C927 C933 1.491 . S
C928 H919 0.950 . S
C928 C927 1.398 . S
C928 C929 1.391 . S
C929 H917 0.950 . S
C929 C925 1.393 . S
C929 C928 1.391 . S
C930 H920 0.950 . S
C930 C931 1.386 . S
C930 C932 1.391 . S
C931 C930 1.386 . S
C931 C935 1.393 . S
C932 H921 0.950 . S
C932 C930 1.391 . S
C932 C933 1.400 . S
C933 C927 1.491 . S
C933 C932 1.400 . S
C933 C934 1.398 . S
C934 H922 0.950 . S
C934 C933 1.398 . S
C934 C935 1.391 . S
C935 H923 0.950 . S
C935 C931 1.393 . S
C935 C934 1.391 . S
H936 C944 0.950 . S
H937 C949 0.950 . S
H938 C946 0.950 . S
H939 C948 0.950 . S
H940 C950 0.950 . S
H941 C952 0.950 . S
H942 C954 0.950 . S
H943 C955 0.950 . S
C944 H936 0.950 . S
C944 C945 1.386 . S
C944 C946 1.391 . S
C945 C944 1.386 . S
C945 C949 1.393 . S
C946 H938 0.950 . S
C946 C944 1.391 . S
C946 C947 1.400 . S
C947 C946 1.400 . S
C947 C948 1.398 . S
C947 C953 1.491 . S
C948 H939 0.950 . S
C948 C947 1.398 . S
C948 C949 1.391 . S
C949 H937 0.950 . S
C949 C945 1.393 . S
C949 C948 1.391 . S
C950 H940 0.950 . S
C950 C951 1.386 . S
C950 C952 1.391 . S
C951 C950 1.386 . S
C951 C955 1.393 . S
C952 H941 0.950 . S
C952 C950 1.391 . S
C952 C953 1.400 . S
C953 C947 1.491 . S
C953 C952 1.400 . S
C953 C954 1.398 . S
C954 H942 0.950 . S
C954 C953 1.398 . S
C954 C955 1.391 . S
C955 H943 0.950 . S
C955 C951 1.393 . S
C955 C954 1.391 . S
H956 C964 0.950 . S
H957 C969 0.950 . S
H958 C966 0.950 . S
H959 C968 0.950 . S
H960 C970 0.950 . S
H961 C972 0.950 . S
H962 C974 0.950 . S
H963 C975 0.950 . S
C964 H956 0.950 . S
C964 C965 1.386 . S
C964 C966 1.391 . S
C965 C964 1.386 . S
C965 C969 1.393 . S
C966 H958 0.950 . S
C966 C964 1.391 . S
C966 C967 1.400 . S
C967 C966 1.400 . S
C967 C968 1.398 . S
C967 C973 1.491 . S
C968 H959 0.950 . S
C968 C967 1.398 . S
C968 C969 1.391 . S
C969 H957 0.950 . S
C969 C965 1.393 . S
C969 C968 1.391 . S
C970 H960 0.950 . S
C970 C971 1.386 . S
C970 C972 1.391 . S
C971 C970 1.386 . S
C971 C975 1.393 . S
C972 H961 0.950 . S
C972 C970 1.391 . S
C972 C973 1.400 . S
C973 C967 1.491 . S
C973 C972 1.400 . S
C973 C974 1.398 . S
C974 H962 0.950 . S
C974 C973 1.398 . S
C974 C975 1.391 . S
C975 H963 0.950 . S
C975 C971 1.393 . S
C975 C974 1.391 . S
H976 C984 0.950 . S
H977 C989 0.950 . S
H978 C986 0.950 . S
H979 C988 0.950 . S
H980 C990 0.950 . S
H981 C992 0.950 . S
H982 C994 0.950 . S
H983 C995 0.950 . S
C984 H976 0.950 . S
C984 C985 1.386 . S
C984 C986 1.391 . S
C985 C984 1.386 . S
C985 C989 1.393 . S
C986 H978 0.950 . S
C986 C984 1.391 . S
C986 C987 1.400 . S
C987 C986 1.400 . S
C987 C988 1.398 . S
C987 C993 1.491 . S
C988 H979 0.950 . S
C988 C987 1.398 . S
C988 C989 1.391 . S
C989 H977 0.950 . S
C989 C985 1.393 . S
C989 C988 1.391 . S
C990 H980 0.950 . S
C990 C991 1.386 . S
C990 C992 1.391 . S
C991 C990 1.386 . S
C991 C995 1.393 . S
C992 H981 0.950 . S
C992 C990 1.391 . S
C992 C993 1.400 . S
C993 C987 1.491 . S
C993 C992 1.400 . S
C993 C994 1.398 . S
C994 H982 0.950 . S
C994 C993 1.398 . S
C994 C995 1.391 . S
C995 H983 0.950 . S
C995 C991 1.393 . S
C995 C994 1.391 . S
H996 C1004 0.950 . S
H997 C1009 0.950 . S
H998 C1006 0.950 . S
H999 C1008 0.950 . S
H1000 C1010 0.950 . S
H1001 C1012 0.950 . S
H1002 C1014 0.950 . S
H1003 C1015 0.950 . S
C1004 H996 0.950 . S
C1004 C1005 1.386 . S
C1004 C1006 1.391 . S
C1005 C1004 1.386 . S
C1005 C1009 1.393 . S
C1006 H998 0.950 . S
C1006 C1004 1.391 . S
C1006 C1007 1.400 . S
C1007 C1006 1.400 . S
C1007 C1008 1.398 . S
C1007 C1013 1.491 . S
C1008 H999 0.950 . S
C1008 C1007 1.398 . S
C1008 C1009 1.391 . S
C1009 H997 0.950 . S
C1009 C1005 1.393 . S
C1009 C1008 1.391 . S
C1010 H1000 0.950 . S
C1010 C1011 1.386 . S
C1010 C1012 1.391 . S
C1011 C1010 1.386 . S
C1011 C1015 1.393 . S
C1012 H1001 0.950 . S
C1012 C1010 1.391 . S
C1012 C1013 1.400 . S
C1013 C1007 1.491 . S
C1013 C1012 1.400 . S
C1013 C1014 1.398 . S
C1014 H1002 0.950 . S
C1014 C1013 1.398 . S
C1014 C1015 1.391 . S
C1015 H1003 0.950 . S
C1015 C1011 1.393 . S
C1015 C1014 1.391 . S
H1016 C1024 0.950 . S
H1017 C1029 0.950 . S
H1018 C1026 0.950 . S
H1019 C1028 0.950 . S
H1020 C1030 0.950 . S
H1021 C1032 0.950 . S
H1022 C1034 0.950 . S
H1023 C1035 0.950 . S
C1024 H1016 0.950 . S
C1024 C1025 1.386 . S
C1024 C1026 1.391 . S
C1025 C1024 1.386 . S
C1025 C1029 1.393 . S
C1026 H1018 0.950 . S
C1026 C1024 1.391 . S
C1026 C1027 1.400 . S
C1027 C1026 1.400 . S
C1027 C1028 1.398 . S
C1027 C1033 1.491 . S
C1028 H1019 0.950 . S
C1028 C1027 1.398 . S
C1028 C1029 1.391 . S
C1029 H1017 0.950 . S
C1029 C1025 1.393 . S
C1029 C1028 1.391 . S
C1030 H1020 0.950 . S
C1030 C1031 1.386 . S
C1030 C1032 1.391 . S
C1031 C1030 1.386 . S
C1031 C1035 1.393 . S
C1032 H1021 0.950 . S
C1032 C1030 1.391 . S
C1032 C1033 1.400 . S
C1033 C1027 1.491 . S
C1033 C1032 1.400 . S
C1033 C1034 1.398 . S
C1034 H1022 0.950 . S
C1034 C1033 1.398 . S
C1034 C1035 1.391 . S
C1035 H1023 0.950 . S
C1035 C1031 1.393 . S
C1035 C1034 1.391 . S
H1036 C1044 0.950 . S
H1037 C1049 0.950 . S
H1038 C1046 0.950 . S
H1039 C1048 0.950 . S
H1040 C1050 0.950 . S
H1041 C1052 0.950 . S
H1042 C1054 0.950 . S
H1043 C1055 0.950 . S
C1044 H1036 0.950 . S
C1044 C1045 1.386 . S
C1044 C1046 1.391 . S
C1045 C1044 1.386 . S
C1045 C1049 1.393 . S
C1046 H1038 0.950 . S
C1046 C1044 1.391 . S
C1046 C1047 1.400 . S
C1047 C1046 1.400 . S
C1047 C1048 1.398 . S
C1047 C1053 1.491 . S
C1048 H1039 0.950 . S
C1048 C1047 1.398 . S
C1048 C1049 1.391 . S
C1049 H1037 0.950 . S
C1049 C1045 1.393 . S
C1049 C1048 1.391 . S
C1050 H1040 0.950 . S
C1050 C1051 1.386 . S
C1050 C1052 1.391 . S
C1051 C1050 1.386 . S
C1051 C1055 1.393 . S
C1052 H1041 0.950 . S
C1052 C1050 1.391 . S
C1052 C1053 1.400 . S
C1053 C1047 1.491 . S
C1053 C1052 1.400 . S
C1053 C1054 1.398 . S
C1054 H1042 0.950 . S
C1054 C1053 1.398 . S
C1054 C1055 1.391 . S
C1055 H1043 0.950 . S
C1055 C1051 1.393 . S
C1055 C1054 1.391 . S
H1056 C1064 0.950 . S
H1057 C1069 0.950 . S
H1058 C1066 0.950 . S
H1059 C1068 0.950 . S
H1060 C1070 0.950 . S
H1061 C1072 0.950 . S
H1062 C1074 0.950 . S
H1063 C1075 0.950 . S
C1064 H1056 0.950 . S
C1064 C1065 1.386 . S
C1064 C1066 1.391 . S
C1065 C1064 1.386 . S
C1065 C1069 1.393 . S
C1066 H1058 0.950 . S
C1066 C1064 1.391 . S
C1066 C1067 1.400 . S
C1067 C1066 1.400 . S
C1067 C1068 1.398 . S
C1067 C1073 1.491 . S
C1068 H1059 0.950 . S
C1068 C1067 1.398 . S
C1068 C1069 1.391 . S
C1069 H1057 0.950 . S
C1069 C1065 1.393 . S
C1069 C1068 1.391 . S
C1070 H1060 0.950 . S
C1070 C1071 1.386 . S
C1070 C1072 1.391 . S
C1071 C1070 1.386 . S
C1071 C1075 1.393 . S
C1072 H1061 0.950 . S
C1072 C1070 1.391 . S
C1072 C1073 1.400 . S
C1073 C1067 1.491 . S
C1073 C1072 1.400 . S
C1073 C1074 1.398 . S
C1074 H1062 0.950 . S
C1074 C1073 1.398 . S
C1074 C1075 1.391 . S
C1075 H1063 0.950 . S
C1075 C1071 1.393 . S
C1075 C1074 1.391 . S
H1076 C1084 0.950 . S
H1077 C1089 0.950 . S
H1078 C1086 0.950 . S
H1079 C1088 0.950 . S
H1080 C1090 0.950 . S
H1081 C1092 0.950 . S
H1082 C1094 0.950 . S
H1083 C1095 0.950 . S
C1084 H1076 0.950 . S
C1084 C1085 1.386 . S
C1084 C1086 1.391 . S
C1085 C1084 1.386 . S
C1085 C1089 1.393 . S
C1086 H1078 0.950 . S
C1086 C1084 1.391 . S
C1086 C1087 1.400 . S
C1087 C1086 1.400 . S
C1087 C1088 1.398 . S
C1087 C1093 1.491 . S
C1088 H1079 0.950 . S
C1088 C1087 1.398 . S
C1088 C1089 1.391 . S
C1089 H1077 0.950 . S
C1089 C1085 1.393 . S
C1089 C1088 1.391 . S
C1090 H1080 0.950 . S
C1090 C1091 1.386 . S
C1090 C1092 1.391 . S
C1091 C1090 1.386 . S
C1091 C1095 1.393 . S
C1092 H1081 0.950 . S
C1092 C1090 1.391 . S
C1092 C1093 1.400 . S
C1093 C1087 1.491 . S
C1093 C1092 1.400 . S
C1093 C1094 1.398 . S
C1094 H1082 0.950 . S
C1094 C1093 1.398 . S
C1094 C1095 1.391 . S
C1095 H1083 0.950 . S
C1095 C1091 1.393 . S
C1095 C1094 1.391 . S
H1096 C1104 0.950 . S
H1097 C1109 0.950 . S
H1098 C1106 0.950 . S
H1099 C1108 0.950 . S
H1100 C1110 0.950 . S
H1101 C1112 0.950 . S
H1102 C1114 0.950 . S
H1103 C1115 0.950 . S
C1104 H1096 0.950 . S
C1104 C1105 1.386 . S
C1104 C1106 1.391 . S
C1105 C1104 1.386 . S
C1105 C1109 1.393 . S
C1106 H1098 0.950 . S
C1106 C1104 1.391 . S
C1106 C1107 1.400 . S
C1107 C1106 1.400 . S
C1107 C1108 1.398 . S
C1107 C1113 1.491 . S
C1108 H1099 0.950 . S
C1108 C1107 1.398 . S
C1108 C1109 1.391 . S
C1109 H1097 0.950 . S
C1109 C1105 1.393 . S
C1109 C1108 1.391 . S
C1110 H1100 0.950 . S
C1110 C1111 1.386 . S
C1110 C1112 1.391 . S
C1111 C1110 1.386 . S
C1111 C1115 1.393 . S
C1112 H1101 0.950 . S
C1112 C1110 1.391 . S
C1112 C1113 1.400 . S
C1113 C1107 1.491 . S
C1113 C1112 1.400 . S
C1113 C1114 1.398 . S
C1114 H1102 0.950 . S
C1114 C1113 1.398 . S
C1114 C1115 1.391 . S
C1115 H1103 0.950 . S
C1115 C1111 1.393 . S
C1115 C1114 1.391 . S
H1116 C1124 0.950 . S
H1117 C1129 0.950 . S
H1118 C1126 0.950 . S
H1119 C1128 0.950 . S
H1120 C1130 0.950 . S
H1121 C1132 0.950 . S
H1122 C1134 0.950 . S
H1123 C1135 0.950 . S
C1124 H1116 0.950 . S
C1124 C1125 1.386 . S
C1124 C1126 1.391 . S
C1125 C1124 1.386 . S
C1125 C1129 1.393 . S
C1126 H1118 0.950 . S
C1126 C1124 1.391 . S
C1126 C1127 1.400 . S
C1127 C1126 1.400 . S
C1127 C1128 1.398 . S
C1127 C1133 1.491 . S
C1128 H1119 0.950 . S
C1128 C1127 1.398 . S
C1128 C1129 1.391 . S
C1129 H1117 0.950 . S
C1129 C1125 1.393 . S
C1129 C1128 1.391 . S
C1130 H1120 0.950 . S
C1130 C1131 1.386 . S
C1130 C1132 1.391 . S
C1131 C1130 1.386 . S
C1131 C1135 1.393 . S
C1132 H1121 0.950 . S
C1132 C1130 1.391 . S
C1132 C1133 1.400 . S
C1133 C1127 1.491 . S
C1133 C1132 1.400 . S
C1133 C1134 1.398 . S
C1134 H1122 0.950 . S
C1134 C1133 1.398 . S
C1134 C1135 1.391 . S
C1135 H1123 0.950 . S
C1135 C1131 1.393 . S
C1135 C1134 1.391 . S
H1136 C1144 0.950 . S
H1137 C1149 0.950 . S
H1138 C1146 0.950 . S
H1139 C1148 0.950 . S
H1140 C1150 0.950 . S
H1141 C1152 0.950 . S
H1142 C1154 0.950 . S
H1143 C1155 0.950 . S
C1144 H1136 0.950 . S
C1144 C1145 1.386 . S
C1144 C1146 1.391 . S
C1145 C1144 1.386 . S
C1145 C1149 1.393 . S
C1146 H1138 0.950 . S
C1146 C1144 1.391 . S
C1146 C1147 1.400 . S
C1147 C1146 1.400 . S
C1147 C1148 1.398 . S
C1147 C1153 1.491 . S
C1148 H1139 0.950 . S
C1148 C1147 1.398 . S
C1148 C1149 1.391 . S
C1149 H1137 0.950 . S
C1149 C1145 1.393 . S
C1149 C1148 1.391 . S
C1150 H1140 0.950 . S
C1150 C1151 1.386 . S
C1150 C1152 1.391 . S
C1151 C1150 1.386 . S
C1151 C1155 1.393 . S
C1152 H1141 0.950 . S
C1152 C1150 1.391 . S
C1152 C1153 1.400 . S
C1153 C1147 1.491 . S
C1153 C1152 1.400 . S
C1153 C1154 1.398 . S
C1154 H1142 0.950 . S
C1154 C1153 1.398 . S
C1154 C1155 1.391 . S
C1155 H1143 0.950 . S
C1155 C1151 1.393 . S
C1155 C1154 1.391 . S
H1156 C1164 0.950 . S
H1157 C1169 0.950 . S
H1158 C1166 0.950 . S
H1159 C1168 0.950 . S
H1160 C1170 0.950 . S
H1161 C1172 0.950 . S
H1162 C1174 0.950 . S
H1163 C1175 0.950 . S
C1164 H1156 0.950 . S
C1164 C1165 1.386 . S
C1164 C1166 1.391 . S
C1165 C1164 1.386 . S
C1165 C1169 1.393 . S
C1166 H1158 0.950 . S
C1166 C1164 1.391 . S
C1166 C1167 1.400 . S
C1167 C1166 1.400 . S
C1167 C1168 1.398 . S
C1167 C1173 1.491 . S
C1168 H1159 0.950 . S
C1168 C1167 1.398 . S
C1168 C1169 1.391 . S
C1169 H1157 0.950 . S
C1169 C1165 1.393 . S
C1169 C1168 1.391 . S
C1170 H1160 0.950 . S
C1170 C1171 1.386 . S
C1170 C1172 1.391 . S
C1171 C1170 1.386 . S
C1171 C1175 1.393 . S
C1172 H1161 0.950 . S
C1172 C1170 1.391 . S
C1172 C1173 1.400 . S
C1173 C1167 1.491 . S
C1173 C1172 1.400 . S
C1173 C1174 1.398 . S
C1174 H1162 0.950 . S
C1174 C1173 1.398 . S
C1174 C1175 1.391 . S
C1175 H1163 0.950 . S
C1175 C1171 1.393 . S
C1175 C1174 1.391 . S
H1176 C1184 0.950 . S
H1177 C1189 0.950 . S
H1178 C1186 0.950 . S
H1179 C1188 0.950 . S
H1180 C1190 0.950 . S
H1181 C1192 0.950 . S
H1182 C1194 0.950 . S
H1183 C1195 0.950 . S
C1184 H1176 0.950 . S
C1184 C1185 1.386 . S
C1184 C1186 1.391 . S
C1185 C1184 1.386 . S
C1185 C1189 1.393 . S
C1186 H1178 0.950 . S
C1186 C1184 1.391 . S
C1186 C1187 1.400 . S
C1187 C1186 1.400 . S
C1187 C1188 1.398 . S
C1187 C1193 1.491 . S
C1188 H1179 0.950 . S
C1188 C1187 1.398 . S
C1188 C1189 1.391 . S
C1189 H1177 0.950 . S
C1189 C1185 1.393 . S
C1189 C1188 1.391 . S
C1190 H1180 0.950 . S
C1190 C1191 1.386 . S
C1190 C1192 1.391 . S
C1191 C1190 1.386 . S
C1191 C1195 1.393 . S
C1192 H1181 0.950 . S
C1192 C1190 1.391 . S
C1192 C1193 1.400 . S
C1193 C1187 1.491 . S
C1193 C1192 1.400 . S
C1193 C1194 1.398 . S
C1194 H1182 0.950 . S
C1194 C1193 1.398 . S
C1194 C1195 1.391 . S
C1195 H1183 0.950 . S
C1195 C1191 1.393 . S
C1195 C1194 1.391 . S
H1196 C1204 0.950 . S
H1197 C1209 0.950 . S
H1198 C1206 0.950 . S
H1199 C1208 0.950 . S
H1200 C1210 0.950 . S
H1201 C1212 0.950 . S
H1202 C1214 0.950 . S
H1203 C1215 0.950 . S
C1204 H1196 0.950 . S
C1204 C1205 1.386 . S
C1204 C1206 1.391 . S
C1205 C1204 1.386 . S
C1205 C1209 1.393 . S
C1206 H1198 0.950 . S
C1206 C1204 1.391 . S
C1206 C1207 1.400 . S
C1207 C1206 1.400 . S
C1207 C1208 1.398 . S
C1207 C1213 1.491 . S
C1208 H1199 0.950 . S
C1208 C1207 1.398 . S
C1208 C1209 1.391 . S
C1209 H1197 0.950 . S
C1209 C1205 1.393 . S
C1209 C1208 1.391 . S
C1210 H1200 0.950 . S
C1210 C1211 1.386 . S
C1210 C1212 1.391 . S
C1211 C1210 1.386 . S
C1211 C1215 1.393 . S
C1212 H1201 0.950 . S
C1212 C1210 1.391 . S
C1212 C1213 1.400 . S
C1213 C1207 1.491 . S
C1213 C1212 1.400 . S
C1213 C1214 1.398 . S
C1214 H1202 0.950 . S
C1214 C1213 1.398 . S
C1214 C1215 1.391 . S
C1215 H1203 0.950 . S
C1215 C1211 1.393 . S
C1215 C1214 1.391 . S
H1216 C1224 0.950 . S
H1217 C1229 0.950 . S
H1218 C1226 0.950 . S
H1219 C1228 0.950 . S
H1220 C1230 0.950 . S
H1221 C1232 0.950 . S
H1222 C1234 0.950 . S
H1223 C1235 0.950 . S
C1224 H1216 0.950 . S
C1224 C1225 1.386 . S
C1224 C1226 1.391 . S
C1225 C1224 1.386 . S
C1225 C1229 1.393 . S
C1226 H1218 0.950 . S
C1226 C1224 1.391 . S
C1226 C1227 1.400 . S
C1227 C1226 1.400 . S
C1227 C1228 1.398 . S
C1227 C1233 1.491 1_554 S
C1228 H1219 0.950 . S
C1228 C1227 1.398 . S
C1228 C1229 1.391 . S
C1229 H1217 0.950 . S
C1229 C1225 1.393 . S
C1229 C1228 1.391 . S
C1230 H1220 0.950 . S
C1230 C1231 1.386 . S
C1230 C1232 1.391 . S
C1231 C1230 1.386 . S
C1231 C1235 1.393 . S
C1232 H1221 0.950 . S
C1232 C1230 1.391 . S
C1232 C1233 1.400 . S
C1233 C1227 1.491 1_556 S
C1233 C1232 1.400 . S
C1233 C1234 1.398 . S
C1234 H1222 0.950 . S
C1234 C1233 1.398 . S
C1234 C1235 1.391 . S
C1235 H1223 0.950 . S
C1235 C1231 1.393 . S
C1235 C1234 1.391 . S
H1236 C1244 0.950 . S
H1237 C1249 0.950 . S
H1238 C1246 0.950 . S
H1239 C1248 0.950 . S
H1240 C1250 0.950 . S
H1241 C1252 0.950 . S
H1242 C1254 0.950 . S
H1243 C1255 0.950 . S
C1244 H1236 0.950 . S
C1244 C1245 1.386 . S
C1244 C1246 1.391 . S
C1245 C1244 1.386 . S
C1245 C1249 1.393 . S
C1246 H1238 0.950 . S
C1246 C1244 1.391 . S
C1246 C1247 1.400 . S
C1247 C1246 1.400 . S
C1247 C1248 1.398 . S
C1247 C1253 1.491 1_556 S
C1248 H1239 0.950 . S
C1248 C1247 1.398 . S
C1248 C1249 1.391 . S
C1249 H1237 0.950 . S
C1249 C1245 1.393 . S
C1249 C1248 1.391 . S
C1250 H1240 0.950 . S
C1250 C1251 1.386 . S
C1250 C1252 1.391 . S
C1251 C1250 1.386 . S
C1251 C1255 1.393 . S
C1252 H1241 0.950 . S
C1252 C1250 1.391 . S
C1252 C1253 1.400 . S
C1253 C1247 1.491 1_554 S
C1253 C1252 1.400 . S
C1253 C1254 1.398 . S
C1254 H1242 0.950 . S
C1254 C1253 1.398 . S
C1254 C1255 1.391 . S
C1255 H1243 0.950 . S
C1255 C1251 1.393 . S
C1255 C1254 1.391 . S
H1256 C1264 0.950 . S
H1257 C1269 0.950 . S
H1258 C1266 0.950 . S
H1259 C1268 0.950 . S
H1260 C1270 0.950 . S
H1261 C1272 0.950 . S
H1262 C1274 0.950 . S
H1263 C1275 0.950 . S
C1264 H1256 0.950 . S
C1264 C1265 1.386 . S
C1264 C1266 1.391 . S
C1265 C1264 1.386 . S
C1265 C1269 1.393 . S
C1266 H1258 0.950 . S
C1266 C1264 1.391 . S
C1266 C1267 1.400 . S
C1267 C1266 1.400 . S
C1267 C1268 1.398 . S
C1267 C1273 1.491 1_554 S
C1268 H1259 0.950 . S
C1268 C1267 1.398 . S
C1268 C1269 1.391 . S
C1269 H1257 0.950 . S
C1269 C1265 1.393 . S
C1269 C1268 1.391 . S
C1270 H1260 0.950 . S
C1270 C1271 1.386 . S
C1270 C1272 1.391 . S
C1271 C1270 1.386 . S
C1271 C1275 1.393 . S
C1272 H1261 0.950 . S
C1272 C1270 1.391 . S
C1272 C1273 1.400 . S
C1273 C1267 1.491 1_556 S
C1273 C1272 1.400 . S
C1273 C1274 1.398 . S
C1274 H1262 0.950 . S
C1274 C1273 1.398 . S
C1274 C1275 1.391 . S
C1275 H1263 0.950 . S
C1275 C1271 1.393 . S
C1275 C1274 1.391 . S
H1276 C1284 0.950 . S
H1277 C1289 0.950 . S
H1278 C1286 0.950 . S
H1279 C1288 0.950 . S
H1280 C1290 0.950 . S
H1281 C1292 0.950 . S
H1282 C1294 0.950 . S
H1283 C1295 0.950 . S
C1284 H1276 0.950 . S
C1284 C1285 1.386 . S
C1284 C1286 1.391 . S
C1285 C1284 1.386 . S
C1285 C1289 1.393 . S
C1286 H1278 0.950 . S
C1286 C1284 1.391 . S
C1286 C1287 1.400 . S
C1287 C1286 1.400 . S
C1287 C1288 1.398 . S
C1287 C1293 1.491 1_554 S
C1288 H1279 0.950 . S
C1288 C1287 1.398 . S
C1288 C1289 1.391 . S
C1289 H1277 0.950 . S
C1289 C1285 1.393 . S
C1289 C1288 1.391 . S
C1290 H1280 0.950 . S
C1290 C1291 1.386 . S
C1290 C1292 1.391 . S
C1291 C1290 1.386 . S
C1291 C1295 1.393 . S
C1292 H1281 0.950 . S
C1292 C1290 1.391 . S
C1292 C1293 1.400 . S
C1293 C1287 1.491 1_556 S
C1293 C1292 1.400 . S
C1293 C1294 1.398 . S
C1294 H1282 0.950 . S
C1294 C1293 1.398 . S
C1294 C1295 1.391 . S
C1295 H1283 0.950 . S
C1295 C1291 1.393 . S
C1295 C1294 1.391 . S
H1296 C1304 0.950 . S
H1297 C1309 0.950 . S
H1298 C1306 0.950 . S
H1299 C1308 0.950 . S
H1300 C1310 0.950 . S
H1301 C1312 0.950 . S
H1302 C1314 0.950 . S
H1303 C1315 0.950 . S
C1304 H1296 0.950 . S
C1304 C1305 1.386 . S
C1304 C1306 1.391 . S
C1305 C1304 1.386 . S
C1305 C1309 1.393 . S
C1306 H1298 0.950 . S
C1306 C1304 1.391 . S
C1306 C1307 1.400 . S
C1307 C1306 1.400 . S
C1307 C1308 1.398 . S
C1307 C1313 1.491 1_554 S
C1308 H1299 0.950 . S
C1308 C1307 1.398 . S
C1308 C1309 1.391 . S
C1309 H1297 0.950 . S
C1309 C1305 1.393 . S
C1309 C1308 1.391 . S
C1310 H1300 0.950 . S
C1310 C1311 1.386 . S
C1310 C1312 1.391 . S
C1311 C1310 1.386 . S
C1311 C1315 1.393 . S
C1312 H1301 0.950 . S
C1312 C1310 1.391 . S
C1312 C1313 1.400 . S
C1313 C1307 1.491 1_556 S
C1313 C1312 1.400 . S
C1313 C1314 1.398 . S
C1314 H1302 0.950 . S
C1314 C1313 1.398 . S
C1314 C1315 1.391 . S
C1315 H1303 0.950 . S
C1315 C1311 1.393 . S
C1315 C1314 1.391 . S
H1316 C1324 0.950 . S
H1317 C1329 0.950 . S
H1318 C1326 0.950 . S
H1319 C1328 0.950 . S
H1320 C1330 0.950 . S
H1321 C1332 0.950 . S
H1322 C1334 0.950 . S
H1323 C1335 0.950 . S
C1324 H1316 0.950 . S
C1324 C1325 1.386 . S
C1324 C1326 1.391 . S
C1325 C1324 1.386 . S
C1325 C1329 1.393 . S
C1326 H1318 0.950 . S
C1326 C1324 1.391 . S
C1326 C1327 1.400 . S
C1327 C1326 1.400 . S
C1327 C1328 1.398 . S
C1327 C1333 1.491 1_554 S
C1328 H1319 0.950 . S
C1328 C1327 1.398 . S
C1328 C1329 1.391 . S
C1329 H1317 0.950 . S
C1329 C1325 1.393 . S
C1329 C1328 1.391 . S
C1330 H1320 0.950 . S
C1330 C1331 1.386 . S
C1330 C1332 1.391 . S
C1331 C1330 1.386 . S
C1331 C1335 1.393 . S
C1332 H1321 0.950 . S
C1332 C1330 1.391 . S
C1332 C1333 1.400 . S
C1333 C1327 1.491 1_556 S
C1333 C1332 1.400 . S
C1333 C1334 1.398 . S
C1334 H1322 0.950 . S
C1334 C1333 1.398 . S
C1334 C1335 1.391 . S
C1335 H1323 0.950 . S
C1335 C1331 1.393 . S
C1335 C1334 1.391 . S
H1336 C1344 0.950 . S
H1337 C1349 0.950 . S
H1338 C1346 0.950 . S
H1339 C1348 0.950 . S
H1340 C1350 0.950 . S
H1341 C1352 0.950 . S
H1342 C1354 0.950 . S
H1343 C1355 0.950 . S
C1344 H1336 0.950 . S
C1344 C1345 1.386 . S
C1344 C1346 1.391 . S
C1345 C1344 1.386 . S
C1345 C1349 1.393 . S
C1346 H1338 0.950 . S
C1346 C1344 1.391 . S
C1346 C1347 1.400 . S
C1347 C1346 1.400 . S
C1347 C1348 1.398 . S
C1347 C1353 1.491 1_556 S
C1348 H1339 0.950 . S
C1348 C1347 1.398 . S
C1348 C1349 1.391 . S
C1349 H1337 0.950 . S
C1349 C1345 1.393 . S
C1349 C1348 1.391 . S
C1350 H1340 0.950 . S
C1350 C1351 1.386 . S
C1350 C1352 1.391 . S
C1351 C1350 1.386 . S
C1351 C1355 1.393 . S
C1352 H1341 0.950 . S
C1352 C1350 1.391 . S
C1352 C1353 1.400 . S
C1353 C1347 1.491 1_554 S
C1353 C1352 1.400 . S
C1353 C1354 1.398 . S
C1354 H1342 0.950 . S
C1354 C1353 1.398 . S
C1354 C1355 1.391 . S
C1355 H1343 0.950 . S
C1355 C1351 1.393 . S
C1355 C1354 1.391 . S
H1356 C1364 0.950 . S
H1357 C1369 0.950 . S
H1358 C1366 0.950 . S
H1359 C1368 0.950 . S
H1360 C1370 0.950 . S
H1361 C1372 0.950 . S
H1362 C1374 0.950 . S
H1363 C1375 0.950 . S
C1364 H1356 0.950 . S
C1364 C1365 1.386 . S
C1364 C1366 1.391 . S
C1365 C1364 1.386 . S
C1365 C1369 1.393 . S
C1366 H1358 0.950 . S
C1366 C1364 1.391 . S
C1366 C1367 1.400 . S
C1367 C1366 1.400 . S
C1367 C1368 1.398 . S
C1367 C1373 1.491 1_556 S
C1368 H1359 0.950 . S
C1368 C1367 1.398 . S
C1368 C1369 1.391 . S
C1369 H1357 0.950 . S
C1369 C1365 1.393 . S
C1369 C1368 1.391 . S
C1370 H1360 0.950 . S
C1370 C1371 1.386 . S
C1370 C1372 1.391 . S
C1371 C1370 1.386 . S
C1371 C1375 1.393 . S
C1372 H1361 0.950 . S
C1372 C1370 1.391 . S
C1372 C1373 1.400 . S
C1373 C1367 1.491 1_554 S
C1373 C1372 1.400 . S
C1373 C1374 1.398 . S
C1374 H1362 0.950 . S
C1374 C1373 1.398 . S
C1374 C1375 1.391 . S
C1375 H1363 0.950 . S
C1375 C1371 1.393 . S
C1375 C1374 1.391 . S
H1376 C1384 0.950 . S
H1377 C1389 0.950 . S
H1378 C1386 0.950 . S
H1379 C1388 0.950 . S
H1380 C1390 0.950 . S
H1381 C1392 0.950 . S
H1382 C1394 0.950 . S
H1383 C1395 0.950 . S
C1384 H1376 0.950 . S
C1384 C1385 1.386 . S
C1384 C1386 1.391 . S
C1385 C1384 1.386 . S
C1385 C1389 1.393 . S
C1386 H1378 0.950 . S
C1386 C1384 1.391 . S
C1386 C1387 1.400 . S
C1387 C1386 1.400 . S
C1387 C1388 1.398 . S
C1387 C1393 1.491 . S
C1388 H1379 0.950 . S
C1388 C1387 1.398 . S
C1388 C1389 1.391 . S
C1389 H1377 0.950 . S
C1389 C1385 1.393 . S
C1389 C1388 1.391 . S
C1390 H1380 0.950 . S
C1390 C1391 1.386 . S
C1390 C1392 1.391 . S
C1391 C1390 1.386 . S
C1391 C1395 1.393 . S
C1392 H1381 0.950 . S
C1392 C1390 1.391 . S
C1392 C1393 1.400 . S
C1393 C1387 1.491 . S
C1393 C1392 1.400 . S
C1393 C1394 1.398 . S
C1394 H1382 0.950 . S
C1394 C1393 1.398 . S
C1394 C1395 1.391 . S
C1395 H1383 0.950 . S
C1395 C1391 1.393 . S
C1395 C1394 1.391 . S
H1396 C1404 0.950 . S
H1397 C1409 0.950 . S
H1398 C1406 0.950 . S
H1399 C1408 0.950 . S
H1400 C1410 0.950 . S
H1401 C1412 0.950 . S
H1402 C1414 0.950 . S
H1403 C1415 0.950 . S
C1404 H1396 0.950 . S
C1404 C1405 1.386 . S
C1404 C1406 1.391 . S
C1405 C1404 1.386 . S
C1405 C1409 1.393 . S
C1406 H1398 0.950 . S
C1406 C1404 1.391 . S
C1406 C1407 1.400 . S
C1407 C1406 1.400 . S
C1407 C1408 1.398 . S
C1407 C1413 1.491 . S
C1408 H1399 0.950 . S
C1408 C1407 1.398 . S
C1408 C1409 1.391 . S
C1409 H1397 0.950 . S
C1409 C1405 1.393 . S
C1409 C1408 1.391 . S
C1410 H1400 0.950 . S
C1410 C1411 1.386 . S
C1410 C1412 1.391 . S
C1411 C1410 1.386 . S
C1411 C1415 1.393 . S
C1412 H1401 0.950 . S
C1412 C1410 1.391 . S
C1412 C1413 1.400 . S
C1413 C1407 1.491 . S
C1413 C1412 1.400 . S
C1413 C1414 1.398 . S
C1414 H1402 0.950 . S
C1414 C1413 1.398 . S
C1414 C1415 1.391 . S
C1415 H1403 0.950 . S
C1415 C1411 1.393 . S
C1415 C1414 1.391 . S
H1416 C1424 0.950 . S
H1417 C1429 0.950 . S
H1418 C1426 0.950 . S
H1419 C1428 0.950 . S
H1420 C1430 0.950 . S
H1421 C1432 0.950 . S
H1422 C1434 0.950 . S
H1423 C1435 0.950 . S
C1424 H1416 0.950 . S
C1424 C1425 1.386 . S
C1424 C1426 1.391 . S
C1425 C1424 1.386 . S
C1425 C1429 1.393 . S
C1426 H1418 0.950 . S
C1426 C1424 1.391 . S
C1426 C1427 1.400 . S
C1427 C1426 1.400 . S
C1427 C1428 1.398 . S
C1427 C1433 1.491 . S
C1428 H1419 0.950 . S
C1428 C1427 1.398 . S
C1428 C1429 1.391 . S
C1429 H1417 0.950 . S
C1429 C1425 1.393 . S
C1429 C1428 1.391 . S
C1430 H1420 0.950 . S
C1430 C1431 1.386 . S
C1430 C1432 1.391 . S
C1431 C1430 1.386 . S
C1431 C1435 1.393 . S
C1432 H1421 0.950 . S
C1432 C1430 1.391 . S
C1432 C1433 1.400 . S
C1433 C1427 1.491 . S
C1433 C1432 1.400 . S
C1433 C1434 1.398 . S
C1434 H1422 0.950 . S
C1434 C1433 1.398 . S
C1434 C1435 1.391 . S
C1435 H1423 0.950 . S
C1435 C1431 1.393 . S
C1435 C1434 1.391 . S
H1436 C1444 0.950 . S
H1437 C1449 0.950 . S
H1438 C1446 0.950 . S
H1439 C1448 0.950 . S
H1440 C1450 0.950 . S
H1441 C1452 0.950 . S
H1442 C1454 0.950 . S
H1443 C1455 0.950 . S
C1444 H1436 0.950 . S
C1444 C1445 1.386 . S
C1444 C1446 1.391 . S
C1445 C1444 1.386 . S
C1445 C1449 1.393 . S
C1446 H1438 0.950 . S
C1446 C1444 1.391 . S
C1446 C1447 1.400 . S
C1447 C1446 1.400 . S
C1447 C1448 1.398 . S
C1447 C1453 1.491 . S
C1448 H1439 0.950 . S
C1448 C1447 1.398 . S
C1448 C1449 1.391 . S
C1449 H1437 0.950 . S
C1449 C1445 1.393 . S
C1449 C1448 1.391 . S
C1450 H1440 0.950 . S
C1450 C1451 1.386 . S
C1450 C1452 1.391 . S
C1451 C1450 1.386 . S
C1451 C1455 1.393 . S
C1452 H1441 0.950 . S
C1452 C1450 1.391 . S
C1452 C1453 1.400 . S
C1453 C1447 1.491 . S
C1453 C1452 1.400 . S
C1453 C1454 1.398 . S
C1454 H1442 0.950 . S
C1454 C1453 1.398 . S
C1454 C1455 1.391 . S
C1455 H1443 0.950 . S
C1455 C1451 1.393 . S
C1455 C1454 1.391 . S
H1456 C1464 0.950 . S
H1457 C1469 0.950 . S
H1458 C1466 0.950 . S
H1459 C1468 0.950 . S
H1460 C1470 0.950 . S
H1461 C1472 0.950 . S
H1462 C1474 0.950 . S
H1463 C1475 0.950 . S
C1464 H1456 0.950 . S
C1464 C1465 1.386 . S
C1464 C1466 1.391 . S
C1465 C1464 1.386 . S
C1465 C1469 1.393 . S
C1466 H1458 0.950 . S
C1466 C1464 1.391 . S
C1466 C1467 1.400 . S
C1467 C1466 1.400 . S
C1467 C1468 1.398 . S
C1467 C1473 1.491 . S
C1468 H1459 0.950 . S
C1468 C1467 1.398 . S
C1468 C1469 1.391 . S
C1469 H1457 0.950 . S
C1469 C1465 1.393 . S
C1469 C1468 1.391 . S
C1470 H1460 0.950 . S
C1470 C1471 1.386 . S
C1470 C1472 1.391 . S
C1471 C1470 1.386 . S
C1471 C1475 1.393 . S
C1472 H1461 0.950 . S
C1472 C1470 1.391 . S
C1472 C1473 1.400 . S
C1473 C1467 1.491 . S
C1473 C1472 1.400 . S
C1473 C1474 1.398 . S
C1474 H1462 0.950 . S
C1474 C1473 1.398 . S
C1474 C1475 1.391 . S
C1475 H1463 0.950 . S
C1475 C1471 1.393 . S
C1475 C1474 1.391 . S
H1476 C1484 0.950 . S
H1477 C1489 0.950 . S
H1478 C1486 0.950 . S
H1479 C1488 0.950 . S
H1480 C1490 0.950 . S
H1481 C1492 0.950 . S
H1482 C1494 0.950 . S
H1483 C1495 0.950 . S
C1484 H1476 0.950 . S
C1484 C1485 1.386 . S
C1484 C1486 1.391 . S
C1485 C1484 1.386 . S
C1485 C1489 1.393 . S
C1486 H1478 0.950 . S
C1486 C1484 1.391 . S
C1486 C1487 1.400 . S
C1487 C1486 1.400 . S
C1487 C1488 1.398 . S
C1487 C1493 1.491 . S
C1488 H1479 0.950 . S
C1488 C1487 1.398 . S
C1488 C1489 1.391 . S
C1489 H1477 0.950 . S
C1489 C1485 1.393 . S
C1489 C1488 1.391 . S
C1490 H1480 0.950 . S
C1490 C1491 1.386 . S
C1490 C1492 1.391 . S
C1491 C1490 1.386 . S
C1491 C1495 1.393 . S
C1492 H1481 0.950 . S
C1492 C1490 1.391 . S
C1492 C1493 1.400 . S
C1493 C1487 1.491 . S
C1493 C1492 1.400 . S
C1493 C1494 1.398 . S
C1494 H1482 0.950 . S
C1494 C1493 1.398 . S
C1494 C1495 1.391 . S
C1495 H1483 0.950 . S
C1495 C1491 1.393 . S
C1495 C1494 1.391 . S
H1496 C1504 0.950 . S
H1497 C1509 0.950 . S
H1498 C1506 0.950 . S
H1499 C1508 0.950 . S
H1500 C1510 0.950 . S
H1501 C1512 0.950 . S
H1502 C1514 0.950 . S
H1503 C1515 0.950 . S
C1504 H1496 0.950 . S
C1504 C1505 1.386 . S
C1504 C1506 1.391 . S
C1505 C1504 1.386 . S
C1505 C1509 1.393 . S
C1506 H1498 0.950 . S
C1506 C1504 1.391 . S
C1506 C1507 1.400 . S
C1507 C1506 1.400 . S
C1507 C1508 1.398 . S
C1507 C1513 1.491 . S
C1508 H1499 0.950 . S
C1508 C1507 1.398 . S
C1508 C1509 1.391 . S
C1509 H1497 0.950 . S
C1509 C1505 1.393 . S
C1509 C1508 1.391 . S
C1510 H1500 0.950 . S
C1510 C1511 1.386 . S
C1510 C1512 1.391 . S
C1511 C1510 1.386 . S
C1511 C1515 1.393 . S
C1512 H1501 0.950 . S
C1512 C1510 1.391 . S
C1512 C1513 1.400 . S
C1513 C1507 1.491 . S
C1513 C1512 1.400 . S
C1513 C1514 1.398 . S
C1514 H1502 0.950 . S
C1514 C1513 1.398 . S
C1514 C1515 1.391 . S
C1515 H1503 0.950 . S
C1515 C1511 1.393 . S
C1515 C1514 1.391 . S
H1516 C1524 0.950 . S
H1517 C1529 0.950 . S
H1518 C1526 0.950 . S
H1519 C1528 0.950 . S
H1520 C1530 0.950 . S
H1521 C1532 0.950 . S
H1522 C1534 0.950 . S
H1523 C1535 0.950 . S
C1524 H1516 0.950 . S
C1524 C1525 1.386 . S
C1524 C1526 1.391 . S
C1525 C1524 1.386 . S
C1525 C1529 1.393 . S
C1526 H1518 0.950 . S
C1526 C1524 1.391 . S
C1526 C1527 1.400 . S
C1527 C1526 1.400 . S
C1527 C1528 1.398 . S
C1527 C1533 1.491 . S
C1528 H1519 0.950 . S
C1528 C1527 1.398 . S
C1528 C1529 1.391 . S
C1529 H1517 0.950 . S
C1529 C1525 1.393 . S
C1529 C1528 1.391 . S
C1530 H1520 0.950 . S
C1530 C1531 1.386 . S
C1530 C1532 1.391 . S
C1531 C1530 1.386 . S
C1531 C1535 1.393 . S
C1532 H1521 0.950 . S
C1532 C1530 1.391 . S
C1532 C1533 1.400 . S
C1533 C1527 1.491 . S
C1533 C1532 1.400 . S
C1533 C1534 1.398 . S
C1534 H1522 0.950 . S
C1534 C1533 1.398 . S
C1534 C1535 1.391 . S
C1535 H1523 0.950 . S
C1535 C1531 1.393 . S
C1535 C1534 1.391 . S
H1536 C1544 0.950 . S
H1537 C1549 0.950 . S
H1538 C1546 0.950 . S
H1539 C1548 0.950 . S
H1540 C1550 0.950 . S
H1541 C1552 0.950 . S
H1542 C1554 0.950 . S
H1543 C1555 0.950 . S
C1544 H1536 0.950 . S
C1544 C1545 1.386 . S
C1544 C1546 1.391 . S
C1545 C1544 1.386 . S
C1545 C1549 1.393 . S
C1546 H1538 0.950 . S
C1546 C1544 1.391 . S
C1546 C1547 1.400 . S
C1547 C1546 1.400 . S
C1547 C1548 1.398 . S
C1547 C1553 1.491 . S
C1548 H1539 0.950 . S
C1548 C1547 1.398 . S
C1548 C1549 1.391 . S
C1549 H1537 0.950 . S
C1549 C1545 1.393 . S
C1549 C1548 1.391 . S
C1550 H1540 0.950 . S
C1550 C1551 1.386 . S
C1550 C1552 1.391 . S
C1551 C1550 1.386 . S
C1551 C1555 1.393 . S
C1552 H1541 0.950 . S
C1552 C1550 1.391 . S
C1552 C1553 1.400 . S
C1553 C1547 1.491 . S
C1553 C1552 1.400 . S
C1553 C1554 1.398 . S
C1554 H1542 0.950 . S
C1554 C1553 1.398 . S
C1554 C1555 1.391 . S
C1555 H1543 0.950 . S
C1555 C1551 1.393 . S
C1555 C1554 1.391 . S
H1556 C1564 0.950 . S
H1557 C1569 0.950 . S
H1558 C1566 0.950 . S
H1559 C1568 0.950 . S
H1560 C1570 0.950 . S
H1561 C1572 0.950 . S
H1562 C1574 0.950 . S
H1563 C1575 0.950 . S
C1564 H1556 0.950 . S
C1564 C1565 1.386 . S
C1564 C1566 1.391 . S
C1565 C1564 1.386 . S
C1565 C1569 1.393 . S
C1566 H1558 0.950 . S
C1566 C1564 1.391 . S
C1566 C1567 1.400 . S
C1567 C1566 1.400 . S
C1567 C1568 1.398 . S
C1567 C1573 1.491 . S
C1568 H1559 0.950 . S
C1568 C1567 1.398 . S
C1568 C1569 1.391 . S
C1569 H1557 0.950 . S
C1569 C1565 1.393 . S
C1569 C1568 1.391 . S
C1570 H1560 0.950 . S
C1570 C1571 1.386 . S
C1570 C1572 1.391 . S
C1571 C1570 1.386 . S
C1571 C1575 1.393 . S
C1572 H1561 0.950 . S
C1572 C1570 1.391 . S
C1572 C1573 1.400 . S
C1573 C1567 1.491 . S
C1573 C1572 1.400 . S
C1573 C1574 1.398 . S
C1574 H1562 0.950 . S
C1574 C1573 1.398 . S
C1574 C1575 1.391 . S
C1575 H1563 0.950 . S
C1575 C1571 1.393 . S
C1575 C1574 1.391 . S
H1576 C1584 0.950 . S
H1577 C1589 0.950 . S
H1578 C1586 0.950 . S
H1579 C1588 0.950 . S
H1580 C1590 0.950 . S
H1581 C1592 0.950 . S
H1582 C1594 0.950 . S
H1583 C1595 0.950 . S
C1584 H1576 0.950 . S
C1584 C1585 1.386 . S
C1584 C1586 1.391 . S
C1585 C1584 1.386 . S
C1585 C1589 1.393 . S
C1586 H1578 0.950 . S
C1586 C1584 1.391 . S
C1586 C1587 1.400 . S
C1587 C1586 1.400 . S
C1587 C1588 1.398 . S
C1587 C1593 1.491 . S
C1588 H1579 0.950 . S
C1588 C1587 1.398 . S
C1588 C1589 1.391 . S
C1589 H1577 0.950 . S
C1589 C1585 1.393 . S
C1589 C1588 1.391 . S
C1590 H1580 0.950 . S
C1590 C1591 1.386 . S
C1590 C1592 1.391 . S
C1591 C1590 1.386 . S
C1591 C1595 1.393 . S
C1592 H1581 0.950 . S
C1592 C1590 1.391 . S
C1592 C1593 1.400 . S
C1593 C1587 1.491 . S
C1593 C1592 1.400 . S
C1593 C1594 1.398 . S
C1594 H1582 0.950 . S
C1594 C1593 1.398 . S
C1594 C1595 1.391 . S
C1595 H1583 0.950 . S
C1595 C1591 1.393 . S
C1595 C1594 1.391 . S
H1596 C1604 0.950 . S
H1597 C1609 0.950 . S
H1598 C1606 0.950 . S
H1599 C1608 0.950 . S
H1600 C1610 0.950 . S
H1601 C1612 0.950 . S
H1602 C1614 0.950 . S
H1603 C1615 0.950 . S
C1604 H1596 0.950 . S
C1604 C1605 1.386 . S
C1604 C1606 1.391 . S
C1605 C1604 1.386 . S
C1605 C1609 1.393 . S
C1606 H1598 0.950 . S
C1606 C1604 1.391 . S
C1606 C1607 1.400 . S
C1607 C1606 1.400 . S
C1607 C1608 1.398 . S
C1607 C1613 1.491 . S
C1608 H1599 0.950 . S
C1608 C1607 1.398 . S
C1608 C1609 1.391 . S
C1609 H1597 0.950 . S
C1609 C1605 1.393 . S
C1609 C1608 1.391 . S
C1610 H1600 0.950 . S
C1610 C1611 1.386 . S
C1610 C1612 1.391 . S
C1611 C1610 1.386 . S
C1611 C1615 1.393 . S
C1612 H1601 0.950 . S
C1612 C1610 1.391 . S
C1612 C1613 1.400 . S
C1613 C1607 1.491 . S
C1613 C1612 1.400 . S
C1613 C1614 1.398 . S
C1614 H1602 0.950 . S
C1614 C1613 1.398 . S
C1614 C1615 1.391 . S
C1615 H1603 0.950 . S
C1615 C1611 1.393 . S
C1615 C1614 1.391 . S
H1616 C1624 0.950 . S
H1617 C1629 0.950 . S
H1618 C1626 0.950 . S
H1619 C1628 0.950 . S
H1620 C1630 0.950 . S
H1621 C1632 0.950 . S
H1622 C1634 0.950 . S
H1623 C1635 0.950 . S
C1624 H1616 0.950 . S
C1624 C1625 1.386 . S
C1624 C1626 1.391 . S
C1625 C1624 1.386 . S
C1625 C1629 1.393 . S
C1626 H1618 0.950 . S
C1626 C1624 1.391 . S
C1626 C1627 1.400 . S
C1627 C1626 1.400 . S
C1627 C1628 1.398 . S
C1627 C1633 1.491 . S
C1628 H1619 0.950 . S
C1628 C1627 1.398 . S
C1628 C1629 1.391 . S
C1629 H1617 0.950 . S
C1629 C1625 1.393 . S
C1629 C1628 1.391 . S
C1630 H1620 0.950 . S
C1630 C1631 1.386 . S
C1630 C1632 1.391 . S
C1631 C1630 1.386 . S
C1631 C1635 1.393 . S
C1632 H1621 0.950 . S
C1632 C1630 1.391 . S
C1632 C1633 1.400 . S
C1633 C1627 1.491 . S
C1633 C1632 1.400 . S
C1633 C1634 1.398 . S
C1634 H1622 0.950 . S
C1634 C1633 1.398 . S
C1634 C1635 1.391 . S
C1635 H1623 0.950 . S
C1635 C1631 1.393 . S
C1635 C1634 1.391 . S
H1636 C1644 0.950 . S
H1637 C1649 0.950 . S
H1638 C1646 0.950 . S
H1639 C1648 0.950 . S
H1640 C1650 0.950 . S
H1641 C1652 0.950 . S
H1642 C1654 0.950 . S
H1643 C1655 0.950 . S
C1644 H1636 0.950 . S
C1644 C1645 1.386 . S
C1644 C1646 1.391 . S
C1645 C1644 1.386 . S
C1645 C1649 1.393 . S
C1646 H1638 0.950 . S
C1646 C1644 1.391 . S
C1646 C1647 1.400 . S
C1647 C1646 1.400 . S
C1647 C1648 1.398 . S
C1647 C1653 1.491 . S
C1648 H1639 0.950 . S
C1648 C1647 1.398 . S
C1648 C1649 1.391 . S
C1649 H1637 0.950 . S
C1649 C1645 1.393 . S
C1649 C1648 1.391 . S
C1650 H1640 0.950 . S
C1650 C1651 1.386 . S
C1650 C1652 1.391 . S
C1651 C1650 1.386 . S
C1651 C1655 1.393 . S
C1652 H1641 0.950 . S
C1652 C1650 1.391 . S
C1652 C1653 1.400 . S
C1653 C1647 1.491 . S
C1653 C1652 1.400 . S
C1653 C1654 1.398 . S
C1654 H1642 0.950 . S
C1654 C1653 1.398 . S
C1654 C1655 1.391 . S
C1655 H1643 0.950 . S
C1655 C1651 1.393 . S
C1655 C1654 1.391 . S
H1656 C1664 0.950 . S
H1657 C1669 0.950 . S
H1658 C1666 0.950 . S
H1659 C1668 0.950 . S
H1660 C1670 0.950 . S
H1661 C1672 0.950 . S
H1662 C1674 0.950 . S
H1663 C1675 0.950 . S
C1664 H1656 0.950 . S
C1664 C1665 1.386 . S
C1664 C1666 1.391 . S
C1665 C1664 1.386 . S
C1665 C1669 1.393 . S
C1666 H1658 0.950 . S
C1666 C1664 1.391 . S
C1666 C1667 1.400 . S
C1667 C1666 1.400 . S
C1667 C1668 1.398 . S
C1667 C1673 1.491 . S
C1668 H1659 0.950 . S
C1668 C1667 1.398 . S
C1668 C1669 1.391 . S
C1669 H1657 0.950 . S
C1669 C1665 1.393 . S
C1669 C1668 1.391 . S
C1670 H1660 0.950 . S
C1670 C1671 1.386 . S
C1670 C1672 1.391 . S
C1671 C1670 1.386 . S
C1671 C1675 1.393 . S
C1672 H1661 0.950 . S
C1672 C1670 1.391 . S
C1672 C1673 1.400 . S
C1673 C1667 1.491 . S
C1673 C1672 1.400 . S
C1673 C1674 1.398 . S
C1674 H1662 0.950 . S
C1674 C1673 1.398 . S
C1674 C1675 1.391 . S
C1675 H1663 0.950 . S
C1675 C1671 1.393 . S
C1675 C1674 1.391 . S
H1676 C1684 0.950 . S
H1677 C1689 0.950 . S
H1678 C1686 0.950 . S
H1679 C1688 0.950 . S
H1680 C1690 0.950 . S
H1681 C1692 0.950 . S
H1682 C1694 0.950 . S
H1683 C1695 0.950 . S
C1684 H1676 0.950 . S
C1684 C1685 1.386 . S
C1684 C1686 1.391 . S
C1685 C1684 1.386 . S
C1685 C1689 1.393 . S
C1686 H1678 0.950 . S
C1686 C1684 1.391 . S
C1686 C1687 1.400 . S
C1687 C1686 1.400 . S
C1687 C1688 1.398 . S
C1687 C1693 1.491 . S
C1688 H1679 0.950 . S
C1688 C1687 1.398 . S
C1688 C1689 1.391 . S
C1689 H1677 0.950 . S
C1689 C1685 1.393 . S
C1689 C1688 1.391 . S
C1690 H1680 0.950 . S
C1690 C1691 1.386 . S
C1690 C1692 1.391 . S
C1691 C1690 1.386 . S
C1691 C1695 1.393 . S
C1692 H1681 0.950 . S
C1692 C1690 1.391 . S
C1692 C1693 1.400 . S
C1693 C1687 1.491 . S
C1693 C1692 1.400 . S
C1693 C1694 1.398 . S
C1694 H1682 0.950 . S
C1694 C1693 1.398 . S
C1694 C1695 1.391 . S
C1695 H1683 0.950 . S
C1695 C1691 1.393 . S
C1695 C1694 1.391 . S
C425 C200 1.270 . S
C431 C5 1.294 . S
C445 C21 1.321 . S
C451 C161 1.332 . S
C465 C31 1.293 . S
C471 C174 1.273 . S
C485 C187 1.330 . S
C491 C47 1.311 . S
C505 C57 1.298 . S
C511 C122 1.267 . S
C525 C73 1.314 . S
C531 C135 1.314 . S
C545 C148 1.292 . S
C551 C83 1.274 . S
C565 C109 1.331 . S
C571 C99 1.312 . S
C585 C213 1.271 . S
C591 C408 1.295 . S
C605 C229 1.331 . S
C611 C369 1.325 . S
C625 C239 1.276 . S
C631 C382 1.288 . S
C645 C395 1.329 . S
C651 C255 1.310 . S
C665 C265 1.267 . S
C671 C330 1.297 . S
C685 C281 1.337 . S
C691 C343 1.316 . S
C705 C356 1.268 . S
C711 C291 1.297 . S
C725 C307 1.330 . S
C731 C317 1.327 . S
C745 C156 1.118 . S
C751 C0 1.122 . S
C765 C23 1.092 . S
C771 C169 1.079 . S
C785 C182 1.128 . S
C791 C26 1.112 . S
C805 C49 1.087 . S
C811 C195 1.086 . S
C825 C52 1.117 . S
C831 C104 1.125 . S
C845 C117 1.094 . S
C851 C75 1.094 . S
C865 C130 1.116 . S
C871 C78 1.127 . S
C885 C143 1.095 . S
C891 C101 1.098 . S
C905 C208 1.110 . S
C911 C364 1.131 . S
C925 C377 1.095 . S
C931 C231 1.097 . S
C945 C234 1.127 . S
C951 C390 1.114 . S
C965 C257 1.087 . S
C971 C403 1.085 . S
C985 C312 1.111 . S
C991 C260 1.131 . S
C1005 C283 1.084 . S
C1011 C325 1.073 . S
C1025 C286 1.115 . S
C1031 C338 1.127 . S
C1045 C309 1.098 . S
C1051 C351 1.091 . S
C1065 C8 1.416 . S
C1071 C138 1.438 . S
C1085 C151 1.419 . S
C1091 C18 1.425 . S
C1105 C34 1.419 . S
C1111 C112 1.434 . S
C1125 C125 1.402 . S
C1131 C44 1.418 . S
C1145 C190 1.425 . S
C1151 C60 1.429 . S
C1165 C203 1.425 . S
C1171 C70 1.418 . S
C1185 C164 1.421 . S
C1191 C86 1.432 . S
C1205 C96 1.421 . S
C1211 C177 1.423 . S
C1225 C346 1.437 . S
C1231 C216 1.417 . S
C1245 C226 1.425 . S
C1251 C359 1.403 . S
C1265 C320 1.422 . S
C1271 C242 1.431 . S
C1285 C333 1.407 . S
C1291 C252 1.429 . S
C1305 C268 1.414 . S
C1311 C398 1.439 . S
C1325 C278 1.406 . S
C1331 C411 1.421 . S
C1345 C372 1.439 . S
C1351 C294 1.414 . S
C1365 C385 1.426 . S
C1371 C304 1.416 . S
C1385 C299 1.136 . S
C1391 C10 1.136 . S
C1405 C270 1.127 . S
C1411 C13 1.142 . S
C1425 C273 1.135 . S
C1431 C36 1.139 . S
C1445 C296 1.142 . S
C1451 C39 1.135 . S
C1465 C221 1.135 . S
C1471 C62 1.142 . S
C1485 C65 1.141 . S
C1491 C244 1.128 . S
C1505 C88 1.144 . S
C1511 C247 1.139 . S
C1525 C91 1.136 . S
C1531 C218 1.135 . S
C1545 C114 1.335 . S
C1551 C413 1.323 . S
C1565 C374 1.324 . S
C1571 C127 1.310 . S
C1585 C140 1.324 . S
C1591 C387 1.325 . S
C1605 C153 1.308 . S
C1611 C400 1.319 . S
C1625 C335 1.317 . S
C1631 C166 1.319 . S
C1645 C348 1.322 . S
C1651 C179 1.309 . S
C1665 C192 1.320 . S
C1671 C361 1.320 . S
C1685 C205 1.319 . S
C1691 C322 1.320 . S
