# Generated by pormake.
# Topology wiv, (6)-cn, num edge types: 1
# Building blocks:
#     Node 0, Type 0, BuildingBlock: BETDIP_clean_sbu_0, # of connection points: 6
#     Node 1, Type 0, BuildingBlock: BETDIP_clean_sbu_0, # of connection points: 6
#     Node 2, Type 0, BuildingBlock: BETDIP_clean_sbu_0, # of connection points: 6
#     Node 3, Type 0, BuildingBlock: BETDIP_clean_sbu_0, # of connection points: 6
#     Node 4, Type 0, BuildingBlock: BETDIP_clean_sbu_0, # of connection points: 6
#     Node 5, Type 0, BuildingBlock: BETDIP_clean_sbu_0, # of connection points: 6
#     Node 6, Type 0, BuildingBlock: BETDIP_clean_sbu_0, # of connection points: 6
#     Node 7, Type 0, BuildingBlock: BETDIP_clean_sbu_0, # of connection points: 6
#     Node 8, Type 0, BuildingBlock: BETDIP_clean_sbu_0, # of connection points: 6
#     Node 9, Type 0, BuildingBlock: BETDIP_clean_sbu_0, # of connection points: 6
#     Node 10, Type 0, BuildingBlock: BETDIP_clean_sbu_0, # of connection points: 6
#     Node 11, Type 0, BuildingBlock: BETDIP_clean_sbu_0, # of connection points: 6
#     Node 12, Type 0, BuildingBlock: BETDIP_clean_sbu_0, # of connection points: 6
#     Node 13, Type 0, BuildingBlock: BETDIP_clean_sbu_0, # of connection points: 6
#     Node 14, Type 0, BuildingBlock: BETDIP_clean_sbu_0, # of connection points: 6
#     Node 15, Type 0, BuildingBlock: BETDIP_clean_sbu_0, # of connection points: 6
#     Edge 16, Type (0, 0), BuildingBlock: CIFDUS_clean_linker_0, # of connection points: 2
#     Edge 17, Type (0, 0), BuildingBlock: CIFDUS_clean_linker_0, # of connection points: 2
#     Edge 18, Type (0, 0), BuildingBlock: CIFDUS_clean_linker_0, # of connection points: 2
#     Edge 19, Type (0, 0), BuildingBlock: CIFDUS_clean_linker_0, # of connection points: 2
#     Edge 20, Type (0, 0), BuildingBlock: CIFDUS_clean_linker_0, # of connection points: 2
#     Edge 21, Type (0, 0), BuildingBlock: CIFDUS_clean_linker_0, # of connection points: 2
#     Edge 22, Type (0, 0), BuildingBlock: CIFDUS_clean_linker_0, # of connection points: 2
#     Edge 23, Type (0, 0), BuildingBlock: CIFDUS_clean_linker_0, # of connection points: 2
#     Edge 24, Type (0, 0), BuildingBlock: CIFDUS_clean_linker_0, # of connection points: 2
#     Edge 25, Type (0, 0), BuildingBlock: CIFDUS_clean_linker_0, # of connection points: 2
#     Edge 26, Type (0, 0), BuildingBlock: CIFDUS_clean_linker_0, # of connection points: 2
#     Edge 27, Type (0, 0), BuildingBlock: CIFDUS_clean_linker_0, # of connection points: 2
#     Edge 28, Type (0, 0), BuildingBlock: CIFDUS_clean_linker_0, # of connection points: 2
#     Edge 29, Type (0, 0), BuildingBlock: CIFDUS_clean_linker_0, # of connection points: 2
#     Edge 30, Type (0, 0), BuildingBlock: CIFDUS_clean_linker_0, # of connection points: 2
#     Edge 31, Type (0, 0), BuildingBlock: CIFDUS_clean_linker_0, # of connection points: 2
#     Edge 32, Type (0, 0), BuildingBlock: CIFDUS_clean_linker_0, # of connection points: 2
#     Edge 33, Type (0, 0), BuildingBlock: CIFDUS_clean_linker_0, # of connection points: 2
#     Edge 34, Type (0, 0), BuildingBlock: CIFDUS_clean_linker_0, # of connection points: 2
#     Edge 35, Type (0, 0), BuildingBlock: CIFDUS_clean_linker_0, # of connection points: 2
#     Edge 36, Type (0, 0), BuildingBlock: CIFDUS_clean_linker_0, # of connection points: 2
#     Edge 37, Type (0, 0), BuildingBlock: CIFDUS_clean_linker_0, # of connection points: 2
#     Edge 38, Type (0, 0), BuildingBlock: CIFDUS_clean_linker_0, # of connection points: 2
#     Edge 39, Type (0, 0), BuildingBlock: CIFDUS_clean_linker_0, # of connection points: 2
#     Edge 40, Type (0, 0), BuildingBlock: CIFDUS_clean_linker_0, # of connection points: 2
#     Edge 41, Type (0, 0), BuildingBlock: CIFDUS_clean_linker_0, # of connection points: 2
#     Edge 42, Type (0, 0), BuildingBlock: CIFDUS_clean_linker_0, # of connection points: 2
#     Edge 43, Type (0, 0), BuildingBlock: CIFDUS_clean_linker_0, # of connection points: 2
#     Edge 44, Type (0, 0), BuildingBlock: CIFDUS_clean_linker_0, # of connection points: 2
#     Edge 45, Type (0, 0), BuildingBlock: CIFDUS_clean_linker_0, # of connection points: 2
#     Edge 46, Type (0, 0), BuildingBlock: CIFDUS_clean_linker_0, # of connection points: 2
#     Edge 47, Type (0, 0), BuildingBlock: CIFDUS_clean_linker_0, # of connection points: 2
#     Edge 48, Type (0, 0), BuildingBlock: CIFDUS_clean_linker_0, # of connection points: 2
#     Edge 49, Type (0, 0), BuildingBlock: CIFDUS_clean_linker_0, # of connection points: 2
#     Edge 50, Type (0, 0), BuildingBlock: CIFDUS_clean_linker_0, # of connection points: 2
#     Edge 51, Type (0, 0), BuildingBlock: CIFDUS_clean_linker_0, # of connection points: 2
#     Edge 52, Type (0, 0), BuildingBlock: CIFDUS_clean_linker_0, # of connection points: 2
#     Edge 53, Type (0, 0), BuildingBlock: CIFDUS_clean_linker_0, # of connection points: 2
#     Edge 54, Type (0, 0), BuildingBlock: CIFDUS_clean_linker_0, # of connection points: 2
#     Edge 55, Type (0, 0), BuildingBlock: CIFDUS_clean_linker_0, # of connection points: 2
#     Edge 56, Type (0, 0), BuildingBlock: CIFDUS_clean_linker_0, # of connection points: 2
#     Edge 57, Type (0, 0), BuildingBlock: CIFDUS_clean_linker_0, # of connection points: 2
#     Edge 58, Type (0, 0), BuildingBlock: CIFDUS_clean_linker_0, # of connection points: 2
#     Edge 59, Type (0, 0), BuildingBlock: CIFDUS_clean_linker_0, # of connection points: 2
#     Edge 60, Type (0, 0), BuildingBlock: CIFDUS_clean_linker_0, # of connection points: 2
#     Edge 61, Type (0, 0), BuildingBlock: CIFDUS_clean_linker_0, # of connection points: 2
#     Edge 62, Type (0, 0), BuildingBlock: CIFDUS_clean_linker_0, # of connection points: 2
#     Edge 63, Type (0, 0), BuildingBlock: CIFDUS_clean_linker_0, # of connection points: 2
# Relax obj value: 0.146
# Max RMSD: 0.198
# Mean RMSD: 0.198
data_MOF--net-wiv--node1-BETDIP_clean_sbu_0--edge1-CIFDUS_clean_linker_0
_symmetry_space_group_name_H-M    P1
_symmetry_Int_Tables_number       1
_symmetry_cell_setting            triclinic
loop_
_symmetry_equiv_pos_as_xyz
'x, y, z'
_cell_length_a     43.05008
_cell_length_b     43.019902
_cell_length_c     22.601855
_cell_angle_alpha  90.01868
_cell_angle_beta   90.095915
_cell_angle_gamma 90.295017
loop_
_atom_site_label
_atom_site_type_symbol
_atom_site_fract_x
_atom_site_fract_y
_atom_site_fract_z
_atom_type_partial_charge
Tb0 Tb 0.33541 0.1111 0.18083 0.0
Tb1 Tb 0.382 0.11492 0.08485 0.0
C2 C 0.30795 0.09957 0.27728 0.0
C3 C 0.31707 0.10314 0.34019 0.0
C4 C 0.30333 0.08449 0.38399 0.0
C5 C 0.31151 0.08826 0.44378 0.0
C6 C 0.3335 0.11091 0.46097 0.0
C7 C 0.34744 0.12927 0.41671 0.0
C8 C 0.33936 0.12542 0.35711 0.0
C9 C 0.34321 0.16802 0.13826 0.0
C10 C 0.4083 0.12182 0.21158 0.0
C11 C 0.40818 0.12779 0.98811 0.0
C12 C 0.39953 0.12199 0.92552 0.0
C13 C 0.40978 0.14218 0.88084 0.0
C14 C 0.40103 0.13725 0.82169 0.0
C15 C 0.38164 0.11204 0.80586 0.0
C16 C 0.37147 0.09186 0.85106 0.0
C17 C 0.38039 0.09672 0.91002 0.0
C18 C 0.3767 0.0593 0.13299 0.0
C19 C 0.30969 0.10399 0.05201 0.0
O20 O 0.32295 0.0787 0.24678 0.0
O21 O 0.30466 0.12532 0.24742 0.0
O22 O 0.36434 0.14821 0.1471 0.0
O23 O 0.3169 0.1557 0.15341 0.0
O24 O 0.38031 0.11235 0.22869 0.0
O25 O 0.41376 0.12893 0.15549 0.0
O26 O 0.39057 0.14734 1.01696 0.0
O27 O 0.41469 0.10325 1.01987 0.0
O28 O 0.35468 0.07787 0.12223 0.0
O29 O 0.40231 0.07067 0.11217 0.0
O30 O 0.33796 0.11234 0.03535 0.0
O31 O 0.3034 0.09861 0.1086 0.0
H32 H 0.28604 0.06721 0.37201 0.0
H33 H 0.30011 0.07391 0.47667 0.0
H34 H 0.36478 0.1466 0.42813 0.0
H35 H 0.35043 0.14003 0.32423 0.0
H36 H 0.42459 0.16182 0.89169 0.0
H37 H 0.40981 0.15303 0.78831 0.0
H38 H 0.35612 0.07253 0.84117 0.0
H39 H 0.37196 0.08087 0.94369 0.0
Tb40 Tb 0.11356 0.6325 0.98822 0.0
Tb41 Tb 0.10682 0.67816 0.89309 0.0
C42 C 0.12697 0.60743 0.08576 0.0
C43 C 0.11982 0.61581 0.14784 0.0
C44 C 0.14014 0.6073 0.19354 0.0
C45 C 0.13412 0.61608 0.25218 0.0
C46 C 0.1076 0.63363 0.26652 0.0
C47 C 0.0872 0.64195 0.22038 0.0
C48 C 0.09326 0.63318 0.16181 0.0
C49 C 0.05754 0.63339 0.9397 0.0
C50 C 0.09843 0.70394 1.02094 0.0
C51 C 0.09543 0.70375 0.7951 0.0
C52 C 0.09559 0.69135 0.73386 0.0
C53 C 0.07304 0.70063 0.69269 0.0
C54 C 0.07356 0.6892 0.63447 0.0
C55 C 0.09677 0.66827 0.61612 0.0
C56 C 0.11914 0.65891 0.65794 0.0
C57 C 0.11844 0.67011 0.71598 0.0
C58 C 0.16329 0.67637 0.93908 0.0
C59 C 0.12106 0.60606 0.86389 0.0
O60 O 0.14562 0.62643 0.05765 0.0
O61 O 0.10338 0.59896 0.05288 0.0
O62 O 0.07453 0.65674 0.95072 0.0
O63 O 0.0708 0.6087 0.96007 0.0
O64 O 0.10867 0.67634 0.03739 0.0
O65 O 0.09234 0.70976 0.9644 0.0
O66 O 0.07377 0.69324 0.83033 0.0
O67 O 0.12238 0.70501 0.82157 0.0
O68 O 0.14634 0.65299 0.92734 0.0
O69 O 0.14821 0.70136 0.92573 0.0
O70 O 0.10785 0.63248 0.84751 0.0
O71 O 0.13081 0.60211 0.91877 0.0
H72 H 0.16089 0.59413 0.18377 0.0
H73 H 0.15068 0.60967 0.2861 0.0
H74 H 0.0664 0.65515 0.22945 0.0
H75 H 0.07726 0.6402 0.12732 0.0
H76 H 0.05502 0.71677 0.70554 0.0
H77 H 0.05562 0.6966 0.60405 0.0
H78 H 0.1377 0.64331 0.64569 0.0
H79 H 0.13609 0.66234 0.74675 0.0
Tb80 Tb 0.67379 0.90025 0.18806 0.0
Tb81 Tb 0.62694 0.9028 0.09212 0.0
C82 C 0.70188 0.90917 0.28504 0.0
C83 C 0.69451 0.90374 0.34808 0.0
C84 C 0.70994 0.92093 0.39204 0.0
C85 C 0.70218 0.91711 0.45184 0.0
C86 C 0.67871 0.89602 0.46895 0.0
C87 C 0.66346 0.87867 0.42456 0.0
C88 C 0.67127 0.8825 0.36483 0.0
C89 C 0.66417 0.84644 0.13538 0.0
C90 C 0.60023 0.89086 0.21705 0.0
C91 C 0.59969 0.8956 0.99417 0.0
C92 C 0.60999 0.89873 0.93188 0.0
C93 C 0.59713 0.87963 0.88777 0.0
C94 C 0.60697 0.88228 0.82879 0.0
C95 C 0.63002 0.90406 0.81262 0.0
C96 C 0.64295 0.92301 0.85726 0.0
C97 C 0.63299 0.92045 0.91601 0.0
C98 C 0.63598 0.95599 0.14872 0.0
C99 C 0.69936 0.90919 0.05946 0.0
O100 O 0.685 0.9301 0.25854 0.0
O101 O 0.70564 0.88455 0.25196 0.0
O102 O 0.64354 0.86612 0.14836 0.0
O103 O 0.69081 0.85619 0.15476 0.0
O104 O 0.62904 0.89586 0.23624 0.0
O105 O 0.59367 0.88947 0.15992 0.0
O106 O 0.61184 0.87267 1.02428 0.0
O107 O 0.59879 0.92128 1.02512 0.0
O108 O 0.65667 0.93668 0.13406 0.0
O109 O 0.60949 0.94661 0.12793 0.0
O110 O 0.67082 0.90211 0.04259 0.0
O111 O 0.70586 0.91375 0.11638 0.0
H112 H 0.72787 0.93752 0.38006 0.0
H113 H 0.71471 0.93055 0.48472 0.0
H114 H 0.64502 0.86252 0.43585 0.0
H115 H 0.65897 0.86905 0.33166 0.0
H116 H 0.57935 0.86272 0.8989 0.0
H117 H 0.59611 0.86758 0.79573 0.0
H118 H 0.66113 0.93964 0.84702 0.0
H119 H 0.64351 0.93536 0.94917 0.0
Tb120 Tb 0.90732 0.38059 0.97377 0.0
Tb121 Tb 0.90791 0.33406 0.87852 0.0
C122 C 0.89776 0.40746 0.07096 0.0
C123 C 0.89619 0.39694 0.13354 0.0
C124 C 0.87239 0.37706 0.15366 0.0
C125 C 0.87185 0.36685 0.21254 0.0
C126 C 0.89515 0.3761 0.2528 0.0
C127 C 0.91886 0.39607 0.23244 0.0
C128 C 0.91925 0.40646 0.17375 0.0
C129 C 0.9607 0.37668 0.9167 0.0
C130 C 0.91783 0.30847 1.00632 0.0
C131 C 0.91644 0.30659 0.78135 0.0
C132 C 0.91588 0.31666 0.71851 0.0
C133 C 0.93854 0.33706 0.6958 0.0
C134 C 0.93696 0.34731 0.63712 0.0
C135 C 0.91261 0.3376 0.59961 0.0
C136 C 0.89025 0.31678 0.62222 0.0
C137 C 0.89197 0.30634 0.68082 0.0
C138 C 0.854 0.33839 0.93257 0.0
C139 C 0.89547 0.40692 0.84881 0.0
O140 O 0.87548 0.39834 0.03528 0.0
O141 O 0.92506 0.4059 0.04586 0.0
O142 O 0.94328 0.35424 0.93144 0.0
O143 O 0.94923 0.4023 0.93723 0.0
O144 O 0.90927 0.33656 1.02338 0.0
O145 O 0.92233 0.30226 0.94942 0.0
O146 O 0.93891 0.31744 0.81453 0.0
O147 O 0.88983 0.30688 0.80903 0.0
O148 O 0.87151 0.36092 0.91837 0.0
O149 O 0.86694 0.31265 0.91634 0.0
O150 O 0.90283 0.37864 0.82991 0.0
O151 O 0.893 0.41319 0.90583 0.0
H152 H 0.85419 0.36925 0.12397 0.0
H153 H 0.85296 0.35187 0.22651 0.0
H154 H 0.93756 0.40329 0.26152 0.0
H155 H 0.93791 0.42171 0.15957 0.0
H156 H 0.95745 0.34536 0.72338 0.0
H157 H 0.955 0.36279 0.62115 0.0
H158 H 0.87097 0.309 0.59509 0.0
H159 H 0.87425 0.29053 0.697 0.0
Tb160 Tb 0.33858 0.40878 0.13211 0.0
Tb161 Tb 0.38555 0.40095 0.22707 0.0
C162 C 0.31278 0.42329 0.0355 0.0
C163 C 0.32206 0.42298 0.9721 0.0
C164 C 0.35124 0.4341 0.95359 0.0
C165 C 0.35974 0.43303 0.89372 0.0
C166 C 0.33932 0.42082 0.85065 0.0
C167 C 0.31012 0.40966 0.86942 0.0
C168 C 0.30164 0.41077 0.92936 0.0
C169 C 0.33811 0.35294 0.18052 0.0
C170 C 0.4098 0.38977 0.10085 0.0
C171 C 0.41123 0.38779 0.32423 0.0
C172 C 0.40077 0.38776 0.38702 0.0
C173 C 0.37221 0.37449 0.40396 0.0
C174 C 0.36226 0.37578 0.46302 0.0
C175 C 0.38055 0.39037 0.50692 0.0
C176 C 0.40927 0.40339 0.48971 0.0
C177 C 0.41919 0.40211 0.43061 0.0
C178 C 0.387 0.45539 0.17238 0.0
C179 C 0.31512 0.41848 0.26139 0.0
O180 O 0.32674 0.44333 0.07032 0.0
O181 O 0.30968 0.39615 0.06073 0.0
O182 O 0.36208 0.36894 0.1686 0.0
O183 O 0.31368 0.36841 0.16478 0.0
O184 O 0.38258 0.40114 0.08371 0.0
O185 O 0.41563 0.3839 0.15726 0.0
O186 O 0.39891 0.36696 0.28876 0.0
O187 O 0.41333 0.41507 0.29898 0.0
O188 O 0.36309 0.44015 0.18735 0.0
O189 O 0.41133 0.44054 0.19063 0.0
O190 O 0.34226 0.40682 0.27685 0.0
O191 O 0.30871 0.42457 0.20503 0.0
H192 H 0.36765 0.44338 0.98541 0.0
H193 H 0.38258 0.44141 0.88132 0.0
H194 H 0.2936 0.40043 0.83768 0.0
H195 H 0.27904 0.40201 0.94244 0.0
H196 H 0.35727 0.36349 0.37145 0.0
H197 H 0.33983 0.36584 0.47392 0.0
H198 H 0.42437 0.41431 0.52202 0.0
H199 H 0.44132 0.41248 0.41888 0.0
Tb200 Tb 0.40154 0.63278 0.83735 0.0
Tb201 Tb 0.40368 0.67886 0.93398 0.0
C202 C 0.38978 0.60696 0.73995 0.0
C203 C 0.39079 0.61792 0.67746 0.0
C204 C 0.36494 0.63242 0.6514 0.0
C205 C 0.36631 0.64349 0.59316 0.0
C206 C 0.39352 0.64027 0.55928 0.0
C207 C 0.41926 0.62552 0.58525 0.0
C208 C 0.41787 0.61439 0.64341 0.0
C209 C 0.45572 0.63684 0.89103 0.0
C210 C 0.41125 0.7052 0.80569 0.0
C211 C 0.41585 0.70659 1.02976 0.0
C212 C 0.41572 0.69796 0.09349 0.0
C213 C 0.44282 0.68692 0.12097 0.0
C214 C 0.44249 0.67775 0.1804 0.0
C215 C 0.41515 0.67986 0.21418 0.0
C216 C 0.3883 0.69188 0.18723 0.0
C217 C 0.38857 0.70083 0.12766 0.0
C218 C 0.34752 0.6717 0.88753 0.0
C219 C 0.39217 0.60577 0.96289 0.0
O220 O 0.36839 0.61897 0.77412 0.0
O221 O 0.4165 0.60464 0.76725 0.0
O222 O 0.43808 0.65939 0.8784 0.0
O223 O 0.44441 0.61143 0.86894 0.0
O224 O 0.40378 0.67684 0.78811 0.0
O225 O 0.41558 0.71142 0.86261 0.0
O226 O 0.43691 0.69357 0.99636 0.0
O227 O 0.38891 0.70779 1.00316 0.0
O228 O 0.36712 0.65047 0.8973 0.0
O229 O 0.35983 0.69795 0.90369 0.0
O230 O 0.39949 0.63409 0.98225 0.0
O231 O 0.38842 0.59987 0.90588 0.0
H232 H 0.34358 0.63532 0.67602 0.0
H233 H 0.34584 0.65425 0.57446 0.0
H234 H 0.44075 0.62294 0.56096 0.0
H235 H 0.4382 0.60324 0.66185 0.0
H236 H 0.46431 0.68519 0.0964 0.0
H237 H 0.46374 0.66914 0.20002 0.0
H238 H 0.36681 0.69369 0.21181 0.0
H239 H 0.36737 0.7097 0.10826 0.0
Tb240 Tb 0.66855 0.60166 0.13962 0.0
Tb241 Tb 0.6256 0.61056 0.24711 0.0
C242 C 0.69229 0.5774 0.04956 0.0
C243 C 0.6917 0.58562 0.98653 0.0
C244 C 0.69263 0.56197 0.94395 0.0
C245 C 0.68634 0.56863 0.88458 0.0
C246 C 0.67888 0.59907 0.86694 0.0
C247 C 0.67941 0.62294 0.90952 0.0
C248 C 0.6856 0.61624 0.96882 0.0
C249 C 0.66071 0.66214 0.15755 0.0
C250 C 0.59632 0.62049 0.12328 0.0
C251 C 0.60338 0.62608 0.34518 0.0
C252 C 0.61385 0.62029 0.40637 0.0
C253 C 0.61447 0.64474 0.44734 0.0
C254 C 0.6258 0.63994 0.50464 0.0
C255 C 0.63655 0.61047 0.52231 0.0
C256 C 0.63578 0.58601 0.48098 0.0
C257 C 0.62475 0.59091 0.42358 0.0
C258 C 0.6252 0.55447 0.19779 0.0
C259 C 0.69814 0.59871 0.27016 0.0
O260 O 0.66507 0.56961 0.07067 0.0
O261 O 0.70764 0.59613 0.08511 0.0
O262 O 0.64969 0.63974 0.18704 0.0
O263 O 0.67785 0.65027 0.11653 0.0
O264 O 0.62131 0.60678 0.10039 0.0
O265 O 0.59508 0.62879 0.17964 0.0
O266 O 0.62133 0.64432 0.31371 0.0
O267 O 0.59383 0.60178 0.31522 0.0
O268 O 0.64859 0.5721 0.2048 0.0
O269 O 0.60148 0.56754 0.22261 0.0
O270 O 0.67009 0.60387 0.29159 0.0
O271 O 0.70306 0.5955 0.21211 0.0
H272 H 0.69678 0.53811 0.95703 0.0
H273 H 0.68578 0.54964 0.85313 0.0
H274 H 0.67423 0.64669 0.89728 0.0
H275 H 0.68439 0.63479 1.00109 0.0
H276 H 0.60658 0.66768 0.43474 0.0
H277 H 0.6266 0.65951 0.53474 0.0
H278 H 0.64347 0.56293 0.49298 0.0
H279 H 0.62494 0.57169 0.39261 0.0
Tb280 Tb 0.6157 0.38744 0.83907 0.0
Tb281 Tb 0.61644 0.34032 0.93528 0.0
C282 C 0.6245 0.41583 0.74263 0.0
C283 C 0.62173 0.40854 0.67857 0.0
C284 C 0.64241 0.42236 0.63835 0.0
C285 C 0.64018 0.41606 0.57759 0.0
C286 C 0.61733 0.39556 0.55552 0.0
C287 C 0.59674 0.38154 0.59602 0.0
C288 C 0.5988 0.38811 0.65681 0.0
C289 C 0.56289 0.3818 0.89857 0.0
C290 C 0.60657 0.31493 0.80599 0.0
C291 C 0.6085 0.31195 1.03201 0.0
C292 C 0.60612 0.32131 0.09508 0.0
C293 C 0.58695 0.30443 0.13369 0.0
C294 C 0.58614 0.31159 0.19425 0.0
C295 C 0.60464 0.33578 0.21785 0.0
C296 C 0.62326 0.35315 0.17851 0.0
C297 C 0.62392 0.34606 0.11795 0.0
C298 C 0.67078 0.34759 0.88266 0.0
C299 C 0.62846 0.41338 0.96393 0.0
O300 O 0.64646 0.40142 0.77167 0.0
O301 O 0.59867 0.41716 0.77298 0.0
O302 O 0.5809 0.36011 0.88341 0.0
O303 O 0.57329 0.4077 0.87683 0.0
O304 O 0.61239 0.34375 0.7888 0.0
O305 O 0.6043 0.30786 0.86315 0.0
O306 O 0.58567 0.31982 0.99688 0.0
O307 O 0.63553 0.31622 1.00706 0.0
O308 O 0.65169 0.3689 0.89515 0.0
O309 O 0.65864 0.32125 0.89859 0.0
O310 O 0.61899 0.38566 0.98274 0.0
O311 O 0.63346 0.41871 0.90712 0.0
H312 H 0.6603 0.43817 0.65396 0.0
H313 H 0.65659 0.42707 0.54786 0.0
H314 H 0.57861 0.36599 0.58056 0.0
H315 H 0.58237 0.37734 0.68679 0.0
H316 H 0.57289 0.28535 0.11713 0.0
H317 H 0.57102 0.29803 0.22259 0.0
H318 H 0.63813 0.37167 0.19464 0.0
H319 H 0.63895 0.35953 0.08927 0.0
Tb320 Tb 0.84619 0.60822 0.67724 0.0
Tb321 Tb 0.89035 0.60956 0.57679 0.0
C322 C 0.81984 0.59452 0.77337 0.0
C323 C 0.82936 0.59304 0.83596 0.0
C324 C 0.8598 0.58503 0.85204 0.0
C325 C 0.86872 0.58477 0.91153 0.0
C326 C 0.8474 0.59269 0.95609 0.0
C327 C 0.8169 0.60062 0.93979 0.0
C328 C 0.80797 0.60074 0.88024 0.0
C329 C 0.85185 0.66405 0.62912 0.0
C330 C 0.91964 0.62186 0.69993 0.0
C331 C 0.91781 0.61907 0.48023 0.0
C332 C 0.90788 0.62051 0.41783 0.0
C333 C 0.87828 0.63139 0.40218 0.0
C334 C 0.86854 0.63093 0.34314 0.0
C335 C 0.88831 0.61986 0.29837 0.0
C336 C 0.91815 0.60946 0.31426 0.0
C337 C 0.92776 0.60969 0.37343 0.0
C338 C 0.88772 0.5561 0.63528 0.0
C339 C 0.81755 0.60159 0.54923 0.0
O340 O 0.83206 0.57398 0.73771 0.0
O341 O 0.81942 0.62226 0.75001 0.0
O342 O 0.87323 0.64434 0.63637 0.0
O343 O 0.82642 0.6526 0.65103 0.0
O344 O 0.89222 0.61336 0.72225 0.0
O345 O 0.92329 0.62572 0.64235 0.0
O346 O 0.90796 0.64134 0.5149 0.0
O347 O 0.91563 0.59172 0.50516 0.0
O348 O 0.86513 0.57348 0.62171 0.0
O349 O 0.91283 0.56835 0.61385 0.0
O350 O 0.84569 0.60835 0.52983 0.0
O351 O 0.81222 0.59761 0.60668 0.0
H352 H 0.87677 0.57925 0.81867 0.0
H353 H 0.89249 0.57894 0.92254 0.0
H354 H 0.79986 0.60652 0.97312 0.0
H355 H 0.78438 0.60704 0.86872 0.0
H356 H 0.8625 0.63997 0.43557 0.0
H357 H 0.84529 0.63875 0.33281 0.0
H358 H 0.93421 0.60129 0.28094 0.0
H359 H 0.9507 0.60124 0.38458 0.0
Tb360 Tb 0.61293 0.13392 0.4776 0.0
Tb361 Tb 0.61504 0.18139 0.38342 0.0
C362 C 0.62028 0.1065 0.57528 0.0
C363 C 0.61504 0.11578 0.63773 0.0
C364 C 0.63474 0.10482 0.6825 0.0
C365 C 0.63066 0.11423 0.74144 0.0
C366 C 0.60684 0.13508 0.75708 0.0
C367 C 0.58704 0.14585 0.71185 0.0
C368 C 0.59102 0.13624 0.65307 0.0
C369 C 0.56032 0.13933 0.4173 0.0
C370 C 0.60415 0.20614 0.51221 0.0
C371 C 0.6113 0.20999 0.286 0.0
C372 C 0.60997 0.19953 0.22335 0.0
C373 C 0.59295 0.21631 0.18103 0.0
C374 C 0.59398 0.20796 0.12086 0.0
C375 C 0.61233 0.18285 0.10189 0.0
C376 C 0.62849 0.16555 0.14471 0.0
C377 C 0.62723 0.17368 0.20459 0.0
C378 C 0.66851 0.17357 0.43887 0.0
C379 C 0.62387 0.10816 0.35365 0.0
O380 O 0.64262 0.1212 0.54757 0.0
O381 O 0.59554 0.10335 0.54208 0.0
O382 O 0.57833 0.16131 0.43263 0.0
O383 O 0.57027 0.11368 0.44032 0.0
O384 O 0.61015 0.17732 0.52852 0.0
O385 O 0.60163 0.21343 0.45519 0.0
O386 O 0.58723 0.20413 0.31946 0.0
O387 O 0.63731 0.20437 0.31365 0.0
O388 O 0.64987 0.15227 0.42315 0.0
O389 O 0.65644 0.2001 0.42509 0.0
O390 O 0.61417 0.13597 0.3362 0.0
O391 O 0.63019 0.10265 0.40984 0.0
H392 H 0.65339 0.08896 0.67186 0.0
H393 H 0.64605 0.10485 0.7748 0.0
H394 H 0.56878 0.16229 0.72148 0.0
H395 H 0.57558 0.14528 0.61939 0.0
H396 H 0.57945 0.23629 0.19433 0.0
H397 H 0.58134 0.2218 0.08897 0.0
H398 H 0.64246 0.14581 0.13176 0.0
H399 H 0.64048 0.16012 0.23604 0.0
Tb400 Tb 0.18514 0.40811 0.68498 0.0
Tb401 Tb 0.1384 0.40573 0.59025 0.0
C402 C 0.2131 0.4156 0.78228 0.0
C403 C 0.20328 0.41692 0.84512 0.0
C404 C 0.18124 0.4385 0.86518 0.0
C405 C 0.17116 0.43802 0.92413 0.0
C406 C 0.1826 0.41577 0.96438 0.0
C407 C 0.20497 0.39451 0.9441 0.0
C408 C 0.21524 0.3952 0.88538 0.0
C409 C 0.18056 0.35322 0.63334 0.0
C410 C 0.11247 0.39741 0.71478 0.0
C411 C 0.11172 0.395 0.49304 0.0
C412 C 0.12238 0.39506 0.43038 0.0
C413 C 0.14385 0.3731 0.40948 0.0
C414 C 0.15424 0.37399 0.35077 0.0
C415 C 0.14362 0.39697 0.31129 0.0
C416 C 0.12199 0.41881 0.33232 0.0
C417 C 0.11143 0.41777 0.39093 0.0
C418 C 0.14241 0.45997 0.64571 0.0
C419 C 0.21 0.41795 0.55672 0.0
O420 O 0.20494 0.4385 0.74765 0.0
O421 O 0.20952 0.3887 0.75643 0.0
O422 O 0.15809 0.37068 0.64707 0.0
O423 O 0.20628 0.36696 0.64776 0.0
O424 O 0.13983 0.40869 0.73185 0.0
O425 O 0.10726 0.38971 0.65915 0.0
O426 O 0.12263 0.37319 0.52764 0.0
O427 O 0.11109 0.42201 0.5196 0.0
O428 O 0.1647 0.44259 0.63104 0.0
O429 O 0.11675 0.44791 0.62586 0.0
O430 O 0.18197 0.40873 0.54033 0.0
O431 O 0.2167 0.42257 0.61348 0.0
H432 H 0.1715 0.45556 0.83528 0.0
H433 H 0.15436 0.45515 0.93804 0.0
H434 H 0.21407 0.37671 0.97309 0.0
H435 H 0.23218 0.37826 0.87104 0.0
H436 H 0.15281 0.35521 0.43846 0.0
H437 H 0.17048 0.35644 0.33633 0.0
H438 H 0.11359 0.43718 0.30385 0.0
H439 H 0.09492 0.43503 0.40567 0.0
Tb440 Tb 0.40049 0.89259 0.49442 0.0
Tb441 Tb 0.40389 0.84853 0.3946 0.0
C442 C 0.38971 0.92046 0.59025 0.0
C443 C 0.39061 0.91306 0.65407 0.0
C444 C 0.3812 0.88389 0.6758 0.0
C445 C 0.38272 0.87743 0.7365 0.0
C446 C 0.39349 0.90008 0.7767 0.0
C447 C 0.40287 0.92923 0.75459 0.0
C448 C 0.40146 0.9356 0.69396 0.0
C449 C 0.45473 0.89086 0.43871 0.0
C450 C 0.41115 0.82046 0.52236 0.0
C451 C 0.41757 0.82182 0.29878 0.0
C452 C 0.41606 0.82895 0.23493 0.0
C453 C 0.42324 0.85866 0.21289 0.0
C454 C 0.42146 0.8647 0.15208 0.0
C455 C 0.41236 0.8412 0.11207 0.0
C456 C 0.40505 0.81155 0.13463 0.0
C457 C 0.40694 0.80552 0.19533 0.0
C458 C 0.34745 0.85276 0.44056 0.0
C459 C 0.38901 0.92147 0.37114 0.0
O460 O 0.36823 0.90663 0.55843 0.0
O461 O 0.41655 0.92126 0.56333 0.0
O462 O 0.43758 0.86795 0.45188 0.0
O463 O 0.44185 0.91579 0.45903 0.0
O464 O 0.40251 0.84811 0.54138 0.0
O465 O 0.41643 0.81547 0.46523 0.0
O466 O 0.43746 0.83773 0.33064 0.0
O467 O 0.39093 0.8184 0.32555 0.0
O468 O 0.3666 0.87477 0.433 0.0
O469 O 0.36033 0.82739 0.42207 0.0
O470 O 0.39852 0.89439 0.34906 0.0
O471 O 0.38388 0.92474 0.42839 0.0
H472 H 0.3726 0.86612 0.64597 0.0
H473 H 0.37499 0.85488 0.75205 0.0
H474 H 0.41168 0.94705 0.78412 0.0
H475 H 0.40896 0.9582 0.67815 0.0
H476 H 0.43032 0.87718 0.24255 0.0
H477 H 0.42765 0.88769 0.1364 0.0
H478 H 0.39746 0.79301 0.10549 0.0
H479 H 0.40113 0.78248 0.21142 0.0
Tb480 Tb 0.84225 0.90478 0.64297 0.0
Tb481 Tb 0.88417 0.90303 0.74693 0.0
C482 C 0.80844 0.91847 0.55573 0.0
C483 C 0.81232 0.914 0.49123 0.0
C484 C 0.79613 0.93283 0.45117 0.0
C485 C 0.80113 0.93002 0.39007 0.0
C486 C 0.82241 0.90819 0.36753 0.0
C487 C 0.83831 0.88911 0.40814 0.0
C488 C 0.83346 0.89212 0.46918 0.0
C489 C 0.86072 0.84815 0.66885 0.0
C490 C 0.91435 0.89242 0.6243 0.0
C491 C 0.90897 0.89425 0.84679 0.0
C492 C 0.89837 0.89298 0.90936 0.0
C493 C 0.90874 0.86908 0.94665 0.0
C494 C 0.90079 0.8688 1.00684 0.0
C495 C 0.88214 0.89238 1.03114 0.0
C496 C 0.8713 0.91597 0.99348 0.0
C497 C 0.87943 0.91636 0.93344 0.0
C498 C 0.8854 0.95583 0.686 0.0
C499 C 0.81241 0.91057 0.7726 0.0
O500 O 0.8281 0.93784 0.5803 0.0
O501 O 0.8046 0.89331 0.58759 0.0
O502 O 0.85338 0.86894 0.70642 0.0
O503 O 0.857 0.85902 0.61605 0.0
O504 O 0.88897 0.9055 0.60191 0.0
O505 O 0.91578 0.88454 0.68084 0.0
O506 O 0.90038 0.87154 0.81162 0.0
O507 O 0.90725 0.9213 0.82073 0.0
O508 O 0.8617 0.93957 0.69805 0.0
O509 O 0.90943 0.94337 0.71072 0.0
O510 O 0.84099 0.91192 0.79318 0.0
O511 O 0.80694 0.90695 0.71491 0.0
H512 H 0.77995 0.95009 0.4672 0.0
H513 H 0.78878 0.94551 0.36064 0.0
H514 H 0.85448 0.87168 0.39287 0.0
H515 H 0.84644 0.87747 0.49921 0.0
H516 H 0.92349 0.85087 0.92942 0.0
H517 H 0.90942 0.85019 1.03453 0.0
H518 H 0.85742 0.93479 1.01088 0.0
H519 H 0.87139 0.9354 0.90618 0.0
Tb520 Tb 0.90463 0.12171 0.3191 0.0
Tb521 Tb 0.90362 0.16561 0.41656 0.0
C522 C 0.89464 0.09498 0.22188 0.0
C523 C 0.89402 0.1056 0.15962 0.0
C524 C 0.87497 0.13029 0.14143 0.0
C525 C 0.87563 0.14073 0.08284 0.0
C526 C 0.89558 0.12697 0.04113 0.0
C527 C 0.91452 0.10219 0.05959 0.0
C528 C 0.91361 0.09156 0.11804 0.0
C529 C 0.95792 0.1244 0.37706 0.0
C530 C 0.91426 0.19403 0.29049 0.0
C531 C 0.90671 0.19467 0.51342 0.0
C532 C 0.91043 0.18567 0.57586 0.0
C533 C 0.92919 0.16056 0.5926 0.0
C534 C 0.92977 0.15052 0.65148 0.0
C535 C 0.91118 0.16506 0.6946 0.0
C536 C 0.89283 0.19054 0.67744 0.0
C537 C 0.89261 0.20079 0.61882 0.0
C538 C 0.84901 0.15916 0.3635 0.0
C539 C 0.89578 0.09228 0.4421 0.0
O540 O 0.87255 0.10508 0.25659 0.0
O541 O 0.9218 0.09566 0.24776 0.0
O542 O 0.94067 0.14742 0.36515 0.0
O543 O 0.9467 0.09966 0.35217 0.0
O544 O 0.90713 0.16596 0.27115 0.0
O545 O 0.91702 0.19952 0.34804 0.0
O546 O 0.93039 0.19075 0.47824 0.0
O547 O 0.8808 0.18554 0.48902 0.0
O548 O 0.86794 0.13773 0.37579 0.0
O549 O 0.86222 0.18528 0.37696 0.0
O550 O 0.90504 0.11978 0.46284 0.0
O551 O 0.88979 0.08862 0.38524 0.0
H552 H 0.85969 0.14175 0.17248 0.0
H553 H 0.86037 0.15954 0.07033 0.0
H554 H 0.93062 0.09136 1.02926 0.0
H555 H 0.92865 0.07262 0.13106 0.0
H556 H 0.9429 0.14826 0.56009 0.0
H557 H 0.94458 0.13118 0.66297 0.0
H558 H 0.87773 0.20202 0.70875 0.0
H559 H 0.8777 0.21998 0.60661 0.0
Tb560 Tb 0.17119 0.11178 0.63531 0.0
Tb561 Tb 0.12614 0.11775 0.73373 0.0
C562 C 0.19766 0.09649 0.54003 0.0
C563 C 0.19062 0.0977 0.4759 0.0
C564 C 0.16104 0.09018 0.45352 0.0
C565 C 0.15498 0.09198 0.39262 0.0
C566 C 0.17837 0.10134 0.3527 0.0
C567 C 0.20796 0.10878 0.37555 0.0
C568 C 0.21398 0.10694 0.43634 0.0
C569 C 0.16799 0.16892 0.6791 0.0
C570 C 0.0992 0.12839 0.60843 0.0
C571 C 0.09938 0.13055 0.82981 0.0
C572 C 0.1069 0.12789 0.89371 0.0
C573 C 0.13629 0.13613 0.91629 0.0
C574 C 0.14271 0.13339 0.97695 0.0
C575 C 0.11985 0.12251 1.01649 0.0
C576 C 0.09054 0.11412 0.9935 0.0
C577 C 0.08419 0.11678 0.93291 0.0
C578 C 0.12715 0.06257 0.68105 0.0
C579 C 0.19781 0.1046 0.76399 0.0
O580 O 0.18127 0.07729 0.57243 0.0
O581 O 0.2018 0.12326 0.5662 0.0
O582 O 0.14556 0.15024 0.67167 0.0
O583 O 0.19308 0.15545 0.66089 0.0
O584 O 0.12584 0.11674 0.58873 0.0
O585 O 0.09548 0.13522 0.66507 0.0
O586 O 0.1154 0.15077 0.79886 0.0
O587 O 0.09529 0.10439 0.80128 0.0
O588 O 0.15028 0.07956 0.69385 0.0
O589 O 0.10238 0.07618 0.70037 0.0
O590 O 0.17019 0.11385 0.7819 0.0
O591 O 0.20335 0.09907 0.70715 0.0
H592 H 0.14261 0.08286 0.48301 0.0
H593 H 0.13206 0.08562 0.37681 0.0
H594 H 0.22647 0.1165 0.34658 0.0
H595 H 0.23695 0.11292 0.45256 0.0
H596 H 0.15429 0.14483 0.88719 0.0
H597 H 0.16541 0.14038 0.993 0.0
H598 H 0.07251 0.10521 1.02232 0.0
H599 H 0.06142 0.11014 0.91662 0.0
Tb600 Tb 0.1115 0.88812 0.34012 0.0
Tb601 Tb 0.11159 0.84217 0.43547 0.0
C602 C 0.12127 0.9147 0.24255 0.0
C603 C 0.1219 0.90387 0.18032 0.0
C604 C 0.13609 0.87571 0.16448 0.0
C605 C 0.13506 0.86512 0.10589 0.0
C606 C 0.1196 0.88226 0.0617 0.0
C607 C 0.10559 0.91055 0.07786 0.0
C608 C 0.1068 0.92121 0.13641 0.0
C609 C 0.05937 0.8876 0.40135 0.0
C610 C 0.09947 0.81607 0.30852 0.0
C611 C 0.1063 0.81348 0.53241 0.0
C612 C 0.10392 0.82328 0.5949 0.0
C613 C 0.08991 0.85149 0.61071 0.0
C614 C 0.09067 0.86183 0.66946 0.0
C615 C 0.10579 0.84439 0.71367 0.0
C616 C 0.11928 0.81583 0.69759 0.0
C617 C 0.11828 0.80541 0.63891 0.0
C618 C 0.16486 0.84593 0.37807 0.0
C619 C 0.12438 0.91473 0.46441 0.0
O620 O 0.14346 0.90486 0.27751 0.0
O621 O 0.09412 0.91375 0.26828 0.0
O622 O 0.07496 0.8637 0.38712 0.0
O623 O 0.07141 0.91193 0.37644 0.0
O624 O 0.1062 0.84447 0.29044 0.0
O625 O 0.09743 0.80952 0.36572 0.0
O626 O 0.08288 0.8197 0.49754 0.0
O627 O 0.13284 0.81972 0.50725 0.0
O628 O 0.14794 0.86849 0.39345 0.0
O629 O 0.1512 0.82038 0.39372 0.0
O630 O 0.116 0.8868 0.48376 0.0
O631 O 0.12737 0.92061 0.40734 0.0
H632 H 0.14778 0.8617 0.19742 0.0
H633 H 0.14649 0.84346 0.09533 0.0
H634 H 0.09298 0.92418 0.04562 0.0
H635 H 0.09544 0.94284 0.14764 0.0
H636 H 0.07891 0.86588 0.57754 0.0
H637 H 0.07955 0.88364 0.68007 0.0
H638 H 0.13154 0.80192 0.72987 0.0
H639 H 0.12953 0.78374 0.62758 0.0
H640 H 0.38653 0.92523 0.24865 0.0
H641 H 0.38175 0.98112 0.40725 0.0
H642 H 0.37626 0.02784 0.34828 0.0
H643 H 0.37564 0.05375 0.2522 0.0
H644 H 0.37796 0.99971 0.09224 0.0
H645 H 0.38216 0.95167 0.15064 0.0
C646 C 0.3841 0.9476 0.27022 0.0
C647 C 0.38456 0.94935 0.33263 0.0
C648 C 0.38054 0.97487 0.23572 0.0
C649 C 0.38136 0.97871 0.35955 0.0
C650 C 0.37827 1.00567 0.32581 0.0
C651 C 0.37571 0.03145 0.2301 0.0
C652 C 0.3751 0.03021 0.16808 0.0
C653 C 0.37795 1.0041 0.26398 0.0
C654 C 0.37748 1.00114 0.14009 0.0
C655 C 0.38007 0.97371 0.17351 0.0
H656 H 0.92419 0.61735 0.82207 0.0
H657 H 0.97824 0.63743 0.6656 0.0
H658 H 0.0247 0.64354 0.72541 0.0
H659 H 0.05103 0.64071 0.821 0.0
H660 H 0.99875 0.62204 0.97904 0.0
H661 H 0.9509 0.61714 0.92007 0.0
C662 C 0.94606 0.62325 0.80111 0.0
C663 C 0.94735 0.62685 0.739 0.0
C664 C 0.97318 0.62688 0.83613 0.0
C665 C 0.97615 0.63447 0.713 0.0
C666 C 1.00296 0.63797 0.74725 0.0
C667 C 0.02908 0.63684 0.84293 0.0
C668 C 0.0283 0.63307 0.90462 0.0
C669 C 1.00183 0.63411 0.80871 0.0
C670 C 0.99982 0.62577 0.93169 0.0
C671 C 0.97249 0.62287 0.89791 0.0
H672 H 0.59201 0.99808 0.1782 0.0
H673 H 0.68974 0.97975 0.19834 0.0
H674 H 0.69474 0.02413 0.26599 0.0
H675 H 0.67054 0.06794 0.32197 0.0
H676 H 0.57435 0.0895 0.28981 0.0
H677 H 0.56954 0.0446 0.22408 0.0
C678 C 0.61448 1.00382 0.19715 0.0
C679 C 0.64022 0.98474 0.18502 0.0
C680 C 0.6174 0.03018 0.2339 0.0
C681 C 0.66927 0.99317 0.20878 0.0
C682 C 0.67218 0.01878 0.24711 0.0
C683 C 0.64864 0.06277 0.30023 0.0
C684 C 0.62271 0.08184 0.31109 0.0
C685 C 0.64629 0.03729 0.26068 0.0
C686 C 0.59459 0.07521 0.28207 0.0
C687 C 0.59181 0.04946 0.2446 0.0
H688 H 0.99962 0.42388 0.88572 0.0
H689 H 0.98841 0.32463 0.87079 0.0
H690 H 0.0331 0.32218 0.80414 0.0
H691 H 0.07528 0.34877 0.74812 0.0
H692 H 0.09082 0.44672 0.77571 0.0
H693 H 0.0451 0.44925 0.83987 0.0
C694 C 1.00701 0.40168 0.86808 0.0
C695 C 0.98974 0.37463 0.88111 0.0
C696 C 0.03375 0.40028 0.8322 0.0
C697 C 1.00025 0.34599 0.85918 0.0
C698 C 0.02611 0.34454 0.8216 0.0
C699 C 0.06865 0.37056 0.76858 0.0
C700 C 0.08614 0.39761 0.75692 0.0
C701 C 0.04288 0.3716 0.8072 0.0
C702 C 0.07767 0.42564 0.78416 0.0
C703 C 0.05149 0.42709 0.82069 0.0
H704 H 0.35983 0.51276 0.17273 0.0
H705 H 0.41893 0.45334 0.06938 0.0
H706 H 0.42347 0.49322 0.99317 0.0
H707 H 0.41257 0.5462 0.95718 0.0
H708 H 0.36059 0.60892 0.06717 0.0
H709 H 0.35162 0.56726 0.13936 0.0
C710 C 0.37342 0.50858 0.13318 0.0
C711 C 0.38831 0.47977 0.12593 0.0
C712 C 0.3775 0.53252 0.09092 0.0
C713 C 0.40668 0.47498 0.07545 0.0
C714 C 0.40947 0.49792 1.03193 0.0
C715 C 0.39915 0.55062 0.99685 0.0
C716 C 0.38696 0.58047 1.00656 0.0
C717 C 0.39522 0.5269 0.03933 0.0
C718 C 0.37016 0.58611 0.05871 0.0
C719 C 0.36498 0.56226 0.09993 0.0
H720 H 0.59078 0.6246 1.00142 0.0
H721 H 0.53716 0.62706 0.16258 0.0
H722 H 0.48963 0.63351 0.1059 0.0
H723 H 0.46236 0.63754 1.01041 0.0
H724 H 0.51477 0.63594 0.84857 0.0
H725 H 0.56329 0.63069 0.90498 0.0
C726 C 0.56871 0.62678 1.02406 0.0
C727 C 0.56782 0.6254 0.08648 0.0
C728 C 0.54107 0.63118 0.99093 0.0
C729 C 0.53886 0.62832 0.11482 0.0
C730 C 0.51147 0.63208 0.08236 0.0
C731 C 0.48449 0.63697 0.98765 0.0
C732 C 0.4851 0.63815 0.9255 0.0
C733 C 0.51221 0.63366 1.02046 0.0
C734 C 0.51383 0.63587 0.89647 0.0
C735 C 0.54155 0.63263 0.92876 0.0
H736 H 0.67103 0.52326 0.13498 0.0
H737 H 0.57391 0.51894 0.18069 0.0
H738 H 0.56693 0.47366 0.11713 0.0
H739 H 0.58723 0.437 0.04266 0.0
H740 H 0.6816 0.44685 0.98266 0.0
H741 H 0.69057 0.48875 0.05474 0.0
C742 C 0.64819 0.51294 0.12985 0.0
C743 C 0.62286 0.52539 0.16141 0.0
C744 C 0.64376 0.4879 0.0898 0.0
C745 C 0.59381 0.51038 0.15648 0.0
C746 C 0.5897 0.48444 0.11982 0.0
C747 C 0.60976 0.4483 0.04562 0.0
C748 C 0.6338 0.43872 1.00773 0.0
C749 C 0.61431 0.47331 0.08535 0.0
C750 C 0.66276 0.45383 1.01138 0.0
C751 C 0.66789 0.47773 0.05274 0.0
H752 H 0.47171 0.37813 0.11848 0.0
H753 H 0.40407 0.3929 0.98039 0.0
H754 H 0.44493 0.39108 0.90587 0.0
H755 H 0.50072 0.38717 0.87946 0.0
H756 H 0.5678 0.37403 1.0186 0.0
H757 H 0.52688 0.37297 0.09204 0.0
C758 C 0.46579 0.38058 0.07207 0.0
C759 C 0.43467 0.38571 0.05547 0.0
C760 C 0.48955 0.37971 1.02912 0.0
C761 C 0.42772 0.38908 0.99487 0.0
C762 C 0.45115 0.38804 0.95198 0.0
C763 C 0.50624 0.38372 0.92583 0.0
C764 C 0.53743 0.37968 0.94293 0.0
C765 C 0.48226 0.38368 0.96853 0.0
C766 C 0.54422 0.37599 1.00335 0.0
C767 C 0.52064 0.37573 0.04585 0.0
H768 H 0.91273 0.46788 0.85483 0.0
H769 H 0.86544 0.4019 0.74265 0.0
H770 H 0.85568 0.44275 0.66933 0.0
H771 H 0.86222 0.49751 0.63514 0.0
H772 H 0.91732 0.5602 0.74099 0.0
H773 H 0.92181 0.52123 0.8185 0.0
C774 C 0.90009 0.46254 0.8145 0.0
C775 C 0.88953 0.43194 0.80458 0.0
C776 C 0.89569 0.48589 0.77138 0.0
C777 C 0.87378 0.42525 0.75146 0.0
C778 C 0.86814 0.44866 0.70952 0.0
C779 C 0.87476 0.50267 0.67565 0.0
C780 C 0.88821 0.53236 0.68329 0.0
C781 C 0.87911 0.47913 0.71875 0.0
C782 C 0.9056 0.53819 0.73483 0.0
C783 C 0.90854 0.51564 0.77907 0.0
H784 H 0.49986 0.12279 0.43309 0.0
H785 H 0.56353 0.15494 0.29987 0.0
H786 H 0.52254 0.15437 0.22608 0.0
H787 H 0.46842 0.14253 0.19734 0.0
H788 H 0.405 0.10723 0.32923 0.0
H789 H 0.44549 0.11092 0.40436 0.0
C790 C 0.50455 0.13017 0.38809 0.0
C791 C 0.53456 0.14071 0.37316 0.0
C792 C 0.48071 0.12875 0.34497 0.0
C793 C 0.54044 0.14906 0.31412 0.0
C794 C 0.51696 0.14795 0.27121 0.0
C795 C 0.46336 0.13576 0.24252 0.0
C796 C 0.43342 0.12477 0.25716 0.0
C797 C 0.48696 0.13774 0.28597 0.0
C798 C 0.4276 0.116 0.31623 0.0
C799 C 0.45086 0.11802 0.35951 0.0
H800 H 0.17021 0.57079 0.82559 0.0
H801 H 0.07131 0.58221 0.80704 0.0
H802 H 0.06892 0.53806 0.73895 0.0
H803 H 0.09473 0.49559 0.68535 0.0
H804 H 0.19439 0.48813 0.69237 0.0
H805 H 0.19683 0.53084 0.76403 0.0
C806 C 0.14822 0.56349 0.80656 0.0
C807 C 0.12089 0.57951 0.8218 0.0
C808 C 0.14717 0.53861 0.76552 0.0
C809 C 0.09261 0.57022 0.79605 0.0
C810 C 0.09123 0.54494 0.75714 0.0
C811 C 0.11703 0.50337 0.70235 0.0
C812 C 0.14428 0.48779 0.68512 0.0
C813 C 0.11832 0.52889 0.74157 0.0
C814 C 0.17296 0.49873 0.70673 0.0
C815 C 0.17438 0.52344 0.74731 0.0
H816 H 0.54232 0.91593 0.21839 0.0
H817 H 0.60225 0.85439 0.31554 0.0
H818 H 0.5617 0.84646 0.39016 0.0
H819 H 0.50927 0.85859 0.43008 0.0
H820 H 0.45307 0.92616 0.33948 0.0
H821 H 0.49127 0.92977 0.2602 0.0
C822 C 0.54633 0.9006 0.25569 0.0
C823 C 0.57515 0.88557 0.26119 0.0
C824 C 0.52331 0.89713 0.2997 0.0
C825 C 0.58028 0.86626 0.31038 0.0
C826 C 0.55705 0.86167 0.35301 0.0
C827 C 0.50538 0.87384 0.39263 0.0
C828 C 0.47797 0.89153 0.39007 0.0
C829 C 0.52848 0.87716 0.34849 0.0
C830 C 0.4736 0.91184 0.34208 0.0
C831 C 0.4956 0.91408 0.29676 0.0
H832 H 0.88118 0.96086 0.56603 0.0
H833 H 0.89433 0.01541 0.7237 0.0
H834 H 0.89896 0.06279 0.66346 0.0
H835 H 0.89959 0.08875 0.56469 0.0
H836 H 0.88491 0.03249 0.40861 0.0
H837 H 0.87995 0.98624 0.46933 0.0
C838 C 0.88407 0.98313 0.58751 0.0
C839 C 0.88629 0.98465 0.64951 0.0
C840 C 0.88666 0.01018 0.55258 0.0
C841 C 0.89192 0.01369 0.67609 0.0
C842 C 0.89466 0.04078 0.6416 0.0
C843 C 0.89524 0.0664 0.54399 0.0
C844 C 0.89263 0.06448 0.48171 0.0
C845 C 0.89213 0.03938 0.57957 0.0
C846 C 0.88697 0.03509 0.45611 0.0
C847 C 0.88414 0.00839 0.4909 0.0
H848 H 0.08778 0.10052 0.50122 0.0
H849 H 0.05116 0.16874 0.62209 0.0
H850 H 1.00602 0.17597 0.55811 0.0
H851 H 0.97555 0.16077 0.47066 0.0
H852 H 0.00832 0.08817 0.3566 0.0
H853 H 0.05647 0.08491 0.41415 0.0
C854 C 0.07005 0.1171 0.51342 0.0
C855 C 0.07296 0.13399 0.56668 0.0
C856 C 0.04341 0.12034 0.4774 0.0
C857 C 0.04956 0.15529 0.58166 0.0
C858 C 0.02368 0.15948 0.54501 0.0
C859 C 0.99319 0.14458 0.45803 0.0
C860 C 0.98821 0.12503 0.40911 0.0
C861 C 0.02014 0.14185 0.49316 0.0
C862 C 0.0115 0.10364 0.39397 0.0
C863 C 0.03903 0.10169 0.42701 0.0
H864 H 0.10077 0.97314 0.46365 0.0
H865 H 0.1599 0.91238 0.56423 0.0
H866 H 0.16882 0.95362 0.63753 0.0
H867 H 0.15831 1.00708 0.67498 0.0
H868 H 0.09165 0.06339 0.58258 0.0
H869 H 0.08761 0.02469 0.50405 0.0
C870 C 0.1158 0.9691 0.50141 0.0
C871 C 0.13004 0.93996 0.50812 0.0
C872 C 0.11963 0.99244 0.54477 0.0
C873 C 0.14884 0.93471 0.558 0.0
C874 C 0.15395 0.95831 0.59989 0.0
C875 C 0.1432 0.01088 0.63725 0.0
C876 C 0.12613 0.03867 0.63348 0.0
C877 C 0.13933 0.98731 0.59402 0.0
C878 C 0.1058 0.04279 0.58547 0.0
C879 C 0.10323 0.02044 0.5408 0.0
H880 H 0.04028 0.8549 0.49903 0.0
H881 H 0.00997 0.92379 0.37426 0.0
H882 H 0.96157 0.93034 0.42942 0.0
H883 H 0.92895 0.91856 0.51686 0.0
H884 H 0.96181 0.85219 0.64537 0.0
H885 H 0.00792 0.84266 0.58562 0.0
C886 C 0.02294 0.87076 0.48322 0.0
C887 C 0.02873 0.88833 0.43197 0.0
C888 C 0.9956 0.87521 0.51655 0.0
C889 C 1.0061 0.90971 0.41332 0.0
C890 C 0.97841 0.91358 0.44502 0.0
C891 C 0.94606 0.90182 0.53153 0.0
C892 C 0.94176 0.88617 0.58576 0.0
C893 C 0.97305 0.89679 0.49731 0.0
C894 C 0.96445 0.86476 0.60415 0.0
C895 C 0.99088 0.85918 0.56985 0.0
H896 H 0.30176 0.2112 0.1736 0.0
H897 H 0.39629 0.20166 0.11405 0.0
H898 H 0.40438 0.25799 0.12568 0.0
H899 H 0.38365 0.31053 0.15119 0.0
H900 H 0.28923 0.31788 0.2132 0.0
H901 H 0.28232 0.26187 0.20363 0.0
C902 C 0.32416 0.22136 0.16284 0.0
C903 C 0.34828 0.20223 0.14224 0.0
C904 C 0.32877 0.25345 0.17096 0.0
C905 C 0.37724 0.21588 0.12943 0.0
C906 C 0.38189 0.24807 0.13642 0.0
C907 C 0.36179 0.29972 0.16355 0.0
C908 C 0.33693 0.31843 0.18293 0.0
C909 C 0.35779 0.26718 0.15722 0.0
C910 C 0.30868 0.30408 0.1982 0.0
C911 C 0.30463 0.27203 0.19239 0.0
H912 H 0.30496 0.71205 0.92962 0.0
H913 H 0.31328 0.61961 0.85809 0.0
H914 H 0.25709 0.61133 0.87114 0.0
H915 H 0.20491 0.6314 0.90167 0.0
H916 H 0.1992 0.72349 0.97647 0.0
H917 H 0.25498 0.73051 0.96477 0.0
C918 C 0.29458 0.69008 0.91648 0.0
C919 C 0.31332 0.66665 0.89204 0.0
C920 C 0.26262 0.68526 0.92564 0.0
C921 C 0.29936 0.63818 0.87636 0.0
C922 C 0.26724 0.6334 0.88419 0.0
C923 C 0.21606 0.65271 0.91638 0.0
C924 C 0.19783 0.67694 0.94002 0.0
C925 C 0.24853 0.65681 0.90893 0.0
C926 C 0.21261 0.70452 0.95821 0.0
C927 C 0.24454 0.70866 0.95119 0.0
H928 H 0.63675 0.80516 0.21131 0.0
H929 H 0.68132 0.8127 0.04132 0.0
H930 H 0.68214 0.75607 1.0323 0.0
H931 H 0.67474 0.70493 0.07613 0.0
H932 H 0.63207 0.69542 0.24752 0.0
H933 H 0.62586 0.75225 0.25304 0.0
C934 C 0.64583 0.79423 0.17174 0.0
C935 C 0.6585 0.81291 0.12635 0.0
C936 C 0.64708 0.76144 0.16779 0.0
C937 C 0.67105 0.79871 0.07611 0.0
C938 C 0.67175 0.76637 0.07126 0.0
C939 C 0.66389 0.71518 0.11474 0.0
C940 C 0.65421 0.69597 0.16175 0.0
C941 C 0.66059 0.74758 0.11741 0.0
C942 C 0.63986 0.70967 0.21095 0.0
C943 C 0.63635 0.74217 0.214 0.0
H944 H 0.81423 0.38375 0.89163 0.0
H945 H 0.81704 0.29507 0.98056 0.0
H946 H 0.76087 0.28991 0.97134 0.0
H947 H 0.71177 0.30835 0.93262 0.0
H948 H 0.7063 0.39754 0.84649 0.0
H949 H 0.76276 0.4046 0.85901 0.0
C950 C 0.80235 0.36372 0.91016 0.0
C951 C 0.81974 0.33978 0.93689 0.0
C952 C 0.76977 0.36063 0.90383 0.0
C953 C 0.80414 0.31377 0.95998 0.0
C954 C 0.77206 0.31067 0.95428 0.0
C955 C 0.72281 0.32934 0.91614 0.0
C956 C 0.70492 0.35213 0.88747 0.0
C957 C 0.7548 0.33352 0.92502 0.0
C958 C 0.71966 0.37946 0.86787 0.0
C959 C 0.75187 0.38354 0.87541 0.0
H960 H 0.83037 0.70604 0.70917 0.0
H961 H 0.88832 0.69797 0.55467 0.0
H962 H 0.89845 0.75411 0.55699 0.0
H963 H 0.88843 0.80579 0.59979 0.0
H964 H 0.83249 0.81401 0.75689 0.0
H965 H 0.82451 0.75739 0.75785 0.0
C966 C 0.84514 0.71664 0.67591 0.0
C967 C 0.85809 0.69801 0.63087 0.0
C968 C 0.85145 0.74884 0.67856 0.0
C969 C 0.87784 0.71186 0.58916 0.0
C970 C 0.88367 0.74393 0.59066 0.0
C971 C 0.87494 0.79508 0.6349 0.0
C972 C 0.86101 0.81402 0.67822 0.0
C973 C 0.87037 0.76266 0.63479 0.0
C974 C 0.84369 0.79992 0.72348 0.0
C975 C 0.83885 0.7676 0.72354 0.0
H976 H 0.81154 0.1985 0.4225 0.0
H977 H 0.81035 0.1112 0.32891 0.0
H978 H 0.7543 0.10577 0.34868 0.0
H979 H 0.705 0.12769 0.38959 0.0
H980 H 0.70889 0.21434 0.48559 0.0
H981 H 0.76472 0.21774 0.46924 0.0
C982 C 0.79911 0.17829 0.40595 0.0
C983 C 0.815 0.15559 0.37304 0.0
C984 C 0.7674 0.17501 0.41889 0.0
C985 C 0.79854 0.12922 0.35351 0.0
C986 C 0.76656 0.12607 0.36516 0.0
C987 C 0.71828 0.14685 0.40813 0.0
C988 C 0.70282 0.17076 0.43902 0.0
C989 C 0.75065 0.14894 0.39769 0.0
C990 C 0.72025 0.19565 0.46198 0.0
C991 C 0.75215 0.19776 0.45218 0.0
H992 H 0.13436 0.31293 0.67127 0.0
H993 H 0.22513 0.31612 0.59083 0.0
H994 H 0.22966 0.25991 0.59994 0.0
H995 H 0.20951 0.21022 0.63497 0.0
H996 H 0.1183 0.20478 0.71265 0.0
H997 H 0.11243 0.26133 0.70146 0.0
C998 C 0.15479 0.30116 0.6547 0.0
C999 C 0.17941 0.31874 0.63025 0.0
C1000 C 0.15748 0.2685 0.66082 0.0
C1001 C 0.20589 0.30318 0.60969 0.0
C1002 C 0.20861 0.27102 0.61527 0.0
C1003 C 0.18835 0.22133 0.64982 0.0
C1004 C 0.16456 0.2033 0.67547 0.0
C1005 C 0.18488 0.25354 0.6418 0.0
C1006 C 0.13712 0.21816 0.6934 0.0
C1007 C 0.13371 0.25048 0.68664 0.0
H1008 H 0.30666 0.81399 0.38664 0.0
H1009 H 0.31192 0.90191 0.4777 0.0
H1010 H 0.25593 0.90959 0.4618 0.0
H1011 H 0.2049 0.88997 0.42412 0.0
H1012 H 0.2018 0.80255 0.3307 0.0
H1013 H 0.25767 0.79648 0.3438 0.0
C1014 C 0.29562 0.8348 0.40345 0.0
C1015 C 0.31337 0.8571 0.43433 0.0
C1016 C 0.26383 0.83939 0.39264 0.0
C1017 C 0.29868 0.8842 0.45454 0.0
C1018 C 0.26673 0.88867 0.44505 0.0
C1019 C 0.21666 0.87002 0.40545 0.0
C1020 C 0.19925 0.84676 0.37614 0.0
C1021 C 0.24899 0.86637 0.41411 0.0
C1022 C 0.21471 0.8208 0.35307 0.0
C1023 C 0.24662 0.81716 0.36104 0.0
H1024 H 0.19092 0.09654 0.88349 0.0
H1025 H 0.26133 0.10604 0.74907 0.0
H1026 H 0.3017 0.10632 0.8257 0.0
H1027 H 0.31682 0.10641 0.93135 0.0
H1028 H 0.24654 0.09526 0.06559 0.0
H1029 H 0.20644 0.09314 0.98855 0.0
C1030 C 0.21509 0.0986 0.87073 0.0
C1031 C 0.22286 0.10154 0.81006 0.0
C1032 C 0.23827 0.09861 0.91525 0.0
C1033 C 0.25448 0.10365 0.79493 0.0
C1034 C 0.27762 0.10397 0.83897 0.0
C1035 C 0.29282 0.10325 0.9441 0.0
C1036 C 0.28502 0.10103 1.00491 0.0
C1037 C 0.26978 0.10184 0.89936 0.0
C1038 C 0.25352 0.09703 1.0197 0.0
C1039 C 0.23048 0.09592 0.97552 0.0
H1040 H 0.11206 0.69908 0.13899 0.0
H1041 H 0.0763 0.76408 1.01076 0.0
H1042 H 0.07164 0.80358 0.08866 0.0
H1043 H 0.0809 0.82085 0.19236 0.0
H1044 H 0.11492 0.75473 0.32011 0.0
H1045 H 0.11856 0.71522 0.24241 0.0
C1046 C 0.10313 0.72182 0.12762 0.0
C1047 C 0.09462 0.72833 0.0683 0.0
C1048 C 0.1007 0.74455 0.17262 0.0
C1049 C 0.08316 0.75816 0.05547 0.0
C1050 C 0.08059 0.78087 0.10014 0.0
C1051 C 0.08848 0.79758 0.20357 0.0
C1052 C 0.0974 0.79087 0.26261 0.0
C1053 C 0.08968 0.7745 0.15878 0.0
C1054 C 0.1074 0.76058 0.27575 0.0
C1055 C 0.10949 0.73791 0.23121 0.0
H1056 H 0.69358 0.89826 0.93985 0.0
H1057 H 0.76097 0.92605 0.07143 0.0
H1058 H 0.80064 0.9302 0.99439 0.0
H1059 H 0.81667 0.92506 0.89035 0.0
H1060 H 0.7496 0.89789 0.75789 0.0
H1061 H 0.70925 0.89514 0.83435 0.0
C1062 C 0.71682 0.90559 0.95192 0.0
C1063 C 0.72392 0.91201 1.01215 0.0
C1064 C 0.73965 0.90811 0.90699 0.0
C1065 C 0.75454 0.92093 1.02612 0.0
C1066 C 0.77733 0.92332 0.98183 0.0
C1067 C 0.79328 0.91858 0.87774 0.0
C1068 C 0.78656 0.91155 0.81768 0.0
C1069 C 0.77022 0.91686 0.92219 0.0
C1070 C 0.75575 0.90354 0.80312 0.0
C1071 C 0.73262 0.90181 0.84714 0.0
H1072 H 0.91616 0.31496 0.12744 0.0
H1073 H 0.92697 0.24555 0.9911 0.0
H1074 H 0.92893 0.20488 0.06698 0.0
H1075 H 0.92274 0.18825 0.17076 0.0
H1076 H 0.91425 0.25763 0.30766 0.0
H1077 H 0.91629 0.29872 0.23235 0.0
C1078 C 0.91885 0.29094 0.11392 0.0
C1079 C 0.92095 0.28357 0.05286 0.0
C1080 C 0.91966 0.26742 0.15784 0.0
C1081 C 0.92497 0.25218 0.03716 0.0
C1082 C 0.92578 0.22878 0.0806 0.0
C1083 C 0.92129 0.21236 0.1845 0.0
C1084 C 0.91791 0.21956 0.24536 0.0
C1085 C 0.92237 0.23601 0.14093 0.0
C1086 C 0.91665 0.25112 0.26161 0.0
C1087 C 0.91751 0.27469 0.21843 0.0
H1088 H 0.32529 0.42034 0.38102 0.0
H1089 H 0.25185 0.42767 0.2518 0.0
H1090 H 0.21347 0.4301 0.33188 0.0
H1091 H 0.20029 0.42531 0.43781 0.0
H1092 H 0.27384 0.41917 0.56723 0.0
H1093 H 0.31246 0.4207 0.48777 0.0
C1094 C 0.30088 0.42226 0.37004 0.0
C1095 C 0.29162 0.42315 0.30979 0.0
C1096 C 0.27886 0.4233 0.41641 0.0
C1097 C 0.25984 0.42665 0.29721 0.0
C1098 C 0.23781 0.42778 0.34311 0.0
C1099 C 0.22479 0.42443 0.4489 0.0
C1100 C 0.23397 0.42183 0.50898 0.0
C1101 C 0.24697 0.42534 0.40277 0.0
C1102 C 0.26592 0.42114 0.52187 0.0
C1103 C 0.28807 0.4218 0.4762 0.0
H1104 H 0.41243 0.69895 0.68436 0.0
H1105 H 0.41582 0.76845 0.82214 0.0
H1106 H 0.41713 0.80945 0.74719 0.0
H1107 H 0.41562 0.82598 0.64282 0.0
H1108 H 0.41303 0.75689 0.50449 0.0
H1109 H 0.41373 0.71558 0.57935 0.0
C1110 C 0.41358 0.72305 0.69827 0.0
C1111 C 0.41389 0.73034 0.75954 0.0
C1112 C 0.41446 0.74673 0.65465 0.0
C1113 C 0.41558 0.76187 0.77589 0.0
C1114 C 0.41623 0.78544 0.73285 0.0
C1115 C 0.41512 0.80192 0.62871 0.0
C1116 C 0.41397 0.79483 0.56749 0.0
C1117 C 0.41539 0.77821 0.67213 0.0
C1118 C 0.41394 0.76331 0.55081 0.0
C1119 C 0.41413 0.73959 0.59378 0.0
H1120 H 0.69474 0.60338 0.39121 0.0
H1121 H 0.76124 0.59042 0.25073 0.0
H1122 H 0.80342 0.58953 0.32393 0.0
H1123 H 0.82167 0.59321 0.4284 0.0
H1124 H 0.75455 0.60616 0.56775 0.0
H1125 H 0.71276 0.60696 0.49408 0.0
C1126 C 0.71839 0.60018 0.37608 0.0
C1127 C 0.72442 0.59686 0.31463 0.0
C1128 C 0.74263 0.59974 0.41859 0.0
C1129 C 0.75553 0.59289 0.29713 0.0
C1130 C 0.77977 0.59243 0.33923 0.0
C1131 C 0.79788 0.59599 0.44297 0.0
C1132 C 0.79158 0.59961 0.50431 0.0
C1133 C 0.77365 0.59592 0.40018 0.0
C1134 C 0.76039 0.60298 0.52155 0.0
C1135 C 0.73636 0.60336 0.4793 0.0
H1136 H 0.60851 0.19785 0.63265 0.0
H1137 H 0.59458 0.26946 0.50198 0.0
H1138 H 0.59311 0.30857 0.58089 0.0
H1139 H 0.59789 0.32289 0.68643 0.0
H1140 H 0.60965 0.25105 0.81745 0.0
H1141 H 0.60966 0.21171 0.73902 0.0
C1142 C 0.60476 0.22191 0.62102 0.0
C1143 C 0.6016 0.23034 0.56052 0.0
C1144 C 0.60374 0.24438 0.6669 0.0
C1145 C 0.59714 0.26197 0.54741 0.0
C1146 C 0.59638 0.28444 0.59272 0.0
C1147 C 0.60023 0.29866 0.69819 0.0
C1148 C 0.60388 0.29029 0.75854 0.0
C1149 C 0.59995 0.27601 0.65258 0.0
C1150 C 0.6067 0.25849 0.77202 0.0
C1151 C 0.60681 0.23589 0.72689 0.0
H1152 H 0.34484 0.06721 0.54657 0.0
H1153 H 0.34005 0.16628 0.51899 0.0
H1154 H 0.35411 0.17537 0.62226 0.0
H1155 H 0.36775 0.15538 0.72074 0.0
H1156 H 0.37433 0.05629 0.74782 0.0
H1157 H 0.35892 0.04717 0.6454 0.0
C1158 C 0.34665 0.09078 0.56328 0.0
C1159 C 0.34148 0.116 0.52471 0.0
C1160 C 0.35494 0.09591 0.62296 0.0
C1161 C 0.34428 0.1464 0.54722 0.0
C1162 C 0.35219 0.15164 0.60648 0.0
C1163 C 0.36618 0.13176 0.70428 0.0
C1164 C 0.37224 0.10664 0.74267 0.0
C1165 C 0.35774 0.1266 0.64474 0.0
C1166 C 0.36939 0.0762 0.72013 0.0
C1167 C 0.36077 0.0709 0.66119 0.0
H1168 H 0.08288 0.69938 0.51329 0.0
H1169 H 0.11364 0.61016 0.57774 0.0
H1170 H 0.11981 0.59184 0.47651 0.0
H1171 H 0.11742 0.60117 0.36926 0.0
H1172 H 0.08352 0.68914 0.30498 0.0
H1173 H 0.07703 0.70742 0.40606 0.0
C1174 C 0.09046 0.67575 0.50546 0.0
C1175 C 0.09817 0.65647 0.55374 0.0
C1176 C 0.09349 0.66503 0.4468 0.0
C1177 C 0.10826 0.62597 0.54194 0.0
C1178 C 0.1116 0.61531 0.48384 0.0
C1179 C 0.10881 0.62443 0.37721 0.0
C1180 C 0.10176 0.64392 0.3289 0.0
C1181 C 0.10462 0.63473 0.43586 0.0
C1182 C 0.08963 0.67364 0.34068 0.0
C1183 C 0.08584 0.68418 0.39878 0.0
H1184 H 0.67234 0.94134 0.55302 0.0
H1185 H 0.66526 0.8421 0.52843 0.0
H1186 H 0.64978 0.83577 0.63166 0.0
H1187 H 0.63833 0.85832 0.72938 0.0
H1188 H 0.64452 0.95775 0.75311 0.0
H1189 H 0.66101 0.96386 0.65067 0.0
C1190 C 0.66773 0.91828 0.57032 0.0
C1191 C 0.66996 0.89226 0.53262 0.0
C1192 C 0.65881 0.91476 0.62994 0.0
C1193 C 0.66339 0.86262 0.55594 0.0
C1194 C 0.65467 0.85894 0.61519 0.0
C1195 C 0.64299 0.88138 0.71213 0.0
C1196 C 0.64017 0.90748 0.74953 0.0
C1197 C 0.65216 0.88485 0.6526 0.0
C1198 C 0.6469 0.9371 0.72612 0.0
C1199 C 0.65615 0.94069 0.66719 0.0
H1200 H 0.91217 0.40773 0.35307 0.0
H1201 H 0.87724 0.31861 0.29443 0.0
H1202 H 0.87989 0.29893 0.39524 0.0
H1203 H 0.89354 0.30634 0.50002 0.0
H1204 H 0.92625 0.3962 0.55926 0.0
H1205 H 0.92379 0.41578 0.45825 0.0
C1206 C 0.90542 0.38389 0.36202 0.0
C1207 C 0.89516 0.36461 0.31535 0.0
C1208 C 0.90677 0.37268 0.42046 0.0
C1209 C 0.88552 0.33408 0.3288 0.0
C1210 C 0.88705 0.3227 0.38669 0.0
C1211 C 0.8998 0.33033 0.49114 0.0
C1212 C 0.91036 0.34957 0.53762 0.0
C1213 C 0.89781 0.34173 0.43286 0.0
C1214 C 0.91871 0.38052 0.52457 0.0
C1215 C 0.91705 0.39188 0.46672 0.0
H1216 H 0.38863 0.43766 0.58762 0.0
H1217 H 0.34821 0.34607 0.56979 0.0
H1218 H 0.33106 0.34782 0.67247 0.0
H1219 H 0.32885 0.37451 0.76906 0.0
H1220 H 0.3703 0.46555 0.78735 0.0
H1221 H 0.38629 0.46437 0.68383 0.0
C1222 C 0.37636 0.41788 0.60615 0.0
C1223 C 0.36987 0.39175 0.57022 0.0
C1224 C 0.36687 0.41879 0.6659 0.0
C1225 C 0.35329 0.36674 0.59545 0.0
C1226 C 0.34361 0.36759 0.6546 0.0
C1227 C 0.34114 0.39423 0.75036 0.0
C1228 C 0.34842 0.42002 0.78657 0.0
C1229 C 0.35036 0.39343 0.69041 0.0
C1230 C 0.36473 0.44515 0.76124 0.0
C1231 C 0.37377 0.44459 0.70173 0.0
H1232 H 0.38779 0.70761 0.30965 0.0
H1233 H 0.4408 0.62698 0.25932 0.0
H1234 H 0.43909 0.60792 0.36098 0.0
H1235 H 0.42153 0.61335 0.46371 0.0
H1236 H 0.36886 0.69415 0.51465 0.0
H1237 H 0.37096 0.71351 0.41327 0.0
C1238 C 0.39883 0.68578 0.32087 0.0
C1239 C 0.41443 0.6688 0.27673 0.0
C1240 C 0.39767 0.67484 0.37956 0.0
C1241 C 0.42897 0.64076 0.29238 0.0
C1242 C 0.42784 0.62972 0.35051 0.0
C1243 C 0.41078 0.63537 0.45294 0.0
C1244 C 0.39505 0.65217 0.49718 0.0
C1245 C 0.41221 0.64651 0.39446 0.0
C1246 C 0.38079 0.68042 0.48168 0.0
C1247 C 0.38212 0.69164 0.42363 0.0
H1248 H 0.70244 0.5758 0.76401 0.0
H1249 H 0.63117 0.63637 0.83174 0.0
H1250 H 0.61235 0.64565 0.7316 0.0
H1251 H 0.61481 0.63523 0.62529 0.0
H1252 H 0.68496 0.57331 0.55757 0.0
H1253 H 0.7049 0.56539 0.65719 0.0
C1254 C 0.68272 0.59094 0.75689 0.0
C1255 C 0.66843 0.6055 0.80542 0.0
C1256 C 0.6716 0.59579 0.69916 0.0
C1257 C 0.64307 0.62532 0.79522 0.0
C1258 C 0.63206 0.63043 0.73795 0.0
C1259 C 0.63475 0.62034 0.63203 0.0
C1260 C 0.64855 0.60533 0.58344 0.0
C1261 C 0.64606 0.6157 0.68963 0.0
C1262 C 0.6738 0.58534 0.59372 0.0
C1263 C 0.68533 0.58079 0.65085 0.0
H1264 H 0.60913 0.33966 0.49913 0.0
H1265 H 0.61987 0.43772 0.4651 0.0
H1266 H 0.61635 0.4282 0.3587 0.0
H1267 H 0.61008 0.39209 0.27495 0.0
H1268 H 0.60132 0.29365 0.30905 0.0
H1269 H 0.60334 0.30341 0.41513 0.0
C1270 C 0.61038 0.35898 0.46852 0.0
C1271 C 0.61473 0.38939 0.49046 0.0
C1272 C 0.60848 0.3533 0.4071 0.0
C1273 C 0.61685 0.41405 0.44973 0.0
C1274 C 0.61469 0.40863 0.38874 0.0
C1275 C 0.60886 0.37266 0.3054 0.0
C1276 C 0.60537 0.34213 0.28323 0.0
C1277 C 0.61061 0.37834 0.36683 0.0
C1278 C 0.60337 0.31747 0.32412 0.0
C1279 C 0.60479 0.32299 0.38514 0.0
H1280 H 0.83479 0.63662 0.03925 0.0
H1281 H 0.88191 0.54931 1.01463 0.0
H1282 H 0.89854 0.54991 0.11806 0.0
H1283 H 0.89941 0.57503 0.21558 0.0
H1284 H 0.8535 0.66315 0.23941 0.0
H1285 H 0.83604 0.66197 0.13672 0.0
C1286 C 0.84847 0.61759 0.05669 0.0
C1287 C 0.85707 0.59295 1.01927 0.0
C1288 C 0.85804 0.61813 0.11616 0.0
C1289 C 0.87522 0.5687 0.04232 0.0
C1290 C 0.88463 0.56896 0.10153 0.0
C1291 C 0.88589 0.59418 0.19824 0.0
C1292 C 0.87783 0.61913 0.23548 0.0
C1293 C 0.87626 0.59361 0.13881 0.0
C1294 C 0.85973 0.64341 0.21224 0.0
C1295 C 0.84988 0.64288 0.15331 0.0
H1296 H 0.65168 0.14648 0.84103 0.0
H1297 H 0.55224 0.14714 0.81601 0.0
H1298 H 0.54517 0.16366 0.91829 0.0
H1299 H 0.56705 0.1762 1.01701 0.0
H1300 H 0.66624 0.17262 0.04253 0.0
H1301 H 0.6734 0.1585 0.93884 0.0
C1302 C 0.62838 0.14984 0.85787 0.0
C1303 C 0.6026 0.14542 0.82008 0.0
C1304 C 0.62436 0.15875 0.9174 0.0
C1305 C 0.57268 0.15071 0.84316 0.0
C1306 C 0.56854 0.15998 0.90207 0.0
C1307 C 0.59021 0.17252 0.99967 0.0
C1308 C 0.61605 0.17532 0.03773 0.0
C1309 C 0.59418 0.16393 0.93981 0.0
C1310 C 0.64591 0.17025 1.01455 0.0
C1311 C 0.65005 0.16226 0.95511 0.0
H1312 H 0.11172 0.41281 0.21046 0.0
H1313 H 0.20229 0.38382 0.27071 0.0
H1314 H 0.22231 0.38799 0.17043 0.0
H1315 H 0.21462 0.40069 0.06555 0.0
H1316 H 0.12334 0.42681 1.00407 0.0
H1317 H 0.10362 0.4239 0.10488 0.0
C1318 C 0.13593 0.40771 0.20197 0.0
C1319 C 0.15545 0.39851 0.24898 0.0
C1320 C 0.14736 0.40987 0.14371 0.0
C1321 C 0.18656 0.39109 0.23608 0.0
C1322 C 0.19814 0.39354 0.17849 0.0
C1323 C 0.19031 0.40542 0.0738 0.0
C1324 C 0.17069 0.41416 1.02662 0.0
C1325 C 0.17879 0.40297 0.13193 0.0
C1326 C 0.13933 0.42068 0.03914 0.0
C1327 C 0.12787 0.41872 0.09693 0.0
H1328 H 0.39186 0.89378 0.0566 0.0
H1329 H 0.42891 0.8026 1.02089 0.0
H1330 H 0.42547 0.81232 0.91478 0.0
H1331 H 0.41306 0.8471 0.83175 0.0
H1332 H 0.37682 0.93851 0.86753 0.0
H1333 H 0.37966 0.92856 0.97372 0.0
C1334 C 0.39953 0.87612 1.02573 0.0
C1335 C 0.41058 0.84746 0.04713 0.0
C1336 C 0.39784 0.88197 0.96456 0.0
C1337 C 0.41986 0.82472 1.00604 0.0
C1338 C 0.41811 0.83031 0.94518 0.0
C1339 C 0.4055 0.86474 0.86272 0.0
C1340 C 0.39479 0.89354 0.84146 0.0
C1341 C 0.40715 0.85885 0.9239 0.0
C1342 C 0.38554 0.91628 0.88249 0.0
C1343 C 0.387 0.91056 0.94331 0.0
H1344 H 0.87743 0.89605 0.31118 0.0
H1345 H 0.78064 0.91448 0.27589 0.0
H1346 H 0.79045 0.91166 0.16973 0.0
H1347 H 0.82659 0.90383 0.08609 0.0
H1348 H 0.92272 0.88322 0.12224 0.0
H1349 H 0.91284 0.8862 0.22844 0.0
C1350 C 0.85829 0.89902 0.28053 0.0
C1351 C 0.82831 0.90563 0.30225 0.0
C1352 C 0.86395 0.89683 0.21928 0.0
C1353 C 0.80409 0.90995 0.26106 0.0
C1354 C 0.80962 0.90812 0.20008 0.0
C1355 C 0.84537 0.90006 0.11724 0.0
C1356 C 0.87538 0.89327 0.09598 0.0
C1357 C 0.83949 0.90168 0.17859 0.0
C1358 C 0.89935 0.88811 0.13715 0.0
C1359 C 0.89375 0.88999 0.198 0.0
H1360 H 0.90353 0.09362 0.9391 0.0
H1361 H 0.89033 0.18728 1.00265 0.0
H1362 H 0.8956 0.20721 0.90258 0.0
H1363 H 0.90468 0.19837 0.79706 0.0
H1364 H 0.91447 0.10446 0.73223 0.0
H1365 H 0.91091 0.08461 0.83285 0.0
C1366 C 0.90216 0.11844 0.93134 0.0
C1367 C 0.89725 0.13888 0.97913 0.0
C1368 C 0.90484 0.12982 0.87326 0.0
C1369 C 0.89448 0.17088 0.96737 0.0
C1370 C 0.8975 0.18239 0.90991 0.0
C1371 C 0.90569 0.17351 0.80458 0.0
C1372 C 0.90992 0.15306 0.75656 0.0
C1373 C 0.90277 0.16209 0.86253 0.0
C1374 C 0.91179 0.12094 0.76798 0.0
C1375 C 0.90945 0.10947 0.82564 0.0
H1376 H 0.1728 0.1025 0.07196 0.0
H1377 H 0.08112 0.13782 0.10788 0.0
H1378 H 0.09081 0.13399 0.21401 0.0
H1379 H 0.12553 0.12145 0.29704 0.0
H1380 H 0.21709 0.08563 0.26115 0.0
H1381 H 0.20747 0.08962 0.15507 0.0
C1382 C 0.15502 0.10963 0.10289 0.0
C1383 C 0.12621 0.12035 0.08149 0.0
C1384 C 0.16078 0.10747 0.16416 0.0
C1385 C 0.10334 0.12904 0.1227 0.0
C1386 C 0.10893 0.12704 0.18358 0.0
C1387 C 0.1433 0.11417 0.26615 0.0
C1388 C 0.17206 0.10332 0.28761 0.0
C1389 C 0.13754 0.11625 0.20488 0.0
C1390 C 0.19491 0.09453 0.24639 0.0
C1391 C 0.18936 0.09661 0.18549 0.0
H1392 H 0.10379 0.81132 0.81737 0.0
H1393 H 0.11435 0.90473 0.75009 0.0
H1394 H 0.11914 0.92454 0.85072 0.0
H1395 H 0.12142 0.91547 0.958 0.0
H1396 H 0.11315 0.82183 1.02467 0.0
H1397 H 0.10746 0.80209 0.92436 0.0
C1398 C 0.10745 0.83599 0.82446 0.0
C1399 C 0.10845 0.8564 0.77566 0.0
C1400 C 0.11086 0.84728 0.8826 0.0
C1401 C 0.11277 0.8884 0.78641 0.0
C1402 C 0.11583 0.89979 0.84411 0.0
C1403 C 0.11805 0.89077 0.95082 0.0
C1404 C 0.11729 0.87031 0.99957 0.0
C1405 C 0.11492 0.87946 0.89259 0.0
C1406 C 0.11377 0.83826 0.9886 0.0
C1407 C 0.11041 0.82689 0.93098 0.0
loop_
_geom_bond_atom_site_label_1
_geom_bond_atom_site_label_2
_geom_bond_distance
_geom_bond_site_symmetry_2
_ccdc_geom_bond_type
Tb0 C2 2.809 . S
Tb0 O20 2.484 . S
Tb0 O21 2.440 . S
Tb0 O22 2.658 . S
Tb0 O23 2.409 . S
Tb0 O24 2.378 . S
Tb0 O28 2.325 . S
Tb0 O31 2.341 . S
Tb1 C11 2.809 1_554 S
Tb1 O22 2.325 . S
Tb1 O25 2.341 . S
Tb1 O26 2.484 1_554 S
Tb1 O27 2.440 1_554 S
Tb1 O28 2.658 . S
Tb1 O29 2.409 . S
Tb1 O30 2.378 . S
C2 Tb0 2.809 . S
C2 C3 1.514 . S
C2 O20 1.248 . S
C2 O21 1.266 . S
C3 C2 1.514 . S
C3 C4 1.359 . S
C3 C8 1.348 . S
C4 C3 1.359 . S
C4 C5 1.380 . S
C4 H32 0.929 . S
C5 C4 1.380 . S
C5 C6 1.347 . S
C5 H33 0.931 . S
C6 C5 1.347 . S
C6 C7 1.369 . S
C7 C6 1.369 . S
C7 C8 1.408 . S
C7 H34 0.930 . S
C8 C3 1.348 . S
C8 C7 1.408 . S
C8 H35 0.930 . S
C9 O22 1.281 . S
C9 O23 1.254 . S
C10 O24 1.236 . S
C10 O25 1.266 . S
C11 Tb1 2.809 1_556 S
C11 C12 1.514 . S
C11 O26 1.248 . S
C11 O27 1.266 . S
C12 C11 1.514 . S
C12 C13 1.359 . S
C12 C17 1.348 . S
C13 C12 1.359 . S
C13 C14 1.380 . S
C13 H36 0.929 . S
C14 C13 1.380 . S
C14 C15 1.347 . S
C14 H37 0.931 . S
C15 C14 1.347 . S
C15 C16 1.369 . S
C16 C15 1.369 . S
C16 C17 1.408 . S
C16 H38 0.930 . S
C17 C12 1.348 . S
C17 C16 1.408 . S
C17 H39 0.930 . S
C18 O28 1.281 . S
C18 O29 1.254 . S
C19 O30 1.236 . S
C19 O31 1.266 . S
O20 Tb0 2.484 . S
O20 C2 1.248 . S
O21 Tb0 2.440 . S
O21 C2 1.266 . S
O22 Tb0 2.658 . S
O22 Tb1 2.325 . S
O22 C9 1.281 . S
O23 Tb0 2.409 . S
O23 C9 1.254 . S
O24 Tb0 2.378 . S
O24 C10 1.236 . S
O25 Tb1 2.341 . S
O25 C10 1.266 . S
O26 Tb1 2.484 1_556 S
O26 C11 1.248 . S
O27 Tb1 2.440 1_556 S
O27 C11 1.266 . S
O28 Tb0 2.325 . S
O28 Tb1 2.658 . S
O28 C18 1.281 . S
O29 Tb1 2.409 . S
O29 C18 1.254 . S
O30 Tb1 2.378 . S
O30 C19 1.236 . S
O31 Tb0 2.341 . S
O31 C19 1.266 . S
H32 C4 0.929 . S
H33 C5 0.931 . S
H34 C7 0.930 . S
H35 C8 0.930 . S
H36 C13 0.929 . S
H37 C14 0.931 . S
H38 C16 0.930 . S
H39 C17 0.930 . S
Tb40 C42 2.809 1_556 S
Tb40 O60 2.484 1_556 S
Tb40 O61 2.440 1_556 S
Tb40 O62 2.658 . S
Tb40 O63 2.409 . S
Tb40 O64 2.378 . S
Tb40 O68 2.325 . S
Tb40 O71 2.341 . S
Tb41 C51 2.809 . S
Tb41 O62 2.325 . S
Tb41 O65 2.341 . S
Tb41 O66 2.484 . S
Tb41 O67 2.440 . S
Tb41 O68 2.658 . S
Tb41 O69 2.409 . S
Tb41 O70 2.378 . S
C42 Tb40 2.809 1_554 S
C42 C43 1.514 . S
C42 O60 1.248 . S
C42 O61 1.266 . S
C43 C42 1.514 . S
C43 C44 1.359 . S
C43 C48 1.348 . S
C44 C43 1.359 . S
C44 C45 1.380 . S
C44 H72 0.929 . S
C45 C44 1.380 . S
C45 C46 1.347 . S
C45 H73 0.931 . S
C46 C45 1.347 . S
C46 C47 1.369 . S
C47 C46 1.369 . S
C47 C48 1.408 . S
C47 H74 0.930 . S
C48 C43 1.348 . S
C48 C47 1.408 . S
C48 H75 0.930 . S
C49 O62 1.281 . S
C49 O63 1.254 . S
C50 O64 1.236 . S
C50 O65 1.266 . S
C51 Tb41 2.809 . S
C51 C52 1.514 . S
C51 O66 1.248 . S
C51 O67 1.266 . S
C52 C51 1.514 . S
C52 C53 1.359 . S
C52 C57 1.348 . S
C53 C52 1.359 . S
C53 C54 1.380 . S
C53 H76 0.929 . S
C54 C53 1.380 . S
C54 C55 1.347 . S
C54 H77 0.931 . S
C55 C54 1.347 . S
C55 C56 1.369 . S
C56 C55 1.369 . S
C56 C57 1.408 . S
C56 H78 0.930 . S
C57 C52 1.348 . S
C57 C56 1.408 . S
C57 H79 0.930 . S
C58 O68 1.281 . S
C58 O69 1.254 . S
C59 O70 1.236 . S
C59 O71 1.266 . S
O60 Tb40 2.484 1_554 S
O60 C42 1.248 . S
O61 Tb40 2.440 1_554 S
O61 C42 1.266 . S
O62 Tb40 2.658 . S
O62 Tb41 2.325 . S
O62 C49 1.281 . S
O63 Tb40 2.409 . S
O63 C49 1.254 . S
O64 Tb40 2.378 . S
O64 C50 1.236 . S
O65 Tb41 2.341 . S
O65 C50 1.266 . S
O66 Tb41 2.484 . S
O66 C51 1.248 . S
O67 Tb41 2.440 . S
O67 C51 1.266 . S
O68 Tb40 2.325 . S
O68 Tb41 2.658 . S
O68 C58 1.281 . S
O69 Tb41 2.409 . S
O69 C58 1.254 . S
O70 Tb41 2.378 . S
O70 C59 1.236 . S
O71 Tb40 2.341 . S
O71 C59 1.266 . S
H72 C44 0.929 . S
H73 C45 0.931 . S
H74 C47 0.930 . S
H75 C48 0.930 . S
H76 C53 0.929 . S
H77 C54 0.931 . S
H78 C56 0.930 . S
H79 C57 0.930 . S
Tb80 C82 2.809 . S
Tb80 O100 2.484 . S
Tb80 O101 2.440 . S
Tb80 O102 2.658 . S
Tb80 O103 2.409 . S
Tb80 O104 2.378 . S
Tb80 O108 2.325 . S
Tb80 O111 2.341 . S
Tb81 C91 2.809 1_554 S
Tb81 O102 2.325 . S
Tb81 O105 2.341 . S
Tb81 O106 2.484 1_554 S
Tb81 O107 2.440 1_554 S
Tb81 O108 2.658 . S
Tb81 O109 2.409 . S
Tb81 O110 2.378 . S
C82 Tb80 2.809 . S
C82 C83 1.514 . S
C82 O100 1.248 . S
C82 O101 1.266 . S
C83 C82 1.514 . S
C83 C84 1.359 . S
C83 C88 1.348 . S
C84 C83 1.359 . S
C84 C85 1.380 . S
C84 H112 0.929 . S
C85 C84 1.380 . S
C85 C86 1.347 . S
C85 H113 0.931 . S
C86 C85 1.347 . S
C86 C87 1.369 . S
C87 C86 1.369 . S
C87 C88 1.408 . S
C87 H114 0.930 . S
C88 C83 1.348 . S
C88 C87 1.408 . S
C88 H115 0.930 . S
C89 O102 1.281 . S
C89 O103 1.254 . S
C90 O104 1.236 . S
C90 O105 1.266 . S
C91 Tb81 2.809 1_556 S
C91 C92 1.514 . S
C91 O106 1.248 . S
C91 O107 1.266 . S
C92 C91 1.514 . S
C92 C93 1.359 . S
C92 C97 1.348 . S
C93 C92 1.359 . S
C93 C94 1.380 . S
C93 H116 0.929 . S
C94 C93 1.380 . S
C94 C95 1.347 . S
C94 H117 0.931 . S
C95 C94 1.347 . S
C95 C96 1.369 . S
C96 C95 1.369 . S
C96 C97 1.408 . S
C96 H118 0.930 . S
C97 C92 1.348 . S
C97 C96 1.408 . S
C97 H119 0.930 . S
C98 O108 1.281 . S
C98 O109 1.254 . S
C99 O110 1.236 . S
C99 O111 1.266 . S
O100 Tb80 2.484 . S
O100 C82 1.248 . S
O101 Tb80 2.440 . S
O101 C82 1.266 . S
O102 Tb80 2.658 . S
O102 Tb81 2.325 . S
O102 C89 1.281 . S
O103 Tb80 2.409 . S
O103 C89 1.254 . S
O104 Tb80 2.378 . S
O104 C90 1.236 . S
O105 Tb81 2.341 . S
O105 C90 1.266 . S
O106 Tb81 2.484 1_556 S
O106 C91 1.248 . S
O107 Tb81 2.440 1_556 S
O107 C91 1.266 . S
O108 Tb80 2.325 . S
O108 Tb81 2.658 . S
O108 C98 1.281 . S
O109 Tb81 2.409 . S
O109 C98 1.254 . S
O110 Tb81 2.378 . S
O110 C99 1.236 . S
O111 Tb80 2.341 . S
O111 C99 1.266 . S
H112 C84 0.929 . S
H113 C85 0.931 . S
H114 C87 0.930 . S
H115 C88 0.930 . S
H116 C93 0.929 . S
H117 C94 0.931 . S
H118 C96 0.930 . S
H119 C97 0.930 . S
Tb120 C122 2.809 1_556 S
Tb120 O140 2.484 1_556 S
Tb120 O141 2.440 1_556 S
Tb120 O142 2.658 . S
Tb120 O143 2.409 . S
Tb120 O144 2.378 . S
Tb120 O148 2.325 . S
Tb120 O151 2.341 . S
Tb121 C131 2.809 . S
Tb121 O142 2.325 . S
Tb121 O145 2.341 . S
Tb121 O146 2.484 . S
Tb121 O147 2.440 . S
Tb121 O148 2.658 . S
Tb121 O149 2.409 . S
Tb121 O150 2.378 . S
C122 Tb120 2.809 1_554 S
C122 C123 1.514 . S
C122 O140 1.248 . S
C122 O141 1.266 . S
C123 C122 1.514 . S
C123 C124 1.359 . S
C123 C128 1.348 . S
C124 C123 1.359 . S
C124 C125 1.380 . S
C124 H152 0.929 . S
C125 C124 1.380 . S
C125 C126 1.347 . S
C125 H153 0.931 . S
C126 C125 1.347 . S
C126 C127 1.369 . S
C127 C126 1.369 . S
C127 C128 1.408 . S
C127 H154 0.930 . S
C128 C123 1.348 . S
C128 C127 1.408 . S
C128 H155 0.930 . S
C129 O142 1.281 . S
C129 O143 1.254 . S
C130 O144 1.236 . S
C130 O145 1.266 . S
C131 Tb121 2.809 . S
C131 C132 1.514 . S
C131 O146 1.248 . S
C131 O147 1.266 . S
C132 C131 1.514 . S
C132 C133 1.359 . S
C132 C137 1.348 . S
C133 C132 1.359 . S
C133 C134 1.380 . S
C133 H156 0.929 . S
C134 C133 1.380 . S
C134 C135 1.347 . S
C134 H157 0.931 . S
C135 C134 1.347 . S
C135 C136 1.369 . S
C136 C135 1.369 . S
C136 C137 1.408 . S
C136 H158 0.930 . S
C137 C132 1.348 . S
C137 C136 1.408 . S
C137 H159 0.930 . S
C138 O148 1.281 . S
C138 O149 1.254 . S
C139 O150 1.236 . S
C139 O151 1.266 . S
O140 Tb120 2.484 1_554 S
O140 C122 1.248 . S
O141 Tb120 2.440 1_554 S
O141 C122 1.266 . S
O142 Tb120 2.658 . S
O142 Tb121 2.325 . S
O142 C129 1.281 . S
O143 Tb120 2.409 . S
O143 C129 1.254 . S
O144 Tb120 2.378 . S
O144 C130 1.236 . S
O145 Tb121 2.341 . S
O145 C130 1.266 . S
O146 Tb121 2.484 . S
O146 C131 1.248 . S
O147 Tb121 2.440 . S
O147 C131 1.266 . S
O148 Tb120 2.325 . S
O148 Tb121 2.658 . S
O148 C138 1.281 . S
O149 Tb121 2.409 . S
O149 C138 1.254 . S
O150 Tb121 2.378 . S
O150 C139 1.236 . S
O151 Tb120 2.341 . S
O151 C139 1.266 . S
H152 C124 0.929 . S
H153 C125 0.931 . S
H154 C127 0.930 . S
H155 C128 0.930 . S
H156 C133 0.929 . S
H157 C134 0.931 . S
H158 C136 0.930 . S
H159 C137 0.930 . S
Tb160 C162 2.809 1_554 S
Tb160 O180 2.484 1_554 S
Tb160 O181 2.440 1_554 S
Tb160 O182 2.658 . S
Tb160 O183 2.409 . S
Tb160 O184 2.378 . S
Tb160 O188 2.325 . S
Tb160 O191 2.341 . S
Tb161 C171 2.809 . S
Tb161 O182 2.325 . S
Tb161 O185 2.341 . S
Tb161 O186 2.484 . S
Tb161 O187 2.440 . S
Tb161 O188 2.658 . S
Tb161 O189 2.409 . S
Tb161 O190 2.378 . S
C162 Tb160 2.809 1_556 S
C162 C163 1.514 . S
C162 O180 1.248 . S
C162 O181 1.266 . S
C163 C162 1.514 . S
C163 C164 1.359 . S
C163 C168 1.348 . S
C164 C163 1.359 . S
C164 C165 1.380 . S
C164 H192 0.929 . S
C165 C164 1.380 . S
C165 C166 1.347 . S
C165 H193 0.931 . S
C166 C165 1.347 . S
C166 C167 1.369 . S
C167 C166 1.369 . S
C167 C168 1.408 . S
C167 H194 0.930 . S
C168 C163 1.348 . S
C168 C167 1.408 . S
C168 H195 0.930 . S
C169 O182 1.281 . S
C169 O183 1.254 . S
C170 O184 1.236 . S
C170 O185 1.266 . S
C171 Tb161 2.809 . S
C171 C172 1.514 . S
C171 O186 1.248 . S
C171 O187 1.266 . S
C172 C171 1.514 . S
C172 C173 1.359 . S
C172 C177 1.348 . S
C173 C172 1.359 . S
C173 C174 1.380 . S
C173 H196 0.929 . S
C174 C173 1.380 . S
C174 C175 1.347 . S
C174 H197 0.931 . S
C175 C174 1.347 . S
C175 C176 1.369 . S
C176 C175 1.369 . S
C176 C177 1.408 . S
C176 H198 0.930 . S
C177 C172 1.348 . S
C177 C176 1.408 . S
C177 H199 0.930 . S
C178 O188 1.281 . S
C178 O189 1.254 . S
C179 O190 1.236 . S
C179 O191 1.266 . S
O180 Tb160 2.484 1_556 S
O180 C162 1.248 . S
O181 Tb160 2.440 1_556 S
O181 C162 1.266 . S
O182 Tb160 2.658 . S
O182 Tb161 2.325 . S
O182 C169 1.281 . S
O183 Tb160 2.409 . S
O183 C169 1.254 . S
O184 Tb160 2.378 . S
O184 C170 1.236 . S
O185 Tb161 2.341 . S
O185 C170 1.266 . S
O186 Tb161 2.484 . S
O186 C171 1.248 . S
O187 Tb161 2.440 . S
O187 C171 1.266 . S
O188 Tb160 2.325 . S
O188 Tb161 2.658 . S
O188 C178 1.281 . S
O189 Tb161 2.409 . S
O189 C178 1.254 . S
O190 Tb161 2.378 . S
O190 C179 1.236 . S
O191 Tb160 2.341 . S
O191 C179 1.266 . S
H192 C164 0.929 . S
H193 C165 0.931 . S
H194 C167 0.930 . S
H195 C168 0.930 . S
H196 C173 0.929 . S
H197 C174 0.931 . S
H198 C176 0.930 . S
H199 C177 0.930 . S
Tb200 C202 2.809 . S
Tb200 O220 2.484 . S
Tb200 O221 2.440 . S
Tb200 O222 2.658 . S
Tb200 O223 2.409 . S
Tb200 O224 2.378 . S
Tb200 O228 2.325 . S
Tb200 O231 2.341 . S
Tb201 C211 2.809 1_556 S
Tb201 O222 2.325 . S
Tb201 O225 2.341 . S
Tb201 O226 2.484 1_556 S
Tb201 O227 2.440 1_556 S
Tb201 O228 2.658 . S
Tb201 O229 2.409 . S
Tb201 O230 2.378 . S
C202 Tb200 2.809 . S
C202 C203 1.514 . S
C202 O220 1.248 . S
C202 O221 1.266 . S
C203 C202 1.514 . S
C203 C204 1.359 . S
C203 C208 1.348 . S
C204 C203 1.359 . S
C204 C205 1.380 . S
C204 H232 0.929 . S
C205 C204 1.380 . S
C205 C206 1.347 . S
C205 H233 0.931 . S
C206 C205 1.347 . S
C206 C207 1.369 . S
C207 C206 1.369 . S
C207 C208 1.408 . S
C207 H234 0.930 . S
C208 C203 1.348 . S
C208 C207 1.408 . S
C208 H235 0.930 . S
C209 O222 1.281 . S
C209 O223 1.254 . S
C210 O224 1.236 . S
C210 O225 1.266 . S
C211 Tb201 2.809 1_554 S
C211 C212 1.514 . S
C211 O226 1.248 . S
C211 O227 1.266 . S
C212 C211 1.514 . S
C212 C213 1.359 . S
C212 C217 1.348 . S
C213 C212 1.359 . S
C213 C214 1.380 . S
C213 H236 0.929 . S
C214 C213 1.380 . S
C214 C215 1.347 . S
C214 H237 0.931 . S
C215 C214 1.347 . S
C215 C216 1.369 . S
C216 C215 1.369 . S
C216 C217 1.408 . S
C216 H238 0.930 . S
C217 C212 1.348 . S
C217 C216 1.408 . S
C217 H239 0.930 . S
C218 O228 1.281 . S
C218 O229 1.254 . S
C219 O230 1.236 . S
C219 O231 1.266 . S
O220 Tb200 2.484 . S
O220 C202 1.248 . S
O221 Tb200 2.440 . S
O221 C202 1.266 . S
O222 Tb200 2.658 . S
O222 Tb201 2.325 . S
O222 C209 1.281 . S
O223 Tb200 2.409 . S
O223 C209 1.254 . S
O224 Tb200 2.378 . S
O224 C210 1.236 . S
O225 Tb201 2.341 . S
O225 C210 1.266 . S
O226 Tb201 2.484 1_554 S
O226 C211 1.248 . S
O227 Tb201 2.440 1_554 S
O227 C211 1.266 . S
O228 Tb200 2.325 . S
O228 Tb201 2.658 . S
O228 C218 1.281 . S
O229 Tb201 2.409 . S
O229 C218 1.254 . S
O230 Tb201 2.378 . S
O230 C219 1.236 . S
O231 Tb200 2.341 . S
O231 C219 1.266 . S
H232 C204 0.929 . S
H233 C205 0.931 . S
H234 C207 0.930 . S
H235 C208 0.930 . S
H236 C213 0.929 . S
H237 C214 0.931 . S
H238 C216 0.930 . S
H239 C217 0.930 . S
Tb240 C242 2.809 1_554 S
Tb240 O260 2.484 1_554 S
Tb240 O261 2.440 1_554 S
Tb240 O262 2.658 . S
Tb240 O263 2.409 . S
Tb240 O264 2.378 . S
Tb240 O268 2.325 . S
Tb240 O271 2.341 . S
Tb241 C251 2.809 . S
Tb241 O262 2.325 . S
Tb241 O265 2.341 . S
Tb241 O266 2.484 . S
Tb241 O267 2.440 . S
Tb241 O268 2.658 . S
Tb241 O269 2.409 . S
Tb241 O270 2.378 . S
C242 Tb240 2.809 1_556 S
C242 C243 1.514 . S
C242 O260 1.248 . S
C242 O261 1.266 . S
C243 C242 1.514 . S
C243 C244 1.359 . S
C243 C248 1.348 . S
C244 C243 1.359 . S
C244 C245 1.380 . S
C244 H272 0.929 . S
C245 C244 1.380 . S
C245 C246 1.347 . S
C245 H273 0.931 . S
C246 C245 1.347 . S
C246 C247 1.369 . S
C247 C246 1.369 . S
C247 C248 1.408 . S
C247 H274 0.930 . S
C248 C243 1.348 . S
C248 C247 1.408 . S
C248 H275 0.930 . S
C249 O262 1.281 . S
C249 O263 1.254 . S
C250 O264 1.236 . S
C250 O265 1.266 . S
C251 Tb241 2.809 . S
C251 C252 1.514 . S
C251 O266 1.248 . S
C251 O267 1.266 . S
C252 C251 1.514 . S
C252 C253 1.359 . S
C252 C257 1.348 . S
C253 C252 1.359 . S
C253 C254 1.380 . S
C253 H276 0.929 . S
C254 C253 1.380 . S
C254 C255 1.347 . S
C254 H277 0.931 . S
C255 C254 1.347 . S
C255 C256 1.369 . S
C256 C255 1.369 . S
C256 C257 1.408 . S
C256 H278 0.930 . S
C257 C252 1.348 . S
C257 C256 1.408 . S
C257 H279 0.930 . S
C258 O268 1.281 . S
C258 O269 1.254 . S
C259 O270 1.236 . S
C259 O271 1.266 . S
O260 Tb240 2.484 1_556 S
O260 C242 1.248 . S
O261 Tb240 2.440 1_556 S
O261 C242 1.266 . S
O262 Tb240 2.658 . S
O262 Tb241 2.325 . S
O262 C249 1.281 . S
O263 Tb240 2.409 . S
O263 C249 1.254 . S
O264 Tb240 2.378 . S
O264 C250 1.236 . S
O265 Tb241 2.341 . S
O265 C250 1.266 . S
O266 Tb241 2.484 . S
O266 C251 1.248 . S
O267 Tb241 2.440 . S
O267 C251 1.266 . S
O268 Tb240 2.325 . S
O268 Tb241 2.658 . S
O268 C258 1.281 . S
O269 Tb241 2.409 . S
O269 C258 1.254 . S
O270 Tb241 2.378 . S
O270 C259 1.236 . S
O271 Tb240 2.341 . S
O271 C259 1.266 . S
H272 C244 0.929 . S
H273 C245 0.931 . S
H274 C247 0.930 . S
H275 C248 0.930 . S
H276 C253 0.929 . S
H277 C254 0.931 . S
H278 C256 0.930 . S
H279 C257 0.930 . S
Tb280 C282 2.809 . S
Tb280 O300 2.484 . S
Tb280 O301 2.440 . S
Tb280 O302 2.658 . S
Tb280 O303 2.409 . S
Tb280 O304 2.378 . S
Tb280 O308 2.325 . S
Tb280 O311 2.341 . S
Tb281 C291 2.809 1_556 S
Tb281 O302 2.325 . S
Tb281 O305 2.341 . S
Tb281 O306 2.484 1_556 S
Tb281 O307 2.440 1_556 S
Tb281 O308 2.658 . S
Tb281 O309 2.409 . S
Tb281 O310 2.378 . S
C282 Tb280 2.809 . S
C282 C283 1.514 . S
C282 O300 1.248 . S
C282 O301 1.266 . S
C283 C282 1.514 . S
C283 C284 1.359 . S
C283 C288 1.348 . S
C284 C283 1.359 . S
C284 C285 1.380 . S
C284 H312 0.929 . S
C285 C284 1.380 . S
C285 C286 1.347 . S
C285 H313 0.931 . S
C286 C285 1.347 . S
C286 C287 1.369 . S
C287 C286 1.369 . S
C287 C288 1.408 . S
C287 H314 0.930 . S
C288 C283 1.348 . S
C288 C287 1.408 . S
C288 H315 0.930 . S
C289 O302 1.281 . S
C289 O303 1.254 . S
C290 O304 1.236 . S
C290 O305 1.266 . S
C291 Tb281 2.809 1_554 S
C291 C292 1.514 . S
C291 O306 1.248 . S
C291 O307 1.266 . S
C292 C291 1.514 . S
C292 C293 1.359 . S
C292 C297 1.348 . S
C293 C292 1.359 . S
C293 C294 1.380 . S
C293 H316 0.929 . S
C294 C293 1.380 . S
C294 C295 1.347 . S
C294 H317 0.931 . S
C295 C294 1.347 . S
C295 C296 1.369 . S
C296 C295 1.369 . S
C296 C297 1.408 . S
C296 H318 0.930 . S
C297 C292 1.348 . S
C297 C296 1.408 . S
C297 H319 0.930 . S
C298 O308 1.281 . S
C298 O309 1.254 . S
C299 O310 1.236 . S
C299 O311 1.266 . S
O300 Tb280 2.484 . S
O300 C282 1.248 . S
O301 Tb280 2.440 . S
O301 C282 1.266 . S
O302 Tb280 2.658 . S
O302 Tb281 2.325 . S
O302 C289 1.281 . S
O303 Tb280 2.409 . S
O303 C289 1.254 . S
O304 Tb280 2.378 . S
O304 C290 1.236 . S
O305 Tb281 2.341 . S
O305 C290 1.266 . S
O306 Tb281 2.484 1_554 S
O306 C291 1.248 . S
O307 Tb281 2.440 1_554 S
O307 C291 1.266 . S
O308 Tb280 2.325 . S
O308 Tb281 2.658 . S
O308 C298 1.281 . S
O309 Tb281 2.409 . S
O309 C298 1.254 . S
O310 Tb281 2.378 . S
O310 C299 1.236 . S
O311 Tb280 2.341 . S
O311 C299 1.266 . S
H312 C284 0.929 . S
H313 C285 0.931 . S
H314 C287 0.930 . S
H315 C288 0.930 . S
H316 C293 0.929 . S
H317 C294 0.931 . S
H318 C296 0.930 . S
H319 C297 0.930 . S
Tb320 C322 2.809 . S
Tb320 O340 2.484 . S
Tb320 O341 2.440 . S
Tb320 O342 2.658 . S
Tb320 O343 2.409 . S
Tb320 O344 2.378 . S
Tb320 O348 2.325 . S
Tb320 O351 2.341 . S
Tb321 C331 2.809 . S
Tb321 O342 2.325 . S
Tb321 O345 2.341 . S
Tb321 O346 2.484 . S
Tb321 O347 2.440 . S
Tb321 O348 2.658 . S
Tb321 O349 2.409 . S
Tb321 O350 2.378 . S
C322 Tb320 2.809 . S
C322 C323 1.514 . S
C322 O340 1.248 . S
C322 O341 1.266 . S
C323 C322 1.514 . S
C323 C324 1.359 . S
C323 C328 1.348 . S
C324 C323 1.359 . S
C324 C325 1.380 . S
C324 H352 0.929 . S
C325 C324 1.380 . S
C325 C326 1.347 . S
C325 H353 0.931 . S
C326 C325 1.347 . S
C326 C327 1.369 . S
C327 C326 1.369 . S
C327 C328 1.408 . S
C327 H354 0.930 . S
C328 C323 1.348 . S
C328 C327 1.408 . S
C328 H355 0.930 . S
C329 O342 1.281 . S
C329 O343 1.254 . S
C330 O344 1.236 . S
C330 O345 1.266 . S
C331 Tb321 2.809 . S
C331 C332 1.514 . S
C331 O346 1.248 . S
C331 O347 1.266 . S
C332 C331 1.514 . S
C332 C333 1.359 . S
C332 C337 1.348 . S
C333 C332 1.359 . S
C333 C334 1.380 . S
C333 H356 0.929 . S
C334 C333 1.380 . S
C334 C335 1.347 . S
C334 H357 0.931 . S
C335 C334 1.347 . S
C335 C336 1.369 . S
C336 C335 1.369 . S
C336 C337 1.408 . S
C336 H358 0.930 . S
C337 C332 1.348 . S
C337 C336 1.408 . S
C337 H359 0.930 . S
C338 O348 1.281 . S
C338 O349 1.254 . S
C339 O350 1.236 . S
C339 O351 1.266 . S
O340 Tb320 2.484 . S
O340 C322 1.248 . S
O341 Tb320 2.440 . S
O341 C322 1.266 . S
O342 Tb320 2.658 . S
O342 Tb321 2.325 . S
O342 C329 1.281 . S
O343 Tb320 2.409 . S
O343 C329 1.254 . S
O344 Tb320 2.378 . S
O344 C330 1.236 . S
O345 Tb321 2.341 . S
O345 C330 1.266 . S
O346 Tb321 2.484 . S
O346 C331 1.248 . S
O347 Tb321 2.440 . S
O347 C331 1.266 . S
O348 Tb320 2.325 . S
O348 Tb321 2.658 . S
O348 C338 1.281 . S
O349 Tb321 2.409 . S
O349 C338 1.254 . S
O350 Tb321 2.378 . S
O350 C339 1.236 . S
O351 Tb320 2.341 . S
O351 C339 1.266 . S
H352 C324 0.929 . S
H353 C325 0.931 . S
H354 C327 0.930 . S
H355 C328 0.930 . S
H356 C333 0.929 . S
H357 C334 0.931 . S
H358 C336 0.930 . S
H359 C337 0.930 . S
Tb360 C362 2.809 . S
Tb360 O380 2.484 . S
Tb360 O381 2.440 . S
Tb360 O382 2.658 . S
Tb360 O383 2.409 . S
Tb360 O384 2.378 . S
Tb360 O388 2.325 . S
Tb360 O391 2.341 . S
Tb361 C371 2.809 . S
Tb361 O382 2.325 . S
Tb361 O385 2.341 . S
Tb361 O386 2.484 . S
Tb361 O387 2.440 . S
Tb361 O388 2.658 . S
Tb361 O389 2.409 . S
Tb361 O390 2.378 . S
C362 Tb360 2.809 . S
C362 C363 1.514 . S
C362 O380 1.248 . S
C362 O381 1.266 . S
C363 C362 1.514 . S
C363 C364 1.359 . S
C363 C368 1.348 . S
C364 C363 1.359 . S
C364 C365 1.380 . S
C364 H392 0.929 . S
C365 C364 1.380 . S
C365 C366 1.347 . S
C365 H393 0.931 . S
C366 C365 1.347 . S
C366 C367 1.369 . S
C367 C366 1.369 . S
C367 C368 1.408 . S
C367 H394 0.930 . S
C368 C363 1.348 . S
C368 C367 1.408 . S
C368 H395 0.930 . S
C369 O382 1.281 . S
C369 O383 1.254 . S
C370 O384 1.236 . S
C370 O385 1.266 . S
C371 Tb361 2.809 . S
C371 C372 1.514 . S
C371 O386 1.248 . S
C371 O387 1.266 . S
C372 C371 1.514 . S
C372 C373 1.359 . S
C372 C377 1.348 . S
C373 C372 1.359 . S
C373 C374 1.380 . S
C373 H396 0.929 . S
C374 C373 1.380 . S
C374 C375 1.347 . S
C374 H397 0.931 . S
C375 C374 1.347 . S
C375 C376 1.369 . S
C376 C375 1.369 . S
C376 C377 1.408 . S
C376 H398 0.930 . S
C377 C372 1.348 . S
C377 C376 1.408 . S
C377 H399 0.930 . S
C378 O388 1.281 . S
C378 O389 1.254 . S
C379 O390 1.236 . S
C379 O391 1.266 . S
O380 Tb360 2.484 . S
O380 C362 1.248 . S
O381 Tb360 2.440 . S
O381 C362 1.266 . S
O382 Tb360 2.658 . S
O382 Tb361 2.325 . S
O382 C369 1.281 . S
O383 Tb360 2.409 . S
O383 C369 1.254 . S
O384 Tb360 2.378 . S
O384 C370 1.236 . S
O385 Tb361 2.341 . S
O385 C370 1.266 . S
O386 Tb361 2.484 . S
O386 C371 1.248 . S
O387 Tb361 2.440 . S
O387 C371 1.266 . S
O388 Tb360 2.325 . S
O388 Tb361 2.658 . S
O388 C378 1.281 . S
O389 Tb361 2.409 . S
O389 C378 1.254 . S
O390 Tb361 2.378 . S
O390 C379 1.236 . S
O391 Tb360 2.341 . S
O391 C379 1.266 . S
H392 C364 0.929 . S
H393 C365 0.931 . S
H394 C367 0.930 . S
H395 C368 0.930 . S
H396 C373 0.929 . S
H397 C374 0.931 . S
H398 C376 0.930 . S
H399 C377 0.930 . S
Tb400 C402 2.809 . S
Tb400 O420 2.484 . S
Tb400 O421 2.440 . S
Tb400 O422 2.658 . S
Tb400 O423 2.409 . S
Tb400 O424 2.378 . S
Tb400 O428 2.325 . S
Tb400 O431 2.341 . S
Tb401 C411 2.809 . S
Tb401 O422 2.325 . S
Tb401 O425 2.341 . S
Tb401 O426 2.484 . S
Tb401 O427 2.440 . S
Tb401 O428 2.658 . S
Tb401 O429 2.409 . S
Tb401 O430 2.378 . S
C402 Tb400 2.809 . S
C402 C403 1.514 . S
C402 O420 1.248 . S
C402 O421 1.266 . S
C403 C402 1.514 . S
C403 C404 1.359 . S
C403 C408 1.348 . S
C404 C403 1.359 . S
C404 C405 1.380 . S
C404 H432 0.929 . S
C405 C404 1.380 . S
C405 C406 1.347 . S
C405 H433 0.931 . S
C406 C405 1.347 . S
C406 C407 1.369 . S
C407 C406 1.369 . S
C407 C408 1.408 . S
C407 H434 0.930 . S
C408 C403 1.348 . S
C408 C407 1.408 . S
C408 H435 0.930 . S
C409 O422 1.281 . S
C409 O423 1.254 . S
C410 O424 1.236 . S
C410 O425 1.266 . S
C411 Tb401 2.809 . S
C411 C412 1.514 . S
C411 O426 1.248 . S
C411 O427 1.266 . S
C412 C411 1.514 . S
C412 C413 1.359 . S
C412 C417 1.348 . S
C413 C412 1.359 . S
C413 C414 1.380 . S
C413 H436 0.929 . S
C414 C413 1.380 . S
C414 C415 1.347 . S
C414 H437 0.931 . S
C415 C414 1.347 . S
C415 C416 1.369 . S
C416 C415 1.369 . S
C416 C417 1.408 . S
C416 H438 0.930 . S
C417 C412 1.348 . S
C417 C416 1.408 . S
C417 H439 0.930 . S
C418 O428 1.281 . S
C418 O429 1.254 . S
C419 O430 1.236 . S
C419 O431 1.266 . S
O420 Tb400 2.484 . S
O420 C402 1.248 . S
O421 Tb400 2.440 . S
O421 C402 1.266 . S
O422 Tb400 2.658 . S
O422 Tb401 2.325 . S
O422 C409 1.281 . S
O423 Tb400 2.409 . S
O423 C409 1.254 . S
O424 Tb400 2.378 . S
O424 C410 1.236 . S
O425 Tb401 2.341 . S
O425 C410 1.266 . S
O426 Tb401 2.484 . S
O426 C411 1.248 . S
O427 Tb401 2.440 . S
O427 C411 1.266 . S
O428 Tb400 2.325 . S
O428 Tb401 2.658 . S
O428 C418 1.281 . S
O429 Tb401 2.409 . S
O429 C418 1.254 . S
O430 Tb401 2.378 . S
O430 C419 1.236 . S
O431 Tb400 2.341 . S
O431 C419 1.266 . S
H432 C404 0.929 . S
H433 C405 0.931 . S
H434 C407 0.930 . S
H435 C408 0.930 . S
H436 C413 0.929 . S
H437 C414 0.931 . S
H438 C416 0.930 . S
H439 C417 0.930 . S
Tb440 C442 2.809 . S
Tb440 O460 2.484 . S
Tb440 O461 2.440 . S
Tb440 O462 2.658 . S
Tb440 O463 2.409 . S
Tb440 O464 2.378 . S
Tb440 O468 2.325 . S
Tb440 O471 2.341 . S
Tb441 C451 2.809 . S
Tb441 O462 2.325 . S
Tb441 O465 2.341 . S
Tb441 O466 2.484 . S
Tb441 O467 2.440 . S
Tb441 O468 2.658 . S
Tb441 O469 2.409 . S
Tb441 O470 2.378 . S
C442 Tb440 2.809 . S
C442 C443 1.514 . S
C442 O460 1.248 . S
C442 O461 1.266 . S
C443 C442 1.514 . S
C443 C444 1.359 . S
C443 C448 1.348 . S
C444 C443 1.359 . S
C444 C445 1.380 . S
C444 H472 0.929 . S
C445 C444 1.380 . S
C445 C446 1.347 . S
C445 H473 0.931 . S
C446 C445 1.347 . S
C446 C447 1.369 . S
C447 C446 1.369 . S
C447 C448 1.408 . S
C447 H474 0.930 . S
C448 C443 1.348 . S
C448 C447 1.408 . S
C448 H475 0.930 . S
C449 O462 1.281 . S
C449 O463 1.254 . S
C450 O464 1.236 . S
C450 O465 1.266 . S
C451 Tb441 2.809 . S
C451 C452 1.514 . S
C451 O466 1.248 . S
C451 O467 1.266 . S
C452 C451 1.514 . S
C452 C453 1.359 . S
C452 C457 1.348 . S
C453 C452 1.359 . S
C453 C454 1.380 . S
C453 H476 0.929 . S
C454 C453 1.380 . S
C454 C455 1.347 . S
C454 H477 0.931 . S
C455 C454 1.347 . S
C455 C456 1.369 . S
C456 C455 1.369 . S
C456 C457 1.408 . S
C456 H478 0.930 . S
C457 C452 1.348 . S
C457 C456 1.408 . S
C457 H479 0.930 . S
C458 O468 1.281 . S
C458 O469 1.254 . S
C459 O470 1.236 . S
C459 O471 1.266 . S
O460 Tb440 2.484 . S
O460 C442 1.248 . S
O461 Tb440 2.440 . S
O461 C442 1.266 . S
O462 Tb440 2.658 . S
O462 Tb441 2.325 . S
O462 C449 1.281 . S
O463 Tb440 2.409 . S
O463 C449 1.254 . S
O464 Tb440 2.378 . S
O464 C450 1.236 . S
O465 Tb441 2.341 . S
O465 C450 1.266 . S
O466 Tb441 2.484 . S
O466 C451 1.248 . S
O467 Tb441 2.440 . S
O467 C451 1.266 . S
O468 Tb440 2.325 . S
O468 Tb441 2.658 . S
O468 C458 1.281 . S
O469 Tb441 2.409 . S
O469 C458 1.254 . S
O470 Tb441 2.378 . S
O470 C459 1.236 . S
O471 Tb440 2.341 . S
O471 C459 1.266 . S
H472 C444 0.929 . S
H473 C445 0.931 . S
H474 C447 0.930 . S
H475 C448 0.930 . S
H476 C453 0.929 . S
H477 C454 0.931 . S
H478 C456 0.930 . S
H479 C457 0.930 . S
Tb480 C482 2.809 . S
Tb480 O500 2.484 . S
Tb480 O501 2.440 . S
Tb480 O502 2.658 . S
Tb480 O503 2.409 . S
Tb480 O504 2.378 . S
Tb480 O508 2.325 . S
Tb480 O511 2.341 . S
Tb481 C491 2.809 . S
Tb481 O502 2.325 . S
Tb481 O505 2.341 . S
Tb481 O506 2.484 . S
Tb481 O507 2.440 . S
Tb481 O508 2.658 . S
Tb481 O509 2.409 . S
Tb481 O510 2.378 . S
C482 Tb480 2.809 . S
C482 C483 1.514 . S
C482 O500 1.248 . S
C482 O501 1.266 . S
C483 C482 1.514 . S
C483 C484 1.359 . S
C483 C488 1.348 . S
C484 C483 1.359 . S
C484 C485 1.380 . S
C484 H512 0.929 . S
C485 C484 1.380 . S
C485 C486 1.347 . S
C485 H513 0.931 . S
C486 C485 1.347 . S
C486 C487 1.369 . S
C487 C486 1.369 . S
C487 C488 1.408 . S
C487 H514 0.930 . S
C488 C483 1.348 . S
C488 C487 1.408 . S
C488 H515 0.930 . S
C489 O502 1.281 . S
C489 O503 1.254 . S
C490 O504 1.236 . S
C490 O505 1.266 . S
C491 Tb481 2.809 . S
C491 C492 1.514 . S
C491 O506 1.248 . S
C491 O507 1.266 . S
C492 C491 1.514 . S
C492 C493 1.359 . S
C492 C497 1.348 . S
C493 C492 1.359 . S
C493 C494 1.380 . S
C493 H516 0.929 . S
C494 C493 1.380 . S
C494 C495 1.347 . S
C494 H517 0.931 . S
C495 C494 1.347 . S
C495 C496 1.369 . S
C496 C495 1.369 . S
C496 C497 1.408 . S
C496 H518 0.930 . S
C497 C492 1.348 . S
C497 C496 1.408 . S
C497 H519 0.930 . S
C498 O508 1.281 . S
C498 O509 1.254 . S
C499 O510 1.236 . S
C499 O511 1.266 . S
O500 Tb480 2.484 . S
O500 C482 1.248 . S
O501 Tb480 2.440 . S
O501 C482 1.266 . S
O502 Tb480 2.658 . S
O502 Tb481 2.325 . S
O502 C489 1.281 . S
O503 Tb480 2.409 . S
O503 C489 1.254 . S
O504 Tb480 2.378 . S
O504 C490 1.236 . S
O505 Tb481 2.341 . S
O505 C490 1.266 . S
O506 Tb481 2.484 . S
O506 C491 1.248 . S
O507 Tb481 2.440 . S
O507 C491 1.266 . S
O508 Tb480 2.325 . S
O508 Tb481 2.658 . S
O508 C498 1.281 . S
O509 Tb481 2.409 . S
O509 C498 1.254 . S
O510 Tb481 2.378 . S
O510 C499 1.236 . S
O511 Tb480 2.341 . S
O511 C499 1.266 . S
H512 C484 0.929 . S
H513 C485 0.931 . S
H514 C487 0.930 . S
H515 C488 0.930 . S
H516 C493 0.929 . S
H517 C494 0.931 . S
H518 C496 0.930 . S
H519 C497 0.930 . S
Tb520 C522 2.809 . S
Tb520 O540 2.484 . S
Tb520 O541 2.440 . S
Tb520 O542 2.658 . S
Tb520 O543 2.409 . S
Tb520 O544 2.378 . S
Tb520 O548 2.325 . S
Tb520 O551 2.341 . S
Tb521 C531 2.809 . S
Tb521 O542 2.325 . S
Tb521 O545 2.341 . S
Tb521 O546 2.484 . S
Tb521 O547 2.440 . S
Tb521 O548 2.658 . S
Tb521 O549 2.409 . S
Tb521 O550 2.378 . S
C522 Tb520 2.809 . S
C522 C523 1.514 . S
C522 O540 1.248 . S
C522 O541 1.266 . S
C523 C522 1.514 . S
C523 C524 1.359 . S
C523 C528 1.348 . S
C524 C523 1.359 . S
C524 C525 1.380 . S
C524 H552 0.929 . S
C525 C524 1.380 . S
C525 C526 1.347 . S
C525 H553 0.931 . S
C526 C525 1.347 . S
C526 C527 1.369 . S
C527 C526 1.369 . S
C527 C528 1.408 . S
C527 H554 0.930 . S
C528 C523 1.348 . S
C528 C527 1.408 . S
C528 H555 0.930 . S
C529 O542 1.281 . S
C529 O543 1.254 . S
C530 O544 1.236 . S
C530 O545 1.266 . S
C531 Tb521 2.809 . S
C531 C532 1.514 . S
C531 O546 1.248 . S
C531 O547 1.266 . S
C532 C531 1.514 . S
C532 C533 1.359 . S
C532 C537 1.348 . S
C533 C532 1.359 . S
C533 C534 1.380 . S
C533 H556 0.929 . S
C534 C533 1.380 . S
C534 C535 1.347 . S
C534 H557 0.931 . S
C535 C534 1.347 . S
C535 C536 1.369 . S
C536 C535 1.369 . S
C536 C537 1.408 . S
C536 H558 0.930 . S
C537 C532 1.348 . S
C537 C536 1.408 . S
C537 H559 0.930 . S
C538 O548 1.281 . S
C538 O549 1.254 . S
C539 O550 1.236 . S
C539 O551 1.266 . S
O540 Tb520 2.484 . S
O540 C522 1.248 . S
O541 Tb520 2.440 . S
O541 C522 1.266 . S
O542 Tb520 2.658 . S
O542 Tb521 2.325 . S
O542 C529 1.281 . S
O543 Tb520 2.409 . S
O543 C529 1.254 . S
O544 Tb520 2.378 . S
O544 C530 1.236 . S
O545 Tb521 2.341 . S
O545 C530 1.266 . S
O546 Tb521 2.484 . S
O546 C531 1.248 . S
O547 Tb521 2.440 . S
O547 C531 1.266 . S
O548 Tb520 2.325 . S
O548 Tb521 2.658 . S
O548 C538 1.281 . S
O549 Tb521 2.409 . S
O549 C538 1.254 . S
O550 Tb521 2.378 . S
O550 C539 1.236 . S
O551 Tb520 2.341 . S
O551 C539 1.266 . S
H552 C524 0.929 . S
H553 C525 0.931 . S
H554 C527 0.930 . S
H555 C528 0.930 . S
H556 C533 0.929 . S
H557 C534 0.931 . S
H558 C536 0.930 . S
H559 C537 0.930 . S
Tb560 C562 2.809 . S
Tb560 O580 2.484 . S
Tb560 O581 2.440 . S
Tb560 O582 2.658 . S
Tb560 O583 2.409 . S
Tb560 O584 2.378 . S
Tb560 O588 2.325 . S
Tb560 O591 2.341 . S
Tb561 C571 2.809 . S
Tb561 O582 2.325 . S
Tb561 O585 2.341 . S
Tb561 O586 2.484 . S
Tb561 O587 2.440 . S
Tb561 O588 2.658 . S
Tb561 O589 2.409 . S
Tb561 O590 2.378 . S
C562 Tb560 2.809 . S
C562 C563 1.514 . S
C562 O580 1.248 . S
C562 O581 1.266 . S
C563 C562 1.514 . S
C563 C564 1.359 . S
C563 C568 1.348 . S
C564 C563 1.359 . S
C564 C565 1.380 . S
C564 H592 0.929 . S
C565 C564 1.380 . S
C565 C566 1.347 . S
C565 H593 0.931 . S
C566 C565 1.347 . S
C566 C567 1.369 . S
C567 C566 1.369 . S
C567 C568 1.408 . S
C567 H594 0.930 . S
C568 C563 1.348 . S
C568 C567 1.408 . S
C568 H595 0.930 . S
C569 O582 1.281 . S
C569 O583 1.254 . S
C570 O584 1.236 . S
C570 O585 1.266 . S
C571 Tb561 2.809 . S
C571 C572 1.514 . S
C571 O586 1.248 . S
C571 O587 1.266 . S
C572 C571 1.514 . S
C572 C573 1.359 . S
C572 C577 1.348 . S
C573 C572 1.359 . S
C573 C574 1.380 . S
C573 H596 0.929 . S
C574 C573 1.380 . S
C574 C575 1.347 . S
C574 H597 0.931 . S
C575 C574 1.347 . S
C575 C576 1.369 . S
C576 C575 1.369 . S
C576 C577 1.408 . S
C576 H598 0.930 . S
C577 C572 1.348 . S
C577 C576 1.408 . S
C577 H599 0.930 . S
C578 O588 1.281 . S
C578 O589 1.254 . S
C579 O590 1.236 . S
C579 O591 1.266 . S
O580 Tb560 2.484 . S
O580 C562 1.248 . S
O581 Tb560 2.440 . S
O581 C562 1.266 . S
O582 Tb560 2.658 . S
O582 Tb561 2.325 . S
O582 C569 1.281 . S
O583 Tb560 2.409 . S
O583 C569 1.254 . S
O584 Tb560 2.378 . S
O584 C570 1.236 . S
O585 Tb561 2.341 . S
O585 C570 1.266 . S
O586 Tb561 2.484 . S
O586 C571 1.248 . S
O587 Tb561 2.440 . S
O587 C571 1.266 . S
O588 Tb560 2.325 . S
O588 Tb561 2.658 . S
O588 C578 1.281 . S
O589 Tb561 2.409 . S
O589 C578 1.254 . S
O590 Tb561 2.378 . S
O590 C579 1.236 . S
O591 Tb560 2.341 . S
O591 C579 1.266 . S
H592 C564 0.929 . S
H593 C565 0.931 . S
H594 C567 0.930 . S
H595 C568 0.930 . S
H596 C573 0.929 . S
H597 C574 0.931 . S
H598 C576 0.930 . S
H599 C577 0.930 . S
Tb600 C602 2.809 . S
Tb600 O620 2.484 . S
Tb600 O621 2.440 . S
Tb600 O622 2.658 . S
Tb600 O623 2.409 . S
Tb600 O624 2.378 . S
Tb600 O628 2.325 . S
Tb600 O631 2.341 . S
Tb601 C611 2.809 . S
Tb601 O622 2.325 . S
Tb601 O625 2.341 . S
Tb601 O626 2.484 . S
Tb601 O627 2.440 . S
Tb601 O628 2.658 . S
Tb601 O629 2.409 . S
Tb601 O630 2.378 . S
C602 Tb600 2.809 . S
C602 C603 1.514 . S
C602 O620 1.248 . S
C602 O621 1.266 . S
C603 C602 1.514 . S
C603 C604 1.359 . S
C603 C608 1.348 . S
C604 C603 1.359 . S
C604 C605 1.380 . S
C604 H632 0.929 . S
C605 C604 1.380 . S
C605 C606 1.347 . S
C605 H633 0.931 . S
C606 C605 1.347 . S
C606 C607 1.369 . S
C607 C606 1.369 . S
C607 C608 1.408 . S
C607 H634 0.930 . S
C608 C603 1.348 . S
C608 C607 1.408 . S
C608 H635 0.930 . S
C609 O622 1.281 . S
C609 O623 1.254 . S
C610 O624 1.236 . S
C610 O625 1.266 . S
C611 Tb601 2.809 . S
C611 C612 1.514 . S
C611 O626 1.248 . S
C611 O627 1.266 . S
C612 C611 1.514 . S
C612 C613 1.359 . S
C612 C617 1.348 . S
C613 C612 1.359 . S
C613 C614 1.380 . S
C613 H636 0.929 . S
C614 C613 1.380 . S
C614 C615 1.347 . S
C614 H637 0.931 . S
C615 C614 1.347 . S
C615 C616 1.369 . S
C616 C615 1.369 . S
C616 C617 1.408 . S
C616 H638 0.930 . S
C617 C612 1.348 . S
C617 C616 1.408 . S
C617 H639 0.930 . S
C618 O628 1.281 . S
C618 O629 1.254 . S
C619 O630 1.236 . S
C619 O631 1.266 . S
O620 Tb600 2.484 . S
O620 C602 1.248 . S
O621 Tb600 2.440 . S
O621 C602 1.266 . S
O622 Tb600 2.658 . S
O622 Tb601 2.325 . S
O622 C609 1.281 . S
O623 Tb600 2.409 . S
O623 C609 1.254 . S
O624 Tb600 2.378 . S
O624 C610 1.236 . S
O625 Tb601 2.341 . S
O625 C610 1.266 . S
O626 Tb601 2.484 . S
O626 C611 1.248 . S
O627 Tb601 2.440 . S
O627 C611 1.266 . S
O628 Tb600 2.325 . S
O628 Tb601 2.658 . S
O628 C618 1.281 . S
O629 Tb601 2.409 . S
O629 C618 1.254 . S
O630 Tb601 2.378 . S
O630 C619 1.236 . S
O631 Tb600 2.341 . S
O631 C619 1.266 . S
H632 C604 0.929 . S
H633 C605 0.931 . S
H634 C607 0.930 . S
H635 C608 0.930 . S
H636 C613 0.929 . S
H637 C614 0.931 . S
H638 C616 0.930 . S
H639 C617 0.930 . S
H640 C646 0.930 . S
H641 C649 0.930 . S
H642 C650 0.930 . S
H643 C651 0.930 . S
H644 C654 0.930 . S
H645 C655 0.930 . S
C646 H640 0.930 . S
C646 C647 1.355 . S
C646 C648 1.415 . S
C647 C646 1.355 . S
C647 C649 1.419 . S
C648 C646 1.415 . S
C648 C653 1.425 . S
C648 C655 1.409 . S
C649 H641 0.930 . S
C649 C647 1.419 . S
C649 C650 1.362 . S
C650 H642 0.930 . S
C650 C649 1.362 . S
C650 C653 1.409 . S
C651 H643 0.930 . S
C651 C652 1.355 . S
C651 C653 1.415 1_545 S
C652 C651 1.355 . S
C652 C654 1.419 1_545 S
C653 C648 1.425 . S
C653 C650 1.409 . S
C653 C651 1.415 1_565 S
C654 H644 0.930 . S
C654 C652 1.419 1_565 S
C654 C655 1.362 . S
C655 H645 0.930 . S
C655 C648 1.409 . S
C655 C654 1.362 . S
H656 C662 0.930 . S
H657 C665 0.930 . S
H658 C666 0.930 . S
H659 C667 0.930 . S
H660 C670 0.928 1_455 S
H661 C671 0.930 . S
C662 H656 0.930 . S
C662 C663 1.355 . S
C662 C664 1.415 . S
C663 C662 1.355 . S
C663 C665 1.419 . S
C664 C662 1.415 . S
C664 C669 1.425 . S
C664 C671 1.409 . S
C665 H657 0.930 . S
C665 C663 1.419 . S
C665 C666 1.362 . S
C666 H658 0.930 . S
C666 C665 1.362 . S
C666 C669 1.409 . S
C667 H659 0.930 . S
C667 C668 1.355 . S
C667 C669 1.415 1_455 S
C668 C667 1.355 . S
C668 C670 1.416 1_455 S
C669 C664 1.425 . S
C669 C666 1.409 . S
C669 C667 1.415 1_655 S
C670 H660 0.928 1_655 S
C670 C668 1.416 1_655 S
C670 C671 1.367 . S
C671 H661 0.930 . S
C671 C664 1.409 . S
C671 C670 1.367 . S
H672 C678 0.930 . S
H673 C681 0.923 1_565 S
H674 C682 0.930 . S
H675 C683 0.930 . S
H676 C686 0.930 . S
H677 C687 0.930 . S
C678 H672 0.930 . S
C678 C679 1.355 . S
C678 C680 1.415 1_565 S
C679 C678 1.355 . S
C679 C681 1.409 1_565 S
C680 C678 1.415 1_545 S
C680 C685 1.425 . S
C680 C687 1.409 . S
C681 H673 0.923 1_545 S
C681 C679 1.409 1_545 S
C681 C682 1.380 . S
C682 H674 0.930 . S
C682 C681 1.380 . S
C682 C685 1.409 . S
C683 H675 0.930 . S
C683 C684 1.355 . S
C683 C685 1.415 . S
C684 C683 1.355 . S
C684 C686 1.419 . S
C685 C680 1.425 . S
C685 C682 1.409 . S
C685 C683 1.415 . S
C686 H676 0.930 . S
C686 C684 1.419 . S
C686 C687 1.362 . S
C687 H677 0.930 . S
C687 C680 1.409 . S
C687 C686 1.362 . S
H688 C694 0.930 . S
H689 C697 0.930 1_655 S
H690 C698 0.930 . S
H691 C699 0.930 . S
H692 C702 0.930 . S
H693 C703 0.930 . S
C694 H688 0.930 . S
C694 C695 1.355 . S
C694 C696 1.415 1_655 S
C695 C694 1.355 . S
C695 C697 1.419 1_655 S
C696 C694 1.415 1_455 S
C696 C701 1.425 . S
C696 C703 1.409 . S
C697 H689 0.930 1_455 S
C697 C695 1.419 1_455 S
C697 C698 1.362 . S
C698 H690 0.930 . S
C698 C697 1.362 . S
C698 C701 1.409 . S
C699 H691 0.930 . S
C699 C700 1.355 . S
C699 C701 1.415 . S
C700 C699 1.355 . S
C700 C702 1.419 . S
C701 C696 1.425 . S
C701 C698 1.409 . S
C701 C699 1.415 . S
C702 H692 0.930 . S
C702 C700 1.419 . S
C702 C703 1.362 . S
C703 H693 0.930 . S
C703 C696 1.409 . S
C703 C702 1.362 . S
H704 C710 0.930 . S
H705 C713 0.930 . S
H706 C714 0.925 1_556 S
H707 C715 0.930 . S
H708 C718 0.930 . S
H709 C719 0.930 . S
C710 H704 0.930 . S
C710 C711 1.355 . S
C710 C712 1.415 . S
C711 C710 1.355 . S
C711 C713 1.419 . S
C712 C710 1.415 . S
C712 C717 1.425 . S
C712 C719 1.409 . S
C713 H705 0.930 . S
C713 C711 1.419 . S
C713 C714 1.362 . S
C714 H706 0.925 1_554 S
C714 C713 1.362 . S
C714 C717 1.409 . S
C715 H707 0.930 . S
C715 C716 1.355 . S
C715 C717 1.415 1_556 S
C716 C715 1.355 . S
C716 C718 1.419 1_556 S
C717 C712 1.425 . S
C717 C714 1.409 . S
C717 C715 1.415 1_554 S
C718 H708 0.930 . S
C718 C716 1.419 1_554 S
C718 C719 1.362 . S
C719 H709 0.930 . S
C719 C712 1.409 . S
C719 C718 1.362 . S
H720 C726 0.930 . S
H721 C729 0.930 . S
H722 C730 0.930 . S
H723 C731 0.930 . S
H724 C734 0.930 . S
H725 C735 0.930 . S
C726 H720 0.930 . S
C726 C727 1.355 1_556 S
C726 C728 1.415 . S
C727 C726 1.355 1_554 S
C727 C729 1.419 . S
C728 C726 1.415 . S
C728 C733 1.425 . S
C728 C735 1.409 . S
C729 H721 0.930 . S
C729 C727 1.419 . S
C729 C730 1.362 . S
C730 H722 0.930 . S
C730 C729 1.362 . S
C730 C733 1.409 1_554 S
C731 H723 0.930 . S
C731 C732 1.355 . S
C731 C733 1.415 . S
C732 C731 1.355 . S
C732 C734 1.419 . S
C733 C728 1.425 . S
C733 C730 1.409 1_556 S
C733 C731 1.415 . S
C734 H724 0.930 . S
C734 C732 1.419 . S
C734 C735 1.362 . S
C735 H725 0.930 . S
C735 C728 1.409 . S
C735 C734 1.362 . S
H736 C742 0.930 . S
H737 C745 0.930 . S
H738 C746 0.930 . S
H739 C747 0.930 . S
H740 C750 0.930 . S
H741 C751 0.930 . S
C742 H736 0.930 . S
C742 C743 1.355 . S
C742 C744 1.415 . S
C743 C742 1.355 . S
C743 C745 1.419 . S
C744 C742 1.415 . S
C744 C749 1.425 . S
C744 C751 1.409 1_554 S
C745 H737 0.930 . S
C745 C743 1.419 . S
C745 C746 1.362 . S
C746 H738 0.930 . S
C746 C745 1.362 . S
C746 C749 1.409 . S
C747 H739 0.930 . S
C747 C748 1.355 1_554 S
C747 C749 1.415 . S
C748 C747 1.355 1_556 S
C748 C750 1.419 . S
C749 C744 1.425 . S
C749 C746 1.409 . S
C749 C747 1.415 . S
C750 H740 0.930 . S
C750 C748 1.419 . S
C750 C751 1.362 . S
C751 H741 0.930 . S
C751 C744 1.409 1_556 S
C751 C750 1.362 . S
H752 C758 0.930 . S
H753 C761 0.930 . S
H754 C762 0.930 . S
H755 C763 0.930 . S
H756 C766 0.930 . S
H757 C767 0.930 1_554 S
C758 H752 0.930 . S
C758 C759 1.355 . S
C758 C760 1.415 1_554 S
C759 C758 1.355 . S
C759 C761 1.419 1_554 S
C760 C758 1.415 1_556 S
C760 C765 1.425 . S
C760 C767 1.409 . S
C761 H753 0.930 . S
C761 C759 1.419 1_556 S
C761 C762 1.362 . S
C762 H754 0.930 . S
C762 C761 1.362 . S
C762 C765 1.409 . S
C763 H755 0.930 . S
C763 C764 1.355 . S
C763 C765 1.415 . S
C764 C763 1.355 . S
C764 C766 1.419 . S
C765 C760 1.425 . S
C765 C762 1.409 . S
C765 C763 1.415 . S
C766 H756 0.930 . S
C766 C764 1.419 . S
C766 C767 1.362 . S
C767 H757 0.930 1_556 S
C767 C760 1.409 . S
C767 C766 1.362 . S
H768 C774 0.930 . S
H769 C777 0.930 . S
H770 C778 0.930 . S
H771 C779 0.930 . S
H772 C782 0.930 . S
H773 C783 0.930 . S
C774 H768 0.930 . S
C774 C775 1.355 . S
C774 C776 1.415 . S
C775 C774 1.355 . S
C775 C777 1.419 . S
C776 C774 1.415 . S
C776 C781 1.425 . S
C776 C783 1.409 . S
C777 H769 0.930 . S
C777 C775 1.419 . S
C777 C778 1.362 . S
C778 H770 0.930 . S
C778 C777 1.362 . S
C778 C781 1.409 . S
C779 H771 0.930 . S
C779 C780 1.355 . S
C779 C781 1.415 . S
C780 C779 1.355 . S
C780 C782 1.419 . S
C781 C776 1.425 . S
C781 C778 1.409 . S
C781 C779 1.415 . S
C782 H772 0.930 . S
C782 C780 1.419 . S
C782 C783 1.362 . S
C783 H773 0.930 . S
C783 C776 1.409 . S
C783 C782 1.362 . S
H784 C790 0.930 . S
H785 C793 0.930 . S
H786 C794 0.930 . S
H787 C795 0.930 . S
H788 C798 0.930 . S
H789 C799 0.930 . S
C790 H784 0.930 . S
C790 C791 1.355 . S
C790 C792 1.415 . S
C791 C790 1.355 . S
C791 C793 1.419 . S
C792 C790 1.415 . S
C792 C797 1.425 . S
C792 C799 1.409 . S
C793 H785 0.930 . S
C793 C791 1.419 . S
C793 C794 1.362 . S
C794 H786 0.930 . S
C794 C793 1.362 . S
C794 C797 1.409 . S
C795 H787 0.930 . S
C795 C796 1.355 . S
C795 C797 1.415 . S
C796 C795 1.355 . S
C796 C798 1.419 . S
C797 C792 1.425 . S
C797 C794 1.409 . S
C797 C795 1.415 . S
C798 H788 0.930 . S
C798 C796 1.419 . S
C798 C799 1.362 . S
C799 H789 0.930 . S
C799 C792 1.409 . S
C799 C798 1.362 . S
H800 C806 0.930 . S
H801 C809 0.930 . S
H802 C810 0.930 . S
H803 C811 0.930 . S
H804 C814 0.930 . S
H805 C815 0.930 . S
C806 H800 0.930 . S
C806 C807 1.355 . S
C806 C808 1.415 . S
C807 C806 1.355 . S
C807 C809 1.419 . S
C808 C806 1.415 . S
C808 C813 1.425 . S
C808 C815 1.409 . S
C809 H801 0.930 . S
C809 C807 1.419 . S
C809 C810 1.362 . S
C810 H802 0.930 . S
C810 C809 1.362 . S
C810 C813 1.409 . S
C811 H803 0.930 . S
C811 C812 1.355 . S
C811 C813 1.415 . S
C812 C811 1.355 . S
C812 C814 1.419 . S
C813 C808 1.425 . S
C813 C810 1.409 . S
C813 C811 1.415 . S
C814 H804 0.930 . S
C814 C812 1.419 . S
C814 C815 1.362 . S
C815 H805 0.930 . S
C815 C808 1.409 . S
C815 C814 1.362 . S
H816 C822 0.930 . S
H817 C825 0.930 . S
H818 C826 0.930 . S
H819 C827 0.930 . S
H820 C830 0.930 . S
H821 C831 0.930 . S
C822 H816 0.930 . S
C822 C823 1.355 . S
C822 C824 1.415 . S
C823 C822 1.355 . S
C823 C825 1.419 . S
C824 C822 1.415 . S
C824 C829 1.425 . S
C824 C831 1.409 . S
C825 H817 0.930 . S
C825 C823 1.419 . S
C825 C826 1.362 . S
C826 H818 0.930 . S
C826 C825 1.362 . S
C826 C829 1.409 . S
C827 H819 0.930 . S
C827 C828 1.355 . S
C827 C829 1.415 . S
C828 C827 1.355 . S
C828 C830 1.419 . S
C829 C824 1.425 . S
C829 C826 1.409 . S
C829 C827 1.415 . S
C830 H820 0.930 . S
C830 C828 1.419 . S
C830 C831 1.362 . S
C831 H821 0.930 . S
C831 C824 1.409 . S
C831 C830 1.362 . S
H832 C838 0.930 . S
H833 C841 0.930 . S
H834 C842 0.930 . S
H835 C843 0.930 . S
H836 C846 0.930 . S
H837 C847 0.930 . S
C838 H832 0.930 . S
C838 C839 1.355 . S
C838 C840 1.415 1_565 S
C839 C838 1.355 . S
C839 C841 1.419 . S
C840 C838 1.415 1_545 S
C840 C845 1.425 . S
C840 C847 1.409 . S
C841 H833 0.930 . S
C841 C839 1.419 . S
C841 C842 1.362 1_565 S
C842 H834 0.930 . S
C842 C841 1.362 1_545 S
C842 C845 1.409 . S
C843 H835 0.930 . S
C843 C844 1.355 . S
C843 C845 1.415 . S
C844 C843 1.355 . S
C844 C846 1.419 . S
C845 C840 1.425 . S
C845 C842 1.409 . S
C845 C843 1.415 . S
C846 H836 0.930 . S
C846 C844 1.419 . S
C846 C847 1.362 . S
C847 H837 0.930 . S
C847 C840 1.409 . S
C847 C846 1.362 . S
H848 C854 0.930 . S
H849 C857 0.930 . S
H850 C858 0.930 . S
H851 C859 0.930 . S
H852 C862 0.930 1_655 S
H853 C863 0.930 . S
C854 H848 0.930 . S
C854 C855 1.355 . S
C854 C856 1.415 . S
C855 C854 1.355 . S
C855 C857 1.419 . S
C856 C854 1.415 . S
C856 C861 1.425 . S
C856 C863 1.409 . S
C857 H849 0.930 . S
C857 C855 1.419 . S
C857 C858 1.362 . S
C858 H850 0.930 . S
C858 C857 1.362 . S
C858 C861 1.409 . S
C859 H851 0.930 . S
C859 C860 1.355 . S
C859 C861 1.415 1_655 S
C860 C859 1.355 . S
C860 C862 1.419 1_655 S
C861 C856 1.425 . S
C861 C858 1.409 . S
C861 C859 1.415 1_455 S
C862 H852 0.930 1_455 S
C862 C860 1.419 1_455 S
C862 C863 1.362 . S
C863 H853 0.930 . S
C863 C856 1.409 . S
C863 C862 1.362 . S
H864 C870 0.930 . S
H865 C873 0.930 . S
H866 C874 0.930 . S
H867 C875 0.930 . S
H868 C878 0.930 . S
H869 C879 0.930 . S
C870 H864 0.930 . S
C870 C871 1.355 . S
C870 C872 1.415 . S
C871 C870 1.355 . S
C871 C873 1.419 . S
C872 C870 1.415 . S
C872 C877 1.425 . S
C872 C879 1.409 1_565 S
C873 H865 0.930 . S
C873 C871 1.419 . S
C873 C874 1.362 . S
C874 H866 0.930 . S
C874 C873 1.362 . S
C874 C877 1.409 . S
C875 H867 0.930 . S
C875 C876 1.355 1_565 S
C875 C877 1.415 . S
C876 C875 1.355 1_545 S
C876 C878 1.419 . S
C877 C872 1.425 . S
C877 C874 1.409 . S
C877 C875 1.415 . S
C878 H868 0.930 . S
C878 C876 1.419 . S
C878 C879 1.362 . S
C879 H869 0.930 . S
C879 C872 1.409 1_545 S
C879 C878 1.362 . S
H880 C886 0.930 . S
H881 C889 0.930 . S
H882 C890 0.930 . S
H883 C891 0.930 . S
H884 C894 0.930 . S
H885 C895 0.930 . S
C886 H880 0.930 . S
C886 C887 1.355 1_655 S
C886 C888 1.415 . S
C887 C886 1.355 1_455 S
C887 C889 1.419 . S
C888 C886 1.415 . S
C888 C893 1.425 . S
C888 C895 1.409 . S
C889 H881 0.930 . S
C889 C887 1.419 . S
C889 C890 1.362 1_455 S
C890 H882 0.930 . S
C890 C889 1.362 1_655 S
C890 C893 1.409 . S
C891 H883 0.930 . S
C891 C892 1.355 . S
C891 C893 1.415 . S
C892 C891 1.355 . S
C892 C894 1.419 . S
C893 C888 1.425 . S
C893 C890 1.409 . S
C893 C891 1.415 . S
C894 H884 0.930 . S
C894 C892 1.419 . S
C894 C895 1.362 . S
C895 H885 0.930 . S
C895 C888 1.409 . S
C895 C894 1.362 . S
H896 C902 0.930 . S
H897 C905 0.930 . S
H898 C906 0.930 . S
H899 C907 0.930 . S
H900 C910 0.930 . S
H901 C911 0.930 . S
C902 H896 0.930 . S
C902 C903 1.355 . S
C902 C904 1.415 . S
C903 C902 1.355 . S
C903 C905 1.419 . S
C904 C902 1.415 . S
C904 C909 1.425 . S
C904 C911 1.409 . S
C905 H897 0.930 . S
C905 C903 1.419 . S
C905 C906 1.362 . S
C906 H898 0.930 . S
C906 C905 1.362 . S
C906 C909 1.409 . S
C907 H899 0.930 . S
C907 C908 1.355 . S
C907 C909 1.415 . S
C908 C907 1.355 . S
C908 C910 1.419 . S
C909 C904 1.425 . S
C909 C906 1.409 . S
C909 C907 1.415 . S
C910 H900 0.930 . S
C910 C908 1.419 . S
C910 C911 1.362 . S
C911 H901 0.930 . S
C911 C904 1.409 . S
C911 C910 1.362 . S
H912 C918 0.930 . S
H913 C921 0.930 . S
H914 C922 0.930 . S
H915 C923 0.930 . S
H916 C926 0.930 . S
H917 C927 0.930 . S
C918 H912 0.930 . S
C918 C919 1.355 . S
C918 C920 1.415 . S
C919 C918 1.355 . S
C919 C921 1.419 . S
C920 C918 1.415 . S
C920 C925 1.425 . S
C920 C927 1.409 . S
C921 H913 0.930 . S
C921 C919 1.419 . S
C921 C922 1.362 . S
C922 H914 0.930 . S
C922 C921 1.362 . S
C922 C925 1.409 . S
C923 H915 0.930 . S
C923 C924 1.355 . S
C923 C925 1.415 . S
C924 C923 1.355 . S
C924 C926 1.419 . S
C925 C920 1.425 . S
C925 C922 1.409 . S
C925 C923 1.415 . S
C926 H916 0.930 . S
C926 C924 1.419 . S
C926 C927 1.362 . S
C927 H917 0.930 . S
C927 C920 1.409 . S
C927 C926 1.362 . S
H928 C934 0.930 . S
H929 C937 0.930 . S
H930 C938 0.930 . S
H931 C939 0.930 . S
H932 C942 0.930 . S
H933 C943 0.930 . S
C934 H928 0.930 . S
C934 C935 1.355 . S
C934 C936 1.415 . S
C935 C934 1.355 . S
C935 C937 1.419 . S
C936 C934 1.415 . S
C936 C941 1.425 . S
C936 C943 1.409 . S
C937 H929 0.930 . S
C937 C935 1.419 . S
C937 C938 1.362 . S
C938 H930 0.930 . S
C938 C937 1.362 . S
C938 C941 1.409 . S
C939 H931 0.930 . S
C939 C940 1.355 . S
C939 C941 1.415 . S
C940 C939 1.355 . S
C940 C942 1.419 . S
C941 C936 1.425 . S
C941 C938 1.409 . S
C941 C939 1.415 . S
C942 H932 0.930 . S
C942 C940 1.419 . S
C942 C943 1.362 . S
C943 H933 0.930 . S
C943 C936 1.409 . S
C943 C942 1.362 . S
H944 C950 0.930 . S
H945 C953 0.930 . S
H946 C954 0.930 . S
H947 C955 0.930 . S
H948 C958 0.930 . S
H949 C959 0.930 . S
C950 H944 0.930 . S
C950 C951 1.355 . S
C950 C952 1.415 . S
C951 C950 1.355 . S
C951 C953 1.419 . S
C952 C950 1.415 . S
C952 C957 1.425 . S
C952 C959 1.409 . S
C953 H945 0.930 . S
C953 C951 1.419 . S
C953 C954 1.362 . S
C954 H946 0.930 . S
C954 C953 1.362 . S
C954 C957 1.409 . S
C955 H947 0.930 . S
C955 C956 1.355 . S
C955 C957 1.415 . S
C956 C955 1.355 . S
C956 C958 1.419 . S
C957 C952 1.425 . S
C957 C954 1.409 . S
C957 C955 1.415 . S
C958 H948 0.930 . S
C958 C956 1.419 . S
C958 C959 1.362 . S
C959 H949 0.930 . S
C959 C952 1.409 . S
C959 C958 1.362 . S
H960 C966 0.930 . S
H961 C969 0.930 . S
H962 C970 0.930 . S
H963 C971 0.930 . S
H964 C974 0.930 . S
H965 C975 0.930 . S
C966 H960 0.930 . S
C966 C967 1.355 . S
C966 C968 1.415 . S
C967 C966 1.355 . S
C967 C969 1.419 . S
C968 C966 1.415 . S
C968 C973 1.425 . S
C968 C975 1.409 . S
C969 H961 0.930 . S
C969 C967 1.419 . S
C969 C970 1.362 . S
C970 H962 0.930 . S
C970 C969 1.362 . S
C970 C973 1.409 . S
C971 H963 0.930 . S
C971 C972 1.355 . S
C971 C973 1.415 . S
C972 C971 1.355 . S
C972 C974 1.419 . S
C973 C968 1.425 . S
C973 C970 1.409 . S
C973 C971 1.415 . S
C974 H964 0.930 . S
C974 C972 1.419 . S
C974 C975 1.362 . S
C975 H965 0.930 . S
C975 C968 1.409 . S
C975 C974 1.362 . S
H976 C982 0.930 . S
H977 C985 0.930 . S
H978 C986 0.930 . S
H979 C987 0.930 . S
H980 C990 0.930 . S
H981 C991 0.930 . S
C982 H976 0.930 . S
C982 C983 1.355 . S
C982 C984 1.415 . S
C983 C982 1.355 . S
C983 C985 1.419 . S
C984 C982 1.415 . S
C984 C989 1.425 . S
C984 C991 1.409 . S
C985 H977 0.930 . S
C985 C983 1.419 . S
C985 C986 1.362 . S
C986 H978 0.930 . S
C986 C985 1.362 . S
C986 C989 1.409 . S
C987 H979 0.930 . S
C987 C988 1.355 . S
C987 C989 1.415 . S
C988 C987 1.355 . S
C988 C990 1.419 . S
C989 C984 1.425 . S
C989 C986 1.409 . S
C989 C987 1.415 . S
C990 H980 0.930 . S
C990 C988 1.419 . S
C990 C991 1.362 . S
C991 H981 0.930 . S
C991 C984 1.409 . S
C991 C990 1.362 . S
H992 C998 0.930 . S
H993 C1001 0.930 . S
H994 C1002 0.930 . S
H995 C1003 0.930 . S
H996 C1006 0.930 . S
H997 C1007 0.930 . S
C998 H992 0.930 . S
C998 C999 1.355 . S
C998 C1000 1.415 . S
C999 C998 1.355 . S
C999 C1001 1.419 . S
C1000 C998 1.415 . S
C1000 C1005 1.425 . S
C1000 C1007 1.409 . S
C1001 H993 0.930 . S
C1001 C999 1.419 . S
C1001 C1002 1.362 . S
C1002 H994 0.930 . S
C1002 C1001 1.362 . S
C1002 C1005 1.409 . S
C1003 H995 0.930 . S
C1003 C1004 1.355 . S
C1003 C1005 1.415 . S
C1004 C1003 1.355 . S
C1004 C1006 1.419 . S
C1005 C1000 1.425 . S
C1005 C1002 1.409 . S
C1005 C1003 1.415 . S
C1006 H996 0.930 . S
C1006 C1004 1.419 . S
C1006 C1007 1.362 . S
C1007 H997 0.930 . S
C1007 C1000 1.409 . S
C1007 C1006 1.362 . S
H1008 C1014 0.930 . S
H1009 C1017 0.930 . S
H1010 C1018 0.930 . S
H1011 C1019 0.930 . S
H1012 C1022 0.930 . S
H1013 C1023 0.930 . S
C1014 H1008 0.930 . S
C1014 C1015 1.355 . S
C1014 C1016 1.415 . S
C1015 C1014 1.355 . S
C1015 C1017 1.419 . S
C1016 C1014 1.415 . S
C1016 C1021 1.425 . S
C1016 C1023 1.409 . S
C1017 H1009 0.930 . S
C1017 C1015 1.419 . S
C1017 C1018 1.362 . S
C1018 H1010 0.930 . S
C1018 C1017 1.362 . S
C1018 C1021 1.409 . S
C1019 H1011 0.930 . S
C1019 C1020 1.355 . S
C1019 C1021 1.415 . S
C1020 C1019 1.355 . S
C1020 C1022 1.419 . S
C1021 C1016 1.425 . S
C1021 C1018 1.409 . S
C1021 C1019 1.415 . S
C1022 H1012 0.930 . S
C1022 C1020 1.419 . S
C1022 C1023 1.362 . S
C1023 H1013 0.930 . S
C1023 C1016 1.409 . S
C1023 C1022 1.362 . S
H1024 C1030 0.930 . S
H1025 C1033 0.930 . S
H1026 C1034 0.930 . S
H1027 C1035 0.930 . S
H1028 C1038 0.930 . S
H1029 C1039 0.930 . S
C1030 H1024 0.930 . S
C1030 C1031 1.355 . S
C1030 C1032 1.415 . S
C1031 C1030 1.355 . S
C1031 C1033 1.419 . S
C1032 C1030 1.415 . S
C1032 C1037 1.425 . S
C1032 C1039 1.409 . S
C1033 H1025 0.930 . S
C1033 C1031 1.419 . S
C1033 C1034 1.362 . S
C1034 H1026 0.930 . S
C1034 C1033 1.362 . S
C1034 C1037 1.409 . S
C1035 H1027 0.930 . S
C1035 C1036 1.355 . S
C1035 C1037 1.415 . S
C1036 C1035 1.355 . S
C1036 C1038 1.419 . S
C1037 C1032 1.425 . S
C1037 C1034 1.409 . S
C1037 C1035 1.415 . S
C1038 H1028 0.930 . S
C1038 C1036 1.419 . S
C1038 C1039 1.362 . S
C1039 H1029 0.930 . S
C1039 C1032 1.409 . S
C1039 C1038 1.362 . S
H1040 C1046 0.930 . S
H1041 C1049 0.930 . S
H1042 C1050 0.930 . S
H1043 C1051 0.930 . S
H1044 C1054 0.930 . S
H1045 C1055 0.930 . S
C1046 H1040 0.930 . S
C1046 C1047 1.355 . S
C1046 C1048 1.415 . S
C1047 C1046 1.355 . S
C1047 C1049 1.419 . S
C1048 C1046 1.415 . S
C1048 C1053 1.425 . S
C1048 C1055 1.409 . S
C1049 H1041 0.930 . S
C1049 C1047 1.419 . S
C1049 C1050 1.362 . S
C1050 H1042 0.930 . S
C1050 C1049 1.362 . S
C1050 C1053 1.409 . S
C1051 H1043 0.930 . S
C1051 C1052 1.355 . S
C1051 C1053 1.415 . S
C1052 C1051 1.355 . S
C1052 C1054 1.419 . S
C1053 C1048 1.425 . S
C1053 C1050 1.409 . S
C1053 C1051 1.415 . S
C1054 H1044 0.930 . S
C1054 C1052 1.419 . S
C1054 C1055 1.362 . S
C1055 H1045 0.930 . S
C1055 C1048 1.409 . S
C1055 C1054 1.362 . S
H1056 C1062 0.930 . S
H1057 C1065 0.930 . S
H1058 C1066 0.930 . S
H1059 C1067 0.930 . S
H1060 C1070 0.930 . S
H1061 C1071 0.930 . S
C1062 H1056 0.930 . S
C1062 C1063 1.355 . S
C1062 C1064 1.415 . S
C1063 C1062 1.355 . S
C1063 C1065 1.419 . S
C1064 C1062 1.415 . S
C1064 C1069 1.425 . S
C1064 C1071 1.409 . S
C1065 H1057 0.930 . S
C1065 C1063 1.419 . S
C1065 C1066 1.362 . S
C1066 H1058 0.930 . S
C1066 C1065 1.362 . S
C1066 C1069 1.409 . S
C1067 H1059 0.930 . S
C1067 C1068 1.355 . S
C1067 C1069 1.415 . S
C1068 C1067 1.355 . S
C1068 C1070 1.419 . S
C1069 C1064 1.425 . S
C1069 C1066 1.409 . S
C1069 C1067 1.415 . S
C1070 H1060 0.930 . S
C1070 C1068 1.419 . S
C1070 C1071 1.362 . S
C1071 H1061 0.930 . S
C1071 C1064 1.409 . S
C1071 C1070 1.362 . S
H1072 C1078 0.930 . S
H1073 C1081 0.930 . S
H1074 C1082 0.930 . S
H1075 C1083 0.930 . S
H1076 C1086 0.930 . S
H1077 C1087 0.930 . S
C1078 H1072 0.930 . S
C1078 C1079 1.355 . S
C1078 C1080 1.415 . S
C1079 C1078 1.355 . S
C1079 C1081 1.419 . S
C1080 C1078 1.415 . S
C1080 C1085 1.425 . S
C1080 C1087 1.409 . S
C1081 H1073 0.930 . S
C1081 C1079 1.419 . S
C1081 C1082 1.362 . S
C1082 H1074 0.930 . S
C1082 C1081 1.362 . S
C1082 C1085 1.409 . S
C1083 H1075 0.930 . S
C1083 C1084 1.355 . S
C1083 C1085 1.415 . S
C1084 C1083 1.355 . S
C1084 C1086 1.419 . S
C1085 C1080 1.425 . S
C1085 C1082 1.409 . S
C1085 C1083 1.415 . S
C1086 H1076 0.930 . S
C1086 C1084 1.419 . S
C1086 C1087 1.362 . S
C1087 H1077 0.930 . S
C1087 C1080 1.409 . S
C1087 C1086 1.362 . S
H1088 C1094 0.930 . S
H1089 C1097 0.930 . S
H1090 C1098 0.930 . S
H1091 C1099 0.930 . S
H1092 C1102 0.930 . S
H1093 C1103 0.930 . S
C1094 H1088 0.930 . S
C1094 C1095 1.355 . S
C1094 C1096 1.415 . S
C1095 C1094 1.355 . S
C1095 C1097 1.419 . S
C1096 C1094 1.415 . S
C1096 C1101 1.425 . S
C1096 C1103 1.409 . S
C1097 H1089 0.930 . S
C1097 C1095 1.419 . S
C1097 C1098 1.362 . S
C1098 H1090 0.930 . S
C1098 C1097 1.362 . S
C1098 C1101 1.409 . S
C1099 H1091 0.930 . S
C1099 C1100 1.355 . S
C1099 C1101 1.415 . S
C1100 C1099 1.355 . S
C1100 C1102 1.419 . S
C1101 C1096 1.425 . S
C1101 C1098 1.409 . S
C1101 C1099 1.415 . S
C1102 H1092 0.930 . S
C1102 C1100 1.419 . S
C1102 C1103 1.362 . S
C1103 H1093 0.930 . S
C1103 C1096 1.409 . S
C1103 C1102 1.362 . S
H1104 C1110 0.930 . S
H1105 C1113 0.930 . S
H1106 C1114 0.930 . S
H1107 C1115 0.930 . S
H1108 C1118 0.930 . S
H1109 C1119 0.930 . S
C1110 H1104 0.930 . S
C1110 C1111 1.355 . S
C1110 C1112 1.415 . S
C1111 C1110 1.355 . S
C1111 C1113 1.419 . S
C1112 C1110 1.415 . S
C1112 C1117 1.425 . S
C1112 C1119 1.409 . S
C1113 H1105 0.930 . S
C1113 C1111 1.419 . S
C1113 C1114 1.362 . S
C1114 H1106 0.930 . S
C1114 C1113 1.362 . S
C1114 C1117 1.409 . S
C1115 H1107 0.930 . S
C1115 C1116 1.355 . S
C1115 C1117 1.415 . S
C1116 C1115 1.355 . S
C1116 C1118 1.419 . S
C1117 C1112 1.425 . S
C1117 C1114 1.409 . S
C1117 C1115 1.415 . S
C1118 H1108 0.930 . S
C1118 C1116 1.419 . S
C1118 C1119 1.362 . S
C1119 H1109 0.930 . S
C1119 C1112 1.409 . S
C1119 C1118 1.362 . S
H1120 C1126 0.930 . S
H1121 C1129 0.930 . S
H1122 C1130 0.930 . S
H1123 C1131 0.930 . S
H1124 C1134 0.930 . S
H1125 C1135 0.930 . S
C1126 H1120 0.930 . S
C1126 C1127 1.355 . S
C1126 C1128 1.415 . S
C1127 C1126 1.355 . S
C1127 C1129 1.419 . S
C1128 C1126 1.415 . S
C1128 C1133 1.425 . S
C1128 C1135 1.409 . S
C1129 H1121 0.930 . S
C1129 C1127 1.419 . S
C1129 C1130 1.362 . S
C1130 H1122 0.930 . S
C1130 C1129 1.362 . S
C1130 C1133 1.409 . S
C1131 H1123 0.930 . S
C1131 C1132 1.355 . S
C1131 C1133 1.415 . S
C1132 C1131 1.355 . S
C1132 C1134 1.419 . S
C1133 C1128 1.425 . S
C1133 C1130 1.409 . S
C1133 C1131 1.415 . S
C1134 H1124 0.930 . S
C1134 C1132 1.419 . S
C1134 C1135 1.362 . S
C1135 H1125 0.930 . S
C1135 C1128 1.409 . S
C1135 C1134 1.362 . S
H1136 C1142 0.930 . S
H1137 C1145 0.930 . S
H1138 C1146 0.930 . S
H1139 C1147 0.930 . S
H1140 C1150 0.930 . S
H1141 C1151 0.930 . S
C1142 H1136 0.930 . S
C1142 C1143 1.355 . S
C1142 C1144 1.415 . S
C1143 C1142 1.355 . S
C1143 C1145 1.419 . S
C1144 C1142 1.415 . S
C1144 C1149 1.425 . S
C1144 C1151 1.409 . S
C1145 H1137 0.930 . S
C1145 C1143 1.419 . S
C1145 C1146 1.362 . S
C1146 H1138 0.930 . S
C1146 C1145 1.362 . S
C1146 C1149 1.409 . S
C1147 H1139 0.930 . S
C1147 C1148 1.355 . S
C1147 C1149 1.415 . S
C1148 C1147 1.355 . S
C1148 C1150 1.419 . S
C1149 C1144 1.425 . S
C1149 C1146 1.409 . S
C1149 C1147 1.415 . S
C1150 H1140 0.930 . S
C1150 C1148 1.419 . S
C1150 C1151 1.362 . S
C1151 H1141 0.930 . S
C1151 C1144 1.409 . S
C1151 C1150 1.362 . S
H1152 C1158 0.930 . S
H1153 C1161 0.930 . S
H1154 C1162 0.930 . S
H1155 C1163 0.930 . S
H1156 C1166 0.930 . S
H1157 C1167 0.930 . S
C1158 H1152 0.930 . S
C1158 C1159 1.355 . S
C1158 C1160 1.415 . S
C1159 C1158 1.355 . S
C1159 C1161 1.419 . S
C1160 C1158 1.415 . S
C1160 C1165 1.425 . S
C1160 C1167 1.409 . S
C1161 H1153 0.930 . S
C1161 C1159 1.419 . S
C1161 C1162 1.362 . S
C1162 H1154 0.930 . S
C1162 C1161 1.362 . S
C1162 C1165 1.409 . S
C1163 H1155 0.930 . S
C1163 C1164 1.355 . S
C1163 C1165 1.415 . S
C1164 C1163 1.355 . S
C1164 C1166 1.419 . S
C1165 C1160 1.425 . S
C1165 C1162 1.409 . S
C1165 C1163 1.415 . S
C1166 H1156 0.930 . S
C1166 C1164 1.419 . S
C1166 C1167 1.362 . S
C1167 H1157 0.930 . S
C1167 C1160 1.409 . S
C1167 C1166 1.362 . S
H1168 C1174 0.930 . S
H1169 C1177 0.930 . S
H1170 C1178 0.930 . S
H1171 C1179 0.930 . S
H1172 C1182 0.930 . S
H1173 C1183 0.930 . S
C1174 H1168 0.930 . S
C1174 C1175 1.355 . S
C1174 C1176 1.415 . S
C1175 C1174 1.355 . S
C1175 C1177 1.419 . S
C1176 C1174 1.415 . S
C1176 C1181 1.425 . S
C1176 C1183 1.409 . S
C1177 H1169 0.930 . S
C1177 C1175 1.419 . S
C1177 C1178 1.362 . S
C1178 H1170 0.930 . S
C1178 C1177 1.362 . S
C1178 C1181 1.409 . S
C1179 H1171 0.930 . S
C1179 C1180 1.355 . S
C1179 C1181 1.415 . S
C1180 C1179 1.355 . S
C1180 C1182 1.419 . S
C1181 C1176 1.425 . S
C1181 C1178 1.409 . S
C1181 C1179 1.415 . S
C1182 H1172 0.930 . S
C1182 C1180 1.419 . S
C1182 C1183 1.362 . S
C1183 H1173 0.930 . S
C1183 C1176 1.409 . S
C1183 C1182 1.362 . S
H1184 C1190 0.930 . S
H1185 C1193 0.930 . S
H1186 C1194 0.930 . S
H1187 C1195 0.930 . S
H1188 C1198 0.930 . S
H1189 C1199 0.930 . S
C1190 H1184 0.930 . S
C1190 C1191 1.355 . S
C1190 C1192 1.415 . S
C1191 C1190 1.355 . S
C1191 C1193 1.419 . S
C1192 C1190 1.415 . S
C1192 C1197 1.425 . S
C1192 C1199 1.409 . S
C1193 H1185 0.930 . S
C1193 C1191 1.419 . S
C1193 C1194 1.362 . S
C1194 H1186 0.930 . S
C1194 C1193 1.362 . S
C1194 C1197 1.409 . S
C1195 H1187 0.930 . S
C1195 C1196 1.355 . S
C1195 C1197 1.415 . S
C1196 C1195 1.355 . S
C1196 C1198 1.419 . S
C1197 C1192 1.425 . S
C1197 C1194 1.409 . S
C1197 C1195 1.415 . S
C1198 H1188 0.930 . S
C1198 C1196 1.419 . S
C1198 C1199 1.362 . S
C1199 H1189 0.930 . S
C1199 C1192 1.409 . S
C1199 C1198 1.362 . S
H1200 C1206 0.930 . S
H1201 C1209 0.930 . S
H1202 C1210 0.930 . S
H1203 C1211 0.930 . S
H1204 C1214 0.930 . S
H1205 C1215 0.930 . S
C1206 H1200 0.930 . S
C1206 C1207 1.355 . S
C1206 C1208 1.415 . S
C1207 C1206 1.355 . S
C1207 C1209 1.419 . S
C1208 C1206 1.415 . S
C1208 C1213 1.425 . S
C1208 C1215 1.409 . S
C1209 H1201 0.930 . S
C1209 C1207 1.419 . S
C1209 C1210 1.362 . S
C1210 H1202 0.930 . S
C1210 C1209 1.362 . S
C1210 C1213 1.409 . S
C1211 H1203 0.930 . S
C1211 C1212 1.355 . S
C1211 C1213 1.415 . S
C1212 C1211 1.355 . S
C1212 C1214 1.419 . S
C1213 C1208 1.425 . S
C1213 C1210 1.409 . S
C1213 C1211 1.415 . S
C1214 H1204 0.930 . S
C1214 C1212 1.419 . S
C1214 C1215 1.362 . S
C1215 H1205 0.930 . S
C1215 C1208 1.409 . S
C1215 C1214 1.362 . S
H1216 C1222 0.930 . S
H1217 C1225 0.930 . S
H1218 C1226 0.930 . S
H1219 C1227 0.930 . S
H1220 C1230 0.930 . S
H1221 C1231 0.930 . S
C1222 H1216 0.930 . S
C1222 C1223 1.355 . S
C1222 C1224 1.415 . S
C1223 C1222 1.355 . S
C1223 C1225 1.419 . S
C1224 C1222 1.415 . S
C1224 C1229 1.425 . S
C1224 C1231 1.409 . S
C1225 H1217 0.930 . S
C1225 C1223 1.419 . S
C1225 C1226 1.362 . S
C1226 H1218 0.930 . S
C1226 C1225 1.362 . S
C1226 C1229 1.409 . S
C1227 H1219 0.930 . S
C1227 C1228 1.355 . S
C1227 C1229 1.415 . S
C1228 C1227 1.355 . S
C1228 C1230 1.419 . S
C1229 C1224 1.425 . S
C1229 C1226 1.409 . S
C1229 C1227 1.415 . S
C1230 H1220 0.930 . S
C1230 C1228 1.419 . S
C1230 C1231 1.362 . S
C1231 H1221 0.930 . S
C1231 C1224 1.409 . S
C1231 C1230 1.362 . S
H1232 C1238 0.930 . S
H1233 C1241 0.930 . S
H1234 C1242 0.930 . S
H1235 C1243 0.930 . S
H1236 C1246 0.930 . S
H1237 C1247 0.930 . S
C1238 H1232 0.930 . S
C1238 C1239 1.355 . S
C1238 C1240 1.415 . S
C1239 C1238 1.355 . S
C1239 C1241 1.419 . S
C1240 C1238 1.415 . S
C1240 C1245 1.425 . S
C1240 C1247 1.409 . S
C1241 H1233 0.930 . S
C1241 C1239 1.419 . S
C1241 C1242 1.362 . S
C1242 H1234 0.930 . S
C1242 C1241 1.362 . S
C1242 C1245 1.409 . S
C1243 H1235 0.930 . S
C1243 C1244 1.355 . S
C1243 C1245 1.415 . S
C1244 C1243 1.355 . S
C1244 C1246 1.419 . S
C1245 C1240 1.425 . S
C1245 C1242 1.409 . S
C1245 C1243 1.415 . S
C1246 H1236 0.930 . S
C1246 C1244 1.419 . S
C1246 C1247 1.362 . S
C1247 H1237 0.930 . S
C1247 C1240 1.409 . S
C1247 C1246 1.362 . S
H1248 C1254 0.930 . S
H1249 C1257 0.930 . S
H1250 C1258 0.930 . S
H1251 C1259 0.930 . S
H1252 C1262 0.930 . S
H1253 C1263 0.930 . S
C1254 H1248 0.930 . S
C1254 C1255 1.355 . S
C1254 C1256 1.415 . S
C1255 C1254 1.355 . S
C1255 C1257 1.419 . S
C1256 C1254 1.415 . S
C1256 C1261 1.425 . S
C1256 C1263 1.409 . S
C1257 H1249 0.930 . S
C1257 C1255 1.419 . S
C1257 C1258 1.362 . S
C1258 H1250 0.930 . S
C1258 C1257 1.362 . S
C1258 C1261 1.409 . S
C1259 H1251 0.930 . S
C1259 C1260 1.355 . S
C1259 C1261 1.415 . S
C1260 C1259 1.355 . S
C1260 C1262 1.419 . S
C1261 C1256 1.425 . S
C1261 C1258 1.409 . S
C1261 C1259 1.415 . S
C1262 H1252 0.930 . S
C1262 C1260 1.419 . S
C1262 C1263 1.362 . S
C1263 H1253 0.930 . S
C1263 C1256 1.409 . S
C1263 C1262 1.362 . S
H1264 C1270 0.930 . S
H1265 C1273 0.930 . S
H1266 C1274 0.930 . S
H1267 C1275 0.930 . S
H1268 C1278 0.930 . S
H1269 C1279 0.930 . S
C1270 H1264 0.930 . S
C1270 C1271 1.355 . S
C1270 C1272 1.415 . S
C1271 C1270 1.355 . S
C1271 C1273 1.419 . S
C1272 C1270 1.415 . S
C1272 C1277 1.425 . S
C1272 C1279 1.409 . S
C1273 H1265 0.930 . S
C1273 C1271 1.419 . S
C1273 C1274 1.362 . S
C1274 H1266 0.930 . S
C1274 C1273 1.362 . S
C1274 C1277 1.409 . S
C1275 H1267 0.930 . S
C1275 C1276 1.355 . S
C1275 C1277 1.415 . S
C1276 C1275 1.355 . S
C1276 C1278 1.419 . S
C1277 C1272 1.425 . S
C1277 C1274 1.409 . S
C1277 C1275 1.415 . S
C1278 H1268 0.930 . S
C1278 C1276 1.419 . S
C1278 C1279 1.362 . S
C1279 H1269 0.930 . S
C1279 C1272 1.409 . S
C1279 C1278 1.362 . S
H1280 C1286 0.930 . S
H1281 C1289 0.930 . S
H1282 C1290 0.930 . S
H1283 C1291 0.930 . S
H1284 C1294 0.930 . S
H1285 C1295 0.930 . S
C1286 H1280 0.930 . S
C1286 C1287 1.355 . S
C1286 C1288 1.415 . S
C1287 C1286 1.355 . S
C1287 C1289 1.419 . S
C1288 C1286 1.415 . S
C1288 C1293 1.425 . S
C1288 C1295 1.409 . S
C1289 H1281 0.930 . S
C1289 C1287 1.419 . S
C1289 C1290 1.362 . S
C1290 H1282 0.930 . S
C1290 C1289 1.362 . S
C1290 C1293 1.409 . S
C1291 H1283 0.930 . S
C1291 C1292 1.355 . S
C1291 C1293 1.415 . S
C1292 C1291 1.355 . S
C1292 C1294 1.419 . S
C1293 C1288 1.425 . S
C1293 C1290 1.409 . S
C1293 C1291 1.415 . S
C1294 H1284 0.930 . S
C1294 C1292 1.419 . S
C1294 C1295 1.362 . S
C1295 H1285 0.930 . S
C1295 C1288 1.409 . S
C1295 C1294 1.362 . S
H1296 C1302 0.930 . S
H1297 C1305 0.930 . S
H1298 C1306 0.930 . S
H1299 C1307 0.930 . S
H1300 C1310 0.930 . S
H1301 C1311 0.930 . S
C1302 H1296 0.930 . S
C1302 C1303 1.355 . S
C1302 C1304 1.415 . S
C1303 C1302 1.355 . S
C1303 C1305 1.419 . S
C1304 C1302 1.415 . S
C1304 C1309 1.425 . S
C1304 C1311 1.409 . S
C1305 H1297 0.930 . S
C1305 C1303 1.419 . S
C1305 C1306 1.362 . S
C1306 H1298 0.930 . S
C1306 C1305 1.362 . S
C1306 C1309 1.409 . S
C1307 H1299 0.930 . S
C1307 C1308 1.355 . S
C1307 C1309 1.415 . S
C1308 C1307 1.355 . S
C1308 C1310 1.419 . S
C1309 C1304 1.425 . S
C1309 C1306 1.409 . S
C1309 C1307 1.415 . S
C1310 H1300 0.930 . S
C1310 C1308 1.419 . S
C1310 C1311 1.362 . S
C1311 H1301 0.930 . S
C1311 C1304 1.409 . S
C1311 C1310 1.362 . S
H1312 C1318 0.930 . S
H1313 C1321 0.930 . S
H1314 C1322 0.930 . S
H1315 C1323 0.930 . S
H1316 C1326 0.930 . S
H1317 C1327 0.930 . S
C1318 H1312 0.930 . S
C1318 C1319 1.355 . S
C1318 C1320 1.415 . S
C1319 C1318 1.355 . S
C1319 C1321 1.419 . S
C1320 C1318 1.415 . S
C1320 C1325 1.425 . S
C1320 C1327 1.409 . S
C1321 H1313 0.930 . S
C1321 C1319 1.419 . S
C1321 C1322 1.362 . S
C1322 H1314 0.930 . S
C1322 C1321 1.362 . S
C1322 C1325 1.409 . S
C1323 H1315 0.930 . S
C1323 C1324 1.355 . S
C1323 C1325 1.415 . S
C1324 C1323 1.355 . S
C1324 C1326 1.419 . S
C1325 C1320 1.425 . S
C1325 C1322 1.409 . S
C1325 C1323 1.415 . S
C1326 H1316 0.930 . S
C1326 C1324 1.419 . S
C1326 C1327 1.362 . S
C1327 H1317 0.930 . S
C1327 C1320 1.409 . S
C1327 C1326 1.362 . S
H1328 C1334 0.930 . S
H1329 C1337 0.930 . S
H1330 C1338 0.930 . S
H1331 C1339 0.930 . S
H1332 C1342 0.930 . S
H1333 C1343 0.930 . S
C1334 H1328 0.930 . S
C1334 C1335 1.355 . S
C1334 C1336 1.415 . S
C1335 C1334 1.355 . S
C1335 C1337 1.419 . S
C1336 C1334 1.415 . S
C1336 C1341 1.425 . S
C1336 C1343 1.409 . S
C1337 H1329 0.930 . S
C1337 C1335 1.419 . S
C1337 C1338 1.362 . S
C1338 H1330 0.930 . S
C1338 C1337 1.362 . S
C1338 C1341 1.409 . S
C1339 H1331 0.930 . S
C1339 C1340 1.355 . S
C1339 C1341 1.415 . S
C1340 C1339 1.355 . S
C1340 C1342 1.419 . S
C1341 C1336 1.425 . S
C1341 C1338 1.409 . S
C1341 C1339 1.415 . S
C1342 H1332 0.930 . S
C1342 C1340 1.419 . S
C1342 C1343 1.362 . S
C1343 H1333 0.930 . S
C1343 C1336 1.409 . S
C1343 C1342 1.362 . S
H1344 C1350 0.930 . S
H1345 C1353 0.930 . S
H1346 C1354 0.930 . S
H1347 C1355 0.930 . S
H1348 C1358 0.930 . S
H1349 C1359 0.930 . S
C1350 H1344 0.930 . S
C1350 C1351 1.355 . S
C1350 C1352 1.415 . S
C1351 C1350 1.355 . S
C1351 C1353 1.419 . S
C1352 C1350 1.415 . S
C1352 C1357 1.425 . S
C1352 C1359 1.409 . S
C1353 H1345 0.930 . S
C1353 C1351 1.419 . S
C1353 C1354 1.362 . S
C1354 H1346 0.930 . S
C1354 C1353 1.362 . S
C1354 C1357 1.409 . S
C1355 H1347 0.930 . S
C1355 C1356 1.355 . S
C1355 C1357 1.415 . S
C1356 C1355 1.355 . S
C1356 C1358 1.419 . S
C1357 C1352 1.425 . S
C1357 C1354 1.409 . S
C1357 C1355 1.415 . S
C1358 H1348 0.930 . S
C1358 C1356 1.419 . S
C1358 C1359 1.362 . S
C1359 H1349 0.930 . S
C1359 C1352 1.409 . S
C1359 C1358 1.362 . S
H1360 C1366 0.930 . S
H1361 C1369 0.930 1_554 S
H1362 C1370 0.930 . S
H1363 C1371 0.930 . S
H1364 C1374 0.930 . S
H1365 C1375 0.930 . S
C1366 H1360 0.930 . S
C1366 C1367 1.355 . S
C1366 C1368 1.415 . S
C1367 C1366 1.355 . S
C1367 C1369 1.419 . S
C1368 C1366 1.415 . S
C1368 C1373 1.425 . S
C1368 C1375 1.409 . S
C1369 H1361 0.930 1_556 S
C1369 C1367 1.419 . S
C1369 C1370 1.362 . S
C1370 H1362 0.930 . S
C1370 C1369 1.362 . S
C1370 C1373 1.409 . S
C1371 H1363 0.930 . S
C1371 C1372 1.355 . S
C1371 C1373 1.415 . S
C1372 C1371 1.355 . S
C1372 C1374 1.419 . S
C1373 C1368 1.425 . S
C1373 C1370 1.409 . S
C1373 C1371 1.415 . S
C1374 H1364 0.930 . S
C1374 C1372 1.419 . S
C1374 C1375 1.362 . S
C1375 H1365 0.930 . S
C1375 C1368 1.409 . S
C1375 C1374 1.362 . S
H1376 C1382 0.930 . S
H1377 C1385 0.930 . S
H1378 C1386 0.930 . S
H1379 C1387 0.930 . S
H1380 C1390 0.930 . S
H1381 C1391 0.930 . S
C1382 H1376 0.930 . S
C1382 C1383 1.355 . S
C1382 C1384 1.415 . S
C1383 C1382 1.355 . S
C1383 C1385 1.419 . S
C1384 C1382 1.415 . S
C1384 C1389 1.425 . S
C1384 C1391 1.409 . S
C1385 H1377 0.930 . S
C1385 C1383 1.419 . S
C1385 C1386 1.362 . S
C1386 H1378 0.930 . S
C1386 C1385 1.362 . S
C1386 C1389 1.409 . S
C1387 H1379 0.930 . S
C1387 C1388 1.355 . S
C1387 C1389 1.415 . S
C1388 C1387 1.355 . S
C1388 C1390 1.419 . S
C1389 C1384 1.425 . S
C1389 C1386 1.409 . S
C1389 C1387 1.415 . S
C1390 H1380 0.930 . S
C1390 C1388 1.419 . S
C1390 C1391 1.362 . S
C1391 H1381 0.930 . S
C1391 C1384 1.409 . S
C1391 C1390 1.362 . S
H1392 C1398 0.930 . S
H1393 C1401 0.930 . S
H1394 C1402 0.930 . S
H1395 C1403 0.930 . S
H1396 C1406 0.930 1_554 S
H1397 C1407 0.930 . S
C1398 H1392 0.930 . S
C1398 C1399 1.355 . S
C1398 C1400 1.415 . S
C1399 C1398 1.355 . S
C1399 C1401 1.419 . S
C1400 C1398 1.415 . S
C1400 C1405 1.425 . S
C1400 C1407 1.409 . S
C1401 H1393 0.930 . S
C1401 C1399 1.419 . S
C1401 C1402 1.362 . S
C1402 H1394 0.930 . S
C1402 C1401 1.362 . S
C1402 C1405 1.409 . S
C1403 H1395 0.930 . S
C1403 C1404 1.355 . S
C1403 C1405 1.415 . S
C1404 C1403 1.355 . S
C1404 C1406 1.419 . S
C1405 C1400 1.425 . S
C1405 C1402 1.409 . S
C1405 C1403 1.415 . S
C1406 H1396 0.930 1_556 S
C1406 C1404 1.419 . S
C1406 C1407 1.362 . S
C1407 H1397 0.930 . S
C1407 C1400 1.409 . S
C1407 C1406 1.362 . S
C647 C459 1.741 . S
C652 C18 1.734 . S
C663 C330 1.714 . S
C668 C49 1.686 . S
C679 C98 1.738 . S
C684 C379 1.747 . S
C695 C129 1.741 . S
C700 C410 1.753 . S
C711 C178 1.694 . S
C716 C219 1.738 . S
C727 C250 1.726 . S
C732 C209 1.716 . S
C743 C258 1.681 . S
C748 C299 1.718 . S
C759 C170 1.746 . S
C764 C289 1.703 . S
C775 C139 1.729 . S
C780 C338 1.686 . S
C791 C369 1.682 . S
C796 C10 1.721 . S
C807 C59 1.758 . S
C812 C418 1.741 . S
C823 C90 1.740 . S
C828 C449 1.696 . S
C839 C498 1.682 . S
C844 C539 1.716 . S
C855 C570 1.714 . S
C860 C529 1.687 . S
C871 C619 1.734 . S
C876 C578 1.689 . S
C887 C609 1.683 . S
C892 C490 1.716 . S
C903 C9 1.193 . S
C908 C169 1.154 . S
C919 C218 1.157 . S
C924 C58 1.155 . S
C935 C89 1.246 . S
C940 C249 1.200 . S
C951 C138 1.150 . S
C956 C298 1.172 . S
C967 C329 1.225 . S
C972 C489 1.175 . S
C983 C538 1.150 . S
C988 C378 1.169 . S
C999 C409 1.190 . S
C1004 C569 1.239 . S
C1015 C458 1.247 . S
C1020 C618 1.201 . S
C1031 C579 2.335 . S
C1036 C19 2.329 1_556 S
C1047 C50 2.338 1_554 S
C1052 C610 2.332 . S
C1063 C99 2.341 1_556 S
C1068 C499 2.348 . S
C1079 C130 2.356 1_554 S
C1084 C530 2.351 . S
C1095 C179 2.360 . S
C1100 C419 2.358 . S
C1111 C210 2.360 . S
C1116 C450 2.360 . S
C1127 C259 2.318 . S
C1132 C339 2.318 . S
C1143 C370 2.326 . S
C1148 C290 2.332 . S
C1159 C6 1.096 . S
C1164 C15 1.096 . S
C1175 C55 1.072 . S
C1180 C46 1.072 . S
C1191 C86 1.096 . S
C1196 C95 1.096 . S
C1207 C126 1.061 . S
C1212 C135 1.061 . S
C1223 C175 1.080 . S
C1228 C166 1.080 . S
C1239 C215 1.058 . S
C1244 C206 1.058 . S
C1255 C246 1.095 . S
C1260 C255 1.095 . S
C1271 C286 1.073 . S
C1276 C295 1.073 . S
C1287 C326 1.068 1_554 S
C1292 C335 1.068 . S
C1303 C366 1.094 . S
C1308 C375 1.094 1_556 S
C1319 C415 1.061 . S
C1324 C406 1.061 1_554 S
C1335 C455 1.096 1_556 S
C1340 C446 1.096 . S
C1351 C486 1.073 . S
C1356 C495 1.073 1_554 S
C1367 C526 1.062 1_556 S
C1372 C535 1.062 . S
C1383 C575 1.091 1_554 S
C1388 C566 1.091 . S
C1399 C615 1.059 . S
C1404 C606 1.059 1_556 S
