# Generated by pormake.
# Topology ooa, (5)-cn, num edge types: 1
# Building blocks:
#     Node 0, Type 0, BuildingBlock: XOMCOT_clean_sbu_0, # of connection points: 5
#     Node 1, Type 0, BuildingBlock: XOMCOT_clean_sbu_0, # of connection points: 5
#     Node 2, Type 0, BuildingBlock: XOMCOT_clean_sbu_0, # of connection points: 5
#     Node 3, Type 0, BuildingBlock: XOMCOT_clean_sbu_0, # of connection points: 5
#     Node 4, Type 0, BuildingBlock: XOMCOT_clean_sbu_0, # of connection points: 5
#     Node 5, Type 0, BuildingBlock: XOMCOT_clean_sbu_0, # of connection points: 5
#     Node 6, Type 0, BuildingBlock: XOMCOT_clean_sbu_0, # of connection points: 5
#     Node 7, Type 0, BuildingBlock: XOMCOT_clean_sbu_0, # of connection points: 5
#     Edge 8, Type (0, 0), BuildingBlock: MIFKUJ_clean_linker_0, # of connection points: 2
#     Edge 9, Type (0, 0), BuildingBlock: MIFKUJ_clean_linker_0, # of connection points: 2
#     Edge 10, Type (0, 0), BuildingBlock: MIFKUJ_clean_linker_0, # of connection points: 2
#     Edge 11, Type (0, 0), BuildingBlock: MIFKUJ_clean_linker_0, # of connection points: 2
#     Edge 12, Type (0, 0), BuildingBlock: MIFKUJ_clean_linker_0, # of connection points: 2
#     Edge 13, Type (0, 0), BuildingBlock: MIFKUJ_clean_linker_0, # of connection points: 2
#     Edge 14, Type (0, 0), BuildingBlock: MIFKUJ_clean_linker_0, # of connection points: 2
#     Edge 15, Type (0, 0), BuildingBlock: MIFKUJ_clean_linker_0, # of connection points: 2
#     Edge 16, Type (0, 0), BuildingBlock: MIFKUJ_clean_linker_0, # of connection points: 2
#     Edge 17, Type (0, 0), BuildingBlock: MIFKUJ_clean_linker_0, # of connection points: 2
#     Edge 18, Type (0, 0), BuildingBlock: MIFKUJ_clean_linker_0, # of connection points: 2
#     Edge 19, Type (0, 0), BuildingBlock: MIFKUJ_clean_linker_0, # of connection points: 2
#     Edge 20, Type (0, 0), BuildingBlock: MIFKUJ_clean_linker_0, # of connection points: 2
#     Edge 21, Type (0, 0), BuildingBlock: MIFKUJ_clean_linker_0, # of connection points: 2
#     Edge 22, Type (0, 0), BuildingBlock: MIFKUJ_clean_linker_0, # of connection points: 2
#     Edge 23, Type (0, 0), BuildingBlock: MIFKUJ_clean_linker_0, # of connection points: 2
#     Edge 24, Type (0, 0), BuildingBlock: MIFKUJ_clean_linker_0, # of connection points: 2
#     Edge 25, Type (0, 0), BuildingBlock: MIFKUJ_clean_linker_0, # of connection points: 2
#     Edge 26, Type (0, 0), BuildingBlock: MIFKUJ_clean_linker_0, # of connection points: 2
#     Edge 27, Type (0, 0), BuildingBlock: MIFKUJ_clean_linker_0, # of connection points: 2
# Relax obj value: 0.356
# Max RMSD: 0.213
# Mean RMSD: 0.213
data_MOF--net-ooa--node1-XOMCOT_clean_sbu_0--edge1-MIFKUJ_clean_linker_0
_symmetry_space_group_name_H-M    P1
_symmetry_Int_Tables_number       1
_symmetry_cell_setting            triclinic
loop_
_symmetry_equiv_pos_as_xyz
'x, y, z'
_cell_length_a     37.741749
_cell_length_b     40.075059
_cell_length_c     60.243662
_cell_angle_alpha  89.92583
_cell_angle_beta   90.053393
_cell_angle_gamma 89.973389
loop_
_atom_site_label
_atom_site_type_symbol
_atom_site_fract_x
_atom_site_fract_y
_atom_site_fract_z
_atom_type_partial_charge
Co0 Co 0.07428 0.204 0.06381 0.0
C1 C 1.00945 0.23837 0.04794 0.0
C2 C 0.05314 0.2449 0.02575 0.0
C3 C 0.02265 0.255 0.01511 0.0
N4 N 0.04515 0.23469 0.04651 0.0
N5 N 0.99513 0.25067 0.02904 0.0
H6 H 0.9936 0.22841 0.06128 0.0
H7 H 0.07871 0.24178 0.01794 0.0
C8 C 0.12938 0.25739 0.05102 0.0
O9 O 0.1064 0.282 0.0508 0.0
N10 N 0.10234 0.17253 0.08041 0.0
C11 C 0.0948 0.15938 0.10044 0.0
C12 C 0.11933 0.13501 0.10513 0.0
C13 C 0.13099 0.15588 0.07306 0.0
N14 N 0.14193 0.13268 0.08783 0.0
C15 C 0.03576 0.22619 0.10227 0.0
C16 C 0.09414 0.25064 0.12466 0.0
C17 C 0.06266 0.24561 0.13652 0.0
C18 C 0.0328 0.2345 0.12479 0.0
C19 C 0.09598 0.24216 0.10219 0.0
N20 N 0.06729 0.22919 0.09129 0.0
H21 H 0.01352 0.21421 0.09441 0.0
H22 H 0.12162 0.24314 0.09442 0.0
H23 H 0.07238 0.16616 0.11062 0.0
H24 H 0.14233 0.15958 0.05676 0.0
O25 O 0.03483 0.17282 0.06541 0.0
O26 O 0.0753 0.17453 0.0388 0.0
O27 O 0.11983 0.22783 0.05615 0.0
C28 C 0.04768 0.16003 0.04721 0.0
H29 H 0.02052 0.26246 0.99789 0.0
H30 H 0.11997 0.11981 0.11997 0.0
H31 H 0.11786 0.25933 0.13298 0.0
H32 H 1.00806 0.22969 0.13331 0.0
Co33 Co 0.4538 0.79133 0.06316 0.0
C34 C 0.51709 0.75425 0.04851 0.0
C35 C 0.4708 0.73596 0.0321 0.0
C36 C 0.50031 0.72195 0.02225 0.0
N37 N 0.48123 0.75603 0.04885 0.0
N38 N 0.52949 0.73386 0.03244 0.0
H39 H 0.53405 0.76959 0.05869 0.0
H40 H 0.44404 0.73395 0.02589 0.0
C41 C 0.3931 0.74175 0.05702 0.0
O42 O 0.41038 0.71801 0.06749 0.0
N43 N 0.42814 0.82738 0.07699 0.0
C44 C 0.43783 0.84217 0.09613 0.0
C45 C 0.41899 0.87117 0.09852 0.0
C46 C 0.40368 0.84774 0.06781 0.0
N47 N 0.39778 0.87478 0.08067 0.0
C48 C 0.48707 0.76296 0.10187 0.0
C49 C 0.42564 0.75711 0.12654 0.0
C50 C 0.4583 0.75258 0.13726 0.0
C51 C 0.48924 0.75469 0.12442 0.0
C52 C 0.42464 0.76537 0.104 0.0
N53 N 0.45513 0.76867 0.09191 0.0
H54 H 0.51133 0.76706 0.09293 0.0
H55 H 0.39937 0.77187 0.09677 0.0
H56 H 0.45871 0.83345 0.107 0.0
H57 H 0.39243 0.84409 0.05146 0.0
O58 O 0.49595 0.81885 0.06566 0.0
O59 O 0.4592 0.8179 0.03687 0.0
O60 O 0.40714 0.77045 0.05429 0.0
C61 C 0.48693 0.83081 0.04631 0.0
H62 H 0.50031 0.70661 0.00748 0.0
H63 H 0.42154 0.88884 0.112 0.0
H64 H 0.40105 0.75658 0.13578 0.0
H65 H 0.51509 0.75128 0.1319 0.0
Co66 Co 0.07164 0.28765 0.45142 0.0
C67 C 1.005 0.25524 0.46604 0.0
C68 C 0.05013 0.23267 0.48148 0.0
C69 C 0.01988 0.22048 0.49146 0.0
N70 N 0.04094 0.2544 0.46534 0.0
N71 N 0.99148 0.23484 0.48178 0.0
H72 H 0.98899 0.27272 0.45674 0.0
H73 H 0.07683 0.22797 0.4871 0.0
C74 C 0.13078 0.235 0.45755 0.0
O75 O 0.11425 0.21145 0.44649 0.0
N76 N 0.10135 0.32137 0.43831 0.0
C77 C 0.09463 0.33932 0.41988 0.0
C78 C 0.12172 0.36186 0.41696 0.0
C79 C 0.1319 0.33341 0.44656 0.0
N80 N 0.14511 0.35808 0.43376 0.0
C81 C 0.03638 0.26191 0.41272 0.0
C82 C 0.09695 0.25393 0.3875 0.0
C83 C 0.06388 0.25135 0.37693 0.0
C84 C 0.03336 0.25437 0.39011 0.0
C85 C 0.09879 0.26117 0.4102 0.0
N86 N 0.06875 0.26576 0.4225 0.0
H87 H 0.01254 0.26682 0.42195 0.0
H88 H 0.12453 0.26582 0.41741 0.0
H89 H 0.07143 0.33647 0.40949 0.0
H90 H 0.14396 0.32444 0.46171 0.0
O91 O 0.03216 0.31846 0.44877 0.0
O92 O 0.06826 0.31427 0.47773 0.0
O93 O 0.11623 0.26339 0.46052 0.0
C94 C 0.04199 0.32956 0.46818 0.0
H95 H 0.01898 0.20374 0.50556 0.0
H96 H 0.12347 0.38025 0.40384 0.0
H97 H 0.12136 0.25258 0.37813 0.0
H98 H 1.00718 0.25222 0.3829 0.0
Co99 Co 0.44859 0.69737 0.4502 0.0
C100 C 0.5111 0.73527 0.46578 0.0
C101 C 0.46464 0.74824 0.48416 0.0
C102 C 0.49369 0.76194 0.49459 0.0
N103 N 0.47534 0.73176 0.46583 0.0
N104 N 0.523 0.75352 0.48312 0.0
H105 H 0.52854 0.72168 0.45483 0.0
H106 H 0.43815 0.74769 0.4909 0.0
C107 C 0.38783 0.74619 0.45899 0.0
O108 O 0.4062 0.77176 0.45166 0.0
N109 N 0.42322 0.6622 0.43521 0.0
C110 C 0.43149 0.6493 0.41523 0.0
C111 C 0.4129 0.62019 0.41235 0.0
C112 C 0.40017 0.64056 0.44439 0.0
N113 N 0.39346 0.61457 0.43076 0.0
C114 C 0.48164 0.72679 0.41187 0.0
C115 C 0.41955 0.73645 0.38835 0.0
C116 C 0.4519 0.73936 0.37707 0.0
C117 C 0.48326 0.73558 0.38937 0.0
C118 C 0.41909 0.72746 0.41075 0.0
N119 N 0.44987 0.72208 0.42223 0.0
H120 H 0.50601 0.72103 0.42034 0.0
H121 H 0.39379 0.72181 0.41817 0.0
H122 H 0.4514 0.65917 0.40412 0.0
H123 H 0.38998 0.643 0.46109 0.0
O124 O 0.49097 0.67037 0.447 0.0
O125 O 0.45399 0.66895 0.47562 0.0
O126 O 0.4015 0.71704 0.45931 0.0
C127 C 0.48169 0.65672 0.46578 0.0
H128 H 0.49338 0.77516 0.51025 0.0
H129 H 0.41534 0.60336 0.39839 0.0
H130 H 0.3946 0.73937 0.37967 0.0
H131 H 0.5089 0.73702 0.38137 0.0
Co132 Co 0.95144 0.78806 0.95176 0.0
C133 C 0.01676 0.75488 0.96767 0.0
C134 C 0.97105 0.73318 0.98283 0.0
C135 C 1.00098 0.71979 0.99255 0.0
N136 N 0.98086 0.75494 0.96691 0.0
N137 N 0.02994 0.73366 0.98314 0.0
H138 H 0.03288 0.77201 0.95828 0.0
H139 H 0.94423 0.72893 0.98833 0.0
C140 C 0.89221 0.73576 0.95834 0.0
O141 O 0.9099 0.71123 0.94906 0.0
N142 N 0.92342 0.82161 0.93699 0.0
C143 C 0.93274 0.83812 0.91843 0.0
C144 C 0.90736 0.86171 0.91394 0.0
C145 C 0.89274 0.83545 0.94371 0.0
N146 N 0.88214 0.86006 0.92981 0.0
C147 C 0.98855 0.76293 0.91376 0.0
C148 C 0.92883 0.74998 0.88856 0.0
C149 C 0.96204 0.74944 0.8782 0.0
C150 C 0.99222 0.75518 0.89123 0.0
C151 C 0.92629 0.75829 0.91105 0.0
N152 N 0.95589 0.76503 0.92337 0.0
H153 H 0.01191 0.76977 0.92296 0.0
H154 H 0.90022 0.76214 0.91792 0.0
H155 H 0.95683 0.83383 0.90915 0.0
H156 H 0.87896 0.82801 0.95863 0.0
O157 O 0.99156 0.8183 0.94983 0.0
O158 O 0.95338 0.81558 0.97773 0.0
O159 O 0.906 0.7647 0.96012 0.0
C160 C 0.9807 0.83001 0.96884 0.0
H161 H 1.001 0.70239 1.00627 0.0
H162 H 0.90831 0.87959 0.90048 0.0
H163 H 0.90477 0.74651 0.87902 0.0
H164 H 0.01838 0.75513 0.88386 0.0
Co165 Co 0.56859 0.1995 0.95014 0.0
C166 C 0.50746 0.24042 0.96475 0.0
C167 C 0.55206 0.24529 0.98645 0.0
C168 C 0.52282 0.25859 0.99683 0.0
N169 N 0.54276 0.23409 0.96614 0.0
N170 N 0.49473 0.25533 0.98323 0.0
H171 H 0.49042 0.23046 0.95199 0.0
H172 H 0.57733 0.24062 0.99433 0.0
C173 C 0.62851 0.24831 0.96137 0.0
O174 O 0.60806 0.27464 0.95927 0.0
N175 N 0.59323 0.16414 0.93499 0.0
C176 C 0.58358 0.14976 0.91571 0.0
C177 C 0.60372 0.12154 0.91266 0.0
C178 C 0.61891 0.14454 0.94348 0.0
N179 N 0.62574 0.11822 0.93018 0.0
C180 C 0.53444 0.22516 0.91094 0.0
C181 C 0.5961 0.24082 0.88854 0.0
C182 C 0.56411 0.24067 0.87666 0.0
C183 C 0.53285 0.23375 0.8884 0.0
C184 C 0.59657 0.23199 0.911 0.0
N185 N 0.56606 0.22375 0.92197 0.0
H186 H 0.51049 0.21679 0.91886 0.0
H187 H 0.62205 0.22907 0.91882 0.0
H188 H 0.56219 0.15822 0.90516 0.0
H189 H 0.63064 0.14829 0.95969 0.0
O190 O 0.52566 0.17292 0.94813 0.0
O191 O 0.5644 0.17148 0.97585 0.0
O192 O 0.61635 0.21901 0.95809 0.0
C193 C 0.53566 0.15978 0.96693 0.0
H194 H 0.5217 0.26735 0.01381 0.0
H195 H 0.60164 0.10433 0.89889 0.0
H196 H 0.62096 0.24616 0.88031 0.0
H197 H 0.50756 0.23261 0.87993 0.0
Co198 Co 0.94711 0.70016 0.56482 0.0
C199 C 0.01182 0.73359 0.54888 0.0
C200 C 0.9661 0.75557 0.5338 0.0
C201 C 0.9961 0.76869 0.5239 0.0
N202 N 0.97595 0.73375 0.54975 0.0
N203 N 0.0248 0.75444 0.53328 0.0
H204 H 0.02835 0.71694 0.55847 0.0
H205 H 0.93925 0.7598 0.5283 0.0
C206 C 0.88625 0.75103 0.55785 0.0
O207 O 0.90274 0.77619 0.56726 0.0
N208 N 0.91998 0.66611 0.57962 0.0
C209 C 0.93096 0.64832 0.59735 0.0
C210 C 0.9064 0.6239 0.60171 0.0
C211 C 0.8889 0.65251 0.57343 0.0
N212 N 0.88008 0.62673 0.58672 0.0
C213 C 0.98377 0.72592 0.60282 0.0
C214 C 0.92388 0.73776 0.62803 0.0
C215 C 0.95713 0.73908 0.63837 0.0
C216 C 0.98737 0.7339 0.62531 0.0
C217 C 0.92143 0.72935 0.60555 0.0
N218 N 0.95113 0.72318 0.59322 0.0
H219 H 1.00724 0.71953 0.59362 0.0
H220 H 0.89544 0.72508 0.59863 0.0
H221 H 0.95567 0.65227 0.60608 0.0
H222 H 0.87395 0.66017 0.55896 0.0
O223 O 0.98782 0.67051 0.56669 0.0
O224 O 0.94947 0.67285 0.53881 0.0
O225 O 0.90118 0.72257 0.55632 0.0
C226 C 0.97707 0.6588 0.54764 0.0
H227 H 0.99664 0.78532 0.50973 0.0
H228 H 0.90795 0.60517 0.61464 0.0
H229 H 0.89978 0.74084 0.63756 0.0
H230 H 0.01359 0.73464 0.63262 0.0
Co231 Co 0.56283 0.29354 0.56196 0.0
C232 C 0.50496 0.24927 0.54727 0.0
C233 C 0.55241 0.24023 0.52892 0.0
C234 C 0.52471 0.22439 0.51838 0.0
N235 N 0.54026 0.25565 0.54731 0.0
N236 N 0.49471 0.23042 0.52982 0.0
H237 H 0.48625 0.26175 0.55797 0.0
H238 H 0.57865 0.24332 0.52207 0.0
C239 C 0.627 0.24835 0.55543 0.0
O240 O 0.609 0.22203 0.5619 0.0
N241 N 0.5837 0.3321 0.57585 0.0
C242 C 0.57029 0.34826 0.59357 0.0
C243 C 0.58737 0.37836 0.59571 0.0
C244 C 0.60871 0.35245 0.56741 0.0
N245 N 0.61132 0.38094 0.57923 0.0
C246 C 0.53092 0.2648 0.60101 0.0
C247 C 0.59266 0.26191 0.62568 0.0
C248 C 0.56031 0.25608 0.63647 0.0
C249 C 0.52925 0.25675 0.62362 0.0
C250 C 0.59317 0.26983 0.60306 0.0
N251 N 0.56253 0.27156 0.59096 0.0
H252 H 0.50645 0.26784 0.59208 0.0
H253 H 0.61809 0.27727 0.59582 0.0
H254 H 0.54838 0.33948 0.60354 0.0
H255 H 0.62315 0.34741 0.55227 0.0
O256 O 0.5177 0.31665 0.56317 0.0
O257 O 0.556 0.319 0.53527 0.0
O258 O 0.61221 0.277 0.55473 0.0
C259 C 0.52636 0.3291 0.54392 0.0
H260 H 0.52618 0.21173 0.50255 0.0
H261 H 0.58221 0.39716 0.60819 0.0
H262 H 0.61729 0.26256 0.6349 0.0
H263 H 0.50362 0.25234 0.63112 0.0
H264 H 1.00385 0.11373 0.06642 0.0
H265 H 0.99329 0.05656 0.05338 0.0
H266 H 0.05375 0.07714 0.9942 0.0
H267 H 0.06454 0.13385 1.00711 0.0
H268 H 0.96371 0.02832 0.01642 0.0
H269 H 0.10686 0.00921 0.98316 0.0
H270 H 0.16734 0.02991 0.99047 0.0
H271 H 0.13796 0.05409 0.05734 0.0
H272 H 0.0777 0.03303 0.05064 0.0
H273 H 0.02489 0.87583 0.94954 0.0
H274 H 0.03822 0.93197 0.96345 0.0
H275 H 0.9817 0.91002 0.02392 0.0
H276 H 0.96807 0.85428 0.01014 0.0
H277 H 0.07027 0.95925 1.00131 0.0
H278 H 0.92893 0.97771 0.03578 0.0
H279 H 0.8687 0.95549 0.02995 0.0
H280 H 0.89468 0.93159 0.96243 0.0
H281 H 0.95468 0.9543 0.9677 0.0
C282 C 0.0142 0.10622 0.05043 0.0
C283 C 0.03525 0.12811 0.03787 0.0
C284 C 1.0083 0.07357 0.04305 0.0
C285 C 0.02347 0.06245 0.02308 0.0
C286 C 0.04249 0.085 0.00989 0.0
C287 C 0.04844 0.11747 0.01724 0.0
C288 C 0.02072 0.02699 0.01636 0.0
C289 C 0.98699 0.01309 0.0134 0.0
C290 C 0.05119 0.00735 0.01202 0.0
C291 C 0.08758 0.01991 0.01628 0.0
C292 C 0.11336 0.01887 0.99946 0.0
C293 C 0.14765 0.03065 1.00351 0.0
C294 C 0.1565 0.04345 0.02435 0.0
C295 C 0.13112 0.04434 0.0412 0.0
C296 C 0.09687 0.0325 0.03727 0.0
C297 C 0.01606 0.88274 0.96601 0.0
C298 C 0.99511 0.86086 0.97865 0.0
C299 C 0.02363 0.9148 0.97391 0.0
C300 C 1.01028 0.92531 0.9945 0.0
C301 C 0.99168 0.90258 0.00781 0.0
C302 C 0.98402 0.8707 0.99993 0.0
C303 C 0.01329 0.96065 1.0014 0.0
C304 C 0.04704 0.97453 1.00433 0.0
C305 C 0.98286 0.98025 1.00583 0.0
C306 C 0.94646 0.96734 1.00224 0.0
C307 C 0.92171 0.96787 0.01966 0.0
C308 C 0.8876 0.95518 0.01646 0.0
C309 C 0.87792 0.94197 0.99589 0.0
C310 C 0.90224 0.94159 0.97842 0.0
C311 C 0.93631 0.95442 0.98149 0.0
H312 H 0.85153 0.93214 0.99352 0.0
H313 H 0.18302 0.0526 0.02747 0.0
H314 H 0.53296 0.14096 0.0101 0.0
H315 H 0.52154 0.08468 0.02404 0.0
H316 H 0.49378 0.05271 0.9579 0.0
H317 H 0.50386 0.10946 0.94406 0.0
H318 H 0.45638 0.01848 0.98824 0.0
H319 H 0.57805 0.04708 0.97664 0.0
H320 H 0.63238 0.08041 0.98099 0.0
H321 H 0.63283 0.06073 0.05098 0.0
H322 H 0.57774 0.02806 0.04725 0.0
H323 H 0.49062 0.84913 1.00301 0.0
H324 H 0.50093 0.90553 0.98888 0.0
H325 H 0.52531 0.93902 0.0552 0.0
H326 H 0.51636 0.88227 0.06925 0.0
H327 H 0.56404 0.97228 0.0245 0.0
H328 H 0.44024 0.94323 0.03467 0.0
H329 H 0.38903 0.90626 0.02827 0.0
H330 H 0.3956 0.92429 0.9582 0.0
H331 H 0.44742 0.96079 0.96405 0.0
C332 C 0.52322 0.12217 0.99871 0.0
C333 C 0.51949 0.12934 0.97602 0.0
C334 C 0.51694 0.09 1.00664 0.0
C335 C 0.50788 0.06429 0.99187 0.0
C336 C 0.50101 0.07213 0.96954 0.0
C337 C 0.50663 0.10456 0.96167 0.0
C338 C 0.50955 0.02897 0.9992 0.0
C339 C 0.48002 0.00832 0.99597 0.0
C340 C 0.5404 0.0157 0.00939 0.0
C341 C 0.57348 0.03544 0.01171 0.0
C342 C 0.58946 0.05016 0.99301 0.0
C343 C 0.62047 0.06887 0.99534 0.0
C344 C 0.6361 0.07267 0.0162 0.0
C345 C 0.62068 0.0578 0.03482 0.0
C346 C 0.5895 0.03924 0.03263 0.0
C347 C 0.49935 0.86832 0.01442 0.0
C348 C 0.50251 0.86152 0.0372 0.0
C349 C 0.50493 0.90055 1.00638 0.0
C350 C 0.51272 0.92666 0.02112 0.0
C351 C 0.51899 0.91929 0.04358 0.0
C352 C 0.51406 0.88684 0.05157 0.0
C353 C 0.51092 0.96186 0.01356 0.0
C354 C 0.5404 0.9825 0.01679 0.0
C355 C 0.48021 0.97498 1.00314 0.0
C356 C 0.44787 0.95454 0.99978 0.0
C357 C 0.4308 0.93928 0.01789 0.0
C358 C 0.40173 0.91834 0.01437 0.0
C359 C 0.38916 0.91283 0.99287 0.0
C360 C 0.40548 0.92845 0.97483 0.0
C361 C 0.43468 0.94929 0.97824 0.0
H362 H 0.36661 0.89664 0.99021 0.0
H363 H 0.66017 0.08711 0.01793 0.0
H364 H 0.96853 0.63714 0.50534 0.0
H365 H 0.98109 0.58138 0.49111 0.0
H366 H 0.02944 0.5547 0.55358 0.0
H367 H 0.01741 0.61087 0.56785 0.0
H368 H 0.06405 0.52714 0.51796 0.0
H369 H 0.94403 0.53873 0.54357 0.0
H370 H 0.88527 0.56542 0.54443 0.0
H371 H 0.8687 0.54038 0.47602 0.0
H372 H 0.92808 0.51472 0.47437 0.0
H373 H 0.05294 0.35359 0.50975 0.0
H374 H 0.04155 0.41013 0.52288 0.0
H375 H 0.99053 0.43402 0.46075 0.0
H376 H 1.00151 0.3771 0.44754 0.0
H377 H 0.95712 0.46331 0.49557 0.0
H378 H 0.07619 0.45536 0.46855 0.0
H379 H 0.13687 0.43324 0.4653 0.0
H380 H 0.15497 0.45221 0.53454 0.0
H381 H 0.09424 0.47433 0.53822 0.0
C382 C 0.98256 0.61964 0.51588 0.0
C383 C 0.9917 0.62815 0.53777 0.0
C384 C 0.98954 0.58776 0.50776 0.0
C385 C 1.00531 0.5637 0.5215 0.0
C386 C 0.01695 0.57289 0.54279 0.0
C387 C 1.0102 0.60497 0.55089 0.0
C388 C 1.00739 0.52847 0.51421 0.0
C389 C 0.04064 0.51304 0.51335 0.0
C390 C 0.97683 0.5104 0.50765 0.0
C391 C 0.94072 0.52508 0.50879 0.0
C392 C 0.92802 0.53912 0.52864 0.0
C393 C 0.89458 0.55405 0.52929 0.0
C394 C 0.87322 0.55449 0.51036 0.0
C395 C 0.88529 0.54002 0.49068 0.0
C396 C 0.9189 0.52537 0.48985 0.0
C397 C 0.03865 0.37065 0.49902 0.0
C398 C 0.02838 0.36104 0.47753 0.0
C399 C 0.03239 0.40302 0.5065 0.0
C400 C 0.01604 0.42649 0.49257 0.0
C401 C 1.00348 0.41633 0.47169 0.0
C402 C 1.00962 0.38379 0.4642 0.0
C403 C 0.0138 0.46194 0.49941 0.0
C404 C 0.98051 0.47741 0.50021 0.0
C405 C 0.04433 0.48017 0.50575 0.0
C406 C 0.08056 0.46617 0.50371 0.0
C407 C 0.09299 0.45449 0.48313 0.0
C408 C 0.12744 0.44202 0.4812 0.0
C409 C 0.14973 0.44119 0.49973 0.0
C410 C 0.13764 0.45283 0.52022 0.0
C411 C 0.10323 0.46538 0.52222 0.0
H412 H 0.17642 0.43167 0.49825 0.0
H413 H 0.84737 0.56607 0.51095 0.0
H414 H 0.48892 0.63487 0.50816 0.0
H415 H 0.49655 0.5768 0.51999 0.0
H416 H 0.50982 0.54695 0.45174 0.0
H417 H 0.50315 0.60522 0.43989 0.0
H418 H 0.45416 0.51307 0.4754 0.0
H419 H 0.57621 0.53963 0.48208 0.0
H420 H 0.62949 0.57046 0.4938 0.0
H421 H 0.60543 0.55004 0.56209 0.0
H422 H 0.55139 0.51982 0.55087 0.0
H423 H 0.52072 0.3457 0.50032 0.0
H424 H 0.50671 0.40128 0.48569 0.0
H425 H 0.48032 0.43454 0.55166 0.0
H426 H 0.49318 0.37876 0.56627 0.0
H427 H 0.54217 0.46582 0.52797 0.0
H428 H 0.41879 0.44105 0.52106 0.0
H429 H 0.36637 0.4091 0.50913 0.0
H430 H 0.39482 0.42404 0.44088 0.0
H431 H 0.44769 0.45593 0.45239 0.0
C432 C 0.4948 0.61606 0.4958 0.0
C433 C 0.49588 0.62443 0.47318 0.0
C434 C 0.49891 0.58294 0.50253 0.0
C435 C 0.50346 0.55766 0.48669 0.0
C436 C 0.50629 0.56618 0.46417 0.0
C437 C 0.50298 0.59946 0.45746 0.0
C438 C 0.50235 0.52227 0.49366 0.0
C439 C 0.47371 0.50251 0.48661 0.0
C440 C 0.52737 0.50896 0.50872 0.0
C441 C 0.55937 0.52786 0.51562 0.0
C442 C 0.5819 0.54214 0.49962 0.0
C443 C 0.61232 0.55939 0.50617 0.0
C444 C 0.62073 0.56219 0.52865 0.0
C445 C 0.59878 0.54783 0.54467 0.0
C446 C 0.56821 0.5307 0.53823 0.0
C447 C 0.51045 0.36451 0.51151 0.0
C448 C 0.50801 0.35811 0.53438 0.0
C449 C 0.50252 0.39618 0.50316 0.0
C450 C 0.49272 0.42189 0.51766 0.0
C451 C 0.48769 0.41485 0.54025 0.0
C452 C 0.49482 0.38297 0.54854 0.0
C453 C 0.49385 0.45684 0.50994 0.0
C454 C 0.52262 0.47645 0.51677 0.0
C455 C 0.46905 0.46989 0.49466 0.0
C456 C 0.43749 0.45053 0.48761 0.0
C457 C 0.41412 0.43725 0.5035 0.0
C458 C 0.38421 0.41933 0.49682 0.0
C459 C 0.37726 0.41464 0.47428 0.0
C460 C 0.4002 0.42785 0.45834 0.0
C461 C 0.43013 0.44588 0.46494 0.0
H462 H 0.35419 0.40063 0.46919 0.0
H463 H 0.64418 0.57559 0.53365 0.0
H464 H 0.33398 0.87528 0.06015 0.0
H465 H 0.29425 0.92354 0.05611 0.0
H466 H 0.37334 0.98675 0.08618 0.0
H467 H 0.41289 0.93888 0.09005 0.0
H468 H 0.31155 0.99083 0.10755 0.0
H469 H 0.35189 0.00302 0.03316 0.0
H470 H 0.36708 0.98679 0.99491 0.0
H471 H 0.26015 0.95406 0.98395 0.0
H472 H 0.24411 0.97091 0.02206 0.0
H473 H 0.19928 0.13773 0.06081 0.0
H474 H 0.24604 0.09622 0.05566 0.0
H475 H 0.19435 0.03114 0.1026 0.0
H476 H 0.14768 0.07222 0.10783 0.0
H477 H 0.24705 0.03258 0.04128 0.0
H478 H 0.25511 0.99226 0.13377 0.0
H479 H 0.24559 0.01663 0.17089 0.0
H480 H 0.26705 0.11442 0.14499 0.0
H481 H 0.27718 0.0906 0.10782 0.0
C482 C 0.34297 0.89964 0.06548 0.0
C483 C 0.37609 0.90333 0.07582 0.0
C484 C 0.32042 0.92716 0.0631 0.0
C485 C 0.33084 0.95865 0.07098 0.0
C486 C 0.3647 0.96261 0.08017 0.0
C487 C 0.38713 0.93524 0.08253 0.0
C488 C 0.30516 0.9865 0.07211 0.0
C489 C 0.29752 -0.0 0.09304 0.0
C490 C 0.28739 -0.00112 0.05317 0.0
C491 C 0.29692 0.98786 0.0305 0.0
C492 C 0.33169 0.99213 0.02264 0.0
C493 C 0.34039 0.98299 1.00095 0.0
C494 C 0.31469 0.96909 0.98706 0.0
C495 C 0.28007 0.9647 0.99476 0.0
C496 C 0.27109 0.97426 0.01635 0.0
C497 C 0.19773 0.11452 0.06994 0.0
C498 C 0.16981 0.10851 0.0849 0.0
C499 C 0.22447 0.09083 0.06696 0.0
C500 C 0.22383 0.0608 0.07893 0.0
C501 C 0.1957 0.05445 0.09352 0.0
C502 C 0.16913 0.07814 0.09661 0.0
C503 C 0.25304 0.03639 0.07678 0.0
C504 C 0.26118 0.02343 0.05575 0.0
C505 C 0.27211 0.02514 0.09558 0.0
C506 C 0.26658 0.03965 0.11797 0.0
C507 C 0.25795 0.01894 0.13603 0.0
C508 C 0.25242 0.03267 0.15707 0.0
C509 C 0.2556 0.06706 0.16028 0.0
C510 C 0.26446 0.0878 0.14247 0.0
C511 C 0.27006 0.0742 0.12141 0.0
H512 H 0.25128 0.07764 0.17658 0.0
H513 H 0.32156 0.96184 0.9703 0.0
H514 H 0.18472 0.39011 0.40302 0.0
H515 H 0.23559 0.42615 0.40979 0.0
H516 H 0.22908 0.40539 0.4799 0.0
H517 H 0.17743 0.36981 0.47336 0.0
H518 H 0.2323 0.47352 0.4699 0.0
H519 H 0.29386 0.3753 0.45398 0.0
H520 H 0.30961 0.32353 0.43449 0.0
H521 H 0.34279 0.38011 0.37766 0.0
H522 H 0.32577 0.4323 0.39639 0.0
H523 H 0.38133 0.58644 0.47116 0.0
H524 H 0.34728 0.53558 0.4787 0.0
H525 H 0.32661 0.52459 0.40865 0.0
H526 H 0.36006 0.57534 0.40107 0.0
H527 H 0.34565 0.46514 0.42864 0.0
H528 H 0.26626 0.55963 0.44239 0.0
H529 H 0.24914 0.61126 0.4619 0.0
H530 H 0.25174 0.55926 0.52425 0.0
H531 H 0.26937 0.50741 0.5051 0.0
C532 C 0.19398 0.39321 0.41989 0.0
C533 C 0.17671 0.37735 0.43765 0.0
C534 C 0.2233 0.41353 0.42371 0.0
C535 C 0.23601 0.41835 0.44535 0.0
C536 C 0.21952 0.40196 0.4631 0.0
C537 C 0.19022 0.38143 0.45928 0.0
C538 C 0.26506 0.44234 0.44923 0.0
C539 C 0.25754 0.47131 0.4614 0.0
C540 C 0.29789 0.43929 0.43812 0.0
C541 C 0.30826 0.40789 0.42662 0.0
C542 C 0.30406 0.3768 0.43721 0.0
C543 C 0.31328 0.34732 0.4263 0.0
C544 C 0.32733 0.34852 0.40488 0.0
C545 C 0.33197 0.37922 0.39428 0.0
C546 C 0.32245 0.4088 0.40504 0.0
C547 C 0.36922 0.57335 0.45741 0.0
C548 C 0.37315 0.58503 0.4355 0.0
C549 C 0.35008 0.54417 0.46173 0.0
C550 C 0.33448 0.52639 0.44422 0.0
C551 C 0.33875 0.5378 0.42238 0.0
C552 C 0.3578 0.56684 0.41806 0.0
C553 C 0.31206 0.49678 0.44832 0.0
C554 C 0.32089 0.46677 0.43769 0.0
C555 C 0.28054 0.49874 0.46093 0.0
C556 C 0.2696 0.52981 0.47236 0.0
C557 C 0.26345 0.55929 0.46028 0.0
C558 C 0.25362 0.58858 0.47126 0.0
C559 C 0.2495 0.58858 0.49431 0.0
C560 C 0.25505 0.55925 0.50641 0.0
C561 C 0.26496 0.52991 0.4955 0.0
H562 H 0.24191 0.61128 0.5028 0.0
H563 H 0.33461 0.32565 0.3965 0.0
H564 H 0.851 0.89717 0.89752 0.0
H565 H 0.80521 0.93927 0.90228 0.0
H566 H 0.79773 0.91473 0.9718 0.0
H567 H 0.84427 0.87292 0.96739 0.0
H568 H 0.73318 0.92677 0.95414 0.0
H569 H 0.84505 0.98302 0.95696 0.0
H570 H 0.90519 -0.00241 0.94408 0.0
H571 H 0.86205 0.03565 0.88314 0.0
H572 H 0.80173 0.02107 0.8956 0.0
H573 H 0.68728 0.12007 0.95324 0.0
H574 H 0.72793 0.07346 0.95988 0.0
H575 H 0.65835 0.00794 0.92345 0.0
H576 H 0.61714 0.05398 0.91756 0.0
H577 H 0.76393 0.04192 0.93071 0.0
H578 H 0.66691 0.93065 0.93686 0.0
H579 H 0.61046 0.91501 0.95471 0.0
H580 H 0.62859 0.98748 1.00586 0.0
H581 H 0.68435 0.00452 0.98783 0.0
C582 C 0.83992 0.90074 0.91389 0.0
C583 C 0.85214 0.8821 0.93217 0.0
C584 C 0.81357 0.92477 0.91655 0.0
C585 C 0.79884 0.93071 0.93752 0.0
C586 C 0.80916 0.91075 0.95552 0.0
C587 C 0.83569 0.88671 0.95292 0.0
C588 C 0.77371 0.95866 0.94067 0.0
C589 C 0.73984 0.95199 0.94909 0.0
C590 C 0.78281 0.99169 0.93466 0.0
C591 C 0.81898 0.00068 0.92714 0.0
C592 C 0.84848 0.99427 0.94076 0.0
C593 C 0.88256 0.00256 0.93355 0.0
C594 C 0.88744 0.0174 0.91278 0.0
C595 C 0.85823 0.02411 0.89921 0.0
C596 C 0.82409 0.01591 0.90636 0.0
C597 C 0.68045 0.09559 0.94698 0.0
C598 C 0.64922 0.09074 0.93468 0.0
C599 C 0.70364 0.069 0.95079 0.0
C600 C 0.69605 0.0371 0.94238 0.0
C601 C 0.6645 0.0321 0.93051 0.0
C602 C 0.64126 0.05861 0.92677 0.0
C603 C 0.72284 0.01007 0.94376 0.0
C604 C 0.75717 0.01685 0.93603 0.0
C605 C 0.71433 0.97736 0.95088 0.0
C606 C 0.67961 0.96901 0.96089 0.0
C607 C 0.65858 0.94353 0.95177 0.0
C608 C 0.62662 0.93456 0.96185 0.0
C609 C 0.61571 0.95052 0.98127 0.0
C610 C 0.63665 0.97565 0.99056 0.0
C611 C 0.6683 0.98517 0.98032 0.0
H612 H 0.5912 0.94321 0.9892 0.0
H613 H 0.91385 0.02378 0.90722 0.0
H614 H 0.67913 0.37853 0.5655 0.0
H615 H 0.72053 0.4256 0.56337 0.0
H616 H 0.63645 0.49337 0.58115 0.0
H617 H 0.59507 0.44625 0.58357 0.0
H618 H 0.69026 0.51694 0.54629 0.0
H619 H 0.67819 0.47409 0.62118 0.0
H620 H 0.67569 0.42887 0.64894 0.0
H621 H 0.78095 0.39823 0.63118 0.0
H622 H 0.78381 0.44297 0.60303 0.0
H623 H 0.81217 0.64432 0.57954 0.0
H624 H 0.76119 0.60668 0.57713 0.0
H625 H 0.83128 0.52201 0.58424 0.0
H626 H 0.88138 0.5599 0.58883 0.0
H627 H 0.7781 0.51102 0.60758 0.0
H628 H 0.78461 0.54355 0.52739 0.0
H629 H 0.7886 0.58719 0.49842 0.0
H630 H 0.69864 0.63725 0.52641 0.0
H631 H 0.69401 0.59386 0.5554 0.0
C632 C 0.66941 0.40356 0.56846 0.0
C633 C 0.63421 0.40883 0.57503 0.0
C634 C 0.69294 0.43035 0.56722 0.0
C635 C 0.68144 0.4628 0.57222 0.0
C636 C 0.6457 0.46847 0.57722 0.0
C637 C 0.62229 0.44159 0.57883 0.0
C638 C 0.70772 0.48968 0.57516 0.0
C639 C 0.70933 0.51592 0.55977 0.0
C640 C 0.7325 0.4882 0.59271 0.0
C641 C 0.73107 0.46165 0.60987 0.0
C642 C 0.70068 0.45753 0.62307 0.0
C643 C 0.69921 0.43202 0.63889 0.0
C644 C 0.72811 0.41064 0.64178 0.0
C645 C 0.75857 0.41479 0.6289 0.0
C646 C 0.76014 0.44023 0.61302 0.0
C647 C 0.81638 0.61763 0.58053 0.0
C648 C 0.85041 0.60479 0.58431 0.0
C649 C 0.7874 0.59608 0.57885 0.0
C650 C 0.79233 0.56131 0.57988 0.0
C651 C 0.82661 0.54866 0.58343 0.0
C652 C 0.85523 0.57022 0.58604 0.0
C653 C 0.762 0.53782 0.57815 0.0
C654 C 0.75925 0.51224 0.594 0.0
C655 C 0.73649 0.53981 0.56093 0.0
C656 C 0.73871 0.56538 0.5433 0.0
C657 C 0.76558 0.5638 0.52722 0.0
C658 C 0.76798 0.58849 0.51086 0.0
C659 C 0.74382 0.61493 0.51055 0.0
C660 C 0.71712 0.61666 0.52656 0.0
C661 C 0.71445 0.59193 0.54285 0.0
H662 H 0.74583 0.63412 0.49796 0.0
H663 H 0.72693 0.3909 0.65404 0.0
H664 H 0.18679 0.22135 0.06429 0.0
H665 H 0.24826 0.22695 0.05201 0.0
H666 H 0.21885 0.30994 0.01033 0.0
H667 H 0.15705 0.30508 0.02307 0.0
H668 H 0.26239 0.2506 0.99032 0.0
H669 H 0.26106 0.33305 0.04911 0.0
H670 H 0.2487 0.35208 0.08724 0.0
H671 H 0.31744 0.27607 0.11325 0.0
H672 H 0.3298 0.25626 0.07527 0.0
H673 H 0.44165 0.28092 0.9582 0.0
H674 H 0.37918 0.28714 0.96883 0.0
H675 H 0.40211 0.24176 0.03231 0.0
H676 H 0.46453 0.23751 0.02209 0.0
H677 H 0.35956 0.28737 0.04006 0.0
H678 H 0.35845 0.20054 0.9855 0.0
H679 H 0.36974 0.17427 0.94918 0.0
H680 H 0.3054 0.24847 0.91712 0.0
H681 H 0.29409 0.27543 0.95323 0.0
C682 C 0.19339 0.24105 0.05268 0.0
C683 C 0.16701 0.26287 0.04471 0.0
C684 C 0.22856 0.24417 0.04566 0.0
C685 C 0.23812 0.26878 0.03022 0.0
C686 C 0.21198 0.29075 0.02225 0.0
C687 C 0.17678 0.2881 0.02965 0.0
C688 C 0.27543 0.27088 0.02231 0.0
C689 C 0.28367 0.25925 1.00097 0.0
C690 C 0.30323 0.28091 0.03654 0.0
C691 C 0.29611 0.29301 0.05936 0.0
C692 C 0.2733 0.32022 0.06297 0.0
C693 C 0.26635 0.33118 0.08455 0.0
C694 C 0.28221 0.31525 0.10266 0.0
C695 C 0.30515 0.28837 0.09921 0.0
C696 C 0.31217 0.2773 0.07766 0.0
C697 C 0.43316 0.27246 0.97442 0.0
C698 C 0.45793 0.25896 0.98935 0.0
C699 C 0.3974 0.27575 0.98048 0.0
C700 C 0.38538 0.26447 1.00134 0.0
C701 C 0.41035 0.25092 0.01619 0.0
C702 C 0.44614 0.24843 0.01035 0.0
C703 C 0.34708 0.26673 0.00791 0.0
C704 C 0.33851 0.27903 0.02912 0.0
C705 C 0.31905 0.25637 0.99375 0.0
C706 C 0.32577 0.24022 0.97203 0.0
C707 C 0.34692 0.21139 0.97068 0.0
C708 C 0.35329 0.19636 0.95014 0.0
C709 C 0.33839 0.20976 0.93085 0.0
C710 C 0.31699 0.23816 0.93207 0.0
C711 C 0.31057 0.25332 0.95257 0.0
H712 H 0.34334 0.19808 0.91496 0.0
H713 H 0.27679 0.32377 0.11935 0.0
H714 H 0.05602 0.70132 0.01987 0.0
H715 H 0.11731 0.69786 0.03198 0.0
H716 H 0.14995 0.7553 0.97502 0.0
H717 H 0.08912 0.75739 0.96204 0.0
H718 H 0.19641 0.70981 0.98149 0.0
H719 H 0.14103 0.78949 0.02914 0.0
H720 H 0.09666 0.81106 0.0555 0.0
H721 H 0.1257 0.73534 0.10263 0.0
H722 H 0.16995 0.71303 0.0764 0.0
H723 H 0.35848 0.77622 0.02452 0.0
H724 H 0.29728 0.7694 0.01194 0.0
H725 H 0.28265 0.68911 0.05869 0.0
H726 H 0.34442 0.69527 0.0711 0.0
H727 H 0.22777 0.74252 0.05843 0.0
H728 H 0.28774 0.66668 0.00917 0.0
H729 H 0.33369 0.65057 0.98216 0.0
H730 H 0.29715 0.72639 0.9372 0.0
H731 H 0.2513 0.7433 0.9641 0.0
C732 C 0.07597 0.71305 0.00967 0.0
C733 C 0.06677 0.73016 0.99 0.0
C734 C 0.11129 0.71128 0.01683 0.0
C735 C 0.13845 0.72697 1.00475 0.0
C736 C 0.12962 0.74316 0.98481 0.0
C737 C 0.0944 0.74463 0.97749 0.0
C738 C 0.17596 0.72681 0.01291 0.0
C739 C 0.20314 0.71726 0.99827 0.0
C740 C 0.18512 0.73607 0.03491 0.0
C741 C 0.1585 0.74935 0.05071 0.0
C742 C 0.13775 0.77727 0.04505 0.0
C743 C 0.11266 0.78965 0.05998 0.0
C744 C 0.10828 0.77451 0.0807 0.0
C745 C 0.12906 0.74699 0.08655 0.0
C746 C 0.15417 0.73448 0.07167 0.0
C747 C 0.34238 0.75691 0.03205 0.0
C748 C 0.3564 0.73621 0.04879 0.0
C749 C 0.30739 0.75304 0.0248 0.0
C750 C 0.28539 0.72873 0.03434 0.0
C751 C 0.29919 0.70801 0.05109 0.0
C752 C 0.33452 0.71144 0.05808 0.0
C753 C 0.24784 0.72564 0.027 0.0
C754 C 0.22078 0.73474 0.04175 0.0
C755 C 0.23887 0.71668 1.00499 0.0
C756 C 0.26629 0.70645 0.98874 0.0
C757 C 0.2897 0.68012 0.99361 0.0
C758 C 0.31569 0.6708 0.9783 0.0
C759 C 0.31839 0.68749 0.95799 0.0
C760 C 0.29505 0.71349 0.95294 0.0
C761 C 0.26903 0.72293 0.9682 0.0
H762 H 0.33853 0.68024 0.94616 0.0
H763 H 0.08886 0.78414 0.09224 0.0
H764 H 0.47094 0.22602 0.48723 0.0
H765 H 0.40943 0.22237 0.47484 0.0
H766 H 0.3744 0.22055 0.54292 0.0
H767 H 0.43614 0.22366 0.55548 0.0
H768 H 0.3363 0.17658 0.51688 0.0
H769 H 0.37003 0.29265 0.51497 0.0
H770 H 0.40886 0.33965 0.5045 0.0
H771 H 0.39187 0.31808 0.43552 0.0
H772 H 0.35319 0.27077 0.4456 0.0
H773 H 0.16985 0.27823 0.48256 0.0
H774 H 0.23138 0.27353 0.49402 0.0
H775 H 0.23834 0.17698 0.46283 0.0
H776 H 0.17617 0.18163 0.45098 0.0
H777 H 0.29093 0.26926 0.4701 0.0
H778 H 0.29868 0.12987 0.4938 0.0
H779 H 0.25965 0.08487 0.50737 0.0
H780 H 0.19155 0.15736 0.53788 0.0
H781 H 0.2304 0.20272 0.52474 0.0
C782 C 0.45031 0.22418 0.49962 0.0
C783 C 0.45861 0.2252 0.52241 0.0
C784 C 0.41504 0.22239 0.49248 0.0
C785 C 0.38718 0.22154 0.50792 0.0
C786 C 0.39539 0.22124 0.53067 0.0
C787 C 0.43068 0.22323 0.53784 0.0
C788 C 0.34954 0.22258 0.50036 0.0
C789 C 0.32642 0.19673 0.50654 0.0
C790 C 0.3364 0.24912 0.48715 0.0
C791 C 0.35896 0.27801 0.48104 0.0
C792 C 0.3747 0.29786 0.49757 0.0
C793 C 0.39666 0.32455 0.49172 0.0
C794 C 0.40295 0.33172 0.46936 0.0
C795 C 0.38707 0.31241 0.45283 0.0
C796 C 0.36507 0.28569 0.4586 0.0
C797 C 0.18426 0.25591 0.47802 0.0
C798 C 0.16784 0.23036 0.46567 0.0
C799 C 0.21966 0.25333 0.48461 0.0
C800 C 0.23971 0.22498 0.47929 0.0
C801 C 0.22341 0.19907 0.46726 0.0
C802 C 0.18781 0.20173 0.46051 0.0
C803 C 0.27758 0.22303 0.48643 0.0
C804 C 0.30081 0.24883 0.48019 0.0
C805 C 0.29062 0.19674 0.49991 0.0
C806 C 0.26722 0.16967 0.50805 0.0
C807 C 0.27541 0.13618 0.50344 0.0
C808 C 0.25332 0.11062 0.51106 0.0
C809 C 0.22306 0.11826 0.52341 0.0
C810 C 0.2149 0.15148 0.52823 0.0
C811 C 0.23692 0.17712 0.52068 0.0
H812 H 0.20599 0.09844 0.52928 0.0
H813 H 0.42011 0.35226 0.46486 0.0
H814 H 0.05907 0.80877 0.51704 0.0
H815 H 0.121 0.81184 0.50472 0.0
H816 H 0.13411 0.70713 0.51944 0.0
H817 H 0.07294 0.70435 0.53223 0.0
H818 H 0.18912 0.73743 0.53329 0.0
H819 H 0.12425 0.74065 0.46461 0.0
H820 H 0.08036 0.76213 0.43781 0.0
H821 H 0.13373 0.85672 0.43641 0.0
H822 H 0.17771 0.83591 0.46344 0.0
H823 H 0.3422 0.69737 0.47253 0.0
H824 H 0.28124 0.70312 0.48504 0.0
H825 H 0.28696 0.80961 0.47536 0.0
H826 H 0.34838 0.80401 0.46238 0.0
H827 H 0.22396 0.78382 0.46013 0.0
H828 H 0.2917 0.77656 0.52773 0.0
H829 H 0.33587 0.75169 0.55303 0.0
H830 H 0.27645 0.66036 0.55467 0.0
H831 H 0.23214 0.68456 0.52919 0.0
C832 C 0.07525 0.78648 0.51758 0.0
C833 C 0.06114 0.75643 0.52579 0.0
C834 C 0.11063 0.78817 0.51045 0.0
C835 C 0.13244 0.75963 0.5109 0.0
C836 C 0.11816 0.72961 0.51902 0.0
C837 C 0.08309 0.72805 0.52641 0.0
C838 C 0.17018 0.76072 0.50327 0.0
C839 C 0.19653 0.74732 0.51718 0.0
C840 C 0.1804 0.7743 0.48247 0.0
C841 C 0.15401 0.78685 0.46624 0.0
C842 C 0.12646 0.76612 0.45872 0.0
C843 C 0.1016 0.77815 0.44347 0.0
C844 C 0.10419 0.8108 0.43547 0.0
C845 C 0.13171 0.83145 0.44266 0.0
C846 C 0.15662 0.81955 0.45793 0.0
C847 C 0.33071 0.72213 0.47306 0.0
C848 C 0.35049 0.7503 0.46657 0.0
C849 C 0.29572 0.72536 0.48032 0.0
C850 C 0.27954 0.75686 0.48152 0.0
C851 C 0.29889 0.78504 0.47469 0.0
C852 C 0.33406 0.78182 0.46734 0.0
C853 C 0.24251 0.76001 0.49 0.0
C854 C 0.21642 0.77423 0.4763 0.0
C855 C 0.23237 0.74675 0.51086 0.0
C856 C 0.2587 0.73234 0.52647 0.0
C857 C 0.28814 0.75113 0.53342 0.0
C858 C 0.31319 0.73715 0.5478 0.0
C859 C 0.30899 0.70446 0.55543 0.0
C860 C 0.27967 0.68569 0.54876 0.0
C861 C 0.25454 0.69955 0.53438 0.0
H862 H 0.32843 0.69367 0.56655 0.0
H863 H 0.08492 0.82007 0.42365 0.0
H864 H 0.58273 0.77909 0.03734 0.0
H865 H 0.64332 0.77459 0.02395 0.0
H866 H 0.62021 0.67774 0.99646 0.0
H867 H 0.55926 0.68166 0.01047 0.0
H868 H 0.68541 0.679 0.01707 0.0
H869 H 0.62383 0.74531 0.96317 0.0
H870 H 0.58598 0.79147 0.95006 0.0
H871 H 0.66027 0.86277 0.97578 0.0
H872 H 0.69831 0.81702 0.9894 0.0
H873 H 0.8482 0.681 0.95355 0.0
H874 H 0.78596 0.67619 0.96513 0.0
H875 H 0.79035 0.77546 0.99257 0.0
H876 H 0.85174 0.78052 0.98105 0.0
H877 H 0.73248 0.76887 0.96871 0.0
H878 H 0.79095 0.70495 0.02552 0.0
H879 H 0.82903 0.66021 0.04045 0.0
H880 H 0.76161 0.58632 0.01083 0.0
H881 H 0.72337 0.63068 0.99547 0.0
C882 C 0.59045 0.75651 0.0288 0.0
C883 C 0.56589 0.73064 0.0251 0.0
C884 C 0.62518 0.75416 0.02089 0.0
C885 C 0.63632 0.72603 0.0089 0.0
C886 C 0.61223 0.69978 1.00557 0.0
C887 C 0.57732 0.70214 0.01347 0.0
C888 C 0.67299 0.72451 0.99969 0.0
C889 C 0.69554 0.69833 1.00617 0.0
C890 C 0.68651 0.75007 0.9858 0.0
C891 C 0.66379 0.77768 0.97748 0.0
C892 C 0.63198 0.77082 0.96619 0.0
C893 C 0.6105 0.79692 0.95865 0.0
C894 C 0.62067 0.83002 0.96214 0.0
C895 C 0.6524 0.83711 0.97312 0.0
C896 C 0.67395 0.81109 0.98074 0.0
C897 C 0.83593 0.70168 0.96218 0.0
C898 C 0.8551 0.73118 0.96623 0.0
C899 C 0.80034 0.6989 0.96884 0.0
C900 C 0.78331 0.72549 0.97977 0.0
C901 C 0.80264 0.75467 0.98404 0.0
C902 C 0.83796 0.75747 0.97744 0.0
C903 C 0.74523 0.72372 0.98645 0.0
C904 C 0.72233 0.74932 0.97943 0.0
C905 C 0.73155 0.69783 0.99999 0.0
C906 C 0.75457 0.67114 0.0091 0.0
C907 C 0.78444 0.67917 0.02201 0.0
C908 C 0.80601 0.65388 0.03059 0.0
C909 C 0.79782 0.62044 0.02652 0.0
C910 C 0.76798 0.61223 0.01392 0.0
C911 C 0.74634 0.63744 1.00528 0.0
H912 H 0.81454 0.6009 0.03319 0.0
H913 H 0.60399 0.85017 0.95629 0.0
H914 H 0.68412 0.21132 0.94681 0.0
H915 H 0.74578 0.21392 0.95886 0.0
H916 H 0.71954 0.29379 1.004 0.0
H917 H 0.6581 0.2928 0.99058 0.0
H918 H 0.78028 0.30622 0.9899 0.0
H919 H 0.73189 0.20639 0.01994 0.0
H920 H 0.70008 0.15264 0.0196 0.0
H921 H 0.7787 0.11139 0.97608 0.0
H922 H 0.8107 0.16505 0.97587 0.0
H923 H 0.94065 0.2727 0.05437 0.0
H924 H 0.87737 0.27414 0.04415 0.0
H925 H 0.90238 0.23059 0.98069 0.0
H926 H 0.96539 0.22996 0.99059 0.0
H927 H 0.84189 0.20002 0.00748 0.0
H928 H 0.88744 0.30494 0.97783 0.0
H929 H 0.91776 0.35917 0.98139 0.0
H930 H 0.84168 0.39022 0.03014 0.0
H931 H 0.81122 0.33592 0.0271 0.0
C932 C 0.69161 0.22966 0.95916 0.0
C933 C 0.66628 0.25179 0.96782 0.0
C934 C 0.72689 0.2309 0.96627 0.0
C935 C 0.7375 0.25328 0.98299 0.0
C936 C 0.71229 0.27608 0.99122 0.0
C937 C 0.67711 0.27555 0.98355 0.0
C938 C 0.77471 0.2527 0.99183 0.0
C939 C 0.79336 0.28293 0.99405 0.0
C940 C 0.79236 0.22244 0.99736 0.0
C941 C 0.77356 0.18987 0.99777 0.0
C942 C 0.74231 0.18591 0.01022 0.0
C943 C 0.72423 0.15546 0.01012 0.0
C944 C 0.73731 0.12864 0.9978 0.0
C945 C 0.76857 0.13219 0.9856 0.0
C946 C 0.78672 0.16262 0.98561 0.0
C947 C 0.93252 0.26355 0.03825 0.0
C948 C 0.95797 0.25154 0.0232 0.0
C949 C 0.89647 0.26438 0.03242 0.0
C950 C 0.88517 0.25248 0.01164 0.0
C951 C 0.91048 0.23991 0.99679 0.0
C952 C 0.9465 0.2398 1.0024 0.0
C953 C 0.84706 0.25332 1.00515 0.0
C954 C 0.8284 0.22316 1.00345 0.0
C955 C 0.82913 0.2836 1.00071 0.0
C956 C 0.84733 0.31624 1.00243 0.0
C957 C 0.8774 0.3232 0.98947 0.0
C958 C 0.89456 0.35398 0.99135 0.0
C959 C 0.88172 0.37809 1.00603 0.0
C960 C 0.85164 0.3715 0.01881 0.0
C961 C 0.83441 0.34074 0.017 0.0
H962 H 0.89504 0.40191 0.00747 0.0
H963 H 0.72326 0.10511 0.99775 0.0
H964 H 0.8484 0.70492 0.53448 0.0
H965 H 0.78761 0.70827 0.52139 0.0
H966 H 0.77845 0.80743 0.54854 0.0
H967 H 0.84002 0.80435 0.56169 0.0
H968 H 0.7276 0.71299 0.54233 0.0
H969 H 0.71838 0.852 0.51693 0.0
H970 H 0.75723 0.89702 0.5032 0.0
H971 H 0.82756 0.82439 0.4749 0.0
H972 H 0.7889 0.77898 0.4882 0.0
H973 H 0.54783 0.75734 0.52544 0.0
H974 H 0.60967 0.7599 0.53733 0.0
H975 H 0.64337 0.75977 0.46898 0.0
H976 H 0.58128 0.75751 0.45691 0.0
H977 H 0.68206 0.80447 0.49462 0.0
H978 H 0.64555 0.69033 0.49728 0.0
H979 H 0.60776 0.64286 0.50811 0.0
H980 H 0.63206 0.66028 0.57674 0.0
H981 H 0.66939 0.70833 0.56639 0.0
C982 C 0.83366 0.72757 0.53774 0.0
C983 C 0.84932 0.75438 0.54926 0.0
C984 C 0.79868 0.72938 0.53022 0.0
C985 C 0.77824 0.75809 0.53386 0.0
C986 C 0.79373 0.78509 0.54526 0.0
C987 C 0.82895 0.78331 0.55282 0.0
C988 C 0.7407 0.75917 0.52591 0.0
C989 C 0.71768 0.73314 0.53201 0.0
C990 C 0.72767 0.78502 0.51204 0.0
C991 C 0.75095 0.81212 0.50379 0.0
C992 C 0.74209 0.84566 0.50772 0.0
C993 C 0.76408 0.87124 0.50002 0.0
C994 C 0.79491 0.86357 0.48825 0.0
C995 C 0.80375 0.8303 0.48409 0.0
C996 C 0.78184 0.80463 0.49174 0.0
C997 C 0.56827 0.75841 0.51288 0.0
C998 C 0.55949 0.7572 0.49017 0.0
C999 C 0.60371 0.75963 0.51974 0.0
C1000 C 0.63125 0.75978 0.50408 0.0
C1001 C 0.62261 0.75966 0.48138 0.0
C1002 C 0.58712 0.75814 0.4745 0.0
C1003 C 0.66899 0.75867 0.51143 0.0
C1004 C 0.69199 0.78456 0.50514 0.0
C1005 C 0.68221 0.73236 0.52481 0.0
C1006 C 0.65988 0.70331 0.53107 0.0
C1007 C 0.64249 0.68433 0.5147 0.0
C1008 C 0.62119 0.65727 0.52075 0.0
C1009 C 0.61732 0.64873 0.54311 0.0
C1010 C 0.63496 0.66704 0.55944 0.0
C1011 C 0.65618 0.6942 0.55349 0.0
H1012 H 0.60072 0.62788 0.54779 0.0
H1013 H 0.81191 0.8834 0.48232 0.0
H1014 H 0.93256 0.24025 0.4563 0.0
H1015 H 0.87082 0.24026 0.4688 0.0
H1016 H 0.9059 0.22746 0.53648 0.0
H1017 H 0.96743 0.22635 0.52389 0.0
H1018 H 0.85046 0.19236 0.53175 0.0
H1019 H 0.87791 0.30527 0.5141 0.0
H1020 H 0.89898 0.35209 0.49103 0.0
H1021 H 0.81699 0.33256 0.44332 0.0
H1022 H 0.79574 0.28528 0.46597 0.0
H1023 H 0.67715 0.29739 0.55459 0.0
H1024 H 0.73895 0.29323 0.54305 0.0
H1025 H 0.72389 0.18891 0.528 0.0
H1026 H 0.66238 0.19267 0.54069 0.0
H1027 H 0.7701 0.28319 0.50731 0.0
H1028 H 0.80007 0.14545 0.53093 0.0
H1029 H 0.78248 0.10399 0.55916 0.0
H1030 H 0.75498 0.18284 0.60417 0.0
H1031 H 0.77282 0.22474 0.57633 0.0
C1032 C 0.92703 0.23735 0.47382 0.0
C1033 C 0.95497 0.23335 0.48907 0.0
C1034 C 0.89169 0.23749 0.48101 0.0
C1035 C 0.8834 0.23446 0.50371 0.0
C1036 C 0.91132 0.22979 0.51889 0.0
C1037 C 0.94661 0.22912 0.51166 0.0
C1038 C 0.84585 0.23671 0.51171 0.0
C1039 C 0.83292 0.21222 0.52634 0.0
C1040 C 0.8229 0.26302 0.50524 0.0
C1041 C 0.83546 0.29152 0.49162 0.0
C1042 C 0.86452 0.31081 0.49861 0.0
C1043 C 0.87649 0.33745 0.48562 0.0
C1044 C 0.85939 0.34524 0.4657 0.0
C1045 C 0.83024 0.32646 0.45875 0.0
C1046 C 0.81821 0.29975 0.47166 0.0
C1047 C 0.68706 0.27347 0.54897 0.0
C1048 C 0.66481 0.2453 0.54868 0.0
C1049 C 0.72249 0.27113 0.54226 0.0
C1050 C 0.73663 0.24068 0.53477 0.0
C1051 C 0.71422 0.21257 0.5342 0.0
C1052 C 0.67889 0.21474 0.54136 0.0
C1053 C 0.77453 0.23871 0.52729 0.0
C1054 C 0.78755 0.26325 0.5127 0.0
C1055 C 0.79796 0.21321 0.53453 0.0
C1056 C 0.78741 0.1882 0.55144 0.0
C1057 C 0.79037 0.15392 0.54688 0.0
C1058 C 0.78034 0.13035 0.56281 0.0
C1059 C 0.7675 0.14077 0.58342 0.0
C1060 C 0.76479 0.17479 0.58817 0.0
C1061 C 0.77482 0.19846 0.57231 0.0
H1062 H 0.75973 0.12249 0.59572 0.0
H1063 H 0.86869 0.36587 0.45566 0.0
H1064 H 0.10751 0.21657 0.3484 0.0
H1065 H 0.10608 0.21616 0.30782 0.0
H1066 H 0.0131 0.27861 0.30849 0.0
H1067 H 0.01485 0.28009 0.34896 0.0
H1068 H 1.00802 0.22701 0.27775 0.0
H1069 H 0.09108 0.31286 0.29797 0.0
H1070 H 0.14345 0.33566 0.31717 0.0
H1071 H 0.21037 0.26579 0.28315 0.0
H1072 H 0.15829 0.24222 0.26398 0.0
H1073 H 0.01123 0.2729 0.16339 0.0
H1074 H 1.01003 0.27442 0.20407 0.0
H1075 H 0.11124 0.22441 0.20618 0.0
H1076 H 0.11282 0.22339 0.16573 0.0
H1077 H 0.11121 0.27078 0.23591 0.0
H1078 H 0.02997 0.1836 0.21635 0.0
H1079 H 0.97841 0.15857 0.19752 0.0
H1080 H 0.90918 0.22774 0.23035 0.0
H1081 H 0.96042 0.25348 0.24916 0.0
C1082 C 0.0868 0.23037 0.33999 0.0
C1083 C 0.06137 0.24845 0.35217 0.0
C1084 C 0.08596 0.22999 0.31673 0.0
C1085 C 0.05966 0.24761 0.30507 0.0
C1086 C 0.03359 0.26475 0.31711 0.0
C1087 C 0.03454 0.26536 0.34034 0.0
C1088 C 0.05989 0.24895 0.28033 0.0
C1089 C 0.03039 0.23695 0.26858 0.0
C1090 C 0.08936 0.26126 0.26833 0.0
C1091 C 0.12074 0.27556 0.27971 0.0
C1092 C 0.11693 0.30218 0.29471 0.0
C1093 C 0.14656 0.31527 0.30557 0.0
C1094 C 0.18021 0.30213 0.30143 0.0
C1095 C 0.18429 0.27592 0.28637 0.0
C1096 C 0.15472 0.2627 0.27549 0.0
C1097 C 0.03323 0.26231 0.17255 0.0
C1098 C 0.0622 0.24821 0.16125 0.0
C1099 C 0.03248 0.26306 0.19584 0.0
C1100 C 0.06035 0.24913 0.20835 0.0
C1101 C 0.08945 0.23545 0.19704 0.0
C1102 C 0.09038 0.235 0.17383 0.0
C1103 C 0.05939 0.24858 0.23317 0.0
C1104 C 0.08877 0.2608 0.24499 0.0
C1105 C 0.02993 0.23616 0.24522 0.0
C1106 C 0.99907 0.22069 0.23398 0.0
C1107 C 1.00378 0.19363 0.21943 0.0
C1108 C 0.97461 0.17929 0.20878 0.0
C1109 C 0.94055 0.19162 0.21269 0.0
C1110 C 0.93558 0.21825 0.22731 0.0
C1111 C 0.96468 0.23271 0.23798 0.0
H1112 H 0.91799 0.18048 0.20443 0.0
H1113 H 0.20312 0.3123 0.30985 0.0
H1114 H 0.50548 0.78151 0.16601 0.0
H1115 H 0.50579 0.779 0.20648 0.0
H1116 H 0.41488 0.71388 0.20513 0.0
H1117 H 0.4145 0.71613 0.16452 0.0
H1118 H 0.40569 0.76262 0.23474 0.0
H1119 H 0.49828 0.68459 0.21814 0.0
H1120 H 0.55376 0.6652 0.20083 0.0
H1121 H 0.61175 0.74189 0.23479 0.0
H1122 H 0.55651 0.76204 0.25208 0.0
H1123 H 0.40845 0.70929 0.34671 0.0
H1124 H 0.4107 0.71282 0.30638 0.0
H1125 H 0.50017 0.77938 0.31066 0.0
H1126 H 0.49791 0.77624 0.3513 0.0
H1127 H 0.51089 0.73154 0.27968 0.0
H1128 H 0.41828 0.80889 0.29681 0.0
H1129 H 0.36276 0.82799 0.31421 0.0
H1130 H 0.30472 0.75238 0.27922 0.0
H1131 H 0.35999 0.7325 0.26184 0.0
C1132 C 0.48597 0.76606 0.17424 0.0
C1133 C 0.46007 0.74886 0.16191 0.0
C1134 C 0.48611 0.76476 0.19746 0.0
C1135 C 0.46053 0.74605 0.20893 0.0
C1136 C 0.43486 0.72856 0.19669 0.0
C1137 C 0.43466 0.72989 0.17345 0.0
C1138 C 0.4598 0.74565 0.23368 0.0
C1139 C 0.42855 0.75536 0.24455 0.0
C1140 C 0.48993 0.73714 0.24656 0.0
C1141 C 0.52319 0.72503 0.23623 0.0
C1142 C 0.52281 0.69749 0.22178 0.0
C1143 C 0.55423 0.68633 0.212 0.0
C1144 C 0.58624 0.70236 0.21666 0.0
C1145 C 0.58692 0.72953 0.23117 0.0
C1146 C 0.55558 0.74081 0.24098 0.0
C1147 C 0.42822 0.72526 0.33918 0.0
C1148 C 0.45272 0.74285 0.35238 0.0
C1149 C 0.42957 0.72711 0.31603 0.0
C1150 C 0.45531 0.7467 0.30541 0.0
C1151 C 0.48001 0.76414 0.31846 0.0
C1152 C 0.4787 0.7623 0.3417 0.0
C1153 C 0.4567 0.7483 0.28071 0.0
C1154 C 0.48806 0.73886 0.26986 0.0
C1155 C 0.42667 0.75705 0.26782 0.0
C1156 C 0.39334 0.76902 0.27818 0.0
C1157 C 0.39372 0.79617 0.29296 0.0
C1158 C 0.36228 0.80716 0.30279 0.0
C1159 C 0.33024 0.79135 0.29786 0.0
C1160 C 0.32956 0.76457 0.28304 0.0
C1161 C 0.36093 0.75345 0.27318 0.0
H1162 H 0.30593 0.7999 0.3055 0.0
H1163 H 0.61054 0.69368 0.20908 0.0
H1164 H 0.92209 0.78293 0.66561 0.0
H1165 H 0.92499 0.78631 0.7062 0.0
H1166 H 0.99982 0.70486 0.70717 0.0
H1167 H 0.9977 0.70207 0.66673 0.0
H1168 H 0.90717 0.7462 0.73743 0.0
H1169 H 0.05466 0.70922 0.75083 0.0
H1170 H 0.1122 0.71553 0.73188 0.0
H1171 H 0.07388 0.80295 0.69828 0.0
H1172 H 0.0163 0.79743 0.71724 0.0
H1173 H 0.92905 0.70451 0.85075 0.0
H1174 H 0.9302 0.70306 0.81009 0.0
H1175 H 1.00053 0.78795 0.80953 0.0
H1176 H 1.00036 0.78869 0.85006 0.0
H1177 H 0.02064 0.74856 0.77901 0.0
H1178 H 0.90815 0.79391 0.79922 0.0
H1179 H 0.85037 0.79568 0.81828 0.0
H1180 H 0.81828 0.70625 0.78464 0.0
H1181 H 0.87608 0.70369 0.7656 0.0
C1182 C 0.93937 0.76596 0.67451 0.0
C1183 C 0.95999 0.74252 0.66293 0.0
C1184 C 0.94095 0.76783 0.69772 0.0
C1185 C 0.96297 0.74613 0.70987 0.0
C1186 C 0.9833 0.72249 0.69828 0.0
C1187 C 0.98209 0.72092 0.6751 0.0
C1188 C 0.96406 0.7476 0.73464 0.0
C1189 C 0.93202 0.74676 0.74648 0.0
C1190 C 0.99637 0.74897 0.74662 0.0
C1191 C 0.03105 0.75269 0.7353 0.0
C1192 C 0.05857 0.72986 0.73946 0.0
C1193 C 0.09118 0.73328 0.72871 0.0
C1194 C 0.09666 0.75956 0.71383 0.0
C1195 C 0.06957 0.78254 0.70974 0.0
C1196 C 0.03692 0.77925 0.72046 0.0
C1197 C 0.94495 0.72267 0.84191 0.0
C1198 C 0.96467 0.74666 0.85361 0.0
C1199 C 0.94545 0.72198 0.81865 0.0
C1200 C 0.96494 0.7458 0.80659 0.0
C1201 C 0.9853 0.76925 0.81833 0.0
C1202 C 0.98526 0.76961 0.84155 0.0
C1203 C 0.96377 0.74676 0.78181 0.0
C1204 C 0.99579 0.74799 0.76995 0.0
C1205 C 0.93141 0.74689 0.76983 0.0
C1206 C 0.89656 0.74844 0.78115 0.0
C1207 C 0.88885 0.7745 0.796 0.0
C1208 C 0.8561 0.77566 0.80679 0.0
C1209 C 0.83071 0.75105 0.80272 0.0
C1210 C 0.83799 0.72527 0.7878 0.0
C1211 C 0.87073 0.72396 0.777 0.0
H1212 H 0.80536 0.75199 0.81108 0.0
H1213 H 0.12191 0.76215 0.70552 0.0
H1214 H 0.51115 0.28198 0.66527 0.0
H1215 H 0.51068 0.27886 0.70573 0.0
H1216 H 0.60647 0.22021 0.70445 0.0
H1217 H 0.60643 0.22217 0.66384 0.0
H1218 H 0.56158 0.19603 0.73472 0.0
H1219 H 0.60798 0.30396 0.71667 0.0
H1220 H 0.60842 0.35923 0.69864 0.0
H1221 H 0.51256 0.38568 0.7327 0.0
H1222 H 0.51127 0.33035 0.7507 0.0
H1223 H 0.61205 0.21573 0.84682 0.0
H1224 H 0.61046 0.21902 0.80643 0.0
H1225 H 0.51329 0.27542 0.80962 0.0
H1226 H 0.5153 0.27322 0.85028 0.0
H1227 H 0.55774 0.3008 0.77847 0.0
H1228 H 0.51246 0.19244 0.79705 0.0
H1229 H 0.51326 0.13728 0.81522 0.0
H1230 H 0.60853 0.11178 0.78022 0.0
H1231 H 0.60858 0.167 0.76206 0.0
C1232 C 0.53181 0.26786 0.6735 0.0
C1233 C 0.55885 0.25231 0.66116 0.0
C1234 C 0.53174 0.26647 0.69673 0.0
C1235 C 0.55886 0.24977 0.70824 0.0
C1236 C 0.58535 0.23342 0.69599 0.0
C1237 C 0.58542 0.23476 0.67274 0.0
C1238 C 0.55982 0.24967 0.73302 0.0
C1239 C 0.56118 0.21897 0.74426 0.0
C1240 C 0.55855 0.27955 0.74559 0.0
C1241 C 0.55933 0.31288 0.73486 0.0
C1242 C 0.58684 0.32147 0.72018 0.0
C1243 C 0.58727 0.35282 0.70999 0.0
C1244 C 0.56049 0.37592 0.71447 0.0
C1245 C 0.53326 0.36774 0.72921 0.0
C1246 C 0.53268 0.3364 0.73943 0.0
C1247 C 0.59062 0.2294 0.83904 0.0
C1248 C 0.56384 0.24432 0.85194 0.0
C1249 C 0.58953 0.23088 0.81585 0.0
C1250 C 0.56148 0.24702 0.80489 0.0
C1251 C 0.53512 0.26266 0.81766 0.0
C1252 C 0.53619 0.26119 0.84093 0.0
C1253 C 0.55956 0.24717 0.78015 0.0
C1254 C 0.55803 0.27787 0.76892 0.0
C1255 C 0.56081 0.2173 0.76758 0.0
C1256 C 0.56068 0.18397 0.77834 0.0
C1257 C 0.53372 0.17516 0.79334 0.0
C1258 C 0.534 0.14387 0.80362 0.0
C1259 C 0.56097 0.12107 0.79892 0.0
C1260 C 0.58767 0.12948 0.78386 0.0
C1261 C 0.58754 0.16076 0.77355 0.0
H1262 H 0.56115 0.09686 0.8069 0.0
H1263 H 0.56087 0.40018 0.70657 0.0
loop_
_geom_bond_atom_site_label_1
_geom_bond_atom_site_label_2
_geom_bond_distance
_geom_bond_site_symmetry_2
_ccdc_geom_bond_type
Co0 N4 2.148 . S
Co0 N10 2.128 . S
Co0 N20 2.194 . S
Co0 O25 2.351 . S
Co0 O26 2.155 . S
Co0 O27 2.096 . S
C1 N4 1.301 . S
C1 N5 1.328 1_455 S
C1 H6 0.930 1_455 S
C2 C3 1.333 . S
C2 N4 1.317 . S
C2 H7 0.930 . S
C3 C2 1.333 . S
C3 N5 1.350 1_455 S
C3 H29 0.931 . S
N4 Co0 2.148 . S
N4 C1 1.301 . S
N4 C2 1.317 . S
N5 C1 1.328 1_655 S
N5 C3 1.350 1_655 S
H6 C1 0.930 1_655 S
H7 C2 0.930 . S
C8 O9 1.224 . S
C8 O27 1.247 . S
O9 C8 1.224 . S
N10 Co0 2.128 . S
N10 C11 1.355 . S
N10 C13 1.311 . S
C11 N10 1.355 . S
C11 C12 1.363 . S
C11 H23 0.929 . S
C12 C11 1.363 . S
C12 N14 1.375 . S
C12 H30 0.931 . S
C13 N10 1.311 . S
C13 N14 1.347 . S
C13 H24 0.929 . S
N14 C12 1.375 . S
N14 C13 1.347 . S
C15 C18 1.365 . S
C15 N20 1.328 . S
C15 H21 0.929 . S
C16 C17 1.362 . S
C16 C19 1.378 . S
C16 H31 0.929 . S
C17 C16 1.362 . S
C17 C18 1.366 . S
C18 C15 1.365 . S
C18 C17 1.366 . S
C18 H32 0.930 . S
C19 C16 1.378 . S
C19 N20 1.315 . S
C19 H22 0.930 . S
N20 Co0 2.194 . S
N20 C15 1.328 . S
N20 C19 1.315 . S
H21 C15 0.929 . S
H22 C19 0.930 . S
H23 C11 0.929 . S
H24 C13 0.929 . S
O25 Co0 2.351 . S
O25 C28 1.244 . S
O26 Co0 2.155 . S
O26 C28 1.240 . S
O27 Co0 2.096 . S
O27 C8 1.247 . S
C28 O25 1.244 . S
C28 O26 1.240 . S
H29 C3 0.931 . S
H30 C12 0.931 . S
H31 C16 0.929 . S
H32 C18 0.930 . S
Co33 N37 2.148 . S
Co33 N43 2.128 . S
Co33 N53 2.194 . S
Co33 O58 2.351 . S
Co33 O59 2.155 . S
Co33 O60 2.096 . S
C34 N37 1.301 . S
C34 N38 1.328 . S
C34 H39 0.930 . S
C35 C36 1.333 . S
C35 N37 1.317 . S
C35 H40 0.930 . S
C36 C35 1.333 . S
C36 N38 1.350 . S
C36 H62 0.931 . S
N37 Co33 2.148 . S
N37 C34 1.301 . S
N37 C35 1.317 . S
N38 C34 1.328 . S
N38 C36 1.350 . S
H39 C34 0.930 . S
H40 C35 0.930 . S
C41 O42 1.224 . S
C41 O60 1.247 . S
O42 C41 1.224 . S
N43 Co33 2.128 . S
N43 C44 1.355 . S
N43 C46 1.311 . S
C44 N43 1.355 . S
C44 C45 1.363 . S
C44 H56 0.929 . S
C45 C44 1.363 . S
C45 N47 1.375 . S
C45 H63 0.931 . S
C46 N43 1.311 . S
C46 N47 1.347 . S
C46 H57 0.929 . S
N47 C45 1.375 . S
N47 C46 1.347 . S
C48 C51 1.365 . S
C48 N53 1.328 . S
C48 H54 0.929 . S
C49 C50 1.362 . S
C49 C52 1.378 . S
C49 H64 0.929 . S
C50 C49 1.362 . S
C50 C51 1.366 . S
C51 C48 1.365 . S
C51 C50 1.366 . S
C51 H65 0.930 . S
C52 C49 1.378 . S
C52 N53 1.315 . S
C52 H55 0.930 . S
N53 Co33 2.194 . S
N53 C48 1.328 . S
N53 C52 1.315 . S
H54 C48 0.929 . S
H55 C52 0.930 . S
H56 C44 0.929 . S
H57 C46 0.929 . S
O58 Co33 2.351 . S
O58 C61 1.244 . S
O59 Co33 2.155 . S
O59 C61 1.240 . S
O60 Co33 2.096 . S
O60 C41 1.247 . S
C61 O58 1.244 . S
C61 O59 1.240 . S
H62 C36 0.931 . S
H63 C45 0.931 . S
H64 C49 0.929 . S
H65 C51 0.930 . S
Co66 N70 2.148 . S
Co66 N76 2.128 . S
Co66 N86 2.194 . S
Co66 O91 2.351 . S
Co66 O92 2.155 . S
Co66 O93 2.096 . S
C67 N70 1.301 . S
C67 N71 1.328 1_455 S
C67 H72 0.930 1_455 S
C68 C69 1.333 . S
C68 N70 1.317 . S
C68 H73 0.930 . S
C69 C68 1.333 . S
C69 N71 1.350 1_455 S
C69 H95 0.931 . S
N70 Co66 2.148 . S
N70 C67 1.301 . S
N70 C68 1.317 . S
N71 C67 1.328 1_655 S
N71 C69 1.350 1_655 S
H72 C67 0.930 1_655 S
H73 C68 0.930 . S
C74 O75 1.224 . S
C74 O93 1.247 . S
O75 C74 1.224 . S
N76 Co66 2.128 . S
N76 C77 1.355 . S
N76 C79 1.311 . S
C77 N76 1.355 . S
C77 C78 1.363 . S
C77 H89 0.929 . S
C78 C77 1.363 . S
C78 N80 1.375 . S
C78 H96 0.931 . S
C79 N76 1.311 . S
C79 N80 1.347 . S
C79 H90 0.929 . S
N80 C78 1.375 . S
N80 C79 1.347 . S
C81 C84 1.365 . S
C81 N86 1.328 . S
C81 H87 0.929 . S
C82 C83 1.362 . S
C82 C85 1.378 . S
C82 H97 0.929 . S
C83 C82 1.362 . S
C83 C84 1.366 . S
C84 C81 1.365 . S
C84 C83 1.366 . S
C84 H98 0.930 . S
C85 C82 1.378 . S
C85 N86 1.315 . S
C85 H88 0.930 . S
N86 Co66 2.194 . S
N86 C81 1.328 . S
N86 C85 1.315 . S
H87 C81 0.929 . S
H88 C85 0.930 . S
H89 C77 0.929 . S
H90 C79 0.929 . S
O91 Co66 2.351 . S
O91 C94 1.244 . S
O92 Co66 2.155 . S
O92 C94 1.240 . S
O93 Co66 2.096 . S
O93 C74 1.247 . S
C94 O91 1.244 . S
C94 O92 1.240 . S
H95 C69 0.931 . S
H96 C78 0.931 . S
H97 C82 0.929 . S
H98 C84 0.930 . S
Co99 N103 2.148 . S
Co99 N109 2.128 . S
Co99 N119 2.194 . S
Co99 O124 2.351 . S
Co99 O125 2.155 . S
Co99 O126 2.096 . S
C100 N103 1.301 . S
C100 N104 1.328 . S
C100 H105 0.930 . S
C101 C102 1.333 . S
C101 N103 1.317 . S
C101 H106 0.930 . S
C102 C101 1.333 . S
C102 N104 1.350 . S
C102 H128 0.931 . S
N103 Co99 2.148 . S
N103 C100 1.301 . S
N103 C101 1.317 . S
N104 C100 1.328 . S
N104 C102 1.350 . S
H105 C100 0.930 . S
H106 C101 0.930 . S
C107 O108 1.224 . S
C107 O126 1.247 . S
O108 C107 1.224 . S
N109 Co99 2.128 . S
N109 C110 1.355 . S
N109 C112 1.311 . S
C110 N109 1.355 . S
C110 C111 1.363 . S
C110 H122 0.929 . S
C111 C110 1.363 . S
C111 N113 1.375 . S
C111 H129 0.931 . S
C112 N109 1.311 . S
C112 N113 1.347 . S
C112 H123 0.929 . S
N113 C111 1.375 . S
N113 C112 1.347 . S
C114 C117 1.365 . S
C114 N119 1.328 . S
C114 H120 0.929 . S
C115 C116 1.362 . S
C115 C118 1.378 . S
C115 H130 0.929 . S
C116 C115 1.362 . S
C116 C117 1.366 . S
C117 C114 1.365 . S
C117 C116 1.366 . S
C117 H131 0.930 . S
C118 C115 1.378 . S
C118 N119 1.315 . S
C118 H121 0.930 . S
N119 Co99 2.194 . S
N119 C114 1.328 . S
N119 C118 1.315 . S
H120 C114 0.929 . S
H121 C118 0.930 . S
H122 C110 0.929 . S
H123 C112 0.929 . S
O124 Co99 2.351 . S
O124 C127 1.244 . S
O125 Co99 2.155 . S
O125 C127 1.240 . S
O126 Co99 2.096 . S
O126 C107 1.247 . S
C127 O124 1.244 . S
C127 O125 1.240 . S
H128 C102 0.931 . S
H129 C111 0.931 . S
H130 C115 0.929 . S
H131 C117 0.930 . S
Co132 N136 2.148 . S
Co132 N142 2.128 . S
Co132 N152 2.194 . S
Co132 O157 2.351 . S
Co132 O158 2.155 . S
Co132 O159 2.096 . S
C133 N136 1.301 . S
C133 N137 1.328 1_655 S
C133 H138 0.930 1_655 S
C134 C135 1.333 . S
C134 N136 1.317 . S
C134 H139 0.930 . S
C135 C134 1.333 . S
C135 N137 1.350 1_655 S
C135 H161 0.931 . S
N136 Co132 2.148 . S
N136 C133 1.301 . S
N136 C134 1.317 . S
N137 C133 1.328 1_455 S
N137 C135 1.350 1_455 S
H138 C133 0.930 1_455 S
H139 C134 0.930 . S
C140 O141 1.224 . S
C140 O159 1.247 . S
O141 C140 1.224 . S
N142 Co132 2.128 . S
N142 C143 1.355 . S
N142 C145 1.311 . S
C143 N142 1.355 . S
C143 C144 1.363 . S
C143 H155 0.929 . S
C144 C143 1.363 . S
C144 N146 1.375 . S
C144 H162 0.931 . S
C145 N142 1.311 . S
C145 N146 1.347 . S
C145 H156 0.929 . S
N146 C144 1.375 . S
N146 C145 1.347 . S
C147 C150 1.365 . S
C147 N152 1.328 . S
C147 H153 0.929 . S
C148 C149 1.362 . S
C148 C151 1.378 . S
C148 H163 0.929 . S
C149 C148 1.362 . S
C149 C150 1.366 . S
C150 C147 1.365 . S
C150 C149 1.366 . S
C150 H164 0.930 . S
C151 C148 1.378 . S
C151 N152 1.315 . S
C151 H154 0.930 . S
N152 Co132 2.194 . S
N152 C147 1.328 . S
N152 C151 1.315 . S
H153 C147 0.929 . S
H154 C151 0.930 . S
H155 C143 0.929 . S
H156 C145 0.929 . S
O157 Co132 2.351 . S
O157 C160 1.244 . S
O158 Co132 2.155 . S
O158 C160 1.240 . S
O159 Co132 2.096 . S
O159 C140 1.247 . S
C160 O157 1.244 . S
C160 O158 1.240 . S
H161 C135 0.931 . S
H162 C144 0.931 . S
H163 C148 0.929 . S
H164 C150 0.930 . S
Co165 N169 2.148 . S
Co165 N175 2.128 . S
Co165 N185 2.194 . S
Co165 O190 2.351 . S
Co165 O191 2.155 . S
Co165 O192 2.096 . S
C166 N169 1.301 . S
C166 N170 1.328 . S
C166 H171 0.930 . S
C167 C168 1.333 . S
C167 N169 1.317 . S
C167 H172 0.930 . S
C168 C167 1.333 . S
C168 N170 1.350 . S
C168 H194 0.931 . S
N169 Co165 2.148 . S
N169 C166 1.301 . S
N169 C167 1.317 . S
N170 C166 1.328 . S
N170 C168 1.350 . S
H171 C166 0.930 . S
H172 C167 0.930 . S
C173 O174 1.224 . S
C173 O192 1.247 . S
O174 C173 1.224 . S
N175 Co165 2.128 . S
N175 C176 1.355 . S
N175 C178 1.311 . S
C176 N175 1.355 . S
C176 C177 1.363 . S
C176 H188 0.929 . S
C177 C176 1.363 . S
C177 N179 1.375 . S
C177 H195 0.931 . S
C178 N175 1.311 . S
C178 N179 1.347 . S
C178 H189 0.929 . S
N179 C177 1.375 . S
N179 C178 1.347 . S
C180 C183 1.365 . S
C180 N185 1.328 . S
C180 H186 0.929 . S
C181 C182 1.362 . S
C181 C184 1.378 . S
C181 H196 0.929 . S
C182 C181 1.362 . S
C182 C183 1.366 . S
C183 C180 1.365 . S
C183 C182 1.366 . S
C183 H197 0.930 . S
C184 C181 1.378 . S
C184 N185 1.315 . S
C184 H187 0.930 . S
N185 Co165 2.194 . S
N185 C180 1.328 . S
N185 C184 1.315 . S
H186 C180 0.929 . S
H187 C184 0.930 . S
H188 C176 0.929 . S
H189 C178 0.929 . S
O190 Co165 2.351 . S
O190 C193 1.244 . S
O191 Co165 2.155 . S
O191 C193 1.240 . S
O192 Co165 2.096 . S
O192 C173 1.247 . S
C193 O190 1.244 . S
C193 O191 1.240 . S
H194 C168 0.931 . S
H195 C177 0.931 . S
H196 C181 0.929 . S
H197 C183 0.930 . S
Co198 N202 2.148 . S
Co198 N208 2.128 . S
Co198 N218 2.194 . S
Co198 O223 2.351 . S
Co198 O224 2.155 . S
Co198 O225 2.096 . S
C199 N202 1.301 . S
C199 N203 1.328 1_655 S
C199 H204 0.930 1_655 S
C200 C201 1.333 . S
C200 N202 1.317 . S
C200 H205 0.930 . S
C201 C200 1.333 . S
C201 N203 1.350 1_655 S
C201 H227 0.931 . S
N202 Co198 2.148 . S
N202 C199 1.301 . S
N202 C200 1.317 . S
N203 C199 1.328 1_455 S
N203 C201 1.350 1_455 S
H204 C199 0.930 1_455 S
H205 C200 0.930 . S
C206 O207 1.224 . S
C206 O225 1.247 . S
O207 C206 1.224 . S
N208 Co198 2.128 . S
N208 C209 1.355 . S
N208 C211 1.311 . S
C209 N208 1.355 . S
C209 C210 1.363 . S
C209 H221 0.929 . S
C210 C209 1.363 . S
C210 N212 1.375 . S
C210 H228 0.931 . S
C211 N208 1.311 . S
C211 N212 1.347 . S
C211 H222 0.929 . S
N212 C210 1.375 . S
N212 C211 1.347 . S
C213 C216 1.365 . S
C213 N218 1.328 . S
C213 H219 0.929 . S
C214 C215 1.362 . S
C214 C217 1.378 . S
C214 H229 0.929 . S
C215 C214 1.362 . S
C215 C216 1.366 . S
C216 C213 1.365 . S
C216 C215 1.366 . S
C216 H230 0.930 . S
C217 C214 1.378 . S
C217 N218 1.315 . S
C217 H220 0.930 . S
N218 Co198 2.194 . S
N218 C213 1.328 . S
N218 C217 1.315 . S
H219 C213 0.929 . S
H220 C217 0.930 . S
H221 C209 0.929 . S
H222 C211 0.929 . S
O223 Co198 2.351 . S
O223 C226 1.244 . S
O224 Co198 2.155 . S
O224 C226 1.240 . S
O225 Co198 2.096 . S
O225 C206 1.247 . S
C226 O223 1.244 . S
C226 O224 1.240 . S
H227 C201 0.931 . S
H228 C210 0.931 . S
H229 C214 0.929 . S
H230 C216 0.930 . S
Co231 N235 2.148 . S
Co231 N241 2.128 . S
Co231 N251 2.194 . S
Co231 O256 2.351 . S
Co231 O257 2.155 . S
Co231 O258 2.096 . S
C232 N235 1.301 . S
C232 N236 1.328 . S
C232 H237 0.930 . S
C233 C234 1.333 . S
C233 N235 1.317 . S
C233 H238 0.930 . S
C234 C233 1.333 . S
C234 N236 1.350 . S
C234 H260 0.931 . S
N235 Co231 2.148 . S
N235 C232 1.301 . S
N235 C233 1.317 . S
N236 C232 1.328 . S
N236 C234 1.350 . S
H237 C232 0.930 . S
H238 C233 0.930 . S
C239 O240 1.224 . S
C239 O258 1.247 . S
O240 C239 1.224 . S
N241 Co231 2.128 . S
N241 C242 1.355 . S
N241 C244 1.311 . S
C242 N241 1.355 . S
C242 C243 1.363 . S
C242 H254 0.929 . S
C243 C242 1.363 . S
C243 N245 1.375 . S
C243 H261 0.931 . S
C244 N241 1.311 . S
C244 N245 1.347 . S
C244 H255 0.929 . S
N245 C243 1.375 . S
N245 C244 1.347 . S
C246 C249 1.365 . S
C246 N251 1.328 . S
C246 H252 0.929 . S
C247 C248 1.362 . S
C247 C250 1.378 . S
C247 H262 0.929 . S
C248 C247 1.362 . S
C248 C249 1.366 . S
C249 C246 1.365 . S
C249 C248 1.366 . S
C249 H263 0.930 . S
C250 C247 1.378 . S
C250 N251 1.315 . S
C250 H253 0.930 . S
N251 Co231 2.194 . S
N251 C246 1.328 . S
N251 C250 1.315 . S
H252 C246 0.929 . S
H253 C250 0.930 . S
H254 C242 0.929 . S
H255 C244 0.929 . S
O256 Co231 2.351 . S
O256 C259 1.244 . S
O257 Co231 2.155 . S
O257 C259 1.240 . S
O258 Co231 2.096 . S
O258 C239 1.247 . S
C259 O256 1.244 . S
C259 O257 1.240 . S
H260 C234 0.931 . S
H261 C243 0.931 . S
H262 C247 0.929 . S
H263 C249 0.930 . S
H264 C282 0.951 . S
H265 C284 0.951 . S
H266 C286 0.986 . S
H267 C287 0.942 1_655 S
H268 C289 0.950 . S
H269 C292 0.950 1_556 S
H270 C293 0.950 . S
H271 C295 0.950 1_565 S
H272 C296 0.950 . S
H273 C297 0.951 . S
H274 C299 0.951 . S
H275 C301 0.986 . S
H276 C302 0.942 1_455 S
H277 C304 0.950 . S
H278 C307 0.950 1_554 S
H279 C308 0.950 . S
H280 C310 0.950 1_545 S
H281 C311 0.950 . S
C282 H264 0.951 . S
C282 C283 1.366 . S
C282 C284 1.388 . S
C283 C282 1.366 . S
C283 C287 1.395 . S
C284 H265 0.951 . S
C284 C282 1.388 . S
C284 C285 1.366 . S
C285 C284 1.366 . S
C285 C286 1.414 1_455 S
C285 C288 1.499 . S
C286 H266 0.986 . S
C286 C285 1.414 1_655 S
C286 C287 1.371 1_655 S
C287 H267 0.942 1_455 S
C287 C283 1.395 . S
C287 C286 1.371 1_455 S
C288 C285 1.499 . S
C288 C289 1.373 1_455 S
C288 C290 1.389 . S
C289 H268 0.950 . S
C289 C288 1.373 1_655 S
C289 C305 1.377 1_544 S
C290 C288 1.389 . S
C290 C291 1.524 . S
C290 C304 1.377 1_544 S
C291 C290 1.524 . S
C291 C292 1.397 . S
C291 C296 1.363 1_545 S
C292 H269 0.950 1_554 S
C292 C291 1.397 . S
C292 C293 1.334 . S
C293 H270 0.950 . S
C293 C292 1.334 . S
C293 C294 1.287 . S
C294 C293 1.287 . S
C294 C295 1.524 . S
C294 H313 0.913 . S
C295 H271 0.950 1_545 S
C295 C294 1.524 . S
C295 C296 1.415 1_545 S
C296 H272 0.950 . S
C296 C291 1.363 1_565 S
C296 C295 1.415 1_565 S
C297 H273 0.951 . S
C297 C298 1.366 . S
C297 C299 1.388 . S
C298 C297 1.366 . S
C298 C302 1.395 . S
C299 H274 0.951 . S
C299 C297 1.388 . S
C299 C300 1.366 . S
C300 C299 1.366 . S
C300 C301 1.414 1_655 S
C300 C303 1.499 . S
C301 H275 0.986 . S
C301 C300 1.414 1_455 S
C301 C302 1.371 1_455 S
C302 H276 0.942 1_655 S
C302 C298 1.395 . S
C302 C301 1.371 1_655 S
C303 C300 1.499 . S
C303 C304 1.373 1_655 S
C303 C305 1.389 . S
C304 H277 0.950 . S
C304 C290 1.377 1_566 S
C304 C303 1.373 1_455 S
C305 C289 1.377 1_566 S
C305 C303 1.389 . S
C305 C306 1.524 . S
C306 C305 1.524 . S
C306 C307 1.397 . S
C306 C311 1.363 1_565 S
C307 H278 0.950 1_556 S
C307 C306 1.397 . S
C307 C308 1.334 . S
C308 H279 0.950 . S
C308 C307 1.334 . S
C308 C309 1.287 . S
C309 C308 1.287 . S
C309 C310 1.524 . S
C309 H312 0.999 . S
C310 H280 0.950 1_565 S
C310 C309 1.524 . S
C310 C311 1.415 1_565 S
C311 H281 0.950 . S
C311 C306 1.363 1_545 S
C311 C310 1.415 1_545 S
H312 C309 0.999 . S
H313 C294 0.913 . S
H314 C332 0.951 . S
H315 C334 0.917 1_554 S
H316 C336 0.950 . S
H317 C337 0.950 . S
H318 C339 0.950 . S
H319 C342 0.950 1_556 S
H320 C343 0.950 . S
H321 C345 0.950 . S
H322 C346 0.950 . S
H323 C347 0.951 . S
H324 C349 0.917 1_556 S
H325 C351 0.950 . S
H326 C352 0.950 . S
H327 C354 0.950 . S
H328 C357 0.950 1_554 S
H329 C358 0.950 . S
H330 C360 0.950 . S
H331 C361 0.950 . S
C332 H314 0.951 . S
C332 C333 1.366 . S
C332 C334 1.388 . S
C333 C332 1.366 . S
C333 C337 1.385 . S
C334 H315 0.917 1_556 S
C334 C332 1.388 . S
C334 C335 1.366 . S
C335 C334 1.366 . S
C335 C336 1.414 . S
C335 C338 1.499 . S
C336 H316 0.950 . S
C336 C335 1.414 . S
C336 C337 1.374 . S
C337 H317 0.950 . S
C337 C333 1.385 . S
C337 C336 1.374 . S
C338 C335 1.499 . S
C338 C339 1.373 . S
C338 C340 1.389 1_556 S
C339 H318 0.950 . S
C339 C338 1.373 . S
C339 C355 1.377 1_545 S
C340 C338 1.389 1_554 S
C340 C341 1.524 . S
C340 C354 1.377 1_545 S
C341 C340 1.524 . S
C341 C342 1.397 . S
C341 C346 1.363 . S
C342 H319 0.950 1_554 S
C342 C341 1.397 . S
C342 C343 1.334 . S
C343 H320 0.950 . S
C343 C342 1.334 . S
C343 C344 1.287 . S
C344 C343 1.287 . S
C344 C345 1.524 . S
C344 H363 0.913 . S
C345 H321 0.950 . S
C345 C344 1.524 . S
C345 C346 1.415 . S
C346 H322 0.950 . S
C346 C341 1.363 . S
C346 C345 1.415 . S
C347 H323 0.951 . S
C347 C348 1.366 . S
C347 C349 1.388 . S
C348 C347 1.366 . S
C348 C352 1.385 . S
C349 H324 0.917 1_554 S
C349 C347 1.388 . S
C349 C350 1.366 . S
C350 C349 1.366 . S
C350 C351 1.414 . S
C350 C353 1.499 . S
C351 H325 0.950 . S
C351 C350 1.414 . S
C351 C352 1.374 . S
C352 H326 0.950 . S
C352 C348 1.385 . S
C352 C351 1.374 . S
C353 C350 1.499 . S
C353 C354 1.373 . S
C353 C355 1.389 1_554 S
C354 H327 0.950 . S
C354 C340 1.377 1_565 S
C354 C353 1.373 . S
C355 C339 1.377 1_565 S
C355 C353 1.389 1_556 S
C355 C356 1.524 . S
C356 C355 1.524 . S
C356 C357 1.397 . S
C356 C361 1.363 . S
C357 H328 0.950 1_556 S
C357 C356 1.397 . S
C357 C358 1.334 . S
C358 H329 0.950 . S
C358 C357 1.334 . S
C358 C359 1.287 . S
C359 C358 1.287 . S
C359 C360 1.524 . S
C359 H362 0.999 . S
C360 H330 0.950 . S
C360 C359 1.524 . S
C360 C361 1.415 . S
C361 H331 0.950 . S
C361 C356 1.363 . S
C361 C360 1.415 . S
H362 C359 0.999 . S
H363 C344 0.913 . S
H364 C382 0.951 . S
H365 C384 0.951 . S
H366 C386 0.950 . S
H367 C387 0.950 . S
H368 C389 0.950 . S
H369 C392 0.950 . S
H370 C393 0.950 . S
H371 C395 0.950 . S
H372 C396 0.950 . S
H373 C397 0.951 . S
H374 C399 0.951 . S
H375 C401 0.950 . S
H376 C402 0.950 . S
H377 C404 0.950 . S
H378 C407 0.950 . S
H379 C408 0.950 . S
H380 C410 0.950 . S
H381 C411 0.950 . S
C382 H364 0.951 . S
C382 C383 1.366 . S
C382 C384 1.388 . S
C383 C382 1.366 . S
C383 C387 1.385 1_655 S
C384 H365 0.951 . S
C384 C382 1.388 . S
C384 C385 1.366 . S
C385 C384 1.366 . S
C385 C386 1.414 1_655 S
C385 C388 1.499 . S
C386 H366 0.950 . S
C386 C385 1.414 1_455 S
C386 C387 1.374 . S
C387 H367 0.950 . S
C387 C383 1.385 1_455 S
C387 C386 1.374 . S
C388 C385 1.499 . S
C388 C389 1.373 1_655 S
C388 C390 1.389 . S
C389 H368 0.950 . S
C389 C388 1.373 1_455 S
C389 C405 1.377 . S
C390 C388 1.389 . S
C390 C391 1.524 . S
C390 C404 1.377 . S
C391 C390 1.524 . S
C391 C392 1.397 . S
C391 C396 1.363 . S
C392 H369 0.950 . S
C392 C391 1.397 . S
C392 C393 1.334 . S
C393 H370 0.950 . S
C393 C392 1.334 . S
C393 C394 1.287 . S
C394 C393 1.287 . S
C394 C395 1.524 . S
C394 H413 0.913 . S
C395 H371 0.950 . S
C395 C394 1.524 . S
C395 C396 1.415 . S
C396 H372 0.950 . S
C396 C391 1.363 . S
C396 C395 1.415 . S
C397 H373 0.951 . S
C397 C398 1.366 . S
C397 C399 1.388 . S
C398 C397 1.366 . S
C398 C402 1.385 1_455 S
C399 H374 0.951 . S
C399 C397 1.388 . S
C399 C400 1.366 . S
C400 C399 1.366 . S
C400 C401 1.414 1_455 S
C400 C403 1.499 . S
C401 H375 0.950 . S
C401 C400 1.414 1_655 S
C401 C402 1.374 . S
C402 H376 0.950 . S
C402 C398 1.385 1_655 S
C402 C401 1.374 . S
C403 C400 1.499 . S
C403 C404 1.373 1_455 S
C403 C405 1.389 . S
C404 H377 0.950 . S
C404 C390 1.377 . S
C404 C403 1.373 1_655 S
C405 C389 1.377 . S
C405 C403 1.389 . S
C405 C406 1.524 . S
C406 C405 1.524 . S
C406 C407 1.397 . S
C406 C411 1.363 . S
C407 H378 0.950 . S
C407 C406 1.397 . S
C407 C408 1.334 . S
C408 H379 0.950 . S
C408 C407 1.334 . S
C408 C409 1.287 . S
C409 C408 1.287 . S
C409 C410 1.524 . S
C409 H412 0.999 . S
C410 H380 0.950 . S
C410 C409 1.524 . S
C410 C411 1.415 . S
C411 H381 0.950 . S
C411 C406 1.363 . S
C411 C410 1.415 . S
H412 C409 0.999 . S
H413 C394 0.913 . S
H414 C432 0.951 . S
H415 C434 0.951 . S
H416 C436 0.950 . S
H417 C437 0.950 . S
H418 C439 0.950 . S
H419 C442 0.950 . S
H420 C443 0.950 . S
H421 C445 0.950 . S
H422 C446 0.950 . S
H423 C447 0.951 . S
H424 C449 0.951 . S
H425 C451 0.950 . S
H426 C452 0.950 . S
H427 C454 0.950 . S
H428 C457 0.950 . S
H429 C458 0.950 . S
H430 C460 0.950 . S
H431 C461 0.950 . S
C432 H414 0.951 . S
C432 C433 1.366 . S
C432 C434 1.388 . S
C433 C432 1.366 . S
C433 C437 1.385 . S
C434 H415 0.951 . S
C434 C432 1.388 . S
C434 C435 1.366 . S
C435 C434 1.366 . S
C435 C436 1.414 . S
C435 C438 1.499 . S
C436 H416 0.950 . S
C436 C435 1.414 . S
C436 C437 1.374 . S
C437 H417 0.950 . S
C437 C433 1.385 . S
C437 C436 1.374 . S
C438 C435 1.499 . S
C438 C439 1.373 . S
C438 C440 1.389 . S
C439 H418 0.950 . S
C439 C438 1.373 . S
C439 C455 1.377 . S
C440 C438 1.389 . S
C440 C441 1.524 . S
C440 C454 1.377 . S
C441 C440 1.524 . S
C441 C442 1.397 . S
C441 C446 1.363 . S
C442 H419 0.950 . S
C442 C441 1.397 . S
C442 C443 1.334 . S
C443 H420 0.950 . S
C443 C442 1.334 . S
C443 C444 1.287 . S
C444 C443 1.287 . S
C444 C445 1.524 . S
C444 H463 0.913 . S
C445 H421 0.950 . S
C445 C444 1.524 . S
C445 C446 1.415 . S
C446 H422 0.950 . S
C446 C441 1.363 . S
C446 C445 1.415 . S
C447 H423 0.951 . S
C447 C448 1.366 . S
C447 C449 1.388 . S
C448 C447 1.366 . S
C448 C452 1.385 . S
C449 H424 0.951 . S
C449 C447 1.388 . S
C449 C450 1.366 . S
C450 C449 1.366 . S
C450 C451 1.414 . S
C450 C453 1.499 . S
C451 H425 0.950 . S
C451 C450 1.414 . S
C451 C452 1.374 . S
C452 H426 0.950 . S
C452 C448 1.385 . S
C452 C451 1.374 . S
C453 C450 1.499 . S
C453 C454 1.373 . S
C453 C455 1.389 . S
C454 H427 0.950 . S
C454 C440 1.377 . S
C454 C453 1.373 . S
C455 C439 1.377 . S
C455 C453 1.389 . S
C455 C456 1.524 . S
C456 C455 1.524 . S
C456 C457 1.397 . S
C456 C461 1.363 . S
C457 H428 0.950 . S
C457 C456 1.397 . S
C457 C458 1.334 . S
C458 H429 0.950 . S
C458 C457 1.334 . S
C458 C459 1.287 . S
C459 C458 1.287 . S
C459 C460 1.524 . S
C459 H462 0.999 . S
C460 H430 0.950 . S
C460 C459 1.524 . S
C460 C461 1.415 . S
C461 H431 0.950 . S
C461 C456 1.363 . S
C461 C460 1.415 . S
H462 C459 0.999 . S
H463 C444 0.913 . S
H464 C482 0.951 . S
H465 C484 0.951 . S
H466 C486 0.950 . S
H467 C487 0.950 . S
H468 C489 0.950 . S
H469 C492 0.950 . S
H470 C493 0.950 . S
H471 C495 0.950 . S
H472 C496 0.950 . S
H473 C497 0.951 . S
H474 C499 0.951 . S
H475 C501 0.950 . S
H476 C502 0.950 . S
H477 C504 0.950 . S
H478 C507 0.950 . S
H479 C508 0.950 . S
H480 C510 0.950 . S
H481 C511 0.950 . S
C482 H464 0.951 . S
C482 C483 1.366 . S
C482 C484 1.388 . S
C483 C482 1.366 . S
C483 C487 1.385 . S
C484 H465 0.951 . S
C484 C482 1.388 . S
C484 C485 1.366 . S
C485 C484 1.366 . S
C485 C486 1.414 . S
C485 C488 1.499 . S
C486 H466 0.950 . S
C486 C485 1.414 . S
C486 C487 1.374 . S
C487 H467 0.950 . S
C487 C483 1.385 . S
C487 C486 1.374 . S
C488 C485 1.499 . S
C488 C489 1.373 . S
C488 C490 1.389 . S
C489 H468 0.950 . S
C489 C488 1.373 . S
C489 C505 1.377 1_565 S
C490 C488 1.389 . S
C490 C491 1.524 . S
C490 C504 1.377 1_565 S
C491 C490 1.524 . S
C491 C492 1.397 . S
C491 C496 1.363 . S
C492 H469 0.950 . S
C492 C491 1.397 . S
C492 C493 1.334 . S
C493 H470 0.950 . S
C493 C492 1.334 . S
C493 C494 1.287 . S
C494 C493 1.287 . S
C494 C495 1.524 . S
C494 H513 0.913 1_554 S
C495 H471 0.950 . S
C495 C494 1.524 . S
C495 C496 1.415 . S
C496 H472 0.950 . S
C496 C491 1.363 . S
C496 C495 1.415 . S
C497 H473 0.951 . S
C497 C498 1.366 . S
C497 C499 1.388 . S
C498 C497 1.366 . S
C498 C502 1.385 . S
C499 H474 0.951 . S
C499 C497 1.388 . S
C499 C500 1.366 . S
C500 C499 1.366 . S
C500 C501 1.414 . S
C500 C503 1.499 . S
C501 H475 0.950 . S
C501 C500 1.414 . S
C501 C502 1.374 . S
C502 H476 0.950 . S
C502 C498 1.385 . S
C502 C501 1.374 . S
C503 C500 1.499 . S
C503 C504 1.373 . S
C503 C505 1.389 . S
C504 H477 0.950 . S
C504 C490 1.377 1_545 S
C504 C503 1.373 . S
C505 C489 1.377 1_545 S
C505 C503 1.389 . S
C505 C506 1.524 . S
C506 C505 1.524 . S
C506 C507 1.397 . S
C506 C511 1.363 . S
C507 H478 0.950 . S
C507 C506 1.397 . S
C507 C508 1.334 . S
C508 H479 0.950 . S
C508 C507 1.334 . S
C508 C509 1.287 . S
C509 C508 1.287 . S
C509 C510 1.524 . S
C509 H512 0.999 . S
C510 H480 0.950 . S
C510 C509 1.524 . S
C510 C511 1.415 . S
C511 H481 0.950 . S
C511 C506 1.363 . S
C511 C510 1.415 . S
H512 C509 0.999 . S
H513 C494 0.913 1_556 S
H514 C532 0.951 . S
H515 C534 0.951 . S
H516 C536 0.950 . S
H517 C537 0.950 . S
H518 C539 0.950 . S
H519 C542 0.950 . S
H520 C543 0.950 . S
H521 C545 0.950 . S
H522 C546 0.950 . S
H523 C547 0.951 . S
H524 C549 0.951 . S
H525 C551 0.950 . S
H526 C552 0.950 . S
H527 C554 0.950 . S
H528 C557 0.950 . S
H529 C558 0.950 . S
H530 C560 0.950 . S
H531 C561 0.950 . S
C532 H514 0.951 . S
C532 C533 1.366 . S
C532 C534 1.388 . S
C533 C532 1.366 . S
C533 C537 1.385 . S
C534 H515 0.951 . S
C534 C532 1.388 . S
C534 C535 1.366 . S
C535 C534 1.366 . S
C535 C536 1.414 . S
C535 C538 1.499 . S
C536 H516 0.950 . S
C536 C535 1.414 . S
C536 C537 1.374 . S
C537 H517 0.950 . S
C537 C533 1.385 . S
C537 C536 1.374 . S
C538 C535 1.499 . S
C538 C539 1.373 . S
C538 C540 1.389 . S
C539 H518 0.950 . S
C539 C538 1.373 . S
C539 C555 1.377 . S
C540 C538 1.389 . S
C540 C541 1.524 . S
C540 C554 1.377 . S
C541 C540 1.524 . S
C541 C542 1.397 . S
C541 C546 1.363 . S
C542 H519 0.950 . S
C542 C541 1.397 . S
C542 C543 1.334 . S
C543 H520 0.950 . S
C543 C542 1.334 . S
C543 C544 1.287 . S
C544 C543 1.287 . S
C544 C545 1.524 . S
C544 H563 0.913 . S
C545 H521 0.950 . S
C545 C544 1.524 . S
C545 C546 1.415 . S
C546 H522 0.950 . S
C546 C541 1.363 . S
C546 C545 1.415 . S
C547 H523 0.951 . S
C547 C548 1.366 . S
C547 C549 1.388 . S
C548 C547 1.366 . S
C548 C552 1.385 . S
C549 H524 0.951 . S
C549 C547 1.388 . S
C549 C550 1.366 . S
C550 C549 1.366 . S
C550 C551 1.414 . S
C550 C553 1.499 . S
C551 H525 0.950 . S
C551 C550 1.414 . S
C551 C552 1.374 . S
C552 H526 0.950 . S
C552 C548 1.385 . S
C552 C551 1.374 . S
C553 C550 1.499 . S
C553 C554 1.373 . S
C553 C555 1.389 . S
C554 H527 0.950 . S
C554 C540 1.377 . S
C554 C553 1.373 . S
C555 C539 1.377 . S
C555 C553 1.389 . S
C555 C556 1.524 . S
C556 C555 1.524 . S
C556 C557 1.397 . S
C556 C561 1.363 . S
C557 H528 0.950 . S
C557 C556 1.397 . S
C557 C558 1.334 . S
C558 H529 0.950 . S
C558 C557 1.334 . S
C558 C559 1.287 . S
C559 C558 1.287 . S
C559 C560 1.524 . S
C559 H562 0.999 . S
C560 H530 0.950 . S
C560 C559 1.524 . S
C560 C561 1.415 . S
C561 H531 0.950 . S
C561 C556 1.363 . S
C561 C560 1.415 . S
H562 C559 0.999 . S
H563 C544 0.913 . S
H564 C582 0.951 . S
H565 C584 0.951 . S
H566 C586 0.950 . S
H567 C587 0.950 . S
H568 C589 0.950 . S
H569 C592 0.950 . S
H570 C593 0.950 . S
H571 C595 0.950 . S
H572 C596 0.950 . S
H573 C597 0.951 . S
H574 C599 0.951 . S
H575 C601 0.950 . S
H576 C602 0.950 . S
H577 C604 0.950 . S
H578 C607 0.950 . S
H579 C608 0.950 . S
H580 C610 0.950 1_554 S
H581 C611 0.950 . S
C582 H564 0.951 . S
C582 C583 1.366 . S
C582 C584 1.388 . S
C583 C582 1.366 . S
C583 C587 1.385 . S
C584 H565 0.951 . S
C584 C582 1.388 . S
C584 C585 1.366 . S
C585 C584 1.366 . S
C585 C586 1.414 . S
C585 C588 1.499 . S
C586 H566 0.950 . S
C586 C585 1.414 . S
C586 C587 1.374 . S
C587 H567 0.950 . S
C587 C583 1.385 . S
C587 C586 1.374 . S
C588 C585 1.499 . S
C588 C589 1.373 . S
C588 C590 1.389 . S
C589 H568 0.950 . S
C589 C588 1.373 . S
C589 C605 1.377 1_565 S
C590 C588 1.389 . S
C590 C591 1.524 . S
C590 C604 1.377 1_565 S
C591 C590 1.524 . S
C591 C592 1.397 . S
C591 C596 1.363 . S
C592 H569 0.950 . S
C592 C591 1.397 . S
C592 C593 1.334 . S
C593 H570 0.950 . S
C593 C592 1.334 . S
C593 C594 1.287 . S
C594 C593 1.287 . S
C594 C595 1.524 . S
C594 H613 0.913 . S
C595 H571 0.950 . S
C595 C594 1.524 . S
C595 C596 1.415 . S
C596 H572 0.950 . S
C596 C591 1.363 . S
C596 C595 1.415 . S
C597 H573 0.951 . S
C597 C598 1.366 . S
C597 C599 1.388 . S
C598 C597 1.366 . S
C598 C602 1.385 . S
C599 H574 0.951 . S
C599 C597 1.388 . S
C599 C600 1.366 . S
C600 C599 1.366 . S
C600 C601 1.414 . S
C600 C603 1.499 . S
C601 H575 0.950 . S
C601 C600 1.414 . S
C601 C602 1.374 . S
C602 H576 0.950 . S
C602 C598 1.385 . S
C602 C601 1.374 . S
C603 C600 1.499 . S
C603 C604 1.373 . S
C603 C605 1.389 . S
C604 H577 0.950 . S
C604 C590 1.377 1_545 S
C604 C603 1.373 . S
C605 C589 1.377 1_545 S
C605 C603 1.389 . S
C605 C606 1.524 . S
C606 C605 1.524 . S
C606 C607 1.397 . S
C606 C611 1.363 . S
C607 H578 0.950 . S
C607 C606 1.397 . S
C607 C608 1.334 . S
C608 H579 0.950 . S
C608 C607 1.334 . S
C608 C609 1.287 . S
C609 C608 1.287 . S
C609 C610 1.524 . S
C609 H612 0.999 1_556 S
C610 H580 0.950 1_556 S
C610 C609 1.524 . S
C610 C611 1.415 . S
C611 H581 0.950 . S
C611 C606 1.363 . S
C611 C610 1.415 . S
H612 C609 0.999 1_554 S
H613 C594 0.913 . S
H614 C632 0.951 . S
H615 C634 0.951 . S
H616 C636 0.950 . S
H617 C637 0.950 . S
H618 C639 0.950 . S
H619 C642 0.950 . S
H620 C643 0.950 . S
H621 C645 0.950 . S
H622 C646 0.950 . S
H623 C647 0.951 . S
H624 C649 0.951 . S
H625 C651 0.950 . S
H626 C652 0.950 . S
H627 C654 0.950 . S
H628 C657 0.950 . S
H629 C658 0.950 . S
H630 C660 0.950 . S
H631 C661 0.950 . S
C632 H614 0.951 . S
C632 C633 1.366 . S
C632 C634 1.388 . S
C633 C632 1.366 . S
C633 C637 1.385 . S
C634 H615 0.951 . S
C634 C632 1.388 . S
C634 C635 1.366 . S
C635 C634 1.366 . S
C635 C636 1.414 . S
C635 C638 1.499 . S
C636 H616 0.950 . S
C636 C635 1.414 . S
C636 C637 1.374 . S
C637 H617 0.950 . S
C637 C633 1.385 . S
C637 C636 1.374 . S
C638 C635 1.499 . S
C638 C639 1.373 . S
C638 C640 1.389 . S
C639 H618 0.950 . S
C639 C638 1.373 . S
C639 C655 1.377 . S
C640 C638 1.389 . S
C640 C641 1.524 . S
C640 C654 1.377 . S
C641 C640 1.524 . S
C641 C642 1.397 . S
C641 C646 1.363 . S
C642 H619 0.950 . S
C642 C641 1.397 . S
C642 C643 1.334 . S
C643 H620 0.950 . S
C643 C642 1.334 . S
C643 C644 1.287 . S
C644 C643 1.287 . S
C644 C645 1.524 . S
C644 H663 0.913 . S
C645 H621 0.950 . S
C645 C644 1.524 . S
C645 C646 1.415 . S
C646 H622 0.950 . S
C646 C641 1.363 . S
C646 C645 1.415 . S
C647 H623 0.951 . S
C647 C648 1.366 . S
C647 C649 1.388 . S
C648 C647 1.366 . S
C648 C652 1.385 . S
C649 H624 0.951 . S
C649 C647 1.388 . S
C649 C650 1.366 . S
C650 C649 1.366 . S
C650 C651 1.414 . S
C650 C653 1.499 . S
C651 H625 0.950 . S
C651 C650 1.414 . S
C651 C652 1.374 . S
C652 H626 0.950 . S
C652 C648 1.385 . S
C652 C651 1.374 . S
C653 C650 1.499 . S
C653 C654 1.373 . S
C653 C655 1.389 . S
C654 H627 0.950 . S
C654 C640 1.377 . S
C654 C653 1.373 . S
C655 C639 1.377 . S
C655 C653 1.389 . S
C655 C656 1.524 . S
C656 C655 1.524 . S
C656 C657 1.397 . S
C656 C661 1.363 . S
C657 H628 0.950 . S
C657 C656 1.397 . S
C657 C658 1.334 . S
C658 H629 0.950 . S
C658 C657 1.334 . S
C658 C659 1.287 . S
C659 C658 1.287 . S
C659 C660 1.524 . S
C659 H662 0.999 . S
C660 H630 0.950 . S
C660 C659 1.524 . S
C660 C661 1.415 . S
C661 H631 0.950 . S
C661 C656 1.363 . S
C661 C660 1.415 . S
H662 C659 0.999 . S
H663 C644 0.913 . S
H664 C682 0.951 . S
H665 C684 0.951 . S
H666 C686 0.950 1_556 S
H667 C687 0.950 . S
H668 C689 0.950 . S
H669 C692 0.950 . S
H670 C693 0.950 . S
H671 C695 0.950 . S
H672 C696 0.950 . S
H673 C697 0.951 . S
H674 C699 0.951 . S
H675 C701 0.950 1_554 S
H676 C702 0.950 . S
H677 C704 0.950 . S
H678 C707 0.950 . S
H679 C708 0.950 . S
H680 C710 0.950 . S
H681 C711 0.950 . S
C682 H664 0.951 . S
C682 C683 1.366 . S
C682 C684 1.388 . S
C683 C682 1.366 . S
C683 C687 1.385 . S
C684 H665 0.951 . S
C684 C682 1.388 . S
C684 C685 1.366 . S
C685 C684 1.366 . S
C685 C686 1.414 . S
C685 C688 1.499 . S
C686 H666 0.950 1_554 S
C686 C685 1.414 . S
C686 C687 1.374 . S
C687 H667 0.950 . S
C687 C683 1.385 . S
C687 C686 1.374 . S
C688 C685 1.499 . S
C688 C689 1.373 1_554 S
C688 C690 1.389 . S
C689 H668 0.950 . S
C689 C688 1.373 1_556 S
C689 C705 1.377 . S
C690 C688 1.389 . S
C690 C691 1.524 . S
C690 C704 1.377 . S
C691 C690 1.524 . S
C691 C692 1.397 . S
C691 C696 1.363 . S
C692 H669 0.950 . S
C692 C691 1.397 . S
C692 C693 1.334 . S
C693 H670 0.950 . S
C693 C692 1.334 . S
C693 C694 1.287 . S
C694 C693 1.287 . S
C694 C695 1.524 . S
C694 H713 0.913 . S
C695 H671 0.950 . S
C695 C694 1.524 . S
C695 C696 1.415 . S
C696 H672 0.950 . S
C696 C691 1.363 . S
C696 C695 1.415 . S
C697 H673 0.951 . S
C697 C698 1.366 . S
C697 C699 1.388 . S
C698 C697 1.366 . S
C698 C702 1.385 . S
C699 H674 0.951 . S
C699 C697 1.388 . S
C699 C700 1.366 . S
C700 C699 1.366 . S
C700 C701 1.414 . S
C700 C703 1.499 . S
C701 H675 0.950 1_556 S
C701 C700 1.414 . S
C701 C702 1.374 . S
C702 H676 0.950 . S
C702 C698 1.385 . S
C702 C701 1.374 . S
C703 C700 1.499 . S
C703 C704 1.373 1_556 S
C703 C705 1.389 . S
C704 H677 0.950 . S
C704 C690 1.377 . S
C704 C703 1.373 1_554 S
C705 C689 1.377 . S
C705 C703 1.389 . S
C705 C706 1.524 . S
C706 C705 1.524 . S
C706 C707 1.397 . S
C706 C711 1.363 . S
C707 H678 0.950 . S
C707 C706 1.397 . S
C707 C708 1.334 . S
C708 H679 0.950 . S
C708 C707 1.334 . S
C708 C709 1.287 . S
C709 C708 1.287 . S
C709 C710 1.524 . S
C709 H712 0.999 . S
C710 H680 0.950 . S
C710 C709 1.524 . S
C710 C711 1.415 . S
C711 H681 0.950 . S
C711 C706 1.363 . S
C711 C710 1.415 . S
H712 C709 0.999 . S
H713 C694 0.913 . S
H714 C732 0.963 . S
H715 C734 0.951 1_554 S
H716 C736 0.950 . S
H717 C737 0.950 . S
H718 C739 0.950 . S
H719 C742 0.950 1_556 S
H720 C743 0.950 . S
H721 C745 0.950 . S
H722 C746 0.950 . S
H723 C747 0.921 1_556 S
H724 C749 0.951 1_556 S
H725 C751 0.950 . S
H726 C752 0.950 . S
H727 C754 0.950 . S
H728 C757 0.950 1_554 S
H729 C758 0.950 . S
H730 C760 0.950 . S
H731 C761 0.950 . S
C732 H714 0.963 . S
C732 C733 1.366 . S
C732 C734 1.388 . S
C733 C732 1.366 . S
C733 C737 1.385 . S
C734 H715 0.951 1_556 S
C734 C732 1.388 . S
C734 C735 1.366 . S
C735 C734 1.366 . S
C735 C736 1.414 . S
C735 C738 1.499 . S
C736 H716 0.950 . S
C736 C735 1.414 . S
C736 C737 1.374 . S
C737 H717 0.950 . S
C737 C733 1.385 . S
C737 C736 1.374 . S
C738 C735 1.499 . S
C738 C739 1.373 . S
C738 C740 1.389 1_556 S
C739 H718 0.950 . S
C739 C738 1.373 . S
C739 C755 1.377 . S
C740 C738 1.389 1_554 S
C740 C741 1.524 . S
C740 C754 1.377 . S
C741 C740 1.524 . S
C741 C742 1.397 . S
C741 C746 1.363 . S
C742 H719 0.950 1_554 S
C742 C741 1.397 . S
C742 C743 1.334 . S
C743 H720 0.950 . S
C743 C742 1.334 . S
C743 C744 1.287 . S
C744 C743 1.287 . S
C744 C745 1.524 . S
C744 H763 0.913 . S
C745 H721 0.950 . S
C745 C744 1.524 . S
C745 C746 1.415 . S
C746 H722 0.950 . S
C746 C741 1.363 . S
C746 C745 1.415 . S
C747 H723 0.921 1_554 S
C747 C748 1.366 . S
C747 C749 1.388 . S
C748 C747 1.366 . S
C748 C752 1.385 . S
C749 H724 0.951 1_554 S
C749 C747 1.388 . S
C749 C750 1.366 . S
C750 C749 1.366 . S
C750 C751 1.414 . S
C750 C753 1.499 . S
C751 H725 0.950 . S
C751 C750 1.414 . S
C751 C752 1.374 . S
C752 H726 0.950 . S
C752 C748 1.385 . S
C752 C751 1.374 . S
C753 C750 1.499 . S
C753 C754 1.373 . S
C753 C755 1.389 1_554 S
C754 H727 0.950 . S
C754 C740 1.377 . S
C754 C753 1.373 . S
C755 C739 1.377 . S
C755 C753 1.389 1_556 S
C755 C756 1.524 . S
C756 C755 1.524 . S
C756 C757 1.397 . S
C756 C761 1.363 . S
C757 H728 0.950 1_556 S
C757 C756 1.397 . S
C757 C758 1.334 . S
C758 H729 0.950 . S
C758 C757 1.334 . S
C758 C759 1.287 . S
C759 C758 1.287 . S
C759 C760 1.524 . S
C759 H762 0.999 . S
C760 H730 0.950 . S
C760 C759 1.524 . S
C760 C761 1.415 . S
C761 H731 0.950 . S
C761 C756 1.363 . S
C761 C760 1.415 . S
H762 C759 0.999 . S
H763 C744 0.913 . S
H764 C782 0.951 . S
H765 C784 0.951 . S
H766 C786 0.950 . S
H767 C787 0.950 . S
H768 C789 0.950 . S
H769 C792 0.950 . S
H770 C793 0.950 . S
H771 C795 0.950 . S
H772 C796 0.950 . S
H773 C797 0.951 . S
H774 C799 0.951 . S
H775 C801 0.950 . S
H776 C802 0.950 . S
H777 C804 0.950 . S
H778 C807 0.950 . S
H779 C808 0.950 . S
H780 C810 0.950 . S
H781 C811 0.950 . S
C782 H764 0.951 . S
C782 C783 1.366 . S
C782 C784 1.388 . S
C783 C782 1.366 . S
C783 C787 1.385 . S
C784 H765 0.951 . S
C784 C782 1.388 . S
C784 C785 1.366 . S
C785 C784 1.366 . S
C785 C786 1.414 . S
C785 C788 1.499 . S
C786 H766 0.950 . S
C786 C785 1.414 . S
C786 C787 1.374 . S
C787 H767 0.950 . S
C787 C783 1.385 . S
C787 C786 1.374 . S
C788 C785 1.499 . S
C788 C789 1.373 . S
C788 C790 1.389 . S
C789 H768 0.950 . S
C789 C788 1.373 . S
C789 C805 1.377 . S
C790 C788 1.389 . S
C790 C791 1.524 . S
C790 C804 1.377 . S
C791 C790 1.524 . S
C791 C792 1.397 . S
C791 C796 1.363 . S
C792 H769 0.950 . S
C792 C791 1.397 . S
C792 C793 1.334 . S
C793 H770 0.950 . S
C793 C792 1.334 . S
C793 C794 1.287 . S
C794 C793 1.287 . S
C794 C795 1.524 . S
C794 H813 0.913 . S
C795 H771 0.950 . S
C795 C794 1.524 . S
C795 C796 1.415 . S
C796 H772 0.950 . S
C796 C791 1.363 . S
C796 C795 1.415 . S
C797 H773 0.951 . S
C797 C798 1.366 . S
C797 C799 1.388 . S
C798 C797 1.366 . S
C798 C802 1.385 . S
C799 H774 0.951 . S
C799 C797 1.388 . S
C799 C800 1.366 . S
C800 C799 1.366 . S
C800 C801 1.414 . S
C800 C803 1.499 . S
C801 H775 0.950 . S
C801 C800 1.414 . S
C801 C802 1.374 . S
C802 H776 0.950 . S
C802 C798 1.385 . S
C802 C801 1.374 . S
C803 C800 1.499 . S
C803 C804 1.373 . S
C803 C805 1.389 . S
C804 H777 0.950 . S
C804 C790 1.377 . S
C804 C803 1.373 . S
C805 C789 1.377 . S
C805 C803 1.389 . S
C805 C806 1.524 . S
C806 C805 1.524 . S
C806 C807 1.397 . S
C806 C811 1.363 . S
C807 H778 0.950 . S
C807 C806 1.397 . S
C807 C808 1.334 . S
C808 H779 0.950 . S
C808 C807 1.334 . S
C808 C809 1.287 . S
C809 C808 1.287 . S
C809 C810 1.524 . S
C809 H812 0.999 . S
C810 H780 0.950 . S
C810 C809 1.524 . S
C810 C811 1.415 . S
C811 H781 0.950 . S
C811 C806 1.363 . S
C811 C810 1.415 . S
H812 C809 0.999 . S
H813 C794 0.913 . S
H814 C832 0.951 . S
H815 C834 0.951 . S
H816 C836 0.950 . S
H817 C837 0.950 . S
H818 C839 0.950 . S
H819 C842 0.950 . S
H820 C843 0.950 . S
H821 C845 0.950 . S
H822 C846 0.950 . S
H823 C847 0.951 . S
H824 C849 0.951 . S
H825 C851 0.950 . S
H826 C852 0.950 . S
H827 C854 0.950 . S
H828 C857 0.950 . S
H829 C858 0.950 . S
H830 C860 0.950 . S
H831 C861 0.950 . S
C832 H814 0.951 . S
C832 C833 1.366 . S
C832 C834 1.388 . S
C833 C832 1.366 . S
C833 C837 1.385 . S
C834 H815 0.951 . S
C834 C832 1.388 . S
C834 C835 1.366 . S
C835 C834 1.366 . S
C835 C836 1.414 . S
C835 C838 1.499 . S
C836 H816 0.950 . S
C836 C835 1.414 . S
C836 C837 1.374 . S
C837 H817 0.950 . S
C837 C833 1.385 . S
C837 C836 1.374 . S
C838 C835 1.499 . S
C838 C839 1.373 . S
C838 C840 1.389 . S
C839 H818 0.950 . S
C839 C838 1.373 . S
C839 C855 1.377 . S
C840 C838 1.389 . S
C840 C841 1.524 . S
C840 C854 1.377 . S
C841 C840 1.524 . S
C841 C842 1.397 . S
C841 C846 1.363 . S
C842 H819 0.950 . S
C842 C841 1.397 . S
C842 C843 1.334 . S
C843 H820 0.950 . S
C843 C842 1.334 . S
C843 C844 1.287 . S
C844 C843 1.287 . S
C844 C845 1.524 . S
C844 H863 0.913 . S
C845 H821 0.950 . S
C845 C844 1.524 . S
C845 C846 1.415 . S
C846 H822 0.950 . S
C846 C841 1.363 . S
C846 C845 1.415 . S
C847 H823 0.951 . S
C847 C848 1.366 . S
C847 C849 1.388 . S
C848 C847 1.366 . S
C848 C852 1.385 . S
C849 H824 0.951 . S
C849 C847 1.388 . S
C849 C850 1.366 . S
C850 C849 1.366 . S
C850 C851 1.414 . S
C850 C853 1.499 . S
C851 H825 0.950 . S
C851 C850 1.414 . S
C851 C852 1.374 . S
C852 H826 0.950 . S
C852 C848 1.385 . S
C852 C851 1.374 . S
C853 C850 1.499 . S
C853 C854 1.373 . S
C853 C855 1.389 . S
C854 H827 0.950 . S
C854 C840 1.377 . S
C854 C853 1.373 . S
C855 C839 1.377 . S
C855 C853 1.389 . S
C855 C856 1.524 . S
C856 C855 1.524 . S
C856 C857 1.397 . S
C856 C861 1.363 . S
C857 H828 0.950 . S
C857 C856 1.397 . S
C857 C858 1.334 . S
C858 H829 0.950 . S
C858 C857 1.334 . S
C858 C859 1.287 . S
C859 C858 1.287 . S
C859 C860 1.524 . S
C859 H862 0.999 . S
C860 H830 0.950 . S
C860 C859 1.524 . S
C860 C861 1.415 . S
C861 H831 0.950 . S
C861 C856 1.363 . S
C861 C860 1.415 . S
H862 C859 0.999 . S
H863 C844 0.913 . S
H864 C882 0.951 . S
H865 C884 0.951 . S
H866 C886 0.950 . S
H867 C887 0.950 . S
H868 C889 0.950 . S
H869 C892 0.950 . S
H870 C893 0.950 . S
H871 C895 0.950 . S
H872 C896 0.950 . S
H873 C897 0.951 . S
H874 C899 0.964 . S
H875 C901 0.950 . S
H876 C902 0.950 . S
H877 C904 0.950 . S
H878 C907 0.950 . S
H879 C908 0.950 . S
H880 C910 0.950 . S
H881 C911 0.950 . S
C882 H864 0.951 . S
C882 C883 1.366 . S
C882 C884 1.388 . S
C883 C882 1.366 . S
C883 C887 1.385 . S
C884 H865 0.951 . S
C884 C882 1.388 . S
C884 C885 1.366 . S
C885 C884 1.366 . S
C885 C886 1.414 . S
C885 C888 1.499 . S
C886 H866 0.950 . S
C886 C885 1.414 . S
C886 C887 1.374 . S
C887 H867 0.950 . S
C887 C883 1.385 . S
C887 C886 1.374 . S
C888 C885 1.499 . S
C888 C889 1.373 . S
C888 C890 1.389 1_554 S
C889 H868 0.950 . S
C889 C888 1.373 . S
C889 C905 1.377 . S
C890 C888 1.389 1_556 S
C890 C891 1.524 . S
C890 C904 1.377 . S
C891 C890 1.524 . S
C891 C892 1.397 . S
C891 C896 1.363 . S
C892 H869 0.950 . S
C892 C891 1.397 . S
C892 C893 1.334 . S
C893 H870 0.950 . S
C893 C892 1.334 . S
C893 C894 1.287 . S
C894 C893 1.287 . S
C894 C895 1.524 . S
C894 H913 0.913 . S
C895 H871 0.950 . S
C895 C894 1.524 . S
C895 C896 1.415 . S
C896 H872 0.950 . S
C896 C891 1.363 . S
C896 C895 1.415 . S
C897 H873 0.951 . S
C897 C898 1.366 . S
C897 C899 1.388 . S
C898 C897 1.366 . S
C898 C902 1.385 . S
C899 H874 0.964 . S
C899 C897 1.388 . S
C899 C900 1.366 . S
C900 C899 1.366 . S
C900 C901 1.414 . S
C900 C903 1.499 . S
C901 H875 0.950 . S
C901 C900 1.414 . S
C901 C902 1.374 . S
C902 H876 0.950 . S
C902 C898 1.385 . S
C902 C901 1.374 . S
C903 C900 1.499 . S
C903 C904 1.373 . S
C903 C905 1.389 1_556 S
C904 H877 0.950 . S
C904 C890 1.377 . S
C904 C903 1.373 . S
C905 C889 1.377 . S
C905 C903 1.389 1_554 S
C905 C906 1.524 . S
C906 C905 1.524 . S
C906 C907 1.397 . S
C906 C911 1.363 . S
C907 H878 0.950 . S
C907 C906 1.397 . S
C907 C908 1.334 . S
C908 H879 0.950 . S
C908 C907 1.334 . S
C908 C909 1.287 . S
C909 C908 1.287 . S
C909 C910 1.524 . S
C909 H912 0.999 . S
C910 H880 0.950 . S
C910 C909 1.524 . S
C910 C911 1.415 . S
C911 H881 0.950 . S
C911 C906 1.363 . S
C911 C910 1.415 . S
H912 C909 0.999 . S
H913 C894 0.913 . S
H914 C932 0.951 . S
H915 C934 0.951 . S
H916 C936 0.950 1_554 S
H917 C937 0.950 . S
H918 C939 0.950 . S
H919 C942 0.950 . S
H920 C943 0.950 . S
H921 C945 0.950 . S
H922 C946 0.950 . S
H923 C947 0.951 . S
H924 C949 0.951 . S
H925 C951 0.950 1_556 S
H926 C952 0.950 . S
H927 C954 0.950 . S
H928 C957 0.950 . S
H929 C958 0.950 . S
H930 C960 0.950 . S
H931 C961 0.950 . S
C932 H914 0.951 . S
C932 C933 1.366 . S
C932 C934 1.388 . S
C933 C932 1.366 . S
C933 C937 1.385 . S
C934 H915 0.951 . S
C934 C932 1.388 . S
C934 C935 1.366 . S
C935 C934 1.366 . S
C935 C936 1.414 . S
C935 C938 1.499 . S
C936 H916 0.950 1_556 S
C936 C935 1.414 . S
C936 C937 1.374 . S
C937 H917 0.950 . S
C937 C933 1.385 . S
C937 C936 1.374 . S
C938 C935 1.499 . S
C938 C939 1.373 . S
C938 C940 1.377 1_556 S
C939 H918 0.950 . S
C939 C938 1.373 . S
C939 C955 1.371 1_556 S
C940 C938 1.377 1_554 S
C940 C941 1.529 . S
C940 C954 1.390 . S
C941 C940 1.529 . S
C941 C942 1.397 . S
C941 C946 1.363 1_554 S
C942 H919 0.950 . S
C942 C941 1.397 . S
C942 C943 1.334 . S
C943 H920 0.950 . S
C943 C942 1.334 . S
C943 C944 1.287 . S
C944 C943 1.287 . S
C944 C945 1.524 1_554 S
C944 H963 0.913 . S
C945 H921 0.950 . S
C945 C944 1.524 1_556 S
C945 C946 1.415 . S
C946 H922 0.950 . S
C946 C941 1.363 1_556 S
C946 C945 1.415 . S
C947 H923 0.951 . S
C947 C948 1.366 . S
C947 C949 1.388 . S
C948 C947 1.366 . S
C948 C952 1.385 . S
C949 H924 0.951 . S
C949 C947 1.388 . S
C949 C950 1.366 . S
C950 C949 1.366 . S
C950 C951 1.414 . S
C950 C953 1.499 . S
C951 H925 0.950 1_554 S
C951 C950 1.414 . S
C951 C952 1.374 . S
C952 H926 0.950 . S
C952 C948 1.385 . S
C952 C951 1.374 . S
C953 C950 1.499 . S
C953 C954 1.373 . S
C953 C955 1.396 . S
C954 H927 0.950 . S
C954 C940 1.390 . S
C954 C953 1.373 . S
C955 C939 1.371 1_554 S
C955 C953 1.396 . S
C955 C956 1.523 1_554 S
C956 C955 1.523 1_556 S
C956 C957 1.397 . S
C956 C961 1.363 1_556 S
C957 H928 0.950 . S
C957 C956 1.397 . S
C957 C958 1.334 . S
C958 H929 0.950 . S
C958 C957 1.334 . S
C958 C959 1.287 . S
C959 C958 1.287 . S
C959 C960 1.524 1_556 S
C959 H962 0.999 . S
C960 H930 0.950 . S
C960 C959 1.524 1_554 S
C960 C961 1.415 . S
C961 H931 0.950 . S
C961 C956 1.363 1_554 S
C961 C960 1.415 . S
H962 C959 0.999 . S
H963 C944 0.913 . S
H964 C982 0.951 . S
H965 C984 0.951 . S
H966 C986 0.950 . S
H967 C987 0.950 . S
H968 C989 0.950 . S
H969 C992 0.950 . S
H970 C993 0.950 . S
H971 C995 0.950 . S
H972 C996 0.950 . S
H973 C997 0.951 . S
H974 C999 0.951 . S
H975 C1001 0.950 . S
H976 C1002 0.950 . S
H977 C1004 0.950 . S
H978 C1007 0.950 . S
H979 C1008 0.950 . S
H980 C1010 0.950 . S
H981 C1011 0.950 . S
C982 H964 0.951 . S
C982 C983 1.366 . S
C982 C984 1.388 . S
C983 C982 1.366 . S
C983 C987 1.385 . S
C984 H965 0.951 . S
C984 C982 1.388 . S
C984 C985 1.366 . S
C985 C984 1.366 . S
C985 C986 1.414 . S
C985 C988 1.499 . S
C986 H966 0.950 . S
C986 C985 1.414 . S
C986 C987 1.374 . S
C987 H967 0.950 . S
C987 C983 1.385 . S
C987 C986 1.374 . S
C988 C985 1.499 . S
C988 C989 1.373 . S
C988 C990 1.389 . S
C989 H968 0.950 . S
C989 C988 1.373 . S
C989 C1005 1.377 . S
C990 C988 1.389 . S
C990 C991 1.524 . S
C990 C1004 1.377 . S
C991 C990 1.524 . S
C991 C992 1.397 . S
C991 C996 1.363 . S
C992 H969 0.950 . S
C992 C991 1.397 . S
C992 C993 1.334 . S
C993 H970 0.950 . S
C993 C992 1.334 . S
C993 C994 1.287 . S
C994 C993 1.287 . S
C994 C995 1.524 . S
C994 H1013 0.913 . S
C995 H971 0.950 . S
C995 C994 1.524 . S
C995 C996 1.415 . S
C996 H972 0.950 . S
C996 C991 1.363 . S
C996 C995 1.415 . S
C997 H973 0.951 . S
C997 C998 1.366 . S
C997 C999 1.388 . S
C998 C997 1.366 . S
C998 C1002 1.385 . S
C999 H974 0.951 . S
C999 C997 1.388 . S
C999 C1000 1.366 . S
C1000 C999 1.366 . S
C1000 C1001 1.414 . S
C1000 C1003 1.499 . S
C1001 H975 0.950 . S
C1001 C1000 1.414 . S
C1001 C1002 1.374 . S
C1002 H976 0.950 . S
C1002 C998 1.385 . S
C1002 C1001 1.374 . S
C1003 C1000 1.499 . S
C1003 C1004 1.373 . S
C1003 C1005 1.389 . S
C1004 H977 0.950 . S
C1004 C990 1.377 . S
C1004 C1003 1.373 . S
C1005 C989 1.377 . S
C1005 C1003 1.389 . S
C1005 C1006 1.524 . S
C1006 C1005 1.524 . S
C1006 C1007 1.397 . S
C1006 C1011 1.363 . S
C1007 H978 0.950 . S
C1007 C1006 1.397 . S
C1007 C1008 1.334 . S
C1008 H979 0.950 . S
C1008 C1007 1.334 . S
C1008 C1009 1.287 . S
C1009 C1008 1.287 . S
C1009 C1010 1.524 . S
C1009 H1012 0.999 . S
C1010 H980 0.950 . S
C1010 C1009 1.524 . S
C1010 C1011 1.415 . S
C1011 H981 0.950 . S
C1011 C1006 1.363 . S
C1011 C1010 1.415 . S
H1012 C1009 0.999 . S
H1013 C994 0.913 . S
H1014 C1032 0.951 . S
H1015 C1034 0.951 . S
H1016 C1036 0.950 . S
H1017 C1037 0.950 . S
H1018 C1039 0.950 . S
H1019 C1042 0.950 . S
H1020 C1043 0.950 . S
H1021 C1045 0.950 . S
H1022 C1046 0.950 . S
H1023 C1047 0.951 . S
H1024 C1049 0.951 . S
H1025 C1051 0.950 . S
H1026 C1052 0.950 . S
H1027 C1054 0.950 . S
H1028 C1057 0.950 . S
H1029 C1058 0.950 . S
H1030 C1060 0.950 . S
H1031 C1061 0.950 . S
C1032 H1014 0.951 . S
C1032 C1033 1.366 . S
C1032 C1034 1.388 . S
C1033 C1032 1.366 . S
C1033 C1037 1.385 . S
C1034 H1015 0.951 . S
C1034 C1032 1.388 . S
C1034 C1035 1.366 . S
C1035 C1034 1.366 . S
C1035 C1036 1.414 . S
C1035 C1038 1.499 . S
C1036 H1016 0.950 . S
C1036 C1035 1.414 . S
C1036 C1037 1.374 . S
C1037 H1017 0.950 . S
C1037 C1033 1.385 . S
C1037 C1036 1.374 . S
C1038 C1035 1.499 . S
C1038 C1039 1.373 . S
C1038 C1040 1.389 . S
C1039 H1018 0.950 . S
C1039 C1038 1.373 . S
C1039 C1055 1.377 . S
C1040 C1038 1.389 . S
C1040 C1041 1.524 . S
C1040 C1054 1.377 . S
C1041 C1040 1.524 . S
C1041 C1042 1.397 . S
C1041 C1046 1.363 . S
C1042 H1019 0.950 . S
C1042 C1041 1.397 . S
C1042 C1043 1.334 . S
C1043 H1020 0.950 . S
C1043 C1042 1.334 . S
C1043 C1044 1.287 . S
C1044 C1043 1.287 . S
C1044 C1045 1.524 . S
C1044 H1063 0.913 . S
C1045 H1021 0.950 . S
C1045 C1044 1.524 . S
C1045 C1046 1.415 . S
C1046 H1022 0.950 . S
C1046 C1041 1.363 . S
C1046 C1045 1.415 . S
C1047 H1023 0.951 . S
C1047 C1048 1.366 . S
C1047 C1049 1.388 . S
C1048 C1047 1.366 . S
C1048 C1052 1.385 . S
C1049 H1024 0.951 . S
C1049 C1047 1.388 . S
C1049 C1050 1.366 . S
C1050 C1049 1.366 . S
C1050 C1051 1.414 . S
C1050 C1053 1.499 . S
C1051 H1025 0.950 . S
C1051 C1050 1.414 . S
C1051 C1052 1.374 . S
C1052 H1026 0.950 . S
C1052 C1048 1.385 . S
C1052 C1051 1.374 . S
C1053 C1050 1.499 . S
C1053 C1054 1.373 . S
C1053 C1055 1.389 . S
C1054 H1027 0.950 . S
C1054 C1040 1.377 . S
C1054 C1053 1.373 . S
C1055 C1039 1.377 . S
C1055 C1053 1.389 . S
C1055 C1056 1.524 . S
C1056 C1055 1.524 . S
C1056 C1057 1.397 . S
C1056 C1061 1.363 . S
C1057 H1028 0.950 . S
C1057 C1056 1.397 . S
C1057 C1058 1.334 . S
C1058 H1029 0.950 . S
C1058 C1057 1.334 . S
C1058 C1059 1.287 . S
C1059 C1058 1.287 . S
C1059 C1060 1.524 . S
C1059 H1062 0.999 . S
C1060 H1030 0.950 . S
C1060 C1059 1.524 . S
C1060 C1061 1.415 . S
C1061 H1031 0.950 . S
C1061 C1056 1.363 . S
C1061 C1060 1.415 . S
H1062 C1059 0.999 . S
H1063 C1044 0.913 . S
H1064 C1082 0.951 . S
H1065 C1084 0.951 . S
H1066 C1086 0.950 . S
H1067 C1087 0.950 . S
H1068 C1089 0.950 1_655 S
H1069 C1092 0.950 . S
H1070 C1093 0.950 . S
H1071 C1095 0.950 . S
H1072 C1096 0.950 . S
H1073 C1097 0.951 . S
H1074 C1099 0.951 . S
H1075 C1101 0.950 . S
H1076 C1102 0.950 . S
H1077 C1104 0.950 . S
H1078 C1107 0.950 1_455 S
H1079 C1108 0.950 . S
H1080 C1110 0.950 . S
H1081 C1111 0.950 . S
C1082 H1064 0.951 . S
C1082 C1083 1.366 . S
C1082 C1084 1.388 . S
C1083 C1082 1.366 . S
C1083 C1087 1.385 . S
C1084 H1065 0.951 . S
C1084 C1082 1.388 . S
C1084 C1085 1.366 . S
C1085 C1084 1.366 . S
C1085 C1086 1.414 . S
C1085 C1088 1.499 . S
C1086 H1066 0.950 . S
C1086 C1085 1.414 . S
C1086 C1087 1.374 . S
C1087 H1067 0.950 . S
C1087 C1083 1.385 . S
C1087 C1086 1.374 . S
C1088 C1085 1.499 . S
C1088 C1089 1.373 . S
C1088 C1090 1.389 . S
C1089 H1068 0.950 1_455 S
C1089 C1088 1.373 . S
C1089 C1105 1.377 . S
C1090 C1088 1.389 . S
C1090 C1091 1.524 . S
C1090 C1104 1.377 . S
C1091 C1090 1.524 . S
C1091 C1092 1.397 . S
C1091 C1096 1.363 . S
C1092 H1069 0.950 . S
C1092 C1091 1.397 . S
C1092 C1093 1.334 . S
C1093 H1070 0.950 . S
C1093 C1092 1.334 . S
C1093 C1094 1.287 . S
C1094 C1093 1.287 . S
C1094 C1095 1.524 . S
C1094 H1113 0.913 . S
C1095 H1071 0.950 . S
C1095 C1094 1.524 . S
C1095 C1096 1.415 . S
C1096 H1072 0.950 . S
C1096 C1091 1.363 . S
C1096 C1095 1.415 . S
C1097 H1073 0.951 . S
C1097 C1098 1.366 . S
C1097 C1099 1.388 . S
C1098 C1097 1.366 . S
C1098 C1102 1.385 . S
C1099 H1074 0.951 . S
C1099 C1097 1.388 . S
C1099 C1100 1.366 . S
C1100 C1099 1.366 . S
C1100 C1101 1.414 . S
C1100 C1103 1.499 . S
C1101 H1075 0.950 . S
C1101 C1100 1.414 . S
C1101 C1102 1.374 . S
C1102 H1076 0.950 . S
C1102 C1098 1.385 . S
C1102 C1101 1.374 . S
C1103 C1100 1.499 . S
C1103 C1104 1.373 . S
C1103 C1105 1.389 . S
C1104 H1077 0.950 . S
C1104 C1090 1.377 . S
C1104 C1103 1.373 . S
C1105 C1089 1.377 . S
C1105 C1103 1.389 . S
C1105 C1106 1.524 1_455 S
C1106 C1105 1.524 1_655 S
C1106 C1107 1.397 . S
C1106 C1111 1.363 . S
C1107 H1078 0.950 1_655 S
C1107 C1106 1.397 . S
C1107 C1108 1.334 . S
C1108 H1079 0.950 . S
C1108 C1107 1.334 . S
C1108 C1109 1.287 . S
C1109 C1108 1.287 . S
C1109 C1110 1.524 . S
C1109 H1112 0.999 . S
C1110 H1080 0.950 . S
C1110 C1109 1.524 . S
C1110 C1111 1.415 . S
C1111 H1081 0.950 . S
C1111 C1106 1.363 . S
C1111 C1110 1.415 . S
H1112 C1109 0.999 . S
H1113 C1094 0.913 . S
H1114 C1132 0.951 . S
H1115 C1134 0.951 . S
H1116 C1136 0.950 . S
H1117 C1137 0.950 . S
H1118 C1139 0.950 . S
H1119 C1142 0.950 . S
H1120 C1143 0.950 . S
H1121 C1145 0.950 . S
H1122 C1146 0.950 . S
H1123 C1147 0.951 . S
H1124 C1149 0.951 . S
H1125 C1151 0.950 . S
H1126 C1152 0.950 . S
H1127 C1154 0.950 . S
H1128 C1157 0.950 . S
H1129 C1158 0.950 . S
H1130 C1160 0.950 . S
H1131 C1161 0.950 . S
C1132 H1114 0.951 . S
C1132 C1133 1.366 . S
C1132 C1134 1.388 . S
C1133 C1132 1.366 . S
C1133 C1137 1.385 . S
C1134 H1115 0.951 . S
C1134 C1132 1.388 . S
C1134 C1135 1.366 . S
C1135 C1134 1.366 . S
C1135 C1136 1.414 . S
C1135 C1138 1.499 . S
C1136 H1116 0.950 . S
C1136 C1135 1.414 . S
C1136 C1137 1.374 . S
C1137 H1117 0.950 . S
C1137 C1133 1.385 . S
C1137 C1136 1.374 . S
C1138 C1135 1.499 . S
C1138 C1139 1.373 . S
C1138 C1140 1.389 . S
C1139 H1118 0.950 . S
C1139 C1138 1.373 . S
C1139 C1155 1.377 . S
C1140 C1138 1.389 . S
C1140 C1141 1.524 . S
C1140 C1154 1.377 . S
C1141 C1140 1.524 . S
C1141 C1142 1.397 . S
C1141 C1146 1.363 . S
C1142 H1119 0.950 . S
C1142 C1141 1.397 . S
C1142 C1143 1.334 . S
C1143 H1120 0.950 . S
C1143 C1142 1.334 . S
C1143 C1144 1.287 . S
C1144 C1143 1.287 . S
C1144 C1145 1.524 . S
C1144 H1163 0.913 . S
C1145 H1121 0.950 . S
C1145 C1144 1.524 . S
C1145 C1146 1.415 . S
C1146 H1122 0.950 . S
C1146 C1141 1.363 . S
C1146 C1145 1.415 . S
C1147 H1123 0.951 . S
C1147 C1148 1.366 . S
C1147 C1149 1.388 . S
C1148 C1147 1.366 . S
C1148 C1152 1.385 . S
C1149 H1124 0.951 . S
C1149 C1147 1.388 . S
C1149 C1150 1.366 . S
C1150 C1149 1.366 . S
C1150 C1151 1.414 . S
C1150 C1153 1.499 . S
C1151 H1125 0.950 . S
C1151 C1150 1.414 . S
C1151 C1152 1.374 . S
C1152 H1126 0.950 . S
C1152 C1148 1.385 . S
C1152 C1151 1.374 . S
C1153 C1150 1.499 . S
C1153 C1154 1.373 . S
C1153 C1155 1.389 . S
C1154 H1127 0.950 . S
C1154 C1140 1.377 . S
C1154 C1153 1.373 . S
C1155 C1139 1.377 . S
C1155 C1153 1.389 . S
C1155 C1156 1.524 . S
C1156 C1155 1.524 . S
C1156 C1157 1.397 . S
C1156 C1161 1.363 . S
C1157 H1128 0.950 . S
C1157 C1156 1.397 . S
C1157 C1158 1.334 . S
C1158 H1129 0.950 . S
C1158 C1157 1.334 . S
C1158 C1159 1.287 . S
C1159 C1158 1.287 . S
C1159 C1160 1.524 . S
C1159 H1162 0.999 . S
C1160 H1130 0.950 . S
C1160 C1159 1.524 . S
C1160 C1161 1.415 . S
C1161 H1131 0.950 . S
C1161 C1156 1.363 . S
C1161 C1160 1.415 . S
H1162 C1159 0.999 . S
H1163 C1144 0.913 . S
H1164 C1182 0.951 . S
H1165 C1184 0.951 . S
H1166 C1186 0.950 . S
H1167 C1187 0.950 . S
H1168 C1189 0.950 . S
H1169 C1192 0.950 . S
H1170 C1193 0.950 . S
H1171 C1195 0.950 . S
H1172 C1196 0.950 1_655 S
H1173 C1197 0.951 . S
H1174 C1199 0.951 . S
H1175 C1201 0.950 . S
H1176 C1202 0.950 . S
H1177 C1204 0.950 . S
H1178 C1207 0.950 . S
H1179 C1208 0.950 . S
H1180 C1210 0.950 . S
H1181 C1211 0.950 . S
C1182 H1164 0.951 . S
C1182 C1183 1.366 . S
C1182 C1184 1.388 . S
C1183 C1182 1.366 . S
C1183 C1187 1.385 . S
C1184 H1165 0.951 . S
C1184 C1182 1.388 . S
C1184 C1185 1.366 . S
C1185 C1184 1.366 . S
C1185 C1186 1.414 . S
C1185 C1188 1.499 . S
C1186 H1166 0.950 . S
C1186 C1185 1.414 . S
C1186 C1187 1.374 . S
C1187 H1167 0.950 . S
C1187 C1183 1.385 . S
C1187 C1186 1.374 . S
C1188 C1185 1.499 . S
C1188 C1189 1.373 . S
C1188 C1190 1.389 . S
C1189 H1168 0.950 . S
C1189 C1188 1.373 . S
C1189 C1205 1.377 . S
C1190 C1188 1.389 . S
C1190 C1191 1.524 1_655 S
C1190 C1204 1.377 . S
C1191 C1190 1.524 1_455 S
C1191 C1192 1.397 . S
C1191 C1196 1.363 . S
C1192 H1169 0.950 . S
C1192 C1191 1.397 . S
C1192 C1193 1.334 . S
C1193 H1170 0.950 . S
C1193 C1192 1.334 . S
C1193 C1194 1.287 . S
C1194 C1193 1.287 . S
C1194 C1195 1.524 . S
C1194 H1213 0.913 . S
C1195 H1171 0.950 . S
C1195 C1194 1.524 . S
C1195 C1196 1.415 . S
C1196 H1172 0.950 1_455 S
C1196 C1191 1.363 . S
C1196 C1195 1.415 . S
C1197 H1173 0.951 . S
C1197 C1198 1.366 . S
C1197 C1199 1.388 . S
C1198 C1197 1.366 . S
C1198 C1202 1.385 . S
C1199 H1174 0.951 . S
C1199 C1197 1.388 . S
C1199 C1200 1.366 . S
C1200 C1199 1.366 . S
C1200 C1201 1.414 . S
C1200 C1203 1.499 . S
C1201 H1175 0.950 . S
C1201 C1200 1.414 . S
C1201 C1202 1.374 . S
C1202 H1176 0.950 . S
C1202 C1198 1.385 . S
C1202 C1201 1.374 . S
C1203 C1200 1.499 . S
C1203 C1204 1.373 . S
C1203 C1205 1.389 . S
C1204 H1177 0.950 . S
C1204 C1190 1.377 . S
C1204 C1203 1.373 . S
C1205 C1189 1.377 . S
C1205 C1203 1.389 . S
C1205 C1206 1.524 . S
C1206 C1205 1.524 . S
C1206 C1207 1.397 . S
C1206 C1211 1.363 . S
C1207 H1178 0.950 . S
C1207 C1206 1.397 . S
C1207 C1208 1.334 . S
C1208 H1179 0.950 . S
C1208 C1207 1.334 . S
C1208 C1209 1.287 . S
C1209 C1208 1.287 . S
C1209 C1210 1.524 . S
C1209 H1212 0.999 . S
C1210 H1180 0.950 . S
C1210 C1209 1.524 . S
C1210 C1211 1.415 . S
C1211 H1181 0.950 . S
C1211 C1206 1.363 . S
C1211 C1210 1.415 . S
H1212 C1209 0.999 . S
H1213 C1194 0.913 . S
H1214 C1232 0.951 . S
H1215 C1234 0.951 . S
H1216 C1236 0.950 . S
H1217 C1237 0.950 . S
H1218 C1239 0.950 . S
H1219 C1242 0.950 . S
H1220 C1243 0.950 . S
H1221 C1245 0.950 . S
H1222 C1246 0.950 . S
H1223 C1247 0.951 . S
H1224 C1249 0.951 . S
H1225 C1251 0.950 . S
H1226 C1252 0.950 . S
H1227 C1254 0.950 . S
H1228 C1257 0.950 . S
H1229 C1258 0.950 . S
H1230 C1260 0.950 . S
H1231 C1261 0.950 . S
C1232 H1214 0.951 . S
C1232 C1233 1.366 . S
C1232 C1234 1.388 . S
C1233 C1232 1.366 . S
C1233 C1237 1.385 . S
C1234 H1215 0.951 . S
C1234 C1232 1.388 . S
C1234 C1235 1.366 . S
C1235 C1234 1.366 . S
C1235 C1236 1.414 . S
C1235 C1238 1.499 . S
C1236 H1216 0.950 . S
C1236 C1235 1.414 . S
C1236 C1237 1.374 . S
C1237 H1217 0.950 . S
C1237 C1233 1.385 . S
C1237 C1236 1.374 . S
C1238 C1235 1.499 . S
C1238 C1239 1.373 . S
C1238 C1240 1.389 . S
C1239 H1218 0.950 . S
C1239 C1238 1.373 . S
C1239 C1255 1.377 . S
C1240 C1238 1.389 . S
C1240 C1241 1.524 . S
C1240 C1254 1.377 . S
C1241 C1240 1.524 . S
C1241 C1242 1.397 . S
C1241 C1246 1.363 . S
C1242 H1219 0.950 . S
C1242 C1241 1.397 . S
C1242 C1243 1.334 . S
C1243 H1220 0.950 . S
C1243 C1242 1.334 . S
C1243 C1244 1.287 . S
C1244 C1243 1.287 . S
C1244 C1245 1.524 . S
C1244 H1263 0.913 . S
C1245 H1221 0.950 . S
C1245 C1244 1.524 . S
C1245 C1246 1.415 . S
C1246 H1222 0.950 . S
C1246 C1241 1.363 . S
C1246 C1245 1.415 . S
C1247 H1223 0.951 . S
C1247 C1248 1.366 . S
C1247 C1249 1.388 . S
C1248 C1247 1.366 . S
C1248 C1252 1.385 . S
C1249 H1224 0.951 . S
C1249 C1247 1.388 . S
C1249 C1250 1.366 . S
C1250 C1249 1.366 . S
C1250 C1251 1.414 . S
C1250 C1253 1.499 . S
C1251 H1225 0.950 . S
C1251 C1250 1.414 . S
C1251 C1252 1.374 . S
C1252 H1226 0.950 . S
C1252 C1248 1.385 . S
C1252 C1251 1.374 . S
C1253 C1250 1.499 . S
C1253 C1254 1.373 . S
C1253 C1255 1.389 . S
C1254 H1227 0.950 . S
C1254 C1240 1.377 . S
C1254 C1253 1.373 . S
C1255 C1239 1.377 . S
C1255 C1253 1.389 . S
C1255 C1256 1.524 . S
C1256 C1255 1.524 . S
C1256 C1257 1.397 . S
C1256 C1261 1.363 . S
C1257 H1228 0.950 . S
C1257 C1256 1.397 . S
C1257 C1258 1.334 . S
C1258 H1229 0.950 . S
C1258 C1257 1.334 . S
C1258 C1259 1.287 . S
C1259 C1258 1.287 . S
C1259 C1260 1.524 . S
C1259 H1262 0.999 . S
C1260 H1230 0.950 . S
C1260 C1259 1.524 . S
C1260 C1261 1.415 . S
C1261 H1231 0.950 . S
C1261 C1256 1.363 . S
C1261 C1260 1.415 . S
H1262 C1259 0.999 . S
H1263 C1244 0.913 . S
C283 C28 0.554 . S
C298 C160 0.554 . S
C333 C193 0.554 . S
C348 C61 0.554 . S
C383 C226 0.554 . S
C398 C94 0.554 . S
C433 C127 0.551 . S
C448 C259 0.551 . S
C483 N47 0.640 . S
C498 N14 0.640 . S
C533 N80 0.638 . S
C548 N113 0.638 . S
C583 N146 0.641 . S
C598 N179 0.641 . S
C633 N245 0.640 . S
C648 N212 0.640 . S
C683 C8 1.762 . S
C698 N170 1.769 . S
C733 N137 1.770 . S
C748 C41 1.761 . S
C783 N236 1.770 . S
C798 C74 1.761 . S
C833 N203 1.770 . S
C848 C107 1.762 . S
C883 N38 1.770 . S
C898 C140 1.762 . S
C933 C173 1.762 . S
C948 N5 1.769 . S
C983 C206 1.761 . S
C998 N104 1.770 . S
C1033 N71 1.770 . S
C1048 C239 1.762 . S
C1083 C83 1.417 . S
C1098 C17 1.417 . S
C1133 C50 1.417 . S
C1148 C116 1.417 . S
C1183 C215 1.417 . S
C1198 C149 1.417 . S
C1233 C248 1.417 . S
C1248 C182 1.417 . S
