# Generated by pormake.
# Topology fee, (5)-cn, num edge types: 1
# Building blocks:
#     Node 0, Type 0, BuildingBlock: XOMCOT_clean_sbu_1, # of connection points: 5
#     Node 1, Type 0, BuildingBlock: XOMCOT_clean_sbu_1, # of connection points: 5
#     Node 2, Type 0, BuildingBlock: XOMCOT_clean_sbu_1, # of connection points: 5
#     Node 3, Type 0, BuildingBlock: XOMCOT_clean_sbu_1, # of connection points: 5
#     Edge 4, Type (0, 0), BuildingBlock: XUDNAN_clean_linker_2, # of connection points: 2
#     Edge 5, Type (0, 0), BuildingBlock: XUDNAN_clean_linker_2, # of connection points: 2
#     Edge 6, Type (0, 0), BuildingBlock: XUDNAN_clean_linker_2, # of connection points: 2
#     Edge 7, Type (0, 0), BuildingBlock: XUDNAN_clean_linker_2, # of connection points: 2
#     Edge 8, Type (0, 0), BuildingBlock: XUDNAN_clean_linker_2, # of connection points: 2
#     Edge 9, Type (0, 0), BuildingBlock: XUDNAN_clean_linker_2, # of connection points: 2
#     Edge 10, Type (0, 0), BuildingBlock: XUDNAN_clean_linker_2, # of connection points: 2
#     Edge 11, Type (0, 0), BuildingBlock: XUDNAN_clean_linker_2, # of connection points: 2
#     Edge 12, Type (0, 0), BuildingBlock: XUDNAN_clean_linker_2, # of connection points: 2
#     Edge 13, Type (0, 0), BuildingBlock: XUDNAN_clean_linker_2, # of connection points: 2
# Relax obj value: 0.109
# Max RMSD: 0.128
# Mean RMSD: 0.117
data_MOF--net-fee--node1-XOMCOT_clean_sbu_1--edge1-XUDNAN_clean_linker_2
_symmetry_space_group_name_H-M    P1
_symmetry_Int_Tables_number       1
_symmetry_cell_setting            triclinic
loop_
_symmetry_equiv_pos_as_xyz
'x, y, z'
_cell_length_a     38.733479
_cell_length_b     38.644997
_cell_length_c     17.543634
_cell_angle_alpha  95.764062
_cell_angle_beta   96.354335
_cell_angle_gamma 89.975205
loop_
_atom_site_label
_atom_site_type_symbol
_atom_site_fract_x
_atom_site_fract_y
_atom_site_fract_z
_atom_type_partial_charge
C0 C 0.1434 0.52357 0.99407 0.0
C1 C 0.14115 0.52789 0.91702 0.0
N2 N 0.17161 0.54102 0.90227 0.0
N3 N 0.17514 0.53389 0.02799 0.0
C4 C 0.19184 0.54458 0.97056 0.0
H5 H 0.12371 0.51193 0.02276 0.0
Co6 Co 0.19069 0.5263 0.12877 0.0
C7 C 0.24987 0.57572 0.18203 0.0
O8 O 0.26317 0.55454 0.23127 0.0
N9 N 0.2052 0.51736 0.23192 0.0
C10 C 0.22026 0.48901 0.33481 0.0
C11 C 0.21725 0.48695 0.25593 0.0
C12 C 0.20123 0.53756 0.29827 0.0
N13 N 0.21018 0.52078 0.36134 0.0
O14 O 0.15425 0.55565 0.16366 0.0
H15 H 0.22241 0.46389 0.21931 0.0
H16 H 0.19054 0.56347 0.30027 0.0
O17 O 0.22229 0.56688 0.137 0.0
C18 C 0.12958 0.53741 0.18197 0.0
O19 O 0.1337 0.50357 0.18025 0.0
N20 N 0.22316 0.49478 0.09116 0.0
C21 C 0.26176 0.43715 0.0446 0.0
C22 C 0.27716 0.47043 0.0577 0.0
C23 C 0.25727 0.49915 0.08083 0.0
C24 C 0.20729 0.46314 0.07209 0.0
C25 C 0.22618 0.43388 0.05007 0.0
H26 H 0.26956 0.52441 0.09067 0.0
H27 H 0.17997 0.46037 0.07824 0.0
H28 H 0.2189 0.55252 0.97751 0.0
H29 H 0.11928 0.52069 0.87439 0.0
H30 H 0.2283 0.46836 0.37009 0.0
H31 H 0.30451 0.47401 0.05253 0.0
H32 H 0.21318 0.40877 0.03868 0.0
C33 C 0.49379 0.15295 0.93852 0.0
C34 C 0.49159 0.14887 0.85914 0.0
N35 N 0.46468 0.1677 0.83071 0.0
N36 N 0.46834 0.17411 0.96075 0.0
C37 C 0.45093 0.1824 0.89387 0.0
H38 H 0.51358 0.14222 0.97755 0.0
Co39 Co 0.46351 0.19173 0.06297 0.0
C40 C 0.39228 0.22023 0.05056 0.0
O41 O 0.38347 0.202 0.10485 0.0
N42 N 0.45884 0.20986 0.16602 0.0
C43 C 0.44691 0.24738 0.26436 0.0
C44 C 0.45173 0.24345 0.18759 0.0
C45 C 0.45907 0.19408 0.23187 0.0
N46 N 0.45155 0.21634 0.29216 0.0
O47 O 0.43655 0.15122 0.07482 0.0
H48 H 0.44899 0.26371 0.14913 0.0
H49 H 0.46317 0.16662 0.2355 0.0
O50 O 0.42248 0.21696 0.0286 0.0
C51 C 0.45677 0.12773 0.09922 0.0
O52 O 0.49017 0.135 0.11303 0.0
N53 N 0.49206 0.22958 0.05142 0.0
C54 C 0.54097 0.27949 0.02963 0.0
C55 C 0.50812 0.27805 0.98705 0.0
C56 C 0.484 0.25292 0.99881 0.0
C57 C 0.52373 0.23082 0.09409 0.0
C58 C 0.54853 0.25588 0.08473 0.0
H59 H 0.45936 0.25173 0.96361 0.0
H60 H 0.52999 0.21174 0.13446 0.0
H61 H 0.42966 0.20043 0.89174 0.0
H62 H 0.50917 0.13382 0.82555 0.0
H63 H 0.43991 0.27111 0.29705 0.0
H64 H 0.50124 0.29598 0.94429 0.0
H65 H 0.57376 0.25598 0.11823 0.0
C66 C 0.81349 0.48558 0.20809 0.0
C67 C 0.81774 0.48046 0.28457 0.0
N68 N 0.82041 0.51172 0.3263 0.0
N69 N 0.81294 0.51997 0.2007 0.0
C70 C 0.81719 0.53542 0.27407 0.0
H71 H 0.81243 0.46534 0.16066 0.0
Co72 Co 0.81349 0.5371 0.10467 0.0
C73 C 0.75868 0.5891 0.09345 0.0
O74 O 0.75083 0.57516 0.02213 0.0
N75 N 0.81625 0.55402 1.0072 0.0
C76 C 0.82459 0.59065 0.9198 0.0
C77 C 0.82068 0.58784 0.996 0.0
C78 C 0.8196 0.53679 0.93726 0.0
N79 N 0.82404 0.55841 0.88317 0.0
O80 O 0.85513 0.56304 0.14263 0.0
H81 H 0.82173 0.60924 0.04097 0.0
H82 H 0.82014 0.50895 0.92566 0.0
O83 O 0.78392 0.57679 0.136 0.0
C84 C 0.88127 0.54303 0.14532 0.0
O85 O 0.87617 0.50965 0.1243 0.0
N86 N 0.77369 0.50887 0.06791 0.0
C87 C 0.72099 0.45859 0.03029 0.0
C88 C 0.71676 0.48746 0.08314 0.0
C89 C 0.7436 0.51188 0.10231 0.0
C90 C 0.77876 0.4799 1.0194 0.0
C91 C 0.75243 0.45497 0.99799 0.0
H92 H 0.74076 0.53197 0.14844 0.0
H93 H 0.80423 0.47438 1.00237 0.0
H94 H 0.82 0.56324 0.28868 0.0
H95 H 0.81978 0.45552 0.30774 0.0
H96 H 0.82912 0.61434 0.89413 0.0
H97 H 0.69327 0.49063 0.11129 0.0
H98 H 0.75743 0.43201 0.96025 0.0
C99 C 0.51448 0.82397 0.30592 0.0
C100 C 0.51574 0.83081 0.38437 0.0
N101 N 0.48355 0.83869 0.40171 0.0
N102 N 0.48136 0.82622 0.27344 0.0
C103 C 0.4633 0.83676 0.33347 0.0
H104 H 0.53642 0.81678 0.27491 0.0
Co105 Co 0.4674 0.81621 0.16665 0.0
C106 C 0.41585 0.77079 0.23551 0.0
O107 O 0.4328 0.77193 0.3048 0.0
N108 N 0.45437 0.8068 0.06061 0.0
C109 C 0.43992 0.7773 0.94614 0.0
C110 C 0.44336 0.77562 0.02442 0.0
C111 C 0.45715 0.82715 1.00306 0.0
N112 N 0.44858 0.80968 0.93277 0.0
O113 O 0.43868 0.85676 0.16832 0.0
H114 H 0.43942 0.75264 0.05302 0.0
H115 H 0.46689 0.85366 1.01227 0.0
O116 O 0.42783 0.78678 0.18348 0.0
C117 C 0.45812 0.88363 0.17212 0.0
O118 O 0.4919 0.87927 0.17544 0.0
N119 N 0.49835 0.77849 0.1625 0.0
C120 C 0.55579 0.73467 0.16611 0.0
C121 C 0.52676 0.72706 0.20295 0.0
C122 C 0.49816 0.74924 0.2002 0.0
C123 C 0.52586 0.78555 0.12414 0.0
C124 C 0.55473 0.76395 0.12482 0.0
H125 H 0.47692 0.74337 0.23119 0.0
H126 H 0.5261 0.80916 0.09589 0.0
H127 H 0.43549 0.84067 0.32782 0.0
H128 H 0.53834 0.82896 0.42596 0.0
H129 H 0.43234 0.75613 0.90222 0.0
H130 H 0.52637 0.70446 0.23471 0.0
H131 H 0.57668 0.77106 0.09619 0.0
H132 H 0.15841 0.49565 0.7757 0.0
H133 H 0.20743 0.59488 0.85941 0.0
H134 H 0.22129 0.60245 0.72678 0.0
H135 H 0.22061 0.46887 0.64464 0.0
H136 H 0.18853 0.44685 0.5741 0.0
H137 H 0.18217 0.45047 0.67468 0.0
H138 H 0.12256 0.47943 0.64319 0.0
H139 H 0.12888 0.47614 0.54257 0.0
H140 H 0.12035 0.51782 0.5924 0.0
H141 H 0.22691 0.59935 0.58087 0.0
H142 H 0.23027 0.58262 0.44105 0.0
H143 H 0.18044 0.48407 0.45919 0.0
C144 C 0.17194 0.51903 0.7659 0.0
C145 C 0.18154 0.54493 0.82702 0.0
C146 C 0.1999 0.57484 0.81285 0.0
C147 C 0.20764 0.57937 0.73786 0.0
C148 C 0.19728 0.55341 0.67838 0.0
C149 C 0.18032 0.52357 0.69221 0.0
C150 C 0.17318 0.49874 0.61998 0.0
C151 C 0.19227 0.4642 0.6289 0.0
C152 C 0.13391 0.4927 0.59828 0.0
C153 C 0.18854 0.51923 0.5628 0.0
C154 C 0.20195 0.55093 0.59685 0.0
C155 C 0.21673 0.57447 0.55399 0.0
C156 C 0.21837 0.56495 0.47483 0.0
C157 C 0.20587 0.53204 0.44023 0.0
C158 C 0.19054 0.50921 0.48481 0.0
H159 H 0.50129 0.15131 0.70611 0.0
H160 H 0.40537 0.19839 0.77105 0.0
H161 H 0.39096 0.21338 0.6389 0.0
H162 H 0.52148 0.21196 0.58118 0.0
H163 H 0.5375 0.1806 0.51071 0.0
H164 H 0.53997 0.17182 0.61 0.0
H165 H 0.50593 0.11404 0.56943 0.0
H166 H 0.50344 0.12256 0.46983 0.0
H167 H 0.46429 0.11457 0.51237 0.0
H168 H 0.38887 0.22792 0.50286 0.0
H169 H 0.39788 0.23772 0.36934 0.0
H170 H 0.49266 0.17818 0.38781 0.0
C171 C 0.47695 0.16425 0.69296 0.0
C172 C 0.45484 0.17392 0.75086 0.0
C173 C 0.42336 0.19113 0.7295 0.0
C174 C 0.41469 0.19962 0.65391 0.0
C175 C 0.43735 0.1903 0.59921 0.0
C176 C 0.46762 0.17258 0.61733 0.0
C177 C 0.4877 0.16617 0.5476 0.0
C178 C 0.5238 0.18369 0.56334 0.0
C179 C 0.4905 0.12701 0.52339 0.0
C180 C 0.46435 0.18379 0.48804 0.0
C181 C 0.43546 0.19754 0.5193 0.0
C182 C 0.41112 0.21684 0.47745 0.0
C183 C 0.41649 0.22241 0.40189 0.0
C184 C 0.44576 0.20849 0.36837 0.0
C185 C 0.46977 0.18854 0.41178 0.0
H186 H 0.79897 0.59014 0.75711 0.0
H187 H 0.8623 0.50456 0.83103 0.0
H188 H 0.87173 0.48656 0.69593 0.0
H189 H 0.75643 0.54299 0.58783 0.0
H190 H 0.75496 0.57895 0.52964 0.0
H191 H 0.75539 0.587 0.63262 0.0
H192 H 0.80968 0.62672 0.6388 0.0
H193 H 0.80947 0.61869 0.53573 0.0
H194 H 0.84786 0.60988 0.59843 0.0
H195 H 0.87295 0.47659 0.55488 0.0
H196 H 0.86291 0.47239 0.41336 0.0
H197 H 0.79708 0.56314 0.42622 0.0
C198 C 0.8152 0.56794 0.74456 0.0
C199 C 0.83004 0.54872 0.80433 0.0
C200 C 0.85055 0.5194 0.78599 0.0
C201 C 0.85624 0.50918 0.70957 0.0
C202 C 0.84107 0.52845 0.65194 0.0
C203 C 0.82077 0.55707 0.66813 0.0
C204 C 0.80569 0.57168 0.59439 0.0
C205 C 0.76575 0.57004 0.58562 0.0
C206 C 0.81898 0.60896 0.5917 0.0
C207 C 0.82044 0.54654 0.53432 0.0
C208 C 0.84107 0.52212 0.56929 0.0
C209 C 0.85685 0.49553 0.5268 0.0
C210 C 0.85082 0.49326 0.4464 0.0
C211 C 0.82896 0.51723 0.40877 0.0
C212 C 0.81414 0.54469 0.45345 0.0
H213 H 0.47578 0.77429 0.81364 0.0
H214 H 0.42739 0.87152 0.88395 0.0
H215 H 0.42875 0.88968 0.75215 0.0
H216 H 0.53414 0.8108 0.69595 0.0
H217 H 0.5315 0.77322 0.62578 0.0
H218 H 0.52565 0.76838 0.72455 0.0
H219 H 0.46592 0.73843 0.67989 0.0
H220 H 0.47147 0.74346 0.58102 0.0
H221 H 0.43345 0.76058 0.62158 0.0
H222 H 0.43324 0.89509 0.60778 0.0
H223 H 0.4472 0.89035 0.47178 0.0
H224 H 0.4958 0.79121 0.50263 0.0
C225 C 0.46541 0.79937 0.80108 0.0
C226 C 0.45115 0.82144 0.85827 0.0
C227 C 0.43843 0.85436 0.84057 0.0
C228 C 0.43893 0.8647 0.76591 0.0
C229 C 0.45279 0.842 0.7103 0.0
C230 C 0.46634 0.81025 0.72775 0.0
C231 C 0.48115 0.79106 0.65952 0.0
C232 C 0.52044 0.78556 0.67754 0.0
C233 C 0.46183 0.75633 0.63402 0.0
C234 C 0.47364 0.81673 0.60041 0.0
C235 C 0.45686 0.84581 0.62999 0.0
C236 C 0.44665 0.87254 0.58448 0.0
C237 C 0.45443 0.86965 0.50747 0.0
C238 C 0.47271 0.84059 0.47772 0.0
C239 C 0.48207 0.81381 0.5247 0.0
H240 H 0.93286 0.50883 0.22062 0.0
H241 H 0.91063 0.60511 0.11915 0.0
H242 H 0.97367 0.61982 0.13661 0.0
H243 H 0.00902 0.5425 0.36118 0.0
H244 H 0.03094 0.50156 0.34765 0.0
H245 H 0.98416 0.50259 0.34033 0.0
H246 H 0.98097 0.46914 0.20396 0.0
H247 H 0.02751 0.4682 0.21055 0.0
H248 H 0.00318 0.48663 0.13103 0.0
H249 H 0.04038 0.61789 0.14425 0.0
H250 H 0.10206 0.60036 0.1444 0.0
H251 H 0.07862 0.5063 0.24481 0.0
C252 C 0.94118 0.53355 0.20431 0.0
C253 C 0.9171 0.55593 0.16886 0.0
C254 C 0.92878 0.58788 0.14746 0.0
C255 C 0.96451 0.59634 0.15704 0.0
C256 C 0.98788 0.5729 0.18967 0.0
C257 C 0.97641 0.54244 0.21432 0.0
C258 C 0.00631 0.51985 0.24084 0.0
C259 C 0.00768 0.51644 0.32767 0.0
C260 C 0.00436 0.48387 0.19375 0.0
C261 C 0.03652 0.54128 0.22342 0.0
C262 C 0.0257 0.57209 0.19509 0.0
C263 C 0.04913 0.59423 0.16814 0.0
C264 C 0.08414 0.58415 0.16854 0.0
C265 C 0.09514 0.55205 0.19493 0.0
C266 C 0.07111 0.53114 0.22484 0.0
H267 H 0.49029 0.94257 0.23837 0.0
H268 H 0.39635 0.90502 0.09742 0.0
H269 H 0.38069 0.96593 0.07524 0.0
H270 H 0.45434 0.02611 0.32217 0.0
H271 H 0.49492 0.04847 0.3192 0.0
H272 H 0.49471 0.00299 0.33402 0.0
H273 H 0.52963 0.98935 0.21691 0.0
H274 H 0.5297 0.03454 0.20128 0.0
H275 H 0.51269 0.00254 0.12446 0.0
H276 H 0.38069 0.03143 0.05414 0.0
H277 H 0.39598 0.09264 0.03842 0.0
H278 H 0.49001 0.08452 0.19392 0.0
C279 C 0.46589 0.9472 0.20458 0.0
C280 C 0.44443 0.91926 0.16983 0.0
C281 C 0.41287 0.92623 0.12546 0.0
C282 C 0.4039 0.96071 0.11244 0.0
C283 C 0.4265 0.98773 0.1454 0.0
C284 C 0.4566 0.98116 0.19166 0.0
C285 C 0.47832 0.01369 0.21524 0.0
C286 C 0.4807 0.02338 0.30285 0.0
C287 C 0.5147 0.00978 0.18778 0.0
C288 C 0.45674 0.03952 0.17221 0.0
C289 C 0.42659 0.02453 0.13318 0.0
C290 C 0.40396 0.04343 0.08559 0.0
C291 C 0.41279 0.07815 0.07696 0.0
C292 C 0.44421 0.09323 0.11477 0.0
C293 C 0.46582 0.07374 0.16413 0.0
H294 H 0.33775 0.25036 0.1196 0.0
H295 H 0.39897 0.25811 0.9291 0.0
H296 H 0.37092 0.31366 0.90367 0.0
H297 H 0.2578 0.28916 0.02818 0.0
H298 H 0.2479 0.31123 0.11851 0.0
H299 H 0.27063 0.27051 0.11705 0.0
H300 H 0.3202 0.29966 0.21341 0.0
H301 H 0.29791 0.34054 0.2144 0.0
H302 H 0.34183 0.33779 0.18957 0.0
H303 H 0.34123 0.37186 0.90877 0.0
H304 H 0.30717 0.42522 0.93563 0.0
H305 H 0.26364 0.37831 0.11853 0.0
C306 C 0.34461 0.26322 0.07123 0.0
C307 C 0.37085 0.24994 0.02682 0.0
C308 C 0.37932 0.26792 0.96466 0.0
C309 C 0.36344 0.29951 0.94955 0.0
C310 C 0.33871 0.3126 0.99638 0.0
C311 C 0.32884 0.29471 0.05504 0.0
C312 C 0.30252 0.31507 0.09866 0.0
C313 C 0.26764 0.29531 0.09005 0.0
C314 C 0.31647 0.32378 0.18405 0.0
C315 C 0.29971 0.34744 0.05641 0.0
C316 C 0.32085 0.34561 0.99771 0.0
C317 C 0.32412 0.37335 0.95372 0.0
C318 C 0.30493 0.40359 0.96962 0.0
C319 C 0.28259 0.40562 0.02845 0.0
C320 C 0.28006 0.37714 0.07221 0.0
H321 H 0.6866 0.42798 0.1344 0.0
H322 H 0.69486 0.42659 0.88955 0.0
H323 H 0.64976 0.38024 0.86255 0.0
H324 H 0.67523 0.33569 0.13481 0.0
H325 H 0.64497 0.33968 0.20613 0.0
H326 H 0.67748 0.37296 0.20584 0.0
H327 H 0.62946 0.41957 0.1972 0.0
H328 H 0.5968 0.38646 0.19766 0.0
H329 H 0.59431 0.41411 0.12041 0.0
H330 H 0.60286 0.33525 0.86256 0.0
H331 H 0.55906 0.29295 0.88948 0.0
H332 H 0.58263 0.32278 0.13479 0.0
C333 C 0.67867 0.41812 0.07505 0.0
C334 C 0.6939 0.431 1.01385 0.0
C335 C 0.68346 0.41698 0.93711 0.0
C336 C 0.65786 0.39078 0.92131 0.0
C337 C 0.6433 0.37872 0.98302 0.0
C338 C 0.65347 0.39178 0.05838 0.0
C339 C 0.63422 0.37392 0.11433 0.0
C340 C 0.65949 0.3544 0.16846 0.0
C341 C 0.6124 0.40008 0.16007 0.0
C342 C 0.6114 0.34892 0.05864 0.0
C343 C 0.61693 0.35221 0.98316 0.0
C344 C 0.59837 0.33238 0.92141 0.0
C345 C 0.57347 0.30858 0.93722 0.0
C346 C 0.56752 0.30467 1.01416 0.0
C347 C 0.58691 0.32502 0.07551 0.0
H348 H 0.5955 0.7119 0.05171 0.0
H349 H 0.58811 0.7091 0.29587 0.0
H350 H 0.6424 0.67522 0.30752 0.0
H351 H 0.62614 0.62573 1.01694 0.0
H352 H 0.65441 0.63672 0.94777 0.0
H353 H 0.61591 0.6617 0.9607 0.0
H354 H 0.65348 0.71803 0.9887 0.0
H355 H 0.69217 0.6931 0.9767 0.0
H356 H 0.68903 0.72073 0.06471 0.0
H357 H 0.698 0.6407 0.29092 0.0
H358 H 0.74596 0.6045 0.24474 0.0
H359 H 0.71571 0.63085 1.01234 0.0
C360 C 0.60544 0.70442 0.10779 0.0
C361 C 0.58763 0.7132 0.1729 0.0
C362 C 0.60117 0.70236 0.24502 0.0
C363 C 0.63215 0.68341 0.25234 0.0
C364 C 0.64925 0.67547 0.18698 0.0
C365 C 0.63613 0.68544 0.116 0.0
C366 C 0.65835 0.67242 0.05378 0.0
C367 C 0.63746 0.64767 0.99114 0.0
C368 C 0.6742 0.70289 1.01894 0.0
C369 C 0.68588 0.65325 0.10048 0.0
C370 C 0.68059 0.65554 0.17741 0.0
C371 C 0.70245 0.63889 0.23083 0.0
C372 C 0.72975 0.61861 0.20432 0.0
C373 C 0.73454 0.61497 0.12509 0.0
C374 C 0.71273 0.6332 0.07332 0.0
H375 H 0.39294 0.72244 0.32246 0.0
H376 H 0.37117 0.76354 0.10106 0.0
H377 H 0.32357 0.72021 0.06482 0.0
H378 H 0.38133 0.6344 0.25222 0.0
H379 H 0.36207 0.62233 0.33483 0.0
H380 H 0.39204 0.6585 0.3453 0.0
H381 H 0.34592 0.69868 0.40332 0.0
H382 H 0.3158 0.66258 0.39324 0.0
H383 H 0.30364 0.70187 0.35022 0.0
H384 H 0.27913 0.67005 0.05189 0.0
H385 H 0.24449 0.617 0.06179 0.0
H386 H 0.2979 0.60877 0.2899 0.0
C387 C 0.37789 0.72281 0.26674 0.0
C388 C 0.38569 0.74664 0.21486 0.0
C389 C 0.36561 0.74568 0.142 0.0
C390 C 0.33848 0.72117 0.12094 0.0
C391 C 0.33181 0.69775 0.17328 0.0
C392 C 0.35107 0.69843 0.24465 0.0
C393 C 0.34031 0.66937 0.28899 0.0
C394 C 0.37074 0.6447 0.3063 0.0
C395 C 0.32554 0.68401 0.36334 0.0
C396 C 0.31225 0.65184 0.23121 0.0
C397 C 0.30729 0.66871 0.16509 0.0
C398 C 0.2828 0.65676 0.10357 0.0
C399 C 0.26319 0.62666 0.10971 0.0
C400 C 0.26859 0.60867 0.17645 0.0
C401 C 0.29327 0.62178 0.23789 0.0
loop_
_geom_bond_atom_site_label_1
_geom_bond_atom_site_label_2
_geom_bond_distance
_geom_bond_site_symmetry_2
_ccdc_geom_bond_type
C0 C1 1.351 . S
C0 N3 1.368 . S
C0 H5 0.931 . S
C1 C0 1.351 . S
C1 N2 1.373 . S
C1 H29 0.930 . S
N2 C1 1.373 . S
N2 C4 1.340 . S
N3 C0 1.368 . S
N3 C4 1.321 . S
N3 Co6 2.135 1_556 S
C4 N2 1.340 . S
C4 N3 1.321 . S
C4 H28 0.930 . S
H5 C0 0.931 . S
Co6 N3 2.135 1_554 S
Co6 N9 2.121 . S
Co6 O14 2.055 . S
Co6 O17 2.039 . S
Co6 N20 2.140 . S
C7 O8 1.227 . S
C7 O17 1.265 . S
O8 C7 1.227 . S
N9 Co6 2.121 . S
N9 C11 1.375 . S
N9 C12 1.313 . S
C10 C11 1.338 . S
C10 N13 1.377 . S
C10 H30 0.930 . S
C11 N9 1.375 . S
C11 C10 1.338 . S
C11 H15 0.931 . S
C12 N9 1.313 . S
C12 N13 1.344 . S
C12 H16 0.930 . S
N13 C10 1.377 . S
N13 C12 1.344 . S
O14 Co6 2.055 . S
O14 C18 1.253 . S
H15 C11 0.931 . S
H16 C12 0.930 . S
O17 Co6 2.039 . S
O17 C7 1.265 . S
C18 O14 1.253 . S
C18 O19 1.227 . S
O19 C18 1.227 . S
N20 Co6 2.140 . S
N20 C23 1.346 . S
N20 C24 1.345 . S
C21 C22 1.387 . S
C21 C25 1.391 . S
C22 C21 1.387 . S
C22 C23 1.369 . S
C22 H31 0.929 1_554 S
C23 N20 1.346 . S
C23 C22 1.369 . S
C23 H26 0.928 1_554 S
C24 N20 1.345 . S
C24 C25 1.371 . S
C24 H27 0.931 . S
C25 C21 1.391 . S
C25 C24 1.371 . S
C25 H32 0.930 . S
H26 C23 0.928 1_556 S
H27 C24 0.931 . S
H28 C4 0.930 . S
H29 C1 0.930 . S
H30 C10 0.930 . S
H31 C22 0.929 1_556 S
H32 C25 0.930 . S
C33 C34 1.351 . S
C33 N36 1.368 . S
C33 H38 0.931 . S
C34 C33 1.351 . S
C34 N35 1.373 . S
C34 H62 0.930 . S
N35 C34 1.373 . S
N35 C37 1.340 . S
N36 C33 1.368 . S
N36 C37 1.321 . S
N36 Co39 2.135 1_556 S
C37 N35 1.340 . S
C37 N36 1.321 . S
C37 H61 0.930 . S
H38 C33 0.931 . S
Co39 N36 2.135 1_554 S
Co39 N42 2.121 . S
Co39 O47 2.055 . S
Co39 O50 2.039 . S
Co39 N53 2.140 . S
C40 O41 1.227 . S
C40 O50 1.265 . S
O41 C40 1.227 . S
N42 Co39 2.121 . S
N42 C44 1.375 . S
N42 C45 1.313 . S
C43 C44 1.338 . S
C43 N46 1.377 . S
C43 H63 0.930 . S
C44 N42 1.375 . S
C44 C43 1.338 . S
C44 H48 0.931 . S
C45 N42 1.313 . S
C45 N46 1.344 . S
C45 H49 0.930 . S
N46 C43 1.377 . S
N46 C45 1.344 . S
O47 Co39 2.055 . S
O47 C51 1.253 . S
H48 C44 0.931 . S
H49 C45 0.930 . S
O50 Co39 2.039 . S
O50 C40 1.265 . S
C51 O47 1.253 . S
C51 O52 1.227 . S
O52 C51 1.227 . S
N53 Co39 2.140 . S
N53 C56 1.346 . S
N53 C57 1.345 . S
C54 C55 1.387 . S
C54 C58 1.391 . S
C55 C54 1.387 . S
C55 C56 1.369 . S
C55 H64 0.929 1_554 S
C56 N53 1.346 . S
C56 C55 1.369 . S
C56 H59 0.928 1_554 S
C57 N53 1.345 . S
C57 C58 1.371 . S
C57 H60 0.931 . S
C58 C54 1.391 . S
C58 C57 1.371 . S
C58 H65 0.930 . S
H59 C56 0.928 1_556 S
H60 C57 0.931 . S
H61 C37 0.930 . S
H62 C34 0.930 . S
H63 C43 0.930 . S
H64 C55 0.929 1_556 S
H65 C58 0.930 . S
C66 C67 1.351 . S
C66 N69 1.368 . S
C66 H71 0.931 . S
C67 C66 1.351 . S
C67 N68 1.373 . S
C67 H95 0.930 . S
N68 C67 1.373 . S
N68 C70 1.340 . S
N69 C66 1.368 . S
N69 C70 1.321 . S
N69 Co72 2.135 . S
C70 N68 1.340 . S
C70 N69 1.321 . S
C70 H94 0.930 . S
H71 C66 0.931 . S
Co72 N69 2.135 . S
Co72 N75 2.121 . S
Co72 O80 2.055 . S
Co72 O83 2.039 . S
Co72 N86 2.140 . S
C73 O74 1.227 . S
C73 O83 1.265 . S
O74 C73 1.227 . S
N75 Co72 2.121 . S
N75 C77 1.375 1_554 S
N75 C78 1.313 1_554 S
C76 C77 1.338 . S
C76 N79 1.377 . S
C76 H96 0.930 . S
C77 N75 1.375 1_556 S
C77 C76 1.338 . S
C77 H81 0.931 1_556 S
C78 N75 1.313 1_556 S
C78 N79 1.344 . S
C78 H82 0.930 . S
N79 C76 1.377 . S
N79 C78 1.344 . S
O80 Co72 2.055 . S
O80 C84 1.253 . S
H81 C77 0.931 1_554 S
H82 C78 0.930 . S
O83 Co72 2.039 . S
O83 C73 1.265 . S
C84 O80 1.253 . S
C84 O85 1.227 . S
O85 C84 1.227 . S
N86 Co72 2.140 . S
N86 C89 1.346 . S
N86 C90 1.345 . S
C87 C88 1.387 . S
C87 C91 1.391 . S
C88 C87 1.387 . S
C88 C89 1.369 . S
C88 H97 0.929 . S
C89 N86 1.346 . S
C89 C88 1.369 . S
C89 H92 0.928 . S
C90 N86 1.345 . S
C90 C91 1.371 . S
C90 H93 0.931 . S
C91 C87 1.391 . S
C91 C90 1.371 . S
C91 H98 0.930 . S
H92 C89 0.928 . S
H93 C90 0.931 . S
H94 C70 0.930 . S
H95 C67 0.930 . S
H96 C76 0.930 . S
H97 C88 0.929 . S
H98 C91 0.930 . S
C99 C100 1.351 . S
C99 N102 1.368 . S
C99 H104 0.931 . S
C100 C99 1.351 . S
C100 N101 1.373 . S
C100 H128 0.930 . S
N101 C100 1.373 . S
N101 C103 1.340 . S
N102 C99 1.368 . S
N102 C103 1.321 . S
N102 Co105 2.135 . S
C103 N101 1.340 . S
C103 N102 1.321 . S
C103 H127 0.930 . S
H104 C99 0.931 . S
Co105 N102 2.135 . S
Co105 N108 2.121 . S
Co105 O113 2.055 . S
Co105 O116 2.039 . S
Co105 N119 2.140 . S
C106 O107 1.227 . S
C106 O116 1.265 . S
O107 C106 1.227 . S
N108 Co105 2.121 . S
N108 C110 1.375 1_554 S
N108 C111 1.313 1_554 S
C109 C110 1.338 . S
C109 N112 1.377 . S
C109 H129 0.930 . S
C110 N108 1.375 1_556 S
C110 C109 1.338 . S
C110 H114 0.931 . S
C111 N108 1.313 1_556 S
C111 N112 1.344 . S
C111 H115 0.930 . S
N112 C109 1.377 . S
N112 C111 1.344 . S
O113 Co105 2.055 . S
O113 C117 1.253 . S
H114 C110 0.931 . S
H115 C111 0.930 . S
O116 Co105 2.039 . S
O116 C106 1.265 . S
C117 O113 1.253 . S
C117 O118 1.227 . S
O118 C117 1.227 . S
N119 Co105 2.140 . S
N119 C122 1.346 . S
N119 C123 1.345 . S
C120 C121 1.387 . S
C120 C124 1.391 . S
C121 C120 1.387 . S
C121 C122 1.369 . S
C121 H130 0.929 . S
C122 N119 1.346 . S
C122 C121 1.369 . S
C122 H125 0.928 . S
C123 N119 1.345 . S
C123 C124 1.371 . S
C123 H126 0.931 . S
C124 C120 1.391 . S
C124 C123 1.371 . S
C124 H131 0.930 . S
H125 C122 0.928 . S
H126 C123 0.931 . S
H127 C103 0.930 . S
H128 C100 0.930 . S
H129 C109 0.930 . S
H130 C121 0.929 . S
H131 C124 0.930 . S
H132 C144 0.930 . S
H133 C146 0.930 . S
H134 C147 0.930 . S
H135 C151 0.959 . S
H136 C151 0.959 . S
H137 C151 0.961 . S
H138 C152 0.960 . S
H139 C152 0.961 . S
H140 C152 0.959 . S
H141 C155 0.929 . S
H142 C156 0.931 . S
H143 C158 0.930 . S
C144 H132 0.930 . S
C144 C145 1.399 . S
C144 C149 1.399 . S
C145 C144 1.399 . S
C145 C146 1.376 . S
C146 H133 0.930 . S
C146 C145 1.376 . S
C146 C147 1.388 . S
C147 H134 0.930 . S
C147 C146 1.388 . S
C147 C148 1.390 . S
C148 C147 1.390 . S
C148 C149 1.394 . S
C148 C154 1.465 . S
C149 C144 1.399 . S
C149 C148 1.394 . S
C149 C150 1.516 . S
C150 C149 1.516 . S
C150 C151 1.502 . S
C150 C152 1.561 . S
C150 C153 1.526 . S
C151 H135 0.959 . S
C151 H136 0.959 . S
C151 H137 0.961 . S
C151 C150 1.502 . S
C152 H138 0.960 . S
C152 H139 0.961 . S
C152 H140 0.959 . S
C152 C150 1.561 . S
C153 C150 1.526 . S
C153 C154 1.396 . S
C153 C158 1.390 . S
C154 C148 1.465 . S
C154 C153 1.396 . S
C154 C155 1.399 . S
C155 H141 0.929 . S
C155 C154 1.399 . S
C155 C156 1.385 . S
C156 H142 0.931 . S
C156 C155 1.385 . S
C156 C157 1.389 . S
C157 C156 1.389 . S
C157 C158 1.387 . S
C158 H143 0.930 . S
C158 C153 1.390 . S
C158 C157 1.387 . S
H159 C171 0.930 . S
H160 C173 0.930 . S
H161 C174 0.930 . S
H162 C178 0.959 . S
H163 C178 0.959 . S
H164 C178 0.961 . S
H165 C179 0.960 . S
H166 C179 0.961 . S
H167 C179 0.959 . S
H168 C182 0.929 . S
H169 C183 0.931 . S
H170 C185 0.930 . S
C171 H159 0.930 . S
C171 C172 1.399 . S
C171 C176 1.399 . S
C172 C171 1.399 . S
C172 C173 1.376 . S
C173 H160 0.930 . S
C173 C172 1.376 . S
C173 C174 1.388 . S
C174 H161 0.930 . S
C174 C173 1.388 . S
C174 C175 1.390 . S
C175 C174 1.390 . S
C175 C176 1.394 . S
C175 C181 1.465 . S
C176 C171 1.399 . S
C176 C175 1.394 . S
C176 C177 1.516 . S
C177 C176 1.516 . S
C177 C178 1.502 . S
C177 C179 1.561 . S
C177 C180 1.526 . S
C178 H162 0.959 . S
C178 H163 0.959 . S
C178 H164 0.961 . S
C178 C177 1.502 . S
C179 H165 0.960 . S
C179 H166 0.961 . S
C179 H167 0.959 . S
C179 C177 1.561 . S
C180 C177 1.526 . S
C180 C181 1.396 . S
C180 C185 1.390 . S
C181 C175 1.465 . S
C181 C180 1.396 . S
C181 C182 1.399 . S
C182 H168 0.929 . S
C182 C181 1.399 . S
C182 C183 1.385 . S
C183 H169 0.931 . S
C183 C182 1.385 . S
C183 C184 1.389 . S
C184 C183 1.389 . S
C184 C185 1.387 . S
C185 H170 0.930 . S
C185 C180 1.390 . S
C185 C184 1.387 . S
H186 C198 0.930 . S
H187 C200 0.930 . S
H188 C201 0.930 . S
H189 C205 0.959 . S
H190 C205 0.959 . S
H191 C205 0.961 . S
H192 C206 0.960 . S
H193 C206 0.961 . S
H194 C206 0.959 . S
H195 C209 0.929 . S
H196 C210 0.931 . S
H197 C212 0.930 . S
C198 H186 0.930 . S
C198 C199 1.399 . S
C198 C203 1.399 . S
C199 C198 1.399 . S
C199 C200 1.376 . S
C200 H187 0.930 . S
C200 C199 1.376 . S
C200 C201 1.388 . S
C201 H188 0.930 . S
C201 C200 1.388 . S
C201 C202 1.390 . S
C202 C201 1.390 . S
C202 C203 1.394 . S
C202 C208 1.465 . S
C203 C198 1.399 . S
C203 C202 1.394 . S
C203 C204 1.516 . S
C204 C203 1.516 . S
C204 C205 1.502 . S
C204 C206 1.561 . S
C204 C207 1.526 . S
C205 H189 0.959 . S
C205 H190 0.959 . S
C205 H191 0.961 . S
C205 C204 1.502 . S
C206 H192 0.960 . S
C206 H193 0.961 . S
C206 H194 0.959 . S
C206 C204 1.561 . S
C207 C204 1.526 . S
C207 C208 1.396 . S
C207 C212 1.390 . S
C208 C202 1.465 . S
C208 C207 1.396 . S
C208 C209 1.399 . S
C209 H195 0.929 . S
C209 C208 1.399 . S
C209 C210 1.385 . S
C210 H196 0.931 . S
C210 C209 1.385 . S
C210 C211 1.389 . S
C211 C210 1.389 . S
C211 C212 1.387 . S
C212 H197 0.930 . S
C212 C207 1.390 . S
C212 C211 1.387 . S
H213 C225 0.930 . S
H214 C227 0.930 . S
H215 C228 0.930 . S
H216 C232 0.959 . S
H217 C232 0.959 . S
H218 C232 0.961 . S
H219 C233 0.960 . S
H220 C233 0.961 . S
H221 C233 0.959 . S
H222 C236 0.929 . S
H223 C237 0.931 . S
H224 C239 0.930 . S
C225 H213 0.930 . S
C225 C226 1.399 . S
C225 C230 1.399 . S
C226 C225 1.399 . S
C226 C227 1.376 . S
C227 H214 0.930 . S
C227 C226 1.376 . S
C227 C228 1.388 . S
C228 H215 0.930 . S
C228 C227 1.388 . S
C228 C229 1.390 . S
C229 C228 1.390 . S
C229 C230 1.394 . S
C229 C235 1.465 . S
C230 C225 1.399 . S
C230 C229 1.394 . S
C230 C231 1.516 . S
C231 C230 1.516 . S
C231 C232 1.502 . S
C231 C233 1.561 . S
C231 C234 1.526 . S
C232 H216 0.959 . S
C232 H217 0.959 . S
C232 H218 0.961 . S
C232 C231 1.502 . S
C233 H219 0.960 . S
C233 H220 0.961 . S
C233 H221 0.959 . S
C233 C231 1.561 . S
C234 C231 1.526 . S
C234 C235 1.396 . S
C234 C239 1.390 . S
C235 C229 1.465 . S
C235 C234 1.396 . S
C235 C236 1.399 . S
C236 H222 0.929 . S
C236 C235 1.399 . S
C236 C237 1.385 . S
C237 H223 0.931 . S
C237 C236 1.385 . S
C237 C238 1.389 . S
C238 C237 1.389 . S
C238 C239 1.387 . S
C239 H224 0.930 . S
C239 C234 1.390 . S
C239 C238 1.387 . S
H240 C252 0.930 . S
H241 C254 0.930 . S
H242 C255 0.930 . S
H243 C259 0.959 . S
H244 C259 0.959 . S
H245 C259 0.961 1_655 S
H246 C260 0.960 . S
H247 C260 0.961 1_455 S
H248 C260 0.959 . S
H249 C263 0.929 . S
H250 C264 0.931 . S
H251 C266 0.930 . S
C252 H240 0.930 . S
C252 C253 1.399 . S
C252 C257 1.399 . S
C253 C252 1.399 . S
C253 C254 1.376 . S
C254 H241 0.930 . S
C254 C253 1.376 . S
C254 C255 1.388 . S
C255 H242 0.930 . S
C255 C254 1.388 . S
C255 C256 1.390 . S
C256 C255 1.390 . S
C256 C257 1.394 . S
C256 C262 1.465 1_655 S
C257 C252 1.399 . S
C257 C256 1.394 . S
C257 C258 1.516 . S
C258 C257 1.516 . S
C258 C259 1.502 1_655 S
C258 C260 1.561 . S
C258 C261 1.526 1_655 S
C259 H243 0.959 . S
C259 H244 0.959 . S
C259 H245 0.961 1_455 S
C259 C258 1.502 1_455 S
C260 H246 0.960 . S
C260 H247 0.961 1_655 S
C260 H248 0.959 . S
C260 C258 1.561 . S
C261 C258 1.526 1_455 S
C261 C262 1.396 . S
C261 C266 1.390 . S
C262 C256 1.465 1_455 S
C262 C261 1.396 . S
C262 C263 1.399 . S
C263 H249 0.929 . S
C263 C262 1.399 . S
C263 C264 1.385 . S
C264 H250 0.931 . S
C264 C263 1.385 . S
C264 C265 1.389 . S
C265 C264 1.389 . S
C265 C266 1.387 . S
C266 H251 0.930 . S
C266 C261 1.390 . S
C266 C265 1.387 . S
H267 C279 0.930 . S
H268 C281 0.930 . S
H269 C282 0.930 1_556 S
H270 C286 0.959 . S
H271 C286 0.959 . S
H272 C286 0.961 . S
H273 C287 0.960 . S
H274 C287 0.961 . S
H275 C287 0.959 . S
H276 C290 0.929 . S
H277 C291 0.931 . S
H278 C293 0.930 . S
C279 H267 0.930 . S
C279 C280 1.399 . S
C279 C284 1.399 . S
C280 C279 1.399 . S
C280 C281 1.376 . S
C281 H268 0.930 . S
C281 C280 1.376 . S
C281 C282 1.388 . S
C282 H269 0.930 1_554 S
C282 C281 1.388 . S
C282 C283 1.390 . S
C283 C282 1.390 . S
C283 C284 1.394 . S
C283 C289 1.465 1_565 S
C284 C279 1.399 . S
C284 C283 1.394 . S
C284 C285 1.516 1_565 S
C285 C284 1.516 1_545 S
C285 C286 1.502 . S
C285 C287 1.561 . S
C285 C288 1.526 . S
C286 H270 0.959 . S
C286 H271 0.959 . S
C286 H272 0.961 . S
C286 C285 1.502 . S
C287 H273 0.960 . S
C287 H274 0.961 . S
C287 H275 0.959 . S
C287 C285 1.561 . S
C288 C285 1.526 . S
C288 C289 1.396 . S
C288 C293 1.390 . S
C289 C283 1.465 1_545 S
C289 C288 1.396 . S
C289 C290 1.399 1_554 S
C290 H276 0.929 . S
C290 C289 1.399 1_556 S
C290 C291 1.385 . S
C291 H277 0.931 . S
C291 C290 1.385 . S
C291 C292 1.389 1_556 S
C292 C291 1.389 1_554 S
C292 C293 1.387 . S
C293 H278 0.930 . S
C293 C288 1.390 . S
C293 C292 1.387 . S
H294 C306 0.930 . S
H295 C308 0.930 . S
H296 C309 0.930 . S
H297 C313 0.959 . S
H298 C313 0.959 . S
H299 C313 0.961 . S
H300 C314 0.960 . S
H301 C314 0.961 . S
H302 C314 0.959 . S
H303 C317 0.929 . S
H304 C318 0.931 . S
H305 C320 0.930 . S
C306 H294 0.930 . S
C306 C307 1.399 . S
C306 C311 1.399 . S
C307 C306 1.399 . S
C307 C308 1.376 1_554 S
C308 H295 0.930 . S
C308 C307 1.376 1_556 S
C308 C309 1.388 . S
C309 H296 0.930 . S
C309 C308 1.388 . S
C309 C310 1.390 1_556 S
C310 C309 1.390 1_554 S
C310 C311 1.394 . S
C310 C316 1.465 . S
C311 C306 1.399 . S
C311 C310 1.394 . S
C311 C312 1.516 . S
C312 C311 1.516 . S
C312 C313 1.502 . S
C312 C314 1.561 . S
C312 C315 1.526 . S
C313 H297 0.959 . S
C313 H298 0.959 . S
C313 H299 0.961 . S
C313 C312 1.502 . S
C314 H300 0.960 . S
C314 H301 0.961 . S
C314 H302 0.959 . S
C314 C312 1.561 . S
C315 C312 1.526 . S
C315 C316 1.396 . S
C315 C320 1.390 . S
C316 C310 1.465 . S
C316 C315 1.396 . S
C316 C317 1.399 1_554 S
C317 H303 0.929 . S
C317 C316 1.399 1_556 S
C317 C318 1.385 . S
C318 H304 0.931 . S
C318 C317 1.385 . S
C318 C319 1.389 1_556 S
C319 C318 1.389 1_554 S
C319 C320 1.387 . S
C320 H305 0.930 . S
C320 C315 1.390 . S
C320 C319 1.387 . S
H321 C333 0.930 . S
H322 C335 0.925 1_556 S
H323 C336 0.930 1_556 S
H324 C340 0.959 . S
H325 C340 0.959 . S
H326 C340 0.961 . S
H327 C341 0.960 . S
H328 C341 0.961 . S
H329 C341 0.959 . S
H330 C344 0.918 1_556 S
H331 C345 0.931 1_556 S
H332 C347 0.930 . S
C333 H321 0.930 . S
C333 C334 1.399 . S
C333 C338 1.399 . S
C334 C333 1.399 . S
C334 C335 1.376 . S
C335 H322 0.925 1_554 S
C335 C334 1.376 . S
C335 C336 1.388 . S
C336 H323 0.930 1_554 S
C336 C335 1.388 . S
C336 C337 1.390 . S
C337 C336 1.390 . S
C337 C338 1.394 . S
C337 C343 1.465 . S
C338 C333 1.399 . S
C338 C337 1.394 . S
C338 C339 1.516 . S
C339 C338 1.516 . S
C339 C340 1.502 . S
C339 C341 1.561 . S
C339 C342 1.526 . S
C340 H324 0.959 . S
C340 H325 0.959 . S
C340 H326 0.961 . S
C340 C339 1.502 . S
C341 H327 0.960 . S
C341 H328 0.961 . S
C341 H329 0.959 . S
C341 C339 1.561 . S
C342 C339 1.526 . S
C342 C343 1.396 . S
C342 C347 1.390 . S
C343 C337 1.465 . S
C343 C342 1.396 . S
C343 C344 1.407 . S
C344 H330 0.918 1_554 S
C344 C343 1.407 . S
C344 C345 1.389 . S
C345 H331 0.931 1_554 S
C345 C344 1.389 . S
C345 C346 1.389 . S
C346 C345 1.389 . S
C346 C347 1.387 . S
C347 H332 0.930 . S
C347 C342 1.390 . S
C347 C346 1.387 . S
H348 C360 0.930 . S
H349 C362 0.930 . S
H350 C363 0.930 . S
H351 C367 0.959 . S
H352 C367 0.959 . S
H353 C367 0.961 . S
H354 C368 0.953 1_556 S
H355 C368 0.953 1_556 S
H356 C368 0.962 . S
H357 C371 0.929 . S
H358 C372 0.931 . S
H359 C374 0.930 . S
C360 H348 0.930 . S
C360 C361 1.399 . S
C360 C365 1.399 . S
C361 C360 1.399 . S
C361 C362 1.376 . S
C362 H349 0.930 . S
C362 C361 1.376 . S
C362 C363 1.388 . S
C363 H350 0.930 . S
C363 C362 1.388 . S
C363 C364 1.390 . S
C364 C363 1.390 . S
C364 C365 1.394 . S
C364 C370 1.465 . S
C365 C360 1.399 . S
C365 C364 1.394 . S
C365 C366 1.516 . S
C366 C365 1.516 . S
C366 C367 1.502 . S
C366 C368 1.574 . S
C366 C369 1.526 . S
C367 H351 0.959 . S
C367 H352 0.959 . S
C367 H353 0.961 . S
C367 C366 1.502 . S
C368 H354 0.953 1_554 S
C368 H355 0.953 1_554 S
C368 H356 0.962 . S
C368 C366 1.574 . S
C369 C366 1.526 . S
C369 C370 1.396 . S
C369 C374 1.390 . S
C370 C364 1.465 . S
C370 C369 1.396 . S
C370 C371 1.399 . S
C371 H357 0.929 . S
C371 C370 1.399 . S
C371 C372 1.385 . S
C372 H358 0.931 . S
C372 C371 1.385 . S
C372 C373 1.389 . S
C373 C372 1.389 . S
C373 C374 1.387 . S
C374 H359 0.930 . S
C374 C369 1.390 . S
C374 C373 1.387 . S
H375 C387 0.930 . S
H376 C389 0.930 . S
H377 C390 0.930 1_556 S
H378 C394 0.959 . S
H379 C394 0.959 . S
H380 C394 0.961 . S
H381 C395 0.960 . S
H382 C395 0.961 . S
H383 C395 0.959 . S
H384 C398 0.929 . S
H385 C399 0.931 . S
H386 C401 0.930 . S
C387 H375 0.930 . S
C387 C388 1.399 . S
C387 C392 1.399 . S
C388 C387 1.399 . S
C388 C389 1.376 . S
C389 H376 0.930 . S
C389 C388 1.376 . S
C389 C390 1.388 . S
C390 H377 0.930 1_554 S
C390 C389 1.388 . S
C390 C391 1.390 . S
C391 C390 1.390 . S
C391 C392 1.394 . S
C391 C397 1.465 . S
C392 C387 1.399 . S
C392 C391 1.394 . S
C392 C393 1.516 . S
C393 C392 1.516 . S
C393 C394 1.502 . S
C393 C395 1.561 . S
C393 C396 1.526 . S
C394 H378 0.959 . S
C394 H379 0.959 . S
C394 H380 0.961 . S
C394 C393 1.502 . S
C395 H381 0.960 . S
C395 H382 0.961 . S
C395 H383 0.959 . S
C395 C393 1.561 . S
C396 C393 1.526 . S
C396 C397 1.396 . S
C396 C401 1.390 . S
C397 C391 1.465 . S
C397 C396 1.396 . S
C397 C398 1.399 1_554 S
C398 H384 0.929 . S
C398 C397 1.399 1_556 S
C398 C399 1.385 . S
C399 H385 0.931 . S
C399 C398 1.385 . S
C399 C400 1.389 1_556 S
C400 C399 1.389 1_554 S
C400 C401 1.387 . S
C401 H386 0.930 . S
C401 C396 1.390 . S
C401 C400 1.387 . S
C145 N2 1.427 . S
C157 N13 1.451 . S
C172 N35 1.480 . S
C184 N46 1.412 . S
C199 N79 1.483 . S
C211 N68 1.409 . S
C226 N112 1.457 . S
C238 N101 1.421 . S
C253 C84 1.073 . S
C265 C18 1.089 . S
C280 C117 1.072 . S
C292 C51 1.093 . S
C307 C40 1.417 . S
C319 C21 1.447 . S
C334 C87 1.233 . S
C346 C54 1.234 . S
C361 C120 1.463 . S
C373 C73 1.449 . S
C388 C106 1.697 . S
C400 C7 1.684 . S
