# Generated by pormake.
# Topology wkx, (5)-cn, num edge types: 1
# Building blocks:
#     Node 0, Type 0, BuildingBlock: BEQFEK_clean_sbu_0, # of connection points: 5
#     Node 1, Type 0, BuildingBlock: BEQFEK_clean_sbu_0, # of connection points: 5
#     Node 2, Type 0, BuildingBlock: BEQFEK_clean_sbu_0, # of connection points: 5
#     Node 3, Type 0, BuildingBlock: BEQFEK_clean_sbu_0, # of connection points: 5
#     Node 4, Type 0, BuildingBlock: BEQFEK_clean_sbu_0, # of connection points: 5
#     Node 5, Type 0, BuildingBlock: BEQFEK_clean_sbu_0, # of connection points: 5
#     Node 6, Type 0, BuildingBlock: BEQFEK_clean_sbu_0, # of connection points: 5
#     Node 7, Type 0, BuildingBlock: BEQFEK_clean_sbu_0, # of connection points: 5
#     Node 8, Type 0, BuildingBlock: BEQFEK_clean_sbu_0, # of connection points: 5
#     Node 9, Type 0, BuildingBlock: BEQFEK_clean_sbu_0, # of connection points: 5
#     Node 10, Type 0, BuildingBlock: BEQFEK_clean_sbu_0, # of connection points: 5
#     Node 11, Type 0, BuildingBlock: BEQFEK_clean_sbu_0, # of connection points: 5
#     Edge 12, Type (0, 0), BuildingBlock: AJUNOK_clean_linker_0, # of connection points: 2
#     Edge 13, Type (0, 0), BuildingBlock: AJUNOK_clean_linker_0, # of connection points: 2
#     Edge 14, Type (0, 0), BuildingBlock: AJUNOK_clean_linker_0, # of connection points: 2
#     Edge 15, Type (0, 0), BuildingBlock: AJUNOK_clean_linker_0, # of connection points: 2
#     Edge 16, Type (0, 0), BuildingBlock: AJUNOK_clean_linker_0, # of connection points: 2
#     Edge 17, Type (0, 0), BuildingBlock: AJUNOK_clean_linker_0, # of connection points: 2
#     Edge 18, Type (0, 0), BuildingBlock: AJUNOK_clean_linker_0, # of connection points: 2
#     Edge 19, Type (0, 0), BuildingBlock: AJUNOK_clean_linker_0, # of connection points: 2
#     Edge 20, Type (0, 0), BuildingBlock: AJUNOK_clean_linker_0, # of connection points: 2
#     Edge 21, Type (0, 0), BuildingBlock: AJUNOK_clean_linker_0, # of connection points: 2
#     Edge 22, Type (0, 0), BuildingBlock: AJUNOK_clean_linker_0, # of connection points: 2
#     Edge 23, Type (0, 0), BuildingBlock: AJUNOK_clean_linker_0, # of connection points: 2
#     Edge 24, Type (0, 0), BuildingBlock: AJUNOK_clean_linker_0, # of connection points: 2
#     Edge 25, Type (0, 0), BuildingBlock: AJUNOK_clean_linker_0, # of connection points: 2
#     Edge 26, Type (0, 0), BuildingBlock: AJUNOK_clean_linker_0, # of connection points: 2
#     Edge 27, Type (0, 0), BuildingBlock: AJUNOK_clean_linker_0, # of connection points: 2
#     Edge 28, Type (0, 0), BuildingBlock: AJUNOK_clean_linker_0, # of connection points: 2
#     Edge 29, Type (0, 0), BuildingBlock: AJUNOK_clean_linker_0, # of connection points: 2
#     Edge 30, Type (0, 0), BuildingBlock: AJUNOK_clean_linker_0, # of connection points: 2
#     Edge 31, Type (0, 0), BuildingBlock: AJUNOK_clean_linker_0, # of connection points: 2
#     Edge 32, Type (0, 0), BuildingBlock: AJUNOK_clean_linker_0, # of connection points: 2
#     Edge 33, Type (0, 0), BuildingBlock: AJUNOK_clean_linker_0, # of connection points: 2
#     Edge 34, Type (0, 0), BuildingBlock: AJUNOK_clean_linker_0, # of connection points: 2
#     Edge 35, Type (0, 0), BuildingBlock: AJUNOK_clean_linker_0, # of connection points: 2
#     Edge 36, Type (0, 0), BuildingBlock: AJUNOK_clean_linker_0, # of connection points: 2
#     Edge 37, Type (0, 0), BuildingBlock: AJUNOK_clean_linker_0, # of connection points: 2
#     Edge 38, Type (0, 0), BuildingBlock: AJUNOK_clean_linker_0, # of connection points: 2
#     Edge 39, Type (0, 0), BuildingBlock: AJUNOK_clean_linker_0, # of connection points: 2
#     Edge 40, Type (0, 0), BuildingBlock: AJUNOK_clean_linker_0, # of connection points: 2
#     Edge 41, Type (0, 0), BuildingBlock: AJUNOK_clean_linker_0, # of connection points: 2
# Relax obj value: 0.449
# Max RMSD: 0.259
# Mean RMSD: 0.259
data_MOF--net-wkx--node1-BEQFEK_clean_sbu_0--edge1-AJUNOK_clean_linker_0
_symmetry_space_group_name_H-M    P1
_symmetry_Int_Tables_number       1
_symmetry_cell_setting            triclinic
loop_
_symmetry_equiv_pos_as_xyz
'x, y, z'
_cell_length_a     27.945401
_cell_length_b     27.921384
_cell_length_c     55.130695
_cell_angle_alpha  89.921709
_cell_angle_beta   90.148564
_cell_angle_gamma 120.09256
loop_
_atom_site_label
_atom_site_type_symbol
_atom_site_fract_x
_atom_site_fract_y
_atom_site_fract_z
_atom_type_partial_charge
Co0 Co 0.21132 0.14801 0.4607 0.0
Co1 Co 0.33568 0.21011 0.4738 0.0
C2 C 0.25554 0.24852 0.49043 0.0
O3 O 0.21672 0.21126 0.4779 0.0
O4 O 0.30323 0.25274 0.49072 0.0
C5 C 0.09409 0.10443 0.45852 0.0
O6 O 0.10096 0.13414 0.47804 0.0
C7 C 0.4429 0.30184 0.46029 0.0
C8 C 0.50156 0.29077 0.48317 0.0
C9 C 0.4987 0.32437 0.46535 0.0
N10 N 0.41413 0.25684 0.47424 0.0
N11 N 0.44937 0.25042 0.48797 0.0
C12 C 0.41676 0.324 0.44333 0.0
H13 H 0.3731 0.30871 0.44853 0.0
H14 H 0.41725 0.30963 0.42464 0.0
H15 H 0.44027 0.36995 0.44333 0.0
C16 C 0.25165 0.14395 0.41257 0.0
N17 N 0.26112 0.16605 0.43497 0.0
N18 N 0.3135 0.18674 0.44062 0.0
C19 C 0.33865 0.17596 0.42214 0.0
C20 C 0.30035 0.1491 0.40357 0.0
C21 C 0.19504 0.10919 0.40199 0.0
H22 H 0.17343 0.06918 0.41185 0.0
H23 H 0.17097 0.13062 0.40427 0.0
H24 H 0.19665 0.10065 0.38246 0.0
O25 O 0.22253 0.09972 0.48385 0.0
O26 O 0.31216 0.14241 0.4936 0.0
H27 H 0.40446 0.17631 0.44249 0.0
H28 H 0.40049 0.1556 0.41101 0.0
C29 C 0.39558 0.18371 0.42366 0.0
H30 H 0.42619 0.22692 0.41866 0.0
H31 H 0.43785 0.21848 0.5005 0.0
O32 O 0.13566 0.10543 0.44872 0.0
C33 C 0.26309 0.10131 0.49524 0.0
Co34 Co 0.07365 0.21366 0.62793 0.0
Co35 Co 0.13497 0.33854 0.63959 0.0
C36 C 0.01859 0.25705 0.65873 0.0
O37 O 0.01672 0.21784 0.64645 0.0
O38 O 0.06139 0.30538 0.65804 0.0
C39 C 0.99341 0.1016 0.61306 0.0
O40 O 0.95656 0.11716 0.61003 0.0
C41 C 0.14883 0.44484 0.62471 0.0
C42 C 0.21948 0.50517 0.64679 0.0
C43 C 0.18255 0.501 0.62895 0.0
N44 N 0.16553 0.41702 0.63906 0.0
N45 N 0.20768 0.45328 0.6523 0.0
C46 C 0.09969 0.4176 0.60821 0.0
H47 H 0.06965 0.37569 0.61507 0.0
H48 H 0.11312 0.41293 0.5899 0.0
H49 H 0.0796 0.44314 0.60657 0.0
C50 C 0.11242 0.25108 0.57891 0.0
N51 N 0.10073 0.26147 0.60131 0.0
N52 N 0.13262 0.31423 0.60642 0.0
C53 C 0.16769 0.33868 0.58759 0.0
C54 C 0.15543 0.29963 0.56934 0.0
C55 C 0.0913 0.19389 0.56916 0.0
H56 H 0.11017 0.17345 0.57955 0.0
H57 H 0.04581 0.16931 0.5715 0.0
H58 H 0.10143 0.19443 0.54969 0.0
O59 O 0.13767 0.22929 0.64875 0.0
O60 O 0.18392 0.31886 0.65822 0.0
H61 H 0.234 0.40505 0.60745 0.0
H62 H 0.25034 0.39939 0.57614 0.0
C63 C 0.21755 0.39542 0.58867 0.0
H64 H 0.20559 0.42616 0.58317 0.0
H65 H 0.22862 0.44265 0.66498 0.0
O66 O 0.04277 0.13646 0.61899 0.0
C67 C 0.17789 0.27049 0.65921 0.0
Co68 Co 0.85342 0.05546 0.78931 0.0
Co69 Co 0.80179 0.12545 0.8049 0.0
C70 C 0.75911 0.00524 0.82187 0.0
O71 O 0.79053 0.99926 0.80723 0.0
O72 O 0.7602 0.05148 0.82317 0.0
C73 C 0.90327 0.98915 0.79052 0.0
O74 O 0.88181 0.97713 0.81238 0.0
C75 C 0.71064 0.1427 0.79315 0.0
C76 C 0.72462 0.21356 0.81588 0.0
C77 C 0.68936 0.17681 0.7985 0.0
N78 N 0.75653 0.15871 0.80645 0.0
N79 N 0.76468 0.20102 0.82012 0.0
C80 C 0.68684 0.09417 0.77628 0.0
H81 H 0.70067 0.06465 0.78158 0.0
H82 H 0.70154 0.10877 0.75758 0.0
H83 H 0.64098 0.07303 0.77627 0.0
C84 C 0.85864 0.10346 0.74204 0.0
N85 N 0.83607 0.08954 0.76432 0.0
N86 N 0.81955 0.12396 0.7711 0.0
C87 C 0.83302 0.16243 0.75345 0.0
C88 C 0.85812 0.1506 0.73432 0.0
C89 C 0.89146 0.08008 0.73099 0.0
H90 H 0.86918 0.03449 0.73337 0.0
H91 H 0.89892 0.08998 0.7114 0.0
H92 H 0.93201 0.09781 0.74038 0.0
O93 O 0.90541 0.11462 0.81154 0.0
O94 O 0.87349 0.17013 0.8222 0.0
H95 H 0.84492 0.23155 0.77493 0.0
H96 H 0.8546 0.24554 0.74256 0.0
C97 C 0.83008 0.21415 0.75655 0.0
H98 H 0.78643 0.20392 0.75491 0.0
H99 H 0.79767 0.2215 0.83219 0.0
O100 O 0.89392 0.02053 0.77707 0.0
C101 C 0.91128 0.15715 0.8228 0.0
Co102 Co 0.79897 0.85603 0.95888 0.0
Co103 Co 0.67462 0.79803 0.97233 0.0
C104 C 0.75314 0.7588 0.99078 0.0
O105 O 0.79229 0.79362 0.9776 0.0
O106 O 0.70619 0.7562 0.99055 0.0
C107 C 0.91527 0.90699 0.96161 0.0
O108 O 0.90425 0.88659 0.9837 0.0
C109 C 0.56723 0.70703 0.95828 0.0
C110 C 0.50812 0.71892 0.98027 0.0
C111 C 0.5113 0.68543 0.96255 0.0
N112 N 0.59587 0.75173 0.97245 0.0
N113 N 0.56035 0.75857 0.98566 0.0
C114 C 0.59355 0.68435 0.9418 0.0
H115 H 0.63473 0.69442 0.94896 0.0
H116 H 0.59974 0.70371 0.92365 0.0
H117 H 0.56678 0.63887 0.93971 0.0
C118 C 0.75814 0.8582 0.91055 0.0
N119 N 0.74878 0.83677 0.9331 0.0
N120 N 0.69698 0.81858 0.93902 0.0
C121 C 0.67235 0.83049 0.92064 0.0
C122 C 0.71011 0.8553 0.9018 0.0
C123 C 0.81459 0.89102 0.89973 0.0
H124 H 0.83777 0.86883 0.90261 0.0
H125 H 0.8126 0.89802 0.88003 0.0
H126 H 0.83719 0.93178 0.90895 0.0
O127 O 0.78825 0.90683 0.98043 0.0
O128 O 0.69932 0.86784 0.99072 0.0
H129 H 0.61018 0.83544 0.94151 0.0
H130 H 0.61346 0.85546 0.90996 0.0
C131 C 0.61709 0.82656 0.92264 0.0
H132 H 0.58437 0.78392 0.91802 0.0
H133 H 0.57169 0.79048 0.9982 0.0
O134 O 0.87555 0.89782 0.9475 0.0
C135 C 0.749 0.90823 0.99158 0.0
Co136 Co 0.93745 0.79763 0.12868 0.0
Co137 Co 0.88064 0.67263 0.13992 0.0
C138 C 0.99714 0.75557 0.15786 0.0
O139 O 0.99599 0.79427 0.14637 0.0
O140 O 0.95558 0.70645 0.15735 0.0
C141 C 0.01513 0.90555 0.1096 0.0
O142 O 0.0465 0.88523 0.103 0.0
C143 C 0.8671 0.56581 0.12623 0.0
C144 C 0.79501 0.5066 0.14781 0.0
C145 C 0.83286 0.50983 0.13074 0.0
N146 N 0.85003 0.59433 0.13979 0.0
N147 N 0.80702 0.55875 0.15273 0.0
C148 C 0.91673 0.59226 0.11008 0.0
H149 H 0.94463 0.63599 0.11549 0.0
H150 H 0.90335 0.59172 0.09109 0.0
H151 H 0.93921 0.56889 0.1108 0.0
C152 C 0.89543 0.75934 0.07986 0.0
N153 N 0.90925 0.74966 0.10201 0.0
N154 N 0.88033 0.69644 0.10687 0.0
C155 C 0.84537 0.67078 0.08806 0.0
C156 C 0.85445 0.70974 0.07014 0.0
C157 C 0.9125 0.81603 0.07042 0.0
H158 H 0.89794 0.83696 0.08302 0.0
H159 H 0.95823 0.84068 0.06953 0.0
H160 H 0.89544 0.81475 0.05209 0.0
O161 O 0.87493 0.78138 0.15042 0.0
O162 O 0.83254 0.69152 0.15943 0.0
H163 H 0.77978 0.60298 0.10742 0.0
H164 H 0.76558 0.60564 0.07547 0.0
C165 C 0.79796 0.61255 0.08897 0.0
H166 H 0.81317 0.58367 0.08481 0.0
H167 H 0.78558 0.57001 0.16477 0.0
O168 O 0.96851 0.87473 0.11942 0.0
C169 C 0.83665 0.73897 0.16104 0.0
Co170 Co 0.15342 0.94803 0.2907 0.0
Co171 Co 0.21101 0.882 0.30499 0.0
C172 C 0.24934 0.99945 0.32363 0.0
O173 O 0.21437 1.00303 0.31025 0.0
O174 O 0.25232 0.95526 0.32372 0.0
C175 C 0.10413 0.01493 0.29265 0.0
O176 O 0.12495 0.02519 0.31469 0.0
C177 C 0.30264 0.86561 0.2926 0.0
C178 C 0.28837 0.79359 0.31462 0.0
C179 C 0.3237 0.83103 0.29751 0.0
N180 N 0.25679 0.84918 0.30592 0.0
N181 N 0.2485 0.80618 0.31915 0.0
C182 C 0.32669 0.91498 0.27621 0.0
H183 H 0.31263 0.90136 0.25734 0.0
H184 H 0.37256 0.93627 0.27652 0.0
H185 H 0.31255 0.94409 0.28171 0.0
C186 C 0.15309 0.90601 0.24261 0.0
N187 N 0.17453 0.91843 0.26516 0.0
N188 N 0.19285 0.885 0.27132 0.0
C189 C 0.18121 0.84835 0.25303 0.0
C190 C 0.1561 0.8608 0.23406 0.0
C191 C 0.11926 0.92868 0.23189 0.0
H192 H 0.07894 0.9103 0.24142 0.0
H193 H 0.14114 0.97419 0.23447 0.0
H194 H 0.11138 0.91919 0.21228 0.0
O195 O 0.10077 0.88495 0.31111 0.0
O196 O 0.1395 0.83522 0.32205 0.0
H197 H 0.17355 0.77986 0.27386 0.0
H198 H 0.15932 0.76548 0.24173 0.0
C199 C 0.18555 0.79722 0.25531 0.0
H200 H 0.22905 0.8081 0.25229 0.0
H201 H 0.21549 0.7852 0.3311 0.0
O202 O 0.11261 0.98349 0.2789 0.0
C203 C 0.09847 0.84344 0.32194 0.0
Co204 Co 0.86555 0.79655 0.41637 0.0
Co205 Co 0.80122 0.67108 0.40607 0.0
C206 C 0.76256 0.75133 0.38894 0.0
O207 O 0.80075 0.79092 0.40078 0.0
O208 O 0.75846 0.70361 0.38893 0.0
C209 C 0.89724 0.90687 0.43274 0.0
O210 O 0.84511 0.88871 0.43799 0.0
C211 C 0.70882 0.56595 0.42181 0.0
C212 C 0.71838 0.50416 0.40067 0.0
C213 C 0.68598 0.50952 0.41824 0.0
N214 N 0.7532 0.59274 0.40737 0.0
N215 N 0.75866 0.55563 0.39468 0.0
C216 C 0.68752 0.59448 0.43774 0.0
H217 H 0.69748 0.63492 0.42972 0.0
H218 H 0.70805 0.60272 0.45571 0.0
H219 H 0.64219 0.5683 0.44041 0.0
C220 C 0.87377 0.76106 0.46539 0.0
N221 N 0.85044 0.74992 0.44319 0.0
N222 N 0.82773 0.69671 0.43868 0.0
C223 C 0.83813 0.67256 0.45776 0.0
C224 C 0.86685 0.71245 0.4755 0.0
C225 C 0.91031 0.81847 0.47486 0.0
H226 H 0.94735 0.84021 0.46312 0.0
H227 H 0.8877 0.84164 0.4742 0.0
H228 H 0.92392 0.81834 0.49377 0.0
O229 O 0.90884 0.78115 0.39248 0.0
O230 O 0.86685 0.69043 0.3854 0.0
H231 H 0.83284 0.60266 0.439 0.0
H232 H 0.85656 0.61007 0.47017 0.0
C233 C 0.82797 0.61461 0.45762 0.0
H234 H 0.78509 0.58602 0.46368 0.0
H235 H 0.79001 0.56539 0.38207 0.0
O236 O 0.91244 0.87397 0.42479 0.0
C237 C 0.9069 0.73951 0.38211 0.0
Co238 Co 0.06386 0.8576 0.58969 0.0
Co239 Co 0.12949 0.79991 0.57547 0.0
C240 C 0.01176 0.76102 0.55726 0.0
O241 O 0.0084 0.79623 0.5705 0.0
O242 O 0.05582 0.75789 0.55725 0.0
C243 C 0.98931 0.90019 0.59179 0.0
O244 O 0.96738 0.87152 0.57191 0.0
C245 C 0.14621 0.7085 0.58778 0.0
C246 C 0.21878 0.72356 0.56614 0.0
C247 C 0.18108 0.68777 0.58306 0.0
N248 N 0.16272 0.75458 0.57455 0.0
N249 N 0.20605 0.76337 0.56155 0.0
C250 C 0.09666 0.68416 0.60399 0.0
H251 H 0.06734 0.69787 0.59821 0.0
H252 H 0.10997 0.69859 0.62285 0.0
H253 H 0.07577 0.63827 0.60384 0.0
C254 C 0.10822 0.86022 0.63755 0.0
N255 N 0.0948 0.83772 0.61521 0.0
N256 N 0.12792 0.81915 0.60907 0.0
C257 C 0.16523 0.83144 0.62717 0.0
C258 C 0.15375 0.85762 0.64597 0.0
C259 C 0.08632 0.8948 0.64812 0.0
H260 H 0.10513 0.93508 0.63847 0.0
H261 H 0.04081 0.87351 0.64568 0.0
H262 H 0.09621 0.90281 0.66771 0.0
O263 O 0.12549 0.91001 0.56857 0.0
O264 O 0.17439 0.87051 0.55749 0.0
H265 H 0.23398 0.84017 0.60641 0.0
H266 H 0.24744 0.85161 0.63875 0.0
C267 C 0.21606 0.82673 0.62479 0.0
H268 H 0.20467 0.78283 0.62709 0.0
H269 H 0.22716 0.79668 0.54972 0.0
O270 O 0.02906 0.89817 0.60199 0.0
C271 C 0.16598 0.91143 0.55728 0.0
Co272 Co 0.21589 0.075 0.75141 0.0
Co273 Co 0.34146 0.13381 0.74115 0.0
C274 C 0.25937 0.0176 0.72201 0.0
O275 O 0.22002 0.01673 0.73374 0.0
O276 O 0.30802 0.05982 0.72301 0.0
C277 C 0.10603 0.9966 0.76843 0.0
O278 O 0.1248 0.96343 0.77435 0.0
C279 C 0.44684 0.14575 0.75641 0.0
C280 C 0.50816 0.21801 0.73549 0.0
C281 C 0.50318 0.1797 0.75278 0.0
N282 N 0.41976 0.16368 0.74228 0.0
N283 N 0.45662 0.20678 0.72972 0.0
C284 C 0.41873 0.09542 0.77217 0.0
H285 H 0.41161 0.10735 0.7904 0.0
H286 H 0.44471 0.07592 0.77425 0.0
H287 H 0.37784 0.06531 0.76438 0.0
C288 C 0.25223 0.11585 0.8006 0.0
N289 N 0.26283 0.10297 0.77846 0.0
N290 N 0.31608 0.13277 0.77395 0.0
C291 C 0.34079 0.16739 0.79295 0.0
C292 C 0.30123 0.15718 0.81065 0.0
C293 C 0.19514 0.0974 0.80972 0.0
H294 H 0.17487 0.1137 0.79759 0.0
H295 H 0.17043 0.05158 0.8094 0.0
H296 H 0.1956 0.11201 0.82846 0.0
O297 O 0.23294 0.13782 0.72952 0.0
O298 O 0.32325 0.18251 0.72151 0.0
H299 H 0.40883 0.23361 0.77395 0.0
H300 H 0.40455 0.2477 0.80575 0.0
C301 C 0.39867 0.21544 0.79242 0.0
H302 H 0.42778 0.20083 0.7971 0.0
H303 H 0.44663 0.22878 0.71736 0.0
O304 O 0.13838 0.04435 0.75986 0.0
C305 C 0.27532 0.17704 0.71928 0.0
Co306 Co 0.15402 0.21131 0.91958 0.0
Co307 Co 0.20915 0.33533 0.90709 0.0
C308 C 0.25251 0.25768 0.89051 0.0
O309 O 0.22076 0.2193 0.90484 0.0
O310 O 0.25093 0.30263 0.88946 0.0
C311 C 0.11953 0.10158 0.93985 0.0
O312 O 0.16876 0.12051 0.94953 0.0
C313 C 0.30141 0.44268 0.92076 0.0
C314 C 0.28884 0.50169 0.89885 0.0
C315 C 0.32335 0.49866 0.91617 0.0
N316 N 0.25589 0.414 0.90705 0.0
N317 N 0.2486 0.44947 0.89391 0.0
C318 C 0.32435 0.41631 0.93716 0.0
H319 H 0.30922 0.37284 0.93158 0.0
H320 H 0.31042 0.41608 0.95599 0.0
H321 H 0.37026 0.44015 0.93696 0.0
C322 C 0.14193 0.24947 0.96763 0.0
N323 N 0.1657 0.25952 0.94556 0.0
N324 N 0.18614 0.31202 0.94007 0.0
C325 C 0.17451 0.33683 0.95839 0.0
C326 C 0.14667 0.29813 0.97662 0.0
C327 C 0.10615 0.19252 0.97772 0.0
H328 H 0.07148 0.16802 0.96502 0.0
H329 H 0.13088 0.17171 0.97953 0.0
H330 H 0.08888 0.19328 0.99571 0.0
O331 O 0.11033 0.22262 0.89426 0.0
O332 O 0.14102 0.31197 0.88749 0.0
H333 H 0.17193 0.4015 0.93841 0.0
H334 H 0.15727 0.40042 0.97054 0.0
C335 C 0.18258 0.39396 0.95689 0.0
H336 H 0.22666 0.4246 0.96035 0.0
H337 H 0.21607 0.4381 0.88169 0.0
O338 O 0.10762 0.13369 0.92844 0.0
C339 C 0.10625 0.261 0.88369 0.0
Co340 Co 0.94327 0.14875 0.08572 0.0
Co341 Co 0.87793 0.20808 0.07389 0.0
C342 C 0.99605 0.24821 0.0557 0.0
O343 O 1.00026 0.21299 0.06864 0.0
O344 O 0.95149 0.25041 0.05582 0.0
C345 C 0.011 0.1 0.08317 0.0
O346 O 0.02389 0.12326 0.06164 0.0
C347 C 0.86358 0.29967 0.08828 0.0
C348 C 0.79183 0.28835 0.06682 0.0
C349 C 0.82971 0.32185 0.08423 0.0
N350 N 0.84615 0.25464 0.07426 0.0
N351 N 0.80336 0.2481 0.06135 0.0
C352 C 0.91331 0.32198 0.10445 0.0
H353 H 0.94378 0.31147 0.097 0.0
H354 H 0.90072 0.30267 0.12263 0.0
H355 H 0.93261 0.36751 0.10654 0.0
C356 C 0.89879 0.14142 0.13413 0.0
N357 N 0.91156 0.16512 0.11202 0.0
N358 N 0.87926 0.18533 0.10685 0.0
C359 C 0.84303 0.17291 0.12534 0.0
C360 C 0.85465 0.14518 0.14342 0.0
C361 C 0.92046 0.10578 0.14379 0.0
H362 H 0.90205 0.06662 0.13329 0.0
H363 H 0.96601 0.12735 0.14155 0.0
H364 H 0.91012 0.09568 0.16323 0.0
O365 O 0.88325 0.10053 0.06275 0.0
O366 O 0.83227 0.1398 0.05477 0.0
H367 H 0.77484 0.16859 0.10548 0.0
H368 H 0.76148 0.15305 0.13759 0.0
C369 C 0.79299 0.17926 0.12396 0.0
H370 H 0.80539 0.22299 0.12755 0.0
H371 H 0.78185 0.21608 0.04894 0.0
O372 O 0.97774 0.10663 0.09647 0.0
C373 C 0.84224 0.1002 0.05238 0.0
Co374 Co 0.79616 0.93546 0.25262 0.0
Co375 Co 0.67101 0.87394 0.2409 0.0
C376 C 0.75227 0.99003 0.22149 0.0
O377 O 0.79148 0.99234 0.23399 0.0
O378 O 0.70407 0.94716 0.22229 0.0
C379 C 0.9053 0.01447 0.27098 0.0
O380 O 0.8856 0.046 0.27818 0.0
C381 C 0.56544 0.86142 0.25561 0.0
C382 C 0.5043 0.7901 0.23411 0.0
C383 C 0.50917 0.82789 0.25162 0.0
N384 N 0.59263 0.84379 0.24147 0.0
N385 N 0.55589 0.80125 0.22856 0.0
C386 C 0.59343 0.91114 0.27173 0.0
H387 H 0.63467 0.94126 0.26431 0.0
H388 H 0.59974 0.89838 0.28996 0.0
H389 H 0.56773 0.93094 0.27372 0.0
C390 C 0.75829 0.89465 0.30155 0.0
N391 N 0.74824 0.90737 0.27923 0.0
N392 N 0.69544 0.87604 0.27403 0.0
C393 C 0.6706 0.84058 0.29273 0.0
C394 C 0.70943 0.85183 0.31097 0.0
C395 C 0.81522 0.91452 0.31137 0.0
H396 H 0.83859 0.96037 0.31147 0.0
H397 H 0.81436 0.89939 0.33007 0.0
H398 H 0.8372 0.89987 0.29945 0.0
O399 O 0.78055 0.87197 0.23156 0.0
O400 O 0.69086 0.8254 0.22221 0.0
H401 H 0.60471 0.77419 0.27274 0.0
H402 H 0.60875 0.75839 0.30435 0.0
C403 C 0.61368 0.79108 0.29145 0.0
H404 H 0.5831 0.80368 0.29625 0.0
H405 H 0.56597 0.77959 0.2161 0.0
O406 O 0.87374 0.96749 0.26154 0.0
C407 C 0.73937 0.83192 0.22098 0.0
C408 C 0.03389 0.03674 0.42759 0.0
C409 C 0.03848 0.06291 0.44994 0.0
C410 C 0.98574 0.98822 0.42134 0.0
C411 C 0.94019 0.96445 0.43705 0.0
H412 H 0.06889 0.05176 0.41543 0.0
H413 H 0.98535 0.96745 0.40468 0.0
S414 S 0.92665 0.0226 0.49521 0.0
N415 N 0.9903 0.0662 0.48612 0.0
N416 N 0.89895 0.97437 0.47404 0.0
C417 C 0.94168 0.99316 0.45814 0.0
C418 C 0.99117 0.04274 0.46468 0.0
C419 C 1.00385 0.97421 0.62061 0.0
C420 C 0.97681 0.94316 0.59981 0.0
C421 C 0.00542 0.02378 0.62559 0.0
C422 C 0.97922 0.04376 0.61026 0.0
H423 H 0.02716 0.9622 0.63237 0.0
H424 H 0.0298 0.0481 0.64093 0.0
S425 S 0.89202 0.97226 0.55686 0.0
N426 N 0.91534 0.93134 0.56604 0.0
N427 N 0.91794 0.02515 0.57585 0.0
C428 C 0.94673 0.01042 0.59103 0.0
C429 C 0.94553 0.95979 0.58572 0.0
C430 C 0.97307 0.99665 0.76074 0.0
C431 C 0.94711 0.97717 0.78333 0.0
C432 C 0.02293 0.99905 0.75548 0.0
C433 C 0.04818 0.98107 0.77237 0.0
H434 H 0.95681 0.01361 0.74754 0.0
H435 H 0.0433 0.01772 0.73851 0.0
S436 S 0.99236 0.9165 0.83205 0.0
N437 N 0.94661 0.93218 0.82136 0.0
N438 N 0.04069 0.9362 0.81105 0.0
C439 C 0.02021 0.95618 0.79393 0.0
C440 C 0.96942 0.95427 0.79951 0.0
C441 C 0.0133 0.97461 0.97277 0.0
C442 C 0.97245 0.94835 0.95471 0.0
C443 C 0.06392 0.02219 0.96748 0.0
C444 C 0.07484 0.04468 0.94402 0.0
H445 H 1.00478 0.96067 0.99142 0.0
H446 H 0.09263 0.04375 0.98215 0.0
S447 S 0.98705 0.98552 0.8894 0.0
N448 N 0.95066 0.94349 0.91167 0.0
N449 N 0.04518 0.03338 0.90196 0.0
C450 C 0.03675 0.01601 0.92543 0.0
C451 C 0.98564 0.96758 0.93071 0.0
C452 C 0.01669 0.9913 0.12108 0.0
C453 C 0.02994 0.96259 0.10402 0.0
C454 C 0.01556 0.03893 0.11458 0.0
C455 C 0.02681 0.05905 0.09065 0.0
H456 H 1.00388 0.97495 0.13924 0.0
H457 H 1.00227 0.05794 0.12808 0.0
S458 S 0.07223 1.00307 0.04027 0.0
N459 N 0.06144 0.96075 0.06322 0.0
N460 N 0.05888 0.05063 0.05064 0.0
C461 C 0.04529 0.03363 0.07399 0.0
C462 C 0.04689 0.98511 0.08077 0.0
C463 C 0.03465 0.04254 0.30374 0.0
C464 C 0.06204 0.02961 0.28569 0.0
C465 C 0.98573 0.0429 0.29844 0.0
C466 C 0.96312 0.0303 0.27501 0.0
H467 H 0.04863 0.04835 0.32241 0.0
H468 H 0.96327 0.04855 0.31311 0.0
S469 S 0.0249 0.00611 0.22037 0.0
N470 N 0.06784 0.01385 0.24263 0.0
N471 N 0.97526 0.0132 0.23296 0.0
C472 C 0.99283 0.02284 0.25641 0.0
C473 C 0.04265 0.02295 0.26168 0.0
C474 C 0.59469 0.42203 0.41696 0.0
C475 C 0.63809 0.46358 0.43066 0.0
C476 C 0.54918 0.37756 0.42832 0.0
C477 C 0.54608 0.37264 0.45375 0.0
H478 H 0.59581 0.42409 0.39733 0.0
H479 H 0.51689 0.34616 0.41708 0.0
S480 S 0.65066 0.4689 0.49769 0.0
N481 N 0.6762 0.49607 0.47089 0.0
N482 N 0.59095 0.41223 0.49224 0.0
C483 C 0.5897 0.41342 0.46761 0.0
C484 C 0.63561 0.45906 0.45606 0.0
C485 C 0.1769 0.58734 0.63076 0.0
C486 C 0.18138 0.54766 0.61685 0.0
C487 C 0.17607 0.6322 0.61967 0.0
C488 C 0.18066 0.63938 0.59434 0.0
H489 H 0.17365 0.58345 0.65032 0.0
H490 H 0.173 0.66208 0.63108 0.0
S491 S 0.19692 0.54878 0.55007 0.0
N492 N 0.19268 0.51945 0.57662 0.0
N493 N 0.19177 0.60409 0.55579 0.0
C494 C 0.18636 0.60059 0.58032 0.0
C495 C 0.18639 0.55452 0.59157 0.0
C496 C 0.59038 0.17582 0.75087 0.0
C497 C 0.5494 0.17766 0.76488 0.0
C498 C 0.63517 0.17478 0.7619 0.0
C499 C 0.64104 0.17661 0.7873 0.0
H500 H 0.58761 0.17488 0.73126 0.0
H501 H 0.66603 0.17374 0.75042 0.0
S502 S 0.54668 0.18509 0.83196 0.0
N503 N 0.51849 0.18334 0.80536 0.0
N504 N 0.60305 0.18208 0.82608 0.0
C505 C 0.60091 0.17956 0.80146 0.0
C506 C 0.55489 0.17976 0.79025 0.0
C507 C 0.37859 0.54866 0.95301 0.0
C508 C 0.37205 0.54608 0.92763 0.0
C509 C 0.42362 0.59413 0.96421 0.0
C510 C 0.46412 0.63801 0.95039 0.0
H511 H 0.34809 0.51593 0.96434 0.0
H512 H 0.42704 0.59477 0.98381 0.0
S513 S 0.46503 0.65216 0.88349 0.0
N514 N 0.40896 0.59211 0.88912 0.0
N515 N 0.4938 0.67716 0.91015 0.0
C516 C 0.45789 0.6361 0.92506 0.0
C517 C 0.41171 0.59028 0.91369 0.0
C518 C 0.83545 0.41395 0.08261 0.0
C519 C 0.83138 0.36973 0.09641 0.0
C520 C 0.8371 0.45983 0.09387 0.0
C521 C 0.83372 0.46243 0.11925 0.0
H522 H 0.83773 0.4132 0.06301 0.0
H523 H 0.83965 0.49277 0.08257 0.0
S524 S 0.81952 0.35571 0.16331 0.0
N525 N 0.82216 0.33039 0.13662 0.0
N526 N 0.8246 0.41624 0.15775 0.0
C527 C 0.82867 0.41798 0.13317 0.0
C528 C 0.82779 0.37174 0.12175 0.0
C529 C 0.37813 0.8345 0.26085 0.0
C530 C 0.37194 0.83141 0.28623 0.0
C531 C 0.42264 0.83319 0.24977 0.0
C532 C 0.46299 0.82981 0.26372 0.0
H533 H 0.34771 0.83668 0.24942 0.0
H534 H 0.4257 0.83517 0.23017 0.0
S535 S 0.4647 0.81878 0.3307 0.0
N536 N 0.40899 0.82316 0.32491 0.0
N537 N 0.49298 0.82142 0.3041 0.0
C538 C 0.45718 0.82647 0.28907 0.0
C539 C 0.41146 0.82695 0.30032 0.0
C540 C 0.2892 0.03052 0.36557 0.0
C541 C 0.2787 0.04381 0.3422 0.0
C542 C 0.30126 0.06712 0.38526 0.0
C543 C 0.30388 0.11847 0.3822 0.0
H544 H 0.28357 0.98985 0.36914 0.0
H545 H 0.30461 0.0535 0.40328 0.0
S546 S 0.28826 0.17673 0.32437 0.0
N547 N 0.27858 0.11524 0.31687 0.0
N548 N 0.30092 0.18315 0.35381 0.0
C549 C 0.29815 0.1341 0.3587 0.0
C550 C 0.2858 0.09709 0.33872 0.0
C551 C 0.26421 0.29039 0.53174 0.0
C552 C 0.24014 0.27839 0.50841 0.0
C553 C 0.23903 0.30196 0.55124 0.0
C554 C 0.18934 0.30258 0.54802 0.0
H555 H 0.3 0.28617 0.53547 0.0
H556 H 0.25638 0.30656 0.56926 0.0
S557 S 0.11403 0.28225 0.49018 0.0
N558 N 0.16707 0.27454 0.4829 0.0
N559 N 0.12026 0.29602 0.51952 0.0
C560 C 0.16751 0.29528 0.52454 0.0
C561 C 0.19288 0.28345 0.50473 0.0
C562 C 0.88127 0.17021 0.69033 0.0
C563 C 0.89356 0.18787 0.71454 0.0
C564 C 0.92042 0.19661 0.67183 0.0
C565 C 0.9735 0.24193 0.67676 0.0
H566 H 0.84244 0.13339 0.68592 0.0
H567 H 0.91026 0.17909 0.65375 0.0
S568 S 0.02453 0.30651 0.7371 0.0
N569 N 0.96116 0.25525 0.74237 0.0
N570 N 0.03444 0.30555 0.70761 0.0
C571 C 0.98472 0.26252 0.70065 0.0
C572 C 0.9449 0.23523 0.71955 0.0
C573 C 0.72317 0.97565 0.86435 0.0
C574 C 0.73052 0.96134 0.84068 0.0
C575 C 0.71205 0.9392 0.88402 0.0
C576 C 0.70733 0.88702 0.88067 0.0
H577 H 0.73042 0.01684 0.86809 0.0
H578 H 0.71085 0.95338 0.90217 0.0
S579 S 0.71453 0.82607 0.82219 0.0
N580 N 0.72544 0.88815 0.8149 0.0
N581 N 0.70503 0.82059 0.85184 0.0
C582 C 0.7101 0.87051 0.85698 0.0
C583 C 0.72137 0.90733 0.837 0.0
C584 C 0.81434 0.72375 1.0062 0.0
C585 C 0.76744 0.72953 1.00965 0.0
C586 C 0.83948 0.71207 0.02565 0.0
C587 C 0.81857 0.70527 0.04929 0.0
H588 H 0.83416 0.73211 0.98862 0.0
H589 H 0.87776 0.71214 1.02245 0.0
S590 S 0.69454 0.71131 0.06812 0.0
N591 N 0.69884 0.72309 0.0386 0.0
N592 N 0.74648 0.7014 0.07503 0.0
C593 C 0.76959 0.70683 0.05281 0.0
C594 C 0.74377 0.71864 0.033 0.0
C595 C 0.03382 0.74952 0.19878 0.0
C596 C 0.04391 0.77184 0.17516 0.0
C597 C 0.07259 0.77598 0.21761 0.0
C598 C 0.12299 0.82516 0.21338 0.0
H599 H 0.99391 0.71428 0.20326 0.0
H600 H 0.06134 0.76012 0.23591 0.0
S601 S 0.173 0.89553 0.15423 0.0
N602 N 0.11104 0.84251 0.14821 0.0
N603 N 0.18341 0.89142 0.18348 0.0
C604 C 0.13548 0.84497 0.18953 0.0
C605 C 0.09614 0.81846 0.17045 0.0
C606 C 0.98157 0.72041 0.51543 0.0
C607 C 0.96793 0.73231 0.5384 0.0
C608 C 0.94632 0.70924 0.49527 0.0
C609 C 0.89604 0.70903 0.49745 0.0
H610 H 0.02163 0.72418 0.5125 0.0
H611 H 0.96023 0.70455 0.47758 0.0
S612 S 0.83697 0.72902 0.55394 0.0
N613 N 0.89692 0.73616 0.56243 0.0
N614 N 0.83171 0.71583 0.52456 0.0
C615 C 0.8799 0.71629 0.52055 0.0
C616 C 0.91547 0.72756 0.54103 0.0
C617 C 0.17266 0.88029 0.69007 0.0
C618 C 0.19077 0.89268 0.66594 0.0
C619 C 0.1988 0.91937 0.70869 0.0
C620 C 0.24429 0.97244 0.70395 0.0
H621 H 0.13569 0.84149 0.69432 0.0
H622 H 0.18098 0.9092 0.7267 0.0
S623 S 0.30929 0.02405 0.64379 0.0
N624 N 0.25831 0.96056 0.63835 0.0
N625 N 0.30805 0.03372 0.67329 0.0
C626 C 0.26513 0.98383 0.68011 0.0
C627 C 0.23813 0.94409 0.66111 0.0
C628 C 0.28709 0.19626 0.8748 0.0
C629 C 0.28148 0.24341 0.87151 0.0
C630 C 0.2982 0.17109 0.85524 0.0
C631 C 0.30481 0.19231 0.83163 0.0
H632 H 0.27903 0.17623 0.89236 0.0
H633 H 0.29812 0.13273 0.85835 0.0
S634 S 0.30022 0.31759 0.8132 0.0
N635 N 0.28852 0.31284 0.84271 0.0
N636 N 0.30929 0.26523 0.80612 0.0
C637 C 0.30361 0.24159 0.82827 0.0
C638 C 0.29227 0.26737 0.84818 0.0
C639 C 0.09229 0.28322 0.0405 0.0
C640 C 0.03976 0.2779 0.03701 0.0
C641 C 0.12892 0.2946 1.02109 0.0
C642 C 0.11477 0.30155 0.99743 0.0
H643 H 0.1037 0.27464 0.05809 0.0
H644 H 0.16704 0.29433 0.02434 0.0
S645 S 0.98538 0.29739 0.97857 0.0
N646 N 0.97794 0.2854 1.00806 0.0
N647 N 0.04688 0.30649 0.97167 0.0
C648 C 0.06449 0.30062 0.99389 0.0
C649 C 0.02707 0.28913 1.01368 0.0
C650 C 0.81389 0.08696 0.20685 0.0
C651 C 0.76722 0.03418 0.20289 0.0
C652 C 0.83933 0.12473 0.18775 0.0
C653 C 0.81915 0.11139 0.16392 0.0
H654 H 0.8331 0.09789 0.22461 0.0
H655 H 0.87714 0.16328 0.19139 0.0
S656 S 0.6966 0.98075 0.14374 0.0
N657 N 0.70003 0.97236 0.17324 0.0
N658 N 0.74834 0.04327 0.13742 0.0
C659 C 0.77065 0.06044 0.15986 0.0
C660 C 0.74444 0.02194 0.17934 0.0
C661 C 0.71938 0.74236 0.3479 0.0
C662 C 0.73125 0.76585 0.37131 0.0
C663 C 0.70725 0.76774 0.32858 0.0
C664 C 0.70596 0.81702 0.33209 0.0
H665 H 0.72437 0.70712 0.34394 0.0
H666 H 0.70297 0.75106 0.31046 0.0
S667 S 0.72526 0.89031 0.39034 0.0
N668 N 0.73391 0.83757 0.39727 0.0
N669 N 0.71143 0.8848 0.36099 0.0
C670 C 0.71286 0.83802 0.35569 0.0
C671 C 0.72523 0.81245 0.37531 0.0
C672 C 0.23576 1.00305 0.50308 0.0
C673 C 0.25076 0.05583 0.5121 0.0
C674 C 0.2123 0.95647 0.51836 0.0
C675 C 0.20169 0.96132 0.54288 0.0
H676 H 0.23987 0.99741 0.48391 0.0
H677 H 0.19889 0.91607 0.51057 0.0
S678 S 0.23678 0.09112 0.5754 0.0
N679 N 0.25697 0.11098 0.5472 0.0
N680 N 0.21135 0.02344 0.5758 0.0
C681 C 0.21886 0.01433 0.55226 0.0
C682 C 0.24375 0.06168 0.53686 0.0
C683 C 0.2233 0.27103 0.69827 0.0
C684 C 0.21641 0.25976 0.67328 0.0
C685 C 0.24714 0.24761 0.71311 0.0
C686 C 0.26616 0.21374 0.70324 0.0
H687 H 0.20609 0.29413 0.70665 0.0
H688 H 0.24769 0.25326 0.73257 0.0
S689 S 0.26286 0.1768 0.63859 0.0
N690 N 0.23401 0.21596 0.63908 0.0
N691 N 0.28042 0.17359 0.66693 0.0
C692 C 0.26344 0.20586 0.67809 0.0
C693 C 0.23814 0.22856 0.66308 0.0
C694 C 1.00508 0.17624 0.83503 0.0
C695 C 0.96339 0.19047 0.83676 0.0
C696 C 0.05255 0.20196 0.84939 0.0
C697 C 0.06112 0.24368 0.86591 0.0
H698 H 1.00055 0.14359 0.82299 0.0
H699 H 0.08217 0.18779 0.84809 0.0
S700 S 0.96791 0.29995 0.87654 0.0
N701 N 0.93581 0.25181 0.85561 0.0
N702 N 0.02623 0.30065 0.88256 0.0
C703 C 0.02175 0.26079 0.8671 0.0
C704 C 0.97261 0.23406 0.85253 0.0
C705 C 0.82634 0.05734 1.01188 0.0
C706 C 0.80871 0.0541 0.0359 0.0
C707 C 0.80414 0.01013 0.99718 0.0
C708 C 0.7633 0.95819 1.00599 0.0
H709 H 0.85976 0.09594 1.00485 0.0
H710 H 0.8207 0.01387 0.97908 0.0
S711 S 0.70181 0.92901 0.06751 0.0
N712 N 0.74725 0.99604 0.0678 0.0
N713 N 0.70436 0.90704 0.03997 0.0
C714 C 0.74317 0.95512 0.02962 0.0
C715 C 0.76638 1.00321 0.04469 0.0
C716 C 0.80718 0.75095 0.20175 0.0
C717 C 0.79889 0.7473 0.17657 0.0
C718 C 0.78371 0.77465 0.21644 0.0
C719 C 0.75045 0.79439 0.20644 0.0
H720 H 0.83544 0.73955 0.20986 0.0
H721 H 0.79426 0.78052 0.23556 0.0
S722 S 0.71221 0.7891 0.14175 0.0
N723 N 0.75267 0.7617 0.14236 0.0
N724 N 0.70693 0.80466 0.17017 0.0
C725 C 0.73837 0.7869 0.18156 0.0
C726 C 0.7632 0.76382 0.16653 0.0
C727 C 1.00153 0.75762 0.37255 0.0
C728 C 0.95071 0.75091 0.36455 0.0
C729 C 0.04894 0.78401 0.35787 0.0
C730 C 0.04695 0.80562 0.33505 0.0
H731 H 0.0054 0.7455 0.39081 0.0
H732 H 0.088 0.79103 0.36512 0.0
S733 S 0.92206 0.7933 0.30514 0.0
N734 N 0.89992 0.76346 0.33184 0.0
N735 N 0.98861 0.81346 0.30428 0.0
C736 C 0.99542 0.79593 0.32636 0.0
C737 C 0.94735 0.76856 0.34115 0.0
loop_
_geom_bond_atom_site_label_1
_geom_bond_atom_site_label_2
_geom_bond_distance
_geom_bond_site_symmetry_2
_ccdc_geom_bond_type
Co0 O3 1.970 . S
Co0 N17 1.989 . S
Co0 O25 1.967 . S
Co0 O32 1.920 . S
Co1 O4 1.966 . S
Co1 N10 2.022 . S
Co1 N18 1.993 . S
Co1 O26 1.941 . S
C2 O3 1.258 . S
C2 O4 1.263 . S
O3 Co0 1.970 . S
O3 C2 1.258 . S
O4 Co1 1.966 . S
O4 C2 1.263 . S
C5 O6 1.235 . S
C5 O32 1.289 . S
O6 C5 1.235 . S
C7 C9 1.400 . S
C7 N10 1.351 . S
C7 C12 1.501 . S
C8 C9 1.387 . S
C8 N11 1.341 . S
C9 C7 1.400 . S
C9 C8 1.387 . S
N10 Co1 2.022 . S
N10 C7 1.351 . S
N10 N11 1.365 . S
N11 C8 1.341 . S
N11 N10 1.365 . S
N11 H31 0.862 . S
C12 C7 1.501 . S
C12 H13 0.961 . S
C12 H14 0.961 . S
C12 H15 0.960 . S
H13 C12 0.961 . S
H14 C12 0.961 . S
H15 C12 0.960 . S
C16 N17 1.342 . S
C16 C20 1.401 . S
C16 C21 1.499 . S
N17 Co0 1.989 . S
N17 C16 1.342 . S
N17 N18 1.388 . S
N18 Co1 1.993 . S
N18 N17 1.388 . S
N18 C19 1.346 . S
C19 N18 1.346 . S
C19 C20 1.396 . S
C19 C29 1.510 . S
C20 C16 1.401 . S
C20 C19 1.396 . S
C21 C16 1.499 . S
C21 H22 0.959 . S
C21 H23 0.960 . S
C21 H24 0.961 . S
H22 C21 0.959 . S
H23 C21 0.960 . S
H24 C21 0.961 . S
O25 Co0 1.967 . S
O25 C33 1.258 . S
O26 Co1 1.941 . S
O26 C33 1.266 . S
H27 C29 0.959 . S
H28 C29 0.961 . S
C29 C19 1.510 . S
C29 H27 0.959 . S
C29 H28 0.961 . S
C29 H30 0.960 . S
H30 C29 0.960 . S
H31 N11 0.862 . S
O32 Co0 1.920 . S
O32 C5 1.289 . S
C33 O25 1.258 . S
C33 O26 1.266 . S
Co34 O37 1.970 . S
Co34 N51 1.989 . S
Co34 O59 1.967 . S
Co34 O66 1.920 . S
Co35 O38 1.966 . S
Co35 N44 2.022 . S
Co35 N52 1.993 . S
Co35 O60 1.941 . S
C36 O37 1.258 . S
C36 O38 1.263 . S
O37 Co34 1.970 . S
O37 C36 1.258 . S
O38 Co35 1.966 . S
O38 C36 1.263 . S
C39 O40 1.235 . S
C39 O66 1.289 . S
O40 C39 1.235 . S
C41 C43 1.400 . S
C41 N44 1.351 . S
C41 C46 1.501 . S
C42 C43 1.387 . S
C42 N45 1.341 . S
C43 C41 1.400 . S
C43 C42 1.387 . S
N44 Co35 2.022 . S
N44 C41 1.351 . S
N44 N45 1.365 . S
N45 C42 1.341 . S
N45 N44 1.365 . S
N45 H65 0.862 . S
C46 C41 1.501 . S
C46 H47 0.961 . S
C46 H48 0.961 . S
C46 H49 0.960 . S
H47 C46 0.961 . S
H48 C46 0.961 . S
H49 C46 0.960 . S
C50 N51 1.342 . S
C50 C54 1.401 . S
C50 C55 1.499 . S
N51 Co34 1.989 . S
N51 C50 1.342 . S
N51 N52 1.388 . S
N52 Co35 1.993 . S
N52 N51 1.388 . S
N52 C53 1.346 . S
C53 N52 1.346 . S
C53 C54 1.396 . S
C53 C63 1.510 . S
C54 C50 1.401 . S
C54 C53 1.396 . S
C55 C50 1.499 . S
C55 H56 0.959 . S
C55 H57 0.960 . S
C55 H58 0.961 . S
H56 C55 0.959 . S
H57 C55 0.960 . S
H58 C55 0.961 . S
O59 Co34 1.967 . S
O59 C67 1.258 . S
O60 Co35 1.941 . S
O60 C67 1.266 . S
H61 C63 0.959 . S
H62 C63 0.961 . S
C63 C53 1.510 . S
C63 H61 0.959 . S
C63 H62 0.961 . S
C63 H64 0.960 . S
H64 C63 0.960 . S
H65 N45 0.862 . S
O66 Co34 1.920 . S
O66 C39 1.289 . S
C67 O59 1.258 . S
C67 O60 1.266 . S
Co68 O71 1.970 . S
Co68 N85 1.989 . S
Co68 O93 1.967 . S
Co68 O100 1.920 . S
Co69 O72 1.966 . S
Co69 N78 2.022 . S
Co69 N86 1.993 . S
Co69 O94 1.941 . S
C70 O71 1.258 . S
C70 O72 1.263 . S
O71 Co68 1.970 . S
O71 C70 1.258 . S
O72 Co69 1.966 . S
O72 C70 1.263 . S
C73 O74 1.235 . S
C73 O100 1.289 . S
O74 C73 1.235 . S
C75 C77 1.400 . S
C75 N78 1.351 . S
C75 C80 1.501 . S
C76 C77 1.387 . S
C76 N79 1.341 . S
C77 C75 1.400 . S
C77 C76 1.387 . S
N78 Co69 2.022 . S
N78 C75 1.351 . S
N78 N79 1.365 . S
N79 C76 1.341 . S
N79 N78 1.365 . S
N79 H99 0.862 . S
C80 C75 1.501 . S
C80 H81 0.961 . S
C80 H82 0.961 . S
C80 H83 0.960 . S
H81 C80 0.961 . S
H82 C80 0.961 . S
H83 C80 0.960 . S
C84 N85 1.342 . S
C84 C88 1.401 . S
C84 C89 1.499 . S
N85 Co68 1.989 . S
N85 C84 1.342 . S
N85 N86 1.388 . S
N86 Co69 1.993 . S
N86 N85 1.388 . S
N86 C87 1.346 . S
C87 N86 1.346 . S
C87 C88 1.396 . S
C87 C97 1.510 . S
C88 C84 1.401 . S
C88 C87 1.396 . S
C89 C84 1.499 . S
C89 H90 0.959 . S
C89 H91 0.960 . S
C89 H92 0.961 . S
H90 C89 0.959 . S
H91 C89 0.960 . S
H92 C89 0.961 . S
O93 Co68 1.967 . S
O93 C101 1.258 . S
O94 Co69 1.941 . S
O94 C101 1.266 . S
H95 C97 0.959 . S
H96 C97 0.961 . S
C97 C87 1.510 . S
C97 H95 0.959 . S
C97 H96 0.961 . S
C97 H98 0.960 . S
H98 C97 0.960 . S
H99 N79 0.862 . S
O100 Co68 1.920 . S
O100 C73 1.289 . S
C101 O93 1.258 . S
C101 O94 1.266 . S
Co102 O105 1.970 . S
Co102 N119 1.989 . S
Co102 O127 1.967 . S
Co102 O134 1.920 . S
Co103 O106 1.966 . S
Co103 N112 2.022 . S
Co103 N120 1.993 . S
Co103 O128 1.941 . S
C104 O105 1.258 . S
C104 O106 1.263 . S
O105 Co102 1.970 . S
O105 C104 1.258 . S
O106 Co103 1.966 . S
O106 C104 1.263 . S
C107 O108 1.235 . S
C107 O134 1.289 . S
O108 C107 1.235 . S
C109 C111 1.400 . S
C109 N112 1.351 . S
C109 C114 1.501 . S
C110 C111 1.387 . S
C110 N113 1.341 . S
C111 C109 1.400 . S
C111 C110 1.387 . S
N112 Co103 2.022 . S
N112 C109 1.351 . S
N112 N113 1.365 . S
N113 C110 1.341 . S
N113 N112 1.365 . S
N113 H133 0.862 . S
C114 C109 1.501 . S
C114 H115 0.961 . S
C114 H116 0.961 . S
C114 H117 0.960 . S
H115 C114 0.961 . S
H116 C114 0.961 . S
H117 C114 0.960 . S
C118 N119 1.342 . S
C118 C122 1.401 . S
C118 C123 1.499 . S
N119 Co102 1.989 . S
N119 C118 1.342 . S
N119 N120 1.388 . S
N120 Co103 1.993 . S
N120 N119 1.388 . S
N120 C121 1.346 . S
C121 N120 1.346 . S
C121 C122 1.396 . S
C121 C131 1.510 . S
C122 C118 1.401 . S
C122 C121 1.396 . S
C123 C118 1.499 . S
C123 H124 0.959 . S
C123 H125 0.960 . S
C123 H126 0.961 . S
H124 C123 0.959 . S
H125 C123 0.960 . S
H126 C123 0.961 . S
O127 Co102 1.967 . S
O127 C135 1.258 . S
O128 Co103 1.941 . S
O128 C135 1.266 . S
H129 C131 0.959 . S
H130 C131 0.961 . S
C131 C121 1.510 . S
C131 H129 0.959 . S
C131 H130 0.961 . S
C131 H132 0.960 . S
H132 C131 0.960 . S
H133 N113 0.862 . S
O134 Co102 1.920 . S
O134 C107 1.289 . S
C135 O127 1.258 . S
C135 O128 1.266 . S
Co136 O139 1.970 . S
Co136 N153 1.989 . S
Co136 O161 1.967 . S
Co136 O168 1.920 . S
Co137 O140 1.966 . S
Co137 N146 2.022 . S
Co137 N154 1.993 . S
Co137 O162 1.941 . S
C138 O139 1.258 . S
C138 O140 1.263 . S
O139 Co136 1.970 . S
O139 C138 1.258 . S
O140 Co137 1.966 . S
O140 C138 1.263 . S
C141 O142 1.235 . S
C141 O168 1.289 . S
O142 C141 1.235 . S
C143 C145 1.400 . S
C143 N146 1.351 . S
C143 C148 1.501 . S
C144 C145 1.387 . S
C144 N147 1.341 . S
C145 C143 1.400 . S
C145 C144 1.387 . S
N146 Co137 2.022 . S
N146 C143 1.351 . S
N146 N147 1.365 . S
N147 C144 1.341 . S
N147 N146 1.365 . S
N147 H167 0.862 . S
C148 C143 1.501 . S
C148 H149 0.961 . S
C148 H150 0.961 . S
C148 H151 0.960 . S
H149 C148 0.961 . S
H150 C148 0.961 . S
H151 C148 0.960 . S
C152 N153 1.342 . S
C152 C156 1.401 . S
C152 C157 1.499 . S
N153 Co136 1.989 . S
N153 C152 1.342 . S
N153 N154 1.388 . S
N154 Co137 1.993 . S
N154 N153 1.388 . S
N154 C155 1.346 . S
C155 N154 1.346 . S
C155 C156 1.396 . S
C155 C165 1.510 . S
C156 C152 1.401 . S
C156 C155 1.396 . S
C157 C152 1.499 . S
C157 H158 0.959 . S
C157 H159 0.960 . S
C157 H160 0.961 . S
H158 C157 0.959 . S
H159 C157 0.960 . S
H160 C157 0.961 . S
O161 Co136 1.967 . S
O161 C169 1.258 . S
O162 Co137 1.941 . S
O162 C169 1.266 . S
H163 C165 0.959 . S
H164 C165 0.961 . S
C165 C155 1.510 . S
C165 H163 0.959 . S
C165 H164 0.961 . S
C165 H166 0.960 . S
H166 C165 0.960 . S
H167 N147 0.862 . S
O168 Co136 1.920 . S
O168 C141 1.289 . S
C169 O161 1.258 . S
C169 O162 1.266 . S
Co170 O173 1.970 . S
Co170 N187 1.989 . S
Co170 O195 1.967 . S
Co170 O202 1.920 . S
Co171 O174 1.966 . S
Co171 N180 2.022 . S
Co171 N188 1.993 . S
Co171 O196 1.941 . S
C172 O173 1.258 . S
C172 O174 1.263 . S
O173 Co170 1.970 . S
O173 C172 1.258 . S
O174 Co171 1.966 . S
O174 C172 1.263 . S
C175 O176 1.235 . S
C175 O202 1.289 . S
O176 C175 1.235 . S
C177 C179 1.400 . S
C177 N180 1.351 . S
C177 C182 1.501 . S
C178 C179 1.387 . S
C178 N181 1.341 . S
C179 C177 1.400 . S
C179 C178 1.387 . S
N180 Co171 2.022 . S
N180 C177 1.351 . S
N180 N181 1.365 . S
N181 C178 1.341 . S
N181 N180 1.365 . S
N181 H201 0.862 . S
C182 C177 1.501 . S
C182 H183 0.961 . S
C182 H184 0.961 . S
C182 H185 0.960 . S
H183 C182 0.961 . S
H184 C182 0.961 . S
H185 C182 0.960 . S
C186 N187 1.342 . S
C186 C190 1.401 . S
C186 C191 1.499 . S
N187 Co170 1.989 . S
N187 C186 1.342 . S
N187 N188 1.388 . S
N188 Co171 1.993 . S
N188 N187 1.388 . S
N188 C189 1.346 . S
C189 N188 1.346 . S
C189 C190 1.396 . S
C189 C199 1.510 . S
C190 C186 1.401 . S
C190 C189 1.396 . S
C191 C186 1.499 . S
C191 H192 0.959 . S
C191 H193 0.960 . S
C191 H194 0.961 . S
H192 C191 0.959 . S
H193 C191 0.960 . S
H194 C191 0.961 . S
O195 Co170 1.967 . S
O195 C203 1.258 . S
O196 Co171 1.941 . S
O196 C203 1.266 . S
H197 C199 0.959 . S
H198 C199 0.961 . S
C199 C189 1.510 . S
C199 H197 0.959 . S
C199 H198 0.961 . S
C199 H200 0.960 . S
H200 C199 0.960 . S
H201 N181 0.862 . S
O202 Co170 1.920 . S
O202 C175 1.289 . S
C203 O195 1.258 . S
C203 O196 1.266 . S
Co204 O207 1.970 . S
Co204 N221 1.989 . S
Co204 O229 1.967 . S
Co204 O236 1.920 . S
Co205 O208 1.966 . S
Co205 N214 2.022 . S
Co205 N222 1.993 . S
Co205 O230 1.941 . S
C206 O207 1.258 . S
C206 O208 1.263 . S
O207 Co204 1.970 . S
O207 C206 1.258 . S
O208 Co205 1.966 . S
O208 C206 1.263 . S
C209 O210 1.235 . S
C209 O236 1.289 . S
O210 C209 1.235 . S
C211 C213 1.400 . S
C211 N214 1.351 . S
C211 C216 1.501 . S
C212 C213 1.387 . S
C212 N215 1.341 . S
C213 C211 1.400 . S
C213 C212 1.387 . S
N214 Co205 2.022 . S
N214 C211 1.351 . S
N214 N215 1.365 . S
N215 C212 1.341 . S
N215 N214 1.365 . S
N215 H235 0.862 . S
C216 C211 1.501 . S
C216 H217 0.961 . S
C216 H218 0.961 . S
C216 H219 0.960 . S
H217 C216 0.961 . S
H218 C216 0.961 . S
H219 C216 0.960 . S
C220 N221 1.342 . S
C220 C224 1.401 . S
C220 C225 1.499 . S
N221 Co204 1.989 . S
N221 C220 1.342 . S
N221 N222 1.388 . S
N222 Co205 1.993 . S
N222 N221 1.388 . S
N222 C223 1.346 . S
C223 N222 1.346 . S
C223 C224 1.396 . S
C223 C233 1.510 . S
C224 C220 1.401 . S
C224 C223 1.396 . S
C225 C220 1.499 . S
C225 H226 0.959 . S
C225 H227 0.960 . S
C225 H228 0.961 . S
H226 C225 0.959 . S
H227 C225 0.960 . S
H228 C225 0.961 . S
O229 Co204 1.967 . S
O229 C237 1.258 . S
O230 Co205 1.941 . S
O230 C237 1.266 . S
H231 C233 0.959 . S
H232 C233 0.961 . S
C233 C223 1.510 . S
C233 H231 0.959 . S
C233 H232 0.961 . S
C233 H234 0.960 . S
H234 C233 0.960 . S
H235 N215 0.862 . S
O236 Co204 1.920 . S
O236 C209 1.289 . S
C237 O229 1.258 . S
C237 O230 1.266 . S
Co238 O241 1.970 . S
Co238 N255 1.989 . S
Co238 O263 1.967 . S
Co238 O270 1.920 . S
Co239 O242 1.966 . S
Co239 N248 2.022 . S
Co239 N256 1.993 . S
Co239 O264 1.941 . S
C240 O241 1.258 . S
C240 O242 1.263 . S
O241 Co238 1.970 . S
O241 C240 1.258 . S
O242 Co239 1.966 . S
O242 C240 1.263 . S
C243 O244 1.235 . S
C243 O270 1.289 . S
O244 C243 1.235 . S
C245 C247 1.400 . S
C245 N248 1.351 . S
C245 C250 1.501 . S
C246 C247 1.387 . S
C246 N249 1.341 . S
C247 C245 1.400 . S
C247 C246 1.387 . S
N248 Co239 2.022 . S
N248 C245 1.351 . S
N248 N249 1.365 . S
N249 C246 1.341 . S
N249 N248 1.365 . S
N249 H269 0.862 . S
C250 C245 1.501 . S
C250 H251 0.961 . S
C250 H252 0.961 . S
C250 H253 0.960 . S
H251 C250 0.961 . S
H252 C250 0.961 . S
H253 C250 0.960 . S
C254 N255 1.342 . S
C254 C258 1.401 . S
C254 C259 1.499 . S
N255 Co238 1.989 . S
N255 C254 1.342 . S
N255 N256 1.388 . S
N256 Co239 1.993 . S
N256 N255 1.388 . S
N256 C257 1.346 . S
C257 N256 1.346 . S
C257 C258 1.396 . S
C257 C267 1.510 . S
C258 C254 1.401 . S
C258 C257 1.396 . S
C259 C254 1.499 . S
C259 H260 0.959 . S
C259 H261 0.960 . S
C259 H262 0.961 . S
H260 C259 0.959 . S
H261 C259 0.960 . S
H262 C259 0.961 . S
O263 Co238 1.967 . S
O263 C271 1.258 . S
O264 Co239 1.941 . S
O264 C271 1.266 . S
H265 C267 0.959 . S
H266 C267 0.961 . S
C267 C257 1.510 . S
C267 H265 0.959 . S
C267 H266 0.961 . S
C267 H268 0.960 . S
H268 C267 0.960 . S
H269 N249 0.862 . S
O270 Co238 1.920 . S
O270 C243 1.289 . S
C271 O263 1.258 . S
C271 O264 1.266 . S
Co272 O275 1.970 . S
Co272 N289 1.989 . S
Co272 O297 1.967 . S
Co272 O304 1.920 . S
Co273 O276 1.966 . S
Co273 N282 2.022 . S
Co273 N290 1.993 . S
Co273 O298 1.941 . S
C274 O275 1.258 . S
C274 O276 1.263 . S
O275 Co272 1.970 . S
O275 C274 1.258 . S
O276 Co273 1.966 . S
O276 C274 1.263 . S
C277 O278 1.235 . S
C277 O304 1.289 . S
O278 C277 1.235 . S
C279 C281 1.400 . S
C279 N282 1.351 . S
C279 C284 1.501 . S
C280 C281 1.387 . S
C280 N283 1.341 . S
C281 C279 1.400 . S
C281 C280 1.387 . S
N282 Co273 2.022 . S
N282 C279 1.351 . S
N282 N283 1.365 . S
N283 C280 1.341 . S
N283 N282 1.365 . S
N283 H303 0.862 . S
C284 C279 1.501 . S
C284 H285 0.961 . S
C284 H286 0.961 . S
C284 H287 0.960 . S
H285 C284 0.961 . S
H286 C284 0.961 . S
H287 C284 0.960 . S
C288 N289 1.342 . S
C288 C292 1.401 . S
C288 C293 1.499 . S
N289 Co272 1.989 . S
N289 C288 1.342 . S
N289 N290 1.388 . S
N290 Co273 1.993 . S
N290 N289 1.388 . S
N290 C291 1.346 . S
C291 N290 1.346 . S
C291 C292 1.396 . S
C291 C301 1.510 . S
C292 C288 1.401 . S
C292 C291 1.396 . S
C293 C288 1.499 . S
C293 H294 0.959 . S
C293 H295 0.960 . S
C293 H296 0.961 . S
H294 C293 0.959 . S
H295 C293 0.960 . S
H296 C293 0.961 . S
O297 Co272 1.967 . S
O297 C305 1.258 . S
O298 Co273 1.941 . S
O298 C305 1.266 . S
H299 C301 0.959 . S
H300 C301 0.961 . S
C301 C291 1.510 . S
C301 H299 0.959 . S
C301 H300 0.961 . S
C301 H302 0.960 . S
H302 C301 0.960 . S
H303 N283 0.862 . S
O304 Co272 1.920 . S
O304 C277 1.289 . S
C305 O297 1.258 . S
C305 O298 1.266 . S
Co306 O309 1.970 . S
Co306 N323 1.989 . S
Co306 O331 1.967 . S
Co306 O338 1.920 . S
Co307 O310 1.966 . S
Co307 N316 2.022 . S
Co307 N324 1.993 . S
Co307 O332 1.941 . S
C308 O309 1.258 . S
C308 O310 1.263 . S
O309 Co306 1.970 . S
O309 C308 1.258 . S
O310 Co307 1.966 . S
O310 C308 1.263 . S
C311 O312 1.235 . S
C311 O338 1.289 . S
O312 C311 1.235 . S
C313 C315 1.400 . S
C313 N316 1.351 . S
C313 C318 1.501 . S
C314 C315 1.387 . S
C314 N317 1.341 . S
C315 C313 1.400 . S
C315 C314 1.387 . S
N316 Co307 2.022 . S
N316 C313 1.351 . S
N316 N317 1.365 . S
N317 C314 1.341 . S
N317 N316 1.365 . S
N317 H337 0.862 . S
C318 C313 1.501 . S
C318 H319 0.961 . S
C318 H320 0.961 . S
C318 H321 0.960 . S
H319 C318 0.961 . S
H320 C318 0.961 . S
H321 C318 0.960 . S
C322 N323 1.342 . S
C322 C326 1.401 . S
C322 C327 1.499 . S
N323 Co306 1.989 . S
N323 C322 1.342 . S
N323 N324 1.388 . S
N324 Co307 1.993 . S
N324 N323 1.388 . S
N324 C325 1.346 . S
C325 N324 1.346 . S
C325 C326 1.396 . S
C325 C335 1.510 . S
C326 C322 1.401 . S
C326 C325 1.396 . S
C327 C322 1.499 . S
C327 H328 0.959 . S
C327 H329 0.960 . S
C327 H330 0.961 . S
H328 C327 0.959 . S
H329 C327 0.960 . S
H330 C327 0.961 . S
O331 Co306 1.967 . S
O331 C339 1.258 . S
O332 Co307 1.941 . S
O332 C339 1.266 . S
H333 C335 0.959 . S
H334 C335 0.961 . S
C335 C325 1.510 . S
C335 H333 0.959 . S
C335 H334 0.961 . S
C335 H336 0.960 . S
H336 C335 0.960 . S
H337 N317 0.862 . S
O338 Co306 1.920 . S
O338 C311 1.289 . S
C339 O331 1.258 . S
C339 O332 1.266 . S
Co340 O343 1.970 . S
Co340 N357 1.989 . S
Co340 O365 1.967 . S
Co340 O372 1.920 . S
Co341 O344 1.966 . S
Co341 N350 2.022 . S
Co341 N358 1.993 . S
Co341 O366 1.941 . S
C342 O343 1.258 . S
C342 O344 1.263 . S
O343 Co340 1.970 . S
O343 C342 1.258 . S
O344 Co341 1.966 . S
O344 C342 1.263 . S
C345 O346 1.235 . S
C345 O372 1.289 . S
O346 C345 1.235 . S
C347 C349 1.400 . S
C347 N350 1.351 . S
C347 C352 1.501 . S
C348 C349 1.387 . S
C348 N351 1.341 . S
C349 C347 1.400 . S
C349 C348 1.387 . S
N350 Co341 2.022 . S
N350 C347 1.351 . S
N350 N351 1.365 . S
N351 C348 1.341 . S
N351 N350 1.365 . S
N351 H371 0.862 . S
C352 C347 1.501 . S
C352 H353 0.961 . S
C352 H354 0.961 . S
C352 H355 0.960 . S
H353 C352 0.961 . S
H354 C352 0.961 . S
H355 C352 0.960 . S
C356 N357 1.342 . S
C356 C360 1.401 . S
C356 C361 1.499 . S
N357 Co340 1.989 . S
N357 C356 1.342 . S
N357 N358 1.388 . S
N358 Co341 1.993 . S
N358 N357 1.388 . S
N358 C359 1.346 . S
C359 N358 1.346 . S
C359 C360 1.396 . S
C359 C369 1.510 . S
C360 C356 1.401 . S
C360 C359 1.396 . S
C361 C356 1.499 . S
C361 H362 0.959 . S
C361 H363 0.960 . S
C361 H364 0.961 . S
H362 C361 0.959 . S
H363 C361 0.960 . S
H364 C361 0.961 . S
O365 Co340 1.967 . S
O365 C373 1.258 . S
O366 Co341 1.941 . S
O366 C373 1.266 . S
H367 C369 0.959 . S
H368 C369 0.961 . S
C369 C359 1.510 . S
C369 H367 0.959 . S
C369 H368 0.961 . S
C369 H370 0.960 . S
H370 C369 0.960 . S
H371 N351 0.862 . S
O372 Co340 1.920 . S
O372 C345 1.289 . S
C373 O365 1.258 . S
C373 O366 1.266 . S
Co374 O377 1.970 . S
Co374 N391 1.989 . S
Co374 O399 1.967 . S
Co374 O406 1.920 . S
Co375 O378 1.966 . S
Co375 N384 2.022 . S
Co375 N392 1.993 . S
Co375 O400 1.941 . S
C376 O377 1.258 . S
C376 O378 1.263 . S
O377 Co374 1.970 . S
O377 C376 1.258 . S
O378 Co375 1.966 . S
O378 C376 1.263 . S
C379 O380 1.235 . S
C379 O406 1.289 . S
O380 C379 1.235 . S
C381 C383 1.400 . S
C381 N384 1.351 . S
C381 C386 1.501 . S
C382 C383 1.387 . S
C382 N385 1.341 . S
C383 C381 1.400 . S
C383 C382 1.387 . S
N384 Co375 2.022 . S
N384 C381 1.351 . S
N384 N385 1.365 . S
N385 C382 1.341 . S
N385 N384 1.365 . S
N385 H405 0.862 . S
C386 C381 1.501 . S
C386 H387 0.961 . S
C386 H388 0.961 . S
C386 H389 0.960 . S
H387 C386 0.961 . S
H388 C386 0.961 . S
H389 C386 0.960 . S
C390 N391 1.342 . S
C390 C394 1.401 . S
C390 C395 1.499 . S
N391 Co374 1.989 . S
N391 C390 1.342 . S
N391 N392 1.388 . S
N392 Co375 1.993 . S
N392 N391 1.388 . S
N392 C393 1.346 . S
C393 N392 1.346 . S
C393 C394 1.396 . S
C393 C403 1.510 . S
C394 C390 1.401 . S
C394 C393 1.396 . S
C395 C390 1.499 . S
C395 H396 0.959 . S
C395 H397 0.960 . S
C395 H398 0.961 . S
H396 C395 0.959 . S
H397 C395 0.960 . S
H398 C395 0.961 . S
O399 Co374 1.967 . S
O399 C407 1.258 . S
O400 Co375 1.941 . S
O400 C407 1.266 . S
H401 C403 0.959 . S
H402 C403 0.961 . S
C403 C393 1.510 . S
C403 H401 0.959 . S
C403 H402 0.961 . S
C403 H404 0.960 . S
H404 C403 0.960 . S
H405 N385 0.862 . S
O406 Co374 1.920 . S
O406 C379 1.289 . S
C407 O399 1.258 . S
C407 O400 1.266 . S
C408 C409 1.369 1_565 S
C408 C410 1.419 . S
C408 H412 0.930 . S
C409 C408 1.369 1_545 S
C409 C418 1.429 . S
C410 C408 1.419 . S
C410 C411 1.363 1_455 S
C410 H413 0.929 . S
C411 C410 1.363 1_655 S
C411 C417 1.428 . S
H412 C408 0.930 . S
H413 C410 0.929 . S
S414 N415 1.613 1_655 S
S414 N416 1.610 1_545 S
N415 S414 1.613 1_455 S
N415 C418 1.350 . S
N416 S414 1.610 1_565 S
N416 C417 1.351 . S
C417 C411 1.428 . S
C417 N416 1.351 . S
C417 C418 1.434 1_665 S
C418 C409 1.429 . S
C418 N415 1.350 . S
C418 C417 1.434 1_445 S
C419 C420 1.369 1_545 S
C419 C421 1.419 . S
C419 H423 0.930 . S
C420 C419 1.369 1_565 S
C420 C429 1.429 . S
C421 C419 1.419 . S
C421 C422 1.363 . S
C421 H424 0.929 . S
C422 C421 1.363 . S
C422 C428 1.428 . S
H423 C419 0.930 . S
H424 C421 0.929 . S
S425 N426 1.613 . S
S425 N427 1.610 1_565 S
N426 S425 1.613 . S
N426 C429 1.350 1_655 S
N427 S425 1.610 1_545 S
N427 C428 1.351 1_655 S
C428 C422 1.428 . S
C428 N427 1.351 1_455 S
C428 C429 1.434 1_545 S
C429 C420 1.429 . S
C429 N426 1.350 1_455 S
C429 C428 1.434 1_565 S
C430 C431 1.369 1_455 S
C430 C432 1.419 . S
C430 H434 0.930 . S
C431 C430 1.369 1_655 S
C431 C440 1.429 . S
C432 C430 1.419 . S
C432 C433 1.363 . S
C432 H435 0.929 . S
C433 C432 1.363 . S
C433 C439 1.428 . S
H434 C430 0.930 . S
H435 C432 0.929 . S
S436 N437 1.613 . S
S436 N438 1.610 1_655 S
N437 S436 1.613 . S
N437 C440 1.350 1_565 S
N438 S436 1.610 1_455 S
N438 C439 1.351 1_565 S
C439 C433 1.428 . S
C439 N438 1.351 1_545 S
C439 C440 1.434 1_455 S
C440 C431 1.429 . S
C440 N437 1.350 1_545 S
C440 C439 1.434 1_655 S
C441 C442 1.369 . S
C441 C443 1.419 1_665 S
C441 H445 0.930 . S
C442 C441 1.369 . S
C442 C451 1.429 1_565 S
C443 C441 1.419 1_445 S
C443 C444 1.363 . S
C443 H446 0.929 . S
C444 C443 1.363 . S
C444 C450 1.428 1_455 S
H445 C441 0.930 . S
H446 C443 0.929 . S
S447 N448 1.613 . S
S447 N449 1.610 . S
N448 S447 1.613 . S
N448 C451 1.350 . S
N449 S447 1.610 . S
N449 C450 1.351 . S
C450 C444 1.428 1_655 S
C450 N449 1.351 . S
C450 C451 1.434 . S
C451 C442 1.429 1_545 S
C451 N448 1.350 . S
C451 C450 1.434 . S
C452 C453 1.369 . S
C452 C454 1.419 1_565 S
C452 H456 0.930 . S
C453 C452 1.369 . S
C453 C462 1.429 . S
C454 C452 1.419 1_545 S
C454 C455 1.363 . S
C454 H457 0.929 . S
C455 C454 1.363 . S
C455 C461 1.428 1_545 S
H456 C452 0.930 . S
H457 C454 0.929 . S
S458 N459 1.613 . S
S458 N460 1.608 1_565 S
N459 S458 1.613 . S
N459 C462 1.350 . S
N460 S458 1.608 1_545 S
N460 C461 1.350 1_545 S
C461 C455 1.428 1_565 S
C461 N460 1.350 1_565 S
C461 C462 1.434 . S
C462 C453 1.429 . S
C462 N459 1.350 . S
C462 C461 1.434 . S
C463 C464 1.369 . S
C463 C465 1.419 1_455 S
C463 H467 0.930 1_565 S
C464 C463 1.369 . S
C464 C473 1.429 1_455 S
C465 C463 1.419 1_655 S
C465 C466 1.363 . S
C465 H468 0.929 1_565 S
C466 C465 1.363 . S
C466 C472 1.428 . S
H467 C463 0.930 1_545 S
H468 C465 0.929 1_545 S
S469 N470 1.613 . S
S469 N471 1.610 . S
N470 S469 1.613 . S
N470 C473 1.350 . S
N471 S469 1.610 . S
N471 C472 1.351 . S
C472 C466 1.428 . S
C472 N471 1.351 . S
C472 C473 1.434 . S
C473 C464 1.429 1_655 S
C473 N470 1.350 . S
C473 C472 1.434 . S
C474 C475 1.369 . S
C474 C476 1.419 . S
C474 H478 0.930 . S
C475 C474 1.369 . S
C475 C484 1.429 . S
C476 C474 1.419 . S
C476 C477 1.363 . S
C476 H479 0.929 . S
C477 C476 1.363 . S
C477 C483 1.428 . S
H478 C474 0.930 . S
H479 C476 0.929 . S
S480 N481 1.613 . S
S480 N482 1.610 . S
N481 S480 1.613 . S
N481 C484 1.350 . S
N482 S480 1.610 . S
N482 C483 1.351 . S
C483 C477 1.428 . S
C483 N482 1.351 . S
C483 C484 1.434 . S
C484 C475 1.429 . S
C484 N481 1.350 . S
C484 C483 1.434 . S
C485 C486 1.369 . S
C485 C487 1.419 . S
C485 H489 0.930 . S
C486 C485 1.369 . S
C486 C495 1.429 . S
C487 C485 1.419 . S
C487 C488 1.363 . S
C487 H490 0.929 . S
C488 C487 1.363 . S
C488 C494 1.428 . S
H489 C485 0.930 . S
H490 C487 0.929 . S
S491 N492 1.613 . S
S491 N493 1.610 . S
N492 S491 1.613 . S
N492 C495 1.350 . S
N493 S491 1.610 . S
N493 C494 1.351 . S
C494 C488 1.428 . S
C494 N493 1.351 . S
C494 C495 1.434 . S
C495 C486 1.429 . S
C495 N492 1.350 . S
C495 C494 1.434 . S
C496 C497 1.369 . S
C496 C498 1.419 . S
C496 H500 0.930 . S
C497 C496 1.369 . S
C497 C506 1.429 . S
C498 C496 1.419 . S
C498 C499 1.363 . S
C498 H501 0.929 . S
C499 C498 1.363 . S
C499 C505 1.428 . S
H500 C496 0.930 . S
H501 C498 0.929 . S
S502 N503 1.613 . S
S502 N504 1.610 . S
N503 S502 1.613 . S
N503 C506 1.350 . S
N504 S502 1.610 . S
N504 C505 1.351 . S
C505 C499 1.428 . S
C505 N504 1.351 . S
C505 C506 1.434 . S
C506 C497 1.429 . S
C506 N503 1.350 . S
C506 C505 1.434 . S
C507 C508 1.369 . S
C507 C509 1.419 . S
C507 H511 0.930 . S
C508 C507 1.369 . S
C508 C517 1.429 . S
C509 C507 1.419 . S
C509 C510 1.363 . S
C509 H512 0.929 . S
C510 C509 1.363 . S
C510 C516 1.428 . S
H511 C507 0.930 . S
H512 C509 0.929 . S
S513 N514 1.613 . S
S513 N515 1.610 . S
N514 S513 1.613 . S
N514 C517 1.350 . S
N515 S513 1.610 . S
N515 C516 1.351 . S
C516 C510 1.428 . S
C516 N515 1.351 . S
C516 C517 1.434 . S
C517 C508 1.429 . S
C517 N514 1.350 . S
C517 C516 1.434 . S
C518 C519 1.369 . S
C518 C520 1.419 . S
C518 H522 0.930 . S
C519 C518 1.369 . S
C519 C528 1.429 . S
C520 C518 1.419 . S
C520 C521 1.363 . S
C520 H523 0.929 . S
C521 C520 1.363 . S
C521 C527 1.428 . S
H522 C518 0.930 . S
H523 C520 0.929 . S
S524 N525 1.613 . S
S524 N526 1.610 . S
N525 S524 1.613 . S
N525 C528 1.350 . S
N526 S524 1.610 . S
N526 C527 1.351 . S
C527 C521 1.428 . S
C527 N526 1.351 . S
C527 C528 1.434 . S
C528 C519 1.429 . S
C528 N525 1.350 . S
C528 C527 1.434 . S
C529 C530 1.369 . S
C529 C531 1.419 . S
C529 H533 0.930 . S
C530 C529 1.369 . S
C530 C539 1.429 . S
C531 C529 1.419 . S
C531 C532 1.363 . S
C531 H534 0.929 . S
C532 C531 1.363 . S
C532 C538 1.428 . S
H533 C529 0.930 . S
H534 C531 0.929 . S
S535 N536 1.613 . S
S535 N537 1.610 . S
N536 S535 1.613 . S
N536 C539 1.350 . S
N537 S535 1.610 . S
N537 C538 1.351 . S
C538 C532 1.428 . S
C538 N537 1.351 . S
C538 C539 1.434 . S
C539 C530 1.429 . S
C539 N536 1.350 . S
C539 C538 1.434 . S
C540 C541 1.369 . S
C540 C542 1.419 . S
C540 H544 0.930 1_545 S
C541 C540 1.369 . S
C541 C550 1.429 . S
C542 C540 1.419 . S
C542 C543 1.363 . S
C542 H545 0.929 . S
C543 C542 1.363 . S
C543 C549 1.428 . S
H544 C540 0.930 1_565 S
H545 C542 0.929 . S
S546 N547 1.613 . S
S546 N548 1.610 . S
N547 S546 1.613 . S
N547 C550 1.350 . S
N548 S546 1.610 . S
N548 C549 1.351 . S
C549 C543 1.428 . S
C549 N548 1.351 . S
C549 C550 1.434 . S
C550 C541 1.429 . S
C550 N547 1.350 . S
C550 C549 1.434 . S
C551 C552 1.369 . S
C551 C553 1.419 . S
C551 H555 0.930 . S
C552 C551 1.369 . S
C552 C561 1.429 . S
C553 C551 1.419 . S
C553 C554 1.363 . S
C553 H556 0.929 . S
C554 C553 1.363 . S
C554 C560 1.428 . S
H555 C551 0.930 . S
H556 C553 0.929 . S
S557 N558 1.613 . S
S557 N559 1.610 . S
N558 S557 1.613 . S
N558 C561 1.350 . S
N559 S557 1.610 . S
N559 C560 1.351 . S
C560 C554 1.428 . S
C560 N559 1.351 . S
C560 C561 1.434 . S
C561 C552 1.429 . S
C561 N558 1.350 . S
C561 C560 1.434 . S
C562 C563 1.369 . S
C562 C564 1.419 . S
C562 H566 0.930 . S
C563 C562 1.369 . S
C563 C572 1.429 . S
C564 C562 1.419 . S
C564 C565 1.363 . S
C564 H567 0.929 . S
C565 C564 1.363 . S
C565 C571 1.428 . S
H566 C562 0.930 . S
H567 C564 0.929 . S
S568 N569 1.613 1_455 S
S568 N570 1.610 . S
N569 S568 1.613 1_655 S
N569 C572 1.350 . S
N570 S568 1.610 . S
N570 C571 1.351 1_455 S
C571 C565 1.428 . S
C571 N570 1.351 1_655 S
C571 C572 1.434 . S
C572 C563 1.429 . S
C572 N569 1.350 . S
C572 C571 1.434 . S
C573 C574 1.369 1_545 S
C573 C575 1.419 1_545 S
C573 H577 0.930 . S
C574 C573 1.369 1_565 S
C574 C583 1.429 . S
C575 C573 1.419 1_565 S
C575 C576 1.363 . S
C575 H578 0.929 . S
C576 C575 1.363 . S
C576 C582 1.428 . S
H577 C573 0.930 . S
H578 C575 0.929 . S
S579 N580 1.613 . S
S579 N581 1.610 . S
N580 S579 1.613 . S
N580 C583 1.350 . S
N581 S579 1.610 . S
N581 C582 1.351 . S
C582 C576 1.428 . S
C582 N581 1.351 . S
C582 C583 1.434 . S
C583 C574 1.429 . S
C583 N580 1.350 . S
C583 C582 1.434 . S
C584 C585 1.369 . S
C584 C586 1.419 . S
C584 H588 0.930 . S
C585 C584 1.369 . S
C585 C594 1.429 . S
C586 C584 1.419 . S
C586 C587 1.363 1_556 S
C586 H589 0.925 1_556 S
C587 C586 1.363 1_554 S
C587 C593 1.428 . S
H588 C584 0.930 . S
H589 C586 0.925 1_554 S
S590 N591 1.613 1_554 S
S590 N592 1.610 . S
N591 S590 1.613 1_556 S
N591 C594 1.350 . S
N592 S590 1.610 . S
N592 C593 1.351 . S
C593 C587 1.428 . S
C593 N592 1.351 . S
C593 C594 1.434 1_554 S
C594 C585 1.429 . S
C594 N591 1.350 . S
C594 C593 1.434 1_556 S
C595 C596 1.369 . S
C595 C597 1.419 . S
C595 H599 0.930 . S
C596 C595 1.369 . S
C596 C605 1.429 . S
C597 C595 1.419 . S
C597 C598 1.363 . S
C597 H600 0.929 . S
C598 C597 1.363 . S
C598 C604 1.428 . S
H599 C595 0.930 . S
H600 C597 0.929 . S
S601 N602 1.613 . S
S601 N603 1.610 . S
N602 S601 1.613 . S
N602 C605 1.350 . S
N603 S601 1.610 . S
N603 C604 1.351 . S
C604 C598 1.428 . S
C604 N603 1.351 . S
C604 C605 1.434 . S
C605 C596 1.429 . S
C605 N602 1.350 . S
C605 C604 1.434 . S
C606 C607 1.369 . S
C606 C608 1.419 . S
C606 H610 0.930 . S
C607 C606 1.369 . S
C607 C616 1.429 . S
C608 C606 1.419 . S
C608 C609 1.363 . S
C608 H611 0.929 . S
C609 C608 1.363 . S
C609 C615 1.428 . S
H610 C606 0.930 . S
H611 C608 0.929 . S
S612 N613 1.613 . S
S612 N614 1.610 . S
N613 S612 1.613 . S
N613 C616 1.350 . S
N614 S612 1.610 . S
N614 C615 1.351 . S
C615 C609 1.428 . S
C615 N614 1.351 . S
C615 C616 1.434 . S
C616 C607 1.429 . S
C616 N613 1.350 . S
C616 C615 1.434 . S
C617 C618 1.369 . S
C617 C619 1.419 . S
C617 H621 0.930 . S
C618 C617 1.369 . S
C618 C627 1.429 . S
C619 C617 1.419 . S
C619 C620 1.363 . S
C619 H622 0.929 . S
C620 C619 1.363 . S
C620 C626 1.428 . S
H621 C617 0.930 . S
H622 C619 0.929 . S
S623 N624 1.613 . S
S623 N625 1.610 . S
N624 S623 1.613 . S
N624 C627 1.350 . S
N625 S623 1.610 . S
N625 C626 1.351 . S
C626 C620 1.428 . S
C626 N625 1.351 . S
C626 C627 1.434 . S
C627 C618 1.429 . S
C627 N624 1.350 . S
C627 C626 1.434 . S
C628 C629 1.369 . S
C628 C630 1.419 . S
C628 H632 0.930 . S
C629 C628 1.369 . S
C629 C638 1.429 . S
C630 C628 1.419 . S
C630 C631 1.363 . S
C630 H633 0.929 . S
C631 C630 1.363 . S
C631 C637 1.428 . S
H632 C628 0.930 . S
H633 C630 0.929 . S
S634 N635 1.613 . S
S634 N636 1.610 . S
N635 S634 1.613 . S
N635 C638 1.350 . S
N636 S634 1.610 . S
N636 C637 1.351 . S
C637 C631 1.428 . S
C637 N636 1.351 . S
C637 C638 1.434 . S
C638 C629 1.429 . S
C638 N635 1.350 . S
C638 C637 1.434 . S
C639 C640 1.369 . S
C639 C641 1.419 1_554 S
C639 H643 0.930 1_455 S
C640 C639 1.369 . S
C640 C649 1.429 . S
C641 C639 1.419 1_556 S
C641 C642 1.363 . S
C641 H644 0.929 . S
C642 C641 1.363 . S
C642 C648 1.428 1_556 S
H643 C639 0.930 1_655 S
H644 C641 0.929 . S
S645 N646 1.613 . S
S645 N647 1.610 . S
N646 S645 1.613 . S
N646 C649 1.350 . S
N647 S645 1.610 . S
N647 C648 1.351 . S
C648 C642 1.428 1_554 S
C648 N647 1.351 . S
C648 C649 1.434 . S
C649 C640 1.429 . S
C649 N646 1.350 . S
C649 C648 1.434 . S
C650 C651 1.369 . S
C650 C652 1.419 . S
C650 H654 0.930 . S
C651 C650 1.369 . S
C651 C660 1.429 1_545 S
C652 C650 1.419 . S
C652 C653 1.363 . S
C652 H655 0.929 . S
C653 C652 1.363 . S
C653 C659 1.428 . S
H654 C650 0.930 . S
H655 C652 0.929 . S
S656 N657 1.613 . S
S656 N658 1.610 1_565 S
N657 S656 1.613 . S
N657 C660 1.350 . S
N658 S656 1.610 1_545 S
N658 C659 1.351 . S
C659 C653 1.428 . S
C659 N658 1.351 . S
C659 C660 1.434 1_545 S
C660 C651 1.429 1_565 S
C660 N657 1.350 . S
C660 C659 1.434 1_565 S
C661 C662 1.369 . S
C661 C663 1.419 . S
C661 H665 0.930 . S
C662 C661 1.369 . S
C662 C671 1.429 . S
C663 C661 1.419 . S
C663 C664 1.363 . S
C663 H666 0.929 . S
C664 C663 1.363 . S
C664 C670 1.428 . S
H665 C661 0.930 . S
H666 C663 0.929 . S
S667 N668 1.613 . S
S667 N669 1.610 . S
N668 S667 1.613 . S
N668 C671 1.350 . S
N669 S667 1.610 . S
N669 C670 1.351 . S
C670 C664 1.428 . S
C670 N669 1.351 . S
C670 C671 1.434 . S
C671 C662 1.429 . S
C671 N668 1.350 . S
C671 C670 1.434 . S
C672 C673 1.369 1_565 S
C672 C674 1.419 . S
C672 H676 0.930 . S
C673 C672 1.369 1_545 S
C673 C682 1.429 . S
C674 C672 1.419 . S
C674 C675 1.363 . S
C674 H677 0.929 . S
C675 C674 1.363 . S
C675 C681 1.428 1_565 S
H676 C672 0.930 . S
H677 C674 0.929 . S
S678 N679 1.613 . S
S678 N680 1.610 . S
N679 S678 1.613 . S
N679 C682 1.350 . S
N680 S678 1.610 . S
N680 C681 1.351 . S
C681 C675 1.428 1_545 S
C681 N680 1.351 . S
C681 C682 1.434 . S
C682 C673 1.429 . S
C682 N679 1.350 . S
C682 C681 1.434 . S
C683 C684 1.369 . S
C683 C685 1.419 . S
C683 H687 0.930 . S
C684 C683 1.369 . S
C684 C693 1.429 . S
C685 C683 1.419 . S
C685 C686 1.363 . S
C685 H688 0.929 . S
C686 C685 1.363 . S
C686 C692 1.428 . S
H687 C683 0.930 . S
H688 C685 0.929 . S
S689 N690 1.613 . S
S689 N691 1.610 . S
N690 S689 1.613 . S
N690 C693 1.350 . S
N691 S689 1.610 . S
N691 C692 1.351 . S
C692 C686 1.428 . S
C692 N691 1.351 . S
C692 C693 1.434 . S
C693 C684 1.429 . S
C693 N690 1.350 . S
C693 C692 1.434 . S
C694 C695 1.369 . S
C694 C696 1.419 1_655 S
C694 H698 0.930 . S
C695 C694 1.369 . S
C695 C704 1.429 . S
C696 C694 1.419 1_455 S
C696 C697 1.363 . S
C696 H699 0.929 . S
C697 C696 1.363 . S
C697 C703 1.428 . S
H698 C694 0.930 . S
H699 C696 0.929 . S
S700 N701 1.613 . S
S700 N702 1.610 1_655 S
N701 S700 1.613 . S
N701 C704 1.350 . S
N702 S700 1.610 1_455 S
N702 C703 1.351 . S
C703 C697 1.428 . S
C703 N702 1.351 . S
C703 C704 1.434 1_455 S
C704 C695 1.429 . S
C704 N701 1.350 . S
C704 C703 1.434 1_655 S
C705 C706 1.369 1_556 S
C705 C707 1.429 . S
C705 H709 0.930 . S
C706 C705 1.369 1_554 S
C706 C715 1.429 1_545 S
C707 C705 1.429 . S
C707 C708 1.356 1_545 S
C707 H710 0.926 . S
C708 C707 1.356 1_565 S
C708 C714 1.428 1_556 S
H709 C705 0.930 . S
H710 C707 0.926 . S
S711 N712 1.613 . S
S711 N713 1.610 . S
N712 S711 1.613 . S
N712 C715 1.350 . S
N713 S711 1.610 . S
N713 C714 1.351 . S
C714 C708 1.428 1_554 S
C714 N713 1.351 . S
C714 C715 1.434 . S
C715 C706 1.429 1_565 S
C715 N712 1.350 . S
C715 C714 1.434 . S
C716 C717 1.369 . S
C716 C718 1.419 . S
C716 H720 0.930 . S
C717 C716 1.369 . S
C717 C726 1.429 . S
C718 C716 1.419 . S
C718 C719 1.363 . S
C718 H721 0.929 . S
C719 C718 1.363 . S
C719 C725 1.428 . S
H720 C716 0.930 . S
H721 C718 0.929 . S
S722 N723 1.613 . S
S722 N724 1.610 . S
N723 S722 1.613 . S
N723 C726 1.350 . S
N724 S722 1.610 . S
N724 C725 1.351 . S
C725 C719 1.428 . S
C725 N724 1.351 . S
C725 C726 1.434 . S
C726 C717 1.429 . S
C726 N723 1.350 . S
C726 C725 1.434 . S
C727 C728 1.369 1_455 S
C727 C729 1.419 . S
C727 H731 0.930 . S
C728 C727 1.369 1_655 S
C728 C737 1.429 . S
C729 C727 1.419 . S
C729 C730 1.363 . S
C729 H732 0.929 . S
C730 C729 1.363 . S
C730 C736 1.428 1_455 S
H731 C727 0.930 . S
H732 C729 0.929 . S
S733 N734 1.613 . S
S733 N735 1.610 . S
N734 S733 1.613 . S
N734 C737 1.350 . S
N735 S733 1.610 . S
N735 C736 1.351 . S
C736 C730 1.428 1_655 S
C736 N735 1.351 . S
C736 C737 1.434 . S
C737 C728 1.429 . S
C737 N734 1.350 . S
C737 C736 1.434 . S
C409 C5 0.299 . S
C411 C209 0.287 . S
C420 C243 0.297 . S
C422 C39 0.289 . S
C431 C73 0.298 . S
C433 C277 0.288 . S
C442 C107 0.285 . S
C444 C311 0.294 . S
C453 C141 0.285 . S
C455 C345 0.297 . S
C464 C175 0.287 . S
C466 C379 0.291 . S
C475 C213 1.327 . S
C477 C9 1.325 . S
C486 C43 1.319 . S
C488 C247 1.320 . S
C497 C281 1.323 . S
C499 C77 1.321 . S
C508 C315 1.328 . S
C510 C111 1.326 . S
C519 C349 1.327 . S
C521 C145 1.325 . S
C530 C179 1.320 . S
C532 C383 1.322 . S
C541 C172 1.653 1_545 S
C543 C20 1.581 . S
C552 C2 1.652 . S
C554 C54 1.580 . S
C563 C88 1.580 . S
C565 C36 1.651 1_655 S
C574 C70 1.653 1_565 S
C576 C122 1.582 . S
C585 C104 1.650 . S
C587 C156 1.579 . S
C596 C138 1.651 1_455 S
C598 C190 1.577 . S
C607 C240 1.650 1_655 S
C609 C224 1.577 . S
C618 C258 1.583 . S
C620 C274 1.652 1_565 S
C629 C308 1.649 . S
C631 C292 1.576 . S
C640 C342 1.653 1_455 S
C642 C326 1.582 . S
C651 C376 1.649 1_545 S
C653 C360 1.576 . S
C662 C206 1.651 . S
C664 C394 1.578 . S
C673 C33 1.587 . S
C675 C271 1.584 . S
C684 C67 1.581 . S
C686 C305 1.583 . S
C695 C101 1.587 . S
C697 C339 1.586 . S
C706 C373 1.583 . S
C708 C135 1.586 . S
C717 C169 1.580 . S
C719 C407 1.582 . S
C728 C237 1.587 . S
C730 C203 1.584 . S
