# Generated by pormake.
# Topology umx, (4)-cn, num edge types: 1
# Building blocks:
#     Node 0, Type 0, BuildingBlock: KUFVIS_clean_sbu_0, # of connection points: 4
#     Node 1, Type 0, BuildingBlock: KUFVIS_clean_sbu_0, # of connection points: 4
#     Node 2, Type 0, BuildingBlock: KUFVIS_clean_sbu_0, # of connection points: 4
#     Node 3, Type 0, BuildingBlock: KUFVIS_clean_sbu_0, # of connection points: 4
#     Node 4, Type 0, BuildingBlock: KUFVIS_clean_sbu_0, # of connection points: 4
#     Node 5, Type 0, BuildingBlock: KUFVIS_clean_sbu_0, # of connection points: 4
#     Node 6, Type 0, BuildingBlock: KUFVIS_clean_sbu_0, # of connection points: 4
#     Node 7, Type 0, BuildingBlock: KUFVIS_clean_sbu_0, # of connection points: 4
#     Edge 8, Type (0, 0), BuildingBlock: KIFKEQ_clean_linker_1, # of connection points: 2
#     Edge 9, Type (0, 0), BuildingBlock: KIFKEQ_clean_linker_1, # of connection points: 2
#     Edge 10, Type (0, 0), BuildingBlock: KIFKEQ_clean_linker_1, # of connection points: 2
#     Edge 11, Type (0, 0), BuildingBlock: KIFKEQ_clean_linker_1, # of connection points: 2
#     Edge 12, Type (0, 0), BuildingBlock: KIFKEQ_clean_linker_1, # of connection points: 2
#     Edge 13, Type (0, 0), BuildingBlock: KIFKEQ_clean_linker_1, # of connection points: 2
#     Edge 14, Type (0, 0), BuildingBlock: KIFKEQ_clean_linker_1, # of connection points: 2
#     Edge 15, Type (0, 0), BuildingBlock: KIFKEQ_clean_linker_1, # of connection points: 2
#     Edge 16, Type (0, 0), BuildingBlock: KIFKEQ_clean_linker_1, # of connection points: 2
#     Edge 17, Type (0, 0), BuildingBlock: KIFKEQ_clean_linker_1, # of connection points: 2
#     Edge 18, Type (0, 0), BuildingBlock: KIFKEQ_clean_linker_1, # of connection points: 2
#     Edge 19, Type (0, 0), BuildingBlock: KIFKEQ_clean_linker_1, # of connection points: 2
#     Edge 20, Type (0, 0), BuildingBlock: KIFKEQ_clean_linker_1, # of connection points: 2
#     Edge 21, Type (0, 0), BuildingBlock: KIFKEQ_clean_linker_1, # of connection points: 2
#     Edge 22, Type (0, 0), BuildingBlock: KIFKEQ_clean_linker_1, # of connection points: 2
#     Edge 23, Type (0, 0), BuildingBlock: KIFKEQ_clean_linker_1, # of connection points: 2
# Relax obj value: 0.123
# Max RMSD: 0.265
# Mean RMSD: 0.232
data_MOF--net-umx--node1-KUFVIS_clean_sbu_0--edge1-KIFKEQ_clean_linker_1
_symmetry_space_group_name_H-M    P1
_symmetry_Int_Tables_number       1
_symmetry_cell_setting            triclinic
loop_
_symmetry_equiv_pos_as_xyz
'x, y, z'
_cell_length_a     35.353583
_cell_length_b     42.737982
_cell_length_c     28.591873
_cell_angle_alpha  90.01225
_cell_angle_beta   89.963793
_cell_angle_gamma 90.07717
loop_
_atom_site_label
_atom_site_type_symbol
_atom_site_fract_x
_atom_site_fract_y
_atom_site_fract_z
_atom_type_partial_charge
Mn0 Mn 0.19135 0.45335 0.02012 0.0
Mn1 Mn 0.14167 0.40477 0.95007 0.0
C2 C 0.13031 0.46601 1.00007 0.0
C3 C 0.21131 0.46559 0.09569 0.0
C4 C 0.20245 0.44935 0.91453 0.0
O5 O 0.22203 0.41346 0.02015 0.0
O6 O 0.18329 0.38107 0.98049 0.0
C7 C 0.10862 0.36301 0.02186 0.0
N8 N 0.104 0.38297 0.98519 0.0
C9 C 0.03657 0.3753 0.98586 0.0
C10 C 0.04062 0.35448 0.02343 0.0
C11 C 0.07679 0.34841 0.04161 0.0
C12 C 0.06932 0.38911 0.96758 0.0
H13 H 0.13639 0.35829 0.03589 0.0
C14 C 0.21314 0.38651 0.00452 0.0
O15 O 0.23006 0.47535 0.05935 0.0
O16 O 0.18153 0.44869 0.08801 0.0
N17 N 0.10021 0.42426 0.91846 0.0
C18 C 0.10093 0.44645 0.88422 0.0
C19 C 0.06686 0.45614 0.86359 0.0
C20 C 0.0325 0.44262 0.87784 0.0
C21 C 0.03252 0.41952 0.91266 0.0
C22 C 0.06733 0.41083 0.93201 0.0
H23 H 0.12726 0.45682 0.87295 0.0
O24 O 0.15307 0.48726 0.01617 0.0
O25 O 0.14351 0.43763 0.99785 0.0
O26 O 0.20939 0.46311 0.95332 0.0
O27 O 0.17903 0.42668 0.91056 0.0
C28 C -0.0007 0.40518 0.92954 0.0
C29 C 0.0013 0.38321 0.96627 0.0
H30 H 0.01613 0.34323 0.03884 0.0
H31 H 0.08012 0.3325 0.07075 0.0
H32 H 0.06709 0.47399 0.83674 0.0
H33 H 0.00626 0.45031 0.86205 0.0
H34 H 0.972 0.41115 0.91491 0.0
H35 H 0.97549 0.37277 0.97949 0.0
Mn36 Mn 0.534 0.16205 0.52659 0.0
Mn37 Mn 0.49501 0.23389 0.52658 0.0
C38 C 0.51934 0.18483 0.59676 0.0
C39 C 0.52331 0.10874 0.51715 0.0
C40 C 0.57885 0.22182 0.51256 0.0
O41 O 0.52129 0.17 0.45891 0.0
O42 O 0.4882 0.21481 0.46326 0.0
C43 C 0.41501 0.21456 0.51734 0.0
N44 N 0.44258 0.22982 0.54157 0.0
C45 C 0.39872 0.2443 0.60217 0.0
C46 C 0.36976 0.22896 0.57768 0.0
C47 C 0.37797 0.21399 0.53511 0.0
C48 C 0.43504 0.24416 0.58266 0.0
H49 H 0.42132 0.20281 0.48481 0.0
C50 C 0.50218 0.19184 0.44022 0.0
O51 O 0.55657 0.12079 0.50946 0.0
O52 O 0.49672 0.12767 0.53007 0.0
N53 N 0.49936 0.25565 0.58483 0.0
C54 C 0.53039 0.26976 0.60371 0.0
C55 C 0.52703 0.28578 0.64642 0.0
C56 C 0.49176 0.28745 0.66893 0.0
C57 C 0.46001 0.27354 0.6481 0.0
C58 C 0.46502 0.25817 0.60529 0.0
H59 H 0.55757 0.26853 0.58657 0.0
O60 O 0.54117 0.1605 0.59526 0.0
O61 O 0.50447 0.19369 0.55716 0.0
O62 O 0.57869 0.19234 0.5203 0.0
O63 O 0.54929 0.23912 0.51235 0.0
C64 C 0.42366 0.27411 0.66831 0.0
C65 C 0.39305 0.25944 0.64541 0.0
H66 H 0.34119 0.22837 0.59136 0.0
H67 H 0.35583 0.20196 0.51613 0.0
H68 H 0.55161 0.29665 0.66209 0.0
H69 H 0.48936 0.29952 0.70212 0.0
H70 H 0.41896 0.28563 0.70156 0.0
H71 H 0.36527 0.25989 0.66141 0.0
Mn72 Mn 0.7999 0.54215 0.02295 0.0
Mn73 Mn 0.84423 0.58696 0.9428 0.0
C74 C 0.85928 0.52837 0.99783 0.0
C75 C 0.78551 0.53292 0.10125 0.0
C76 C 0.78049 0.54184 0.91963 0.0
O77 O 0.76975 0.58237 0.02231 0.0
O78 O 0.80603 0.61285 0.97606 0.0
C79 C 0.8844 0.63132 0.00488 0.0
N80 N 0.88534 0.60934 0.97042 0.0
C81 C 0.95286 0.61438 0.9628 0.0
C82 C 0.9526 0.63724 0.998 0.0
C83 C 0.91822 0.64568 0.0192 0.0
C84 C 0.91825 0.60102 0.94979 0.0
H85 H 0.85804 0.63782 0.02131 0.0
C86 C 0.77792 0.60865 0.00368 0.0
O87 O 0.76382 0.52239 0.06806 0.0
O88 O 0.81467 0.54932 0.08877 0.0
N89 N 0.88222 0.56474 0.90851 0.0
C90 C 0.87797 0.5407 0.87762 0.0
C91 C 0.90991 0.5285 0.85482 0.0
C92 C 0.94581 0.5413 0.86369 0.0
C93 C 0.94944 0.5662 0.89531 0.0
C94 C 0.91659 0.57744 0.91691 0.0
H95 H 0.85047 0.53075 0.87063 0.0
O96 O 0.8377 0.50789 0.01815 0.0
O97 O 0.84578 0.55656 0.99405 0.0
O98 O 0.77733 0.52933 0.95993 0.0
O99 O 0.80299 0.56444 0.91045 0.0
C100 C 0.98445 0.5799 0.90694 0.0
C101 C 0.98619 0.6039 0.94076 0.0
H102 H 0.97865 0.64824 0.00933 0.0
H103 H 0.91782 0.66318 0.04655 0.0
H104 H 0.90687 0.50924 0.83053 0.0
H105 H 0.97041 0.53166 0.84632 0.0
H106 H 0.0103 0.57185 0.89054 0.0
H107 H 0.01337 0.61386 0.94999 0.0
Mn108 Mn 0.46556 0.82312 0.52978 0.0
Mn109 Mn 0.50846 0.75275 0.53111 0.0
C110 C 0.4773 0.79955 0.59995 0.0
C111 C 0.47311 0.87702 0.52369 0.0
C112 C 0.42472 0.76092 0.51291 0.0
O113 O 0.48387 0.81796 0.46379 0.0
O114 O 0.51345 0.77161 0.46731 0.0
C115 C 0.58666 0.77656 0.52116 0.0
N116 N 0.56048 0.75992 0.54574 0.0
C117 C 0.60552 0.74853 0.60643 0.0
C118 C 0.63307 0.76533 0.58158 0.0
C119 C 0.62357 0.77943 0.53879 0.0
C120 C 0.56925 0.7464 0.58706 0.0
H121 H 0.57935 0.78765 0.48845 0.0
C122 C 0.50214 0.79579 0.44484 0.0
O123 O 0.44133 0.8637 0.5121 0.0
O124 O 0.49979 0.85906 0.53909 0.0
N125 N 0.50613 0.73105 0.58955 0.0
C126 C 0.47649 0.71506 0.60854 0.0
C127 C 0.48125 0.69956 0.65145 0.0
C128 C 0.51655 0.70026 0.67398 0.0
C129 C 0.54696 0.71598 0.65295 0.0
C130 C 0.54059 0.73079 0.60998 0.0
H131 H 0.4493 0.71448 0.59135 0.0
O132 O 0.45344 0.82249 0.59726 0.0
O133 O 0.49551 0.79236 0.56169 0.0
O134 O 0.42361 0.79078 0.51698 0.0
O135 O 0.45486 0.74462 0.51751 0.0
C136 C 0.58328 0.71773 0.67305 0.0
C137 C 0.61252 0.73404 0.64986 0.0
H138 H 0.66154 0.76769 0.59514 0.0
H139 H 0.64462 0.79258 0.51952 0.0
H140 H 0.45772 0.68725 0.66724 0.0
H141 H 0.52001 0.68855 0.70729 0.0
H142 H 0.58899 0.7067 0.70641 0.0
H143 H 0.64027 0.73534 0.66576 0.0
Mn144 Mn 0.19011 0.54522 0.50403 0.0
Mn145 Mn 0.14056 0.59211 0.57684 0.0
C146 C 0.13036 0.53066 0.52693 0.0
C147 C 0.2089 0.53345 0.42781 0.0
C148 C 0.20369 0.54917 0.60941 0.0
O149 O 0.21864 0.58618 0.50205 0.0
O150 O 0.18084 0.61705 0.54556 0.0
C151 C 0.10464 0.63349 0.50684 0.0
N152 N 0.10145 0.6132 0.54333 0.0
C153 C 0.03381 0.6192 0.54507 0.0
C154 C 0.03637 0.64035 0.5077 0.0
C155 C 0.07193 0.64743 0.4884 0.0
C156 C 0.06738 0.60608 0.562 0.0
H157 H 0.13194 0.639 0.49197 0.0
C158 C 0.20958 0.61267 0.51908 0.0
O159 O 0.22888 0.52451 0.46353 0.0
O160 O 0.17837 0.54918 0.43646 0.0
N161 N 0.10043 0.57144 0.60958 0.0
C162 C 0.10263 0.54911 0.64351 0.0
C163 C 0.06935 0.53848 0.66519 0.0
C164 C 0.03426 0.55121 0.65229 0.0
C165 C 0.03277 0.57447 0.61777 0.0
C166 C 0.06686 0.58412 0.59734 0.0
H167 H 0.12952 0.53934 0.65374 0.0
O168 O 0.15359 0.5101 0.50993 0.0
O169 O 0.14232 0.55948 0.52848 0.0
O170 O 0.21049 0.5361 0.57006 0.0
O171 O 0.17934 0.57094 0.61473 0.0
C172 C -0.00125 0.58808 0.60222 0.0
C173 C -0.00076 0.6103 0.56574 0.0
H174 H 0.0112 0.65109 0.49331 0.0
H175 H 0.07412 0.66362 0.45942 0.0
H176 H 0.07074 0.52051 0.69179 0.0
H177 H 0.00864 0.5428 0.66888 0.0
H178 H 0.97198 0.58134 0.61768 0.0
H179 H 0.97283 0.62018 0.55356 0.0
Mn180 Mn 0.45699 0.16499 0.00223 0.0
Mn181 Mn 0.49935 0.23556 0.0025 0.0
C182 C 0.47192 0.18774 0.93215 0.0
C183 C 0.46572 0.11139 0.01066 0.0
C184 C 0.41513 0.22602 0.01779 0.0
O185 O 0.47094 0.17205 0.06971 0.0
O186 O 0.50571 0.21605 0.06562 0.0
C187 C 0.57841 0.21374 0.01063 0.0
N188 N 0.55142 0.22991 0.98683 0.0
C189 C 0.59543 0.24306 0.92567 0.0
C190 C 0.62381 0.22676 0.94971 0.0
C191 C 0.61524 0.21201 0.99235 0.0
C192 C 0.55931 0.24407 0.9457 0.0
H193 H 0.57181 0.20214 0.0432 0.0
C194 C 0.49105 0.19326 0.08849 0.0
O195 O 0.43299 0.12411 0.0192 0.0
O196 O 0.49276 0.1298 0.9974 0.0
N197 N 0.4956 0.2576 0.94444 0.0
C198 C 0.46508 0.27257 0.92591 0.0
C199 C 0.46883 0.28846 0.88314 0.0
C200 C 0.50397 0.28907 0.86018 0.0
C201 C 0.53521 0.27422 0.88061 0.0
C202 C 0.52985 0.25904 0.92352 0.0
H203 H 0.43799 0.27213 0.94337 0.0
O204 O 0.44888 0.16415 0.9337 0.0
O205 O 0.48764 0.19588 0.97161 0.0
O206 O 0.41381 0.19655 0.00994 0.0
O207 O 0.4455 0.24241 0.01744 0.0
C208 C 0.57138 0.27365 0.85991 0.0
C209 C 0.60145 0.25803 0.88238 0.0
H210 H 0.6522 0.22527 0.93564 0.0
H211 H 0.63693 0.19925 0.01098 0.0
H212 H 0.44464 0.30003 0.86777 0.0
H213 H 0.50665 0.30104 0.82696 0.0
H214 H 0.57633 0.28501 0.82659 0.0
H215 H 0.62907 0.25759 0.86598 0.0
Mn216 Mn 0.80227 0.44847 0.51108 0.0
Mn217 Mn 0.84758 0.40286 0.58919 0.0
C218 C 0.86154 0.4625 0.53627 0.0
C219 C 0.78753 0.45889 0.43325 0.0
C220 C 0.78346 0.44694 0.61467 0.0
O221 O 0.77264 0.40796 0.51041 0.0
O222 O 0.80918 0.37718 0.55574 0.0
C223 C 0.88742 0.35982 0.52482 0.0
N224 N 0.88857 0.38127 0.56002 0.0
C225 C 0.95628 0.37703 0.56568 0.0
C226 C 0.9558 0.35472 0.5297 0.0
C227 C 0.92122 0.34614 0.50913 0.0
C228 C 0.92167 0.38969 0.58009 0.0
H229 H 0.8609 0.35325 0.50882 0.0
C230 C 0.78095 0.38155 0.52841 0.0
O231 O 0.76577 0.46858 0.46694 0.0
O232 O 0.81694 0.44262 0.44494 0.0
N233 N 0.88575 0.42483 0.62358 0.0
C234 C 0.88162 0.44827 0.65549 0.0
C235 C 0.91372 0.4605 0.67794 0.0
C236 C 0.94968 0.44838 0.66761 0.0
C237 C 0.95319 0.42407 0.63496 0.0
C238 C 0.92017 0.41271 0.61385 0.0
H239 H 0.85408 0.45774 0.66355 0.0
O240 O 0.83958 0.48308 0.51694 0.0
O241 O 0.84846 0.4341 0.53905 0.0
O242 O 0.77975 0.45989 0.57474 0.0
O243 O 0.80648 0.42458 0.62296 0.0
C244 C 0.98824 0.41112 0.6218 0.0
C245 C 0.9898 0.38767 0.58711 0.0
H246 H 0.98183 0.34427 0.51728 0.0
H247 H 0.92064 0.32907 0.48118 0.0
H248 H 0.91077 0.4793 0.70304 0.0
H249 H 0.97441 0.45807 0.68467 0.0
H250 H 0.01424 0.41935 0.63765 0.0
H251 H 0.01698 0.37827 0.57675 0.0
Mn252 Mn 0.53008 0.82687 0.00544 0.0
Mn253 Mn 0.49313 0.7541 0.00655 0.0
C254 C 0.51753 0.80275 0.9359 0.0
C255 C 0.51863 0.88016 0.0128 0.0
C256 C 0.57636 0.76769 0.02085 0.0
O257 O 0.51549 0.82014 0.07266 0.0
O258 O 0.48715 0.77313 0.07 0.0
C259 C 0.41308 0.77274 0.01753 0.0
N260 N 0.44045 0.75766 0.99275 0.0
C261 C 0.39594 0.74283 0.93307 0.0
C262 C 0.36719 0.75798 0.95814 0.0
C263 C 0.37582 0.77302 1.00053 0.0
C264 C 0.43251 0.74327 0.95181 0.0
H265 H 0.41971 0.78455 0.04991 0.0
C266 C 0.49847 0.79745 0.0922 0.0
O267 O 0.55179 0.86853 0.02202 0.0
O268 O 0.49257 0.86086 0.99925 0.0
N269 N 0.49684 0.73214 0.94842 0.0
C270 C 0.52766 0.71795 0.9292 0.0
C271 C 0.52387 0.70176 0.88669 0.0
C272 C 0.48837 0.69995 0.86478 0.0
C273 C 0.45683 0.71384 0.88606 0.0
C274 C 0.46229 0.72941 0.92863 0.0
H275 H 0.555 0.7193 0.9459 0.0
O276 O 0.53904 0.82733 0.93722 0.0
O277 O 0.50174 0.79429 0.97522 0.0
O278 O 0.57521 0.7973 0.01448 0.0
O279 O 0.54754 0.74954 0.01952 0.0
C280 C 0.42024 0.713 0.8666 0.0
C281 C 0.38983 0.72755 0.89003 0.0
H282 H 0.33844 0.75833 0.94508 0.0
H283 H 0.35383 0.78491 0.01995 0.0
H284 H 0.54828 0.69087 0.87071 0.0
H285 H 0.48563 0.68773 0.83176 0.0
H286 H 0.41519 0.70133 0.83355 0.0
H287 H 0.36186 0.72687 0.87462 0.0
H288 H 0.19753 0.43254 0.17481 0.0
H289 H 0.24753 0.51862 0.1254 0.0
H290 H 0.20629 0.44968 0.25559 0.0
H291 H 0.25537 0.53619 0.20665 0.0
H292 H 0.1896 0.56465 0.34867 0.0
H293 H 0.19984 0.54828 0.26778 0.0
H294 H 0.26012 0.46674 0.31613 0.0
H295 H 0.2507 0.48357 0.39743 0.0
C296 C 0.21094 0.45493 0.18131 0.0
C297 C 0.22173 0.47433 0.14395 0.0
C298 C 0.21613 0.46464 0.2275 0.0
C299 C 0.23147 0.49423 0.23725 0.0
C300 C 0.24352 0.51324 0.19994 0.0
C301 C 0.23915 0.50317 0.1536 0.0
C302 C 0.20564 0.54353 0.34202 0.0
C303 C 0.21918 0.52527 0.37925 0.0
C304 C 0.21172 0.5343 0.29576 0.0
C305 C 0.23077 0.50629 0.28582 0.0
C306 C 0.24538 0.48848 0.32298 0.0
C307 C 0.24006 0.49812 0.36936 0.0
H308 H 0.45172 0.18517 0.64117 0.0
H309 H 0.56855 0.21202 0.65615 0.0
H310 H 0.44109 0.1955 0.7239 0.0
H311 H 0.5579 0.22442 0.73846 0.0
H312 H 0.53961 0.18543 0.88819 0.0
H313 H 0.55091 0.19422 0.80524 0.0
H314 H 0.43589 0.22719 0.78947 0.0
H315 H 0.42445 0.21635 0.87212 0.0
C316 C 0.47466 0.1946 0.66199 0.0
C317 C 0.51067 0.19848 0.64249 0.0
C318 C 0.4687 0.20066 0.70945 0.0
C319 C 0.49875 0.21063 0.73833 0.0
C320 C 0.53429 0.21616 0.71774 0.0
C321 C 0.54035 0.20945 0.67055 0.0
C322 C 0.51727 0.19546 0.86707 0.0
C323 C 0.48148 0.20085 0.88632 0.0
C324 C 0.52362 0.20061 0.81945 0.0
C325 C 0.49417 0.21119 0.79017 0.0
C326 C 0.459 0.2184 0.81051 0.0
C327 C 0.45251 0.21259 0.85789 0.0
H328 H 0.83452 0.44802 0.3601 0.0
H329 H 0.72693 0.49009 0.39479 0.0
H330 H 0.82882 0.46717 0.28037 0.0
H331 H 0.72114 0.50893 0.31377 0.0
H332 H 0.72654 0.50005 0.14071 0.0
H333 H 0.72183 0.48185 0.22215 0.0
H334 H 0.82684 0.52858 0.25441 0.0
H335 H 0.83145 0.54706 0.17419 0.0
C336 C 0.80936 0.46099 0.3506 0.0
C337 C 0.7813 0.46777 0.38389 0.0
C338 C 0.80621 0.47198 0.30494 0.0
C339 C 0.77473 0.48966 0.29129 0.0
C340 C 0.74565 0.49529 0.32369 0.0
C341 C 0.74904 0.48459 0.36989 0.0
C342 C 0.74824 0.50682 0.16545 0.0
C343 C 0.77953 0.52475 0.15095 0.0
C344 C 0.74545 0.4965 0.2119 0.0
C345 C 0.77417 0.50366 0.24409 0.0
C346 C 0.80452 0.52258 0.23001 0.0
C347 C 0.80707 0.53318 0.18407 0.0
H348 H 0.45064 0.80113 0.89014 0.0
H349 H 0.56808 0.77562 0.87832 0.0
H350 H 0.44164 0.79054 0.80723 0.0
H351 H 0.55906 0.76285 0.79587 0.0
H352 H 0.54369 0.80266 0.64643 0.0
H353 H 0.55317 0.79351 0.72956 0.0
H354 H 0.4382 0.75929 0.74107 0.0
H355 H 0.42855 0.77052 0.65818 0.0
C356 C 0.47406 0.79189 0.86998 0.0
C357 C 0.50979 0.78856 0.89034 0.0
C358 C 0.46904 0.78568 0.82242 0.0
C359 C 0.49977 0.77608 0.79439 0.0
C360 C 0.53497 0.77087 0.81593 0.0
C361 C 0.54011 0.77779 0.86319 0.0
C362 C 0.52096 0.79232 0.66668 0.0
C363 C 0.48571 0.78667 0.64618 0.0
C364 C 0.52628 0.78693 0.71438 0.0
C365 C 0.49631 0.77582 0.74247 0.0
C366 C 0.46167 0.76845 0.72091 0.0
C367 C 0.45619 0.77451 0.67343 0.0
H368 H 0.74927 0.41668 0.68704 0.0
H369 H 0.77655 0.50853 0.63456 0.0
H370 H 0.73116 0.4393 0.76204 0.0
H371 H 0.76182 0.53111 0.71005 0.0
H372 H 0.74386 0.57031 0.84762 0.0
H373 H 0.72736 0.54675 0.77269 0.0
H374 H 0.76402 0.45663 0.82501 0.0
H375 H 0.7771 0.47999 0.90043 0.0
C376 C 0.75074 0.44183 0.6915 0.0
C377 C 0.76441 0.46092 0.65534 0.0
C378 C 0.74085 0.45484 0.73465 0.0
C379 C 0.74591 0.48706 0.74309 0.0
C380 C 0.75697 0.50631 0.70538 0.0
C381 C 0.76567 0.49338 0.66183 0.0
C382 C 0.74691 0.54525 0.84328 0.0
C383 C 0.76181 0.52691 0.87948 0.0
C384 C 0.73799 0.53173 0.80016 0.0
C385 C 0.74531 0.49981 0.79179 0.0
C386 C 0.75748 0.48116 0.82961 0.0
C387 C 0.76519 0.49454 0.87313 0.0
H388 H 0.47366 0.751 0.15149 0.0
H389 H 0.51798 0.84539 0.1504 0.0
H390 H 0.47685 0.7507 0.23686 0.0
H391 H 0.52235 0.84458 0.23481 0.0
H392 H 0.48732 0.84511 0.38734 0.0
H393 H 0.48415 0.84519 0.30285 0.0
H394 H 0.5236 0.74956 0.29984 0.0
H395 H 0.52555 0.74902 0.38532 0.0
C396 C 0.48373 0.77175 0.16933 0.0
C397 C 0.4955 0.79821 0.14392 0.0
C398 C 0.48606 0.77141 0.21823 0.0
C399 C 0.50018 0.79751 0.24267 0.0
C400 C 0.51099 0.82418 0.21724 0.0
C401 C 0.50852 0.82458 0.16863 0.0
C402 C 0.49573 0.8241 0.36887 0.0
C403 C 0.50657 0.79699 0.39332 0.0
C404 C 0.49399 0.82421 0.32022 0.0
C405 C 0.50334 0.79731 0.2945 0.0
C406 C 0.51555 0.77049 0.3187 0.0
C407 C 0.51719 0.77033 0.36765 0.0
H408 H 0.24289 0.5038 0.90142 0.0
H409 H 0.19951 0.42307 0.82765 0.0
H410 H 0.25901 0.52814 0.82672 0.0
H411 H 0.21424 0.44764 0.75376 0.0
H412 H 0.24093 0.49324 0.62159 0.0
H413 H 0.25603 0.4683 0.69614 0.0
H414 H 0.21917 0.55133 0.76938 0.0
H415 H 0.20553 0.57642 0.69554 0.0
C416 C 0.23744 0.49098 0.86944 0.0
C417 C 0.21916 0.46175 0.87062 0.0
C418 C 0.2465 0.505 0.82658 0.0
C419 C 0.2374 0.49012 0.78406 0.0
C420 C 0.22201 0.45981 0.78556 0.0
C421 C 0.21311 0.4458 0.82821 0.0
C422 C 0.2372 0.50648 0.65356 0.0
C423 C 0.22123 0.53657 0.65259 0.0
C424 C 0.24558 0.49211 0.69635 0.0
C425 C 0.23812 0.50753 0.73893 0.0
C426 C 0.22551 0.53868 0.73752 0.0
C427 C 0.21727 0.55302 0.69494 0.0
H428 H 0.55243 0.16719 0.37878 0.0
H429 H 0.44654 0.21744 0.38522 0.0
H430 H 0.55074 0.16927 0.29353 0.0
H431 H 0.44452 0.21866 0.29928 0.0
H432 H 0.44075 0.16856 0.14988 0.0
H433 H 0.44285 0.16994 0.23507 0.0
H434 H 0.54991 0.21833 0.22957 0.0
H435 H 0.54751 0.21781 0.14359 0.0
C436 C 0.52856 0.17838 0.36197 0.0
C437 C 0.49939 0.19193 0.38866 0.0
C438 C 0.52788 0.17982 0.31325 0.0
C439 C 0.49766 0.19425 0.29017 0.0
C440 C 0.46816 0.20747 0.31657 0.0
C441 C 0.46928 0.20672 0.36553 0.0
C442 C 0.46491 0.17938 0.16669 0.0
C443 C 0.49418 0.19288 0.14004 0.0
C444 C 0.46583 0.18041 0.21541 0.0
C445 C 0.49638 0.19437 0.23856 0.0
C446 C 0.52602 0.20749 0.21222 0.0
C447 C 0.52468 0.20714 0.16324 0.0
H448 H 0.91992 0.56055 0.02941 0.0
H449 H 0.88754 0.47767 0.95314 0.0
H450 H 0.98661 0.54551 0.02303 0.0
H451 H 0.95424 0.46192 0.94853 0.0
H452 H 0.10244 0.51478 0.95078 0.0
H453 H 0.03596 0.53087 0.94475 0.0
H454 H 0.00285 0.4519 0.02938 0.0
H455 H 0.06944 0.4367 0.03724 0.0
C456 C 0.92731 0.53958 0.0102 0.0
C457 C 0.89913 0.52086 0.98999 0.0
C458 C 0.96521 0.53089 0.00693 0.0
C459 C 0.97517 0.50277 0.98493 0.0
C460 C 0.94698 0.4838 0.96526 0.0
C461 C 0.9091 0.49279 0.96784 0.0
C462 C 0.08078 0.50076 0.96754 0.0
C463 C 0.09048 0.47382 0.9928 0.0
C464 C 0.04301 0.50991 0.96407 0.0
C465 C 0.01465 0.49221 0.98588 0.0
C466 C 0.02439 0.46544 0.01151 0.0
C467 C 0.06221 0.45664 0.01567 0.0
H468 H 0.53604 0.90924 0.54899 0.0
H469 H 0.4253 0.92156 0.48785 0.0
H470 H 0.54782 0.96499 0.54262 0.0
H471 H 0.43752 0.97773 0.48043 0.0
H472 H 0.45679 0.07871 0.53369 0.0
H473 H 0.44427 0.02284 0.53117 0.0
H474 H 0.55935 0.00622 0.48663 0.0
H475 H 0.57221 0.06237 0.49032 0.0
C476 C 0.51424 0.92386 0.53387 0.0
C477 C 0.47962 0.91101 0.51911 0.0
C478 C 0.52119 0.95584 0.52981 0.0
C479 C 0.49374 0.97581 0.51077 0.0
C480 C 0.45913 0.96297 0.49564 0.0
C481 C 0.45213 0.93084 0.49979 0.0
C482 C 0.47943 0.06319 0.5231 0.0
C483 C 0.51563 0.07491 0.51257 0.0
C484 C 0.47211 0.03114 0.52129 0.0
C485 C 0.5008 0.01004 0.50882 0.0
C486 C 0.53677 0.02185 0.49703 0.0
C487 C 0.54413 0.05399 0.49894 0.0
H488 H 0.1055 0.48078 0.57656 0.0
H489 H 0.06759 0.55842 0.49251 0.0
H490 H 0.03976 0.46287 0.58498 0.0
H491 H 0.00183 0.54139 0.50274 0.0
H492 H 0.88949 0.51262 0.58277 0.0
H493 H 0.9559 0.52942 0.58622 0.0
H494 H 0.98876 0.44784 0.50732 0.0
H495 H 0.92231 0.43174 0.50221 0.0
C496 C 0.08294 0.4943 0.56084 0.0
C497 C 0.09104 0.52164 0.53559 0.0
C498 C 0.04561 0.48411 0.56567 0.0
C499 C 0.01612 0.50119 0.54523 0.0
C500 C 0.02427 0.52833 0.51958 0.0
C501 C 0.06162 0.53817 0.51407 0.0
C502 C 0.91111 0.49812 0.56692 0.0
C503 C 0.90135 0.47034 0.54379 0.0
C504 C 0.94882 0.50771 0.56885 0.0
C505 C 0.97705 0.48965 0.54751 0.0
C506 C 0.96734 0.46175 0.52471 0.0
C507 C 0.92958 0.45245 0.52213 0.0
H508 H 0.45308 0.90993 0.99063 0.0
H509 H 0.56535 0.92652 0.04503 0.0
H510 H 0.43971 0.96565 0.99444 0.0
H511 H 0.55157 0.9824 0.05007 0.0
H512 H 0.41663 0.06569 0.04056 0.0
H513 H 0.42921 0.0095 0.0465 0.0
H514 H 0.54296 0.02481 0.99588 0.0
H515 H 0.53081 0.0805 0.99115 0.0
C516 C 0.47482 0.92547 0.00385 0.0
C517 C 0.51042 0.91389 0.01718 0.0
C518 C 0.467 0.95741 0.00641 0.0
C519 C 0.49456 0.9785 0.02249 0.0
C520 C 0.5299 0.9668 0.03687 0.0
C521 C 0.53778 0.93481 0.03414 0.0
C522 C 0.44432 0.05697 0.03098 0.0
C523 C 0.47266 0.07748 0.01531 0.0
C524 C 0.45151 0.02483 0.03421 0.0
C525 C 0.48715 0.01269 0.02176 0.0
C526 C 0.51546 0.03337 0.00656 0.0
C527 C 0.50833 0.06535 0.00347 0.0
H528 H 0.19865 0.3237 0.99721 0.0
H529 H 0.2866 0.39 0.03247 0.0
H530 H 0.24293 0.2807 0.00924 0.0
H531 H 0.33093 0.34746 0.04259 0.0
H532 H 0.4022 0.26934 0.08447 0.0
H533 H 0.34861 0.30491 0.08953 0.0
H534 H 0.29659 0.25827 0.97158 0.0
H535 H 0.3495 0.22159 0.9686 0.0
C536 C 0.22741 0.32909 0.0075 0.0
C537 C 0.23918 0.36026 0.01373 0.0
C538 C 0.25279 0.30446 0.01428 0.0
C539 C 0.29048 0.31055 0.02701 0.0
C540 C 0.30193 0.34175 0.03389 0.0
C541 C 0.27654 0.36627 0.02767 0.0
C542 C 0.37875 0.26631 0.06048 0.0
C543 C 0.37982 0.24306 0.02596 0.0
C544 C 0.34824 0.2868 0.06304 0.0
C545 C 0.31872 0.28497 0.03023 0.0
C546 C 0.31871 0.26028 0.99758 0.0
C547 C 0.34897 0.23929 0.99573 0.0
H548 H 0.70996 0.38343 0.49183 0.0
H549 H 0.79489 0.31914 0.54251 0.0
H550 H 0.66636 0.34043 0.4811 0.0
H551 H 0.75141 0.27552 0.52989 0.0
H552 H 0.64161 0.21898 0.56709 0.0
H553 H 0.69541 0.2549 0.56449 0.0
H554 H 0.65098 0.29584 0.4375 0.0
H555 H 0.59632 0.26118 0.44216 0.0
C556 C 0.7196 0.35999 0.49985 0.0
C557 C 0.7558 0.35476 0.51836 0.0
C558 C 0.69464 0.33518 0.49328 0.0
C559 C 0.70538 0.30438 0.50439 0.0
C560 C 0.74207 0.29898 0.52151 0.0
C561 C 0.767 0.32395 0.52862 0.0
C562 C 0.64407 0.2352 0.53813 0.0
C563 C 0.61501 0.23774 0.50507 0.0
C564 C 0.67485 0.25574 0.53647 0.0
C565 C 0.67714 0.27872 0.50126 0.0
C566 C 0.64953 0.2791 0.46588 0.0
C567 C 0.61845 0.25912 0.4682 0.0
H568 H 0.79188 0.67088 0.98783 0.0
H569 H 0.70741 0.60717 0.04194 0.0
H570 H 0.7489 0.71468 1.00083 0.0
H571 H 0.66429 0.65039 0.05316 0.0
H572 H 0.59534 0.7299 0.09241 0.0
H573 H 0.65019 0.69551 0.09657 0.0
H574 H 0.69228 0.73494 0.96718 0.0
H575 H 0.63831 0.77058 0.965 0.0
C576 C 0.76419 0.66622 0.00253 0.0
C577 C 0.75297 0.63552 0.01365 0.0
C578 C 0.73956 0.69131 0.00989 0.0
C579 C 0.70316 0.68614 0.02816 0.0
C580 C 0.69239 0.65546 0.04008 0.0
C581 C 0.71706 0.63052 0.03322 0.0
C582 C 0.61709 0.73177 0.06581 0.0
C583 C 0.61293 0.75261 0.02838 0.0
C584 C 0.64824 0.71193 0.06782 0.0
C585 C 0.67516 0.71189 0.03159 0.0
C586 C 0.67225 0.73443 0.99583 0.0
C587 C 0.6414 0.75483 0.99445 0.0
H588 H 0.35123 0.78137 0.52181 0.0
H589 H 0.41834 0.70078 0.48351 0.0
H590 H 0.29368 0.74979 0.51416 0.0
H591 H 0.36171 0.66953 0.47717 0.0
H592 H 0.25769 0.61949 0.4454 0.0
H593 H 0.30481 0.66035 0.43402 0.0
H594 H 0.26576 0.70684 0.5593 0.0
H595 H 0.21764 0.66652 0.56973 0.0
C596 C 0.35369 0.75713 0.51122 0.0
C597 C 0.38937 0.74352 0.50376 0.0
C598 C 0.32081 0.73904 0.50708 0.0
C599 C 0.32313 0.70717 0.49506 0.0
C600 C 0.35875 0.6941 0.48572 0.0
C601 C 0.39138 0.71201 0.48993 0.0
C602 C 0.25881 0.63869 0.47013 0.0
C603 C 0.23455 0.6395 0.509 0.0
C604 C 0.28578 0.66208 0.46362 0.0
C605 C 0.28946 0.6865 0.49624 0.0
C606 C 0.26351 0.68845 0.53338 0.0
C607 C 0.23613 0.66521 0.53957 0.0
loop_
_geom_bond_atom_site_label_1
_geom_bond_atom_site_label_2
_geom_bond_distance
_geom_bond_site_symmetry_2
_ccdc_geom_bond_type
Mn0 O5 2.095 . S
Mn0 O15 2.162 . S
Mn0 O16 2.297 . S
Mn0 O24 2.385 . S
Mn0 O25 2.209 . S
Mn0 O26 2.094 1_554 S
Mn1 O6 2.121 . S
Mn1 N8 2.257 . S
Mn1 N17 2.282 . S
Mn1 O25 2.215 1_556 S
Mn1 O27 2.117 . S
C2 O24 1.234 . S
C2 O25 1.283 . S
C3 O15 1.281 . S
C3 O16 1.236 . S
C4 O26 1.240 . S
C4 O27 1.264 . S
O5 Mn0 2.095 . S
O5 C14 1.250 . S
O6 Mn1 2.121 . S
O6 C14 1.258 1_556 S
C7 N8 1.326 . S
C7 C11 1.460 . S
C7 H13 0.929 . S
N8 Mn1 2.257 . S
N8 C7 1.326 . S
N8 C12 1.362 . S
C9 C10 1.258 . S
C9 C12 1.431 . S
C9 C29 1.449 . S
C10 C9 1.258 . S
C10 C11 1.477 . S
C10 H30 0.931 . S
C11 C7 1.460 . S
C11 C10 1.477 . S
C11 H31 0.930 . S
C12 N8 1.362 . S
C12 C9 1.431 . S
C12 C22 1.476 . S
H13 C7 0.929 . S
C14 O5 1.250 . S
C14 O6 1.258 1_554 S
O15 Mn0 2.162 . S
O15 C3 1.281 . S
O16 Mn0 2.297 . S
O16 C3 1.236 . S
N17 Mn1 2.282 . S
N17 C18 1.328 . S
N17 C22 1.318 . S
C18 N17 1.328 . S
C18 C19 1.457 . S
C18 H23 0.929 . S
C19 C18 1.457 . S
C19 C20 1.291 . S
C19 H32 0.931 . S
C20 C19 1.291 . S
C20 C21 1.373 . S
C20 H33 0.929 . S
C21 C20 1.373 . S
C21 C22 1.396 . S
C21 C28 1.403 . S
C22 C12 1.476 . S
C22 N17 1.318 . S
C22 C21 1.396 . S
H23 C18 0.929 . S
O24 Mn0 2.385 . S
O24 C2 1.234 . S
O25 Mn0 2.209 . S
O25 Mn1 2.215 1_554 S
O25 C2 1.283 . S
O26 Mn0 2.094 1_556 S
O26 C4 1.240 . S
O27 Mn1 2.117 . S
O27 C4 1.264 . S
C28 C21 1.403 . S
C28 C29 1.399 . S
C28 H34 0.929 1_455 S
C29 C9 1.449 . S
C29 C28 1.399 . S
C29 H35 0.930 . S
H30 C10 0.931 . S
H31 C11 0.930 . S
H32 C19 0.931 . S
H33 C20 0.929 . S
H34 C28 0.929 1_655 S
H35 C29 0.930 . S
Mn36 O41 2.095 . S
Mn36 O51 2.162 . S
Mn36 O52 2.297 . S
Mn36 O60 2.385 . S
Mn36 O61 2.209 . S
Mn36 O62 2.094 . S
Mn37 O42 2.121 . S
Mn37 N44 2.257 . S
Mn37 N53 2.282 . S
Mn37 O61 2.215 . S
Mn37 O63 2.117 . S
C38 O60 1.234 . S
C38 O61 1.283 . S
C39 O51 1.281 . S
C39 O52 1.236 . S
C40 O62 1.240 . S
C40 O63 1.264 . S
O41 Mn36 2.095 . S
O41 C50 1.250 . S
O42 Mn37 2.121 . S
O42 C50 1.258 . S
C43 N44 1.326 . S
C43 C47 1.460 . S
C43 H49 0.929 . S
N44 Mn37 2.257 . S
N44 C43 1.326 . S
N44 C48 1.362 . S
C45 C46 1.258 . S
C45 C48 1.431 . S
C45 C65 1.449 . S
C46 C45 1.258 . S
C46 C47 1.477 . S
C46 H66 0.931 . S
C47 C43 1.460 . S
C47 C46 1.477 . S
C47 H67 0.930 . S
C48 N44 1.362 . S
C48 C45 1.431 . S
C48 C58 1.476 . S
H49 C43 0.929 . S
C50 O41 1.250 . S
C50 O42 1.258 . S
O51 Mn36 2.162 . S
O51 C39 1.281 . S
O52 Mn36 2.297 . S
O52 C39 1.236 . S
N53 Mn37 2.282 . S
N53 C54 1.328 . S
N53 C58 1.318 . S
C54 N53 1.328 . S
C54 C55 1.457 . S
C54 H59 0.929 . S
C55 C54 1.457 . S
C55 C56 1.291 . S
C55 H68 0.931 . S
C56 C55 1.291 . S
C56 C57 1.373 . S
C56 H69 0.929 . S
C57 C56 1.373 . S
C57 C58 1.396 . S
C57 C64 1.403 . S
C58 C48 1.476 . S
C58 N53 1.318 . S
C58 C57 1.396 . S
H59 C54 0.929 . S
O60 Mn36 2.385 . S
O60 C38 1.234 . S
O61 Mn36 2.209 . S
O61 Mn37 2.215 . S
O61 C38 1.283 . S
O62 Mn36 2.094 . S
O62 C40 1.240 . S
O63 Mn37 2.117 . S
O63 C40 1.264 . S
C64 C57 1.403 . S
C64 C65 1.399 . S
C64 H70 0.929 . S
C65 C45 1.449 . S
C65 C64 1.399 . S
C65 H71 0.930 . S
H66 C46 0.931 . S
H67 C47 0.930 . S
H68 C55 0.931 . S
H69 C56 0.929 . S
H70 C64 0.929 . S
H71 C65 0.930 . S
Mn72 O77 2.095 . S
Mn72 O87 2.162 . S
Mn72 O88 2.297 . S
Mn72 O96 2.385 . S
Mn72 O97 2.209 . S
Mn72 O98 2.094 1_554 S
Mn73 O78 2.121 . S
Mn73 N80 2.257 . S
Mn73 N89 2.282 . S
Mn73 O97 2.215 1_556 S
Mn73 O99 2.117 . S
C74 O96 1.234 . S
C74 O97 1.283 . S
C75 O87 1.281 . S
C75 O88 1.236 . S
C76 O98 1.240 . S
C76 O99 1.264 . S
O77 Mn72 2.095 . S
O77 C86 1.250 . S
O78 Mn73 2.121 . S
O78 C86 1.258 1_556 S
C79 N80 1.326 . S
C79 C83 1.460 . S
C79 H85 0.929 . S
N80 Mn73 2.257 . S
N80 C79 1.326 . S
N80 C84 1.362 . S
C81 C82 1.258 . S
C81 C84 1.431 . S
C81 C101 1.449 . S
C82 C81 1.258 . S
C82 C83 1.477 . S
C82 H102 0.931 . S
C83 C79 1.460 . S
C83 C82 1.477 . S
C83 H103 0.930 . S
C84 N80 1.362 . S
C84 C81 1.431 . S
C84 C94 1.476 . S
H85 C79 0.929 . S
C86 O77 1.250 . S
C86 O78 1.258 1_554 S
O87 Mn72 2.162 . S
O87 C75 1.281 . S
O88 Mn72 2.297 . S
O88 C75 1.236 . S
N89 Mn73 2.282 . S
N89 C90 1.328 . S
N89 C94 1.318 . S
C90 N89 1.328 . S
C90 C91 1.457 . S
C90 H95 0.929 . S
C91 C90 1.457 . S
C91 C92 1.291 . S
C91 H104 0.931 . S
C92 C91 1.291 . S
C92 C93 1.373 . S
C92 H105 0.929 . S
C93 C92 1.373 . S
C93 C94 1.396 . S
C93 C100 1.403 . S
C94 C84 1.476 . S
C94 N89 1.318 . S
C94 C93 1.396 . S
H95 C90 0.929 . S
O96 Mn72 2.385 . S
O96 C74 1.234 . S
O97 Mn72 2.209 . S
O97 Mn73 2.215 1_554 S
O97 C74 1.283 . S
O98 Mn72 2.094 1_556 S
O98 C76 1.240 . S
O99 Mn73 2.117 . S
O99 C76 1.264 . S
C100 C93 1.403 . S
C100 C101 1.399 . S
C100 H106 0.929 1_655 S
C101 C81 1.449 . S
C101 C100 1.399 . S
C101 H107 0.930 . S
H102 C82 0.931 . S
H103 C83 0.930 . S
H104 C91 0.931 . S
H105 C92 0.929 . S
H106 C100 0.929 1_455 S
H107 C101 0.930 . S
Mn108 O113 2.095 . S
Mn108 O123 2.162 . S
Mn108 O124 2.297 . S
Mn108 O132 2.385 . S
Mn108 O133 2.209 . S
Mn108 O134 2.094 . S
Mn109 O114 2.121 . S
Mn109 N116 2.257 . S
Mn109 N125 2.282 . S
Mn109 O133 2.215 . S
Mn109 O135 2.117 . S
C110 O132 1.234 . S
C110 O133 1.283 . S
C111 O123 1.281 . S
C111 O124 1.236 . S
C112 O134 1.240 . S
C112 O135 1.264 . S
O113 Mn108 2.095 . S
O113 C122 1.250 . S
O114 Mn109 2.121 . S
O114 C122 1.258 . S
C115 N116 1.326 . S
C115 C119 1.460 . S
C115 H121 0.929 . S
N116 Mn109 2.257 . S
N116 C115 1.326 . S
N116 C120 1.362 . S
C117 C118 1.258 . S
C117 C120 1.431 . S
C117 C137 1.449 . S
C118 C117 1.258 . S
C118 C119 1.477 . S
C118 H138 0.931 . S
C119 C115 1.460 . S
C119 C118 1.477 . S
C119 H139 0.930 . S
C120 N116 1.362 . S
C120 C117 1.431 . S
C120 C130 1.476 . S
H121 C115 0.929 . S
C122 O113 1.250 . S
C122 O114 1.258 . S
O123 Mn108 2.162 . S
O123 C111 1.281 . S
O124 Mn108 2.297 . S
O124 C111 1.236 . S
N125 Mn109 2.282 . S
N125 C126 1.328 . S
N125 C130 1.318 . S
C126 N125 1.328 . S
C126 C127 1.457 . S
C126 H131 0.929 . S
C127 C126 1.457 . S
C127 C128 1.291 . S
C127 H140 0.931 . S
C128 C127 1.291 . S
C128 C129 1.373 . S
C128 H141 0.929 . S
C129 C128 1.373 . S
C129 C130 1.396 . S
C129 C136 1.403 . S
C130 C120 1.476 . S
C130 N125 1.318 . S
C130 C129 1.396 . S
H131 C126 0.929 . S
O132 Mn108 2.385 . S
O132 C110 1.234 . S
O133 Mn108 2.209 . S
O133 Mn109 2.215 . S
O133 C110 1.283 . S
O134 Mn108 2.094 . S
O134 C112 1.240 . S
O135 Mn109 2.117 . S
O135 C112 1.264 . S
C136 C129 1.403 . S
C136 C137 1.399 . S
C136 H142 0.929 . S
C137 C117 1.449 . S
C137 C136 1.399 . S
C137 H143 0.930 . S
H138 C118 0.931 . S
H139 C119 0.930 . S
H140 C127 0.931 . S
H141 C128 0.929 . S
H142 C136 0.929 . S
H143 C137 0.930 . S
Mn144 O149 2.095 . S
Mn144 O159 2.162 . S
Mn144 O160 2.297 . S
Mn144 O168 2.385 . S
Mn144 O169 2.209 . S
Mn144 O170 2.094 . S
Mn145 O150 2.121 . S
Mn145 N152 2.257 . S
Mn145 N161 2.282 . S
Mn145 O169 2.215 . S
Mn145 O171 2.117 . S
C146 O168 1.234 . S
C146 O169 1.283 . S
C147 O159 1.281 . S
C147 O160 1.236 . S
C148 O170 1.240 . S
C148 O171 1.264 . S
O149 Mn144 2.095 . S
O149 C158 1.250 . S
O150 Mn145 2.121 . S
O150 C158 1.258 . S
C151 N152 1.326 . S
C151 C155 1.460 . S
C151 H157 0.929 . S
N152 Mn145 2.257 . S
N152 C151 1.326 . S
N152 C156 1.362 . S
C153 C154 1.258 . S
C153 C156 1.431 . S
C153 C173 1.449 . S
C154 C153 1.258 . S
C154 C155 1.477 . S
C154 H174 0.931 . S
C155 C151 1.460 . S
C155 C154 1.477 . S
C155 H175 0.930 . S
C156 N152 1.362 . S
C156 C153 1.431 . S
C156 C166 1.476 . S
H157 C151 0.929 . S
C158 O149 1.250 . S
C158 O150 1.258 . S
O159 Mn144 2.162 . S
O159 C147 1.281 . S
O160 Mn144 2.297 . S
O160 C147 1.236 . S
N161 Mn145 2.282 . S
N161 C162 1.328 . S
N161 C166 1.318 . S
C162 N161 1.328 . S
C162 C163 1.457 . S
C162 H167 0.929 . S
C163 C162 1.457 . S
C163 C164 1.291 . S
C163 H176 0.931 . S
C164 C163 1.291 . S
C164 C165 1.373 . S
C164 H177 0.929 . S
C165 C164 1.373 . S
C165 C166 1.396 . S
C165 C172 1.403 . S
C166 C156 1.476 . S
C166 N161 1.318 . S
C166 C165 1.396 . S
H167 C162 0.929 . S
O168 Mn144 2.385 . S
O168 C146 1.234 . S
O169 Mn144 2.209 . S
O169 Mn145 2.215 . S
O169 C146 1.283 . S
O170 Mn144 2.094 . S
O170 C148 1.240 . S
O171 Mn145 2.117 . S
O171 C148 1.264 . S
C172 C165 1.403 . S
C172 C173 1.399 . S
C172 H178 0.929 1_455 S
C173 C153 1.449 . S
C173 C172 1.399 . S
C173 H179 0.930 . S
H174 C154 0.931 . S
H175 C155 0.930 . S
H176 C163 0.931 . S
H177 C164 0.929 . S
H178 C172 0.929 1_655 S
H179 C173 0.930 . S
Mn180 O185 2.095 . S
Mn180 O195 2.162 . S
Mn180 O196 2.297 . S
Mn180 O204 2.385 1_554 S
Mn180 O205 2.209 1_554 S
Mn180 O206 2.094 . S
Mn181 O186 2.121 . S
Mn181 N188 2.257 1_554 S
Mn181 N197 2.282 1_554 S
Mn181 O205 2.215 1_554 S
Mn181 O207 2.117 . S
C182 O204 1.234 . S
C182 O205 1.283 . S
C183 O195 1.281 . S
C183 O196 1.236 . S
C184 O206 1.240 . S
C184 O207 1.264 . S
O185 Mn180 2.095 . S
O185 C194 1.250 . S
O186 Mn181 2.121 . S
O186 C194 1.258 . S
C187 N188 1.326 1_554 S
C187 C191 1.464 . S
C187 H193 0.929 . S
N188 Mn181 2.257 1_556 S
N188 C187 1.326 1_556 S
N188 C192 1.362 . S
C189 C190 1.258 . S
C189 C192 1.431 . S
C189 C209 1.449 . S
C190 C189 1.258 . S
C190 C191 1.464 1_556 S
C190 H210 0.931 . S
C191 C187 1.464 . S
C191 C190 1.464 1_554 S
C191 H211 0.939 . S
C192 N188 1.362 . S
C192 C189 1.431 . S
C192 C202 1.476 . S
H193 C187 0.929 . S
C194 O185 1.250 . S
C194 O186 1.258 . S
O195 Mn180 2.162 . S
O195 C183 1.281 . S
O196 Mn180 2.297 . S
O196 C183 1.236 . S
N197 Mn181 2.282 1_556 S
N197 C198 1.328 . S
N197 C202 1.318 . S
C198 N197 1.328 . S
C198 C199 1.457 . S
C198 H203 0.929 . S
C199 C198 1.457 . S
C199 C200 1.291 . S
C199 H212 0.931 . S
C200 C199 1.291 . S
C200 C201 1.373 . S
C200 H213 0.929 . S
C201 C200 1.373 . S
C201 C202 1.396 . S
C201 C208 1.403 . S
C202 C192 1.476 . S
C202 N197 1.318 . S
C202 C201 1.396 . S
H203 C198 0.929 . S
O204 Mn180 2.385 1_556 S
O204 C182 1.234 . S
O205 Mn180 2.209 1_556 S
O205 Mn181 2.215 1_556 S
O205 C182 1.283 . S
O206 Mn180 2.094 . S
O206 C184 1.240 . S
O207 Mn181 2.117 . S
O207 C184 1.264 . S
C208 C201 1.403 . S
C208 C209 1.399 . S
C208 H214 0.929 . S
C209 C189 1.449 . S
C209 C208 1.399 . S
C209 H215 0.930 . S
H210 C190 0.931 . S
H211 C191 0.939 . S
H212 C199 0.931 . S
H213 C200 0.929 . S
H214 C208 0.929 . S
H215 C209 0.930 . S
Mn216 O221 2.095 . S
Mn216 O231 2.162 . S
Mn216 O232 2.297 . S
Mn216 O240 2.385 . S
Mn216 O241 2.209 . S
Mn216 O242 2.094 . S
Mn217 O222 2.121 . S
Mn217 N224 2.257 . S
Mn217 N233 2.282 . S
Mn217 O241 2.215 . S
Mn217 O243 2.117 . S
C218 O240 1.234 . S
C218 O241 1.283 . S
C219 O231 1.281 . S
C219 O232 1.236 . S
C220 O242 1.240 . S
C220 O243 1.264 . S
O221 Mn216 2.095 . S
O221 C230 1.250 . S
O222 Mn217 2.121 . S
O222 C230 1.258 . S
C223 N224 1.326 . S
C223 C227 1.460 . S
C223 H229 0.929 . S
N224 Mn217 2.257 . S
N224 C223 1.326 . S
N224 C228 1.362 . S
C225 C226 1.258 . S
C225 C228 1.431 . S
C225 C245 1.449 . S
C226 C225 1.258 . S
C226 C227 1.477 . S
C226 H246 0.931 . S
C227 C223 1.460 . S
C227 C226 1.477 . S
C227 H247 0.930 . S
C228 N224 1.362 . S
C228 C225 1.431 . S
C228 C238 1.476 . S
H229 C223 0.929 . S
C230 O221 1.250 . S
C230 O222 1.258 . S
O231 Mn216 2.162 . S
O231 C219 1.281 . S
O232 Mn216 2.297 . S
O232 C219 1.236 . S
N233 Mn217 2.282 . S
N233 C234 1.328 . S
N233 C238 1.318 . S
C234 N233 1.328 . S
C234 C235 1.457 . S
C234 H239 0.929 . S
C235 C234 1.457 . S
C235 C236 1.291 . S
C235 H248 0.931 . S
C236 C235 1.291 . S
C236 C237 1.373 . S
C236 H249 0.929 . S
C237 C236 1.373 . S
C237 C238 1.396 . S
C237 C244 1.403 . S
C238 C228 1.476 . S
C238 N233 1.318 . S
C238 C237 1.396 . S
H239 C234 0.929 . S
O240 Mn216 2.385 . S
O240 C218 1.234 . S
O241 Mn216 2.209 . S
O241 Mn217 2.215 . S
O241 C218 1.283 . S
O242 Mn216 2.094 . S
O242 C220 1.240 . S
O243 Mn217 2.117 . S
O243 C220 1.264 . S
C244 C237 1.403 . S
C244 C245 1.399 . S
C244 H250 0.929 1_655 S
C245 C225 1.449 . S
C245 C244 1.399 . S
C245 H251 0.930 . S
H246 C226 0.931 . S
H247 C227 0.930 . S
H248 C235 0.931 . S
H249 C236 0.929 . S
H250 C244 0.929 1_455 S
H251 C245 0.930 . S
Mn252 O257 2.095 . S
Mn252 O267 2.162 . S
Mn252 O268 2.297 . S
Mn252 O276 2.385 1_554 S
Mn252 O277 2.209 1_554 S
Mn252 O278 2.094 . S
Mn253 O258 2.121 . S
Mn253 N260 2.257 1_554 S
Mn253 N269 2.282 1_554 S
Mn253 O277 2.215 1_554 S
Mn253 O279 2.117 . S
C254 O276 1.234 . S
C254 O277 1.283 . S
C255 O267 1.281 . S
C255 O268 1.236 . S
C256 O278 1.240 . S
C256 O279 1.264 . S
O257 Mn252 2.095 . S
O257 C266 1.250 . S
O258 Mn253 2.121 . S
O258 C266 1.258 . S
C259 N260 1.326 1_554 S
C259 C263 1.464 . S
C259 H265 0.929 . S
N260 Mn253 2.257 1_556 S
N260 C259 1.326 1_556 S
N260 C264 1.362 . S
C261 C262 1.258 . S
C261 C264 1.431 . S
C261 C281 1.449 . S
C262 C261 1.258 . S
C262 C263 1.464 1_556 S
C262 H282 0.931 . S
C263 C259 1.464 . S
C263 C262 1.464 1_554 S
C263 H283 0.939 . S
C264 N260 1.362 . S
C264 C261 1.431 . S
C264 C274 1.476 . S
H265 C259 0.929 . S
C266 O257 1.250 . S
C266 O258 1.258 . S
O267 Mn252 2.162 . S
O267 C255 1.281 . S
O268 Mn252 2.297 . S
O268 C255 1.236 . S
N269 Mn253 2.282 1_556 S
N269 C270 1.328 . S
N269 C274 1.318 . S
C270 N269 1.328 . S
C270 C271 1.457 . S
C270 H275 0.929 . S
C271 C270 1.457 . S
C271 C272 1.291 . S
C271 H284 0.931 . S
C272 C271 1.291 . S
C272 C273 1.373 . S
C272 H285 0.929 . S
C273 C272 1.373 . S
C273 C274 1.396 . S
C273 C280 1.403 . S
C274 C264 1.476 . S
C274 N269 1.318 . S
C274 C273 1.396 . S
H275 C270 0.929 . S
O276 Mn252 2.385 1_556 S
O276 C254 1.234 . S
O277 Mn252 2.209 1_556 S
O277 Mn253 2.215 1_556 S
O277 C254 1.283 . S
O278 Mn252 2.094 . S
O278 C256 1.240 . S
O279 Mn253 2.117 . S
O279 C256 1.264 . S
C280 C273 1.403 . S
C280 C281 1.399 . S
C280 H286 0.929 . S
C281 C261 1.449 . S
C281 C280 1.399 . S
C281 H287 0.930 . S
H282 C262 0.931 . S
H283 C263 0.939 . S
H284 C271 0.931 . S
H285 C272 0.929 . S
H286 C280 0.929 . S
H287 C281 0.930 . S
H288 C296 0.950 . S
H289 C301 0.950 . S
H290 C298 0.950 . S
H291 C300 0.950 . S
H292 C302 0.950 . S
H293 C304 0.950 . S
H294 C306 0.950 . S
H295 C307 0.950 . S
C296 H288 0.950 . S
C296 C297 1.386 . S
C296 C298 1.391 . S
C297 C296 1.386 . S
C297 C301 1.393 . S
C298 H290 0.950 . S
C298 C296 1.391 . S
C298 C299 1.400 . S
C299 C298 1.400 . S
C299 C300 1.398 . S
C299 C305 1.491 . S
C300 H291 0.950 . S
C300 C299 1.398 . S
C300 C301 1.391 . S
C301 H289 0.950 . S
C301 C297 1.393 . S
C301 C300 1.391 . S
C302 H292 0.950 . S
C302 C303 1.386 . S
C302 C304 1.391 . S
C303 C302 1.386 . S
C303 C307 1.393 . S
C304 H293 0.950 . S
C304 C302 1.391 . S
C304 C305 1.400 . S
C305 C299 1.491 . S
C305 C304 1.400 . S
C305 C306 1.398 . S
C306 H294 0.950 . S
C306 C305 1.398 . S
C306 C307 1.391 . S
C307 H295 0.950 . S
C307 C303 1.393 . S
C307 C306 1.391 . S
H308 C316 0.950 . S
H309 C321 0.950 . S
H310 C318 0.950 . S
H311 C320 0.950 . S
H312 C322 0.950 . S
H313 C324 0.950 . S
H314 C326 0.950 . S
H315 C327 0.950 . S
C316 H308 0.950 . S
C316 C317 1.386 . S
C316 C318 1.391 . S
C317 C316 1.386 . S
C317 C321 1.393 . S
C318 H310 0.950 . S
C318 C316 1.391 . S
C318 C319 1.400 . S
C319 C318 1.400 . S
C319 C320 1.398 . S
C319 C325 1.491 . S
C320 H311 0.950 . S
C320 C319 1.398 . S
C320 C321 1.391 . S
C321 H309 0.950 . S
C321 C317 1.393 . S
C321 C320 1.391 . S
C322 H312 0.950 . S
C322 C323 1.386 . S
C322 C324 1.391 . S
C323 C322 1.386 . S
C323 C327 1.393 . S
C324 H313 0.950 . S
C324 C322 1.391 . S
C324 C325 1.400 . S
C325 C319 1.491 . S
C325 C324 1.400 . S
C325 C326 1.398 . S
C326 H314 0.950 . S
C326 C325 1.398 . S
C326 C327 1.391 . S
C327 H315 0.950 . S
C327 C323 1.393 . S
C327 C326 1.391 . S
H328 C336 0.950 . S
H329 C341 0.950 . S
H330 C338 0.950 . S
H331 C340 0.950 . S
H332 C342 0.950 . S
H333 C344 0.950 . S
H334 C346 0.950 . S
H335 C347 0.950 . S
C336 H328 0.950 . S
C336 C337 1.386 . S
C336 C338 1.391 . S
C337 C336 1.386 . S
C337 C341 1.393 . S
C338 H330 0.950 . S
C338 C336 1.391 . S
C338 C339 1.400 . S
C339 C338 1.400 . S
C339 C340 1.398 . S
C339 C345 1.491 . S
C340 H331 0.950 . S
C340 C339 1.398 . S
C340 C341 1.391 . S
C341 H329 0.950 . S
C341 C337 1.393 . S
C341 C340 1.391 . S
C342 H332 0.950 . S
C342 C343 1.386 . S
C342 C344 1.391 . S
C343 C342 1.386 . S
C343 C347 1.393 . S
C344 H333 0.950 . S
C344 C342 1.391 . S
C344 C345 1.400 . S
C345 C339 1.491 . S
C345 C344 1.400 . S
C345 C346 1.398 . S
C346 H334 0.950 . S
C346 C345 1.398 . S
C346 C347 1.391 . S
C347 H335 0.950 . S
C347 C343 1.393 . S
C347 C346 1.391 . S
H348 C356 0.950 . S
H349 C361 0.950 . S
H350 C358 0.950 . S
H351 C360 0.950 . S
H352 C362 0.950 . S
H353 C364 0.950 . S
H354 C366 0.950 . S
H355 C367 0.950 . S
C356 H348 0.950 . S
C356 C357 1.386 . S
C356 C358 1.391 . S
C357 C356 1.386 . S
C357 C361 1.393 . S
C358 H350 0.950 . S
C358 C356 1.391 . S
C358 C359 1.400 . S
C359 C358 1.400 . S
C359 C360 1.398 . S
C359 C365 1.491 . S
C360 H351 0.950 . S
C360 C359 1.398 . S
C360 C361 1.391 . S
C361 H349 0.950 . S
C361 C357 1.393 . S
C361 C360 1.391 . S
C362 H352 0.950 . S
C362 C363 1.386 . S
C362 C364 1.391 . S
C363 C362 1.386 . S
C363 C367 1.393 . S
C364 H353 0.950 . S
C364 C362 1.391 . S
C364 C365 1.400 . S
C365 C359 1.491 . S
C365 C364 1.400 . S
C365 C366 1.398 . S
C366 H354 0.950 . S
C366 C365 1.398 . S
C366 C367 1.391 . S
C367 H355 0.950 . S
C367 C363 1.393 . S
C367 C366 1.391 . S
H368 C376 0.950 . S
H369 C381 0.950 . S
H370 C378 0.950 . S
H371 C380 0.950 . S
H372 C382 0.950 . S
H373 C384 0.950 . S
H374 C386 0.950 . S
H375 C387 0.950 . S
C376 H368 0.950 . S
C376 C377 1.386 . S
C376 C378 1.391 . S
C377 C376 1.386 . S
C377 C381 1.393 . S
C378 H370 0.950 . S
C378 C376 1.391 . S
C378 C379 1.400 . S
C379 C378 1.400 . S
C379 C380 1.398 . S
C379 C385 1.491 . S
C380 H371 0.950 . S
C380 C379 1.398 . S
C380 C381 1.391 . S
C381 H369 0.950 . S
C381 C377 1.393 . S
C381 C380 1.391 . S
C382 H372 0.950 . S
C382 C383 1.386 . S
C382 C384 1.391 . S
C383 C382 1.386 . S
C383 C387 1.393 . S
C384 H373 0.950 . S
C384 C382 1.391 . S
C384 C385 1.400 . S
C385 C379 1.491 . S
C385 C384 1.400 . S
C385 C386 1.398 . S
C386 H374 0.950 . S
C386 C385 1.398 . S
C386 C387 1.391 . S
C387 H375 0.950 . S
C387 C383 1.393 . S
C387 C386 1.391 . S
H388 C396 0.950 . S
H389 C401 0.950 . S
H390 C398 0.950 . S
H391 C400 0.950 . S
H392 C402 0.950 . S
H393 C404 0.950 . S
H394 C406 0.950 . S
H395 C407 0.950 . S
C396 H388 0.950 . S
C396 C397 1.386 . S
C396 C398 1.391 . S
C397 C396 1.386 . S
C397 C401 1.393 . S
C398 H390 0.950 . S
C398 C396 1.391 . S
C398 C399 1.400 . S
C399 C398 1.400 . S
C399 C400 1.398 . S
C399 C405 1.491 . S
C400 H391 0.950 . S
C400 C399 1.398 . S
C400 C401 1.391 . S
C401 H389 0.950 . S
C401 C397 1.393 . S
C401 C400 1.391 . S
C402 H392 0.950 . S
C402 C403 1.386 . S
C402 C404 1.391 . S
C403 C402 1.386 . S
C403 C407 1.393 . S
C404 H393 0.950 . S
C404 C402 1.391 . S
C404 C405 1.400 . S
C405 C399 1.491 . S
C405 C404 1.400 . S
C405 C406 1.398 . S
C406 H394 0.950 . S
C406 C405 1.398 . S
C406 C407 1.391 . S
C407 H395 0.950 . S
C407 C403 1.393 . S
C407 C406 1.391 . S
H408 C416 0.950 . S
H409 C421 0.950 . S
H410 C418 0.950 . S
H411 C420 0.950 . S
H412 C422 0.950 . S
H413 C424 0.950 . S
H414 C426 0.950 . S
H415 C427 0.950 . S
C416 H408 0.950 . S
C416 C417 1.386 . S
C416 C418 1.391 . S
C417 C416 1.386 . S
C417 C421 1.393 . S
C418 H410 0.950 . S
C418 C416 1.391 . S
C418 C419 1.400 . S
C419 C418 1.400 . S
C419 C420 1.398 . S
C419 C425 1.491 . S
C420 H411 0.950 . S
C420 C419 1.398 . S
C420 C421 1.391 . S
C421 H409 0.950 . S
C421 C417 1.393 . S
C421 C420 1.391 . S
C422 H412 0.950 . S
C422 C423 1.386 . S
C422 C424 1.391 . S
C423 C422 1.386 . S
C423 C427 1.393 . S
C424 H413 0.950 . S
C424 C422 1.391 . S
C424 C425 1.400 . S
C425 C419 1.491 . S
C425 C424 1.400 . S
C425 C426 1.398 . S
C426 H414 0.950 . S
C426 C425 1.398 . S
C426 C427 1.391 . S
C427 H415 0.950 . S
C427 C423 1.393 . S
C427 C426 1.391 . S
H428 C436 0.950 . S
H429 C441 0.950 . S
H430 C438 0.950 . S
H431 C440 0.950 . S
H432 C442 0.950 . S
H433 C444 0.950 . S
H434 C446 0.950 . S
H435 C447 0.950 . S
C436 H428 0.950 . S
C436 C437 1.386 . S
C436 C438 1.391 . S
C437 C436 1.386 . S
C437 C441 1.393 . S
C438 H430 0.950 . S
C438 C436 1.391 . S
C438 C439 1.400 . S
C439 C438 1.400 . S
C439 C440 1.398 . S
C439 C445 1.491 . S
C440 H431 0.950 . S
C440 C439 1.398 . S
C440 C441 1.391 . S
C441 H429 0.950 . S
C441 C437 1.393 . S
C441 C440 1.391 . S
C442 H432 0.950 . S
C442 C443 1.386 . S
C442 C444 1.391 . S
C443 C442 1.386 . S
C443 C447 1.393 . S
C444 H433 0.950 . S
C444 C442 1.391 . S
C444 C445 1.400 . S
C445 C439 1.491 . S
C445 C444 1.400 . S
C445 C446 1.398 . S
C446 H434 0.950 . S
C446 C445 1.398 . S
C446 C447 1.391 . S
C447 H435 0.950 . S
C447 C443 1.393 . S
C447 C446 1.391 . S
H448 C456 0.950 . S
H449 C461 0.950 . S
H450 C458 0.950 . S
H451 C460 0.950 . S
H452 C462 0.950 . S
H453 C464 0.950 . S
H454 C466 0.950 . S
H455 C467 0.950 . S
C456 H448 0.950 . S
C456 C457 1.386 . S
C456 C458 1.391 . S
C457 C456 1.386 . S
C457 C461 1.393 1_554 S
C458 H450 0.950 . S
C458 C456 1.391 . S
C458 C459 1.400 . S
C459 C458 1.400 . S
C459 C460 1.398 1_554 S
C459 C465 1.491 1_655 S
C460 H451 0.950 . S
C460 C459 1.398 1_556 S
C460 C461 1.391 . S
C461 H449 0.950 . S
C461 C457 1.393 1_556 S
C461 C460 1.391 . S
C462 H452 0.950 . S
C462 C463 1.386 1_556 S
C462 C464 1.391 . S
C463 C462 1.386 1_554 S
C463 C467 1.393 . S
C464 H453 0.950 . S
C464 C462 1.391 . S
C464 C465 1.400 1_556 S
C465 C459 1.491 1_455 S
C465 C464 1.400 1_554 S
C465 C466 1.398 . S
C466 H454 0.950 . S
C466 C465 1.398 . S
C466 C467 1.391 . S
C467 H455 0.950 . S
C467 C463 1.393 . S
C467 C466 1.391 . S
H468 C476 0.950 . S
H469 C481 0.950 . S
H470 C478 0.950 . S
H471 C480 0.950 . S
H472 C482 0.950 . S
H473 C484 0.950 . S
H474 C486 0.950 . S
H475 C487 0.950 . S
C476 H468 0.950 . S
C476 C477 1.386 . S
C476 C478 1.391 . S
C477 C476 1.386 . S
C477 C481 1.393 . S
C478 H470 0.950 . S
C478 C476 1.391 . S
C478 C479 1.400 . S
C479 C478 1.400 . S
C479 C480 1.398 . S
C479 C485 1.491 1_565 S
C480 H471 0.950 . S
C480 C479 1.398 . S
C480 C481 1.391 . S
C481 H469 0.950 . S
C481 C477 1.393 . S
C481 C480 1.391 . S
C482 H472 0.950 . S
C482 C483 1.386 . S
C482 C484 1.391 . S
C483 C482 1.386 . S
C483 C487 1.393 . S
C484 H473 0.950 . S
C484 C482 1.391 . S
C484 C485 1.400 . S
C485 C479 1.491 1_545 S
C485 C484 1.400 . S
C485 C486 1.398 . S
C486 H474 0.950 . S
C486 C485 1.398 . S
C486 C487 1.391 . S
C487 H475 0.950 . S
C487 C483 1.393 . S
C487 C486 1.391 . S
H488 C496 0.950 . S
H489 C501 0.950 . S
H490 C498 0.950 . S
H491 C500 0.950 . S
H492 C502 0.950 . S
H493 C504 0.950 . S
H494 C506 0.950 . S
H495 C507 0.950 . S
C496 H488 0.950 . S
C496 C497 1.386 . S
C496 C498 1.391 . S
C497 C496 1.386 . S
C497 C501 1.393 . S
C498 H490 0.950 . S
C498 C496 1.391 . S
C498 C499 1.400 . S
C499 C498 1.400 . S
C499 C500 1.398 . S
C499 C505 1.491 1_455 S
C500 H491 0.950 . S
C500 C499 1.398 . S
C500 C501 1.391 . S
C501 H489 0.950 . S
C501 C497 1.393 . S
C501 C500 1.391 . S
C502 H492 0.950 . S
C502 C503 1.386 . S
C502 C504 1.391 . S
C503 C502 1.386 . S
C503 C507 1.393 . S
C504 H493 0.950 . S
C504 C502 1.391 . S
C504 C505 1.400 . S
C505 C499 1.491 1_655 S
C505 C504 1.400 . S
C505 C506 1.398 . S
C506 H494 0.950 . S
C506 C505 1.398 . S
C506 C507 1.391 . S
C507 H495 0.950 . S
C507 C503 1.393 . S
C507 C506 1.391 . S
H508 C516 0.950 . S
H509 C521 0.950 . S
H510 C518 0.950 . S
H511 C520 0.950 . S
H512 C522 0.950 . S
H513 C524 0.950 . S
H514 C526 0.950 . S
H515 C527 0.950 . S
C516 H508 0.950 . S
C516 C517 1.386 1_556 S
C516 C518 1.391 . S
C517 C516 1.386 1_554 S
C517 C521 1.393 . S
C518 H510 0.950 . S
C518 C516 1.391 . S
C518 C519 1.400 1_556 S
C519 C518 1.400 1_554 S
C519 C520 1.398 . S
C519 C525 1.491 1_565 S
C520 H511 0.950 . S
C520 C519 1.398 . S
C520 C521 1.391 . S
C521 H509 0.950 . S
C521 C517 1.393 . S
C521 C520 1.391 . S
C522 H512 0.950 . S
C522 C523 1.386 . S
C522 C524 1.391 . S
C523 C522 1.386 . S
C523 C527 1.393 1_554 S
C524 H513 0.950 . S
C524 C522 1.391 . S
C524 C525 1.400 . S
C525 C519 1.491 1_545 S
C525 C524 1.400 . S
C525 C526 1.398 1_554 S
C526 H514 0.950 . S
C526 C525 1.398 1_556 S
C526 C527 1.391 . S
C527 H515 0.950 . S
C527 C523 1.393 1_556 S
C527 C526 1.391 . S
H528 C536 0.950 . S
H529 C541 0.950 . S
H530 C538 0.950 . S
H531 C540 0.950 . S
H532 C542 0.950 . S
H533 C544 0.950 . S
H534 C546 0.950 . S
H535 C547 0.950 . S
C536 H528 0.950 . S
C536 C537 1.386 1_556 S
C536 C538 1.391 . S
C537 C536 1.386 1_554 S
C537 C541 1.393 . S
C538 H530 0.950 . S
C538 C536 1.391 . S
C538 C539 1.400 1_556 S
C539 C538 1.400 1_554 S
C539 C540 1.398 . S
C539 C545 1.491 . S
C540 H531 0.950 . S
C540 C539 1.398 . S
C540 C541 1.391 . S
C541 H529 0.950 . S
C541 C537 1.393 . S
C541 C540 1.391 . S
C542 H532 0.950 . S
C542 C543 1.386 . S
C542 C544 1.391 . S
C543 C542 1.386 . S
C543 C547 1.393 1_554 S
C544 H533 0.950 . S
C544 C542 1.391 . S
C544 C545 1.400 . S
C545 C539 1.491 . S
C545 C544 1.400 . S
C545 C546 1.398 1_554 S
C546 H534 0.950 . S
C546 C545 1.398 1_556 S
C546 C547 1.391 . S
C547 H535 0.950 . S
C547 C543 1.393 1_556 S
C547 C546 1.391 . S
H548 C556 0.950 . S
H549 C561 0.950 . S
H550 C558 0.950 . S
H551 C560 0.950 . S
H552 C562 0.950 . S
H553 C564 0.950 . S
H554 C566 0.950 . S
H555 C567 0.950 . S
C556 H548 0.950 . S
C556 C557 1.386 . S
C556 C558 1.391 . S
C557 C556 1.386 . S
C557 C561 1.393 . S
C558 H550 0.950 . S
C558 C556 1.391 . S
C558 C559 1.400 . S
C559 C558 1.400 . S
C559 C560 1.398 . S
C559 C565 1.491 . S
C560 H551 0.950 . S
C560 C559 1.398 . S
C560 C561 1.391 . S
C561 H549 0.950 . S
C561 C557 1.393 . S
C561 C560 1.391 . S
C562 H552 0.950 . S
C562 C563 1.386 . S
C562 C564 1.391 . S
C563 C562 1.386 . S
C563 C567 1.393 . S
C564 H553 0.950 . S
C564 C562 1.391 . S
C564 C565 1.400 . S
C565 C559 1.491 . S
C565 C564 1.400 . S
C565 C566 1.398 . S
C566 H554 0.950 . S
C566 C565 1.398 . S
C566 C567 1.391 . S
C567 H555 0.950 . S
C567 C563 1.393 . S
C567 C566 1.391 . S
H568 C576 0.950 . S
H569 C581 0.950 . S
H570 C578 0.950 . S
H571 C580 0.950 . S
H572 C582 0.950 . S
H573 C584 0.950 . S
H574 C586 0.950 . S
H575 C587 0.950 . S
C576 H568 0.950 . S
C576 C577 1.386 1_556 S
C576 C578 1.391 . S
C577 C576 1.386 1_554 S
C577 C581 1.393 . S
C578 H570 0.950 . S
C578 C576 1.391 . S
C578 C579 1.400 1_556 S
C579 C578 1.400 1_554 S
C579 C580 1.398 . S
C579 C585 1.491 . S
C580 H571 0.950 . S
C580 C579 1.398 . S
C580 C581 1.391 . S
C581 H569 0.950 . S
C581 C577 1.393 . S
C581 C580 1.391 . S
C582 H572 0.950 . S
C582 C583 1.386 . S
C582 C584 1.391 . S
C583 C582 1.386 . S
C583 C587 1.393 1_554 S
C584 H573 0.950 . S
C584 C582 1.391 . S
C584 C585 1.400 . S
C585 C579 1.491 . S
C585 C584 1.400 . S
C585 C586 1.398 1_554 S
C586 H574 0.950 . S
C586 C585 1.398 1_556 S
C586 C587 1.391 . S
C587 H575 0.950 . S
C587 C583 1.393 1_556 S
C587 C586 1.391 . S
H588 C596 0.950 . S
H589 C601 0.950 . S
H590 C598 0.950 . S
H591 C600 0.950 . S
H592 C602 0.950 . S
H593 C604 0.950 . S
H594 C606 0.950 . S
H595 C607 0.950 . S
C596 H588 0.950 . S
C596 C597 1.386 . S
C596 C598 1.391 . S
C597 C596 1.386 . S
C597 C601 1.393 . S
C598 H590 0.950 . S
C598 C596 1.391 . S
C598 C599 1.400 . S
C599 C598 1.400 . S
C599 C600 1.398 . S
C599 C605 1.491 . S
C600 H591 0.950 . S
C600 C599 1.398 . S
C600 C601 1.391 . S
C601 H589 0.950 . S
C601 C597 1.393 . S
C601 C600 1.391 . S
C602 H592 0.950 . S
C602 C603 1.386 . S
C602 C604 1.391 . S
C603 C602 1.386 . S
C603 C607 1.393 . S
C604 H593 0.950 . S
C604 C602 1.391 . S
C604 C605 1.400 . S
C605 C599 1.491 . S
C605 C604 1.400 . S
C605 C606 1.398 . S
C606 H594 0.950 . S
C606 C605 1.398 . S
C606 C607 1.391 . S
C607 H595 0.950 . S
C607 C603 1.393 . S
C607 C606 1.391 . S
C297 C3 1.044 . S
C303 C147 1.039 . S
C317 C38 1.358 . S
C323 C182 1.370 . S
C337 C219 1.022 . S
C343 C75 1.030 . S
C357 C254 1.353 . S
C363 C110 1.363 . S
C377 C220 1.029 . S
C383 C76 1.053 . S
C397 C266 1.475 . S
C403 C122 1.478 . S
C417 C4 1.033 . S
C423 C148 1.018 . S
C437 C50 1.493 . S
C443 C194 1.478 . S
C457 C74 1.314 . S
C463 C2 1.314 . S
C477 C111 1.339 . S
C483 C39 1.343 . S
C497 C146 1.338 . S
C503 C218 1.339 . S
C517 C255 1.338 . S
C523 C183 1.341 . S
C537 C14 1.254 . S
C543 C184 1.275 . S
C557 C230 1.261 . S
C563 C40 1.255 . S
C577 C86 1.254 . S
C583 C256 1.275 . S
C597 C112 1.276 . S
C603 C158 1.255 . S
