# Generated by pormake.
# Topology tzs, (4)-cn, num edge types: 1
# Building blocks:
#     Node 0, Type 0, BuildingBlock: ICAMEG_clean_sbu_1, # of connection points: 4
#     Node 1, Type 0, BuildingBlock: ICAMEG_clean_sbu_1, # of connection points: 4
#     Node 2, Type 0, BuildingBlock: ICAMEG_clean_sbu_1, # of connection points: 4
#     Node 3, Type 0, BuildingBlock: ICAMEG_clean_sbu_1, # of connection points: 4
#     Node 4, Type 0, BuildingBlock: ICAMEG_clean_sbu_1, # of connection points: 4
#     Node 5, Type 0, BuildingBlock: ICAMEG_clean_sbu_1, # of connection points: 4
#     Node 6, Type 0, BuildingBlock: ICAMEG_clean_sbu_1, # of connection points: 4
#     Node 7, Type 0, BuildingBlock: ICAMEG_clean_sbu_1, # of connection points: 4
#     Node 8, Type 0, BuildingBlock: ICAMEG_clean_sbu_1, # of connection points: 4
#     Node 9, Type 0, BuildingBlock: ICAMEG_clean_sbu_1, # of connection points: 4
#     Node 10, Type 0, BuildingBlock: ICAMEG_clean_sbu_1, # of connection points: 4
#     Node 11, Type 0, BuildingBlock: ICAMEG_clean_sbu_1, # of connection points: 4
#     Node 12, Type 0, BuildingBlock: ICAMEG_clean_sbu_1, # of connection points: 4
#     Node 13, Type 0, BuildingBlock: ICAMEG_clean_sbu_1, # of connection points: 4
#     Node 14, Type 0, BuildingBlock: ICAMEG_clean_sbu_1, # of connection points: 4
#     Node 15, Type 0, BuildingBlock: ICAMEG_clean_sbu_1, # of connection points: 4
#     Edge 16, Type (0, 0), BuildingBlock: CIFDUS_clean_linker_0, # of connection points: 2
#     Edge 17, Type (0, 0), BuildingBlock: CIFDUS_clean_linker_0, # of connection points: 2
#     Edge 18, Type (0, 0), BuildingBlock: CIFDUS_clean_linker_0, # of connection points: 2
#     Edge 19, Type (0, 0), BuildingBlock: CIFDUS_clean_linker_0, # of connection points: 2
#     Edge 20, Type (0, 0), BuildingBlock: CIFDUS_clean_linker_0, # of connection points: 2
#     Edge 21, Type (0, 0), BuildingBlock: CIFDUS_clean_linker_0, # of connection points: 2
#     Edge 22, Type (0, 0), BuildingBlock: CIFDUS_clean_linker_0, # of connection points: 2
#     Edge 23, Type (0, 0), BuildingBlock: CIFDUS_clean_linker_0, # of connection points: 2
#     Edge 24, Type (0, 0), BuildingBlock: CIFDUS_clean_linker_0, # of connection points: 2
#     Edge 25, Type (0, 0), BuildingBlock: CIFDUS_clean_linker_0, # of connection points: 2
#     Edge 26, Type (0, 0), BuildingBlock: CIFDUS_clean_linker_0, # of connection points: 2
#     Edge 27, Type (0, 0), BuildingBlock: CIFDUS_clean_linker_0, # of connection points: 2
#     Edge 28, Type (0, 0), BuildingBlock: CIFDUS_clean_linker_0, # of connection points: 2
#     Edge 29, Type (0, 0), BuildingBlock: CIFDUS_clean_linker_0, # of connection points: 2
#     Edge 30, Type (0, 0), BuildingBlock: CIFDUS_clean_linker_0, # of connection points: 2
#     Edge 31, Type (0, 0), BuildingBlock: CIFDUS_clean_linker_0, # of connection points: 2
#     Edge 32, Type (0, 0), BuildingBlock: CIFDUS_clean_linker_0, # of connection points: 2
#     Edge 33, Type (0, 0), BuildingBlock: CIFDUS_clean_linker_0, # of connection points: 2
#     Edge 34, Type (0, 0), BuildingBlock: CIFDUS_clean_linker_0, # of connection points: 2
#     Edge 35, Type (0, 0), BuildingBlock: CIFDUS_clean_linker_0, # of connection points: 2
#     Edge 36, Type (0, 0), BuildingBlock: CIFDUS_clean_linker_0, # of connection points: 2
#     Edge 37, Type (0, 0), BuildingBlock: CIFDUS_clean_linker_0, # of connection points: 2
#     Edge 38, Type (0, 0), BuildingBlock: CIFDUS_clean_linker_0, # of connection points: 2
#     Edge 39, Type (0, 0), BuildingBlock: CIFDUS_clean_linker_0, # of connection points: 2
#     Edge 40, Type (0, 0), BuildingBlock: CIFDUS_clean_linker_0, # of connection points: 2
#     Edge 41, Type (0, 0), BuildingBlock: CIFDUS_clean_linker_0, # of connection points: 2
#     Edge 42, Type (0, 0), BuildingBlock: CIFDUS_clean_linker_0, # of connection points: 2
#     Edge 43, Type (0, 0), BuildingBlock: CIFDUS_clean_linker_0, # of connection points: 2
#     Edge 44, Type (0, 0), BuildingBlock: CIFDUS_clean_linker_0, # of connection points: 2
#     Edge 45, Type (0, 0), BuildingBlock: CIFDUS_clean_linker_0, # of connection points: 2
#     Edge 46, Type (0, 0), BuildingBlock: CIFDUS_clean_linker_0, # of connection points: 2
#     Edge 47, Type (0, 0), BuildingBlock: CIFDUS_clean_linker_0, # of connection points: 2
# Relax obj value: 0.143
# Max RMSD: 0.172
# Mean RMSD: 0.172
data_MOF--net-tzs--node1-ICAMEG_clean_sbu_1--edge1-CIFDUS_clean_linker_0
_symmetry_space_group_name_H-M    P1
_symmetry_Int_Tables_number       1
_symmetry_cell_setting            triclinic
loop_
_symmetry_equiv_pos_as_xyz
'x, y, z'
_cell_length_a     43.890492
_cell_length_b     43.828611
_cell_length_c     39.502086
_cell_angle_alpha  89.947532
_cell_angle_beta   89.977885
_cell_angle_gamma 90.210295
loop_
_atom_site_label
_atom_site_type_symbol
_atom_site_fract_x
_atom_site_fract_y
_atom_site_fract_z
_atom_type_partial_charge
Co0 Co 0.13904 0.38945 0.17226 0.0
Co1 Co 0.16368 0.3413 0.23454 0.0
O2 O 0.16368 0.35431 0.18681 0.0
C3 C 0.14018 0.34662 0.11193 0.0
O4 O 0.15236 0.32461 0.12987 0.0
C5 C 0.23058 0.33817 0.21802 0.0
O6 O 0.22963 0.36335 0.20006 0.0
O7 O 0.17817 0.38255 0.24834 0.0
O8 O 0.14625 0.41021 0.21638 0.0
H9 H 0.14183 0.35325 0.35877 0.0
H10 H 0.19358 0.36871 0.13299 0.0
O11 O 0.13149 0.37117 0.12623 0.0
H12 H 0.21074 0.47809 0.15459 0.0
H13 H 0.10134 0.46982 0.09108 0.0
H14 H 0.09135 0.4265 0.20581 0.0
H15 H 0.16444 0.45257 0.17572 0.0
H16 H 0.13357 0.42683 0.10905 0.0
O17 O 0.20659 0.32698 0.23116 0.0
H18 H 0.14122 0.36833 0.29864 0.0
H19 H 0.1873 0.28689 0.27176 0.0
H20 H 0.05897 0.46977 0.18905 0.0
H21 H 0.23982 0.39342 0.11093 0.0
H22 H 0.06379 0.4917 0.13129 0.0
H23 H 0.24877 0.44854 0.12168 0.0
O24 O 0.10136 0.3695 0.19102 0.0
H25 H 0.16548 0.24608 0.16391 0.0
H26 H 0.11339 0.2997 0.25696 0.0
H27 H 0.09464 0.24924 0.23879 0.0
H28 H 0.12078 0.22203 0.19198 0.0
H29 H 0.18328 0.29678 0.18268 0.0
H30 H 0.18864 0.27099 0.3316 0.0
H31 H 0.1657 0.30423 0.3756 0.0
O32 O 0.12063 0.35461 0.24068 0.0
C33 C 0.16579 0.40771 0.24002 0.0
C34 C 0.15189 0.33856 0.33984 0.0
C35 C 0.17816 0.29241 0.32459 0.0
N36 N 0.16415 0.32858 0.28167 0.0
C37 C 0.1516 0.34701 0.30575 0.0
C38 C 0.1774 0.30159 0.29074 0.0
C39 C 0.16529 0.31106 0.34927 0.0
C40 C 0.19678 0.39278 0.13723 0.0
N41 N 0.17571 0.40922 0.15492 0.0
C42 C 0.22326 0.40663 0.12491 0.0
C43 C 0.22832 0.43753 0.13102 0.0
C44 C 0.20699 0.45411 0.14945 0.0
C45 C 0.18077 0.43949 0.16135 0.0
C46 C 0.09894 0.46039 0.11628 0.0
C47 C 0.09363 0.43589 0.18063 0.0
C48 C 0.11697 0.43587 0.12651 0.0
N49 N 0.11422 0.42393 0.15836 0.0
C50 C 0.07521 0.46041 0.17128 0.0
C51 C 0.07791 0.47269 0.13886 0.0
C52 C 0.09803 0.36099 0.22179 0.0
C53 C 0.15388 0.25771 0.18432 0.0
C54 C 0.12473 0.28817 0.23635 0.0
C55 C 0.11409 0.25951 0.22629 0.0
C56 C 0.12879 0.24424 0.20006 0.0
N57 N 0.14931 0.30127 0.22073 0.0
C58 C 0.16389 0.28639 0.19508 0.0
Co59 Co 0.61549 0.12798 0.17313 0.0
Co60 Co 0.66343 0.1561 0.23361 0.0
O61 O 0.6503 0.15349 0.18615 0.0
C62 C 0.65632 0.12977 0.11123 0.0
O63 O 0.67629 0.14763 0.12608 0.0
C64 C 0.67308 0.22312 0.24126 0.0
O65 O 0.65115 0.22358 0.26387 0.0
O66 O 0.62226 0.17144 0.24614 0.0
O67 O 0.5945 0.13755 0.21655 0.0
H68 H 0.65131 0.14353 0.35942 0.0
H69 H 0.6357 0.18412 0.13444 0.0
O70 O 0.63435 0.11801 0.12795 0.0
H71 H 0.52482 0.19446 0.14818 0.0
H72 H 0.53806 0.08227 0.09336 0.0
H73 H 0.57764 0.08272 0.21016 0.0
H74 H 0.55152 0.15036 0.17235 0.0
H75 H 0.58042 0.11639 0.10927 0.0
O76 O 0.67859 0.19871 0.22475 0.0
H77 H 0.63607 0.13913 0.29957 0.0
H78 H 0.71924 0.17989 0.26848 0.0
H79 H 0.53498 0.04854 0.19537 0.0
H80 H 0.60988 0.22814 0.10953 0.0
H81 H 0.51491 0.04814 0.13659 0.0
H82 H 0.55393 0.23368 0.11615 0.0
O83 O 0.63563 0.09185 0.19455 0.0
H84 H 0.75802 0.1516 0.16205 0.0
H85 H 0.70415 0.1069 0.25989 0.0
H86 H 0.75404 0.08628 0.24299 0.0
H87 H 0.7814 0.10872 0.19381 0.0
H88 H 0.70792 0.17134 0.1796 0.0
H89 H 0.73546 0.18497 0.3279 0.0
H90 H 0.70138 0.16668 0.37393 0.0
O91 O 0.64934 0.11337 0.24359 0.0
C92 C 0.59707 0.15846 0.23873 0.0
C93 C 0.66632 0.15171 0.33962 0.0
C94 C 0.71353 0.17496 0.32194 0.0
N95 N 0.67648 0.15957 0.28052 0.0
C96 C 0.65773 0.14933 0.30569 0.0
C97 C 0.70416 0.17215 0.28831 0.0
C98 C 0.69441 0.16468 0.34774 0.0
C99 C 0.61137 0.18548 0.1367 0.0
N100 N 0.59516 0.16341 0.15339 0.0
C101 C 0.59683 0.21089 0.12284 0.0
C102 C 0.56547 0.21406 0.12665 0.0
C103 C 0.54913 0.19204 0.14452 0.0
C104 C 0.56445 0.16692 0.15797 0.0
C105 C 0.54661 0.08223 0.11905 0.0
C106 C 0.56897 0.08283 0.18456 0.0
C107 C 0.57073 0.10139 0.1282 0.0
N108 N 0.58152 0.10166 0.16069 0.0
C109 C 0.54484 0.06335 0.17632 0.0
C110 C 0.53361 0.06311 0.14333 0.0
C111 C 0.6432 0.08987 0.22574 0.0
C112 C 0.74634 0.14163 0.18353 0.0
C113 C 0.71575 0.11665 0.23827 0.0
C114 C 0.74408 0.10494 0.22892 0.0
C115 C 0.75943 0.11756 0.20134 0.0
N116 N 0.70306 0.14031 0.2207 0.0
C117 C 0.71797 0.15274 0.19361 0.0
Co118 Co 0.87463 0.612 0.1652 0.0
Co119 Co 0.8494 0.65944 0.22696 0.0
O120 O 0.85119 0.64818 0.17878 0.0
C121 C 0.87486 0.65309 0.10326 0.0
O122 O 0.8583 0.67407 0.11811 0.0
C123 C 0.78369 0.66593 0.20853 0.0
O124 O 0.78406 0.63974 0.19245 0.0
O125 O 0.83072 0.6191 0.23729 0.0
O126 O 0.86471 0.59131 0.20879 0.0
H127 H 0.86196 0.64012 0.35157 0.0
H128 H 0.82004 0.63477 0.12607 0.0
O129 O 0.88509 0.63041 0.11994 0.0
H130 H 0.80182 0.52509 0.14358 0.0
H131 H 0.91389 0.53209 0.08455 0.0
H132 H 0.91829 0.57182 0.20119 0.0
H133 H 0.84801 0.54945 0.16622 0.0
H134 H 0.88282 0.57631 0.10122 0.0
O135 O 0.80793 0.67712 0.22113 0.0
H136 H 0.86505 0.6276 0.29082 0.0
H137 H 0.82807 0.71405 0.2654 0.0
H138 H 0.94942 0.52732 0.18565 0.0
H139 H 0.77409 0.61124 0.10248 0.0
H140 H 0.94738 0.50716 0.12695 0.0
H141 H 0.76452 0.55591 0.1111 0.0
O142 O 0.91216 0.63032 0.18599 0.0
H143 H 0.86007 0.75633 0.16005 0.0
H144 H 0.9007 0.69648 0.25556 0.0
H145 H 0.9244 0.74586 0.24105 0.0
H146 H 0.90404 0.7762 0.19302 0.0
H147 H 0.83718 0.70665 0.17531 0.0
H148 H 0.82429 0.72739 0.32587 0.0
H149 H 0.84144 0.69034 0.36944 0.0
O150 O 0.89119 0.64266 0.2356 0.0
C151 C 0.84227 0.59362 0.22903 0.0
C152 C 0.8545 0.6565 0.33283 0.0
C153 C 0.83335 0.70547 0.31841 0.0
N154 N 0.84699 0.67014 0.27456 0.0
C155 C 0.85626 0.64956 0.29838 0.0
C156 C 0.8355 0.69776 0.28419 0.0
C157 C 0.84297 0.68467 0.34284 0.0
C158 C 0.81696 0.61062 0.12907 0.0
N159 N 0.83787 0.59345 0.14616 0.0
C160 C 0.79045 0.59741 0.11601 0.0
C161 C 0.78503 0.56641 0.12096 0.0
C162 C 0.80596 0.54912 0.13911 0.0
C163 C 0.83223 0.5631 0.15173 0.0
C164 C 0.915 0.54068 0.1102 0.0
C165 C 0.91715 0.56317 0.17562 0.0
C166 C 0.89757 0.56584 0.11977 0.0
N167 N 0.89867 0.57671 0.1522 0.0
C168 C 0.93489 0.53796 0.16695 0.0
C169 C 0.93376 0.52668 0.13401 0.0
C170 C 0.9145 0.63685 0.21743 0.0
C171 C 0.86914 0.74333 0.18104 0.0
C172 C 0.89181 0.70943 0.23449 0.0
C173 C 0.90527 0.73744 0.22647 0.0
C174 C 0.89382 0.75446 0.19954 0.0
N175 N 0.8676 0.69868 0.21622 0.0
C176 C 0.85625 0.71523 0.1898 0.0
Co177 Co 0.38918 0.87753 0.15755 0.0
Co178 Co 0.34838 0.85862 0.22731 0.0
O179 O 0.35454 0.85605 0.17813 0.0
C180 C 0.34245 0.87218 0.10076 0.0
O181 O 0.32151 0.86052 0.12073 0.0
C182 C 0.33567 0.79312 0.24398 0.0
O183 O 0.36027 0.79241 0.26287 0.0
O184 O 0.38998 0.84112 0.23454 0.0
O185 O 0.41365 0.87319 0.19955 0.0
H186 H 0.38046 0.88192 0.34661 0.0
H187 H 0.36205 0.82007 0.12938 0.0
O188 O 0.36733 0.88251 0.11303 0.0
H189 H 0.47229 0.80063 0.1353 0.0
H190 H 0.46468 0.9047 0.06577 0.0
H191 H 0.42978 0.92731 0.18165 0.0
H192 H 0.45155 0.8499 0.15347 0.0
H193 H 0.42262 0.87533 0.09139 0.0
O194 O 0.32946 0.81677 0.22646 0.0
H195 H 0.38661 0.87934 0.28465 0.0
H196 H 0.29761 0.84212 0.27472 0.0
H197 H 0.47234 0.95681 0.15735 0.0
H198 H 0.3819 0.77084 0.11014 0.0
H199 H 0.49004 0.94568 0.09894 0.0
H200 H 0.43744 0.76066 0.11304 0.0
O201 O 0.3723 0.9168 0.17529 0.0
H202 H 0.24546 0.86428 0.17198 0.0
H203 H 0.31445 0.91222 0.25499 0.0
H204 H 0.26402 0.93485 0.24447 0.0
H205 H 0.22907 0.91079 0.20278 0.0
H206 H 0.29624 0.84256 0.18302 0.0
H207 H 0.29056 0.84406 0.33658 0.0
H208 H 0.33216 0.86416 0.37299 0.0
O209 O 0.36573 0.90123 0.22889 0.0
C210 C 0.41428 0.85331 0.22297 0.0
C211 C 0.36217 0.87308 0.33103 0.0
C212 C 0.31174 0.85182 0.3254 0.0
N213 N 0.34255 0.86047 0.27604 0.0
C214 C 0.36553 0.87156 0.29591 0.0
C215 C 0.3159 0.85067 0.29038 0.0
C216 C 0.33508 0.86311 0.34581 0.0
C217 C 0.38626 0.8164 0.13014 0.0
N218 N 0.40555 0.83857 0.14185 0.0
C219 C 0.39738 0.78818 0.11946 0.0
C220 C 0.42851 0.78244 0.12117 0.0
C221 C 0.44805 0.80483 0.13366 0.0
C222 C 0.4361 0.83278 0.14406 0.0
C223 C 0.45703 0.90996 0.09115 0.0
C224 C 0.43717 0.92235 0.15617 0.0
C225 C 0.43292 0.89365 0.10561 0.0
N226 N 0.42321 0.89993 0.13774 0.0
C227 C 0.46138 0.93913 0.14256 0.0
C228 C 0.47129 0.93289 0.10979 0.0
C229 C 0.36862 0.92247 0.20687 0.0
C230 C 0.26047 0.87495 0.19023 0.0
C231 C 0.29949 0.90171 0.23663 0.0
C232 C 0.2709 0.91458 0.23087 0.0
C233 C 0.25129 0.90106 0.2075 0.0
N234 N 0.30833 0.87605 0.21963 0.0
C235 C 0.28924 0.86273 0.19663 0.0
Co236 Co 0.12169 0.60772 0.34592 0.0
Co237 Co 0.15309 0.64621 0.2801 0.0
O238 O 0.14834 0.64062 0.32918 0.0
C239 C 0.12625 0.6531 0.40329 0.0
O240 O 0.14159 0.67313 0.38534 0.0
C241 C 0.22076 0.65411 0.27618 0.0
O242 O 0.22264 0.62793 0.26023 0.0
O243 O 0.16929 0.60378 0.27739 0.0
O244 O 0.13078 0.58225 0.3053 0.0
H245 H 0.14663 0.61194 0.15901 0.0
H246 H 0.17984 0.63014 0.37781 0.0
O247 O 0.11272 0.63069 0.38903 0.0
H248 H 0.18312 0.5184 0.38931 0.0
H249 H 0.06832 0.54016 0.4318 0.0
H250 H 0.0766 0.56812 0.31131 0.0
H251 H 0.13964 0.54293 0.36189 0.0
H252 H 0.10475 0.57939 0.41336 0.0
O253 O 0.19523 0.66327 0.28779 0.0
H254 H 0.13961 0.60732 0.22075 0.0
H255 H 0.17805 0.69534 0.23509 0.0
H256 H 0.04014 0.52837 0.32864 0.0
H257 H 0.2235 0.60639 0.40562 0.0
H258 H 0.03576 0.51405 0.38927 0.0
H259 H 0.22551 0.55008 0.41178 0.0
O260 O 0.08703 0.6274 0.32133 0.0
H261 H 0.14484 0.7505 0.33188 0.0
H262 H 0.10613 0.68223 0.24243 0.0
H263 H 0.08501 0.73402 0.24786 0.0
H264 H 0.10446 0.76861 0.29276 0.0
H265 H 0.16511 0.69839 0.32577 0.0
H266 H 0.18582 0.70086 0.1736 0.0
H267 H 0.16995 0.65896 0.13505 0.0
O268 O 0.11046 0.63083 0.27113 0.0
C269 C 0.15483 0.58019 0.28743 0.0
C270 C 0.15369 0.63034 0.17554 0.0
C271 C 0.17571 0.68022 0.18372 0.0
N272 N 0.15859 0.65097 0.23157 0.0
C273 C 0.14977 0.62785 0.21053 0.0
C274 C 0.17141 0.67692 0.21856 0.0
C275 C 0.16678 0.65672 0.16211 0.0
C276 C 0.17994 0.6057 0.38042 0.0
N277 N 0.15623 0.58828 0.36872 0.0
C278 C 0.20503 0.59232 0.39622 0.0
C279 C 0.20618 0.56075 0.39964 0.0
C280 C 0.1824 0.543 0.38709 0.0
C281 C 0.15765 0.55718 0.37153 0.0
C282 C 0.07008 0.54611 0.40527 0.0
C283 C 0.07522 0.56194 0.33773 0.0
C284 C 0.09069 0.56853 0.39466 0.0
N285 N 0.09343 0.576 0.36116 0.0
C286 C 0.05434 0.53943 0.3474 0.0
C287 C 0.05184 0.53145 0.38142 0.0
C288 C 0.08618 0.63036 0.28908 0.0
C289 C 0.1362 0.73566 0.31219 0.0
C290 C 0.11456 0.69703 0.26221 0.0
C291 C 0.10259 0.72639 0.26507 0.0
C292 C 0.11352 0.74579 0.29025 0.0
N293 N 0.13685 0.68725 0.2838 0.0
C294 C 0.14762 0.70613 0.30859 0.0
Co295 Co 0.39791 0.12606 0.35566 0.0
Co296 Co 0.35904 0.14818 0.28555 0.0
O297 O 0.3652 0.14974 0.33467 0.0
C298 C 0.34997 0.13318 0.41068 0.0
O299 O 0.33076 0.14679 0.39022 0.0
C300 C 0.3522 0.21354 0.26765 0.0
O301 O 0.37363 0.20968 0.24483 0.0
O302 O 0.40167 0.16279 0.27889 0.0
O303 O 0.42386 0.13021 0.31444 0.0
H304 H 0.389 0.12368 0.1659 0.0
H305 H 0.37352 0.1848 0.38357 0.0
O306 O 0.37438 0.12134 0.39917 0.0
H307 H 0.485 0.19733 0.3837 0.0
H308 H 0.46733 0.09181 0.45006 0.0
H309 H 0.43713 0.07569 0.33118 0.0
H310 H 0.46173 0.14965 0.36367 0.0
H311 H 0.42776 0.12381 0.42384 0.0
O312 O 0.34461 0.19154 0.28716 0.0
H313 H 0.39557 0.12554 0.22788 0.0
H314 H 0.30971 0.16887 0.23855 0.0
H315 H 0.47723 0.04357 0.35618 0.0
H316 H 0.39586 0.23246 0.40456 0.0
H317 H 0.49254 0.05146 0.41606 0.0
H318 H 0.45205 0.23918 0.40472 0.0
O319 O 0.37928 0.08805 0.33659 0.0
H320 H 0.25551 0.15083 0.33983 0.0
H321 H 0.32096 0.09714 0.25792 0.0
H322 H 0.26874 0.07848 0.26818 0.0
H323 H 0.23557 0.10544 0.30931 0.0
H324 H 0.30803 0.16853 0.3291 0.0
H325 H 0.30223 0.16755 0.17668 0.0
H326 H 0.34205 0.1448 0.13992 0.0
O327 O 0.37288 0.10447 0.28329 0.0
C328 C 0.42536 0.15034 0.29126 0.0
C329 C 0.37148 0.13364 0.18165 0.0
C330 C 0.32278 0.15825 0.1877 0.0
N331 N 0.35305 0.14723 0.23682 0.0
C332 C 0.37508 0.13475 0.21676 0.0
C333 C 0.32714 0.15892 0.22271 0.0
C334 C 0.34513 0.14549 0.16709 0.0
C335 C 0.39794 0.18693 0.38408 0.0
N336 N 0.41614 0.16373 0.373 0.0
C337 C 0.4105 0.21428 0.39579 0.0
C338 C 0.44201 0.21808 0.39579 0.0
C339 C 0.46048 0.19463 0.38401 0.0
C340 C 0.44709 0.1676 0.37256 0.0
C341 C 0.46077 0.08805 0.42397 0.0
C342 C 0.44365 0.07934 0.35724 0.0
C343 C 0.43815 0.10591 0.40909 0.0
N344 N 0.42988 0.10151 0.37607 0.0
C345 C 0.46638 0.06104 0.37127 0.0
C346 C 0.47494 0.06546 0.40488 0.0
C347 C 0.375 0.08293 0.30501 0.0
C348 C 0.26974 0.13889 0.32183 0.0
C349 C 0.3068 0.10887 0.27609 0.0
C350 C 0.27718 0.09826 0.28167 0.0
C351 C 0.25857 0.11341 0.30472 0.0
N352 N 0.3176 0.13391 0.29296 0.0
C353 C 0.29948 0.14885 0.3156 0.0
Co354 Co 0.89163 0.38916 0.34873 0.0
Co355 Co 0.85782 0.36273 0.27804 0.0
O356 O 0.8621 0.36145 0.32751 0.0
C357 C 0.88204 0.33817 0.39968 0.0
O358 O 0.86505 0.32213 0.37887 0.0
C359 C 0.78948 0.36058 0.27259 0.0
O360 O 0.78899 0.38809 0.25941 0.0
O361 O 0.84612 0.40685 0.28172 0.0
O362 O 0.88724 0.41912 0.31145 0.0
H363 H 0.86991 0.41182 0.16387 0.0
H364 H 0.83294 0.36948 0.38172 0.0
O365 O 0.89721 0.3611 0.38877 0.0
H366 H 0.83571 0.48121 0.39352 0.0
H367 H 0.94228 0.44743 0.44374 0.0
H368 H 0.94543 0.42288 0.32209 0.0
H369 H 0.87731 0.45437 0.36467 0.0
H370 H 0.90273 0.41492 0.41804 0.0
O371 O 0.81436 0.34911 0.28315 0.0
H372 H 0.8762 0.40741 0.22566 0.0
H373 H 0.82961 0.32246 0.22512 0.0
H374 H 0.98507 0.45604 0.34647 0.0
H375 H 0.79143 0.3953 0.41146 0.0
H376 H 0.98381 0.46846 0.40777 0.0
H377 H 0.79246 0.45165 0.41763 0.0
O378 O 0.92444 0.36832 0.32235 0.0
H379 H 0.85453 0.25259 0.3134 0.0
H380 H 0.90126 0.32696 0.23517 0.0
H381 H 0.91672 0.27303 0.23253 0.0
H382 H 0.8932 0.23537 0.27174 0.0
H383 H 0.83996 0.30681 0.31546 0.0
H384 H 0.82243 0.32601 0.16343 0.0
H385 H 0.84276 0.37097 0.1323 0.0
O386 O 0.90197 0.37422 0.27185 0.0
C387 C 0.86401 0.42681 0.29436 0.0
C388 C 0.86082 0.39218 0.17715 0.0
C389 C 0.83414 0.34407 0.1769 0.0
N390 N 0.85285 0.36489 0.22917 0.0
C391 C 0.86426 0.38958 0.21218 0.0
C392 C 0.83804 0.34226 0.21193 0.0
C393 C 0.84558 0.36926 0.15945 0.0
C394 C 0.83437 0.39378 0.38503 0.0
N395 N 0.85862 0.41 0.37265 0.0
C396 C 0.81041 0.40841 0.4016 0.0
C397 C 0.81093 0.44002 0.40494 0.0
C398 C 0.83519 0.45659 0.39147 0.0
C399 C 0.85878 0.44117 0.37516 0.0
C400 C 0.94333 0.44189 0.41707 0.0
C401 C 0.94475 0.42786 0.34883 0.0
C402 C 0.92122 0.42304 0.40251 0.0
N403 N 0.92212 0.41608 0.3688 0.0
C404 C 0.96727 0.4468 0.36248 0.0
C405 C 0.96655 0.45376 0.39687 0.0
C406 C 0.92566 0.36932 0.28992 0.0
C407 C 0.86491 0.26877 0.29615 0.0
C408 C 0.89106 0.3108 0.25251 0.0
C409 C 0.89984 0.28025 0.2508 0.0
C410 C 0.88663 0.25913 0.27279 0.0
N411 N 0.86965 0.32009 0.27543 0.0
C412 C 0.85672 0.29951 0.29716 0.0
Co413 Co 0.61217 0.87731 0.34607 0.0
Co414 Co 0.65359 0.84959 0.27956 0.0
O415 O 0.64367 0.8504 0.32786 0.0
C416 C 0.6584 0.869 0.402 0.0
O417 O 0.6759 0.85234 0.38253 0.0
C418 C 0.65742 0.78371 0.2644 0.0
O419 O 0.63697 0.78827 0.24066 0.0
O420 O 0.61055 0.83837 0.26952 0.0
O421 O 0.58678 0.87106 0.3046 0.0
H422 H 0.63581 0.8709 0.15603 0.0
H423 H 0.63167 0.8181 0.37888 0.0
O424 O 0.63572 0.88339 0.38963 0.0
H425 H 0.51963 0.81501 0.37722 0.0
H426 H 0.54574 0.92333 0.43679 0.0
H427 H 0.57448 0.92642 0.31614 0.0
H428 H 0.54715 0.85868 0.35274 0.0
H429 H 0.58394 0.88765 0.41421 0.0
O430 O 0.66479 0.80546 0.28429 0.0
H431 H 0.62408 0.87234 0.21705 0.0
H432 H 0.70514 0.82383 0.23903 0.0
H433 H 0.53589 0.96225 0.33764 0.0
H434 H 0.60509 0.77447 0.40404 0.0
H435 H 0.5213 0.96087 0.39838 0.0
H436 H 0.54855 0.77255 0.40349 0.0
O437 O 0.63279 0.91356 0.32457 0.0
H438 H 0.753 0.84098 0.34203 0.0
H439 H 0.69652 0.89776 0.25457 0.0
H440 H 0.74899 0.91326 0.26876 0.0
H441 H 0.77766 0.88474 0.31271 0.0
H442 H 0.70033 0.82649 0.32738 0.0
H443 H 0.71787 0.82181 0.17831 0.0
H444 H 0.68307 0.84545 0.13629 0.0
O445 O 0.64269 0.8935 0.27369 0.0
C446 C 0.58668 0.85168 0.2805 0.0
C447 C 0.65113 0.86045 0.17406 0.0
C448 C 0.69719 0.83294 0.18656 0.0
N449 N 0.66369 0.84809 0.2316 0.0
C450 C 0.64452 0.86116 0.20863 0.0
C451 C 0.68984 0.83416 0.22093 0.0
C452 C 0.67766 0.84619 0.16301 0.0
C453 C 0.60721 0.8183 0.37933 0.0
N454 N 0.59121 0.84213 0.36589 0.0
C455 C 0.59218 0.7931 0.39329 0.0
C456 C 0.56048 0.79199 0.39288 0.0
C457 C 0.54426 0.81582 0.37824 0.0
C458 C 0.56007 0.84066 0.36461 0.0
C459 C 0.55191 0.92415 0.41027 0.0
C460 C 0.56816 0.92554 0.34257 0.0
C461 C 0.57367 0.90411 0.39735 0.0
N462 N 0.58142 0.90485 0.36381 0.0
C463 C 0.54633 0.94595 0.35462 0.0
C464 C 0.53818 0.94519 0.3887 0.0
C465 C 0.63856 0.91643 0.29295 0.0
C466 C 0.74074 0.85361 0.32285 0.0
C467 C 0.70866 0.88542 0.27402 0.0
C468 C 0.73846 0.89421 0.2818 0.0
C469 C 0.75455 0.87817 0.30642 0.0
N470 N 0.69522 0.86132 0.29029 0.0
C471 C 0.7109 0.84547 0.3144 0.0
Co472 Co 0.89374 0.63647 0.84696 0.0
Co473 Co 0.84701 0.65009 0.77876 0.0
O474 O 0.85706 0.6548 0.8271 0.0
C475 C 0.84743 0.63628 0.90418 0.0
O476 O 0.82592 0.64772 0.88498 0.0
C477 C 0.83348 0.7155 0.76183 0.0
O478 O 0.85807 0.71654 0.74293 0.0
O479 O 0.88737 0.66783 0.76602 0.0
O480 O 0.91725 0.64524 0.8048 0.0
H481 H 0.86746 0.62033 0.658 0.0
H482 H 0.86142 0.69126 0.87519 0.0
O483 O 0.87272 0.62797 0.89131 0.0
H484 H 0.97014 0.71919 0.87395 0.0
H485 H 0.96983 0.61202 0.93884 0.0
H486 H 0.94004 0.59385 0.82019 0.0
H487 H 0.95345 0.66891 0.85351 0.0
H488 H 0.92507 0.63776 0.91452 0.0
O489 O 0.82736 0.69169 0.77931 0.0
H490 H 0.87916 0.62547 0.71874 0.0
H491 H 0.79244 0.66465 0.73647 0.0
H492 H 0.98536 0.56812 0.84329 0.0
H493 H 0.87719 0.74143 0.89634 0.0
H494 H 1.00048 0.57706 0.90306 0.0
H495 H 0.93194 0.75588 0.89587 0.0
O496 O 0.88091 0.59554 0.8292 0.0
H497 H 0.74859 0.64495 0.84366 0.0
H498 H 0.81275 0.59397 0.75841 0.0
H499 H 0.76386 0.57058 0.77514 0.0
H500 H 0.73135 0.59614 0.81799 0.0
H501 H 0.79781 0.6674 0.82646 0.0
H502 H 0.77973 0.6602 0.67593 0.0
H503 H 0.81741 0.63786 0.63617 0.0
O504 O 0.86543 0.60826 0.77707 0.0
C505 C 0.91348 0.6608 0.77785 0.0
C506 C 0.85094 0.63034 0.67499 0.0
C507 C 0.80172 0.65272 0.68505 0.0
N508 N 0.83685 0.64604 0.73106 0.0
C509 C 0.85753 0.63345 0.7094 0.0
C510 C 0.80913 0.65541 0.7193 0.0
C511 C 0.82285 0.64015 0.66277 0.0
C512 C 0.88531 0.6968 0.87535 0.0
N513 N 0.90645 0.67644 0.86382 0.0
C514 C 0.89411 0.72554 0.88718 0.0
C515 C 0.9248 0.73366 0.88684 0.0
C516 C 0.94622 0.71311 0.87458 0.0
C517 C 0.93657 0.68457 0.86301 0.0
C518 C 0.96344 0.60786 0.91278 0.0
C519 C 0.94654 0.59801 0.84617 0.0
C520 C 0.93792 0.62217 0.89895 0.0
N521 N 0.9298 0.61725 0.86597 0.0
C522 C 0.9722 0.58331 0.85914 0.0
C523 C 0.98065 0.5883 0.89268 0.0
C524 C 0.87406 0.5885 0.79872 0.0
C525 C 0.76254 0.63359 0.82495 0.0
C526 C 0.79888 0.60513 0.77729 0.0
C527 C 0.77114 0.59183 0.78655 0.0
C528 C 0.7529 0.6062 0.81056 0.0
N529 N 0.8082 0.63203 0.79151 0.0
C530 C 0.79042 0.64623 0.81507 0.0
Co531 Co 0.37652 0.89222 0.84937 0.0
Co532 Co 0.34899 0.85945 0.77783 0.0
O533 O 0.35189 0.8603 0.82755 0.0
C534 C 0.3726 0.8441 0.90382 0.0
O535 O 0.35227 0.82731 0.88807 0.0
C536 C 0.28316 0.84738 0.7957 0.0
O537 O 0.28222 0.87147 0.81538 0.0
O538 O 0.33102 0.90116 0.7788 0.0
O539 O 0.36595 0.92205 0.813 0.0
H540 H 0.35864 0.90441 0.66122 0.0
H541 H 0.31666 0.86462 0.87407 0.0
O542 O 0.38786 0.86438 0.8879 0.0
H543 H 0.31119 0.97303 0.90451 0.0
H544 H 0.42335 0.95077 0.94654 0.0
H545 H 0.42042 0.93782 0.82262 0.0
H546 H 0.35537 0.95354 0.87391 0.0
H547 H 0.38881 0.91311 0.92054 0.0
O548 O 0.30765 0.84015 0.78051 0.0
H549 H 0.36332 0.9039 0.7234 0.0
H550 H 0.32664 0.81414 0.72697 0.0
H551 H 0.45471 0.97633 0.84752 0.0
H552 H 0.27274 0.88304 0.90548 0.0
H553 H 0.45643 0.98296 0.90992 0.0
H554 H 0.26949 0.93772 0.92123 0.0
O555 O 0.41284 0.87777 0.8231 0.0
H556 H 0.36118 0.75173 0.81894 0.0
H557 H 0.39849 0.82911 0.73811 0.0
H558 H 0.42207 0.77816 0.73895 0.0
H559 H 0.40336 0.73901 0.77951 0.0
H560 H 0.33842 0.8031 0.81746 0.0
H561 H 0.32129 0.81379 0.66486 0.0
H562 H 0.33749 0.85912 0.63151 0.0
O563 O 0.39069 0.87763 0.77235 0.0
C564 C 0.34378 0.9244 0.7923 0.0
C565 C 0.35153 0.88451 0.67545 0.0
C566 C 0.33053 0.83367 0.6775 0.0
N567 N 0.34531 0.85901 0.72884 0.0
C568 C 0.35415 0.88407 0.71068 0.0
C569 C 0.3335 0.83405 0.7127 0.0
C570 C 0.33964 0.8591 0.65881 0.0
C571 C 0.31684 0.88797 0.88202 0.0
N572 N 0.3406 0.90708 0.87425 0.0
C573 C 0.2912 0.89852 0.89933 0.0
C574 C 0.28928 0.9292 0.90797 0.0
C575 C 0.31268 0.94896 0.89867 0.0
C576 C 0.33798 0.93756 0.88144 0.0
C577 C 0.42288 0.94805 0.91932 0.0
C578 C 0.42082 0.94066 0.84978 0.0
C579 C 0.40359 0.92648 0.90446 0.0
N580 N 0.40258 0.92309 0.87005 0.0
C581 C 0.44038 0.96247 0.86375 0.0
C582 C 0.44138 0.96614 0.89876 0.0
C583 C 0.41449 0.87759 0.79082 0.0
C584 C 0.3695 0.76857 0.80111 0.0
C585 C 0.39031 0.81227 0.75597 0.0
C586 C 0.4037 0.78342 0.75625 0.0
C587 C 0.39318 0.76146 0.779 0.0
N588 N 0.36704 0.81907 0.7777 0.0
C589 C 0.35667 0.79767 0.80012 0.0
Co590 Co 0.10985 0.38134 0.85428 0.0
Co591 Co 0.15781 0.36435 0.78813 0.0
O592 O 0.14638 0.36159 0.83622 0.0
C593 C 0.15353 0.38044 0.91368 0.0
O594 O 0.17379 0.36402 0.89753 0.0
C595 C 0.17173 0.29983 0.7711 0.0
O596 O 0.15127 0.30187 0.74695 0.0
O597 O 0.11738 0.34712 0.775 0.0
O598 O 0.08688 0.37093 0.81233 0.0
H599 H 0.14146 0.38941 0.66526 0.0
H600 H 0.14008 0.32415 0.88145 0.0
O601 O 0.13069 0.39167 0.89819 0.0
H602 H 0.03003 0.30362 0.88743 0.0
H603 H 0.03473 0.41416 0.94396 0.0
H604 H 0.06393 0.42229 0.82373 0.0
H605 H 0.04878 0.35205 0.8643 0.0
H606 H 0.07915 0.3862 0.92216 0.0
O607 O 0.17569 0.32216 0.79145 0.0
H608 H 0.12758 0.38638 0.72566 0.0
H609 H 0.21353 0.34743 0.74877 0.0
H610 H 0.01895 0.45015 0.84442 0.0
H611 H 0.12221 0.27591 0.90525 0.0
H612 H 1.00411 0.44623 0.90494 0.0
H613 H 0.06675 0.26511 0.90856 0.0
O614 O 0.12367 0.42116 0.83451 0.0
H615 H 0.25406 0.36905 0.85681 0.0
H616 H 0.1944 0.41875 0.76666 0.0
H617 H 0.24337 0.44131 0.78438 0.0
H618 H 0.27363 0.41637 0.82968 0.0
H619 H 0.2048 0.34743 0.83858 0.0
H620 H 0.22837 0.35001 0.68863 0.0
H621 H 0.1922 0.37111 0.64638 0.0
O622 O 0.1407 0.40659 0.78364 0.0
C623 C 0.0911 0.35446 0.78615 0.0
C624 C 0.15738 0.38006 0.68339 0.0
C625 C 0.20615 0.35797 0.69651 0.0
N626 N 0.16954 0.36646 0.74069 0.0
C627 C 0.14959 0.3782 0.71762 0.0
C628 C 0.19759 0.35651 0.73053 0.0
C629 C 0.18585 0.36981 0.67283 0.0
C630 C 0.11597 0.32065 0.88368 0.0
N631 N 0.09571 0.34234 0.87313 0.0
C632 C 0.10593 0.29277 0.89682 0.0
C633 C 0.07484 0.28666 0.89856 0.0
C634 C 0.05426 0.30827 0.88679 0.0
C635 C 0.06515 0.33591 0.87389 0.0
C636 C 0.04095 0.41603 0.91752 0.0
C637 C 0.05747 0.42019 0.85004 0.0
C638 C 0.06625 0.4004 0.90505 0.0
N639 N 0.07409 0.40238 0.87157 0.0
C640 C 0.03204 0.43615 0.86164 0.0
C641 C 0.02376 0.43399 0.89561 0.0
C642 C 0.13148 0.42711 0.80403 0.0
C643 C 0.24111 0.38011 0.83701 0.0
C644 C 0.2073 0.40785 0.78657 0.0
C645 C 0.23509 0.42068 0.7964 0.0
C646 C 0.25207 0.40667 0.8218 0.0
N647 N 0.19674 0.38173 0.80154 0.0
C648 C 0.21323 0.36792 0.82651 0.0
Co649 Co 0.63685 0.11486 0.85241 0.0
Co650 Co 0.64843 0.16584 0.78733 0.0
O651 O 0.6551 0.15264 0.83452 0.0
C652 C 0.63791 0.15834 0.91238 0.0
O653 O 0.64725 0.18129 0.89366 0.0
C654 C 0.71605 0.17334 0.79457 0.0
O655 O 0.71767 0.14681 0.80989 0.0
O656 O 0.6643 0.12619 0.7702 0.0
O657 O 0.64291 0.09426 0.80801 0.0
H658 H 0.61199 0.15436 0.66731 0.0
H659 H 0.69173 0.14412 0.88404 0.0
O660 O 0.6309 0.13291 0.89878 0.0
H661 H 0.72059 0.03721 0.86381 0.0
H662 H 0.61706 0.0323 0.93886 0.0
H663 H 0.59201 0.0707 0.82488 0.0
H664 H 0.66959 0.05552 0.84801 0.0
H665 H 0.64161 0.07889 0.91676 0.0
O666 O 0.69042 0.18392 0.78525 0.0
H667 H 0.61976 0.13835 0.7265 0.0
H668 H 0.66395 0.22228 0.74845 0.0
H669 H 0.56729 0.02373 0.84579 0.0
H670 H 0.74265 0.12666 0.90072 0.0
H671 H 0.57972 1.00426 0.9032 0.0
H672 H 0.75752 0.07282 0.8906 0.0
O673 O 0.59536 0.12905 0.83818 0.0
H674 H 0.65092 0.26042 0.85905 0.0
H675 H 0.59258 0.20262 0.77371 0.0
H676 H 0.57212 0.25109 0.79548 0.0
H677 H 0.6014 0.2804 0.83841 0.0
H678 H 0.6704 0.21165 0.83683 0.0
H679 H 0.65694 0.23918 0.68946 0.0
H680 H 0.63071 0.20516 0.64842 0.0
O681 O 0.6061 0.1485 0.78707 0.0
C682 C 0.65722 0.09951 0.78056 0.0
C683 C 0.6235 0.16939 0.68492 0.0
C684 C 0.64874 0.21697 0.69735 0.0
N685 N 0.6424 0.17919 0.74091 0.0
C686 C 0.62797 0.16039 0.71847 0.0
C687 C 0.65275 0.2072 0.73071 0.0
C688 C 0.634 0.19788 0.67434 0.0
C689 C 0.69755 0.12055 0.88014 0.0
N690 N 0.67719 0.10079 0.86573 0.0
C691 C 0.72666 0.11083 0.88939 0.0
C692 C 0.73502 0.08065 0.88362 0.0
C693 C 0.71432 0.06067 0.86861 0.0
C694 C 0.68543 0.07122 0.85971 0.0
C695 C 0.61141 0.04058 0.91382 0.0
C696 C 0.59764 0.06234 0.84984 0.0
C697 C 0.62508 0.06709 0.90125 0.0
N698 N 0.61819 0.07763 0.86958 0.0
C699 C 0.58352 0.03574 0.86157 0.0
C700 C 0.59049 0.02484 0.89379 0.0
C701 C 0.58724 0.13799 0.80872 0.0
C702 C 0.63796 0.24787 0.84035 0.0
C703 C 0.60535 0.21508 0.7926 0.0
C704 C 0.5937 0.2426 0.80472 0.0
C705 C 0.61015 0.25905 0.82878 0.0
N706 N 0.63263 0.20425 0.8041 0.0
C707 C 0.6489 0.22027 0.82763 0.0
Co708 Co 0.89809 0.37979 0.65603 0.0
Co709 Co 0.85591 0.36197 0.72564 0.0
O710 O 0.86299 0.35932 0.67663 0.0
C711 C 0.8556 0.37196 0.59605 0.0
O712 O 0.83738 0.35267 0.6115 0.0
C713 C 0.84153 0.29752 0.74373 0.0
O714 O 0.86352 0.29884 0.76623 0.0
O715 O 0.89695 0.34396 0.73386 0.0
O716 O 0.92324 0.37277 0.69723 0.0
H717 H 0.88531 0.38445 0.846 0.0
H718 H 0.87014 0.31805 0.63883 0.0
O719 O 0.87525 0.38741 0.61267 0.0
H720 H 0.97999 0.30534 0.62014 0.0
H721 H 0.96854 0.41313 0.56163 0.0
H722 H 0.94241 0.42513 0.68227 0.0
H723 H 0.96026 0.35384 0.64068 0.0
H724 H 0.92711 0.3828 0.58709 0.0
O725 O 0.83691 0.32012 0.72397 0.0
H726 H 0.89304 0.38182 0.78425 0.0
H727 H 0.8037 0.34611 0.77136 0.0
H728 H 0.98464 0.45523 0.65809 0.0
H729 H 0.88903 0.26965 0.61751 0.0
H730 H 0.99789 0.44946 0.59731 0.0
H731 H 0.9444 0.26268 0.60775 0.0
O732 O 0.88282 0.41926 0.67487 0.0
H733 H 0.75455 0.36907 0.66712 0.0
H734 H 0.82203 0.41597 0.75238 0.0
H735 H 0.77212 0.4392 0.74045 0.0
H736 H 0.73791 0.41564 0.69767 0.0
H737 H 0.80483 0.34678 0.67954 0.0
H738 H 0.79503 0.34829 0.833 0.0
H739 H 0.83601 0.3676 0.87077 0.0
O740 O 0.87393 0.40426 0.72817 0.0
C741 C 0.92205 0.35393 0.72177 0.0
C742 C 0.86727 0.376 0.82981 0.0
C743 C 0.81661 0.35571 0.82252 0.0
N744 N 0.84888 0.36383 0.77419 0.0
C745 C 0.87152 0.37446 0.79482 0.0
C746 C 0.82166 0.35452 0.78764 0.0
C747 C 0.83961 0.36654 0.84369 0.0
C748 C 0.89402 0.31645 0.6334 0.0
N749 N 0.91342 0.34054 0.63873 0.0
C750 C 0.90473 0.28835 0.62184 0.0
C751 C 0.93577 0.28437 0.61655 0.0
C752 C 0.95569 0.3083 0.6234 0.0
C753 C 0.94414 0.33608 0.63487 0.0
C754 C 0.96294 0.41593 0.58813 0.0
C755 C 0.94816 0.42221 0.65588 0.0
C756 C 0.9392 0.39909 0.60259 0.0
N757 N 0.93215 0.40217 0.63616 0.0
C758 C 0.97205 0.43944 0.64229 0.0
C759 C 0.97944 0.43625 0.60817 0.0
C760 C 0.87831 0.42522 0.70617 0.0
C761 C 0.76921 0.37949 0.6859 0.0
C762 C 0.80738 0.40566 0.73357 0.0
C763 C 0.77909 0.41888 0.72701 0.0
C764 C 0.7599 0.40564 0.70301 0.0
N765 N 0.81629 0.3799 0.71681 0.0
C766 C 0.79767 0.36691 0.69311 0.0
Co767 Co 0.61928 0.90293 0.66226 0.0
Co768 Co 0.65301 0.86262 0.72519 0.0
O769 O 0.64806 0.87096 0.6764 0.0
C770 C 0.62783 0.86252 0.60151 0.0
O771 O 0.64472 0.84273 0.61784 0.0
C772 C 0.72062 0.8555 0.72966 0.0
O773 O 0.72184 0.88051 0.74789 0.0
O774 O 0.66811 0.90535 0.73044 0.0
O775 O 0.62858 0.92675 0.70423 0.0
H776 H 0.64734 0.89102 0.84819 0.0
H777 H 0.67975 0.88709 0.63062 0.0
O778 O 0.61109 0.8814 0.61778 0.0
H779 H 0.67138 0.99848 0.61876 0.0
H780 H 0.55332 0.96735 0.58427 0.0
H781 H 0.57604 0.94011 0.70244 0.0
H782 H 0.63076 0.96949 0.64628 0.0
H783 H 0.59245 0.9297 0.59724 0.0
O784 O 0.69548 0.84703 0.71632 0.0
H785 H 0.6399 0.89844 0.7869 0.0
H786 H 0.67773 0.8113 0.76726 0.0
H787 H 0.53673 0.9781 0.69054 0.0
H788 H 0.72061 0.91545 0.60273 0.0
H789 H 0.52508 0.99225 0.63109 0.0
H790 H 0.71682 0.97164 0.5964 0.0
O791 O 0.58635 0.87987 0.68608 0.0
H792 H 0.64675 0.76136 0.6661 0.0
H793 H 0.60711 0.82298 0.7606 0.0
H794 H 0.58714 0.77101 0.75158 0.0
H795 H 0.60707 0.73974 0.70411 0.0
H796 H 0.66585 0.8136 0.67583 0.0
H797 H 0.68594 0.80299 0.82824 0.0
H798 H 0.6706 0.84304 0.86925 0.0
O799 O 0.6102 0.87621 0.73574 0.0
C800 C 0.65284 0.92884 0.72184 0.0
C801 C 0.65422 0.87344 0.83058 0.0
C802 C 0.67592 0.82407 0.81939 0.0
N803 N 0.65873 0.85547 0.77338 0.0
C804 C 0.65011 0.87753 0.79581 0.0
C805 C 0.67142 0.82896 0.78482 0.0
C806 C 0.66728 0.84652 0.84238 0.0
C807 C 0.67721 0.91136 0.62793 0.0
N808 N 0.65182 0.92606 0.63965 0.0
C809 C 0.70079 0.92741 0.61207 0.0
C810 C 0.69868 0.95891 0.60855 0.0
C811 C 0.67319 0.97394 0.62103 0.0
C812 C 0.65001 0.95714 0.63663 0.0
C813 C 0.55854 0.9618 0.61033 0.0
C814 C 0.57198 0.94643 0.67644 0.0
C815 C 0.58107 0.94041 0.61787 0.0
N816 N 0.58827 0.93339 0.65065 0.0
C817 C 0.54927 0.96787 0.66988 0.0
C818 C 0.54267 0.97572 0.63657 0.0
C819 C 0.58577 0.87629 0.71817 0.0
C820 C 0.6379 0.77475 0.68688 0.0
C821 C 0.61572 0.80967 0.73971 0.0
C822 C 0.60441 0.78017 0.73482 0.0
C823 C 0.61562 0.76264 0.7082 0.0
N824 N 0.63764 0.82138 0.71873 0.0
C825 C 0.64866 0.80433 0.69254 0.0
Co826 Co 0.11465 0.63572 0.65675 0.0
Co827 Co 0.151 0.65205 0.73057 0.0
O828 O 0.148 0.65515 0.68136 0.0
C829 C 0.1446 0.60778 0.59745 0.0
O830 O 0.13485 0.58113 0.60832 0.0
C831 C 0.16293 0.71666 0.75045 0.0
O832 O 0.14039 0.7145 0.77223 0.0
O833 O 0.10918 0.66932 0.73502 0.0
O834 O 0.08588 0.6414 0.69527 0.0
H835 H 0.11259 0.62701 0.84719 0.0
H836 H 0.14869 0.68799 0.62766 0.0
O837 O 0.14224 0.63105 0.61653 0.0
H838 H 0.04114 0.72001 0.62704 0.0
H839 H 0.04726 0.61518 0.5555 0.0
H840 H 0.06926 0.5881 0.67414 0.0
H841 H 0.05555 0.66917 0.64796 0.0
H842 H 0.08867 0.64092 0.5865 0.0
O843 O 0.16915 0.69423 0.73105 0.0
H844 H 0.10967 0.6307 0.78498 0.0
H845 H 0.19902 0.66811 0.78141 0.0
H846 H 0.02747 0.56194 0.64414 0.0
H847 H 0.13527 0.7389 0.60588 0.0
H848 H 0.01626 0.57537 0.58435 0.0
H849 H 0.08115 0.75527 0.60555 0.0
O850 O 0.12723 0.59526 0.67627 0.0
H851 H 0.25694 0.64737 0.68251 0.0
H852 H 0.1833 0.59802 0.75954 0.0
H853 H 0.23429 0.5756 0.75225 0.0
H854 H 0.27158 0.60039 0.71362 0.0
H855 H 0.20554 0.66883 0.69019 0.0
H856 H 0.2029 0.66488 0.8436 0.0
H857 H 0.15947 0.64417 0.87691 0.0
O858 O 0.13358 0.60958 0.7304 0.0
C859 C 0.0851 0.65921 0.72072 0.0
C860 C 0.13167 0.63607 0.83296 0.0
C861 C 0.18235 0.65732 0.83094 0.0
N862 N 0.15413 0.6496 0.77957 0.0
C863 C 0.13014 0.63822 0.79772 0.0
C864 C 0.18002 0.6591 0.79574 0.0
C865 C 0.15798 0.6457 0.84962 0.0
C866 C 0.12506 0.69485 0.62752 0.0
N867 N 0.10293 0.67552 0.63924 0.0
C868 C 0.11761 0.72376 0.61518 0.0
C869 C 0.08726 0.73294 0.61503 0.0
C870 C 0.06481 0.71319 0.62713 0.0
C871 C 0.07313 0.68446 0.63923 0.0
C872 C 0.05197 0.60905 0.58152 0.0
C873 C 0.06462 0.59405 0.64811 0.0
C874 C 0.07548 0.62349 0.59919 0.0
N875 N 0.08167 0.61586 0.63207 0.0
C876 C 0.04087 0.57918 0.63126 0.0
C877 C 0.03459 0.58673 0.59772 0.0
C878 C 0.13007 0.58896 0.70784 0.0
C879 C 0.24093 0.63642 0.69949 0.0
C880 C 0.19931 0.60887 0.74253 0.0
C881 C 0.2282 0.59611 0.73859 0.0
C882 C 0.24911 0.61003 0.71693 0.0
N883 N 0.19148 0.63486 0.72547 0.0
C884 C 0.21182 0.64853 0.70404 0.0
Co885 Co 0.3753 0.11236 0.67206 0.0
Co886 Co 0.36158 0.16238 0.73715 0.0
O887 O 0.35687 0.15013 0.68925 0.0
C888 C 0.37472 0.15365 0.60981 0.0
O889 O 0.35873 0.17524 0.62433 0.0
C890 C 0.29462 0.17203 0.7267 0.0
O891 O 0.29235 0.14517 0.71224 0.0
O892 O 0.34311 0.12304 0.75216 0.0
O893 O 0.36585 0.09111 0.71552 0.0
H894 H 0.39025 0.14717 0.85921 0.0
H895 H 0.31904 0.14265 0.64334 0.0
O896 O 0.3848 0.13112 0.62683 0.0
H897 H 0.29459 0.03317 0.64769 0.0
H898 H 0.40278 0.03275 0.58496 0.0
H899 H 0.41658 0.06685 0.7029 0.0
H900 H 0.34386 0.0519 0.66853 0.0
H901 H 0.37655 0.07862 0.60584 0.0
O902 O 0.32038 0.182 0.7366 0.0
H903 H 0.38528 0.13257 0.79921 0.0
H904 H 0.34645 0.21868 0.77616 0.0
H905 H 0.4428 0.02051 0.68315 0.0
H906 H 0.26988 0.12486 0.6219 0.0
H907 H 0.43604 1.00322 0.62377 0.0
H908 H 0.25715 0.06966 0.62381 0.0
O909 O 0.41596 0.12612 0.68924 0.0
H910 H 0.36799 0.2569 0.66552 0.0
H911 H 0.41744 0.19763 0.7562 0.0
H912 H 0.44119 0.2455 0.73643 0.0
H913 H 0.4164 0.27554 0.69083 0.0
H914 H 0.34513 0.20875 0.68589 0.0
H915 H 0.35072 0.23416 0.83595 0.0
H916 H 0.37285 0.19832 0.87795 0.0
O917 O 0.40321 0.1438 0.74032 0.0
C918 C 0.34973 0.09634 0.74172 0.0
C919 C 0.38053 0.16298 0.84117 0.0
C920 C 0.35833 0.21179 0.82812 0.0
N921 N 0.36548 0.17464 0.78419 0.0
C922 C 0.37765 0.15481 0.80716 0.0
C923 C 0.35585 0.20283 0.79431 0.0
C924 C 0.37076 0.19168 0.85166 0.0
C925 C 0.31461 0.11858 0.64328 0.0
N926 N 0.33559 0.09836 0.65547 0.0
C927 C 0.28626 0.10862 0.63152 0.0
C928 C 0.27907 0.07769 0.63272 0.0
C929 C 0.30007 0.05723 0.64602 0.0
C930 C 0.32818 0.06804 0.65755 0.0
C931 C 0.40589 0.04005 0.6109 0.0
C932 C 0.41327 0.05933 0.67711 0.0
C933 C 0.39124 0.06614 0.62285 0.0
N934 N 0.39486 0.0754 0.65569 0.0
C935 C 0.42829 0.03313 0.66603 0.0
C936 C 0.42452 0.02347 0.63269 0.0
C937 C 0.42298 0.13432 0.71924 0.0
C938 C 0.37899 0.24404 0.68544 0.0
C939 C 0.40658 0.21047 0.73622 0.0
C940 C 0.4201 0.23762 0.7252 0.0
C941 C 0.40617 0.25447 0.69963 0.0
N942 N 0.37989 0.20043 0.72221 0.0
C943 C 0.36612 0.2168 0.69711 0.0
H944 H 0.3484 0.25659 0.21753 0.0
H945 H 0.31095 0.2314 0.31483 0.0
H946 H 0.27189 0.27032 0.30906 0.0
H947 H 0.2451 0.30719 0.27413 0.0
H948 H 0.28049 0.3325 0.17623 0.0
H949 H 0.32408 0.29821 0.1847 0.0
C950 C 0.33208 0.26006 0.23777 0.0
C951 C 0.33243 0.24083 0.26643 0.0
C952 C 0.30921 0.28227 0.23404 0.0
C953 C 0.31108 0.24564 0.29239 0.0
C954 C 0.28866 0.26786 0.2891 0.0
C955 C 0.2625 0.30542 0.25471 0.0
C956 C 0.25941 0.32187 0.22435 0.0
C957 C 0.28698 0.28557 0.25963 0.0
C958 C 0.2824 0.31995 0.19976 0.0
C959 C 0.30717 0.30023 0.20456 0.0
H960 H 0.79184 0.30149 0.25528 0.0
H961 H 0.72811 0.3727 0.27962 0.0
H962 H 0.68554 0.33654 0.27182 0.0
H963 H 0.66713 0.28364 0.25883 0.0
H964 H 0.73263 0.21696 0.22477 0.0
H965 H 0.77384 0.25282 0.23437 0.0
C966 C 0.76869 0.30944 0.25837 0.0
C967 C 0.76316 0.33971 0.26817 0.0
C968 C 0.74465 0.2893 0.25176 0.0
C969 C 0.73292 0.34942 0.27224 0.0
C970 C 0.70865 0.32878 0.26767 0.0
C971 C 0.69039 0.27721 0.25306 0.0
C972 C 0.69671 0.24739 0.24164 0.0
C973 C 0.71428 0.29854 0.25743 0.0
C974 C 0.72695 0.23955 0.2338 0.0
C975 C 0.75068 0.26003 0.23945 0.0
H976 H 0.7694 0.69599 0.26533 0.0
H977 H 0.73326 0.67125 0.16769 0.0
H978 H 0.68819 0.70306 0.17822 0.0
H979 H 0.66223 0.74209 0.21308 0.0
H980 H 0.69965 0.76599 0.31072 0.0
H981 H 0.74095 0.72985 0.30247 0.0
C982 C 0.75159 0.69745 0.24638 0.0
C983 C 0.75482 0.68191 0.21549 0.0
C984 C 0.72603 0.71556 0.25268 0.0
C985 C 0.73127 0.68325 0.19154 0.0
C986 C 0.70561 0.70146 0.19757 0.0
C987 C 0.679 0.73888 0.2329 0.0
C988 C 0.67798 0.75704 0.26234 0.0
C989 C 0.70311 0.71829 0.22777 0.0
C990 C 0.69996 0.75254 0.28772 0.0
C991 C 0.72371 0.73197 0.28297 0.0
H992 H 0.3419 0.73212 0.25859 0.0
H993 H 0.27477 0.80194 0.2401 0.0
H994 H 0.23399 0.76603 0.25252 0.0
H995 H 0.21698 0.71513 0.26846 0.0
H996 H 0.28214 0.64233 0.27802 0.0
H997 H 0.32408 0.67898 0.27007 0.0
C998 C 0.31833 0.73931 0.25712 0.0
C999 C 0.31149 0.76977 0.24867 0.0
C1000 C 0.29463 0.71807 0.26308 0.0
C1001 C 0.2808 0.77871 0.24651 0.0
C1002 C 0.25737 0.7582 0.25378 0.0
C1003 C 0.24032 0.70717 0.26882 0.0
C1004 C 0.24645 0.67609 0.27409 0.0
C1005 C 0.264 0.72791 0.26217 0.0
C1006 C 0.27687 0.66622 0.27423 0.0
C1007 C 0.30081 0.68714 0.26951 0.0
H1008 H 0.71625 0.79414 0.73459 0.0
H1009 H 0.78215 0.86714 0.73013 0.0
H1010 H 0.82354 0.83021 0.73846 0.0
H1011 H 0.84056 0.77675 0.74901 0.0
H1012 H 0.7723 0.70704 0.76493 0.0
H1013 H 0.73222 0.74315 0.7513 0.0
C1014 C 0.7396 0.80214 0.73564 0.0
C1015 C 0.74609 0.83337 0.73158 0.0
C1016 C 0.76285 0.78126 0.74299 0.0
C1017 C 0.77659 0.84317 0.73295 0.0
C1018 C 0.8002 0.82208 0.73794 0.0
C1019 C 0.81688 0.76962 0.74971 0.0
C1020 C 0.80955 0.73903 0.75743 0.0
C1021 C 0.79357 0.79104 0.74342 0.0
C1022 C 0.77873 0.73025 0.75876 0.0
C1023 C 0.75571 0.7509 0.75087 0.0
H1024 H 0.16608 0.76238 0.79785 0.0
H1025 H 0.20885 0.72953 0.7064 0.0
H1026 H 0.2486 0.76801 0.71178 0.0
H1027 H 0.27317 0.80843 0.74397 0.0
H1028 H 0.23188 0.84214 0.83561 0.0
H1029 H 0.1894 0.80609 0.82842 0.0
C1030 C 0.18384 0.76393 0.77884 0.0
C1031 C 0.18449 0.74284 0.75187 0.0
C1032 C 0.20703 0.7861 0.78223 0.0
C1033 C 0.20777 0.74523 0.72753 0.0
C1034 C 0.23062 0.76724 0.73059 0.0
C1035 C 0.25491 0.80802 0.76244 0.0
C1036 C 0.25595 0.8277 0.79055 0.0
C1037 C 0.23081 0.78732 0.75816 0.0
C1038 C 0.2317 0.82719 0.81379 0.0
C1039 C 0.20747 0.80651 0.80971 0.0
H1040 H 0.17379 0.25047 0.72856 0.0
H1041 H 0.2216 0.29316 0.81166 0.0
H1042 H 0.26308 0.25688 0.80563 0.0
H1043 H 0.28752 0.21541 0.77463 0.0
H1044 H 0.24026 0.17141 0.69226 0.0
H1045 H 0.1968 0.20574 0.70024 0.0
C1046 C 0.19307 0.2516 0.74566 0.0
C1047 C 0.19452 0.27479 0.77038 0.0
C1048 C 0.21712 0.23062 0.74198 0.0
C1049 C 0.21974 0.27572 0.79236 0.0
C1050 C 0.24363 0.25502 0.78884 0.0
C1051 C 0.26771 0.21326 0.75839 0.0
C1052 C 0.26731 0.19117 0.73255 0.0
C1053 C 0.24285 0.23283 0.76333 0.0
C1054 C 0.24118 0.1883 0.71225 0.0
C1055 C 0.21637 0.20797 0.71678 0.0
H1056 H 0.72346 0.2155 0.74529 0.0
H1057 H 0.77121 0.17188 0.82741 0.0
H1058 H 0.8155 0.20505 0.81743 0.0
H1059 H 0.83915 0.24886 0.78749 0.0
H1060 H 0.79066 0.29112 0.70473 0.0
H1061 H 0.74837 0.25583 0.71269 0.0
C1062 C 0.74357 0.21316 0.76102 0.0
C1063 C 0.74387 0.19154 0.78738 0.0
C1064 C 0.76887 0.23207 0.75497 0.0
C1065 C 0.77036 0.18841 0.80703 0.0
C1066 C 0.79565 0.20742 0.80136 0.0
C1067 C 0.81954 0.25009 0.77088 0.0
C1068 C 0.81814 0.27292 0.7457 0.0
C1069 C 0.79499 0.22966 0.77567 0.0
C1070 C 0.79248 0.27399 0.72439 0.0
C1071 C 0.76813 0.25385 0.72899 0.0
H1072 H 0.1747 0.3365 0.95656 0.0
H1073 H 0.12747 0.42266 0.95461 0.0
H1074 H 0.11715 0.41847 0.01514 0.0
H1075 H 0.11993 0.38979 0.06794 0.0
H1076 H 0.16764 0.30391 0.07119 0.0
H1077 H 0.17834 0.30798 0.01054 0.0
C1078 C 0.16278 0.35467 0.96957 0.0
C1079 C 0.15227 0.38011 0.95116 0.0
C1080 C 0.15626 0.35177 1.00438 0.0
C1081 C 0.1361 0.40304 0.96824 0.0
C1082 C 0.12993 0.40052 1.00279 0.0
C1083 C 0.13276 0.37192 0.05557 0.0
C1084 C 0.14309 0.34667 0.07439 0.0
C1085 C 0.13954 0.37481 0.02099 0.0
C1086 C 0.15923 0.32356 0.05748 0.0
C1087 C 0.16564 0.32602 0.02281 0.0
H1088 H 0.62086 0.11484 0.95781 0.0
H1089 H 0.6641 0.20326 0.95137 0.0
H1090 H 0.67595 0.20113 0.01186 0.0
H1091 H 0.67452 0.17371 0.0666 0.0
H1092 H 0.63099 0.08542 0.07219 0.0
H1093 H 0.61977 0.08749 0.01168 0.0
C1094 C 0.63291 0.13371 0.96949 0.0
C1095 C 0.64167 0.15913 0.94982 0.0
C1096 C 0.64018 0.13205 1.00405 0.0
C1097 C 0.65689 0.18348 0.96577 0.0
C1098 C 0.66395 0.18214 1.00034 0.0
C1099 C 0.66317 0.15465 0.0544 0.0
C1100 C 0.65405 0.12919 0.0738 0.0
C1101 C 0.65603 0.15636 0.01967 0.0
C1102 C 0.63857 0.10508 0.05778 0.0
C1103 C 0.6319 0.10638 0.02324 0.0
H1104 H 0.88777 0.61487 0.95061 0.0
H1105 H 0.80415 0.6658 0.94229 0.0
H1106 H 0.80642 0.67767 1.00278 0.0
H1107 H 0.83298 0.67448 0.05799 0.0
H1108 H 0.91723 0.6244 0.06484 0.0
H1109 H 0.91458 0.61254 1.00459 0.0
C1110 C 0.87003 0.62869 0.96184 0.0
C1111 C 0.84596 0.6396 0.94165 0.0
C1112 C 0.872 0.63623 0.9963 0.0
C1113 C 0.82289 0.65691 0.9571 0.0
C1114 C 0.82436 0.66402 0.99167 0.0
C1115 C 0.85109 0.66156 0.04611 0.0
C1116 C 0.87552 0.65071 0.06584 0.0
C1117 C 0.84907 0.6542 0.01143 0.0
C1118 C 0.89837 0.63329 0.0502 0.0
C1119 C 0.89671 0.62624 0.01581 0.0
H1120 H 0.3859 0.88598 0.05427 0.0
H1121 H 0.29642 0.84582 0.06284 0.0
H1122 H 0.29839 0.83131 1.00287 0.0
H1123 H 0.3264 0.82966 0.948 0.0
H1124 H 0.41845 0.86459 0.94376 0.0
H1125 H 0.41536 0.87974 1.00291 0.0
C1126 C 0.36697 0.87352 0.04353 0.0
C1127 C 0.34126 0.86671 0.06351 0.0
C1128 C 0.36907 0.86363 0.0099 0.0
C1129 C 0.31654 0.85151 0.04823 0.0
C1130 C 0.31781 0.84288 0.014 0.0
C1131 C 0.34605 0.83981 0.9603 0.0
C1132 C 0.37262 0.84609 0.94132 0.0
C1133 C 0.34419 0.84845 0.99466 0.0
C1134 C 0.39773 0.85957 0.95765 0.0
C1135 C 0.39589 0.86853 0.99141 0.0
H1136 H 0.14081 0.66152 0.56237 0.0
H1137 H 0.15636 0.565 0.54912 0.0
H1138 H 0.15334 0.57127 0.48776 0.0
H1139 H 0.14278 0.6032 0.43862 0.0
H1140 H 0.12415 0.69894 0.45073 0.0
H1141 H 0.1322 0.6941 0.51217 0.0
C1142 C 0.14409 0.64189 0.54611 0.0
C1143 C 0.14874 0.61271 0.56049 0.0
C1144 C 0.1412 0.64548 0.51083 0.0
C1145 C 0.15274 0.58763 0.53886 0.0
C1146 C 0.1508 0.59118 0.50377 0.0
C1147 C 0.13964 0.62288 0.45467 0.0
C1148 C 0.13153 0.65112 0.44031 0.0
C1149 C 0.14415 0.61978 0.48962 0.0
C1150 C 0.12973 0.67684 0.46131 0.0
C1151 C 0.13441 0.67404 0.49635 0.0
H1152 H 0.33484 0.17675 0.56292 0.0
H1153 H 0.41619 0.12238 0.57292 0.0
H1154 H 0.41356 0.1088 0.51327 0.0
H1155 H 0.38743 0.11046 0.45913 0.0
H1156 H 0.30798 0.16697 0.44645 0.0
H1157 H 0.30973 0.18039 0.50664 0.0
C1158 C 0.35236 0.16253 0.55182 0.0
C1159 C 0.37582 0.15079 0.57241 0.0
C1160 C 0.35054 0.15442 0.5173 0.0
C1161 C 0.39798 0.13186 0.55771 0.0
C1162 C 0.39636 0.12383 0.52363 0.0
C1163 C 0.37058 0.12596 0.46924 0.0
C1164 C 0.34782 0.13788 0.44795 0.0
C1165 C 0.37252 0.13459 0.50335 0.0
C1166 C 0.32574 0.15728 0.46211 0.0
C1167 C 0.32694 0.16526 0.4965 0.0
H1168 H 0.90703 0.37363 0.44857 0.0
H1169 H 0.84471 0.29843 0.43538 0.0
H1170 H 0.82967 0.30252 0.49512 0.0
H1171 H 0.83302 0.32958 0.55071 0.0
H1172 H 0.88699 0.41207 0.5568 0.0
H1173 H 0.90454 0.40463 0.49917 0.0
C1174 C 0.88942 0.35869 0.4581 0.0
C1175 C 0.87655 0.33635 0.43691 0.0
C1176 C 0.87879 0.36305 0.49114 0.0
C1177 C 0.85512 0.31595 0.45091 0.0
C1178 C 0.84615 0.31857 0.48498 0.0
C1179 C 0.84805 0.3463 0.53918 0.0
C1180 C 0.85931 0.37093 0.55863 0.0
C1181 C 0.85738 0.34253 0.5052 0.0
C1182 C 0.87854 0.39247 0.54296 0.0
C1183 C 0.88876 0.3882 0.50996 0.0
H1184 H 0.64375 0.82128 0.5522 0.0
H1185 H 0.63116 0.91733 0.56926 0.0
H1186 H 0.63798 0.92798 0.5097 0.0
H1187 H 0.64708 0.91006 0.45169 0.0
H1188 H 0.66873 0.81548 0.43497 0.0
H1189 H 0.66015 0.80432 0.49496 0.0
C1190 C 0.64223 0.84446 0.54275 0.0
C1191 C 0.63379 0.86815 0.5649 0.0
C1192 C 0.64867 0.85078 0.50837 0.0
C1193 C 0.63376 0.89824 0.55246 0.0
C1194 C 0.6389 0.90452 0.51836 0.0
C1195 C 0.65043 0.88714 0.46136 0.0
C1196 C 0.65862 0.86372 0.43901 0.0
C1197 C 0.64597 0.88096 0.49595 0.0
C1198 C 0.66287 0.83406 0.45181 0.0
C1199 C 0.65764 0.82757 0.48607 0.0
H1200 H 0.13079 0.52699 0.30896 0.0
H1201 H 0.20015 0.56333 0.24257 0.0
H1202 H 0.21413 0.51117 0.22613 0.0
H1203 H 0.20314 0.45549 0.22783 0.0
H1204 H 0.13446 0.4214 0.29618 0.0
H1205 H 0.12551 0.47278 0.31726 0.0
C1206 C 0.14972 0.52383 0.29178 0.0
C1207 C 0.16455 0.54918 0.27729 0.0
C1208 C 0.15829 0.49415 0.28363 0.0
C1209 C 0.1883 0.54425 0.25408 0.0
C1210 C 0.19641 0.51445 0.24488 0.0
C1211 C 0.1871 0.45936 0.24824 0.0
C1212 C 0.1698 0.43483 0.26096 0.0
C1213 C 0.18127 0.48924 0.25927 0.0
C1214 C 0.14867 0.43984 0.2869 0.0
C1215 C 0.14307 0.46929 0.29836 0.0
H1216 H 0.54844 0.19258 0.222 0.0
H1217 H 0.58423 0.13289 0.2989 0.0
H1218 H 0.53337 0.12549 0.32207 0.0
H1219 H 0.47902 0.12925 0.31468 0.0
H1220 H 0.44109 0.18938 0.23909 0.0
H1221 H 0.49274 0.20193 0.2195 0.0
C1222 C 0.54504 0.17885 0.24452 0.0
C1223 C 0.56995 0.16375 0.25923 0.0
C1224 C 0.51544 0.1737 0.2568 0.0
C1225 C 0.56555 0.14557 0.288 0.0
C1226 C 0.53637 0.14076 0.30072 0.0
C1227 C 0.48174 0.14584 0.29455 0.0
C1228 C 0.45608 0.15852 0.27859 0.0
C1229 C 0.51116 0.15371 0.28443 0.0
C1230 C 0.46042 0.1792 0.25179 0.0
C1231 C 0.48992 0.18655 0.24078 0.0
H1232 H 0.87665 0.56825 0.2756 0.0
H1233 H 0.79271 0.55665 0.22106 0.0
H1234 H 0.7906 0.50258 0.23781 0.0
H1235 H 0.81698 0.45721 0.26225 0.0
H1236 H 0.90408 0.47117 0.31138 0.0
H1237 H 0.90068 0.52522 0.30236 0.0
C1238 C 0.85731 0.55406 0.26861 0.0
C1239 C 0.83459 0.56611 0.24796 0.0
C1240 C 0.8573 0.52308 0.27658 0.0
C1241 C 0.81 0.54769 0.23788 0.0
C1242 C 0.80916 0.51674 0.24689 0.0
C1243 C 0.83508 0.47215 0.27097 0.0
C1244 C 0.86068 0.45982 0.28741 0.0
C1245 C 0.83341 0.50387 0.26517 0.0
C1246 C 0.88397 0.47963 0.29866 0.0
C1247 C 0.88213 0.51081 0.29368 0.0
H1248 H 0.53623 0.82102 0.30093 0.0
H1249 H 0.57257 0.87689 0.22053 0.0
H1250 H 0.52209 0.88145 0.19567 0.0
H1251 H 0.46809 0.87466 0.20042 0.0
H1252 H 0.4292 0.81779 0.27877 0.0
H1253 H 0.48053 0.80948 0.30205 0.0
C1254 C 0.53299 0.83361 0.27761 0.0
C1255 C 0.55798 0.84823 0.26213 0.0
C1256 C 0.50362 0.83661 0.26384 0.0
C1257 C 0.55383 0.86473 0.23217 0.0
C1258 C 0.52489 0.86774 0.21832 0.0
C1259 C 0.47048 0.8597 0.22207 0.0
C1260 C 0.44464 0.84663 0.23759 0.0
C1261 C 0.49967 0.85445 0.23445 0.0
C1262 C 0.44864 0.82809 0.26627 0.0
C1263 C 0.47797 0.82329 0.27947 0.0
H1264 H 0.87355 0.56745 0.73377 0.0
H1265 H 0.88007 0.53657 0.83732 0.0
H1266 H 0.8821 0.48361 0.8178 0.0
H1267 H 0.88101 0.44603 0.77139 0.0
H1268 H 0.87625 0.47738 0.66786 0.0
H1269 H 0.87462 0.53022 0.68746 0.0
C1270 C 0.87542 0.54922 0.75221 0.0
C1271 C 0.87642 0.55618 0.78712 0.0
C1272 C 0.87689 0.51884 0.74079 0.0
C1273 C 0.87921 0.53206 0.81039 0.0
C1274 C 0.88032 0.50171 0.79921 0.0
C1275 C 0.87967 0.46437 0.75302 0.0
C1276 C 0.87859 0.45753 0.71807 0.0
C1277 C 0.87901 0.49482 0.76447 0.0
C1278 C 0.87712 0.48179 0.69481 0.0
C1279 C 0.87612 0.51207 0.70604 0.0
H1280 H 0.52827 0.88268 0.69216 0.0
H1281 H 0.57634 0.86788 0.78606 0.0
H1282 H 0.52831 0.86756 0.81696 0.0
H1283 H 0.47212 0.8715 0.81774 0.0
H1284 H 0.42459 0.88615 0.7234 0.0
H1285 H 0.47256 0.88661 0.69287 0.0
C1286 C 0.52829 0.87922 0.71935 0.0
C1287 C 0.55607 0.87518 0.73652 0.0
C1288 C 0.50048 0.87916 0.73721 0.0
C1289 C 0.55544 0.87097 0.77192 0.0
C1290 C 0.52789 0.87083 0.78977 0.0
C1291 C 0.47226 0.87489 0.79054 0.0
C1292 C 0.44454 0.87873 0.77315 0.0
C1293 C 0.50019 0.87497 0.77274 0.0
C1294 C 0.44537 0.88302 0.73775 0.0
C1295 C 0.4729 0.88329 0.72007 0.0
H1296 H 0.13528 0.44685 0.73834 0.0
H1297 H 0.12312 0.47963 0.84052 0.0
H1298 H 0.12112 0.53206 0.81956 0.0
H1299 H 0.12373 0.56863 0.77269 0.0
H1300 H 0.13437 0.53625 0.67018 0.0
H1301 H 0.1358 0.48357 0.69093 0.0
C1302 C 0.1322 0.4654 0.75613 0.0
C1303 C 0.12959 0.4591 0.79115 0.0
C1304 C 0.13072 0.49559 0.74384 0.0
C1305 C 0.12527 0.48361 0.81356 0.0
C1306 C 0.12413 0.51366 0.80156 0.0
C1307 C 0.1263 0.55013 0.75471 0.0
C1308 C 0.12913 0.55662 0.71978 0.0
C1309 C 0.12696 0.51992 0.76681 0.0
C1310 C 0.13213 0.53211 0.6971 0.0
C1311 C 0.13305 0.50194 0.70901 0.0
H1312 H 0.44447 0.13437 0.78418 0.0
H1313 H 0.47445 0.13123 0.68013 0.0
H1314 H 0.52756 0.13188 0.69885 0.0
H1315 H 0.56538 0.13471 0.74446 0.0
H1316 H 0.53591 0.13556 0.84867 0.0
H1317 H 0.4826 0.13426 0.83012 0.0
C1318 C 0.46258 0.13378 0.76552 0.0
C1319 C 0.45533 0.13302 0.73066 0.0
C1320 C 0.49314 0.13378 0.77651 0.0
C1321 C 0.47923 0.13184 0.70702 0.0
C1322 C 0.50964 0.13229 0.71773 0.0
C1323 C 0.54736 0.13466 0.76323 0.0
C1324 C 0.55475 0.13562 0.79801 0.0
C1325 C 0.51685 0.13351 0.75237 0.0
C1326 C 0.53097 0.13491 0.82181 0.0
C1327 C 0.50047 0.13424 0.81118 0.0
H1328 H 0.69404 0.05148 0.79259 0.0
H1329 H 0.62904 0.08732 0.72135 0.0
H1330 H 0.62284 0.03693 0.69626 0.0
H1331 H 0.62941 0.98238 0.70111 0.0
H1332 H 0.69522 0.94475 0.77054 0.0
H1333 H 0.70654 0.99633 0.79144 0.0
C1334 C 0.67913 0.04825 0.77105 0.0
C1335 C 0.66198 0.07295 0.75875 0.0
C1336 C 0.67504 0.01893 0.75746 0.0
C1337 C 0.64288 0.06881 0.73074 0.0
C1338 C 0.63892 0.03987 0.71684 0.0
C1339 C 0.64697 0.98523 0.72002 0.0
C1340 C 0.6615 0.95961 0.73408 0.0
C1341 C 0.65392 0.01469 0.73098 0.0
C1342 C 0.68361 0.96404 0.75933 0.0
C1343 C 0.69016 0.99351 0.77115 0.0
H1344 H 0.96465 0.68793 0.80113 0.0
H1345 H 0.92498 0.64915 0.71121 0.0
H1346 H 0.97529 0.64633 0.68508 0.0
H1347 H 0.03038 0.64753 0.69162 0.0
H1348 H 0.071 0.68744 0.78091 0.0
H1349 H 0.02009 0.696 0.80446 0.0
C1350 C 0.96702 0.67911 0.77578 0.0
C1351 C 0.9413 0.66788 0.75853 0.0
C1352 C 0.99609 0.67708 0.7613 0.0
C1353 C 0.9444 0.65767 0.72511 0.0
C1354 C 0.97324 0.65578 0.71032 0.0
C1355 C 0.02838 0.6589 0.71583 0.0
C1356 C 0.05465 0.66684 0.73443 0.0
C1357 C 0.99926 0.66425 0.72879 0.0
C1358 C 0.05124 0.68102 0.76608 0.0
C1359 C 0.02216 0.68597 0.77949 0.0
H1360 H 0.31475 0.04935 0.72108 0.0
H1361 H 0.36619 0.08266 0.80623 0.0
H1362 H 0.36609 0.03161 0.83117 0.0
H1363 H 0.35949 0.97705 0.82326 0.0
H1364 H 0.30957 0.94231 0.7373 0.0
H1365 H 0.3018 0.99464 0.71716 0.0
C1366 C 0.32553 0.04541 0.74528 0.0
C1367 C 0.34092 0.06943 0.76158 0.0
C1368 C 0.32632 0.0158 0.75866 0.0
C1369 C 0.35408 0.06452 0.7934 0.0
C1370 C 0.35438 0.03525 0.80735 0.0
C1371 C 0.34618 0.9807 0.8006 0.0
C1372 C 0.3353 0.95566 0.78173 0.0
C1373 C 0.34182 0.01059 0.78938 0.0
C1374 C 0.31831 0.96111 0.75223 0.0
C1375 C 0.31388 0.99101 0.74074 0.0
H1376 H 0.03822 0.33256 0.81134 0.0
H1377 H 0.08219 0.35789 0.71789 0.0
H1378 H 0.03291 0.35755 0.68906 0.0
H1379 H 0.97766 0.35804 0.6932 0.0
H1380 H 0.93275 0.33176 0.78596 0.0
H1381 H 0.98258 0.32509 0.81307 0.0
C1382 C 0.03702 0.33766 0.78464 0.0
C1383 C 0.06359 0.34613 0.76695 0.0
C1384 C 0.00862 0.33777 0.76851 0.0
C1385 C 0.06203 0.3516 0.73205 0.0
C1386 C 0.03384 0.35164 0.71569 0.0
C1387 C 0.97853 0.35004 0.71902 0.0
C1388 C 0.95143 0.34563 0.73754 0.0
C1389 C 0.00699 0.346 0.73407 0.0
C1390 C 0.95323 0.33546 0.77118 0.0
C1391 C 0.98168 0.33169 0.78664 0.0
H1392 H 0.3736 0.06403 0.23914 0.0
H1393 H 0.37406 0.0296 0.34165 0.0
H1394 H 0.37184 0.97734 0.32015 0.0
H1395 H 0.3697 0.94155 0.27255 0.0
H1396 H 0.37057 0.97574 0.16996 0.0
H1397 H 0.37236 0.0281 0.19141 0.0
C1398 C 0.37318 0.04517 0.25693 0.0
C1399 C 0.37387 0.05096 0.29213 0.0
C1400 C 0.37215 0.01513 0.24438 0.0
C1401 C 0.37351 0.02602 0.31453 0.0
C1402 C 0.37223 0.99608 0.30222 0.0
C1403 C 0.37024 0.96036 0.25471 0.0
C1404 C 0.36986 0.95451 0.21952 0.0
C1405 C 0.37151 0.99038 0.26722 0.0
C1406 C 0.37078 0.9794 0.19707 0.0
C1407 C 0.3718 0.00938 0.20936 0.0
H1408 H 0.98163 0.35577 0.31639 0.0
H1409 H 0.93706 0.38043 0.22294 0.0
H1410 H 0.98572 0.37993 0.19337 0.0
H1411 H 0.04166 0.37322 0.19386 0.0
H1412 H 0.08527 0.34702 0.2875 0.0
H1413 H 0.03676 0.34744 0.3165 0.0
C1414 C 0.98251 0.36098 0.28956 0.0
C1415 C 0.95558 0.36819 0.27217 0.0
C1416 C 0.01065 0.36043 0.27242 0.0
C1417 C 0.95732 0.37477 0.23723 0.0
C1418 C 0.98524 0.37453 0.22015 0.0
C1419 C 0.04052 0.36745 0.22053 0.0
C1420 C 0.0674 0.36019 0.23817 0.0
C1421 C 0.01216 0.36747 0.23746 0.0
C1422 C 0.06524 0.35279 0.2729 0.0
C1423 C 0.03736 0.35301 0.28976 0.0
H1424 H 0.64384 0.97353 0.32207 0.0
H1425 H 0.63323 0.92834 0.22567 0.0
H1426 H 0.63343 0.97707 0.19666 0.0
H1427 H 0.63681 0.03294 0.1978 0.0
H1428 H 0.64926 0.07866 0.29357 0.0
H1429 H 0.64818 0.02988 0.32305 0.0
C1430 C 0.64156 0.97437 0.29475 0.0
C1431 C 0.63866 0.94704 0.27632 0.0
C1432 C 0.64207 1.0028 0.27778 0.0
C1433 C 0.63579 0.94877 0.24079 0.0
C1434 C 0.63581 0.97677 0.22397 0.0
C1435 C 0.63935 0.03228 0.2251 0.0
C1436 C 0.64314 0.05965 0.24318 0.0
C1437 C 0.63903 1.00398 0.24211 0.0
C1438 C 0.64641 0.05811 0.27869 0.0
C1439 C 0.64574 0.03012 0.29575 0.0
H1440 H 0.02857 0.63362 0.31596 0.0
H1441 H 0.07651 0.62855 0.22069 0.0
H1442 H 0.0284 0.62952 0.19011 0.0
H1443 H 0.97212 0.63211 0.18991 0.0
H1444 H 0.92471 0.63869 0.28545 0.0
H1445 H 0.9727 0.63678 0.31577 0.0
C1446 C 0.02854 0.63271 0.28852 0.0
C1447 C 0.05635 0.631 0.2709 0.0
C1448 C 1.00064 0.63356 0.27082 0.0
C1449 C 0.05563 0.62992 0.23521 0.0
C1450 C 0.02801 0.63045 0.21753 0.0
C1451 C 0.97229 0.63312 0.21734 0.0
C1452 C 0.94457 0.63561 0.23509 0.0
C1453 C 1.00029 0.63232 0.235 0.0
C1454 C 0.94547 0.63692 0.27078 0.0
C1455 C 0.97303 0.63579 0.28836 0.0
loop_
_geom_bond_atom_site_label_1
_geom_bond_atom_site_label_2
_geom_bond_distance
_geom_bond_site_symmetry_2
_ccdc_geom_bond_type
Co0 O2 2.143 . S
Co0 O8 2.074 . S
Co0 O11 2.093 . S
Co0 O24 2.097 . S
Co0 N41 2.151 . S
Co0 N49 2.214 . S
Co1 O2 2.160 . S
Co1 O7 2.058 . S
Co1 O17 2.057 . S
Co1 O32 2.037 . S
Co1 N36 2.145 . S
Co1 N57 2.257 . S
O2 Co0 2.143 . S
O2 Co1 2.160 . S
C3 O4 1.278 . S
C3 O11 1.224 . S
O4 C3 1.278 . S
C5 O6 1.245 . S
C5 O17 1.232 . S
O6 C5 1.245 . S
O7 Co1 2.058 . S
O7 C33 1.269 . S
O8 Co0 2.074 . S
O8 C33 1.257 . S
H9 C34 0.930 . S
H10 C40 0.930 . S
O11 Co0 2.093 . S
O11 C3 1.224 . S
H12 C44 0.929 . S
H13 C46 0.930 . S
H14 C47 0.930 . S
H15 C45 0.929 . S
H16 C48 0.928 . S
O17 Co1 2.057 . S
O17 C5 1.232 . S
H18 C37 0.929 . S
H19 C38 0.929 . S
H20 C50 0.931 . S
H21 C42 0.929 . S
H22 C51 0.930 . S
H23 C43 0.931 . S
O24 Co0 2.097 . S
O24 C52 1.214 . S
H25 C53 0.929 . S
H26 C54 0.929 . S
H27 C55 0.930 . S
H28 C56 0.929 . S
H29 C58 0.930 . S
H30 C35 0.930 . S
H31 C39 0.930 . S
O32 Co1 2.037 . S
O32 C52 1.234 . S
C33 O7 1.269 . S
C33 O8 1.257 . S
C34 H9 0.930 . S
C34 C37 1.388 . S
C34 C39 1.418 . S
C35 H30 0.930 . S
C35 C38 1.404 . S
C35 C39 1.353 . S
N36 Co1 2.145 . S
N36 C37 1.397 . S
N36 C38 1.334 . S
C37 H18 0.929 . S
C37 C34 1.388 . S
C37 N36 1.397 . S
C38 H19 0.929 . S
C38 C35 1.404 . S
C38 N36 1.334 . S
C39 H31 0.930 . S
C39 C34 1.418 . S
C39 C35 1.353 . S
C40 H10 0.930 . S
C40 N41 1.330 . S
C40 C42 1.446 . S
N41 Co0 2.151 . S
N41 C40 1.330 . S
N41 C45 1.418 . S
C42 H21 0.929 . S
C42 C40 1.446 . S
C42 C43 1.332 . S
C43 H23 0.931 . S
C43 C42 1.332 . S
C43 C44 1.267 . S
C44 H12 0.929 . S
C44 C43 1.267 . S
C44 C45 1.251 . S
C45 H15 0.929 . S
C45 N41 1.418 . S
C45 C44 1.251 . S
C46 H13 0.930 . S
C46 C48 1.406 . S
C46 C51 1.261 . S
C47 H14 0.930 . S
C47 N49 1.325 . S
C47 C50 1.357 . S
C48 H16 0.928 . S
C48 C46 1.406 . S
C48 N49 1.261 . S
N49 Co0 2.214 . S
N49 C47 1.325 . S
N49 C48 1.261 . S
C50 H20 0.931 . S
C50 C47 1.357 . S
C50 C51 1.312 . S
C51 H22 0.930 . S
C51 C46 1.261 . S
C51 C50 1.312 . S
C52 O24 1.214 . S
C52 O32 1.234 . S
C53 H25 0.929 . S
C53 C56 1.391 . S
C53 C58 1.391 . S
C54 H26 0.929 . S
C54 C55 1.390 . S
C54 N57 1.391 . S
C55 H27 0.930 . S
C55 C54 1.390 . S
C55 C56 1.392 . S
C56 H28 0.929 . S
C56 C53 1.391 . S
C56 C55 1.392 . S
N57 Co1 2.257 . S
N57 C54 1.391 . S
N57 C58 1.388 . S
C58 H29 0.930 . S
C58 C53 1.391 . S
C58 N57 1.388 . S
Co59 O61 2.143 . S
Co59 O67 2.074 . S
Co59 O70 2.093 . S
Co59 O83 2.097 . S
Co59 N100 2.151 . S
Co59 N108 2.214 . S
Co60 O61 2.160 . S
Co60 O66 2.058 . S
Co60 O76 2.057 . S
Co60 O91 2.037 . S
Co60 N95 2.145 . S
Co60 N116 2.257 . S
O61 Co59 2.143 . S
O61 Co60 2.160 . S
C62 O63 1.278 . S
C62 O70 1.224 . S
O63 C62 1.278 . S
C64 O65 1.245 . S
C64 O76 1.232 . S
O65 C64 1.245 . S
O66 Co60 2.058 . S
O66 C92 1.269 . S
O67 Co59 2.074 . S
O67 C92 1.257 . S
H68 C93 0.930 . S
H69 C99 0.930 . S
O70 Co59 2.093 . S
O70 C62 1.224 . S
H71 C103 0.929 . S
H72 C105 0.930 . S
H73 C106 0.930 . S
H74 C104 0.929 . S
H75 C107 0.928 . S
O76 Co60 2.057 . S
O76 C64 1.232 . S
H77 C96 0.929 . S
H78 C97 0.929 . S
H79 C109 0.931 . S
H80 C101 0.929 . S
H81 C110 0.930 . S
H82 C102 0.931 . S
O83 Co59 2.097 . S
O83 C111 1.214 . S
H84 C112 0.929 . S
H85 C113 0.929 . S
H86 C114 0.930 . S
H87 C115 0.929 . S
H88 C117 0.930 . S
H89 C94 0.930 . S
H90 C98 0.930 . S
O91 Co60 2.037 . S
O91 C111 1.234 . S
C92 O66 1.269 . S
C92 O67 1.257 . S
C93 H68 0.930 . S
C93 C96 1.388 . S
C93 C98 1.418 . S
C94 H89 0.930 . S
C94 C97 1.404 . S
C94 C98 1.353 . S
N95 Co60 2.145 . S
N95 C96 1.397 . S
N95 C97 1.334 . S
C96 H77 0.929 . S
C96 C93 1.388 . S
C96 N95 1.397 . S
C97 H78 0.929 . S
C97 C94 1.404 . S
C97 N95 1.334 . S
C98 H90 0.930 . S
C98 C93 1.418 . S
C98 C94 1.353 . S
C99 H69 0.930 . S
C99 N100 1.330 . S
C99 C101 1.446 . S
N100 Co59 2.151 . S
N100 C99 1.330 . S
N100 C104 1.418 . S
C101 H80 0.929 . S
C101 C99 1.446 . S
C101 C102 1.332 . S
C102 H82 0.931 . S
C102 C101 1.332 . S
C102 C103 1.267 . S
C103 H71 0.929 . S
C103 C102 1.267 . S
C103 C104 1.251 . S
C104 H74 0.929 . S
C104 N100 1.418 . S
C104 C103 1.251 . S
C105 H72 0.930 . S
C105 C107 1.406 . S
C105 C110 1.261 . S
C106 H73 0.930 . S
C106 N108 1.325 . S
C106 C109 1.357 . S
C107 H75 0.928 . S
C107 C105 1.406 . S
C107 N108 1.261 . S
N108 Co59 2.214 . S
N108 C106 1.325 . S
N108 C107 1.261 . S
C109 H79 0.931 . S
C109 C106 1.357 . S
C109 C110 1.312 . S
C110 H81 0.930 . S
C110 C105 1.261 . S
C110 C109 1.312 . S
C111 O83 1.214 . S
C111 O91 1.234 . S
C112 H84 0.929 . S
C112 C115 1.391 . S
C112 C117 1.391 . S
C113 H85 0.929 . S
C113 C114 1.390 . S
C113 N116 1.391 . S
C114 H86 0.930 . S
C114 C113 1.390 . S
C114 C115 1.392 . S
C115 H87 0.929 . S
C115 C112 1.391 . S
C115 C114 1.392 . S
N116 Co60 2.257 . S
N116 C113 1.391 . S
N116 C117 1.388 . S
C117 H88 0.930 . S
C117 C112 1.391 . S
C117 N116 1.388 . S
Co118 O120 2.143 . S
Co118 O126 2.074 . S
Co118 O129 2.093 . S
Co118 O142 2.097 . S
Co118 N159 2.151 . S
Co118 N167 2.214 . S
Co119 O120 2.160 . S
Co119 O125 2.058 . S
Co119 O135 2.057 . S
Co119 O150 2.037 . S
Co119 N154 2.145 . S
Co119 N175 2.257 . S
O120 Co118 2.143 . S
O120 Co119 2.160 . S
C121 O122 1.278 . S
C121 O129 1.224 . S
O122 C121 1.278 . S
C123 O124 1.245 . S
C123 O135 1.232 . S
O124 C123 1.245 . S
O125 Co119 2.058 . S
O125 C151 1.269 . S
O126 Co118 2.074 . S
O126 C151 1.257 . S
H127 C152 0.930 . S
H128 C158 0.930 . S
O129 Co118 2.093 . S
O129 C121 1.224 . S
H130 C162 0.929 . S
H131 C164 0.930 . S
H132 C165 0.930 . S
H133 C163 0.929 . S
H134 C166 0.928 . S
O135 Co119 2.057 . S
O135 C123 1.232 . S
H136 C155 0.929 . S
H137 C156 0.929 . S
H138 C168 0.931 . S
H139 C160 0.929 . S
H140 C169 0.930 . S
H141 C161 0.931 . S
O142 Co118 2.097 . S
O142 C170 1.214 . S
H143 C171 0.929 . S
H144 C172 0.929 . S
H145 C173 0.930 . S
H146 C174 0.929 . S
H147 C176 0.930 . S
H148 C153 0.930 . S
H149 C157 0.930 . S
O150 Co119 2.037 . S
O150 C170 1.234 . S
C151 O125 1.269 . S
C151 O126 1.257 . S
C152 H127 0.930 . S
C152 C155 1.388 . S
C152 C157 1.418 . S
C153 H148 0.930 . S
C153 C156 1.404 . S
C153 C157 1.353 . S
N154 Co119 2.145 . S
N154 C155 1.397 . S
N154 C156 1.334 . S
C155 H136 0.929 . S
C155 C152 1.388 . S
C155 N154 1.397 . S
C156 H137 0.929 . S
C156 C153 1.404 . S
C156 N154 1.334 . S
C157 H149 0.930 . S
C157 C152 1.418 . S
C157 C153 1.353 . S
C158 H128 0.930 . S
C158 N159 1.330 . S
C158 C160 1.446 . S
N159 Co118 2.151 . S
N159 C158 1.330 . S
N159 C163 1.418 . S
C160 H139 0.929 . S
C160 C158 1.446 . S
C160 C161 1.332 . S
C161 H141 0.931 . S
C161 C160 1.332 . S
C161 C162 1.267 . S
C162 H130 0.929 . S
C162 C161 1.267 . S
C162 C163 1.251 . S
C163 H133 0.929 . S
C163 N159 1.418 . S
C163 C162 1.251 . S
C164 H131 0.930 . S
C164 C166 1.406 . S
C164 C169 1.261 . S
C165 H132 0.930 . S
C165 N167 1.325 . S
C165 C168 1.357 . S
C166 H134 0.928 . S
C166 C164 1.406 . S
C166 N167 1.261 . S
N167 Co118 2.214 . S
N167 C165 1.325 . S
N167 C166 1.261 . S
C168 H138 0.931 . S
C168 C165 1.357 . S
C168 C169 1.312 . S
C169 H140 0.930 . S
C169 C164 1.261 . S
C169 C168 1.312 . S
C170 O142 1.214 . S
C170 O150 1.234 . S
C171 H143 0.929 . S
C171 C174 1.391 . S
C171 C176 1.391 . S
C172 H144 0.929 . S
C172 C173 1.390 . S
C172 N175 1.391 . S
C173 H145 0.930 . S
C173 C172 1.390 . S
C173 C174 1.392 . S
C174 H146 0.929 . S
C174 C171 1.391 . S
C174 C173 1.392 . S
N175 Co119 2.257 . S
N175 C172 1.391 . S
N175 C176 1.388 . S
C176 H147 0.930 . S
C176 C171 1.391 . S
C176 N175 1.388 . S
Co177 O179 2.143 . S
Co177 O185 2.074 . S
Co177 O188 2.093 . S
Co177 O201 2.097 . S
Co177 N218 2.151 . S
Co177 N226 2.214 . S
Co178 O179 2.160 . S
Co178 O184 2.058 . S
Co178 O194 2.057 . S
Co178 O209 2.037 . S
Co178 N213 2.145 . S
Co178 N234 2.257 . S
O179 Co177 2.143 . S
O179 Co178 2.160 . S
C180 O181 1.278 . S
C180 O188 1.224 . S
O181 C180 1.278 . S
C182 O183 1.245 . S
C182 O194 1.232 . S
O183 C182 1.245 . S
O184 Co178 2.058 . S
O184 C210 1.269 . S
O185 Co177 2.074 . S
O185 C210 1.257 . S
H186 C211 0.930 . S
H187 C217 0.930 . S
O188 Co177 2.093 . S
O188 C180 1.224 . S
H189 C221 0.929 . S
H190 C223 0.930 . S
H191 C224 0.930 . S
H192 C222 0.929 . S
H193 C225 0.928 . S
O194 Co178 2.057 . S
O194 C182 1.232 . S
H195 C214 0.929 . S
H196 C215 0.929 . S
H197 C227 0.931 . S
H198 C219 0.929 . S
H199 C228 0.930 . S
H200 C220 0.931 . S
O201 Co177 2.097 . S
O201 C229 1.214 . S
H202 C230 0.929 . S
H203 C231 0.929 . S
H204 C232 0.930 . S
H205 C233 0.929 . S
H206 C235 0.930 . S
H207 C212 0.930 . S
H208 C216 0.930 . S
O209 Co178 2.037 . S
O209 C229 1.234 . S
C210 O184 1.269 . S
C210 O185 1.257 . S
C211 H186 0.930 . S
C211 C214 1.388 . S
C211 C216 1.418 . S
C212 H207 0.930 . S
C212 C215 1.404 . S
C212 C216 1.353 . S
N213 Co178 2.145 . S
N213 C214 1.397 . S
N213 C215 1.334 . S
C214 H195 0.929 . S
C214 C211 1.388 . S
C214 N213 1.397 . S
C215 H196 0.929 . S
C215 C212 1.404 . S
C215 N213 1.334 . S
C216 H208 0.930 . S
C216 C211 1.418 . S
C216 C212 1.353 . S
C217 H187 0.930 . S
C217 N218 1.330 . S
C217 C219 1.446 . S
N218 Co177 2.151 . S
N218 C217 1.330 . S
N218 C222 1.418 . S
C219 H198 0.929 . S
C219 C217 1.446 . S
C219 C220 1.332 . S
C220 H200 0.931 . S
C220 C219 1.332 . S
C220 C221 1.267 . S
C221 H189 0.929 . S
C221 C220 1.267 . S
C221 C222 1.251 . S
C222 H192 0.929 . S
C222 N218 1.418 . S
C222 C221 1.251 . S
C223 H190 0.930 . S
C223 C225 1.406 . S
C223 C228 1.261 . S
C224 H191 0.930 . S
C224 N226 1.325 . S
C224 C227 1.357 . S
C225 H193 0.928 . S
C225 C223 1.406 . S
C225 N226 1.261 . S
N226 Co177 2.214 . S
N226 C224 1.325 . S
N226 C225 1.261 . S
C227 H197 0.931 . S
C227 C224 1.357 . S
C227 C228 1.312 . S
C228 H199 0.930 . S
C228 C223 1.261 . S
C228 C227 1.312 . S
C229 O201 1.214 . S
C229 O209 1.234 . S
C230 H202 0.929 . S
C230 C233 1.391 . S
C230 C235 1.391 . S
C231 H203 0.929 . S
C231 C232 1.390 . S
C231 N234 1.391 . S
C232 H204 0.930 . S
C232 C231 1.390 . S
C232 C233 1.392 . S
C233 H205 0.929 . S
C233 C230 1.391 . S
C233 C232 1.392 . S
N234 Co178 2.257 . S
N234 C231 1.391 . S
N234 C235 1.388 . S
C235 H206 0.930 . S
C235 C230 1.391 . S
C235 N234 1.388 . S
Co236 O238 2.143 . S
Co236 O244 2.074 . S
Co236 O247 2.093 . S
Co236 O260 2.097 . S
Co236 N277 2.151 . S
Co236 N285 2.214 . S
Co237 O238 2.160 . S
Co237 O243 2.058 . S
Co237 O253 2.057 . S
Co237 O268 2.037 . S
Co237 N272 2.145 . S
Co237 N293 2.257 . S
O238 Co236 2.143 . S
O238 Co237 2.160 . S
C239 O240 1.278 . S
C239 O247 1.224 . S
O240 C239 1.278 . S
C241 O242 1.245 . S
C241 O253 1.232 . S
O242 C241 1.245 . S
O243 Co237 2.058 . S
O243 C269 1.269 . S
O244 Co236 2.074 . S
O244 C269 1.257 . S
H245 C270 0.930 . S
H246 C276 0.930 . S
O247 Co236 2.093 . S
O247 C239 1.224 . S
H248 C280 0.929 . S
H249 C282 0.930 . S
H250 C283 0.930 . S
H251 C281 0.929 . S
H252 C284 0.928 . S
O253 Co237 2.057 . S
O253 C241 1.232 . S
H254 C273 0.929 . S
H255 C274 0.929 . S
H256 C286 0.931 . S
H257 C278 0.929 . S
H258 C287 0.930 . S
H259 C279 0.931 . S
O260 Co236 2.097 . S
O260 C288 1.214 . S
H261 C289 0.929 . S
H262 C290 0.929 . S
H263 C291 0.930 . S
H264 C292 0.929 . S
H265 C294 0.930 . S
H266 C271 0.930 . S
H267 C275 0.930 . S
O268 Co237 2.037 . S
O268 C288 1.234 . S
C269 O243 1.269 . S
C269 O244 1.257 . S
C270 H245 0.930 . S
C270 C273 1.388 . S
C270 C275 1.418 . S
C271 H266 0.930 . S
C271 C274 1.404 . S
C271 C275 1.353 . S
N272 Co237 2.145 . S
N272 C273 1.397 . S
N272 C274 1.334 . S
C273 H254 0.929 . S
C273 C270 1.388 . S
C273 N272 1.397 . S
C274 H255 0.929 . S
C274 C271 1.404 . S
C274 N272 1.334 . S
C275 H267 0.930 . S
C275 C270 1.418 . S
C275 C271 1.353 . S
C276 H246 0.930 . S
C276 N277 1.330 . S
C276 C278 1.446 . S
N277 Co236 2.151 . S
N277 C276 1.330 . S
N277 C281 1.418 . S
C278 H257 0.929 . S
C278 C276 1.446 . S
C278 C279 1.332 . S
C279 H259 0.931 . S
C279 C278 1.332 . S
C279 C280 1.267 . S
C280 H248 0.929 . S
C280 C279 1.267 . S
C280 C281 1.251 . S
C281 H251 0.929 . S
C281 N277 1.418 . S
C281 C280 1.251 . S
C282 H249 0.930 . S
C282 C284 1.406 . S
C282 C287 1.261 . S
C283 H250 0.930 . S
C283 N285 1.325 . S
C283 C286 1.357 . S
C284 H252 0.928 . S
C284 C282 1.406 . S
C284 N285 1.261 . S
N285 Co236 2.214 . S
N285 C283 1.325 . S
N285 C284 1.261 . S
C286 H256 0.931 . S
C286 C283 1.357 . S
C286 C287 1.312 . S
C287 H258 0.930 . S
C287 C282 1.261 . S
C287 C286 1.312 . S
C288 O260 1.214 . S
C288 O268 1.234 . S
C289 H261 0.929 . S
C289 C292 1.391 . S
C289 C294 1.391 . S
C290 H262 0.929 . S
C290 C291 1.390 . S
C290 N293 1.391 . S
C291 H263 0.930 . S
C291 C290 1.390 . S
C291 C292 1.392 . S
C292 H264 0.929 . S
C292 C289 1.391 . S
C292 C291 1.392 . S
N293 Co237 2.257 . S
N293 C290 1.391 . S
N293 C294 1.388 . S
C294 H265 0.930 . S
C294 C289 1.391 . S
C294 N293 1.388 . S
Co295 O297 2.143 . S
Co295 O303 2.074 . S
Co295 O306 2.093 . S
Co295 O319 2.097 . S
Co295 N336 2.151 . S
Co295 N344 2.214 . S
Co296 O297 2.160 . S
Co296 O302 2.058 . S
Co296 O312 2.057 . S
Co296 O327 2.037 . S
Co296 N331 2.145 . S
Co296 N352 2.257 . S
O297 Co295 2.143 . S
O297 Co296 2.160 . S
C298 O299 1.278 . S
C298 O306 1.224 . S
O299 C298 1.278 . S
C300 O301 1.245 . S
C300 O312 1.232 . S
O301 C300 1.245 . S
O302 Co296 2.058 . S
O302 C328 1.269 . S
O303 Co295 2.074 . S
O303 C328 1.257 . S
H304 C329 0.930 . S
H305 C335 0.930 . S
O306 Co295 2.093 . S
O306 C298 1.224 . S
H307 C339 0.929 . S
H308 C341 0.930 . S
H309 C342 0.930 . S
H310 C340 0.929 . S
H311 C343 0.928 . S
O312 Co296 2.057 . S
O312 C300 1.232 . S
H313 C332 0.929 . S
H314 C333 0.929 . S
H315 C345 0.931 . S
H316 C337 0.929 . S
H317 C346 0.930 . S
H318 C338 0.931 . S
O319 Co295 2.097 . S
O319 C347 1.214 . S
H320 C348 0.929 . S
H321 C349 0.929 . S
H322 C350 0.930 . S
H323 C351 0.929 . S
H324 C353 0.930 . S
H325 C330 0.930 . S
H326 C334 0.930 . S
O327 Co296 2.037 . S
O327 C347 1.234 . S
C328 O302 1.269 . S
C328 O303 1.257 . S
C329 H304 0.930 . S
C329 C332 1.388 . S
C329 C334 1.418 . S
C330 H325 0.930 . S
C330 C333 1.404 . S
C330 C334 1.353 . S
N331 Co296 2.145 . S
N331 C332 1.397 . S
N331 C333 1.334 . S
C332 H313 0.929 . S
C332 C329 1.388 . S
C332 N331 1.397 . S
C333 H314 0.929 . S
C333 C330 1.404 . S
C333 N331 1.334 . S
C334 H326 0.930 . S
C334 C329 1.418 . S
C334 C330 1.353 . S
C335 H305 0.930 . S
C335 N336 1.330 . S
C335 C337 1.446 . S
N336 Co295 2.151 . S
N336 C335 1.330 . S
N336 C340 1.418 . S
C337 H316 0.929 . S
C337 C335 1.446 . S
C337 C338 1.332 . S
C338 H318 0.931 . S
C338 C337 1.332 . S
C338 C339 1.267 . S
C339 H307 0.929 . S
C339 C338 1.267 . S
C339 C340 1.251 . S
C340 H310 0.929 . S
C340 N336 1.418 . S
C340 C339 1.251 . S
C341 H308 0.930 . S
C341 C343 1.406 . S
C341 C346 1.261 . S
C342 H309 0.930 . S
C342 N344 1.325 . S
C342 C345 1.357 . S
C343 H311 0.928 . S
C343 C341 1.406 . S
C343 N344 1.261 . S
N344 Co295 2.214 . S
N344 C342 1.325 . S
N344 C343 1.261 . S
C345 H315 0.931 . S
C345 C342 1.357 . S
C345 C346 1.312 . S
C346 H317 0.930 . S
C346 C341 1.261 . S
C346 C345 1.312 . S
C347 O319 1.214 . S
C347 O327 1.234 . S
C348 H320 0.929 . S
C348 C351 1.391 . S
C348 C353 1.391 . S
C349 H321 0.929 . S
C349 C350 1.390 . S
C349 N352 1.391 . S
C350 H322 0.930 . S
C350 C349 1.390 . S
C350 C351 1.392 . S
C351 H323 0.929 . S
C351 C348 1.391 . S
C351 C350 1.392 . S
N352 Co296 2.257 . S
N352 C349 1.391 . S
N352 C353 1.388 . S
C353 H324 0.930 . S
C353 C348 1.391 . S
C353 N352 1.388 . S
Co354 O356 2.143 . S
Co354 O362 2.074 . S
Co354 O365 2.093 . S
Co354 O378 2.097 . S
Co354 N395 2.151 . S
Co354 N403 2.214 . S
Co355 O356 2.160 . S
Co355 O361 2.058 . S
Co355 O371 2.057 . S
Co355 O386 2.037 . S
Co355 N390 2.145 . S
Co355 N411 2.257 . S
O356 Co354 2.143 . S
O356 Co355 2.160 . S
C357 O358 1.278 . S
C357 O365 1.224 . S
O358 C357 1.278 . S
C359 O360 1.245 . S
C359 O371 1.232 . S
O360 C359 1.245 . S
O361 Co355 2.058 . S
O361 C387 1.269 . S
O362 Co354 2.074 . S
O362 C387 1.257 . S
H363 C388 0.930 . S
H364 C394 0.930 . S
O365 Co354 2.093 . S
O365 C357 1.224 . S
H366 C398 0.929 . S
H367 C400 0.930 . S
H368 C401 0.930 . S
H369 C399 0.929 . S
H370 C402 0.928 . S
O371 Co355 2.057 . S
O371 C359 1.232 . S
H372 C391 0.929 . S
H373 C392 0.929 . S
H374 C404 0.931 . S
H375 C396 0.929 . S
H376 C405 0.930 . S
H377 C397 0.931 . S
O378 Co354 2.097 . S
O378 C406 1.214 . S
H379 C407 0.929 . S
H380 C408 0.929 . S
H381 C409 0.930 . S
H382 C410 0.929 . S
H383 C412 0.930 . S
H384 C389 0.930 . S
H385 C393 0.930 . S
O386 Co355 2.037 . S
O386 C406 1.234 . S
C387 O361 1.269 . S
C387 O362 1.257 . S
C388 H363 0.930 . S
C388 C391 1.388 . S
C388 C393 1.418 . S
C389 H384 0.930 . S
C389 C392 1.404 . S
C389 C393 1.353 . S
N390 Co355 2.145 . S
N390 C391 1.397 . S
N390 C392 1.334 . S
C391 H372 0.929 . S
C391 C388 1.388 . S
C391 N390 1.397 . S
C392 H373 0.929 . S
C392 C389 1.404 . S
C392 N390 1.334 . S
C393 H385 0.930 . S
C393 C388 1.418 . S
C393 C389 1.353 . S
C394 H364 0.930 . S
C394 N395 1.330 . S
C394 C396 1.446 . S
N395 Co354 2.151 . S
N395 C394 1.330 . S
N395 C399 1.418 . S
C396 H375 0.929 . S
C396 C394 1.446 . S
C396 C397 1.332 . S
C397 H377 0.931 . S
C397 C396 1.332 . S
C397 C398 1.267 . S
C398 H366 0.929 . S
C398 C397 1.267 . S
C398 C399 1.251 . S
C399 H369 0.929 . S
C399 N395 1.418 . S
C399 C398 1.251 . S
C400 H367 0.930 . S
C400 C402 1.406 . S
C400 C405 1.261 . S
C401 H368 0.930 . S
C401 N403 1.325 . S
C401 C404 1.357 . S
C402 H370 0.928 . S
C402 C400 1.406 . S
C402 N403 1.261 . S
N403 Co354 2.214 . S
N403 C401 1.325 . S
N403 C402 1.261 . S
C404 H374 0.931 . S
C404 C401 1.357 . S
C404 C405 1.312 . S
C405 H376 0.930 . S
C405 C400 1.261 . S
C405 C404 1.312 . S
C406 O378 1.214 . S
C406 O386 1.234 . S
C407 H379 0.929 . S
C407 C410 1.391 . S
C407 C412 1.391 . S
C408 H380 0.929 . S
C408 C409 1.390 . S
C408 N411 1.391 . S
C409 H381 0.930 . S
C409 C408 1.390 . S
C409 C410 1.392 . S
C410 H382 0.929 . S
C410 C407 1.391 . S
C410 C409 1.392 . S
N411 Co355 2.257 . S
N411 C408 1.391 . S
N411 C412 1.388 . S
C412 H383 0.930 . S
C412 C407 1.391 . S
C412 N411 1.388 . S
Co413 O415 2.143 . S
Co413 O421 2.074 . S
Co413 O424 2.093 . S
Co413 O437 2.097 . S
Co413 N454 2.151 . S
Co413 N462 2.214 . S
Co414 O415 2.160 . S
Co414 O420 2.058 . S
Co414 O430 2.057 . S
Co414 O445 2.037 . S
Co414 N449 2.145 . S
Co414 N470 2.257 . S
O415 Co413 2.143 . S
O415 Co414 2.160 . S
C416 O417 1.278 . S
C416 O424 1.224 . S
O417 C416 1.278 . S
C418 O419 1.245 . S
C418 O430 1.232 . S
O419 C418 1.245 . S
O420 Co414 2.058 . S
O420 C446 1.269 . S
O421 Co413 2.074 . S
O421 C446 1.257 . S
H422 C447 0.930 . S
H423 C453 0.930 . S
O424 Co413 2.093 . S
O424 C416 1.224 . S
H425 C457 0.929 . S
H426 C459 0.930 . S
H427 C460 0.930 . S
H428 C458 0.929 . S
H429 C461 0.928 . S
O430 Co414 2.057 . S
O430 C418 1.232 . S
H431 C450 0.929 . S
H432 C451 0.929 . S
H433 C463 0.931 . S
H434 C455 0.929 . S
H435 C464 0.930 . S
H436 C456 0.931 . S
O437 Co413 2.097 . S
O437 C465 1.214 . S
H438 C466 0.929 . S
H439 C467 0.929 . S
H440 C468 0.930 . S
H441 C469 0.929 . S
H442 C471 0.930 . S
H443 C448 0.930 . S
H444 C452 0.930 . S
O445 Co414 2.037 . S
O445 C465 1.234 . S
C446 O420 1.269 . S
C446 O421 1.257 . S
C447 H422 0.930 . S
C447 C450 1.388 . S
C447 C452 1.418 . S
C448 H443 0.930 . S
C448 C451 1.404 . S
C448 C452 1.353 . S
N449 Co414 2.145 . S
N449 C450 1.397 . S
N449 C451 1.334 . S
C450 H431 0.929 . S
C450 C447 1.388 . S
C450 N449 1.397 . S
C451 H432 0.929 . S
C451 C448 1.404 . S
C451 N449 1.334 . S
C452 H444 0.930 . S
C452 C447 1.418 . S
C452 C448 1.353 . S
C453 H423 0.930 . S
C453 N454 1.330 . S
C453 C455 1.446 . S
N454 Co413 2.151 . S
N454 C453 1.330 . S
N454 C458 1.418 . S
C455 H434 0.929 . S
C455 C453 1.446 . S
C455 C456 1.332 . S
C456 H436 0.931 . S
C456 C455 1.332 . S
C456 C457 1.267 . S
C457 H425 0.929 . S
C457 C456 1.267 . S
C457 C458 1.251 . S
C458 H428 0.929 . S
C458 N454 1.418 . S
C458 C457 1.251 . S
C459 H426 0.930 . S
C459 C461 1.406 . S
C459 C464 1.261 . S
C460 H427 0.930 . S
C460 N462 1.325 . S
C460 C463 1.357 . S
C461 H429 0.928 . S
C461 C459 1.406 . S
C461 N462 1.261 . S
N462 Co413 2.214 . S
N462 C460 1.325 . S
N462 C461 1.261 . S
C463 H433 0.931 . S
C463 C460 1.357 . S
C463 C464 1.312 . S
C464 H435 0.930 . S
C464 C459 1.261 . S
C464 C463 1.312 . S
C465 O437 1.214 . S
C465 O445 1.234 . S
C466 H438 0.929 . S
C466 C469 1.391 . S
C466 C471 1.391 . S
C467 H439 0.929 . S
C467 C468 1.390 . S
C467 N470 1.391 . S
C468 H440 0.930 . S
C468 C467 1.390 . S
C468 C469 1.392 . S
C469 H441 0.929 . S
C469 C466 1.391 . S
C469 C468 1.392 . S
N470 Co414 2.257 . S
N470 C467 1.391 . S
N470 C471 1.388 . S
C471 H442 0.930 . S
C471 C466 1.391 . S
C471 N470 1.388 . S
Co472 O474 2.143 . S
Co472 O480 2.074 . S
Co472 O483 2.093 . S
Co472 O496 2.097 . S
Co472 N513 2.151 . S
Co472 N521 2.214 . S
Co473 O474 2.160 . S
Co473 O479 2.058 . S
Co473 O489 2.057 . S
Co473 O504 2.037 . S
Co473 N508 2.145 . S
Co473 N529 2.257 . S
O474 Co472 2.143 . S
O474 Co473 2.160 . S
C475 O476 1.278 . S
C475 O483 1.224 . S
O476 C475 1.278 . S
C477 O478 1.245 . S
C477 O489 1.232 . S
O478 C477 1.245 . S
O479 Co473 2.058 . S
O479 C505 1.269 . S
O480 Co472 2.074 . S
O480 C505 1.257 . S
H481 C506 0.930 . S
H482 C512 0.930 . S
O483 Co472 2.093 . S
O483 C475 1.224 . S
H484 C516 0.929 . S
H485 C518 0.930 . S
H486 C519 0.930 . S
H487 C517 0.929 . S
H488 C520 0.928 . S
O489 Co473 2.057 . S
O489 C477 1.232 . S
H490 C509 0.929 . S
H491 C510 0.929 . S
H492 C522 0.947 . S
H493 C514 0.929 . S
H494 C523 0.930 . S
H495 C515 0.931 . S
O496 Co472 2.097 . S
O496 C524 1.214 . S
H497 C525 0.929 . S
H498 C526 0.929 . S
H499 C527 0.930 . S
H500 C528 0.929 . S
H501 C530 0.930 . S
H502 C507 0.930 . S
H503 C511 0.930 . S
O504 Co473 2.037 . S
O504 C524 1.234 . S
C505 O479 1.269 . S
C505 O480 1.257 . S
C506 H481 0.930 . S
C506 C509 1.388 . S
C506 C511 1.418 . S
C507 H502 0.930 . S
C507 C510 1.404 . S
C507 C511 1.353 . S
N508 Co473 2.145 . S
N508 C509 1.397 . S
N508 C510 1.334 . S
C509 H490 0.929 . S
C509 C506 1.388 . S
C509 N508 1.397 . S
C510 H491 0.929 . S
C510 C507 1.404 . S
C510 N508 1.334 . S
C511 H503 0.930 . S
C511 C506 1.418 . S
C511 C507 1.353 . S
C512 H482 0.930 . S
C512 N513 1.330 . S
C512 C514 1.446 . S
N513 Co472 2.151 . S
N513 C512 1.330 . S
N513 C517 1.418 . S
C514 H493 0.929 . S
C514 C512 1.446 . S
C514 C515 1.332 . S
C515 H495 0.931 . S
C515 C514 1.332 . S
C515 C516 1.267 . S
C516 H484 0.929 . S
C516 C515 1.267 . S
C516 C517 1.251 . S
C517 H487 0.929 . S
C517 N513 1.418 . S
C517 C516 1.251 . S
C518 H485 0.930 . S
C518 C520 1.406 . S
C518 C523 1.261 1_655 S
C519 H486 0.930 . S
C519 N521 1.325 . S
C519 C522 1.357 . S
C520 H488 0.928 . S
C520 C518 1.406 . S
C520 N521 1.261 . S
N521 Co472 2.214 . S
N521 C519 1.325 . S
N521 C520 1.261 . S
C522 H492 0.947 . S
C522 C519 1.357 . S
C522 C523 1.312 1_655 S
C523 H494 0.930 . S
C523 C518 1.261 1_455 S
C523 C522 1.312 1_455 S
C524 O496 1.214 . S
C524 O504 1.234 . S
C525 H497 0.929 . S
C525 C528 1.391 . S
C525 C530 1.391 . S
C526 H498 0.929 . S
C526 C527 1.390 . S
C526 N529 1.391 . S
C527 H499 0.930 . S
C527 C526 1.390 . S
C527 C528 1.392 . S
C528 H500 0.929 . S
C528 C525 1.391 . S
C528 C527 1.392 . S
N529 Co473 2.257 . S
N529 C526 1.391 . S
N529 C530 1.388 . S
C530 H501 0.930 . S
C530 C525 1.391 . S
C530 N529 1.388 . S
Co531 O533 2.143 . S
Co531 O539 2.074 . S
Co531 O542 2.093 . S
Co531 O555 2.097 . S
Co531 N572 2.151 . S
Co531 N580 2.214 . S
Co532 O533 2.160 . S
Co532 O538 2.058 . S
Co532 O548 2.057 . S
Co532 O563 2.037 . S
Co532 N567 2.145 . S
Co532 N588 2.257 . S
O533 Co531 2.143 . S
O533 Co532 2.160 . S
C534 O535 1.278 . S
C534 O542 1.224 . S
O535 C534 1.278 . S
C536 O537 1.245 . S
C536 O548 1.232 . S
O537 C536 1.245 . S
O538 Co532 2.058 . S
O538 C564 1.269 . S
O539 Co531 2.074 . S
O539 C564 1.257 . S
H540 C565 0.930 . S
H541 C571 0.930 . S
O542 Co531 2.093 . S
O542 C534 1.224 . S
H543 C575 0.929 . S
H544 C577 0.930 . S
H545 C578 0.930 . S
H546 C576 0.929 . S
H547 C579 0.928 . S
O548 Co532 2.057 . S
O548 C536 1.232 . S
H549 C568 0.929 . S
H550 C569 0.929 . S
H551 C581 0.947 . S
H552 C573 0.929 . S
H553 C582 0.930 . S
H554 C574 0.931 . S
O555 Co531 2.097 . S
O555 C583 1.214 . S
H556 C584 0.929 . S
H557 C585 0.929 . S
H558 C586 0.930 . S
H559 C587 0.929 . S
H560 C589 0.930 . S
H561 C566 0.930 . S
H562 C570 0.930 . S
O563 Co532 2.037 . S
O563 C583 1.234 . S
C564 O538 1.269 . S
C564 O539 1.257 . S
C565 H540 0.930 . S
C565 C568 1.388 . S
C565 C570 1.418 . S
C566 H561 0.930 . S
C566 C569 1.404 . S
C566 C570 1.353 . S
N567 Co532 2.145 . S
N567 C568 1.397 . S
N567 C569 1.334 . S
C568 H549 0.929 . S
C568 C565 1.388 . S
C568 N567 1.397 . S
C569 H550 0.929 . S
C569 C566 1.404 . S
C569 N567 1.334 . S
C570 H562 0.930 . S
C570 C565 1.418 . S
C570 C566 1.353 . S
C571 H541 0.930 . S
C571 N572 1.330 . S
C571 C573 1.446 . S
N572 Co531 2.151 . S
N572 C571 1.330 . S
N572 C576 1.418 . S
C573 H552 0.929 . S
C573 C571 1.446 . S
C573 C574 1.332 . S
C574 H554 0.931 . S
C574 C573 1.332 . S
C574 C575 1.267 . S
C575 H543 0.929 . S
C575 C574 1.267 . S
C575 C576 1.251 . S
C576 H546 0.929 . S
C576 N572 1.418 . S
C576 C575 1.251 . S
C577 H544 0.930 . S
C577 C579 1.406 . S
C577 C582 1.261 1_565 S
C578 H545 0.930 . S
C578 N580 1.325 . S
C578 C581 1.357 . S
C579 H547 0.928 . S
C579 C577 1.406 . S
C579 N580 1.261 . S
N580 Co531 2.214 . S
N580 C578 1.325 . S
N580 C579 1.261 . S
C581 H551 0.947 . S
C581 C578 1.357 . S
C581 C582 1.312 1_565 S
C582 H553 0.930 . S
C582 C577 1.261 1_545 S
C582 C581 1.312 1_545 S
C583 O555 1.214 . S
C583 O563 1.234 . S
C584 H556 0.929 . S
C584 C587 1.391 . S
C584 C589 1.391 . S
C585 H557 0.929 . S
C585 C586 1.390 . S
C585 N588 1.391 . S
C586 H558 0.930 . S
C586 C585 1.390 . S
C586 C587 1.392 . S
C587 H559 0.929 . S
C587 C584 1.391 . S
C587 C586 1.392 . S
N588 Co532 2.257 . S
N588 C585 1.391 . S
N588 C589 1.388 . S
C589 H560 0.930 . S
C589 C584 1.391 . S
C589 N588 1.388 . S
Co590 O592 2.143 . S
Co590 O598 2.074 . S
Co590 O601 2.093 . S
Co590 O614 2.097 . S
Co590 N631 2.151 . S
Co590 N639 2.214 . S
Co591 O592 2.160 . S
Co591 O597 2.058 . S
Co591 O607 2.057 . S
Co591 O622 2.037 . S
Co591 N626 2.145 . S
Co591 N647 2.257 . S
O592 Co590 2.143 . S
O592 Co591 2.160 . S
C593 O594 1.278 . S
C593 O601 1.224 . S
O594 C593 1.278 . S
C595 O596 1.245 . S
C595 O607 1.232 . S
O596 C595 1.245 . S
O597 Co591 2.058 . S
O597 C623 1.269 . S
O598 Co590 2.074 . S
O598 C623 1.257 . S
H599 C624 0.930 . S
H600 C630 0.930 . S
O601 Co590 2.093 . S
O601 C593 1.224 . S
H602 C634 0.929 . S
H603 C636 0.930 . S
H604 C637 0.930 . S
H605 C635 0.929 . S
H606 C638 0.928 . S
O607 Co591 2.057 . S
O607 C595 1.232 . S
H608 C627 0.929 . S
H609 C628 0.929 . S
H610 C640 0.947 . S
H611 C632 0.929 . S
H612 C641 0.930 . S
H613 C633 0.931 . S
O614 Co590 2.097 . S
O614 C642 1.214 . S
H615 C643 0.929 . S
H616 C644 0.929 . S
H617 C645 0.930 . S
H618 C646 0.929 . S
H619 C648 0.930 . S
H620 C625 0.930 . S
H621 C629 0.930 . S
O622 Co591 2.037 . S
O622 C642 1.234 . S
C623 O597 1.269 . S
C623 O598 1.257 . S
C624 H599 0.930 . S
C624 C627 1.388 . S
C624 C629 1.418 . S
C625 H620 0.930 . S
C625 C628 1.404 . S
C625 C629 1.353 . S
N626 Co591 2.145 . S
N626 C627 1.397 . S
N626 C628 1.334 . S
C627 H608 0.929 . S
C627 C624 1.388 . S
C627 N626 1.397 . S
C628 H609 0.929 . S
C628 C625 1.404 . S
C628 N626 1.334 . S
C629 H621 0.930 . S
C629 C624 1.418 . S
C629 C625 1.353 . S
C630 H600 0.930 . S
C630 N631 1.330 . S
C630 C632 1.446 . S
N631 Co590 2.151 . S
N631 C630 1.330 . S
N631 C635 1.418 . S
C632 H611 0.929 . S
C632 C630 1.446 . S
C632 C633 1.332 . S
C633 H613 0.931 . S
C633 C632 1.332 . S
C633 C634 1.267 . S
C634 H602 0.929 . S
C634 C633 1.267 . S
C634 C635 1.251 . S
C635 H605 0.929 . S
C635 N631 1.418 . S
C635 C634 1.251 . S
C636 H603 0.930 . S
C636 C638 1.406 . S
C636 C641 1.261 1_455 S
C637 H604 0.930 . S
C637 N639 1.325 . S
C637 C640 1.357 . S
C638 H606 0.928 . S
C638 C636 1.406 . S
C638 N639 1.261 . S
N639 Co590 2.214 . S
N639 C637 1.325 . S
N639 C638 1.261 . S
C640 H610 0.947 . S
C640 C637 1.357 . S
C640 C641 1.312 1_455 S
C641 H612 0.930 . S
C641 C636 1.261 1_655 S
C641 C640 1.312 1_655 S
C642 O614 1.214 . S
C642 O622 1.234 . S
C643 H615 0.929 . S
C643 C646 1.391 . S
C643 C648 1.391 . S
C644 H616 0.929 . S
C644 C645 1.390 . S
C644 N647 1.391 . S
C645 H617 0.930 . S
C645 C644 1.390 . S
C645 C646 1.392 . S
C646 H618 0.929 . S
C646 C643 1.391 . S
C646 C645 1.392 . S
N647 Co591 2.257 . S
N647 C644 1.391 . S
N647 C648 1.388 . S
C648 H619 0.930 . S
C648 C643 1.391 . S
C648 N647 1.388 . S
Co649 O651 2.143 . S
Co649 O657 2.074 . S
Co649 O660 2.093 . S
Co649 O673 2.097 . S
Co649 N690 2.151 . S
Co649 N698 2.214 . S
Co650 O651 2.160 . S
Co650 O656 2.058 . S
Co650 O666 2.057 . S
Co650 O681 2.037 . S
Co650 N685 2.145 . S
Co650 N706 2.257 . S
O651 Co649 2.143 . S
O651 Co650 2.160 . S
C652 O653 1.278 . S
C652 O660 1.224 . S
O653 C652 1.278 . S
C654 O655 1.245 . S
C654 O666 1.232 . S
O655 C654 1.245 . S
O656 Co650 2.058 . S
O656 C682 1.269 . S
O657 Co649 2.074 . S
O657 C682 1.257 . S
H658 C683 0.930 . S
H659 C689 0.930 . S
O660 Co649 2.093 . S
O660 C652 1.224 . S
H661 C693 0.929 . S
H662 C695 0.930 . S
H663 C696 0.930 . S
H664 C694 0.929 . S
H665 C697 0.928 . S
O666 Co650 2.057 . S
O666 C654 1.232 . S
H667 C686 0.929 . S
H668 C687 0.929 . S
H669 C699 0.947 . S
H670 C691 0.929 . S
H671 C700 0.930 . S
H672 C692 0.931 . S
O673 Co649 2.097 . S
O673 C701 1.214 . S
H674 C702 0.929 . S
H675 C703 0.929 . S
H676 C704 0.930 . S
H677 C705 0.929 . S
H678 C707 0.930 . S
H679 C684 0.930 . S
H680 C688 0.930 . S
O681 Co650 2.037 . S
O681 C701 1.234 . S
C682 O656 1.269 . S
C682 O657 1.257 . S
C683 H658 0.930 . S
C683 C686 1.388 . S
C683 C688 1.418 . S
C684 H679 0.930 . S
C684 C687 1.404 . S
C684 C688 1.353 . S
N685 Co650 2.145 . S
N685 C686 1.397 . S
N685 C687 1.334 . S
C686 H667 0.929 . S
C686 C683 1.388 . S
C686 N685 1.397 . S
C687 H668 0.929 . S
C687 C684 1.404 . S
C687 N685 1.334 . S
C688 H680 0.930 . S
C688 C683 1.418 . S
C688 C684 1.353 . S
C689 H659 0.930 . S
C689 N690 1.330 . S
C689 C691 1.446 . S
N690 Co649 2.151 . S
N690 C689 1.330 . S
N690 C694 1.418 . S
C691 H670 0.929 . S
C691 C689 1.446 . S
C691 C692 1.332 . S
C692 H672 0.931 . S
C692 C691 1.332 . S
C692 C693 1.267 . S
C693 H661 0.929 . S
C693 C692 1.267 . S
C693 C694 1.251 . S
C694 H664 0.929 . S
C694 N690 1.418 . S
C694 C693 1.251 . S
C695 H662 0.930 . S
C695 C697 1.406 . S
C695 C700 1.261 1_545 S
C696 H663 0.930 . S
C696 N698 1.325 . S
C696 C699 1.357 . S
C697 H665 0.928 . S
C697 C695 1.406 . S
C697 N698 1.261 . S
N698 Co649 2.214 . S
N698 C696 1.325 . S
N698 C697 1.261 . S
C699 H669 0.947 . S
C699 C696 1.357 . S
C699 C700 1.312 1_545 S
C700 H671 0.930 . S
C700 C695 1.261 1_565 S
C700 C699 1.312 1_565 S
C701 O673 1.214 . S
C701 O681 1.234 . S
C702 H674 0.929 . S
C702 C705 1.391 . S
C702 C707 1.391 . S
C703 H675 0.929 . S
C703 C704 1.390 . S
C703 N706 1.391 . S
C704 H676 0.930 . S
C704 C703 1.390 . S
C704 C705 1.392 . S
C705 H677 0.929 . S
C705 C702 1.391 . S
C705 C704 1.392 . S
N706 Co650 2.257 . S
N706 C703 1.391 . S
N706 C707 1.388 . S
C707 H678 0.930 . S
C707 C702 1.391 . S
C707 N706 1.388 . S
Co708 O710 2.143 . S
Co708 O716 2.074 . S
Co708 O719 2.093 . S
Co708 O732 2.097 . S
Co708 N749 2.151 . S
Co708 N757 2.214 . S
Co709 O710 2.160 . S
Co709 O715 2.058 . S
Co709 O725 2.057 . S
Co709 O740 2.037 . S
Co709 N744 2.145 . S
Co709 N765 2.257 . S
O710 Co708 2.143 . S
O710 Co709 2.160 . S
C711 O712 1.278 . S
C711 O719 1.224 . S
O712 C711 1.278 . S
C713 O714 1.245 . S
C713 O725 1.232 . S
O714 C713 1.245 . S
O715 Co709 2.058 . S
O715 C741 1.269 . S
O716 Co708 2.074 . S
O716 C741 1.257 . S
H717 C742 0.930 . S
H718 C748 0.930 . S
O719 Co708 2.093 . S
O719 C711 1.224 . S
H720 C752 0.929 . S
H721 C754 0.930 . S
H722 C755 0.930 . S
H723 C753 0.929 . S
H724 C756 0.928 . S
O725 Co709 2.057 . S
O725 C713 1.232 . S
H726 C745 0.929 . S
H727 C746 0.929 . S
H728 C758 0.947 . S
H729 C750 0.929 . S
H730 C759 0.930 . S
H731 C751 0.931 . S
O732 Co708 2.097 . S
O732 C760 1.214 . S
H733 C761 0.929 . S
H734 C762 0.929 . S
H735 C763 0.930 . S
H736 C764 0.929 . S
H737 C766 0.930 . S
H738 C743 0.930 . S
H739 C747 0.930 . S
O740 Co709 2.037 . S
O740 C760 1.234 . S
C741 O715 1.269 . S
C741 O716 1.257 . S
C742 H717 0.930 . S
C742 C745 1.388 . S
C742 C747 1.418 . S
C743 H738 0.930 . S
C743 C746 1.404 . S
C743 C747 1.353 . S
N744 Co709 2.145 . S
N744 C745 1.397 . S
N744 C746 1.334 . S
C745 H726 0.929 . S
C745 C742 1.388 . S
C745 N744 1.397 . S
C746 H727 0.929 . S
C746 C743 1.404 . S
C746 N744 1.334 . S
C747 H739 0.930 . S
C747 C742 1.418 . S
C747 C743 1.353 . S
C748 H718 0.930 . S
C748 N749 1.330 . S
C748 C750 1.446 . S
N749 Co708 2.151 . S
N749 C748 1.330 . S
N749 C753 1.418 . S
C750 H729 0.929 . S
C750 C748 1.446 . S
C750 C751 1.332 . S
C751 H731 0.931 . S
C751 C750 1.332 . S
C751 C752 1.267 . S
C752 H720 0.929 . S
C752 C751 1.267 . S
C752 C753 1.251 . S
C753 H723 0.929 . S
C753 N749 1.418 . S
C753 C752 1.251 . S
C754 H721 0.930 . S
C754 C756 1.406 . S
C754 C759 1.261 1_655 S
C755 H722 0.930 . S
C755 N757 1.325 . S
C755 C758 1.357 . S
C756 H724 0.928 . S
C756 C754 1.406 . S
C756 N757 1.261 . S
N757 Co708 2.214 . S
N757 C755 1.325 . S
N757 C756 1.261 . S
C758 H728 0.947 . S
C758 C755 1.357 . S
C758 C759 1.312 1_655 S
C759 H730 0.930 . S
C759 C754 1.261 1_455 S
C759 C758 1.312 1_455 S
C760 O732 1.214 . S
C760 O740 1.234 . S
C761 H733 0.929 . S
C761 C764 1.391 . S
C761 C766 1.391 . S
C762 H734 0.929 . S
C762 C763 1.390 . S
C762 N765 1.391 . S
C763 H735 0.930 . S
C763 C762 1.390 . S
C763 C764 1.392 . S
C764 H736 0.929 . S
C764 C761 1.391 . S
C764 C763 1.392 . S
N765 Co709 2.257 . S
N765 C762 1.391 . S
N765 C766 1.388 . S
C766 H737 0.930 . S
C766 C761 1.391 . S
C766 N765 1.388 . S
Co767 O769 2.143 . S
Co767 O775 2.074 . S
Co767 O778 2.093 . S
Co767 O791 2.097 . S
Co767 N808 2.151 . S
Co767 N816 2.214 . S
Co768 O769 2.160 . S
Co768 O774 2.058 . S
Co768 O784 2.057 . S
Co768 O799 2.037 . S
Co768 N803 2.145 . S
Co768 N824 2.257 . S
O769 Co767 2.143 . S
O769 Co768 2.160 . S
C770 O771 1.278 . S
C770 O778 1.224 . S
O771 C770 1.278 . S
C772 O773 1.245 . S
C772 O784 1.232 . S
O773 C772 1.245 . S
O774 Co768 2.058 . S
O774 C800 1.269 . S
O775 Co767 2.074 . S
O775 C800 1.257 . S
H776 C801 0.930 . S
H777 C807 0.930 . S
O778 Co767 2.093 . S
O778 C770 1.224 . S
H779 C811 0.929 . S
H780 C813 0.930 . S
H781 C814 0.930 . S
H782 C812 0.929 . S
H783 C815 0.928 . S
O784 Co768 2.057 . S
O784 C772 1.232 . S
H785 C804 0.929 . S
H786 C805 0.929 . S
H787 C817 0.947 . S
H788 C809 0.929 . S
H789 C818 0.930 . S
H790 C810 0.931 . S
O791 Co767 2.097 . S
O791 C819 1.214 . S
H792 C820 0.929 . S
H793 C821 0.929 . S
H794 C822 0.930 . S
H795 C823 0.929 . S
H796 C825 0.930 . S
H797 C802 0.930 . S
H798 C806 0.930 . S
O799 Co768 2.037 . S
O799 C819 1.234 . S
C800 O774 1.269 . S
C800 O775 1.257 . S
C801 H776 0.930 . S
C801 C804 1.388 . S
C801 C806 1.418 . S
C802 H797 0.930 . S
C802 C805 1.404 . S
C802 C806 1.353 . S
N803 Co768 2.145 . S
N803 C804 1.397 . S
N803 C805 1.334 . S
C804 H785 0.929 . S
C804 C801 1.388 . S
C804 N803 1.397 . S
C805 H786 0.929 . S
C805 C802 1.404 . S
C805 N803 1.334 . S
C806 H798 0.930 . S
C806 C801 1.418 . S
C806 C802 1.353 . S
C807 H777 0.930 . S
C807 N808 1.330 . S
C807 C809 1.446 . S
N808 Co767 2.151 . S
N808 C807 1.330 . S
N808 C812 1.418 . S
C809 H788 0.929 . S
C809 C807 1.446 . S
C809 C810 1.332 . S
C810 H790 0.931 . S
C810 C809 1.332 . S
C810 C811 1.267 . S
C811 H779 0.929 . S
C811 C810 1.267 . S
C811 C812 1.251 . S
C812 H782 0.929 . S
C812 N808 1.418 . S
C812 C811 1.251 . S
C813 H780 0.930 . S
C813 C815 1.406 . S
C813 C818 1.261 1_565 S
C814 H781 0.930 . S
C814 N816 1.325 . S
C814 C817 1.357 . S
C815 H783 0.928 . S
C815 C813 1.406 . S
C815 N816 1.261 . S
N816 Co767 2.214 . S
N816 C814 1.325 . S
N816 C815 1.261 . S
C817 H787 0.947 . S
C817 C814 1.357 . S
C817 C818 1.312 1_565 S
C818 H789 0.930 . S
C818 C813 1.261 1_545 S
C818 C817 1.312 1_545 S
C819 O791 1.214 . S
C819 O799 1.234 . S
C820 H792 0.929 . S
C820 C823 1.391 . S
C820 C825 1.391 . S
C821 H793 0.929 . S
C821 C822 1.390 . S
C821 N824 1.391 . S
C822 H794 0.930 . S
C822 C821 1.390 . S
C822 C823 1.392 . S
C823 H795 0.929 . S
C823 C820 1.391 . S
C823 C822 1.392 . S
N824 Co768 2.257 . S
N824 C821 1.391 . S
N824 C825 1.388 . S
C825 H796 0.930 . S
C825 C820 1.391 . S
C825 N824 1.388 . S
Co826 O828 2.143 . S
Co826 O834 2.074 . S
Co826 O837 2.093 . S
Co826 O850 2.097 . S
Co826 N867 2.151 . S
Co826 N875 2.214 . S
Co827 O828 2.160 . S
Co827 O833 2.058 . S
Co827 O843 2.057 . S
Co827 O858 2.037 . S
Co827 N862 2.145 . S
Co827 N883 2.257 . S
O828 Co826 2.143 . S
O828 Co827 2.160 . S
C829 O830 1.278 . S
C829 O837 1.224 . S
O830 C829 1.278 . S
C831 O832 1.245 . S
C831 O843 1.232 . S
O832 C831 1.245 . S
O833 Co827 2.058 . S
O833 C859 1.269 . S
O834 Co826 2.074 . S
O834 C859 1.257 . S
H835 C860 0.930 . S
H836 C866 0.930 . S
O837 Co826 2.093 . S
O837 C829 1.224 . S
H838 C870 0.929 . S
H839 C872 0.930 . S
H840 C873 0.930 . S
H841 C871 0.929 . S
H842 C874 0.928 . S
O843 Co827 2.057 . S
O843 C831 1.232 . S
H844 C863 0.929 . S
H845 C864 0.929 . S
H846 C876 0.947 . S
H847 C868 0.929 . S
H848 C877 0.930 . S
H849 C869 0.931 . S
O850 Co826 2.097 . S
O850 C878 1.214 . S
H851 C879 0.929 . S
H852 C880 0.929 . S
H853 C881 0.930 . S
H854 C882 0.929 . S
H855 C884 0.930 . S
H856 C861 0.930 . S
H857 C865 0.930 . S
O858 Co827 2.037 . S
O858 C878 1.234 . S
C859 O833 1.269 . S
C859 O834 1.257 . S
C860 H835 0.930 . S
C860 C863 1.388 . S
C860 C865 1.418 . S
C861 H856 0.930 . S
C861 C864 1.404 . S
C861 C865 1.353 . S
N862 Co827 2.145 . S
N862 C863 1.397 . S
N862 C864 1.334 . S
C863 H844 0.929 . S
C863 C860 1.388 . S
C863 N862 1.397 . S
C864 H845 0.929 . S
C864 C861 1.404 . S
C864 N862 1.334 . S
C865 H857 0.930 . S
C865 C860 1.418 . S
C865 C861 1.353 . S
C866 H836 0.930 . S
C866 N867 1.330 . S
C866 C868 1.446 . S
N867 Co826 2.151 . S
N867 C866 1.330 . S
N867 C871 1.418 . S
C868 H847 0.929 . S
C868 C866 1.446 . S
C868 C869 1.332 . S
C869 H849 0.931 . S
C869 C868 1.332 . S
C869 C870 1.267 . S
C870 H838 0.929 . S
C870 C869 1.267 . S
C870 C871 1.251 . S
C871 H841 0.929 . S
C871 N867 1.418 . S
C871 C870 1.251 . S
C872 H839 0.930 . S
C872 C874 1.406 . S
C872 C877 1.261 1_455 S
C873 H840 0.930 . S
C873 N875 1.325 . S
C873 C876 1.357 . S
C874 H842 0.928 . S
C874 C872 1.406 . S
C874 N875 1.261 . S
N875 Co826 2.214 . S
N875 C873 1.325 . S
N875 C874 1.261 . S
C876 H846 0.947 . S
C876 C873 1.357 . S
C876 C877 1.312 1_455 S
C877 H848 0.930 . S
C877 C872 1.261 1_655 S
C877 C876 1.312 1_655 S
C878 O850 1.214 . S
C878 O858 1.234 . S
C879 H851 0.929 . S
C879 C882 1.391 . S
C879 C884 1.391 . S
C880 H852 0.929 . S
C880 C881 1.390 . S
C880 N883 1.391 . S
C881 H853 0.930 . S
C881 C880 1.390 . S
C881 C882 1.392 . S
C882 H854 0.929 . S
C882 C879 1.391 . S
C882 C881 1.392 . S
N883 Co827 2.257 . S
N883 C880 1.391 . S
N883 C884 1.388 . S
C884 H855 0.930 . S
C884 C879 1.391 . S
C884 N883 1.388 . S
Co885 O887 2.143 . S
Co885 O893 2.074 . S
Co885 O896 2.093 . S
Co885 O909 2.097 . S
Co885 N926 2.151 . S
Co885 N934 2.214 . S
Co886 O887 2.160 . S
Co886 O892 2.058 . S
Co886 O902 2.057 . S
Co886 O917 2.037 . S
Co886 N921 2.145 . S
Co886 N942 2.257 . S
O887 Co885 2.143 . S
O887 Co886 2.160 . S
C888 O889 1.278 . S
C888 O896 1.224 . S
O889 C888 1.278 . S
C890 O891 1.245 . S
C890 O902 1.232 . S
O891 C890 1.245 . S
O892 Co886 2.058 . S
O892 C918 1.269 . S
O893 Co885 2.074 . S
O893 C918 1.257 . S
H894 C919 0.930 . S
H895 C925 0.930 . S
O896 Co885 2.093 . S
O896 C888 1.224 . S
H897 C929 0.929 . S
H898 C931 0.930 . S
H899 C932 0.930 . S
H900 C930 0.929 . S
H901 C933 0.928 . S
O902 Co886 2.057 . S
O902 C890 1.232 . S
H903 C922 0.929 . S
H904 C923 0.929 . S
H905 C935 0.947 . S
H906 C927 0.929 . S
H907 C936 0.930 . S
H908 C928 0.931 . S
O909 Co885 2.097 . S
O909 C937 1.214 . S
H910 C938 0.929 . S
H911 C939 0.929 . S
H912 C940 0.930 . S
H913 C941 0.929 . S
H914 C943 0.930 . S
H915 C920 0.930 . S
H916 C924 0.930 . S
O917 Co886 2.037 . S
O917 C937 1.234 . S
C918 O892 1.269 . S
C918 O893 1.257 . S
C919 H894 0.930 . S
C919 C922 1.388 . S
C919 C924 1.418 . S
C920 H915 0.930 . S
C920 C923 1.404 . S
C920 C924 1.353 . S
N921 Co886 2.145 . S
N921 C922 1.397 . S
N921 C923 1.334 . S
C922 H903 0.929 . S
C922 C919 1.388 . S
C922 N921 1.397 . S
C923 H904 0.929 . S
C923 C920 1.404 . S
C923 N921 1.334 . S
C924 H916 0.930 . S
C924 C919 1.418 . S
C924 C920 1.353 . S
C925 H895 0.930 . S
C925 N926 1.330 . S
C925 C927 1.446 . S
N926 Co885 2.151 . S
N926 C925 1.330 . S
N926 C930 1.418 . S
C927 H906 0.929 . S
C927 C925 1.446 . S
C927 C928 1.332 . S
C928 H908 0.931 . S
C928 C927 1.332 . S
C928 C929 1.267 . S
C929 H897 0.929 . S
C929 C928 1.267 . S
C929 C930 1.251 . S
C930 H900 0.929 . S
C930 N926 1.418 . S
C930 C929 1.251 . S
C931 H898 0.930 . S
C931 C933 1.406 . S
C931 C936 1.261 1_545 S
C932 H899 0.930 . S
C932 N934 1.325 . S
C932 C935 1.357 . S
C933 H901 0.928 . S
C933 C931 1.406 . S
C933 N934 1.261 . S
N934 Co885 2.214 . S
N934 C932 1.325 . S
N934 C933 1.261 . S
C935 H905 0.947 . S
C935 C932 1.357 . S
C935 C936 1.312 1_545 S
C936 H907 0.930 . S
C936 C931 1.261 1_565 S
C936 C935 1.312 1_565 S
C937 O909 1.214 . S
C937 O917 1.234 . S
C938 H910 0.929 . S
C938 C941 1.391 . S
C938 C943 1.391 . S
C939 H911 0.929 . S
C939 C940 1.390 . S
C939 N942 1.391 . S
C940 H912 0.930 . S
C940 C939 1.390 . S
C940 C941 1.392 . S
C941 H913 0.929 . S
C941 C938 1.391 . S
C941 C940 1.392 . S
N942 Co886 2.257 . S
N942 C939 1.391 . S
N942 C943 1.388 . S
C943 H914 0.930 . S
C943 C938 1.391 . S
C943 N942 1.388 . S
H944 C950 0.930 . S
H945 C953 0.930 . S
H946 C954 0.930 . S
H947 C955 0.930 . S
H948 C958 0.930 . S
H949 C959 0.930 . S
C950 H944 0.930 . S
C950 C951 1.355 . S
C950 C952 1.415 . S
C951 C950 1.355 . S
C951 C953 1.419 . S
C952 C950 1.415 . S
C952 C957 1.425 . S
C952 C959 1.409 . S
C953 H945 0.930 . S
C953 C951 1.419 . S
C953 C954 1.362 . S
C954 H946 0.930 . S
C954 C953 1.362 . S
C954 C957 1.409 . S
C955 H947 0.930 . S
C955 C956 1.355 . S
C955 C957 1.415 . S
C956 C955 1.355 . S
C956 C958 1.419 . S
C957 C952 1.425 . S
C957 C954 1.409 . S
C957 C955 1.415 . S
C958 H948 0.930 . S
C958 C956 1.419 . S
C958 C959 1.362 . S
C959 H949 0.930 . S
C959 C952 1.409 . S
C959 C958 1.362 . S
H960 C966 0.930 . S
H961 C969 0.930 . S
H962 C970 0.930 . S
H963 C971 0.930 . S
H964 C974 0.930 . S
H965 C975 0.930 . S
C966 H960 0.930 . S
C966 C967 1.355 . S
C966 C968 1.415 . S
C967 C966 1.355 . S
C967 C969 1.419 . S
C968 C966 1.415 . S
C968 C973 1.425 . S
C968 C975 1.409 . S
C969 H961 0.930 . S
C969 C967 1.419 . S
C969 C970 1.362 . S
C970 H962 0.930 . S
C970 C969 1.362 . S
C970 C973 1.409 . S
C971 H963 0.930 . S
C971 C972 1.355 . S
C971 C973 1.415 . S
C972 C971 1.355 . S
C972 C974 1.419 . S
C973 C968 1.425 . S
C973 C970 1.409 . S
C973 C971 1.415 . S
C974 H964 0.930 . S
C974 C972 1.419 . S
C974 C975 1.362 . S
C975 H965 0.930 . S
C975 C968 1.409 . S
C975 C974 1.362 . S
H976 C982 0.930 . S
H977 C985 0.930 . S
H978 C986 0.930 . S
H979 C987 0.930 . S
H980 C990 0.930 . S
H981 C991 0.930 . S
C982 H976 0.930 . S
C982 C983 1.355 . S
C982 C984 1.415 . S
C983 C982 1.355 . S
C983 C985 1.419 . S
C984 C982 1.415 . S
C984 C989 1.425 . S
C984 C991 1.409 . S
C985 H977 0.930 . S
C985 C983 1.419 . S
C985 C986 1.362 . S
C986 H978 0.930 . S
C986 C985 1.362 . S
C986 C989 1.409 . S
C987 H979 0.930 . S
C987 C988 1.355 . S
C987 C989 1.415 . S
C988 C987 1.355 . S
C988 C990 1.419 . S
C989 C984 1.425 . S
C989 C986 1.409 . S
C989 C987 1.415 . S
C990 H980 0.930 . S
C990 C988 1.419 . S
C990 C991 1.362 . S
C991 H981 0.930 . S
C991 C984 1.409 . S
C991 C990 1.362 . S
H992 C998 0.930 . S
H993 C1001 0.930 . S
H994 C1002 0.930 . S
H995 C1003 0.930 . S
H996 C1006 0.930 . S
H997 C1007 0.930 . S
C998 H992 0.930 . S
C998 C999 1.355 . S
C998 C1000 1.415 . S
C999 C998 1.355 . S
C999 C1001 1.419 . S
C1000 C998 1.415 . S
C1000 C1005 1.425 . S
C1000 C1007 1.409 . S
C1001 H993 0.930 . S
C1001 C999 1.419 . S
C1001 C1002 1.362 . S
C1002 H994 0.930 . S
C1002 C1001 1.362 . S
C1002 C1005 1.409 . S
C1003 H995 0.930 . S
C1003 C1004 1.355 . S
C1003 C1005 1.415 . S
C1004 C1003 1.355 . S
C1004 C1006 1.419 . S
C1005 C1000 1.425 . S
C1005 C1002 1.409 . S
C1005 C1003 1.415 . S
C1006 H996 0.930 . S
C1006 C1004 1.419 . S
C1006 C1007 1.362 . S
C1007 H997 0.930 . S
C1007 C1000 1.409 . S
C1007 C1006 1.362 . S
H1008 C1014 0.930 . S
H1009 C1017 0.930 . S
H1010 C1018 0.930 . S
H1011 C1019 0.930 . S
H1012 C1022 0.930 . S
H1013 C1023 0.930 . S
C1014 H1008 0.930 . S
C1014 C1015 1.355 . S
C1014 C1016 1.415 . S
C1015 C1014 1.355 . S
C1015 C1017 1.419 . S
C1016 C1014 1.415 . S
C1016 C1021 1.425 . S
C1016 C1023 1.409 . S
C1017 H1009 0.930 . S
C1017 C1015 1.419 . S
C1017 C1018 1.362 . S
C1018 H1010 0.930 . S
C1018 C1017 1.362 . S
C1018 C1021 1.409 . S
C1019 H1011 0.930 . S
C1019 C1020 1.355 . S
C1019 C1021 1.415 . S
C1020 C1019 1.355 . S
C1020 C1022 1.419 . S
C1021 C1016 1.425 . S
C1021 C1018 1.409 . S
C1021 C1019 1.415 . S
C1022 H1012 0.930 . S
C1022 C1020 1.419 . S
C1022 C1023 1.362 . S
C1023 H1013 0.930 . S
C1023 C1016 1.409 . S
C1023 C1022 1.362 . S
H1024 C1030 0.930 . S
H1025 C1033 0.930 . S
H1026 C1034 0.930 . S
H1027 C1035 0.930 . S
H1028 C1038 0.930 . S
H1029 C1039 0.930 . S
C1030 H1024 0.930 . S
C1030 C1031 1.355 . S
C1030 C1032 1.415 . S
C1031 C1030 1.355 . S
C1031 C1033 1.419 . S
C1032 C1030 1.415 . S
C1032 C1037 1.425 . S
C1032 C1039 1.409 . S
C1033 H1025 0.930 . S
C1033 C1031 1.419 . S
C1033 C1034 1.362 . S
C1034 H1026 0.930 . S
C1034 C1033 1.362 . S
C1034 C1037 1.409 . S
C1035 H1027 0.930 . S
C1035 C1036 1.355 . S
C1035 C1037 1.415 . S
C1036 C1035 1.355 . S
C1036 C1038 1.419 . S
C1037 C1032 1.425 . S
C1037 C1034 1.409 . S
C1037 C1035 1.415 . S
C1038 H1028 0.930 . S
C1038 C1036 1.419 . S
C1038 C1039 1.362 . S
C1039 H1029 0.930 . S
C1039 C1032 1.409 . S
C1039 C1038 1.362 . S
H1040 C1046 0.930 . S
H1041 C1049 0.930 . S
H1042 C1050 0.930 . S
H1043 C1051 0.930 . S
H1044 C1054 0.930 . S
H1045 C1055 0.930 . S
C1046 H1040 0.930 . S
C1046 C1047 1.355 . S
C1046 C1048 1.415 . S
C1047 C1046 1.355 . S
C1047 C1049 1.419 . S
C1048 C1046 1.415 . S
C1048 C1053 1.425 . S
C1048 C1055 1.409 . S
C1049 H1041 0.930 . S
C1049 C1047 1.419 . S
C1049 C1050 1.362 . S
C1050 H1042 0.930 . S
C1050 C1049 1.362 . S
C1050 C1053 1.409 . S
C1051 H1043 0.930 . S
C1051 C1052 1.355 . S
C1051 C1053 1.415 . S
C1052 C1051 1.355 . S
C1052 C1054 1.419 . S
C1053 C1048 1.425 . S
C1053 C1050 1.409 . S
C1053 C1051 1.415 . S
C1054 H1044 0.930 . S
C1054 C1052 1.419 . S
C1054 C1055 1.362 . S
C1055 H1045 0.930 . S
C1055 C1048 1.409 . S
C1055 C1054 1.362 . S
H1056 C1062 0.930 . S
H1057 C1065 0.930 . S
H1058 C1066 0.930 . S
H1059 C1067 0.930 . S
H1060 C1070 0.930 . S
H1061 C1071 0.930 . S
C1062 H1056 0.930 . S
C1062 C1063 1.355 . S
C1062 C1064 1.415 . S
C1063 C1062 1.355 . S
C1063 C1065 1.419 . S
C1064 C1062 1.415 . S
C1064 C1069 1.425 . S
C1064 C1071 1.409 . S
C1065 H1057 0.930 . S
C1065 C1063 1.419 . S
C1065 C1066 1.362 . S
C1066 H1058 0.930 . S
C1066 C1065 1.362 . S
C1066 C1069 1.409 . S
C1067 H1059 0.930 . S
C1067 C1068 1.355 . S
C1067 C1069 1.415 . S
C1068 C1067 1.355 . S
C1068 C1070 1.419 . S
C1069 C1064 1.425 . S
C1069 C1066 1.409 . S
C1069 C1067 1.415 . S
C1070 H1060 0.930 . S
C1070 C1068 1.419 . S
C1070 C1071 1.362 . S
C1071 H1061 0.930 . S
C1071 C1064 1.409 . S
C1071 C1070 1.362 . S
H1072 C1078 0.930 . S
H1073 C1081 0.930 . S
H1074 C1082 0.930 . S
H1075 C1083 0.930 . S
H1076 C1086 0.930 . S
H1077 C1087 0.930 . S
C1078 H1072 0.930 . S
C1078 C1079 1.355 . S
C1078 C1080 1.415 . S
C1079 C1078 1.355 . S
C1079 C1081 1.419 . S
C1080 C1078 1.415 . S
C1080 C1085 1.425 1_556 S
C1080 C1087 1.409 1_556 S
C1081 H1073 0.930 . S
C1081 C1079 1.419 . S
C1081 C1082 1.362 . S
C1082 H1074 0.930 . S
C1082 C1081 1.362 . S
C1082 C1085 1.409 1_556 S
C1083 H1075 0.930 . S
C1083 C1084 1.355 . S
C1083 C1085 1.415 . S
C1084 C1083 1.355 . S
C1084 C1086 1.419 . S
C1085 C1080 1.425 1_554 S
C1085 C1082 1.409 1_554 S
C1085 C1083 1.415 . S
C1086 H1076 0.930 . S
C1086 C1084 1.419 . S
C1086 C1087 1.362 . S
C1087 H1077 0.930 . S
C1087 C1080 1.409 1_554 S
C1087 C1086 1.362 . S
H1088 C1094 0.930 . S
H1089 C1097 0.930 . S
H1090 C1098 0.930 . S
H1091 C1099 0.930 . S
H1092 C1102 0.930 . S
H1093 C1103 0.930 . S
C1094 H1088 0.930 . S
C1094 C1095 1.355 . S
C1094 C1096 1.415 . S
C1095 C1094 1.355 . S
C1095 C1097 1.419 . S
C1096 C1094 1.415 . S
C1096 C1101 1.425 1_556 S
C1096 C1103 1.409 1_556 S
C1097 H1089 0.930 . S
C1097 C1095 1.419 . S
C1097 C1098 1.362 . S
C1098 H1090 0.930 . S
C1098 C1097 1.362 . S
C1098 C1101 1.409 1_556 S
C1099 H1091 0.930 . S
C1099 C1100 1.355 . S
C1099 C1101 1.415 . S
C1100 C1099 1.355 . S
C1100 C1102 1.419 . S
C1101 C1096 1.425 1_554 S
C1101 C1098 1.409 1_554 S
C1101 C1099 1.415 . S
C1102 H1092 0.930 . S
C1102 C1100 1.419 . S
C1102 C1103 1.362 . S
C1103 H1093 0.930 . S
C1103 C1096 1.409 1_554 S
C1103 C1102 1.362 . S
H1104 C1110 0.930 . S
H1105 C1113 0.930 . S
H1106 C1114 0.930 . S
H1107 C1115 0.930 . S
H1108 C1118 0.930 . S
H1109 C1119 0.930 . S
C1110 H1104 0.930 . S
C1110 C1111 1.355 . S
C1110 C1112 1.415 . S
C1111 C1110 1.355 . S
C1111 C1113 1.419 . S
C1112 C1110 1.415 . S
C1112 C1117 1.425 1_556 S
C1112 C1119 1.409 1_556 S
C1113 H1105 0.930 . S
C1113 C1111 1.419 . S
C1113 C1114 1.362 . S
C1114 H1106 0.930 . S
C1114 C1113 1.362 . S
C1114 C1117 1.409 1_556 S
C1115 H1107 0.930 . S
C1115 C1116 1.355 . S
C1115 C1117 1.415 . S
C1116 C1115 1.355 . S
C1116 C1118 1.419 . S
C1117 C1112 1.425 1_554 S
C1117 C1114 1.409 1_554 S
C1117 C1115 1.415 . S
C1118 H1108 0.930 . S
C1118 C1116 1.419 . S
C1118 C1119 1.362 . S
C1119 H1109 0.930 . S
C1119 C1112 1.409 1_554 S
C1119 C1118 1.362 . S
H1120 C1126 0.930 . S
H1121 C1129 0.930 . S
H1122 C1130 0.930 . S
H1123 C1131 0.930 . S
H1124 C1134 0.930 . S
H1125 C1135 0.930 . S
C1126 H1120 0.930 . S
C1126 C1127 1.355 . S
C1126 C1128 1.415 . S
C1127 C1126 1.355 . S
C1127 C1129 1.419 . S
C1128 C1126 1.415 . S
C1128 C1133 1.425 1_554 S
C1128 C1135 1.409 1_554 S
C1129 H1121 0.930 . S
C1129 C1127 1.419 . S
C1129 C1130 1.362 . S
C1130 H1122 0.930 . S
C1130 C1129 1.362 . S
C1130 C1133 1.409 1_554 S
C1131 H1123 0.930 . S
C1131 C1132 1.355 . S
C1131 C1133 1.415 . S
C1132 C1131 1.355 . S
C1132 C1134 1.419 . S
C1133 C1128 1.425 1_556 S
C1133 C1130 1.409 1_556 S
C1133 C1131 1.415 . S
C1134 H1124 0.930 . S
C1134 C1132 1.419 . S
C1134 C1135 1.362 . S
C1135 H1125 0.930 . S
C1135 C1128 1.409 1_556 S
C1135 C1134 1.362 . S
H1136 C1142 0.930 . S
H1137 C1145 0.930 . S
H1138 C1146 0.930 . S
H1139 C1147 0.930 . S
H1140 C1150 0.930 . S
H1141 C1151 0.930 . S
C1142 H1136 0.930 . S
C1142 C1143 1.355 . S
C1142 C1144 1.415 . S
C1143 C1142 1.355 . S
C1143 C1145 1.419 . S
C1144 C1142 1.415 . S
C1144 C1149 1.425 . S
C1144 C1151 1.409 . S
C1145 H1137 0.930 . S
C1145 C1143 1.419 . S
C1145 C1146 1.362 . S
C1146 H1138 0.930 . S
C1146 C1145 1.362 . S
C1146 C1149 1.409 . S
C1147 H1139 0.930 . S
C1147 C1148 1.355 . S
C1147 C1149 1.415 . S
C1148 C1147 1.355 . S
C1148 C1150 1.419 . S
C1149 C1144 1.425 . S
C1149 C1146 1.409 . S
C1149 C1147 1.415 . S
C1150 H1140 0.930 . S
C1150 C1148 1.419 . S
C1150 C1151 1.362 . S
C1151 H1141 0.930 . S
C1151 C1144 1.409 . S
C1151 C1150 1.362 . S
H1152 C1158 0.930 . S
H1153 C1161 0.930 . S
H1154 C1162 0.930 . S
H1155 C1163 0.930 . S
H1156 C1166 0.930 . S
H1157 C1167 0.930 . S
C1158 H1152 0.930 . S
C1158 C1159 1.355 . S
C1158 C1160 1.415 . S
C1159 C1158 1.355 . S
C1159 C1161 1.419 . S
C1160 C1158 1.415 . S
C1160 C1165 1.425 . S
C1160 C1167 1.409 . S
C1161 H1153 0.930 . S
C1161 C1159 1.419 . S
C1161 C1162 1.362 . S
C1162 H1154 0.930 . S
C1162 C1161 1.362 . S
C1162 C1165 1.409 . S
C1163 H1155 0.930 . S
C1163 C1164 1.355 . S
C1163 C1165 1.415 . S
C1164 C1163 1.355 . S
C1164 C1166 1.419 . S
C1165 C1160 1.425 . S
C1165 C1162 1.409 . S
C1165 C1163 1.415 . S
C1166 H1156 0.930 . S
C1166 C1164 1.419 . S
C1166 C1167 1.362 . S
C1167 H1157 0.930 . S
C1167 C1160 1.409 . S
C1167 C1166 1.362 . S
H1168 C1174 0.930 . S
H1169 C1177 0.930 . S
H1170 C1178 0.930 . S
H1171 C1179 0.930 . S
H1172 C1182 0.930 . S
H1173 C1183 0.930 . S
C1174 H1168 0.930 . S
C1174 C1175 1.355 . S
C1174 C1176 1.415 . S
C1175 C1174 1.355 . S
C1175 C1177 1.419 . S
C1176 C1174 1.415 . S
C1176 C1181 1.425 . S
C1176 C1183 1.409 . S
C1177 H1169 0.930 . S
C1177 C1175 1.419 . S
C1177 C1178 1.362 . S
C1178 H1170 0.930 . S
C1178 C1177 1.362 . S
C1178 C1181 1.409 . S
C1179 H1171 0.930 . S
C1179 C1180 1.355 . S
C1179 C1181 1.415 . S
C1180 C1179 1.355 . S
C1180 C1182 1.419 . S
C1181 C1176 1.425 . S
C1181 C1178 1.409 . S
C1181 C1179 1.415 . S
C1182 H1172 0.930 . S
C1182 C1180 1.419 . S
C1182 C1183 1.362 . S
C1183 H1173 0.930 . S
C1183 C1176 1.409 . S
C1183 C1182 1.362 . S
H1184 C1190 0.930 . S
H1185 C1193 0.930 . S
H1186 C1194 0.930 . S
H1187 C1195 0.930 . S
H1188 C1198 0.930 . S
H1189 C1199 0.930 . S
C1190 H1184 0.930 . S
C1190 C1191 1.355 . S
C1190 C1192 1.415 . S
C1191 C1190 1.355 . S
C1191 C1193 1.419 . S
C1192 C1190 1.415 . S
C1192 C1197 1.425 . S
C1192 C1199 1.409 . S
C1193 H1185 0.930 . S
C1193 C1191 1.419 . S
C1193 C1194 1.362 . S
C1194 H1186 0.930 . S
C1194 C1193 1.362 . S
C1194 C1197 1.409 . S
C1195 H1187 0.930 . S
C1195 C1196 1.355 . S
C1195 C1197 1.415 . S
C1196 C1195 1.355 . S
C1196 C1198 1.419 . S
C1197 C1192 1.425 . S
C1197 C1194 1.409 . S
C1197 C1195 1.415 . S
C1198 H1188 0.930 . S
C1198 C1196 1.419 . S
C1198 C1199 1.362 . S
C1199 H1189 0.930 . S
C1199 C1192 1.409 . S
C1199 C1198 1.362 . S
H1200 C1206 0.930 . S
H1201 C1209 0.930 . S
H1202 C1210 0.930 . S
H1203 C1211 0.930 . S
H1204 C1214 0.930 . S
H1205 C1215 0.930 . S
C1206 H1200 0.930 . S
C1206 C1207 1.355 . S
C1206 C1208 1.415 . S
C1207 C1206 1.355 . S
C1207 C1209 1.419 . S
C1208 C1206 1.415 . S
C1208 C1213 1.425 . S
C1208 C1215 1.409 . S
C1209 H1201 0.930 . S
C1209 C1207 1.419 . S
C1209 C1210 1.362 . S
C1210 H1202 0.930 . S
C1210 C1209 1.362 . S
C1210 C1213 1.409 . S
C1211 H1203 0.930 . S
C1211 C1212 1.355 . S
C1211 C1213 1.415 . S
C1212 C1211 1.355 . S
C1212 C1214 1.419 . S
C1213 C1208 1.425 . S
C1213 C1210 1.409 . S
C1213 C1211 1.415 . S
C1214 H1204 0.930 . S
C1214 C1212 1.419 . S
C1214 C1215 1.362 . S
C1215 H1205 0.930 . S
C1215 C1208 1.409 . S
C1215 C1214 1.362 . S
H1216 C1222 0.930 . S
H1217 C1225 0.930 . S
H1218 C1226 0.930 . S
H1219 C1227 0.930 . S
H1220 C1230 0.930 . S
H1221 C1231 0.930 . S
C1222 H1216 0.930 . S
C1222 C1223 1.355 . S
C1222 C1224 1.415 . S
C1223 C1222 1.355 . S
C1223 C1225 1.419 . S
C1224 C1222 1.415 . S
C1224 C1229 1.425 . S
C1224 C1231 1.409 . S
C1225 H1217 0.930 . S
C1225 C1223 1.419 . S
C1225 C1226 1.362 . S
C1226 H1218 0.930 . S
C1226 C1225 1.362 . S
C1226 C1229 1.409 . S
C1227 H1219 0.930 . S
C1227 C1228 1.355 . S
C1227 C1229 1.415 . S
C1228 C1227 1.355 . S
C1228 C1230 1.419 . S
C1229 C1224 1.425 . S
C1229 C1226 1.409 . S
C1229 C1227 1.415 . S
C1230 H1220 0.930 . S
C1230 C1228 1.419 . S
C1230 C1231 1.362 . S
C1231 H1221 0.930 . S
C1231 C1224 1.409 . S
C1231 C1230 1.362 . S
H1232 C1238 0.930 . S
H1233 C1241 0.930 . S
H1234 C1242 0.930 . S
H1235 C1243 0.930 . S
H1236 C1246 0.930 . S
H1237 C1247 0.930 . S
C1238 H1232 0.930 . S
C1238 C1239 1.355 . S
C1238 C1240 1.415 . S
C1239 C1238 1.355 . S
C1239 C1241 1.419 . S
C1240 C1238 1.415 . S
C1240 C1245 1.425 . S
C1240 C1247 1.409 . S
C1241 H1233 0.930 . S
C1241 C1239 1.419 . S
C1241 C1242 1.362 . S
C1242 H1234 0.930 . S
C1242 C1241 1.362 . S
C1242 C1245 1.409 . S
C1243 H1235 0.930 . S
C1243 C1244 1.355 . S
C1243 C1245 1.415 . S
C1244 C1243 1.355 . S
C1244 C1246 1.419 . S
C1245 C1240 1.425 . S
C1245 C1242 1.409 . S
C1245 C1243 1.415 . S
C1246 H1236 0.930 . S
C1246 C1244 1.419 . S
C1246 C1247 1.362 . S
C1247 H1237 0.930 . S
C1247 C1240 1.409 . S
C1247 C1246 1.362 . S
H1248 C1254 0.930 . S
H1249 C1257 0.930 . S
H1250 C1258 0.930 . S
H1251 C1259 0.930 . S
H1252 C1262 0.930 . S
H1253 C1263 0.930 . S
C1254 H1248 0.930 . S
C1254 C1255 1.355 . S
C1254 C1256 1.415 . S
C1255 C1254 1.355 . S
C1255 C1257 1.419 . S
C1256 C1254 1.415 . S
C1256 C1261 1.425 . S
C1256 C1263 1.409 . S
C1257 H1249 0.930 . S
C1257 C1255 1.419 . S
C1257 C1258 1.362 . S
C1258 H1250 0.930 . S
C1258 C1257 1.362 . S
C1258 C1261 1.409 . S
C1259 H1251 0.930 . S
C1259 C1260 1.355 . S
C1259 C1261 1.415 . S
C1260 C1259 1.355 . S
C1260 C1262 1.419 . S
C1261 C1256 1.425 . S
C1261 C1258 1.409 . S
C1261 C1259 1.415 . S
C1262 H1252 0.930 . S
C1262 C1260 1.419 . S
C1262 C1263 1.362 . S
C1263 H1253 0.930 . S
C1263 C1256 1.409 . S
C1263 C1262 1.362 . S
H1264 C1270 0.930 . S
H1265 C1273 0.930 . S
H1266 C1274 0.930 . S
H1267 C1275 0.930 . S
H1268 C1278 0.930 . S
H1269 C1279 0.930 . S
C1270 H1264 0.930 . S
C1270 C1271 1.355 . S
C1270 C1272 1.415 . S
C1271 C1270 1.355 . S
C1271 C1273 1.419 . S
C1272 C1270 1.415 . S
C1272 C1277 1.425 . S
C1272 C1279 1.409 . S
C1273 H1265 0.930 . S
C1273 C1271 1.419 . S
C1273 C1274 1.362 . S
C1274 H1266 0.930 . S
C1274 C1273 1.362 . S
C1274 C1277 1.409 . S
C1275 H1267 0.930 . S
C1275 C1276 1.355 . S
C1275 C1277 1.415 . S
C1276 C1275 1.355 . S
C1276 C1278 1.419 . S
C1277 C1272 1.425 . S
C1277 C1274 1.409 . S
C1277 C1275 1.415 . S
C1278 H1268 0.930 . S
C1278 C1276 1.419 . S
C1278 C1279 1.362 . S
C1279 H1269 0.930 . S
C1279 C1272 1.409 . S
C1279 C1278 1.362 . S
H1280 C1286 0.930 . S
H1281 C1289 0.930 . S
H1282 C1290 0.930 . S
H1283 C1291 0.930 . S
H1284 C1294 0.930 . S
H1285 C1295 0.930 . S
C1286 H1280 0.930 . S
C1286 C1287 1.355 . S
C1286 C1288 1.415 . S
C1287 C1286 1.355 . S
C1287 C1289 1.419 . S
C1288 C1286 1.415 . S
C1288 C1293 1.425 . S
C1288 C1295 1.409 . S
C1289 H1281 0.930 . S
C1289 C1287 1.419 . S
C1289 C1290 1.362 . S
C1290 H1282 0.930 . S
C1290 C1289 1.362 . S
C1290 C1293 1.409 . S
C1291 H1283 0.930 . S
C1291 C1292 1.355 . S
C1291 C1293 1.415 . S
C1292 C1291 1.355 . S
C1292 C1294 1.419 . S
C1293 C1288 1.425 . S
C1293 C1290 1.409 . S
C1293 C1291 1.415 . S
C1294 H1284 0.930 . S
C1294 C1292 1.419 . S
C1294 C1295 1.362 . S
C1295 H1285 0.930 . S
C1295 C1288 1.409 . S
C1295 C1294 1.362 . S
H1296 C1302 0.930 . S
H1297 C1305 0.930 . S
H1298 C1306 0.930 . S
H1299 C1307 0.930 . S
H1300 C1310 0.930 . S
H1301 C1311 0.930 . S
C1302 H1296 0.930 . S
C1302 C1303 1.355 . S
C1302 C1304 1.415 . S
C1303 C1302 1.355 . S
C1303 C1305 1.419 . S
C1304 C1302 1.415 . S
C1304 C1309 1.425 . S
C1304 C1311 1.409 . S
C1305 H1297 0.930 . S
C1305 C1303 1.419 . S
C1305 C1306 1.362 . S
C1306 H1298 0.930 . S
C1306 C1305 1.362 . S
C1306 C1309 1.409 . S
C1307 H1299 0.930 . S
C1307 C1308 1.355 . S
C1307 C1309 1.415 . S
C1308 C1307 1.355 . S
C1308 C1310 1.419 . S
C1309 C1304 1.425 . S
C1309 C1306 1.409 . S
C1309 C1307 1.415 . S
C1310 H1300 0.930 . S
C1310 C1308 1.419 . S
C1310 C1311 1.362 . S
C1311 H1301 0.930 . S
C1311 C1304 1.409 . S
C1311 C1310 1.362 . S
H1312 C1318 0.930 . S
H1313 C1321 0.930 . S
H1314 C1322 0.930 . S
H1315 C1323 0.930 . S
H1316 C1326 0.930 . S
H1317 C1327 0.930 . S
C1318 H1312 0.930 . S
C1318 C1319 1.355 . S
C1318 C1320 1.415 . S
C1319 C1318 1.355 . S
C1319 C1321 1.419 . S
C1320 C1318 1.415 . S
C1320 C1325 1.425 . S
C1320 C1327 1.409 . S
C1321 H1313 0.930 . S
C1321 C1319 1.419 . S
C1321 C1322 1.362 . S
C1322 H1314 0.930 . S
C1322 C1321 1.362 . S
C1322 C1325 1.409 . S
C1323 H1315 0.930 . S
C1323 C1324 1.355 . S
C1323 C1325 1.415 . S
C1324 C1323 1.355 . S
C1324 C1326 1.419 . S
C1325 C1320 1.425 . S
C1325 C1322 1.409 . S
C1325 C1323 1.415 . S
C1326 H1316 0.930 . S
C1326 C1324 1.419 . S
C1326 C1327 1.362 . S
C1327 H1317 0.930 . S
C1327 C1320 1.409 . S
C1327 C1326 1.362 . S
H1328 C1334 0.930 . S
H1329 C1337 0.930 . S
H1330 C1338 0.930 . S
H1331 C1339 0.930 . S
H1332 C1342 0.930 . S
H1333 C1343 0.930 . S
C1334 H1328 0.930 . S
C1334 C1335 1.355 . S
C1334 C1336 1.415 . S
C1335 C1334 1.355 . S
C1335 C1337 1.419 . S
C1336 C1334 1.415 . S
C1336 C1341 1.425 1_545 S
C1336 C1343 1.409 1_545 S
C1337 H1329 0.930 . S
C1337 C1335 1.419 . S
C1337 C1338 1.362 . S
C1338 H1330 0.930 . S
C1338 C1337 1.362 . S
C1338 C1341 1.409 1_545 S
C1339 H1331 0.930 . S
C1339 C1340 1.355 . S
C1339 C1341 1.415 . S
C1340 C1339 1.355 . S
C1340 C1342 1.419 . S
C1341 C1336 1.425 1_565 S
C1341 C1338 1.409 1_565 S
C1341 C1339 1.415 . S
C1342 H1332 0.930 . S
C1342 C1340 1.419 . S
C1342 C1343 1.362 . S
C1343 H1333 0.930 . S
C1343 C1336 1.409 1_565 S
C1343 C1342 1.362 . S
H1344 C1350 0.930 . S
H1345 C1353 0.930 . S
H1346 C1354 0.930 . S
H1347 C1355 0.930 . S
H1348 C1358 0.930 . S
H1349 C1359 0.930 . S
C1350 H1344 0.930 . S
C1350 C1351 1.355 . S
C1350 C1352 1.415 . S
C1351 C1350 1.355 . S
C1351 C1353 1.419 . S
C1352 C1350 1.415 . S
C1352 C1357 1.425 1_655 S
C1352 C1359 1.409 1_655 S
C1353 H1345 0.930 . S
C1353 C1351 1.419 . S
C1353 C1354 1.362 . S
C1354 H1346 0.930 . S
C1354 C1353 1.362 . S
C1354 C1357 1.409 1_655 S
C1355 H1347 0.930 . S
C1355 C1356 1.355 . S
C1355 C1357 1.415 . S
C1356 C1355 1.355 . S
C1356 C1358 1.419 . S
C1357 C1352 1.425 1_455 S
C1357 C1354 1.409 1_455 S
C1357 C1355 1.415 . S
C1358 H1348 0.930 . S
C1358 C1356 1.419 . S
C1358 C1359 1.362 . S
C1359 H1349 0.930 . S
C1359 C1352 1.409 1_455 S
C1359 C1358 1.362 . S
H1360 C1366 0.930 . S
H1361 C1369 0.930 . S
H1362 C1370 0.930 . S
H1363 C1371 0.930 . S
H1364 C1374 0.930 . S
H1365 C1375 0.930 . S
C1366 H1360 0.930 . S
C1366 C1367 1.355 . S
C1366 C1368 1.415 . S
C1367 C1366 1.355 . S
C1367 C1369 1.419 . S
C1368 C1366 1.415 . S
C1368 C1373 1.425 1_545 S
C1368 C1375 1.409 1_545 S
C1369 H1361 0.930 . S
C1369 C1367 1.419 . S
C1369 C1370 1.362 . S
C1370 H1362 0.930 . S
C1370 C1369 1.362 . S
C1370 C1373 1.409 1_545 S
C1371 H1363 0.930 . S
C1371 C1372 1.355 . S
C1371 C1373 1.415 . S
C1372 C1371 1.355 . S
C1372 C1374 1.419 . S
C1373 C1368 1.425 1_565 S
C1373 C1370 1.409 1_565 S
C1373 C1371 1.415 . S
C1374 H1364 0.930 . S
C1374 C1372 1.419 . S
C1374 C1375 1.362 . S
C1375 H1365 0.930 . S
C1375 C1368 1.409 1_565 S
C1375 C1374 1.362 . S
H1376 C1382 0.930 . S
H1377 C1385 0.930 . S
H1378 C1386 0.930 . S
H1379 C1387 0.930 . S
H1380 C1390 0.930 . S
H1381 C1391 0.930 . S
C1382 H1376 0.930 . S
C1382 C1383 1.355 . S
C1382 C1384 1.415 . S
C1383 C1382 1.355 . S
C1383 C1385 1.419 . S
C1384 C1382 1.415 . S
C1384 C1389 1.425 1_455 S
C1384 C1391 1.409 1_455 S
C1385 H1377 0.930 . S
C1385 C1383 1.419 . S
C1385 C1386 1.362 . S
C1386 H1378 0.930 . S
C1386 C1385 1.362 . S
C1386 C1389 1.409 1_455 S
C1387 H1379 0.930 . S
C1387 C1388 1.355 . S
C1387 C1389 1.415 . S
C1388 C1387 1.355 . S
C1388 C1390 1.419 . S
C1389 C1384 1.425 1_655 S
C1389 C1386 1.409 1_655 S
C1389 C1387 1.415 . S
C1390 H1380 0.930 . S
C1390 C1388 1.419 . S
C1390 C1391 1.362 . S
C1391 H1381 0.930 . S
C1391 C1384 1.409 1_655 S
C1391 C1390 1.362 . S
H1392 C1398 0.930 . S
H1393 C1401 0.930 . S
H1394 C1402 0.930 . S
H1395 C1403 0.930 . S
H1396 C1406 0.930 . S
H1397 C1407 0.930 . S
C1398 H1392 0.930 . S
C1398 C1399 1.355 . S
C1398 C1400 1.415 . S
C1399 C1398 1.355 . S
C1399 C1401 1.419 . S
C1400 C1398 1.415 . S
C1400 C1405 1.425 1_545 S
C1400 C1407 1.409 1_545 S
C1401 H1393 0.930 . S
C1401 C1399 1.419 . S
C1401 C1402 1.362 . S
C1402 H1394 0.930 . S
C1402 C1401 1.362 . S
C1402 C1405 1.409 1_545 S
C1403 H1395 0.930 . S
C1403 C1404 1.355 . S
C1403 C1405 1.415 . S
C1404 C1403 1.355 . S
C1404 C1406 1.419 . S
C1405 C1400 1.425 1_565 S
C1405 C1402 1.409 1_565 S
C1405 C1403 1.415 . S
C1406 H1396 0.930 . S
C1406 C1404 1.419 . S
C1406 C1407 1.362 . S
C1407 H1397 0.930 . S
C1407 C1400 1.409 1_565 S
C1407 C1406 1.362 . S
H1408 C1414 0.930 . S
H1409 C1417 0.930 . S
H1410 C1418 0.930 . S
H1411 C1419 0.930 . S
H1412 C1422 0.930 . S
H1413 C1423 0.930 . S
C1414 H1408 0.930 . S
C1414 C1415 1.355 . S
C1414 C1416 1.415 1_655 S
C1415 C1414 1.355 . S
C1415 C1417 1.419 . S
C1416 C1414 1.415 1_455 S
C1416 C1421 1.425 1_455 S
C1416 C1423 1.409 . S
C1417 H1409 0.930 . S
C1417 C1415 1.419 . S
C1417 C1418 1.362 . S
C1418 H1410 0.930 . S
C1418 C1417 1.362 . S
C1418 C1421 1.409 . S
C1419 H1411 0.930 . S
C1419 C1420 1.355 . S
C1419 C1421 1.415 1_455 S
C1420 C1419 1.355 . S
C1420 C1422 1.419 . S
C1421 C1416 1.425 1_655 S
C1421 C1418 1.409 . S
C1421 C1419 1.415 1_655 S
C1422 H1412 0.930 . S
C1422 C1420 1.419 . S
C1422 C1423 1.362 . S
C1423 H1413 0.930 . S
C1423 C1416 1.409 . S
C1423 C1422 1.362 . S
H1424 C1430 0.930 . S
H1425 C1433 0.930 . S
H1426 C1434 0.930 . S
H1427 C1435 0.930 . S
H1428 C1438 0.930 . S
H1429 C1439 0.930 . S
C1430 H1424 0.930 . S
C1430 C1431 1.355 . S
C1430 C1432 1.415 1_565 S
C1431 C1430 1.355 . S
C1431 C1433 1.419 . S
C1432 C1430 1.415 1_545 S
C1432 C1437 1.425 1_545 S
C1432 C1439 1.409 . S
C1433 H1425 0.930 . S
C1433 C1431 1.419 . S
C1433 C1434 1.362 . S
C1434 H1426 0.930 . S
C1434 C1433 1.362 . S
C1434 C1437 1.409 . S
C1435 H1427 0.930 . S
C1435 C1436 1.355 . S
C1435 C1437 1.415 1_545 S
C1436 C1435 1.355 . S
C1436 C1438 1.419 . S
C1437 C1432 1.425 1_565 S
C1437 C1434 1.409 . S
C1437 C1435 1.415 1_565 S
C1438 H1428 0.930 . S
C1438 C1436 1.419 . S
C1438 C1439 1.362 . S
C1439 H1429 0.930 . S
C1439 C1432 1.409 . S
C1439 C1438 1.362 . S
H1440 C1446 0.930 . S
H1441 C1449 0.930 . S
H1442 C1450 0.930 . S
H1443 C1451 0.930 . S
H1444 C1454 0.930 . S
H1445 C1455 0.930 . S
C1446 H1440 0.930 . S
C1446 C1447 1.355 . S
C1446 C1448 1.415 1_455 S
C1447 C1446 1.355 . S
C1447 C1449 1.419 . S
C1448 C1446 1.415 1_655 S
C1448 C1453 1.425 1_655 S
C1448 C1455 1.409 . S
C1449 H1441 0.930 . S
C1449 C1447 1.419 . S
C1449 C1450 1.362 . S
C1450 H1442 0.930 . S
C1450 C1449 1.362 . S
C1450 C1453 1.409 . S
C1451 H1443 0.930 . S
C1451 C1452 1.355 . S
C1451 C1453 1.415 1_655 S
C1452 C1451 1.355 . S
C1452 C1454 1.419 . S
C1453 C1448 1.425 1_455 S
C1453 C1450 1.409 . S
C1453 C1451 1.415 1_455 S
C1454 H1444 0.930 . S
C1454 C1452 1.419 . S
C1454 C1455 1.362 . S
C1455 H1445 0.930 . S
C1455 C1448 1.409 . S
C1455 C1454 1.362 . S
C951 C300 1.651 . S
C956 C5 1.658 . S
C967 C359 1.640 . S
C972 C64 1.628 . S
C983 C123 1.644 . S
C988 C418 1.630 . S
C999 C182 1.631 . S
C1004 C241 1.646 . S
C1015 C772 1.633 . S
C1020 C477 1.628 . S
C1031 C831 1.649 . S
C1036 C536 1.658 . S
C1047 C595 1.644 . S
C1052 C890 1.656 . S
C1063 C654 1.653 . S
C1068 C713 1.638 . S
C1079 C593 1.545 . S
C1084 C3 1.553 . S
C1095 C652 1.559 . S
C1100 C62 1.562 . S
C1111 C475 1.560 . S
C1116 C121 1.540 . S
C1127 C180 1.574 . S
C1132 C534 1.538 . S
C1143 C829 1.550 . S
C1148 C239 1.570 . S
C1159 C888 1.535 . S
C1164 C298 1.570 . S
C1175 C357 1.573 . S
C1180 C711 1.543 . S
C1191 C770 1.545 . S
C1196 C416 1.553 . S
C1207 C269 0.847 . S
C1212 C33 0.800 . S
C1223 C92 0.835 . S
C1228 C328 0.865 . S
C1239 C151 0.775 . S
C1244 C387 0.786 . S
C1255 C446 0.780 . S
C1260 C210 0.823 . S
C1271 C524 2.203 . S
C1276 C760 2.198 . S
C1287 C819 2.191 . S
C1292 C583 2.182 . S
C1303 C642 2.203 . S
C1308 C878 2.194 . S
C1319 C937 2.203 . S
C1324 C701 2.200 . S
C1335 C682 0.859 . S
C1340 C800 0.860 . S
C1351 C505 0.820 . S
C1356 C859 0.860 . S
C1367 C918 0.809 . S
C1372 C564 0.854 . S
C1383 C623 0.857 . S
C1388 C741 0.862 . S
C1399 C347 2.201 . S
C1404 C229 2.190 . S
C1415 C406 2.191 . S
C1420 C52 2.182 . S
C1431 C465 2.184 . S
C1436 C111 2.183 . S
C1447 C288 2.191 . S
C1452 C170 2.182 . S
