# Generated by pormake.
# Topology snp, (6)-cn, num edge types: 1
# Building blocks:
#     Node 0, Type 0, BuildingBlock: KUMBOL_clean_sbu_0, # of connection points: 6
#     Node 1, Type 0, BuildingBlock: KUMBOL_clean_sbu_0, # of connection points: 6
#     Node 2, Type 0, BuildingBlock: KUMBOL_clean_sbu_0, # of connection points: 6
#     Node 3, Type 0, BuildingBlock: KUMBOL_clean_sbu_0, # of connection points: 6
#     Edge 4, Type (0, 0), BuildingBlock: XUDNAN_clean_linker_2, # of connection points: 2
#     Edge 5, Type (0, 0), BuildingBlock: XUDNAN_clean_linker_2, # of connection points: 2
#     Edge 6, Type (0, 0), BuildingBlock: XUDNAN_clean_linker_2, # of connection points: 2
#     Edge 7, Type (0, 0), BuildingBlock: XUDNAN_clean_linker_2, # of connection points: 2
#     Edge 8, Type (0, 0), BuildingBlock: XUDNAN_clean_linker_2, # of connection points: 2
#     Edge 9, Type (0, 0), BuildingBlock: XUDNAN_clean_linker_2, # of connection points: 2
#     Edge 10, Type (0, 0), BuildingBlock: XUDNAN_clean_linker_2, # of connection points: 2
#     Edge 11, Type (0, 0), BuildingBlock: XUDNAN_clean_linker_2, # of connection points: 2
#     Edge 12, Type (0, 0), BuildingBlock: XUDNAN_clean_linker_2, # of connection points: 2
#     Edge 13, Type (0, 0), BuildingBlock: XUDNAN_clean_linker_2, # of connection points: 2
#     Edge 14, Type (0, 0), BuildingBlock: XUDNAN_clean_linker_2, # of connection points: 2
#     Edge 15, Type (0, 0), BuildingBlock: XUDNAN_clean_linker_2, # of connection points: 2
# Relax obj value: 0.232
# Max RMSD: 0.260
# Mean RMSD: 0.235
data_MOF--net-snp--node1-KUMBOL_clean_sbu_0--edge1-XUDNAN_clean_linker_2
_symmetry_space_group_name_H-M    P1
_symmetry_Int_Tables_number       1
_symmetry_cell_setting            triclinic
loop_
_symmetry_equiv_pos_as_xyz
'x, y, z'
_cell_length_a     24.334965
_cell_length_b     26.225487
_cell_length_c     33.731771
_cell_angle_alpha  117.28515
_cell_angle_beta   97.880959
_cell_angle_gamma 94.682295
loop_
_atom_site_label
_atom_site_type_symbol
_atom_site_fract_x
_atom_site_fract_y
_atom_site_fract_z
_atom_type_partial_charge
Gd0 Gd 0.36294 0.05084 0.26395 0.0
Gd1 Gd 0.37713 0.18529 0.25362 0.0
C2 C 0.41829 0.37189 0.37156 0.0
C3 C 0.34021 0.41486 0.35368 0.0
C4 C 0.34569 0.31334 0.30481 0.0
C5 C 0.39543 0.31851 0.33235 0.0
C6 C 0.31803 0.36175 0.31451 0.0
C7 C 0.39017 0.41987 0.38226 0.0
C8 C 0.4688 0.37555 0.39876 0.0
C9 C 0.49549 0.32694 0.38633 0.0
N10 N 0.42127 0.27112 0.32094 0.0
C11 C 0.47135 0.27506 0.34705 0.0
H12 H 0.49303 0.23839 0.33857 0.0
C13 C 0.27987 0.25602 0.23645 0.0
N14 N 0.32522 0.26136 0.26761 0.0
C15 C 0.251 0.30271 0.24438 0.0
C16 C 0.26967 0.35563 0.28396 0.0
H17 H 0.26533 0.21542 0.20557 0.0
H18 H 0.40704 0.46116 0.41226 0.0
H19 H 0.24454 0.98287 0.18277 0.0
H20 H 0.48767 0.41569 0.42919 0.0
H21 H 0.53479 0.32936 0.40701 0.0
H22 H 0.31941 0.45245 0.36187 0.0
H23 H 0.48986 0.03829 0.31158 0.0
H24 H 0.28138 0.8247 0.08072 0.0
H25 H 0.21509 0.89345 0.1095 0.0
H26 H 0.46782 0.8169 0.14206 0.0
H27 H 0.21446 0.29785 0.21993 0.0
H28 H 0.24729 0.39179 0.29008 0.0
H29 H 0.37564 0.79676 0.09302 0.0
H30 H 0.55695 0.96915 0.29035 0.0
N31 N 0.32751 0.96618 0.19509 0.0
C32 C 0.29467 0.86397 0.11306 0.0
C33 C 0.25705 0.90266 0.12924 0.0
C34 C 0.34848 0.87562 0.13925 0.0
C35 C 0.36392 0.92754 0.18102 0.0
C36 C 0.27396 0.95343 0.17092 0.0
N37 N 0.43017 0.9886 0.24963 0.0
C38 C 0.4163 0.93882 0.20898 0.0
C39 C 0.51761 0.9602 0.26721 0.0
C40 C 0.50521 0.91015 0.22493 0.0
C41 C 0.47921 0.99897 0.27934 0.0
C42 C 0.45395 0.89863 0.19541 0.0
H43 H 0.53521 0.88033 0.21562 0.0
O44 O 0.32396 0.06325 0.32188 0.0
O45 O 0.37325 0.14663 0.30005 0.0
O46 O 0.46038 0.15798 0.26687 0.0
O47 O 0.44213 0.05833 0.23651 0.0
O48 O 0.42357 0.11017 0.33017 0.0
O49 O 0.33147 0.97745 0.27368 0.0
O50 O 0.36975 0.19001 0.1903 0.0
O51 O 0.36171 0.08822 0.21634 0.0
O52 O 0.27753 0.0754 0.24938 0.0
O53 O 0.29578 0.17627 0.27682 0.0
O54 O 0.31228 0.12937 0.18973 0.0
O55 O 0.45073 0.21514 0.23524 0.0
C56 C 0.40623 0.15835 0.33651 0.0
C57 C 0.43919 0.84798 0.15316 0.0
C58 C 0.38668 0.83653 0.1252 0.0
C59 C 0.31797 0.00913 0.31261 0.0
C60 C 0.33972 0.99743 0.35065 0.0
C61 C 0.3977 0.01125 0.36831 0.0
C62 C 0.3039 0.97301 0.36978 0.0
C63 C 0.32688 0.96234 0.40586 0.0
C64 C 0.42018 1.00154 0.40401 0.0
C65 C 0.38527 0.97734 0.42257 0.0
C66 C 0.47497 0.10637 0.24508 0.0
C67 C 0.32426 0.0794 0.18292 0.0
C68 C 0.42218 0.21276 0.19854 0.0
C69 C 0.43345 0.26307 0.19015 0.0
C70 C 0.46614 0.31568 0.22421 0.0
C71 C 0.41239 0.258 0.14707 0.0
C72 C 0.42469 0.30464 0.13787 0.0
C73 C 0.47834 0.36191 0.2153 0.0
C74 C 0.4581 0.35647 0.17252 0.0
C75 C 0.26061 0.12695 0.26271 0.0
H76 H 0.42578 0.03024 0.35479 0.0
H77 H 0.25908 0.96138 0.3562 0.0
H78 H 0.46503 0.01277 0.41734 0.0
H79 H 0.4041 0.96985 0.45008 0.0
H80 H 0.4825 0.32114 0.25769 0.0
H81 H 0.38718 0.21752 0.12058 0.0
H82 H 0.50361 0.40226 0.24175 0.0
H83 H 0.46777 0.39333 0.1668 0.0
Gd84 Gd 0.20801 0.33725 0.68288 0.0
Gd85 Gd 0.09504 0.25386 0.5823 0.0
C86 C 0.91666 0.1933 0.58969 0.0
C87 C 0.90364 0.08982 0.53766 0.0
C88 C 0.99268 0.15148 0.55283 0.0
C89 C 0.97181 0.19995 0.58186 0.0
C90 C 0.95834 0.09618 0.52993 0.0
C91 C 0.88313 0.1381 0.56788 0.0
C92 C 0.89606 0.24246 0.61848 0.0
C93 C 0.92924 0.2969 0.63752 0.0
N94 N 1.00443 0.25346 0.60139 0.0
C95 C 0.98292 0.30185 0.62805 0.0
H96 H 0.00632 0.34507 0.64341 0.0
C97 C 0.06571 0.11267 0.51422 0.0
N98 N 0.04558 0.1585 0.54546 0.0
C99 C 0.03331 0.05717 0.49117 0.0
C100 C 0.97967 0.04876 0.49945 0.0
H101 H 0.10661 0.11866 0.50664 0.0
H102 H 0.84081 0.13244 0.57357 0.0
H103 H 0.30724 0.25648 0.64408 0.0
H104 H 0.85419 0.23899 0.62554 0.0
H105 H 0.91332 0.33539 0.65937 0.0
H106 H 0.87692 0.04763 0.52055 0.0
H107 H 0.18162 0.4717 0.74504 0.0
H108 H 0.44499 0.36484 0.63937 0.0
H109 H 0.40092 0.26845 0.626 0.0
H110 H 0.39339 0.5548 0.7095 0.0
H111 H 0.0493 0.02106 0.46646 0.0
H112 H 0.95457 0.00577 0.48152 0.0
H113 H 0.44155 0.47177 0.67028 0.0
H114 H 0.22309 0.57309 0.76861 0.0
N115 N 0.29805 0.34483 0.66648 0.0
C116 C 0.40396 0.35985 0.64743 0.0
C117 C 0.37928 0.3054 0.63993 0.0
C118 C 0.37624 0.40762 0.66679 0.0
C119 C 0.32289 0.39866 0.67655 0.0
C120 C 0.32625 0.29879 0.65024 0.0
N121 N 0.24622 0.43513 0.70978 0.0
C122 C 0.29619 0.44537 0.69901 0.0
C123 C 0.24401 0.53754 0.74896 0.0
C124 C 0.29429 0.54866 0.73651 0.0
C125 C 0.22077 0.48021 0.73576 0.0
C126 C 0.32149 0.50238 0.7118 0.0
H127 H 0.31224 0.59311 0.74684 0.0
O128 O 0.21239 0.37083 0.7555 0.0
O129 O 0.11998 0.28966 0.65807 0.0
O130 O 0.09057 0.34788 0.62287 0.0
O131 O 0.1831 0.39119 0.64877 0.0
O132 O 0.13451 0.36698 0.71716 0.0
O133 O 0.26267 0.30567 0.72037 0.0
O134 O 0.11103 0.29644 0.5417 0.0
O135 O 0.18523 0.2931 0.60734 0.0
O136 O 0.20707 0.23986 0.65621 0.0
O137 O 0.12163 0.19111 0.60488 0.0
O138 O 0.16741 0.2107 0.55348 0.0
O139 O 0.04134 0.22748 0.51605 0.0
C140 C 0.09747 0.32129 0.69084 0.0
C141 C 0.37345 0.51136 0.70032 0.0
C142 C 0.40083 0.46407 0.67791 0.0
C143 C 0.24881 0.33857 0.75913 0.0
C144 C 0.29395 0.36567 0.79999 0.0
C145 C 0.33264 0.41389 0.80882 0.0
C146 C 0.29717 0.34372 0.83124 0.0
C147 C 0.33824 0.37045 0.87196 0.0
C148 C 0.37363 0.44044 0.84868 0.0
C149 C 0.37626 0.41937 0.88011 0.0
C150 C 0.13078 0.38979 0.63095 0.0
C151 C 0.20742 0.25366 0.57936 0.0
C152 C 0.07115 0.26298 0.50729 0.0
C153 C 0.08648 0.23901 0.46173 0.0
C154 C 0.13589 0.21476 0.45461 0.0
C155 C 0.0533 0.24268 0.42555 0.0
C156 C 0.07059 0.22372 0.38332 0.0
C157 C 0.15288 0.19577 0.41301 0.0
C158 C 0.12072 0.2004 0.37768 0.0
C159 C 0.16636 0.19399 0.63346 0.0
H160 H 0.33078 0.43125 0.78515 0.0
H161 H 0.26756 0.30573 0.82354 0.0
H162 H 0.40312 0.47809 0.85559 0.0
H163 H 0.40753 0.44241 0.91124 0.0
H164 H 0.16199 0.21092 0.4812 0.0
H165 H 0.01511 0.26139 0.43052 0.0
H166 H 0.19134 0.17761 0.40821 0.0
H167 H 0.13478 0.1851 0.3456 0.0
Gd168 Gd 0.84848 0.95359 1.01321 0.0
Gd169 Gd 0.83956 0.08078 0.99315 0.0
C170 C 0.75186 0.23822 0.05918 0.0
C171 C 0.65758 0.20323 1.01298 0.0
C172 C 0.72822 0.13958 0.99675 0.0
C173 C 0.76711 0.18363 0.03263 0.0
C174 C 0.6726 0.14856 0.9873 0.0
C175 C 0.69714 0.24797 0.0488 0.0
C176 C 0.79194 0.28127 0.09565 0.0
C177 C 0.84575 0.26949 0.10468 0.0
N178 N 0.81931 0.17238 0.04258 0.0
C179 C 0.85884 0.21475 0.0774 0.0
H180 H 0.90128 0.20743 0.08288 0.0
C181 C 0.70453 0.04028 0.94169 0.0
N182 N 0.74372 0.08658 0.97355 0.0
C183 C 0.64909 0.04732 0.93086 0.0
C184 C 0.63318 0.10181 0.95336 0.0
H185 H 0.71504 0.9973 0.92479 0.0
H186 H 0.68475 0.28968 0.06871 0.0
H187 H 0.70714 0.94465 0.96872 0.0
H188 H 0.78191 0.32377 0.11679 0.0
H189 H 0.87747 0.30286 0.1322 0.0
H190 H 0.61515 0.211 1.00599 0.0
H191 H 0.96654 0.8968 0.98889 0.0
H192 H 0.65218 0.77551 0.8575 0.0
H193 H 0.63262 0.87173 0.91035 0.0
H194 H 0.82051 0.6946 0.83284 0.0
H195 H 0.61849 0.01048 0.90543 0.0
H196 H 0.59003 0.10692 0.94516 0.0
H197 H 0.7223 0.71019 0.82887 0.0
H198 H 0.99397 0.80929 0.93163 0.0
N199 N 0.77114 0.89051 0.95399 0.0
C200 C 0.68577 0.80725 0.88429 0.0
C201 C 0.67458 0.86143 0.91407 0.0
C202 C 0.74066 0.79568 0.88802 0.0
C203 C 0.78315 0.83868 0.92345 0.0
C204 C 0.71781 0.90286 0.94827 0.0
N205 N 0.87929 0.87268 0.95822 0.0
C206 C 0.83873 0.82986 0.92535 0.0
C207 C 0.95021 0.81466 0.92918 0.0
C208 C 0.9093 0.77096 0.89452 0.0
C209 C 0.93436 0.86497 0.96125 0.0
C210 C 0.85281 0.77791 0.89243 0.0
H211 H 0.9217 0.73187 0.86975 0.0
O212 O 0.9085 0.93155 0.05436 0.0
O213 O 0.86097 0.04993 0.04376 0.0
O214 O 0.92882 0.08296 0.02537 0.0
O215 O 0.93372 0.98601 1.00498 0.0
O216 O 0.8703 0.01691 0.08834 0.0
O217 O 0.81868 0.8998 0.04181 0.0
O218 O 0.85147 0.09298 0.93504 0.0
O219 O 0.85258 0.98876 0.96548 0.0
O220 O 0.76903 0.98826 0.03613 0.0
O221 O 0.77535 0.07847 0.03619 0.0
O222 O 0.80988 0.00865 0.92001 0.0
O223 O 0.90616 0.14726 1.00027 0.0
C224 C 0.87263 0.06445 0.08599 0.0
C225 C 0.81039 0.7347 0.85823 0.0
C226 C 0.75446 0.74349 0.85608 0.0
C227 C 0.86923 0.9035 0.06313 0.0
C228 C 0.88254 0.85492 0.07105 0.0
C229 C 0.88697 0.80099 0.03543 0.0
C230 C 0.89063 0.86341 0.11588 0.0
C231 C 0.90289 0.81824 0.12559 0.0
C232 C 0.89938 0.75592 0.04466 0.0
C233 C 0.9072 0.76429 0.08929 0.0
C234 C 0.95828 0.04078 0.0216 0.0
C235 C 0.82921 0.96694 0.92438 0.0
C236 C 0.89291 0.13619 0.95798 0.0
C237 C 0.89241 0.18611 0.94843 0.0
C238 C 0.86543 0.23264 0.97313 0.0
C239 C 0.91836 0.18678 0.91353 0.0
C240 C 0.9174 0.23368 0.90344 0.0
C241 C 0.86426 0.27895 0.96353 0.0
C242 C 0.88976 0.27953 0.92906 0.0
C243 C 0.75187 0.03902 0.04612 0.0
H244 H 0.88073 0.79375 1.00073 0.0
H245 H 0.88629 0.90511 0.14313 0.0
H246 H 0.90293 0.71425 0.0171 0.0
H247 H 0.91719 0.7287 0.09541 0.0
H248 H 0.84494 0.23324 0.99968 0.0
H249 H 0.93949 0.15097 0.89457 0.0
H250 H 0.84297 0.31445 0.98268 0.0
H251 H 0.88664 0.31556 0.92192 0.0
Gd252 Gd 0.12591 0.84411 0.67235 0.0
Gd253 Gd 0.9986 0.8094 0.5875 0.0
C254 C 0.8324 0.71601 0.58917 0.0
C255 C 0.81956 0.62389 0.51987 0.0
C256 C 0.90225 0.6968 0.54162 0.0
C257 C 0.88416 0.73304 0.58062 0.0
C258 C 0.86945 0.64236 0.51023 0.0
C259 C 0.80102 0.6607 0.55925 0.0
C260 C 0.81263 0.75587 0.62657 0.0
C261 C 0.84356 0.81155 0.65371 0.0
N262 N 0.91517 0.78647 0.60857 0.0
C263 C 0.89489 0.82622 0.64421 0.0
H264 H 0.91793 0.86937 0.66597 0.0
C265 C 0.96468 0.6859 0.49148 0.0
N266 N 0.95003 0.71639 0.53286 0.0
C267 C 0.93391 0.63146 0.45953 0.0
C268 C 0.88655 0.60914 0.46923 0.0
H269 H 1.00068 0.70299 0.48323 0.0
H270 H 0.76151 0.64669 0.56554 0.0
H271 H 0.20213 0.74392 0.67159 0.0
H272 H 0.77301 0.74456 0.63417 0.0
H273 H 0.82826 0.84306 0.68235 0.0
H274 H 0.79409 0.58203 0.49637 0.0
H275 H 0.13074 0.9765 0.6792 0.0
H276 H 0.3536 0.76595 0.62566 0.0
H277 H 0.29229 0.71235 0.65157 0.0
H278 H 0.34697 0.9432 0.61772 0.0
H279 H 0.94654 0.60693 0.42733 0.0
H280 H 0.86249 0.56716 0.44425 0.0
H281 H 0.3735 0.85216 0.61273 0.0
H282 H 0.19183 0.04243 0.66413 0.0
N283 N 0.21078 0.81153 0.65373 0.0
C284 C 0.31389 0.77943 0.63384 0.0
C285 C 0.27935 0.74903 0.64842 0.0
C286 C 0.29813 0.82872 0.63233 0.0
C287 C 0.24604 0.84442 0.64344 0.0
C288 C 0.2283 0.76671 0.65937 0.0
N289 N 0.18256 0.91098 0.66021 0.0
C290 C 0.23177 0.89611 0.64725 0.0
C291 C 0.20347 1.00137 0.65919 0.0
C292 C 0.25336 0.98588 0.64455 0.0
C293 C 0.16869 0.96353 0.66739 0.0
C294 C 0.26831 0.93286 0.63866 0.0
H295 H 0.28039 0.01546 0.63853 0.0
O296 O 0.16023 0.9163 0.73974 0.0
O297 O 0.03274 0.82244 0.65676 0.0
O298 O 1.00053 0.89755 0.6473 0.0
O299 O 0.07743 0.91727 0.70437 0.0
O300 O 0.07464 0.77723 0.68309 0.0
O301 O 0.15716 0.82813 0.72854 0.0
O302 O 0.99933 0.8358 0.53481 0.0
O303 O 0.08981 0.85173 0.61103 0.0
O304 O 0.12032 0.75222 0.61522 0.0
O305 O 0.02567 0.72523 0.57761 0.0
O306 O 0.06258 0.78921 0.54308 0.0
O307 O 0.93104 0.85003 0.57071 0.0
C308 C 0.02515 0.78712 0.67223 0.0
C309 C 0.31873 0.91588 0.62502 0.0
C310 C 0.33369 0.86393 0.62196 0.0
C311 C 0.17346 0.88294 0.75742 0.0
C312 C 0.22975 0.89858 0.78618 0.0
C313 C 0.27776 0.90965 0.77086 0.0
C314 C 0.23552 0.90204 0.82946 0.0
C315 C 0.2891 0.91639 0.85746 0.0
C316 C 0.33093 0.92355 0.79819 0.0
C317 C 0.3367 0.92697 0.84115 0.0
C318 C 0.03073 0.93027 0.68893 0.0
C319 C 0.1049 0.82536 0.57278 0.0
C320 C 0.94967 0.84996 0.53634 0.0
C321 C 0.90985 0.82501 0.49217 0.0
C322 C 0.85841 0.79036 0.4846 0.0
C323 C 0.92377 0.83515 0.45683 0.0
C324 C 0.88647 0.81136 0.41428 0.0
C325 C 0.82123 0.76706 0.44292 0.0
C326 C 0.8348 0.77763 0.40818 0.0
C327 C 0.07623 0.71296 0.58645 0.0
H328 H 0.27417 0.90789 0.73797 0.0
H329 H 0.19831 0.89317 0.84112 0.0
H330 H 0.36782 0.93221 0.7862 0.0
H331 H 0.37844 0.93914 0.86197 0.0
H332 H 0.84678 0.78126 0.51086 0.0
H333 H 0.96402 0.86087 0.46246 0.0
H334 H 0.78145 0.74084 0.43755 0.0
H335 H 0.8042 0.7599 0.37671 0.0
H336 H 0.0128 0.97818 0.05662 0.0
H337 H 0.02799 0.14573 0.05906 0.0
H338 H 0.09226 0.18931 0.13386 0.0
H339 H 0.01326 0.02904 0.17273 0.0
H340 H 0.05545 0.9789 0.1791 0.0
H341 H 0.01154 0.95867 0.12492 0.0
H342 H 0.09724 0.93943 0.08374 0.0
H343 H 0.13808 0.95304 0.13724 0.0
H344 H 0.16019 0.99319 0.10938 0.0
H345 H 0.13748 0.21748 0.21498 0.0
H346 H 0.20782 0.22109 0.27676 0.0
H347 H 0.17439 0.03323 0.21478 0.0
C348 C 0.03073 0.02361 0.07188 0.0
C349 C 0.01326 0.05919 0.05293 0.0
C350 C 0.03963 0.11799 0.07362 0.0
C351 C 0.07513 0.1434 0.11652 0.0
C352 C 0.08526 0.10862 0.137 0.0
C353 C 0.06703 0.04933 0.11412 0.0
C354 C 0.08822 0.02075 0.14201 0.0
C355 C 0.03919 0.99536 0.15547 0.0
C356 C 0.12302 0.97388 0.11655 0.0
C357 C 0.12399 0.07303 0.18309 0.0
C358 C 0.11819 0.12368 0.18088 0.0
C359 C 0.14477 0.17783 0.21586 0.0
C360 C 0.18463 0.17938 0.25065 0.0
C361 C 0.20076 0.12709 0.2472 0.0
C362 C 0.1655 0.07381 0.21646 0.0
H363 H 0.95651 0.98224 0.66001 0.0
H364 H 0.07697 0.01391 0.77825 0.0
H365 H 0.12017 0.10511 0.78352 0.0
H366 H 0.06876 0.97478 0.61916 0.0
H367 H 0.04571 0.99255 0.57459 0.0
H368 H 0.99547 0.96067 0.59439 0.0
H369 H 0.94477 0.08159 0.64327 0.0
H370 H 0.9568 0.03997 0.58734 0.0
H371 H 0.99138 0.11357 0.62087 0.0
H372 H 0.17422 0.16613 0.75839 0.0
H373 H 0.22088 0.20385 0.7145 0.0
H374 H 0.09195 0.09354 0.59469 0.0
C375 C 0.98995 0.01046 0.68867 0.0
C376 C 0.01777 0.98893 0.71552 0.0
C377 C 0.05745 0.02821 0.7551 0.0
C378 C 0.08315 0.07966 0.75764 0.0
C379 C 0.0679 0.08895 0.72032 0.0
C380 C 0.02202 0.05431 0.68573 0.0
C381 C 0.028 0.05258 0.64106 0.0
C382 C 0.03511 0.99154 0.60527 0.0
C383 C 0.97779 0.07324 0.62232 0.0
C384 C 0.08272 0.09358 0.65655 0.0
C385 C 0.10474 0.11471 0.70214 0.0
C386 C 0.15661 0.15108 0.7229 0.0
C387 C 0.18374 0.17088 0.69732 0.0
C388 C 0.15891 0.1532 0.65154 0.0
C389 C 0.11115 0.10936 0.63003 0.0
H390 H 0.66672 0.97181 0.05694 0.0
H391 H 0.74938 0.14966 0.10913 0.0
H392 H 0.69312 0.18308 0.16884 0.0
H393 H 0.52762 0.01042 0.07583 0.0
H394 H 0.50918 0.95476 0.09116 0.0
H395 H 0.55687 0.94409 0.05266 0.0
H396 H 0.63049 0.92517 0.10558 0.0
H397 H 0.58323 0.93715 0.14462 0.0
H398 H 0.65287 0.97939 0.16446 0.0
H399 H 0.63224 0.19786 0.22479 0.0
H400 H 0.55794 0.19631 0.2668 0.0
H401 H 0.50749 0.0105 0.17729 0.0
C402 C 0.6725 0.01779 0.08077 0.0
C403 C 0.71247 0.0581 0.07817 0.0
C404 C 0.71868 0.11795 0.10989 0.0
C405 C 0.6873 0.13739 0.14435 0.0
C406 C 0.64902 0.0967 0.14647 0.0
C407 C 0.64032 0.03834 0.11504 0.0
C408 C 0.59392 1.00474 0.12406 0.0
C409 C 0.54394 0.97687 0.08352 0.0
C410 C 0.6165 0.95889 0.13535 0.0
C411 C 0.57836 0.05341 0.16551 0.0
C412 C 0.61153 0.10579 0.17808 0.0
C413 C 0.60564 0.15722 0.21507 0.0
C414 C 0.56323 0.15577 0.23883 0.0
C415 C 0.52634 0.10342 0.22528 0.0
C416 C 0.53511 0.05118 0.18877 0.0
H417 H 0.20043 0.48062 0.6348 0.0
H418 H 0.03002 0.38412 0.58184 0.0
H419 H 0.00633 0.44359 0.54573 0.0
H420 H 0.16141 0.613 0.66812 0.0
H421 H 0.21954 0.64479 0.65454 0.0
H422 H 0.22734 0.58601 0.66696 0.0
H423 H 0.25698 0.52795 0.58938 0.0
H424 H 0.24817 0.58672 0.57646 0.0
H425 H 0.21109 0.51431 0.53762 0.0
H426 H 0.99432 0.52118 0.52786 0.0
H427 H 0.99224 0.61908 0.53768 0.0
H428 H 0.17056 0.66609 0.59658 0.0
C429 C 0.15853 0.47151 0.61489 0.0
C430 C 0.11737 0.42771 0.61106 0.0
C431 C 0.06256 0.41751 0.58539 0.0
C432 C 0.04874 0.45043 0.56398 0.0
C433 C 0.09003 0.49347 0.56845 0.0
C434 C 0.14375 0.5045 0.59346 0.0
C435 C 0.1769 0.55961 0.59937 0.0
C436 C 0.19742 0.60341 0.65023 0.0
C437 C 0.22621 0.54632 0.57418 0.0
C438 C 0.13198 0.57968 0.57658 0.0
C439 C 0.08285 0.53978 0.55768 0.0
C440 C 0.03292 0.55224 0.54127 0.0
C441 C 0.03221 0.60827 0.54695 0.0
C442 C 0.08117 0.65103 0.56881 0.0
C443 C 0.13233 0.63503 0.58071 0.0
H444 H 0.28928 0.18898 0.54991 0.0
H445 H 0.22389 0.34156 0.55837 0.0
H446 H 0.27977 0.34321 0.50295 0.0
H447 H 0.43685 0.2392 0.53806 0.0
H448 H 0.44393 0.16512 0.50103 0.0
H449 H 0.405 0.18087 0.54598 0.0
H450 H 0.31811 0.10932 0.48761 0.0
H451 H 0.35675 0.09377 0.443 0.0
H452 H 0.29039 0.11857 0.43927 0.0
H453 H 0.31437 0.30532 0.42933 0.0
H454 H 0.34806 0.25029 0.35914 0.0
H455 H 0.41769 0.14232 0.41197 0.0
C456 C 0.28911 0.22437 0.54173 0.0
C457 C 0.25286 0.26536 0.55849 0.0
C458 C 0.25223 0.31036 0.54643 0.0
C459 C 0.28367 0.31149 0.51485 0.0
C460 C 0.31766 0.26911 0.49763 0.0
C461 C 0.3229 0.22827 0.51244 0.0
C462 C 0.36074 0.18642 0.48744 0.0
C463 C 0.41487 0.19336 0.52008 0.0
C464 C 0.32947 0.12333 0.46289 0.0
C465 C 0.37282 0.20741 0.45393 0.0
C466 C 0.34657 0.25451 0.45986 0.0
C467 C 0.33952 0.27207 0.42656 0.0
C468 C 0.36029 0.24135 0.38679 0.0
C469 C 0.39151 0.19613 0.38141 0.0
C470 C 0.39806 0.17957 0.41612 0.0
H471 H 0.06691 0.38097 0.7736 0.0
H472 H 0.04709 0.20829 0.65908 0.0
H473 H 0.99844 0.16865 0.70155 0.0
H474 H 0.09979 0.33748 0.85817 0.0
H475 H 0.06358 0.38829 0.89829 0.0
H476 H 0.09165 0.40521 0.85822 0.0
H477 H 0.99333 0.41992 0.82876 0.0
H478 H 0.96504 0.40377 0.86914 0.0
H479 H 0.93403 0.3627 0.80941 0.0
H480 H 0.9573 0.14439 0.75611 0.0
H481 H 0.92084 0.14151 0.81997 0.0
H482 H 0.97219 0.32865 0.90052 0.0
C483 C 0.05113 0.33475 0.75671 0.0
C484 C 0.05985 0.29787 0.71225 0.0
C485 C 0.03977 0.23762 0.69226 0.0
C486 C 0.01258 0.21446 0.71606 0.0
C487 C 0.00615 0.25142 0.75995 0.0
C488 C 0.02452 0.31049 0.78012 0.0
C489 C 0.01472 0.34033 0.82863 0.0
C490 C 0.07077 0.36955 0.86284 0.0
C491 C 0.97437 0.38428 0.83431 0.0
C492 C 0.98771 0.28866 0.83229 0.0
C493 C 0.98334 0.23768 0.79229 0.0
C494 C 0.96035 0.18417 0.78759 0.0
C495 C 0.94019 0.18289 0.82436 0.0
C496 C 0.9431 0.23475 0.86563 0.0
C497 C 0.9681 0.28814 0.86943 0.0
H498 H 0.85869 0.73674 0.32163 0.0
H499 H 0.94561 0.91007 0.42041 0.0
H500 H 0.96313 0.92938 0.35783 0.0
H501 H 0.94579 0.70934 0.23746 0.0
H502 H 0.88738 0.67173 0.1901 0.0
H503 H 0.8851 0.67041 0.24279 0.0
H504 H 0.79133 0.71112 0.24668 0.0
H505 H 0.79329 0.71252 0.19403 0.0
H506 H 0.78793 0.77793 0.24404 0.0
H507 H 0.96667 0.93134 0.28342 0.0
H508 H 0.95744 0.91517 0.20448 0.0
H509 H 0.8648 0.74197 0.15492 0.0
C510 C 0.8812 0.77899 0.3304 0.0
C511 C 0.90035 0.82202 0.37644 0.0
C512 C 0.93079 0.87609 0.38576 0.0
C513 C 0.94074 0.8876 0.3503 0.0
C514 C 0.92014 0.8446 0.30546 0.0
C515 C 0.89116 0.7913 0.29549 0.0
C516 C 0.87183 0.75301 0.24457 0.0
C517 C 0.89917 0.69786 0.22775 0.0
C518 C 0.80727 0.73777 0.23158 0.0
C519 C 0.89399 0.79322 0.22734 0.0
C520 C 0.92192 0.8458 0.26294 0.0
C521 C 0.94496 0.89025 0.25535 0.0
C522 C 0.93915 0.88077 0.21033 0.0
C523 C 0.91033 0.82727 0.17324 0.0
C524 C 0.88781 0.78302 0.18224 0.0
H525 H 0.22387 0.96683 0.92124 0.0
H526 H 0.37037 0.88098 0.8998 0.0
H527 H 0.38787 0.90101 0.97982 0.0
H528 H 0.28202 0.07979 0.02744 0.0
H529 H 0.21916 0.08405 0.05077 0.0
H530 H 0.21372 0.05574 0.99051 0.0
H531 H 0.15362 0.95911 0.97522 0.0
H532 H 0.15765 0.99 0.03563 0.0
H533 H 0.1796 0.92066 1.00466 0.0
H534 H 0.39792 0.94366 0.06461 0.0
H535 H 0.39853 1.0047 0.14635 0.0
H536 H 0.24234 0.05682 0.11197 0.0
C537 C 0.25855 0.9505 0.93289 0.0
C538 C 0.2957 0.92229 0.90408 0.0
C539 C 0.3416 0.90322 0.92125 0.0
C540 C 0.35159 0.91389 0.96659 0.0
C541 C 0.31491 0.943 0.99435 0.0
C542 C 0.26896 0.96058 0.97802 0.0
C543 C 0.23895 0.99578 1.01579 0.0
C544 C 0.2385 0.05747 0.02145 0.0
C545 C 0.17893 0.96446 1.00733 0.0
C546 C 0.27628 0.9969 0.05613 0.0
C547 C 0.31962 0.96578 0.04309 0.0
C548 C 0.36315 0.96652 0.0751 0.0
C549 C 0.363 1.00095 0.12154 0.0
C550 C 0.3192 0.03343 0.13547 0.0
C551 C 0.27499 0.03035 0.1022 0.0
H552 H 0.93624 0.9711 0.91055 0.0
H553 H 0.7697 0.86967 0.84934 0.0
H554 H 0.80515 0.8028 0.78156 0.0
H555 H 0.95701 0.97094 0.80999 0.0
H556 H 0.03176 0.9715 0.82048 0.0
H557 H 0.99619 1.00197 0.8675 0.0
H558 H 0.03564 0.93362 0.89675 0.0
H559 H 0.07066 0.90276 0.84921 0.0
H560 H 0.02255 0.8562 0.85953 0.0
H561 H 0.86166 0.74677 0.71942 0.0
H562 H 0.92462 0.72203 0.66313 0.0
H563 H 0.04602 0.8739 0.7593 0.0
C564 C 0.90793 0.93333 0.88359 0.0
C565 C 0.85114 0.92282 0.88641 0.0
C566 C 0.81408 0.87608 0.84894 0.0
C567 C 0.83387 0.83819 0.81023 0.0
C568 C 0.89033 0.84959 0.80845 0.0
C569 C 0.92634 0.89718 0.84379 0.0
C570 C 0.98185 0.90654 0.83052 0.0
C571 C 0.99224 0.96628 0.83222 0.0
C572 C 0.03056 0.89933 0.86079 0.0
C573 C 0.97134 0.85744 0.78206 0.0
C574 C 0.91932 0.82351 0.77043 0.0
C575 C 0.90189 0.77397 0.72794 0.0
C576 C 0.93757 0.76038 0.69604 0.0
C577 C 0.98847 0.79784 0.70602 0.0
C578 C 0.00612 0.84584 0.7501 0.0
H579 H 0.23973 0.99695 0.45382 0.0
H580 H 0.3409 0.86023 0.40385 0.0
H581 H 0.30076 0.81596 0.44632 0.0
H582 H 0.25031 0.01346 0.56467 0.0
H583 H 0.17863 0.02196 0.57067 0.0
H584 H 0.21005 0.04386 0.53433 0.0
H585 H 0.13331 0.97668 0.46412 0.0
H586 H 0.098 0.95866 0.50081 0.0
H587 H 0.11431 0.90169 0.45017 0.0
H588 H 0.25202 0.78668 0.49495 0.0
H589 H 0.18931 0.76848 0.54048 0.0
H590 H 0.11844 0.92263 0.56071 0.0
C591 C 0.25223 0.95692 0.45102 0.0
C592 C 0.29325 0.93171 0.42503 0.0
C593 C 0.30937 0.88003 0.42314 0.0
C594 C 0.28709 0.85478 0.44748 0.0
C595 C 0.2483 0.88143 0.47386 0.0
C596 C 0.23002 0.93072 0.47525 0.0
C597 C 0.187 0.94955 0.50602 0.0
C598 C 0.20774 0.01085 0.54633 0.0
C599 C 0.12971 0.94643 0.47866 0.0
C600 C 0.18462 0.90355 0.52183 0.0
C601 C 0.22062 0.86491 0.50288 0.0
C602 C 0.22416 0.81706 0.51039 0.0
C603 C 0.18879 0.8073 0.53667 0.0
C604 C 0.15107 0.84569 0.55619 0.0
C605 C 0.14907 0.89447 0.54853 0.0
H606 H 0.43172 0.37307 0.93069 0.0
H607 H 0.25026 0.31986 0.89305 0.0
H608 H 0.25393 0.28865 0.95186 0.0
H609 H 0.46615 0.26088 0.96076 0.0
H610 H 0.52066 0.30995 1.00856 0.0
H611 H 0.50476 0.32203 0.96007 0.0
H612 H 0.48806 0.42624 1.01263 0.0
H613 H 0.50406 0.41455 0.06123 0.0
H614 H 0.43805 0.43633 0.04936 0.0
H615 H 0.27695 0.26729 0.01824 0.0
H616 H 0.31655 0.26414 0.08863 0.0
H617 H 0.48141 0.33739 0.08589 0.0
C618 C 0.39249 0.35503 0.93459 0.0
C619 C 0.34067 0.34887 0.90645 0.0
C620 C 0.29082 0.32408 0.91299 0.0
C621 C 0.29237 0.30644 0.94669 0.0
C622 C 0.34403 0.31399 0.97407 0.0
C623 C 0.39315 0.33798 0.96847 0.0
C624 C 0.44274 0.34504 1.00421 0.0
C625 C 0.48613 0.30722 0.98207 0.0
C626 C 0.46979 0.40936 0.03359 0.0
C627 C 0.41369 0.32247 0.03142 0.0
C628 C 0.35691 0.30374 1.01305 0.0
C629 C 0.3214 0.2817 0.03276 0.0
C630 C 0.34429 0.2798 0.07263 0.0
C631 C 0.40201 0.30062 0.09288 0.0
C632 C 0.43705 0.32146 0.07142 0.0
H633 H 0.83514 0.0915 0.16282 0.0
H634 H 0.9525 0.15827 0.10638 0.0
H635 H 0.00635 0.22486 0.18301 0.0
H636 H 0.85181 0.22771 0.27991 0.0
H637 H 0.84932 0.18224 0.30687 0.0
H638 H 0.80926 0.15648 0.25023 0.0
H639 H 0.85729 0.06498 0.22201 0.0
H640 H 0.89863 0.09083 0.27786 0.0
H641 H 0.93294 0.07354 0.23018 0.0
H642 H 0.06058 0.26377 0.26173 0.0
H643 H 0.10847 0.27377 0.33492 0.0
H644 H 0.95996 0.17753 0.34175 0.0
C645 C 0.87001 0.12312 0.16691 0.0
C646 C 0.88827 0.12106 0.12817 0.0
C647 C 0.93601 0.16048 0.13489 0.0
C648 C 0.96739 0.19819 0.17875 0.0
C649 C 0.95079 0.19557 0.21585 0.0
C650 C 0.90259 0.15943 0.21044 0.0
C651 C 0.89965 0.15574 0.2538 0.0
C652 C 0.84953 0.18213 0.2739 0.0
C653 C 0.89701 0.09256 0.24543 0.0
C654 C 0.95507 0.19307 0.28375 0.0
C655 C 0.98335 0.21663 0.26149 0.0
C656 C 0.03817 0.2469 0.27991 0.0
C657 C 0.06512 0.25226 0.32149 0.0
C658 C 0.03754 0.22731 0.34437 0.0
C659 C 0.98128 0.19866 0.32573 0.0
loop_
_geom_bond_atom_site_label_1
_geom_bond_atom_site_label_2
_geom_bond_distance
_geom_bond_site_symmetry_2
_ccdc_geom_bond_type
Gd0 N31 2.661 . S
Gd0 N37 2.601 . S
Gd0 O44 2.545 . S
Gd0 O45 2.606 1_565 S
Gd0 O47 2.429 . S
Gd0 O48 2.545 1_565 S
Gd0 O49 2.412 . S
Gd0 O51 2.362 . S
Gd0 O52 2.324 . S
Gd0 C59 2.828 . S
Gd1 N10 2.661 . S
Gd1 N14 2.601 . S
Gd1 O45 2.362 . S
Gd1 O46 2.324 . S
Gd1 O50 2.545 . S
Gd1 O51 2.606 1_545 S
Gd1 O53 2.429 . S
Gd1 O54 2.545 . S
Gd1 O55 2.412 . S
Gd1 C68 2.828 . S
C2 C5 1.417 . S
C2 C7 1.431 . S
C2 C8 1.412 . S
C3 C6 1.437 . S
C3 C7 1.317 . S
C3 H22 0.929 . S
C4 C5 1.426 . S
C4 C6 1.413 . S
C4 N14 1.359 . S
C5 C2 1.417 . S
C5 C4 1.426 . S
C5 N10 1.350 . S
C6 C3 1.437 . S
C6 C4 1.413 . S
C6 C16 1.391 . S
C7 C2 1.431 . S
C7 C3 1.317 . S
C7 H18 0.930 . S
C8 C2 1.412 . S
C8 C9 1.355 . S
C8 H20 0.930 . S
C9 C8 1.355 . S
C9 C11 1.402 . S
C9 H21 0.930 . S
N10 Gd1 2.661 . S
N10 C5 1.350 . S
N10 C11 1.307 . S
C11 C9 1.402 . S
C11 N10 1.307 . S
C11 H12 0.930 . S
H12 C11 0.930 . S
C13 N14 1.334 . S
C13 C15 1.394 . S
C13 H17 0.930 . S
N14 Gd1 2.601 . S
N14 C4 1.359 . S
N14 C13 1.334 . S
C15 C13 1.394 . S
C15 C16 1.359 . S
C15 H27 0.930 . S
C16 C6 1.391 . S
C16 C15 1.359 . S
C16 H28 0.929 . S
H17 C13 0.930 . S
H18 C7 0.930 . S
H19 C36 0.930 . S
H20 C8 0.930 . S
H21 C9 0.930 . S
H22 C3 0.929 . S
H23 C41 0.930 . S
H24 C32 0.930 1_556 S
H25 C33 0.930 . S
H26 C57 0.929 . S
H27 C15 0.930 . S
H28 C16 0.929 . S
H29 C58 0.930 1_556 S
H30 C39 0.930 . S
N31 Gd0 2.661 . S
N31 C35 1.350 . S
N31 C36 1.307 . S
C32 H24 0.930 1_554 S
C32 C33 1.355 . S
C32 C34 1.412 . S
C33 H25 0.930 . S
C33 C32 1.355 . S
C33 C36 1.402 . S
C34 C32 1.412 . S
C34 C35 1.417 . S
C34 C58 1.431 . S
C35 N31 1.350 . S
C35 C34 1.417 . S
C35 C38 1.426 . S
C36 H19 0.930 . S
C36 N31 1.307 . S
C36 C33 1.402 . S
N37 Gd0 2.601 . S
N37 C38 1.359 . S
N37 C41 1.334 . S
C38 C35 1.426 . S
C38 N37 1.359 . S
C38 C42 1.413 . S
C39 H30 0.930 . S
C39 C40 1.359 . S
C39 C41 1.394 . S
C40 C39 1.359 . S
C40 C42 1.391 . S
C40 H43 0.929 . S
C41 H23 0.930 . S
C41 N37 1.334 . S
C41 C39 1.394 . S
C42 C38 1.413 . S
C42 C40 1.391 . S
C42 C57 1.437 . S
H43 C40 0.929 . S
O44 Gd0 2.545 . S
O44 C59 1.258 . S
O45 Gd0 2.606 1_545 S
O45 Gd1 2.362 . S
O45 C56 1.284 . S
O46 Gd1 2.324 . S
O46 C66 1.254 . S
O47 Gd0 2.429 . S
O47 C66 1.268 1_565 S
O48 Gd0 2.545 1_545 S
O48 C56 1.250 . S
O49 Gd0 2.412 . S
O49 C59 1.252 . S
O50 Gd1 2.545 . S
O50 C68 1.258 . S
O51 Gd0 2.362 . S
O51 Gd1 2.606 1_565 S
O51 C67 1.284 . S
O52 Gd0 2.324 . S
O52 C75 1.254 1_565 S
O53 Gd1 2.429 . S
O53 C75 1.268 . S
O54 Gd1 2.545 . S
O54 C67 1.250 1_545 S
O55 Gd1 2.412 . S
O55 C68 1.252 . S
C56 O45 1.284 . S
C56 O48 1.250 . S
C57 H26 0.929 . S
C57 C42 1.437 . S
C57 C58 1.317 . S
C58 H29 0.930 1_554 S
C58 C34 1.431 . S
C58 C57 1.317 . S
C59 Gd0 2.828 . S
C59 O44 1.258 . S
C59 O49 1.252 . S
C59 C60 1.497 . S
C60 C59 1.497 . S
C60 C61 1.395 . S
C60 C62 1.380 . S
C61 C60 1.395 . S
C61 C64 1.398 . S
C61 H76 0.930 . S
C62 C60 1.380 . S
C62 C63 1.391 . S
C62 H77 0.930 . S
C63 C62 1.391 . S
C63 C65 1.387 . S
C64 C61 1.398 . S
C64 C65 1.380 . S
C64 H78 0.930 . S
C65 C63 1.387 . S
C65 C64 1.380 . S
C65 H79 0.930 . S
C66 O46 1.254 . S
C66 O47 1.268 1_545 S
C67 O51 1.284 . S
C67 O54 1.250 1_565 S
C68 Gd1 2.828 . S
C68 O50 1.258 . S
C68 O55 1.252 . S
C68 C69 1.497 . S
C69 C68 1.497 . S
C69 C70 1.395 . S
C69 C71 1.380 . S
C70 C69 1.395 . S
C70 C73 1.398 . S
C70 H80 0.930 . S
C71 C69 1.380 . S
C71 C72 1.391 . S
C71 H81 0.930 . S
C72 C71 1.391 . S
C72 C74 1.387 . S
C73 C70 1.398 . S
C73 C74 1.380 . S
C73 H82 0.930 . S
C74 C72 1.387 . S
C74 C73 1.380 . S
C74 H83 0.930 . S
C75 O52 1.254 1_545 S
C75 O53 1.268 . S
H76 C61 0.930 . S
H77 C62 0.930 . S
H78 C64 0.930 . S
H79 C65 0.930 . S
H80 C70 0.930 . S
H81 C71 0.930 . S
H82 C73 0.930 . S
H83 C74 0.930 . S
Gd84 N115 2.661 . S
Gd84 N121 2.601 . S
Gd84 O128 2.545 . S
Gd84 O129 2.606 . S
Gd84 O131 2.429 . S
Gd84 O132 2.545 . S
Gd84 O133 2.412 . S
Gd84 O135 2.362 . S
Gd84 O136 2.324 . S
Gd84 C143 2.828 . S
Gd85 N94 2.661 . S
Gd85 N98 2.601 . S
Gd85 O129 2.362 . S
Gd85 O130 2.324 . S
Gd85 O134 2.545 . S
Gd85 O135 2.606 . S
Gd85 O137 2.429 . S
Gd85 O138 2.545 . S
Gd85 O139 2.412 . S
Gd85 C152 2.828 . S
C86 C89 1.417 . S
C86 C91 1.431 . S
C86 C92 1.412 . S
C87 C90 1.437 . S
C87 C91 1.317 . S
C87 H106 0.929 . S
C88 C89 1.426 . S
C88 C90 1.413 . S
C88 N98 1.359 1_655 S
C89 C86 1.417 . S
C89 C88 1.426 . S
C89 N94 1.350 1_655 S
C90 C87 1.437 . S
C90 C88 1.413 . S
C90 C100 1.391 . S
C91 C86 1.431 . S
C91 C87 1.317 . S
C91 H102 0.930 . S
C92 C86 1.412 . S
C92 C93 1.355 1_655 S
C92 H104 0.930 . S
C93 C92 1.355 1_455 S
C93 C95 1.402 . S
C93 H105 0.930 . S
N94 Gd85 2.661 . S
N94 C89 1.350 1_455 S
N94 C95 1.307 . S
C95 C93 1.402 . S
C95 N94 1.307 . S
C95 H96 0.930 . S
H96 C95 0.930 . S
C97 N98 1.334 . S
C97 C99 1.394 1_455 S
C97 H101 0.930 . S
N98 Gd85 2.601 . S
N98 C88 1.359 1_455 S
N98 C97 1.334 . S
C99 C97 1.394 1_655 S
C99 C100 1.359 . S
C99 H111 0.930 . S
C100 C90 1.391 . S
C100 C99 1.359 . S
C100 H112 0.929 . S
H101 C97 0.930 . S
H102 C91 0.930 . S
H103 C120 0.930 . S
H104 C92 0.930 . S
H105 C93 0.930 . S
H106 C87 0.929 . S
H107 C125 0.930 . S
H108 C116 0.930 . S
H109 C117 0.930 . S
H110 C141 0.929 . S
H111 C99 0.930 . S
H112 C100 0.929 . S
H113 C142 0.930 . S
H114 C123 0.930 . S
N115 Gd84 2.661 . S
N115 C119 1.350 . S
N115 C120 1.307 . S
C116 H108 0.930 . S
C116 C117 1.355 . S
C116 C118 1.412 . S
C117 H109 0.930 . S
C117 C116 1.355 . S
C117 C120 1.402 . S
C118 C116 1.412 . S
C118 C119 1.417 . S
C118 C142 1.431 . S
C119 N115 1.350 . S
C119 C118 1.417 . S
C119 C122 1.426 . S
C120 H103 0.930 . S
C120 N115 1.307 . S
C120 C117 1.402 . S
N121 Gd84 2.601 . S
N121 C122 1.359 . S
N121 C125 1.334 . S
C122 C119 1.426 . S
C122 N121 1.359 . S
C122 C126 1.413 . S
C123 H114 0.930 . S
C123 C124 1.359 . S
C123 C125 1.394 . S
C124 C123 1.359 . S
C124 C126 1.391 . S
C124 H127 0.929 . S
C125 H107 0.930 . S
C125 N121 1.334 . S
C125 C123 1.394 . S
C126 C122 1.413 . S
C126 C124 1.391 . S
C126 C141 1.437 . S
H127 C124 0.929 . S
O128 Gd84 2.545 . S
O128 C143 1.258 . S
O129 Gd84 2.606 . S
O129 Gd85 2.362 . S
O129 C140 1.284 . S
O130 Gd85 2.324 . S
O130 C150 1.254 . S
O131 Gd84 2.429 . S
O131 C150 1.268 . S
O132 Gd84 2.545 . S
O132 C140 1.250 . S
O133 Gd84 2.412 . S
O133 C143 1.252 . S
O134 Gd85 2.545 . S
O134 C152 1.258 . S
O135 Gd84 2.362 . S
O135 Gd85 2.606 . S
O135 C151 1.284 . S
O136 Gd84 2.324 . S
O136 C159 1.254 . S
O137 Gd85 2.429 . S
O137 C159 1.268 . S
O138 Gd85 2.545 . S
O138 C151 1.250 . S
O139 Gd85 2.412 . S
O139 C152 1.252 . S
C140 O129 1.284 . S
C140 O132 1.250 . S
C141 H110 0.929 . S
C141 C126 1.437 . S
C141 C142 1.317 . S
C142 H113 0.930 . S
C142 C118 1.431 . S
C142 C141 1.317 . S
C143 Gd84 2.828 . S
C143 O128 1.258 . S
C143 O133 1.252 . S
C143 C144 1.497 . S
C144 C143 1.497 . S
C144 C145 1.395 . S
C144 C146 1.380 . S
C145 C144 1.395 . S
C145 C148 1.398 . S
C145 H160 0.930 . S
C146 C144 1.380 . S
C146 C147 1.391 . S
C146 H161 0.930 . S
C147 C146 1.391 . S
C147 C149 1.387 . S
C148 C145 1.398 . S
C148 C149 1.380 . S
C148 H162 0.930 . S
C149 C147 1.387 . S
C149 C148 1.380 . S
C149 H163 0.930 . S
C150 O130 1.254 . S
C150 O131 1.268 . S
C151 O135 1.284 . S
C151 O138 1.250 . S
C152 Gd85 2.828 . S
C152 O134 1.258 . S
C152 O139 1.252 . S
C152 C153 1.497 . S
C153 C152 1.497 . S
C153 C154 1.395 1_455 S
C153 C155 1.380 . S
C154 C153 1.395 1_655 S
C154 C157 1.398 . S
C154 H164 0.930 . S
C155 C153 1.380 . S
C155 C156 1.391 . S
C155 H165 0.930 . S
C156 C155 1.391 . S
C156 C158 1.387 1_455 S
C157 C154 1.398 . S
C157 C158 1.380 . S
C157 H166 0.930 . S
C158 C156 1.387 1_655 S
C158 C157 1.380 . S
C158 H167 0.930 . S
C159 O136 1.254 . S
C159 O137 1.268 . S
H160 C145 0.930 . S
H161 C146 0.930 . S
H162 C148 0.930 . S
H163 C149 0.930 . S
H164 C154 0.930 . S
H165 C155 0.930 . S
H166 C157 0.930 . S
H167 C158 0.930 . S
Gd168 N199 2.661 1_545 S
Gd168 N205 2.601 1_545 S
Gd168 O212 2.545 1_545 S
Gd168 O213 2.606 . S
Gd168 O215 2.429 . S
Gd168 O216 2.545 . S
Gd168 O217 2.412 1_545 S
Gd168 O219 2.362 . S
Gd168 O220 2.324 . S
Gd168 C227 2.828 1_545 S
Gd169 N178 2.661 . S
Gd169 N182 2.601 . S
Gd169 O213 2.362 . S
Gd169 O214 2.324 . S
Gd169 O218 2.545 . S
Gd169 O219 2.606 . S
Gd169 O221 2.429 . S
Gd169 O222 2.545 1_554 S
Gd169 O223 2.412 . S
Gd169 C236 2.828 . S
C170 C173 1.417 . S
C170 C175 1.431 . S
C170 C176 1.412 1_655 S
C171 C174 1.437 . S
C171 C175 1.317 . S
C171 H190 0.929 . S
C172 C173 1.426 . S
C172 C174 1.413 . S
C172 N182 1.359 . S
C173 C170 1.417 . S
C173 C172 1.426 . S
C173 N178 1.350 . S
C174 C171 1.437 . S
C174 C172 1.413 . S
C174 C184 1.391 . S
C175 C170 1.431 . S
C175 C171 1.317 . S
C175 H186 0.930 . S
C176 C170 1.412 1_455 S
C176 C177 1.355 . S
C176 H188 0.930 . S
C177 C176 1.355 . S
C177 C179 1.402 1_455 S
C177 H189 0.930 . S
N178 Gd169 2.661 . S
N178 C173 1.350 . S
N178 C179 1.307 . S
C179 C177 1.402 1_655 S
C179 N178 1.307 . S
C179 H180 0.930 1_655 S
H180 C179 0.930 1_455 S
C181 N182 1.334 . S
C181 C183 1.394 . S
C181 H185 0.930 . S
N182 Gd169 2.601 . S
N182 C172 1.359 . S
N182 C181 1.334 . S
C183 C181 1.394 . S
C183 C184 1.359 . S
C183 H195 0.930 . S
C184 C174 1.391 . S
C184 C183 1.359 . S
C184 H196 0.929 . S
H185 C181 0.930 . S
H186 C175 0.930 . S
H187 C204 0.930 1_554 S
H188 C176 0.930 . S
H189 C177 0.930 . S
H190 C171 0.929 . S
H191 C209 0.929 1_455 S
H192 C200 0.930 . S
H193 C201 0.930 . S
H194 C225 0.929 . S
H195 C183 0.930 . S
H196 C184 0.929 . S
H197 C226 0.930 . S
H198 C207 0.930 . S
N199 Gd168 2.661 1_565 S
N199 C203 1.350 1_554 S
N199 C204 1.307 1_554 S
C200 H192 0.930 . S
C200 C201 1.355 . S
C200 C202 1.412 . S
C201 H193 0.930 . S
C201 C200 1.355 . S
C201 C204 1.402 . S
C202 C200 1.412 . S
C202 C203 1.417 . S
C202 C226 1.431 . S
C203 N199 1.350 1_556 S
C203 C202 1.417 . S
C203 C206 1.426 . S
C204 H187 0.930 1_556 S
C204 N199 1.307 1_556 S
C204 C201 1.402 . S
N205 Gd168 2.601 1_565 S
N205 C206 1.359 1_554 S
N205 C209 1.334 . S
C206 C203 1.426 . S
C206 N205 1.359 1_556 S
C206 C210 1.413 . S
C207 H198 0.930 . S
C207 C208 1.359 1_454 S
C207 C209 1.394 1_455 S
C208 C207 1.359 1_656 S
C208 C210 1.391 . S
C208 H211 0.929 . S
C209 H191 0.929 1_655 S
C209 N205 1.334 . S
C209 C207 1.394 1_655 S
C210 C206 1.413 . S
C210 C208 1.391 . S
C210 C225 1.437 . S
H211 C208 0.929 . S
O212 Gd168 2.545 1_565 S
O212 C227 1.258 . S
O213 Gd168 2.606 . S
O213 Gd169 2.362 . S
O213 C224 1.284 . S
O214 Gd169 2.324 . S
O214 C234 1.254 . S
O215 Gd168 2.429 . S
O215 C234 1.268 . S
O216 Gd168 2.545 . S
O216 C224 1.250 . S
O217 Gd168 2.412 1_565 S
O217 C227 1.252 . S
O218 Gd169 2.545 . S
O218 C236 1.258 . S
O219 Gd168 2.362 . S
O219 Gd169 2.606 . S
O219 C235 1.284 1_554 S
O220 Gd168 2.324 . S
O220 C243 1.254 . S
O221 Gd169 2.429 . S
O221 C243 1.268 . S
O222 Gd169 2.545 1_556 S
O222 C235 1.250 . S
O223 Gd169 2.412 . S
O223 C236 1.252 . S
C224 O213 1.284 . S
C224 O216 1.250 . S
C225 H194 0.929 . S
C225 C210 1.437 . S
C225 C226 1.317 . S
C226 H197 0.930 . S
C226 C202 1.431 . S
C226 C225 1.317 . S
C227 Gd168 2.828 1_565 S
C227 O212 1.258 . S
C227 O217 1.252 . S
C227 C228 1.497 . S
C228 C227 1.497 . S
C228 C229 1.395 . S
C228 C230 1.380 . S
C229 C228 1.395 . S
C229 C232 1.398 . S
C229 H244 0.930 . S
C230 C228 1.380 . S
C230 C231 1.391 . S
C230 H245 0.930 . S
C231 C230 1.391 . S
C231 C233 1.387 . S
C232 C229 1.398 . S
C232 C233 1.380 . S
C232 H246 0.930 . S
C233 C231 1.387 . S
C233 C232 1.380 . S
C233 H247 0.930 . S
C234 O214 1.254 . S
C234 O215 1.268 . S
C235 O219 1.284 1_556 S
C235 O222 1.250 . S
C236 Gd169 2.828 . S
C236 O218 1.258 . S
C236 O223 1.252 . S
C236 C237 1.497 1_554 S
C237 C236 1.497 1_556 S
C237 C238 1.395 . S
C237 C239 1.380 . S
C238 C237 1.395 . S
C238 C241 1.398 . S
C238 H248 0.930 . S
C239 C237 1.380 . S
C239 C240 1.391 . S
C239 H249 0.930 . S
C240 C239 1.391 . S
C240 C242 1.387 . S
C241 C238 1.398 . S
C241 C242 1.380 . S
C241 H250 0.930 . S
C242 C240 1.387 . S
C242 C241 1.380 . S
C242 H251 0.930 . S
C243 O220 1.254 . S
C243 O221 1.268 . S
H244 C229 0.930 . S
H245 C230 0.930 . S
H246 C232 0.930 . S
H247 C233 0.930 . S
H248 C238 0.930 . S
H249 C239 0.930 . S
H250 C241 0.930 . S
H251 C242 0.930 . S
Gd252 N283 2.661 . S
Gd252 N289 2.601 . S
Gd252 O296 2.545 . S
Gd252 O297 2.606 1_455 S
Gd252 O299 2.429 . S
Gd252 O300 2.545 . S
Gd252 O301 2.412 . S
Gd252 O303 2.362 . S
Gd252 O304 2.324 . S
Gd252 C311 2.828 . S
Gd253 N262 2.661 . S
Gd253 N266 2.601 . S
Gd253 O297 2.362 . S
Gd253 O298 2.324 . S
Gd253 O302 2.545 . S
Gd253 O303 2.606 1_655 S
Gd253 O305 2.429 . S
Gd253 O306 2.545 1_655 S
Gd253 O307 2.412 . S
Gd253 C320 2.828 . S
C254 C257 1.417 . S
C254 C259 1.431 . S
C254 C260 1.412 . S
C255 C258 1.437 . S
C255 C259 1.317 . S
C255 H274 0.929 . S
C256 C257 1.426 . S
C256 C258 1.413 . S
C256 N266 1.359 . S
C257 C254 1.417 . S
C257 C256 1.426 . S
C257 N262 1.350 . S
C258 C255 1.437 . S
C258 C256 1.413 . S
C258 C268 1.391 . S
C259 C254 1.431 . S
C259 C255 1.317 . S
C259 H270 0.930 . S
C260 C254 1.412 . S
C260 C261 1.355 . S
C260 H272 0.930 . S
C261 C260 1.355 . S
C261 C263 1.402 . S
C261 H273 0.930 . S
N262 Gd253 2.661 . S
N262 C257 1.350 . S
N262 C263 1.307 . S
C263 C261 1.402 . S
C263 N262 1.307 . S
C263 H264 0.930 . S
H264 C263 0.930 . S
C265 N266 1.334 . S
C265 C267 1.394 . S
C265 H269 0.930 . S
N266 Gd253 2.601 . S
N266 C256 1.359 . S
N266 C265 1.334 . S
C267 C265 1.394 . S
C267 C268 1.359 . S
C267 H279 0.930 . S
C268 C258 1.391 . S
C268 C267 1.359 . S
C268 H280 0.929 . S
H269 C265 0.930 . S
H270 C259 0.930 . S
H271 C288 0.930 . S
H272 C260 0.930 . S
H273 C261 0.930 . S
H274 C255 0.929 . S
H275 C293 0.930 . S
H276 C284 0.930 . S
H277 C285 0.930 . S
H278 C309 0.929 . S
H279 C267 0.930 . S
H280 C268 0.929 . S
H281 C310 0.930 . S
H282 C291 0.930 . S
N283 Gd252 2.661 . S
N283 C287 1.350 . S
N283 C288 1.307 . S
C284 H276 0.930 . S
C284 C285 1.355 . S
C284 C286 1.412 . S
C285 H277 0.930 . S
C285 C284 1.355 . S
C285 C288 1.402 . S
C286 C284 1.412 . S
C286 C287 1.417 . S
C286 C310 1.431 . S
C287 N283 1.350 . S
C287 C286 1.417 . S
C287 C290 1.426 . S
C288 H271 0.930 . S
C288 N283 1.307 . S
C288 C285 1.402 . S
N289 Gd252 2.601 . S
N289 C290 1.359 . S
N289 C293 1.334 . S
C290 C287 1.426 . S
C290 N289 1.359 . S
C290 C294 1.413 . S
C291 H282 0.930 . S
C291 C292 1.359 1_545 S
C291 C293 1.394 1_545 S
C292 C291 1.359 1_565 S
C292 C294 1.391 . S
C292 H295 0.929 1_565 S
C293 H275 0.930 . S
C293 N289 1.334 . S
C293 C291 1.394 1_565 S
C294 C290 1.413 . S
C294 C292 1.391 . S
C294 C309 1.437 . S
H295 C292 0.929 1_545 S
O296 Gd252 2.545 . S
O296 C311 1.258 . S
O297 Gd252 2.606 1_655 S
O297 Gd253 2.362 . S
O297 C308 1.284 . S
O298 Gd253 2.324 . S
O298 C318 1.254 1_655 S
O299 Gd252 2.429 . S
O299 C318 1.268 . S
O300 Gd252 2.545 . S
O300 C308 1.250 1_455 S
O301 Gd252 2.412 . S
O301 C311 1.252 . S
O302 Gd253 2.545 . S
O302 C320 1.258 . S
O303 Gd252 2.362 . S
O303 Gd253 2.606 1_455 S
O303 C319 1.284 . S
O304 Gd252 2.324 . S
O304 C327 1.254 . S
O305 Gd253 2.429 . S
O305 C327 1.268 1_655 S
O306 Gd253 2.545 1_455 S
O306 C319 1.250 . S
O307 Gd253 2.412 . S
O307 C320 1.252 . S
C308 O297 1.284 . S
C308 O300 1.250 1_655 S
C309 H278 0.929 . S
C309 C294 1.437 . S
C309 C310 1.317 . S
C310 H281 0.930 . S
C310 C286 1.431 . S
C310 C309 1.317 . S
C311 Gd252 2.828 . S
C311 O296 1.258 . S
C311 O301 1.252 . S
C311 C312 1.497 . S
C312 C311 1.497 . S
C312 C313 1.395 . S
C312 C314 1.380 . S
C313 C312 1.395 . S
C313 C316 1.398 . S
C313 H328 0.930 . S
C314 C312 1.380 . S
C314 C315 1.391 . S
C314 H329 0.930 . S
C315 C314 1.391 . S
C315 C317 1.387 . S
C316 C313 1.398 . S
C316 C317 1.380 . S
C316 H330 0.930 . S
C317 C315 1.387 . S
C317 C316 1.380 . S
C317 H331 0.930 . S
C318 O298 1.254 1_455 S
C318 O299 1.268 . S
C319 O303 1.284 . S
C319 O306 1.250 . S
C320 Gd253 2.828 . S
C320 O302 1.258 . S
C320 O307 1.252 . S
C320 C321 1.497 . S
C321 C320 1.497 . S
C321 C322 1.395 . S
C321 C323 1.380 . S
C322 C321 1.395 . S
C322 C325 1.398 . S
C322 H332 0.930 . S
C323 C321 1.380 . S
C323 C324 1.391 . S
C323 H333 0.930 . S
C324 C323 1.391 . S
C324 C326 1.387 . S
C325 C322 1.398 . S
C325 C326 1.380 . S
C325 H334 0.930 . S
C326 C324 1.387 . S
C326 C325 1.380 . S
C326 H335 0.930 . S
C327 O304 1.254 . S
C327 O305 1.268 1_455 S
H328 C313 0.930 . S
H329 C314 0.930 . S
H330 C316 0.930 . S
H331 C317 0.930 . S
H332 C322 0.930 . S
H333 C323 0.930 . S
H334 C325 0.930 . S
H335 C326 0.930 . S
H336 C348 0.930 . S
H337 C350 0.930 . S
H338 C351 0.930 . S
H339 C355 0.959 . S
H340 C355 0.959 . S
H341 C355 0.961 . S
H342 C356 0.960 . S
H343 C356 0.961 . S
H344 C356 0.959 1_545 S
H345 C359 0.929 . S
H346 C360 0.931 . S
H347 C362 0.930 . S
C348 H336 0.930 . S
C348 C349 1.399 . S
C348 C353 1.399 . S
C349 C348 1.399 . S
C349 C350 1.376 . S
C350 H337 0.930 . S
C350 C349 1.376 . S
C350 C351 1.388 . S
C351 H338 0.930 . S
C351 C350 1.388 . S
C351 C352 1.390 . S
C352 C351 1.390 . S
C352 C353 1.394 . S
C352 C358 1.465 . S
C353 C348 1.399 . S
C353 C352 1.394 . S
C353 C354 1.516 1_545 S
C354 C353 1.516 1_565 S
C354 C355 1.502 . S
C354 C356 1.561 . S
C354 C357 1.526 1_565 S
C355 H339 0.959 . S
C355 H340 0.959 . S
C355 H341 0.961 . S
C355 C354 1.502 . S
C356 H342 0.960 . S
C356 H343 0.961 . S
C356 H344 0.959 1_565 S
C356 C354 1.561 . S
C357 C354 1.526 1_545 S
C357 C358 1.396 . S
C357 C362 1.390 1_545 S
C358 C352 1.465 . S
C358 C357 1.396 . S
C358 C359 1.399 . S
C359 H345 0.929 . S
C359 C358 1.399 . S
C359 C360 1.385 . S
C360 H346 0.931 . S
C360 C359 1.385 . S
C360 C361 1.389 . S
C361 C360 1.389 . S
C361 C362 1.387 1_545 S
C362 H347 0.930 . S
C362 C357 1.390 1_565 S
C362 C361 1.387 1_565 S
H363 C375 0.930 . S
H364 C377 0.930 . S
H365 C378 0.930 . S
H366 C382 0.959 . S
H367 C382 0.959 1_545 S
H368 C382 0.961 . S
H369 C383 0.949 1_565 S
H370 C383 0.961 . S
H371 C383 0.959 . S
H372 C386 0.929 . S
H373 C387 0.931 . S
H374 C389 0.930 . S
C375 H363 0.930 . S
C375 C376 1.399 . S
C375 C380 1.399 1_565 S
C376 C375 1.399 . S
C376 C377 1.376 . S
C377 H364 0.930 . S
C377 C376 1.376 . S
C377 C378 1.388 1_565 S
C378 H365 0.930 . S
C378 C377 1.388 1_545 S
C378 C379 1.390 . S
C379 C378 1.390 . S
C379 C380 1.394 . S
C379 C385 1.465 . S
C380 C375 1.399 1_545 S
C380 C379 1.394 . S
C380 C381 1.516 . S
C381 C380 1.516 . S
C381 C382 1.502 1_545 S
C381 C383 1.561 . S
C381 C384 1.526 . S
C382 H366 0.959 . S
C382 H367 0.959 1_565 S
C382 H368 0.961 . S
C382 C381 1.502 1_565 S
C383 H369 0.949 1_545 S
C383 H370 0.961 . S
C383 H371 0.959 . S
C383 C381 1.561 . S
C384 C381 1.526 . S
C384 C385 1.396 . S
C384 C389 1.390 . S
C385 C379 1.465 . S
C385 C384 1.396 . S
C385 C386 1.399 . S
C386 H372 0.929 . S
C386 C385 1.399 . S
C386 C387 1.385 . S
C387 H373 0.931 . S
C387 C386 1.385 . S
C387 C388 1.389 . S
C388 C387 1.389 . S
C388 C389 1.387 . S
C389 H374 0.930 . S
C389 C384 1.390 . S
C389 C388 1.387 . S
H390 C402 0.930 . S
H391 C404 0.930 . S
H392 C405 0.930 . S
H393 C409 0.959 . S
H394 C409 0.959 . S
H395 C409 0.961 . S
H396 C410 0.960 . S
H397 C410 0.961 . S
H398 C410 0.959 1_545 S
H399 C413 0.929 . S
H400 C414 0.931 . S
H401 C416 0.930 . S
C402 H390 0.930 . S
C402 C403 1.399 . S
C402 C407 1.399 . S
C403 C402 1.399 . S
C403 C404 1.376 . S
C404 H391 0.930 . S
C404 C403 1.376 . S
C404 C405 1.388 . S
C405 H392 0.930 . S
C405 C404 1.388 . S
C405 C406 1.390 . S
C406 C405 1.390 . S
C406 C407 1.394 . S
C406 C412 1.465 . S
C407 C402 1.399 . S
C407 C406 1.394 . S
C407 C408 1.533 . S
C408 C407 1.533 . S
C408 C409 1.491 1_545 S
C408 C410 1.551 1_545 S
C408 C411 1.531 . S
C409 H393 0.959 . S
C409 H394 0.959 . S
C409 H395 0.961 . S
C409 C408 1.491 1_565 S
C410 H396 0.960 . S
C410 H397 0.961 . S
C410 H398 0.959 1_565 S
C410 C408 1.551 1_565 S
C411 C408 1.531 . S
C411 C412 1.396 . S
C411 C416 1.390 1_545 S
C412 C406 1.465 . S
C412 C411 1.396 . S
C412 C413 1.399 . S
C413 H399 0.929 . S
C413 C412 1.399 . S
C413 C414 1.385 . S
C414 H400 0.931 . S
C414 C413 1.385 . S
C414 C415 1.389 . S
C415 C414 1.389 . S
C415 C416 1.387 1_545 S
C416 H401 0.930 . S
C416 C411 1.390 1_565 S
C416 C415 1.387 1_565 S
H417 C429 0.930 . S
H418 C431 0.930 . S
H419 C432 0.930 . S
H420 C436 0.959 . S
H421 C436 0.959 . S
H422 C436 0.961 . S
H423 C437 0.960 . S
H424 C437 0.961 1_655 S
H425 C437 0.959 . S
H426 C440 0.929 . S
H427 C441 0.931 . S
H428 C443 0.930 . S
C429 H417 0.930 . S
C429 C430 1.399 . S
C429 C434 1.399 . S
C430 C429 1.399 . S
C430 C431 1.376 . S
C431 H418 0.930 . S
C431 C430 1.376 . S
C431 C432 1.388 . S
C432 H419 0.930 . S
C432 C431 1.388 . S
C432 C433 1.390 . S
C433 C432 1.390 . S
C433 C434 1.394 . S
C433 C439 1.465 . S
C434 C429 1.399 . S
C434 C433 1.394 . S
C434 C435 1.516 . S
C435 C434 1.516 . S
C435 C436 1.502 . S
C435 C437 1.561 . S
C435 C438 1.526 . S
C436 H420 0.959 . S
C436 H421 0.959 . S
C436 H422 0.961 . S
C436 C435 1.502 . S
C437 H423 0.960 . S
C437 H424 0.961 1_455 S
C437 H425 0.959 . S
C437 C435 1.561 . S
C438 C435 1.526 . S
C438 C439 1.396 . S
C438 C443 1.390 . S
C439 C433 1.465 . S
C439 C438 1.396 . S
C439 C440 1.399 . S
C440 H426 0.929 . S
C440 C439 1.399 . S
C440 C441 1.385 . S
C441 H427 0.931 . S
C441 C440 1.385 . S
C441 C442 1.389 . S
C442 C441 1.389 . S
C442 C443 1.387 . S
C443 H428 0.930 . S
C443 C438 1.390 . S
C443 C442 1.387 . S
H444 C456 0.930 . S
H445 C458 0.930 . S
H446 C459 0.930 . S
H447 C463 0.959 . S
H448 C463 0.959 . S
H449 C463 0.961 . S
H450 C464 0.960 . S
H451 C464 0.961 . S
H452 C464 0.959 . S
H453 C467 0.929 . S
H454 C468 0.931 . S
H455 C470 0.930 . S
C456 H444 0.930 . S
C456 C457 1.399 . S
C456 C461 1.399 . S
C457 C456 1.399 . S
C457 C458 1.376 . S
C458 H445 0.930 . S
C458 C457 1.376 . S
C458 C459 1.388 . S
C459 H446 0.930 . S
C459 C458 1.388 . S
C459 C460 1.390 . S
C460 C459 1.390 . S
C460 C461 1.394 . S
C460 C466 1.465 . S
C461 C456 1.399 . S
C461 C460 1.394 . S
C461 C462 1.516 . S
C462 C461 1.516 . S
C462 C463 1.502 . S
C462 C464 1.561 . S
C462 C465 1.526 . S
C463 H447 0.959 . S
C463 H448 0.959 . S
C463 H449 0.961 . S
C463 C462 1.502 . S
C464 H450 0.960 . S
C464 H451 0.961 . S
C464 H452 0.959 . S
C464 C462 1.561 . S
C465 C462 1.526 . S
C465 C466 1.396 . S
C465 C470 1.390 . S
C466 C460 1.465 . S
C466 C465 1.396 . S
C466 C467 1.399 . S
C467 H453 0.929 . S
C467 C466 1.399 . S
C467 C468 1.385 . S
C468 H454 0.931 . S
C468 C467 1.385 . S
C468 C469 1.389 . S
C469 C468 1.389 . S
C469 C470 1.387 . S
C470 H455 0.930 . S
C470 C465 1.390 . S
C470 C469 1.387 . S
H471 C483 0.930 . S
H472 C485 0.930 . S
H473 C486 0.930 . S
H474 C490 0.959 . S
H475 C490 0.959 . S
H476 C490 0.961 . S
H477 C491 0.960 . S
H478 C491 0.961 . S
H479 C491 0.959 . S
H480 C494 0.929 . S
H481 C495 0.931 1_655 S
H482 C497 0.921 1_655 S
C483 H471 0.930 . S
C483 C484 1.399 . S
C483 C488 1.399 . S
C484 C483 1.399 . S
C484 C485 1.376 . S
C485 H472 0.930 . S
C485 C484 1.376 . S
C485 C486 1.388 . S
C486 H473 0.930 . S
C486 C485 1.388 . S
C486 C487 1.390 . S
C487 C486 1.390 . S
C487 C488 1.394 . S
C487 C493 1.465 . S
C488 C483 1.399 . S
C488 C487 1.394 . S
C488 C489 1.516 . S
C489 C488 1.516 . S
C489 C490 1.502 . S
C489 C491 1.561 1_455 S
C489 C492 1.526 . S
C490 H474 0.959 . S
C490 H475 0.959 . S
C490 H476 0.961 . S
C490 C489 1.502 . S
C491 H477 0.960 . S
C491 H478 0.961 . S
C491 H479 0.959 . S
C491 C489 1.561 1_655 S
C492 C489 1.526 . S
C492 C493 1.396 . S
C492 C497 1.401 . S
C493 C487 1.465 . S
C493 C492 1.396 . S
C493 C494 1.399 . S
C494 H480 0.929 . S
C494 C493 1.399 . S
C494 C495 1.385 . S
C495 H481 0.931 1_455 S
C495 C494 1.385 . S
C495 C496 1.389 1_455 S
C496 C495 1.389 1_655 S
C496 C497 1.384 1_655 S
C497 H482 0.921 1_455 S
C497 C492 1.401 . S
C497 C496 1.384 1_455 S
H498 C510 0.930 . S
H499 C512 0.930 . S
H500 C513 0.930 . S
H501 C517 0.959 . S
H502 C517 0.959 . S
H503 C517 0.961 . S
H504 C518 0.960 . S
H505 C518 0.961 . S
H506 C518 0.959 . S
H507 C521 0.929 . S
H508 C522 0.931 1_545 S
H509 C524 0.930 . S
C510 H498 0.930 . S
C510 C511 1.399 . S
C510 C515 1.399 . S
C511 C510 1.399 . S
C511 C512 1.376 . S
C512 H499 0.930 . S
C512 C511 1.376 . S
C512 C513 1.388 . S
C513 H500 0.930 . S
C513 C512 1.388 . S
C513 C514 1.390 . S
C514 C513 1.390 . S
C514 C515 1.394 . S
C514 C520 1.465 . S
C515 C510 1.399 . S
C515 C514 1.394 . S
C515 C516 1.516 . S
C516 C515 1.516 . S
C516 C517 1.502 . S
C516 C518 1.561 . S
C516 C519 1.526 . S
C517 H501 0.959 . S
C517 H502 0.959 . S
C517 H503 0.961 . S
C517 C516 1.502 . S
C518 H504 0.960 . S
C518 H505 0.961 . S
C518 H506 0.959 . S
C518 C516 1.561 . S
C519 C516 1.526 . S
C519 C520 1.396 . S
C519 C524 1.390 . S
C520 C514 1.465 . S
C520 C519 1.396 . S
C520 C521 1.399 . S
C521 H507 0.929 . S
C521 C520 1.399 . S
C521 C522 1.385 . S
C522 H508 0.931 1_565 S
C522 C521 1.385 . S
C522 C523 1.389 . S
C523 C522 1.389 . S
C523 C524 1.387 . S
C524 H509 0.930 . S
C524 C519 1.390 . S
C524 C523 1.387 . S
H525 C537 0.930 . S
H526 C539 0.930 . S
H527 C540 0.930 . S
H528 C544 0.959 . S
H529 C544 0.959 1_545 S
H530 C544 0.961 . S
H531 C545 0.960 . S
H532 C545 0.961 1_545 S
H533 C545 0.959 . S
H534 C548 0.929 . S
H535 C549 0.931 . S
H536 C551 0.930 . S
C537 H525 0.930 . S
C537 C538 1.399 . S
C537 C542 1.399 . S
C538 C537 1.399 . S
C538 C539 1.376 . S
C539 H526 0.930 . S
C539 C538 1.376 . S
C539 C540 1.388 . S
C540 H527 0.930 . S
C540 C539 1.388 . S
C540 C541 1.390 . S
C541 C540 1.390 . S
C541 C542 1.394 . S
C541 C547 1.465 . S
C542 C537 1.399 . S
C542 C541 1.394 . S
C542 C543 1.516 . S
C543 C542 1.516 . S
C543 C544 1.502 . S
C543 C545 1.561 . S
C543 C546 1.526 . S
C544 H528 0.959 . S
C544 H529 0.959 1_565 S
C544 H530 0.961 . S
C544 C543 1.502 . S
C545 H531 0.960 . S
C545 H532 0.961 1_565 S
C545 H533 0.959 . S
C545 C543 1.561 . S
C546 C543 1.526 . S
C546 C547 1.396 . S
C546 C551 1.390 1_556 S
C547 C541 1.465 . S
C547 C546 1.396 . S
C547 C548 1.399 . S
C548 H534 0.929 . S
C548 C547 1.399 . S
C548 C549 1.385 1_556 S
C549 H535 0.931 . S
C549 C548 1.385 1_554 S
C549 C550 1.389 . S
C550 C549 1.389 . S
C550 C551 1.387 . S
C551 H536 0.930 . S
C551 C546 1.390 1_554 S
C551 C550 1.387 . S
H552 C564 0.930 . S
H553 C566 0.930 . S
H554 C567 0.930 . S
H555 C571 0.959 . S
H556 C571 0.959 1_455 S
H557 C571 0.961 . S
H558 C572 0.960 . S
H559 C572 0.961 . S
H560 C572 0.959 . S
H561 C575 0.929 . S
H562 C576 0.931 . S
H563 C578 0.930 . S
C564 H552 0.930 . S
C564 C565 1.399 1_545 S
C564 C569 1.399 1_545 S
C565 C564 1.399 1_565 S
C565 C566 1.376 . S
C566 H553 0.930 . S
C566 C565 1.376 . S
C566 C567 1.388 . S
C567 H554 0.930 . S
C567 C566 1.388 . S
C567 C568 1.390 . S
C568 C567 1.390 . S
C568 C569 1.394 . S
C568 C574 1.465 . S
C569 C564 1.399 1_565 S
C569 C568 1.394 . S
C569 C570 1.516 . S
C570 C569 1.516 . S
C570 C571 1.502 1_565 S
C570 C572 1.561 1_655 S
C570 C573 1.526 . S
C571 H555 0.959 . S
C571 H556 0.959 1_655 S
C571 H557 0.961 . S
C571 C570 1.502 1_545 S
C572 H558 0.960 . S
C572 H559 0.961 . S
C572 H560 0.959 . S
C572 C570 1.561 1_455 S
C573 C570 1.526 . S
C573 C574 1.396 . S
C573 C578 1.390 . S
C574 C568 1.465 . S
C574 C573 1.396 . S
C574 C575 1.399 . S
C575 H561 0.929 . S
C575 C574 1.399 . S
C575 C576 1.385 . S
C576 H562 0.931 . S
C576 C575 1.385 . S
C576 C577 1.389 . S
C577 C576 1.389 . S
C577 C578 1.387 . S
C578 H563 0.930 . S
C578 C573 1.390 . S
C578 C577 1.387 . S
H579 C591 0.930 . S
H580 C593 0.930 . S
H581 C594 0.930 . S
H582 C598 0.959 . S
H583 C598 0.959 . S
H584 C598 0.961 . S
H585 C599 0.960 . S
H586 C599 0.961 . S
H587 C599 0.959 . S
H588 C602 0.929 . S
H589 C603 0.931 . S
H590 C605 0.930 . S
C591 H579 0.930 . S
C591 C592 1.399 . S
C591 C596 1.399 . S
C592 C591 1.399 . S
C592 C593 1.376 . S
C593 H580 0.930 . S
C593 C592 1.376 . S
C593 C594 1.388 . S
C594 H581 0.930 . S
C594 C593 1.388 . S
C594 C595 1.390 . S
C595 C594 1.390 . S
C595 C596 1.394 . S
C595 C601 1.465 . S
C596 C591 1.399 . S
C596 C595 1.394 . S
C596 C597 1.516 . S
C597 C596 1.516 . S
C597 C598 1.502 . S
C597 C599 1.561 . S
C597 C600 1.526 . S
C598 H582 0.959 . S
C598 H583 0.959 . S
C598 H584 0.961 . S
C598 C597 1.502 . S
C599 H585 0.960 . S
C599 H586 0.961 . S
C599 H587 0.959 . S
C599 C597 1.561 . S
C600 C597 1.526 . S
C600 C601 1.396 . S
C600 C605 1.390 . S
C601 C595 1.465 . S
C601 C600 1.396 . S
C601 C602 1.399 . S
C602 H588 0.929 . S
C602 C601 1.399 . S
C602 C603 1.385 . S
C603 H589 0.931 . S
C603 C602 1.385 . S
C603 C604 1.389 . S
C604 C603 1.389 . S
C604 C605 1.387 . S
C605 H590 0.930 . S
C605 C600 1.390 . S
C605 C604 1.387 . S
H606 C618 0.930 . S
H607 C620 0.930 . S
H608 C621 0.930 . S
H609 C625 0.959 . S
H610 C625 0.959 . S
H611 C625 0.961 . S
H612 C626 0.960 . S
H613 C626 0.961 1_554 S
H614 C626 0.959 1_554 S
H615 C629 0.929 . S
H616 C630 0.931 1_554 S
H617 C632 0.928 1_554 S
C618 H606 0.930 . S
C618 C619 1.399 . S
C618 C623 1.399 . S
C619 C618 1.399 . S
C619 C620 1.376 . S
C620 H607 0.930 . S
C620 C619 1.376 . S
C620 C621 1.388 . S
C621 H608 0.930 . S
C621 C620 1.388 . S
C621 C622 1.390 . S
C622 C621 1.390 . S
C622 C623 1.394 . S
C622 C628 1.465 . S
C623 C618 1.399 . S
C623 C622 1.394 . S
C623 C624 1.516 . S
C624 C623 1.516 . S
C624 C625 1.502 . S
C624 C626 1.561 . S
C624 C627 1.526 . S
C625 H609 0.959 . S
C625 H610 0.959 . S
C625 H611 0.961 . S
C625 C624 1.502 . S
C626 H612 0.960 . S
C626 H613 0.961 1_556 S
C626 H614 0.959 1_556 S
C626 C624 1.561 . S
C627 C624 1.526 . S
C627 C628 1.396 . S
C627 C632 1.400 . S
C628 C622 1.465 . S
C628 C627 1.396 . S
C628 C629 1.399 . S
C629 H615 0.929 . S
C629 C628 1.399 . S
C629 C630 1.385 . S
C630 H616 0.931 1_556 S
C630 C629 1.385 . S
C630 C631 1.389 1_556 S
C631 C630 1.389 1_554 S
C631 C632 1.378 1_554 S
C632 H617 0.928 1_556 S
C632 C627 1.400 . S
C632 C631 1.378 1_556 S
H633 C645 0.930 . S
H634 C647 0.930 . S
H635 C648 0.930 . S
H636 C652 0.959 . S
H637 C652 0.959 . S
H638 C652 0.961 . S
H639 C653 0.960 . S
H640 C653 0.961 . S
H641 C653 0.956 1_455 S
H642 C656 0.929 . S
H643 C657 0.931 . S
H644 C659 0.930 . S
C645 H633 0.930 . S
C645 C646 1.399 . S
C645 C650 1.399 . S
C646 C645 1.399 . S
C646 C647 1.376 . S
C647 H634 0.930 . S
C647 C646 1.376 . S
C647 C648 1.388 . S
C648 H635 0.930 . S
C648 C647 1.388 . S
C648 C649 1.390 . S
C649 C648 1.390 . S
C649 C650 1.394 . S
C649 C655 1.465 . S
C650 C645 1.399 . S
C650 C649 1.394 . S
C650 C651 1.516 . S
C651 C650 1.516 . S
C651 C652 1.502 . S
C651 C653 1.561 . S
C651 C654 1.526 . S
C652 H636 0.959 . S
C652 H637 0.959 . S
C652 H638 0.961 . S
C652 C651 1.502 . S
C653 H639 0.960 . S
C653 H640 0.961 . S
C653 H641 0.956 1_655 S
C653 C651 1.561 . S
C654 C651 1.526 . S
C654 C655 1.396 . S
C654 C659 1.390 . S
C655 C649 1.465 . S
C655 C654 1.396 . S
C655 C656 1.399 1_655 S
C656 H642 0.929 . S
C656 C655 1.399 1_455 S
C656 C657 1.385 . S
C657 H643 0.931 . S
C657 C656 1.385 . S
C657 C658 1.389 . S
C658 C657 1.389 . S
C658 C659 1.387 1_455 S
C659 H644 0.930 . S
C659 C654 1.390 . S
C659 C658 1.387 1_655 S
C349 C234 0.776 1_455 S
C361 C75 0.828 . S
C376 C318 0.551 . S
C388 C159 0.624 . S
C403 C243 1.309 . S
C415 C66 1.235 . S
C430 C150 1.342 . S
C442 C327 1.353 . S
C457 C151 1.913 . S
C469 C56 2.103 . S
C484 C140 2.078 . S
C496 C240 2.103 . S
C511 C324 1.116 . S
C523 C231 1.020 . S
C538 C315 0.925 . S
C550 C67 0.918 . S
C565 C235 2.108 1_565 S
C577 C308 1.972 . S
C592 C63 2.081 . S
C604 C319 2.053 . S
C619 C147 1.135 . S
C631 C72 0.841 . S
C646 C224 0.874 . S
C658 C156 0.926 . S
