# Generated by pormake.
# Topology sol, (6)-cn, num edge types: 1
# Building blocks:
#     Node 0, Type 0, BuildingBlock: OJICUG_clean_sbu_0, # of connection points: 6
#     Node 1, Type 0, BuildingBlock: OJICUG_clean_sbu_0, # of connection points: 6
#     Node 2, Type 0, BuildingBlock: OJICUG_clean_sbu_0, # of connection points: 6
#     Node 3, Type 0, BuildingBlock: OJICUG_clean_sbu_0, # of connection points: 6
#     Node 4, Type 0, BuildingBlock: OJICUG_clean_sbu_0, # of connection points: 6
#     Node 5, Type 0, BuildingBlock: OJICUG_clean_sbu_0, # of connection points: 6
#     Node 6, Type 0, BuildingBlock: OJICUG_clean_sbu_0, # of connection points: 6
#     Node 7, Type 0, BuildingBlock: OJICUG_clean_sbu_0, # of connection points: 6
#     Edge 8, Type (0, 0), BuildingBlock: AJUNOK_clean_linker_0, # of connection points: 2
#     Edge 9, Type (0, 0), BuildingBlock: AJUNOK_clean_linker_0, # of connection points: 2
#     Edge 10, Type (0, 0), BuildingBlock: AJUNOK_clean_linker_0, # of connection points: 2
#     Edge 11, Type (0, 0), BuildingBlock: AJUNOK_clean_linker_0, # of connection points: 2
#     Edge 12, Type (0, 0), BuildingBlock: AJUNOK_clean_linker_0, # of connection points: 2
#     Edge 13, Type (0, 0), BuildingBlock: AJUNOK_clean_linker_0, # of connection points: 2
#     Edge 14, Type (0, 0), BuildingBlock: AJUNOK_clean_linker_0, # of connection points: 2
#     Edge 15, Type (0, 0), BuildingBlock: AJUNOK_clean_linker_0, # of connection points: 2
#     Edge 16, Type (0, 0), BuildingBlock: AJUNOK_clean_linker_0, # of connection points: 2
#     Edge 17, Type (0, 0), BuildingBlock: AJUNOK_clean_linker_0, # of connection points: 2
#     Edge 18, Type (0, 0), BuildingBlock: AJUNOK_clean_linker_0, # of connection points: 2
#     Edge 19, Type (0, 0), BuildingBlock: AJUNOK_clean_linker_0, # of connection points: 2
#     Edge 20, Type (0, 0), BuildingBlock: AJUNOK_clean_linker_0, # of connection points: 2
#     Edge 21, Type (0, 0), BuildingBlock: AJUNOK_clean_linker_0, # of connection points: 2
#     Edge 22, Type (0, 0), BuildingBlock: AJUNOK_clean_linker_0, # of connection points: 2
#     Edge 23, Type (0, 0), BuildingBlock: AJUNOK_clean_linker_0, # of connection points: 2
#     Edge 24, Type (0, 0), BuildingBlock: AJUNOK_clean_linker_0, # of connection points: 2
#     Edge 25, Type (0, 0), BuildingBlock: AJUNOK_clean_linker_0, # of connection points: 2
#     Edge 26, Type (0, 0), BuildingBlock: AJUNOK_clean_linker_0, # of connection points: 2
#     Edge 27, Type (0, 0), BuildingBlock: AJUNOK_clean_linker_0, # of connection points: 2
#     Edge 28, Type (0, 0), BuildingBlock: AJUNOK_clean_linker_0, # of connection points: 2
#     Edge 29, Type (0, 0), BuildingBlock: AJUNOK_clean_linker_0, # of connection points: 2
#     Edge 30, Type (0, 0), BuildingBlock: AJUNOK_clean_linker_0, # of connection points: 2
#     Edge 31, Type (0, 0), BuildingBlock: AJUNOK_clean_linker_0, # of connection points: 2
# Relax obj value: 0.163
# Max RMSD: 0.156
# Mean RMSD: 0.156
data_MOF--net-sol--node1-OJICUG_clean_sbu_0--edge1-AJUNOK_clean_linker_0
_symmetry_space_group_name_H-M    P1
_symmetry_Int_Tables_number       1
_symmetry_cell_setting            triclinic
loop_
_symmetry_equiv_pos_as_xyz
'x, y, z'
_cell_length_a     26.360938
_cell_length_b     21.72566
_cell_length_c     23.137888
_cell_angle_alpha  89.967983
_cell_angle_beta   90.013238
_cell_angle_gamma 89.854396
loop_
_atom_site_label
_atom_site_type_symbol
_atom_site_fract_x
_atom_site_fract_y
_atom_site_fract_z
_atom_type_partial_charge
Sc0 Sc 0.23676 0.21851 0.05565 0.0
Sc1 Sc 0.10511 0.21895 0.02262 0.0
Sc2 Sc 0.15421 0.1208 0.13 0.0
O3 O 0.1654 0.18588 0.06887 0.0
C4 C 0.25669 0.0756 0.07525 0.0
C5 C 0.1924 0.20647 0.92689 0.0
C6 C 0.07173 0.07856 0.03607 0.0
C7 C 0.16996 0.33941 0.03925 0.0
C8 C 0.23797 0.20591 0.19178 0.0
C9 C 0.06522 0.21552 0.15297 0.0
O10 O 0.27133 0.12859 0.05936 0.0
O11 O 0.14554 0.20912 0.94088 0.0
O12 O 0.09975 0.06852 0.07987 0.0
O13 O 0.21118 0.31165 0.05029 0.0
O14 O 0.20519 0.16324 0.19014 0.0
O15 O 0.06073 0.23407 0.10088 0.0
O16 O 0.25262 0.23395 0.14657 0.0
O17 O 0.12841 0.31273 0.02898 0.0
O18 O 0.09637 0.17436 0.16873 0.0
O19 O 0.22804 0.20801 0.96405 0.0
O20 O 0.2136 0.06457 0.09732 0.0
O21 O 0.07172 0.12984 0.00985 0.0
Sc22 Sc 0.3439 0.34143 0.63343 0.0
Sc23 Sc 0.39362 0.24781 0.5225 0.0
Sc24 Sc 0.26187 0.24611 0.55598 0.0
O25 O 0.33307 0.27886 0.56997 0.0
C26 C 0.26142 0.25454 0.69313 0.0
C27 C 0.43578 0.24954 0.65208 0.0
C28 C 0.32963 0.12632 0.54091 0.0
C29 C 0.42365 0.38934 0.53923 0.0
C30 C 0.24024 0.38721 0.57861 0.0
C31 C 0.30662 0.25691 0.42687 0.0
O32 O 0.29733 0.29321 0.6941 0.0
O33 O 0.43849 0.23005 0.60017 0.0
O34 O 0.28876 0.15344 0.55481 0.0
O35 O 0.39424 0.39757 0.58213 0.0
O36 O 0.22771 0.33629 0.55587 0.0
O37 O 0.35359 0.25928 0.44034 0.0
O38 O 0.2813 0.39585 0.606 0.0
O39 O 0.42654 0.33814 0.51283 0.0
O40 O 0.27159 0.25269 0.46442 0.0
O41 O 0.40495 0.29069 0.66832 0.0
O42 O 0.24331 0.2332 0.64644 0.0
O43 O 0.37009 0.1536 0.52659 0.0
Sc44 Sc 0.65461 0.34977 0.87196 0.0
Sc45 Sc 0.60574 0.24355 0.97285 0.0
Sc46 Sc 0.7364 0.24483 0.93869 0.0
O47 O 0.66566 0.28006 0.92859 0.0
C48 C 0.7389 0.27174 0.80372 0.0
C49 C 0.56701 0.25487 0.84247 0.0
C50 C 0.67011 0.12478 0.94342 0.0
C51 C 0.57153 0.3854 0.96696 0.0
C52 C 0.75695 0.38793 0.9343 0.0
C53 C 0.6914 0.24414 0.06866 0.0
O54 O 0.70323 0.31083 0.80718 0.0
O55 O 0.56459 0.2296 0.89224 0.0
O56 O 0.70938 0.15361 0.92748 0.0
O57 O 0.60242 0.39979 0.927 0.0
O58 O 0.76988 0.33406 0.9498 0.0
O59 O 0.64466 0.25181 0.05572 0.0
O60 O 0.7163 0.40078 0.90723 0.0
O61 O 0.56914 0.33115 0.98714 0.0
O62 O 0.72601 0.23931 0.03056 0.0
O63 O 0.59489 0.30081 0.8311 0.0
O64 O 0.75568 0.24358 0.84781 0.0
O65 O 0.63154 0.15018 0.96562 0.0
Sc66 Sc 0.84588 0.11582 0.37226 0.0
Sc67 Sc 0.8945 0.2218 0.47317 0.0
Sc68 Sc 0.76383 0.22022 0.43914 0.0
O69 O 0.83464 0.18522 0.42897 0.0
C70 C 0.76258 0.1946 0.30366 0.0
C71 C 0.93489 0.20923 0.34407 0.0
C72 C 0.8299 0.34028 0.44253 0.0
C73 C 0.92755 0.07919 0.46806 0.0
C74 C 0.74251 0.07792 0.43344 0.0
C75 C 0.80938 0.22192 0.56887 0.0
O76 O 0.79957 0.15726 0.30658 0.0
O77 O 0.93565 0.23641 0.39291 0.0
O78 O 0.79091 0.31113 0.42621 0.0
O79 O 0.89583 0.06452 0.429 0.0
O80 O 0.73055 0.1311 0.45171 0.0
O81 O 0.85587 0.21271 0.55587 0.0
O82 O 0.78253 0.06597 0.4049 0.0
O83 O 0.93125 0.13396 0.48683 0.0
O84 O 0.77464 0.22759 0.53098 0.0
O85 O 0.90754 0.16271 0.33328 0.0
O86 O 0.74396 0.21998 0.34827 0.0
O87 O 0.86808 0.31526 0.46613 0.0
Sc88 Sc 0.76448 0.74359 0.94244 0.0
Sc89 Sc 0.89461 0.74599 0.98335 0.0
Sc90 Sc 0.84879 0.841 0.87134 0.0
O91 O 0.8359 0.77729 0.93303 0.0
C92 C 0.76739 0.75724 0.80623 0.0
C93 C 0.8319 0.62444 0.95901 0.0
C94 C 0.94044 0.7478 0.85573 0.0
C95 C 0.80411 0.75283 0.07367 0.0
C96 C 0.74411 0.88554 0.92402 0.0
C97 C 0.92663 0.88708 0.9684 0.0
O98 O 0.7484 0.73346 0.85129 0.0
O99 O 0.87076 0.65166 0.97844 0.0
O100 O 0.91016 0.78906 0.83803 0.0
O101 O 0.77084 0.74697 0.03435 0.0
O102 O 0.78605 0.89527 0.89861 0.0
O103 O 0.92826 0.83598 0.99518 0.0
O104 O 0.73049 0.8336 0.94377 0.0
O105 O 0.85142 0.75775 0.06284 0.0
O106 O 0.8985 0.89532 0.92451 0.0
O107 O 0.79213 0.65161 0.94155 0.0
O108 O 0.80286 0.79632 0.80822 0.0
O109 O 0.94183 0.7285 0.90778 0.0
Sc110 Sc 0.73226 0.72015 0.44184 0.0
Sc111 Sc 0.60283 0.72127 0.48337 0.0
Sc112 Sc 0.64708 0.62211 0.37316 0.0
O113 O 0.66073 0.68734 0.43338 0.0
C114 C 0.72886 0.70456 0.30602 0.0
C115 C 0.66684 0.84106 0.45789 0.0
C116 C 0.55699 0.71719 0.35594 0.0
C117 C 0.69326 0.71165 0.57338 0.0
C118 C 0.75217 0.57773 0.4246 0.0
C119 C 0.56862 0.58054 0.47124 0.0
O120 O 0.74725 0.7293 0.35088 0.0
O121 O 0.62784 0.81497 0.47811 0.0
O122 O 0.5859 0.67392 0.33967 0.0
O123 O 0.72583 0.71663 0.53335 0.0
O124 O 0.70971 0.5675 0.40054 0.0
O125 O 0.56778 0.63282 0.49566 0.0
O126 O 0.76604 0.62996 0.44331 0.0
O127 O 0.64567 0.70876 0.5633 0.0
O128 O 0.59704 0.5692 0.42807 0.0
O129 O 0.70591 0.81267 0.44027 0.0
O130 O 0.69323 0.66546 0.3084 0.0
O131 O 0.5565 0.73899 0.40713 0.0
Sc132 Sc 0.34122 0.61171 0.13457 0.0
Sc133 Sc 0.39272 0.71577 0.034 0.0
Sc134 Sc 0.26254 0.71994 0.06843 0.0
O135 O 0.33201 0.68157 0.07817 0.0
C136 C 0.23874 0.57779 0.07008 0.0
C137 C 0.42469 0.57308 0.04198 0.0
C138 C 0.30887 0.7187 0.93831 0.0
C139 C 0.4293 0.70561 0.16457 0.0
C140 C 0.25826 0.69031 0.20349 0.0
C141 C 0.33105 0.83674 0.06369 0.0
O142 O 0.27814 0.56359 0.09893 0.0
O143 O 0.43003 0.62745 0.02267 0.0
O144 O 0.27467 0.72855 0.97627 0.0
O145 O 0.4024 0.65848 0.17498 0.0
O146 O 0.24147 0.71892 0.15953 0.0
O147 O 0.367 0.80989 0.03748 0.0
O148 O 0.2942 0.65186 0.19962 0.0
O149 O 0.43171 0.73182 0.11526 0.0
O150 O 0.29249 0.80918 0.08344 0.0
O151 O 0.39131 0.55995 0.07946 0.0
O152 O 0.22757 0.63205 0.05384 0.0
O153 O 0.35455 0.70475 0.95141 0.0
Sc154 Sc 0.23719 0.74571 0.56706 0.0
Sc155 Sc 0.10631 0.74872 0.53462 0.0
Sc156 Sc 0.15831 0.85228 0.63545 0.0
O157 O 0.16741 0.78309 0.57814 0.0
C158 C 0.24146 0.77206 0.7026 0.0
C159 C 0.16916 0.62792 0.56249 0.0
C160 C 0.07027 0.75849 0.66576 0.0
C161 C 0.18965 0.746 0.43773 0.0
C162 C 0.26057 0.88798 0.57134 0.0
C163 C 0.07435 0.89145 0.54333 0.0
O164 O 0.25837 0.745 0.65792 0.0
O165 O 0.13186 0.65462 0.53868 0.0
O166 O 0.09753 0.80524 0.67614 0.0
O167 O 0.22461 0.73819 0.47514 0.0
O168 O 0.22109 0.9013 0.60034 0.0
O169 O 0.06935 0.8373 0.5233 0.0
O170 O 0.27177 0.83419 0.55386 0.0
O171 O 0.14381 0.75872 0.45122 0.0
O172 O 0.10758 0.90437 0.5811 0.0
O173 O 0.20832 0.65561 0.58046 0.0
O174 O 0.20573 0.81101 0.6997 0.0
O175 O 0.06744 0.7328 0.61624 0.0
C176 C 0.97843 0.22997 0.19093 0.0
C177 C 0.03073 0.2376 0.19817 0.0
C178 C 0.94659 0.22668 0.23915 0.0
C179 C 0.96617 0.23138 0.29576 0.0
H180 H 0.96284 0.2201 0.1486 0.0
H181 H 0.90695 0.21572 0.23226 0.0
S182 S 0.09879 0.26624 0.33588 0.0
N183 N 0.0996 0.26073 0.26465 0.0
N184 N 0.03929 0.25486 0.35548 0.0
C185 C 0.01722 0.24693 0.30295 0.0
C186 C 0.04973 0.24989 0.25389 0.0
C187 C 0.45151 0.2208 0.7539 0.0
C188 C 0.47055 0.22722 0.69719 0.0
C189 C 0.48377 0.22296 0.80191 0.0
C190 C 0.5359 0.23194 0.79434 0.0
H191 H 0.41095 0.2197 0.7614 0.0
H192 H 0.46732 0.22367 0.84481 0.0
S193 S 0.60558 0.2358 0.65495 0.0
N194 N 0.54524 0.23136 0.63615 0.0
N195 N 0.60637 0.23503 0.72636 0.0
C196 C 0.55595 0.23037 0.73784 0.0
C197 C 0.52308 0.22788 0.68905 0.0
C198 C 0.95828 0.7134 0.75629 0.0
C199 C 0.97657 0.72531 0.8124 0.0
C200 C 0.99003 0.71805 0.70801 0.0
C201 C 0.04096 0.73456 0.71497 0.0
H202 H 0.91821 0.70595 0.74942 0.0
H203 H 0.97363 0.71441 0.66522 0.0
S204 S 0.11 0.75239 0.85391 0.0
N205 N 0.05033 0.74147 0.87302 0.0
N206 N 0.1109 0.7487 0.78259 0.0
C207 C 0.06113 0.73755 0.77141 0.0
C208 C 0.02867 0.73301 0.82034 0.0
C209 C 0.54122 0.74897 0.25547 0.0
C210 C 0.52191 0.7397 0.31165 0.0
C211 C 0.50983 0.7443 0.20693 0.0
C212 C 0.45846 0.72978 0.21359 0.0
H213 H 0.58173 0.75369 0.24875 0.0
H214 H 0.52676 0.74597 0.1643 0.0
S215 S 0.38759 0.71616 0.35167 0.0
N216 N 0.44719 0.72655 0.37148 0.0
N217 N 0.38757 0.71841 0.2803 0.0
C218 C 0.4376 0.72853 0.26971 0.0
C219 C 0.46957 0.73355 0.31899 0.0
C220 C 0.03182 0.97384 0.04736 0.0
C221 C 0.03515 0.03002 0.0171 0.0
C222 C 0.99608 0.92872 0.03224 0.0
C223 C 0.96181 0.93761 0.98615 0.0
H224 H 0.05696 0.96442 0.08339 0.0
H225 H 0.99571 0.88631 0.05678 0.0
S226 S 0.95414 0.07687 0.89275 0.0
N227 N 0.00051 0.09184 0.93844 0.0
N228 N 0.93354 0.00778 0.91044 0.0
C229 C 0.96453 -0.00623 0.95562 0.0
C230 C 0.00106 0.03962 0.97086 0.0
C231 C 0.53112 0.47449 0.46333 0.0
C232 C 0.53222 0.53221 0.49099 0.0
C233 C 0.49539 0.42947 0.47835 0.0
C234 C 0.45889 0.43988 0.52185 0.0
H235 H 0.55797 0.46374 0.42931 0.0
H236 H 0.49681 0.38591 0.45575 0.0
S237 S 0.44466 0.58359 0.60768 0.0
N238 N 0.49295 0.59734 0.56426 0.0
N239 N 0.426 0.51307 0.59228 0.0
C240 C 0.45937 0.4975 0.54988 0.0
C241 C 0.4959 0.54341 0.53465 0.0
C242 C 0.49804 0.53673 0.98072 0.0
C243 C 0.4608 0.52383 0.02274 0.0
C244 C 0.53398 0.49232 0.96385 0.0
C245 C 0.53461 0.43281 0.98821 0.0
H246 H 0.49969 0.58165 0.96058 0.0
H247 H 0.56136 0.50493 0.931 0.0
S248 S 0.44577 0.37516 0.1008 0.0
N249 N 0.42722 0.44657 0.08873 0.0
N250 N 0.4945 0.36373 0.05737 0.0
C251 C 0.49769 0.41927 0.03054 0.0
C252 C 0.46096 0.46446 0.04757 0.0
C253 C 0.96697 0.9734 0.46268 0.0
C254 C 0.96406 0.03149 0.48968 0.0
C255 C 0.00297 0.92908 0.47965 0.0
C256 C 0.03797 0.94061 0.52444 0.0
H257 H 0.94156 0.96202 0.42749 0.0
H258 H 0.00328 0.88534 0.45724 0.0
S259 S 0.04544 0.08456 0.61114 0.0
N260 N 0.99887 0.0973 0.565 0.0
N261 N 0.06628 0.0146 0.59661 0.0
C262 C 0.03525 -0.00161 0.55221 0.0
C263 C 0.99846 0.04348 0.53503 0.0
C264 C 0.32528 0.9386 0.01689 0.0
C265 C 0.33064 0.90352 0.06758 0.0
C266 C 0.30596 -0.00133 0.01954 0.0
C267 C 0.292 0.02413 0.07292 0.0
H268 H 0.33105 0.91753 0.97495 0.0
H269 H 0.29744 0.02278 0.97968 0.0
S270 S 0.30887 0.95491 0.21789 0.0
N271 N 0.32818 0.90118 0.17238 0.0
N272 N 0.29227 0.01437 0.17751 0.0
C273 C 0.3028 -0.00806 0.12397 0.0
C274 C 0.32214 0.93121 0.12126 0.0
C275 C 0.17432 0.52507 0.51746 0.0
C276 C 0.16935 0.56123 0.56748 0.0
C277 C 0.19247 0.46452 0.52132 0.0
C278 C 0.20585 0.4397 0.57524 0.0
H279 H 0.16896 0.54544 0.47513 0.0
H280 H 0.20063 0.43945 0.48192 0.0
S281 S 0.1897 0.51239 0.71885 0.0
N282 N 0.17163 0.56569 0.6722 0.0
N283 N 0.20527 0.45167 0.67969 0.0
C284 C 0.19547 0.47328 0.62564 0.0
C285 C 0.17729 0.53446 0.62169 0.0
C286 C 0.80831 0.47164 0.89528 0.0
C287 C 0.79184 0.43855 0.9438 0.0
C288 C 0.82792 0.53069 0.90138 0.0
C289 C 0.83148 0.55777 0.95612 0.0
H290 H 0.80202 0.45381 0.85212 0.0
H291 H 0.83592 0.55734 0.86283 0.0
S292 S 0.79956 0.48668 0.09679 0.0
N293 N 0.78538 0.43347 0.04839 0.0
N294 N 0.8224 0.54569 0.05998 0.0
C295 C 0.81993 0.52293 0.00537 0.0
C296 C 0.79995 0.46257 0.99915 0.0
C297 C 0.69386 -0.00733 0.39293 0.0
C298 C 0.70757 0.02704 0.44179 0.0
C299 C 0.6744 0.93357 0.39887 0.0
C300 C 0.66808 0.90767 0.45381 0.0
H301 H 0.70217 0.00961 0.34988 0.0
H302 H 0.6685 0.90606 0.36038 0.0
S303 S 0.69156 -0.01762 0.59492 0.0
N304 N 0.70813 0.0346 0.54651 0.0
N305 N 0.6712 0.92227 0.55783 0.0
C306 C 0.67662 0.94376 0.50304 0.0
C307 C 0.69654 0.00421 0.49696 0.0
C308 C 0.68427 0.034 0.88338 0.0
C309 C 0.67148 0.05829 0.93749 0.0
C310 C 0.70308 0.9744 0.87878 0.0
C311 C 0.7098 0.93787 0.92825 0.0
H312 H 0.6837 0.06293 0.84518 0.0
H313 H 0.71628 0.95854 0.83697 0.0
S314 S 0.67511 0.97793 0.0785 0.0
N315 N 0.66082 0.04 0.0404 0.0
N316 N 0.69675 0.92677 0.03167 0.0
C317 C 0.69219 0.95923 0.98173 0.0
C318 C 0.67281 0.02018 0.9864 0.0
C319 C 0.8039 0.50356 0.48109 0.0
C320 C 0.78731 0.52605 0.42744 0.0
C321 C 0.82423 0.44408 0.48534 0.0
C322 C 0.82821 0.40676 0.43597 0.0
H323 H 0.7968 0.52952 0.52025 0.0
H324 H 0.83205 0.4252 0.52779 0.0
S325 S 0.80001 0.45038 0.2848 0.0
N326 N 0.78388 0.5113 0.3234 0.0
N327 N 0.82183 0.39932 0.33159 0.0
C328 C 0.81713 0.43161 0.38165 0.0
C329 C 0.79662 0.49165 0.37732 0.0
C330 C 0.1655 0.43518 0.09454 0.0
C331 C 0.17093 0.40607 0.04092 0.0
C332 C 0.18244 0.49537 0.10211 0.0
C333 C 0.20481 0.5275 0.05611 0.0
H334 H 0.1524 0.40956 0.13186 0.0
H335 H 0.18221 0.51488 0.14522 0.0
S336 S 0.2211 0.47347 0.90574 0.0
N337 N 0.19492 0.41474 0.93993 0.0
N338 N 0.22654 0.52899 0.95416 0.0
C339 C 0.2058 0.50097 1.00103 0.0
C340 C 0.1889 0.4395 0.99342 0.0
C341 C 0.29632 0.96471 0.50438 0.0
C342 C 0.29507 0.93852 0.55976 0.0
C343 C 0.31336 0.02514 0.49688 0.0
C344 C 0.32972 0.0597 0.54458 0.0
H345 H 0.27948 0.94086 0.46803 0.0
H346 H 0.30948 0.04664 0.45482 0.0
S347 S 0.34045 0.00792 0.69628 0.0
N348 N 0.31681 0.9482 0.66135 0.0
N349 N 0.34925 0.0619 0.647 0.0
C350 C 0.33334 0.03176 0.59884 0.0
C351 C 0.31587 0.97072 0.60652 0.0
C352 C 0.25983 0.21364 0.85144 0.0
C353 C 0.20778 0.20856 0.86482 0.0
C354 C 0.27638 0.22613 0.7954 0.0
C355 C 0.24194 0.23304 0.7496 0.0
H356 H 0.28846 0.21061 0.88491 0.0
H357 H 0.31671 0.23191 0.78816 0.0
S358 S 0.10222 0.21667 0.75854 0.0
N359 N 0.12195 0.20632 0.82565 0.0
N360 N 0.15375 0.22866 0.71951 0.0
C361 C 0.1901 0.22399 0.7609 0.0
C362 C 0.17288 0.21205 0.81864 0.0
C363 C 0.22738 0.20896 0.29832 0.0
C364 C 0.257 0.22409 0.2499 0.0
C365 C 0.24346 0.22196 0.35431 0.0
C366 C 0.29061 0.25001 0.36539 0.0
H367 H 0.19115 0.18618 0.29324 0.0
H368 H 0.21884 0.20787 0.38937 0.0
S369 S 0.38253 0.30115 0.25387 0.0
N370 N 0.3354 0.271 0.21629 0.0
N371 N 0.36653 0.2943 0.32265 0.0
C372 C 0.32072 0.2664 0.3175 0.0
C373 C 0.30369 0.25391 0.25964 0.0
C374 C 0.77192 0.19509 0.19653 0.0
C375 C 0.74238 0.20989 0.24518 0.0
C376 C 0.75506 0.20747 0.14056 0.0
C377 C 0.7075 0.23503 0.12989 0.0
H378 H 0.80884 0.17366 0.20139 0.0
H379 H 0.77969 0.19409 0.10524 0.0
S380 S 0.61547 0.2847 0.24204 0.0
N381 N 0.66325 0.25523 0.2792 0.0
N382 N 0.63121 0.27807 0.1732 0.0
C383 C 0.67742 0.25074 0.178 0.0
C384 C 0.69496 0.23848 0.23567 0.0
C385 C 0.75172 0.27049 0.64052 0.0
C386 C 0.79415 0.23274 0.62989 0.0
C387 C 0.73518 0.28304 0.69654 0.0
C388 C 0.75972 0.2579 0.74517 0.0
H389 H 0.73102 0.29142 0.6051 0.0
H390 H 0.70231 0.3126 0.70137 0.0
S391 S 0.87321 0.15597 0.74141 0.0
N392 N 0.86117 0.17066 0.67267 0.0
N393 N 0.8295 0.19331 0.77881 0.0
C394 C 0.80253 0.22003 0.73547 0.0
C395 C 0.8199 0.20781 0.67778 0.0
C396 C 0.73838 0.71822 0.14349 0.0
C397 C 0.7859 0.74615 0.13413 0.0
C398 C 0.72049 0.70604 0.19897 0.0
C399 C 0.74894 0.72147 0.24818 0.0
H400 H 0.71488 0.70389 0.10755 0.0
H401 H 0.68392 0.68379 0.20304 0.0
S402 S 0.87445 0.79906 0.24825 0.0
N403 N 0.86035 0.79141 0.17906 0.0
N404 N 0.82641 0.76893 0.28422 0.0
C405 C 0.79596 0.75115 0.23992 0.0
C406 C 0.81454 0.76321 0.18281 0.0
C407 C 0.6978 0.72411 0.73821 0.0
C408 C 0.74906 0.7386 0.74835 0.0
C409 C 0.67986 0.71317 0.68176 0.0
C410 C 0.71282 0.71528 0.63379 0.0
H411 H 0.67102 0.72376 0.77371 0.0
H412 H 0.63976 0.70469 0.67562 0.0
S413 S 0.85218 0.74431 0.63931 0.0
N414 N 0.83304 0.75011 0.70684 0.0
N415 N 0.80074 0.72781 0.60208 0.0
C416 C 0.76489 0.72628 0.64441 0.0
C417 C 0.7826 0.73843 0.70128 0.0
C418 C 0.24107 0.78785 0.80949 0.0
C419 C 0.26206 0.7575 0.76125 0.0
C420 C 0.25666 0.77443 0.86574 0.0
C421 C 0.29464 0.7305 0.87707 0.0
H422 H 0.21166 0.82231 0.80421 0.0
H423 H 0.2388 0.79946 0.9008 0.0
S424 S 0.36321 0.63811 0.76708 0.0
N425 N 0.32367 0.68112 0.72895 0.0
N426 N 0.35376 0.65686 0.83546 0.0
C427 C 0.31701 0.70034 0.82962 0.0
C428 C 0.30054 0.71352 0.7717 0.0
C429 C 0.18957 0.76839 0.33019 0.0
C430 C 0.20281 0.73041 0.37713 0.0
C431 C 0.20649 0.75473 0.27367 0.0
C432 C 0.2367 0.7023 0.26223 0.0
H433 H 0.16755 0.80983 0.33745 0.0
H434 H 0.19689 0.78627 0.23907 0.0
S435 S 0.27512 0.58383 0.37019 0.0
N436 N 0.2436 0.63564 0.40796 0.0
N437 N 0.27445 0.60926 0.30303 0.0
C438 C 0.24777 0.66259 0.30891 0.0
C439 C 0.23107 0.67682 0.36593 0.0
loop_
_geom_bond_atom_site_label_1
_geom_bond_atom_site_label_2
_geom_bond_distance
_geom_bond_site_symmetry_2
_ccdc_geom_bond_type
Sc0 O3 2.025 . S
Sc0 O10 2.105 . S
Sc0 O13 2.105 . S
Sc0 O16 2.105 . S
Sc0 O19 2.105 . S
Sc1 O3 2.025 . S
Sc1 O11 2.105 1_554 S
Sc1 O15 2.105 . S
Sc1 O17 2.105 . S
Sc1 O21 2.105 . S
Sc2 O3 2.025 . S
Sc2 O12 2.105 . S
Sc2 O14 2.105 . S
Sc2 O18 2.105 . S
Sc2 O20 2.105 . S
O3 Sc0 2.025 . S
O3 Sc1 2.025 . S
O3 Sc2 2.025 . S
C4 O10 1.268 . S
C4 O20 1.268 . S
C5 O11 1.268 . S
C5 O19 1.268 1_556 S
C6 O12 1.268 . S
C6 O21 1.268 . S
C7 O13 1.268 . S
C7 O17 1.268 . S
C8 O14 1.268 . S
C8 O16 1.268 . S
C9 O15 1.268 . S
C9 O18 1.268 . S
O10 Sc0 2.105 . S
O10 C4 1.268 . S
O11 Sc1 2.105 1_556 S
O11 C5 1.268 . S
O12 Sc2 2.105 . S
O12 C6 1.268 . S
O13 Sc0 2.105 . S
O13 C7 1.268 . S
O14 Sc2 2.105 . S
O14 C8 1.268 . S
O15 Sc1 2.105 . S
O15 C9 1.268 . S
O16 Sc0 2.105 . S
O16 C8 1.268 . S
O17 Sc1 2.105 . S
O17 C7 1.268 . S
O18 Sc2 2.105 . S
O18 C9 1.268 . S
O19 Sc0 2.105 . S
O19 C5 1.268 1_554 S
O20 Sc2 2.105 . S
O20 C4 1.268 . S
O21 Sc1 2.105 . S
O21 C6 1.268 . S
Sc22 O25 2.025 . S
Sc22 O32 2.105 . S
Sc22 O35 2.105 . S
Sc22 O38 2.105 . S
Sc22 O41 2.105 . S
Sc23 O25 2.025 . S
Sc23 O33 2.105 . S
Sc23 O37 2.105 . S
Sc23 O39 2.105 . S
Sc23 O43 2.105 . S
Sc24 O25 2.025 . S
Sc24 O34 2.105 . S
Sc24 O36 2.105 . S
Sc24 O40 2.105 . S
Sc24 O42 2.105 . S
O25 Sc22 2.025 . S
O25 Sc23 2.025 . S
O25 Sc24 2.025 . S
C26 O32 1.268 . S
C26 O42 1.268 . S
C27 O33 1.268 . S
C27 O41 1.268 . S
C28 O34 1.268 . S
C28 O43 1.268 . S
C29 O35 1.268 . S
C29 O39 1.268 . S
C30 O36 1.268 . S
C30 O38 1.268 . S
C31 O37 1.268 . S
C31 O40 1.268 . S
O32 Sc22 2.105 . S
O32 C26 1.268 . S
O33 Sc23 2.105 . S
O33 C27 1.268 . S
O34 Sc24 2.105 . S
O34 C28 1.268 . S
O35 Sc22 2.105 . S
O35 C29 1.268 . S
O36 Sc24 2.105 . S
O36 C30 1.268 . S
O37 Sc23 2.105 . S
O37 C31 1.268 . S
O38 Sc22 2.105 . S
O38 C30 1.268 . S
O39 Sc23 2.105 . S
O39 C29 1.268 . S
O40 Sc24 2.105 . S
O40 C31 1.268 . S
O41 Sc22 2.105 . S
O41 C27 1.268 . S
O42 Sc24 2.105 . S
O42 C26 1.268 . S
O43 Sc23 2.105 . S
O43 C28 1.268 . S
Sc44 O47 2.025 . S
Sc44 O54 2.105 . S
Sc44 O57 2.105 . S
Sc44 O60 2.105 . S
Sc44 O63 2.105 . S
Sc45 O47 2.025 . S
Sc45 O55 2.105 . S
Sc45 O59 2.105 1_556 S
Sc45 O61 2.105 . S
Sc45 O65 2.105 . S
Sc46 O47 2.025 . S
Sc46 O56 2.105 . S
Sc46 O58 2.105 . S
Sc46 O62 2.105 . S
Sc46 O64 2.105 . S
O47 Sc44 2.025 . S
O47 Sc45 2.025 . S
O47 Sc46 2.025 . S
C48 O54 1.268 . S
C48 O64 1.268 . S
C49 O55 1.268 . S
C49 O63 1.268 . S
C50 O56 1.268 . S
C50 O65 1.268 . S
C51 O57 1.268 . S
C51 O61 1.268 . S
C52 O58 1.268 . S
C52 O60 1.268 . S
C53 O59 1.268 . S
C53 O62 1.268 1_554 S
O54 Sc44 2.105 . S
O54 C48 1.268 . S
O55 Sc45 2.105 . S
O55 C49 1.268 . S
O56 Sc46 2.105 . S
O56 C50 1.268 . S
O57 Sc44 2.105 . S
O57 C51 1.268 . S
O58 Sc46 2.105 . S
O58 C52 1.268 . S
O59 Sc45 2.105 1_554 S
O59 C53 1.268 . S
O60 Sc44 2.105 . S
O60 C52 1.268 . S
O61 Sc45 2.105 . S
O61 C51 1.268 . S
O62 Sc46 2.105 . S
O62 C53 1.268 1_556 S
O63 Sc44 2.105 . S
O63 C49 1.268 . S
O64 Sc46 2.105 . S
O64 C48 1.268 . S
O65 Sc45 2.105 . S
O65 C50 1.268 . S
Sc66 O69 2.025 . S
Sc66 O76 2.105 . S
Sc66 O79 2.105 . S
Sc66 O82 2.105 . S
Sc66 O85 2.105 . S
Sc67 O69 2.025 . S
Sc67 O77 2.105 . S
Sc67 O81 2.105 . S
Sc67 O83 2.105 . S
Sc67 O87 2.105 . S
Sc68 O69 2.025 . S
Sc68 O78 2.105 . S
Sc68 O80 2.105 . S
Sc68 O84 2.105 . S
Sc68 O86 2.105 . S
O69 Sc66 2.025 . S
O69 Sc67 2.025 . S
O69 Sc68 2.025 . S
C70 O76 1.268 . S
C70 O86 1.268 . S
C71 O77 1.268 . S
C71 O85 1.268 . S
C72 O78 1.268 . S
C72 O87 1.268 . S
C73 O79 1.268 . S
C73 O83 1.268 . S
C74 O80 1.268 . S
C74 O82 1.268 . S
C75 O81 1.268 . S
C75 O84 1.268 . S
O76 Sc66 2.105 . S
O76 C70 1.268 . S
O77 Sc67 2.105 . S
O77 C71 1.268 . S
O78 Sc68 2.105 . S
O78 C72 1.268 . S
O79 Sc66 2.105 . S
O79 C73 1.268 . S
O80 Sc68 2.105 . S
O80 C74 1.268 . S
O81 Sc67 2.105 . S
O81 C75 1.268 . S
O82 Sc66 2.105 . S
O82 C74 1.268 . S
O83 Sc67 2.105 . S
O83 C73 1.268 . S
O84 Sc68 2.105 . S
O84 C75 1.268 . S
O85 Sc66 2.105 . S
O85 C71 1.268 . S
O86 Sc68 2.105 . S
O86 C70 1.268 . S
O87 Sc67 2.105 . S
O87 C72 1.268 . S
Sc88 O91 2.025 . S
Sc88 O98 2.105 . S
Sc88 O101 2.105 . S
Sc88 O104 2.105 . S
Sc88 O107 2.105 . S
Sc89 O91 2.025 . S
Sc89 O99 2.105 . S
Sc89 O103 2.105 . S
Sc89 O105 2.105 1_556 S
Sc89 O109 2.105 . S
Sc90 O91 2.025 . S
Sc90 O100 2.105 . S
Sc90 O102 2.105 . S
Sc90 O106 2.105 . S
Sc90 O108 2.105 . S
O91 Sc88 2.025 . S
O91 Sc89 2.025 . S
O91 Sc90 2.025 . S
C92 O98 1.268 . S
C92 O108 1.268 . S
C93 O99 1.268 . S
C93 O107 1.268 . S
C94 O100 1.268 . S
C94 O109 1.268 . S
C95 O101 1.268 1_554 S
C95 O105 1.268 . S
C96 O102 1.268 . S
C96 O104 1.268 . S
C97 O103 1.268 . S
C97 O106 1.268 . S
O98 Sc88 2.105 . S
O98 C92 1.268 . S
O99 Sc89 2.105 . S
O99 C93 1.268 . S
O100 Sc90 2.105 . S
O100 C94 1.268 . S
O101 Sc88 2.105 . S
O101 C95 1.268 1_556 S
O102 Sc90 2.105 . S
O102 C96 1.268 . S
O103 Sc89 2.105 . S
O103 C97 1.268 . S
O104 Sc88 2.105 . S
O104 C96 1.268 . S
O105 Sc89 2.105 1_554 S
O105 C95 1.268 . S
O106 Sc90 2.105 . S
O106 C97 1.268 . S
O107 Sc88 2.105 . S
O107 C93 1.268 . S
O108 Sc90 2.105 . S
O108 C92 1.268 . S
O109 Sc89 2.105 . S
O109 C94 1.268 . S
Sc110 O113 2.025 . S
Sc110 O120 2.105 . S
Sc110 O123 2.105 . S
Sc110 O126 2.105 . S
Sc110 O129 2.105 . S
Sc111 O113 2.025 . S
Sc111 O121 2.105 . S
Sc111 O125 2.105 . S
Sc111 O127 2.105 . S
Sc111 O131 2.105 . S
Sc112 O113 2.025 . S
Sc112 O122 2.105 . S
Sc112 O124 2.105 . S
Sc112 O128 2.105 . S
Sc112 O130 2.105 . S
O113 Sc110 2.025 . S
O113 Sc111 2.025 . S
O113 Sc112 2.025 . S
C114 O120 1.268 . S
C114 O130 1.268 . S
C115 O121 1.268 . S
C115 O129 1.268 . S
C116 O122 1.268 . S
C116 O131 1.268 . S
C117 O123 1.268 . S
C117 O127 1.268 . S
C118 O124 1.268 . S
C118 O126 1.268 . S
C119 O125 1.268 . S
C119 O128 1.268 . S
O120 Sc110 2.105 . S
O120 C114 1.268 . S
O121 Sc111 2.105 . S
O121 C115 1.268 . S
O122 Sc112 2.105 . S
O122 C116 1.268 . S
O123 Sc110 2.105 . S
O123 C117 1.268 . S
O124 Sc112 2.105 . S
O124 C118 1.268 . S
O125 Sc111 2.105 . S
O125 C119 1.268 . S
O126 Sc110 2.105 . S
O126 C118 1.268 . S
O127 Sc111 2.105 . S
O127 C117 1.268 . S
O128 Sc112 2.105 . S
O128 C119 1.268 . S
O129 Sc110 2.105 . S
O129 C115 1.268 . S
O130 Sc112 2.105 . S
O130 C114 1.268 . S
O131 Sc111 2.105 . S
O131 C116 1.268 . S
Sc132 O135 2.025 . S
Sc132 O142 2.105 . S
Sc132 O145 2.105 . S
Sc132 O148 2.105 . S
Sc132 O151 2.105 . S
Sc133 O135 2.025 . S
Sc133 O143 2.105 . S
Sc133 O147 2.105 . S
Sc133 O149 2.105 . S
Sc133 O153 2.105 1_554 S
Sc134 O135 2.025 . S
Sc134 O144 2.105 . S
Sc134 O146 2.105 . S
Sc134 O150 2.105 . S
Sc134 O152 2.105 . S
O135 Sc132 2.025 . S
O135 Sc133 2.025 . S
O135 Sc134 2.025 . S
C136 O142 1.268 . S
C136 O152 1.268 . S
C137 O143 1.268 . S
C137 O151 1.268 . S
C138 O144 1.268 1_556 S
C138 O153 1.268 . S
C139 O145 1.268 . S
C139 O149 1.268 . S
C140 O146 1.268 . S
C140 O148 1.268 . S
C141 O147 1.268 . S
C141 O150 1.268 . S
O142 Sc132 2.105 . S
O142 C136 1.268 . S
O143 Sc133 2.105 . S
O143 C137 1.268 . S
O144 Sc134 2.105 . S
O144 C138 1.268 1_554 S
O145 Sc132 2.105 . S
O145 C139 1.268 . S
O146 Sc134 2.105 . S
O146 C140 1.268 . S
O147 Sc133 2.105 . S
O147 C141 1.268 . S
O148 Sc132 2.105 . S
O148 C140 1.268 . S
O149 Sc133 2.105 . S
O149 C139 1.268 . S
O150 Sc134 2.105 . S
O150 C141 1.268 . S
O151 Sc132 2.105 . S
O151 C137 1.268 . S
O152 Sc134 2.105 . S
O152 C136 1.268 . S
O153 Sc133 2.105 1_556 S
O153 C138 1.268 . S
Sc154 O157 2.025 . S
Sc154 O164 2.105 . S
Sc154 O167 2.105 . S
Sc154 O170 2.105 . S
Sc154 O173 2.105 . S
Sc155 O157 2.025 . S
Sc155 O165 2.105 . S
Sc155 O169 2.105 . S
Sc155 O171 2.105 . S
Sc155 O175 2.105 . S
Sc156 O157 2.025 . S
Sc156 O166 2.105 . S
Sc156 O168 2.105 . S
Sc156 O172 2.105 . S
Sc156 O174 2.105 . S
O157 Sc154 2.025 . S
O157 Sc155 2.025 . S
O157 Sc156 2.025 . S
C158 O164 1.268 . S
C158 O174 1.268 . S
C159 O165 1.268 . S
C159 O173 1.268 . S
C160 O166 1.268 . S
C160 O175 1.268 . S
C161 O167 1.268 . S
C161 O171 1.268 . S
C162 O168 1.268 . S
C162 O170 1.268 . S
C163 O169 1.268 . S
C163 O172 1.268 . S
O164 Sc154 2.105 . S
O164 C158 1.268 . S
O165 Sc155 2.105 . S
O165 C159 1.268 . S
O166 Sc156 2.105 . S
O166 C160 1.268 . S
O167 Sc154 2.105 . S
O167 C161 1.268 . S
O168 Sc156 2.105 . S
O168 C162 1.268 . S
O169 Sc155 2.105 . S
O169 C163 1.268 . S
O170 Sc154 2.105 . S
O170 C162 1.268 . S
O171 Sc155 2.105 . S
O171 C161 1.268 . S
O172 Sc156 2.105 . S
O172 C163 1.268 . S
O173 Sc154 2.105 . S
O173 C159 1.268 . S
O174 Sc156 2.105 . S
O174 C158 1.268 . S
O175 Sc155 2.105 . S
O175 C160 1.268 . S
C176 C177 1.369 . S
C176 C178 1.419 1_455 S
C176 H180 0.930 . S
C177 C176 1.369 . S
C177 C186 1.429 . S
C178 C176 1.419 1_655 S
C178 C179 1.363 . S
C178 H181 0.929 . S
C179 C178 1.363 . S
C179 C185 1.428 . S
H180 C176 0.930 . S
H181 C178 0.929 . S
S182 N183 1.613 . S
S182 N184 1.610 1_455 S
N183 S182 1.613 . S
N183 C186 1.350 . S
N184 S182 1.610 1_655 S
N184 C185 1.351 . S
C185 C179 1.428 . S
C185 N184 1.351 . S
C185 C186 1.434 1_655 S
C186 C177 1.429 . S
C186 N183 1.350 . S
C186 C185 1.434 1_455 S
C187 C188 1.369 . S
C187 C189 1.419 . S
C187 H191 0.930 . S
C188 C187 1.369 . S
C188 C197 1.429 . S
C189 C187 1.419 . S
C189 C190 1.363 . S
C189 H192 0.929 . S
C190 C189 1.363 . S
C190 C196 1.428 . S
H191 C187 0.930 . S
H192 C189 0.929 . S
S193 N194 1.613 . S
S193 N195 1.610 . S
N194 S193 1.613 . S
N194 C197 1.350 . S
N195 S193 1.610 . S
N195 C196 1.351 . S
C196 C190 1.428 . S
C196 N195 1.351 . S
C196 C197 1.434 . S
C197 C188 1.429 . S
C197 N194 1.350 . S
C197 C196 1.434 . S
C198 C199 1.369 . S
C198 C200 1.419 . S
C198 H202 0.930 . S
C199 C198 1.369 . S
C199 C208 1.429 1_655 S
C200 C198 1.419 . S
C200 C201 1.363 1_655 S
C200 H203 0.929 . S
C201 C200 1.363 1_455 S
C201 C207 1.428 . S
H202 C198 0.930 . S
H203 C200 0.929 . S
S204 N205 1.613 . S
S204 N206 1.610 . S
N205 S204 1.613 . S
N205 C208 1.350 . S
N206 S204 1.610 . S
N206 C207 1.351 . S
C207 C201 1.428 . S
C207 N206 1.351 . S
C207 C208 1.434 . S
C208 C199 1.429 1_455 S
C208 N205 1.350 . S
C208 C207 1.434 . S
C209 C210 1.369 . S
C209 C211 1.419 . S
C209 H213 0.930 . S
C210 C209 1.369 . S
C210 C219 1.429 . S
C211 C209 1.419 . S
C211 C212 1.363 . S
C211 H214 0.929 . S
C212 C211 1.363 . S
C212 C218 1.428 . S
H213 C209 0.930 . S
H214 C211 0.929 . S
S215 N216 1.613 . S
S215 N217 1.610 . S
N216 S215 1.613 . S
N216 C219 1.350 . S
N217 S215 1.610 . S
N217 C218 1.351 . S
C218 C212 1.428 . S
C218 N217 1.351 . S
C218 C219 1.434 . S
C219 C210 1.429 . S
C219 N216 1.350 . S
C219 C218 1.434 . S
C220 C221 1.369 1_565 S
C220 C222 1.419 . S
C220 H224 0.930 . S
C221 C220 1.369 1_545 S
C221 C230 1.429 1_454 S
C222 C220 1.419 . S
C222 C223 1.363 1_454 S
C222 H225 0.929 . S
C223 C222 1.363 1_656 S
C223 C229 1.428 1_565 S
H224 C220 0.930 . S
H225 C222 0.929 . S
S226 N227 1.613 . S
S226 N228 1.610 . S
N227 S226 1.613 . S
N227 C230 1.350 . S
N228 S226 1.610 . S
N228 C229 1.351 . S
C229 C223 1.428 1_545 S
C229 N228 1.351 . S
C229 C230 1.434 . S
C230 C221 1.429 1_656 S
C230 N227 1.350 . S
C230 C229 1.434 . S
C231 C232 1.369 . S
C231 C233 1.419 . S
C231 H235 0.930 . S
C232 C231 1.369 . S
C232 C241 1.429 . S
C233 C231 1.419 . S
C233 C234 1.363 . S
C233 H236 0.929 . S
C234 C233 1.363 . S
C234 C240 1.428 . S
H235 C231 0.930 . S
H236 C233 0.929 . S
S237 N238 1.613 . S
S237 N239 1.610 . S
N238 S237 1.613 . S
N238 C241 1.350 . S
N239 S237 1.610 . S
N239 C240 1.351 . S
C240 C234 1.428 . S
C240 N239 1.351 . S
C240 C241 1.434 . S
C241 C232 1.429 . S
C241 N238 1.350 . S
C241 C240 1.434 . S
C242 C243 1.369 1_556 S
C242 C244 1.419 . S
C242 H246 0.930 . S
C243 C242 1.369 1_554 S
C243 C252 1.429 . S
C244 C242 1.419 . S
C244 C245 1.363 . S
C244 H247 0.929 . S
C245 C244 1.363 . S
C245 C251 1.428 1_556 S
H246 C242 0.930 . S
H247 C244 0.929 . S
S248 N249 1.613 . S
S248 N250 1.610 . S
N249 S248 1.613 . S
N249 C252 1.350 . S
N250 S248 1.610 . S
N250 C251 1.351 . S
C251 C245 1.428 1_554 S
C251 N250 1.351 . S
C251 C252 1.434 . S
C252 C243 1.429 . S
C252 N249 1.350 . S
C252 C251 1.434 . S
C253 C254 1.369 1_455 S
C253 C255 1.419 1_545 S
C253 H257 0.930 . S
C254 C253 1.369 1_655 S
C254 C263 1.429 . S
C255 C253 1.419 1_565 S
C255 C256 1.363 . S
C255 H258 0.929 . S
C256 C255 1.363 . S
C256 C262 1.428 1_455 S
H257 C253 0.930 . S
H258 C255 0.929 . S
S259 N260 1.613 1_565 S
S259 N261 1.610 . S
N260 S259 1.613 1_545 S
N260 C263 1.350 . S
N261 S259 1.610 . S
N261 C262 1.351 . S
C262 C256 1.428 1_655 S
C262 N261 1.351 . S
C262 C263 1.434 1_565 S
C263 C254 1.429 . S
C263 N260 1.350 . S
C263 C262 1.434 1_545 S
C264 C265 1.369 . S
C264 C266 1.419 1_565 S
C264 H268 0.930 . S
C265 C264 1.369 . S
C265 C274 1.429 . S
C266 C264 1.419 1_545 S
C266 C267 1.363 . S
C266 H269 0.929 . S
C267 C266 1.363 . S
C267 C273 1.428 1_545 S
H268 C264 0.930 . S
H269 C266 0.929 . S
S270 N271 1.613 . S
S270 N272 1.610 . S
N271 S270 1.613 . S
N271 C274 1.350 . S
N272 S270 1.610 . S
N272 C273 1.351 . S
C273 C267 1.428 1_565 S
C273 N272 1.351 . S
C273 C274 1.434 . S
C274 C265 1.429 . S
C274 N271 1.350 . S
C274 C273 1.434 . S
C275 C276 1.369 . S
C275 C277 1.419 . S
C275 H279 0.930 . S
C276 C275 1.369 . S
C276 C285 1.429 . S
C277 C275 1.419 . S
C277 C278 1.363 . S
C277 H280 0.929 . S
C278 C277 1.363 . S
C278 C284 1.428 . S
H279 C275 0.930 . S
H280 C277 0.929 . S
S281 N282 1.613 . S
S281 N283 1.610 . S
N282 S281 1.613 . S
N282 C285 1.350 . S
N283 S281 1.610 . S
N283 C284 1.351 . S
C284 C278 1.428 . S
C284 N283 1.351 . S
C284 C285 1.434 . S
C285 C276 1.429 . S
C285 N282 1.350 . S
C285 C284 1.434 . S
C286 C287 1.369 . S
C286 C288 1.419 . S
C286 H290 0.930 . S
C287 C286 1.369 . S
C287 C296 1.429 . S
C288 C286 1.419 . S
C288 C289 1.363 . S
C288 H291 0.929 . S
C289 C288 1.363 . S
C289 C295 1.428 . S
H290 C286 0.930 . S
H291 C288 0.929 . S
S292 N293 1.613 . S
S292 N294 1.610 . S
N293 S292 1.613 . S
N293 C296 1.350 . S
N294 S292 1.610 . S
N294 C295 1.351 . S
C295 C289 1.428 . S
C295 N294 1.351 . S
C295 C296 1.434 . S
C296 C287 1.429 . S
C296 N293 1.350 . S
C296 C295 1.434 . S
C297 C298 1.369 . S
C297 C299 1.419 1_545 S
C297 H301 0.930 . S
C298 C297 1.369 . S
C298 C307 1.429 1_545 S
C299 C297 1.419 1_565 S
C299 C300 1.363 . S
C299 H302 0.929 . S
C300 C299 1.363 . S
C300 C306 1.428 . S
H301 C297 0.930 . S
H302 C299 0.929 . S
S303 N304 1.613 1_565 S
S303 N305 1.610 . S
N304 S303 1.613 1_545 S
N304 C307 1.350 1_545 S
N305 S303 1.610 . S
N305 C306 1.351 . S
C306 C300 1.428 . S
C306 N305 1.351 . S
C306 C307 1.434 . S
C307 C298 1.429 1_565 S
C307 N304 1.350 1_565 S
C307 C306 1.434 . S
C308 C309 1.369 . S
C308 C310 1.419 1_545 S
C308 H312 0.930 . S
C309 C308 1.369 . S
C309 C318 1.429 . S
C310 C308 1.419 1_565 S
C310 C311 1.363 . S
C310 H313 0.929 . S
C311 C310 1.363 . S
C311 C317 1.428 1_565 S
H312 C308 0.930 . S
H313 C310 0.929 . S
S314 N315 1.613 . S
S314 N316 1.610 . S
N315 S314 1.613 . S
N315 C318 1.350 . S
N316 S314 1.610 . S
N316 C317 1.351 . S
C317 C311 1.428 1_545 S
C317 N316 1.351 . S
C317 C318 1.434 . S
C318 C309 1.429 . S
C318 N315 1.350 . S
C318 C317 1.434 . S
C319 C320 1.369 . S
C319 C321 1.419 . S
C319 H323 0.930 . S
C320 C319 1.369 . S
C320 C329 1.429 . S
C321 C319 1.419 . S
C321 C322 1.363 . S
C321 H324 0.929 . S
C322 C321 1.363 . S
C322 C328 1.428 . S
H323 C319 0.930 . S
H324 C321 0.929 . S
S325 N326 1.613 . S
S325 N327 1.610 . S
N326 S325 1.613 . S
N326 C329 1.350 . S
N327 S325 1.610 . S
N327 C328 1.351 . S
C328 C322 1.428 . S
C328 N327 1.351 . S
C328 C329 1.434 . S
C329 C320 1.429 . S
C329 N326 1.350 . S
C329 C328 1.434 . S
C330 C331 1.369 . S
C330 C332 1.419 . S
C330 H334 0.930 . S
C331 C330 1.369 . S
C331 C340 1.429 . S
C332 C330 1.419 . S
C332 C333 1.363 . S
C332 H335 0.929 . S
C333 C332 1.363 . S
C333 C339 1.428 . S
H334 C330 0.930 . S
H335 C332 0.929 . S
S336 N337 1.613 1_556 S
S336 N338 1.610 . S
N337 S336 1.613 1_554 S
N337 C340 1.350 . S
N338 S336 1.610 . S
N338 C339 1.351 1_556 S
C339 C333 1.428 . S
C339 N338 1.351 1_554 S
C339 C340 1.434 . S
C340 C331 1.429 . S
C340 N337 1.350 . S
C340 C339 1.434 . S
C341 C342 1.369 1_545 S
C341 C343 1.419 . S
C341 H345 0.930 . S
C342 C341 1.369 1_565 S
C342 C351 1.429 . S
C343 C341 1.419 . S
C343 C344 1.363 . S
C343 H346 0.929 . S
C344 C343 1.363 . S
C344 C350 1.428 . S
H345 C341 0.930 . S
H346 C343 0.929 . S
S347 N348 1.613 . S
S347 N349 1.610 1_565 S
N348 S347 1.613 . S
N348 C351 1.350 . S
N349 S347 1.610 1_545 S
N349 C350 1.351 . S
C350 C344 1.428 . S
C350 N349 1.351 . S
C350 C351 1.434 1_545 S
C351 C342 1.429 . S
C351 N348 1.350 . S
C351 C350 1.434 1_565 S
C352 C353 1.369 . S
C352 C354 1.419 . S
C352 H356 0.930 . S
C353 C352 1.369 . S
C353 C362 1.429 . S
C354 C352 1.419 . S
C354 C355 1.363 . S
C354 H357 0.929 . S
C355 C354 1.363 . S
C355 C361 1.428 . S
H356 C352 0.930 . S
H357 C354 0.929 . S
S358 N359 1.613 . S
S358 N360 1.610 . S
N359 S358 1.613 . S
N359 C362 1.350 . S
N360 S358 1.610 . S
N360 C361 1.351 . S
C361 C355 1.428 . S
C361 N360 1.351 . S
C361 C362 1.434 . S
C362 C353 1.429 . S
C362 N359 1.350 . S
C362 C361 1.434 . S
C363 C364 1.369 . S
C363 C365 1.419 . S
C363 H367 0.930 . S
C364 C363 1.369 . S
C364 C373 1.429 . S
C365 C363 1.419 . S
C365 C366 1.363 . S
C365 H368 0.929 . S
C366 C365 1.363 . S
C366 C372 1.428 . S
H367 C363 0.930 . S
H368 C365 0.929 . S
S369 N370 1.613 . S
S369 N371 1.610 . S
N370 S369 1.613 . S
N370 C373 1.350 . S
N371 S369 1.610 . S
N371 C372 1.351 . S
C372 C366 1.428 . S
C372 N371 1.351 . S
C372 C373 1.434 . S
C373 C364 1.429 . S
C373 N370 1.350 . S
C373 C372 1.434 . S
C374 C375 1.369 . S
C374 C376 1.419 . S
C374 H378 0.930 . S
C375 C374 1.369 . S
C375 C384 1.429 . S
C376 C374 1.419 . S
C376 C377 1.363 . S
C376 H379 0.929 . S
C377 C376 1.363 . S
C377 C383 1.428 . S
H378 C374 0.930 . S
H379 C376 0.929 . S
S380 N381 1.613 . S
S380 N382 1.610 . S
N381 S380 1.613 . S
N381 C384 1.350 . S
N382 S380 1.610 . S
N382 C383 1.351 . S
C383 C377 1.428 . S
C383 N382 1.351 . S
C383 C384 1.434 . S
C384 C375 1.429 . S
C384 N381 1.350 . S
C384 C383 1.434 . S
C385 C386 1.369 . S
C385 C387 1.419 . S
C385 H389 0.930 . S
C386 C385 1.369 . S
C386 C395 1.429 . S
C387 C385 1.419 . S
C387 C388 1.363 . S
C387 H390 0.929 . S
C388 C387 1.363 . S
C388 C394 1.428 . S
H389 C385 0.930 . S
H390 C387 0.929 . S
S391 N392 1.613 . S
S391 N393 1.610 . S
N392 S391 1.613 . S
N392 C395 1.350 . S
N393 S391 1.610 . S
N393 C394 1.351 . S
C394 C388 1.428 . S
C394 N393 1.351 . S
C394 C395 1.434 . S
C395 C386 1.429 . S
C395 N392 1.350 . S
C395 C394 1.434 . S
C396 C397 1.369 . S
C396 C398 1.419 . S
C396 H400 0.930 . S
C397 C396 1.369 . S
C397 C406 1.429 . S
C398 C396 1.419 . S
C398 C399 1.363 . S
C398 H401 0.929 . S
C399 C398 1.363 . S
C399 C405 1.428 . S
H400 C396 0.930 . S
H401 C398 0.929 . S
S402 N403 1.613 . S
S402 N404 1.610 . S
N403 S402 1.613 . S
N403 C406 1.350 . S
N404 S402 1.610 . S
N404 C405 1.351 . S
C405 C399 1.428 . S
C405 N404 1.351 . S
C405 C406 1.434 . S
C406 C397 1.429 . S
C406 N403 1.350 . S
C406 C405 1.434 . S
C407 C408 1.369 . S
C407 C409 1.419 . S
C407 H411 0.930 . S
C408 C407 1.369 . S
C408 C417 1.429 . S
C409 C407 1.419 . S
C409 C410 1.363 . S
C409 H412 0.929 . S
C410 C409 1.363 . S
C410 C416 1.428 . S
H411 C407 0.930 . S
H412 C409 0.929 . S
S413 N414 1.613 . S
S413 N415 1.610 . S
N414 S413 1.613 . S
N414 C417 1.350 . S
N415 S413 1.610 . S
N415 C416 1.351 . S
C416 C410 1.428 . S
C416 N415 1.351 . S
C416 C417 1.434 . S
C417 C408 1.429 . S
C417 N414 1.350 . S
C417 C416 1.434 . S
C418 C419 1.369 . S
C418 C420 1.419 . S
C418 H422 0.930 . S
C419 C418 1.369 . S
C419 C428 1.429 . S
C420 C418 1.419 . S
C420 C421 1.363 . S
C420 H423 0.929 . S
C421 C420 1.363 . S
C421 C427 1.428 . S
H422 C418 0.930 . S
H423 C420 0.929 . S
S424 N425 1.613 . S
S424 N426 1.610 . S
N425 S424 1.613 . S
N425 C428 1.350 . S
N426 S424 1.610 . S
N426 C427 1.351 . S
C427 C421 1.428 . S
C427 N426 1.351 . S
C427 C428 1.434 . S
C428 C419 1.429 . S
C428 N425 1.350 . S
C428 C427 1.434 . S
C429 C430 1.369 . S
C429 C431 1.419 . S
C429 H433 0.930 . S
C430 C429 1.369 . S
C430 C439 1.429 . S
C431 C429 1.419 . S
C431 C432 1.363 . S
C431 H434 0.929 . S
C432 C431 1.363 . S
C432 C438 1.428 . S
H433 C429 0.930 . S
H434 C431 0.929 . S
S435 N436 1.613 . S
S435 N437 1.610 . S
N436 S435 1.613 . S
N436 C439 1.350 . S
N437 S435 1.610 . S
N437 C438 1.351 . S
C438 C432 1.428 . S
C438 N437 1.351 . S
C438 C439 1.434 . S
C439 C430 1.429 . S
C439 N436 1.350 . S
C439 C438 1.434 . S
C177 C9 0.965 . S
C179 C71 0.967 . S
C188 C27 0.972 . S
C190 C49 0.971 . S
C199 C94 0.972 . S
C201 C160 0.971 . S
C210 C116 0.969 . S
C212 C139 0.969 . S
C221 C6 1.887 . S
C223 C97 1.887 . S
C232 C119 1.890 . S
C234 C29 1.885 . S
C243 C137 1.885 . S
C245 C51 1.890 . S
C254 C73 1.890 . S
C256 C163 1.885 . S
C265 C141 1.082 . S
C267 C4 1.104 . S
C276 C159 1.087 . S
C278 C30 1.101 . S
C287 C52 1.102 . S
C289 C93 1.084 . S
C298 C74 1.109 . S
C300 C115 1.081 . S
C309 C50 1.083 . S
C311 C96 1.104 . S
C320 C118 1.099 . S
C322 C72 1.091 . S
C331 C7 1.079 . S
C333 C136 1.107 . S
C342 C162 1.099 . S
C344 C28 1.091 . S
C353 C5 1.594 . S
C355 C26 1.628 . S
C364 C8 1.630 . S
C366 C31 1.594 . S
C375 C70 1.628 . S
C377 C53 1.594 . S
C386 C75 1.595 . S
C388 C48 1.629 . S
C397 C95 1.595 . S
C399 C114 1.630 . S
C408 C92 1.629 . S
C410 C117 1.590 . S
C419 C158 1.629 . S
C421 C138 1.594 . S
C430 C161 1.588 . S
C432 C140 1.629 . S
