# Generated by pormake.
# Topology smk, (6)-cn, num edge types: 1
# Building blocks:
#     Node 0, Type 0, BuildingBlock: IZENUY_clean_sbu_0, # of connection points: 6
#     Node 1, Type 0, BuildingBlock: IZENUY_clean_sbu_0, # of connection points: 6
#     Node 2, Type 0, BuildingBlock: IZENUY_clean_sbu_0, # of connection points: 6
#     Node 3, Type 0, BuildingBlock: IZENUY_clean_sbu_0, # of connection points: 6
#     Node 4, Type 0, BuildingBlock: IZENUY_clean_sbu_0, # of connection points: 6
#     Node 5, Type 0, BuildingBlock: IZENUY_clean_sbu_0, # of connection points: 6
#     Edge 6, Type (0, 0), BuildingBlock: FUNLAD_clean_linker_0, # of connection points: 2
#     Edge 7, Type (0, 0), BuildingBlock: FUNLAD_clean_linker_0, # of connection points: 2
#     Edge 8, Type (0, 0), BuildingBlock: FUNLAD_clean_linker_0, # of connection points: 2
#     Edge 9, Type (0, 0), BuildingBlock: FUNLAD_clean_linker_0, # of connection points: 2
#     Edge 10, Type (0, 0), BuildingBlock: FUNLAD_clean_linker_0, # of connection points: 2
#     Edge 11, Type (0, 0), BuildingBlock: FUNLAD_clean_linker_0, # of connection points: 2
#     Edge 12, Type (0, 0), BuildingBlock: FUNLAD_clean_linker_0, # of connection points: 2
#     Edge 13, Type (0, 0), BuildingBlock: FUNLAD_clean_linker_0, # of connection points: 2
#     Edge 14, Type (0, 0), BuildingBlock: FUNLAD_clean_linker_0, # of connection points: 2
#     Edge 15, Type (0, 0), BuildingBlock: FUNLAD_clean_linker_0, # of connection points: 2
#     Edge 16, Type (0, 0), BuildingBlock: FUNLAD_clean_linker_0, # of connection points: 2
#     Edge 17, Type (0, 0), BuildingBlock: FUNLAD_clean_linker_0, # of connection points: 2
#     Edge 18, Type (0, 0), BuildingBlock: FUNLAD_clean_linker_0, # of connection points: 2
#     Edge 19, Type (0, 0), BuildingBlock: FUNLAD_clean_linker_0, # of connection points: 2
#     Edge 20, Type (0, 0), BuildingBlock: FUNLAD_clean_linker_0, # of connection points: 2
#     Edge 21, Type (0, 0), BuildingBlock: FUNLAD_clean_linker_0, # of connection points: 2
#     Edge 22, Type (0, 0), BuildingBlock: FUNLAD_clean_linker_0, # of connection points: 2
#     Edge 23, Type (0, 0), BuildingBlock: FUNLAD_clean_linker_0, # of connection points: 2
# Relax obj value: 0.171
# Max RMSD: 0.207
# Mean RMSD: 0.207
data_MOF--net-smk--node1-IZENUY_clean_sbu_0--edge1-FUNLAD_clean_linker_0
_symmetry_space_group_name_H-M    P1
_symmetry_Int_Tables_number       1
_symmetry_cell_setting            triclinic
loop_
_symmetry_equiv_pos_as_xyz
'x, y, z'
_cell_length_a     48.693869
_cell_length_b     48.664645
_cell_length_c     17.65407
_cell_angle_alpha  89.944174
_cell_angle_beta   90.001105
_cell_angle_gamma 120.02957
loop_
_atom_site_label
_atom_site_type_symbol
_atom_site_fract_x
_atom_site_fract_y
_atom_site_fract_z
_atom_type_partial_charge
Fe0 Fe 0.46198 0.25143 0.65825 0.0
Fe1 Fe 0.39865 0.20229 0.58772 0.0
O2 O 0.4407 0.22265 0.58809 0.0
Fe3 Fe 0.46152 0.21407 0.5188 0.0
O4 O 0.47989 0.20171 0.59004 0.0
O5 O 0.49515 0.24347 0.66258 0.0
O6 O 0.44366 0.22231 0.73214 0.0
C7 C 0.4143 0.20617 0.744 0.0
C8 C 0.49951 0.28128 0.5371 0.0
O9 O 0.3946 0.20278 0.6925 0.0
C10 C 0.41514 0.21306 0.43083 0.0
O11 O 0.43259 0.26468 0.66714 0.0
O12 O 0.39823 0.23906 0.57656 0.0
O13 O 0.49606 0.25483 0.51554 0.0
O14 O 0.48202 0.28232 0.58833 0.0
C15 C 0.40883 0.15339 0.55368 0.0
O16 O 0.39509 0.19812 0.48303 0.0
O17 O 0.44445 0.22582 0.44369 0.0
C18 C 0.41118 0.26211 0.62187 0.0
O19 O 0.39646 0.1642 0.59877 0.0
O20 O 0.4309 0.17181 0.50916 0.0
C21 C 0.49675 0.21921 0.64336 0.0
Fe22 Fe 0.21664 0.45629 0.8282 0.0
Fe23 Fe 0.20885 0.39435 0.76362 0.0
O24 O 0.22764 0.43631 0.76212 0.0
Fe25 Fe 0.25749 0.45827 0.69453 0.0
O26 O 0.28669 0.4793 0.76759 0.0
O27 O 0.25642 0.49167 0.83461 0.0
O28 O 0.22787 0.44009 0.90684 0.0
C29 C 0.21574 0.41081 0.91955 0.0
C30 C 0.22315 0.49135 0.70219 0.0
O31 O 0.20209 0.39072 0.86703 0.0
C32 C 0.21581 0.40923 0.60667 0.0
O33 O 0.17481 0.42454 0.83362 0.0
O34 O 0.1703 0.39029 0.74641 0.0
O35 O 0.24805 0.49043 0.68584 0.0
O36 O 0.20479 0.47382 0.75369 0.0
C37 C 0.26987 0.40914 0.7378 0.0
O38 O 0.21218 0.39032 0.66028 0.0
O39 O 0.2301 0.43875 0.61747 0.0
C40 C 0.15783 0.40181 0.78911 0.0
O41 O 0.2462 0.39582 0.78135 0.0
O42 O 0.27246 0.43009 0.69085 0.0
C43 C 0.28362 0.49594 0.81792 0.0
Fe44 Fe 0.81908 0.20622 0.92746 0.0
Fe45 Fe 0.80786 0.25793 0.85964 0.0
O46 O 0.79852 0.22774 0.92734 0.0
Fe47 Fe 0.76851 0.21901 0.99504 0.0
O48 O 0.79654 0.22911 0.07194 0.0
O49 O 0.81665 0.20021 0.03118 0.0
O50 O 0.85691 0.24204 0.94218 0.0
C51 C 0.86809 0.26596 0.8991 0.0
C52 C 0.75939 0.15811 0.95798 0.0
O53 O 0.85022 0.27034 0.85451 0.0
C54 C 0.74063 0.22727 0.87008 0.0
O55 O 0.82533 0.20849 0.82393 0.0
O56 O 0.79791 0.2301 0.78247 0.0
O57 O 0.75587 0.17662 1.00217 0.0
O58 O 0.78256 0.16883 0.91272 0.0
C59 C 0.79929 0.28619 0.98316 0.0
O60 O 0.76722 0.25097 0.85261 0.0
O61 O 0.73862 0.20851 0.92205 0.0
C62 C 0.81112 0.2139 0.77088 0.0
O63 O 0.81826 0.28786 0.93236 0.0
O64 O 0.77553 0.2597 1.00075 0.0
C65 C 0.81204 0.21516 0.0839 0.0
Fe66 Fe 0.62781 0.81785 0.07348 0.0
Fe67 Fe 0.56434 0.80392 1.00492 0.0
O68 O 0.58581 0.79658 0.0748 0.0
Fe69 Fe 0.56536 0.76798 0.14594 0.0
O70 O 0.58363 0.79752 0.21956 0.0
O71 O 0.63228 0.81707 0.1773 0.0
O72 O 0.62886 0.85548 0.08448 0.0
C73 C 0.61616 0.86543 0.03773 0.0
C74 C 0.61678 0.75857 0.10802 0.0
O75 O 0.59411 0.84624 0.9943 0.0
C76 C 0.52854 0.73704 0.0241 0.0
O77 O 0.63107 0.82245 0.96952 0.0
O78 O 0.58208 0.79249 0.93008 0.0
O79 O 0.59548 0.75574 0.15405 0.0
O80 O 0.62914 0.78151 0.06199 0.0
C81 C 0.52903 0.79861 0.1297 0.0
O82 O 0.53063 0.76293 1.00296 0.0
O83 O 0.54579 0.73667 0.07679 0.0
C84 C 0.6115 0.80677 0.91747 0.0
O85 O 0.54538 0.81588 0.0754 0.0
O86 O 0.53152 0.77499 0.15049 0.0
C87 C 0.61312 0.81317 0.23042 0.0
Fe88 Fe 0.81739 0.62538 0.26933 0.0
Fe89 Fe 0.7702 0.5632 0.19108 0.0
O90 O 0.79864 0.58345 0.26267 0.0
Fe91 Fe 0.80834 0.56172 0.32676 0.0
O92 O 0.79632 0.57627 0.40653 0.0
O93 O 0.82197 0.62661 0.374 0.0
O94 O 0.77973 0.62361 0.28397 0.0
C95 C 0.75723 0.61156 0.237 0.0
C96 C 0.868 0.61716 0.29662 0.0
O97 O 0.75575 0.59174 0.18822 0.0
C98 C 0.80384 0.52961 0.19702 0.0
O99 O 0.81656 0.6318 0.16544 0.0
O100 O 0.79928 0.5841 0.11854 0.0
O101 O 0.85031 0.59303 0.33693 0.0
O102 O 0.85623 0.62983 0.2554 0.0
C103 C 0.74119 0.52275 0.30832 0.0
O104 O 0.7792 0.53087 0.18019 0.0
O105 O 0.82125 0.5458 0.25106 0.0
C106 C 0.81406 0.61377 0.11051 0.0
O107 O 0.73953 0.54086 0.25976 0.0
O108 O 0.76793 0.52642 0.32824 0.0
C109 C 0.80905 0.60513 0.42429 0.0
Fe110 Fe 0.20778 0.81419 0.41845 0.0
Fe111 Fe 0.21869 0.7617 0.355 0.0
O112 O 0.22876 0.79309 0.41944 0.0
Fe113 Fe 0.25992 0.80345 0.4849 0.0
O114 O 0.2331 0.79465 0.56382 0.0
O115 O 0.21161 0.82212 0.52158 0.0
O116 O 0.17035 0.77844 0.43797 0.0
C117 C 0.15872 0.75381 0.39732 0.0
C118 C 0.26789 0.86332 0.44079 0.0
O119 O 0.17614 0.74889 0.35241 0.0
C120 C 0.28611 0.79278 0.36015 0.0
O121 O 0.20013 0.81 0.31537 0.0
O122 O 0.22739 0.78806 0.27496 0.0
O123 O 0.27243 0.84605 0.48716 0.0
O124 O 0.24375 0.85138 0.39855 0.0
C125 C 0.2293 0.73598 0.4808 0.0
O126 O 0.25932 0.76873 0.34591 0.0
O127 O 0.28871 0.81262 0.40974 0.0
C128 C 0.21401 0.80405 0.2625 0.0
O129 O 0.20954 0.73326 0.43094 0.0
O130 O 0.25322 0.76288 0.49501 0.0
C131 C 0.21711 0.8081 0.5751 0.0
C132 C 0.42774 0.22799 0.29451 0.0
C133 C 0.40485 0.21139 0.35079 0.0
C134 C 0.41956 0.22366 0.21803 0.0
C135 C 0.38822 0.20262 0.19537 0.0
C136 C 0.3648 0.18754 0.25131 0.0
C137 C 0.37307 0.19169 0.32847 0.0
C138 C 0.38033 0.19611 0.11343 0.0
C139 C 0.4001 0.19256 0.06616 0.0
C140 C 0.39751 0.1899 0.98203 0.0
C141 C 0.41824 0.18241 0.94402 0.0
C142 C 0.42167 0.18539 0.86561 0.0
C143 C 0.40424 0.19566 0.82277 0.0
H144 H 0.36225 0.20434 0.96575 0.0
C145 C 0.38158 0.20082 0.85943 0.0
C146 C 0.37833 0.19813 0.93873 0.0
H147 H 0.36814 0.20916 0.82766 0.0
H148 H 0.45235 0.24381 0.30927 0.0
H149 H 0.43798 0.23652 0.17641 0.0
H150 H 0.34039 0.17158 0.23527 0.0
H151 H 0.3548 0.1787 0.37031 0.0
H152 H 0.35822 0.19369 0.09298 0.0
H153 H 0.42051 0.19244 0.0909 0.0
H154 H 0.43322 0.17586 0.97548 0.0
H155 H 0.43928 0.18122 0.83874 0.0
C156 C 0.19815 0.41139 0.4756 0.0
C157 C 0.2099 0.39801 0.52768 0.0
C158 C 0.19754 0.40506 0.39825 0.0
C159 C 0.20947 0.38586 0.37146 0.0
C160 C 0.22044 0.37181 0.42378 0.0
C161 C 0.22016 0.37739 0.50149 0.0
C162 C 0.21429 0.38371 0.28926 0.0
C163 C 0.19339 0.38188 0.23691 0.0
C164 C 0.20091 0.38611 0.15491 0.0
C165 C 0.17701 0.36854 0.10186 0.0
C166 C 0.18257 0.37514 0.02439 0.0
C167 C 0.21179 0.40021 0.99909 0.0
H168 H 0.24934 0.42454 0.16894 0.0
C169 C 0.23592 0.41738 0.052 0.0
C170 C 0.23068 0.41014 0.12917 0.0
H171 H 0.25856 0.43696 0.03381 0.0
H172 H 0.19045 0.42764 0.49455 0.0
H173 H 0.18956 0.41678 0.35916 0.0
H174 H 0.23006 0.35723 0.40433 0.0
H175 H 0.22985 0.36725 0.54055 0.0
H176 H 0.23611 0.38465 0.27136 0.0
H177 H 0.17034 0.37802 0.25466 0.0
H178 H 0.15378 0.35017 0.12052 0.0
H179 H 0.16343 0.36186 0.98475 0.0
C180 C 0.81018 0.17982 0.18859 0.0
C181 C 0.81799 0.21026 0.16323 0.0
C182 C 0.81016 0.17375 0.26608 0.0
C183 C 0.81901 0.19822 0.3191 0.0
C184 C 0.82846 0.22905 0.2933 0.0
C185 C 0.82754 0.2349 0.21607 0.0
C186 C 0.81453 0.19061 0.40102 0.0
C187 C 0.83471 0.21018 0.45379 0.0
C188 C 0.82715 0.20586 0.53574 0.0
C189 C 0.85144 0.21367 0.5887 0.0
C190 C 0.84558 0.21391 0.66625 0.0
C191 C 0.81558 0.20743 0.69168 0.0
H192 H 0.77764 0.19218 0.52199 0.0
C193 C 0.79106 0.19883 0.63889 0.0
C194 C 0.79667 0.19766 0.56165 0.0
H195 H 0.76783 0.19402 0.65721 0.0
H196 H 0.80222 0.1603 0.14897 0.0
H197 H 0.80245 0.14975 0.2848 0.0
H198 H 0.83475 0.24824 0.33304 0.0
H199 H 0.83336 0.25848 0.19779 0.0
H200 H 0.79356 0.16871 0.41836 0.0
H201 H 0.85708 0.23056 0.43643 0.0
H202 H 0.87518 0.2204 0.56991 0.0
H203 H 0.865 0.22109 0.70582 0.0
C204 C 0.60911 0.82872 0.36257 0.0
C205 C 0.62426 0.81936 0.30946 0.0
C206 C 0.61543 0.82895 0.43985 0.0
C207 C 0.63647 0.81904 0.46539 0.0
C208 C 0.65232 0.8106 0.4121 0.0
C209 C 0.64668 0.81126 0.33459 0.0
C210 C 0.63896 0.81365 0.54707 0.0
C211 C 0.63888 0.83309 0.60091 0.0
C212 C 0.63541 0.8248 0.68241 0.0
C213 C 0.6516 0.84873 0.73629 0.0
C214 C 0.64545 0.8422 0.81355 0.0
C215 C 0.62218 0.81184 0.83796 0.0
H216 H 0.60001 0.77522 0.66663 0.0
C217 C 0.60649 0.78768 0.7842 0.0
C218 C 0.61333 0.79399 0.70709 0.0
H219 H 0.58825 0.76419 0.80169 0.0
H220 H 0.59147 0.8347 0.34447 0.0
H221 H 0.60236 0.83496 0.47972 0.0
H222 H 0.66837 0.80259 0.43059 0.0
H223 H 0.65825 0.8034 0.29477 0.0
H224 H 0.64007 0.79267 0.56328 0.0
H225 H 0.64072 0.85553 0.58483 0.0
H226 H 0.66844 0.8727 0.71846 0.0
H227 H 0.65751 0.86138 0.85381 0.0
C228 C 0.81948 0.6415 0.53678 0.0
C229 C 0.81566 0.61314 0.50578 0.0
C230 C 0.82708 0.64852 0.61401 0.0
C231 C 0.83193 0.6277 0.66018 0.0
C232 C 0.82845 0.59976 0.62859 0.0
C233 C 0.82 0.59234 0.55297 0.0
C234 C 0.84128 0.63389 0.74108 0.0
C235 C 0.82788 0.64428 0.79188 0.0
C236 C 0.82976 0.64012 0.87538 0.0
C237 C 0.82348 0.65839 0.92687 0.0
C238 C 0.82068 0.65162 1.00492 0.0
C239 C 0.82356 0.62606 0.03244 0.0
H240 H 0.83784 0.59999 0.86737 0.0
C241 C 0.83114 0.60875 0.98145 0.0
C242 C 0.8341 0.61555 0.90424 0.0
H243 H 0.83331 0.58879 1.00092 0.0
H244 H 0.81652 0.65806 0.50154 0.0
H245 H 0.82995 0.67043 0.63695 0.0
H246 H 0.8321 0.58336 0.66285 0.0
H247 H 0.81778 0.57054 0.53092 0.0
H248 H 0.85684 0.62541 0.7608 0.0
H249 H 0.81277 0.65332 0.7721 0.0
H250 H 0.81966 0.6772 0.90643 0.0
H251 H 0.8144 0.66508 0.04285 0.0
C252 C 0.23444 0.81909 0.13063 0.0
C253 C 0.20976 0.81049 0.183 0.0
C254 C 0.22928 0.82099 0.05338 0.0
C255 C 0.19908 0.81351 0.02694 0.0
C256 C 0.17458 0.80554 0.07949 0.0
C257 C 0.18001 0.8046 0.1571 0.0
C258 C 0.19199 0.81015 0.9447 0.0
C259 C 0.21258 0.83015 0.89296 0.0
C260 C 0.20858 0.82337 0.81057 0.0
C261 C 0.21834 0.8484 0.75858 0.0
C262 C 0.21883 0.84299 0.68081 0.0
C263 C 0.21063 0.81263 0.65425 0.0
H264 H 0.19176 0.77301 0.82224 0.0
C265 C 0.20016 0.78745 0.70601 0.0
C266 C 0.19874 0.79266 0.78339 0.0
H267 H 0.19403 0.76392 0.68678 0.0
H268 H 0.2575 0.82352 0.14929 0.0
H269 H 0.24845 0.82655 0.01406 0.0
H270 H 0.15104 0.79934 0.06029 0.0
H271 H 0.16048 0.79748 0.19634 0.0
H272 H 0.16961 0.79011 0.92622 0.0
H273 H 0.23359 0.85173 0.91154 0.0
H274 H 0.22638 0.87232 0.77834 0.0
H275 H 0.22748 0.86288 0.64201 0.0
C276 C 0.40137 0.10505 0.48388 0.0
C277 C 0.39494 0.11848 0.54718 0.0
C278 C 0.38708 0.07204 0.47638 0.0
C279 C 0.36618 0.05172 0.53239 0.0
C280 C 0.36052 0.06519 0.59658 0.0
C281 C 0.37447 0.09813 0.60363 0.0
C282 C 0.35034 0.0165 0.52664 0.0
C283 C 0.34259 1.00072 0.46017 0.0
C284 C 0.32465 0.96542 0.45509 0.0
C285 C 0.30467 0.95088 0.39271 0.0
C286 C 0.28658 0.91778 0.38742 0.0
C287 C 0.28851 0.89838 0.44383 0.0
H288 H 0.34308 0.95636 0.55837 0.0
C289 C 0.30942 0.91293 0.5049 0.0
C290 C 0.32723 0.94605 0.51062 0.0
H291 H 0.31163 0.89875 0.54923 0.0
H292 H 0.41714 0.12003 0.4395 0.0
H293 H 0.39272 0.06258 0.42711 0.0
H294 H 0.34481 0.05014 0.64097 0.0
H295 H 0.36919 0.10764 0.65344 0.0
H296 H 0.34274 1.00311 0.57922 0.0
H297 H 0.34734 0.01396 0.40759 0.0
H298 H 0.30248 0.9652 0.34869 0.0
H299 H 0.27091 0.90739 0.33933 0.0
C300 C 0.40612 0.30471 0.69018 0.0
C301 C 0.39857 0.28419 0.62781 0.0
C302 C 0.39275 0.32424 0.69747 0.0
C303 C 0.37164 0.32376 0.64225 0.0
C304 C 0.36502 0.30408 0.57877 0.0
C305 C 0.37809 0.28434 0.57186 0.0
C306 C 0.35615 0.3434 0.64858 0.0
C307 C 0.34922 0.35192 0.71541 0.0
C308 C 0.33058 0.36848 0.72152 0.0
C309 C 0.31147 0.36304 0.78563 0.0
C310 C 0.29224 0.37673 0.7916 0.0
C311 C 0.2921 0.39666 0.73406 0.0
H312 H 0.34643 0.39477 0.61584 0.0
C313 C 0.31229 0.40324 0.67135 0.0
C314 C 0.33127 0.38925 0.665 0.0
H315 H 0.3129 0.41862 0.62618 0.0
H316 H 0.42197 0.30536 0.73407 0.0
H317 H 0.39916 0.33977 0.7461 0.0
H318 H 0.34911 0.30345 0.535 0.0
H319 H 0.37199 0.26907 0.52272 0.0
H320 H 0.34774 0.34857 0.59648 0.0
H321 H 0.35483 0.34404 0.76776 0.0
H322 H 0.31073 0.34744 0.8304 0.0
H323 H 0.2772 0.37138 0.841 0.0
C324 C 0.9236 0.27645 0.91795 0.0
C325 C 0.9029 0.2868 0.89271 0.0
C326 C 0.9563 0.29511 0.90604 0.0
C327 C 0.96898 0.32466 0.86928 0.0
C328 C 0.94845 0.33557 0.84699 0.0
C329 C 0.91572 0.31671 0.85778 0.0
C330 C 1.0035 0.34469 0.85432 0.0
C331 C 0.02197 0.33223 0.83718 0.0
C332 C 0.05649 0.35169 0.82104 0.0
C333 C 0.07093 0.33875 0.77591 0.0
C334 C 0.10366 0.3555 0.76308 0.0
C335 C 0.1228 0.38544 0.79628 0.0
H336 H 0.06538 0.39245 0.88942 0.0
C337 C 0.10829 0.39862 0.84064 0.0
C338 C 0.0755 0.38197 0.85288 0.0
H339 H 0.12234 0.42158 0.86727 0.0
H340 H 0.91451 0.25358 0.94528 0.0
H341 H 0.97159 0.28641 0.92592 0.0
H342 H 0.95768 0.35842 0.81941 0.0
H343 H 0.90042 0.32548 0.83827 0.0
H344 H 1.01337 0.37024 0.85256 0.0
H345 H 1.01115 0.30664 0.83151 0.0
H346 H 0.05688 0.31542 0.75098 0.0
H347 H 0.11401 0.34454 0.72889 0.0
C348 C 0.65299 0.92223 0.07461 0.0
C349 C 0.63065 0.89999 0.02401 0.0
C350 C 0.66804 0.95475 0.0585 0.0
C351 C 0.66114 0.96565 0.99118 0.0
C352 C 0.6388 0.94344 0.9409 0.0
C353 C 0.62349 0.91103 0.95738 0.0
C354 C 0.67787 0.99978 0.96992 0.0
C355 C 0.68865 0.02332 0.02129 0.0
C356 C 0.70533 0.05748 1.00038 0.0
C357 C 0.70343 0.07905 0.04961 0.0
C358 C 0.72005 0.11155 0.03416 0.0
C359 C 0.73953 0.12337 0.96964 0.0
H360 H 0.7269 0.05326 0.89652 0.0
C361 C 0.74126 0.10176 0.91982 0.0
C362 C 0.72428 0.06913 0.93489 0.0
H363 H 0.75617 0.11009 0.86988 0.0
H364 H 0.65917 0.91451 0.12618 0.0
H365 H 0.68572 0.97115 0.09774 0.0
H366 H 0.6332 0.95117 0.88847 0.0
H367 H 0.6066 0.89459 0.91674 0.0
H368 H 0.67989 1.00554 0.90996 0.0
H369 H 0.6838 0.01744 0.08101 0.0
H370 H 0.68916 0.07075 0.1006 0.0
H371 H 0.71828 0.12746 0.07415 0.0
C372 C 0.7162 0.61847 0.16706 0.0
C373 C 0.73543 0.62447 0.23139 0.0
C374 C 0.69764 0.63283 0.15884 0.0
C375 C 0.69783 0.65342 0.21502 0.0
C376 C 0.71595 0.65829 0.2807 0.0
C377 C 0.73475 0.6442 0.2886 0.0
C378 C 0.67952 0.6702 0.20702 0.0
C379 C 0.67359 0.67912 0.13946 0.0
C380 C 0.65781 0.69841 0.1316 0.0
C381 C 0.66506 0.71851 0.0686 0.0
C382 C 0.65155 0.73783 0.06048 0.0
C383 C 0.63006 0.7371 0.11475 0.0
H384 H 0.62878 0.68115 0.23306 0.0
C385 C 0.62198 0.71618 0.17656 0.0
C386 C 0.63571 0.69707 0.18499 0.0
H387 H 0.60534 0.71483 0.21915 0.0
H388 H 0.71598 0.60322 0.12212 0.0
H389 H 0.68319 0.62771 0.10853 0.0
H390 H 0.71623 0.67373 0.32524 0.0
H391 H 0.74905 0.64911 0.33918 0.0
H392 H 0.67314 0.67774 0.25876 0.0
H393 H 0.68281 0.67434 0.08819 0.0
H394 H 0.68174 0.71977 0.0262 0.0
H395 H 0.65809 0.75345 0.01183 0.0
C396 C 0.91734 0.61979 0.34943 0.0
C397 C 0.90301 0.63344 0.30589 0.0
C398 C 0.95015 0.63632 0.36231 0.0
C399 C 0.96932 0.66695 0.33208 0.0
C400 C 0.95502 0.68036 0.28804 0.0
C401 C 0.92237 0.66376 0.27452 0.0
C402 C 1.00389 0.68634 0.34825 0.0
C403 C 0.02259 0.67397 0.36388 0.0
C404 C 0.05734 0.69418 0.37658 0.0
C405 C 0.07773 0.68338 0.35236 0.0
C406 C 0.11062 0.70252 0.36024 0.0
C407 C 0.1238 0.73265 0.39408 0.0
H408 H 0.05531 0.7326 0.4338 0.0
C409 C 0.10328 0.74289 0.42137 0.0
C410 C 0.07041 0.72393 0.41244 0.0
H411 H 0.1126 0.76589 0.44803 0.0
H412 H 0.90314 0.59654 0.37469 0.0
H413 H 0.96019 0.62545 0.39787 0.0
H414 H 0.96916 0.70393 0.26428 0.0
H415 H 0.91225 0.67512 0.24091 0.0
H416 H 0.01464 0.71194 0.34298 0.0
H417 H 1.01277 0.64843 0.36183 0.0
H418 H 0.06826 0.66041 0.32538 0.0
H419 H 0.12574 0.69379 0.3392 0.0
C420 C 0.54522 0.31232 0.44809 0.0
C421 C 0.52774 0.31133 0.51246 0.0
C422 C 0.57319 0.34023 0.42864 0.0
C423 C 0.58443 0.36761 0.47384 0.0
C424 C 0.56693 0.3666 0.53788 0.0
C425 C 0.53873 0.33896 0.5565 0.0
C426 C 0.61491 0.3971 0.45761 0.0
C427 C 0.62544 0.40708 0.38681 0.0
C428 C 0.65508 0.43737 0.37044 0.0
C429 C 0.65627 0.45472 0.30587 0.0
C430 C 0.68393 0.48288 0.28738 0.0
C431 C 0.71142 0.494 0.332 0.0
H432 H 0.68236 0.43543 0.46544 0.0
C433 C 0.71035 0.47655 0.39656 0.0
C434 C 0.68235 0.44862 0.41601 0.0
H435 H 0.73116 0.48441 0.43182 0.0
H436 H 0.5375 0.2914 0.41325 0.0
H437 H 0.58645 0.34003 0.37964 0.0
H438 H 0.57512 0.3873 0.5738 0.0
H439 H 0.52606 0.33903 0.60688 0.0
H440 H 0.62796 0.41208 0.5053 0.0
H441 H 0.61076 0.39379 0.33896 0.0
H442 H 0.63568 0.44649 0.26962 0.0
H443 H 0.68395 0.49551 0.2368 0.0
C444 C 0.24223 0.54143 0.62696 0.0
C445 C 0.21807 0.51647 0.66898 0.0
C446 C 0.23855 0.56655 0.60105 0.0
C447 C 0.21054 0.56726 0.61639 0.0
C448 C 0.18586 0.54166 0.65536 0.0
C449 C 0.18965 0.51666 0.68198 0.0
C450 C 0.20644 0.59427 0.59202 0.0
C451 C 0.23092 0.62431 0.58859 0.0
C452 C 0.22804 0.65216 0.56521 0.0
C453 C 0.25213 0.68256 0.58649 0.0
C454 C 0.25182 0.70964 0.56148 0.0
C455 C 0.22754 0.70704 0.51367 0.0
H456 H 0.18453 0.62648 0.49999 0.0
C457 C 0.20296 0.67657 0.49366 0.0
C458 C 0.2032 0.64941 0.51902 0.0
H459 H 0.18394 0.67368 0.45668 0.0
H460 H 0.26433 0.54195 0.61536 0.0
H461 H 0.25766 0.58534 0.5689 0.0
H462 H 0.16389 0.54141 0.66701 0.0
H463 H 0.17044 0.49767 0.71356 0.0
H464 H 0.18247 0.58945 0.58144 0.0
H465 H 0.25426 0.6291 0.60651 0.0
H466 H 0.27159 0.68545 0.62185 0.0
H467 H 0.27116 0.73267 0.57812 0.0
C468 C 0.68114 0.20029 0.85941 0.0
C469 C 0.71138 0.22475 0.83752 0.0
C470 C 0.65376 0.19993 0.83346 0.0
C471 C 0.65617 0.22406 0.78506 0.0
C472 C 0.68633 0.24799 0.762 0.0
C473 C 0.71358 0.24825 0.7874 0.0
C474 C 0.62821 0.22649 0.76127 0.0
C475 C 0.59841 0.20172 0.75728 0.0
C476 C 0.57152 0.20571 0.73205 0.0
C477 C 0.54691 0.18172 0.68936 0.0
C478 C 0.52231 0.18583 0.66136 0.0
C479 C 0.52158 0.21382 0.67672 0.0
H480 H 0.58824 0.25173 0.78459 0.0
C481 C 0.54549 0.23719 0.72242 0.0
C482 C 0.5702 0.23321 0.74969 0.0
H483 H 0.54552 0.2589 0.73602 0.0
H484 H 0.6786 0.18188 0.89812 0.0
H485 H 0.63095 0.18142 0.85368 0.0
H486 H 0.6889 0.26688 0.72489 0.0
H487 H 0.73643 0.26745 0.76918 0.0
H488 H 0.63273 0.24976 0.74321 0.0
H489 H 0.59386 0.1778 0.76771 0.0
H490 H 0.54718 0.16014 0.67586 0.0
H491 H 0.50406 0.1672 0.62702 0.0
C492 C 0.478 0.70553 0.95132 0.0
C493 C 0.50282 0.70653 0.99415 0.0
C494 C 0.45258 0.6765 0.92766 0.0
C495 C 0.4515 0.64784 0.94613 0.0
C496 C 0.47689 0.64891 0.98619 0.0
C497 C 0.50217 0.67791 0.01056 0.0
C498 C 0.42439 0.61657 0.92364 0.0
C499 C 0.3945 0.61123 0.91877 0.0
C500 C 0.36678 0.58024 0.89692 0.0
C501 C 0.33634 0.57376 0.91821 0.0
C502 C 0.30943 0.54587 0.89486 0.0
C503 C 0.3123 0.52391 0.84873 0.0
H504 H 0.39273 0.56235 0.83303 0.0
C505 C 0.34282 0.53007 0.82849 0.0
C506 C 0.36978 0.55795 0.85217 0.0
H507 H 0.3459 0.51373 0.79276 0.0
H508 H 0.47787 0.72713 0.93719 0.0
H509 H 0.43391 0.67662 0.89464 0.0
H510 H 0.47683 0.6272 1.00024 0.0
H511 H 0.52107 0.67787 0.04282 0.0
H512 H 0.42902 0.59714 0.91563 0.0
H513 H 0.38977 0.63007 0.93432 0.0
H514 H 0.33332 0.59055 0.95239 0.0
H515 H 0.28633 0.54197 0.91145 0.0
C516 C 0.78597 0.48104 0.11722 0.0
C517 C 0.80964 0.50549 0.16116 0.0
C518 C 0.79022 0.45654 0.08955 0.0
C519 C 0.81832 0.45604 0.10501 0.0
C520 C 0.84264 0.48132 0.14533 0.0
C521 C 0.83828 0.50568 0.17374 0.0
C522 C 0.82254 0.42918 0.08078 0.0
C523 C 0.79818 0.39909 0.08017 0.0
C524 C 0.80108 0.3711 0.05924 0.0
C525 C 0.77776 0.34113 0.08517 0.0
C526 C 0.77802 0.31378 0.06287 0.0
C527 C 0.80145 0.31566 0.01313 0.0
H528 H 0.8432 0.39582 0.98879 0.0
C529 C 0.82534 0.34574 0.98847 0.0
C530 C 0.82516 0.37322 0.0112 0.0
H531 H 0.84367 0.34803 0.94989 0.0
H532 H 0.76376 0.48032 0.10585 0.0
H533 H 0.7714 0.43792 0.05646 0.0
H534 H 0.86467 0.48169 0.15708 0.0
H535 H 0.85714 0.52438 0.20666 0.0
H536 H 0.84646 0.43406 0.06909 0.0
H537 H 0.77501 0.3944 0.09941 0.0
H538 H 0.75894 0.33879 0.12214 0.0
H539 H 0.75926 0.29106 0.08313 0.0
C540 C 0.4802 0.78035 0.20912 0.0
C541 C 0.50396 0.80369 0.16292 0.0
C542 C 0.45542 0.78422 0.23651 0.0
C543 C 0.45389 0.8116 0.21851 0.0
C544 C 0.47829 0.8355 0.17507 0.0
C545 C 0.50293 0.8315 0.14696 0.0
C546 C 0.42714 0.81577 0.24438 0.0
C547 C 0.39738 0.79108 0.25109 0.0
C548 C 0.36965 0.79397 0.27499 0.0
C549 C 0.33923 0.76968 0.25477 0.0
C550 C 0.31227 0.77004 0.28008 0.0
C551 C 0.315 0.79454 0.32729 0.0
H552 H 0.39559 0.83787 0.33866 0.0
C553 C 0.34549 0.81931 0.34638 0.0
C554 C 0.37258 0.81904 0.32055 0.0
H555 H 0.34847 0.83848 0.38288 0.0
H556 H 0.4804 0.75877 0.22311 0.0
H557 H 0.43755 0.76576 0.27194 0.0
H558 H 0.47788 0.85699 0.16122 0.0
H559 H 0.52104 0.85011 0.11222 0.0
H560 H 0.43175 0.8398 0.25291 0.0
H561 H 0.39266 0.76755 0.23505 0.0
H562 H 0.33625 0.75006 0.21989 0.0
H563 H 0.28923 0.75055 0.26411 0.0
loop_
_geom_bond_atom_site_label_1
_geom_bond_atom_site_label_2
_geom_bond_distance
_geom_bond_site_symmetry_2
_ccdc_geom_bond_type
Fe0 O2 1.918 . S
Fe0 O5 1.997 . S
Fe0 O6 2.002 . S
Fe0 O11 1.976 . S
Fe0 O14 1.996 . S
Fe1 O2 1.918 . S
Fe1 O9 1.997 . S
Fe1 O12 1.996 . S
Fe1 O16 1.976 . S
Fe1 O19 2.002 . S
O2 Fe0 1.918 . S
O2 Fe1 1.918 . S
O2 Fe3 1.918 . S
Fe3 O2 1.918 . S
Fe3 O4 2.002 . S
Fe3 O13 1.976 . S
Fe3 O17 1.996 . S
Fe3 O20 1.997 . S
O4 Fe3 2.002 . S
O4 C21 1.295 . S
O5 Fe0 1.997 . S
O5 C21 1.235 . S
O6 Fe0 2.002 . S
O6 C7 1.295 . S
C7 O6 1.295 . S
C7 O9 1.235 . S
C8 O13 1.287 . S
C8 O14 1.255 . S
O9 Fe1 1.997 . S
O9 C7 1.235 . S
C10 O16 1.287 . S
C10 O17 1.255 . S
O11 Fe0 1.976 . S
O11 C18 1.287 . S
O12 Fe1 1.996 . S
O12 C18 1.255 . S
O13 Fe3 1.976 . S
O13 C8 1.287 . S
O14 Fe0 1.996 . S
O14 C8 1.255 . S
C15 O19 1.295 . S
C15 O20 1.235 . S
O16 Fe1 1.976 . S
O16 C10 1.287 . S
O17 Fe3 1.996 . S
O17 C10 1.255 . S
C18 O11 1.287 . S
C18 O12 1.255 . S
O19 Fe1 2.002 . S
O19 C15 1.295 . S
O20 Fe3 1.997 . S
O20 C15 1.235 . S
C21 O4 1.295 . S
C21 O5 1.235 . S
Fe22 O24 1.918 . S
Fe22 O27 1.997 . S
Fe22 O28 2.002 . S
Fe22 O33 1.976 . S
Fe22 O36 1.996 . S
Fe23 O24 1.918 . S
Fe23 O31 1.997 . S
Fe23 O34 1.996 . S
Fe23 O38 1.976 . S
Fe23 O41 2.002 . S
O24 Fe22 1.918 . S
O24 Fe23 1.918 . S
O24 Fe25 1.918 . S
Fe25 O24 1.918 . S
Fe25 O26 2.002 . S
Fe25 O35 1.976 . S
Fe25 O39 1.996 . S
Fe25 O42 1.997 . S
O26 Fe25 2.002 . S
O26 C43 1.295 . S
O27 Fe22 1.997 . S
O27 C43 1.235 . S
O28 Fe22 2.002 . S
O28 C29 1.295 . S
C29 O28 1.295 . S
C29 O31 1.235 . S
C30 O35 1.287 . S
C30 O36 1.255 . S
O31 Fe23 1.997 . S
O31 C29 1.235 . S
C32 O38 1.287 . S
C32 O39 1.255 . S
O33 Fe22 1.976 . S
O33 C40 1.287 . S
O34 Fe23 1.996 . S
O34 C40 1.255 . S
O35 Fe25 1.976 . S
O35 C30 1.287 . S
O36 Fe22 1.996 . S
O36 C30 1.255 . S
C37 O41 1.295 . S
C37 O42 1.235 . S
O38 Fe23 1.976 . S
O38 C32 1.287 . S
O39 Fe25 1.996 . S
O39 C32 1.255 . S
C40 O33 1.287 . S
C40 O34 1.255 . S
O41 Fe23 2.002 . S
O41 C37 1.295 . S
O42 Fe25 1.997 . S
O42 C37 1.235 . S
C43 O26 1.295 . S
C43 O27 1.235 . S
Fe44 O46 1.918 . S
Fe44 O49 1.997 1_556 S
Fe44 O50 2.002 . S
Fe44 O55 1.976 . S
Fe44 O58 1.996 . S
Fe45 O46 1.918 . S
Fe45 O53 1.997 . S
Fe45 O56 1.996 . S
Fe45 O60 1.976 . S
Fe45 O63 2.002 . S
O46 Fe44 1.918 . S
O46 Fe45 1.918 . S
O46 Fe47 1.918 . S
Fe47 O46 1.918 . S
Fe47 O48 2.002 1_556 S
Fe47 O57 1.976 . S
Fe47 O61 1.996 . S
Fe47 O64 1.997 1_556 S
O48 Fe47 2.002 1_554 S
O48 C65 1.295 . S
O49 Fe44 1.997 1_554 S
O49 C65 1.235 . S
O50 Fe44 2.002 . S
O50 C51 1.295 . S
C51 O50 1.295 . S
C51 O53 1.235 . S
C52 O57 1.287 . S
C52 O58 1.255 . S
O53 Fe45 1.997 . S
O53 C51 1.235 . S
C54 O60 1.287 . S
C54 O61 1.255 . S
O55 Fe44 1.976 . S
O55 C62 1.287 . S
O56 Fe45 1.996 . S
O56 C62 1.255 . S
O57 Fe47 1.976 . S
O57 C52 1.287 . S
O58 Fe44 1.996 . S
O58 C52 1.255 . S
C59 O63 1.295 . S
C59 O64 1.235 1_556 S
O60 Fe45 1.976 . S
O60 C54 1.287 . S
O61 Fe47 1.996 . S
O61 C54 1.255 . S
C62 O55 1.287 . S
C62 O56 1.255 . S
O63 Fe45 2.002 . S
O63 C59 1.295 . S
O64 Fe47 1.997 1_554 S
O64 C59 1.235 1_554 S
C65 O48 1.295 . S
C65 O49 1.235 . S
Fe66 O68 1.918 . S
Fe66 O71 1.997 . S
Fe66 O72 2.002 . S
Fe66 O77 1.976 1_554 S
Fe66 O80 1.996 . S
Fe67 O68 1.918 . S
Fe67 O75 1.997 . S
Fe67 O78 1.996 1_554 S
Fe67 O82 1.976 1_554 S
Fe67 O85 2.002 . S
O68 Fe66 1.918 . S
O68 Fe67 1.918 . S
O68 Fe69 1.918 . S
Fe69 O68 1.918 . S
Fe69 O70 2.002 . S
Fe69 O79 1.976 . S
Fe69 O83 1.996 . S
Fe69 O86 1.997 . S
O70 Fe69 2.002 . S
O70 C87 1.295 . S
O71 Fe66 1.997 . S
O71 C87 1.235 . S
O72 Fe66 2.002 . S
O72 C73 1.295 . S
C73 O72 1.295 . S
C73 O75 1.235 . S
C74 O79 1.287 . S
C74 O80 1.255 . S
O75 Fe67 1.997 . S
O75 C73 1.235 . S
C76 O82 1.287 1_554 S
C76 O83 1.255 . S
O77 Fe66 1.976 1_556 S
O77 C84 1.287 . S
O78 Fe67 1.996 1_556 S
O78 C84 1.255 . S
O79 Fe69 1.976 . S
O79 C74 1.287 . S
O80 Fe66 1.996 . S
O80 C74 1.255 . S
C81 O85 1.295 . S
C81 O86 1.235 . S
O82 Fe67 1.976 1_556 S
O82 C76 1.287 1_556 S
O83 Fe69 1.996 . S
O83 C76 1.255 . S
C84 O77 1.287 . S
C84 O78 1.255 . S
O85 Fe67 2.002 . S
O85 C81 1.295 . S
O86 Fe69 1.997 . S
O86 C81 1.235 . S
C87 O70 1.295 . S
C87 O71 1.235 . S
Fe88 O90 1.918 . S
Fe88 O93 1.997 . S
Fe88 O94 2.002 . S
Fe88 O99 1.976 . S
Fe88 O102 1.996 . S
Fe89 O90 1.918 . S
Fe89 O97 1.997 . S
Fe89 O100 1.996 . S
Fe89 O104 1.976 . S
Fe89 O107 2.002 . S
O90 Fe88 1.918 . S
O90 Fe89 1.918 . S
O90 Fe91 1.918 . S
Fe91 O90 1.918 . S
Fe91 O92 2.002 . S
Fe91 O101 1.976 . S
Fe91 O105 1.996 . S
Fe91 O108 1.997 . S
O92 Fe91 2.002 . S
O92 C109 1.295 . S
O93 Fe88 1.997 . S
O93 C109 1.235 . S
O94 Fe88 2.002 . S
O94 C95 1.295 . S
C95 O94 1.295 . S
C95 O97 1.235 . S
C96 O101 1.287 . S
C96 O102 1.255 . S
O97 Fe89 1.997 . S
O97 C95 1.235 . S
C98 O104 1.287 . S
C98 O105 1.255 . S
O99 Fe88 1.976 . S
O99 C106 1.287 . S
O100 Fe89 1.996 . S
O100 C106 1.255 . S
O101 Fe91 1.976 . S
O101 C96 1.287 . S
O102 Fe88 1.996 . S
O102 C96 1.255 . S
C103 O107 1.295 . S
C103 O108 1.235 . S
O104 Fe89 1.976 . S
O104 C98 1.287 . S
O105 Fe91 1.996 . S
O105 C98 1.255 . S
C106 O99 1.287 . S
C106 O100 1.255 . S
O107 Fe89 2.002 . S
O107 C103 1.295 . S
O108 Fe91 1.997 . S
O108 C103 1.235 . S
C109 O92 1.295 . S
C109 O93 1.235 . S
Fe110 O112 1.918 . S
Fe110 O115 1.997 . S
Fe110 O116 2.002 . S
Fe110 O121 1.976 . S
Fe110 O124 1.996 . S
Fe111 O112 1.918 . S
Fe111 O119 1.997 . S
Fe111 O122 1.996 . S
Fe111 O126 1.976 . S
Fe111 O129 2.002 . S
O112 Fe110 1.918 . S
O112 Fe111 1.918 . S
O112 Fe113 1.918 . S
Fe113 O112 1.918 . S
Fe113 O114 2.002 . S
Fe113 O123 1.976 . S
Fe113 O127 1.996 . S
Fe113 O130 1.997 . S
O114 Fe113 2.002 . S
O114 C131 1.295 . S
O115 Fe110 1.997 . S
O115 C131 1.235 . S
O116 Fe110 2.002 . S
O116 C117 1.295 . S
C117 O116 1.295 . S
C117 O119 1.235 . S
C118 O123 1.287 . S
C118 O124 1.255 . S
O119 Fe111 1.997 . S
O119 C117 1.235 . S
C120 O126 1.287 . S
C120 O127 1.255 . S
O121 Fe110 1.976 . S
O121 C128 1.287 . S
O122 Fe111 1.996 . S
O122 C128 1.255 . S
O123 Fe113 1.976 . S
O123 C118 1.287 . S
O124 Fe110 1.996 . S
O124 C118 1.255 . S
C125 O129 1.295 . S
C125 O130 1.235 . S
O126 Fe111 1.976 . S
O126 C120 1.287 . S
O127 Fe113 1.996 . S
O127 C120 1.255 . S
C128 O121 1.287 . S
C128 O122 1.255 . S
O129 Fe111 2.002 . S
O129 C125 1.295 . S
O130 Fe113 1.997 . S
O130 C125 1.235 . S
C131 O114 1.295 . S
C131 O115 1.235 . S
C132 C133 1.386 . S
C132 C134 1.383 . S
C132 H148 0.951 . S
C133 C132 1.386 . S
C133 C137 1.383 . S
C134 C132 1.383 . S
C134 C135 1.402 . S
C134 H149 0.951 . S
C135 C134 1.402 . S
C135 C136 1.375 . S
C135 C138 1.481 . S
C136 C135 1.375 . S
C136 C137 1.367 . S
C136 H150 0.951 . S
C137 C133 1.383 . S
C137 C136 1.367 . S
C137 H151 0.950 . S
C138 C135 1.481 . S
C138 C139 1.297 . S
C138 H152 0.950 . S
C139 C138 1.297 . S
C139 C140 1.479 1_554 S
C139 H153 0.950 . S
C140 C139 1.479 1_556 S
C140 C141 1.375 . S
C140 C146 1.404 . S
C141 C140 1.375 . S
C141 C142 1.369 . S
C141 H154 0.950 . S
C142 C141 1.369 . S
C142 C143 1.392 . S
C142 H155 0.951 . S
C143 C142 1.392 . S
C143 C145 1.384 . S
H144 C146 0.949 . S
C145 C143 1.384 . S
C145 C146 1.385 . S
C145 H147 0.950 . S
C146 C140 1.404 . S
C146 H144 0.949 . S
C146 C145 1.385 . S
H147 C145 0.950 . S
H148 C132 0.951 . S
H149 C134 0.951 . S
H150 C136 0.951 . S
H151 C137 0.950 . S
H152 C138 0.950 . S
H153 C139 0.950 . S
H154 C141 0.950 . S
H155 C142 0.951 . S
C156 C157 1.386 . S
C156 C158 1.383 . S
C156 H172 0.951 . S
C157 C156 1.386 . S
C157 C161 1.383 . S
C158 C156 1.383 . S
C158 C159 1.402 . S
C158 H173 0.951 . S
C159 C158 1.402 . S
C159 C160 1.375 . S
C159 C162 1.481 . S
C160 C159 1.375 . S
C160 C161 1.367 . S
C160 H174 0.951 . S
C161 C157 1.383 . S
C161 C160 1.367 . S
C161 H175 0.950 . S
C162 C159 1.481 . S
C162 C163 1.297 . S
C162 H176 0.950 . S
C163 C162 1.297 . S
C163 C164 1.479 . S
C163 H177 0.950 . S
C164 C163 1.479 . S
C164 C165 1.375 . S
C164 C170 1.404 . S
C165 C164 1.375 . S
C165 C166 1.369 . S
C165 H178 0.950 . S
C166 C165 1.369 . S
C166 C167 1.392 1_554 S
C166 H179 0.951 1_554 S
C167 C166 1.392 1_556 S
C167 C169 1.384 1_556 S
H168 C170 0.949 . S
C169 C167 1.384 1_554 S
C169 C170 1.385 . S
C169 H171 0.950 . S
C170 C164 1.404 . S
C170 H168 0.949 . S
C170 C169 1.385 . S
H171 C169 0.950 . S
H172 C156 0.951 . S
H173 C158 0.951 . S
H174 C160 0.951 . S
H175 C161 0.950 . S
H176 C162 0.950 . S
H177 C163 0.950 . S
H178 C165 0.950 . S
H179 C166 0.951 1_556 S
C180 C181 1.386 . S
C180 C182 1.383 . S
C180 H196 0.951 . S
C181 C180 1.386 . S
C181 C185 1.383 . S
C182 C180 1.383 . S
C182 C183 1.402 . S
C182 H197 0.951 . S
C183 C182 1.402 . S
C183 C184 1.375 . S
C183 C186 1.481 . S
C184 C183 1.375 . S
C184 C185 1.367 . S
C184 H198 0.951 . S
C185 C181 1.383 . S
C185 C184 1.367 . S
C185 H199 0.950 . S
C186 C183 1.481 . S
C186 C187 1.297 . S
C186 H200 0.950 . S
C187 C186 1.297 . S
C187 C188 1.479 . S
C187 H201 0.950 . S
C188 C187 1.479 . S
C188 C189 1.375 . S
C188 C194 1.404 . S
C189 C188 1.375 . S
C189 C190 1.369 . S
C189 H202 0.950 . S
C190 C189 1.369 . S
C190 C191 1.392 . S
C190 H203 0.951 . S
C191 C190 1.392 . S
C191 C193 1.384 . S
H192 C194 0.949 . S
C193 C191 1.384 . S
C193 C194 1.385 . S
C193 H195 0.950 . S
C194 C188 1.404 . S
C194 H192 0.949 . S
C194 C193 1.385 . S
H195 C193 0.950 . S
H196 C180 0.951 . S
H197 C182 0.951 . S
H198 C184 0.951 . S
H199 C185 0.950 . S
H200 C186 0.950 . S
H201 C187 0.950 . S
H202 C189 0.950 . S
H203 C190 0.951 . S
C204 C205 1.386 . S
C204 C206 1.383 . S
C204 H220 0.951 . S
C205 C204 1.386 . S
C205 C209 1.383 . S
C206 C204 1.383 . S
C206 C207 1.402 . S
C206 H221 0.951 . S
C207 C206 1.402 . S
C207 C208 1.375 . S
C207 C210 1.481 . S
C208 C207 1.375 . S
C208 C209 1.367 . S
C208 H222 0.951 . S
C209 C205 1.383 . S
C209 C208 1.367 . S
C209 H223 0.950 . S
C210 C207 1.481 . S
C210 C211 1.297 . S
C210 H224 0.950 . S
C211 C210 1.297 . S
C211 C212 1.479 . S
C211 H225 0.950 . S
C212 C211 1.479 . S
C212 C213 1.375 . S
C212 C218 1.404 . S
C213 C212 1.375 . S
C213 C214 1.369 . S
C213 H226 0.950 . S
C214 C213 1.369 . S
C214 C215 1.392 . S
C214 H227 0.951 . S
C215 C214 1.392 . S
C215 C217 1.384 . S
H216 C218 0.949 . S
C217 C215 1.384 . S
C217 C218 1.385 . S
C217 H219 0.950 . S
C218 C212 1.404 . S
C218 H216 0.949 . S
C218 C217 1.385 . S
H219 C217 0.950 . S
H220 C204 0.951 . S
H221 C206 0.951 . S
H222 C208 0.951 . S
H223 C209 0.950 . S
H224 C210 0.950 . S
H225 C211 0.950 . S
H226 C213 0.950 . S
H227 C214 0.951 . S
C228 C229 1.386 . S
C228 C230 1.383 . S
C228 H244 0.951 . S
C229 C228 1.386 . S
C229 C233 1.383 . S
C230 C228 1.383 . S
C230 C231 1.402 . S
C230 H245 0.951 . S
C231 C230 1.402 . S
C231 C232 1.375 . S
C231 C234 1.481 . S
C232 C231 1.375 . S
C232 C233 1.367 . S
C232 H246 0.951 . S
C233 C229 1.383 . S
C233 C232 1.367 . S
C233 H247 0.950 . S
C234 C231 1.481 . S
C234 C235 1.297 . S
C234 H248 0.950 . S
C235 C234 1.297 . S
C235 C236 1.479 . S
C235 H249 0.950 . S
C236 C235 1.479 . S
C236 C237 1.375 . S
C236 C242 1.404 . S
C237 C236 1.375 . S
C237 C238 1.369 . S
C237 H250 0.950 . S
C238 C237 1.369 . S
C238 C239 1.392 1_556 S
C238 H251 0.950 1_556 S
C239 C238 1.392 1_554 S
C239 C241 1.384 1_554 S
H240 C242 0.949 . S
C241 C239 1.384 1_556 S
C241 C242 1.385 . S
C241 H243 0.950 . S
C242 C236 1.404 . S
C242 H240 0.949 . S
C242 C241 1.385 . S
H243 C241 0.950 . S
H244 C228 0.951 . S
H245 C230 0.951 . S
H246 C232 0.951 . S
H247 C233 0.950 . S
H248 C234 0.950 . S
H249 C235 0.950 . S
H250 C237 0.950 . S
H251 C238 0.950 1_554 S
C252 C253 1.386 . S
C252 C254 1.383 . S
C252 H268 0.951 . S
C253 C252 1.386 . S
C253 C257 1.383 . S
C254 C252 1.383 . S
C254 C255 1.402 . S
C254 H269 0.951 . S
C255 C254 1.402 . S
C255 C256 1.375 . S
C255 C258 1.481 1_554 S
C256 C255 1.375 . S
C256 C257 1.367 . S
C256 H270 0.951 . S
C257 C253 1.383 . S
C257 C256 1.367 . S
C257 H271 0.950 . S
C258 C255 1.481 1_556 S
C258 C259 1.297 . S
C258 H272 0.950 . S
C259 C258 1.297 . S
C259 C260 1.479 . S
C259 H273 0.950 . S
C260 C259 1.479 . S
C260 C261 1.375 . S
C260 C266 1.404 . S
C261 C260 1.375 . S
C261 C262 1.369 . S
C261 H274 0.950 . S
C262 C261 1.369 . S
C262 C263 1.392 . S
C262 H275 0.951 . S
C263 C262 1.392 . S
C263 C265 1.384 . S
H264 C266 0.949 . S
C265 C263 1.384 . S
C265 C266 1.385 . S
C265 H267 0.950 . S
C266 C260 1.404 . S
C266 H264 0.949 . S
C266 C265 1.385 . S
H267 C265 0.950 . S
H268 C252 0.951 . S
H269 C254 0.951 . S
H270 C256 0.951 . S
H271 C257 0.950 . S
H272 C258 0.950 . S
H273 C259 0.950 . S
H274 C261 0.950 . S
H275 C262 0.951 . S
C276 C277 1.386 . S
C276 C278 1.383 . S
C276 H292 0.951 . S
C277 C276 1.386 . S
C277 C281 1.383 . S
C278 C276 1.383 . S
C278 C279 1.402 . S
C278 H293 0.951 . S
C279 C278 1.402 . S
C279 C280 1.375 . S
C279 C282 1.481 . S
C280 C279 1.375 . S
C280 C281 1.367 . S
C280 H294 0.951 . S
C281 C277 1.383 . S
C281 C280 1.367 . S
C281 H295 0.950 . S
C282 C279 1.481 . S
C282 C283 1.297 1_545 S
C282 H296 0.967 . S
C283 C282 1.297 1_565 S
C283 C284 1.479 . S
C283 H297 0.950 1_565 S
C284 C283 1.479 . S
C284 C285 1.375 . S
C284 C290 1.404 . S
C285 C284 1.375 . S
C285 C286 1.369 . S
C285 H298 0.950 . S
C286 C285 1.369 . S
C286 C287 1.392 . S
C286 H299 0.951 . S
C287 C286 1.392 . S
C287 C289 1.384 . S
H288 C290 0.949 . S
C289 C287 1.384 . S
C289 C290 1.385 . S
C289 H291 0.950 . S
C290 C284 1.404 . S
C290 H288 0.949 . S
C290 C289 1.385 . S
H291 C289 0.950 . S
H292 C276 0.951 . S
H293 C278 0.951 . S
H294 C280 0.951 . S
H295 C281 0.950 . S
H296 C282 0.967 . S
H297 C283 0.950 1_545 S
H298 C285 0.950 . S
H299 C286 0.951 . S
C300 C301 1.386 . S
C300 C302 1.383 . S
C300 H316 0.951 . S
C301 C300 1.386 . S
C301 C305 1.383 . S
C302 C300 1.383 . S
C302 C303 1.402 . S
C302 H317 0.951 . S
C303 C302 1.402 . S
C303 C304 1.375 . S
C303 C306 1.481 . S
C304 C303 1.375 . S
C304 C305 1.367 . S
C304 H318 0.951 . S
C305 C301 1.383 . S
C305 C304 1.367 . S
C305 H319 0.950 . S
C306 C303 1.481 . S
C306 C307 1.297 . S
C306 H320 0.950 . S
C307 C306 1.297 . S
C307 C308 1.479 . S
C307 H321 0.950 . S
C308 C307 1.479 . S
C308 C309 1.375 . S
C308 C314 1.404 . S
C309 C308 1.375 . S
C309 C310 1.369 . S
C309 H322 0.950 . S
C310 C309 1.369 . S
C310 C311 1.392 . S
C310 H323 0.951 . S
C311 C310 1.392 . S
C311 C313 1.384 . S
H312 C314 0.949 . S
C313 C311 1.384 . S
C313 C314 1.385 . S
C313 H315 0.950 . S
C314 C308 1.404 . S
C314 H312 0.949 . S
C314 C313 1.385 . S
H315 C313 0.950 . S
H316 C300 0.951 . S
H317 C302 0.951 . S
H318 C304 0.951 . S
H319 C305 0.950 . S
H320 C306 0.950 . S
H321 C307 0.950 . S
H322 C309 0.950 . S
H323 C310 0.951 . S
C324 C325 1.386 . S
C324 C326 1.383 . S
C324 H340 0.951 . S
C325 C324 1.386 . S
C325 C329 1.383 . S
C326 C324 1.383 . S
C326 C327 1.402 . S
C326 H341 0.951 . S
C327 C326 1.402 . S
C327 C328 1.375 . S
C327 C330 1.481 . S
C328 C327 1.375 . S
C328 C329 1.367 . S
C328 H342 0.951 . S
C329 C325 1.383 . S
C329 C328 1.367 . S
C329 H343 0.950 . S
C330 C327 1.481 . S
C330 C331 1.297 1_655 S
C330 H344 0.950 . S
C331 C330 1.297 1_455 S
C331 C332 1.479 . S
C331 H345 0.950 1_455 S
C332 C331 1.479 . S
C332 C333 1.375 . S
C332 C338 1.404 . S
C333 C332 1.375 . S
C333 C334 1.369 . S
C333 H346 0.950 . S
C334 C333 1.369 . S
C334 C335 1.392 . S
C334 H347 0.951 . S
C335 C334 1.392 . S
C335 C337 1.384 . S
H336 C338 0.949 . S
C337 C335 1.384 . S
C337 C338 1.385 . S
C337 H339 0.950 . S
C338 C332 1.404 . S
C338 H336 0.949 . S
C338 C337 1.385 . S
H339 C337 0.950 . S
H340 C324 0.951 . S
H341 C326 0.951 . S
H342 C328 0.951 . S
H343 C329 0.950 . S
H344 C330 0.950 . S
H345 C331 0.950 1_655 S
H346 C333 0.950 . S
H347 C334 0.951 . S
C348 C349 1.386 . S
C348 C350 1.383 . S
C348 H364 0.951 . S
C349 C348 1.386 . S
C349 C353 1.383 1_554 S
C350 C348 1.383 . S
C350 C351 1.402 1_554 S
C350 H365 0.951 . S
C351 C350 1.402 1_556 S
C351 C352 1.375 . S
C351 C354 1.481 . S
C352 C351 1.375 . S
C352 C353 1.367 . S
C352 H366 0.951 . S
C353 C349 1.383 1_556 S
C353 C352 1.367 . S
C353 H367 0.950 . S
C354 C351 1.481 . S
C354 C355 1.297 1_566 S
C354 H368 0.950 . S
C355 C354 1.297 1_544 S
C355 C356 1.479 1_554 S
C355 H369 0.950 . S
C356 C355 1.479 1_556 S
C356 C357 1.375 1_556 S
C356 C362 1.404 . S
C357 C356 1.375 1_554 S
C357 C358 1.369 . S
C357 H370 0.950 . S
C358 C357 1.369 . S
C358 C359 1.392 1_554 S
C358 H371 0.951 . S
C359 C358 1.392 1_556 S
C359 C361 1.384 . S
H360 C362 0.949 . S
C361 C359 1.384 . S
C361 C362 1.385 . S
C361 H363 0.950 . S
C362 C356 1.404 . S
C362 H360 0.949 . S
C362 C361 1.385 . S
H363 C361 0.950 . S
H364 C348 0.951 . S
H365 C350 0.951 . S
H366 C352 0.951 . S
H367 C353 0.950 . S
H368 C354 0.950 . S
H369 C355 0.950 . S
H370 C357 0.950 . S
H371 C358 0.951 . S
C372 C373 1.386 . S
C372 C374 1.383 . S
C372 H388 0.951 . S
C373 C372 1.386 . S
C373 C377 1.383 . S
C374 C372 1.383 . S
C374 C375 1.402 . S
C374 H389 0.951 . S
C375 C374 1.402 . S
C375 C376 1.375 . S
C375 C378 1.481 . S
C376 C375 1.375 . S
C376 C377 1.367 . S
C376 H390 0.951 . S
C377 C373 1.383 . S
C377 C376 1.367 . S
C377 H391 0.950 . S
C378 C375 1.481 . S
C378 C379 1.297 . S
C378 H392 0.950 . S
C379 C378 1.297 . S
C379 C380 1.479 . S
C379 H393 0.950 . S
C380 C379 1.479 . S
C380 C381 1.375 . S
C380 C386 1.404 . S
C381 C380 1.375 . S
C381 C382 1.369 . S
C381 H394 0.950 . S
C382 C381 1.369 . S
C382 C383 1.392 . S
C382 H395 0.951 . S
C383 C382 1.392 . S
C383 C385 1.384 . S
H384 C386 0.949 . S
C385 C383 1.384 . S
C385 C386 1.385 . S
C385 H387 0.950 . S
C386 C380 1.404 . S
C386 H384 0.949 . S
C386 C385 1.385 . S
H387 C385 0.950 . S
H388 C372 0.951 . S
H389 C374 0.951 . S
H390 C376 0.951 . S
H391 C377 0.950 . S
H392 C378 0.950 . S
H393 C379 0.950 . S
H394 C381 0.950 . S
H395 C382 0.951 . S
C396 C397 1.386 . S
C396 C398 1.383 . S
C396 H412 0.951 . S
C397 C396 1.386 . S
C397 C401 1.383 . S
C398 C396 1.383 . S
C398 C399 1.402 . S
C398 H413 0.951 . S
C399 C398 1.402 . S
C399 C400 1.375 . S
C399 C402 1.481 . S
C400 C399 1.375 . S
C400 C401 1.367 . S
C400 H414 0.951 . S
C401 C397 1.383 . S
C401 C400 1.367 . S
C401 H415 0.950 . S
C402 C399 1.481 . S
C402 C403 1.297 1_655 S
C402 H416 0.950 1_655 S
C403 C402 1.297 1_455 S
C403 C404 1.479 . S
C403 H417 0.950 . S
C404 C403 1.479 . S
C404 C405 1.375 . S
C404 C410 1.404 . S
C405 C404 1.375 . S
C405 C406 1.369 . S
C405 H418 0.950 . S
C406 C405 1.369 . S
C406 C407 1.392 . S
C406 H419 0.951 . S
C407 C406 1.392 . S
C407 C409 1.384 . S
H408 C410 0.949 . S
C409 C407 1.384 . S
C409 C410 1.385 . S
C409 H411 0.950 . S
C410 C404 1.404 . S
C410 H408 0.949 . S
C410 C409 1.385 . S
H411 C409 0.950 . S
H412 C396 0.951 . S
H413 C398 0.951 . S
H414 C400 0.951 . S
H415 C401 0.950 . S
H416 C402 0.950 1_455 S
H417 C403 0.950 . S
H418 C405 0.950 . S
H419 C406 0.951 . S
C420 C421 1.386 . S
C420 C422 1.383 . S
C420 H436 0.951 . S
C421 C420 1.386 . S
C421 C425 1.383 . S
C422 C420 1.383 . S
C422 C423 1.402 . S
C422 H437 0.951 . S
C423 C422 1.402 . S
C423 C424 1.375 . S
C423 C426 1.481 . S
C424 C423 1.375 . S
C424 C425 1.367 . S
C424 H438 0.951 . S
C425 C421 1.383 . S
C425 C424 1.367 . S
C425 H439 0.950 . S
C426 C423 1.481 . S
C426 C427 1.297 . S
C426 H440 0.950 . S
C427 C426 1.297 . S
C427 C428 1.479 . S
C427 H441 0.950 . S
C428 C427 1.479 . S
C428 C429 1.375 . S
C428 C434 1.404 . S
C429 C428 1.375 . S
C429 C430 1.369 . S
C429 H442 0.950 . S
C430 C429 1.369 . S
C430 C431 1.392 . S
C430 H443 0.951 . S
C431 C430 1.392 . S
C431 C433 1.384 . S
H432 C434 0.949 . S
C433 C431 1.384 . S
C433 C434 1.385 . S
C433 H435 0.950 . S
C434 C428 1.404 . S
C434 H432 0.949 . S
C434 C433 1.385 . S
H435 C433 0.950 . S
H436 C420 0.951 . S
H437 C422 0.951 . S
H438 C424 0.951 . S
H439 C425 0.950 . S
H440 C426 0.950 . S
H441 C427 0.950 . S
H442 C429 0.950 . S
H443 C430 0.951 . S
C444 C445 1.386 . S
C444 C446 1.383 . S
C444 H460 0.951 . S
C445 C444 1.386 . S
C445 C449 1.383 . S
C446 C444 1.383 . S
C446 C447 1.402 . S
C446 H461 0.951 . S
C447 C446 1.402 . S
C447 C448 1.375 . S
C447 C450 1.481 . S
C448 C447 1.375 . S
C448 C449 1.367 . S
C448 H462 0.951 . S
C449 C445 1.383 . S
C449 C448 1.367 . S
C449 H463 0.950 . S
C450 C447 1.481 . S
C450 C451 1.297 . S
C450 H464 0.950 . S
C451 C450 1.297 . S
C451 C452 1.479 . S
C451 H465 0.950 . S
C452 C451 1.479 . S
C452 C453 1.375 . S
C452 C458 1.404 . S
C453 C452 1.375 . S
C453 C454 1.369 . S
C453 H466 0.950 . S
C454 C453 1.369 . S
C454 C455 1.392 . S
C454 H467 0.951 . S
C455 C454 1.392 . S
C455 C457 1.384 . S
H456 C458 0.949 . S
C457 C455 1.384 . S
C457 C458 1.385 . S
C457 H459 0.950 . S
C458 C452 1.404 . S
C458 H456 0.949 . S
C458 C457 1.385 . S
H459 C457 0.950 . S
H460 C444 0.951 . S
H461 C446 0.951 . S
H462 C448 0.951 . S
H463 C449 0.950 . S
H464 C450 0.950 . S
H465 C451 0.950 . S
H466 C453 0.950 . S
H467 C454 0.951 . S
C468 C469 1.386 . S
C468 C470 1.383 . S
C468 H484 0.951 . S
C469 C468 1.386 . S
C469 C473 1.383 . S
C470 C468 1.383 . S
C470 C471 1.402 . S
C470 H485 0.951 . S
C471 C470 1.402 . S
C471 C472 1.375 . S
C471 C474 1.481 . S
C472 C471 1.375 . S
C472 C473 1.367 . S
C472 H486 0.951 . S
C473 C469 1.383 . S
C473 C472 1.367 . S
C473 H487 0.950 . S
C474 C471 1.481 . S
C474 C475 1.297 . S
C474 H488 0.950 . S
C475 C474 1.297 . S
C475 C476 1.479 . S
C475 H489 0.950 . S
C476 C475 1.479 . S
C476 C477 1.375 . S
C476 C482 1.404 . S
C477 C476 1.375 . S
C477 C478 1.369 . S
C477 H490 0.950 . S
C478 C477 1.369 . S
C478 C479 1.392 . S
C478 H491 0.951 . S
C479 C478 1.392 . S
C479 C481 1.384 . S
H480 C482 0.949 . S
C481 C479 1.384 . S
C481 C482 1.385 . S
C481 H483 0.950 . S
C482 C476 1.404 . S
C482 H480 0.949 . S
C482 C481 1.385 . S
H483 C481 0.950 . S
H484 C468 0.951 . S
H485 C470 0.951 . S
H486 C472 0.951 . S
H487 C473 0.950 . S
H488 C474 0.950 . S
H489 C475 0.950 . S
H490 C477 0.950 . S
H491 C478 0.951 . S
C492 C493 1.386 1_554 S
C492 C494 1.383 1_554 S
C492 H508 0.951 . S
C493 C492 1.386 1_556 S
C493 C497 1.383 . S
C494 C492 1.383 1_556 S
C494 C495 1.402 . S
C494 H509 0.951 . S
C495 C494 1.402 . S
C495 C496 1.375 . S
C495 C498 1.481 . S
C496 C495 1.375 . S
C496 C497 1.367 . S
C496 H510 0.951 . S
C497 C493 1.383 . S
C497 C496 1.367 . S
C497 H511 0.950 . S
C498 C495 1.481 . S
C498 C499 1.297 . S
C498 H512 0.950 . S
C499 C498 1.297 . S
C499 C500 1.479 . S
C499 H513 0.950 . S
C500 C499 1.479 . S
C500 C501 1.375 . S
C500 C506 1.404 . S
C501 C500 1.375 . S
C501 C502 1.369 . S
C501 H514 0.950 . S
C502 C501 1.369 . S
C502 C503 1.392 . S
C502 H515 0.951 . S
C503 C502 1.392 . S
C503 C505 1.384 . S
H504 C506 0.949 . S
C505 C503 1.384 . S
C505 C506 1.385 . S
C505 H507 0.950 . S
C506 C500 1.404 . S
C506 H504 0.949 . S
C506 C505 1.385 . S
H507 C505 0.950 . S
H508 C492 0.951 . S
H509 C494 0.951 . S
H510 C496 0.951 . S
H511 C497 0.950 . S
H512 C498 0.950 . S
H513 C499 0.950 . S
H514 C501 0.950 . S
H515 C502 0.951 . S
C516 C517 1.386 . S
C516 C518 1.383 . S
C516 H532 0.951 . S
C517 C516 1.386 . S
C517 C521 1.383 . S
C518 C516 1.383 . S
C518 C519 1.402 . S
C518 H533 0.951 . S
C519 C518 1.402 . S
C519 C520 1.375 . S
C519 C522 1.481 . S
C520 C519 1.375 . S
C520 C521 1.367 . S
C520 H534 0.951 . S
C521 C517 1.383 . S
C521 C520 1.367 . S
C521 H535 0.950 . S
C522 C519 1.481 . S
C522 C523 1.297 . S
C522 H536 0.950 . S
C523 C522 1.297 . S
C523 C524 1.479 . S
C523 H537 0.950 . S
C524 C523 1.479 . S
C524 C525 1.375 . S
C524 C530 1.404 1_554 S
C525 C524 1.375 . S
C525 C526 1.369 . S
C525 H538 0.950 . S
C526 C525 1.369 . S
C526 C527 1.392 . S
C526 H539 0.951 . S
C527 C526 1.392 . S
C527 C529 1.384 1_554 S
H528 C530 0.949 . S
C529 C527 1.384 1_556 S
C529 C530 1.385 . S
C529 H531 0.950 . S
C530 C524 1.404 1_556 S
C530 H528 0.949 . S
C530 C529 1.385 . S
H531 C529 0.950 . S
H532 C516 0.951 . S
H533 C518 0.951 . S
H534 C520 0.951 . S
H535 C521 0.950 . S
H536 C522 0.950 . S
H537 C523 0.950 . S
H538 C525 0.950 . S
H539 C526 0.951 . S
C540 C541 1.386 . S
C540 C542 1.383 . S
C540 H556 0.951 . S
C541 C540 1.386 . S
C541 C545 1.383 . S
C542 C540 1.383 . S
C542 C543 1.402 . S
C542 H557 0.951 . S
C543 C542 1.402 . S
C543 C544 1.375 . S
C543 C546 1.481 . S
C544 C543 1.375 . S
C544 C545 1.367 . S
C544 H558 0.951 . S
C545 C541 1.383 . S
C545 C544 1.367 . S
C545 H559 0.950 . S
C546 C543 1.481 . S
C546 C547 1.297 . S
C546 H560 0.950 . S
C547 C546 1.297 . S
C547 C548 1.479 . S
C547 H561 0.950 . S
C548 C547 1.479 . S
C548 C549 1.375 . S
C548 C554 1.404 . S
C549 C548 1.375 . S
C549 C550 1.369 . S
C549 H562 0.950 . S
C550 C549 1.369 . S
C550 C551 1.392 . S
C550 H563 0.951 . S
C551 C550 1.392 . S
C551 C553 1.384 . S
H552 C554 0.949 . S
C553 C551 1.384 . S
C553 C554 1.385 . S
C553 H555 0.950 . S
C554 C548 1.404 . S
C554 H552 0.949 . S
C554 C553 1.385 . S
H555 C553 0.950 . S
H556 C540 0.951 . S
H557 C542 0.951 . S
H558 C544 0.951 . S
H559 C545 0.950 . S
H560 C546 0.950 . S
H561 C547 0.950 . S
H562 C549 0.950 . S
H563 C550 0.951 . S
C133 C10 1.387 . S
C143 C7 1.377 . S
C157 C32 1.370 . S
C167 C29 1.339 . S
C181 C65 1.380 . S
C191 C62 1.364 . S
C205 C87 1.364 . S
C215 C84 1.348 . S
C229 C109 1.371 . S
C239 C106 1.351 . S
C253 C128 1.384 . S
C263 C131 1.372 . S
C277 C15 1.597 . S
C287 C118 1.603 . S
C301 C18 1.604 . S
C311 C37 1.600 . S
C325 C51 1.593 . S
C335 C40 1.601 . S
C349 C73 1.565 . S
C359 C52 1.571 . S
C373 C95 1.595 . S
C383 C74 1.598 . S
C397 C96 1.589 . S
C407 C117 1.556 . S
C421 C8 1.293 . S
C431 C103 1.292 . S
C445 C30 1.309 . S
C455 C125 1.243 . S
C469 C54 1.284 . S
C479 C21 1.314 . S
C493 C76 1.309 1_556 S
C503 C43 1.243 . S
C517 C98 1.308 . S
C527 C59 1.245 1_554 S
C541 C81 1.304 . S
C551 C120 1.271 . S
