# Generated by pormake.
# Topology fng, (5)-cn, num edge types: 1
# Building blocks:
#     Node 0, Type 0, BuildingBlock: BEQFEK_clean_sbu_0, # of connection points: 5
#     Node 1, Type 0, BuildingBlock: BEQFEK_clean_sbu_0, # of connection points: 5
#     Node 2, Type 0, BuildingBlock: BEQFEK_clean_sbu_0, # of connection points: 5
#     Node 3, Type 0, BuildingBlock: BEQFEK_clean_sbu_0, # of connection points: 5
#     Node 4, Type 0, BuildingBlock: BEQFEK_clean_sbu_0, # of connection points: 5
#     Node 5, Type 0, BuildingBlock: BEQFEK_clean_sbu_0, # of connection points: 5
#     Node 6, Type 0, BuildingBlock: BEQFEK_clean_sbu_0, # of connection points: 5
#     Node 7, Type 0, BuildingBlock: BEQFEK_clean_sbu_0, # of connection points: 5
#     Node 8, Type 0, BuildingBlock: BEQFEK_clean_sbu_0, # of connection points: 5
#     Node 9, Type 0, BuildingBlock: BEQFEK_clean_sbu_0, # of connection points: 5
#     Node 10, Type 0, BuildingBlock: BEQFEK_clean_sbu_0, # of connection points: 5
#     Node 11, Type 0, BuildingBlock: BEQFEK_clean_sbu_0, # of connection points: 5
#     Node 12, Type 0, BuildingBlock: BEQFEK_clean_sbu_0, # of connection points: 5
#     Node 13, Type 0, BuildingBlock: BEQFEK_clean_sbu_0, # of connection points: 5
#     Node 14, Type 0, BuildingBlock: BEQFEK_clean_sbu_0, # of connection points: 5
#     Node 15, Type 0, BuildingBlock: BEQFEK_clean_sbu_0, # of connection points: 5
#     Node 16, Type 0, BuildingBlock: BEQFEK_clean_sbu_0, # of connection points: 5
#     Node 17, Type 0, BuildingBlock: BEQFEK_clean_sbu_0, # of connection points: 5
#     Edge 18, Type (0, 0), None
#     Edge 19, Type (0, 0), None
#     Edge 20, Type (0, 0), None
#     Edge 21, Type (0, 0), None
#     Edge 22, Type (0, 0), None
#     Edge 23, Type (0, 0), None
#     Edge 24, Type (0, 0), None
#     Edge 25, Type (0, 0), None
#     Edge 26, Type (0, 0), None
#     Edge 27, Type (0, 0), None
#     Edge 28, Type (0, 0), None
#     Edge 29, Type (0, 0), None
#     Edge 30, Type (0, 0), None
#     Edge 31, Type (0, 0), None
#     Edge 32, Type (0, 0), None
#     Edge 33, Type (0, 0), None
#     Edge 34, Type (0, 0), None
#     Edge 35, Type (0, 0), None
#     Edge 36, Type (0, 0), None
#     Edge 37, Type (0, 0), None
#     Edge 38, Type (0, 0), None
#     Edge 39, Type (0, 0), None
#     Edge 40, Type (0, 0), None
#     Edge 41, Type (0, 0), None
#     Edge 42, Type (0, 0), None
#     Edge 43, Type (0, 0), None
#     Edge 44, Type (0, 0), None
#     Edge 45, Type (0, 0), None
#     Edge 46, Type (0, 0), None
#     Edge 47, Type (0, 0), None
#     Edge 48, Type (0, 0), None
#     Edge 49, Type (0, 0), None
#     Edge 50, Type (0, 0), None
#     Edge 51, Type (0, 0), None
#     Edge 52, Type (0, 0), None
#     Edge 53, Type (0, 0), None
#     Edge 54, Type (0, 0), None
#     Edge 55, Type (0, 0), None
#     Edge 56, Type (0, 0), None
#     Edge 57, Type (0, 0), None
#     Edge 58, Type (0, 0), None
#     Edge 59, Type (0, 0), None
#     Edge 60, Type (0, 0), None
#     Edge 61, Type (0, 0), None
#     Edge 62, Type (0, 0), None
# Relax obj value: 0.434
# Max RMSD: 0.270
# Mean RMSD: 0.270
data_MOF--net-fng--node1-BEQFEK_clean_sbu_0--edge1-none
_symmetry_space_group_name_H-M    P1
_symmetry_Int_Tables_number       1
_symmetry_cell_setting            triclinic
loop_
_symmetry_equiv_pos_as_xyz
'x, y, z'
_cell_length_a     35.237466
_cell_length_b     35.237595
_cell_length_c     10.164927
_cell_angle_alpha  89.996753
_cell_angle_beta   90.006395
_cell_angle_gamma 119.99893
loop_
_atom_site_label
_atom_site_type_symbol
_atom_site_fract_x
_atom_site_fract_y
_atom_site_fract_z
_atom_type_partial_charge
Co0 Co 0.1031 0.22668 0.97134 0.0
Co1 Co 0.07294 0.18423 0.2381 0.0
C2 C 0.00745 0.15373 0.03046 0.0
O3 O 0.0388 0.18107 0.95923 0.0
O4 O 0.01332 0.1512 0.15361 0.0
C5 C 0.08245 0.23535 0.72586 0.0
O6 O 0.04442 0.23057 0.76055 0.0
C7 C 0.05596 0.18927 0.51467 0.0
C8 C 0.11925 0.20121 0.59329 0.0
C9 C 0.08428 0.20748 0.62026 0.0
N10 N 0.07473 0.17589 0.42435 0.0
N11 N 0.11177 0.18148 0.47503 0.0
C12 C 0.01264 0.18664 0.49773 0.0
H13 H 0.00204 0.18053 0.3936 0.0
H14 H 0.01248 0.21601 0.53512 0.0
H15 H 0.98908 0.15974 0.56084 0.0
C16 C 0.15857 0.30148 0.17053 0.0
N17 N 0.1232 0.26388 0.12797 0.0
N18 N 0.09615 0.24694 0.22694 0.0
C19 C 0.11059 0.27554 0.32944 0.0
C20 C 0.15247 0.30947 0.3027 0.0
C21 C 0.19859 0.3272 0.08896 0.0
H22 H 0.21312 0.30638 0.06583 0.0
H23 H 0.18918 0.33566 0.99411 0.0
H24 H 0.22313 0.35698 0.14126 0.0
O25 O 0.13221 0.19445 0.95353 0.0
O26 O 0.11243 0.16254 0.14894 0.0
H27 H 0.08303 0.27997 0.51329 0.0
H28 H 0.08766 0.31882 0.39621 0.0
C29 C 0.0797 0.28437 0.40737 0.0
H30 H 0.04567 0.26369 0.37182 0.0
H31 H 0.13476 0.17725 0.42215 0.0
O32 O 0.11504 0.25574 0.80245 0.0
C33 C 0.13163 0.16794 0.03725 0.0
Co34 Co 0.76153 0.87395 0.9712 0.0
Co35 Co 0.80398 0.88634 0.23798 0.0
C36 C 0.8346 0.85142 0.03049 0.0
O37 O 0.80722 0.85534 0.9592 0.0
O38 O 0.83712 0.85984 0.1536 0.0
C39 C 0.75293 0.84464 0.72572 0.0
O40 O 0.7578 0.81145 0.7604 0.0
C41 C 0.79899 0.86433 0.51451 0.0
C42 C 0.78694 0.91559 0.59321 0.0
C43 C 0.78076 0.87439 0.62014 0.0
N44 N 0.81231 0.89649 0.42421 0.0
N45 N 0.80665 0.92789 0.47494 0.0
C46 C 0.80169 0.82368 0.49749 0.0
H47 H 0.82861 0.82706 0.56057 0.0
H48 H 0.8078 0.81922 0.39334 0.0
H49 H 0.77234 0.79412 0.53487 0.0
C50 C 0.68671 0.85454 0.17033 0.0
N51 N 0.72433 0.85681 0.1278 0.0
N52 N 0.74129 0.84673 0.22681 0.0
C53 C 0.71269 0.83255 0.32929 0.0
C54 C 0.67872 0.84045 0.3025 0.0
C55 C 0.66098 0.86883 0.08875 0.0
H56 H 0.68182 0.90417 0.06541 0.0
H57 H 0.65245 0.8509 0.99401 0.0
H58 H 0.63123 0.86365 0.14113 0.0
O59 O 0.79366 0.93528 0.95329 0.0
O60 O 0.82555 0.94749 0.14875 0.0
H61 H 0.7083 0.80058 0.51316 0.0
H62 H 0.66945 0.76633 0.39609 0.0
C63 C 0.70389 0.79284 0.40724 0.0
H64 H 0.72459 0.77951 0.3717 0.0
H65 H 0.81084 0.9551 0.42208 0.0
O66 O 0.73248 0.85677 0.80231 0.0
C67 C 0.82012 0.96125 0.03702 0.0
Co68 Co 0.11432 0.88495 0.97152 0.0
Co69 Co 0.102 0.91506 0.23828 0.0
C70 C 0.13688 0.98056 0.03071 0.0
O71 O 0.13293 0.94924 0.95944 0.0
O72 O 0.12852 0.97468 0.15386 0.0
C73 C 0.14366 0.90564 0.72607 0.0
O74 O 0.17686 0.94369 0.76081 0.0
C75 C 0.12403 0.93205 0.51481 0.0
C76 C 0.07271 0.86877 0.59351 0.0
C77 C 0.11393 0.90376 0.62045 0.0
N78 N 0.09187 0.91325 0.42451 0.0
N79 N 0.06044 0.87621 0.47523 0.0
C80 C 0.16471 0.97538 0.49781 0.0
H81 H 0.16136 -0.00106 0.56086 0.0
H82 H 0.16918 0.98596 0.39365 0.0
H83 H 0.19424 0.97555 0.53523 0.0
C84 C 0.13369 0.8295 0.17065 0.0
N85 N 0.13146 0.86488 0.12812 0.0
N86 N 0.14157 0.89192 0.22712 0.0
C87 C 0.15573 0.87748 0.32961 0.0
C88 C 0.14778 0.83559 0.30282 0.0
C89 C 0.11938 0.78948 0.08906 0.0
H90 H 0.08406 0.77503 0.06558 0.0
H91 H 0.13735 0.79888 0.99439 0.0
H92 H 0.1245 0.76489 0.14149 0.0
O93 O 0.05299 0.85578 0.95365 0.0
O94 O 0.04084 0.87554 0.14906 0.0
H95 H 0.18771 0.90503 0.51348 0.0
H96 H 0.22193 0.90038 0.39645 0.0
C97 C 0.19544 0.90835 0.40757 0.0
H98 H 0.20881 0.94239 0.37203 0.0
H99 H 0.03321 0.8532 0.42236 0.0
O100 O 0.13149 0.87305 0.80266 0.0
C101 C 0.02705 0.85633 0.03737 0.0
Co102 Co 0.22111 0.12227 0.04794 0.0
Co103 Co 0.1727 0.09334 0.78509 0.0
C104 C 0.1551 0.02492 0.9714 0.0
O105 O 0.18129 0.05726 0.04163 0.0
O106 O 0.1466 0.03084 0.85272 0.0
C107 C 0.21398 0.10367 0.29943 0.0
O108 O 0.20331 0.06276 0.27998 0.0
C109 C 0.16284 0.08516 0.49906 0.0
C110 C 0.21052 0.15525 0.46567 0.0
C111 C 0.19386 0.11436 0.41008 0.0
N112 N 0.16454 0.10751 0.60788 0.0
N113 N 0.19092 0.14968 0.58314 0.0
C114 C 0.12327 0.04222 0.46541 0.0
H115 H 0.11035 0.02143 0.55456 0.0
H116 H 0.12971 0.02493 0.38544 0.0
H117 H 0.09725 0.04871 0.43003 0.0
C118 C 0.30081 0.16597 0.85142 0.0
N119 N 0.25833 0.14156 0.89053 0.0
N120 N 0.23562 0.11911 0.78799 0.0
C121 C 0.26301 0.12478 0.68692 0.0
C122 C 0.30505 0.1571 0.71812 0.0
C123 C 0.33641 0.1973 0.93939 0.0
H124 H 0.33776 0.22941 0.93506 0.0
H125 H 0.32951 0.18544 0.04253 0.0
H126 H 0.36813 0.20191 0.90548 0.0
O127 O 0.18652 0.15006 0.07197 0.0
O128 O 0.14731 0.12453 0.89212 0.0
H129 H 0.26614 0.10513 0.48919 0.0
H130 H 0.2711 0.07251 0.61298 0.0
C131 C 0.25357 0.09019 0.58664 0.0
H132 H 0.21857 0.06559 0.58527 0.0
H133 H 0.20103 0.17412 0.65459 0.0
O134 O 0.24366 0.13351 0.22761 0.0
C135 C 0.15496 0.14468 1.00173 0.0
Co136 Co 0.86575 0.0964 0.04757 0.0
Co137 Co 0.89466 0.07691 0.78473 0.0
C138 C 0.96309 0.12765 0.97111 0.0
O139 O 0.93075 0.12152 0.04132 0.0
O140 O 0.95716 0.11327 0.85239 0.0
C141 C 0.88434 0.10788 0.29909 0.0
O142 O 0.92526 0.13809 0.27961 0.0
C143 C 0.90283 0.07522 0.49871 0.0
C144 C 0.83274 0.05286 0.46537 0.0
C145 C 0.87363 0.07707 0.40976 0.0
N146 N 0.88048 0.05457 0.60753 0.0
N147 N 0.83831 0.03882 0.58282 0.0
C148 C 0.94568 0.07844 0.46486 0.0
H149 H 0.9665 0.08622 0.55392 0.0
H150 H 0.963 0.10217 0.3849 0.0
H151 H 0.93907 0.0459 0.42936 0.0
C152 C 0.82209 0.13245 0.85106 0.0
N153 N 0.84648 0.11436 0.89015 0.0
N154 N 0.86892 0.11409 0.78761 0.0
C155 C 0.86326 0.13582 0.68654 0.0
C156 C 0.83096 0.14556 0.71775 0.0
C157 C 0.79081 0.13678 0.93906 0.0
H158 H 0.75867 0.10605 0.93475 0.0
H159 H 0.80268 0.14172 0.0422 0.0
H160 H 0.78625 0.16392 0.90519 0.0
O161 O 0.83793 0.03401 0.07163 0.0
O162 O 0.86347 0.02033 0.89182 0.0
H163 H 0.88293 0.15861 0.48881 0.0
H164 H 0.91554 0.19617 0.61263 0.0
C165 C 0.89786 0.16097 0.58628 0.0
H166 H 0.92246 0.15056 0.58491 0.0
H167 H 0.81388 0.02451 0.65428 0.0
O168 O 0.8545 0.10771 0.22721 0.0
C169 C 0.84333 0.00784 1.00141 0.0
Co170 Co 0.89187 0.767 0.04788 0.0
Co171 Co 0.91143 0.8154 0.78504 0.0
C172 C 0.86071 0.83315 0.97127 0.0
O173 O 0.86679 0.80692 0.04152 0.0
O174 O 0.87512 0.84161 0.85259 0.0
C175 C 0.88045 0.77417 0.29938 0.0
O176 O 0.8503 0.78494 0.27987 0.0
C177 C 0.91316 0.82528 0.49903 0.0
C178 C 0.93542 0.77747 0.46569 0.0
C179 C 0.91126 0.79422 0.41006 0.0
N180 N 0.93378 0.82353 0.60786 0.0
N181 N 0.94947 0.79707 0.58316 0.0
C182 C 0.90996 0.86494 0.46527 0.0
H183 H 0.90215 0.87793 0.55437 0.0
H184 H 0.88626 0.85857 0.38526 0.0
H185 H 0.94251 0.89087 0.42992 0.0
C186 C 0.85575 0.68728 0.85138 0.0
N187 N 0.87389 0.72977 0.89048 0.0
N188 N 0.8742 0.7525 0.78793 0.0
C189 C 0.85245 0.72512 0.68684 0.0
C190 C 0.84266 0.68307 0.71806 0.0
C191 C 0.85137 0.65165 0.93939 0.0
H192 H 0.88205 0.65016 0.93497 0.0
H193 H 0.84649 0.65861 0.04255 0.0
H194 H 0.82416 0.61997 0.90558 0.0
O195 O 0.95426 0.80149 0.07197 0.0
O196 O 0.968 0.84071 0.89214 0.0
H197 H 0.82969 0.72205 0.48909 0.0
H198 H 0.79214 0.71714 0.61286 0.0
C199 C 0.82734 0.73463 0.58655 0.0
H200 H 0.83779 0.76964 0.58521 0.0
H201 H 0.96375 0.7869 0.65463 0.0
O202 O 0.88055 0.74445 0.22755 0.0
C203 C 0.98047 0.83303 1.00175 0.0
Co204 Co 0.76443 0.56002 0.30342 0.0
Co205 Co 0.73556 0.51842 0.57088 0.0
C206 C 0.66968 0.48585 0.36353 0.0
O207 O 0.7005 0.51344 0.29137 0.0
O208 O 0.67599 0.48401 0.48664 0.0
C209 C 0.74288 0.56857 0.05856 0.0
O210 O 0.70462 0.56316 0.09361 0.0
C211 C 0.71758 0.52342 0.84572 0.0
C212 C 0.77984 0.53401 0.92904 0.0
C213 C 0.74503 0.54076 0.95347 0.0
N214 N 0.73672 0.50999 0.75692 0.0
N215 N 0.77313 0.5148 0.81015 0.0
C216 C 0.6751 0.52227 0.8244 0.0
H217 H 0.6656 0.51708 0.71921 0.0
H218 H 0.67532 0.5517 0.86306 0.0
H219 H 0.6504 0.49525 0.88429 0.0
C220 C 0.82079 0.63441 0.50153 0.0
N221 N 0.78463 0.59738 0.45974 0.0
N222 N 0.7578 0.58102 0.55947 0.0
C223 C 0.7733 0.60967 0.66188 0.0
C224 C 0.8155 0.64276 0.634 0.0
C225 C 0.86079 0.65902 0.41906 0.0
H226 H 0.87477 0.63757 0.3981 0.0
H227 H 0.85152 0.66706 0.32327 0.0
H228 H 0.88574 0.68899 0.46966 0.0
O229 O 0.79446 0.52871 0.2855 0.0
O230 O 0.77628 0.498 0.48297 0.0
H231 H 0.74623 0.61458 0.84608 0.0
H232 H 0.75315 0.65495 0.73147 0.0
C233 C 0.74355 0.61997 0.74049 0.0
H234 H 0.70943 0.60078 0.70412 0.0
H235 H 0.79625 0.51032 0.75894 0.0
O236 O 0.77546 0.58928 0.13501 0.0
C237 C 0.79515 0.50323 0.37074 0.0
Co238 Co 0.4281 0.20206 0.30348 0.0
Co239 Co 0.46975 0.21475 0.57093 0.0
C240 C 0.50222 0.18138 0.36347 0.0
O241 O 0.47464 0.18466 0.29137 0.0
O242 O 0.50409 0.18952 0.48661 0.0
C243 C 0.41952 0.17198 0.05861 0.0
O244 O 0.42489 0.13912 0.09368 0.0
C245 C 0.46473 0.19179 0.84587 0.0
C246 C 0.4541 0.24348 0.92888 0.0
C247 C 0.44735 0.20193 0.95348 0.0
N248 N 0.47817 0.22435 0.75698 0.0
N249 N 0.47334 0.25595 0.81004 0.0
C250 C 0.46596 0.15049 0.82488 0.0
H251 H 0.47122 0.14617 0.71978 0.0
H252 H 0.43652 0.12128 0.86343 0.0
H253 H 0.49296 0.15287 0.88506 0.0
C254 C 0.35369 0.18396 0.5016 0.0
N255 N 0.39075 0.18488 0.4598 0.0
N256 N 0.40714 0.17444 0.55951 0.0
C257 C 0.37849 0.16125 0.66193 0.0
C258 C 0.34536 0.17031 0.63406 0.0
C259 C 0.32903 0.1993 0.41913 0.0
H260 H 0.35041 0.23475 0.39834 0.0
H261 H 0.32106 0.18203 0.32326 0.0
H262 H 0.29901 0.19417 0.46966 0.0
O263 O 0.45945 0.2634 0.28563 0.0
O264 O 0.49021 0.27589 0.48302 0.0
H265 H 0.37359 0.12927 0.84615 0.0
H266 H 0.3333 0.09578 0.73142 0.0
C267 C 0.36825 0.12121 0.74055 0.0
H268 H 0.38752 0.10635 0.70426 0.0
H269 H 0.47782 0.28354 0.75871 0.0
O270 O 0.39885 0.18391 0.13504 0.0
C271 C 0.48497 0.28956 0.37083 0.0
Co272 Co 0.78598 0.22368 0.30316 0.0
Co273 Co 0.77323 0.25255 0.57062 0.0
C274 C 0.80659 0.31845 0.36329 0.0
O275 O 0.80335 0.28762 0.29113 0.0
O276 O 0.79841 0.31213 0.48639 0.0
C277 C 0.81606 0.24521 0.0583 0.0
O278 O 0.8489 0.28347 0.09336 0.0
C279 C 0.7962 0.27053 0.84549 0.0
C280 C 0.74455 0.20821 0.92866 0.0
C281 C 0.7861 0.24305 0.95318 0.0
N282 N 0.76363 0.25137 0.75664 0.0
N283 N 0.73205 0.21494 0.80978 0.0
C284 C 0.8375 0.31304 0.82431 0.0
H285 H 0.8418 0.32257 0.71915 0.0
H286 H 0.86672 0.31284 0.86293 0.0
H287 H 0.83514 0.3377 0.88429 0.0
C288 C 0.80411 0.16737 0.50122 0.0
N289 N 0.80317 0.2035 0.45947 0.0
N290 N 0.8136 0.23032 0.55922 0.0
C291 C 0.82679 0.21485 0.66162 0.0
C292 C 0.81776 0.17267 0.6337 0.0
C293 C 0.78879 0.12739 0.4187 0.0
H294 H 0.75335 0.11336 0.39769 0.0
H295 H 0.80611 0.1367 0.32293 0.0
H296 H 0.79386 0.10247 0.46927 0.0
O297 O 0.72463 0.19365 0.28523 0.0
O298 O 0.71211 0.21183 0.48269 0.0
H299 H 0.85875 0.24193 0.84586 0.0
H300 H 0.89225 0.2351 0.73123 0.0
C301 C 0.86682 0.24464 0.74027 0.0
H302 H 0.8817 0.27876 0.70394 0.0
H303 H 0.70447 0.19181 0.7585 0.0
O304 O 0.80418 0.21263 0.13476 0.0
C305 C 0.69846 0.19296 0.37046 0.0
Co306 Co 0.88717 0.46057 0.38283 0.0
Co307 Co 0.83909 0.431 0.11985 0.0
C308 C 0.82357 0.3628 0.30499 0.0
O309 O 0.84903 0.39533 0.37582 0.0
O310 O 0.81468 0.36859 0.18665 0.0
C311 C 0.87998 0.44181 0.63347 0.0
O312 O 0.8706 0.40123 0.615 0.0
C313 C 0.82894 0.42255 0.83399 0.0
C314 C 0.87528 0.49283 0.79882 0.0
C315 C 0.85929 0.45191 0.74379 0.0
N316 N 0.83059 0.44484 0.94277 0.0
N317 N 0.85606 0.48708 0.91703 0.0
C318 C 0.79173 0.37743 0.80673 0.0
H319 H 0.78223 0.35742 0.89787 0.0
H320 H 0.79889 0.36111 0.72547 0.0
H321 H 0.76294 0.38019 0.77644 0.0
C322 C 0.96704 0.50572 0.18732 0.0
N323 N 0.92456 0.48084 0.22597 0.0
N324 N 0.90212 0.45838 0.12311 0.0
C325 C 0.92972 0.46455 0.02227 0.0
C326 C 0.97153 0.49714 0.05391 0.0
C327 C 0.00241 0.53709 0.27592 0.0
H328 H 0.00281 0.56877 0.27422 0.0
H329 H -0.00418 0.52459 0.37842 0.0
H330 H 0.03447 0.54281 0.24101 0.0
O331 O 0.8511 0.48687 0.40674 0.0
O332 O 0.81234 0.46085 0.22634 0.0
H333 H 0.93273 0.44556 0.82377 0.0
H334 H 0.93888 0.41319 0.94573 0.0
C335 C 0.92071 0.43034 0.9212 0.0
H336 H 0.8859 0.4053 0.92097 0.0
H337 H 0.86593 0.51163 0.98805 0.0
O338 O 0.90958 0.47206 0.56245 0.0
C339 C 0.81941 0.48084 0.33598 0.0
Co340 Co 0.52755 0.42421 0.38296 0.0
Co341 Co 0.55717 0.40574 0.12 0.0
C342 C 0.62534 0.45846 0.30519 0.0
O343 O 0.5928 0.45137 0.37599 0.0
O344 O 0.61956 0.44378 0.18686 0.0
C345 C 0.54633 0.4358 0.63359 0.0
O346 O 0.58689 0.46705 0.61517 0.0
C347 C 0.56564 0.40406 0.83413 0.0
C348 C 0.49535 0.38004 0.7989 0.0
C349 C 0.53626 0.405 0.7439 0.0
N350 N 0.54336 0.3834 0.94291 0.0
N351 N 0.50111 0.36658 0.91713 0.0
C352 C 0.61081 0.41209 0.80701 0.0
H353 H 0.63081 0.42267 0.89819 0.0
H354 H 0.6271 0.43557 0.72573 0.0
H355 H 0.60816 0.38058 0.77684 0.0
C356 C 0.48233 0.45884 0.18736 0.0
N357 N 0.50725 0.44128 0.22606 0.0
N358 N 0.52973 0.44133 0.12322 0.0
C359 C 0.52353 0.46273 0.02236 0.0
C360 C 0.4909 0.47191 0.05396 0.0
C361 C 0.45092 0.46278 0.2759 0.0
H362 H 0.41926 0.43148 0.27415 0.0
H363 H 0.46339 0.46868 0.37843 0.0
H364 H 0.44515 0.48909 0.24099 0.0
O365 O 0.50131 0.36184 0.40687 0.0
O366 O 0.52734 0.34913 0.22648 0.0
H367 H 0.5425 0.48476 0.82386 0.0
H368 H 0.57486 0.52328 0.94581 0.0
C369 C 0.55772 0.48796 0.92129 0.0
H370 H 0.58278 0.47822 0.92109 0.0
H371 H 0.47656 0.35188 0.98813 0.0
O372 O 0.51605 0.43511 0.56257 0.0
C373 C 0.50736 0.3362 0.33613 0.0
Co374 Co 0.56382 0.10085 0.38267 0.0
Co375 Co 0.58223 0.14892 0.11968 0.0
C376 C 0.52957 0.1644 0.30504 0.0
O377 O 0.53668 0.13895 0.3758 0.0
O378 O 0.54421 0.17329 0.18665 0.0
C379 C 0.55217 0.10795 0.63332 0.0
O380 O 0.52089 0.11723 0.61488 0.0
C381 C 0.58387 0.15903 0.83378 0.0
C382 C 0.60795 0.1128 0.79871 0.0
C383 C 0.58296 0.12871 0.74364 0.0
N384 N 0.60456 0.15746 0.94258 0.0
N385 N 0.62141 0.13206 0.91689 0.0
C386 C 0.576 0.19625 0.80624 0.0
H387 H 0.56559 0.20588 0.89732 0.0
H388 H 0.55245 0.18902 0.72512 0.0
H389 H 0.60753 0.22498 0.77557 0.0
C390 C 0.5292 0.021 0.18711 0.0
N391 N 0.54673 0.06347 0.22577 0.0
N392 N 0.54665 0.08589 0.12291 0.0
C393 C 0.52526 0.05827 0.02206 0.0
C394 C 0.51612 0.01648 0.0537 0.0
C395 C 0.52529 0.98566 0.2757 0.0
H396 H 0.55661 0.98535 0.27404 0.0
H397 H 0.51935 0.99222 0.3782 0.0
H398 H 0.499 0.95358 0.24078 0.0
O399 O 0.62619 0.13697 0.40653 0.0
O400 O 0.63886 0.17571 0.22613 0.0
H401 H 0.50319 0.05516 0.82358 0.0
H402 H 0.46468 0.04898 0.94558 0.0
C403 C 0.5 0.0672 0.92098 0.0
H404 H 0.50971 0.10199 0.92067 0.0
H405 H 0.63614 0.12225 0.98793 0.0
O406 O 0.55293 0.07842 0.56226 0.0
C407 C 0.65182 0.16866 0.33575 0.0
Co408 Co 0.4373 0.89355 0.63922 0.0
Co409 Co 0.40705 0.85164 0.9066 0.0
C410 C 0.34149 0.82147 0.69903 0.0
O411 O 0.37287 0.84847 0.6273 0.0
O412 O 0.34741 0.81915 0.8222 0.0
C413 C 0.4167 0.9028 0.39432 0.0
O414 O 0.37895 0.89863 0.42934 0.0
C415 C 0.38979 0.85708 0.18265 0.0
C416 C 0.45226 0.86721 0.26296 0.0
C417 C 0.41791 0.87452 0.28902 0.0
N418 N 0.4082 0.84311 0.09285 0.0
N419 N 0.44468 0.8476 0.14451 0.0
C420 C 0.34739 0.85635 0.16375 0.0
H421 H 0.33721 0.85077 0.05917 0.0
H422 H 0.34836 0.88625 0.20128 0.0
H423 H 0.32281 0.82987 0.22583 0.0
C424 C 0.49445 0.96777 0.83755 0.0
N425 N 0.45827 0.93075 0.79569 0.0
N426 N 0.43138 0.9145 0.8953 0.0
C427 C 0.44689 0.94309 0.99778 0.0
C428 C 0.48916 0.97607 0.9701 0.0
C429 C 0.53427 0.99283 0.75452 0.0
H430 H 0.54881 0.97186 0.73377 0.0
H431 H 0.52465 0.00048 0.65867 0.0
H432 H 0.55894 0.02312 0.80453 0.0
O433 O 0.46546 0.86046 0.6212 0.0
O434 O 0.44592 0.82918 0.81763 0.0
H435 H 0.42 0.94821 0.18204 0.0
H436 H 0.42665 0.98831 0.06725 0.0
C437 C 0.41716 0.95338 0.07644 0.0
H438 H 0.38304 0.93412 0.04023 0.0
H439 H 0.46736 0.8427 0.09221 0.0
O440 O 0.44943 0.92281 0.47065 0.0
C441 C 0.46471 0.834 0.70545 0.0
Co442 Co 0.09441 0.54103 0.63942 0.0
Co443 Co 0.13629 0.55258 0.90681 0.0
C444 C 0.16642 0.51719 0.69916 0.0
O445 O 0.13944 0.52162 0.62745 0.0
O446 O 0.16872 0.52537 0.82236 0.0
C447 C 0.0851 0.51115 0.39455 0.0
O448 O 0.08919 0.47752 0.42964 0.0
C449 C 0.1308 0.52985 0.18287 0.0
C450 C 0.12082 0.58229 0.26316 0.0
C451 C 0.11342 0.54059 0.28924 0.0
N452 N 0.14485 0.56224 0.09306 0.0
N453 N 0.14045 0.59429 0.14471 0.0
C454 C 0.13144 0.48813 0.16401 0.0
H455 H 0.137 0.48351 0.05945 0.0
H456 H 0.10151 0.45924 0.20159 0.0
H457 H 0.1579 0.48999 0.2261 0.0
C458 C 0.02024 0.52409 0.83776 0.0
N459 N 0.05721 0.52484 0.7959 0.0
N460 N 0.07342 0.51413 0.8955 0.0
C461 C 0.04484 0.50112 0.99798 0.0
C462 C 0.01192 0.5105 0.97031 0.0
C463 C -0.00475 0.53894 0.75473 0.0
H464 H 0.01628 0.57444 0.73393 0.0
H465 H 0.98754 0.52164 0.65891 0.0
H466 H 0.96499 0.5334 0.80478 0.0
O467 O 0.12756 0.60228 0.62147 0.0
O468 O 0.15885 0.61393 0.81788 0.0
H469 H 0.03965 0.46908 0.18226 0.0
H470 H -0.00048 0.43569 0.06746 0.0
C471 C 0.03446 0.46107 0.07667 0.0
H472 H 0.05367 0.44614 0.04048 0.0
H473 H 0.14541 0.62188 0.09241 0.0
O474 O 0.06515 0.52394 0.47085 0.0
C475 C 0.15406 0.62795 0.70572 0.0
Co476 Co 0.44695 0.55083 0.63934 0.0
Co477 Co 0.43539 0.58118 0.90669 0.0
C478 C 0.47083 0.64669 0.699 0.0
O479 O 0.4664 0.61527 0.62733 0.0
O480 O 0.46261 0.64081 0.82218 0.0
C481 C 0.47682 0.57139 0.39446 0.0
O482 O 0.51046 0.6091 0.42951 0.0
C483 C 0.4581 0.59841 0.1828 0.0
C484 C 0.40568 0.53597 0.26302 0.0
C485 C 0.44737 0.57027 0.28914 0.0
N486 N 0.42572 0.58006 0.09295 0.0
N487 N 0.39368 0.5436 0.14457 0.0
C488 C 0.49981 0.64078 0.16401 0.0
H489 H 0.50444 0.65097 0.05945 0.0
H490 H 0.52872 0.63976 0.20158 0.0
H491 H 0.49794 0.66537 0.22612 0.0
C492 C 0.46392 0.49362 0.83776 0.0
N493 N 0.46314 0.52983 0.79585 0.0
N494 N 0.47384 0.55675 0.89543 0.0
C495 C 0.48687 0.5412 0.99794 0.0
C496 C 0.47751 0.49891 0.97032 0.0
C497 C 0.44909 0.45378 0.75478 0.0
H498 H 0.41358 0.43926 0.73412 0.0
H499 H 0.46634 0.46337 0.65888 0.0
H500 H 0.4547 0.4291 0.80479 0.0
O501 O 0.3857 0.52273 0.62137 0.0
O502 O 0.37403 0.54235 0.81778 0.0
H503 H 0.51891 0.56807 0.18222 0.0
H504 H 0.55231 0.56137 0.06741 0.0
C505 C 0.52691 0.5709 0.07662 0.0
H506 H 0.54181 0.60503 0.04043 0.0
H507 H 0.3661 0.52097 0.09224 0.0
O508 O 0.46403 0.53865 0.47077 0.0
C509 C 0.36002 0.52354 0.70562 0.0
Co510 Co 0.55414 0.78847 0.71688 0.0
Co511 Co 0.50602 0.7594 0.4538 0.0
C512 C 0.48896 0.69104 0.63983 0.0
O513 O 0.51493 0.72343 0.71026 0.0
O514 O 0.48032 0.69696 0.52135 0.0
C515 C 0.5471 0.76939 0.96787 0.0
O516 O 0.53711 0.72864 0.94906 0.0
C517 C 0.49607 0.75057 0.16808 0.0
C518 C 0.54273 0.82078 0.13272 0.0
C519 C 0.52662 0.77981 0.07813 0.0
N520 N 0.49757 0.77304 0.27635 0.0
N521 N 0.52332 0.81523 0.25051 0.0
C522 C 0.4573 0.70678 0.13688 0.0
H523 H 0.44568 0.68621 0.22679 0.0
H524 H 0.46398 0.6899 0.05623 0.0
H525 H 0.43018 0.7119 0.10364 0.0
C526 C 0.63359 0.83421 0.52008 0.0
N527 N 0.59132 0.80851 0.55946 0.0
N528 N 0.56899 0.78571 0.4569 0.0
C529 C 0.5966 0.7924 0.35555 0.0
C530 C 0.63819 0.82566 0.38679 0.0
C531 C 0.66845 0.86693 0.6072 0.0
H532 H 0.66746 0.89789 0.60354 0.0
H533 H 0.66242 0.85505 0.71036 0.0
H534 H 0.70084 0.87372 0.57222 0.0
O535 O 0.51912 0.81565 0.74165 0.0
O536 O 0.48052 0.79063 0.56049 0.0
H537 H 0.60063 0.77357 0.15751 0.0
H538 H 0.60651 0.74137 0.2808 0.0
C539 C 0.5882 0.75827 0.25467 0.0
H540 H 0.55343 0.73295 0.25275 0.0
H541 H 0.53321 0.83984 0.32133 0.0
O542 O 0.57671 0.79944 0.89635 0.0
C543 C 0.48784 0.8105 0.67053 0.0
Co544 Co 0.19971 0.76293 0.71717 0.0
Co545 Co 0.22872 0.74384 0.4541 0.0
C546 C 0.29712 0.79519 0.63998 0.0
O547 O 0.26475 0.78879 0.71045 0.0
O548 O 0.29118 0.78059 0.52155 0.0
C549 C 0.21878 0.77493 0.96813 0.0
O550 O 0.25954 0.80566 0.94931 0.0
C551 C 0.23755 0.74269 0.16841 0.0
C552 C 0.16735 0.7192 0.13298 0.0
C553 C 0.20833 0.74403 0.07841 0.0
N554 N 0.21506 0.72174 0.27669 0.0
N555 N 0.17288 0.70534 0.25081 0.0
C556 C 0.28137 0.74775 0.13742 0.0
H557 H 0.30193 0.75678 0.22738 0.0
H558 H 0.29825 0.77129 0.05669 0.0
H559 H 0.2763 0.71552 0.1044 0.0
C560 C 0.15399 0.79667 0.52039 0.0
N561 N 0.17966 0.78006 0.55976 0.0
N562 N 0.20244 0.78051 0.45719 0.0
C563 C 0.19576 0.80144 0.35584 0.0
C564 C 0.16253 0.80981 0.3871 0.0
C565 C 0.12131 0.79887 0.60755 0.0
H566 H 0.09033 0.76693 0.604 0.0
H567 H 0.13322 0.80474 0.71068 0.0
H568 H 0.11454 0.82448 0.57253 0.0
O569 O 0.17251 0.70072 0.74197 0.0
O570 O 0.19749 0.68711 0.5608 0.0
H571 H 0.21459 0.82425 0.15777 0.0
H572 H 0.2468 0.86236 0.28099 0.0
C573 C 0.2299 0.82715 0.25494 0.0
H574 H 0.25521 0.81769 0.25311 0.0
H575 H 0.14827 0.69063 0.3216 0.0
O576 O 0.18875 0.77453 0.89662 0.0
C577 C 0.17762 0.67457 0.67085 0.0
Co578 Co 0.22508 0.43405 0.71711 0.0
Co579 Co 0.24409 0.48217 0.45404 0.0
C580 C 0.1927 0.49912 0.64001 0.0
O581 O 0.19915 0.47318 0.71045 0.0
O582 O 0.20727 0.50779 0.52156 0.0
C583 C 0.21304 0.44109 0.96807 0.0
O584 O 0.18224 0.45102 0.94928 0.0
C585 C 0.24522 0.49213 0.16831 0.0
C586 C 0.26883 0.44552 0.13295 0.0
C587 C 0.24395 0.4616 0.07834 0.0
N588 N 0.26619 0.49064 0.27662 0.0
N589 N 0.28266 0.46492 0.25077 0.0
C590 C 0.24002 0.53081 0.13735 0.0
H591 H 0.23097 0.5423 0.22733 0.0
H592 H 0.21644 0.52408 0.05667 0.0
H593 H 0.27221 0.55803 0.10425 0.0
C594 C 0.1914 0.3546 0.52028 0.0
N595 N 0.20796 0.39687 0.55967 0.0
N596 N 0.20749 0.4192 0.45713 0.0
C597 C 0.18657 0.39159 0.35577 0.0
C598 C 0.17824 0.35 0.38699 0.0
C599 C 0.18925 0.31973 0.6074 0.0
H600 H 0.22121 0.32073 0.60381 0.0
H601 H 0.18338 0.32575 0.71055 0.0
H602 H 0.16366 0.28734 0.57238 0.0
O603 O 0.28728 0.46913 0.74187 0.0
O604 O 0.30082 0.50773 0.56074 0.0
H605 H 0.16373 0.38758 0.1577 0.0
H606 H 0.12563 0.38169 0.28092 0.0
C607 C 0.16084 0.39999 0.25485 0.0
H608 H 0.17029 0.43476 0.25298 0.0
H609 H 0.2974 0.45505 0.32159 0.0
O610 O 0.21351 0.41149 0.89658 0.0
C611 C 0.3134 0.50042 0.67078 0.0
loop_
_geom_bond_atom_site_label_1
_geom_bond_atom_site_label_2
_geom_bond_distance
_geom_bond_site_symmetry_2
_ccdc_geom_bond_type
Co0 O3 1.970 . S
Co0 N17 1.989 1_556 S
Co0 O25 1.967 . S
Co0 O32 1.920 . S
Co1 O4 1.966 . S
Co1 N10 2.022 . S
Co1 N18 1.993 . S
Co1 O26 1.941 . S
C2 O3 1.258 1_554 S
C2 O4 1.263 . S
O3 Co0 1.970 . S
O3 C2 1.258 1_556 S
O4 Co1 1.966 . S
O4 C2 1.263 . S
C5 O6 1.235 . S
C5 O32 1.289 . S
O6 C5 1.235 . S
C7 C9 1.400 . S
C7 N10 1.351 . S
C7 C12 1.501 . S
C8 C9 1.387 . S
C8 N11 1.341 . S
C9 C7 1.400 . S
C9 C8 1.387 . S
N10 Co1 2.022 . S
N10 C7 1.351 . S
N10 N11 1.365 . S
N11 C8 1.341 . S
N11 N10 1.365 . S
N11 H31 0.862 . S
C12 C7 1.501 . S
C12 H13 0.961 . S
C12 H14 0.961 . S
C12 H15 0.960 1_455 S
H13 C12 0.961 . S
H14 C12 0.961 . S
H15 C12 0.960 1_655 S
C16 N17 1.342 . S
C16 C20 1.401 . S
C16 C21 1.499 1_554 S
N17 Co0 1.989 1_554 S
N17 C16 1.342 . S
N17 N18 1.388 . S
N18 Co1 1.993 . S
N18 N17 1.388 . S
N18 C19 1.346 . S
C19 N18 1.346 . S
C19 C20 1.396 . S
C19 C29 1.510 . S
C20 C16 1.401 . S
C20 C19 1.396 . S
C21 C16 1.499 1_556 S
C21 H22 0.959 . S
C21 H23 0.960 . S
C21 H24 0.961 . S
H22 C21 0.959 . S
H23 C21 0.960 . S
H24 C21 0.961 . S
O25 Co0 1.967 . S
O25 C33 1.258 1_556 S
O26 Co1 1.941 . S
O26 C33 1.266 . S
H27 C29 0.959 . S
H28 C29 0.961 . S
C29 C19 1.510 . S
C29 H27 0.959 . S
C29 H28 0.961 . S
C29 H30 0.960 . S
H30 C29 0.960 . S
H31 N11 0.862 . S
O32 Co0 1.920 . S
O32 C5 1.289 . S
C33 O25 1.258 1_554 S
C33 O26 1.266 . S
Co34 O37 1.970 . S
Co34 N51 1.989 1_556 S
Co34 O59 1.967 . S
Co34 O66 1.920 . S
Co35 O38 1.966 . S
Co35 N44 2.022 . S
Co35 N52 1.993 . S
Co35 O60 1.941 . S
C36 O37 1.258 1_554 S
C36 O38 1.263 . S
O37 Co34 1.970 . S
O37 C36 1.258 1_556 S
O38 Co35 1.966 . S
O38 C36 1.263 . S
C39 O40 1.235 . S
C39 O66 1.289 . S
O40 C39 1.235 . S
C41 C43 1.400 . S
C41 N44 1.351 . S
C41 C46 1.501 . S
C42 C43 1.387 . S
C42 N45 1.341 . S
C43 C41 1.400 . S
C43 C42 1.387 . S
N44 Co35 2.022 . S
N44 C41 1.351 . S
N44 N45 1.365 . S
N45 C42 1.341 . S
N45 N44 1.365 . S
N45 H65 0.862 . S
C46 C41 1.501 . S
C46 H47 0.961 . S
C46 H48 0.961 . S
C46 H49 0.960 . S
H47 C46 0.961 . S
H48 C46 0.961 . S
H49 C46 0.960 . S
C50 N51 1.342 . S
C50 C54 1.401 . S
C50 C55 1.499 1_554 S
N51 Co34 1.989 1_554 S
N51 C50 1.342 . S
N51 N52 1.388 . S
N52 Co35 1.993 . S
N52 N51 1.388 . S
N52 C53 1.346 . S
C53 N52 1.346 . S
C53 C54 1.396 . S
C53 C63 1.510 . S
C54 C50 1.401 . S
C54 C53 1.396 . S
C55 C50 1.499 1_556 S
C55 H56 0.959 . S
C55 H57 0.960 . S
C55 H58 0.961 . S
H56 C55 0.959 . S
H57 C55 0.960 . S
H58 C55 0.961 . S
O59 Co34 1.967 . S
O59 C67 1.258 1_556 S
O60 Co35 1.941 . S
O60 C67 1.266 . S
H61 C63 0.959 . S
H62 C63 0.961 . S
C63 C53 1.510 . S
C63 H61 0.959 . S
C63 H62 0.961 . S
C63 H64 0.960 . S
H64 C63 0.960 . S
H65 N45 0.862 . S
O66 Co34 1.920 . S
O66 C39 1.289 . S
C67 O59 1.258 1_554 S
C67 O60 1.266 . S
Co68 O71 1.970 . S
Co68 N85 1.989 1_556 S
Co68 O93 1.967 . S
Co68 O100 1.920 . S
Co69 O72 1.966 . S
Co69 N78 2.022 . S
Co69 N86 1.993 . S
Co69 O94 1.941 . S
C70 O71 1.258 1_554 S
C70 O72 1.263 . S
O71 Co68 1.970 . S
O71 C70 1.258 1_556 S
O72 Co69 1.966 . S
O72 C70 1.263 . S
C73 O74 1.235 . S
C73 O100 1.289 . S
O74 C73 1.235 . S
C75 C77 1.400 . S
C75 N78 1.351 . S
C75 C80 1.501 . S
C76 C77 1.387 . S
C76 N79 1.341 . S
C77 C75 1.400 . S
C77 C76 1.387 . S
N78 Co69 2.022 . S
N78 C75 1.351 . S
N78 N79 1.365 . S
N79 C76 1.341 . S
N79 N78 1.365 . S
N79 H99 0.862 . S
C80 C75 1.501 . S
C80 H81 0.961 . S
C80 H82 0.961 . S
C80 H83 0.960 1_565 S
H81 C80 0.961 . S
H82 C80 0.961 . S
H83 C80 0.960 1_545 S
C84 N85 1.342 . S
C84 C88 1.401 . S
C84 C89 1.499 1_554 S
N85 Co68 1.989 1_554 S
N85 C84 1.342 . S
N85 N86 1.388 . S
N86 Co69 1.993 . S
N86 N85 1.388 . S
N86 C87 1.346 . S
C87 N86 1.346 . S
C87 C88 1.396 . S
C87 C97 1.510 . S
C88 C84 1.401 . S
C88 C87 1.396 . S
C89 C84 1.499 1_556 S
C89 H90 0.959 . S
C89 H91 0.960 . S
C89 H92 0.961 . S
H90 C89 0.959 . S
H91 C89 0.960 . S
H92 C89 0.961 . S
O93 Co68 1.967 . S
O93 C101 1.258 1_556 S
O94 Co69 1.941 . S
O94 C101 1.266 . S
H95 C97 0.959 . S
H96 C97 0.961 . S
C97 C87 1.510 . S
C97 H95 0.959 . S
C97 H96 0.961 . S
C97 H98 0.960 . S
H98 C97 0.960 . S
H99 N79 0.862 . S
O100 Co68 1.920 . S
O100 C73 1.289 . S
C101 O93 1.258 1_554 S
C101 O94 1.266 . S
Co102 O105 1.970 . S
Co102 N119 1.989 1_554 S
Co102 O127 1.967 . S
Co102 O134 1.920 . S
Co103 O106 1.966 . S
Co103 N112 2.022 . S
Co103 N120 1.993 . S
Co103 O128 1.941 . S
C104 O105 1.258 1_556 S
C104 O106 1.263 . S
O105 Co102 1.970 . S
O105 C104 1.258 1_554 S
O106 Co103 1.966 . S
O106 C104 1.263 . S
C107 O108 1.235 . S
C107 O134 1.289 . S
O108 C107 1.235 . S
C109 C111 1.400 . S
C109 N112 1.351 . S
C109 C114 1.501 . S
C110 C111 1.387 . S
C110 N113 1.341 . S
C111 C109 1.400 . S
C111 C110 1.387 . S
N112 Co103 2.022 . S
N112 C109 1.351 . S
N112 N113 1.365 . S
N113 C110 1.341 . S
N113 N112 1.365 . S
N113 H133 0.862 . S
C114 C109 1.501 . S
C114 H115 0.961 . S
C114 H116 0.961 . S
C114 H117 0.960 1_545 S
H115 C114 0.961 . S
H116 C114 0.961 . S
H117 C114 0.960 1_565 S
C118 N119 1.342 . S
C118 C122 1.401 . S
C118 C123 1.499 1_556 S
N119 Co102 1.989 1_556 S
N119 C118 1.342 . S
N119 N120 1.388 . S
N120 Co103 1.993 . S
N120 N119 1.388 . S
N120 C121 1.346 . S
C121 N120 1.346 . S
C121 C122 1.396 . S
C121 C131 1.510 . S
C122 C118 1.401 . S
C122 C121 1.396 . S
C123 C118 1.499 1_554 S
C123 H124 0.959 . S
C123 H125 0.960 . S
C123 H126 0.961 . S
H124 C123 0.959 . S
H125 C123 0.960 . S
H126 C123 0.961 . S
O127 Co102 1.967 . S
O127 C135 1.258 1_554 S
O128 Co103 1.941 . S
O128 C135 1.266 . S
H129 C131 0.959 . S
H130 C131 0.961 . S
C131 C121 1.510 . S
C131 H129 0.959 . S
C131 H130 0.961 . S
C131 H132 0.960 . S
H132 C131 0.960 . S
H133 N113 0.862 . S
O134 Co102 1.920 . S
O134 C107 1.289 . S
C135 O127 1.258 1_556 S
C135 O128 1.266 . S
Co136 O139 1.970 . S
Co136 N153 1.989 1_554 S
Co136 O161 1.967 . S
Co136 O168 1.920 . S
Co137 O140 1.966 . S
Co137 N146 2.022 . S
Co137 N154 1.993 . S
Co137 O162 1.941 . S
C138 O139 1.258 1_556 S
C138 O140 1.263 . S
O139 Co136 1.970 . S
O139 C138 1.258 1_554 S
O140 Co137 1.966 . S
O140 C138 1.263 . S
C141 O142 1.235 . S
C141 O168 1.289 . S
O142 C141 1.235 . S
C143 C145 1.400 . S
C143 N146 1.351 . S
C143 C148 1.501 . S
C144 C145 1.387 . S
C144 N147 1.341 . S
C145 C143 1.400 . S
C145 C144 1.387 . S
N146 Co137 2.022 . S
N146 C143 1.351 . S
N146 N147 1.365 . S
N147 C144 1.341 . S
N147 N146 1.365 . S
N147 H167 0.862 . S
C148 C143 1.501 . S
C148 H149 0.961 . S
C148 H150 0.961 . S
C148 H151 0.960 1_655 S
H149 C148 0.961 . S
H150 C148 0.961 . S
H151 C148 0.960 1_455 S
C152 N153 1.342 . S
C152 C156 1.401 . S
C152 C157 1.499 1_556 S
N153 Co136 1.989 1_556 S
N153 C152 1.342 . S
N153 N154 1.388 . S
N154 Co137 1.993 . S
N154 N153 1.388 . S
N154 C155 1.346 . S
C155 N154 1.346 . S
C155 C156 1.396 . S
C155 C165 1.510 . S
C156 C152 1.401 . S
C156 C155 1.396 . S
C157 C152 1.499 1_554 S
C157 H158 0.959 . S
C157 H159 0.960 . S
C157 H160 0.961 . S
H158 C157 0.959 . S
H159 C157 0.960 . S
H160 C157 0.961 . S
O161 Co136 1.967 . S
O161 C169 1.258 1_554 S
O162 Co137 1.941 . S
O162 C169 1.266 . S
H163 C165 0.959 . S
H164 C165 0.961 . S
C165 C155 1.510 . S
C165 H163 0.959 . S
C165 H164 0.961 . S
C165 H166 0.960 . S
H166 C165 0.960 . S
H167 N147 0.862 . S
O168 Co136 1.920 . S
O168 C141 1.289 . S
C169 O161 1.258 1_556 S
C169 O162 1.266 . S
Co170 O173 1.970 . S
Co170 N187 1.989 1_554 S
Co170 O195 1.967 . S
Co170 O202 1.920 . S
Co171 O174 1.966 . S
Co171 N180 2.022 . S
Co171 N188 1.993 . S
Co171 O196 1.941 . S
C172 O173 1.258 1_556 S
C172 O174 1.263 . S
O173 Co170 1.970 . S
O173 C172 1.258 1_554 S
O174 Co171 1.966 . S
O174 C172 1.263 . S
C175 O176 1.235 . S
C175 O202 1.289 . S
O176 C175 1.235 . S
C177 C179 1.400 . S
C177 N180 1.351 . S
C177 C182 1.501 . S
C178 C179 1.387 . S
C178 N181 1.341 . S
C179 C177 1.400 . S
C179 C178 1.387 . S
N180 Co171 2.022 . S
N180 C177 1.351 . S
N180 N181 1.365 . S
N181 C178 1.341 . S
N181 N180 1.365 . S
N181 H201 0.862 . S
C182 C177 1.501 . S
C182 H183 0.961 . S
C182 H184 0.961 . S
C182 H185 0.960 . S
H183 C182 0.961 . S
H184 C182 0.961 . S
H185 C182 0.960 . S
C186 N187 1.342 . S
C186 C190 1.401 . S
C186 C191 1.499 1_556 S
N187 Co170 1.989 1_556 S
N187 C186 1.342 . S
N187 N188 1.388 . S
N188 Co171 1.993 . S
N188 N187 1.388 . S
N188 C189 1.346 . S
C189 N188 1.346 . S
C189 C190 1.396 . S
C189 C199 1.510 . S
C190 C186 1.401 . S
C190 C189 1.396 . S
C191 C186 1.499 1_554 S
C191 H192 0.959 . S
C191 H193 0.960 . S
C191 H194 0.961 . S
H192 C191 0.959 . S
H193 C191 0.960 . S
H194 C191 0.961 . S
O195 Co170 1.967 . S
O195 C203 1.258 1_554 S
O196 Co171 1.941 . S
O196 C203 1.266 . S
H197 C199 0.959 . S
H198 C199 0.961 . S
C199 C189 1.510 . S
C199 H197 0.959 . S
C199 H198 0.961 . S
C199 H200 0.960 . S
H200 C199 0.960 . S
H201 N181 0.862 . S
O202 Co170 1.920 . S
O202 C175 1.289 . S
C203 O195 1.258 1_556 S
C203 O196 1.266 . S
Co204 O207 1.970 . S
Co204 N221 1.989 . S
Co204 O229 1.967 . S
Co204 O236 1.920 . S
Co205 O208 1.966 . S
Co205 N214 2.022 . S
Co205 N222 1.993 . S
Co205 O230 1.941 . S
C206 O207 1.258 . S
C206 O208 1.263 . S
O207 Co204 1.970 . S
O207 C206 1.258 . S
O208 Co205 1.966 . S
O208 C206 1.263 . S
C209 O210 1.235 . S
C209 O236 1.289 . S
O210 C209 1.235 . S
C211 C213 1.400 . S
C211 N214 1.351 . S
C211 C216 1.501 . S
C212 C213 1.387 . S
C212 N215 1.341 . S
C213 C211 1.400 . S
C213 C212 1.387 . S
N214 Co205 2.022 . S
N214 C211 1.351 . S
N214 N215 1.365 . S
N215 C212 1.341 . S
N215 N214 1.365 . S
N215 H235 0.862 . S
C216 C211 1.501 . S
C216 H217 0.961 . S
C216 H218 0.961 . S
C216 H219 0.960 . S
H217 C216 0.961 . S
H218 C216 0.961 . S
H219 C216 0.960 . S
C220 N221 1.342 . S
C220 C224 1.401 . S
C220 C225 1.499 . S
N221 Co204 1.989 . S
N221 C220 1.342 . S
N221 N222 1.388 . S
N222 Co205 1.993 . S
N222 N221 1.388 . S
N222 C223 1.346 . S
C223 N222 1.346 . S
C223 C224 1.396 . S
C223 C233 1.510 . S
C224 C220 1.401 . S
C224 C223 1.396 . S
C225 C220 1.499 . S
C225 H226 0.959 . S
C225 H227 0.960 . S
C225 H228 0.961 . S
H226 C225 0.959 . S
H227 C225 0.960 . S
H228 C225 0.961 . S
O229 Co204 1.967 . S
O229 C237 1.258 . S
O230 Co205 1.941 . S
O230 C237 1.266 . S
H231 C233 0.959 . S
H232 C233 0.961 . S
C233 C223 1.510 . S
C233 H231 0.959 . S
C233 H232 0.961 . S
C233 H234 0.960 . S
H234 C233 0.960 . S
H235 N215 0.862 . S
O236 Co204 1.920 . S
O236 C209 1.289 . S
C237 O229 1.258 . S
C237 O230 1.266 . S
Co238 O241 1.970 . S
Co238 N255 1.989 . S
Co238 O263 1.967 . S
Co238 O270 1.920 . S
Co239 O242 1.966 . S
Co239 N248 2.022 . S
Co239 N256 1.993 . S
Co239 O264 1.941 . S
C240 O241 1.258 . S
C240 O242 1.263 . S
O241 Co238 1.970 . S
O241 C240 1.258 . S
O242 Co239 1.966 . S
O242 C240 1.263 . S
C243 O244 1.235 . S
C243 O270 1.289 . S
O244 C243 1.235 . S
C245 C247 1.400 . S
C245 N248 1.351 . S
C245 C250 1.501 . S
C246 C247 1.387 . S
C246 N249 1.341 . S
C247 C245 1.400 . S
C247 C246 1.387 . S
N248 Co239 2.022 . S
N248 C245 1.351 . S
N248 N249 1.365 . S
N249 C246 1.341 . S
N249 N248 1.365 . S
N249 H269 0.862 . S
C250 C245 1.501 . S
C250 H251 0.961 . S
C250 H252 0.961 . S
C250 H253 0.960 . S
H251 C250 0.961 . S
H252 C250 0.961 . S
H253 C250 0.960 . S
C254 N255 1.342 . S
C254 C258 1.401 . S
C254 C259 1.499 . S
N255 Co238 1.989 . S
N255 C254 1.342 . S
N255 N256 1.388 . S
N256 Co239 1.993 . S
N256 N255 1.388 . S
N256 C257 1.346 . S
C257 N256 1.346 . S
C257 C258 1.396 . S
C257 C267 1.510 . S
C258 C254 1.401 . S
C258 C257 1.396 . S
C259 C254 1.499 . S
C259 H260 0.959 . S
C259 H261 0.960 . S
C259 H262 0.961 . S
H260 C259 0.959 . S
H261 C259 0.960 . S
H262 C259 0.961 . S
O263 Co238 1.967 . S
O263 C271 1.258 . S
O264 Co239 1.941 . S
O264 C271 1.266 . S
H265 C267 0.959 . S
H266 C267 0.961 . S
C267 C257 1.510 . S
C267 H265 0.959 . S
C267 H266 0.961 . S
C267 H268 0.960 . S
H268 C267 0.960 . S
H269 N249 0.862 . S
O270 Co238 1.920 . S
O270 C243 1.289 . S
C271 O263 1.258 . S
C271 O264 1.266 . S
Co272 O275 1.970 . S
Co272 N289 1.989 . S
Co272 O297 1.967 . S
Co272 O304 1.920 . S
Co273 O276 1.966 . S
Co273 N282 2.022 . S
Co273 N290 1.993 . S
Co273 O298 1.941 . S
C274 O275 1.258 . S
C274 O276 1.263 . S
O275 Co272 1.970 . S
O275 C274 1.258 . S
O276 Co273 1.966 . S
O276 C274 1.263 . S
C277 O278 1.235 . S
C277 O304 1.289 . S
O278 C277 1.235 . S
C279 C281 1.400 . S
C279 N282 1.351 . S
C279 C284 1.501 . S
C280 C281 1.387 . S
C280 N283 1.341 . S
C281 C279 1.400 . S
C281 C280 1.387 . S
N282 Co273 2.022 . S
N282 C279 1.351 . S
N282 N283 1.365 . S
N283 C280 1.341 . S
N283 N282 1.365 . S
N283 H303 0.862 . S
C284 C279 1.501 . S
C284 H285 0.961 . S
C284 H286 0.961 . S
C284 H287 0.960 . S
H285 C284 0.961 . S
H286 C284 0.961 . S
H287 C284 0.960 . S
C288 N289 1.342 . S
C288 C292 1.401 . S
C288 C293 1.499 . S
N289 Co272 1.989 . S
N289 C288 1.342 . S
N289 N290 1.388 . S
N290 Co273 1.993 . S
N290 N289 1.388 . S
N290 C291 1.346 . S
C291 N290 1.346 . S
C291 C292 1.396 . S
C291 C301 1.510 . S
C292 C288 1.401 . S
C292 C291 1.396 . S
C293 C288 1.499 . S
C293 H294 0.959 . S
C293 H295 0.960 . S
C293 H296 0.961 . S
H294 C293 0.959 . S
H295 C293 0.960 . S
H296 C293 0.961 . S
O297 Co272 1.967 . S
O297 C305 1.258 . S
O298 Co273 1.941 . S
O298 C305 1.266 . S
H299 C301 0.959 . S
H300 C301 0.961 . S
C301 C291 1.510 . S
C301 H299 0.959 . S
C301 H300 0.961 . S
C301 H302 0.960 . S
H302 C301 0.960 . S
H303 N283 0.862 . S
O304 Co272 1.920 . S
O304 C277 1.289 . S
C305 O297 1.258 . S
C305 O298 1.266 . S
Co306 O309 1.970 . S
Co306 N323 1.989 . S
Co306 O331 1.967 . S
Co306 O338 1.920 . S
Co307 O310 1.966 . S
Co307 N316 2.022 1_554 S
Co307 N324 1.993 . S
Co307 O332 1.941 . S
C308 O309 1.258 . S
C308 O310 1.263 . S
O309 Co306 1.970 . S
O309 C308 1.258 . S
O310 Co307 1.966 . S
O310 C308 1.263 . S
C311 O312 1.235 . S
C311 O338 1.289 . S
O312 C311 1.235 . S
C313 C315 1.400 . S
C313 N316 1.351 . S
C313 C318 1.501 . S
C314 C315 1.387 . S
C314 N317 1.341 . S
C315 C313 1.400 . S
C315 C314 1.387 . S
N316 Co307 2.022 1_556 S
N316 C313 1.351 . S
N316 N317 1.365 . S
N317 C314 1.341 . S
N317 N316 1.365 . S
N317 H337 0.862 . S
C318 C313 1.501 . S
C318 H319 0.961 . S
C318 H320 0.961 . S
C318 H321 0.960 . S
H319 C318 0.961 . S
H320 C318 0.961 . S
H321 C318 0.960 . S
C322 N323 1.342 . S
C322 C326 1.401 . S
C322 C327 1.499 . S
N323 Co306 1.989 . S
N323 C322 1.342 . S
N323 N324 1.388 . S
N324 Co307 1.993 . S
N324 N323 1.388 . S
N324 C325 1.346 . S
C325 N324 1.346 . S
C325 C326 1.396 . S
C325 C335 1.510 1_554 S
C326 C322 1.401 . S
C326 C325 1.396 . S
C327 C322 1.499 . S
C327 H328 0.959 . S
C327 H329 0.960 1_655 S
C327 H330 0.961 1_655 S
H328 C327 0.959 . S
H329 C327 0.960 1_455 S
H330 C327 0.961 1_455 S
O331 Co306 1.967 . S
O331 C339 1.258 . S
O332 Co307 1.941 . S
O332 C339 1.266 . S
H333 C335 0.959 . S
H334 C335 0.961 . S
C335 C325 1.510 1_556 S
C335 H333 0.959 . S
C335 H334 0.961 . S
C335 H336 0.960 . S
H336 C335 0.960 . S
H337 N317 0.862 . S
O338 Co306 1.920 . S
O338 C311 1.289 . S
C339 O331 1.258 . S
C339 O332 1.266 . S
Co340 O343 1.970 . S
Co340 N357 1.989 . S
Co340 O365 1.967 . S
Co340 O372 1.920 . S
Co341 O344 1.966 . S
Co341 N350 2.022 1_554 S
Co341 N358 1.993 . S
Co341 O366 1.941 . S
C342 O343 1.258 . S
C342 O344 1.263 . S
O343 Co340 1.970 . S
O343 C342 1.258 . S
O344 Co341 1.966 . S
O344 C342 1.263 . S
C345 O346 1.235 . S
C345 O372 1.289 . S
O346 C345 1.235 . S
C347 C349 1.400 . S
C347 N350 1.351 . S
C347 C352 1.501 . S
C348 C349 1.387 . S
C348 N351 1.341 . S
C349 C347 1.400 . S
C349 C348 1.387 . S
N350 Co341 2.022 1_556 S
N350 C347 1.351 . S
N350 N351 1.365 . S
N351 C348 1.341 . S
N351 N350 1.365 . S
N351 H371 0.862 . S
C352 C347 1.501 . S
C352 H353 0.961 . S
C352 H354 0.961 . S
C352 H355 0.960 . S
H353 C352 0.961 . S
H354 C352 0.961 . S
H355 C352 0.960 . S
C356 N357 1.342 . S
C356 C360 1.401 . S
C356 C361 1.499 . S
N357 Co340 1.989 . S
N357 C356 1.342 . S
N357 N358 1.388 . S
N358 Co341 1.993 . S
N358 N357 1.388 . S
N358 C359 1.346 . S
C359 N358 1.346 . S
C359 C360 1.396 . S
C359 C369 1.510 1_554 S
C360 C356 1.401 . S
C360 C359 1.396 . S
C361 C356 1.499 . S
C361 H362 0.959 . S
C361 H363 0.960 . S
C361 H364 0.961 . S
H362 C361 0.959 . S
H363 C361 0.960 . S
H364 C361 0.961 . S
O365 Co340 1.967 . S
O365 C373 1.258 . S
O366 Co341 1.941 . S
O366 C373 1.266 . S
H367 C369 0.959 . S
H368 C369 0.961 . S
C369 C359 1.510 1_556 S
C369 H367 0.959 . S
C369 H368 0.961 . S
C369 H370 0.960 . S
H370 C369 0.960 . S
H371 N351 0.862 . S
O372 Co340 1.920 . S
O372 C345 1.289 . S
C373 O365 1.258 . S
C373 O366 1.266 . S
Co374 O377 1.970 . S
Co374 N391 1.989 . S
Co374 O399 1.967 . S
Co374 O406 1.920 . S
Co375 O378 1.966 . S
Co375 N384 2.022 1_554 S
Co375 N392 1.993 . S
Co375 O400 1.941 . S
C376 O377 1.258 . S
C376 O378 1.263 . S
O377 Co374 1.970 . S
O377 C376 1.258 . S
O378 Co375 1.966 . S
O378 C376 1.263 . S
C379 O380 1.235 . S
C379 O406 1.289 . S
O380 C379 1.235 . S
C381 C383 1.400 . S
C381 N384 1.351 . S
C381 C386 1.501 . S
C382 C383 1.387 . S
C382 N385 1.341 . S
C383 C381 1.400 . S
C383 C382 1.387 . S
N384 Co375 2.022 1_556 S
N384 C381 1.351 . S
N384 N385 1.365 . S
N385 C382 1.341 . S
N385 N384 1.365 . S
N385 H405 0.862 . S
C386 C381 1.501 . S
C386 H387 0.961 . S
C386 H388 0.961 . S
C386 H389 0.960 . S
H387 C386 0.961 . S
H388 C386 0.961 . S
H389 C386 0.960 . S
C390 N391 1.342 . S
C390 C394 1.401 . S
C390 C395 1.499 . S
N391 Co374 1.989 . S
N391 C390 1.342 . S
N391 N392 1.388 . S
N392 Co375 1.993 . S
N392 N391 1.388 . S
N392 C393 1.346 . S
C393 N392 1.346 . S
C393 C394 1.396 . S
C393 C403 1.510 1_554 S
C394 C390 1.401 . S
C394 C393 1.396 . S
C395 C390 1.499 . S
C395 H396 0.959 . S
C395 H397 0.960 1_545 S
C395 H398 0.961 1_545 S
H396 C395 0.959 . S
H397 C395 0.960 1_565 S
H398 C395 0.961 1_565 S
O399 Co374 1.967 . S
O399 C407 1.258 . S
O400 Co375 1.941 . S
O400 C407 1.266 . S
H401 C403 0.959 . S
H402 C403 0.961 . S
C403 C393 1.510 1_556 S
C403 H401 0.959 . S
C403 H402 0.961 . S
C403 H404 0.960 . S
H404 C403 0.960 . S
H405 N385 0.862 . S
O406 Co374 1.920 . S
O406 C379 1.289 . S
C407 O399 1.258 . S
C407 O400 1.266 . S
Co408 O411 1.970 . S
Co408 N425 1.989 . S
Co408 O433 1.967 . S
Co408 O440 1.920 . S
Co409 O412 1.966 . S
Co409 N418 2.022 1_556 S
Co409 N426 1.993 . S
Co409 O434 1.941 . S
C410 O411 1.258 . S
C410 O412 1.263 . S
O411 Co408 1.970 . S
O411 C410 1.258 . S
O412 Co409 1.966 . S
O412 C410 1.263 . S
C413 O414 1.235 . S
C413 O440 1.289 . S
O414 C413 1.235 . S
C415 C417 1.400 . S
C415 N418 1.351 . S
C415 C420 1.501 . S
C416 C417 1.387 . S
C416 N419 1.341 . S
C417 C415 1.400 . S
C417 C416 1.387 . S
N418 Co409 2.022 1_554 S
N418 C415 1.351 . S
N418 N419 1.365 . S
N419 C416 1.341 . S
N419 N418 1.365 . S
N419 H439 0.862 . S
C420 C415 1.501 . S
C420 H421 0.961 . S
C420 H422 0.961 . S
C420 H423 0.960 . S
H421 C420 0.961 . S
H422 C420 0.961 . S
H423 C420 0.960 . S
C424 N425 1.342 . S
C424 C428 1.401 . S
C424 C429 1.499 . S
N425 Co408 1.989 . S
N425 C424 1.342 . S
N425 N426 1.388 . S
N426 Co409 1.993 . S
N426 N425 1.388 . S
N426 C427 1.346 . S
C427 N426 1.346 . S
C427 C428 1.396 . S
C427 C437 1.510 1_556 S
C428 C424 1.401 . S
C428 C427 1.396 . S
C429 C424 1.499 . S
C429 H430 0.959 . S
C429 H431 0.960 1_565 S
C429 H432 0.961 1_565 S
H430 C429 0.959 . S
H431 C429 0.960 1_545 S
H432 C429 0.961 1_545 S
O433 Co408 1.967 . S
O433 C441 1.258 . S
O434 Co409 1.941 . S
O434 C441 1.266 . S
H435 C437 0.959 . S
H436 C437 0.961 . S
C437 C427 1.510 1_554 S
C437 H435 0.959 . S
C437 H436 0.961 . S
C437 H438 0.960 . S
H438 C437 0.960 . S
H439 N419 0.862 . S
O440 Co408 1.920 . S
O440 C413 1.289 . S
C441 O433 1.258 . S
C441 O434 1.266 . S
Co442 O445 1.970 . S
Co442 N459 1.989 . S
Co442 O467 1.967 . S
Co442 O474 1.920 . S
Co443 O446 1.966 . S
Co443 N452 2.022 1_556 S
Co443 N460 1.993 . S
Co443 O468 1.941 . S
C444 O445 1.258 . S
C444 O446 1.263 . S
O445 Co442 1.970 . S
O445 C444 1.258 . S
O446 Co443 1.966 . S
O446 C444 1.263 . S
C447 O448 1.235 . S
C447 O474 1.289 . S
O448 C447 1.235 . S
C449 C451 1.400 . S
C449 N452 1.351 . S
C449 C454 1.501 . S
C450 C451 1.387 . S
C450 N453 1.341 . S
C451 C449 1.400 . S
C451 C450 1.387 . S
N452 Co443 2.022 1_554 S
N452 C449 1.351 . S
N452 N453 1.365 . S
N453 C450 1.341 . S
N453 N452 1.365 . S
N453 H473 0.862 . S
C454 C449 1.501 . S
C454 H455 0.961 . S
C454 H456 0.961 . S
C454 H457 0.960 . S
H455 C454 0.961 . S
H456 C454 0.961 . S
H457 C454 0.960 . S
C458 N459 1.342 . S
C458 C462 1.401 . S
C458 C463 1.499 . S
N459 Co442 1.989 . S
N459 C458 1.342 . S
N459 N460 1.388 . S
N460 Co443 1.993 . S
N460 N459 1.388 . S
N460 C461 1.346 . S
C461 N460 1.346 . S
C461 C462 1.396 . S
C461 C471 1.510 1_556 S
C462 C458 1.401 . S
C462 C461 1.396 . S
C463 C458 1.499 . S
C463 H464 0.959 . S
C463 H465 0.960 1_455 S
C463 H466 0.961 1_455 S
H464 C463 0.959 . S
H465 C463 0.960 1_655 S
H466 C463 0.961 1_655 S
O467 Co442 1.967 . S
O467 C475 1.258 . S
O468 Co443 1.941 . S
O468 C475 1.266 . S
H469 C471 0.959 . S
H470 C471 0.961 . S
C471 C461 1.510 1_554 S
C471 H469 0.959 . S
C471 H470 0.961 . S
C471 H472 0.960 . S
H472 C471 0.960 . S
H473 N453 0.862 . S
O474 Co442 1.920 . S
O474 C447 1.289 . S
C475 O467 1.258 . S
C475 O468 1.266 . S
Co476 O479 1.970 . S
Co476 N493 1.989 . S
Co476 O501 1.967 . S
Co476 O508 1.920 . S
Co477 O480 1.966 . S
Co477 N486 2.022 1_556 S
Co477 N494 1.993 . S
Co477 O502 1.941 . S
C478 O479 1.258 . S
C478 O480 1.263 . S
O479 Co476 1.970 . S
O479 C478 1.258 . S
O480 Co477 1.966 . S
O480 C478 1.263 . S
C481 O482 1.235 . S
C481 O508 1.289 . S
O482 C481 1.235 . S
C483 C485 1.400 . S
C483 N486 1.351 . S
C483 C488 1.501 . S
C484 C485 1.387 . S
C484 N487 1.341 . S
C485 C483 1.400 . S
C485 C484 1.387 . S
N486 Co477 2.022 1_554 S
N486 C483 1.351 . S
N486 N487 1.365 . S
N487 C484 1.341 . S
N487 N486 1.365 . S
N487 H507 0.862 . S
C488 C483 1.501 . S
C488 H489 0.961 . S
C488 H490 0.961 . S
C488 H491 0.960 . S
H489 C488 0.961 . S
H490 C488 0.961 . S
H491 C488 0.960 . S
C492 N493 1.342 . S
C492 C496 1.401 . S
C492 C497 1.499 . S
N493 Co476 1.989 . S
N493 C492 1.342 . S
N493 N494 1.388 . S
N494 Co477 1.993 . S
N494 N493 1.388 . S
N494 C495 1.346 . S
C495 N494 1.346 . S
C495 C496 1.396 . S
C495 C505 1.510 1_556 S
C496 C492 1.401 . S
C496 C495 1.396 . S
C497 C492 1.499 . S
C497 H498 0.959 . S
C497 H499 0.960 . S
C497 H500 0.961 . S
H498 C497 0.959 . S
H499 C497 0.960 . S
H500 C497 0.961 . S
O501 Co476 1.967 . S
O501 C509 1.258 . S
O502 Co477 1.941 . S
O502 C509 1.266 . S
H503 C505 0.959 . S
H504 C505 0.961 . S
C505 C495 1.510 1_554 S
C505 H503 0.959 . S
C505 H504 0.961 . S
C505 H506 0.960 . S
H506 C505 0.960 . S
H507 N487 0.862 . S
O508 Co476 1.920 . S
O508 C481 1.289 . S
C509 O501 1.258 . S
C509 O502 1.266 . S
Co510 O513 1.970 . S
Co510 N527 1.989 . S
Co510 O535 1.967 . S
Co510 O542 1.920 . S
Co511 O514 1.966 . S
Co511 N520 2.022 . S
Co511 N528 1.993 . S
Co511 O536 1.941 . S
C512 O513 1.258 . S
C512 O514 1.263 . S
O513 Co510 1.970 . S
O513 C512 1.258 . S
O514 Co511 1.966 . S
O514 C512 1.263 . S
C515 O516 1.235 . S
C515 O542 1.289 . S
O516 C515 1.235 . S
C517 C519 1.400 . S
C517 N520 1.351 . S
C517 C522 1.501 . S
C518 C519 1.387 . S
C518 N521 1.341 . S
C519 C517 1.400 . S
C519 C518 1.387 . S
N520 Co511 2.022 . S
N520 C517 1.351 . S
N520 N521 1.365 . S
N521 C518 1.341 . S
N521 N520 1.365 . S
N521 H541 0.862 . S
C522 C517 1.501 . S
C522 H523 0.961 . S
C522 H524 0.961 . S
C522 H525 0.960 . S
H523 C522 0.961 . S
H524 C522 0.961 . S
H525 C522 0.960 . S
C526 N527 1.342 . S
C526 C530 1.401 . S
C526 C531 1.499 . S
N527 Co510 1.989 . S
N527 C526 1.342 . S
N527 N528 1.388 . S
N528 Co511 1.993 . S
N528 N527 1.388 . S
N528 C529 1.346 . S
C529 N528 1.346 . S
C529 C530 1.396 . S
C529 C539 1.510 . S
C530 C526 1.401 . S
C530 C529 1.396 . S
C531 C526 1.499 . S
C531 H532 0.959 . S
C531 H533 0.960 . S
C531 H534 0.961 . S
H532 C531 0.959 . S
H533 C531 0.960 . S
H534 C531 0.961 . S
O535 Co510 1.967 . S
O535 C543 1.258 . S
O536 Co511 1.941 . S
O536 C543 1.266 . S
H537 C539 0.959 . S
H538 C539 0.961 . S
C539 C529 1.510 . S
C539 H537 0.959 . S
C539 H538 0.961 . S
C539 H540 0.960 . S
H540 C539 0.960 . S
H541 N521 0.862 . S
O542 Co510 1.920 . S
O542 C515 1.289 . S
C543 O535 1.258 . S
C543 O536 1.266 . S
Co544 O547 1.970 . S
Co544 N561 1.989 . S
Co544 O569 1.967 . S
Co544 O576 1.920 . S
Co545 O548 1.966 . S
Co545 N554 2.022 . S
Co545 N562 1.993 . S
Co545 O570 1.941 . S
C546 O547 1.258 . S
C546 O548 1.263 . S
O547 Co544 1.970 . S
O547 C546 1.258 . S
O548 Co545 1.966 . S
O548 C546 1.263 . S
C549 O550 1.235 . S
C549 O576 1.289 . S
O550 C549 1.235 . S
C551 C553 1.400 . S
C551 N554 1.351 . S
C551 C556 1.501 . S
C552 C553 1.387 . S
C552 N555 1.341 . S
C553 C551 1.400 . S
C553 C552 1.387 . S
N554 Co545 2.022 . S
N554 C551 1.351 . S
N554 N555 1.365 . S
N555 C552 1.341 . S
N555 N554 1.365 . S
N555 H575 0.862 . S
C556 C551 1.501 . S
C556 H557 0.961 . S
C556 H558 0.961 . S
C556 H559 0.960 . S
H557 C556 0.961 . S
H558 C556 0.961 . S
H559 C556 0.960 . S
C560 N561 1.342 . S
C560 C564 1.401 . S
C560 C565 1.499 . S
N561 Co544 1.989 . S
N561 C560 1.342 . S
N561 N562 1.388 . S
N562 Co545 1.993 . S
N562 N561 1.388 . S
N562 C563 1.346 . S
C563 N562 1.346 . S
C563 C564 1.396 . S
C563 C573 1.510 . S
C564 C560 1.401 . S
C564 C563 1.396 . S
C565 C560 1.499 . S
C565 H566 0.959 . S
C565 H567 0.960 . S
C565 H568 0.961 . S
H566 C565 0.959 . S
H567 C565 0.960 . S
H568 C565 0.961 . S
O569 Co544 1.967 . S
O569 C577 1.258 . S
O570 Co545 1.941 . S
O570 C577 1.266 . S
H571 C573 0.959 . S
H572 C573 0.961 . S
C573 C563 1.510 . S
C573 H571 0.959 . S
C573 H572 0.961 . S
C573 H574 0.960 . S
H574 C573 0.960 . S
H575 N555 0.862 . S
O576 Co544 1.920 . S
O576 C549 1.289 . S
C577 O569 1.258 . S
C577 O570 1.266 . S
Co578 O581 1.970 . S
Co578 N595 1.989 . S
Co578 O603 1.967 . S
Co578 O610 1.920 . S
Co579 O582 1.966 . S
Co579 N588 2.022 . S
Co579 N596 1.993 . S
Co579 O604 1.941 . S
C580 O581 1.258 . S
C580 O582 1.263 . S
O581 Co578 1.970 . S
O581 C580 1.258 . S
O582 Co579 1.966 . S
O582 C580 1.263 . S
C583 O584 1.235 . S
C583 O610 1.289 . S
O584 C583 1.235 . S
C585 C587 1.400 . S
C585 N588 1.351 . S
C585 C590 1.501 . S
C586 C587 1.387 . S
C586 N589 1.341 . S
C587 C585 1.400 . S
C587 C586 1.387 . S
N588 Co579 2.022 . S
N588 C585 1.351 . S
N588 N589 1.365 . S
N589 C586 1.341 . S
N589 N588 1.365 . S
N589 H609 0.862 . S
C590 C585 1.501 . S
C590 H591 0.961 . S
C590 H592 0.961 . S
C590 H593 0.960 . S
H591 C590 0.961 . S
H592 C590 0.961 . S
H593 C590 0.960 . S
C594 N595 1.342 . S
C594 C598 1.401 . S
C594 C599 1.499 . S
N595 Co578 1.989 . S
N595 C594 1.342 . S
N595 N596 1.388 . S
N596 Co579 1.993 . S
N596 N595 1.388 . S
N596 C597 1.346 . S
C597 N596 1.346 . S
C597 C598 1.396 . S
C597 C607 1.510 . S
C598 C594 1.401 . S
C598 C597 1.396 . S
C599 C594 1.499 . S
C599 H600 0.959 . S
C599 H601 0.960 . S
C599 H602 0.961 . S
H600 C599 0.959 . S
H601 C599 0.960 . S
H602 C599 0.961 . S
O603 Co578 1.967 . S
O603 C611 1.258 . S
O604 Co579 1.941 . S
O604 C611 1.266 . S
H605 C607 0.959 . S
H606 C607 0.961 . S
C607 C597 1.510 . S
C607 H605 0.959 . S
C607 H606 0.961 . S
C607 H608 0.960 . S
H608 C607 0.960 . S
H609 N589 0.862 . S
O610 Co578 1.920 . S
O610 C583 1.289 . S
C611 O603 1.258 . S
C611 O604 1.266 . S
C9 C5 2.642 . S
C43 C39 2.642 . S
C73 C77 2.642 . S
C111 C107 2.642 . S
C145 C141 2.642 . S
C175 C179 2.642 . S
C209 C213 2.642 1_554 S
C243 C247 2.642 1_554 S
C281 C277 2.642 1_556 S
C315 C311 2.642 . S
C349 C345 2.642 . S
C379 C383 2.642 . S
C413 C417 2.642 . S
C447 C451 2.642 . S
C481 C485 2.642 . S
C519 C515 2.642 1_554 S
C553 C549 2.642 1_554 S
C583 C587 2.642 1_556 S
C598 C20 2.516 . S
C54 C530 2.516 . S
C564 C88 2.516 . S
C258 C122 2.516 . S
C156 C292 2.516 . S
C190 C224 2.516 . S
C326 C462 2.516 1_654 S
C496 C360 2.516 1_556 S
C394 C428 2.516 1_544 S
C33 C135 1.643 1_554 S
C67 C169 1.643 1_564 S
C203 C101 1.643 1_656 S
C172 C36 1.990 1_556 S
C104 C70 1.991 1_546 S
C138 C2 1.991 1_656 S
C339 C237 1.643 . S
C373 C271 1.643 . S
C305 C407 1.643 . S
C376 C240 1.991 . S
C274 C308 1.990 . S
C206 C342 1.991 . S
C543 C441 1.643 . S
C577 C475 1.643 . S
C611 C509 1.643 . S
C444 C580 1.991 . S
C478 C512 1.991 . S
C546 C410 1.991 . S
