# Generated by pormake.
# Topology zfe, (5)-cn, num edge types: 1
# Building blocks:
#     Node 0, Type 0, BuildingBlock: XOMCOT_clean_sbu_0, # of connection points: 5
#     Node 1, Type 0, BuildingBlock: XOMCOT_clean_sbu_0, # of connection points: 5
#     Node 2, Type 0, BuildingBlock: XOMCOT_clean_sbu_0, # of connection points: 5
#     Node 3, Type 0, BuildingBlock: XOMCOT_clean_sbu_0, # of connection points: 5
#     Node 4, Type 0, BuildingBlock: XOMCOT_clean_sbu_0, # of connection points: 5
#     Node 5, Type 0, BuildingBlock: XOMCOT_clean_sbu_0, # of connection points: 5
#     Node 6, Type 0, BuildingBlock: XOMCOT_clean_sbu_0, # of connection points: 5
#     Node 7, Type 0, BuildingBlock: XOMCOT_clean_sbu_0, # of connection points: 5
#     Node 8, Type 0, BuildingBlock: XOMCOT_clean_sbu_0, # of connection points: 5
#     Node 9, Type 0, BuildingBlock: XOMCOT_clean_sbu_0, # of connection points: 5
#     Node 10, Type 0, BuildingBlock: XOMCOT_clean_sbu_0, # of connection points: 5
#     Node 11, Type 0, BuildingBlock: XOMCOT_clean_sbu_0, # of connection points: 5
#     Node 12, Type 0, BuildingBlock: XOMCOT_clean_sbu_0, # of connection points: 5
#     Node 13, Type 0, BuildingBlock: XOMCOT_clean_sbu_0, # of connection points: 5
#     Node 14, Type 0, BuildingBlock: XOMCOT_clean_sbu_0, # of connection points: 5
#     Node 15, Type 0, BuildingBlock: XOMCOT_clean_sbu_0, # of connection points: 5
#     Edge 16, Type (0, 0), BuildingBlock: XIVTED_clean_linker_0, # of connection points: 2
#     Edge 17, Type (0, 0), BuildingBlock: XIVTED_clean_linker_0, # of connection points: 2
#     Edge 18, Type (0, 0), BuildingBlock: XIVTED_clean_linker_0, # of connection points: 2
#     Edge 19, Type (0, 0), BuildingBlock: XIVTED_clean_linker_0, # of connection points: 2
#     Edge 20, Type (0, 0), BuildingBlock: XIVTED_clean_linker_0, # of connection points: 2
#     Edge 21, Type (0, 0), BuildingBlock: XIVTED_clean_linker_0, # of connection points: 2
#     Edge 22, Type (0, 0), BuildingBlock: XIVTED_clean_linker_0, # of connection points: 2
#     Edge 23, Type (0, 0), BuildingBlock: XIVTED_clean_linker_0, # of connection points: 2
#     Edge 24, Type (0, 0), BuildingBlock: XIVTED_clean_linker_0, # of connection points: 2
#     Edge 25, Type (0, 0), BuildingBlock: XIVTED_clean_linker_0, # of connection points: 2
#     Edge 26, Type (0, 0), BuildingBlock: XIVTED_clean_linker_0, # of connection points: 2
#     Edge 27, Type (0, 0), BuildingBlock: XIVTED_clean_linker_0, # of connection points: 2
#     Edge 28, Type (0, 0), BuildingBlock: XIVTED_clean_linker_0, # of connection points: 2
#     Edge 29, Type (0, 0), BuildingBlock: XIVTED_clean_linker_0, # of connection points: 2
#     Edge 30, Type (0, 0), BuildingBlock: XIVTED_clean_linker_0, # of connection points: 2
#     Edge 31, Type (0, 0), BuildingBlock: XIVTED_clean_linker_0, # of connection points: 2
#     Edge 32, Type (0, 0), BuildingBlock: XIVTED_clean_linker_0, # of connection points: 2
#     Edge 33, Type (0, 0), BuildingBlock: XIVTED_clean_linker_0, # of connection points: 2
#     Edge 34, Type (0, 0), BuildingBlock: XIVTED_clean_linker_0, # of connection points: 2
#     Edge 35, Type (0, 0), BuildingBlock: XIVTED_clean_linker_0, # of connection points: 2
#     Edge 36, Type (0, 0), BuildingBlock: XIVTED_clean_linker_0, # of connection points: 2
#     Edge 37, Type (0, 0), BuildingBlock: XIVTED_clean_linker_0, # of connection points: 2
#     Edge 38, Type (0, 0), BuildingBlock: XIVTED_clean_linker_0, # of connection points: 2
#     Edge 39, Type (0, 0), BuildingBlock: XIVTED_clean_linker_0, # of connection points: 2
#     Edge 40, Type (0, 0), BuildingBlock: XIVTED_clean_linker_0, # of connection points: 2
#     Edge 41, Type (0, 0), BuildingBlock: XIVTED_clean_linker_0, # of connection points: 2
#     Edge 42, Type (0, 0), BuildingBlock: XIVTED_clean_linker_0, # of connection points: 2
#     Edge 43, Type (0, 0), BuildingBlock: XIVTED_clean_linker_0, # of connection points: 2
#     Edge 44, Type (0, 0), BuildingBlock: XIVTED_clean_linker_0, # of connection points: 2
#     Edge 45, Type (0, 0), BuildingBlock: XIVTED_clean_linker_0, # of connection points: 2
#     Edge 46, Type (0, 0), BuildingBlock: XIVTED_clean_linker_0, # of connection points: 2
#     Edge 47, Type (0, 0), BuildingBlock: XIVTED_clean_linker_0, # of connection points: 2
#     Edge 48, Type (0, 0), BuildingBlock: XIVTED_clean_linker_0, # of connection points: 2
#     Edge 49, Type (0, 0), BuildingBlock: XIVTED_clean_linker_0, # of connection points: 2
#     Edge 50, Type (0, 0), BuildingBlock: XIVTED_clean_linker_0, # of connection points: 2
#     Edge 51, Type (0, 0), BuildingBlock: XIVTED_clean_linker_0, # of connection points: 2
#     Edge 52, Type (0, 0), BuildingBlock: XIVTED_clean_linker_0, # of connection points: 2
#     Edge 53, Type (0, 0), BuildingBlock: XIVTED_clean_linker_0, # of connection points: 2
#     Edge 54, Type (0, 0), BuildingBlock: XIVTED_clean_linker_0, # of connection points: 2
#     Edge 55, Type (0, 0), BuildingBlock: XIVTED_clean_linker_0, # of connection points: 2
# Relax obj value: 0.211
# Max RMSD: 0.180
# Mean RMSD: 0.180
data_MOF--net-zfe--node1-XOMCOT_clean_sbu_0--edge1-XIVTED_clean_linker_0
_symmetry_space_group_name_H-M    P1
_symmetry_Int_Tables_number       1
_symmetry_cell_setting            triclinic
loop_
_symmetry_equiv_pos_as_xyz
'x, y, z'
_cell_length_a     55.417928
_cell_length_b     55.435961
_cell_length_c     27.845566
_cell_angle_alpha  90.056611
_cell_angle_beta   89.995365
_cell_angle_gamma 90.036623
loop_
_atom_site_label
_atom_site_type_symbol
_atom_site_fract_x
_atom_site_fract_y
_atom_site_fract_z
_atom_type_partial_charge
Co0 Co 0.0414 0.22677 0.0586 0.0
C1 C 0.07718 0.26742 0.05358 0.0
C2 C 0.07656 0.2454 0.99016 0.0
C3 C 0.09424 0.26251 0.98481 0.0
N4 N 0.06581 0.24839 0.03319 0.0
N5 N 0.0947 0.2763 0.02468 0.0
H6 H 0.07336 0.27418 0.08921 0.0
H7 H 0.07219 0.2313 0.96471 0.0
C8 C 0.01869 0.24211 0.96791 0.0
O9 O 0.01895 0.26409 0.98557 0.0
N10 N 0.01724 0.20487 0.08276 0.0
C11 C 0.01999 0.18893 0.11879 0.0
C12 C 0.9987 0.17646 0.12445 0.0
C13 C 0.99445 0.20194 0.06687 0.0
N14 N 0.98271 0.18462 0.09171 0.0
C15 C 0.08425 0.19871 0.06443 0.0
C16 C 0.06705 0.15963 0.01278 0.0
C17 C 0.0897 0.15801 0.03503 0.0
C18 C 0.09851 0.1781 0.0602 0.0
C19 C 0.0534 0.18062 0.01774 0.0
N20 N 0.06193 0.1996 0.04397 0.0
H21 H 0.09075 0.21376 0.08548 0.0
H22 H 0.03553 0.18117 1.0023 0.0
H23 H 0.03644 0.18635 0.13905 0.0
H24 H 0.98659 0.21234 0.03797 0.0
O25 O 0.05201 0.23263 0.12343 0.0
O26 O 0.02322 0.2533 0.08667 0.0
O27 O 0.02659 0.22465 0.99306 0.0
C28 C 0.03528 0.24897 0.12603 0.0
H29 H 0.10589 0.26461 0.9539 0.0
H30 H 0.99543 0.16209 0.14993 0.0
H31 H 0.05967 0.1446 0.99271 0.0
H32 H 0.11576 0.17752 0.07843 0.0
Co33 Co 0.76434 0.04452 0.06296 0.0
C34 C 0.72682 0.0838 0.05244 0.0
C35 C 0.71545 0.04913 0.027 0.0
C36 C 0.69671 0.06502 0.02116 0.0
N37 N 0.73444 0.06083 0.04638 0.0
N38 N 0.70383 0.08684 0.03718 0.0
H39 H 0.73753 0.09811 0.06743 0.0
H40 H 0.71522 0.03013 0.01815 0.0
C41 C 0.76187 0.04284 0.95658 0.0
O42 O 0.75648 0.06591 0.95793 0.0
N43 N 0.79329 0.02707 0.07894 0.0
C44 C 0.81042 0.0332 0.11102 0.0
C45 C 0.82708 0.01477 0.11329 0.0
C46 C 0.79962 0.00518 0.06217 0.0
N47 N 0.82023 0.99723 0.08247 0.0
C48 C 0.78438 0.09139 0.07835 0.0
C49 C 0.82186 0.08679 0.0136 0.0
C50 C 0.82225 0.106 0.04636 0.0
C51 C 0.8027 0.10864 0.07778 0.0
C52 C 0.80304 0.06998 0.01511 0.0
N53 N 0.78452 0.07229 0.04734 0.0
H54 H 0.77117 0.09246 0.1067 0.0
H55 H 0.80477 0.05395 0.9934 0.0
H56 H 0.81058 0.04972 0.13172 0.0
H57 H 0.7889 0.99494 0.03686 0.0
O58 O 0.75916 0.05153 0.12987 0.0
O59 O 0.7456 0.01889 0.09267 0.0
O60 O 0.76608 0.03141 0.99552 0.0
C61 C 0.74769 0.03117 0.13241 0.0
H62 H 0.67897 0.0606 0.00748 0.0
H63 H 0.84295 0.01429 0.1359 0.0
H64 H 0.83693 0.08357 0.98968 0.0
H65 H 0.80226 0.12312 0.10391 0.0
Co66 Co 0.95895 0.77534 0.05205 0.0
C67 C 0.91744 0.74012 0.04352 0.0
C68 C 0.94943 0.72948 1.00573 0.0
C69 C 0.93214 0.71218 0.99837 0.0
N70 N 0.94014 0.74739 0.03289 0.0
N71 N 0.91212 0.7189 0.02213 0.0
H72 H 0.90503 0.74961 0.06648 0.0
H73 H 0.96773 0.72902 0.99225 0.0
C74 C 0.96044 0.77553 0.94531 0.0
O75 O 0.93685 0.77315 0.94678 0.0
N76 N 0.97884 0.80224 0.07048 0.0
C77 C 0.97409 0.81946 0.10328 0.0
C78 C 0.99395 0.83437 0.10669 0.0
C79 C 0.0013 0.80674 0.0545 0.0
N80 N 0.01097 0.82631 0.07589 0.0
C81 C 0.91362 0.79882 0.06739 0.0
C82 C 0.92192 0.8371 0.00605 0.0
C83 C 0.90223 0.83816 0.03751 0.0
C84 C 0.8978 0.81838 0.06746 0.0
C85 C 0.93739 0.8172 0.00726 0.0
N86 N 0.93316 0.79819 0.0375 0.0
H87 H 0.91124 0.78532 0.0947 0.0
H88 H 0.95388 0.8182 0.98676 0.0
H89 H 0.95749 0.8209 0.12352 0.0
H90 H 0.01063 0.79544 0.02879 0.0
O91 O 0.95108 0.76969 0.11842 0.0
O92 O 0.98254 0.75378 0.08104 0.0
O93 O 0.97245 0.77719 0.98447 0.0
C94 C 0.97028 0.75638 0.12072 0.0
H95 H 0.93429 0.69558 0.97831 0.0
H96 H 0.99569 0.84993 0.12993 0.0
H97 H 0.92646 0.85233 0.98344 0.0
H98 H 0.88298 0.8186 0.09282 0.0
Co99 Co 0.23535 0.95685 0.04576 0.0
C100 C 0.2698 0.91606 0.02934 0.0
C101 C 0.28177 0.94926 0.99799 0.0
C102 C 0.29827 0.93164 0.98701 0.0
N103 N 0.26369 0.93951 0.02398 0.0
N104 N 0.2907 0.9108 0.0067 0.0
H105 H 0.25939 0.90294 0.04892 0.0
H106 H 0.28315 0.96799 0.98799 0.0
C107 C 0.24012 0.98857 0.95935 0.0
O108 O 0.25361 0.00313 0.98516 0.0
N109 N 0.20728 0.97442 0.06684 0.0
C110 C 0.19045 0.96688 0.09836 0.0
C111 C 0.17308 0.9845 0.10254 0.0
C112 C 0.2002 0.99653 0.0528 0.0
N113 N 0.17928 0.0031 0.07384 0.0
C114 C 0.21305 0.91131 0.06425 0.0
C115 C 0.17718 0.91554 0.99591 0.0
C116 C 0.17494 0.89788 0.03155 0.0
C117 C 0.19373 0.89519 0.06468 0.0
C118 C 0.19686 0.93131 0.99664 0.0
N119 N 0.21424 0.92957 0.03139 0.0
H120 H 0.22603 0.91011 0.09298 0.0
H121 H 0.19659 0.94613 0.97176 0.0
H122 H 0.19072 0.94976 0.11691 0.0
H123 H 0.20991 0.00747 0.02722 0.0
O124 O 0.2427 0.94913 0.11171 0.0
O125 O 0.25582 0.98174 0.07455 0.0
O126 O 0.23117 0.96962 0.97833 0.0
C127 C 0.25459 0.96921 0.11409 0.0
H128 H 0.31488 0.93407 0.96711 0.0
H129 H 0.15726 0.98377 0.12529 0.0
H130 H 0.16289 0.91852 0.97006 0.0
H131 H 0.19284 0.88164 0.09262 0.0
Co132 Co 0.04716 0.77043 0.52002 0.0
C133 C 0.08486 0.73069 0.52885 0.0
C134 C 0.05051 0.72296 0.56087 0.0
C135 C 0.06492 0.70316 0.56626 0.0
N136 N 0.06288 0.74043 0.53792 0.0
N137 N 0.08647 0.70788 0.54598 0.0
H138 H 0.09904 0.73931 0.50873 0.0
H139 H 0.03192 0.72446 0.57235 0.0
C140 C 0.04537 0.76929 0.62658 0.0
O141 O 0.06851 0.76416 0.62502 0.0
N142 N 0.02991 0.79934 0.50304 0.0
C143 C 0.03694 0.81767 0.47457 0.0
C144 C 0.01839 0.83425 0.47232 0.0
C145 C 0.00732 0.80472 0.5171 0.0
N146 N 0.99978 0.82598 0.49899 0.0
C147 C 0.09467 0.78932 0.5063 0.0
C148 C 0.08945 0.82823 0.56754 0.0
C149 C 0.10892 0.82792 0.53547 0.0
C150 C 0.11188 0.80771 0.50586 0.0
C151 C 0.07256 0.80949 0.56675 0.0
N152 N 0.07509 0.79035 0.53603 0.0
H153 H 0.09598 0.77553 0.47918 0.0
H154 H 0.05628 0.81175 0.58751 0.0
H155 H 0.05424 0.81886 0.45673 0.0
H156 H 0.9967 0.79331 0.54049 0.0
O157 O 0.05464 0.7649 0.45338 0.0
O158 O 0.02163 0.75169 0.48959 0.0
O159 O 0.03372 0.77282 0.58751 0.0
C160 C 0.03424 0.75353 0.4502 0.0
H161 H 0.05981 0.6864 0.58341 0.0
H162 H 0.01847 0.85088 0.452 0.0
H163 H 0.08606 0.8438 0.59008 0.0
H164 H 0.12657 0.80681 0.48025 0.0
Co165 Co 0.23379 0.0435 0.51355 0.0
C166 C 0.26577 0.08655 0.52407 0.0
C167 C 0.27766 0.05583 0.56474 0.0
C168 C 0.29286 0.07475 0.57435 0.0
N169 N 0.26056 0.06324 0.53376 0.0
N170 N 0.28539 0.09402 0.54891 0.0
H171 H 0.25526 0.09786 0.50031 0.0
H172 H 0.27888 0.03786 0.57963 0.0
C173 C 0.21473 0.02345 0.60795 0.0
O174 O 0.19249 0.02462 0.59173 0.0
N175 N 0.20747 0.02259 0.49389 0.0
C176 C 0.18954 0.02662 0.4621 0.0
C177 C 0.17623 0.00576 0.45695 0.0
C178 C 0.20526 0.99914 0.50619 0.0
N179 N 0.18607 0.9886 0.48505 0.0
C180 C 0.20164 0.08197 0.49017 0.0
C181 C 0.18621 0.09281 0.58189 0.0
C182 C 0.17433 0.10325 0.54261 0.0
C183 C 0.18304 0.09851 0.4965 0.0
C184 C 0.2054 0.07678 0.57387 0.0
N185 N 0.21142 0.06988 0.52821 0.0
H186 H 0.20736 0.07827 0.45396 0.0
H187 H 0.21498 0.06983 0.60451 0.0
H188 H 0.18645 0.04315 0.44277 0.0
H189 H 0.21766 0.9899 0.52989 0.0
O190 O 0.24003 0.05142 0.44728 0.0
O191 O 0.25608 0.02025 0.48477 0.0
O192 O 0.2324 0.03015 0.58148 0.0
C193 C 0.25353 0.03241 0.445 0.0
H194 H 0.30847 0.07433 0.5977 0.0
H195 H 0.16043 0.00346 0.43454 0.0
H196 H 0.18057 0.09681 0.61828 0.0
H197 H 0.17467 0.10652 0.46517 0.0
Co198 Co 0.9609 0.22834 0.52564 0.0
C199 C 0.92248 0.26645 0.52892 0.0
C200 C 0.95409 0.27463 0.57072 0.0
C201 C 0.93855 0.29371 0.57397 0.0
N202 N 0.94413 0.25754 0.54269 0.0
N203 N 0.91876 0.28873 0.54759 0.0
H204 H 0.91026 0.25734 0.50459 0.0
H205 H 0.97183 0.27356 0.58671 0.0
C206 C 0.97947 0.20933 0.62102 0.0
O207 O 0.97723 0.18703 0.60566 0.0
N208 N 0.97916 0.19955 0.50956 0.0
C209 C 0.97186 0.17778 0.4933 0.0
C210 C 0.99144 0.16243 0.49259 0.0
C211 C 0.00312 0.19724 0.51706 0.0
N212 N 0.01101 0.17472 0.50776 0.0
C213 C 0.91837 0.20139 0.5025 0.0
C214 C 0.90856 0.18425 0.59344 0.0
C215 C 0.89688 0.17374 0.55398 0.0
C216 C 0.90089 0.18354 0.50846 0.0
C217 C 0.92546 0.20271 0.58594 0.0
N218 N 0.93198 0.20926 0.54039 0.0
H219 H 0.92222 0.20723 0.46644 0.0
H220 H 0.93356 0.21103 0.61689 0.0
H221 H 0.9537 0.17285 0.48366 0.0
H222 H 0.01425 0.21142 0.53209 0.0
O223 O 0.95473 0.23409 0.45837 0.0
O224 O 0.98674 0.24761 0.49719 0.0
O225 O 0.97338 0.22699 0.59407 0.0
C226 C 0.97494 0.24583 0.45688 0.0
H227 H 0.94173 0.31022 0.59377 0.0
H228 H 0.99121 0.14358 0.48242 0.0
H229 H 0.90513 0.17785 0.62954 0.0
H230 H 0.89197 0.17621 0.47704 0.0
Co231 Co 0.77403 0.95728 0.5309 0.0
C232 C 0.73768 0.9164 0.52832 0.0
C233 C 0.7281 0.94579 0.57464 0.0
C234 C 0.70917 0.93 0.57334 0.0
N235 N 0.74635 0.93723 0.54741 0.0
N236 N 0.71511 0.91157 0.54427 0.0
H237 H 0.74644 0.90613 0.50042 0.0
H238 H 0.72787 0.96326 0.59192 0.0
C239 C 0.77226 0.95932 0.63738 0.0
O240 O 0.77106 0.93564 0.63646 0.0
N241 N 0.80049 0.97849 0.51486 0.0
C242 C 0.8203 0.97342 0.48869 0.0
C243 C 0.83525 0.99333 0.48921 0.0
C244 C 0.80332 0.00143 0.53003 0.0
N245 N 0.82448 0.01087 0.51512 0.0
C246 C 0.79913 0.91215 0.52175 0.0
C247 C 0.83676 0.92445 0.58217 0.0
C248 C 0.83914 0.90405 0.55288 0.0
C249 C 0.81962 0.89745 0.52367 0.0
C250 C 0.81603 0.93862 0.57918 0.0
N251 N 0.79755 0.93266 0.54878 0.0
H252 H 0.78568 0.90815 0.49508 0.0
H253 H 0.81597 0.95559 0.5982 0.0
H254 H 0.82386 0.9563 0.47143 0.0
H255 H 0.79047 0.01077 0.55265 0.0
O256 O 0.77048 0.94891 0.46418 0.0
O257 O 0.75214 0.97964 0.49986 0.0
O258 O 0.77374 0.97116 0.59807 0.0
C259 C 0.75617 0.96737 0.46068 0.0
H260 H 0.69177 0.93249 0.59036 0.0
H261 H 0.85268 0.99482 0.47189 0.0
H262 H 0.8514 0.93026 0.60523 0.0
H263 H 0.8209 0.88216 0.49956 0.0
Co264 Co 0.54363 0.7288 0.52061 0.0
C265 C 0.58249 0.76742 0.51456 0.0
C266 C 0.54845 0.77703 0.48332 0.0
C267 C 0.56364 0.79637 0.47941 0.0
N268 N 0.56018 0.75866 0.50462 0.0
N269 N 0.58503 0.79052 0.49931 0.0
H270 H 0.59625 0.75777 0.53397 0.0
H271 H 0.52983 0.77643 0.47175 0.0
C272 C 0.54095 0.73247 0.41436 0.0
O273 O 0.56384 0.73863 0.41576 0.0
N274 N 0.52592 0.69996 0.53643 0.0
C275 C 0.53315 0.68158 0.56448 0.0
C276 C 0.5145 0.66525 0.56802 0.0
C277 C 0.50306 0.69476 0.52353 0.0
N278 N 0.49556 0.67359 0.54235 0.0
C279 C 0.59039 0.70732 0.53194 0.0
C280 C 0.58236 0.67032 0.46733 0.0
C281 C 0.60143 0.66819 0.49998 0.0
C282 C 0.60607 0.68753 0.53109 0.0
C283 C 0.56709 0.69025 0.4695 0.0
N284 N 0.57079 0.70833 0.50221 0.0
H285 H 0.59263 0.72041 0.56023 0.0
H286 H 0.5508 0.68946 0.44844 0.0
H287 H 0.55064 0.68026 0.5815 0.0
H288 H 0.49196 0.70665 0.50209 0.0
O289 O 0.55156 0.73316 0.58752 0.0
O290 O 0.51878 0.74769 0.55251 0.0
O291 O 0.52967 0.72764 0.45332 0.0
C292 C 0.53145 0.74499 0.5916 0.0
H293 H 0.55912 0.81353 0.46329 0.0
H294 H 0.5149 0.64856 0.58811 0.0
H295 H 0.5781 0.6558 0.44269 0.0
H296 H 0.62032 0.68643 0.55762 0.0
Co297 Co 0.27202 0.53911 0.55957 0.0
C298 C 0.2342 0.5772 0.54909 0.0
C299 C 0.22884 0.54643 0.50322 0.0
C300 C 0.20981 0.56184 0.49712 0.0
N301 N 0.24415 0.55598 0.53559 0.0
N302 N 0.21304 0.58109 0.52604 0.0
H303 H 0.24158 0.58886 0.57664 0.0
H304 H 0.23084 0.52894 0.48654 0.0
C305 C 0.29536 0.51805 0.47049 0.0
O306 O 0.31664 0.52121 0.49032 0.0
N307 N 0.29948 0.52078 0.58289 0.0
C308 C 0.32035 0.52805 0.60334 0.0
C309 C 0.33541 0.50837 0.60773 0.0
C310 C 0.30188 0.49672 0.57692 0.0
N311 N 0.32376 0.48877 0.59083 0.0
C312 C 0.29926 0.58137 0.58207 0.0
C313 C 0.32075 0.58784 0.49364 0.0
C314 C 0.3308 0.59919 0.53406 0.0
C315 C 0.31849 0.59734 0.57775 0.0
C316 C 0.30092 0.57232 0.49952 0.0
N317 N 0.29243 0.56706 0.54447 0.0
H318 H 0.2916 0.57906 0.61727 0.0
H319 H 0.29329 0.56397 0.46808 0.0
H320 H 0.32495 0.54624 0.6133 0.0
H321 H 0.28847 0.48558 0.55932 0.0
O322 O 0.26383 0.54792 0.62448 0.0
O323 O 0.25089 0.51481 0.58888 0.0
O324 O 0.27623 0.52432 0.4931 0.0
C325 C 0.2516 0.52813 0.62753 0.0
H326 H 0.19438 0.55882 0.47404 0.0
H327 H 0.35373 0.50857 0.62125 0.0
H328 H 0.32892 0.58974 0.45853 0.0
H329 H 0.32472 0.60687 0.60939 0.0
Co330 Co 0.46024 0.2697 0.5828 0.0
C331 C 0.41811 0.23666 0.57178 0.0
C332 C 0.44968 0.22473 0.53371 0.0
C333 C 0.43111 0.20913 0.52364 0.0
N334 N 0.44151 0.24207 0.56343 0.0
N335 N 0.4113 0.21665 0.54742 0.0
H336 H 0.40621 0.24739 0.594 0.0
H337 H 0.46785 0.22374 0.51973 0.0
C338 C 0.47845 0.28958 0.48793 0.0
O339 O 0.47587 0.3117 0.50411 0.0
N340 N 0.48014 0.29701 0.60149 0.0
C341 C 0.47486 0.31596 0.63004 0.0
C342 C 0.49467 0.33093 0.63224 0.0
C343 C 0.50342 0.30024 0.58861 0.0
N344 N 0.51255 0.3211 0.60587 0.0
C345 C 0.42028 0.29984 0.60756 0.0
C346 C 0.40842 0.31511 0.51631 0.0
C347 C 0.39782 0.32655 0.55597 0.0
C348 C 0.40302 0.31783 0.60185 0.0
C349 C 0.42518 0.29652 0.52373 0.0
N350 N 0.43267 0.29078 0.56913 0.0
H351 H 0.42448 0.29423 0.64362 0.0
H352 H 0.43228 0.28723 0.49283 0.0
H353 H 0.45807 0.31892 0.64858 0.0
H354 H 0.51314 0.28799 0.56533 0.0
O355 O 0.45329 0.26315 0.64936 0.0
O356 O 0.48476 0.24853 0.61035 0.0
O357 O 0.47296 0.27158 0.51455 0.0
C358 C 0.47288 0.25044 0.6506 0.0
H359 H 0.43212 0.19333 0.50086 0.0
H360 H 0.49579 0.34776 0.65185 0.0
H361 H 0.40405 0.3207 0.48008 0.0
H362 H 0.3949 0.32584 0.63346 0.0
Co363 Co 0.73215 0.45791 0.54184 0.0
C364 C 0.76979 0.41812 0.53614 0.0
C365 C 0.77833 0.45033 0.49699 0.0
C366 C 0.79756 0.43502 0.49376 0.0
N367 N 0.76063 0.4398 0.52279 0.0
N368 N 0.79232 0.41484 0.51845 0.0
H369 H 0.7612 0.40572 0.56056 0.0
H370 H 0.77767 0.46851 0.483 0.0
C371 C 0.73243 0.46033 0.43519 0.0
O372 O 0.73543 0.43681 0.43581 0.0
N373 N 0.70484 0.47735 0.56019 0.0
C374 C 0.68637 0.4715 0.5894 0.0
C375 C 0.67082 0.4909 0.59173 0.0
C376 C 0.7006 0.50013 0.54582 0.0
N377 N 0.67987 0.50887 0.56437 0.0
C378 C 0.70934 0.41181 0.55396 0.0
C379 C 0.67055 0.42156 0.4948 0.0
C380 C 0.66922 0.40171 0.52579 0.0
C381 C 0.68937 0.39635 0.55423 0.0
C382 C 0.69075 0.43657 0.49577 0.0
N383 N 0.70982 0.43189 0.52556 0.0
H384 H 0.72321 0.40887 0.58037 0.0
H385 H 0.6898 0.45324 0.47592 0.0
H386 H 0.68429 0.45433 0.60735 0.0
H387 H 0.71227 0.50995 0.52155 0.0
O388 O 0.73749 0.4497 0.60822 0.0
O389 O 0.75314 0.48161 0.57189 0.0
O390 O 0.73041 0.47194 0.47476 0.0
C391 C 0.75048 0.46914 0.61123 0.0
H392 H 0.81453 0.43877 0.47596 0.0
H393 H 0.65426 0.49176 0.61224 0.0
H394 H 0.6554 0.42643 0.47223 0.0
H395 H 0.68893 0.38157 0.57963 0.0
Co396 Co 0.54018 0.27654 0.04743 0.0
C397 C 0.57535 0.23551 0.0512 0.0
C398 C 0.5734 0.25559 0.117 0.0
C399 C 0.59095 0.23834 0.12173 0.0
N400 N 0.56346 0.2538 0.07297 0.0
N401 N 0.59232 0.2258 0.08031 0.0
H402 H 0.57247 0.23007 0.01436 0.0
H403 H 0.56881 0.2691 0.14349 0.0
C404 C 0.51647 0.26337 0.13809 0.0
O405 O 0.51475 0.2416 0.11972 0.0
N406 N 0.51722 0.29954 0.02306 0.0
C407 C 0.52119 0.31586 0.9882 0.0
C408 C 0.5004 0.32896 0.98147 0.0
C409 C 0.49417 0.30279 0.0371 0.0
N410 N 0.48343 0.32073 0.01222 0.0
C411 C 0.5843 0.30174 0.03691 0.0
C412 C 0.57033 0.34318 0.08493 0.0
C413 C 0.59191 0.34324 0.05858 0.0
C414 C 0.59924 0.32193 0.03581 0.0
C415 C 0.5558 0.32255 0.08496 0.0
N416 N 0.56259 0.3025 0.05985 0.0
H417 H 0.58956 0.28579 0.01717 0.0
H418 H 0.5384 0.32326 0.10241 0.0
H419 H 0.5381 0.3182 0.96938 0.0
H420 H 0.48541 0.29208 0.06449 0.0
O421 O 0.54983 0.26936 0.98248 0.0
O422 O 0.52025 0.25074 0.02098 0.0
O423 O 0.52593 0.28023 0.11335 0.0
C424 C 0.53232 0.25382 0.98118 0.0
H425 H 0.60203 0.23548 0.15321 0.0
H426 H 0.49813 0.3437 0.95643 0.0
H427 H 0.56398 0.35938 0.10267 0.0
H428 H 0.61594 0.32118 0.01562 0.0
Co429 Co 0.73321 0.54532 0.00844 0.0
C430 C 0.76871 0.58618 0.01985 0.0
C431 C 0.7799 0.5532 0.05324 0.0
C432 C 0.79722 0.57039 0.06184 0.0
N433 N 0.76176 0.56315 0.02774 0.0
N434 N 0.79014 0.59104 0.04078 0.0
H435 H 0.75867 0.5993 0.99961 0.0
H436 H 0.78039 0.53463 0.06505 0.0
C437 C 0.73297 0.54406 0.11532 0.0
O438 O 0.73671 0.56746 0.11417 0.0
N439 N 0.70543 0.52671 0.98971 0.0
C440 C 0.68946 0.53188 0.95475 0.0
C441 C 0.67253 0.51369 0.95299 0.0
C442 C 0.69812 0.50563 0.00877 0.0
N443 N 0.67801 0.49731 0.98711 0.0
C444 C 0.71114 0.59097 0.99027 0.0
C445 C 0.67261 0.58462 0.0519 0.0
C446 C 0.67182 0.60345 0.01845 0.0
C447 C 0.69179 0.60701 0.98853 0.0
C448 C 0.69233 0.56894 0.05244 0.0
N449 N 0.7114 0.57212 0.02182 0.0
H450 H 0.72479 0.59257 0.96291 0.0
H451 H 0.69094 0.55295 0.0743 0.0
H452 H 0.69008 0.54776 0.93225 0.0
H453 H 0.70758 0.49635 0.03728 0.0
O454 O 0.7397 0.5524 0.94196 0.0
O455 O 0.75382 0.52055 0.98072 0.0
O456 O 0.7305 0.53227 0.07608 0.0
C457 C 0.75205 0.53254 0.9406 0.0
H458 H 0.81399 0.5678 0.08109 0.0
H459 H 0.65723 0.51272 0.92889 0.0
H460 H 0.65722 0.58073 0.07462 0.0
H461 H 0.69183 0.62119 0.96178 0.0
Co462 Co 0.45632 0.72554 0.98977 0.0
C463 C 0.41543 0.76003 0.99735 0.0
C464 C 0.44483 0.76859 0.04482 0.0
C465 C 0.42658 0.7848 0.0528 0.0
N466 N 0.43775 0.75294 0.01056 0.0
N467 N 0.40819 0.77941 0.02306 0.0
H468 H 0.40463 0.75105 0.97031 0.0
H469 H 0.46208 0.76823 0.06293 0.0
C470 C 0.47438 0.70494 0.08395 0.0
O471 O 0.46958 0.68292 0.06923 0.0
N472 N 0.47611 0.69848 0.96987 0.0
C473 C 0.4721 0.68124 0.93654 0.0
C474 C 0.49253 0.66719 0.93243 0.0
C475 C 0.49911 0.69513 0.98413 0.0
N476 N 0.50938 0.67592 0.96274 0.0
C477 C 0.4172 0.69429 0.96574 0.0
C478 C 0.404 0.68145 0.05781 0.0
C479 C 0.39394 0.66901 0.01877 0.0
C480 C 0.39985 0.67646 0.97233 0.0
C481 C 0.42087 0.69985 0.0494 0.0
N482 N 0.42897 0.70438 1.00388 0.0
H483 H 0.42168 0.6993 0.92947 0.0
H484 H 0.42776 0.70988 0.07963 0.0
H485 H 0.45597 0.67919 0.91534 0.0
H486 H 0.50838 0.70696 0.00897 0.0
O487 O 0.44877 0.73251 0.92367 0.0
O488 O 0.48056 0.74689 0.96227 0.0
O489 O 0.46989 0.72307 0.05705 0.0
C490 C 0.46844 0.74515 0.92228 0.0
H491 H 0.42693 0.79972 0.07792 0.0
H492 H 0.4948 0.65177 0.90898 0.0
H493 H 0.39911 0.67679 0.0943 0.0
H494 H 0.39208 0.66769 0.94116 0.0
Co495 Co 0.26421 0.45903 0.02869 0.0
C496 C 0.22625 0.42153 0.03894 0.0
C497 C 0.22053 0.452 0.0852 0.0
C498 C 0.20206 0.43587 0.09219 0.0
N499 N 0.23572 0.44297 0.05209 0.0
N500 N 0.20555 0.4167 0.06302 0.0
H501 H 0.23409 0.41005 0.01169 0.0
H502 H 0.22263 0.46927 0.10283 0.0
C503 C 0.28884 0.47934 0.11721 0.0
O504 O 0.30977 0.47654 0.0958 0.0
N505 N 0.2924 0.47618 1.00539 0.0
C506 C 0.31335 0.46778 0.98718 0.0
C507 C 0.32902 0.48692 0.98152 0.0
C508 C 0.29537 0.50028 0.00894 0.0
N509 N 0.31766 0.50726 0.99546 0.0
C510 C 0.28739 0.41469 1.00409 0.0
C511 C 0.31296 0.40815 0.08802 0.0
C512 C 0.31998 0.3954 0.04674 0.0
C513 C 0.30552 0.3974 1.00577 0.0
C514 C 0.29397 0.42485 0.08513 0.0
N515 N 0.28339 0.42994 0.0419 0.0
H516 H 0.27798 0.41677 0.97059 0.0
H517 H 0.28861 0.43397 0.11746 0.0
H518 H 0.31757 0.44913 0.98011 0.0
H519 H 0.28208 0.51221 0.02466 0.0
O520 O 0.25544 0.45145 0.96351 0.0
O521 O 0.24416 0.48465 1.00082 0.0
O522 O 0.26936 0.47287 0.09588 0.0
C523 C 0.24427 0.47186 0.96145 0.0
H524 H 0.18729 0.43814 0.11718 0.0
H525 H 0.34754 0.48587 0.96934 0.0
H526 H 0.32279 0.40632 0.12141 0.0
H527 H 0.30917 0.38679 0.9739 0.0
H528 H 0.08641 0.31626 0.07877 0.0
H529 H 0.21707 0.37253 0.02631 0.0
H530 H 0.1405 0.28118 0.99201 0.0
H531 H 0.15833 0.4128 0.08931 0.0
H532 H 0.19042 0.33762 0.01924 0.0
H533 H 0.11399 0.35039 0.09029 0.0
C534 C 0.10413 0.31567 0.06249 0.0
C535 C 0.11108 0.29596 0.03406 0.0
C536 C 0.18341 0.35413 0.03467 0.0
C537 C 0.14267 0.33489 0.04681 0.0
C538 C 0.19861 0.37416 0.03849 0.0
C539 C 0.19007 0.39581 0.05847 0.0
C540 C 0.15948 0.35564 0.0511 0.0
C541 C 0.16596 0.39653 0.07431 0.0
C542 C 0.11981 0.33519 0.06877 0.0
C543 C 0.13423 0.29619 0.01348 0.0
N544 N 0.15157 0.37679 0.0703 0.0
N545 N 0.14916 0.31533 0.02022 0.0
H546 H 0.70972 0.12516 0.09733 0.0
H547 H 0.58721 0.1894 0.01535 0.0
H548 H 0.66441 0.09798 0.98329 0.0
H549 H 0.63647 0.21889 0.12015 0.0
H550 H 0.61568 0.15639 1.00079 0.0
H551 H 0.68361 0.16032 0.10399 0.0
C552 C 0.69446 0.12663 0.07331 0.0
C553 C 0.68927 0.10839 0.03986 0.0
C554 C 0.62025 0.17016 0.02687 0.0
C555 C 0.65893 0.14861 0.04786 0.0
C556 C 0.60404 0.18905 0.03503 0.0
C557 C 0.60928 0.20683 0.06945 0.0
C558 C 0.64184 0.16905 0.0533 0.0
C559 C 0.63135 0.20535 0.09411 0.0
C560 C 0.67942 0.14671 0.07734 0.0
C561 C 0.66893 0.1113 0.01021 0.0
N562 N 0.64671 0.18677 0.08571 0.0
N563 N 0.65446 0.13094 0.01506 0.0
H564 H 0.79462 0.62148 0.96545 0.0
H565 H 0.88582 0.70998 0.10202 0.0
H566 H 0.81619 0.61089 0.1126 0.0
H567 H 0.88923 0.69613 0.94995 0.0
H568 H 0.85173 0.68164 0.10818 0.0
H569 H 0.82097 0.65707 0.96135 0.0
C570 C 0.80461 0.62693 0.99706 0.0
C571 C 0.80351 0.61322 0.03926 0.0
C572 C 0.85977 0.68511 0.07341 0.0
C573 C 0.83335 0.65372 0.03505 0.0
C574 C 0.87901 0.70132 0.0699 0.0
C575 C 0.89028 0.7051 0.0255 0.0
C576 C 0.85159 0.67309 0.03204 0.0
C577 C 0.88106 0.69338 0.98483 0.0
C578 C 0.81968 0.64708 0.99467 0.0
C579 C 0.81689 0.62086 0.07924 0.0
N580 N 0.86225 0.67784 0.98904 0.0
N581 N 0.83133 0.64061 0.07617 0.0
H582 H 0.31694 0.89271 0.9332 0.0
H583 H 0.38103 0.79611 0.09583 0.0
H584 H 0.29295 0.87719 0.07714 0.0
H585 H 0.38585 0.79381 0.94158 0.0
H586 H 0.34766 0.82481 0.08956 0.0
H587 H 0.34149 0.85602 0.93444 0.0
C588 C 0.31675 0.88144 0.96493 0.0
C589 C 0.30315 0.88807 1.00533 0.0
C590 C 0.35567 0.81774 0.05699 0.0
C591 C 0.33118 0.8462 0.00714 0.0
C592 C 0.3747 0.80144 0.06061 0.0
C593 C 0.38615 0.79283 0.01915 0.0
C594 C 0.34843 0.82592 0.01153 0.0
C595 C 0.37734 0.80007 0.97427 0.0
C596 C 0.33059 0.86044 0.9655 0.0
C597 C 0.30318 0.87269 0.04527 0.0
N598 N 0.35925 0.8166 0.9716 0.0
N599 N 0.3173 0.85265 0.04548 0.0
H600 H 0.13491 0.71705 0.54603 0.0
H601 H 0.16493 0.57586 0.52891 0.0
H602 H 0.08251 0.65979 0.53501 0.0
H603 H 0.22131 0.62912 0.54011 0.0
H604 H 0.13493 0.60754 0.53322 0.0
H605 H 0.16738 0.68657 0.54376 0.0
C606 C 0.13028 0.69814 0.54282 0.0
C607 C 0.10599 0.69089 0.54128 0.0
C608 C 0.1538 0.61253 0.53482 0.0
C609 C 0.14271 0.65617 0.53907 0.0
C610 C 0.17096 0.59436 0.53228 0.0
C611 C 0.1956 0.59993 0.53355 0.0
C612 C 0.16116 0.63671 0.53851 0.0
C613 C 0.20242 0.62418 0.53904 0.0
C614 C 0.14874 0.68079 0.54188 0.0
C615 C 0.10091 0.6662 0.53734 0.0
N616 N 0.18524 0.64181 0.54095 0.0
N617 N 0.11903 0.64986 0.53647 0.0
H618 H 0.38051 0.21055 0.6221 0.0
H619 H 0.29457 0.12199 0.47129 0.0
H620 H 0.38952 0.19583 0.47122 0.0
H621 H 0.30353 0.11821 0.62472 0.0
H622 H 0.32122 0.15753 0.46971 0.0
H623 H 0.34415 0.18509 0.62222 0.0
C624 C 0.37452 0.20235 0.58887 0.0
C625 C 0.38812 0.20494 0.54677 0.0
C626 C 0.31699 0.14914 0.5038 0.0
C627 C 0.34678 0.17599 0.54647 0.0
C628 C 0.3017 0.12904 0.50468 0.0
C629 C 0.29717 0.11713 0.5481 0.0
C630 C 0.32749 0.15744 0.54676 0.0
C631 C 0.30693 0.12677 0.59047 0.0
C632 C 0.35392 0.18775 0.58896 0.0
C633 C 0.37971 0.19387 0.5046 0.0
N634 N 0.32176 0.14626 0.58875 0.0
N635 N 0.35968 0.17976 0.50555 0.0
H636 H 0.83936 0.41981 0.5385 0.0
H637 H 0.87066 0.27865 0.53886 0.0
H638 H 0.78373 0.36635 0.5195 0.0
H639 H 0.92236 0.33675 0.53761 0.0
H640 H 0.83778 0.30874 0.53407 0.0
H641 H 0.86924 0.38805 0.54424 0.0
C642 C 0.83347 0.40123 0.53564 0.0
C643 C 0.80915 0.39567 0.52791 0.0
C644 C 0.85636 0.31477 0.5347 0.0
C645 C 0.84345 0.35881 0.53407 0.0
C646 C 0.87505 0.29766 0.53706 0.0
C647 C 0.8992 0.3053 0.5393 0.0
C648 C 0.86208 0.33952 0.5345 0.0
C649 C 0.90401 0.33008 0.53704 0.0
C650 C 0.85055 0.38302 0.53883 0.0
C651 C 0.80238 0.37127 0.52548 0.0
N652 N 0.88571 0.34618 0.53501 0.0
N653 N 0.81953 0.35362 0.52815 0.0
H654 H 0.63293 0.77897 0.5073 0.0
H655 H 0.67017 0.91876 0.51223 0.0
H656 H 0.58366 0.83921 0.50483 0.0
H657 H 0.72209 0.86297 0.54152 0.0
H658 H 0.63948 0.88818 0.49829 0.0
H659 H 0.66685 0.80771 0.5128 0.0
C660 C 0.62921 0.79813 0.50803 0.0
C661 C 0.60535 0.80663 0.50493 0.0
C662 C 0.65756 0.8824 0.50749 0.0
C663 C 0.64389 0.83943 0.51047 0.0
C664 C 0.67508 0.89991 0.51518 0.0
C665 C 0.69852 0.89329 0.52833 0.0
C666 C 0.66332 0.85791 0.51346 0.0
C667 C 0.70414 0.86865 0.53128 0.0
C668 C 0.64855 0.81449 0.51086 0.0
C669 C 0.60163 0.83167 0.50585 0.0
N670 N 0.68653 0.85173 0.52444 0.0
N671 N 0.62059 0.84703 0.50839 0.0
H672 H 0.13099 0.00983 0.08188 0.0
H673 H 0.13842 0.15099 0.02389 0.0
H674 H 0.19745 0.04673 0.04824 0.0
H675 H 0.07175 0.11256 0.0479 0.0
H676 H 0.16045 0.11294 0.03123 0.0
H677 H 0.10899 0.04739 0.06897 0.0
C678 C 0.14097 0.02586 0.07203 0.0
C679 C 0.16611 0.02514 0.06629 0.0
C680 C 0.14098 0.11282 0.03456 0.0
C681 C 0.14102 0.0682 0.05095 0.0
C682 C 0.12842 0.13453 0.03051 0.0
C683 C 0.10322 0.13495 0.03532 0.0
C684 C 0.12826 0.09139 0.04383 0.0
C685 C 0.09114 0.11306 0.04335 0.0
C686 C 0.12839 0.04727 0.06429 0.0
C687 C 0.17806 0.0464 0.05261 0.0
N688 N 0.10378 0.09221 0.04764 0.0
N689 N 0.16542 0.06708 0.04558 0.0
H690 H 0.95779 0.18308 0.00764 0.0
H691 H 0.8432 0.12045 0.13037 0.0
H692 H 0.95235 0.16629 0.15845 0.0
H693 H 0.85215 0.12498 0.97662 0.0
H694 H 0.88098 0.14208 0.14098 0.0
H695 H 0.91723 0.1664 0.99545 0.0
C696 C 0.94798 0.1761 0.03824 0.0
C697 C 0.9585 0.17595 0.08412 0.0
C698 C 0.87466 0.13852 0.10486 0.0
C699 C 0.91224 0.15681 0.07045 0.0
C700 C 0.85288 0.12637 0.09872 0.0
C701 C 0.84433 0.12098 0.05246 0.0
C702 C 0.88818 0.14539 0.06453 0.0
C703 C 0.85812 0.12861 0.01293 0.0
C704 C 0.92491 0.16646 0.03121 0.0
C705 C 0.94509 0.16644 0.1224 0.0
N706 N 0.87942 0.1404 0.01986 0.0
N707 N 0.92271 0.15727 0.1147 0.0
H708 H 0.88962 0.86012 0.12149 0.0
H709 H 0.82081 0.97101 1.00011 0.0
H710 H 0.8841 0.86834 0.9678 0.0
H711 H 0.84577 0.97096 0.1468 0.0
H712 H 0.83987 0.93155 0.98807 0.0
H713 H 0.86908 0.89864 0.13197 0.0
C714 C 0.88377 0.86988 0.08989 0.0
C715 C 0.88842 0.8609 0.04366 0.0
C716 C 0.84121 0.94023 0.02283 0.0
C717 C 0.86516 0.90531 0.05547 0.0
C718 C 0.83025 0.96266 0.02979 0.0
C719 C 0.83175 0.97428 0.07453 0.0
C720 C 0.85347 0.92921 0.06108 0.0
C721 C 0.84441 0.96278 0.11162 0.0
C722 C 0.87227 0.89202 0.09592 0.0
C723 C 0.88091 0.87465 1.00406 0.0
N724 N 0.85466 0.94085 0.10414 0.0
N725 N 0.86957 0.89616 0.01085 0.0
H726 H 0.15117 0.8894 0.11562 0.0
H727 H 0.03764 0.82444 0.99424 0.0
H728 H 0.14561 0.87728 0.96286 0.0
H729 H 0.03885 0.84999 0.1406 0.0
H730 H 0.07852 0.84019 0.98295 0.0
H731 H 0.11167 0.87094 0.12639 0.0
C732 C 0.14181 0.88248 0.08435 0.0
C733 C 0.15182 0.88475 0.03824 0.0
C734 C 0.06982 0.84236 0.0175 0.0
C735 C 0.10619 0.864 0.05032 0.0
C736 C 0.04654 0.83328 0.02405 0.0
C737 C 0.03482 0.83592 0.06846 0.0
C738 C 0.08153 0.85398 0.05577 0.0
C739 C 0.04708 0.84781 0.10565 0.0
C740 C 0.1191 0.87218 0.0905 0.0
C741 C 0.13853 0.87599 0.999 0.0
N742 N 0.06979 0.85631 0.09851 0.0
N743 N 0.11637 0.86599 0.00592 0.0
H744 H 0.18879 0.96215 0.56673 0.0
H745 H 0.12228 0.84816 0.4502 0.0
H746 H 0.16332 0.95991 0.42048 0.0
H747 H 0.1286 0.8583 0.60336 0.0
H748 H 0.14326 0.88631 0.43756 0.0
H749 H 0.17242 0.92156 0.57949 0.0
C750 C 0.17997 0.953 0.53718 0.0
C751 C 0.17737 0.9644 0.49246 0.0
C752 C 0.14023 0.88013 0.47395 0.0
C753 C 0.1586 0.91808 0.50682 0.0
C754 C 0.12847 0.8582 0.48124 0.0
C755 C 0.12377 0.84994 0.52797 0.0
C756 C 0.1475 0.89396 0.51363 0.0
C757 C 0.13176 0.86405 0.56676 0.0
C758 C 0.1705 0.92994 0.54458 0.0
C759 C 0.16549 0.95188 0.45561 0.0
N760 N 0.14323 0.8854 0.55873 0.0
N761 N 0.15659 0.92939 0.46357 0.0
H762 H 0.02258 0.12983 0.53853 0.0
H763 H 0.16363 0.14753 0.50492 0.0
H764 H 0.05363 0.19828 0.49883 0.0
H765 H 0.13349 0.09025 0.59065 0.0
H766 H 0.12374 0.16647 0.50104 0.0
H767 H 0.06312 0.11433 0.55482 0.0
C768 C 0.03796 0.14154 0.53298 0.0
C769 C 0.03478 0.16531 0.51697 0.0
C770 C 0.12592 0.14998 0.52139 0.0
C771 C 0.0812 0.14779 0.53581 0.0
C772 C 0.14866 0.13922 0.5237 0.0
C773 C 0.1518 0.11734 0.5482 0.0
C774 C 0.10607 0.13849 0.54285 0.0
C775 C 0.13184 0.10723 0.57177 0.0
C776 C 0.06106 0.13278 0.54278 0.0
C777 C 0.05532 0.17987 0.51125 0.0
N778 N 0.10972 0.11769 0.56789 0.0
N779 N 0.07768 0.17082 0.52022 0.0
H780 H 0.87091 0.02252 0.53402 0.0
H781 H 0.85177 0.16342 0.51876 0.0
H782 H 0.79964 0.05286 0.52126 0.0
H783 H 0.91098 0.13208 0.5973 0.0
H784 H 0.83261 0.1235 0.51455 0.0
H785 H 0.8869 0.06287 0.55117 0.0
C786 C 0.85867 0.03773 0.53474 0.0
C787 C 0.83396 0.03444 0.52604 0.0
C788 C 0.8496 0.12547 0.53339 0.0
C789 C 0.85206 0.08058 0.54539 0.0
C790 C 0.86049 0.1482 0.53586 0.0
C791 C 0.88291 0.15102 0.5586 0.0
C792 C 0.86155 0.10535 0.5527 0.0
C793 C 0.89356 0.13071 0.57991 0.0
C794 C 0.86773 0.06068 0.54493 0.0
C795 C 0.81878 0.05468 0.528 0.0
N796 N 0.88298 0.10866 0.57576 0.0
N797 N 0.82811 0.07697 0.53688 0.0
H798 H 0.98976 0.87389 0.49821 0.0
H799 H 0.84836 0.85534 0.54616 0.0
H800 H 0.957 0.80398 0.51784 0.0
H801 H 0.88386 0.92466 0.54755 0.0
H802 H 0.88761 0.83597 0.53326 0.0
H803 H 0.95058 0.89273 0.51288 0.0
C804 C 0.97431 0.8625 0.50534 0.0
C805 C 0.9767 0.83732 0.50686 0.0
C806 C 0.88679 0.85541 0.53674 0.0
C807 C 0.93175 0.85876 0.52405 0.0
C808 C 0.8644 0.86646 0.54399 0.0
C809 C 0.86282 0.89164 0.54832 0.0
C810 C 0.90771 0.86967 0.53324 0.0
C811 C 0.88422 0.90517 0.54534 0.0
C812 C 0.95196 0.87326 0.51407 0.0
C813 C 0.95607 0.82346 0.51692 0.0
N814 N 0.90571 0.89403 0.53778 0.0
N815 N 0.93447 0.83435 0.52499 0.0
H816 H 0.7033 0.55074 0.54432 0.0
H817 H 0.58076 0.6236 0.50187 0.0
H818 H 0.63232 0.52027 0.56343 0.0
H819 H 0.64984 0.659 0.51477 0.0
H820 H 0.60017 0.58498 0.51681 0.0
H821 H 0.68482 0.58992 0.52691 0.0
C822 C 0.68383 0.55227 0.54472 0.0
C823 C 0.66932 0.53218 0.55534 0.0
C824 C 0.61116 0.60114 0.51622 0.0
C825 C 0.64809 0.57692 0.53544 0.0
C826 C 0.60012 0.62322 0.50713 0.0
C827 C 0.61374 0.6446 0.50648 0.0
C828 C 0.63609 0.60024 0.52468 0.0
C829 C 0.63867 0.64297 0.51495 0.0
C830 C 0.67332 0.57466 0.53504 0.0
C831 C 0.6442 0.53529 0.55597 0.0
N832 N 0.64908 0.62114 0.52356 0.0
N833 N 0.6344 0.55718 0.54593 0.0
H834 H 0.36638 0.59386 0.60002 0.0
H835 H 0.46236 0.6801 0.47114 0.0
H836 H 0.35118 0.6293 0.46546 0.0
H837 H 0.47436 0.64256 0.60474 0.0
H838 H 0.42195 0.66215 0.46679 0.0
H839 H 0.4062 0.61187 0.60056 0.0
C840 C 0.37133 0.60572 0.57071 0.0
C841 C 0.35516 0.61044 0.53307 0.0
C842 C 0.43351 0.65784 0.49692 0.0
C843 C 0.40138 0.63094 0.53299 0.0
C844 C 0.45654 0.66816 0.4996 0.0
C845 C 0.4719 0.66285 0.5384 0.0
C846 C 0.42577 0.64215 0.53338 0.0
C847 C 0.46344 0.64698 0.57383 0.0
C848 C 0.39425 0.61587 0.57086 0.0
C849 C 0.36302 0.62528 0.49529 0.0
N850 N 0.44102 0.63729 0.57047 0.0
N851 N 0.38559 0.63513 0.49631 0.0
H852 H 0.36952 0.47765 0.56504 0.0
H853 H 0.35346 0.33647 0.59458 0.0
H854 H 0.30032 0.44599 0.59706 0.0
H855 H 0.41004 0.36767 0.5084 0.0
H856 H 0.33391 0.3761 0.5991 0.0
H857 H 0.38569 0.43732 0.54923 0.0
C858 C 0.3578 0.46216 0.56911 0.0
C859 C 0.33362 0.46508 0.58275 0.0
C860 C 0.35038 0.37419 0.57853 0.0
C861 C 0.3519 0.41894 0.56445 0.0
C862 C 0.36148 0.35161 0.57585 0.0
C863 C 0.38334 0.34886 0.55097 0.0
C864 C 0.36153 0.39423 0.55714 0.0
C865 C 0.39308 0.36901 0.52753 0.0
C866 C 0.36694 0.43919 0.55955 0.0
C867 C 0.31906 0.44444 0.58657 0.0
N868 N 0.38232 0.39095 0.53182 0.0
N869 N 0.32848 0.42219 0.57793 0.0
H870 H 0.55439 0.29798 0.58331 0.0
H871 H 0.62431 0.42165 0.5319 0.0
H872 H 0.52333 0.36873 0.60153 0.0
H873 H 0.66088 0.35302 0.53908 0.0
H874 H 0.58639 0.40156 0.55005 0.0
H875 H 0.59286 0.31688 0.5611 0.0
C876 C 0.55564 0.31745 0.58264 0.0
C877 C 0.5356 0.33178 0.59451 0.0
C878 C 0.60265 0.39081 0.54747 0.0
C879 C 0.57946 0.35349 0.56899 0.0
C880 C 0.62434 0.40225 0.53652 0.0
C881 C 0.64587 0.38899 0.53348 0.0
C882 C 0.60229 0.36582 0.55553 0.0
C883 C 0.64475 0.36396 0.54121 0.0
C884 C 0.57761 0.32822 0.57013 0.0
C885 C 0.53833 0.35695 0.59341 0.0
N886 N 0.62331 0.35317 0.55185 0.0
N887 N 0.55977 0.36695 0.58072 0.0
H888 H 0.65379 0.46886 0.92459 0.0
H889 H 0.6054 0.37769 0.12451 0.0
H890 H 0.6733 0.47567 0.07391 0.0
H891 H 0.60839 0.36061 0.97344 0.0
H892 H 0.62649 0.41583 0.10796 0.0
H893 H 0.63273 0.43124 0.94307 0.0
C894 C 0.6535 0.46248 0.96131 0.0
C895 C 0.66532 0.47533 0.99775 0.0
C896 C 0.62261 0.40362 0.07858 0.0
C897 C 0.64135 0.43232 0.01922 0.0
C898 C 0.61056 0.38196 0.08797 0.0
C899 C 0.60537 0.36594 0.05034 0.0
C900 C 0.62906 0.40939 0.03114 0.0
C901 C 0.6124 0.37228 1.0036 0.0
C902 C 0.64165 0.44094 0.97181 0.0
C903 C 0.66463 0.46613 0.04471 0.0
N904 N 0.62376 0.39354 0.99531 0.0
N905 N 0.65274 0.4452 0.05419 0.0
H906 H 0.53472 0.67783 0.04584 0.0
H907 H 0.65082 0.61406 0.93243 0.0
H908 H 0.53855 0.653 0.8992 0.0
H909 H 0.6406 0.62265 0.08514 0.0
H910 H 0.6118 0.63309 0.91858 0.0
H911 H 0.57534 0.66206 0.0598 0.0
C912 C 0.54419 0.6692 0.01648 0.0
C913 C 0.53328 0.66673 0.97123 0.0
C914 C 0.61813 0.63095 0.95512 0.0
C915 C 0.57968 0.6486 0.987 0.0
C916 C 0.64054 0.62032 0.96308 0.0
C917 C 0.64907 0.61689 0.01006 0.0
C918 C 0.60408 0.63833 0.99438 0.0
C919 C 0.63466 0.62486 0.04838 0.0
C920 C 0.5673 0.66009 0.02457 0.0
C921 C 0.54621 0.65507 0.9347 0.0
N922 N 0.61285 0.63523 0.0397 0.0
N923 N 0.56876 0.64651 0.94334 0.0
H924 H 0.36332 0.51816 0.0225 0.0
H925 H 0.34984 0.65882 0.97954 0.0
H926 H 0.29529 0.55021 0.98327 0.0
H927 H 0.40522 0.62883 0.07023 0.0
H928 H 0.32981 0.61937 0.97754 0.0
H929 H 0.38007 0.55856 0.03531 0.0
C930 C 0.352 0.53374 0.0162 0.0
C931 C 0.32796 0.53091 1.00147 0.0
C932 C 0.34612 0.62152 0.99854 0.0
C933 C 0.34688 0.57712 0.01636 0.0
C934 C 0.35748 0.644 0.99979 0.0
C935 C 0.37913 0.64701 0.0252 0.0
C936 C 0.35681 0.60181 0.02194 0.0
C937 C 0.38842 0.62727 0.05062 0.0
C938 C 0.36145 0.55676 0.02405 0.0
C939 C 0.3139 0.55168 0.99471 0.0
N940 N 0.37742 0.60538 0.04774 0.0
N941 N 0.32362 0.57393 1.00179 0.0
H942 H 0.45627 0.34218 0.94383 0.0
H943 H 0.34291 0.36732 0.11568 0.0
H944 H 0.45483 0.31942 0.09193 0.0
H945 H 0.3511 0.39445 0.97124 0.0
H946 H 0.38249 0.34753 0.10819 0.0
H947 H 0.41608 0.35894 0.95324 0.0
C948 C 0.44753 0.34079 0.97847 0.0
C949 C 0.4591 0.32959 0.01724 0.0
C950 C 0.37542 0.3577 0.07814 0.0
C951 C 0.41266 0.34868 0.02838 0.0
C952 C 0.35289 0.36904 0.08243 0.0
C953 C 0.34339 0.38229 0.04379 0.0
C954 C 0.38849 0.35975 0.03502 0.0
C955 C 0.3572 0.38391 1.00158 0.0
C956 C 0.42445 0.35029 0.98383 0.0
C957 C 0.44654 0.32781 0.06101 0.0
N958 N 0.3789 0.37282 0.99842 0.0
N959 N 0.42402 0.33739 0.06551 0.0
H960 H 0.02183 0.25693 0.4334 0.0
H961 H 0.9915 0.26779 0.15256 0.0
H962 H 0.94996 0.25409 0.37427 0.0
H963 H 0.06209 0.25071 0.20807 0.0
H964 H 0.97716 0.27379 0.23506 0.0
H965 H 0.03768 0.26514 0.35262 0.0
C966 C 0.00936 0.25852 0.40363 0.0
C967 C 0.98459 0.2546 0.41044 0.0
C968 C 0.99591 0.26919 0.2291 0.0
C969 C 0.00252 0.26395 0.31814 0.0
C970 C 0.00416 0.266 0.18198 0.0
C971 C 0.02797 0.25857 0.17349 0.0
C972 C 0.01164 0.26506 0.2679 0.0
C973 C 0.04352 0.25626 0.21306 0.0
C974 C 0.01841 0.26308 0.35753 0.0
C975 C 0.96923 0.25675 0.37054 0.0
N976 N 0.03505 0.25924 0.25852 0.0
N977 N 0.97844 0.26111 0.32614 0.0
H978 H 0.75442 0.94102 0.37807 0.0
H979 H 0.73989 0.05642 0.21476 0.0
H980 H 0.73752 0.01134 0.4353 0.0
H981 H 0.73927 0.9841 0.15754 0.0
H982 H 0.73514 0.04001 0.29553 0.0
H983 H 0.74529 0.95573 0.29745 0.0
C984 C 0.74844 0.95949 0.37371 0.0
C985 C 0.74697 0.97508 0.41334 0.0
C986 C 0.7356 0.0277 0.26533 0.0
C987 C 0.73679 0.99214 0.32102 0.0
C988 C 0.73832 0.03706 0.21918 0.0
C989 C 0.74018 0.02156 0.17951 0.0
C990 C 0.73521 0.00261 0.27202 0.0
C991 C 0.73792 0.99667 0.1872 0.0
C992 C 0.74319 0.96787 0.32765 0.0
C993 C 0.73897 0.99876 0.40569 0.0
N994 N 0.73599 0.98792 0.2327 0.0
N995 N 0.73456 0.00669 0.36031 0.0
H996 H 0.94396 0.75064 0.20243 0.0
H997 H 0.06013 0.747 0.3681 0.0
H998 H 0.01606 0.74248 0.14648 0.0
H999 H 0.98765 0.74281 0.42391 0.0
H1000 H 0.04441 0.74086 0.28713 0.0
H1001 H 0.95928 0.74324 0.28326 0.0
C1002 C 0.963 0.74687 0.2071 0.0
C1003 C 0.97881 0.74738 0.16773 0.0
C1004 C 0.03193 0.74089 0.31705 0.0
C1005 C 0.99659 0.73929 0.26049 0.0
C1006 C 0.0409 0.7444 0.36337 0.0
C1007 C 0.02514 0.74563 0.40277 0.0
C1008 C 0.00693 0.73895 0.30984 0.0
C1009 C 1.00043 0.74201 0.39454 0.0
C1010 C 0.97174 0.74265 0.25333 0.0
C1011 C 0.00325 0.74226 0.17583 0.0
N1012 N 0.99204 0.73922 0.34889 0.0
N1013 N 0.01147 0.73883 0.22142 0.0
H1014 H 0.25953 0.05888 0.36359 0.0
H1015 H 0.26245 0.94315 0.19544 0.0
H1016 H 0.2668 0.98648 0.41811 0.0
H1017 H 0.26518 0.01586 0.14087 0.0
H1018 H 0.26884 0.95862 0.27657 0.0
H1019 H 0.26639 0.04379 0.28234 0.0
C1020 C 0.26303 0.03982 0.35854 0.0
C1021 C 0.26247 0.02389 0.39773 0.0
C1022 C 0.26845 0.97122 0.24688 0.0
C1023 C 0.26989 0.00635 0.30429 0.0
C1024 C 0.26483 0.96238 0.20043 0.0
C1025 C 0.26313 0.97826 0.16128 0.0
C1026 C 0.27004 0.9962 0.25459 0.0
C1027 C 0.26641 0.00298 0.16996 0.0
C1028 C 0.2669 0.0312 0.31202 0.0
C1029 C 0.26714 0.9994 0.389 0.0
N1030 N 0.26933 0.01122 0.21576 0.0
N1031 N 0.27028 0.99133 0.34314 0.0
H1032 H 0.93999 0.77576 0.85594 0.0
H1033 H 0.06568 0.7668 0.71597 0.0
H1034 H 0.0092 0.77635 0.92709 0.0
H1035 H 0.99715 0.7764 0.64482 0.0
H1036 H 0.04529 0.76945 0.79347 0.0
H1037 H 0.96055 0.77526 0.77847 0.0
C1038 C 0.95953 0.77584 0.85533 0.0
C1039 C 0.97288 0.77603 0.89821 0.0
C1040 C 0.0347 0.77104 0.76094 0.0
C1041 C 0.99657 0.77536 0.80928 0.0
C1042 C 0.04633 0.76949 0.71658 0.0
C1043 C 0.03311 0.77132 0.67371 0.0
C1044 C 0.0096 0.77431 0.76264 0.0
C1045 C 0.00808 0.77487 0.6769 0.0
C1046 C 0.97126 0.77558 0.81098 0.0
C1047 C 0.99816 0.77618 0.89502 0.0
N1048 N 0.99713 0.77615 0.72058 0.0
N1049 N 0.00918 0.77574 0.85134 0.0
H1050 H 0.25516 0.03255 0.66181 0.0
H1051 H 0.20612 0.96852 0.89967 0.0
H1052 H 0.18425 0.00067 0.67107 0.0
H1053 H 0.26451 0.02004 0.90072 0.0
H1054 H 0.20007 0.97642 0.81413 0.0
H1055 H 0.26129 0.02413 0.74717 0.0
C1056 C 0.24094 0.0236 0.68165 0.0
C1057 C 0.21913 0.01731 0.65912 0.0
C1058 C 0.21417 0.98604 0.83311 0.0
C1059 C 0.22609 0.00762 0.75709 0.0
C1060 C 0.21769 0.9815 0.882 0.0
C1061 C 0.23586 0.99365 0.90762 0.0
C1062 C 0.22913 0.0026 0.80928 0.0
C1063 C 0.25022 0.01033 0.88259 0.0
C1064 C 0.2444 0.01895 0.73051 0.0
C1065 C 0.2013 0.00592 0.68693 0.0
N1066 N 0.24665 0.0142 0.83482 0.0
N1067 N 0.2052 0.00137 0.73436 0.0
H1068 H 0.00492 0.2752 0.89971 0.0
H1069 H 0.99202 0.17648 0.69029 0.0
H1070 H 0.01644 0.1989 0.9204 0.0
H1071 H 0.98138 0.25282 0.66821 0.0
H1072 H 0.00082 0.18443 0.7748 0.0
H1073 H 0.99551 0.2674 0.81521 0.0
C1074 C 0.00534 0.2568 0.88662 0.0
C1075 C 0.01152 0.2377 0.91731 0.0
C1076 C 0.99659 0.19946 0.75147 0.0
C1077 C 0.00092 0.22865 0.82042 0.0
C1078 C 0.9916 0.19493 0.7031 0.0
C1079 C 0.98592 0.21399 0.67193 0.0
C1080 C 0.9959 0.22323 0.76902 0.0
C1081 C 0.98568 0.23753 0.69077 0.0
C1082 C 1.00004 0.25237 0.83829 0.0
C1083 C 0.01182 0.21422 0.89817 0.0
N1084 N 0.99054 0.24147 0.73803 0.0
N1085 N 0.00666 0.21039 0.85106 0.0
H1086 H 0.77069 0.00813 0.65354 0.0
H1087 H 0.77097 0.99497 0.93998 0.0
H1088 H 0.77237 0.9397 0.72742 0.0
H1089 H 0.75785 0.06228 0.86655 0.0
H1090 H 0.77427 0.97477 0.86227 0.0
H1091 H 0.76877 0.02868 0.73124 0.0
C1092 C 0.7707 0.99742 0.68606 0.0
C1093 C 0.77162 0.97214 0.68395 0.0
C1094 C 0.77065 0.99395 0.86316 0.0
C1095 C 0.76946 0.99554 0.77293 0.0
C1096 C 0.76878 0.00552 0.90754 0.0
C1097 C 0.76405 0.03036 0.90982 0.0
C1098 C 0.76789 0.00733 0.82068 0.0
C1099 C 0.76144 0.04309 0.86655 0.0
C1100 C 0.76956 0.00917 0.7304 0.0
C1101 C 0.77161 0.95921 0.72727 0.0
N1102 N 0.76342 0.03143 0.82377 0.0
N1103 N 0.77055 0.97105 0.76994 0.0
H1104 H 0.51507 0.75699 0.89875 0.0
H1105 H 0.4859 0.7598 0.61673 0.0
H1106 H 0.44334 0.75215 0.83938 0.0
H1107 H 0.55681 0.74726 0.67552 0.0
H1108 H 0.47062 0.76659 0.69828 0.0
H1109 H 0.53104 0.76322 0.81749 0.0
C1110 C 0.50263 0.75783 0.86879 0.0
C1111 C 0.47788 0.75385 0.87572 0.0
C1112 C 0.4896 0.76266 0.69323 0.0
C1113 C 0.49598 0.76072 0.78281 0.0
C1114 C 0.49834 0.7589 0.64668 0.0
C1115 C 0.5226 0.75271 0.63938 0.0
C1116 C 0.50527 0.76036 0.7327 0.0
C1117 C 0.53791 0.75174 0.67954 0.0
C1118 C 0.51176 0.76119 0.82239 0.0
C1119 C 0.46259 0.75493 0.83556 0.0
N1120 N 0.52896 0.75533 0.72446 0.0
N1121 N 0.47189 0.75805 0.79084 0.0
H1122 H 0.23209 0.44493 0.88365 0.0
H1123 H 0.243 0.55656 0.70525 0.0
H1124 H 0.23787 0.51875 0.93113 0.0
H1125 H 0.23834 0.48263 0.65788 0.0
H1126 H 0.23407 0.54367 0.78707 0.0
H1127 H 0.22705 0.45892 0.80121 0.0
C1128 C 0.23178 0.46417 0.87683 0.0
C1129 C 0.23556 0.48071 0.91434 0.0
C1130 C 0.23463 0.53025 0.7588 0.0
C1131 C 0.23026 0.49689 0.81948 0.0
C1132 C 0.23969 0.5376 0.71193 0.0
C1133 C 0.24164 0.5206 0.67465 0.0
C1134 C 0.23168 0.50563 0.76886 0.0
C1135 C 0.23702 0.49633 0.68547 0.0
C1136 C 0.22899 0.47213 0.82961 0.0
C1137 C 0.23492 0.50539 0.90337 0.0
N1138 N 0.2326 0.48953 0.73171 0.0
N1139 N 0.23274 0.51272 0.85682 0.0
H1140 H 0.48804 0.23546 0.95611 0.0
H1141 H 0.51957 0.23902 0.6751 0.0
H1142 H 0.55915 0.24936 0.89964 0.0
H1143 H 0.4474 0.24243 0.73261 0.0
H1144 H 0.53503 0.23223 0.75666 0.0
H1145 H 0.47384 0.2272 0.87425 0.0
C1146 C 0.50081 0.23612 0.92669 0.0
C1147 C 0.52475 0.24332 0.93462 0.0
C1148 C 0.51577 0.23404 0.75126 0.0
C1149 C 0.50861 0.2342 0.8409 0.0
C1150 C 0.50694 0.23774 0.70468 0.0
C1151 C 0.4822 0.24151 0.69716 0.0
C1152 C 0.49971 0.23393 0.79043 0.0
C1153 C 0.46665 0.23986 0.73687 0.0
C1154 C 0.49266 0.23161 0.87991 0.0
C1155 C 0.54047 0.2441 0.89506 0.0
N1156 N 0.47565 0.23641 0.78175 0.0
N1157 N 0.53209 0.23987 0.84993 0.0
H1158 H 0.76659 0.51436 0.63543 0.0
H1159 H 0.76389 0.48587 0.91754 0.0
H1160 H 0.75349 0.44372 0.69486 0.0
H1161 H 0.759 0.55738 0.85743 0.0
H1162 H 0.77032 0.46969 0.83647 0.0
H1163 H 0.77401 0.52969 0.71673 0.0
C1164 C 0.76576 0.50198 0.66545 0.0
C1165 C 0.75916 0.4778 0.65846 0.0
C1166 C 0.76824 0.48897 0.84118 0.0
C1167 C 0.76748 0.4952 0.75146 0.0
C1168 C 0.76474 0.49821 0.88745 0.0
C1169 C 0.76068 0.52296 0.8941 0.0
C1170 C 0.76783 0.50462 0.80145 0.0
C1171 C 0.76181 0.53814 0.85382 0.0
C1172 C 0.76987 0.51075 0.71186 0.0
C1173 C 0.75828 0.46256 0.69869 0.0
N1174 N 0.76507 0.52872 0.80922 0.0
N1175 N 0.76216 0.47155 0.74347 0.0
H1176 H 0.51736 0.3062 0.18753 0.0
H1177 H 0.48014 0.24659 0.4391 0.0
H1178 H 0.50072 0.23064 0.20506 0.0
H1179 H 0.49101 0.32308 0.41968 0.0
H1180 H 0.48879 0.24033 0.35403 0.0
H1181 H 0.50845 0.3127 0.27255 0.0
C1182 C 0.51173 0.29098 0.20916 0.0
C1183 C 0.5098 0.26781 0.18898 0.0
C1184 C 0.48932 0.25849 0.36834 0.0
C1185 C 0.49972 0.27514 0.2867 0.0
C1186 C 0.48446 0.26209 0.41706 0.0
C1187 C 0.48482 0.28543 0.43676 0.0
C1188 C 0.49468 0.27834 0.33887 0.0
C1189 C 0.49048 0.30477 0.40619 0.0
C1190 C 0.50667 0.29471 0.25779 0.0
C1191 C 0.50243 0.24881 0.21892 0.0
N1192 N 0.49517 0.3008 0.35884 0.0
N1193 N 0.49775 0.25288 0.26622 0.0
H1194 H 0.72944 0.50913 0.41898 0.0
H1195 H 0.72774 0.49555 0.13219 0.0
H1196 H 0.73274 0.44072 0.34503 0.0
H1197 H 0.73482 0.5639 0.20536 0.0
H1198 H 0.72651 0.47526 0.21008 0.0
H1199 H 0.72843 0.52965 0.34119 0.0
C1200 C 0.7299 0.49841 0.38644 0.0
C1201 C 0.73127 0.47315 0.3886 0.0
C1202 C 0.72831 0.4947 0.20909 0.0
C1203 C 0.73005 0.49652 0.29943 0.0
C1204 C 0.72898 0.50631 0.16459 0.0
C1205 C 0.73149 0.53148 0.16216 0.0
C1206 C 0.73006 0.50833 0.25154 0.0
C1207 C 0.73296 0.54446 0.20543 0.0
C1208 C 0.72935 0.51014 0.34203 0.0
C1209 C 0.73178 0.46022 0.3452 0.0
N1210 N 0.73223 0.53275 0.24828 0.0
N1211 N 0.73117 0.47203 0.30248 0.0
H1212 H 0.50237 0.70349 0.3914 0.0
H1213 H 0.49766 0.74492 0.11737 0.0
H1214 H 0.55303 0.75388 0.32988 0.0
H1215 H 0.47226 0.67487 0.16222 0.0
H1216 H 0.51257 0.75223 0.1987 0.0
H1217 H 0.48538 0.6966 0.3109 0.0
C1218 C 0.50973 0.71327 0.36107 0.0
C1219 C 0.52916 0.72924 0.36718 0.0
C1220 C 0.50375 0.73525 0.19072 0.0
C1221 C 0.50981 0.72158 0.27561 0.0
C1222 C 0.4952 0.73107 0.14436 0.0
C1223 C 0.4838 0.70919 0.13295 0.0
C1224 C 0.50055 0.71762 0.22629 0.0
C1225 C 0.48112 0.6919 0.1694 0.0
C1226 C 0.50017 0.7092 0.31524 0.0
C1227 C 0.53815 0.74131 0.32669 0.0
N1228 N 0.48931 0.69653 0.2146 0.0
N1229 N 0.52834 0.73732 0.28271 0.0
H1230 H 0.24976 0.48337 0.17831 0.0
H1231 H 0.33263 0.50784 0.40939 0.0
H1232 H 0.32733 0.49042 0.17443 0.0
H1233 H 0.25489 0.51225 0.4139 0.0
H1234 H 0.33046 0.49887 0.32388 0.0
H1235 H 0.25067 0.49215 0.26476 0.0
C1236 C 0.26695 0.48688 0.19546 0.0
C1237 C 0.2885 0.4861 0.16889 0.0
C1238 C 0.31383 0.50176 0.34348 0.0
C1239 C 0.28967 0.49589 0.26787 0.0
C1240 C 0.31505 0.50681 0.39252 0.0
C1241 C 0.29392 0.51091 0.41909 0.0
C1242 C 0.2913 0.50067 0.32045 0.0
C1243 C 0.27167 0.50927 0.39495 0.0
C1244 C 0.26745 0.49184 0.24484 0.0
C1245 C 0.31023 0.49076 0.19321 0.0
N1246 N 0.27094 0.50431 0.34701 0.0
N1247 N 0.31024 0.49533 0.24114 0.0
loop_
_geom_bond_atom_site_label_1
_geom_bond_atom_site_label_2
_geom_bond_distance
_geom_bond_site_symmetry_2
_ccdc_geom_bond_type
Co0 N4 2.148 . S
Co0 N10 2.128 . S
Co0 N20 2.194 . S
Co0 O25 2.351 . S
Co0 O26 2.155 . S
Co0 O27 2.096 1_554 S
C1 N4 1.301 . S
C1 N5 1.328 . S
C1 H6 0.930 . S
C2 C3 1.333 . S
C2 N4 1.317 1_556 S
C2 H7 0.930 . S
C3 C2 1.333 . S
C3 N5 1.350 1_556 S
C3 H29 0.931 . S
N4 Co0 2.148 . S
N4 C1 1.301 . S
N4 C2 1.317 1_554 S
N5 C1 1.328 . S
N5 C3 1.350 1_554 S
H6 C1 0.930 . S
H7 C2 0.930 . S
C8 O9 1.224 . S
C8 O27 1.247 . S
O9 C8 1.224 . S
N10 Co0 2.128 . S
N10 C11 1.355 . S
N10 C13 1.311 1_454 S
C11 N10 1.355 . S
C11 C12 1.363 1_455 S
C11 H23 0.929 . S
C12 C11 1.363 1_655 S
C12 N14 1.375 . S
C12 H30 0.931 . S
C13 N10 1.311 1_656 S
C13 N14 1.347 1_556 S
C13 H24 0.929 . S
N14 C12 1.375 . S
N14 C13 1.347 1_554 S
C15 C18 1.365 . S
C15 N20 1.328 . S
C15 H21 0.929 . S
C16 C17 1.362 1_556 S
C16 C19 1.378 . S
C16 H31 0.929 . S
C17 C16 1.362 1_554 S
C17 C18 1.366 . S
C18 C15 1.365 . S
C18 C17 1.366 . S
C18 H32 0.930 . S
C19 C16 1.378 . S
C19 N20 1.315 1_556 S
C19 H22 0.930 . S
N20 Co0 2.194 . S
N20 C15 1.328 . S
N20 C19 1.315 1_554 S
H21 C15 0.929 . S
H22 C19 0.930 . S
H23 C11 0.929 . S
H24 C13 0.929 . S
O25 Co0 2.351 . S
O25 C28 1.244 . S
O26 Co0 2.155 . S
O26 C28 1.240 . S
O27 Co0 2.096 1_556 S
O27 C8 1.247 . S
C28 O25 1.244 . S
C28 O26 1.240 . S
H29 C3 0.931 . S
H30 C12 0.931 . S
H31 C16 0.929 . S
H32 C18 0.930 . S
Co33 N37 2.148 . S
Co33 N43 2.128 . S
Co33 N53 2.194 . S
Co33 O58 2.351 . S
Co33 O59 2.155 . S
Co33 O60 2.096 1_554 S
C34 N37 1.301 . S
C34 N38 1.328 . S
C34 H39 0.930 . S
C35 C36 1.333 . S
C35 N37 1.317 1_556 S
C35 H40 0.930 . S
C36 C35 1.333 . S
C36 N38 1.350 1_556 S
C36 H62 0.931 . S
N37 Co33 2.148 . S
N37 C34 1.301 . S
N37 C35 1.317 1_554 S
N38 C34 1.328 . S
N38 C36 1.350 1_554 S
H39 C34 0.930 . S
H40 C35 0.930 . S
C41 O42 1.224 . S
C41 O60 1.247 . S
O42 C41 1.224 . S
N43 Co33 2.128 . S
N43 C44 1.355 . S
N43 C46 1.311 1_544 S
C44 N43 1.355 . S
C44 C45 1.363 1_545 S
C44 H56 0.929 . S
C45 C44 1.363 1_565 S
C45 N47 1.375 . S
C45 H63 0.931 . S
C46 N43 1.311 1_566 S
C46 N47 1.347 1_556 S
C46 H57 0.929 . S
N47 C45 1.375 . S
N47 C46 1.347 1_554 S
C48 C51 1.365 . S
C48 N53 1.328 . S
C48 H54 0.929 . S
C49 C50 1.362 1_556 S
C49 C52 1.378 . S
C49 H64 0.929 . S
C50 C49 1.362 1_554 S
C50 C51 1.366 . S
C51 C48 1.365 . S
C51 C50 1.366 . S
C51 H65 0.930 . S
C52 C49 1.378 . S
C52 N53 1.315 1_556 S
C52 H55 0.930 . S
N53 Co33 2.194 . S
N53 C48 1.328 . S
N53 C52 1.315 1_554 S
H54 C48 0.929 . S
H55 C52 0.930 . S
H56 C44 0.929 . S
H57 C46 0.929 . S
O58 Co33 2.351 . S
O58 C61 1.244 . S
O59 Co33 2.155 . S
O59 C61 1.240 . S
O60 Co33 2.096 1_556 S
O60 C41 1.247 . S
C61 O58 1.244 . S
C61 O59 1.240 . S
H62 C36 0.931 . S
H63 C45 0.931 . S
H64 C49 0.929 . S
H65 C51 0.930 . S
Co66 N70 2.148 . S
Co66 N76 2.128 . S
Co66 N86 2.194 . S
Co66 O91 2.351 . S
Co66 O92 2.155 . S
Co66 O93 2.096 1_554 S
C67 N70 1.301 . S
C67 N71 1.328 . S
C67 H72 0.930 . S
C68 C69 1.333 . S
C68 N70 1.317 1_556 S
C68 H73 0.930 . S
C69 C68 1.333 . S
C69 N71 1.350 1_556 S
C69 H95 0.931 . S
N70 Co66 2.148 . S
N70 C67 1.301 . S
N70 C68 1.317 1_554 S
N71 C67 1.328 . S
N71 C69 1.350 1_554 S
H72 C67 0.930 . S
H73 C68 0.930 . S
C74 O75 1.224 . S
C74 O93 1.247 . S
O75 C74 1.224 . S
N76 Co66 2.128 . S
N76 C77 1.355 . S
N76 C79 1.311 1_654 S
C77 N76 1.355 . S
C77 C78 1.363 1_655 S
C77 H89 0.929 . S
C78 C77 1.363 1_455 S
C78 N80 1.375 . S
C78 H96 0.931 . S
C79 N76 1.311 1_456 S
C79 N80 1.347 1_556 S
C79 H90 0.929 . S
N80 C78 1.375 . S
N80 C79 1.347 1_554 S
C81 C84 1.365 . S
C81 N86 1.328 . S
C81 H87 0.929 . S
C82 C83 1.362 1_556 S
C82 C85 1.378 . S
C82 H97 0.929 . S
C83 C82 1.362 1_554 S
C83 C84 1.366 . S
C84 C81 1.365 . S
C84 C83 1.366 . S
C84 H98 0.930 . S
C85 C82 1.378 . S
C85 N86 1.315 1_556 S
C85 H88 0.930 . S
N86 Co66 2.194 . S
N86 C81 1.328 . S
N86 C85 1.315 1_554 S
H87 C81 0.929 . S
H88 C85 0.930 . S
H89 C77 0.929 . S
H90 C79 0.929 . S
O91 Co66 2.351 . S
O91 C94 1.244 . S
O92 Co66 2.155 . S
O92 C94 1.240 . S
O93 Co66 2.096 1_556 S
O93 C74 1.247 . S
C94 O91 1.244 . S
C94 O92 1.240 . S
H95 C69 0.931 . S
H96 C78 0.931 . S
H97 C82 0.929 . S
H98 C84 0.930 . S
Co99 N103 2.148 . S
Co99 N109 2.128 . S
Co99 N119 2.194 . S
Co99 O124 2.351 . S
Co99 O125 2.155 . S
Co99 O126 2.096 1_554 S
C100 N103 1.301 . S
C100 N104 1.328 . S
C100 H105 0.930 . S
C101 C102 1.333 . S
C101 N103 1.317 1_556 S
C101 H106 0.930 . S
C102 C101 1.333 . S
C102 N104 1.350 1_556 S
C102 H128 0.931 . S
N103 Co99 2.148 . S
N103 C100 1.301 . S
N103 C101 1.317 1_554 S
N104 C100 1.328 . S
N104 C102 1.350 1_554 S
H105 C100 0.930 . S
H106 C101 0.930 . S
C107 O108 1.224 . S
C107 O126 1.247 . S
O108 C107 1.224 . S
N109 Co99 2.128 . S
N109 C110 1.355 . S
N109 C112 1.311 1_564 S
C110 N109 1.355 . S
C110 C111 1.363 1_565 S
C110 H122 0.929 . S
C111 C110 1.363 1_545 S
C111 N113 1.375 . S
C111 H129 0.931 . S
C112 N109 1.311 1_546 S
C112 N113 1.347 1_556 S
C112 H123 0.929 . S
N113 C111 1.375 . S
N113 C112 1.347 1_554 S
C114 C117 1.365 . S
C114 N119 1.328 . S
C114 H120 0.929 . S
C115 C116 1.362 1_556 S
C115 C118 1.378 . S
C115 H130 0.929 . S
C116 C115 1.362 1_554 S
C116 C117 1.366 . S
C117 C114 1.365 . S
C117 C116 1.366 . S
C117 H131 0.930 . S
C118 C115 1.378 . S
C118 N119 1.315 1_556 S
C118 H121 0.930 . S
N119 Co99 2.194 . S
N119 C114 1.328 . S
N119 C118 1.315 1_554 S
H120 C114 0.929 . S
H121 C118 0.930 . S
H122 C110 0.929 . S
H123 C112 0.929 . S
O124 Co99 2.351 . S
O124 C127 1.244 . S
O125 Co99 2.155 . S
O125 C127 1.240 . S
O126 Co99 2.096 1_556 S
O126 C107 1.247 . S
C127 O124 1.244 . S
C127 O125 1.240 . S
H128 C102 0.931 . S
H129 C111 0.931 . S
H130 C115 0.929 . S
H131 C117 0.930 . S
Co132 N136 2.148 . S
Co132 N142 2.128 . S
Co132 N152 2.194 . S
Co132 O157 2.351 . S
Co132 O158 2.155 . S
Co132 O159 2.096 . S
C133 N136 1.301 . S
C133 N137 1.328 . S
C133 H138 0.930 . S
C134 C135 1.333 . S
C134 N136 1.317 . S
C134 H139 0.930 . S
C135 C134 1.333 . S
C135 N137 1.350 . S
C135 H161 0.931 . S
N136 Co132 2.148 . S
N136 C133 1.301 . S
N136 C134 1.317 . S
N137 C133 1.328 . S
N137 C135 1.350 . S
H138 C133 0.930 . S
H139 C134 0.930 . S
C140 O141 1.224 . S
C140 O159 1.247 . S
O141 C140 1.224 . S
N142 Co132 2.128 . S
N142 C143 1.355 . S
N142 C145 1.311 1_455 S
C143 N142 1.355 . S
C143 C144 1.363 1_455 S
C143 H155 0.929 . S
C144 C143 1.363 1_655 S
C144 N146 1.375 . S
C144 H162 0.931 . S
C145 N142 1.311 1_655 S
C145 N146 1.347 . S
C145 H156 0.929 . S
N146 C144 1.375 . S
N146 C145 1.347 . S
C147 C150 1.365 . S
C147 N152 1.328 . S
C147 H153 0.929 . S
C148 C149 1.362 . S
C148 C151 1.378 . S
C148 H163 0.929 . S
C149 C148 1.362 . S
C149 C150 1.366 . S
C150 C147 1.365 . S
C150 C149 1.366 . S
C150 H164 0.930 . S
C151 C148 1.378 . S
C151 N152 1.315 . S
C151 H154 0.930 . S
N152 Co132 2.194 . S
N152 C147 1.328 . S
N152 C151 1.315 . S
H153 C147 0.929 . S
H154 C151 0.930 . S
H155 C143 0.929 . S
H156 C145 0.929 . S
O157 Co132 2.351 . S
O157 C160 1.244 . S
O158 Co132 2.155 . S
O158 C160 1.240 . S
O159 Co132 2.096 . S
O159 C140 1.247 . S
C160 O157 1.244 . S
C160 O158 1.240 . S
H161 C135 0.931 . S
H162 C144 0.931 . S
H163 C148 0.929 . S
H164 C150 0.930 . S
Co165 N169 2.148 . S
Co165 N175 2.128 . S
Co165 N185 2.194 . S
Co165 O190 2.351 . S
Co165 O191 2.155 . S
Co165 O192 2.096 . S
C166 N169 1.301 . S
C166 N170 1.328 . S
C166 H171 0.930 . S
C167 C168 1.333 . S
C167 N169 1.317 . S
C167 H172 0.930 . S
C168 C167 1.333 . S
C168 N170 1.350 . S
C168 H194 0.931 . S
N169 Co165 2.148 . S
N169 C166 1.301 . S
N169 C167 1.317 . S
N170 C166 1.328 . S
N170 C168 1.350 . S
H171 C166 0.930 . S
H172 C167 0.930 . S
C173 O174 1.224 . S
C173 O192 1.247 . S
O174 C173 1.224 . S
N175 Co165 2.128 . S
N175 C176 1.355 . S
N175 C178 1.311 1_545 S
C176 N175 1.355 . S
C176 C177 1.363 1_545 S
C176 H188 0.929 . S
C177 C176 1.363 1_565 S
C177 N179 1.375 . S
C177 H195 0.931 . S
C178 N175 1.311 1_565 S
C178 N179 1.347 . S
C178 H189 0.929 . S
N179 C177 1.375 . S
N179 C178 1.347 . S
C180 C183 1.365 . S
C180 N185 1.328 . S
C180 H186 0.929 . S
C181 C182 1.362 . S
C181 C184 1.378 . S
C181 H196 0.929 . S
C182 C181 1.362 . S
C182 C183 1.366 . S
C183 C180 1.365 . S
C183 C182 1.366 . S
C183 H197 0.930 . S
C184 C181 1.378 . S
C184 N185 1.315 . S
C184 H187 0.930 . S
N185 Co165 2.194 . S
N185 C180 1.328 . S
N185 C184 1.315 . S
H186 C180 0.929 . S
H187 C184 0.930 . S
H188 C176 0.929 . S
H189 C178 0.929 . S
O190 Co165 2.351 . S
O190 C193 1.244 . S
O191 Co165 2.155 . S
O191 C193 1.240 . S
O192 Co165 2.096 . S
O192 C173 1.247 . S
C193 O190 1.244 . S
C193 O191 1.240 . S
H194 C168 0.931 . S
H195 C177 0.931 . S
H196 C181 0.929 . S
H197 C183 0.930 . S
Co198 N202 2.148 . S
Co198 N208 2.128 . S
Co198 N218 2.194 . S
Co198 O223 2.351 . S
Co198 O224 2.155 . S
Co198 O225 2.096 . S
C199 N202 1.301 . S
C199 N203 1.328 . S
C199 H204 0.930 . S
C200 C201 1.333 . S
C200 N202 1.317 . S
C200 H205 0.930 . S
C201 C200 1.333 . S
C201 N203 1.350 . S
C201 H227 0.931 . S
N202 Co198 2.148 . S
N202 C199 1.301 . S
N202 C200 1.317 . S
N203 C199 1.328 . S
N203 C201 1.350 . S
H204 C199 0.930 . S
H205 C200 0.930 . S
C206 O207 1.224 . S
C206 O225 1.247 . S
O207 C206 1.224 . S
N208 Co198 2.128 . S
N208 C209 1.355 . S
N208 C211 1.311 1_655 S
C209 N208 1.355 . S
C209 C210 1.363 1_655 S
C209 H221 0.929 . S
C210 C209 1.363 1_455 S
C210 N212 1.375 . S
C210 H228 0.931 . S
C211 N208 1.311 1_455 S
C211 N212 1.347 . S
C211 H222 0.929 . S
N212 C210 1.375 . S
N212 C211 1.347 . S
C213 C216 1.365 . S
C213 N218 1.328 . S
C213 H219 0.929 . S
C214 C215 1.362 . S
C214 C217 1.378 . S
C214 H229 0.929 . S
C215 C214 1.362 . S
C215 C216 1.366 . S
C216 C213 1.365 . S
C216 C215 1.366 . S
C216 H230 0.930 . S
C217 C214 1.378 . S
C217 N218 1.315 . S
C217 H220 0.930 . S
N218 Co198 2.194 . S
N218 C213 1.328 . S
N218 C217 1.315 . S
H219 C213 0.929 . S
H220 C217 0.930 . S
H221 C209 0.929 . S
H222 C211 0.929 . S
O223 Co198 2.351 . S
O223 C226 1.244 . S
O224 Co198 2.155 . S
O224 C226 1.240 . S
O225 Co198 2.096 . S
O225 C206 1.247 . S
C226 O223 1.244 . S
C226 O224 1.240 . S
H227 C201 0.931 . S
H228 C210 0.931 . S
H229 C214 0.929 . S
H230 C216 0.930 . S
Co231 N235 2.148 . S
Co231 N241 2.128 . S
Co231 N251 2.194 . S
Co231 O256 2.351 . S
Co231 O257 2.155 . S
Co231 O258 2.096 . S
C232 N235 1.301 . S
C232 N236 1.328 . S
C232 H237 0.930 . S
C233 C234 1.333 . S
C233 N235 1.317 . S
C233 H238 0.930 . S
C234 C233 1.333 . S
C234 N236 1.350 . S
C234 H260 0.931 . S
N235 Co231 2.148 . S
N235 C232 1.301 . S
N235 C233 1.317 . S
N236 C232 1.328 . S
N236 C234 1.350 . S
H237 C232 0.930 . S
H238 C233 0.930 . S
C239 O240 1.224 . S
C239 O258 1.247 . S
O240 C239 1.224 . S
N241 Co231 2.128 . S
N241 C242 1.355 . S
N241 C244 1.311 1_565 S
C242 N241 1.355 . S
C242 C243 1.363 1_565 S
C242 H254 0.929 . S
C243 C242 1.363 1_545 S
C243 N245 1.375 . S
C243 H261 0.931 . S
C244 N241 1.311 1_545 S
C244 N245 1.347 . S
C244 H255 0.929 . S
N245 C243 1.375 . S
N245 C244 1.347 . S
C246 C249 1.365 . S
C246 N251 1.328 . S
C246 H252 0.929 . S
C247 C248 1.362 . S
C247 C250 1.378 . S
C247 H262 0.929 . S
C248 C247 1.362 . S
C248 C249 1.366 . S
C249 C246 1.365 . S
C249 C248 1.366 . S
C249 H263 0.930 . S
C250 C247 1.378 . S
C250 N251 1.315 . S
C250 H253 0.930 . S
N251 Co231 2.194 . S
N251 C246 1.328 . S
N251 C250 1.315 . S
H252 C246 0.929 . S
H253 C250 0.930 . S
H254 C242 0.929 . S
H255 C244 0.929 . S
O256 Co231 2.351 . S
O256 C259 1.244 . S
O257 Co231 2.155 . S
O257 C259 1.240 . S
O258 Co231 2.096 . S
O258 C239 1.247 . S
C259 O256 1.244 . S
C259 O257 1.240 . S
H260 C234 0.931 . S
H261 C243 0.931 . S
H262 C247 0.929 . S
H263 C249 0.930 . S
Co264 N268 2.148 . S
Co264 N274 2.128 . S
Co264 N284 2.194 . S
Co264 O289 2.351 . S
Co264 O290 2.155 . S
Co264 O291 2.096 . S
C265 N268 1.301 . S
C265 N269 1.328 . S
C265 H270 0.930 . S
C266 C267 1.333 . S
C266 N268 1.317 . S
C266 H271 0.930 . S
C267 C266 1.333 . S
C267 N269 1.350 . S
C267 H293 0.931 . S
N268 Co264 2.148 . S
N268 C265 1.301 . S
N268 C266 1.317 . S
N269 C265 1.328 . S
N269 C267 1.350 . S
H270 C265 0.930 . S
H271 C266 0.930 . S
C272 O273 1.224 . S
C272 O291 1.247 . S
O273 C272 1.224 . S
N274 Co264 2.128 . S
N274 C275 1.355 . S
N274 C277 1.311 . S
C275 N274 1.355 . S
C275 C276 1.363 . S
C275 H287 0.929 . S
C276 C275 1.363 . S
C276 N278 1.375 . S
C276 H294 0.931 . S
C277 N274 1.311 . S
C277 N278 1.347 . S
C277 H288 0.929 . S
N278 C276 1.375 . S
N278 C277 1.347 . S
C279 C282 1.365 . S
C279 N284 1.328 . S
C279 H285 0.929 . S
C280 C281 1.362 . S
C280 C283 1.378 . S
C280 H295 0.929 . S
C281 C280 1.362 . S
C281 C282 1.366 . S
C282 C279 1.365 . S
C282 C281 1.366 . S
C282 H296 0.930 . S
C283 C280 1.378 . S
C283 N284 1.315 . S
C283 H286 0.930 . S
N284 Co264 2.194 . S
N284 C279 1.328 . S
N284 C283 1.315 . S
H285 C279 0.929 . S
H286 C283 0.930 . S
H287 C275 0.929 . S
H288 C277 0.929 . S
O289 Co264 2.351 . S
O289 C292 1.244 . S
O290 Co264 2.155 . S
O290 C292 1.240 . S
O291 Co264 2.096 . S
O291 C272 1.247 . S
C292 O289 1.244 . S
C292 O290 1.240 . S
H293 C267 0.931 . S
H294 C276 0.931 . S
H295 C280 0.929 . S
H296 C282 0.930 . S
Co297 N301 2.148 . S
Co297 N307 2.128 . S
Co297 N317 2.194 . S
Co297 O322 2.351 . S
Co297 O323 2.155 . S
Co297 O324 2.096 . S
C298 N301 1.301 . S
C298 N302 1.328 . S
C298 H303 0.930 . S
C299 C300 1.333 . S
C299 N301 1.317 . S
C299 H304 0.930 . S
C300 C299 1.333 . S
C300 N302 1.350 . S
C300 H326 0.931 . S
N301 Co297 2.148 . S
N301 C298 1.301 . S
N301 C299 1.317 . S
N302 C298 1.328 . S
N302 C300 1.350 . S
H303 C298 0.930 . S
H304 C299 0.930 . S
C305 O306 1.224 . S
C305 O324 1.247 . S
O306 C305 1.224 . S
N307 Co297 2.128 . S
N307 C308 1.355 . S
N307 C310 1.311 . S
C308 N307 1.355 . S
C308 C309 1.363 . S
C308 H320 0.929 . S
C309 C308 1.363 . S
C309 N311 1.375 . S
C309 H327 0.931 . S
C310 N307 1.311 . S
C310 N311 1.347 . S
C310 H321 0.929 . S
N311 C309 1.375 . S
N311 C310 1.347 . S
C312 C315 1.365 . S
C312 N317 1.328 . S
C312 H318 0.929 . S
C313 C314 1.362 . S
C313 C316 1.378 . S
C313 H328 0.929 . S
C314 C313 1.362 . S
C314 C315 1.366 . S
C315 C312 1.365 . S
C315 C314 1.366 . S
C315 H329 0.930 . S
C316 C313 1.378 . S
C316 N317 1.315 . S
C316 H319 0.930 . S
N317 Co297 2.194 . S
N317 C312 1.328 . S
N317 C316 1.315 . S
H318 C312 0.929 . S
H319 C316 0.930 . S
H320 C308 0.929 . S
H321 C310 0.929 . S
O322 Co297 2.351 . S
O322 C325 1.244 . S
O323 Co297 2.155 . S
O323 C325 1.240 . S
O324 Co297 2.096 . S
O324 C305 1.247 . S
C325 O322 1.244 . S
C325 O323 1.240 . S
H326 C300 0.931 . S
H327 C309 0.931 . S
H328 C313 0.929 . S
H329 C315 0.930 . S
Co330 N334 2.148 . S
Co330 N340 2.128 . S
Co330 N350 2.194 . S
Co330 O355 2.351 . S
Co330 O356 2.155 . S
Co330 O357 2.096 . S
C331 N334 1.301 . S
C331 N335 1.328 . S
C331 H336 0.930 . S
C332 C333 1.333 . S
C332 N334 1.317 . S
C332 H337 0.930 . S
C333 C332 1.333 . S
C333 N335 1.350 . S
C333 H359 0.931 . S
N334 Co330 2.148 . S
N334 C331 1.301 . S
N334 C332 1.317 . S
N335 C331 1.328 . S
N335 C333 1.350 . S
H336 C331 0.930 . S
H337 C332 0.930 . S
C338 O339 1.224 . S
C338 O357 1.247 . S
O339 C338 1.224 . S
N340 Co330 2.128 . S
N340 C341 1.355 . S
N340 C343 1.311 . S
C341 N340 1.355 . S
C341 C342 1.363 . S
C341 H353 0.929 . S
C342 C341 1.363 . S
C342 N344 1.375 . S
C342 H360 0.931 . S
C343 N340 1.311 . S
C343 N344 1.347 . S
C343 H354 0.929 . S
N344 C342 1.375 . S
N344 C343 1.347 . S
C345 C348 1.365 . S
C345 N350 1.328 . S
C345 H351 0.929 . S
C346 C347 1.362 . S
C346 C349 1.378 . S
C346 H361 0.929 . S
C347 C346 1.362 . S
C347 C348 1.366 . S
C348 C345 1.365 . S
C348 C347 1.366 . S
C348 H362 0.930 . S
C349 C346 1.378 . S
C349 N350 1.315 . S
C349 H352 0.930 . S
N350 Co330 2.194 . S
N350 C345 1.328 . S
N350 C349 1.315 . S
H351 C345 0.929 . S
H352 C349 0.930 . S
H353 C341 0.929 . S
H354 C343 0.929 . S
O355 Co330 2.351 . S
O355 C358 1.244 . S
O356 Co330 2.155 . S
O356 C358 1.240 . S
O357 Co330 2.096 . S
O357 C338 1.247 . S
C358 O355 1.244 . S
C358 O356 1.240 . S
H359 C333 0.931 . S
H360 C342 0.931 . S
H361 C346 0.929 . S
H362 C348 0.930 . S
Co363 N367 2.148 . S
Co363 N373 2.128 . S
Co363 N383 2.194 . S
Co363 O388 2.351 . S
Co363 O389 2.155 . S
Co363 O390 2.096 . S
C364 N367 1.301 . S
C364 N368 1.328 . S
C364 H369 0.930 . S
C365 C366 1.333 . S
C365 N367 1.317 . S
C365 H370 0.930 . S
C366 C365 1.333 . S
C366 N368 1.350 . S
C366 H392 0.931 . S
N367 Co363 2.148 . S
N367 C364 1.301 . S
N367 C365 1.317 . S
N368 C364 1.328 . S
N368 C366 1.350 . S
H369 C364 0.930 . S
H370 C365 0.930 . S
C371 O372 1.224 . S
C371 O390 1.247 . S
O372 C371 1.224 . S
N373 Co363 2.128 . S
N373 C374 1.355 . S
N373 C376 1.311 . S
C374 N373 1.355 . S
C374 C375 1.363 . S
C374 H386 0.929 . S
C375 C374 1.363 . S
C375 N377 1.375 . S
C375 H393 0.931 . S
C376 N373 1.311 . S
C376 N377 1.347 . S
C376 H387 0.929 . S
N377 C375 1.375 . S
N377 C376 1.347 . S
C378 C381 1.365 . S
C378 N383 1.328 . S
C378 H384 0.929 . S
C379 C380 1.362 . S
C379 C382 1.378 . S
C379 H394 0.929 . S
C380 C379 1.362 . S
C380 C381 1.366 . S
C381 C378 1.365 . S
C381 C380 1.366 . S
C381 H395 0.930 . S
C382 C379 1.378 . S
C382 N383 1.315 . S
C382 H385 0.930 . S
N383 Co363 2.194 . S
N383 C378 1.328 . S
N383 C382 1.315 . S
H384 C378 0.929 . S
H385 C382 0.930 . S
H386 C374 0.929 . S
H387 C376 0.929 . S
O388 Co363 2.351 . S
O388 C391 1.244 . S
O389 Co363 2.155 . S
O389 C391 1.240 . S
O390 Co363 2.096 . S
O390 C371 1.247 . S
C391 O388 1.244 . S
C391 O389 1.240 . S
H392 C366 0.931 . S
H393 C375 0.931 . S
H394 C379 0.929 . S
H395 C381 0.930 . S
Co396 N400 2.148 . S
Co396 N406 2.128 . S
Co396 N416 2.194 . S
Co396 O421 2.351 1_554 S
Co396 O422 2.155 1_554 S
Co396 O423 2.096 . S
C397 N400 1.301 . S
C397 N401 1.328 . S
C397 H402 0.930 1_554 S
C398 C399 1.333 . S
C398 N400 1.317 . S
C398 H403 0.930 . S
C399 C398 1.333 . S
C399 N401 1.350 . S
C399 H425 0.931 . S
N400 Co396 2.148 . S
N400 C397 1.301 . S
N400 C398 1.317 . S
N401 C397 1.328 . S
N401 C399 1.350 . S
H402 C397 0.930 1_556 S
H403 C398 0.930 . S
C404 O405 1.224 . S
C404 O423 1.247 . S
O405 C404 1.224 . S
N406 Co396 2.128 . S
N406 C407 1.355 . S
N406 C409 1.311 . S
C407 N406 1.355 . S
C407 C408 1.363 . S
C407 H419 0.929 1_554 S
C408 C407 1.363 . S
C408 N410 1.375 . S
C408 H426 0.931 . S
C409 N406 1.311 . S
C409 N410 1.347 . S
C409 H420 0.929 . S
N410 C408 1.375 . S
N410 C409 1.347 . S
C411 C414 1.365 . S
C411 N416 1.328 . S
C411 H417 0.929 1_554 S
C412 C413 1.362 . S
C412 C415 1.378 . S
C412 H427 0.929 . S
C413 C412 1.362 . S
C413 C414 1.366 . S
C414 C411 1.365 . S
C414 C413 1.366 . S
C414 H428 0.930 1_554 S
C415 C412 1.378 . S
C415 N416 1.315 . S
C415 H418 0.930 . S
N416 Co396 2.194 . S
N416 C411 1.328 . S
N416 C415 1.315 . S
H417 C411 0.929 1_556 S
H418 C415 0.930 . S
H419 C407 0.929 1_556 S
H420 C409 0.929 . S
O421 Co396 2.351 1_556 S
O421 C424 1.244 . S
O422 Co396 2.155 1_556 S
O422 C424 1.240 . S
O423 Co396 2.096 . S
O423 C404 1.247 . S
C424 O421 1.244 . S
C424 O422 1.240 . S
H425 C399 0.931 . S
H426 C408 0.931 . S
H427 C412 0.929 . S
H428 C414 0.930 1_556 S
Co429 N433 2.148 . S
Co429 N439 2.128 . S
Co429 N449 2.194 . S
Co429 O454 2.351 1_554 S
Co429 O455 2.155 1_554 S
Co429 O456 2.096 . S
C430 N433 1.301 . S
C430 N434 1.328 . S
C430 H435 0.930 1_554 S
C431 C432 1.333 . S
C431 N433 1.317 . S
C431 H436 0.930 . S
C432 C431 1.333 . S
C432 N434 1.350 . S
C432 H458 0.931 . S
N433 Co429 2.148 . S
N433 C430 1.301 . S
N433 C431 1.317 . S
N434 C430 1.328 . S
N434 C432 1.350 . S
H435 C430 0.930 1_556 S
H436 C431 0.930 . S
C437 O438 1.224 . S
C437 O456 1.247 . S
O438 C437 1.224 . S
N439 Co429 2.128 . S
N439 C440 1.355 . S
N439 C442 1.311 . S
C440 N439 1.355 . S
C440 C441 1.363 . S
C440 H452 0.929 1_554 S
C441 C440 1.363 . S
C441 N443 1.375 . S
C441 H459 0.931 . S
C442 N439 1.311 . S
C442 N443 1.347 . S
C442 H453 0.929 . S
N443 C441 1.375 . S
N443 C442 1.347 . S
C444 C447 1.365 . S
C444 N449 1.328 . S
C444 H450 0.929 1_554 S
C445 C446 1.362 . S
C445 C448 1.378 . S
C445 H460 0.929 . S
C446 C445 1.362 . S
C446 C447 1.366 . S
C447 C444 1.365 . S
C447 C446 1.366 . S
C447 H461 0.930 1_554 S
C448 C445 1.378 . S
C448 N449 1.315 . S
C448 H451 0.930 . S
N449 Co429 2.194 . S
N449 C444 1.328 . S
N449 C448 1.315 . S
H450 C444 0.929 1_556 S
H451 C448 0.930 . S
H452 C440 0.929 1_556 S
H453 C442 0.929 . S
O454 Co429 2.351 1_556 S
O454 C457 1.244 . S
O455 Co429 2.155 1_556 S
O455 C457 1.240 . S
O456 Co429 2.096 . S
O456 C437 1.247 . S
C457 O454 1.244 . S
C457 O455 1.240 . S
H458 C432 0.931 . S
H459 C441 0.931 . S
H460 C445 0.929 . S
H461 C447 0.930 1_556 S
Co462 N466 2.148 . S
Co462 N472 2.128 . S
Co462 N482 2.194 . S
Co462 O487 2.351 1_554 S
Co462 O488 2.155 1_554 S
Co462 O489 2.096 . S
C463 N466 1.301 . S
C463 N467 1.328 . S
C463 H468 0.930 1_554 S
C464 C465 1.333 . S
C464 N466 1.317 . S
C464 H469 0.930 . S
C465 C464 1.333 . S
C465 N467 1.350 . S
C465 H491 0.931 . S
N466 Co462 2.148 . S
N466 C463 1.301 . S
N466 C464 1.317 . S
N467 C463 1.328 . S
N467 C465 1.350 . S
H468 C463 0.930 1_556 S
H469 C464 0.930 . S
C470 O471 1.224 . S
C470 O489 1.247 . S
O471 C470 1.224 . S
N472 Co462 2.128 . S
N472 C473 1.355 . S
N472 C475 1.311 . S
C473 N472 1.355 . S
C473 C474 1.363 . S
C473 H485 0.929 1_554 S
C474 C473 1.363 . S
C474 N476 1.375 . S
C474 H492 0.931 . S
C475 N472 1.311 . S
C475 N476 1.347 . S
C475 H486 0.929 . S
N476 C474 1.375 . S
N476 C475 1.347 . S
C477 C480 1.365 . S
C477 N482 1.328 . S
C477 H483 0.929 1_554 S
C478 C479 1.362 . S
C478 C481 1.378 . S
C478 H493 0.929 . S
C479 C478 1.362 . S
C479 C480 1.366 . S
C480 C477 1.365 . S
C480 C479 1.366 . S
C480 H494 0.930 1_554 S
C481 C478 1.378 . S
C481 N482 1.315 . S
C481 H484 0.930 . S
N482 Co462 2.194 . S
N482 C477 1.328 . S
N482 C481 1.315 . S
H483 C477 0.929 1_556 S
H484 C481 0.930 . S
H485 C473 0.929 1_556 S
H486 C475 0.929 . S
O487 Co462 2.351 1_556 S
O487 C490 1.244 . S
O488 Co462 2.155 1_556 S
O488 C490 1.240 . S
O489 Co462 2.096 . S
O489 C470 1.247 . S
C490 O487 1.244 . S
C490 O488 1.240 . S
H491 C465 0.931 . S
H492 C474 0.931 . S
H493 C478 0.929 . S
H494 C480 0.930 1_556 S
Co495 N499 2.148 . S
Co495 N505 2.128 . S
Co495 N515 2.194 . S
Co495 O520 2.351 1_554 S
Co495 O521 2.155 1_554 S
Co495 O522 2.096 . S
C496 N499 1.301 . S
C496 N500 1.328 . S
C496 H501 0.930 1_554 S
C497 C498 1.333 . S
C497 N499 1.317 . S
C497 H502 0.930 . S
C498 C497 1.333 . S
C498 N500 1.350 . S
C498 H524 0.931 . S
N499 Co495 2.148 . S
N499 C496 1.301 . S
N499 C497 1.317 . S
N500 C496 1.328 . S
N500 C498 1.350 . S
H501 C496 0.930 1_556 S
H502 C497 0.930 . S
C503 O504 1.224 . S
C503 O522 1.247 . S
O504 C503 1.224 . S
N505 Co495 2.128 . S
N505 C506 1.355 . S
N505 C508 1.311 . S
C506 N505 1.355 . S
C506 C507 1.363 . S
C506 H518 0.929 1_554 S
C507 C506 1.363 . S
C507 N509 1.375 . S
C507 H525 0.931 . S
C508 N505 1.311 . S
C508 N509 1.347 . S
C508 H519 0.929 . S
N509 C507 1.375 . S
N509 C508 1.347 . S
C510 C513 1.365 . S
C510 N515 1.328 . S
C510 H516 0.929 1_554 S
C511 C512 1.362 . S
C511 C514 1.378 . S
C511 H526 0.929 . S
C512 C511 1.362 . S
C512 C513 1.366 . S
C513 C510 1.365 . S
C513 C512 1.366 . S
C513 H527 0.930 1_554 S
C514 C511 1.378 . S
C514 N515 1.315 . S
C514 H517 0.930 . S
N515 Co495 2.194 . S
N515 C510 1.328 . S
N515 C514 1.315 . S
H516 C510 0.929 1_556 S
H517 C514 0.930 . S
H518 C506 0.929 1_556 S
H519 C508 0.929 . S
O520 Co495 2.351 1_556 S
O520 C523 1.244 . S
O521 Co495 2.155 1_556 S
O521 C523 1.240 . S
O522 Co495 2.096 . S
O522 C503 1.247 . S
C523 O520 1.244 . S
C523 O521 1.240 . S
H524 C498 0.931 . S
H525 C507 0.931 . S
H526 C511 0.929 . S
H527 C513 0.930 1_556 S
H528 C534 0.930 . S
H529 C538 0.930 1_556 S
H530 C543 0.929 1_556 S
H531 C541 0.929 . S
H532 C536 0.929 1_556 S
H533 C542 0.929 . S
C534 H528 0.930 . S
C534 C535 1.367 . S
C534 C542 1.378 . S
C535 C534 1.367 . S
C535 C543 1.433 . S
C536 H532 0.929 1_554 S
C536 C538 1.378 . S
C536 C540 1.350 . S
C537 C540 1.463 . S
C537 C542 1.350 . S
C537 N545 1.427 . S
C538 H529 0.930 1_554 S
C538 C536 1.378 . S
C538 C539 1.367 . S
C539 C538 1.367 . S
C539 C541 1.433 . S
C540 C536 1.350 . S
C540 C537 1.463 . S
C540 N544 1.427 . S
C541 H531 0.929 . S
C541 C539 1.433 . S
C541 N544 1.384 . S
C542 H533 0.929 . S
C542 C534 1.378 . S
C542 C537 1.350 . S
C543 H530 0.929 1_554 S
C543 C535 1.433 . S
C543 N545 1.384 . S
N544 C540 1.427 . S
N544 C541 1.384 . S
N545 C537 1.427 . S
N545 C543 1.384 . S
H546 C552 0.930 . S
H547 C556 0.930 . S
H548 C561 0.929 . S
H549 C559 0.929 . S
H550 C554 0.929 . S
H551 C560 0.929 . S
C552 H546 0.930 . S
C552 C553 1.367 . S
C552 C560 1.378 . S
C553 C552 1.367 . S
C553 C561 1.433 1_554 S
C554 H550 0.929 . S
C554 C556 1.378 . S
C554 C558 1.350 1_556 S
C555 C558 1.463 . S
C555 C560 1.350 . S
C555 N563 1.427 1_554 S
C556 H547 0.930 . S
C556 C554 1.378 . S
C556 C557 1.367 1_556 S
C557 C556 1.367 1_554 S
C557 C559 1.433 . S
C558 C554 1.350 1_554 S
C558 C555 1.463 . S
C558 N562 1.427 . S
C559 H549 0.929 . S
C559 C557 1.433 . S
C559 N562 1.384 . S
C560 H551 0.929 . S
C560 C552 1.378 . S
C560 C555 1.350 . S
C561 H548 0.929 . S
C561 C553 1.433 1_556 S
C561 N563 1.384 . S
N562 C558 1.427 . S
N562 C559 1.384 . S
N563 C555 1.427 1_556 S
N563 C561 1.384 . S
H564 C570 0.930 . S
H565 C574 0.930 . S
H566 C579 0.929 . S
H567 C577 0.929 . S
H568 C572 0.929 . S
H569 C578 0.929 . S
C570 H564 0.930 . S
C570 C571 1.367 1_556 S
C570 C578 1.378 . S
C571 C570 1.367 1_554 S
C571 C579 1.433 . S
C572 H568 0.929 . S
C572 C574 1.378 . S
C572 C576 1.350 . S
C573 C576 1.463 . S
C573 C578 1.350 1_554 S
C573 N581 1.427 . S
C574 H565 0.930 . S
C574 C572 1.378 . S
C574 C575 1.367 . S
C575 C574 1.367 . S
C575 C577 1.433 1_554 S
C576 C572 1.350 . S
C576 C573 1.463 . S
C576 N580 1.427 1_554 S
C577 H567 0.929 . S
C577 C575 1.433 1_556 S
C577 N580 1.384 . S
C578 H569 0.929 . S
C578 C570 1.378 . S
C578 C573 1.350 1_556 S
C579 H566 0.929 . S
C579 C571 1.433 . S
C579 N581 1.384 . S
N580 C576 1.427 1_556 S
N580 C577 1.384 . S
N581 C573 1.427 . S
N581 C579 1.384 . S
H582 C588 0.930 . S
H583 C592 0.930 . S
H584 C597 0.929 . S
H585 C595 0.929 . S
H586 C590 0.929 . S
H587 C596 0.929 . S
C588 H582 0.930 . S
C588 C589 1.367 1_556 S
C588 C596 1.378 . S
C589 C588 1.367 1_554 S
C589 C597 1.433 . S
C590 H586 0.929 . S
C590 C592 1.378 . S
C590 C594 1.350 . S
C591 C594 1.463 . S
C591 C596 1.350 1_554 S
C591 N599 1.427 . S
C592 H583 0.930 . S
C592 C590 1.378 . S
C592 C593 1.367 . S
C593 C592 1.367 . S
C593 C595 1.433 1_554 S
C594 C590 1.350 . S
C594 C591 1.463 . S
C594 N598 1.427 1_554 S
C595 H585 0.929 . S
C595 C593 1.433 1_556 S
C595 N598 1.384 . S
C596 H587 0.929 . S
C596 C588 1.378 . S
C596 C591 1.350 1_556 S
C597 H584 0.929 . S
C597 C589 1.433 . S
C597 N599 1.384 . S
N598 C594 1.427 1_556 S
N598 C595 1.384 . S
N599 C591 1.427 . S
N599 C597 1.384 . S
H600 C606 0.930 . S
H601 C610 0.930 . S
H602 C615 0.929 . S
H603 C613 0.929 . S
H604 C608 0.929 . S
H605 C614 0.929 . S
C606 H600 0.930 . S
C606 C607 1.367 . S
C606 C614 1.378 . S
C607 C606 1.367 . S
C607 C615 1.433 . S
C608 H604 0.929 . S
C608 C610 1.378 . S
C608 C612 1.350 . S
C609 C612 1.463 . S
C609 C614 1.350 . S
C609 N617 1.427 . S
C610 H601 0.930 . S
C610 C608 1.378 . S
C610 C611 1.367 . S
C611 C610 1.367 . S
C611 C613 1.433 . S
C612 C608 1.350 . S
C612 C609 1.463 . S
C612 N616 1.427 . S
C613 H603 0.929 . S
C613 C611 1.433 . S
C613 N616 1.384 . S
C614 H605 0.929 . S
C614 C606 1.378 . S
C614 C609 1.350 . S
C615 H602 0.929 . S
C615 C607 1.433 . S
C615 N617 1.384 . S
N616 C612 1.427 . S
N616 C613 1.384 . S
N617 C609 1.427 . S
N617 C615 1.384 . S
H618 C624 0.930 . S
H619 C628 0.930 . S
H620 C633 0.929 . S
H621 C631 0.929 . S
H622 C626 0.929 . S
H623 C632 0.929 . S
C624 H618 0.930 . S
C624 C625 1.367 . S
C624 C632 1.378 . S
C625 C624 1.367 . S
C625 C633 1.433 . S
C626 H622 0.929 . S
C626 C628 1.378 . S
C626 C630 1.350 . S
C627 C630 1.463 . S
C627 C632 1.350 . S
C627 N635 1.427 . S
C628 H619 0.930 . S
C628 C626 1.378 . S
C628 C629 1.367 . S
C629 C628 1.367 . S
C629 C631 1.433 . S
C630 C626 1.350 . S
C630 C627 1.463 . S
C630 N634 1.427 . S
C631 H621 0.929 . S
C631 C629 1.433 . S
C631 N634 1.384 . S
C632 H623 0.929 . S
C632 C624 1.378 . S
C632 C627 1.350 . S
C633 H620 0.929 . S
C633 C625 1.433 . S
C633 N635 1.384 . S
N634 C630 1.427 . S
N634 C631 1.384 . S
N635 C627 1.427 . S
N635 C633 1.384 . S
H636 C642 0.930 . S
H637 C646 0.930 . S
H638 C651 0.929 . S
H639 C649 0.929 . S
H640 C644 0.929 . S
H641 C650 0.929 . S
C642 H636 0.930 . S
C642 C643 1.367 . S
C642 C650 1.378 . S
C643 C642 1.367 . S
C643 C651 1.433 . S
C644 H640 0.929 . S
C644 C646 1.378 . S
C644 C648 1.350 . S
C645 C648 1.463 . S
C645 C650 1.350 . S
C645 N653 1.427 . S
C646 H637 0.930 . S
C646 C644 1.378 . S
C646 C647 1.367 . S
C647 C646 1.367 . S
C647 C649 1.433 . S
C648 C644 1.350 . S
C648 C645 1.463 . S
C648 N652 1.427 . S
C649 H639 0.929 . S
C649 C647 1.433 . S
C649 N652 1.384 . S
C650 H641 0.929 . S
C650 C642 1.378 . S
C650 C645 1.350 . S
C651 H638 0.929 . S
C651 C643 1.433 . S
C651 N653 1.384 . S
N652 C648 1.427 . S
N652 C649 1.384 . S
N653 C645 1.427 . S
N653 C651 1.384 . S
H654 C660 0.930 . S
H655 C664 0.930 . S
H656 C669 0.929 . S
H657 C667 0.929 . S
H658 C662 0.929 . S
H659 C668 0.929 . S
C660 H654 0.930 . S
C660 C661 1.367 . S
C660 C668 1.378 . S
C661 C660 1.367 . S
C661 C669 1.433 . S
C662 H658 0.929 . S
C662 C664 1.378 . S
C662 C666 1.350 . S
C663 C666 1.463 . S
C663 C668 1.350 . S
C663 N671 1.427 . S
C664 H655 0.930 . S
C664 C662 1.378 . S
C664 C665 1.367 . S
C665 C664 1.367 . S
C665 C667 1.433 . S
C666 C662 1.350 . S
C666 C663 1.463 . S
C666 N670 1.427 . S
C667 H657 0.929 . S
C667 C665 1.433 . S
C667 N670 1.384 . S
C668 H659 0.929 . S
C668 C660 1.378 . S
C668 C663 1.350 . S
C669 H656 0.929 . S
C669 C661 1.433 . S
C669 N671 1.384 . S
N670 C666 1.427 . S
N670 C667 1.384 . S
N671 C663 1.427 . S
N671 C669 1.384 . S
H672 C678 0.930 . S
H673 C682 0.930 . S
H674 C687 0.929 . S
H675 C685 0.929 . S
H676 C680 0.929 . S
H677 C686 0.929 . S
C678 H672 0.930 . S
C678 C679 1.367 . S
C678 C686 1.378 . S
C679 C678 1.367 . S
C679 C687 1.433 1_556 S
C680 H676 0.929 . S
C680 C682 1.378 . S
C680 C684 1.336 1_554 S
C681 C684 1.464 . S
C681 C686 1.350 . S
C681 N689 1.427 1_556 S
C682 H673 0.930 . S
C682 C680 1.378 . S
C682 C683 1.367 . S
C683 C682 1.367 . S
C683 C685 1.433 1_554 S
C684 C680 1.336 1_556 S
C684 C681 1.464 . S
C684 N688 1.441 . S
C685 H675 0.929 . S
C685 C683 1.433 1_556 S
C685 N688 1.384 . S
C686 H677 0.929 . S
C686 C678 1.378 . S
C686 C681 1.350 . S
C687 H674 0.929 . S
C687 C679 1.433 1_554 S
C687 N689 1.384 . S
N688 C684 1.441 . S
N688 C685 1.384 . S
N689 C681 1.427 1_554 S
N689 C687 1.384 . S
H690 C696 0.930 . S
H691 C700 0.930 . S
H692 C705 0.929 . S
H693 C703 0.929 . S
H694 C698 0.929 . S
H695 C704 0.929 . S
C696 H690 0.930 . S
C696 C697 1.367 . S
C696 C704 1.378 . S
C697 C696 1.367 . S
C697 C705 1.433 1_556 S
C698 H694 0.929 . S
C698 C700 1.378 . S
C698 C702 1.338 1_554 S
C699 C702 1.464 . S
C699 C704 1.350 . S
C699 N707 1.427 1_556 S
C700 H691 0.930 . S
C700 C698 1.378 . S
C700 C701 1.367 . S
C701 C700 1.367 . S
C701 C703 1.433 1_554 S
C702 C698 1.338 1_556 S
C702 C699 1.464 . S
C702 N706 1.439 . S
C703 H693 0.929 . S
C703 C701 1.433 1_556 S
C703 N706 1.384 . S
C704 H695 0.929 . S
C704 C696 1.378 . S
C704 C699 1.350 . S
C705 H692 0.929 . S
C705 C697 1.433 1_554 S
C705 N707 1.384 . S
N706 C702 1.439 . S
N706 C703 1.384 . S
N707 C699 1.427 1_554 S
N707 C705 1.384 . S
H708 C714 0.930 . S
H709 C718 0.930 . S
H710 C723 0.929 . S
H711 C721 0.929 . S
H712 C716 0.929 . S
H713 C722 0.929 . S
C714 H708 0.930 . S
C714 C715 1.367 . S
C714 C722 1.378 . S
C715 C714 1.367 . S
C715 C723 1.433 1_554 S
C716 H712 0.929 . S
C716 C718 1.378 . S
C716 C720 1.350 . S
C717 C720 1.464 . S
C717 C722 1.337 1_556 S
C717 N725 1.440 . S
C718 H709 0.930 . S
C718 C716 1.378 . S
C718 C719 1.367 . S
C719 C718 1.367 . S
C719 C721 1.433 1_556 S
C720 C716 1.350 . S
C720 C717 1.464 . S
C720 N724 1.427 1_556 S
C721 H711 0.929 . S
C721 C719 1.433 1_554 S
C721 N724 1.384 . S
C722 H713 0.929 . S
C722 C714 1.378 . S
C722 C717 1.337 1_554 S
C723 H710 0.929 . S
C723 C715 1.433 1_556 S
C723 N725 1.384 . S
N724 C720 1.427 1_554 S
N724 C721 1.384 . S
N725 C717 1.440 . S
N725 C723 1.384 . S
H726 C732 0.930 . S
H727 C736 0.930 . S
H728 C741 0.929 . S
H729 C739 0.929 . S
H730 C734 0.929 . S
H731 C740 0.929 . S
C732 H726 0.930 . S
C732 C733 1.367 . S
C732 C740 1.378 . S
C733 C732 1.367 . S
C733 C741 1.433 1_554 S
C734 H730 0.929 . S
C734 C736 1.378 . S
C734 C738 1.350 . S
C735 C738 1.464 . S
C735 C740 1.338 1_556 S
C735 N743 1.439 . S
C736 H727 0.930 . S
C736 C734 1.378 . S
C736 C737 1.367 . S
C737 C736 1.367 . S
C737 C739 1.433 1_556 S
C738 C734 1.350 . S
C738 C735 1.464 . S
C738 N742 1.427 1_556 S
C739 H729 0.929 . S
C739 C737 1.433 1_554 S
C739 N742 1.384 . S
C740 H731 0.929 . S
C740 C732 1.378 . S
C740 C735 1.338 1_554 S
C741 H728 0.929 . S
C741 C733 1.433 1_556 S
C741 N743 1.384 . S
N742 C738 1.427 1_554 S
N742 C739 1.384 . S
N743 C735 1.439 . S
N743 C741 1.384 . S
H744 C750 0.930 . S
H745 C754 0.930 . S
H746 C759 0.929 . S
H747 C757 0.929 . S
H748 C752 0.929 . S
H749 C758 0.929 . S
C750 H744 0.930 . S
C750 C751 1.367 . S
C750 C758 1.378 . S
C751 C750 1.367 . S
C751 C759 1.433 . S
C752 H748 0.929 . S
C752 C754 1.378 . S
C752 C756 1.350 . S
C753 C756 1.463 . S
C753 C758 1.350 . S
C753 N761 1.427 . S
C754 H745 0.930 . S
C754 C752 1.378 . S
C754 C755 1.367 . S
C755 C754 1.367 . S
C755 C757 1.433 . S
C756 C752 1.350 . S
C756 C753 1.463 . S
C756 N760 1.427 . S
C757 H747 0.929 . S
C757 C755 1.433 . S
C757 N760 1.384 . S
C758 H749 0.929 . S
C758 C750 1.378 . S
C758 C753 1.350 . S
C759 H746 0.929 . S
C759 C751 1.433 . S
C759 N761 1.384 . S
N760 C756 1.427 . S
N760 C757 1.384 . S
N761 C753 1.427 . S
N761 C759 1.384 . S
H762 C768 0.930 . S
H763 C772 0.930 . S
H764 C777 0.929 . S
H765 C775 0.929 . S
H766 C770 0.929 . S
H767 C776 0.929 . S
C768 H762 0.930 . S
C768 C769 1.367 . S
C768 C776 1.378 . S
C769 C768 1.367 . S
C769 C777 1.433 . S
C770 H766 0.929 . S
C770 C772 1.378 . S
C770 C774 1.350 . S
C771 C774 1.463 . S
C771 C776 1.350 . S
C771 N779 1.427 . S
C772 H763 0.930 . S
C772 C770 1.378 . S
C772 C773 1.367 . S
C773 C772 1.367 . S
C773 C775 1.433 . S
C774 C770 1.350 . S
C774 C771 1.463 . S
C774 N778 1.427 . S
C775 H765 0.929 . S
C775 C773 1.433 . S
C775 N778 1.384 . S
C776 H767 0.929 . S
C776 C768 1.378 . S
C776 C771 1.350 . S
C777 H764 0.929 . S
C777 C769 1.433 . S
C777 N779 1.384 . S
N778 C774 1.427 . S
N778 C775 1.384 . S
N779 C771 1.427 . S
N779 C777 1.384 . S
H780 C786 0.930 . S
H781 C790 0.930 . S
H782 C795 0.929 . S
H783 C793 0.929 . S
H784 C788 0.929 . S
H785 C794 0.929 . S
C786 H780 0.930 . S
C786 C787 1.367 . S
C786 C794 1.378 . S
C787 C786 1.367 . S
C787 C795 1.433 . S
C788 H784 0.929 . S
C788 C790 1.378 . S
C788 C792 1.350 . S
C789 C792 1.463 . S
C789 C794 1.350 . S
C789 N797 1.427 . S
C790 H781 0.930 . S
C790 C788 1.378 . S
C790 C791 1.367 . S
C791 C790 1.367 . S
C791 C793 1.433 . S
C792 C788 1.350 . S
C792 C789 1.463 . S
C792 N796 1.427 . S
C793 H783 0.929 . S
C793 C791 1.433 . S
C793 N796 1.384 . S
C794 H785 0.929 . S
C794 C786 1.378 . S
C794 C789 1.350 . S
C795 H782 0.929 . S
C795 C787 1.433 . S
C795 N797 1.384 . S
N796 C792 1.427 . S
N796 C793 1.384 . S
N797 C789 1.427 . S
N797 C795 1.384 . S
H798 C804 0.930 . S
H799 C808 0.930 . S
H800 C813 0.929 . S
H801 C811 0.929 . S
H802 C806 0.929 . S
H803 C812 0.929 . S
C804 H798 0.930 . S
C804 C805 1.367 . S
C804 C812 1.378 . S
C805 C804 1.367 . S
C805 C813 1.433 . S
C806 H802 0.929 . S
C806 C808 1.378 . S
C806 C810 1.350 . S
C807 C810 1.463 . S
C807 C812 1.350 . S
C807 N815 1.427 . S
C808 H799 0.930 . S
C808 C806 1.378 . S
C808 C809 1.367 . S
C809 C808 1.367 . S
C809 C811 1.433 . S
C810 C806 1.350 . S
C810 C807 1.463 . S
C810 N814 1.427 . S
C811 H801 0.929 . S
C811 C809 1.433 . S
C811 N814 1.384 . S
C812 H803 0.929 . S
C812 C804 1.378 . S
C812 C807 1.350 . S
C813 H800 0.929 . S
C813 C805 1.433 . S
C813 N815 1.384 . S
N814 C810 1.427 . S
N814 C811 1.384 . S
N815 C807 1.427 . S
N815 C813 1.384 . S
H816 C822 0.930 . S
H817 C826 0.930 . S
H818 C831 0.929 . S
H819 C829 0.929 . S
H820 C824 0.929 . S
H821 C830 0.929 . S
C822 H816 0.930 . S
C822 C823 1.367 . S
C822 C830 1.378 . S
C823 C822 1.367 . S
C823 C831 1.433 . S
C824 H820 0.929 . S
C824 C826 1.378 . S
C824 C828 1.350 . S
C825 C828 1.463 . S
C825 C830 1.350 . S
C825 N833 1.427 . S
C826 H817 0.930 . S
C826 C824 1.378 . S
C826 C827 1.367 . S
C827 C826 1.367 . S
C827 C829 1.433 . S
C828 C824 1.350 . S
C828 C825 1.463 . S
C828 N832 1.427 . S
C829 H819 0.929 . S
C829 C827 1.433 . S
C829 N832 1.384 . S
C830 H821 0.929 . S
C830 C822 1.378 . S
C830 C825 1.350 . S
C831 H818 0.929 . S
C831 C823 1.433 . S
C831 N833 1.384 . S
N832 C828 1.427 . S
N832 C829 1.384 . S
N833 C825 1.427 . S
N833 C831 1.384 . S
H834 C840 0.930 . S
H835 C844 0.930 . S
H836 C849 0.929 . S
H837 C847 0.929 . S
H838 C842 0.929 . S
H839 C848 0.929 . S
C840 H834 0.930 . S
C840 C841 1.367 . S
C840 C848 1.378 . S
C841 C840 1.367 . S
C841 C849 1.433 . S
C842 H838 0.929 . S
C842 C844 1.378 . S
C842 C846 1.350 . S
C843 C846 1.463 . S
C843 C848 1.350 . S
C843 N851 1.427 . S
C844 H835 0.930 . S
C844 C842 1.378 . S
C844 C845 1.367 . S
C845 C844 1.367 . S
C845 C847 1.433 . S
C846 C842 1.350 . S
C846 C843 1.463 . S
C846 N850 1.427 . S
C847 H837 0.929 . S
C847 C845 1.433 . S
C847 N850 1.384 . S
C848 H839 0.929 . S
C848 C840 1.378 . S
C848 C843 1.350 . S
C849 H836 0.929 . S
C849 C841 1.433 . S
C849 N851 1.384 . S
N850 C846 1.427 . S
N850 C847 1.384 . S
N851 C843 1.427 . S
N851 C849 1.384 . S
H852 C858 0.930 . S
H853 C862 0.930 . S
H854 C867 0.929 . S
H855 C865 0.929 . S
H856 C860 0.929 . S
H857 C866 0.929 . S
C858 H852 0.930 . S
C858 C859 1.367 . S
C858 C866 1.378 . S
C859 C858 1.367 . S
C859 C867 1.433 . S
C860 H856 0.929 . S
C860 C862 1.378 . S
C860 C864 1.350 . S
C861 C864 1.463 . S
C861 C866 1.350 . S
C861 N869 1.427 . S
C862 H853 0.930 . S
C862 C860 1.378 . S
C862 C863 1.367 . S
C863 C862 1.367 . S
C863 C865 1.433 . S
C864 C860 1.350 . S
C864 C861 1.463 . S
C864 N868 1.427 . S
C865 H855 0.929 . S
C865 C863 1.433 . S
C865 N868 1.384 . S
C866 H857 0.929 . S
C866 C858 1.378 . S
C866 C861 1.350 . S
C867 H854 0.929 . S
C867 C859 1.433 . S
C867 N869 1.384 . S
N868 C864 1.427 . S
N868 C865 1.384 . S
N869 C861 1.427 . S
N869 C867 1.384 . S
H870 C876 0.930 . S
H871 C880 0.930 . S
H872 C885 0.929 . S
H873 C883 0.929 . S
H874 C878 0.929 . S
H875 C884 0.929 . S
C876 H870 0.930 . S
C876 C877 1.367 . S
C876 C884 1.378 . S
C877 C876 1.367 . S
C877 C885 1.433 . S
C878 H874 0.929 . S
C878 C880 1.378 . S
C878 C882 1.350 . S
C879 C882 1.463 . S
C879 C884 1.350 . S
C879 N887 1.427 . S
C880 H871 0.930 . S
C880 C878 1.378 . S
C880 C881 1.367 . S
C881 C880 1.367 . S
C881 C883 1.433 . S
C882 C878 1.350 . S
C882 C879 1.463 . S
C882 N886 1.427 . S
C883 H873 0.929 . S
C883 C881 1.433 . S
C883 N886 1.384 . S
C884 H875 0.929 . S
C884 C876 1.378 . S
C884 C879 1.350 . S
C885 H872 0.929 . S
C885 C877 1.433 . S
C885 N887 1.384 . S
N886 C882 1.427 . S
N886 C883 1.384 . S
N887 C879 1.427 . S
N887 C885 1.384 . S
H888 C894 0.930 . S
H889 C898 0.930 . S
H890 C903 0.929 . S
H891 C901 0.929 1_556 S
H892 C896 0.929 . S
H893 C902 0.929 1_556 S
C894 H888 0.930 . S
C894 C895 1.367 . S
C894 C902 1.378 . S
C895 C894 1.367 . S
C895 C903 1.433 . S
C896 H892 0.929 . S
C896 C898 1.378 . S
C896 C900 1.350 . S
C897 C900 1.463 . S
C897 C902 1.350 . S
C897 N905 1.427 . S
C898 H889 0.930 . S
C898 C896 1.378 . S
C898 C899 1.367 . S
C899 C898 1.367 . S
C899 C901 1.433 . S
C900 C896 1.350 . S
C900 C897 1.463 . S
C900 N904 1.427 . S
C901 H891 0.929 1_554 S
C901 C899 1.433 . S
C901 N904 1.384 . S
C902 H893 0.929 1_554 S
C902 C894 1.378 . S
C902 C897 1.350 . S
C903 H890 0.929 . S
C903 C895 1.433 . S
C903 N905 1.384 . S
N904 C900 1.427 . S
N904 C901 1.384 . S
N905 C897 1.427 . S
N905 C903 1.384 . S
H906 C912 0.930 . S
H907 C916 0.930 1_556 S
H908 C921 0.929 1_556 S
H909 C919 0.929 . S
H910 C914 0.929 1_556 S
H911 C920 0.929 . S
C912 H906 0.930 . S
C912 C913 1.367 . S
C912 C920 1.378 . S
C913 C912 1.367 . S
C913 C921 1.433 . S
C914 H910 0.929 1_554 S
C914 C916 1.378 . S
C914 C918 1.350 . S
C915 C918 1.463 . S
C915 C920 1.350 . S
C915 N923 1.427 . S
C916 H907 0.930 1_554 S
C916 C914 1.378 . S
C916 C917 1.367 . S
C917 C916 1.367 . S
C917 C919 1.433 . S
C918 C914 1.350 . S
C918 C915 1.463 . S
C918 N922 1.427 . S
C919 H909 0.929 . S
C919 C917 1.433 . S
C919 N922 1.384 . S
C920 H911 0.929 . S
C920 C912 1.378 . S
C920 C915 1.350 . S
C921 H908 0.929 1_554 S
C921 C913 1.433 . S
C921 N923 1.384 . S
N922 C918 1.427 . S
N922 C919 1.384 . S
N923 C915 1.427 . S
N923 C921 1.384 . S
H924 C930 0.930 . S
H925 C934 0.930 1_556 S
H926 C939 0.933 . S
H927 C937 0.929 . S
H928 C932 0.929 1_556 S
H929 C938 0.929 . S
C930 H924 0.930 . S
C930 C931 1.367 . S
C930 C938 1.378 . S
C931 C930 1.367 . S
C931 C939 1.433 . S
C932 H928 0.929 1_554 S
C932 C934 1.378 . S
C932 C936 1.350 . S
C933 C936 1.463 . S
C933 C938 1.350 . S
C933 N941 1.427 . S
C934 H925 0.930 1_554 S
C934 C932 1.378 . S
C934 C935 1.367 . S
C935 C934 1.367 . S
C935 C937 1.433 . S
C936 C932 1.350 . S
C936 C933 1.463 . S
C936 N940 1.427 . S
C937 H927 0.929 . S
C937 C935 1.433 . S
C937 N940 1.384 . S
C938 H929 0.929 . S
C938 C930 1.378 . S
C938 C933 1.350 . S
C939 H926 0.933 . S
C939 C931 1.433 . S
C939 N941 1.384 . S
N940 C936 1.427 . S
N940 C937 1.384 . S
N941 C933 1.427 . S
N941 C939 1.384 . S
H942 C948 0.930 . S
H943 C952 0.930 . S
H944 C957 0.929 . S
H945 C955 0.929 . S
H946 C950 0.929 . S
H947 C956 0.929 . S
C948 H942 0.930 . S
C948 C949 1.367 . S
C948 C956 1.378 . S
C949 C948 1.367 . S
C949 C957 1.433 . S
C950 H946 0.929 . S
C950 C952 1.378 . S
C950 C954 1.350 . S
C951 C954 1.463 . S
C951 C956 1.350 . S
C951 N959 1.427 . S
C952 H943 0.930 . S
C952 C950 1.378 . S
C952 C953 1.367 . S
C953 C952 1.367 . S
C953 C955 1.433 . S
C954 C950 1.350 . S
C954 C951 1.463 . S
C954 N958 1.427 . S
C955 H945 0.929 . S
C955 C953 1.433 . S
C955 N958 1.384 . S
C956 H947 0.929 . S
C956 C948 1.378 . S
C956 C951 1.350 . S
C957 H944 0.929 . S
C957 C949 1.433 . S
C957 N959 1.384 . S
N958 C954 1.427 . S
N958 C955 1.384 . S
N959 C951 1.427 . S
N959 C957 1.384 . S
H960 C966 0.930 . S
H961 C970 0.930 . S
H962 C975 0.929 . S
H963 C973 0.929 . S
H964 C968 0.929 . S
H965 C974 0.929 . S
C966 H960 0.930 . S
C966 C967 1.367 . S
C966 C974 1.378 . S
C967 C966 1.367 . S
C967 C975 1.433 . S
C968 H964 0.929 . S
C968 C970 1.378 . S
C968 C972 1.350 . S
C969 C972 1.463 1_655 S
C969 C974 1.350 . S
C969 N977 1.427 . S
C970 H961 0.930 . S
C970 C968 1.378 . S
C970 C971 1.367 . S
C971 C970 1.367 . S
C971 C973 1.433 . S
C972 C968 1.350 . S
C972 C969 1.463 1_455 S
C972 N976 1.427 . S
C973 H963 0.929 . S
C973 C971 1.433 . S
C973 N976 1.384 . S
C974 H965 0.929 . S
C974 C966 1.378 . S
C974 C969 1.350 . S
C975 H962 0.929 . S
C975 C967 1.433 . S
C975 N977 1.384 . S
N976 C972 1.427 . S
N976 C973 1.384 . S
N977 C969 1.427 . S
N977 C975 1.384 . S
H978 C984 0.930 . S
H979 C988 0.930 . S
H980 C993 0.929 . S
H981 C991 0.929 . S
H982 C986 0.929 . S
H983 C992 0.929 . S
C984 H978 0.930 . S
C984 C985 1.367 . S
C984 C992 1.378 . S
C985 C984 1.367 . S
C985 C993 1.433 1_565 S
C986 H982 0.929 . S
C986 C988 1.378 . S
C986 C990 1.350 . S
C987 C990 1.463 1_565 S
C987 C992 1.350 . S
C987 N995 1.427 1_565 S
C988 H979 0.930 . S
C988 C986 1.378 . S
C988 C989 1.367 . S
C989 C988 1.367 . S
C989 C991 1.433 1_545 S
C990 C986 1.350 . S
C990 C987 1.463 1_545 S
C990 N994 1.427 1_545 S
C991 H981 0.929 . S
C991 C989 1.433 1_565 S
C991 N994 1.384 . S
C992 H983 0.929 . S
C992 C984 1.378 . S
C992 C987 1.350 . S
C993 H980 0.929 . S
C993 C985 1.433 1_545 S
C993 N995 1.384 . S
N994 C990 1.427 1_565 S
N994 C991 1.384 . S
N995 C987 1.427 1_545 S
N995 C993 1.384 . S
H996 C1002 0.930 . S
H997 C1006 0.930 . S
H998 C1011 0.929 . S
H999 C1009 0.929 . S
H1000 C1004 0.929 . S
H1001 C1010 0.929 . S
C1002 H996 0.930 . S
C1002 C1003 1.367 . S
C1002 C1010 1.378 . S
C1003 C1002 1.367 . S
C1003 C1011 1.433 1_655 S
C1004 H1000 0.929 . S
C1004 C1006 1.378 . S
C1004 C1008 1.350 . S
C1005 C1008 1.463 1_655 S
C1005 C1010 1.350 . S
C1005 N1013 1.427 1_655 S
C1006 H997 0.930 . S
C1006 C1004 1.378 . S
C1006 C1007 1.367 . S
C1007 C1006 1.367 . S
C1007 C1009 1.433 1_455 S
C1008 C1004 1.350 . S
C1008 C1005 1.463 1_455 S
C1008 N1012 1.427 1_455 S
C1009 H999 0.929 . S
C1009 C1007 1.433 1_655 S
C1009 N1012 1.384 . S
C1010 H1001 0.929 . S
C1010 C1002 1.378 . S
C1010 C1005 1.350 . S
C1011 H998 0.929 . S
C1011 C1003 1.433 1_455 S
C1011 N1013 1.384 . S
N1012 C1008 1.427 1_655 S
N1012 C1009 1.384 . S
N1013 C1005 1.427 1_455 S
N1013 C1011 1.384 . S
H1014 C1020 0.930 . S
H1015 C1024 0.930 . S
H1016 C1029 0.929 . S
H1017 C1027 0.929 . S
H1018 C1022 0.929 . S
H1019 C1028 0.929 . S
C1020 H1014 0.930 . S
C1020 C1021 1.367 . S
C1020 C1028 1.378 . S
C1021 C1020 1.367 . S
C1021 C1029 1.433 1_545 S
C1022 H1018 0.929 . S
C1022 C1024 1.378 . S
C1022 C1026 1.350 . S
C1023 C1026 1.463 1_545 S
C1023 C1028 1.350 . S
C1023 N1031 1.427 1_545 S
C1024 H1015 0.930 . S
C1024 C1022 1.378 . S
C1024 C1025 1.367 . S
C1025 C1024 1.367 . S
C1025 C1027 1.433 1_565 S
C1026 C1022 1.350 . S
C1026 C1023 1.463 1_565 S
C1026 N1030 1.427 1_565 S
C1027 H1017 0.929 . S
C1027 C1025 1.433 1_545 S
C1027 N1030 1.384 . S
C1028 H1019 0.929 . S
C1028 C1020 1.378 . S
C1028 C1023 1.350 . S
C1029 H1016 0.929 . S
C1029 C1021 1.433 1_565 S
C1029 N1031 1.384 . S
N1030 C1026 1.427 1_545 S
N1030 C1027 1.384 . S
N1031 C1023 1.427 1_565 S
N1031 C1029 1.384 . S
H1032 C1038 0.930 . S
H1033 C1042 0.930 . S
H1034 C1047 0.929 . S
H1035 C1045 0.929 . S
H1036 C1040 0.929 . S
H1037 C1046 0.929 . S
C1038 H1032 0.930 . S
C1038 C1039 1.367 . S
C1038 C1046 1.378 . S
C1039 C1038 1.367 . S
C1039 C1047 1.433 1_655 S
C1040 H1036 0.929 . S
C1040 C1042 1.378 . S
C1040 C1044 1.350 . S
C1041 C1044 1.463 1_655 S
C1041 C1046 1.350 . S
C1041 N1049 1.427 1_655 S
C1042 H1033 0.930 . S
C1042 C1040 1.378 . S
C1042 C1043 1.367 . S
C1043 C1042 1.367 . S
C1043 C1045 1.433 1_455 S
C1044 C1040 1.350 . S
C1044 C1041 1.463 1_455 S
C1044 N1048 1.427 1_455 S
C1045 H1035 0.929 . S
C1045 C1043 1.433 1_655 S
C1045 N1048 1.384 . S
C1046 H1037 0.929 . S
C1046 C1038 1.378 . S
C1046 C1041 1.350 . S
C1047 H1034 0.929 . S
C1047 C1039 1.433 1_455 S
C1047 N1049 1.384 . S
N1048 C1044 1.427 1_655 S
N1048 C1045 1.384 . S
N1049 C1041 1.427 1_455 S
N1049 C1047 1.384 . S
H1050 C1056 0.930 . S
H1051 C1060 0.930 . S
H1052 C1065 0.929 . S
H1053 C1063 0.929 . S
H1054 C1058 0.929 . S
H1055 C1064 0.929 . S
C1056 H1050 0.930 . S
C1056 C1057 1.367 . S
C1056 C1064 1.378 . S
C1057 C1056 1.367 . S
C1057 C1065 1.433 1_545 S
C1058 H1054 0.929 . S
C1058 C1060 1.378 . S
C1058 C1062 1.350 . S
C1059 C1062 1.463 1_545 S
C1059 C1064 1.350 . S
C1059 N1067 1.427 1_545 S
C1060 H1051 0.930 . S
C1060 C1058 1.378 . S
C1060 C1061 1.367 . S
C1061 C1060 1.367 . S
C1061 C1063 1.433 1_565 S
C1062 C1058 1.350 . S
C1062 C1059 1.463 1_565 S
C1062 N1066 1.427 1_565 S
C1063 H1053 0.929 . S
C1063 C1061 1.433 1_545 S
C1063 N1066 1.384 . S
C1064 H1055 0.929 . S
C1064 C1056 1.378 . S
C1064 C1059 1.350 . S
C1065 H1052 0.929 . S
C1065 C1057 1.433 1_565 S
C1065 N1067 1.384 . S
N1066 C1062 1.427 1_545 S
N1066 C1063 1.384 . S
N1067 C1059 1.427 1_565 S
N1067 C1065 1.384 . S
H1068 C1074 0.930 . S
H1069 C1078 0.930 . S
H1070 C1083 0.929 . S
H1071 C1081 0.929 . S
H1072 C1076 0.929 . S
H1073 C1082 0.929 . S
C1074 H1068 0.930 . S
C1074 C1075 1.367 1_655 S
C1074 C1082 1.378 . S
C1075 C1074 1.367 1_455 S
C1075 C1083 1.433 . S
C1076 H1072 0.929 . S
C1076 C1078 1.378 . S
C1076 C1080 1.325 1_455 S
C1077 C1080 1.459 1_455 S
C1077 C1082 1.325 1_455 S
C1077 N1085 1.458 . S
C1078 H1069 0.930 . S
C1078 C1076 1.378 . S
C1078 C1079 1.367 1_455 S
C1079 C1078 1.367 1_655 S
C1079 C1081 1.433 . S
C1080 C1076 1.325 1_655 S
C1080 C1077 1.459 1_655 S
C1080 N1084 1.458 . S
C1081 H1071 0.929 . S
C1081 C1079 1.433 . S
C1081 N1084 1.384 . S
C1082 H1073 0.929 . S
C1082 C1074 1.378 . S
C1082 C1077 1.325 1_655 S
C1083 H1070 0.929 . S
C1083 C1075 1.433 . S
C1083 N1085 1.384 . S
N1084 C1080 1.458 . S
N1084 C1081 1.384 . S
N1085 C1077 1.458 . S
N1085 C1083 1.384 . S
H1086 C1092 0.930 . S
H1087 C1096 0.930 . S
H1088 C1101 0.929 . S
H1089 C1099 0.929 . S
H1090 C1094 0.929 . S
H1091 C1100 0.929 . S
C1092 H1086 0.930 . S
C1092 C1093 1.367 1_545 S
C1092 C1100 1.378 . S
C1093 C1092 1.367 1_565 S
C1093 C1101 1.433 . S
C1094 H1090 0.929 . S
C1094 C1096 1.378 . S
C1094 C1098 1.328 1_565 S
C1095 C1098 1.458 1_565 S
C1095 C1100 1.328 1_565 S
C1095 N1103 1.456 . S
C1096 H1087 0.930 . S
C1096 C1094 1.378 . S
C1096 C1097 1.367 1_565 S
C1097 C1096 1.367 1_545 S
C1097 C1099 1.433 . S
C1098 C1094 1.328 1_545 S
C1098 C1095 1.458 1_545 S
C1098 N1102 1.456 . S
C1099 H1089 0.929 . S
C1099 C1097 1.433 . S
C1099 N1102 1.384 . S
C1100 H1091 0.929 . S
C1100 C1092 1.378 . S
C1100 C1095 1.328 1_545 S
C1101 H1088 0.929 . S
C1101 C1093 1.433 . S
C1101 N1103 1.384 . S
N1102 C1098 1.456 . S
N1102 C1099 1.384 . S
N1103 C1095 1.456 . S
N1103 C1101 1.384 . S
H1104 C1110 0.930 . S
H1105 C1114 0.930 . S
H1106 C1119 0.929 . S
H1107 C1117 0.929 . S
H1108 C1112 0.929 . S
H1109 C1118 0.929 . S
C1110 H1104 0.930 . S
C1110 C1111 1.367 . S
C1110 C1118 1.378 . S
C1111 C1110 1.367 . S
C1111 C1119 1.433 . S
C1112 H1108 0.929 . S
C1112 C1114 1.378 . S
C1112 C1116 1.350 . S
C1113 C1116 1.463 . S
C1113 C1118 1.350 . S
C1113 N1121 1.427 . S
C1114 H1105 0.930 . S
C1114 C1112 1.378 . S
C1114 C1115 1.367 . S
C1115 C1114 1.367 . S
C1115 C1117 1.433 . S
C1116 C1112 1.350 . S
C1116 C1113 1.463 . S
C1116 N1120 1.427 . S
C1117 H1107 0.929 . S
C1117 C1115 1.433 . S
C1117 N1120 1.384 . S
C1118 H1109 0.929 . S
C1118 C1110 1.378 . S
C1118 C1113 1.350 . S
C1119 H1106 0.929 . S
C1119 C1111 1.433 . S
C1119 N1121 1.384 . S
N1120 C1116 1.427 . S
N1120 C1117 1.384 . S
N1121 C1113 1.427 . S
N1121 C1119 1.384 . S
H1122 C1128 0.930 . S
H1123 C1132 0.930 . S
H1124 C1137 0.929 . S
H1125 C1135 0.929 . S
H1126 C1130 0.929 . S
H1127 C1136 0.929 . S
C1128 H1122 0.930 . S
C1128 C1129 1.367 . S
C1128 C1136 1.378 . S
C1129 C1128 1.367 . S
C1129 C1137 1.433 . S
C1130 H1126 0.929 . S
C1130 C1132 1.378 . S
C1130 C1134 1.350 . S
C1131 C1134 1.463 . S
C1131 C1136 1.350 . S
C1131 N1139 1.427 . S
C1132 H1123 0.930 . S
C1132 C1130 1.378 . S
C1132 C1133 1.367 . S
C1133 C1132 1.367 . S
C1133 C1135 1.433 . S
C1134 C1130 1.350 . S
C1134 C1131 1.463 . S
C1134 N1138 1.427 . S
C1135 H1125 0.929 . S
C1135 C1133 1.433 . S
C1135 N1138 1.384 . S
C1136 H1127 0.929 . S
C1136 C1128 1.378 . S
C1136 C1131 1.350 . S
C1137 H1124 0.929 . S
C1137 C1129 1.433 . S
C1137 N1139 1.384 . S
N1138 C1134 1.427 . S
N1138 C1135 1.384 . S
N1139 C1131 1.427 . S
N1139 C1137 1.384 . S
H1140 C1146 0.930 . S
H1141 C1150 0.930 . S
H1142 C1155 0.929 . S
H1143 C1153 0.929 . S
H1144 C1148 0.929 . S
H1145 C1154 0.929 . S
C1146 H1140 0.930 . S
C1146 C1147 1.367 . S
C1146 C1154 1.378 . S
C1147 C1146 1.367 . S
C1147 C1155 1.433 . S
C1148 H1144 0.929 . S
C1148 C1150 1.378 . S
C1148 C1152 1.350 . S
C1149 C1152 1.463 . S
C1149 C1154 1.350 . S
C1149 N1157 1.427 . S
C1150 H1141 0.930 . S
C1150 C1148 1.378 . S
C1150 C1151 1.367 . S
C1151 C1150 1.367 . S
C1151 C1153 1.433 . S
C1152 C1148 1.350 . S
C1152 C1149 1.463 . S
C1152 N1156 1.427 . S
C1153 H1143 0.929 . S
C1153 C1151 1.433 . S
C1153 N1156 1.384 . S
C1154 H1145 0.929 . S
C1154 C1146 1.378 . S
C1154 C1149 1.350 . S
C1155 H1142 0.929 . S
C1155 C1147 1.433 . S
C1155 N1157 1.384 . S
N1156 C1152 1.427 . S
N1156 C1153 1.384 . S
N1157 C1149 1.427 . S
N1157 C1155 1.384 . S
H1158 C1164 0.930 . S
H1159 C1168 0.930 . S
H1160 C1173 0.929 . S
H1161 C1171 0.929 . S
H1162 C1166 0.929 . S
H1163 C1172 0.929 . S
C1164 H1158 0.930 . S
C1164 C1165 1.367 . S
C1164 C1172 1.378 . S
C1165 C1164 1.367 . S
C1165 C1173 1.433 . S
C1166 H1162 0.929 . S
C1166 C1168 1.378 . S
C1166 C1170 1.350 . S
C1167 C1170 1.463 . S
C1167 C1172 1.350 . S
C1167 N1175 1.427 . S
C1168 H1159 0.930 . S
C1168 C1166 1.378 . S
C1168 C1169 1.367 . S
C1169 C1168 1.367 . S
C1169 C1171 1.433 . S
C1170 C1166 1.350 . S
C1170 C1167 1.463 . S
C1170 N1174 1.427 . S
C1171 H1161 0.929 . S
C1171 C1169 1.433 . S
C1171 N1174 1.384 . S
C1172 H1163 0.929 . S
C1172 C1164 1.378 . S
C1172 C1167 1.350 . S
C1173 H1160 0.929 . S
C1173 C1165 1.433 . S
C1173 N1175 1.384 . S
N1174 C1170 1.427 . S
N1174 C1171 1.384 . S
N1175 C1167 1.427 . S
N1175 C1173 1.384 . S
H1176 C1182 0.930 . S
H1177 C1186 0.930 . S
H1178 C1191 0.929 . S
H1179 C1189 0.929 . S
H1180 C1184 0.929 . S
H1181 C1190 0.929 . S
C1182 H1176 0.930 . S
C1182 C1183 1.367 . S
C1182 C1190 1.378 . S
C1183 C1182 1.367 . S
C1183 C1191 1.433 . S
C1184 H1180 0.929 . S
C1184 C1186 1.378 . S
C1184 C1188 1.350 . S
C1185 C1188 1.463 . S
C1185 C1190 1.350 . S
C1185 N1193 1.427 . S
C1186 H1177 0.930 . S
C1186 C1184 1.378 . S
C1186 C1187 1.367 . S
C1187 C1186 1.367 . S
C1187 C1189 1.433 . S
C1188 C1184 1.350 . S
C1188 C1185 1.463 . S
C1188 N1192 1.427 . S
C1189 H1179 0.929 . S
C1189 C1187 1.433 . S
C1189 N1192 1.384 . S
C1190 H1181 0.929 . S
C1190 C1182 1.378 . S
C1190 C1185 1.350 . S
C1191 H1178 0.929 . S
C1191 C1183 1.433 . S
C1191 N1193 1.384 . S
N1192 C1188 1.427 . S
N1192 C1189 1.384 . S
N1193 C1185 1.427 . S
N1193 C1191 1.384 . S
H1194 C1200 0.930 . S
H1195 C1204 0.930 . S
H1196 C1209 0.929 . S
H1197 C1207 0.929 . S
H1198 C1202 0.929 . S
H1199 C1208 0.929 . S
C1200 H1194 0.930 . S
C1200 C1201 1.367 . S
C1200 C1208 1.378 . S
C1201 C1200 1.367 . S
C1201 C1209 1.433 . S
C1202 H1198 0.929 . S
C1202 C1204 1.378 . S
C1202 C1206 1.350 . S
C1203 C1206 1.463 . S
C1203 C1208 1.350 . S
C1203 N1211 1.427 . S
C1204 H1195 0.930 . S
C1204 C1202 1.378 . S
C1204 C1205 1.367 . S
C1205 C1204 1.367 . S
C1205 C1207 1.433 . S
C1206 C1202 1.350 . S
C1206 C1203 1.463 . S
C1206 N1210 1.427 . S
C1207 H1197 0.929 . S
C1207 C1205 1.433 . S
C1207 N1210 1.384 . S
C1208 H1199 0.929 . S
C1208 C1200 1.378 . S
C1208 C1203 1.350 . S
C1209 H1196 0.929 . S
C1209 C1201 1.433 . S
C1209 N1211 1.384 . S
N1210 C1206 1.427 . S
N1210 C1207 1.384 . S
N1211 C1203 1.427 . S
N1211 C1209 1.384 . S
H1212 C1218 0.930 . S
H1213 C1222 0.930 . S
H1214 C1227 0.929 . S
H1215 C1225 0.929 . S
H1216 C1220 0.929 . S
H1217 C1226 0.929 . S
C1218 H1212 0.930 . S
C1218 C1219 1.367 . S
C1218 C1226 1.378 . S
C1219 C1218 1.367 . S
C1219 C1227 1.433 . S
C1220 H1216 0.929 . S
C1220 C1222 1.378 . S
C1220 C1224 1.350 . S
C1221 C1224 1.463 . S
C1221 C1226 1.350 . S
C1221 N1229 1.427 . S
C1222 H1213 0.930 . S
C1222 C1220 1.378 . S
C1222 C1223 1.367 . S
C1223 C1222 1.367 . S
C1223 C1225 1.433 . S
C1224 C1220 1.350 . S
C1224 C1221 1.463 . S
C1224 N1228 1.427 . S
C1225 H1215 0.929 . S
C1225 C1223 1.433 . S
C1225 N1228 1.384 . S
C1226 H1217 0.929 . S
C1226 C1218 1.378 . S
C1226 C1221 1.350 . S
C1227 H1214 0.929 . S
C1227 C1219 1.433 . S
C1227 N1229 1.384 . S
N1228 C1224 1.427 . S
N1228 C1225 1.384 . S
N1229 C1221 1.427 . S
N1229 C1227 1.384 . S
H1230 C1236 0.930 . S
H1231 C1240 0.930 . S
H1232 C1245 0.929 . S
H1233 C1243 0.929 . S
H1234 C1238 0.929 . S
H1235 C1244 0.929 . S
C1236 H1230 0.930 . S
C1236 C1237 1.367 . S
C1236 C1244 1.378 . S
C1237 C1236 1.367 . S
C1237 C1245 1.433 . S
C1238 H1234 0.929 . S
C1238 C1240 1.378 . S
C1238 C1242 1.350 . S
C1239 C1242 1.463 . S
C1239 C1244 1.350 . S
C1239 N1247 1.427 . S
C1240 H1231 0.930 . S
C1240 C1238 1.378 . S
C1240 C1241 1.367 . S
C1241 C1240 1.367 . S
C1241 C1243 1.433 . S
C1242 C1238 1.350 . S
C1242 C1239 1.463 . S
C1242 N1246 1.427 . S
C1243 H1233 0.929 . S
C1243 C1241 1.433 . S
C1243 N1246 1.384 . S
C1244 H1235 0.929 . S
C1244 C1236 1.378 . S
C1244 C1239 1.350 . S
C1245 H1232 0.929 . S
C1245 C1237 1.433 . S
C1245 N1247 1.384 . S
N1246 C1242 1.427 . S
N1246 C1243 1.384 . S
N1247 C1239 1.427 . S
N1247 C1245 1.384 . S
C535 N5 1.318 . S
C539 N500 1.325 . S
C553 N38 1.326 . S
C557 N401 1.324 . S
C571 N434 1.325 . S
C575 N71 1.325 . S
C589 N104 1.313 . S
C593 N467 1.310 . S
C607 N137 1.320 . S
C611 N302 1.313 . S
C625 N335 1.326 . S
C629 N170 1.323 . S
C643 N368 1.319 . S
C647 N203 1.325 . S
C661 N269 1.325 . S
C665 N236 1.319 . S
C679 N113 1.573 1_556 S
C683 C17 1.622 . S
C697 N14 1.573 1_556 S
C701 C50 1.622 . S
C715 C83 1.622 . S
C719 N47 1.574 1_556 S
C733 C116 1.622 . S
C737 N80 1.575 1_556 S
C751 N179 1.574 . S
C755 C149 1.622 . S
C769 N212 1.573 . S
C773 C182 1.622 . S
C787 N245 1.573 . S
C791 C215 1.622 . S
C805 N146 1.573 . S
C809 C248 1.622 . S
C823 N377 1.564 . S
C827 C281 1.621 . S
C841 C314 1.622 . S
C845 N278 1.574 . S
C859 N311 1.573 . S
C863 C347 1.622 . S
C877 N344 1.571 . S
C881 C380 1.621 . S
C895 N443 1.561 . S
C899 C413 1.622 . S
C913 N476 1.574 . S
C917 C446 1.622 . S
C931 N509 1.574 . S
C935 C479 1.622 . S
C949 N410 1.562 . S
C953 C512 1.623 . S
C967 C226 1.765 . S
C971 C28 1.774 . S
C985 C259 1.773 . S
C989 C61 1.766 . S
C1003 C94 1.766 . S
C1007 C160 1.773 . S
C1021 C193 1.773 . S
C1025 C127 1.766 . S
C1039 C74 0.708 . S
C1043 C140 0.689 . S
C1057 C173 0.690 . S
C1061 C107 0.699 . S
C1075 C8 0.718 . S
C1079 C206 0.704 . S
C1093 C239 0.718 . S
C1097 C41 0.701 . S
C1111 C490 1.765 . S
C1115 C292 1.774 . S
C1129 C523 1.772 . S
C1133 C325 1.767 . S
C1147 C424 1.774 . S
C1151 C358 1.765 . S
C1165 C391 1.771 . S
C1169 C457 1.768 . S
C1183 C404 0.693 . S
C1187 C338 0.695 . S
C1201 C371 0.718 . S
C1205 C437 0.700 . S
C1219 C272 0.702 . S
C1223 C470 0.718 . S
C1237 C503 0.718 . S
C1241 C305 0.704 . S
