# Generated by pormake.
# Topology ume, (4)-cn, num edge types: 1
# Building blocks:
#     Node 0, Type 0, BuildingBlock: ICAMEG_clean_sbu_1, # of connection points: 4
#     Node 1, Type 0, BuildingBlock: ICAMEG_clean_sbu_1, # of connection points: 4
#     Node 2, Type 0, BuildingBlock: ICAMEG_clean_sbu_1, # of connection points: 4
#     Node 3, Type 0, BuildingBlock: ICAMEG_clean_sbu_1, # of connection points: 4
#     Node 4, Type 0, BuildingBlock: ICAMEG_clean_sbu_1, # of connection points: 4
#     Node 5, Type 0, BuildingBlock: ICAMEG_clean_sbu_1, # of connection points: 4
#     Node 6, Type 0, BuildingBlock: ICAMEG_clean_sbu_1, # of connection points: 4
#     Node 7, Type 0, BuildingBlock: ICAMEG_clean_sbu_1, # of connection points: 4
#     Node 8, Type 0, BuildingBlock: ICAMEG_clean_sbu_1, # of connection points: 4
#     Node 9, Type 0, BuildingBlock: ICAMEG_clean_sbu_1, # of connection points: 4
#     Node 10, Type 0, BuildingBlock: ICAMEG_clean_sbu_1, # of connection points: 4
#     Node 11, Type 0, BuildingBlock: ICAMEG_clean_sbu_1, # of connection points: 4
#     Node 12, Type 0, BuildingBlock: ICAMEG_clean_sbu_1, # of connection points: 4
#     Node 13, Type 0, BuildingBlock: ICAMEG_clean_sbu_1, # of connection points: 4
#     Node 14, Type 0, BuildingBlock: ICAMEG_clean_sbu_1, # of connection points: 4
#     Node 15, Type 0, BuildingBlock: ICAMEG_clean_sbu_1, # of connection points: 4
#     Edge 16, Type (0, 0), BuildingBlock: TEMPAE_clean_linker_10, # of connection points: 2
#     Edge 17, Type (0, 0), BuildingBlock: TEMPAE_clean_linker_10, # of connection points: 2
#     Edge 18, Type (0, 0), BuildingBlock: TEMPAE_clean_linker_10, # of connection points: 2
#     Edge 19, Type (0, 0), BuildingBlock: TEMPAE_clean_linker_10, # of connection points: 2
#     Edge 20, Type (0, 0), BuildingBlock: TEMPAE_clean_linker_10, # of connection points: 2
#     Edge 21, Type (0, 0), BuildingBlock: TEMPAE_clean_linker_10, # of connection points: 2
#     Edge 22, Type (0, 0), BuildingBlock: TEMPAE_clean_linker_10, # of connection points: 2
#     Edge 23, Type (0, 0), BuildingBlock: TEMPAE_clean_linker_10, # of connection points: 2
#     Edge 24, Type (0, 0), BuildingBlock: TEMPAE_clean_linker_10, # of connection points: 2
#     Edge 25, Type (0, 0), BuildingBlock: TEMPAE_clean_linker_10, # of connection points: 2
#     Edge 26, Type (0, 0), BuildingBlock: TEMPAE_clean_linker_10, # of connection points: 2
#     Edge 27, Type (0, 0), BuildingBlock: TEMPAE_clean_linker_10, # of connection points: 2
#     Edge 28, Type (0, 0), BuildingBlock: TEMPAE_clean_linker_10, # of connection points: 2
#     Edge 29, Type (0, 0), BuildingBlock: TEMPAE_clean_linker_10, # of connection points: 2
#     Edge 30, Type (0, 0), BuildingBlock: TEMPAE_clean_linker_10, # of connection points: 2
#     Edge 31, Type (0, 0), BuildingBlock: TEMPAE_clean_linker_10, # of connection points: 2
#     Edge 32, Type (0, 0), BuildingBlock: TEMPAE_clean_linker_10, # of connection points: 2
#     Edge 33, Type (0, 0), BuildingBlock: TEMPAE_clean_linker_10, # of connection points: 2
#     Edge 34, Type (0, 0), BuildingBlock: TEMPAE_clean_linker_10, # of connection points: 2
#     Edge 35, Type (0, 0), BuildingBlock: TEMPAE_clean_linker_10, # of connection points: 2
#     Edge 36, Type (0, 0), BuildingBlock: TEMPAE_clean_linker_10, # of connection points: 2
#     Edge 37, Type (0, 0), BuildingBlock: TEMPAE_clean_linker_10, # of connection points: 2
#     Edge 38, Type (0, 0), BuildingBlock: TEMPAE_clean_linker_10, # of connection points: 2
#     Edge 39, Type (0, 0), BuildingBlock: TEMPAE_clean_linker_10, # of connection points: 2
#     Edge 40, Type (0, 0), BuildingBlock: TEMPAE_clean_linker_10, # of connection points: 2
#     Edge 41, Type (0, 0), BuildingBlock: TEMPAE_clean_linker_10, # of connection points: 2
#     Edge 42, Type (0, 0), BuildingBlock: TEMPAE_clean_linker_10, # of connection points: 2
#     Edge 43, Type (0, 0), BuildingBlock: TEMPAE_clean_linker_10, # of connection points: 2
#     Edge 44, Type (0, 0), BuildingBlock: TEMPAE_clean_linker_10, # of connection points: 2
#     Edge 45, Type (0, 0), BuildingBlock: TEMPAE_clean_linker_10, # of connection points: 2
#     Edge 46, Type (0, 0), BuildingBlock: TEMPAE_clean_linker_10, # of connection points: 2
#     Edge 47, Type (0, 0), BuildingBlock: TEMPAE_clean_linker_10, # of connection points: 2
# Relax obj value: 0.073
# Max RMSD: 0.096
# Mean RMSD: 0.096
data_MOF--net-ume--node1-ICAMEG_clean_sbu_1--edge1-TEMPAE_clean_linker_10
_symmetry_space_group_name_H-M    P1
_symmetry_Int_Tables_number       1
_symmetry_cell_setting            triclinic
loop_
_symmetry_equiv_pos_as_xyz
'x, y, z'
_cell_length_a     29.833842
_cell_length_b     29.839165
_cell_length_c     120.7633
_cell_angle_alpha  90.031
_cell_angle_beta   90.005772
_cell_angle_gamma 90.039429
loop_
_atom_site_label
_atom_site_type_symbol
_atom_site_fract_x
_atom_site_fract_y
_atom_site_fract_z
_atom_type_partial_charge
Co0 Co 0.27641 0.12539 0.31395 0.0
Co1 Co 0.24557 0.02988 0.29971 0.0
O2 O 0.23447 0.07619 0.3109 0.0
C3 C 0.26013 0.08351 0.33569 0.0
O4 O 0.26239 0.04464 0.33064 0.0
C5 C 0.15421 0.06251 0.2949 0.0
O6 O 0.16763 0.10347 0.29706 0.0
O7 O 0.25676 0.07633 0.2883 0.0
O8 O 0.29033 0.13209 0.29775 0.0
H9 H 0.33019 0.95784 0.26847 0.0
H10 H 0.18457 0.13031 0.32318 0.0
O11 O 0.26438 0.11981 0.33024 0.0
H12 H 0.19918 0.26261 0.29899 0.0
H13 H 0.32796 0.26548 0.33342 0.0
H14 H 0.36681 0.15011 0.30579 0.0
H15 H 0.26234 0.21016 0.3013 0.0
H16 H 0.27508 0.20429 0.32912 0.0
O17 O 0.18105 0.02963 0.29559 0.0
H18 H 0.31587 0.01509 0.28277 0.0
H19 H 0.19722 0.94711 0.29259 0.0
H20 H 0.42056 0.21087 0.30979 0.0
H21 H 0.1207 0.18217 0.32119 0.0
H22 H 0.40123 0.2691 0.3237 0.0
H23 H 0.12776 0.24881 0.309 0.0
O24 O 0.32675 0.08272 0.31563 0.0
H25 H 0.1588 0.9588 0.33074 0.0
H26 H 0.29332 0.94723 0.30718 0.0
H27 H 0.27995 0.89049 0.32164 0.0
H28 H 0.21224 0.89602 0.33353 0.0
H29 H 0.17375 0.01515 0.31627 0.0
H30 H 0.21003 0.88934 0.27832 0.0
H31 H 0.27703 0.89439 0.26617 0.0
O32 O 0.31055 0.02817 0.30349 0.0
C33 C 0.2781 0.11323 0.28876 0.0
C34 C 0.30096 0.95517 0.27373 0.0
C35 C 0.23349 0.91676 0.27926 0.0
N36 N 0.256 0.98421 0.28857 0.0
C37 C 0.29275 0.98742 0.28187 0.0
C38 C 0.22638 0.94961 0.28731 0.0
C39 C 0.2711 0.91961 0.27244 0.0
C40 C 0.18803 0.1595 0.31795 0.0
N41 N 0.22715 0.16728 0.31239 0.0
C42 C 0.15169 0.18863 0.31682 0.0
C43 C 0.15565 0.22596 0.30996 0.0
C44 C 0.1957 0.2337 0.30433 0.0
C45 C 0.2313 0.20381 0.30565 0.0
C46 C 0.33671 0.24038 0.32732 0.0
C47 C 0.35804 0.17553 0.31179 0.0
C48 C 0.30693 0.20563 0.32486 0.0
N49 N 0.31769 0.17393 0.31713 0.0
C50 C 0.38866 0.20976 0.31405 0.0
C51 C 0.37782 0.24239 0.32186 0.0
C52 C 0.33695 0.04737 0.31029 0.0
C53 C 0.18835 0.95595 0.32559 0.0
C54 C 0.26389 0.95002 0.31236 0.0
C55 C 0.25642 0.91769 0.32051 0.0
C56 C 0.21839 0.92078 0.32717 0.0
N57 N 0.23429 0.98445 0.31087 0.0
C58 C 0.19687 0.98763 0.31735 0.0
Co59 Co 0.88185 0.77058 0.56334 0.0
Co60 Co 0.97997 0.74164 0.54971 0.0
O61 O 0.93193 0.72991 0.56038 0.0
C62 C 0.92636 0.75833 0.58496 0.0
O63 O 0.9647 0.75935 0.57965 0.0
C64 C 0.94099 0.65479 0.5431 0.0
O65 O 0.90119 0.67117 0.54531 0.0
O66 O 0.93624 0.76051 0.53819 0.0
O67 O 0.87328 0.78097 0.54709 0.0
H68 H 0.06244 0.8317 0.52107 0.0
H69 H 0.88211 0.67985 0.57327 0.0
O70 O 0.88948 0.76167 0.5797 0.0
H71 H 0.74577 0.68585 0.55023 0.0
H72 H 0.74196 0.82046 0.58312 0.0
H73 H 0.85276 0.85814 0.55428 0.0
H74 H 0.79571 0.75152 0.55168 0.0
H75 H 0.80475 0.76926 0.57905 0.0
O76 O 0.97598 0.67869 0.54424 0.0
H77 H 0.00242 0.81668 0.53461 0.0
H78 H 0.05969 0.68992 0.54203 0.0
H79 H 0.79029 0.91013 0.55802 0.0
H80 H 0.83295 0.61349 0.57213 0.0
H81 H 0.73435 0.89139 0.57253 0.0
H82 H 0.76429 0.61621 0.56052 0.0
O83 O 0.92277 0.82309 0.56426 0.0
H84 H 0.04015 0.64025 0.5794 0.0
H85 H 0.06468 0.78057 0.5587 0.0
H86 H 0.11828 0.75854 0.57326 0.0
H87 H 0.10618 0.68791 0.58372 0.0
H88 H 0.98718 0.66373 0.56485 0.0
H89 H 0.12015 0.7034 0.5285 0.0
H90 H 0.12187 0.7748 0.51794 0.0
O91 O 0.98518 0.80451 0.55494 0.0
C92 C 0.89636 0.77592 0.53827 0.0
C93 C 0.06214 0.80052 0.52564 0.0
C94 C 0.09449 0.72848 0.5298 0.0
N95 N 0.02775 0.75263 0.53916 0.0
C96 C 0.02831 0.79188 0.53334 0.0
C97 C 0.06013 0.721 0.53744 0.0
C98 C 0.09545 0.76856 0.52388 0.0
C99 C 0.85206 0.68141 0.56829 0.0
N100 N 0.84172 0.71952 0.56257 0.0
C101 C 0.82445 0.64368 0.56764 0.0
C102 C 0.78598 0.6452 0.56111 0.0
C103 C 0.77559 0.68425 0.55532 0.0
C104 C 0.80405 0.72129 0.55614 0.0
C105 C 0.76606 0.82894 0.57676 0.0
C106 C 0.82835 0.84961 0.56055 0.0
C107 C 0.80171 0.80013 0.57443 0.0
N108 N 0.83213 0.81054 0.56637 0.0
C109 C 0.79314 0.87924 0.56266 0.0
C110 C 0.7618 0.86873 0.57081 0.0
C111 C 0.96175 0.83203 0.56054 0.0
C112 C 0.04587 0.67103 0.57488 0.0
C113 C 0.05914 0.74982 0.56322 0.0
C114 C 0.08965 0.73748 0.57145 0.0
C115 C 0.08287 0.69782 0.57731 0.0
N116 N 0.02295 0.72334 0.56088 0.0
C117 C 0.0161 0.68439 0.56659 0.0
Co118 Co 0.22853 0.36833 0.81422 0.0
Co119 Co 0.24657 0.46963 0.80088 0.0
O120 O 0.26271 0.42357 0.81172 0.0
C121 C 0.23217 0.41318 0.83602 0.0
O122 O 0.22647 0.4512 0.83077 0.0
C123 C 0.33982 0.44532 0.79544 0.0
O124 O 0.32968 0.40328 0.79743 0.0
O125 O 0.23766 0.42382 0.78913 0.0
O126 O 0.22151 0.3592 0.79785 0.0
H127 H 0.1525 0.53773 0.77076 0.0
H128 H 0.31697 0.38011 0.825 0.0
O129 O 0.23419 0.37635 0.8307 0.0
H130 H 0.33243 0.24571 0.80153 0.0
H131 H 0.19529 0.22199 0.83327 0.0
H132 H 0.14698 0.32805 0.80433 0.0
H133 H 0.26054 0.2863 0.80251 0.0
H134 H 0.23801 0.29141 0.8298 0.0
O135 O 0.31047 0.4759 0.79639 0.0
H136 H 0.17312 0.48043 0.78456 0.0
H137 H 0.287 0.55687 0.79404 0.0
H138 H 0.10349 0.25885 0.80745 0.0
H139 H 0.3894 0.34035 0.82434 0.0
H140 H 0.1276 0.20527 0.82201 0.0
H141 H 0.39749 0.27271 0.81251 0.0
O142 O 0.1708 0.40171 0.81473 0.0
H143 H 0.32968 0.54411 0.83206 0.0
H144 H 0.19268 0.54686 0.80921 0.0
H145 H 0.20238 0.6028 0.82406 0.0
H146 H 0.2713 0.60166 0.8356 0.0
H147 H 0.31845 0.48855 0.81719 0.0
H148 H 0.26781 0.61484 0.78029 0.0
H149 H 0.20003 0.60554 0.76856 0.0
O150 O 0.18258 0.4648 0.80505 0.0
C151 C 0.22641 0.38256 0.78907 0.0
C152 C 0.18204 0.54225 0.77585 0.0
C153 C 0.24679 0.58549 0.78119 0.0
N154 N 0.23101 0.51545 0.79016 0.0
C155 C 0.19382 0.50997 0.78369 0.0
C156 C 0.25753 0.55251 0.78895 0.0
C157 C 0.20874 0.58026 0.77461 0.0
C158 C 0.32012 0.35044 0.81992 0.0
N159 N 0.28456 0.33546 0.81382 0.0
C160 C 0.36126 0.32818 0.81954 0.0
C161 C 0.3658 0.29028 0.81289 0.0
C162 C 0.32932 0.27514 0.80672 0.0
C163 C 0.28873 0.29832 0.80728 0.0
C164 C 0.1845 0.24503 0.82688 0.0
C165 C 0.15784 0.30474 0.81063 0.0
C166 C 0.2085 0.28442 0.8249 0.0
N167 N 0.19518 0.31354 0.81681 0.0
C168 C 0.13301 0.26568 0.81238 0.0
C169 C 0.14653 0.23566 0.82056 0.0
C170 C 0.15734 0.43842 0.81049 0.0
C171 C 0.29958 0.54505 0.82706 0.0
C172 C 0.22273 0.54609 0.81421 0.0
C173 C 0.22807 0.57791 0.82259 0.0
C174 C 0.26677 0.57728 0.82906 0.0
N175 N 0.25507 0.51459 0.8123 0.0
C176 C 0.29314 0.51382 0.81859 0.0
Co177 Co 0.62022 0.72605 0.06367 0.0
Co178 Co 0.51983 0.74876 0.05045 0.0
O179 O 0.56735 0.76311 0.06101 0.0
C180 C 0.57738 0.7301 0.08571 0.0
O181 O 0.54013 0.71754 0.08083 0.0
C182 C 0.55272 0.83761 0.04379 0.0
O183 O 0.59358 0.82309 0.04558 0.0
O184 O 0.56405 0.73373 0.03871 0.0
O185 O 0.62829 0.71562 0.04737 0.0
H186 H 0.44207 0.655 0.02169 0.0
H187 H 0.61475 0.81688 0.07354 0.0
O188 O 0.61302 0.73583 0.08005 0.0
H189 H 0.74909 0.81941 0.04976 0.0
H190 H 0.76466 0.68681 0.08289 0.0
H191 H 0.65482 0.64047 0.05459 0.0
H192 H 0.70377 0.75062 0.05152 0.0
H193 H 0.69803 0.73323 0.07906 0.0
O194 O 0.51911 0.81211 0.04527 0.0
H195 H 0.50169 0.67326 0.03511 0.0
H196 H 0.43628 0.79526 0.04327 0.0
H197 H 0.72114 0.59322 0.0581 0.0
H198 H 0.65931 0.8863 0.07209 0.0
H199 H 0.77662 0.61634 0.07234 0.0
H200 H 0.72693 0.88788 0.0601 0.0
O201 O 0.58304 0.67059 0.0647 0.0
H202 H 0.45482 0.8429 0.08098 0.0
H203 H 0.43854 0.70331 0.05946 0.0
H204 H 0.38446 0.72024 0.07433 0.0
H205 H 0.39239 0.79051 0.0852 0.0
H206 H 0.50836 0.82449 0.0661 0.0
H207 H 0.3761 0.7785 0.02988 0.0
H208 H 0.37869 0.70785 0.01901 0.0
O209 O 0.51962 0.68552 0.05537 0.0
C210 C 0.60452 0.71998 0.03863 0.0
C211 C 0.44049 0.68583 0.0264 0.0
C212 C 0.4035 0.75518 0.03099 0.0
N213 N 0.4723 0.73512 0.04002 0.0
C214 C 0.47409 0.69629 0.03403 0.0
C215 C 0.43772 0.76453 0.03854 0.0
C216 C 0.40497 0.71552 0.02489 0.0
C217 C 0.64439 0.81719 0.06839 0.0
N218 N 0.65671 0.77972 0.06264 0.0
C219 C 0.66938 0.85664 0.06757 0.0
C220 C 0.70727 0.85753 0.06082 0.0
C221 C 0.7197 0.81914 0.05501 0.0
C222 C 0.69384 0.78031 0.05601 0.0
C223 C 0.74078 0.67643 0.07665 0.0
C224 C 0.67898 0.65089 0.06075 0.0
C225 C 0.70296 0.70253 0.07446 0.0
N226 N 0.6728 0.68973 0.06654 0.0
C227 C 0.71639 0.62394 0.06272 0.0
C228 C 0.74747 0.6369 0.07072 0.0
C229 C 0.54482 0.65925 0.06086 0.0
C230 C 0.45093 0.81225 0.07628 0.0
C231 C 0.44225 0.73393 0.06417 0.0
C232 C 0.41149 0.74336 0.07256 0.0
C233 C 0.41595 0.78281 0.07865 0.0
N234 N 0.47641 0.76304 0.06187 0.0
C235 C 0.48104 0.80173 0.06782 0.0
Co236 Co 0.2657 0.37316 0.94116 0.0
Co237 Co 0.24497 0.4742 0.95436 0.0
O238 O 0.22928 0.42666 0.94388 0.0
C239 C 0.25641 0.41639 0.91927 0.0
O240 O 0.26082 0.45501 0.92434 0.0
C241 C 0.15543 0.4446 0.96172 0.0
O242 O 0.16927 0.40304 0.9607 0.0
O243 O 0.25866 0.42975 0.96616 0.0
O244 O 0.2758 0.36532 0.95745 0.0
H245 H 0.34017 0.54945 0.98324 0.0
H246 H 0.17484 0.38035 0.93145 0.0
O247 O 0.25696 0.37989 0.92474 0.0
H248 H 0.17017 0.24625 0.95527 0.0
H249 H 0.30298 0.22764 0.92218 0.0
H250 H 0.35073 0.33762 0.95031 0.0
H251 H 0.23992 0.28997 0.95331 0.0
H252 H 0.25744 0.29497 0.92591 0.0
O253 O 0.18159 0.47702 0.9595 0.0
H254 H 0.32032 0.49006 0.9699 0.0
H255 H 0.20119 0.55963 0.96127 0.0
H256 H 0.39708 0.27056 0.94692 0.0
H257 H 0.10442 0.33747 0.9331 0.0
H258 H 0.37326 0.21502 0.93276 0.0
H259 H 0.10176 0.26998 0.94512 0.0
O260 O 0.32159 0.40941 0.93997 0.0
H261 H 0.15221 0.54193 0.92394 0.0
H262 H 0.29308 0.55356 0.94513 0.0
H263 H 0.27767 0.6078 0.93021 0.0
H264 H 0.20678 0.60219 0.9195 0.0
H265 H 0.16914 0.48813 0.93887 0.0
H266 H 0.21955 0.61961 0.97458 0.0
H267 H 0.28958 0.61482 0.98565 0.0
O268 O 0.30838 0.47264 0.94951 0.0
C269 C 0.27161 0.38901 0.96621 0.0
C270 C 0.30963 0.552 0.97844 0.0
C271 C 0.2419 0.59135 0.97359 0.0
N272 N 0.25984 0.52156 0.96475 0.0
C273 C 0.29828 0.51854 0.97085 0.0
C274 C 0.23164 0.55724 0.96608 0.0
C275 C 0.28121 0.58864 0.9798 0.0
C276 C 0.17403 0.35078 0.93661 0.0
N277 N 0.21145 0.3376 0.94225 0.0
C278 C 0.13403 0.32673 0.93755 0.0
C279 C 0.13255 0.28891 0.9443 0.0
C280 C 0.1709 0.2756 0.95001 0.0
C281 C 0.21028 0.30054 0.94889 0.0
C282 C 0.31366 0.25155 0.92838 0.0
C283 C 0.34 0.31343 0.94419 0.0
C284 C 0.28807 0.28977 0.93052 0.0
N285 N 0.30126 0.31997 0.93838 0.0
C286 C 0.36645 0.2756 0.94228 0.0
C287 C 0.35308 0.24448 0.93432 0.0
C288 C 0.33394 0.44709 0.94392 0.0
C289 C 0.18314 0.54481 0.92857 0.0
C290 C 0.2622 0.55083 0.94049 0.0
C291 C 0.25361 0.58171 0.93207 0.0
C292 C 0.21382 0.57856 0.92607 0.0
N293 N 0.23194 0.51782 0.9429 0.0
C294 C 0.19281 0.51458 0.93707 0.0
Co295 Co 0.62626 0.7684 0.19073 0.0
Co296 Co 0.5251 0.74917 0.20391 0.0
O297 O 0.57161 0.73371 0.1932 0.0
C298 C 0.58258 0.76887 0.16878 0.0
O299 O 0.54629 0.78288 0.17385 0.0
C300 C 0.55293 0.65794 0.20986 0.0
O301 O 0.59456 0.67035 0.20816 0.0
O302 O 0.57027 0.76013 0.2157 0.0
O303 O 0.63508 0.77661 0.20709 0.0
H304 H 0.45317 0.84305 0.23354 0.0
H305 H 0.61602 0.67911 0.18024 0.0
O306 O 0.61814 0.7608 0.17429 0.0
H307 H 0.7503 0.66719 0.20386 0.0
H308 H 0.77215 0.80244 0.17156 0.0
H309 H 0.66552 0.85101 0.20036 0.0
H310 H 0.70853 0.73832 0.20263 0.0
H311 H 0.70323 0.75909 0.17517 0.0
O312 O 0.52083 0.6854 0.20857 0.0
H313 H 0.51149 0.82339 0.2199 0.0
H314 H 0.43911 0.70641 0.2108 0.0
H315 H 0.73419 0.89516 0.19708 0.0
H316 H 0.65698 0.60743 0.18116 0.0
H317 H 0.78806 0.87091 0.18259 0.0
H318 H 0.72457 0.60112 0.19307 0.0
O319 O 0.59203 0.82581 0.19012 0.0
H320 H 0.45468 0.66304 0.17266 0.0
H321 H 0.44632 0.80016 0.19538 0.0
H322 H 0.3913 0.78832 0.18042 0.0
H323 H 0.39524 0.71931 0.16895 0.0
H324 H 0.50925 0.67639 0.18765 0.0
H325 H 0.38016 0.72461 0.2244 0.0
H326 H 0.38691 0.79346 0.23585 0.0
O327 O 0.52838 0.81285 0.19953 0.0
C328 C 0.61133 0.77208 0.21582 0.0
C329 C 0.44977 0.81303 0.22857 0.0
C330 C 0.40883 0.74652 0.22345 0.0
N331 N 0.47855 0.76397 0.21451 0.0
C332 C 0.48263 0.80178 0.22082 0.0
C333 C 0.44236 0.73634 0.21578 0.0
C334 C 0.41263 0.78517 0.22987 0.0
C335 C 0.64565 0.67674 0.18535 0.0
N336 N 0.65994 0.71289 0.19135 0.0
C337 C 0.66861 0.63602 0.18587 0.0
C338 C 0.70647 0.63248 0.19257 0.0
C339 C 0.7209 0.66952 0.19864 0.0
C340 C 0.69705 0.70968 0.19794 0.0
C341 C 0.74898 0.81329 0.17791 0.0
C342 C 0.68896 0.8401 0.19409 0.0
C343 C 0.70987 0.78894 0.17997 0.0
N344 N 0.6806 0.80233 0.18803 0.0
C345 C 0.72771 0.8653 0.19225 0.0
C346 C 0.7579 0.8517 0.18411 0.0
C347 C 0.55465 0.83854 0.19419 0.0
C348 C 0.45253 0.69317 0.17763 0.0
C349 C 0.44829 0.77007 0.19042 0.0
C350 C 0.417 0.76352 0.18197 0.0
C351 C 0.41922 0.72479 0.17554 0.0
N352 N 0.4808 0.73885 0.19243 0.0
C353 C 0.48322 0.70083 0.18615 0.0
Co354 Co 0.22222 0.1287 0.44067 0.0
Co355 Co 0.24737 0.02727 0.45309 0.0
O356 O 0.26018 0.07605 0.44278 0.0
C357 C 0.22808 0.08652 0.41869 0.0
O358 O 0.22295 0.04807 0.42378 0.0
C359 C 0.3308 0.02465 0.46633 0.0
O360 O 0.30601 0.02644 0.47531 0.0
O361 O 0.23639 0.07089 0.46529 0.0
O362 O 0.21464 0.13505 0.45708 0.0
H363 H 0.16172 0.94884 0.48322 0.0
H364 H 0.3117 0.12461 0.43008 0.0
O365 O 0.22878 0.12303 0.42417 0.0
H366 H 0.3158 0.2583 0.45409 0.0
H367 H 0.17802 0.27416 0.42262 0.0
H368 H 0.13806 0.16162 0.45084 0.0
H369 H 0.24752 0.21191 0.45287 0.0
H370 H 0.22581 0.2078 0.42561 0.0
O371 O 0.31254 0.0258 0.4568 0.0
H372 H 0.17775 0.0099 0.47004 0.0
H373 H 0.29194 0.93987 0.45816 0.0
H374 H 0.08953 0.22767 0.4482 0.0
H375 H 0.3806 0.17027 0.43097 0.0
H376 H 0.10943 0.28449 0.434 0.0
H377 H 0.38294 0.23762 0.44305 0.0
O378 O 0.16722 0.09113 0.43983 0.0
H379 H 0.33215 0.96368 0.42071 0.0
H380 H 0.19727 0.94863 0.44403 0.0
H381 H 0.20891 0.89634 0.42849 0.0
H382 H 0.27678 0.90364 0.41671 0.0
H383 H 0.31898 0.01562 0.43625 0.0
H384 H 0.27718 0.87804 0.47122 0.0
H385 H 0.21165 0.8823 0.48386 0.0
O386 O 0.18254 0.02835 0.44936 0.0
C387 C 0.22202 0.11118 0.46568 0.0
C388 C 0.19037 0.94657 0.47774 0.0
C389 C 0.25516 0.90684 0.47101 0.0
N390 N 0.23568 0.97844 0.46333 0.0
C391 C 0.1996 0.98103 0.47026 0.0
C392 C 0.26334 0.94193 0.46363 0.0
C393 C 0.21839 0.90925 0.4781 0.0
C394 C 0.31241 0.15401 0.43531 0.0
N395 N 0.27563 0.16565 0.4414 0.0
C396 C 0.35154 0.17967 0.4358 0.0
C397 C 0.35285 0.21742 0.44259 0.0
C398 C 0.3152 0.22903 0.4488 0.0
C399 C 0.27668 0.20255 0.44811 0.0
C400 C 0.16904 0.24968 0.42885 0.0
C401 C 0.14709 0.18638 0.4447 0.0
C402 C 0.19592 0.212 0.43056 0.0
N403 N 0.18489 0.1811 0.43846 0.0
C404 C 0.11941 0.22363 0.44322 0.0
C405 C 0.13057 0.25547 0.43524 0.0
C406 C 0.15592 0.05344 0.44394 0.0
C407 C 0.30255 0.96003 0.42582 0.0
C408 C 0.22685 0.95213 0.43893 0.0
C409 C 0.23331 0.92233 0.43016 0.0
C410 C 0.27142 0.92641 0.42356 0.0
N411 N 0.25757 0.98501 0.44111 0.0
C412 C 0.29504 0.98918 0.43468 0.0
Co413 Co 0.8836 0.7177 0.68974 0.0
Co414 Co 0.97631 0.75628 0.70403 0.0
O415 O 0.92944 0.76316 0.6928 0.0
C416 C 0.92642 0.73469 0.66816 0.0
O417 O 0.96482 0.73536 0.67345 0.0
C418 C 0.93441 0.84374 0.70889 0.0
O419 O 0.89515 0.82617 0.70662 0.0
O420 O 0.93101 0.74033 0.71541 0.0
O421 O 0.87655 0.7047 0.70595 0.0
H422 H 0.05619 0.67817 0.73514 0.0
H423 H 0.87328 0.80819 0.68 0.0
O424 O 0.88988 0.72872 0.67342 0.0
H425 H 0.74019 0.78662 0.70362 0.0
H426 H 0.74902 0.65512 0.66987 0.0
H427 H 0.86442 0.62649 0.69823 0.0
H428 H 0.79698 0.72699 0.70189 0.0
H429 H 0.80614 0.71237 0.67419 0.0
O430 O 0.96997 0.82048 0.70825 0.0
H431 H 0.99789 0.68719 0.72082 0.0
H432 H 0.05364 0.81246 0.71136 0.0
H433 H 0.80777 0.56844 0.69424 0.0
H434 H 0.81711 0.86856 0.68142 0.0
H435 H 0.74953 0.58261 0.67996 0.0
H436 H 0.75005 0.85799 0.69332 0.0
O437 O 0.92965 0.67025 0.68855 0.0
H438 H 0.03877 0.85017 0.67315 0.0
H439 H 0.06343 0.71716 0.69659 0.0
H440 H 0.11873 0.73632 0.68217 0.0
H441 H 0.10659 0.80329 0.67034 0.0
H442 H 0.98406 0.82951 0.68758 0.0
H443 H 0.11229 0.805 0.72564 0.0
H444 H 0.11392 0.73736 0.73761 0.0
O445 O 0.98438 0.69181 0.70013 0.0
C446 C 0.89507 0.71734 0.71496 0.0
C447 C 0.05592 0.70772 0.72995 0.0
C448 C 0.08738 0.77893 0.72462 0.0
N449 N 0.02262 0.7501 0.7152 0.0
C450 C 0.02308 0.71295 0.72181 0.0
C451 C 0.05404 0.78301 0.71656 0.0
C452 C 0.08828 0.74097 0.73134 0.0
C453 C 0.84394 0.80318 0.6851 0.0
N454 N 0.83833 0.76408 0.69082 0.0
C455 C 0.81236 0.83755 0.68591 0.0
C456 C 0.77478 0.83163 0.69261 0.0
C457 C 0.76926 0.79161 0.6984 0.0
C458 C 0.80159 0.75802 0.69741 0.0
C459 C 0.77414 0.64861 0.67613 0.0
C460 C 0.83896 0.63303 0.69207 0.0
C461 C 0.80658 0.68087 0.6786 0.0
N462 N 0.83827 0.67294 0.68654 0.0
C463 C 0.80707 0.59998 0.68982 0.0
C464 C 0.77444 0.60793 0.6818 0.0
C465 C 0.96638 0.66334 0.69363 0.0
C466 C 0.0445 0.82099 0.67827 0.0
C467 C 0.0578 0.74625 0.69145 0.0
C468 C 0.08931 0.75701 0.68332 0.0
C469 C 0.0825 0.79462 0.67669 0.0
N470 N 0.02058 0.77226 0.69294 0.0
C471 C 0.01375 0.80925 0.68649 0.0
Co472 Co 0.77716 0.61819 0.8133 0.0
Co473 Co 0.74658 0.52242 0.79921 0.0
O474 O 0.73504 0.56916 0.81026 0.0
C475 C 0.75877 0.5781 0.83515 0.0
O476 O 0.76115 0.53885 0.8303 0.0
C477 C 0.65533 0.55473 0.79412 0.0
O478 O 0.66878 0.5958 0.79613 0.0
O479 O 0.75799 0.56849 0.78772 0.0
O480 O 0.7926 0.62358 0.79716 0.0
H481 H 0.83226 0.44927 0.7683 0.0
H482 H 0.68463 0.62469 0.82203 0.0
O483 O 0.76371 0.61395 0.82955 0.0
H484 H 0.70259 0.75504 0.79734 0.0
H485 H 0.82838 0.75928 0.83239 0.0
H486 H 0.86853 0.64139 0.80553 0.0
H487 H 0.76502 0.70215 0.80021 0.0
H488 H 0.77531 0.69824 0.8281 0.0
O489 O 0.68213 0.52187 0.79498 0.0
H490 H 0.8174 0.50709 0.78243 0.0
H491 H 0.69858 0.43928 0.7922 0.0
H492 H 0.92248 0.70197 0.80952 0.0
H493 H 0.62147 0.67701 0.81949 0.0
H494 H 0.90251 0.76147 0.82303 0.0
H495 H 0.63022 0.74267 0.80704 0.0
O496 O 0.82686 0.57513 0.81542 0.0
H497 H 0.65894 0.45226 0.83022 0.0
H498 H 0.7943 0.44019 0.80697 0.0
H499 H 0.78057 0.38393 0.82153 0.0
H500 H 0.71243 0.38971 0.83326 0.0
H501 H 0.67426 0.50813 0.81566 0.0
H502 H 0.71194 0.38095 0.7781 0.0
H503 H 0.7793 0.38563 0.76606 0.0
O504 O 0.81153 0.52098 0.80311 0.0
C505 C 0.78033 0.60482 0.78815 0.0
C506 C 0.80288 0.44677 0.77352 0.0
C507 C 0.73532 0.40846 0.77901 0.0
N508 N 0.75741 0.47634 0.7882 0.0
C509 C 0.79435 0.47934 0.78155 0.0
C510 C 0.72789 0.44163 0.78696 0.0
C511 C 0.77312 0.4111 0.77226 0.0
C512 C 0.68882 0.65346 0.8167 0.0
N513 N 0.72848 0.66044 0.81131 0.0
C514 C 0.65289 0.68285 0.81525 0.0
C515 C 0.65779 0.71963 0.80824 0.0
C516 C 0.69838 0.72656 0.80279 0.0
C517 C 0.73356 0.69642 0.80442 0.0
C518 C 0.83742 0.73362 0.82646 0.0
C519 C 0.85947 0.66736 0.81136 0.0
C520 C 0.80753 0.69895 0.82401 0.0
N521 N 0.81866 0.66656 0.81649 0.0
C522 C 0.89021 0.70148 0.81361 0.0
C523 C 0.879 0.73483 0.82121 0.0
C524 C 0.83745 0.53994 0.81007 0.0
C525 C 0.68868 0.4493 0.82514 0.0
C526 C 0.76469 0.4431 0.81207 0.0
C527 C 0.75702 0.41104 0.82028 0.0
C528 C 0.71875 0.41427 0.82685 0.0
N529 N 0.73506 0.4774 0.81045 0.0
C530 C 0.69741 0.48071 0.81684 0.0
Co531 Co 0.38125 0.26516 0.06324 0.0
Co532 Co 0.48227 0.24972 0.04972 0.0
O533 O 0.43699 0.23257 0.0606 0.0
C534 C 0.42517 0.26646 0.08514 0.0
O535 O 0.46088 0.28199 0.08008 0.0
C536 C 0.45769 0.15738 0.04397 0.0
O537 O 0.41573 0.16882 0.04556 0.0
O538 O 0.43611 0.25825 0.03805 0.0
O539 O 0.37178 0.27393 0.04694 0.0
H540 H 0.54836 0.345 0.01955 0.0
H541 H 0.39454 0.17584 0.07347 0.0
O542 O 0.38991 0.25714 0.07963 0.0
H543 H 0.26044 0.16031 0.04989 0.0
H544 H 0.23457 0.29306 0.08265 0.0
H545 H 0.33908 0.34685 0.05393 0.0
H546 H 0.29984 0.23278 0.05131 0.0
H547 H 0.30492 0.25242 0.07885 0.0
O548 O 0.48901 0.18586 0.04519 0.0
H549 H 0.49162 0.3234 0.03341 0.0
H550 H 0.56984 0.21071 0.04274 0.0
H551 H 0.26893 0.38829 0.05739 0.0
H552 H 0.35595 0.10284 0.07237 0.0
H553 H 0.21612 0.36141 0.07184 0.0
H554 H 0.28848 0.0947 0.06048 0.0
O555 O 0.41368 0.32354 0.06399 0.0
H556 H 0.5579 0.16825 0.08095 0.0
H557 H 0.55895 0.3047 0.05792 0.0
H558 H 0.61506 0.2961 0.07277 0.0
H559 H 0.61479 0.22746 0.0844 0.0
H560 H 0.50217 0.17837 0.06607 0.0
H561 H 0.62731 0.23088 0.02892 0.0
H562 H 0.61682 0.29856 0.01724 0.0
O563 O 0.47643 0.31356 0.05398 0.0
C564 C 0.39491 0.26965 0.0381 0.0
C565 C 0.55341 0.31552 0.02462 0.0
C566 C 0.59768 0.25144 0.02987 0.0
N567 N 0.52761 0.26609 0.03894 0.0
C568 C 0.52146 0.30321 0.0325 0.0
C569 C 0.56499 0.24014 0.03767 0.0
C570 C 0.59178 0.28943 0.02332 0.0
C571 C 0.36493 0.17267 0.06837 0.0
N572 N 0.34938 0.20856 0.06249 0.0
C573 C 0.34333 0.13121 0.06774 0.0
C574 C 0.30552 0.12665 0.06105 0.0
C575 C 0.2898 0.16344 0.0551 0.0
C576 C 0.31232 0.20436 0.05591 0.0
C577 C 0.25727 0.30505 0.07631 0.0
C578 C 0.31612 0.33479 0.06019 0.0
C579 C 0.29718 0.28224 0.07415 0.0
N580 N 0.32587 0.29706 0.06612 0.0
C581 C 0.27653 0.35847 0.06213 0.0
C582 C 0.24693 0.34339 0.07024 0.0
C583 C 0.44989 0.33792 0.05963 0.0
C584 C 0.55845 0.19824 0.07592 0.0
C585 C 0.55859 0.27474 0.06295 0.0
C586 C 0.59049 0.27003 0.07134 0.0
C587 C 0.59033 0.2315 0.07786 0.0
N588 N 0.52751 0.24191 0.06109 0.0
C589 C 0.5271 0.20407 0.06745 0.0
Co590 Co 0.72706 0.8731 0.31397 0.0
Co591 Co 0.74569 0.97522 0.30108 0.0
O592 O 0.76145 0.92841 0.31175 0.0
C593 C 0.73022 0.91647 0.33594 0.0
O594 O 0.72404 0.95467 0.3308 0.0
C595 C 0.83924 0.9516 0.29579 0.0
O596 O 0.82925 0.90938 0.29756 0.0
O597 O 0.73746 0.93024 0.28912 0.0
O598 O 0.72026 0.86524 0.29755 0.0
H599 H 0.65304 0.04516 0.27096 0.0
H600 H 0.81537 0.88371 0.32489 0.0
O601 O 0.73257 0.87994 0.33049 0.0
H602 H 0.83073 0.75108 0.30082 0.0
H603 H 0.69313 0.72548 0.33233 0.0
H604 H 0.64559 0.83374 0.30381 0.0
H605 H 0.759 0.79191 0.30189 0.0
H606 H 0.73605 0.79506 0.32922 0.0
O607 O 0.80974 0.98198 0.29681 0.0
H608 H 0.67312 0.98694 0.28457 0.0
H609 H 0.78614 0.0631 0.29478 0.0
H610 H 0.60191 0.7644 0.30657 0.0
H611 H 0.88764 0.84369 0.32414 0.0
H612 H 0.62564 0.70971 0.32092 0.0
H613 H 0.89567 0.77694 0.312 0.0
O614 O 0.66941 0.9066 0.31458 0.0
H615 H 0.82702 0.04743 0.33287 0.0
H616 H 0.69121 0.0517 0.30961 0.0
H617 H 0.69998 0.10643 0.32477 0.0
H618 H 0.76829 0.10451 0.33652 0.0
H619 H 0.81673 0.99308 0.31769 0.0
H620 H 0.76749 0.122 0.28123 0.0
H621 H 0.70041 0.1133 0.26922 0.0
O622 O 0.68153 0.96997 0.30504 0.0
C623 C 0.7258 0.8891 0.28887 0.0
C624 C 0.68227 0.04942 0.27617 0.0
C625 C 0.74653 0.09251 0.28192 0.0
N626 N 0.73053 0.02178 0.29052 0.0
C627 C 0.69373 0.01662 0.28391 0.0
C628 C 0.75697 0.05901 0.28957 0.0
C629 C 0.70889 0.08762 0.27519 0.0
C630 C 0.8185 0.85443 0.31968 0.0
N631 N 0.78299 0.84008 0.31347 0.0
C632 C 0.85954 0.83202 0.31925 0.0
C633 C 0.86405 0.79462 0.31242 0.0
C634 C 0.82764 0.78012 0.30614 0.0
C635 C 0.78714 0.80344 0.30675 0.0
C636 C 0.68251 0.749 0.32603 0.0
C637 C 0.65628 0.80994 0.31002 0.0
C638 C 0.70662 0.78849 0.32426 0.0
N639 N 0.69352 0.81822 0.31628 0.0
C640 C 0.63135 0.77082 0.31157 0.0
C641 C 0.64465 0.74017 0.31963 0.0
C642 C 0.65611 0.94344 0.31038 0.0
C643 C 0.79719 0.04871 0.32778 0.0
C644 C 0.721 0.0506 0.3147 0.0
C645 C 0.72582 0.08174 0.32325 0.0
C646 C 0.76418 0.08067 0.32984 0.0
N647 N 0.75354 0.01935 0.31273 0.0
C648 C 0.79128 0.01817 0.31914 0.0
Co649 Co 0.1205 0.22934 0.56384 0.0
Co650 Co 0.01773 0.24115 0.55093 0.0
O651 O 0.06326 0.25977 0.5616 0.0
C652 C 0.0794 0.22736 0.5861 0.0
O653 O 0.04372 0.2101 0.58137 0.0
C654 C 0.03669 0.33518 0.54549 0.0
O655 O 0.07937 0.32577 0.5467 0.0
O656 O 0.06304 0.23595 0.53894 0.0
O657 O 0.12829 0.22063 0.54746 0.0
H658 H 0.95334 0.14499 0.52068 0.0
H659 H 0.10514 0.31829 0.57412 0.0
O660 O 0.11361 0.23744 0.58028 0.0
H661 H 0.23553 0.33845 0.54952 0.0
H662 H 0.27044 0.20733 0.58215 0.0
H663 H 0.16456 0.14915 0.55425 0.0
H664 H 0.19909 0.26457 0.55128 0.0
H665 H 0.19818 0.24523 0.57886 0.0
O666 O 0.00707 0.305 0.54681 0.0
H667 H 0.0104 0.16842 0.53428 0.0
H668 H 0.92749 0.27604 0.54474 0.0
H669 H 0.23661 0.11043 0.55721 0.0
H670 H 0.14079 0.39266 0.57269 0.0
H671 H 0.29011 0.13953 0.57124 0.0
H672 H 0.20637 0.40313 0.56029 0.0
O673 O 0.0904 0.16976 0.56483 0.0
H674 H 0.9414 0.31587 0.5831 0.0
H675 H 0.94501 0.1815 0.55931 0.0
H676 H 0.89019 0.18585 0.57456 0.0
H677 H 0.88813 0.25343 0.58657 0.0
H678 H 0.9959 0.30998 0.5678 0.0
H679 H 0.86964 0.25401 0.53119 0.0
H680 H 0.88233 0.18794 0.51907 0.0
O681 O 0.02742 0.17729 0.55478 0.0
C682 C 0.1044 0.22511 0.53875 0.0
C683 C 0.94733 0.17374 0.52594 0.0
C684 C 0.90039 0.23497 0.53183 0.0
N685 N 0.97212 0.22329 0.54036 0.0
C686 C 0.97946 0.18708 0.53368 0.0
C687 C 0.9333 0.24733 0.53947 0.0
C688 C 0.90753 0.19788 0.52503 0.0
C689 C 0.13396 0.32247 0.56879 0.0
N690 N 0.15009 0.2871 0.56281 0.0
C691 C 0.15389 0.3647 0.56798 0.0
C692 C 0.19063 0.37057 0.56101 0.0
C693 C 0.20697 0.3343 0.55495 0.0
C694 C 0.18613 0.29258 0.55596 0.0
C695 C 0.24744 0.19438 0.57599 0.0
C696 C 0.1878 0.16216 0.56033 0.0
C697 C 0.20645 0.21564 0.57411 0.0
N698 N 0.17737 0.1996 0.56631 0.0
C699 C 0.22848 0.14003 0.56198 0.0
C700 C 0.25847 0.15635 0.56987 0.0
C701 C 0.05504 0.15386 0.56035 0.0
C702 C 0.94186 0.28632 0.5779 0.0
C703 C 0.94433 0.21101 0.56451 0.0
C704 C 0.91318 0.21331 0.57312 0.0
C705 C 0.91203 0.25124 0.57985 0.0
N706 N 0.97342 0.2456 0.56263 0.0
C707 C 0.97252 0.28288 0.5692 0.0
Co708 Co 0.76825 0.87916 0.44116 0.0
Co709 Co 0.74543 0.98043 0.45405 0.0
O710 O 0.7305 0.9318 0.44381 0.0
C711 C 0.75663 0.92083 0.41914 0.0
O712 O 0.76004 0.95985 0.42407 0.0
C713 C 0.65707 0.94887 0.46184 0.0
O714 O 0.67186 0.9076 0.46092 0.0
O715 O 0.76114 0.93714 0.46596 0.0
O716 O 0.77927 0.87256 0.45744 0.0
H717 H 0.84027 0.06031 0.48223 0.0
H718 H 0.67678 0.88335 0.43168 0.0
O719 O 0.75861 0.88468 0.42474 0.0
H720 H 0.67686 0.75051 0.45595 0.0
H721 H 0.80865 0.7336 0.42258 0.0
H722 H 0.85462 0.84648 0.45019 0.0
H723 H 0.7453 0.79598 0.45365 0.0
H724 H 0.76145 0.79987 0.42621 0.0
O725 O 0.68231 0.98178 0.45941 0.0
H726 H 0.82133 -0.00048 0.4692 0.0
H727 H 0.69959 0.06496 0.46081 0.0
H728 H 0.90265 0.78053 0.4469 0.0
H729 H 0.60763 0.83868 0.43368 0.0
H730 H 0.87973 0.72353 0.433 0.0
H731 H 0.60737 0.77181 0.44592 0.0
O732 O 0.82311 0.91679 0.4397 0.0
H733 H 0.64886 0.04349 0.42374 0.0
H734 H 0.79063 0.06056 0.44433 0.0
H735 H 0.7727 0.11338 0.42927 0.0
H736 H 0.70135 0.10503 0.41886 0.0
H737 H 0.66829 0.99116 0.43879 0.0
H738 H 0.71704 0.1263 0.47382 0.0
H739 H 0.78792 0.1243 0.4846 0.0
O740 O 0.80856 0.98038 0.44896 0.0
C741 C 0.77507 0.89672 0.46612 0.0
C742 C 0.80935 0.06164 0.47755 0.0
C743 C 0.74016 0.09864 0.47284 0.0
N744 N 0.75957 0.02885 0.46419 0.0
C745 C 0.7985 0.02738 0.47014 0.0
C746 C 0.73041 0.06377 0.4655 0.0
C747 C 0.77994 0.09751 0.47889 0.0
C748 C 0.67701 0.85407 0.43694 0.0
N749 N 0.71503 0.84221 0.44252 0.0
C750 C 0.63772 0.829 0.43808 0.0
C751 C 0.63758 0.79152 0.44496 0.0
C752 C 0.67655 0.77957 0.4506 0.0
C753 C 0.71517 0.8055 0.44928 0.0
C754 C 0.81895 0.75815 0.42867 0.0
C755 C 0.84429 0.82165 0.44419 0.0
C756 C 0.79241 0.79578 0.43074 0.0
N757 N 0.80512 0.82679 0.43846 0.0
C758 C 0.87168 0.78446 0.44233 0.0
C759 C 0.85882 0.75252 0.43453 0.0
C760 C 0.8346 0.9551 0.44343 0.0
C761 C 0.67998 0.04756 0.42824 0.0
C762 C 0.75956 0.05664 0.43983 0.0
C763 C 0.74955 0.08671 0.43132 0.0
C764 C 0.70949 0.08204 0.42549 0.0
N765 N 0.73044 0.02291 0.44247 0.0
C766 C 0.69106 0.01817 0.43681 0.0
Co767 Co 0.12636 0.26569 0.69122 0.0
Co768 Co 0.02303 0.25757 0.70396 0.0
O769 O 0.0674 0.23831 0.6931 0.0
C770 C 0.08541 0.27348 0.66904 0.0
O771 O 0.05107 0.29234 0.67399 0.0
C772 C 0.03576 0.16165 0.70818 0.0
O773 O 0.07899 0.16891 0.70729 0.0
O774 O 0.06838 0.25719 0.71601 0.0
O775 O 0.13431 0.27136 0.70768 0.0
H776 H 0.96461 0.35111 0.73542 0.0
H777 H 0.10606 0.17949 0.68004 0.0
O778 O 0.11911 0.26059 0.6747 0.0
H779 H 0.23435 0.1479 0.70456 0.0
H780 H 0.2776 0.28183 0.67319 0.0
H781 H 0.17505 0.3415 0.70162 0.0
H782 H 0.20235 0.22397 0.70351 0.0
H783 H 0.20312 0.24777 0.67607 0.0
O784 O 0.00806 0.19375 0.7072 0.0
H785 H 0.02022 0.32701 0.72154 0.0
H786 H 0.93057 0.22734 0.70966 0.0
H787 H 0.24936 0.37632 0.69909 0.0
H788 H 0.13727 0.10303 0.68076 0.0
H789 H 0.30121 0.34646 0.68479 0.0
H790 H 0.20178 0.08681 0.69312 0.0
O791 O 0.09991 0.32702 0.69082 0.0
H792 H 0.94263 0.19531 0.67078 0.0
H793 H 0.95462 0.32362 0.69637 0.0
H794 H 0.90006 0.32633 0.68104 0.0
H795 H 0.89379 0.26183 0.66812 0.0
H796 H 0.99698 0.19415 0.68617 0.0
H797 H 0.87406 0.25015 0.72347 0.0
H798 H 0.89089 0.31257 0.73644 0.0
O799 O 0.03706 0.32141 0.70098 0.0
C800 C 0.11018 0.26616 0.71633 0.0
C801 C 0.95681 0.32398 0.72978 0.0
C802 C 0.90602 0.26726 0.72309 0.0
N803 N 0.97851 0.27607 0.71474 0.0
C804 C 0.98812 0.31027 0.72189 0.0
C805 C 0.93817 0.25445 0.7153 0.0
C806 C 0.91548 0.3023 0.73036 0.0
C807 C 0.13445 0.17281 0.68534 0.0
N808 N 0.15246 0.20619 0.69169 0.0
C809 C 0.15185 0.1294 0.68575 0.0
C810 C 0.18799 0.12031 0.69271 0.0
C811 C 0.20625 0.15456 0.69914 0.0
C812 C 0.18791 0.19754 0.69853 0.0
C813 C 0.25535 0.29509 0.67947 0.0
C814 C 0.19755 0.32815 0.69543 0.0
C815 C 0.21311 0.276 0.68112 0.0
N816 N 0.18495 0.29242 0.68907 0.0
C817 C 0.23952 0.34808 0.69401 0.0
C818 C 0.26857 0.33134 0.68598 0.0
C819 C 0.06588 0.34419 0.69561 0.0
C820 C 0.94493 0.22356 0.67638 0.0
C821 C 0.95209 0.29542 0.69078 0.0
C822 C 0.9211 0.29712 0.68213 0.0
C823 C 0.91759 0.26091 0.67488 0.0
N824 N 0.97874 0.25862 0.69221 0.0
C825 C 0.97551 0.223 0.68514 0.0
Co826 Co 0.71846 0.6249 0.94015 0.0
Co827 Co 0.747 0.52364 0.95222 0.0
O828 O 0.75818 0.57346 0.94211 0.0
C829 C 0.72525 0.58349 0.91811 0.0
O830 O 0.72136 0.54483 0.92317 0.0
C831 C 0.82988 0.52347 0.96565 0.0
O832 O 0.80463 0.52406 0.97456 0.0
O833 O 0.73398 0.56611 0.96455 0.0
O834 O 0.71112 0.63041 0.9566 0.0
H835 H 0.6636 0.44023 0.98192 0.0
H836 H 0.80776 0.62409 0.92942 0.0
O837 O 0.72484 0.61992 0.92362 0.0
H838 H 0.80809 0.75703 0.9537 0.0
H839 H 0.66912 0.76937 0.92244 0.0
H840 H 0.63356 0.65479 0.95052 0.0
H841 H 0.74136 0.70843 0.9525 0.0
H842 H 0.71912 0.70451 0.92524 0.0
O843 O 0.81204 0.52444 0.95607 0.0
H844 H 0.67762 0.50262 0.96899 0.0
H845 H 0.79476 0.43774 0.95707 0.0
H846 H 0.58285 0.71931 0.94807 0.0
H847 H 0.87513 0.672 0.93028 0.0
H848 H 0.60053 0.77715 0.93394 0.0
H849 H 0.87556 0.73898 0.94251 0.0
O850 O 0.66461 0.58567 0.93932 0.0
H851 H 0.83512 0.4654 0.91979 0.0
H852 H 0.7003 0.44362 0.9428 0.0
H853 H 0.71442 0.39279 0.92708 0.0
H854 H 0.78227 0.40348 0.91546 0.0
H855 H 0.81948 0.51581 0.93549 0.0
H856 H 0.78204 0.37464 0.96989 0.0
H857 H 0.71604 0.37564 0.98243 0.0
O858 O 0.68232 0.52242 0.94838 0.0
C859 C 0.71884 0.60608 0.9651 0.0
C860 C 0.69246 0.43939 0.97649 0.0
C861 C 0.75893 0.40257 0.96974 0.0
N862 N 0.7369 0.4738 0.96227 0.0
C863 C 0.70056 0.47461 0.96915 0.0
C864 C 0.76594 0.43838 0.9625 0.0
C865 C 0.7219 0.40316 0.97677 0.0
C866 C 0.80765 0.65332 0.93471 0.0
N867 N 0.77067 0.66353 0.94088 0.0
C868 C 0.84591 0.68025 0.93519 0.0
C869 C 0.84615 0.71781 0.94206 0.0
C870 C 0.80832 0.72794 0.94835 0.0
C871 C 0.77068 0.70021 0.94766 0.0
C872 C 0.66111 0.74444 0.92864 0.0
C873 C 0.64163 0.68001 0.94441 0.0
C874 C 0.68923 0.70761 0.93025 0.0
N875 N 0.67942 0.67613 0.9381 0.0
C876 C 0.61272 0.71638 0.94304 0.0
C877 C 0.62263 0.74879 0.9351 0.0
C878 C 0.65471 0.54716 0.94317 0.0
C879 C 0.80555 0.46026 0.92482 0.0
C880 C 0.72986 0.44859 0.93777 0.0
C881 C 0.73773 0.41961 0.92889 0.0
C882 C 0.77583 0.4256 0.92238 0.0
N883 N 0.7592 0.48251 0.94012 0.0
C884 C 0.79665 0.48855 0.93377 0.0
Co885 Co 0.38013 0.22503 0.18992 0.0
Co886 Co 0.47642 0.24812 0.20462 0.0
O887 O 0.43265 0.2621 0.1931 0.0
C888 C 0.4254 0.22995 0.16824 0.0
O889 O 0.46173 0.21622 0.17335 0.0
C890 C 0.44929 0.34083 0.20924 0.0
O891 O 0.4077 0.32877 0.20734 0.0
O892 O 0.42809 0.24124 0.21578 0.0
O893 O 0.37023 0.2127 0.2061 0.0
H894 H 0.53835 0.16028 0.23662 0.0
H895 H 0.38547 0.31642 0.18039 0.0
O896 O 0.38925 0.23618 0.17366 0.0
H897 H 0.24959 0.31639 0.20364 0.0
H898 H 0.23795 0.18692 0.16953 0.0
H899 H 0.34528 0.13806 0.19814 0.0
H900 H 0.29572 0.24819 0.20186 0.0
H901 H 0.30389 0.23333 0.17411 0.0
O902 O 0.48108 0.31272 0.20847 0.0
H903 H 0.48389 0.178 0.22189 0.0
H904 H 0.56186 0.29038 0.21212 0.0
H905 H 0.27964 0.09078 0.19388 0.0
H906 H 0.34008 0.38523 0.18184 0.0
H907 H 0.22541 0.11517 0.17949 0.0
H908 H 0.27167 0.38553 0.19356 0.0
O909 O 0.41778 0.17035 0.18887 0.0
H910 H 0.55603 0.32541 0.17334 0.0
H911 H 0.55605 0.19375 0.19801 0.0
H912 H 0.61472 0.20101 0.18374 0.0
H913 H 0.61498 0.26725 0.17129 0.0
H914 H 0.49774 0.31662 0.18766 0.0
H915 H 0.61697 0.27411 0.22681 0.0
H916 H 0.60547 0.20853 0.23915 0.0
O917 O 0.47317 0.18319 0.20105 0.0
C918 C 0.38947 0.22317 0.21519 0.0
C919 C 0.54382 0.18885 0.23127 0.0
C920 C 0.58792 0.25278 0.22577 0.0
N921 N 0.51993 0.23492 0.21609 0.0
C922 C 0.51318 0.19898 0.2229 0.0
C923 C 0.55656 0.26187 0.21748 0.0
C924 C 0.58145 0.21596 0.23269 0.0
C925 C 0.35548 0.31615 0.18541 0.0
N926 N 0.34317 0.2783 0.191 0.0
C927 C 0.33002 0.35527 0.18624 0.0
C928 C 0.29169 0.35544 0.19284 0.0
C929 C 0.27931 0.31667 0.1985 0.0
C930 C 0.30563 0.27819 0.19749 0.0
C931 C 0.26127 0.176 0.17584 0.0
C932 C 0.32166 0.14905 0.19192 0.0
C933 C 0.29869 0.2021 0.17846 0.0
N934 N 0.32812 0.18862 0.18646 0.0
C935 C 0.28463 0.12207 0.18952 0.0
C936 C 0.25425 0.13575 0.18143 0.0
C937 C 0.45197 0.15781 0.19438 0.0
C938 C 0.55635 0.29646 0.17874 0.0
C939 C 0.55588 0.22264 0.19261 0.0
C940 C 0.58924 0.2266 0.18456 0.0
C941 C 0.58938 0.26379 0.17758 0.0
N942 N 0.52363 0.25487 0.1937 0.0
C943 C 0.52354 0.2914 0.18689 0.0
C944 C 0.92096 0.94487 0.29942 0.0
C945 C 0.88569 0.96551 0.29376 0.0
C946 C 0.96451 0.96244 0.29882 0.0
C947 C 0.97287 0.00058 0.29214 0.0
C948 C 0.93764 0.02006 0.28597 0.0
C949 C 0.89423 0.00271 0.287 0.0
C950 C 0.00112 0.94137 0.30571 0.0
C951 C 0.9456 0.05976 0.27847 0.0
C952 C 0.07384 0.07151 0.29972 0.0
C953 C 0.10677 0.05255 0.29295 0.0
C954 C 0.02964 0.05547 0.29939 0.0
C955 C 0.01827 0.02076 0.29187 0.0
C956 C 0.05097 0.00368 0.28452 0.0
C957 C 0.09512 0.01925 0.2853 0.0
C958 C 0.99584 0.07377 0.30752 0.0
C959 C 0.03976 0.96779 0.27615 0.0
H960 H 0.91406 0.91646 0.30475 0.0
H961 H 0.86674 0.01853 0.28261 0.0
H962 H 0.02927 0.93069 0.30033 0.0
H963 H 0.01462 0.96641 0.31164 0.0
H964 H 0.98905 0.91182 0.31045 0.0
H965 H 0.91539 0.06851 0.27354 0.0
H966 H 0.95537 0.08937 0.28347 0.0
H967 H 0.97366 0.05263 0.2727 0.0
H968 H 0.08325 0.09679 0.30574 0.0
H969 H 0.12088 0.00469 0.28008 0.0
H970 H 0.98503 0.04669 0.31323 0.0
H971 H 0.96555 0.08574 0.30311 0.0
H972 H 0.00962 0.10184 0.31253 0.0
H973 H 0.03235 0.93586 0.28047 0.0
H974 H 0.06768 0.96189 0.27024 0.0
H975 H 0.00934 0.9772 0.2714 0.0
C976 C 0.9786 0.59176 0.53352 0.0
C977 C 0.947 0.60662 0.54125 0.0
C978 C 0.99066 0.54645 0.53296 0.0
C979 C 0.97202 0.51591 0.54065 0.0
C980 C 0.9389 0.53062 0.54824 0.0
C981 C 0.92619 0.57586 0.54831 0.0
C982 C 0.02481 0.53171 0.52448 0.0
C983 C 0.91921 0.49936 0.55678 0.0
C984 C 0.98418 0.3902 0.53712 0.0
C985 C 0.0222 0.38155 0.54357 0.0
C986 C 0.96823 0.43405 0.53578 0.0
C987 C 0.98988 0.46961 0.54139 0.0
C988 C 0.02839 0.46093 0.54792 0.0
C989 C 0.0446 0.41698 0.54877 0.0
C990 C 0.92813 0.44229 0.52842 0.0
C991 C 0.05167 0.49782 0.55429 0.0
H992 H 0.99467 0.61585 0.52809 0.0
H993 H 0.9023 0.58775 0.55441 0.0
H994 H 0.05695 0.52385 0.52867 0.0
H995 H 0.0134 0.50077 0.52023 0.0
H996 H 0.03119 0.55801 0.51817 0.0
H997 H 0.89195 0.51541 0.56164 0.0
H998 H 0.90574 0.46876 0.55277 0.0
H999 H 0.94594 0.48855 0.56259 0.0
H1000 H 0.96704 0.36261 0.53307 0.0
H1001 H 0.07369 0.41005 0.55387 0.0
H1002 H 0.93625 0.46826 0.52216 0.0
H1003 H 0.89975 0.45514 0.53343 0.0
H1004 H 0.91705 0.4114 0.52407 0.0
H1005 H 0.06408 0.52387 0.5485 0.0
H1006 H 0.08047 0.48518 0.55921 0.0
H1007 H 0.02756 0.51425 0.55999 0.0
C1008 C 0.59619 0.51083 0.7847 0.0
C1009 C 0.60787 0.54472 0.79218 0.0
C1010 C 0.55195 0.49543 0.78395 0.0
C1011 C 0.5192 0.5133 0.79117 0.0
C1012 C 0.53063 0.54859 0.79852 0.0
C1013 C 0.57491 0.56443 0.79881 0.0
C1014 C 0.5407 0.45892 0.77575 0.0
C1015 C 0.49679 0.56775 0.80652 0.0
C1016 C 0.39504 0.49542 0.78638 0.0
C1017 C 0.38633 0.45885 0.79332 0.0
C1018 C 0.43856 0.51243 0.78524 0.0
C1019 C 0.47371 0.49332 0.79152 0.0
C1020 C 0.46515 0.4558 0.7984 0.0
C1021 C 0.42151 0.43851 0.79908 0.0
C1022 C 0.44673 0.55141 0.77753 0.0
C1023 C 0.50165 0.43516 0.8054 0.0
H1024 H 0.62197 0.49569 0.77958 0.0
H1025 H 0.58433 0.59019 0.80471 0.0
H1026 H 0.53315 0.42737 0.78023 0.0
H1027 H 0.51035 0.46804 0.77093 0.0
H1028 H 0.56865 0.45245 0.76988 0.0
H1029 H 0.51064 0.59616 0.8114 0.0
H1030 H 0.46664 0.57951 0.80201 0.0
H1031 H 0.48573 0.5412 0.81235 0.0
H1032 H 0.36763 0.51101 0.78191 0.0
H1033 H 0.41448 0.4106 0.80457 0.0
H1034 H 0.47485 0.54368 0.77182 0.0
H1035 H 0.45649 0.58144 0.78238 0.0
H1036 H 0.4166 0.55977 0.77253 0.0
H1037 H 0.52976 0.42388 0.80009 0.0
H1038 H 0.48942 0.40609 0.81029 0.0
H1039 H 0.51524 0.46065 0.8112 0.0
C1040 C 0.50589 0.09983 0.03514 0.0
C1041 C 0.46971 0.1104 0.04205 0.0
C1042 C 0.52067 0.05549 0.03406 0.0
C1043 C 0.49984 0.02149 0.0404 0.0
C1044 C 0.46287 0.03204 0.04729 0.0
C1045 C 0.4477 0.07641 0.04788 0.0
C1046 C 0.55902 0.04517 0.02631 0.0
C1047 C 0.4406 0.99688 0.05441 0.0
C1048 C 0.51083 0.89774 0.03419 0.0
C1049 C 0.5444 0.88518 0.04166 0.0
C1050 C 0.49784 0.94266 0.03319 0.0
C1051 C 0.51763 0.97514 0.04019 0.0
C1052 C 0.55245 0.96266 0.04756 0.0
C1053 C 0.56601 0.91773 0.04805 0.0
C1054 C 0.46185 0.95502 0.02495 0.0
C1055 C 0.57344 0.99613 0.05538 0.0
H1056 H 0.52274 0.12637 0.03063 0.0
H1057 H 0.42008 0.08491 0.05332 0.0
H1058 H 0.58872 0.03434 0.03114 0.0
H1059 H 0.54985 0.01713 0.02071 0.0
H1060 H 0.56862 0.07463 0.02121 0.0
H1061 H 0.4124 0.01074 0.05935 0.0
H1062 H 0.42761 0.96924 0.04918 0.0
H1063 H 0.46555 0.98216 0.06018 0.0
H1064 H 0.49424 0.87225 0.02926 0.0
H1065 H 0.59152 0.90761 0.05394 0.0
H1066 H 0.4723 0.98466 0.02004 0.0
H1067 H 0.43066 0.96416 0.02941 0.0
H1068 H 0.45414 0.92703 0.01919 0.0
H1069 H 0.58668 0.02527 0.05073 0.0
H1070 H 0.60117 0.98128 0.0603 0.0
H1071 H 0.54757 0.00896 0.06118 0.0
C1072 C 0.09618 0.49861 0.96741 0.0
C1073 C 0.10842 0.45464 0.96461 0.0
C1074 C 0.0512 0.51033 0.96896 0.0
C1075 C 0.01763 0.47732 0.96763 0.0
C1076 C 0.02987 0.43237 0.96536 0.0
C1077 C 0.07526 0.42149 0.9639 0.0
C1078 C 0.03952 0.55856 0.97144 0.0
C1079 C 0.99489 0.39629 0.96386 0.0
C1080 C 0.89824 0.50291 0.9766 0.0
C1081 C 0.87859 0.51509 0.96649 0.0
C1082 C 0.94366 0.49072 0.97716 0.0
C1083 C 0.9698 0.49084 0.96737 0.0
C1084 C 0.95037 0.50414 0.95721 0.0
C1085 C 0.90508 0.51615 0.9569 0.0
C1086 C 0.96348 0.47694 0.98814 0.0
C1087 C 0.97725 0.50503 0.9466 0.0
H1088 H 0.12172 0.52432 0.96811 0.0
H1089 H 0.08455 0.38746 0.96175 0.0
H1090 H 0.02268 0.57362 0.96414 0.0
H1091 H 0.01577 0.56055 0.97849 0.0
H1092 H 0.06963 0.57897 0.97343 0.0
H1093 H 0.00998 0.36235 0.96324 0.0
H1094 H 0.97085 0.39665 0.97087 0.0
H1095 H 0.97551 0.40285 0.95619 0.0
H1096 H 0.87793 0.50187 0.98404 0.0
H1097 H 0.89025 0.52573 0.94905 0.0
H1098 H 0.99326 0.49783 0.99006 0.0
H1099 H 0.97497 0.44164 0.98769 0.0
H1100 H 0.93906 0.4801 0.99504 0.0
H1101 H 0.00651 0.52768 0.94753 0.0
H1102 H 0.95709 0.51646 0.9394 0.0
H1103 H 0.99041 0.47105 0.94477 0.0
C1104 C 0.49544 0.39842 0.21861 0.0
C1105 C 0.46071 0.38786 0.21126 0.0
C1106 C 0.51073 0.44255 0.2197 0.0
C1107 C 0.49187 0.47634 0.21295 0.0
C1108 C 0.45608 0.46591 0.20566 0.0
C1109 C 0.44035 0.4217 0.20505 0.0
C1110 C 0.5478 0.45277 0.22783 0.0
C1111 C 0.43592 0.50093 0.19814 0.0
C1112 C 0.50638 0.59989 0.21892 0.0
C1113 C 0.54188 0.61082 0.21184 0.0
C1114 C 0.49116 0.55565 0.2198 0.0
C1115 C 0.5109 0.52217 0.21309 0.0
C1116 C 0.54754 0.53296 0.20611 0.0
C1117 C 0.56314 0.57724 0.20572 0.0
C1118 C 0.45316 0.54504 0.22763 0.0
C1119 C 0.56867 0.4983 0.19864 0.0
H1120 H 0.51098 0.37196 0.22343 0.0
H1121 H 0.41386 0.41315 0.19927 0.0
H1122 H 0.57871 0.4622 0.22329 0.0
H1123 H 0.5384 0.48169 0.23313 0.0
H1124 H 0.55553 0.42368 0.23324 0.0
H1125 H 0.40789 0.48741 0.19308 0.0
H1126 H 0.42328 0.5296 0.20307 0.0
H1127 H 0.46209 0.51411 0.19248 0.0
H1128 H 0.4901 0.62616 0.22365 0.0
H1129 H 0.5902 0.58608 0.20013 0.0
H1130 H 0.46185 0.51574 0.23286 0.0
H1131 H 0.42275 0.53602 0.22283 0.0
H1132 H 0.44492 0.57381 0.2331 0.0
H1133 H 0.58053 0.4693 0.20357 0.0
H1134 H 0.59744 0.51203 0.19388 0.0
H1135 H 0.54328 0.48553 0.1927 0.0
C1136 C 0.39949 0.00407 0.47717 0.0
C1137 C 0.37941 0.01548 0.46706 0.0
C1138 C 0.44495 0.99191 0.47766 0.0
C1139 C 0.47069 0.9913 0.46782 0.0
C1140 C 0.45073 0.00349 0.45763 0.0
C1141 C 0.40542 0.01546 0.45738 0.0
C1142 C 0.46531 0.97925 0.48867 0.0
C1143 C 0.47716 0.00358 0.44695 0.0
C1144 C 0.59685 0.00186 0.4675 0.0
C1145 C 0.60998 0.95798 0.46486 0.0
C1146 C 0.55169 0.01267 0.46912 0.0
C1147 C 0.51882 0.97879 0.46805 0.0
C1148 C 0.532 0.93395 0.46597 0.0
C1149 C 0.57757 0.92402 0.46442 0.0
C1150 C 0.53902 0.06083 0.47137 0.0
C1151 C 0.4978 0.89696 0.46477 0.0
H1152 H 0.37955 0.00381 0.48467 0.0
H1153 H 0.39026 0.02438 0.44953 0.0
H1154 H 0.4779 0.9443 0.48832 0.0
H1155 H 0.49445 0.00115 0.49049 0.0
H1156 H 0.44091 0.98201 0.49558 0.0
H1157 H 0.45649 0.01373 0.43972 0.0
H1158 H 0.50598 0.02694 0.44764 0.0
H1159 H 0.49096 0.96968 0.44534 0.0
H1160 H 0.62181 0.02821 0.46799 0.0
H1161 H 0.58754 0.89004 0.46241 0.0
H1162 H 0.51556 0.06291 0.47848 0.0
H1163 H 0.5215 0.07485 0.46404 0.0
H1164 H 0.56874 0.08209 0.47316 0.0
H1165 H 0.47387 0.89759 0.4718 0.0
H1166 H 0.51364 0.86332 0.46437 0.0
H1167 H 0.47815 0.90223 0.45708 0.0
C1168 C 0.97841 0.10818 0.71521 0.0
C1169 C 0.01856 0.1158 0.70948 0.0
C1170 C 0.96058 0.06485 0.71611 0.0
C1171 C 0.98271 0.02877 0.71084 0.0
C1172 C 0.02314 0.03646 0.70497 0.0
C1173 C 0.041 0.07987 0.70453 0.0
C1174 C 0.91828 0.05763 0.72274 0.0
C1175 C 0.04714 -0.00102 0.699 0.0
C1176 C 0.96855 0.90733 0.71894 0.0
C1177 C 0.93929 0.89201 0.71071 0.0
C1178 C 0.98047 0.95265 0.71956 0.0
C1179 C 0.96408 0.98275 0.71147 0.0
C1180 C 0.93302 0.96766 0.7034 0.0
C1181 C 0.92039 0.92235 0.70323 0.0
C1182 C 0.01244 0.96776 0.72852 0.0
C1183 C 0.91574 -0.00149 0.69447 0.0
H1184 H 0.9612 0.13611 0.71907 0.0
H1185 H 0.07176 0.08596 0.69999 0.0
H1186 H 0.89146 0.04406 0.71734 0.0
H1187 H 0.92441 0.03252 0.72935 0.0
H1188 H 0.90602 0.08907 0.72663 0.0
H1189 H 0.0771 0.01101 0.69442 0.0
H1190 H 0.05796 0.97309 0.70502 0.0
H1191 H 0.02402 0.98255 0.69305 0.0
H1192 H 0.98313 0.88353 0.72469 0.0
H1193 H 0.89831 0.91006 0.69677 0.0
H1194 H 0.00019 -0.00097 0.73246 0.0
H1195 H 0.04567 0.97515 0.72482 0.0
H1196 H 0.01694 0.94184 0.73502 0.0
H1197 H 0.90225 0.02978 0.69813 0.0
H1198 H 0.8891 0.98254 0.68939 0.0
H1199 H 0.94382 0.00814 0.68892 0.0
C1200 C 0.59221 0.99343 0.30559 0.0
C1201 C 0.60859 0.95657 0.31157 0.0
C1202 C 0.54729 0.00624 0.3063 0.0
C1203 C 0.51795 0.98191 0.31325 0.0
C1204 C 0.53418 0.94515 0.31947 0.0
C1205 C 0.5794 0.93269 0.31851 0.0
C1206 C 0.53111 0.04539 0.29944 0.0
C1207 C 0.50371 0.91883 0.32704 0.0
C1208 C 0.41139 0.04507 0.31986 0.0
C1209 C 0.38209 0.02794 0.31181 0.0
C1210 C 0.45516 0.02853 0.32087 0.0
C1211 C 0.46997 0.99444 0.31359 0.0
C1212 C 0.44007 0.97581 0.30575 0.0
C1213 C 0.39644 0.99266 0.30498 0.0
C1214 C 0.48613 0.04886 0.32939 0.0
C1215 C 0.45483 0.9397 0.29777 0.0
H1216 H 0.61435 0.01216 0.30019 0.0
H1217 H 0.59183 0.90433 0.3232 0.0
H1218 H 0.5045 0.03412 0.29366 0.0
H1219 H 0.51622 0.07137 0.30489 0.0
H1220 H 0.55847 0.06102 0.29454 0.0
H1221 H 0.522 0.89239 0.33168 0.0
H1222 H 0.48739 0.94166 0.33307 0.0
H1223 H 0.47667 0.90277 0.32214 0.0
H1224 H 0.40046 0.07199 0.32525 0.0
H1225 H 0.37403 0.97896 0.29878 0.0
H1226 H 0.51247 0.06879 0.32517 0.0
H1227 H 0.50327 0.02216 0.33418 0.0
H1228 H 0.46805 0.07114 0.33525 0.0
H1229 H 0.48009 0.95362 0.29197 0.0
H1230 H 0.42644 0.92608 0.29285 0.0
H1231 H 0.471 0.91172 0.3023 0.0
C1232 C 0.95841 0.90782 0.56943 0.0
C1233 C 0.9805 0.87725 0.56249 0.0
C1234 C 0.97388 0.95198 0.57052 0.0
C1235 C 0.01196 0.9659 0.56444 0.0
C1236 C 0.03572 0.93465 0.55788 0.0
C1237 C 0.01984 0.89064 0.55703 0.0
C1238 C 0.94803 0.98434 0.5777 0.0
C1239 C 0.07622 0.94836 0.55118 0.0
C1240 C 0.01299 0.08583 0.55454 0.0
C1241 C 0.04475 0.10568 0.56157 0.0
C1242 C 0.00217 0.04044 0.55544 0.0
C1243 C 0.02318 0.01418 0.56367 0.0
C1244 C 0.05504 0.03385 0.57088 0.0
C1245 C 0.06575 0.07946 0.5697 0.0
C1246 C 0.96844 0.02057 0.54747 0.0
C1247 C 0.0776 0.00676 0.57984 0.0
H1248 H 0.92835 0.89764 0.5738 0.0
H1249 H 0.03743 0.86724 0.55172 0.0
H1250 H 0.97119 0.00389 0.58303 0.0
H1251 H 0.92982 0.00853 0.57238 0.0
H1252 H 0.92323 0.96695 0.58306 0.0
H1253 H 0.09372 0.91908 0.54749 0.0
H1254 H 0.06557 0.97095 0.54437 0.0
H1255 H 0.10034 0.96721 0.55639 0.0
H1256 H 0.9967 0.10567 0.5482 0.0
H1257 H 0.09011 0.09467 0.5752 0.0
H1258 H 0.93967 0.0064 0.55212 0.0
H1259 H 0.98401 0.99272 0.54276 0.0
H1260 H 0.95545 0.04566 0.54149 0.0
H1261 H 0.05196 0.99187 0.58539 0.0
H1262 H 0.10099 0.02728 0.5849 0.0
H1263 H 0.09658 0.97862 0.5761 0.0
C1264 C 0.08065 0.42717 0.81859 0.0
C1265 C 0.10978 0.45142 0.81171 0.0
C1266 C 0.03532 0.43925 0.81953 0.0
C1267 C 0.01891 0.47604 0.81334 0.0
C1268 C 0.04822 0.50083 0.80648 0.0
C1269 C 0.09325 0.48837 0.8058 0.0
C1270 C 0.00491 0.41245 0.827 0.0
C1271 C 0.03185 0.54005 0.79967 0.0
C1272 C 0.89752 0.4857 0.80486 0.0
C1273 C 0.8826 0.52068 0.8117 0.0
C1274 C 0.94131 0.46929 0.80568 0.0
C1275 C 0.97077 0.48804 0.81361 0.0
C1276 C 0.95536 0.52175 0.82091 0.0
C1277 C 0.91145 0.53787 0.81984 0.0
C1278 C 0.95671 0.43356 0.79767 0.0
C1279 C 0.98583 0.54218 0.82953 0.0
H1280 H 0.09318 0.39872 0.82323 0.0
H1281 H 0.11535 0.50741 0.80045 0.0
H1282 H 0.98801 0.43499 0.833 0.0
H1283 H 0.9783 0.39606 0.82202 0.0
H1284 H 0.02337 0.38622 0.83167 0.0
H1285 H 0.05922 0.55614 0.79486 0.0
H1286 H 0.00557 0.52869 0.7938 0.0
H1287 H 0.01649 0.56568 0.80514 0.0
H1288 H 0.87547 0.47195 0.79858 0.0
H1289 H 0.90008 0.56456 0.82524 0.0
H1290 H 0.97305 0.40563 0.80219 0.0
H1291 H 0.982 0.44791 0.79194 0.0
H1292 H 0.92863 0.41977 0.79268 0.0
H1293 H 0.0032 0.51555 0.83429 0.0
H1294 H 0.96729 0.56401 0.83541 0.0
H1295 H 0.01199 0.56262 0.82539 0.0
C1296 C 0.55199 0.58295 0.0694 0.0
C1297 C 0.52839 0.61308 0.06266 0.0
C1298 C 0.53776 0.53833 0.07047 0.0
C1299 C 0.49952 0.5236 0.06456 0.0
C1300 C 0.47458 0.55428 0.05812 0.0
C1301 C 0.48916 0.59865 0.0573 0.0
C1302 C 0.56474 0.5065 0.07753 0.0
C1303 C 0.43391 0.53971 0.05157 0.0
C1304 C 0.49542 0.40429 0.05431 0.0
C1305 C 0.46282 0.38522 0.06123 0.0
C1306 C 0.50829 0.44902 0.05551 0.0
C1307 C 0.48852 0.4753 0.06393 0.0
C1308 C 0.45637 0.45616 0.07114 0.0
C1309 C 0.44355 0.41128 0.06964 0.0
C1310 C 0.54218 0.46845 0.04753 0.0
C1311 C 0.43515 0.48324 0.0803 0.0
H1312 H 0.58202 0.59394 0.07367 0.0
H1313 H 0.4704 0.62163 0.05213 0.0
H1314 H 0.54232 0.48679 0.08301 0.0
H1315 H 0.58273 0.48239 0.07213 0.0
H1316 H 0.5898 0.52435 0.08272 0.0
H1317 H 0.41623 0.56847 0.0477 0.0
H1318 H 0.44435 0.51624 0.04492 0.0
H1319 H 0.40995 0.52156 0.05697 0.0
H1320 H 0.51049 0.38446 0.04778 0.0
H1321 H 0.41871 0.39656 0.07509 0.0
H1322 H 0.57089 0.48292 0.05215 0.0
H1323 H 0.52661 0.49602 0.04271 0.0
H1324 H 0.55522 0.44304 0.04162 0.0
H1325 H 0.46148 0.49918 0.08547 0.0
H1326 H 0.41336 0.46246 0.08572 0.0
H1327 H 0.41463 0.51058 0.0767 0.0
C1328 C 0.40926 0.43978 0.93483 0.0
C1329 C 0.38078 0.46192 0.94228 0.0
C1330 C 0.45421 0.45297 0.93365 0.0
C1331 C 0.47101 0.48853 0.94021 0.0
C1332 C 0.44224 0.51145 0.94759 0.0
C1333 C 0.39747 0.49812 0.94846 0.0
C1334 C 0.48391 0.42833 0.92557 0.0
C1335 C 0.45907 0.54917 0.95485 0.0
C1336 C 0.59343 0.49391 0.9481 0.0
C1337 C 0.60853 0.53021 0.94172 0.0
C1338 C 0.54908 0.47895 0.94737 0.0
C1339 C 0.51925 0.50035 0.93997 0.0
C1340 C 0.53468 0.53571 0.93315 0.0
C1341 C 0.57913 0.55052 0.93418 0.0
C1342 C 0.53366 0.44157 0.95491 0.0
C1343 C 0.50389 0.55879 0.92504 0.0
H1344 H 0.39654 0.41203 0.92995 0.0
H1345 H 0.37583 0.51556 0.95424 0.0
H1346 H 0.50101 0.4525 0.92001 0.0
H1347 H 0.51036 0.40992 0.93014 0.0
H1348 H 0.46484 0.40399 0.92044 0.0
H1349 H 0.43199 0.56422 0.95996 0.0
H1350 H 0.48559 0.53649 0.96048 0.0
H1351 H 0.47427 0.5759 0.9497 0.0
H1352 H 0.61589 0.47793 0.95394 0.0
H1353 H 0.59071 0.57823 0.92913 0.0
H1354 H 0.51736 0.41463 0.95002 0.0
H1355 H 0.50834 0.45463 0.96082 0.0
H1356 H 0.56172 0.42674 0.95972 0.0
H1357 H 0.48606 0.53368 0.91989 0.0
H1358 H 0.52225 0.58218 0.91951 0.0
H1359 H 0.47808 0.57808 0.92963 0.0
C1360 C 0.50097 0.90046 0.19798 0.0
C1361 C 0.54006 0.88545 0.19267 0.0
C1362 C 0.48699 0.94493 0.19712 0.0
C1363 C 0.5125 0.97524 0.19071 0.0
C1364 C 0.55119 0.96026 0.18503 0.0
C1365 C 0.56471 0.91542 0.18612 0.0
C1366 C 0.44574 0.95979 0.2034 0.0
C1367 C 0.57884 0.99182 0.17805 0.0
C1368 C 0.45258 0.08409 0.18444 0.0
C1369 C 0.46879 0.11165 0.19296 0.0
C1370 C 0.46821 0.04004 0.18323 0.0
C1371 C 0.5003 0.02326 0.19079 0.0
C1372 C 0.51756 0.05125 0.19923 0.0
C1373 C 0.50173 0.09512 0.20018 0.0
C1374 C 0.44944 0.01107 0.17409 0.0
C1375 C 0.55141 0.03431 0.20754 0.0
H1376 H 0.48149 0.87767 0.20305 0.0
H1377 H 0.59474 0.90402 0.18192 0.0
H1378 H 0.45526 0.98489 0.20976 0.0
H1379 H 0.42161 0.97614 0.1977 0.0
H1380 H 0.42853 0.93145 0.20759 0.0
H1381 H 0.60556 0.97406 0.17338 0.0
H1382 H 0.55708 0.00988 0.17209 0.0
H1383 H 0.59479 0.01741 0.18343 0.0
H1384 H 0.42751 0.0968 0.17876 0.0
H1385 H 0.51461 0.11615 0.20678 0.0
H1386 H 0.42864 0.98396 0.17771 0.0
H1387 H 0.47702 0.99483 0.16941 0.0
H1388 H 0.4284 0.0305 0.16821 0.0
H1389 H 0.53604 0.00754 0.21267 0.0
H1390 H 0.56359 0.06126 0.21314 0.0
H1391 H 0.58064 0.01941 0.20323 0.0
C1392 C 0.89649 0.00897 0.44739 0.0
C1393 C 0.88117 0.97077 0.44174 0.0
C1394 C 0.94125 0.02256 0.44671 0.0
C1395 C 0.97141 0.99783 0.44007 0.0
C1396 C 0.95593 0.96043 0.43394 0.0
C1397 C 0.91096 0.94708 0.43491 0.0
C1398 C 0.95661 0.06232 0.45348 0.0
C1399 C 0.98714 0.93378 0.42663 0.0
C1400 C 0.08164 0.05666 0.43431 0.0
C1401 C 0.10934 0.03776 0.44245 0.0
C1402 C 0.03705 0.04252 0.43308 0.0
C1403 C 0.01973 0.00936 0.44028 0.0
C1404 C 0.04777 0.9896 0.44836 0.0
C1405 C 0.09232 0.00379 0.44929 0.0
C1406 C 0.00821 0.06374 0.42425 0.0
C1407 C 0.0303 0.95466 0.45632 0.0
H1408 H 0.87383 0.0277 0.45265 0.0
H1409 H 0.89935 0.91776 0.43045 0.0
H1410 H 0.98155 0.05123 0.45972 0.0
H1411 H 0.97335 0.08733 0.44809 0.0
H1412 H 0.92847 0.07902 0.45787 0.0
H1413 H 0.96896 0.90854 0.42157 0.0
H1414 H 0.00587 0.95647 0.42102 0.0
H1415 H 0.01218 0.91609 0.43183 0.0
H1416 H 0.09475 0.08256 0.42891 0.0
H1417 H 0.11348 0.98898 0.45559 0.0
H1418 H 0.98145 0.08403 0.42819 0.0
H1419 H 0.9915 0.03746 0.41922 0.0
H1420 H 0.02787 0.08579 0.41865 0.0
H1421 H 0.00361 0.96947 0.46158 0.0
H1422 H 0.05701 0.94128 0.46181 0.0
H1423 H 0.01511 0.92634 0.4517 0.0
C1424 C 0.08066 0.41931 0.68697 0.0
C1425 C 0.05807 0.39298 0.69481 0.0
C1426 C 0.07091 0.46515 0.68585 0.0
C1427 C 0.03812 0.48483 0.69279 0.0
C1428 C 0.0162 0.45866 0.70091 0.0
C1429 C 0.02636 0.41314 0.70179 0.0
C1430 C 0.09478 0.49223 0.6771 0.0
C1431 C 0.98126 0.47849 0.70854 0.0
C1432 C 0.02713 0.60886 0.69837 0.0
C1433 C 0.98845 0.6193 0.69228 0.0
C1434 C 0.04565 0.56575 0.69805 0.0
C1435 C 0.02503 0.5324 0.69146 0.0
C1436 C 0.98769 0.5434 0.68477 0.0
C1437 C 0.96979 0.58673 0.68527 0.0
C1438 C 0.08551 0.55521 0.7053 0.0
C1439 C 0.96489 0.50869 0.67761 0.0
H1440 H 0.10517 0.40394 0.68153 0.0
H1441 H 0.00898 0.39326 0.70795 0.0
H1442 H 0.07028 0.50382 0.67081 0.0
H1443 H 0.11012 0.52255 0.68084 0.0
H1444 H 0.12137 0.47264 0.67286 0.0
H1445 H 0.96853 0.45379 0.71467 0.0
H1446 H 0.99548 0.50748 0.7131 0.0
H1447 H 0.95247 0.49101 0.70362 0.0
H1448 H 0.04212 0.63386 0.70374 0.0
H1449 H 0.94022 0.59455 0.68043 0.0
H1450 H 0.1111 0.53613 0.7006 0.0
H1451 H 0.07458 0.53388 0.71233 0.0
H1452 H 0.1013 0.58599 0.70871 0.0
H1453 H 0.98995 0.48993 0.67266 0.0
H1454 H 0.93999 0.52386 0.67189 0.0
H1455 H 0.94728 0.4841 0.68296 0.0
C1456 C 0.22411 0.05639 0.35304 0.0
C1457 C 0.25443 0.08517 0.34779 0.0
C1458 C 0.21847 0.05766 0.36459 0.0
C1459 C 0.24529 0.08701 0.37102 0.0
C1460 C 0.27651 0.11565 0.36572 0.0
C1461 C 0.27999 0.11506 0.35412 0.0
C1462 C 0.18361 0.02787 0.36988 0.0
C1463 C 0.30696 0.14611 0.37229 0.0
C1464 C 0.21003 0.11912 0.40024 0.0
C1465 C 0.23304 0.08729 0.40657 0.0
C1466 C 0.21298 0.11887 0.38863 0.0
C1467 C 0.24117 0.08728 0.38331 0.0
C1468 C 0.26542 0.05585 0.38974 0.0
C1469 C 0.26025 0.05561 0.4013 0.0
C1470 C 0.18527 0.15177 0.38205 0.0
C1471 C 0.29716 0.02279 0.38444 0.0
H1472 H 0.20418 0.0335 0.34809 0.0
H1473 H 0.30375 0.137 0.35002 0.0
H1474 H 0.20002 0.00334 0.37545 0.0
H1475 H 0.16054 0.0483 0.37503 0.0
H1476 H 0.16356 0.00919 0.36365 0.0
H1477 H 0.33036 0.16524 0.36692 0.0
H1478 H 0.2868 0.17025 0.37718 0.0
H1479 H 0.32688 0.12604 0.37826 0.0
H1480 H 0.18866 0.14333 0.40436 0.0
H1481 H 0.27825 0.03122 0.40625 0.0
H1482 H 0.16363 0.13344 0.3761 0.0
H1483 H 0.20745 0.17403 0.37715 0.0
H1484 H 0.16367 0.17289 0.38743 0.0
H1485 H 0.27843 -5e-05 0.37887 0.0
H1486 H 0.31531 0.00227 0.39067 0.0
H1487 H 0.32212 0.04088 0.3793 0.0
C1488 C 0.89481 0.77906 0.60334 0.0
C1489 C 0.92594 0.7546 0.59712 0.0
C1490 C 0.89495 0.77712 0.61495 0.0
C1491 C 0.92579 0.74861 0.62042 0.0
C1492 C 0.95666 0.72306 0.61412 0.0
C1493 C 0.95697 0.72709 0.60253 0.0
C1494 C 0.8626 0.80609 0.62138 0.0
C1495 C 0.98895 0.69107 0.6196 0.0
C1496 C 0.95542 0.76815 0.65067 0.0
C1497 C 0.92572 0.73898 0.65601 0.0
C1498 C 0.95511 0.7724 0.63908 0.0
C1499 C 0.92566 0.74543 0.63272 0.0
C1500 C 0.8961 0.71536 0.63811 0.0
C1501 C 0.89587 0.71317 0.64972 0.0
C1502 C 0.98594 0.80603 0.63367 0.0
C1503 C 0.86533 0.68491 0.63162 0.0
H1504 H 0.8711 0.80068 0.59912 0.0
H1505 H 0.98083 0.70797 0.59768 0.0
H1506 H 0.83967 0.78478 0.62633 0.0
H1507 H 0.88131 0.82765 0.62727 0.0
H1508 H 0.84214 0.82784 0.61589 0.0
H1509 H 0.00939 0.6722 0.61348 0.0
H1510 H 0.0119 0.70972 0.62517 0.0
H1511 H 0.97021 0.66674 0.62479 0.0
H1512 H 0.97829 0.7883 0.65557 0.0
H1513 H 0.87321 0.69026 0.65389 0.0
H1514 H 0.9662 0.82933 0.62843 0.0
H1515 H 0.01004 0.78859 0.62817 0.0
H1516 H 0.00514 0.82596 0.63984 0.0
H1517 H 0.84166 0.70511 0.62661 0.0
H1518 H 0.84566 0.66224 0.63707 0.0
H1519 H 0.88523 0.66422 0.62578 0.0
C1520 C 0.26395 0.44384 0.85352 0.0
C1521 C 0.23587 0.41308 0.84818 0.0
C1522 C 0.26818 0.44378 0.86511 0.0
C1523 C 0.24208 0.41363 0.87149 0.0
C1524 C 0.2129 0.38314 0.86609 0.0
C1525 C 0.21095 0.38255 0.85447 0.0
C1526 C 0.30102 0.47553 0.8705 0.0
C1527 C 0.18317 0.35173 0.87258 0.0
C1528 C 0.27681 0.38418 0.90092 0.0
C1529 C 0.25208 0.41518 0.90712 0.0
C1530 C 0.27455 0.38389 0.8893 0.0
C1531 C 0.24531 0.41398 0.88381 0.0
C1532 C 0.21934 0.44455 0.8901 0.0
C1533 C 0.22384 0.44547 0.90169 0.0
C1534 C 0.30414 0.35203 0.8829 0.0
C1535 C 0.18646 0.47593 0.88462 0.0
H1536 H 0.2834 0.46722 0.8486 0.0
H1537 H 0.18894 0.35905 0.85029 0.0
H1538 H 0.28298 0.4993 0.87597 0.0
H1539 H 0.32478 0.45647 0.87578 0.0
H1540 H 0.3205 0.49509 0.86433 0.0
H1541 H 0.1608 0.33168 0.86714 0.0
H1542 H 0.20392 0.32841 0.87756 0.0
H1543 H 0.1622 0.37115 0.87847 0.0
H1544 H 0.29898 0.36106 0.90516 0.0
H1545 H 0.20454 0.46924 0.90653 0.0
H1546 H 0.32523 0.37109 0.87697 0.0
H1547 H 0.28329 0.32854 0.87799 0.0
H1548 H 0.3264 0.33218 0.8884 0.0
H1549 H 0.20449 0.49947 0.87909 0.0
H1550 H 0.16695 0.49575 0.89074 0.0
H1551 H 0.16274 0.45655 0.8794 0.0
C1552 C 0.54831 0.71272 0.10462 0.0
C1553 C 0.57835 0.73631 0.09786 0.0
C1554 C 0.54956 0.71722 0.11619 0.0
C1555 C 0.58074 0.74704 0.1211 0.0
C1556 C 0.61071 0.77148 0.11429 0.0
C1557 C 0.6096 0.76531 0.10275 0.0
C1558 C 0.51783 0.68971 0.12317 0.0
C1559 C 0.64361 0.80449 0.11917 0.0
C1560 C 0.553 0.78864 0.15007 0.0
C1561 C 0.58234 0.76327 0.15661 0.0
C1562 C 0.55278 0.78432 0.13849 0.0
C1563 C 0.58166 0.75291 0.13336 0.0
C1564 C 0.61099 0.7268 0.13995 0.0
C1565 C 0.61145 0.73277 0.15149 0.0
C1566 C 0.52185 0.81362 0.13175 0.0
C1567 C 0.64144 0.69213 0.13482 0.0
H1568 H 0.52439 0.68994 0.10087 0.0
H1569 H 0.63269 0.7838 0.09754 0.0
H1570 H 0.53706 0.66941 0.12922 0.0
H1571 H 0.49544 0.71212 0.12797 0.0
H1572 H 0.49678 0.66684 0.1181 0.0
H1573 H 0.66381 0.82169 0.11272 0.0
H1574 H 0.62539 0.83017 0.12406 0.0
H1575 H 0.66673 0.78703 0.12492 0.0
H1576 H 0.53074 0.81255 0.154 0.0
H1577 H 0.63397 0.7129 0.15654 0.0
H1578 H 0.49756 0.79254 0.12714 0.0
H1579 H 0.54146 0.83276 0.12553 0.0
H1580 H 0.50286 0.83768 0.13697 0.0
H1581 H 0.62124 0.66742 0.1301 0.0
H1582 H 0.66155 0.67392 0.14112 0.0
H1583 H 0.66468 0.70834 0.12888 0.0
C1584 C 0.72234 0.55189 0.85254 0.0
C1585 C 0.75243 0.58072 0.84722 0.0
C1586 C 0.71638 0.55381 0.86407 0.0
C1587 C 0.74264 0.58391 0.87044 0.0
C1588 C 0.7735 0.61274 0.86507 0.0
C1589 C 0.77731 0.61145 0.85348 0.0
C1590 C 0.68192 0.52375 0.86943 0.0
C1591 C 0.80335 0.64403 0.87157 0.0
C1592 C 0.70687 0.61589 0.89963 0.0
C1593 C 0.73039 0.58451 0.90599 0.0
C1594 C 0.70989 0.61561 0.88802 0.0
C1595 C 0.73862 0.58444 0.88273 0.0
C1596 C 0.76343 0.55353 0.88919 0.0
C1597 C 0.75823 0.55331 0.90074 0.0
C1598 C 0.68162 0.64793 0.88142 0.0
C1599 C 0.79572 0.52094 0.88391 0.0
H1600 H 0.70292 0.52836 0.84765 0.0
H1601 H 0.8009 0.63344 0.84934 0.0
H1602 H 0.69871 0.49949 0.87501 0.0
H1603 H 0.6587 0.54399 0.87458 0.0
H1604 H 0.662 0.50472 0.86324 0.0
H1605 H 0.82618 0.66362 0.86615 0.0
H1606 H 0.78275 0.66776 0.87647 0.0
H1607 H 0.82388 0.62451 0.87752 0.0
H1608 H 0.68503 0.63972 0.90374 0.0
H1609 H 0.77664 0.52928 0.9057 0.0
H1610 H 0.66004 0.62911 0.87555 0.0
H1611 H 0.70339 0.67027 0.87643 0.0
H1612 H 0.65991 0.66899 0.88679 0.0
H1613 H 0.77732 0.49756 0.87841 0.0
H1614 H 0.81437 0.50096 0.89016 0.0
H1615 H 0.82024 0.53934 0.8787 0.0
C1616 C 0.45668 0.21282 0.14954 0.0
C1617 C 0.42585 0.23629 0.1561 0.0
C1618 C 0.45647 0.21707 0.13796 0.0
C1619 C 0.42549 0.24645 0.13285 0.0
C1620 C 0.39481 0.27087 0.13946 0.0
C1621 C 0.39495 0.26502 0.15101 0.0
C1622 C 0.48899 0.18964 0.13119 0.0
C1623 C 0.36202 0.30336 0.13435 0.0
C1624 C 0.4542 0.28703 0.10386 0.0
C1625 C 0.42541 0.26101 0.09731 0.0
C1626 C 0.45403 0.28316 0.11545 0.0
C1627 C 0.42526 0.25163 0.12058 0.0
C1628 C 0.39656 0.22481 0.11398 0.0
C1629 C 0.39653 0.23027 0.10242 0.0
C1630 C 0.48432 0.31314 0.12221 0.0
C1631 C 0.3662 0.19005 0.11911 0.0
H1632 H 0.48036 0.19025 0.15344 0.0
H1633 H 0.37122 0.28341 0.15607 0.0
H1634 H 0.47035 0.16859 0.12516 0.0
H1635 H 0.51126 0.21208 0.12636 0.0
H1636 H 0.51013 0.16747 0.13641 0.0
H1637 H 0.34139 0.32085 0.14068 0.0
H1638 H 0.38034 0.32884 0.12942 0.0
H1639 H 0.33927 0.28537 0.1286 0.0
H1640 H 0.47628 0.31114 0.09994 0.0
H1641 H 0.37441 0.20993 0.09737 0.0
H1642 H 0.50837 0.29256 0.12701 0.0
H1643 H 0.46415 0.33258 0.12825 0.0
H1644 H 0.50356 0.33696 0.11697 0.0
H1645 H 0.38636 0.16593 0.12401 0.0
H1646 H 0.34674 0.17116 0.1128 0.0
H1647 H 0.34235 0.20634 0.12489 0.0
C1648 C 0.71105 0.88408 0.35436 0.0
C1649 C 0.73438 0.91593 0.34809 0.0
C1650 C 0.71325 0.88444 0.36598 0.0
C1651 C 0.74107 0.91612 0.3714 0.0
C1652 C 0.76567 0.94756 0.36504 0.0
C1653 C 0.76119 0.94773 0.35346 0.0
C1654 C 0.6851 0.85156 0.37246 0.0
C1655 C 0.79709 0.9807 0.37044 0.0
C1656 C 0.72193 0.94753 0.40158 0.0
C1657 C 0.75177 0.91881 0.40701 0.0
C1658 C 0.7171 0.94604 0.39001 0.0
C1659 C 0.74432 0.91658 0.38372 0.0
C1660 C 0.77506 0.888 0.38921 0.0
C1661 C 0.77767 0.88876 0.40083 0.0
C1662 C 0.68265 0.97572 0.38454 0.0
C1663 C 0.80596 0.85744 0.38281 0.0
H1664 H 0.69 0.85976 0.35016 0.0
H1665 H 0.77945 0.97214 0.34856 0.0
H1666 H 0.70694 0.82938 0.37747 0.0
H1667 H 0.66306 0.86992 0.37831 0.0
H1668 H 0.66387 0.83035 0.36701 0.0
H1669 H 0.81576 0.00106 0.36427 0.0
H1670 H 0.77798 0.00369 0.37589 0.0
H1671 H 0.8216 0.9627 0.37573 0.0
H1672 H 0.70172 0.97055 0.40642 0.0
H1673 H 0.80106 0.86687 0.40506 0.0
H1674 H 0.65998 0.95522 0.37929 0.0
H1675 H 0.69948 0.00024 0.37904 0.0
H1676 H 0.66212 0.99443 0.39067 0.0
H1677 H 0.78615 0.83318 0.37786 0.0
H1678 H 0.82897 0.83845 0.38831 0.0
H1679 H 0.82631 0.87742 0.3769 0.0
C1680 C 0.11329 0.23555 0.65186 0.0
C1681 C 0.08486 0.26702 0.65688 0.0
C1682 C 0.11253 0.22864 0.64035 0.0
C1683 C 0.08334 0.25447 0.63366 0.0
C1684 C 0.05497 0.28668 0.63867 0.0
C1685 C 0.05572 0.29221 0.65022 0.0
C1686 C 0.14265 0.19335 0.63536 0.0
C1687 C 0.02399 0.3155 0.63182 0.0
C1688 C 0.1111 0.26438 0.60299 0.0
C1689 C 0.08019 0.2346 0.59824 0.0
C1690 C 0.11216 0.27155 0.61449 0.0
C1691 C 0.08226 0.24764 0.62143 0.0
C1692 C 0.05124 0.21725 0.61668 0.0
C1693 C 0.05025 0.21147 0.60513 0.0
C1694 C 0.1451 0.30493 0.61921 0.0
C1695 C 0.01938 0.19049 0.6238 0.0
H1696 H 0.13567 0.21576 0.65697 0.0
H1697 H 0.03385 0.31677 0.65404 0.0
H1698 H 0.12221 0.16836 0.6308 0.0
H1699 H 0.16584 0.20894 0.62931 0.0
H1700 H 0.16282 0.17556 0.64172 0.0
H1701 H 0.00498 0.33987 0.63695 0.0
H1702 H 0.04358 0.33426 0.62553 0.0
H1703 H -0.00026 0.29408 0.62729 0.0
H1704 H 0.13413 0.28259 0.5977 0.0
H1705 H 0.02648 0.18819 0.60152 0.0
H1706 H 0.16819 0.2879 0.62505 0.0
H1707 H 0.12693 0.33104 0.62397 0.0
H1708 H 0.16534 0.32155 0.61267 0.0
H1709 H 0.03856 0.17037 0.6299 0.0
H1710 H 0.998 0.16752 0.61884 0.0
H1711 H 0.99734 0.21342 0.62855 0.0
C1712 C 0.26008 0.14951 0.27075 0.0
C1713 C 0.29205 0.13361 0.27825 0.0
C1714 C 0.27322 0.16732 0.26048 0.0
C1715 C 0.31921 0.16745 0.25753 0.0
C1716 C 0.35153 0.1512 0.26514 0.0
C1717 C 0.33755 0.13515 0.27551 0.0
C1718 C 0.23794 0.18572 0.25276 0.0
C1719 C 0.40071 0.14947 0.26221 0.0
C1720 C 0.35042 0.1673 0.22702 0.0
C1721 C 0.36752 0.21065 0.22566 0.0
C1722 C 0.33422 0.15289 0.23734 0.0
C1723 C 0.33361 0.18317 0.24638 0.0
C1724 C 0.34891 0.22772 0.24487 0.0
C1725 C 0.36662 0.24065 0.23458 0.0
C1726 C 0.31969 0.1047 0.23868 0.0
C1727 C 0.34729 0.26147 0.25418 0.0
H1728 H 0.22487 0.14825 0.27297 0.0
H1729 H 0.36204 0.12234 0.28134 0.0
H1730 H 0.24695 0.22028 0.25019 0.0
H1731 H 0.23625 0.16499 0.24515 0.0
H1732 H 0.20418 0.18633 0.25664 0.0
H1733 H 0.42139 0.1352 0.269 0.0
H1734 H 0.40556 0.12876 0.25467 0.0
H1735 H 0.41324 0.18359 0.26031 0.0
H1736 H 0.35174 0.14397 0.22014 0.0
H1737 H 0.3798 0.27424 0.23348 0.0
H1738 H 0.28473 0.10311 0.24177 0.0
H1739 H 0.34122 0.08796 0.24493 0.0
H1740 H 0.32177 0.0856 0.23079 0.0
H1741 H 0.31331 0.26219 0.25792 0.0
H1742 H 0.35604 0.29579 0.25134 0.0
H1743 H 0.37111 0.25162 0.2608 0.0
C1744 C 0.79364 0.83085 0.4782 0.0
C1745 C 0.78884 0.87735 0.47692 0.0
C1746 C 0.80879 0.81238 0.48822 0.0
C1747 C 0.82037 0.84113 0.49711 0.0
C1748 C 0.81523 0.88804 0.49591 0.0
C1749 C 0.79912 0.90553 0.48588 0.0
C1750 C 0.813 0.76213 0.48925 0.0
C1751 C 0.82795 0.91991 0.50511 0.0
C1752 C 0.83003 0.79678 0.52656 0.0
C1753 C 0.87646 0.79037 0.52759 0.0
C1754 C 0.81116 0.81221 0.5166 0.0
C1755 C 0.83945 0.82237 0.50753 0.0
C1756 C 0.88628 0.81575 0.50849 0.0
C1757 C 0.90414 0.79944 0.51846 0.0
C1758 C 0.76099 0.81803 0.51583 0.0
C1759 C 0.9177 0.82691 0.49908 0.0
H1760 H 0.78564 0.80876 0.47136 0.0
H1761 H 0.79583 0.94151 0.48497 0.0
H1762 H 0.8487 0.75286 0.49041 0.0
H1763 H 0.79447 0.7502 0.49665 0.0
H1764 H 0.79996 0.74432 0.48184 0.0
H1765 H 0.8214 0.95546 0.50291 0.0
H1766 H 0.80895 0.91173 0.51274 0.0
H1767 H 0.86409 0.91618 0.50708 0.0
H1768 H 0.80833 0.78973 0.53354 0.0
H1769 H 0.94006 0.79493 0.51918 0.0
H1770 H 0.74776 0.79914 0.50862 0.0
H1771 H 0.75279 0.85387 0.51449 0.0
H1772 H 0.74346 0.80636 0.52342 0.0
H1773 H 0.90844 0.80746 0.4916 0.0
H1774 H 0.95326 0.81969 0.50115 0.0
H1775 H 0.91468 0.86295 0.49694 0.0
C1776 C 0.10346 0.28253 0.7366 0.0
C1777 C 0.13082 0.2749 0.72733 0.0
C1778 C 0.12169 0.29681 0.74672 0.0
C1779 C 0.16862 0.30267 0.74771 0.0
C1780 C 0.1967 0.29267 0.73858 0.0
C1781 C 0.17746 0.27936 0.72846 0.0
C1782 C 0.09043 0.30775 0.75618 0.0
C1783 C 0.24696 0.29755 0.73937 0.0
C1784 C 0.20657 0.38843 0.76898 0.0
C1785 C 0.21572 0.36149 0.77824 0.0
C1786 C 0.19216 0.36959 0.75895 0.0
C1787 C 0.18763 0.32249 0.75802 0.0
C1788 C 0.19863 0.29492 0.76717 0.0
C1789 C 0.21205 0.31475 0.7772 0.0
C1790 C 0.18005 0.4003 0.74946 0.0
C1791 C 0.19516 0.24454 0.76644 0.0
H1792 H 0.06742 0.27923 0.73586 0.0
H1793 H 0.19897 0.27332 0.72139 0.0
H1794 H 0.10034 0.28897 0.76372 0.0
H1795 H 0.0928 0.34398 0.75818 0.0
H1796 H 0.05495 0.29968 0.75422 0.0
H1797 H 0.26434 0.28369 0.73199 0.0
H1798 H 0.25586 0.33351 0.74016 0.0
H1799 H 0.25968 0.28028 0.74688 0.0
H1800 H 0.2091 0.42456 0.76967 0.0
H1801 H 0.21925 0.2936 0.78427 0.0
H1802 H 0.144 0.39636 0.74741 0.0
H1803 H 0.19944 0.39117 0.74196 0.0
H1804 H 0.18655 0.43611 0.75142 0.0
H1805 H 0.15952 0.2346 0.76553 0.0
H1806 H 0.20905 0.22772 0.77389 0.0
H1807 H 0.21325 0.23213 0.75902 0.0
C1808 C 0.70036 0.5956 0.98518 0.0
C1809 C 0.70745 0.62449 0.97618 0.0
C1810 C 0.68582 0.61207 0.99547 0.0
C1811 C 0.67914 0.65871 0.99689 0.0
C1812 C 0.68793 0.68823 0.98798 0.0
C1813 C 0.70146 0.67075 0.9777 0.0
C1814 C 0.67602 0.57934 0.0047 0.0
C1815 C 0.68212 0.73825 0.98922 0.0
C1816 C 0.59602 0.69642 0.01884 0.0
C1817 C 0.62416 0.70646 0.02783 0.0
C1818 C 0.61352 0.68094 0.00876 0.0
C1819 C 0.66047 0.67624 0.0075 0.0
C1820 C 0.6892 0.68735 0.01643 0.0
C1821 C 0.67069 0.70183 0.02653 0.0
C1822 C 0.58162 0.66868 0.99952 0.0
C1823 C 0.73946 0.68365 0.01534 0.0
H1824 H 0.7047 0.55981 0.98411 0.0
H1825 H 0.70708 0.6934 0.97083 0.0
H1826 H 0.69543 0.58835 0.01221 0.0
H1827 H 0.63997 0.58106 0.00692 0.0
H1828 H 0.68421 0.54426 0.00237 0.0
H1829 H 0.69397 0.75689 0.98181 0.0
H1830 H 0.64622 0.7462 0.99056 0.0
H1831 H 0.70078 0.75043 0.99658 0.0
H1832 H 0.56003 0.69953 0.01976 0.0
H1833 H 0.69273 0.70962 0.0334 0.0
H1834 H 0.58619 0.63296 0.99722 0.0
H1835 H 0.58902 0.68899 0.99205 0.0
H1836 H 0.54599 0.674 1.00185 0.0
H1837 H 0.74902 0.64826 0.01384 0.0
H1838 H 0.75725 0.69571 0.02286 0.0
H1839 H 0.75116 0.7034 0.00811 0.0
C1840 C 0.3271 0.28667 0.02648 0.0
C1841 C 0.37373 0.28136 0.02736 0.0
C1842 C 0.3073 0.3012 0.01655 0.0
C1843 C 0.33482 0.31155 0.00734 0.0
C1844 C 0.38177 0.30544 0.0081 0.0
C1845 C 0.40056 0.29001 0.01804 0.0
C1846 C 0.25703 0.30644 0.01598 0.0
C1847 C 0.41241 0.31675 0.99854 0.0
C1848 C 0.28862 0.32209 0.97809 0.0
C1849 C 0.28439 0.36873 0.97698 0.0
C1850 C 0.30333 0.30284 0.98807 0.0
C1851 C 0.31505 0.33093 0.99707 0.0
C1852 C 0.31018 0.37795 0.99606 0.0
C1853 C 0.2945 0.39621 0.98608 0.0
C1854 C 0.30722 0.25251 0.9889 0.0
C1855 C 0.32305 0.40915 0.00539 0.0
H1856 H 0.30603 0.27993 0.0336 0.0
H1857 H 0.43661 0.28621 0.01861 0.0
H1858 H 0.24835 0.34235 0.01499 0.0
H1859 H 0.24358 0.28843 0.00866 0.0
H1860 H 0.24011 0.29351 0.02353 0.0
H1861 H 0.4481 0.30921 1.0004 0.0
H1862 H 0.40237 0.29769 0.99106 0.0
H1863 H 0.40946 0.3529 0.99652 0.0
H1864 H 0.2807 0.30053 0.97114 0.0
H1865 H 0.29158 0.43227 0.98531 0.0
H1866 H 0.2894 0.24026 0.99637 0.0
H1867 H 0.34296 0.24292 0.98978 0.0
H1868 H 0.29327 0.23525 0.98151 0.0
H1869 H 0.30441 0.40025 0.01303 0.0
H1870 H 0.31621 0.44483 0.00338 0.0
H1871 H 0.35929 0.40548 0.00725 0.0
C1872 C 0.71066 0.8223 0.27672 0.0
C1873 C 0.71544 0.86887 0.27791 0.0
C1874 C 0.69745 0.80333 0.26656 0.0
C1875 C 0.68785 0.83163 0.25746 0.0
C1876 C 0.69356 0.87853 0.25854 0.0
C1877 C 0.70769 0.8965 0.2687 0.0
C1878 C 0.69263 0.7531 0.26567 0.0
C1879 C 0.68294 0.91 0.2491 0.0
C1880 C 0.67821 0.788 0.2279 0.0
C1881 C 0.6316 0.78376 0.22669 0.0
C1882 C 0.6972 0.80189 0.238 0.0
C1883 C 0.66888 0.81276 0.24702 0.0
C1884 C 0.6219 0.80786 0.2459 0.0
C1885 C 0.60391 0.793 0.23581 0.0
C1886 C 0.7475 0.8058 0.23894 0.0
C1887 C 0.5904 0.81983 0.25524 0.0
H1888 H 0.71676 0.80061 0.28375 0.0
H1889 H 0.7111 0.93251 0.26951 0.0
H1890 H 0.65679 0.74422 0.26459 0.0
H1891 H 0.71087 0.74054 0.25829 0.0
H1892 H 0.70554 0.73555 0.27313 0.0
H1893 H 0.69058 0.94549 0.25117 0.0
H1894 H 0.70231 0.90051 0.24163 0.0
H1895 H 0.64687 0.90738 0.24695 0.0
H1896 H 0.69992 0.78076 0.22093 0.0
H1897 H 0.56787 0.79007 0.23498 0.0
H1898 H 0.75955 0.78739 0.24635 0.0
H1899 H 0.75705 0.84146 0.24003 0.0
H1900 H 0.76498 0.7925 0.23151 0.0
H1901 H 0.59897 0.80039 0.26277 0.0
H1902 H 0.55476 0.81329 0.25311 0.0
H1903 H 0.59412 0.85586 0.25734 0.0
C1904 C 0.20523 0.17693 0.47798 0.0
C1905 C 0.21082 0.13051 0.47667 0.0
C1906 C 0.19143 0.19527 0.48815 0.0
C1907 C 0.18193 0.16645 0.49716 0.0
C1908 C 0.18836 0.11967 0.49596 0.0
C1909 C 0.20321 0.10235 0.48579 0.0
C1910 C 0.18596 0.2454 0.48915 0.0
C1911 C 0.17783 0.08767 0.50529 0.0
C1912 C 0.1715 0.20993 0.52671 0.0
C1913 C 0.12484 0.21402 0.52786 0.0
C1914 C 0.19072 0.19594 0.51665 0.0
C1915 C 0.16261 0.18477 0.50761 0.0
C1916 C 0.11559 0.1895 0.50867 0.0
C1917 C 0.09737 0.20454 0.51871 0.0
C1918 C 0.24106 0.19231 0.51577 0.0
C1919 C 0.08432 0.17724 0.4993 0.0
H1920 H 0.21126 0.19904 0.47103 0.0
H1921 H 0.20727 0.06645 0.48488 0.0
H1922 H 0.15001 0.25376 0.49024 0.0
H1923 H 0.204 0.25792 0.49657 0.0
H1924 H 0.1987 0.26343 0.48175 0.0
H1925 H 0.1859 0.05237 0.50315 0.0
H1926 H 0.1969 0.09708 0.51283 0.0
H1927 H 0.14168 0.08978 0.50739 0.0
H1928 H 0.19307 0.21729 0.5337 0.0
H1929 H 0.0613 0.20739 0.51949 0.0
H1930 H 0.25317 0.21101 0.50841 0.0
H1931 H 0.25078 0.15674 0.51463 0.0
H1932 H 0.25834 0.2055 0.52324 0.0
H1933 H 0.09264 0.197 0.4918 0.0
H1934 H 0.04857 0.18317 0.50143 0.0
H1935 H 0.08856 0.14133 0.49715 0.0
C1936 C 0.86617 0.65729 0.72728 0.0
C1937 C 0.87493 0.70277 0.72547 0.0
C1938 C 0.85007 0.64225 0.73755 0.0
C1939 C 0.84086 0.67377 0.74603 0.0
C1940 C 0.84821 0.72002 0.74407 0.0
C1941 C 0.86614 0.73388 0.73387 0.0
C1942 C 0.84427 0.59255 0.73943 0.0
C1943 C 0.83724 0.7548 0.75273 0.0
C1944 C 0.76438 0.63255 0.76909 0.0
C1945 C 0.79513 0.62475 0.77763 0.0
C1946 C 0.77856 0.65013 0.75888 0.0
C1947 C 0.82481 0.65813 0.75705 0.0
C1948 C 0.85597 0.64994 0.76568 0.0
C1949 C 0.84058 0.63418 0.77595 0.0
C1950 C 0.74413 0.66002 0.75006 0.0
C1951 C 0.90568 0.65645 0.76395 0.0
H1952 H 0.87351 0.6333 0.72077 0.0
H1953 H 0.87283 0.76911 0.7324 0.0
H1954 H 0.86522 0.58174 0.74654 0.0
H1955 H 0.80893 0.58494 0.74156 0.0
H1956 H 0.85376 0.57245 0.73205 0.0
H1957 H 0.84159 0.78951 0.74959 0.0
H1958 H 0.80212 0.75059 0.75558 0.0
H1959 H 0.85921 0.75029 0.76006 0.0
H1960 H 0.72918 0.62535 0.77046 0.0
H1961 H 0.8643 0.62758 0.78256 0.0
H1962 H 0.7494 0.63767 0.74284 0.0
H1963 H 0.74797 0.69501 0.74709 0.0
H1964 H 0.7093 0.65534 0.7531 0.0
H1965 H 0.91727 0.63522 0.75697 0.0
H1966 H 0.92549 0.64777 0.77144 0.0
H1967 H 0.91285 0.69176 0.76171 0.0
loop_
_geom_bond_atom_site_label_1
_geom_bond_atom_site_label_2
_geom_bond_distance
_geom_bond_site_symmetry_2
_ccdc_geom_bond_type
Co0 O2 2.143 . S
Co0 O8 2.074 . S
Co0 O11 2.093 . S
Co0 O24 2.097 . S
Co0 N41 2.151 . S
Co0 N49 2.214 . S
Co1 O2 2.160 . S
Co1 O7 2.058 . S
Co1 O17 2.057 . S
Co1 O32 2.037 . S
Co1 N36 2.145 . S
Co1 N57 2.257 . S
O2 Co0 2.143 . S
O2 Co1 2.160 . S
C3 O4 1.278 . S
C3 O11 1.224 . S
O4 C3 1.278 . S
C5 O6 1.245 . S
C5 O17 1.232 . S
O6 C5 1.245 . S
O7 Co1 2.058 . S
O7 C33 1.269 . S
O8 Co0 2.074 . S
O8 C33 1.257 . S
H9 C34 0.930 . S
H10 C40 0.930 . S
O11 Co0 2.093 . S
O11 C3 1.224 . S
H12 C44 0.929 . S
H13 C46 0.930 . S
H14 C47 0.930 . S
H15 C45 0.929 . S
H16 C48 0.928 . S
O17 Co1 2.057 . S
O17 C5 1.232 . S
H18 C37 0.929 . S
H19 C38 0.929 . S
H20 C50 0.931 . S
H21 C42 0.929 . S
H22 C51 0.930 . S
H23 C43 0.931 . S
O24 Co0 2.097 . S
O24 C52 1.214 . S
H25 C53 0.929 . S
H26 C54 0.929 . S
H27 C55 0.930 . S
H28 C56 0.929 . S
H29 C58 0.930 . S
H30 C35 0.930 . S
H31 C39 0.930 . S
O32 Co1 2.037 . S
O32 C52 1.234 . S
C33 O7 1.269 . S
C33 O8 1.257 . S
C34 H9 0.930 . S
C34 C37 1.388 1_565 S
C34 C39 1.418 . S
C35 H30 0.930 . S
C35 C38 1.404 . S
C35 C39 1.353 . S
N36 Co1 2.145 . S
N36 C37 1.397 . S
N36 C38 1.334 1_545 S
C37 H18 0.929 . S
C37 C34 1.388 1_545 S
C37 N36 1.397 . S
C38 H19 0.929 . S
C38 C35 1.404 . S
C38 N36 1.334 1_565 S
C39 H31 0.930 . S
C39 C34 1.418 . S
C39 C35 1.353 . S
C40 H10 0.930 . S
C40 N41 1.330 . S
C40 C42 1.446 . S
N41 Co0 2.151 . S
N41 C40 1.330 . S
N41 C45 1.418 . S
C42 H21 0.929 . S
C42 C40 1.446 . S
C42 C43 1.332 . S
C43 H23 0.931 . S
C43 C42 1.332 . S
C43 C44 1.267 . S
C44 H12 0.929 . S
C44 C43 1.267 . S
C44 C45 1.251 . S
C45 H15 0.929 . S
C45 N41 1.418 . S
C45 C44 1.251 . S
C46 H13 0.930 . S
C46 C48 1.406 . S
C46 C51 1.261 . S
C47 H14 0.930 . S
C47 N49 1.325 . S
C47 C50 1.357 . S
C48 H16 0.928 . S
C48 C46 1.406 . S
C48 N49 1.261 . S
N49 Co0 2.214 . S
N49 C47 1.325 . S
N49 C48 1.261 . S
C50 H20 0.931 . S
C50 C47 1.357 . S
C50 C51 1.312 . S
C51 H22 0.930 . S
C51 C46 1.261 . S
C51 C50 1.312 . S
C52 O24 1.214 . S
C52 O32 1.234 . S
C53 H25 0.929 . S
C53 C56 1.391 . S
C53 C58 1.391 1_565 S
C54 H26 0.929 . S
C54 C55 1.390 . S
C54 N57 1.391 1_565 S
C55 H27 0.930 . S
C55 C54 1.390 . S
C55 C56 1.392 . S
C56 H28 0.929 . S
C56 C53 1.391 . S
C56 C55 1.392 . S
N57 Co1 2.257 . S
N57 C54 1.391 1_545 S
N57 C58 1.388 . S
C58 H29 0.930 . S
C58 C53 1.391 1_545 S
C58 N57 1.388 . S
Co59 O61 2.143 . S
Co59 O67 2.074 . S
Co59 O70 2.093 . S
Co59 O83 2.097 . S
Co59 N100 2.151 . S
Co59 N108 2.214 . S
Co60 O61 2.160 . S
Co60 O66 2.058 . S
Co60 O76 2.057 . S
Co60 O91 2.037 . S
Co60 N95 2.145 . S
Co60 N116 2.257 . S
O61 Co59 2.143 . S
O61 Co60 2.160 . S
C62 O63 1.278 . S
C62 O70 1.224 . S
O63 C62 1.278 . S
C64 O65 1.245 . S
C64 O76 1.232 . S
O65 C64 1.245 . S
O66 Co60 2.058 . S
O66 C92 1.269 . S
O67 Co59 2.074 . S
O67 C92 1.257 . S
H68 C93 0.930 . S
H69 C99 0.930 . S
O70 Co59 2.093 . S
O70 C62 1.224 . S
H71 C103 0.929 . S
H72 C105 0.930 . S
H73 C106 0.930 . S
H74 C104 0.929 . S
H75 C107 0.928 . S
O76 Co60 2.057 . S
O76 C64 1.232 . S
H77 C96 0.929 . S
H78 C97 0.929 . S
H79 C109 0.931 . S
H80 C101 0.929 . S
H81 C110 0.930 . S
H82 C102 0.931 . S
O83 Co59 2.097 . S
O83 C111 1.214 . S
H84 C112 0.929 . S
H85 C113 0.929 . S
H86 C114 0.930 . S
H87 C115 0.929 . S
H88 C117 0.930 . S
H89 C94 0.930 . S
H90 C98 0.930 . S
O91 Co60 2.037 . S
O91 C111 1.234 . S
C92 O66 1.269 . S
C92 O67 1.257 . S
C93 H68 0.930 . S
C93 C96 1.388 1_455 S
C93 C98 1.418 . S
C94 H89 0.930 . S
C94 C97 1.404 . S
C94 C98 1.353 . S
N95 Co60 2.145 . S
N95 C96 1.397 . S
N95 C97 1.334 1_655 S
C96 H77 0.929 . S
C96 C93 1.388 1_655 S
C96 N95 1.397 . S
C97 H78 0.929 . S
C97 C94 1.404 . S
C97 N95 1.334 1_455 S
C98 H90 0.930 . S
C98 C93 1.418 . S
C98 C94 1.353 . S
C99 H69 0.930 . S
C99 N100 1.330 . S
C99 C101 1.446 . S
N100 Co59 2.151 . S
N100 C99 1.330 . S
N100 C104 1.418 . S
C101 H80 0.929 . S
C101 C99 1.446 . S
C101 C102 1.332 . S
C102 H82 0.931 . S
C102 C101 1.332 . S
C102 C103 1.267 . S
C103 H71 0.929 . S
C103 C102 1.267 . S
C103 C104 1.251 . S
C104 H74 0.929 . S
C104 N100 1.418 . S
C104 C103 1.251 . S
C105 H72 0.930 . S
C105 C107 1.406 . S
C105 C110 1.261 . S
C106 H73 0.930 . S
C106 N108 1.325 . S
C106 C109 1.357 . S
C107 H75 0.928 . S
C107 C105 1.406 . S
C107 N108 1.261 . S
N108 Co59 2.214 . S
N108 C106 1.325 . S
N108 C107 1.261 . S
C109 H79 0.931 . S
C109 C106 1.357 . S
C109 C110 1.312 . S
C110 H81 0.930 . S
C110 C105 1.261 . S
C110 C109 1.312 . S
C111 O83 1.214 . S
C111 O91 1.234 . S
C112 H84 0.929 . S
C112 C115 1.391 . S
C112 C117 1.391 1_455 S
C113 H85 0.929 . S
C113 C114 1.390 . S
C113 N116 1.391 1_455 S
C114 H86 0.930 . S
C114 C113 1.390 . S
C114 C115 1.392 . S
C115 H87 0.929 . S
C115 C112 1.391 . S
C115 C114 1.392 . S
N116 Co60 2.257 . S
N116 C113 1.391 1_655 S
N116 C117 1.388 . S
C117 H88 0.930 . S
C117 C112 1.391 1_655 S
C117 N116 1.388 . S
Co118 O120 2.143 . S
Co118 O126 2.074 . S
Co118 O129 2.093 . S
Co118 O142 2.097 . S
Co118 N159 2.151 . S
Co118 N167 2.214 . S
Co119 O120 2.160 . S
Co119 O125 2.058 . S
Co119 O135 2.057 . S
Co119 O150 2.037 . S
Co119 N154 2.145 . S
Co119 N175 2.257 . S
O120 Co118 2.143 . S
O120 Co119 2.160 . S
C121 O122 1.278 . S
C121 O129 1.224 . S
O122 C121 1.278 . S
C123 O124 1.245 . S
C123 O135 1.232 . S
O124 C123 1.245 . S
O125 Co119 2.058 . S
O125 C151 1.269 . S
O126 Co118 2.074 . S
O126 C151 1.257 . S
H127 C152 0.930 . S
H128 C158 0.930 . S
O129 Co118 2.093 . S
O129 C121 1.224 . S
H130 C162 0.929 . S
H131 C164 0.930 . S
H132 C165 0.930 . S
H133 C163 0.929 . S
H134 C166 0.928 . S
O135 Co119 2.057 . S
O135 C123 1.232 . S
H136 C155 0.929 . S
H137 C156 0.929 . S
H138 C168 0.931 . S
H139 C160 0.929 . S
H140 C169 0.930 . S
H141 C161 0.931 . S
O142 Co118 2.097 . S
O142 C170 1.214 . S
H143 C171 0.929 . S
H144 C172 0.929 . S
H145 C173 0.930 . S
H146 C174 0.929 . S
H147 C176 0.930 . S
H148 C153 0.930 . S
H149 C157 0.930 . S
O150 Co119 2.037 . S
O150 C170 1.234 . S
C151 O125 1.269 . S
C151 O126 1.257 . S
C152 H127 0.930 . S
C152 C155 1.388 . S
C152 C157 1.418 . S
C153 H148 0.930 . S
C153 C156 1.404 . S
C153 C157 1.353 . S
N154 Co119 2.145 . S
N154 C155 1.397 . S
N154 C156 1.334 . S
C155 H136 0.929 . S
C155 C152 1.388 . S
C155 N154 1.397 . S
C156 H137 0.929 . S
C156 C153 1.404 . S
C156 N154 1.334 . S
C157 H149 0.930 . S
C157 C152 1.418 . S
C157 C153 1.353 . S
C158 H128 0.930 . S
C158 N159 1.330 . S
C158 C160 1.446 . S
N159 Co118 2.151 . S
N159 C158 1.330 . S
N159 C163 1.418 . S
C160 H139 0.929 . S
C160 C158 1.446 . S
C160 C161 1.332 . S
C161 H141 0.931 . S
C161 C160 1.332 . S
C161 C162 1.267 . S
C162 H130 0.929 . S
C162 C161 1.267 . S
C162 C163 1.251 . S
C163 H133 0.929 . S
C163 N159 1.418 . S
C163 C162 1.251 . S
C164 H131 0.930 . S
C164 C166 1.406 . S
C164 C169 1.261 . S
C165 H132 0.930 . S
C165 N167 1.325 . S
C165 C168 1.357 . S
C166 H134 0.928 . S
C166 C164 1.406 . S
C166 N167 1.261 . S
N167 Co118 2.214 . S
N167 C165 1.325 . S
N167 C166 1.261 . S
C168 H138 0.931 . S
C168 C165 1.357 . S
C168 C169 1.312 . S
C169 H140 0.930 . S
C169 C164 1.261 . S
C169 C168 1.312 . S
C170 O142 1.214 . S
C170 O150 1.234 . S
C171 H143 0.929 . S
C171 C174 1.391 . S
C171 C176 1.391 . S
C172 H144 0.929 . S
C172 C173 1.390 . S
C172 N175 1.391 . S
C173 H145 0.930 . S
C173 C172 1.390 . S
C173 C174 1.392 . S
C174 H146 0.929 . S
C174 C171 1.391 . S
C174 C173 1.392 . S
N175 Co119 2.257 . S
N175 C172 1.391 . S
N175 C176 1.388 . S
C176 H147 0.930 . S
C176 C171 1.391 . S
C176 N175 1.388 . S
Co177 O179 2.143 . S
Co177 O185 2.074 . S
Co177 O188 2.093 . S
Co177 O201 2.097 . S
Co177 N218 2.151 . S
Co177 N226 2.214 . S
Co178 O179 2.160 . S
Co178 O184 2.058 . S
Co178 O194 2.057 . S
Co178 O209 2.037 . S
Co178 N213 2.145 . S
Co178 N234 2.257 . S
O179 Co177 2.143 . S
O179 Co178 2.160 . S
C180 O181 1.278 . S
C180 O188 1.224 . S
O181 C180 1.278 . S
C182 O183 1.245 . S
C182 O194 1.232 . S
O183 C182 1.245 . S
O184 Co178 2.058 . S
O184 C210 1.269 . S
O185 Co177 2.074 . S
O185 C210 1.257 . S
H186 C211 0.930 . S
H187 C217 0.930 . S
O188 Co177 2.093 . S
O188 C180 1.224 . S
H189 C221 0.929 . S
H190 C223 0.930 . S
H191 C224 0.930 . S
H192 C222 0.929 . S
H193 C225 0.928 . S
O194 Co178 2.057 . S
O194 C182 1.232 . S
H195 C214 0.929 . S
H196 C215 0.929 . S
H197 C227 0.931 . S
H198 C219 0.929 . S
H199 C228 0.930 . S
H200 C220 0.931 . S
O201 Co177 2.097 . S
O201 C229 1.214 . S
H202 C230 0.929 . S
H203 C231 0.929 . S
H204 C232 0.930 . S
H205 C233 0.929 . S
H206 C235 0.930 . S
H207 C212 0.930 . S
H208 C216 0.930 . S
O209 Co178 2.037 . S
O209 C229 1.234 . S
C210 O184 1.269 . S
C210 O185 1.257 . S
C211 H186 0.930 . S
C211 C214 1.388 . S
C211 C216 1.418 . S
C212 H207 0.930 . S
C212 C215 1.404 . S
C212 C216 1.353 . S
N213 Co178 2.145 . S
N213 C214 1.397 . S
N213 C215 1.334 . S
C214 H195 0.929 . S
C214 C211 1.388 . S
C214 N213 1.397 . S
C215 H196 0.929 . S
C215 C212 1.404 . S
C215 N213 1.334 . S
C216 H208 0.930 . S
C216 C211 1.418 . S
C216 C212 1.353 . S
C217 H187 0.930 . S
C217 N218 1.330 . S
C217 C219 1.446 . S
N218 Co177 2.151 . S
N218 C217 1.330 . S
N218 C222 1.418 . S
C219 H198 0.929 . S
C219 C217 1.446 . S
C219 C220 1.332 . S
C220 H200 0.931 . S
C220 C219 1.332 . S
C220 C221 1.267 . S
C221 H189 0.929 . S
C221 C220 1.267 . S
C221 C222 1.251 . S
C222 H192 0.929 . S
C222 N218 1.418 . S
C222 C221 1.251 . S
C223 H190 0.930 . S
C223 C225 1.406 . S
C223 C228 1.261 . S
C224 H191 0.930 . S
C224 N226 1.325 . S
C224 C227 1.357 . S
C225 H193 0.928 . S
C225 C223 1.406 . S
C225 N226 1.261 . S
N226 Co177 2.214 . S
N226 C224 1.325 . S
N226 C225 1.261 . S
C227 H197 0.931 . S
C227 C224 1.357 . S
C227 C228 1.312 . S
C228 H199 0.930 . S
C228 C223 1.261 . S
C228 C227 1.312 . S
C229 O201 1.214 . S
C229 O209 1.234 . S
C230 H202 0.929 . S
C230 C233 1.391 . S
C230 C235 1.391 . S
C231 H203 0.929 . S
C231 C232 1.390 . S
C231 N234 1.391 . S
C232 H204 0.930 . S
C232 C231 1.390 . S
C232 C233 1.392 . S
C233 H205 0.929 . S
C233 C230 1.391 . S
C233 C232 1.392 . S
N234 Co178 2.257 . S
N234 C231 1.391 . S
N234 C235 1.388 . S
C235 H206 0.930 . S
C235 C230 1.391 . S
C235 N234 1.388 . S
Co236 O238 2.143 . S
Co236 O244 2.074 . S
Co236 O247 2.093 . S
Co236 O260 2.097 . S
Co236 N277 2.151 . S
Co236 N285 2.214 . S
Co237 O238 2.160 . S
Co237 O243 2.058 . S
Co237 O253 2.057 . S
Co237 O268 2.037 . S
Co237 N272 2.145 . S
Co237 N293 2.257 . S
O238 Co236 2.143 . S
O238 Co237 2.160 . S
C239 O240 1.278 . S
C239 O247 1.224 . S
O240 C239 1.278 . S
C241 O242 1.245 . S
C241 O253 1.232 . S
O242 C241 1.245 . S
O243 Co237 2.058 . S
O243 C269 1.269 . S
O244 Co236 2.074 . S
O244 C269 1.257 . S
H245 C270 0.930 . S
H246 C276 0.930 . S
O247 Co236 2.093 . S
O247 C239 1.224 . S
H248 C280 0.929 . S
H249 C282 0.930 . S
H250 C283 0.930 . S
H251 C281 0.929 . S
H252 C284 0.928 . S
O253 Co237 2.057 . S
O253 C241 1.232 . S
H254 C273 0.929 . S
H255 C274 0.929 . S
H256 C286 0.931 . S
H257 C278 0.929 . S
H258 C287 0.930 . S
H259 C279 0.931 . S
O260 Co236 2.097 . S
O260 C288 1.214 . S
H261 C289 0.929 . S
H262 C290 0.929 . S
H263 C291 0.930 . S
H264 C292 0.929 . S
H265 C294 0.930 . S
H266 C271 0.930 . S
H267 C275 0.930 . S
O268 Co237 2.037 . S
O268 C288 1.234 . S
C269 O243 1.269 . S
C269 O244 1.257 . S
C270 H245 0.930 . S
C270 C273 1.388 . S
C270 C275 1.418 . S
C271 H266 0.930 . S
C271 C274 1.404 . S
C271 C275 1.353 . S
N272 Co237 2.145 . S
N272 C273 1.397 . S
N272 C274 1.334 . S
C273 H254 0.929 . S
C273 C270 1.388 . S
C273 N272 1.397 . S
C274 H255 0.929 . S
C274 C271 1.404 . S
C274 N272 1.334 . S
C275 H267 0.930 . S
C275 C270 1.418 . S
C275 C271 1.353 . S
C276 H246 0.930 . S
C276 N277 1.330 . S
C276 C278 1.446 . S
N277 Co236 2.151 . S
N277 C276 1.330 . S
N277 C281 1.418 . S
C278 H257 0.929 . S
C278 C276 1.446 . S
C278 C279 1.332 . S
C279 H259 0.931 . S
C279 C278 1.332 . S
C279 C280 1.267 . S
C280 H248 0.929 . S
C280 C279 1.267 . S
C280 C281 1.251 . S
C281 H251 0.929 . S
C281 N277 1.418 . S
C281 C280 1.251 . S
C282 H249 0.930 . S
C282 C284 1.406 . S
C282 C287 1.261 . S
C283 H250 0.930 . S
C283 N285 1.325 . S
C283 C286 1.357 . S
C284 H252 0.928 . S
C284 C282 1.406 . S
C284 N285 1.261 . S
N285 Co236 2.214 . S
N285 C283 1.325 . S
N285 C284 1.261 . S
C286 H256 0.931 . S
C286 C283 1.357 . S
C286 C287 1.312 . S
C287 H258 0.930 . S
C287 C282 1.261 . S
C287 C286 1.312 . S
C288 O260 1.214 . S
C288 O268 1.234 . S
C289 H261 0.929 . S
C289 C292 1.391 . S
C289 C294 1.391 . S
C290 H262 0.929 . S
C290 C291 1.390 . S
C290 N293 1.391 . S
C291 H263 0.930 . S
C291 C290 1.390 . S
C291 C292 1.392 . S
C292 H264 0.929 . S
C292 C289 1.391 . S
C292 C291 1.392 . S
N293 Co237 2.257 . S
N293 C290 1.391 . S
N293 C294 1.388 . S
C294 H265 0.930 . S
C294 C289 1.391 . S
C294 N293 1.388 . S
Co295 O297 2.143 . S
Co295 O303 2.074 . S
Co295 O306 2.093 . S
Co295 O319 2.097 . S
Co295 N336 2.151 . S
Co295 N344 2.214 . S
Co296 O297 2.160 . S
Co296 O302 2.058 . S
Co296 O312 2.057 . S
Co296 O327 2.037 . S
Co296 N331 2.145 . S
Co296 N352 2.257 . S
O297 Co295 2.143 . S
O297 Co296 2.160 . S
C298 O299 1.278 . S
C298 O306 1.224 . S
O299 C298 1.278 . S
C300 O301 1.245 . S
C300 O312 1.232 . S
O301 C300 1.245 . S
O302 Co296 2.058 . S
O302 C328 1.269 . S
O303 Co295 2.074 . S
O303 C328 1.257 . S
H304 C329 0.930 . S
H305 C335 0.930 . S
O306 Co295 2.093 . S
O306 C298 1.224 . S
H307 C339 0.929 . S
H308 C341 0.930 . S
H309 C342 0.930 . S
H310 C340 0.929 . S
H311 C343 0.928 . S
O312 Co296 2.057 . S
O312 C300 1.232 . S
H313 C332 0.929 . S
H314 C333 0.929 . S
H315 C345 0.931 . S
H316 C337 0.929 . S
H317 C346 0.930 . S
H318 C338 0.931 . S
O319 Co295 2.097 . S
O319 C347 1.214 . S
H320 C348 0.929 . S
H321 C349 0.929 . S
H322 C350 0.930 . S
H323 C351 0.929 . S
H324 C353 0.930 . S
H325 C330 0.930 . S
H326 C334 0.930 . S
O327 Co296 2.037 . S
O327 C347 1.234 . S
C328 O302 1.269 . S
C328 O303 1.257 . S
C329 H304 0.930 . S
C329 C332 1.388 . S
C329 C334 1.418 . S
C330 H325 0.930 . S
C330 C333 1.404 . S
C330 C334 1.353 . S
N331 Co296 2.145 . S
N331 C332 1.397 . S
N331 C333 1.334 . S
C332 H313 0.929 . S
C332 C329 1.388 . S
C332 N331 1.397 . S
C333 H314 0.929 . S
C333 C330 1.404 . S
C333 N331 1.334 . S
C334 H326 0.930 . S
C334 C329 1.418 . S
C334 C330 1.353 . S
C335 H305 0.930 . S
C335 N336 1.330 . S
C335 C337 1.446 . S
N336 Co295 2.151 . S
N336 C335 1.330 . S
N336 C340 1.418 . S
C337 H316 0.929 . S
C337 C335 1.446 . S
C337 C338 1.332 . S
C338 H318 0.931 . S
C338 C337 1.332 . S
C338 C339 1.267 . S
C339 H307 0.929 . S
C339 C338 1.267 . S
C339 C340 1.251 . S
C340 H310 0.929 . S
C340 N336 1.418 . S
C340 C339 1.251 . S
C341 H308 0.930 . S
C341 C343 1.406 . S
C341 C346 1.261 . S
C342 H309 0.930 . S
C342 N344 1.325 . S
C342 C345 1.357 . S
C343 H311 0.928 . S
C343 C341 1.406 . S
C343 N344 1.261 . S
N344 Co295 2.214 . S
N344 C342 1.325 . S
N344 C343 1.261 . S
C345 H315 0.931 . S
C345 C342 1.357 . S
C345 C346 1.312 . S
C346 H317 0.930 . S
C346 C341 1.261 . S
C346 C345 1.312 . S
C347 O319 1.214 . S
C347 O327 1.234 . S
C348 H320 0.929 . S
C348 C351 1.391 . S
C348 C353 1.391 . S
C349 H321 0.929 . S
C349 C350 1.390 . S
C349 N352 1.391 . S
C350 H322 0.930 . S
C350 C349 1.390 . S
C350 C351 1.392 . S
C351 H323 0.929 . S
C351 C348 1.391 . S
C351 C350 1.392 . S
N352 Co296 2.257 . S
N352 C349 1.391 . S
N352 C353 1.388 . S
C353 H324 0.930 . S
C353 C348 1.391 . S
C353 N352 1.388 . S
Co354 O356 2.143 . S
Co354 O362 2.074 . S
Co354 O365 2.093 . S
Co354 O378 2.097 . S
Co354 N395 2.151 . S
Co354 N403 2.214 . S
Co355 O356 2.160 . S
Co355 O361 2.058 . S
Co355 O371 2.057 . S
Co355 O386 2.037 . S
Co355 N390 2.145 . S
Co355 N411 2.257 . S
O356 Co354 2.143 . S
O356 Co355 2.160 . S
C357 O358 1.278 . S
C357 O365 1.224 . S
O358 C357 1.278 . S
C359 O360 1.245 . S
C359 O371 1.232 . S
O360 C359 1.245 . S
O361 Co355 2.058 . S
O361 C387 1.269 . S
O362 Co354 2.074 . S
O362 C387 1.257 . S
H363 C388 0.930 . S
H364 C394 0.930 . S
O365 Co354 2.093 . S
O365 C357 1.224 . S
H366 C398 0.929 . S
H367 C400 0.930 . S
H368 C401 0.930 . S
H369 C399 0.929 . S
H370 C402 0.928 . S
O371 Co355 2.057 . S
O371 C359 1.232 . S
H372 C391 0.929 . S
H373 C392 0.929 . S
H374 C404 0.931 . S
H375 C396 0.929 . S
H376 C405 0.930 . S
H377 C397 0.931 . S
O378 Co354 2.097 . S
O378 C406 1.214 . S
H379 C407 0.929 . S
H380 C408 0.929 . S
H381 C409 0.930 . S
H382 C410 0.929 . S
H383 C412 0.930 . S
H384 C389 0.930 . S
H385 C393 0.930 . S
O386 Co355 2.037 . S
O386 C406 1.234 . S
C387 O361 1.269 . S
C387 O362 1.257 . S
C388 H363 0.930 . S
C388 C391 1.388 1_565 S
C388 C393 1.418 . S
C389 H384 0.930 . S
C389 C392 1.404 . S
C389 C393 1.353 . S
N390 Co355 2.145 . S
N390 C391 1.397 . S
N390 C392 1.334 1_545 S
C391 H372 0.929 . S
C391 C388 1.388 1_545 S
C391 N390 1.397 . S
C392 H373 0.929 . S
C392 C389 1.404 . S
C392 N390 1.334 1_565 S
C393 H385 0.930 . S
C393 C388 1.418 . S
C393 C389 1.353 . S
C394 H364 0.930 . S
C394 N395 1.330 . S
C394 C396 1.446 . S
N395 Co354 2.151 . S
N395 C394 1.330 . S
N395 C399 1.418 . S
C396 H375 0.929 . S
C396 C394 1.446 . S
C396 C397 1.332 . S
C397 H377 0.931 . S
C397 C396 1.332 . S
C397 C398 1.267 . S
C398 H366 0.929 . S
C398 C397 1.267 . S
C398 C399 1.251 . S
C399 H369 0.929 . S
C399 N395 1.418 . S
C399 C398 1.251 . S
C400 H367 0.930 . S
C400 C402 1.406 . S
C400 C405 1.261 . S
C401 H368 0.930 . S
C401 N403 1.325 . S
C401 C404 1.357 . S
C402 H370 0.928 . S
C402 C400 1.406 . S
C402 N403 1.261 . S
N403 Co354 2.214 . S
N403 C401 1.325 . S
N403 C402 1.261 . S
C404 H374 0.931 . S
C404 C401 1.357 . S
C404 C405 1.312 . S
C405 H376 0.930 . S
C405 C400 1.261 . S
C405 C404 1.312 . S
C406 O378 1.214 . S
C406 O386 1.234 . S
C407 H379 0.929 . S
C407 C410 1.391 . S
C407 C412 1.391 1_565 S
C408 H380 0.929 . S
C408 C409 1.390 . S
C408 N411 1.391 1_565 S
C409 H381 0.930 . S
C409 C408 1.390 . S
C409 C410 1.392 . S
C410 H382 0.929 . S
C410 C407 1.391 . S
C410 C409 1.392 . S
N411 Co355 2.257 . S
N411 C408 1.391 1_545 S
N411 C412 1.388 . S
C412 H383 0.930 . S
C412 C407 1.391 1_545 S
C412 N411 1.388 . S
Co413 O415 2.143 . S
Co413 O421 2.074 . S
Co413 O424 2.093 . S
Co413 O437 2.097 . S
Co413 N454 2.151 . S
Co413 N462 2.214 . S
Co414 O415 2.160 . S
Co414 O420 2.058 . S
Co414 O430 2.057 . S
Co414 O445 2.037 . S
Co414 N449 2.145 . S
Co414 N470 2.257 . S
O415 Co413 2.143 . S
O415 Co414 2.160 . S
C416 O417 1.278 . S
C416 O424 1.224 . S
O417 C416 1.278 . S
C418 O419 1.245 . S
C418 O430 1.232 . S
O419 C418 1.245 . S
O420 Co414 2.058 . S
O420 C446 1.269 . S
O421 Co413 2.074 . S
O421 C446 1.257 . S
H422 C447 0.930 . S
H423 C453 0.930 . S
O424 Co413 2.093 . S
O424 C416 1.224 . S
H425 C457 0.929 . S
H426 C459 0.930 . S
H427 C460 0.930 . S
H428 C458 0.929 . S
H429 C461 0.928 . S
O430 Co414 2.057 . S
O430 C418 1.232 . S
H431 C450 0.929 . S
H432 C451 0.929 . S
H433 C463 0.931 . S
H434 C455 0.929 . S
H435 C464 0.930 . S
H436 C456 0.931 . S
O437 Co413 2.097 . S
O437 C465 1.214 . S
H438 C466 0.929 . S
H439 C467 0.929 . S
H440 C468 0.930 . S
H441 C469 0.929 . S
H442 C471 0.930 . S
H443 C448 0.930 . S
H444 C452 0.930 . S
O445 Co414 2.037 . S
O445 C465 1.234 . S
C446 O420 1.269 . S
C446 O421 1.257 . S
C447 H422 0.930 . S
C447 C450 1.388 1_455 S
C447 C452 1.418 . S
C448 H443 0.930 . S
C448 C451 1.404 . S
C448 C452 1.353 . S
N449 Co414 2.145 . S
N449 C450 1.397 . S
N449 C451 1.334 1_655 S
C450 H431 0.929 . S
C450 C447 1.388 1_655 S
C450 N449 1.397 . S
C451 H432 0.929 . S
C451 C448 1.404 . S
C451 N449 1.334 1_455 S
C452 H444 0.930 . S
C452 C447 1.418 . S
C452 C448 1.353 . S
C453 H423 0.930 . S
C453 N454 1.330 . S
C453 C455 1.446 . S
N454 Co413 2.151 . S
N454 C453 1.330 . S
N454 C458 1.418 . S
C455 H434 0.929 . S
C455 C453 1.446 . S
C455 C456 1.332 . S
C456 H436 0.931 . S
C456 C455 1.332 . S
C456 C457 1.267 . S
C457 H425 0.929 . S
C457 C456 1.267 . S
C457 C458 1.251 . S
C458 H428 0.929 . S
C458 N454 1.418 . S
C458 C457 1.251 . S
C459 H426 0.930 . S
C459 C461 1.406 . S
C459 C464 1.261 . S
C460 H427 0.930 . S
C460 N462 1.325 . S
C460 C463 1.357 . S
C461 H429 0.928 . S
C461 C459 1.406 . S
C461 N462 1.261 . S
N462 Co413 2.214 . S
N462 C460 1.325 . S
N462 C461 1.261 . S
C463 H433 0.931 . S
C463 C460 1.357 . S
C463 C464 1.312 . S
C464 H435 0.930 . S
C464 C459 1.261 . S
C464 C463 1.312 . S
C465 O437 1.214 . S
C465 O445 1.234 . S
C466 H438 0.929 . S
C466 C469 1.391 . S
C466 C471 1.391 1_455 S
C467 H439 0.929 . S
C467 C468 1.390 . S
C467 N470 1.391 1_455 S
C468 H440 0.930 . S
C468 C467 1.390 . S
C468 C469 1.392 . S
C469 H441 0.929 . S
C469 C466 1.391 . S
C469 C468 1.392 . S
N470 Co414 2.257 . S
N470 C467 1.391 1_655 S
N470 C471 1.388 . S
C471 H442 0.930 . S
C471 C466 1.391 1_655 S
C471 N470 1.388 . S
Co472 O474 2.143 . S
Co472 O480 2.074 . S
Co472 O483 2.093 . S
Co472 O496 2.097 . S
Co472 N513 2.151 . S
Co472 N521 2.214 . S
Co473 O474 2.160 . S
Co473 O479 2.058 . S
Co473 O489 2.057 . S
Co473 O504 2.037 . S
Co473 N508 2.145 . S
Co473 N529 2.257 . S
O474 Co472 2.143 . S
O474 Co473 2.160 . S
C475 O476 1.278 . S
C475 O483 1.224 . S
O476 C475 1.278 . S
C477 O478 1.245 . S
C477 O489 1.232 . S
O478 C477 1.245 . S
O479 Co473 2.058 . S
O479 C505 1.269 . S
O480 Co472 2.074 . S
O480 C505 1.257 . S
H481 C506 0.930 . S
H482 C512 0.930 . S
O483 Co472 2.093 . S
O483 C475 1.224 . S
H484 C516 0.929 . S
H485 C518 0.930 . S
H486 C519 0.930 . S
H487 C517 0.929 . S
H488 C520 0.928 . S
O489 Co473 2.057 . S
O489 C477 1.232 . S
H490 C509 0.929 . S
H491 C510 0.929 . S
H492 C522 0.931 . S
H493 C514 0.929 . S
H494 C523 0.930 . S
H495 C515 0.931 . S
O496 Co472 2.097 . S
O496 C524 1.214 . S
H497 C525 0.929 . S
H498 C526 0.929 . S
H499 C527 0.930 . S
H500 C528 0.929 . S
H501 C530 0.930 . S
H502 C507 0.930 . S
H503 C511 0.930 . S
O504 Co473 2.037 . S
O504 C524 1.234 . S
C505 O479 1.269 . S
C505 O480 1.257 . S
C506 H481 0.930 . S
C506 C509 1.388 . S
C506 C511 1.418 . S
C507 H502 0.930 . S
C507 C510 1.404 . S
C507 C511 1.353 . S
N508 Co473 2.145 . S
N508 C509 1.397 . S
N508 C510 1.334 . S
C509 H490 0.929 . S
C509 C506 1.388 . S
C509 N508 1.397 . S
C510 H491 0.929 . S
C510 C507 1.404 . S
C510 N508 1.334 . S
C511 H503 0.930 . S
C511 C506 1.418 . S
C511 C507 1.353 . S
C512 H482 0.930 . S
C512 N513 1.330 . S
C512 C514 1.446 . S
N513 Co472 2.151 . S
N513 C512 1.330 . S
N513 C517 1.418 . S
C514 H493 0.929 . S
C514 C512 1.446 . S
C514 C515 1.332 . S
C515 H495 0.931 . S
C515 C514 1.332 . S
C515 C516 1.267 . S
C516 H484 0.929 . S
C516 C515 1.267 . S
C516 C517 1.251 . S
C517 H487 0.929 . S
C517 N513 1.418 . S
C517 C516 1.251 . S
C518 H485 0.930 . S
C518 C520 1.406 . S
C518 C523 1.261 . S
C519 H486 0.930 . S
C519 N521 1.325 . S
C519 C522 1.357 . S
C520 H488 0.928 . S
C520 C518 1.406 . S
C520 N521 1.261 . S
N521 Co472 2.214 . S
N521 C519 1.325 . S
N521 C520 1.261 . S
C522 H492 0.931 . S
C522 C519 1.357 . S
C522 C523 1.312 . S
C523 H494 0.930 . S
C523 C518 1.261 . S
C523 C522 1.312 . S
C524 O496 1.214 . S
C524 O504 1.234 . S
C525 H497 0.929 . S
C525 C528 1.391 . S
C525 C530 1.391 . S
C526 H498 0.929 . S
C526 C527 1.390 . S
C526 N529 1.391 . S
C527 H499 0.930 . S
C527 C526 1.390 . S
C527 C528 1.392 . S
C528 H500 0.929 . S
C528 C525 1.391 . S
C528 C527 1.392 . S
N529 Co473 2.257 . S
N529 C526 1.391 . S
N529 C530 1.388 . S
C530 H501 0.930 . S
C530 C525 1.391 . S
C530 N529 1.388 . S
Co531 O533 2.143 . S
Co531 O539 2.074 . S
Co531 O542 2.093 . S
Co531 O555 2.097 . S
Co531 N572 2.151 . S
Co531 N580 2.214 . S
Co532 O533 2.160 . S
Co532 O538 2.058 . S
Co532 O548 2.057 . S
Co532 O563 2.037 . S
Co532 N567 2.145 . S
Co532 N588 2.257 . S
O533 Co531 2.143 . S
O533 Co532 2.160 . S
C534 O535 1.278 . S
C534 O542 1.224 . S
O535 C534 1.278 . S
C536 O537 1.245 . S
C536 O548 1.232 . S
O537 C536 1.245 . S
O538 Co532 2.058 . S
O538 C564 1.269 . S
O539 Co531 2.074 . S
O539 C564 1.257 . S
H540 C565 0.930 . S
H541 C571 0.930 . S
O542 Co531 2.093 . S
O542 C534 1.224 . S
H543 C575 0.929 . S
H544 C577 0.930 . S
H545 C578 0.930 . S
H546 C576 0.929 . S
H547 C579 0.928 . S
O548 Co532 2.057 . S
O548 C536 1.232 . S
H549 C568 0.929 . S
H550 C569 0.929 . S
H551 C581 0.931 . S
H552 C573 0.929 . S
H553 C582 0.930 . S
H554 C574 0.931 . S
O555 Co531 2.097 . S
O555 C583 1.214 . S
H556 C584 0.929 . S
H557 C585 0.929 . S
H558 C586 0.930 . S
H559 C587 0.929 . S
H560 C589 0.930 . S
H561 C566 0.930 . S
H562 C570 0.930 . S
O563 Co532 2.037 . S
O563 C583 1.234 . S
C564 O538 1.269 . S
C564 O539 1.257 . S
C565 H540 0.930 . S
C565 C568 1.388 . S
C565 C570 1.418 . S
C566 H561 0.930 . S
C566 C569 1.404 . S
C566 C570 1.353 . S
N567 Co532 2.145 . S
N567 C568 1.397 . S
N567 C569 1.334 . S
C568 H549 0.929 . S
C568 C565 1.388 . S
C568 N567 1.397 . S
C569 H550 0.929 . S
C569 C566 1.404 . S
C569 N567 1.334 . S
C570 H562 0.930 . S
C570 C565 1.418 . S
C570 C566 1.353 . S
C571 H541 0.930 . S
C571 N572 1.330 . S
C571 C573 1.446 . S
N572 Co531 2.151 . S
N572 C571 1.330 . S
N572 C576 1.418 . S
C573 H552 0.929 . S
C573 C571 1.446 . S
C573 C574 1.332 . S
C574 H554 0.931 . S
C574 C573 1.332 . S
C574 C575 1.267 . S
C575 H543 0.929 . S
C575 C574 1.267 . S
C575 C576 1.251 . S
C576 H546 0.929 . S
C576 N572 1.418 . S
C576 C575 1.251 . S
C577 H544 0.930 . S
C577 C579 1.406 . S
C577 C582 1.261 . S
C578 H545 0.930 . S
C578 N580 1.325 . S
C578 C581 1.357 . S
C579 H547 0.928 . S
C579 C577 1.406 . S
C579 N580 1.261 . S
N580 Co531 2.214 . S
N580 C578 1.325 . S
N580 C579 1.261 . S
C581 H551 0.931 . S
C581 C578 1.357 . S
C581 C582 1.312 . S
C582 H553 0.930 . S
C582 C577 1.261 . S
C582 C581 1.312 . S
C583 O555 1.214 . S
C583 O563 1.234 . S
C584 H556 0.929 . S
C584 C587 1.391 . S
C584 C589 1.391 . S
C585 H557 0.929 . S
C585 C586 1.390 . S
C585 N588 1.391 . S
C586 H558 0.930 . S
C586 C585 1.390 . S
C586 C587 1.392 . S
C587 H559 0.929 . S
C587 C584 1.391 . S
C587 C586 1.392 . S
N588 Co532 2.257 . S
N588 C585 1.391 . S
N588 C589 1.388 . S
C589 H560 0.930 . S
C589 C584 1.391 . S
C589 N588 1.388 . S
Co590 O592 2.143 . S
Co590 O598 2.074 . S
Co590 O601 2.093 . S
Co590 O614 2.097 . S
Co590 N631 2.151 . S
Co590 N639 2.214 . S
Co591 O592 2.160 . S
Co591 O597 2.058 . S
Co591 O607 2.057 . S
Co591 O622 2.037 . S
Co591 N626 2.145 . S
Co591 N647 2.257 . S
O592 Co590 2.143 . S
O592 Co591 2.160 . S
C593 O594 1.278 . S
C593 O601 1.224 . S
O594 C593 1.278 . S
C595 O596 1.245 . S
C595 O607 1.232 . S
O596 C595 1.245 . S
O597 Co591 2.058 . S
O597 C623 1.269 . S
O598 Co590 2.074 . S
O598 C623 1.257 . S
H599 C624 0.930 . S
H600 C630 0.930 . S
O601 Co590 2.093 . S
O601 C593 1.224 . S
H602 C634 0.929 . S
H603 C636 0.930 . S
H604 C637 0.930 . S
H605 C635 0.929 . S
H606 C638 0.928 . S
O607 Co591 2.057 . S
O607 C595 1.232 . S
H608 C627 0.929 . S
H609 C628 0.929 . S
H610 C640 0.931 . S
H611 C632 0.929 . S
H612 C641 0.930 . S
H613 C633 0.931 . S
O614 Co590 2.097 . S
O614 C642 1.214 . S
H615 C643 0.929 . S
H616 C644 0.929 . S
H617 C645 0.930 . S
H618 C646 0.929 . S
H619 C648 0.930 . S
H620 C625 0.930 . S
H621 C629 0.930 . S
O622 Co591 2.037 . S
O622 C642 1.234 . S
C623 O597 1.269 . S
C623 O598 1.257 . S
C624 H599 0.930 . S
C624 C627 1.388 1_545 S
C624 C629 1.418 . S
C625 H620 0.930 . S
C625 C628 1.404 . S
C625 C629 1.353 . S
N626 Co591 2.145 . S
N626 C627 1.397 . S
N626 C628 1.334 1_565 S
C627 H608 0.929 . S
C627 C624 1.388 1_565 S
C627 N626 1.397 . S
C628 H609 0.929 . S
C628 C625 1.404 . S
C628 N626 1.334 1_545 S
C629 H621 0.930 . S
C629 C624 1.418 . S
C629 C625 1.353 . S
C630 H600 0.930 . S
C630 N631 1.330 . S
C630 C632 1.446 . S
N631 Co590 2.151 . S
N631 C630 1.330 . S
N631 C635 1.418 . S
C632 H611 0.929 . S
C632 C630 1.446 . S
C632 C633 1.332 . S
C633 H613 0.931 . S
C633 C632 1.332 . S
C633 C634 1.267 . S
C634 H602 0.929 . S
C634 C633 1.267 . S
C634 C635 1.251 . S
C635 H605 0.929 . S
C635 N631 1.418 . S
C635 C634 1.251 . S
C636 H603 0.930 . S
C636 C638 1.406 . S
C636 C641 1.261 . S
C637 H604 0.930 . S
C637 N639 1.325 . S
C637 C640 1.357 . S
C638 H606 0.928 . S
C638 C636 1.406 . S
C638 N639 1.261 . S
N639 Co590 2.214 . S
N639 C637 1.325 . S
N639 C638 1.261 . S
C640 H610 0.931 . S
C640 C637 1.357 . S
C640 C641 1.312 . S
C641 H612 0.930 . S
C641 C636 1.261 . S
C641 C640 1.312 . S
C642 O614 1.214 . S
C642 O622 1.234 . S
C643 H615 0.929 . S
C643 C646 1.391 . S
C643 C648 1.391 1_545 S
C644 H616 0.929 . S
C644 C645 1.390 . S
C644 N647 1.391 1_545 S
C645 H617 0.930 . S
C645 C644 1.390 . S
C645 C646 1.392 . S
C646 H618 0.929 . S
C646 C643 1.391 . S
C646 C645 1.392 . S
N647 Co591 2.257 . S
N647 C644 1.391 1_565 S
N647 C648 1.388 . S
C648 H619 0.930 . S
C648 C643 1.391 1_565 S
C648 N647 1.388 . S
Co649 O651 2.143 . S
Co649 O657 2.074 . S
Co649 O660 2.093 . S
Co649 O673 2.097 . S
Co649 N690 2.151 . S
Co649 N698 2.214 . S
Co650 O651 2.160 . S
Co650 O656 2.058 . S
Co650 O666 2.057 . S
Co650 O681 2.037 . S
Co650 N685 2.145 . S
Co650 N706 2.257 . S
O651 Co649 2.143 . S
O651 Co650 2.160 . S
C652 O653 1.278 . S
C652 O660 1.224 . S
O653 C652 1.278 . S
C654 O655 1.245 . S
C654 O666 1.232 . S
O655 C654 1.245 . S
O656 Co650 2.058 . S
O656 C682 1.269 . S
O657 Co649 2.074 . S
O657 C682 1.257 . S
H658 C683 0.930 . S
H659 C689 0.930 . S
O660 Co649 2.093 . S
O660 C652 1.224 . S
H661 C693 0.929 . S
H662 C695 0.930 . S
H663 C696 0.930 . S
H664 C694 0.929 . S
H665 C697 0.928 . S
O666 Co650 2.057 . S
O666 C654 1.232 . S
H667 C686 0.929 . S
H668 C687 0.929 . S
H669 C699 0.931 . S
H670 C691 0.929 . S
H671 C700 0.930 . S
H672 C692 0.931 . S
O673 Co649 2.097 . S
O673 C701 1.214 . S
H674 C702 0.929 . S
H675 C703 0.929 . S
H676 C704 0.930 . S
H677 C705 0.929 . S
H678 C707 0.930 . S
H679 C684 0.930 . S
H680 C688 0.930 . S
O681 Co650 2.037 . S
O681 C701 1.234 . S
C682 O656 1.269 . S
C682 O657 1.257 . S
C683 H658 0.930 . S
C683 C686 1.388 1_655 S
C683 C688 1.418 . S
C684 H679 0.930 . S
C684 C687 1.404 . S
C684 C688 1.353 . S
N685 Co650 2.145 . S
N685 C686 1.397 . S
N685 C687 1.334 1_455 S
C686 H667 0.929 . S
C686 C683 1.388 1_455 S
C686 N685 1.397 . S
C687 H668 0.929 . S
C687 C684 1.404 . S
C687 N685 1.334 1_655 S
C688 H680 0.930 . S
C688 C683 1.418 . S
C688 C684 1.353 . S
C689 H659 0.930 . S
C689 N690 1.330 . S
C689 C691 1.446 . S
N690 Co649 2.151 . S
N690 C689 1.330 . S
N690 C694 1.418 . S
C691 H670 0.929 . S
C691 C689 1.446 . S
C691 C692 1.332 . S
C692 H672 0.931 . S
C692 C691 1.332 . S
C692 C693 1.267 . S
C693 H661 0.929 . S
C693 C692 1.267 . S
C693 C694 1.251 . S
C694 H664 0.929 . S
C694 N690 1.418 . S
C694 C693 1.251 . S
C695 H662 0.930 . S
C695 C697 1.406 . S
C695 C700 1.261 . S
C696 H663 0.930 . S
C696 N698 1.325 . S
C696 C699 1.357 . S
C697 H665 0.928 . S
C697 C695 1.406 . S
C697 N698 1.261 . S
N698 Co649 2.214 . S
N698 C696 1.325 . S
N698 C697 1.261 . S
C699 H669 0.931 . S
C699 C696 1.357 . S
C699 C700 1.312 . S
C700 H671 0.930 . S
C700 C695 1.261 . S
C700 C699 1.312 . S
C701 O673 1.214 . S
C701 O681 1.234 . S
C702 H674 0.929 . S
C702 C705 1.391 . S
C702 C707 1.391 1_655 S
C703 H675 0.929 . S
C703 C704 1.390 . S
C703 N706 1.391 1_655 S
C704 H676 0.930 . S
C704 C703 1.390 . S
C704 C705 1.392 . S
C705 H677 0.929 . S
C705 C702 1.391 . S
C705 C704 1.392 . S
N706 Co650 2.257 . S
N706 C703 1.391 1_455 S
N706 C707 1.388 . S
C707 H678 0.930 . S
C707 C702 1.391 1_455 S
C707 N706 1.388 . S
Co708 O710 2.143 . S
Co708 O716 2.074 . S
Co708 O719 2.093 . S
Co708 O732 2.097 . S
Co708 N749 2.151 . S
Co708 N757 2.214 . S
Co709 O710 2.160 . S
Co709 O715 2.058 . S
Co709 O725 2.057 . S
Co709 O740 2.037 . S
Co709 N744 2.145 . S
Co709 N765 2.257 . S
O710 Co708 2.143 . S
O710 Co709 2.160 . S
C711 O712 1.278 . S
C711 O719 1.224 . S
O712 C711 1.278 . S
C713 O714 1.245 . S
C713 O725 1.232 . S
O714 C713 1.245 . S
O715 Co709 2.058 . S
O715 C741 1.269 . S
O716 Co708 2.074 . S
O716 C741 1.257 . S
H717 C742 0.930 . S
H718 C748 0.930 . S
O719 Co708 2.093 . S
O719 C711 1.224 . S
H720 C752 0.929 . S
H721 C754 0.930 . S
H722 C755 0.930 . S
H723 C753 0.929 . S
H724 C756 0.928 . S
O725 Co709 2.057 . S
O725 C713 1.232 . S
H726 C745 0.929 . S
H727 C746 0.929 . S
H728 C758 0.931 . S
H729 C750 0.929 . S
H730 C759 0.930 . S
H731 C751 0.931 . S
O732 Co708 2.097 . S
O732 C760 1.214 . S
H733 C761 0.929 . S
H734 C762 0.929 . S
H735 C763 0.930 . S
H736 C764 0.929 . S
H737 C766 0.930 . S
H738 C743 0.930 . S
H739 C747 0.930 . S
O740 Co709 2.037 . S
O740 C760 1.234 . S
C741 O715 1.269 . S
C741 O716 1.257 . S
C742 H717 0.930 . S
C742 C745 1.388 1_545 S
C742 C747 1.418 . S
C743 H738 0.930 . S
C743 C746 1.404 . S
C743 C747 1.353 . S
N744 Co709 2.145 . S
N744 C745 1.397 . S
N744 C746 1.334 1_565 S
C745 H726 0.929 . S
C745 C742 1.388 1_565 S
C745 N744 1.397 . S
C746 H727 0.929 . S
C746 C743 1.404 . S
C746 N744 1.334 1_545 S
C747 H739 0.930 . S
C747 C742 1.418 . S
C747 C743 1.353 . S
C748 H718 0.930 . S
C748 N749 1.330 . S
C748 C750 1.446 . S
N749 Co708 2.151 . S
N749 C748 1.330 . S
N749 C753 1.418 . S
C750 H729 0.929 . S
C750 C748 1.446 . S
C750 C751 1.332 . S
C751 H731 0.931 . S
C751 C750 1.332 . S
C751 C752 1.267 . S
C752 H720 0.929 . S
C752 C751 1.267 . S
C752 C753 1.251 . S
C753 H723 0.929 . S
C753 N749 1.418 . S
C753 C752 1.251 . S
C754 H721 0.930 . S
C754 C756 1.406 . S
C754 C759 1.261 . S
C755 H722 0.930 . S
C755 N757 1.325 . S
C755 C758 1.357 . S
C756 H724 0.928 . S
C756 C754 1.406 . S
C756 N757 1.261 . S
N757 Co708 2.214 . S
N757 C755 1.325 . S
N757 C756 1.261 . S
C758 H728 0.931 . S
C758 C755 1.357 . S
C758 C759 1.312 . S
C759 H730 0.930 . S
C759 C754 1.261 . S
C759 C758 1.312 . S
C760 O732 1.214 . S
C760 O740 1.234 . S
C761 H733 0.929 . S
C761 C764 1.391 . S
C761 C766 1.391 1_545 S
C762 H734 0.929 . S
C762 C763 1.390 . S
C762 N765 1.391 1_545 S
C763 H735 0.930 . S
C763 C762 1.390 . S
C763 C764 1.392 . S
C764 H736 0.929 . S
C764 C761 1.391 . S
C764 C763 1.392 . S
N765 Co709 2.257 . S
N765 C762 1.391 1_565 S
N765 C766 1.388 . S
C766 H737 0.930 . S
C766 C761 1.391 1_565 S
C766 N765 1.388 . S
Co767 O769 2.143 . S
Co767 O775 2.074 . S
Co767 O778 2.093 . S
Co767 O791 2.097 . S
Co767 N808 2.151 . S
Co767 N816 2.214 . S
Co768 O769 2.160 . S
Co768 O774 2.058 . S
Co768 O784 2.057 . S
Co768 O799 2.037 . S
Co768 N803 2.145 . S
Co768 N824 2.257 . S
O769 Co767 2.143 . S
O769 Co768 2.160 . S
C770 O771 1.278 . S
C770 O778 1.224 . S
O771 C770 1.278 . S
C772 O773 1.245 . S
C772 O784 1.232 . S
O773 C772 1.245 . S
O774 Co768 2.058 . S
O774 C800 1.269 . S
O775 Co767 2.074 . S
O775 C800 1.257 . S
H776 C801 0.930 . S
H777 C807 0.930 . S
O778 Co767 2.093 . S
O778 C770 1.224 . S
H779 C811 0.929 . S
H780 C813 0.930 . S
H781 C814 0.930 . S
H782 C812 0.929 . S
H783 C815 0.928 . S
O784 Co768 2.057 . S
O784 C772 1.232 . S
H785 C804 0.929 . S
H786 C805 0.929 . S
H787 C817 0.931 . S
H788 C809 0.929 . S
H789 C818 0.930 . S
H790 C810 0.931 . S
O791 Co767 2.097 . S
O791 C819 1.214 . S
H792 C820 0.929 . S
H793 C821 0.929 . S
H794 C822 0.930 . S
H795 C823 0.929 . S
H796 C825 0.930 . S
H797 C802 0.930 . S
H798 C806 0.930 . S
O799 Co768 2.037 . S
O799 C819 1.234 . S
C800 O774 1.269 . S
C800 O775 1.257 . S
C801 H776 0.930 . S
C801 C804 1.388 1_655 S
C801 C806 1.418 . S
C802 H797 0.930 . S
C802 C805 1.404 . S
C802 C806 1.353 . S
N803 Co768 2.145 . S
N803 C804 1.397 . S
N803 C805 1.334 1_455 S
C804 H785 0.929 . S
C804 C801 1.388 1_455 S
C804 N803 1.397 . S
C805 H786 0.929 . S
C805 C802 1.404 . S
C805 N803 1.334 1_655 S
C806 H798 0.930 . S
C806 C801 1.418 . S
C806 C802 1.353 . S
C807 H777 0.930 . S
C807 N808 1.330 . S
C807 C809 1.446 . S
N808 Co767 2.151 . S
N808 C807 1.330 . S
N808 C812 1.418 . S
C809 H788 0.929 . S
C809 C807 1.446 . S
C809 C810 1.332 . S
C810 H790 0.931 . S
C810 C809 1.332 . S
C810 C811 1.267 . S
C811 H779 0.929 . S
C811 C810 1.267 . S
C811 C812 1.251 . S
C812 H782 0.929 . S
C812 N808 1.418 . S
C812 C811 1.251 . S
C813 H780 0.930 . S
C813 C815 1.406 . S
C813 C818 1.261 . S
C814 H781 0.930 . S
C814 N816 1.325 . S
C814 C817 1.357 . S
C815 H783 0.928 . S
C815 C813 1.406 . S
C815 N816 1.261 . S
N816 Co767 2.214 . S
N816 C814 1.325 . S
N816 C815 1.261 . S
C817 H787 0.931 . S
C817 C814 1.357 . S
C817 C818 1.312 . S
C818 H789 0.930 . S
C818 C813 1.261 . S
C818 C817 1.312 . S
C819 O791 1.214 . S
C819 O799 1.234 . S
C820 H792 0.929 . S
C820 C823 1.391 . S
C820 C825 1.391 1_655 S
C821 H793 0.929 . S
C821 C822 1.390 . S
C821 N824 1.391 1_655 S
C822 H794 0.930 . S
C822 C821 1.390 . S
C822 C823 1.392 . S
C823 H795 0.929 . S
C823 C820 1.391 . S
C823 C822 1.392 . S
N824 Co768 2.257 . S
N824 C821 1.391 1_455 S
N824 C825 1.388 . S
C825 H796 0.930 . S
C825 C820 1.391 1_455 S
C825 N824 1.388 . S
Co826 O828 2.143 . S
Co826 O834 2.074 . S
Co826 O837 2.093 . S
Co826 O850 2.097 . S
Co826 N867 2.151 . S
Co826 N875 2.214 . S
Co827 O828 2.160 . S
Co827 O833 2.058 . S
Co827 O843 2.057 . S
Co827 O858 2.037 . S
Co827 N862 2.145 . S
Co827 N883 2.257 . S
O828 Co826 2.143 . S
O828 Co827 2.160 . S
C829 O830 1.278 . S
C829 O837 1.224 . S
O830 C829 1.278 . S
C831 O832 1.245 . S
C831 O843 1.232 . S
O832 C831 1.245 . S
O833 Co827 2.058 . S
O833 C859 1.269 . S
O834 Co826 2.074 . S
O834 C859 1.257 . S
H835 C860 0.930 . S
H836 C866 0.930 . S
O837 Co826 2.093 . S
O837 C829 1.224 . S
H838 C870 0.929 . S
H839 C872 0.930 . S
H840 C873 0.930 . S
H841 C871 0.929 . S
H842 C874 0.928 . S
O843 Co827 2.057 . S
O843 C831 1.232 . S
H844 C863 0.929 . S
H845 C864 0.929 . S
H846 C876 0.931 . S
H847 C868 0.929 . S
H848 C877 0.930 . S
H849 C869 0.931 . S
O850 Co826 2.097 . S
O850 C878 1.214 . S
H851 C879 0.929 . S
H852 C880 0.929 . S
H853 C881 0.930 . S
H854 C882 0.929 . S
H855 C884 0.930 . S
H856 C861 0.930 . S
H857 C865 0.930 . S
O858 Co827 2.037 . S
O858 C878 1.234 . S
C859 O833 1.269 . S
C859 O834 1.257 . S
C860 H835 0.930 . S
C860 C863 1.388 . S
C860 C865 1.418 . S
C861 H856 0.930 . S
C861 C864 1.404 . S
C861 C865 1.353 . S
N862 Co827 2.145 . S
N862 C863 1.397 . S
N862 C864 1.334 . S
C863 H844 0.929 . S
C863 C860 1.388 . S
C863 N862 1.397 . S
C864 H845 0.929 . S
C864 C861 1.404 . S
C864 N862 1.334 . S
C865 H857 0.930 . S
C865 C860 1.418 . S
C865 C861 1.353 . S
C866 H836 0.930 . S
C866 N867 1.330 . S
C866 C868 1.446 . S
N867 Co826 2.151 . S
N867 C866 1.330 . S
N867 C871 1.418 . S
C868 H847 0.929 . S
C868 C866 1.446 . S
C868 C869 1.332 . S
C869 H849 0.931 . S
C869 C868 1.332 . S
C869 C870 1.267 . S
C870 H838 0.929 . S
C870 C869 1.267 . S
C870 C871 1.251 . S
C871 H841 0.929 . S
C871 N867 1.418 . S
C871 C870 1.251 . S
C872 H839 0.930 . S
C872 C874 1.406 . S
C872 C877 1.261 . S
C873 H840 0.930 . S
C873 N875 1.325 . S
C873 C876 1.357 . S
C874 H842 0.928 . S
C874 C872 1.406 . S
C874 N875 1.261 . S
N875 Co826 2.214 . S
N875 C873 1.325 . S
N875 C874 1.261 . S
C876 H846 0.931 . S
C876 C873 1.357 . S
C876 C877 1.312 . S
C877 H848 0.930 . S
C877 C872 1.261 . S
C877 C876 1.312 . S
C878 O850 1.214 . S
C878 O858 1.234 . S
C879 H851 0.929 . S
C879 C882 1.391 . S
C879 C884 1.391 . S
C880 H852 0.929 . S
C880 C881 1.390 . S
C880 N883 1.391 . S
C881 H853 0.930 . S
C881 C880 1.390 . S
C881 C882 1.392 . S
C882 H854 0.929 . S
C882 C879 1.391 . S
C882 C881 1.392 . S
N883 Co827 2.257 . S
N883 C880 1.391 . S
N883 C884 1.388 . S
C884 H855 0.930 . S
C884 C879 1.391 . S
C884 N883 1.388 . S
Co885 O887 2.143 . S
Co885 O893 2.074 . S
Co885 O896 2.093 . S
Co885 O909 2.097 . S
Co885 N926 2.151 . S
Co885 N934 2.214 . S
Co886 O887 2.160 . S
Co886 O892 2.058 . S
Co886 O902 2.057 . S
Co886 O917 2.037 . S
Co886 N921 2.145 . S
Co886 N942 2.257 . S
O887 Co885 2.143 . S
O887 Co886 2.160 . S
C888 O889 1.278 . S
C888 O896 1.224 . S
O889 C888 1.278 . S
C890 O891 1.245 . S
C890 O902 1.232 . S
O891 C890 1.245 . S
O892 Co886 2.058 . S
O892 C918 1.269 . S
O893 Co885 2.074 . S
O893 C918 1.257 . S
H894 C919 0.930 . S
H895 C925 0.930 . S
O896 Co885 2.093 . S
O896 C888 1.224 . S
H897 C929 0.929 . S
H898 C931 0.930 . S
H899 C932 0.930 . S
H900 C930 0.929 . S
H901 C933 0.928 . S
O902 Co886 2.057 . S
O902 C890 1.232 . S
H903 C922 0.929 . S
H904 C923 0.929 . S
H905 C935 0.931 . S
H906 C927 0.929 . S
H907 C936 0.930 . S
H908 C928 0.931 . S
O909 Co885 2.097 . S
O909 C937 1.214 . S
H910 C938 0.929 . S
H911 C939 0.929 . S
H912 C940 0.930 . S
H913 C941 0.929 . S
H914 C943 0.930 . S
H915 C920 0.930 . S
H916 C924 0.930 . S
O917 Co886 2.037 . S
O917 C937 1.234 . S
C918 O892 1.269 . S
C918 O893 1.257 . S
C919 H894 0.930 . S
C919 C922 1.388 . S
C919 C924 1.418 . S
C920 H915 0.930 . S
C920 C923 1.404 . S
C920 C924 1.353 . S
N921 Co886 2.145 . S
N921 C922 1.397 . S
N921 C923 1.334 . S
C922 H903 0.929 . S
C922 C919 1.388 . S
C922 N921 1.397 . S
C923 H904 0.929 . S
C923 C920 1.404 . S
C923 N921 1.334 . S
C924 H916 0.930 . S
C924 C919 1.418 . S
C924 C920 1.353 . S
C925 H895 0.930 . S
C925 N926 1.330 . S
C925 C927 1.446 . S
N926 Co885 2.151 . S
N926 C925 1.330 . S
N926 C930 1.418 . S
C927 H906 0.929 . S
C927 C925 1.446 . S
C927 C928 1.332 . S
C928 H908 0.931 . S
C928 C927 1.332 . S
C928 C929 1.267 . S
C929 H897 0.929 . S
C929 C928 1.267 . S
C929 C930 1.251 . S
C930 H900 0.929 . S
C930 N926 1.418 . S
C930 C929 1.251 . S
C931 H898 0.930 . S
C931 C933 1.406 . S
C931 C936 1.261 . S
C932 H899 0.930 . S
C932 N934 1.325 . S
C932 C935 1.357 . S
C933 H901 0.928 . S
C933 C931 1.406 . S
C933 N934 1.261 . S
N934 Co885 2.214 . S
N934 C932 1.325 . S
N934 C933 1.261 . S
C935 H905 0.931 . S
C935 C932 1.357 . S
C935 C936 1.312 . S
C936 H907 0.930 . S
C936 C931 1.261 . S
C936 C935 1.312 . S
C937 O909 1.214 . S
C937 O917 1.234 . S
C938 H910 0.929 . S
C938 C941 1.391 . S
C938 C943 1.391 . S
C939 H911 0.929 . S
C939 C940 1.390 . S
C939 N942 1.391 . S
C940 H912 0.930 . S
C940 C939 1.390 . S
C940 C941 1.392 . S
C941 H913 0.929 . S
C941 C938 1.391 . S
C941 C940 1.392 . S
N942 Co886 2.257 . S
N942 C939 1.391 . S
N942 C943 1.388 . S
C943 H914 0.930 . S
C943 C938 1.391 . S
C943 N942 1.388 . S
C944 C945 1.391 . S
C944 C946 1.394 . S
C944 H960 0.931 . S
C945 C944 1.391 . S
C945 C949 1.376 . S
C946 C944 1.394 . S
C946 C947 1.369 . S
C946 C950 1.531 1_655 S
C947 C946 1.369 . S
C947 C948 1.410 1_565 S
C947 C955 1.503 1_665 S
C948 C947 1.410 1_545 S
C948 C949 1.392 1_545 S
C948 C951 1.511 . S
C949 C945 1.376 . S
C949 C948 1.392 1_565 S
C949 H961 0.929 1_565 S
C950 C946 1.531 1_455 S
C950 H962 0.960 . S
C950 H963 0.962 . S
C950 H964 0.960 . S
C951 C948 1.511 . S
C951 H965 0.961 . S
C951 H966 0.961 . S
C951 H967 0.961 . S
C952 C953 1.370 . S
C952 C954 1.363 . S
C952 H968 0.931 . S
C953 C952 1.370 . S
C953 C957 1.408 . S
C954 C952 1.363 . S
C954 C955 1.370 . S
C954 C958 1.532 . S
C955 C947 1.503 1_445 S
C955 C954 1.370 . S
C955 C956 1.403 . S
C956 C955 1.403 . S
C956 C957 1.404 . S
C956 C959 1.539 . S
C957 C953 1.408 . S
C957 C956 1.404 . S
C957 H969 0.930 . S
C958 C954 1.532 . S
C958 H970 0.933 1_545 S
C958 H971 0.969 1_455 S
C958 H972 0.968 . S
C959 C956 1.539 . S
C959 H973 0.958 1_545 S
C959 H974 0.961 . S
C959 H975 0.960 1_455 S
H960 C944 0.931 . S
H961 C949 0.929 1_545 S
H962 C950 0.960 . S
H963 C950 0.962 . S
H964 C950 0.960 . S
H965 C951 0.961 . S
H966 C951 0.961 . S
H967 C951 0.961 . S
H968 C952 0.931 . S
H969 C957 0.930 . S
H970 C958 0.933 1_565 S
H971 C958 0.969 1_655 S
H972 C958 0.968 . S
H973 C959 0.958 1_565 S
H974 C959 0.961 . S
H975 C959 0.960 1_655 S
C976 C977 1.391 . S
C976 C978 1.394 . S
C976 H992 0.931 . S
C977 C976 1.391 . S
C977 C981 1.376 . S
C978 C976 1.394 . S
C978 C979 1.369 . S
C978 C982 1.531 1_655 S
C979 C978 1.369 . S
C979 C980 1.410 . S
C979 C987 1.503 1_655 S
C980 C979 1.410 . S
C980 C981 1.392 . S
C980 C983 1.511 . S
C981 C977 1.376 . S
C981 C980 1.392 . S
C981 H993 0.929 . S
C982 C978 1.531 1_455 S
C982 H994 0.960 . S
C982 H995 0.960 . S
C982 H996 0.960 . S
C983 C980 1.511 . S
C983 H997 0.961 . S
C983 H998 0.961 . S
C983 H999 0.961 1_655 S
C984 C985 1.370 . S
C984 C986 1.363 1_455 S
C984 H1000 0.931 1_455 S
C985 C984 1.370 . S
C985 C989 1.408 . S
C986 C984 1.363 1_655 S
C986 C987 1.370 1_655 S
C986 C990 1.524 . S
C987 C979 1.503 1_455 S
C987 C986 1.370 1_455 S
C987 C988 1.403 . S
C988 C987 1.403 . S
C988 C989 1.404 . S
C988 C991 1.539 . S
C989 C985 1.408 . S
C989 C988 1.404 . S
C989 H1001 0.930 . S
C990 C986 1.524 . S
C990 H1002 0.956 . S
C990 H1003 0.961 . S
C990 H1004 0.961 . S
C991 C988 1.539 . S
C991 H1005 0.958 . S
C991 H1006 0.961 . S
C991 H1007 0.960 . S
H992 C976 0.931 . S
H993 C981 0.929 . S
H994 C982 0.960 . S
H995 C982 0.960 . S
H996 C982 0.960 . S
H997 C983 0.961 . S
H998 C983 0.961 . S
H999 C983 0.961 1_455 S
H1000 C984 0.931 1_655 S
H1001 C989 0.930 . S
H1002 C990 0.956 . S
H1003 C990 0.961 . S
H1004 C990 0.961 . S
H1005 C991 0.958 . S
H1006 C991 0.961 . S
H1007 C991 0.960 . S
C1008 C1009 1.391 . S
C1008 C1010 1.394 . S
C1008 H1024 0.931 . S
C1009 C1008 1.391 . S
C1009 C1013 1.376 . S
C1010 C1008 1.394 . S
C1010 C1011 1.369 . S
C1010 C1014 1.531 . S
C1011 C1010 1.369 . S
C1011 C1012 1.410 . S
C1011 C1019 1.503 . S
C1012 C1011 1.410 . S
C1012 C1013 1.392 . S
C1012 C1015 1.511 . S
C1013 C1009 1.376 . S
C1013 C1012 1.392 . S
C1013 H1025 0.929 . S
C1014 C1010 1.531 . S
C1014 H1026 0.960 . S
C1014 H1027 0.962 . S
C1014 H1028 0.960 . S
C1015 C1012 1.511 . S
C1015 H1029 0.961 . S
C1015 H1030 0.961 . S
C1015 H1031 0.961 . S
C1016 C1017 1.370 . S
C1016 C1018 1.363 . S
C1016 H1032 0.931 . S
C1017 C1016 1.370 . S
C1017 C1021 1.408 . S
C1018 C1016 1.363 . S
C1018 C1019 1.370 . S
C1018 C1022 1.524 . S
C1019 C1011 1.503 . S
C1019 C1018 1.370 . S
C1019 C1020 1.403 . S
C1020 C1019 1.403 . S
C1020 C1021 1.404 . S
C1020 C1023 1.539 . S
C1021 C1017 1.408 . S
C1021 C1020 1.404 . S
C1021 H1033 0.930 . S
C1022 C1018 1.524 . S
C1022 H1034 0.956 . S
C1022 H1035 0.961 . S
C1022 H1036 0.961 . S
C1023 C1020 1.539 . S
C1023 H1037 0.958 . S
C1023 H1038 0.961 . S
C1023 H1039 0.960 . S
H1024 C1008 0.931 . S
H1025 C1013 0.929 . S
H1026 C1014 0.960 . S
H1027 C1014 0.962 . S
H1028 C1014 0.960 . S
H1029 C1015 0.961 . S
H1030 C1015 0.961 . S
H1031 C1015 0.961 . S
H1032 C1016 0.931 . S
H1033 C1021 0.930 . S
H1034 C1022 0.956 . S
H1035 C1022 0.961 . S
H1036 C1022 0.961 . S
H1037 C1023 0.958 . S
H1038 C1023 0.961 . S
H1039 C1023 0.960 . S
C1040 C1041 1.391 . S
C1040 C1042 1.394 . S
C1040 H1056 0.931 . S
C1041 C1040 1.391 . S
C1041 C1045 1.376 . S
C1042 C1040 1.394 . S
C1042 C1043 1.369 . S
C1042 C1046 1.531 . S
C1043 C1042 1.369 . S
C1043 C1044 1.410 . S
C1043 C1051 1.503 1_545 S
C1044 C1043 1.410 . S
C1044 C1045 1.392 . S
C1044 C1047 1.511 1_545 S
C1045 C1041 1.376 . S
C1045 C1044 1.392 . S
C1045 H1057 0.929 . S
C1046 C1042 1.531 . S
C1046 H1058 0.960 . S
C1046 H1059 0.962 . S
C1046 H1060 0.960 . S
C1047 C1044 1.511 1_565 S
C1047 H1061 0.961 . S
C1047 H1062 0.961 . S
C1047 H1063 0.961 . S
C1048 C1049 1.370 . S
C1048 C1050 1.363 . S
C1048 H1064 0.931 . S
C1049 C1048 1.370 . S
C1049 C1053 1.408 . S
C1050 C1048 1.363 . S
C1050 C1051 1.370 . S
C1050 C1054 1.524 . S
C1051 C1043 1.503 1_565 S
C1051 C1050 1.370 . S
C1051 C1052 1.403 . S
C1052 C1051 1.403 . S
C1052 C1053 1.404 . S
C1052 C1055 1.539 . S
C1053 C1049 1.408 . S
C1053 C1052 1.404 . S
C1053 H1065 0.930 . S
C1054 C1050 1.524 . S
C1054 H1066 0.956 . S
C1054 H1067 0.961 . S
C1054 H1068 0.961 . S
C1055 C1052 1.539 . S
C1055 H1069 0.958 1_565 S
C1055 H1070 0.961 . S
C1055 H1071 0.960 1_565 S
H1056 C1040 0.931 . S
H1057 C1045 0.929 . S
H1058 C1046 0.960 . S
H1059 C1046 0.962 . S
H1060 C1046 0.960 . S
H1061 C1047 0.961 . S
H1062 C1047 0.961 . S
H1063 C1047 0.961 . S
H1064 C1048 0.931 . S
H1065 C1053 0.930 . S
H1066 C1054 0.956 . S
H1067 C1054 0.961 . S
H1068 C1054 0.961 . S
H1069 C1055 0.958 1_545 S
H1070 C1055 0.961 . S
H1071 C1055 0.960 1_545 S
C1072 C1073 1.391 . S
C1072 C1074 1.394 . S
C1072 H1088 0.931 . S
C1073 C1072 1.391 . S
C1073 C1077 1.376 . S
C1074 C1072 1.394 . S
C1074 C1075 1.369 . S
C1074 C1078 1.531 . S
C1075 C1074 1.369 . S
C1075 C1076 1.410 . S
C1075 C1083 1.503 1_455 S
C1076 C1075 1.410 . S
C1076 C1077 1.392 . S
C1076 C1079 1.511 1_455 S
C1077 C1073 1.376 . S
C1077 C1076 1.392 . S
C1077 H1089 0.929 . S
C1078 C1074 1.531 . S
C1078 H1090 0.960 . S
C1078 H1091 0.962 . S
C1078 H1092 0.960 . S
C1079 C1076 1.511 1_655 S
C1079 H1093 0.961 . S
C1079 H1094 0.961 . S
C1079 H1095 0.961 . S
C1080 C1081 1.370 . S
C1080 C1082 1.363 . S
C1080 H1096 0.931 . S
C1081 C1080 1.370 . S
C1081 C1085 1.408 . S
C1082 C1080 1.363 . S
C1082 C1083 1.370 . S
C1082 C1086 1.524 . S
C1083 C1075 1.503 1_655 S
C1083 C1082 1.370 . S
C1083 C1084 1.403 . S
C1084 C1083 1.403 . S
C1084 C1085 1.404 . S
C1084 C1087 1.539 . S
C1085 C1081 1.408 . S
C1085 C1084 1.404 . S
C1085 H1097 0.930 . S
C1086 C1082 1.524 . S
C1086 H1098 0.956 1_655 S
C1086 H1099 0.961 1_655 S
C1086 H1100 0.961 . S
C1087 C1084 1.539 . S
C1087 H1101 0.958 . S
C1087 H1102 0.961 . S
C1087 H1103 0.960 . S
H1088 C1072 0.931 . S
H1089 C1077 0.929 . S
H1090 C1078 0.960 . S
H1091 C1078 0.962 . S
H1092 C1078 0.960 . S
H1093 C1079 0.961 . S
H1094 C1079 0.961 . S
H1095 C1079 0.961 . S
H1096 C1080 0.931 . S
H1097 C1085 0.930 . S
H1098 C1086 0.956 1_455 S
H1099 C1086 0.961 1_455 S
H1100 C1086 0.961 . S
H1101 C1087 0.958 . S
H1102 C1087 0.961 . S
H1103 C1087 0.960 . S
C1104 C1105 1.391 . S
C1104 C1106 1.394 . S
C1104 H1120 0.931 . S
C1105 C1104 1.391 . S
C1105 C1109 1.376 . S
C1106 C1104 1.394 . S
C1106 C1107 1.369 . S
C1106 C1110 1.531 . S
C1107 C1106 1.369 . S
C1107 C1108 1.410 . S
C1107 C1115 1.503 . S
C1108 C1107 1.410 . S
C1108 C1109 1.392 . S
C1108 C1111 1.511 . S
C1109 C1105 1.376 . S
C1109 C1108 1.392 . S
C1109 H1121 0.929 . S
C1110 C1106 1.531 . S
C1110 H1122 0.960 . S
C1110 H1123 0.962 . S
C1110 H1124 0.960 . S
C1111 C1108 1.511 . S
C1111 H1125 0.961 . S
C1111 H1126 0.961 . S
C1111 H1127 0.961 . S
C1112 C1113 1.370 . S
C1112 C1114 1.363 . S
C1112 H1128 0.931 . S
C1113 C1112 1.370 . S
C1113 C1117 1.408 . S
C1114 C1112 1.363 . S
C1114 C1115 1.370 . S
C1114 C1118 1.524 . S
C1115 C1107 1.503 . S
C1115 C1114 1.370 . S
C1115 C1116 1.403 . S
C1116 C1115 1.403 . S
C1116 C1117 1.404 . S
C1116 C1119 1.539 . S
C1117 C1113 1.408 . S
C1117 C1116 1.404 . S
C1117 H1129 0.930 . S
C1118 C1114 1.524 . S
C1118 H1130 0.956 . S
C1118 H1131 0.961 . S
C1118 H1132 0.961 . S
C1119 C1116 1.539 . S
C1119 H1133 0.958 . S
C1119 H1134 0.961 . S
C1119 H1135 0.960 . S
H1120 C1104 0.931 . S
H1121 C1109 0.929 . S
H1122 C1110 0.960 . S
H1123 C1110 0.962 . S
H1124 C1110 0.960 . S
H1125 C1111 0.961 . S
H1126 C1111 0.961 . S
H1127 C1111 0.961 . S
H1128 C1112 0.931 . S
H1129 C1117 0.930 . S
H1130 C1118 0.956 . S
H1131 C1118 0.961 . S
H1132 C1118 0.961 . S
H1133 C1119 0.958 . S
H1134 C1119 0.961 . S
H1135 C1119 0.960 . S
C1136 C1137 1.391 . S
C1136 C1138 1.394 . S
C1136 H1152 0.931 . S
C1137 C1136 1.391 . S
C1137 C1141 1.376 . S
C1138 C1136 1.394 . S
C1138 C1139 1.369 . S
C1138 C1142 1.531 . S
C1139 C1138 1.369 . S
C1139 C1140 1.410 1_545 S
C1139 C1147 1.503 1_545 S
C1140 C1139 1.410 1_565 S
C1140 C1141 1.392 1_565 S
C1140 C1143 1.511 . S
C1141 C1137 1.376 . S
C1141 C1140 1.392 1_545 S
C1141 H1153 0.929 . S
C1142 C1138 1.531 . S
C1142 H1154 0.960 . S
C1142 H1155 0.962 . S
C1142 H1156 0.960 . S
C1143 C1140 1.511 . S
C1143 H1157 0.961 . S
C1143 H1158 0.961 . S
C1143 H1159 0.961 . S
C1144 C1145 1.370 . S
C1144 C1146 1.363 1_565 S
C1144 H1160 0.930 1_565 S
C1145 C1144 1.370 . S
C1145 C1149 1.408 . S
C1146 C1144 1.363 1_545 S
C1146 C1147 1.370 1_545 S
C1146 C1150 1.524 . S
C1147 C1139 1.503 1_565 S
C1147 C1146 1.370 1_565 S
C1147 C1148 1.403 . S
C1148 C1147 1.403 . S
C1148 C1149 1.404 . S
C1148 C1151 1.539 . S
C1149 C1145 1.408 . S
C1149 C1148 1.404 . S
C1149 H1161 0.930 . S
C1150 C1146 1.524 . S
C1150 H1162 0.956 . S
C1150 H1163 0.961 . S
C1150 H1164 0.961 . S
C1151 C1148 1.539 . S
C1151 H1165 0.958 . S
C1151 H1166 0.961 . S
C1151 H1167 0.960 . S
H1152 C1136 0.931 . S
H1153 C1141 0.929 . S
H1154 C1142 0.960 . S
H1155 C1142 0.962 . S
H1156 C1142 0.960 . S
H1157 C1143 0.961 . S
H1158 C1143 0.961 . S
H1159 C1143 0.961 . S
H1160 C1144 0.930 1_545 S
H1161 C1149 0.930 . S
H1162 C1150 0.956 . S
H1163 C1150 0.961 . S
H1164 C1150 0.961 . S
H1165 C1151 0.958 . S
H1166 C1151 0.961 . S
H1167 C1151 0.960 . S
C1168 C1169 1.391 . S
C1168 C1170 1.394 1_455 S
C1168 H1184 0.931 1_455 S
C1169 C1168 1.391 . S
C1169 C1173 1.376 . S
C1170 C1168 1.394 1_655 S
C1170 C1171 1.369 1_655 S
C1170 C1174 1.531 . S
C1171 C1170 1.369 1_455 S
C1171 C1172 1.410 . S
C1171 C1179 1.503 1_445 S
C1172 C1171 1.410 . S
C1172 C1173 1.392 . S
C1172 C1175 1.511 1_545 S
C1173 C1169 1.376 . S
C1173 C1172 1.392 . S
C1173 H1185 0.929 . S
C1174 C1170 1.531 . S
C1174 H1186 0.960 . S
C1174 H1187 0.962 . S
C1174 H1188 0.960 . S
C1175 C1172 1.511 1_565 S
C1175 H1189 0.961 . S
C1175 H1190 0.961 . S
C1175 H1191 0.961 . S
C1176 C1177 1.370 . S
C1176 C1178 1.363 . S
C1176 H1192 0.931 . S
C1177 C1176 1.370 . S
C1177 C1181 1.408 . S
C1178 C1176 1.363 . S
C1178 C1179 1.370 . S
C1178 C1182 1.524 . S
C1179 C1171 1.503 1_665 S
C1179 C1178 1.370 . S
C1179 C1180 1.403 . S
C1180 C1179 1.403 . S
C1180 C1181 1.404 . S
C1180 C1183 1.539 . S
C1181 C1177 1.408 . S
C1181 C1180 1.404 . S
C1181 H1193 0.930 . S
C1182 C1178 1.524 . S
C1182 H1194 0.956 1_565 S
C1182 H1195 0.961 1_655 S
C1182 H1196 0.961 . S
C1183 C1180 1.539 . S
C1183 H1197 0.958 . S
C1183 H1198 0.961 1_655 S
C1183 H1199 0.960 1_655 S
H1184 C1168 0.931 1_655 S
H1185 C1173 0.929 . S
H1186 C1174 0.960 . S
H1187 C1174 0.962 . S
H1188 C1174 0.960 . S
H1189 C1175 0.961 . S
H1190 C1175 0.961 . S
H1191 C1175 0.961 . S
H1192 C1176 0.931 . S
H1193 C1181 0.930 . S
H1194 C1182 0.956 1_545 S
H1195 C1182 0.961 1_455 S
H1196 C1182 0.961 . S
H1197 C1183 0.958 . S
H1198 C1183 0.961 1_455 S
H1199 C1183 0.960 1_455 S
C1200 C1201 1.391 . S
C1200 C1202 1.394 1_565 S
C1200 H1216 0.927 1_565 S
C1201 C1200 1.391 . S
C1201 C1205 1.376 . S
C1202 C1200 1.394 1_545 S
C1202 C1203 1.369 1_545 S
C1202 C1206 1.531 . S
C1203 C1202 1.369 1_565 S
C1203 C1204 1.410 . S
C1203 C1211 1.503 1_565 S
C1204 C1203 1.410 . S
C1204 C1205 1.392 . S
C1204 C1207 1.511 . S
C1205 C1201 1.376 . S
C1205 C1204 1.392 . S
C1205 H1217 0.929 . S
C1206 C1202 1.531 . S
C1206 H1218 0.960 . S
C1206 H1219 0.962 . S
C1206 H1220 0.960 . S
C1207 C1204 1.511 . S
C1207 H1221 0.961 . S
C1207 H1222 0.961 . S
C1207 H1223 0.961 . S
C1208 C1209 1.370 . S
C1208 C1210 1.363 . S
C1208 H1224 0.931 . S
C1209 C1208 1.370 . S
C1209 C1213 1.408 . S
C1210 C1208 1.363 . S
C1210 C1211 1.370 . S
C1210 C1214 1.524 . S
C1211 C1203 1.503 1_545 S
C1211 C1210 1.370 . S
C1211 C1212 1.403 . S
C1212 C1211 1.403 . S
C1212 C1213 1.404 . S
C1212 C1215 1.539 1_545 S
C1213 C1209 1.408 . S
C1213 C1212 1.404 . S
C1213 H1225 0.930 . S
C1214 C1210 1.524 . S
C1214 H1226 0.956 . S
C1214 H1227 0.961 . S
C1214 H1228 0.961 . S
C1215 C1212 1.539 1_565 S
C1215 H1229 0.958 . S
C1215 H1230 0.961 . S
C1215 H1231 0.960 . S
H1216 C1200 0.927 1_545 S
H1217 C1205 0.929 . S
H1218 C1206 0.960 . S
H1219 C1206 0.962 . S
H1220 C1206 0.960 . S
H1221 C1207 0.961 . S
H1222 C1207 0.961 . S
H1223 C1207 0.961 . S
H1224 C1208 0.931 . S
H1225 C1213 0.930 . S
H1226 C1214 0.956 . S
H1227 C1214 0.961 . S
H1228 C1214 0.961 . S
H1229 C1215 0.958 . S
H1230 C1215 0.961 . S
H1231 C1215 0.960 . S
C1232 C1233 1.391 . S
C1232 C1234 1.394 . S
C1232 H1248 0.931 . S
C1233 C1232 1.391 . S
C1233 C1237 1.376 . S
C1234 C1232 1.394 . S
C1234 C1235 1.369 . S
C1234 C1238 1.531 1_565 S
C1235 C1234 1.369 . S
C1235 C1236 1.410 1_655 S
C1235 C1243 1.503 1_665 S
C1236 C1235 1.410 1_455 S
C1236 C1237 1.392 1_455 S
C1236 C1239 1.511 . S
C1237 C1233 1.376 . S
C1237 C1236 1.392 1_655 S
C1237 H1249 0.929 1_655 S
C1238 C1234 1.531 1_545 S
C1238 H1250 0.960 . S
C1238 H1251 0.962 . S
C1238 H1252 0.960 1_545 S
C1239 C1236 1.511 . S
C1239 H1253 0.961 . S
C1239 H1254 0.961 . S
C1239 H1255 0.961 . S
C1240 C1241 1.370 . S
C1240 C1242 1.363 . S
C1240 H1256 0.931 . S
C1241 C1240 1.370 . S
C1241 C1245 1.408 . S
C1242 C1240 1.363 . S
C1242 C1243 1.370 . S
C1242 C1246 1.524 1_455 S
C1243 C1235 1.503 1_445 S
C1243 C1242 1.370 . S
C1243 C1244 1.403 . S
C1244 C1243 1.403 . S
C1244 C1245 1.404 . S
C1244 C1247 1.539 . S
C1245 C1241 1.408 . S
C1245 C1244 1.404 . S
C1245 H1257 0.930 . S
C1246 C1242 1.524 1_655 S
C1246 H1258 0.956 . S
C1246 H1259 0.961 . S
C1246 H1260 0.961 . S
C1247 C1244 1.539 . S
C1247 H1261 0.958 . S
C1247 H1262 0.961 . S
C1247 H1263 0.960 1_545 S
H1248 C1232 0.931 . S
H1249 C1237 0.929 1_455 S
H1250 C1238 0.960 . S
H1251 C1238 0.962 . S
H1252 C1238 0.960 1_565 S
H1253 C1239 0.961 . S
H1254 C1239 0.961 . S
H1255 C1239 0.961 . S
H1256 C1240 0.931 . S
H1257 C1245 0.930 . S
H1258 C1246 0.956 . S
H1259 C1246 0.961 . S
H1260 C1246 0.961 . S
H1261 C1247 0.958 . S
H1262 C1247 0.961 . S
H1263 C1247 0.960 1_565 S
C1264 C1265 1.391 . S
C1264 C1266 1.394 . S
C1264 H1280 0.931 . S
C1265 C1264 1.391 . S
C1265 C1269 1.376 . S
C1266 C1264 1.394 . S
C1266 C1267 1.369 . S
C1266 C1270 1.531 1_455 S
C1267 C1266 1.369 . S
C1267 C1268 1.410 . S
C1267 C1275 1.503 1_455 S
C1268 C1267 1.410 . S
C1268 C1269 1.392 . S
C1268 C1271 1.511 . S
C1269 C1265 1.376 . S
C1269 C1268 1.392 . S
C1269 H1281 0.929 . S
C1270 C1266 1.531 1_655 S
C1270 H1282 0.960 . S
C1270 H1283 0.962 . S
C1270 H1284 0.960 1_655 S
C1271 C1268 1.511 . S
C1271 H1285 0.961 . S
C1271 H1286 0.961 . S
C1271 H1287 0.961 . S
C1272 C1273 1.370 . S
C1272 C1274 1.363 . S
C1272 H1288 0.931 . S
C1273 C1272 1.370 . S
C1273 C1277 1.408 . S
C1274 C1272 1.363 . S
C1274 C1275 1.370 . S
C1274 C1278 1.524 . S
C1275 C1267 1.503 1_655 S
C1275 C1274 1.370 . S
C1275 C1276 1.403 . S
C1276 C1275 1.403 . S
C1276 C1277 1.404 . S
C1276 C1279 1.523 1_655 S
C1277 C1273 1.408 . S
C1277 C1276 1.404 . S
C1277 H1289 0.930 . S
C1278 C1274 1.524 . S
C1278 H1290 0.956 . S
C1278 H1291 0.961 . S
C1278 H1292 0.961 . S
C1279 C1276 1.523 1_455 S
C1279 H1293 0.955 1_455 S
C1279 H1294 0.958 1_455 S
C1279 H1295 0.983 . S
H1280 C1264 0.931 . S
H1281 C1269 0.929 . S
H1282 C1270 0.960 . S
H1283 C1270 0.962 . S
H1284 C1270 0.960 1_455 S
H1285 C1271 0.961 . S
H1286 C1271 0.961 . S
H1287 C1271 0.961 . S
H1288 C1272 0.931 . S
H1289 C1277 0.930 . S
H1290 C1278 0.956 . S
H1291 C1278 0.961 . S
H1292 C1278 0.961 . S
H1293 C1279 0.955 1_655 S
H1294 C1279 0.958 1_655 S
H1295 C1279 0.983 . S
C1296 C1297 1.391 . S
C1296 C1298 1.394 . S
C1296 H1312 0.931 . S
C1297 C1296 1.391 . S
C1297 C1301 1.376 . S
C1298 C1296 1.394 . S
C1298 C1299 1.369 . S
C1298 C1302 1.531 . S
C1299 C1298 1.369 . S
C1299 C1300 1.410 . S
C1299 C1307 1.503 . S
C1300 C1299 1.410 . S
C1300 C1301 1.392 . S
C1300 C1303 1.511 . S
C1301 C1297 1.376 . S
C1301 C1300 1.392 . S
C1301 H1313 0.929 . S
C1302 C1298 1.531 . S
C1302 H1314 0.960 . S
C1302 H1315 0.962 . S
C1302 H1316 0.960 . S
C1303 C1300 1.511 . S
C1303 H1317 0.961 . S
C1303 H1318 0.961 . S
C1303 H1319 0.961 . S
C1304 C1305 1.370 . S
C1304 C1306 1.363 . S
C1304 H1320 0.931 . S
C1305 C1304 1.370 . S
C1305 C1309 1.408 . S
C1306 C1304 1.363 . S
C1306 C1307 1.370 . S
C1306 C1310 1.524 . S
C1307 C1299 1.503 . S
C1307 C1306 1.370 . S
C1307 C1308 1.403 . S
C1308 C1307 1.403 . S
C1308 C1309 1.404 . S
C1308 C1311 1.539 . S
C1309 C1305 1.408 . S
C1309 C1308 1.404 . S
C1309 H1321 0.930 . S
C1310 C1306 1.524 . S
C1310 H1322 0.956 . S
C1310 H1323 0.961 . S
C1310 H1324 0.961 . S
C1311 C1308 1.539 . S
C1311 H1325 0.958 . S
C1311 H1326 0.961 . S
C1311 H1327 0.960 . S
H1312 C1296 0.931 . S
H1313 C1301 0.929 . S
H1314 C1302 0.960 . S
H1315 C1302 0.962 . S
H1316 C1302 0.960 . S
H1317 C1303 0.961 . S
H1318 C1303 0.961 . S
H1319 C1303 0.961 . S
H1320 C1304 0.931 . S
H1321 C1309 0.930 . S
H1322 C1310 0.956 . S
H1323 C1310 0.961 . S
H1324 C1310 0.961 . S
H1325 C1311 0.958 . S
H1326 C1311 0.961 . S
H1327 C1311 0.960 . S
C1328 C1329 1.391 . S
C1328 C1330 1.394 . S
C1328 H1344 0.931 . S
C1329 C1328 1.391 . S
C1329 C1333 1.376 . S
C1330 C1328 1.394 . S
C1330 C1331 1.369 . S
C1330 C1334 1.531 . S
C1331 C1330 1.369 . S
C1331 C1332 1.410 . S
C1331 C1339 1.503 . S
C1332 C1331 1.410 . S
C1332 C1333 1.392 . S
C1332 C1335 1.511 . S
C1333 C1329 1.376 . S
C1333 C1332 1.392 . S
C1333 H1345 0.929 . S
C1334 C1330 1.531 . S
C1334 H1346 0.960 . S
C1334 H1347 0.962 . S
C1334 H1348 0.960 . S
C1335 C1332 1.511 . S
C1335 H1349 0.961 . S
C1335 H1350 0.961 . S
C1335 H1351 0.961 . S
C1336 C1337 1.370 . S
C1336 C1338 1.363 . S
C1336 H1352 0.931 . S
C1337 C1336 1.370 . S
C1337 C1341 1.408 . S
C1338 C1336 1.363 . S
C1338 C1339 1.370 . S
C1338 C1342 1.524 . S
C1339 C1331 1.503 . S
C1339 C1338 1.370 . S
C1339 C1340 1.403 . S
C1340 C1339 1.403 . S
C1340 C1341 1.404 . S
C1340 C1343 1.539 . S
C1341 C1337 1.408 . S
C1341 C1340 1.404 . S
C1341 H1353 0.930 . S
C1342 C1338 1.524 . S
C1342 H1354 0.956 . S
C1342 H1355 0.961 . S
C1342 H1356 0.961 . S
C1343 C1340 1.539 . S
C1343 H1357 0.958 . S
C1343 H1358 0.961 . S
C1343 H1359 0.960 . S
H1344 C1328 0.931 . S
H1345 C1333 0.929 . S
H1346 C1334 0.960 . S
H1347 C1334 0.962 . S
H1348 C1334 0.960 . S
H1349 C1335 0.961 . S
H1350 C1335 0.961 . S
H1351 C1335 0.961 . S
H1352 C1336 0.931 . S
H1353 C1341 0.930 . S
H1354 C1342 0.956 . S
H1355 C1342 0.961 . S
H1356 C1342 0.961 . S
H1357 C1343 0.958 . S
H1358 C1343 0.961 . S
H1359 C1343 0.960 . S
C1360 C1361 1.391 . S
C1360 C1362 1.394 . S
C1360 H1376 0.931 . S
C1361 C1360 1.391 . S
C1361 C1365 1.376 . S
C1362 C1360 1.394 . S
C1362 C1363 1.369 . S
C1362 C1366 1.531 . S
C1363 C1362 1.369 . S
C1363 C1364 1.410 . S
C1363 C1371 1.503 1_565 S
C1364 C1363 1.410 . S
C1364 C1365 1.392 . S
C1364 C1367 1.511 . S
C1365 C1361 1.376 . S
C1365 C1364 1.392 . S
C1365 H1377 0.929 . S
C1366 C1362 1.531 . S
C1366 H1378 0.960 1_565 S
C1366 H1379 0.962 . S
C1366 H1380 0.960 . S
C1367 C1364 1.511 . S
C1367 H1381 0.961 . S
C1367 H1382 0.961 1_565 S
C1367 H1383 0.961 1_565 S
C1368 C1369 1.370 . S
C1368 C1370 1.363 . S
C1368 H1384 0.931 . S
C1369 C1368 1.370 . S
C1369 C1373 1.408 . S
C1370 C1368 1.363 . S
C1370 C1371 1.370 . S
C1370 C1374 1.524 1_545 S
C1371 C1363 1.503 1_545 S
C1371 C1370 1.370 . S
C1371 C1372 1.403 . S
C1372 C1371 1.403 . S
C1372 C1373 1.404 . S
C1372 C1375 1.539 . S
C1373 C1369 1.408 . S
C1373 C1372 1.404 . S
C1373 H1385 0.930 . S
C1374 C1370 1.524 1_565 S
C1374 H1386 0.956 . S
C1374 H1387 0.961 . S
C1374 H1388 0.961 . S
C1375 C1372 1.539 . S
C1375 H1389 0.958 . S
C1375 H1390 0.961 . S
C1375 H1391 0.960 . S
H1376 C1360 0.931 . S
H1377 C1365 0.929 . S
H1378 C1366 0.960 1_545 S
H1379 C1366 0.962 . S
H1380 C1366 0.960 . S
H1381 C1367 0.961 . S
H1382 C1367 0.961 1_545 S
H1383 C1367 0.961 1_545 S
H1384 C1368 0.931 . S
H1385 C1373 0.930 . S
H1386 C1374 0.956 . S
H1387 C1374 0.961 . S
H1388 C1374 0.961 . S
H1389 C1375 0.958 . S
H1390 C1375 0.961 . S
H1391 C1375 0.960 . S
C1392 C1393 1.391 . S
C1392 C1394 1.394 1_565 S
C1392 H1408 0.931 1_565 S
C1393 C1392 1.391 . S
C1393 C1397 1.376 . S
C1394 C1392 1.394 1_545 S
C1394 C1395 1.369 1_545 S
C1394 C1398 1.531 . S
C1395 C1394 1.369 1_565 S
C1395 C1396 1.410 . S
C1395 C1403 1.503 1_665 S
C1396 C1395 1.410 . S
C1396 C1397 1.392 . S
C1396 C1399 1.511 1_655 S
C1397 C1393 1.376 . S
C1397 C1396 1.392 . S
C1397 H1409 0.929 . S
C1398 C1394 1.531 . S
C1398 H1410 0.960 . S
C1398 H1411 0.962 . S
C1398 H1412 0.960 . S
C1399 C1396 1.511 1_455 S
C1399 H1413 0.961 . S
C1399 H1414 0.961 . S
C1399 H1415 0.961 . S
C1400 C1401 1.370 . S
C1400 C1402 1.363 . S
C1400 H1416 0.931 . S
C1401 C1400 1.370 . S
C1401 C1405 1.408 . S
C1402 C1400 1.363 . S
C1402 C1403 1.370 . S
C1402 C1406 1.524 1_545 S
C1403 C1395 1.503 1_445 S
C1403 C1402 1.370 . S
C1403 C1404 1.403 . S
C1404 C1403 1.403 . S
C1404 C1405 1.404 . S
C1404 C1407 1.539 . S
C1405 C1401 1.408 . S
C1405 C1404 1.404 . S
C1405 H1417 0.930 . S
C1406 C1402 1.524 1_565 S
C1406 H1418 0.940 1_465 S
C1406 H1419 0.961 . S
C1406 H1420 0.961 . S
C1407 C1404 1.539 . S
C1407 H1421 0.958 1_455 S
C1407 H1422 0.961 . S
C1407 H1423 0.960 1_455 S
H1408 C1392 0.931 1_545 S
H1409 C1397 0.929 . S
H1410 C1398 0.960 . S
H1411 C1398 0.962 . S
H1412 C1398 0.960 . S
H1413 C1399 0.961 . S
H1414 C1399 0.961 . S
H1415 C1399 0.961 . S
H1416 C1400 0.931 . S
H1417 C1405 0.930 . S
H1418 C1406 0.940 1_645 S
H1419 C1406 0.961 . S
H1420 C1406 0.961 . S
H1421 C1407 0.958 1_655 S
H1422 C1407 0.961 . S
H1423 C1407 0.960 1_655 S
C1424 C1425 1.391 . S
C1424 C1426 1.394 1_455 S
C1424 H1440 0.931 . S
C1425 C1424 1.391 . S
C1425 C1429 1.376 . S
C1426 C1424 1.394 1_655 S
C1426 C1427 1.369 1_655 S
C1426 C1430 1.531 . S
C1427 C1426 1.369 1_455 S
C1427 C1428 1.410 . S
C1427 C1435 1.503 1_455 S
C1428 C1427 1.410 . S
C1428 C1429 1.392 . S
C1428 C1431 1.511 . S
C1429 C1425 1.376 . S
C1429 C1428 1.392 . S
C1429 H1441 0.929 . S
C1430 C1426 1.531 . S
C1430 H1442 0.960 . S
C1430 H1443 0.962 . S
C1430 H1444 0.960 . S
C1431 C1428 1.511 . S
C1431 H1445 0.961 . S
C1431 H1446 0.961 . S
C1431 H1447 0.961 . S
C1432 C1433 1.370 . S
C1432 C1434 1.363 1_655 S
C1432 H1448 0.919 1_655 S
C1433 C1432 1.370 . S
C1433 C1437 1.408 . S
C1434 C1432 1.363 1_455 S
C1434 C1435 1.370 1_455 S
C1434 C1438 1.524 . S
C1435 C1427 1.503 1_655 S
C1435 C1434 1.370 1_655 S
C1435 C1436 1.403 . S
C1436 C1435 1.403 . S
C1436 C1437 1.404 . S
C1436 C1439 1.539 . S
C1437 C1433 1.408 . S
C1437 C1436 1.404 . S
C1437 H1449 0.930 . S
C1438 C1434 1.524 . S
C1438 H1450 0.956 . S
C1438 H1451 0.961 . S
C1438 H1452 0.961 . S
C1439 C1436 1.539 . S
C1439 H1453 0.958 . S
C1439 H1454 0.961 . S
C1439 H1455 0.960 . S
H1440 C1424 0.931 . S
H1441 C1429 0.929 . S
H1442 C1430 0.960 . S
H1443 C1430 0.962 . S
H1444 C1430 0.960 . S
H1445 C1431 0.961 . S
H1446 C1431 0.961 . S
H1447 C1431 0.961 . S
H1448 C1432 0.919 1_455 S
H1449 C1437 0.930 . S
H1450 C1438 0.956 . S
H1451 C1438 0.961 . S
H1452 C1438 0.961 . S
H1453 C1439 0.958 . S
H1454 C1439 0.961 . S
H1455 C1439 0.960 . S
C1456 C1457 1.391 . S
C1456 C1458 1.394 . S
C1456 H1472 0.931 . S
C1457 C1456 1.391 . S
C1457 C1461 1.376 . S
C1458 C1456 1.394 . S
C1458 C1459 1.369 . S
C1458 C1462 1.531 . S
C1459 C1458 1.369 . S
C1459 C1460 1.410 . S
C1459 C1467 1.503 . S
C1460 C1459 1.410 . S
C1460 C1461 1.392 . S
C1460 C1463 1.511 . S
C1461 C1457 1.376 . S
C1461 C1460 1.392 . S
C1461 H1473 0.929 . S
C1462 C1458 1.531 . S
C1462 H1474 0.960 . S
C1462 H1475 0.962 . S
C1462 H1476 0.960 . S
C1463 C1460 1.511 . S
C1463 H1477 0.961 . S
C1463 H1478 0.961 . S
C1463 H1479 0.961 . S
C1464 C1465 1.370 . S
C1464 C1466 1.363 . S
C1464 H1480 0.931 . S
C1465 C1464 1.370 . S
C1465 C1469 1.408 . S
C1466 C1464 1.363 . S
C1466 C1467 1.370 . S
C1466 C1470 1.524 . S
C1467 C1459 1.503 . S
C1467 C1466 1.370 . S
C1467 C1468 1.403 . S
C1468 C1467 1.403 . S
C1468 C1469 1.404 . S
C1468 C1471 1.539 . S
C1469 C1465 1.408 . S
C1469 C1468 1.404 . S
C1469 H1481 0.930 . S
C1470 C1466 1.524 . S
C1470 H1482 0.956 . S
C1470 H1483 0.961 . S
C1470 H1484 0.961 . S
C1471 C1468 1.539 . S
C1471 H1485 0.958 . S
C1471 H1486 0.961 . S
C1471 H1487 0.960 . S
H1472 C1456 0.931 . S
H1473 C1461 0.929 . S
H1474 C1462 0.960 . S
H1475 C1462 0.962 . S
H1476 C1462 0.960 . S
H1477 C1463 0.961 . S
H1478 C1463 0.961 . S
H1479 C1463 0.961 . S
H1480 C1464 0.931 . S
H1481 C1469 0.930 . S
H1482 C1470 0.956 . S
H1483 C1470 0.961 . S
H1484 C1470 0.961 . S
H1485 C1471 0.958 . S
H1486 C1471 0.961 . S
H1487 C1471 0.960 . S
C1488 C1489 1.391 . S
C1488 C1490 1.394 . S
C1488 H1504 0.931 . S
C1489 C1488 1.391 . S
C1489 C1493 1.376 . S
C1490 C1488 1.394 . S
C1490 C1491 1.369 . S
C1490 C1494 1.531 . S
C1491 C1490 1.369 . S
C1491 C1492 1.410 . S
C1491 C1499 1.503 . S
C1492 C1491 1.410 . S
C1492 C1493 1.392 . S
C1492 C1495 1.511 . S
C1493 C1489 1.376 . S
C1493 C1492 1.392 . S
C1493 H1505 0.929 . S
C1494 C1490 1.531 . S
C1494 H1506 0.960 . S
C1494 H1507 0.962 . S
C1494 H1508 0.960 . S
C1495 C1492 1.511 . S
C1495 H1509 0.961 . S
C1495 H1510 0.961 . S
C1495 H1511 0.961 . S
C1496 C1497 1.370 . S
C1496 C1498 1.363 . S
C1496 H1512 0.931 . S
C1497 C1496 1.370 . S
C1497 C1501 1.408 . S
C1498 C1496 1.363 . S
C1498 C1499 1.370 . S
C1498 C1502 1.524 . S
C1499 C1491 1.503 . S
C1499 C1498 1.370 . S
C1499 C1500 1.403 . S
C1500 C1499 1.403 . S
C1500 C1501 1.404 . S
C1500 C1503 1.539 . S
C1501 C1497 1.408 . S
C1501 C1500 1.404 . S
C1501 H1513 0.930 . S
C1502 C1498 1.524 . S
C1502 H1514 0.956 . S
C1502 H1515 0.961 . S
C1502 H1516 0.961 . S
C1503 C1500 1.539 . S
C1503 H1517 0.958 . S
C1503 H1518 0.961 . S
C1503 H1519 0.960 . S
H1504 C1488 0.931 . S
H1505 C1493 0.929 . S
H1506 C1494 0.960 . S
H1507 C1494 0.962 . S
H1508 C1494 0.960 . S
H1509 C1495 0.961 . S
H1510 C1495 0.961 . S
H1511 C1495 0.961 . S
H1512 C1496 0.931 . S
H1513 C1501 0.930 . S
H1514 C1502 0.956 . S
H1515 C1502 0.961 . S
H1516 C1502 0.961 . S
H1517 C1503 0.958 . S
H1518 C1503 0.961 . S
H1519 C1503 0.960 . S
C1520 C1521 1.391 . S
C1520 C1522 1.394 . S
C1520 H1536 0.931 . S
C1521 C1520 1.391 . S
C1521 C1525 1.376 . S
C1522 C1520 1.394 . S
C1522 C1523 1.369 . S
C1522 C1526 1.531 . S
C1523 C1522 1.369 . S
C1523 C1524 1.410 . S
C1523 C1531 1.503 . S
C1524 C1523 1.410 . S
C1524 C1525 1.392 . S
C1524 C1527 1.511 . S
C1525 C1521 1.376 . S
C1525 C1524 1.392 . S
C1525 H1537 0.929 . S
C1526 C1522 1.531 . S
C1526 H1538 0.960 . S
C1526 H1539 0.962 . S
C1526 H1540 0.960 . S
C1527 C1524 1.511 . S
C1527 H1541 0.961 . S
C1527 H1542 0.961 . S
C1527 H1543 0.961 . S
C1528 C1529 1.370 . S
C1528 C1530 1.363 . S
C1528 H1544 0.931 . S
C1529 C1528 1.370 . S
C1529 C1533 1.408 . S
C1530 C1528 1.363 . S
C1530 C1531 1.370 . S
C1530 C1534 1.524 . S
C1531 C1523 1.503 . S
C1531 C1530 1.370 . S
C1531 C1532 1.403 . S
C1532 C1531 1.403 . S
C1532 C1533 1.404 . S
C1532 C1535 1.539 . S
C1533 C1529 1.408 . S
C1533 C1532 1.404 . S
C1533 H1545 0.930 . S
C1534 C1530 1.524 . S
C1534 H1546 0.956 . S
C1534 H1547 0.961 . S
C1534 H1548 0.961 . S
C1535 C1532 1.539 . S
C1535 H1549 0.958 . S
C1535 H1550 0.961 . S
C1535 H1551 0.960 . S
H1536 C1520 0.931 . S
H1537 C1525 0.929 . S
H1538 C1526 0.960 . S
H1539 C1526 0.962 . S
H1540 C1526 0.960 . S
H1541 C1527 0.961 . S
H1542 C1527 0.961 . S
H1543 C1527 0.961 . S
H1544 C1528 0.931 . S
H1545 C1533 0.930 . S
H1546 C1534 0.956 . S
H1547 C1534 0.961 . S
H1548 C1534 0.961 . S
H1549 C1535 0.958 . S
H1550 C1535 0.961 . S
H1551 C1535 0.960 . S
C1552 C1553 1.391 . S
C1552 C1554 1.394 . S
C1552 H1568 0.931 . S
C1553 C1552 1.391 . S
C1553 C1557 1.376 . S
C1554 C1552 1.394 . S
C1554 C1555 1.369 . S
C1554 C1558 1.531 . S
C1555 C1554 1.369 . S
C1555 C1556 1.410 . S
C1555 C1563 1.503 . S
C1556 C1555 1.410 . S
C1556 C1557 1.392 . S
C1556 C1559 1.511 . S
C1557 C1553 1.376 . S
C1557 C1556 1.392 . S
C1557 H1569 0.929 . S
C1558 C1554 1.531 . S
C1558 H1570 0.960 . S
C1558 H1571 0.962 . S
C1558 H1572 0.960 . S
C1559 C1556 1.511 . S
C1559 H1573 0.961 . S
C1559 H1574 0.961 . S
C1559 H1575 0.961 . S
C1560 C1561 1.370 . S
C1560 C1562 1.363 . S
C1560 H1576 0.931 . S
C1561 C1560 1.370 . S
C1561 C1565 1.408 . S
C1562 C1560 1.363 . S
C1562 C1563 1.370 . S
C1562 C1566 1.524 . S
C1563 C1555 1.503 . S
C1563 C1562 1.370 . S
C1563 C1564 1.403 . S
C1564 C1563 1.403 . S
C1564 C1565 1.404 . S
C1564 C1567 1.539 . S
C1565 C1561 1.408 . S
C1565 C1564 1.404 . S
C1565 H1577 0.930 . S
C1566 C1562 1.524 . S
C1566 H1578 0.956 . S
C1566 H1579 0.961 . S
C1566 H1580 0.961 . S
C1567 C1564 1.539 . S
C1567 H1581 0.958 . S
C1567 H1582 0.961 . S
C1567 H1583 0.960 . S
H1568 C1552 0.931 . S
H1569 C1557 0.929 . S
H1570 C1558 0.960 . S
H1571 C1558 0.962 . S
H1572 C1558 0.960 . S
H1573 C1559 0.961 . S
H1574 C1559 0.961 . S
H1575 C1559 0.961 . S
H1576 C1560 0.931 . S
H1577 C1565 0.930 . S
H1578 C1566 0.956 . S
H1579 C1566 0.961 . S
H1580 C1566 0.961 . S
H1581 C1567 0.958 . S
H1582 C1567 0.961 . S
H1583 C1567 0.960 . S
C1584 C1585 1.391 . S
C1584 C1586 1.394 . S
C1584 H1600 0.931 . S
C1585 C1584 1.391 . S
C1585 C1589 1.376 . S
C1586 C1584 1.394 . S
C1586 C1587 1.369 . S
C1586 C1590 1.531 . S
C1587 C1586 1.369 . S
C1587 C1588 1.410 . S
C1587 C1595 1.503 . S
C1588 C1587 1.410 . S
C1588 C1589 1.392 . S
C1588 C1591 1.511 . S
C1589 C1585 1.376 . S
C1589 C1588 1.392 . S
C1589 H1601 0.929 . S
C1590 C1586 1.531 . S
C1590 H1602 0.960 . S
C1590 H1603 0.962 . S
C1590 H1604 0.960 . S
C1591 C1588 1.511 . S
C1591 H1605 0.961 . S
C1591 H1606 0.961 . S
C1591 H1607 0.961 . S
C1592 C1593 1.370 . S
C1592 C1594 1.363 . S
C1592 H1608 0.931 . S
C1593 C1592 1.370 . S
C1593 C1597 1.408 . S
C1594 C1592 1.363 . S
C1594 C1595 1.370 . S
C1594 C1598 1.524 . S
C1595 C1587 1.503 . S
C1595 C1594 1.370 . S
C1595 C1596 1.403 . S
C1596 C1595 1.403 . S
C1596 C1597 1.404 . S
C1596 C1599 1.539 . S
C1597 C1593 1.408 . S
C1597 C1596 1.404 . S
C1597 H1609 0.930 . S
C1598 C1594 1.524 . S
C1598 H1610 0.956 . S
C1598 H1611 0.961 . S
C1598 H1612 0.961 . S
C1599 C1596 1.539 . S
C1599 H1613 0.958 . S
C1599 H1614 0.961 . S
C1599 H1615 0.960 . S
H1600 C1584 0.931 . S
H1601 C1589 0.929 . S
H1602 C1590 0.960 . S
H1603 C1590 0.962 . S
H1604 C1590 0.960 . S
H1605 C1591 0.961 . S
H1606 C1591 0.961 . S
H1607 C1591 0.961 . S
H1608 C1592 0.931 . S
H1609 C1597 0.930 . S
H1610 C1598 0.956 . S
H1611 C1598 0.961 . S
H1612 C1598 0.961 . S
H1613 C1599 0.958 . S
H1614 C1599 0.961 . S
H1615 C1599 0.960 . S
C1616 C1617 1.391 . S
C1616 C1618 1.394 . S
C1616 H1632 0.931 . S
C1617 C1616 1.391 . S
C1617 C1621 1.376 . S
C1618 C1616 1.394 . S
C1618 C1619 1.369 . S
C1618 C1622 1.531 . S
C1619 C1618 1.369 . S
C1619 C1620 1.410 . S
C1619 C1627 1.503 . S
C1620 C1619 1.410 . S
C1620 C1621 1.392 . S
C1620 C1623 1.511 . S
C1621 C1617 1.376 . S
C1621 C1620 1.392 . S
C1621 H1633 0.929 . S
C1622 C1618 1.531 . S
C1622 H1634 0.960 . S
C1622 H1635 0.962 . S
C1622 H1636 0.960 . S
C1623 C1620 1.511 . S
C1623 H1637 0.961 . S
C1623 H1638 0.961 . S
C1623 H1639 0.961 . S
C1624 C1625 1.370 . S
C1624 C1626 1.363 . S
C1624 H1640 0.931 . S
C1625 C1624 1.370 . S
C1625 C1629 1.408 . S
C1626 C1624 1.363 . S
C1626 C1627 1.370 . S
C1626 C1630 1.524 . S
C1627 C1619 1.503 . S
C1627 C1626 1.370 . S
C1627 C1628 1.403 . S
C1628 C1627 1.403 . S
C1628 C1629 1.404 . S
C1628 C1631 1.539 . S
C1629 C1625 1.408 . S
C1629 C1628 1.404 . S
C1629 H1641 0.930 . S
C1630 C1626 1.524 . S
C1630 H1642 0.956 . S
C1630 H1643 0.961 . S
C1630 H1644 0.961 . S
C1631 C1628 1.539 . S
C1631 H1645 0.958 . S
C1631 H1646 0.961 . S
C1631 H1647 0.960 . S
H1632 C1616 0.931 . S
H1633 C1621 0.929 . S
H1634 C1622 0.960 . S
H1635 C1622 0.962 . S
H1636 C1622 0.960 . S
H1637 C1623 0.961 . S
H1638 C1623 0.961 . S
H1639 C1623 0.961 . S
H1640 C1624 0.931 . S
H1641 C1629 0.930 . S
H1642 C1630 0.956 . S
H1643 C1630 0.961 . S
H1644 C1630 0.961 . S
H1645 C1631 0.958 . S
H1646 C1631 0.961 . S
H1647 C1631 0.960 . S
C1648 C1649 1.391 . S
C1648 C1650 1.394 . S
C1648 H1664 0.931 . S
C1649 C1648 1.391 . S
C1649 C1653 1.376 . S
C1650 C1648 1.394 . S
C1650 C1651 1.369 . S
C1650 C1654 1.531 . S
C1651 C1650 1.369 . S
C1651 C1652 1.410 . S
C1651 C1659 1.503 . S
C1652 C1651 1.410 . S
C1652 C1653 1.392 . S
C1652 C1655 1.511 . S
C1653 C1649 1.376 . S
C1653 C1652 1.392 . S
C1653 H1665 0.929 . S
C1654 C1650 1.531 . S
C1654 H1666 0.960 . S
C1654 H1667 0.962 . S
C1654 H1668 0.960 . S
C1655 C1652 1.511 . S
C1655 H1669 0.961 . S
C1655 H1670 0.961 . S
C1655 H1671 0.961 . S
C1656 C1657 1.370 . S
C1656 C1658 1.363 . S
C1656 H1672 0.931 . S
C1657 C1656 1.370 . S
C1657 C1661 1.408 . S
C1658 C1656 1.363 . S
C1658 C1659 1.370 . S
C1658 C1662 1.524 . S
C1659 C1651 1.503 . S
C1659 C1658 1.370 . S
C1659 C1660 1.403 . S
C1660 C1659 1.403 . S
C1660 C1661 1.404 . S
C1660 C1663 1.539 . S
C1661 C1657 1.408 . S
C1661 C1660 1.404 . S
C1661 H1673 0.930 . S
C1662 C1658 1.524 . S
C1662 H1674 0.956 . S
C1662 H1675 0.961 . S
C1662 H1676 0.961 . S
C1663 C1660 1.539 . S
C1663 H1677 0.958 . S
C1663 H1678 0.961 . S
C1663 H1679 0.960 . S
H1664 C1648 0.931 . S
H1665 C1653 0.929 . S
H1666 C1654 0.960 . S
H1667 C1654 0.962 . S
H1668 C1654 0.960 . S
H1669 C1655 0.961 . S
H1670 C1655 0.961 . S
H1671 C1655 0.961 . S
H1672 C1656 0.931 . S
H1673 C1661 0.930 . S
H1674 C1662 0.956 . S
H1675 C1662 0.961 . S
H1676 C1662 0.961 . S
H1677 C1663 0.958 . S
H1678 C1663 0.961 . S
H1679 C1663 0.960 . S
C1680 C1681 1.391 . S
C1680 C1682 1.394 . S
C1680 H1696 0.931 . S
C1681 C1680 1.391 . S
C1681 C1685 1.376 . S
C1682 C1680 1.394 . S
C1682 C1683 1.369 . S
C1682 C1686 1.531 . S
C1683 C1682 1.369 . S
C1683 C1684 1.410 . S
C1683 C1691 1.503 . S
C1684 C1683 1.410 . S
C1684 C1685 1.392 . S
C1684 C1687 1.511 . S
C1685 C1681 1.376 . S
C1685 C1684 1.392 . S
C1685 H1697 0.929 . S
C1686 C1682 1.531 . S
C1686 H1698 0.960 . S
C1686 H1699 0.962 . S
C1686 H1700 0.960 . S
C1687 C1684 1.511 . S
C1687 H1701 0.961 . S
C1687 H1702 0.961 . S
C1687 H1703 0.961 . S
C1688 C1689 1.370 . S
C1688 C1690 1.363 . S
C1688 H1704 0.931 . S
C1689 C1688 1.370 . S
C1689 C1693 1.408 . S
C1690 C1688 1.363 . S
C1690 C1691 1.370 . S
C1690 C1694 1.524 . S
C1691 C1683 1.503 . S
C1691 C1690 1.370 . S
C1691 C1692 1.403 . S
C1692 C1691 1.403 . S
C1692 C1693 1.404 . S
C1692 C1695 1.539 . S
C1693 C1689 1.408 . S
C1693 C1692 1.404 . S
C1693 H1705 0.930 . S
C1694 C1690 1.524 . S
C1694 H1706 0.956 . S
C1694 H1707 0.961 . S
C1694 H1708 0.961 . S
C1695 C1692 1.539 . S
C1695 H1709 0.958 . S
C1695 H1710 0.961 . S
C1695 H1711 0.960 . S
H1696 C1680 0.931 . S
H1697 C1685 0.929 . S
H1698 C1686 0.960 . S
H1699 C1686 0.962 . S
H1700 C1686 0.960 . S
H1701 C1687 0.961 . S
H1702 C1687 0.961 . S
H1703 C1687 0.961 . S
H1704 C1688 0.931 . S
H1705 C1693 0.930 . S
H1706 C1694 0.956 . S
H1707 C1694 0.961 . S
H1708 C1694 0.961 . S
H1709 C1695 0.958 . S
H1710 C1695 0.961 . S
H1711 C1695 0.960 . S
C1712 C1713 1.391 . S
C1712 C1714 1.394 . S
C1712 H1728 0.931 . S
C1713 C1712 1.391 . S
C1713 C1717 1.376 . S
C1714 C1712 1.394 . S
C1714 C1715 1.369 . S
C1714 C1718 1.531 . S
C1715 C1714 1.369 . S
C1715 C1716 1.410 . S
C1715 C1723 1.503 . S
C1716 C1715 1.410 . S
C1716 C1717 1.392 . S
C1716 C1719 1.511 . S
C1717 C1713 1.376 . S
C1717 C1716 1.392 . S
C1717 H1729 0.929 . S
C1718 C1714 1.531 . S
C1718 H1730 0.960 . S
C1718 H1731 0.962 . S
C1718 H1732 0.960 . S
C1719 C1716 1.511 . S
C1719 H1733 0.961 . S
C1719 H1734 0.961 . S
C1719 H1735 0.961 . S
C1720 C1721 1.370 . S
C1720 C1722 1.363 . S
C1720 H1736 0.931 . S
C1721 C1720 1.370 . S
C1721 C1725 1.408 . S
C1722 C1720 1.363 . S
C1722 C1723 1.370 . S
C1722 C1726 1.524 . S
C1723 C1715 1.503 . S
C1723 C1722 1.370 . S
C1723 C1724 1.403 . S
C1724 C1723 1.403 . S
C1724 C1725 1.404 . S
C1724 C1727 1.539 . S
C1725 C1721 1.408 . S
C1725 C1724 1.404 . S
C1725 H1737 0.930 . S
C1726 C1722 1.524 . S
C1726 H1738 0.956 . S
C1726 H1739 0.961 . S
C1726 H1740 0.961 . S
C1727 C1724 1.539 . S
C1727 H1741 0.958 . S
C1727 H1742 0.961 . S
C1727 H1743 0.960 . S
H1728 C1712 0.931 . S
H1729 C1717 0.929 . S
H1730 C1718 0.960 . S
H1731 C1718 0.962 . S
H1732 C1718 0.960 . S
H1733 C1719 0.961 . S
H1734 C1719 0.961 . S
H1735 C1719 0.961 . S
H1736 C1720 0.931 . S
H1737 C1725 0.930 . S
H1738 C1726 0.956 . S
H1739 C1726 0.961 . S
H1740 C1726 0.961 . S
H1741 C1727 0.958 . S
H1742 C1727 0.961 . S
H1743 C1727 0.960 . S
C1744 C1745 1.391 . S
C1744 C1746 1.394 . S
C1744 H1760 0.931 . S
C1745 C1744 1.391 . S
C1745 C1749 1.376 . S
C1746 C1744 1.394 . S
C1746 C1747 1.369 . S
C1746 C1750 1.531 . S
C1747 C1746 1.369 . S
C1747 C1748 1.410 . S
C1747 C1755 1.503 . S
C1748 C1747 1.410 . S
C1748 C1749 1.392 . S
C1748 C1751 1.511 . S
C1749 C1745 1.376 . S
C1749 C1748 1.392 . S
C1749 H1761 0.929 . S
C1750 C1746 1.531 . S
C1750 H1762 0.960 . S
C1750 H1763 0.962 . S
C1750 H1764 0.960 . S
C1751 C1748 1.511 . S
C1751 H1765 0.961 . S
C1751 H1766 0.961 . S
C1751 H1767 0.961 . S
C1752 C1753 1.370 . S
C1752 C1754 1.363 . S
C1752 H1768 0.931 . S
C1753 C1752 1.370 . S
C1753 C1757 1.408 . S
C1754 C1752 1.363 . S
C1754 C1755 1.370 . S
C1754 C1758 1.524 . S
C1755 C1747 1.503 . S
C1755 C1754 1.370 . S
C1755 C1756 1.403 . S
C1756 C1755 1.403 . S
C1756 C1757 1.404 . S
C1756 C1759 1.539 . S
C1757 C1753 1.408 . S
C1757 C1756 1.404 . S
C1757 H1769 0.930 . S
C1758 C1754 1.524 . S
C1758 H1770 0.956 . S
C1758 H1771 0.961 . S
C1758 H1772 0.961 . S
C1759 C1756 1.539 . S
C1759 H1773 0.958 . S
C1759 H1774 0.961 . S
C1759 H1775 0.960 . S
H1760 C1744 0.931 . S
H1761 C1749 0.929 . S
H1762 C1750 0.960 . S
H1763 C1750 0.962 . S
H1764 C1750 0.960 . S
H1765 C1751 0.961 . S
H1766 C1751 0.961 . S
H1767 C1751 0.961 . S
H1768 C1752 0.931 . S
H1769 C1757 0.930 . S
H1770 C1758 0.956 . S
H1771 C1758 0.961 . S
H1772 C1758 0.961 . S
H1773 C1759 0.958 . S
H1774 C1759 0.961 . S
H1775 C1759 0.960 . S
C1776 C1777 1.391 . S
C1776 C1778 1.394 . S
C1776 H1792 0.931 . S
C1777 C1776 1.391 . S
C1777 C1781 1.376 . S
C1778 C1776 1.394 . S
C1778 C1779 1.369 . S
C1778 C1782 1.531 . S
C1779 C1778 1.369 . S
C1779 C1780 1.410 . S
C1779 C1787 1.503 . S
C1780 C1779 1.410 . S
C1780 C1781 1.392 . S
C1780 C1783 1.511 . S
C1781 C1777 1.376 . S
C1781 C1780 1.392 . S
C1781 H1793 0.929 . S
C1782 C1778 1.531 . S
C1782 H1794 0.960 . S
C1782 H1795 0.962 . S
C1782 H1796 0.960 . S
C1783 C1780 1.511 . S
C1783 H1797 0.961 . S
C1783 H1798 0.961 . S
C1783 H1799 0.961 . S
C1784 C1785 1.370 . S
C1784 C1786 1.363 . S
C1784 H1800 0.931 . S
C1785 C1784 1.370 . S
C1785 C1789 1.408 . S
C1786 C1784 1.363 . S
C1786 C1787 1.370 . S
C1786 C1790 1.524 . S
C1787 C1779 1.503 . S
C1787 C1786 1.370 . S
C1787 C1788 1.403 . S
C1788 C1787 1.403 . S
C1788 C1789 1.404 . S
C1788 C1791 1.539 . S
C1789 C1785 1.408 . S
C1789 C1788 1.404 . S
C1789 H1801 0.930 . S
C1790 C1786 1.524 . S
C1790 H1802 0.956 . S
C1790 H1803 0.961 . S
C1790 H1804 0.961 . S
C1791 C1788 1.539 . S
C1791 H1805 0.958 . S
C1791 H1806 0.961 . S
C1791 H1807 0.960 . S
H1792 C1776 0.931 . S
H1793 C1781 0.929 . S
H1794 C1782 0.960 . S
H1795 C1782 0.962 . S
H1796 C1782 0.960 . S
H1797 C1783 0.961 . S
H1798 C1783 0.961 . S
H1799 C1783 0.961 . S
H1800 C1784 0.931 . S
H1801 C1789 0.930 . S
H1802 C1790 0.956 . S
H1803 C1790 0.961 . S
H1804 C1790 0.961 . S
H1805 C1791 0.958 . S
H1806 C1791 0.961 . S
H1807 C1791 0.960 . S
C1808 C1809 1.391 . S
C1808 C1810 1.394 . S
C1808 H1824 0.931 . S
C1809 C1808 1.391 . S
C1809 C1813 1.376 . S
C1810 C1808 1.394 . S
C1810 C1811 1.369 . S
C1810 C1814 1.531 . S
C1811 C1810 1.369 . S
C1811 C1812 1.410 . S
C1811 C1819 1.503 1_556 S
C1812 C1811 1.410 . S
C1812 C1813 1.392 . S
C1812 C1815 1.511 . S
C1813 C1809 1.376 . S
C1813 C1812 1.392 . S
C1813 H1825 0.929 . S
C1814 C1810 1.531 . S
C1814 H1826 0.883 1_556 S
C1814 H1827 0.962 . S
C1814 H1828 0.960 . S
C1815 C1812 1.511 . S
C1815 H1829 0.961 . S
C1815 H1830 0.961 1_556 S
C1815 H1831 0.961 1_556 S
C1816 C1817 1.370 . S
C1816 C1818 1.363 . S
C1816 H1832 0.931 . S
C1817 C1816 1.370 . S
C1817 C1821 1.408 . S
C1818 C1816 1.363 . S
C1818 C1819 1.370 . S
C1818 C1822 1.524 1_554 S
C1819 C1811 1.503 1_554 S
C1819 C1818 1.370 . S
C1819 C1820 1.403 . S
C1820 C1819 1.403 . S
C1820 C1821 1.404 . S
C1820 C1823 1.539 . S
C1821 C1817 1.408 . S
C1821 C1820 1.404 . S
C1821 H1833 0.930 . S
C1822 C1818 1.524 1_556 S
C1822 H1834 0.956 . S
C1822 H1835 0.961 . S
C1822 H1836 0.961 1_556 S
C1823 C1820 1.539 . S
C1823 H1837 0.958 . S
C1823 H1838 0.961 . S
C1823 H1839 0.960 . S
H1824 C1808 0.931 . S
H1825 C1813 0.929 . S
H1826 C1814 0.883 1_554 S
H1827 C1814 0.962 . S
H1828 C1814 0.960 . S
H1829 C1815 0.961 . S
H1830 C1815 0.961 1_554 S
H1831 C1815 0.961 1_554 S
H1832 C1816 0.931 . S
H1833 C1821 0.930 . S
H1834 C1822 0.956 . S
H1835 C1822 0.961 . S
H1836 C1822 0.961 1_554 S
H1837 C1823 0.958 . S
H1838 C1823 0.961 . S
H1839 C1823 0.960 . S
C1840 C1841 1.391 . S
C1840 C1842 1.394 . S
C1840 H1856 0.931 . S
C1841 C1840 1.391 . S
C1841 C1845 1.376 . S
C1842 C1840 1.394 . S
C1842 C1843 1.369 . S
C1842 C1846 1.531 . S
C1843 C1842 1.369 . S
C1843 C1844 1.410 . S
C1843 C1851 1.503 1_554 S
C1844 C1843 1.410 . S
C1844 C1845 1.392 . S
C1844 C1847 1.511 1_554 S
C1845 C1841 1.376 . S
C1845 C1844 1.392 . S
C1845 H1857 0.929 . S
C1846 C1842 1.531 . S
C1846 H1858 0.960 . S
C1846 H1859 0.962 . S
C1846 H1860 0.960 . S
C1847 C1844 1.511 1_556 S
C1847 H1861 0.961 1_556 S
C1847 H1862 0.961 . S
C1847 H1863 0.961 . S
C1848 C1849 1.370 . S
C1848 C1850 1.363 . S
C1848 H1864 0.931 . S
C1849 C1848 1.370 . S
C1849 C1853 1.408 . S
C1850 C1848 1.363 . S
C1850 C1851 1.370 . S
C1850 C1854 1.524 . S
C1851 C1843 1.503 1_556 S
C1851 C1850 1.370 . S
C1851 C1852 1.403 . S
C1852 C1851 1.403 . S
C1852 C1853 1.404 . S
C1852 C1855 1.539 . S
C1853 C1849 1.408 . S
C1853 C1852 1.404 . S
C1853 H1865 0.930 . S
C1854 C1850 1.524 . S
C1854 H1866 0.956 1_556 S
C1854 H1867 0.968 . S
C1854 H1868 0.961 . S
C1855 C1852 1.539 . S
C1855 H1869 0.958 . S
C1855 H1870 0.961 . S
C1855 H1871 0.960 . S
H1856 C1840 0.931 . S
H1857 C1845 0.929 . S
H1858 C1846 0.960 . S
H1859 C1846 0.962 . S
H1860 C1846 0.960 . S
H1861 C1847 0.961 1_554 S
H1862 C1847 0.961 . S
H1863 C1847 0.961 . S
H1864 C1848 0.931 . S
H1865 C1853 0.930 . S
H1866 C1854 0.956 1_554 S
H1867 C1854 0.968 . S
H1868 C1854 0.961 . S
H1869 C1855 0.958 . S
H1870 C1855 0.961 . S
H1871 C1855 0.960 . S
C1872 C1873 1.391 . S
C1872 C1874 1.394 . S
C1872 H1888 0.931 . S
C1873 C1872 1.391 . S
C1873 C1877 1.376 . S
C1874 C1872 1.394 . S
C1874 C1875 1.369 . S
C1874 C1878 1.531 . S
C1875 C1874 1.369 . S
C1875 C1876 1.410 . S
C1875 C1883 1.503 . S
C1876 C1875 1.410 . S
C1876 C1877 1.392 . S
C1876 C1879 1.511 . S
C1877 C1873 1.376 . S
C1877 C1876 1.392 . S
C1877 H1889 0.929 . S
C1878 C1874 1.531 . S
C1878 H1890 0.960 . S
C1878 H1891 0.962 . S
C1878 H1892 0.960 . S
C1879 C1876 1.511 . S
C1879 H1893 0.961 . S
C1879 H1894 0.961 . S
C1879 H1895 0.961 . S
C1880 C1881 1.370 . S
C1880 C1882 1.363 . S
C1880 H1896 0.931 . S
C1881 C1880 1.370 . S
C1881 C1885 1.408 . S
C1882 C1880 1.363 . S
C1882 C1883 1.370 . S
C1882 C1886 1.524 . S
C1883 C1875 1.503 . S
C1883 C1882 1.370 . S
C1883 C1884 1.403 . S
C1884 C1883 1.403 . S
C1884 C1885 1.404 . S
C1884 C1887 1.539 . S
C1885 C1881 1.408 . S
C1885 C1884 1.404 . S
C1885 H1897 0.930 . S
C1886 C1882 1.524 . S
C1886 H1898 0.956 . S
C1886 H1899 0.961 . S
C1886 H1900 0.961 . S
C1887 C1884 1.539 . S
C1887 H1901 0.958 . S
C1887 H1902 0.961 . S
C1887 H1903 0.960 . S
H1888 C1872 0.931 . S
H1889 C1877 0.929 . S
H1890 C1878 0.960 . S
H1891 C1878 0.962 . S
H1892 C1878 0.960 . S
H1893 C1879 0.961 . S
H1894 C1879 0.961 . S
H1895 C1879 0.961 . S
H1896 C1880 0.931 . S
H1897 C1885 0.930 . S
H1898 C1886 0.956 . S
H1899 C1886 0.961 . S
H1900 C1886 0.961 . S
H1901 C1887 0.958 . S
H1902 C1887 0.961 . S
H1903 C1887 0.960 . S
C1904 C1905 1.391 . S
C1904 C1906 1.394 . S
C1904 H1920 0.931 . S
C1905 C1904 1.391 . S
C1905 C1909 1.376 . S
C1906 C1904 1.394 . S
C1906 C1907 1.369 . S
C1906 C1910 1.531 . S
C1907 C1906 1.369 . S
C1907 C1908 1.410 . S
C1907 C1915 1.503 . S
C1908 C1907 1.410 . S
C1908 C1909 1.392 . S
C1908 C1911 1.511 . S
C1909 C1905 1.376 . S
C1909 C1908 1.392 . S
C1909 H1921 0.929 . S
C1910 C1906 1.531 . S
C1910 H1922 0.960 . S
C1910 H1923 0.962 . S
C1910 H1924 0.960 . S
C1911 C1908 1.511 . S
C1911 H1925 0.961 . S
C1911 H1926 0.961 . S
C1911 H1927 0.961 . S
C1912 C1913 1.370 . S
C1912 C1914 1.363 . S
C1912 H1928 0.931 . S
C1913 C1912 1.370 . S
C1913 C1917 1.408 . S
C1914 C1912 1.363 . S
C1914 C1915 1.370 . S
C1914 C1918 1.524 . S
C1915 C1907 1.503 . S
C1915 C1914 1.370 . S
C1915 C1916 1.403 . S
C1916 C1915 1.403 . S
C1916 C1917 1.404 . S
C1916 C1919 1.539 . S
C1917 C1913 1.408 . S
C1917 C1916 1.404 . S
C1917 H1929 0.930 . S
C1918 C1914 1.524 . S
C1918 H1930 0.956 . S
C1918 H1931 0.961 . S
C1918 H1932 0.961 . S
C1919 C1916 1.539 . S
C1919 H1933 0.958 . S
C1919 H1934 0.961 . S
C1919 H1935 0.960 . S
H1920 C1904 0.931 . S
H1921 C1909 0.929 . S
H1922 C1910 0.960 . S
H1923 C1910 0.962 . S
H1924 C1910 0.960 . S
H1925 C1911 0.961 . S
H1926 C1911 0.961 . S
H1927 C1911 0.961 . S
H1928 C1912 0.931 . S
H1929 C1917 0.930 . S
H1930 C1918 0.956 . S
H1931 C1918 0.961 . S
H1932 C1918 0.961 . S
H1933 C1919 0.958 . S
H1934 C1919 0.961 . S
H1935 C1919 0.960 . S
C1936 C1937 1.391 . S
C1936 C1938 1.394 . S
C1936 H1952 0.931 . S
C1937 C1936 1.391 . S
C1937 C1941 1.376 . S
C1938 C1936 1.394 . S
C1938 C1939 1.369 . S
C1938 C1942 1.531 . S
C1939 C1938 1.369 . S
C1939 C1940 1.410 . S
C1939 C1947 1.503 . S
C1940 C1939 1.410 . S
C1940 C1941 1.392 . S
C1940 C1943 1.511 . S
C1941 C1937 1.376 . S
C1941 C1940 1.392 . S
C1941 H1953 0.929 . S
C1942 C1938 1.531 . S
C1942 H1954 0.960 . S
C1942 H1955 0.962 . S
C1942 H1956 0.960 . S
C1943 C1940 1.511 . S
C1943 H1957 0.961 . S
C1943 H1958 0.961 . S
C1943 H1959 0.961 . S
C1944 C1945 1.370 . S
C1944 C1946 1.363 . S
C1944 H1960 0.931 . S
C1945 C1944 1.370 . S
C1945 C1949 1.408 . S
C1946 C1944 1.363 . S
C1946 C1947 1.370 . S
C1946 C1950 1.524 . S
C1947 C1939 1.503 . S
C1947 C1946 1.370 . S
C1947 C1948 1.403 . S
C1948 C1947 1.403 . S
C1948 C1949 1.404 . S
C1948 C1951 1.539 . S
C1949 C1945 1.408 . S
C1949 C1948 1.404 . S
C1949 H1961 0.930 . S
C1950 C1946 1.524 . S
C1950 H1962 0.956 . S
C1950 H1963 0.961 . S
C1950 H1964 0.961 . S
C1951 C1948 1.539 . S
C1951 H1965 0.958 . S
C1951 H1966 0.961 . S
C1951 H1967 0.960 . S
H1952 C1936 0.931 . S
H1953 C1941 0.929 . S
H1954 C1942 0.960 . S
H1955 C1942 0.962 . S
H1956 C1942 0.960 . S
H1957 C1943 0.961 . S
H1958 C1943 0.961 . S
H1959 C1943 0.961 . S
H1960 C1944 0.931 . S
H1961 C1949 0.930 . S
H1962 C1950 0.956 . S
H1963 C1950 0.961 . S
H1964 C1950 0.961 . S
H1965 C1951 0.958 . S
H1966 C1951 0.961 . S
H1967 C1951 0.960 . S
C945 C595 1.450 . S
C953 C5 1.453 . S
C977 C64 1.436 . S
C985 C654 1.452 . S
C1009 C477 1.437 . S
C1017 C123 1.452 . S
C1041 C536 1.437 . S
C1049 C182 1.449 . S
C1073 C241 1.444 . S
C1081 C831 1.446 . S
C1105 C890 1.443 . S
C1113 C300 1.445 . S
C1137 C359 1.441 . S
C1145 C713 1.454 . S
C1169 C772 1.441 . S
C1177 C418 1.446 . S
C1201 C642 1.672 . S
C1209 C52 1.668 . S
C1233 C111 1.654 . S
C1241 C701 1.668 . S
C1265 C170 1.653 . S
C1273 C524 1.667 . S
C1297 C229 1.654 . S
C1305 C583 1.666 . S
C1329 C288 1.653 . S
C1337 C878 1.668 . S
C1361 C347 1.670 . S
C1369 C937 1.664 . S
C1393 C760 1.668 . S
C1401 C406 1.671 . S
C1425 C819 1.660 . S
C1433 C465 1.671 . S
C1457 C3 1.383 . S
C1465 C357 1.405 . S
C1489 C62 1.421 . S
C1497 C416 1.405 . S
C1521 C121 1.383 . S
C1529 C239 1.403 . S
C1553 C180 1.409 . S
C1561 C298 1.414 . S
C1585 C475 1.384 . S
C1593 C829 1.402 . S
C1617 C888 1.394 . S
C1625 C534 1.412 . S
C1649 C593 1.422 . S
C1657 C711 1.406 . S
C1681 C770 1.411 . S
C1689 C652 1.400 . S
C1713 C33 1.286 . S
C1721 C918 1.271 . S
C1745 C741 1.278 . S
C1753 C92 1.267 . S
C1777 C800 1.286 . S
C1785 C151 1.278 . S
C1809 C859 1.254 . S
C1817 C210 1.274 . S
C1841 C564 1.250 . S
C1849 C269 1.266 . S
C1873 C623 1.249 . S
C1881 C328 1.267 . S
C1905 C387 1.278 . S
C1913 C682 1.267 . S
C1937 C446 1.250 . S
C1945 C505 1.272 . S
