# Generated by pormake.
# Topology lvt, (4)-cn, num edge types: 1
# Building blocks:
#     Node 0, Type 0, BuildingBlock: NAWXER_clean_sbu_0, # of connection points: 4
#     Node 1, Type 0, BuildingBlock: NAWXER_clean_sbu_0, # of connection points: 4
#     Node 2, Type 0, BuildingBlock: NAWXER_clean_sbu_0, # of connection points: 4
#     Node 3, Type 0, BuildingBlock: NAWXER_clean_sbu_0, # of connection points: 4
#     Node 4, Type 0, BuildingBlock: NAWXER_clean_sbu_0, # of connection points: 4
#     Node 5, Type 0, BuildingBlock: NAWXER_clean_sbu_0, # of connection points: 4
#     Node 6, Type 0, BuildingBlock: NAWXER_clean_sbu_0, # of connection points: 4
#     Node 7, Type 0, BuildingBlock: NAWXER_clean_sbu_0, # of connection points: 4
#     Edge 8, Type (0, 0), BuildingBlock: CIFDUS_clean_linker_0, # of connection points: 2
#     Edge 9, Type (0, 0), BuildingBlock: CIFDUS_clean_linker_0, # of connection points: 2
#     Edge 10, Type (0, 0), BuildingBlock: CIFDUS_clean_linker_0, # of connection points: 2
#     Edge 11, Type (0, 0), BuildingBlock: CIFDUS_clean_linker_0, # of connection points: 2
#     Edge 12, Type (0, 0), BuildingBlock: CIFDUS_clean_linker_0, # of connection points: 2
#     Edge 13, Type (0, 0), BuildingBlock: CIFDUS_clean_linker_0, # of connection points: 2
#     Edge 14, Type (0, 0), BuildingBlock: CIFDUS_clean_linker_0, # of connection points: 2
#     Edge 15, Type (0, 0), BuildingBlock: CIFDUS_clean_linker_0, # of connection points: 2
#     Edge 16, Type (0, 0), BuildingBlock: CIFDUS_clean_linker_0, # of connection points: 2
#     Edge 17, Type (0, 0), BuildingBlock: CIFDUS_clean_linker_0, # of connection points: 2
#     Edge 18, Type (0, 0), BuildingBlock: CIFDUS_clean_linker_0, # of connection points: 2
#     Edge 19, Type (0, 0), BuildingBlock: CIFDUS_clean_linker_0, # of connection points: 2
#     Edge 20, Type (0, 0), BuildingBlock: CIFDUS_clean_linker_0, # of connection points: 2
#     Edge 21, Type (0, 0), BuildingBlock: CIFDUS_clean_linker_0, # of connection points: 2
#     Edge 22, Type (0, 0), BuildingBlock: CIFDUS_clean_linker_0, # of connection points: 2
#     Edge 23, Type (0, 0), BuildingBlock: CIFDUS_clean_linker_0, # of connection points: 2
# Relax obj value: 0.000
# Max RMSD: 0.000
# Mean RMSD: 0.000
data_MOF--net-lvt--node1-NAWXER_clean_sbu_0--edge1-CIFDUS_clean_linker_0
_symmetry_space_group_name_H-M    P1
_symmetry_Int_Tables_number       1
_symmetry_cell_setting            triclinic
loop_
_symmetry_equiv_pos_as_xyz
'x, y, z'
_cell_length_a     33.633414
_cell_length_b     33.592647
_cell_length_c     18.966289
_cell_angle_alpha  90.047203
_cell_angle_beta   89.950777
_cell_angle_gamma 89.508086
loop_
_atom_site_label
_atom_site_type_symbol
_atom_site_fract_x
_atom_site_fract_y
_atom_site_fract_z
_atom_type_partial_charge
C0 C 0.95419 0.98017 0.55682 0.0
C1 C 0.059 0.06803 0.47422 0.0
O2 O 0.96662 0.97045 0.495 0.0
Zn3 Zn 1.01072 0.99126 0.4205 0.0
O4 O 0.96929 1.00989 0.58804 0.0
Zn5 Zn 1.00701 0.02441 0.51685 0.0
O6 O 0.97141 0.04653 0.43241 0.0
O7 O 0.97898 1.00811 0.33892 0.0
O8 O 0.04177 0.06883 0.53393 0.0
O9 O 0.05005 0.04105 0.42925 0.0
O10 O 0.04907 0.94684 0.41427 0.0
O11 O 0.04744 0.9758 0.51871 0.0
C12 C 0.96348 0.03878 0.36778 0.0
C13 C 0.06136 0.94887 0.47761 0.0
C14 C 0.24539 0.81553 0.60514 0.0
C15 C 0.33339 0.70897 0.69036 0.0
O16 O 0.27542 0.80107 0.57289 0.0
Zn17 Zn 0.29309 0.76568 0.64847 0.0
O18 O 0.2386 0.80499 0.66897 0.0
Zn19 Zn 0.26233 0.76494 0.74628 0.0
O20 O 0.28011 0.79796 0.82241 0.0
O21 O 0.31698 0.80544 0.72735 0.0
O22 O 0.30765 0.72075 0.73575 0.0
O23 O 0.33636 0.72734 0.63199 0.0
O24 O 0.24201 0.7268 0.65495 0.0
O25 O 0.21707 0.73179 0.76259 0.0
C26 C 0.30917 0.81445 0.79176 0.0
C27 C 0.21586 0.7169 0.70095 0.0
C28 C 0.46315 0.97203 0.94842 0.0
C29 C 0.55678 0.06786 0.04458 0.0
O30 O 0.48029 1.00064 0.91743 0.0
Zn31 Zn 0.51039 0.02023 0.99597 0.0
O32 O 0.47036 0.96551 0.01397 0.0
Zn33 Zn 0.50773 0.99083 0.09526 0.0
O34 O 0.4705 1.00915 0.1673 0.0
O35 O 0.46637 0.04285 0.06747 0.0
O36 O 0.54595 0.04189 0.09011 0.0
O37 O 0.54329 0.06624 0.98203 0.0
O38 O 0.55445 0.97524 0.01162 0.0
O39 O 0.54579 0.94798 0.11609 0.0
C40 C 0.45466 0.03682 0.13088 0.0
C41 C 0.56531 0.95015 0.05875 0.0
C42 C 0.33135 0.21279 0.31161 0.0
C43 C 0.24211 0.31721 0.4028 0.0
O44 O 0.3053 0.225 0.26728 0.0
Zn45 Zn 0.25907 0.26817 0.25969 0.0
O46 O 0.33395 0.22999 0.37122 0.0
Zn47 Zn 0.29021 0.26823 0.35747 0.0
O48 O 0.23981 0.2289 0.35042 0.0
O49 O 0.21415 0.23429 0.2435 0.0
O50 O 0.2722 0.30262 0.4346 0.0
O51 O 0.2354 0.30719 0.33868 0.0
O52 O 0.27607 0.30244 0.18474 0.0
O53 O 0.31289 0.3095 0.28 0.0
C54 C 0.21356 0.21893 0.30478 0.0
C55 C 0.30476 0.3192 0.21607 0.0
C56 C 0.73929 0.31741 0.11837 0.0
C57 C 0.82776 0.21752 0.22598 0.0
O58 O 0.76911 0.30093 0.08849 0.0
Zn59 Zn 0.78522 0.26813 0.16916 0.0
O60 O 0.7312 0.30885 0.18261 0.0
Zn61 Zn 0.75192 0.27129 0.26549 0.0
O62 O 0.76631 0.30804 0.33841 0.0
O63 O 0.80576 0.31162 0.24542 0.0
O64 O 0.80065 0.23115 0.26696 0.0
O65 O 0.82976 0.22984 0.16266 0.0
O66 O 0.73511 0.22928 0.17577 0.0
O67 O 0.70713 0.23672 0.28035 0.0
C68 C 0.79602 0.32345 0.30764 0.0
C69 C 0.70789 0.22015 0.22008 0.0
C70 C 0.82163 0.71863 0.78022 0.0
C71 C 0.73952 0.82413 0.88633 0.0
O72 O 0.79487 0.73311 0.73953 0.0
Zn73 Zn 0.74773 0.77519 0.74125 0.0
O74 O 0.82417 0.73095 0.84349 0.0
Zn75 Zn 0.78116 0.77097 0.83723 0.0
O76 O 0.72926 0.73495 0.83323 0.0
O77 O 0.70093 0.7427 0.72923 0.0
O78 O 0.76733 0.80506 0.91722 0.0
O79 O 0.7305 0.81591 0.82238 0.0
O80 O 0.76374 0.8102 0.66657 0.0
O81 O 0.80326 0.81298 0.75959 0.0
C82 C 0.70128 0.72677 0.78998 0.0
C83 C 0.79404 0.82465 0.69709 0.0
C84 C 0.45473 0.53593 0.87565 0.0
C85 C 0.56226 0.45914 0.98719 0.0
O86 O 0.462 0.54607 0.93943 0.0
Zn87 Zn 0.50213 0.53106 0.02234 0.0
O88 O 0.47466 0.50798 0.8467 0.0
Zn89 Zn 0.50824 0.49607 0.92815 0.0
O90 O 0.46678 0.47342 0.00597 0.0
O91 O 0.46733 0.51449 0.09706 0.0
O92 O 0.54977 0.45442 0.92443 0.0
O93 O 0.54655 0.48615 0.0261 0.0
O94 O 0.5328 0.57921 0.03319 0.0
O95 O 0.54283 0.54911 0.93115 0.0
C96 C 0.4544 0.48307 0.06788 0.0
C97 C 0.54966 0.57811 0.97319 0.0
C98 C 0.95208 0.48252 0.44957 0.0
C99 C 0.05656 0.57034 0.53339 0.0
O100 O 0.96716 0.51233 0.41863 0.0
Zn101 Zn 1.00441 0.52699 0.49051 0.0
O102 O 0.9642 0.4729 0.51157 0.0
Zn103 Zn 1.00775 0.49387 0.58683 0.0
O104 O 0.97554 0.51068 0.66793 0.0
O105 O 0.96826 0.54908 0.57447 0.0
O106 O 0.04735 0.54345 0.57833 0.0
O107 O 0.03935 0.57128 0.47374 0.0
O108 O 0.04479 0.47827 0.48919 0.0
O109 O 0.04594 0.44936 0.59362 0.0
C110 C 0.95999 0.54124 0.63895 0.0
C111 C 0.05849 0.45134 0.5304 0.0
H112 H 0.08153 0.08876 0.34263 0.0
H113 H 0.10213 0.11577 0.56202 0.0
H114 H 0.15205 0.1649 0.52845 0.0
H115 H 0.19025 0.19927 0.43678 0.0
H116 H 0.16741 0.17415 0.21734 0.0
H117 H 0.11765 0.12501 0.25104 0.0
C118 C 0.09703 0.1053 0.38318 0.0
C119 C 0.08848 0.09841 0.45476 0.0
C120 C 0.12516 0.13375 0.36347 0.0
C121 C 0.10827 0.12054 0.50661 0.0
C122 C 0.13682 0.14853 0.48743 0.0
C123 C 0.17444 0.18297 0.3963 0.0
C124 C 0.1827 0.19004 0.32465 0.0
C125 C 0.14559 0.15522 0.41604 0.0
C126 C 0.16157 0.1692 0.27281 0.0
C127 C 0.13321 0.14107 0.29205 0.0
H128 H 0.12686 0.91576 0.41208 0.0
H129 H 0.06317 0.92035 0.60961 0.0
H130 H 0.11493 0.88083 0.66611 0.0
H131 H 0.17853 0.84691 0.66148 0.0
H132 H 0.24471 0.84124 0.4667 0.0
H133 H 0.19217 0.87979 0.40739 0.0
C134 C 0.12422 0.9075 0.46712 0.0
C135 C 0.09119 0.92083 0.50661 0.0
C136 C 0.15479 0.88524 0.5001 0.0
C137 C 0.08833 0.9105 0.57819 0.0
C138 C 0.11797 0.88802 0.61066 0.0
C139 C 0.18179 0.85413 0.60606 0.0
C140 C 0.21572 0.8413 0.56881 0.0
C141 C 0.15151 0.87573 0.57248 0.0
C142 C 0.21907 0.85097 0.49689 0.0
C143 C 0.18889 0.8728 0.46285 0.0
H144 H 0.40864 0.92065 1.00182 0.0
H145 H 0.45617 0.96454 0.80559 0.0
H146 H 0.41292 0.91984 0.73979 0.0
H147 H 0.36231 0.8673 0.73782 0.0
H148 H 0.31293 0.82548 0.9341 0.0
H149 H 0.35602 0.87031 0.99971 0.0
C150 C 0.40953 0.92045 0.94466 0.0
C151 C 0.4358 0.94578 0.9088 0.0
C152 C 0.38421 0.89498 0.90702 0.0
C153 C 0.43622 0.94542 0.83463 0.0
C154 C 0.41155 0.91977 0.79688 0.0
C155 C 0.36095 0.86802 0.79494 0.0
C156 C 0.33452 0.84287 0.83089 0.0
C157 C 0.38554 0.89427 0.8325 0.0
C158 C 0.33291 0.84452 0.90496 0.0
C159 C 0.35764 0.8701 0.94263 0.0
H160 H 0.32811 0.17013 0.19118 0.0
H161 H 0.39133 0.17678 0.38871 0.0
H162 H 0.43267 0.11953 0.3535 0.0
H163 H 0.45297 0.06966 0.26279 0.0
H164 H 0.39038 0.06685 0.06448 0.0
H165 H 0.34609 0.12011 0.10444 0.0
C166 C 0.35086 0.1592 0.22693 0.0
C167 C 0.35676 0.17805 0.29237 0.0
C168 C 0.37441 0.12665 0.2063 0.0
C169 C 0.38629 0.16306 0.33785 0.0
C170 C 0.40985 0.13024 0.31778 0.0
C171 C 0.42905 0.08024 0.2292 0.0
C172 C 0.42463 0.06423 0.16101 0.0
C173 C 0.40438 0.11196 0.25178 0.0
C174 C 0.39416 0.07867 0.11721 0.0
C175 C 0.369 0.10924 0.13987 0.0
H176 H 0.90096 0.92958 0.49721 0.0
H177 H 0.93975 0.97557 0.69797 0.0
H178 H 0.89334 0.93196 0.759 0.0
H179 H 0.84344 0.87893 0.75575 0.0
H180 H 0.80203 0.83524 0.55514 0.0
H181 H 0.84753 0.87983 0.49373 0.0
C182 C 0.89911 0.93015 0.5543 0.0
C183 C 0.92399 0.9556 0.59296 0.0
C184 C 0.87193 0.90534 0.58912 0.0
C185 C 0.92092 0.95633 0.66688 0.0
C186 C 0.89447 0.93129 0.7019 0.0
C187 C 0.8443 0.87929 0.69857 0.0
C188 C 0.81962 0.8536 0.66008 0.0
C189 C 0.87011 0.9054 0.66361 0.0
C190 C 0.82067 0.85477 0.58601 0.0
C191 C 0.84678 0.88016 0.55086 0.0
H192 H 0.93369 0.10808 0.41633 0.0
H193 H 0.9382 0.03537 0.2288 0.0
H194 H 0.89889 0.08583 0.16509 0.0
H195 H 0.86149 0.1507 0.16479 0.0
H196 H 0.8583 0.22049 0.35595 0.0
H197 H 0.89952 0.17133 0.41563 0.0
C198 C 0.92614 0.10291 0.3615 0.0
C199 C 0.93868 0.06772 0.32769 0.0
C200 C 0.90402 0.13187 0.32559 0.0
C201 C 0.92869 0.06205 0.25638 0.0
C202 C 0.90636 0.09099 0.21988 0.0
C203 C 0.87045 0.15522 0.21908 0.0
C204 C 0.8569 0.18915 0.25601 0.0
C205 C 0.89376 0.12611 0.25405 0.0
C206 C 0.86822 0.19454 0.3266 0.0
C207 C 0.8917 0.1664 0.36088 0.0
H208 H 0.68764 0.19877 0.08753 0.0
H209 H 0.65887 0.17726 0.30594 0.0
H210 H 0.60914 0.12841 0.27041 0.0
H211 H 0.57499 0.0911 0.17739 0.0
H212 H 0.60215 0.11454 0.95891 0.0
H213 H 0.65142 0.16372 0.99451 0.0
C214 C 0.67057 0.18331 0.12743 0.0
C215 C 0.67717 0.19127 0.19932 0.0
C216 C 0.64179 0.15577 0.1066 0.0
C217 C 0.65436 0.17156 0.25031 0.0
C218 C 0.626 0.14362 0.23002 0.0
C219 C 0.59169 0.10697 0.13751 0.0
C220 C 0.58517 0.09898 0.06559 0.0
C221 C 0.61964 0.13538 0.15834 0.0
C222 C 0.60662 0.12017 0.01457 0.0
C223 C 0.63486 0.14818 0.0349 0.0
H224 H 0.62059 0.96135 0.95816 0.0
H225 H 0.58987 0.88202 0.12805 0.0
H226 H 0.64564 0.83796 0.09582 0.0
H227 H 0.69913 0.81896 0.0108 0.0
H228 H 0.72581 0.89804 0.83858 0.0
H229 H 0.67608 0.94566 0.88094 0.0
C230 C 0.62607 0.93452 0.98857 0.0
C231 C 0.60067 0.92466 0.04474 0.0
C232 C 0.65771 0.90941 0.96939 0.0
C233 C 0.60879 0.89014 0.08423 0.0
C234 C 0.64066 0.86495 0.06574 0.0
C235 C 0.6947 0.84719 0.98409 0.0
C236 C 0.7162 0.85539 0.92216 0.0
C237 C 0.66487 0.87389 0.00744 0.0
C238 C 0.70972 0.89146 0.88667 0.0
C239 C 0.68112 0.91849 0.91054 0.0
H240 H 0.56879 0.59818 0.83948 0.0
H241 H 0.59203 0.62892 0.05644 0.0
H242 H 0.64081 0.67813 0.01828 0.0
H243 H 0.6784 0.71044 0.92344 0.0
H244 H 0.65309 0.68173 0.70635 0.0
H245 H 0.60325 0.63357 0.74444 0.0
C246 C 0.58451 0.6157 0.87844 0.0
C247 C 0.57719 0.60968 0.95072 0.0
C248 C 0.61208 0.64412 0.85609 0.0
C249 C 0.59721 0.63303 1.00055 0.0
C250 C 0.62516 0.66103 0.97875 0.0
C251 C 0.66195 0.69363 0.88445 0.0
C252 C 0.66967 0.69923 0.81219 0.0
C253 C 0.6331 0.66648 0.90671 0.0
C254 C 0.64768 0.67785 0.76223 0.0
C255 C 0.61931 0.65028 0.784 0.0
H256 H 0.68298 0.36416 0.17616 0.0
H257 H 0.73315 0.33129 0.97482 0.0
H258 H 0.68212 0.37166 0.91469 0.0
H259 H 0.62134 0.41517 0.92061 0.0
H260 H 0.57365 0.44579 0.12546 0.0
H261 H 0.62523 0.40687 0.18251 0.0
C262 C 0.68304 0.36576 0.11902 0.0
C263 C 0.71179 0.34456 0.08012 0.0
C264 C 0.65365 0.38839 0.0853 0.0
C265 C 0.71144 0.34746 0.00614 0.0
C266 C 0.68209 0.37031 0.97177 0.0
C267 C 0.62227 0.41305 0.97762 0.0
C268 C 0.5936 0.43348 0.01856 0.0
C269 C 0.65265 0.39062 0.01089 0.0
C270 C 0.59538 0.43071 0.09249 0.0
C271 C 0.62492 0.40841 0.12541 0.0
H272 H 0.84499 0.37834 0.24906 0.0
H273 H 0.8021 0.33558 0.44937 0.0
H274 H 0.846 0.38149 0.51115 0.0
H275 H 0.89868 0.43193 0.50833 0.0
H276 H 0.9391 0.47706 0.30803 0.0
H277 H 0.89398 0.43235 0.24633 0.0
C278 C 0.84515 0.37922 0.30623 0.0
C279 C 0.82054 0.35337 0.34453 0.0
C280 C 0.87008 0.4061 0.34146 0.0
C281 C 0.8207 0.3552 0.4186 0.0
C282 C 0.84591 0.38136 0.454 0.0
C283 C 0.89745 0.4321 0.45119 0.0
C284 C 0.92243 0.45758 0.41286 0.0
C285 C 0.87104 0.40665 0.416 0.0
C286 C 0.92015 0.4578 0.33884 0.0
C287 C 0.89446 0.43212 0.30346 0.0
H288 H 0.8559 0.65203 0.84128 0.0
H289 H 0.85102 0.7208 0.64923 0.0
H290 H 0.89285 0.67204 0.5897 0.0
H291 H 0.92854 0.60959 0.58959 0.0
H292 H 0.93466 0.53786 0.77792 0.0
H293 H 0.89427 0.58771 0.84123 0.0
C294 C 0.86451 0.65636 0.78674 0.0
C295 C 0.85033 0.68991 0.7496 0.0
C296 C 0.88823 0.62749 0.75186 0.0
C297 C 0.8613 0.69509 0.67875 0.0
C298 C 0.88519 0.6672 0.64455 0.0
C299 C 0.9211 0.60451 0.64451 0.0
C300 C 0.93448 0.5698 0.6787 0.0
C301 C 0.8983 0.63312 0.68018 0.0
C302 C 0.92457 0.56419 0.75007 0.0
C303 C 0.9016 0.59279 0.78634 0.0
H304 H 0.40472 0.42812 0.01164 0.0
H305 H 0.44157 0.47884 0.20988 0.0
H306 H 0.39869 0.43266 0.27343 0.0
H307 H 0.35198 0.37646 0.27284 0.0
H308 H 0.31268 0.32827 0.07404 0.0
H309 H 0.35512 0.37481 0.01074 0.0
C310 C 0.40328 0.42913 0.06875 0.0
C311 C 0.42651 0.45673 0.10594 0.0
C312 C 0.37816 0.40284 0.10492 0.0
C313 C 0.42394 0.45797 0.17992 0.0
C314 C 0.39953 0.43146 0.21634 0.0
C315 C 0.35269 0.37621 0.21566 0.0
C316 C 0.32939 0.34873 0.17828 0.0
C317 C 0.37672 0.40354 0.17944 0.0
C318 C 0.33026 0.34912 0.10416 0.0
C319 C 0.35461 0.37567 0.06786 0.0
H320 H 0.32006 0.65517 0.79263 0.0
H321 H 0.40246 0.68295 0.6257 0.0
H322 H 0.4453 0.62708 0.66214 0.0
H323 H 0.46223 0.57444 0.74992 0.0
H324 H 0.38009 0.55062 0.91896 0.0
H325 H 0.33378 0.60035 0.87248 0.0
C326 C 0.34732 0.64904 0.76381 0.0
C327 C 0.35838 0.67364 0.70724 0.0
C328 C 0.37168 0.61731 0.7853 0.0
C329 C 0.39341 0.66466 0.6698 0.0
C330 C 0.4179 0.63273 0.69067 0.0
C331 C 0.43363 0.57944 0.77499 0.0
C332 C 0.42417 0.55875 0.83722 0.0
C333 C 0.40771 0.6093 0.7493 0.0
C334 C 0.38762 0.56603 0.87063 0.0
C335 C 0.36135 0.59465 0.84443 0.0
H336 H 0.19103 0.69849 0.56915 0.0
H337 H 0.16973 0.67245 0.78873 0.0
H338 H 0.11852 0.62474 0.75568 0.0
H339 H 0.08063 0.58998 0.66464 0.0
H340 H 0.09972 0.61782 0.44516 0.0
H341 H 0.15107 0.66559 0.47803 0.0
C342 C 0.17524 0.68229 0.60977 0.0
C343 C 0.18435 0.6887 0.68128 0.0
C344 C 0.14552 0.65537 0.59042 0.0
C345 C 0.16325 0.668 0.73336 0.0
C346 C 0.13405 0.64069 0.71449 0.0
C347 C 0.09608 0.60643 0.62391 0.0
C348 C 0.08669 0.60016 0.55251 0.0
C349 C 0.12509 0.63406 0.64323 0.0
C350 C 0.10647 0.62214 0.50045 0.0
C351 C 0.13586 0.64935 0.51922 0.0
H352 H 0.17554 0.34897 0.34668 0.0
H353 H 0.24104 0.34221 0.54188 0.0
H354 H 0.18851 0.38093 0.60127 0.0
H355 H 0.12349 0.41755 0.59637 0.0
H356 H 0.06059 0.42302 0.39827 0.0
H357 H 0.11225 0.38323 0.3419 0.0
C358 C 0.17866 0.35595 0.40224 0.0
C359 C 0.21239 0.3428 0.43955 0.0
C360 C 0.14842 0.37765 0.43581 0.0
C361 C 0.21554 0.35219 0.51164 0.0
C362 C 0.18538 0.37413 0.54571 0.0
C363 C 0.121 0.40941 0.54122 0.0
C364 C 0.08824 0.42311 0.50152 0.0
C365 C 0.15151 0.38695 0.50831 0.0
C366 C 0.08555 0.41292 0.42985 0.0
C367 C 0.11513 0.39028 0.39744 0.0
loop_
_geom_bond_atom_site_label_1
_geom_bond_atom_site_label_2
_geom_bond_distance
_geom_bond_site_symmetry_2
_ccdc_geom_bond_type
C0 O2 1.247 . S
C0 O4 1.258 . S
C1 O8 1.247 . S
C1 O9 1.258 . S
O2 C0 1.247 . S
O2 Zn3 2.030 1_655 S
Zn3 O2 2.030 1_455 S
Zn3 O7 2.037 1_465 S
Zn3 O9 2.033 1_565 S
Zn3 O10 2.026 . S
O4 C0 1.258 . S
O4 Zn5 2.033 1_665 S
Zn5 O4 2.033 1_445 S
Zn5 O6 2.026 1_455 S
Zn5 O8 2.030 . S
Zn5 O11 2.037 1_545 S
O6 Zn5 2.026 1_655 S
O6 C12 1.247 . S
O7 Zn3 2.037 1_645 S
O7 C12 1.258 . S
O8 C1 1.247 . S
O8 Zn5 2.030 . S
O9 C1 1.258 . S
O9 Zn3 2.033 1_545 S
O10 Zn3 2.026 . S
O10 C13 1.247 . S
O11 Zn5 2.037 1_565 S
O11 C13 1.258 . S
C12 O6 1.247 . S
C12 O7 1.258 . S
C13 O10 1.247 . S
C13 O11 1.258 . S
C14 O16 1.247 . S
C14 O18 1.258 . S
C15 O22 1.247 . S
C15 O23 1.258 . S
O16 C14 1.247 . S
O16 Zn17 2.028 . S
Zn17 O16 2.028 . S
Zn17 O21 2.035 . S
Zn17 O23 2.035 . S
Zn17 O24 2.028 . S
O18 C14 1.258 . S
O18 Zn19 2.035 . S
Zn19 O18 2.035 . S
Zn19 O20 2.028 . S
Zn19 O22 2.028 . S
Zn19 O25 2.035 . S
O20 Zn19 2.028 . S
O20 C26 1.247 . S
O21 Zn17 2.035 . S
O21 C26 1.258 . S
O22 C15 1.247 . S
O22 Zn19 2.028 . S
O23 C15 1.258 . S
O23 Zn17 2.035 . S
O24 Zn17 2.028 . S
O24 C27 1.247 . S
O25 Zn19 2.035 . S
O25 C27 1.258 . S
C26 O20 1.247 . S
C26 O21 1.258 . S
C27 O24 1.247 . S
C27 O25 1.258 . S
C28 O30 1.247 . S
C28 O32 1.258 1_556 S
C29 O36 1.247 . S
C29 O37 1.258 1_554 S
O30 C28 1.247 . S
O30 Zn31 2.028 1_565 S
Zn31 O30 2.028 1_545 S
Zn31 O35 2.035 . S
Zn31 O37 2.035 . S
Zn31 O38 2.028 1_545 S
O32 C28 1.258 1_554 S
O32 Zn33 2.035 . S
Zn33 O32 2.035 . S
Zn33 O34 2.028 1_565 S
Zn33 O36 2.028 1_565 S
Zn33 O39 2.035 . S
O34 Zn33 2.028 1_545 S
O34 C40 1.247 . S
O35 Zn31 2.035 . S
O35 C40 1.258 1_556 S
O36 C29 1.247 . S
O36 Zn33 2.028 1_545 S
O37 C29 1.258 1_556 S
O37 Zn31 2.035 . S
O38 Zn31 2.028 1_565 S
O38 C41 1.247 . S
O39 Zn33 2.035 . S
O39 C41 1.258 1_554 S
C40 O34 1.247 . S
C40 O35 1.258 1_554 S
C41 O38 1.247 . S
C41 O39 1.258 1_556 S
C42 O44 1.247 . S
C42 O46 1.258 . S
C43 O50 1.247 . S
C43 O51 1.258 . S
O44 C42 1.247 . S
O44 Zn45 2.028 . S
Zn45 O44 2.028 . S
Zn45 O49 2.035 . S
Zn45 O51 2.035 . S
Zn45 O52 2.028 . S
O46 C42 1.258 . S
O46 Zn47 2.035 . S
Zn47 O46 2.035 . S
Zn47 O48 2.028 . S
Zn47 O50 2.028 . S
Zn47 O53 2.035 . S
O48 Zn47 2.028 . S
O48 C54 1.247 . S
O49 Zn45 2.035 . S
O49 C54 1.258 . S
O50 C43 1.247 . S
O50 Zn47 2.028 . S
O51 C43 1.258 . S
O51 Zn45 2.035 . S
O52 Zn45 2.028 . S
O52 C55 1.247 . S
O53 Zn47 2.035 . S
O53 C55 1.258 . S
C54 O48 1.247 . S
C54 O49 1.258 . S
C55 O52 1.247 . S
C55 O53 1.258 . S
C56 O58 1.247 . S
C56 O60 1.258 . S
C57 O64 1.247 . S
C57 O65 1.258 . S
O58 C56 1.247 . S
O58 Zn59 2.028 . S
Zn59 O58 2.028 . S
Zn59 O63 2.035 . S
Zn59 O65 2.035 . S
Zn59 O66 2.028 . S
O60 C56 1.258 . S
O60 Zn61 2.035 . S
Zn61 O60 2.035 . S
Zn61 O62 2.028 . S
Zn61 O64 2.028 . S
Zn61 O67 2.035 . S
O62 Zn61 2.028 . S
O62 C68 1.247 . S
O63 Zn59 2.035 . S
O63 C68 1.258 . S
O64 C57 1.247 . S
O64 Zn61 2.028 . S
O65 C57 1.258 . S
O65 Zn59 2.035 . S
O66 Zn59 2.028 . S
O66 C69 1.247 . S
O67 Zn61 2.035 . S
O67 C69 1.258 . S
C68 O62 1.247 . S
C68 O63 1.258 . S
C69 O66 1.247 . S
C69 O67 1.258 . S
C70 O72 1.247 . S
C70 O74 1.258 . S
C71 O78 1.247 . S
C71 O79 1.258 . S
O72 C70 1.247 . S
O72 Zn73 2.028 . S
Zn73 O72 2.028 . S
Zn73 O77 2.035 . S
Zn73 O79 2.035 . S
Zn73 O80 2.028 . S
O74 C70 1.258 . S
O74 Zn75 2.035 . S
Zn75 O74 2.035 . S
Zn75 O76 2.028 . S
Zn75 O78 2.028 . S
Zn75 O81 2.035 . S
O76 Zn75 2.028 . S
O76 C82 1.247 . S
O77 Zn73 2.035 . S
O77 C82 1.258 . S
O78 C71 1.247 . S
O78 Zn75 2.028 . S
O79 C71 1.258 . S
O79 Zn73 2.035 . S
O80 Zn73 2.028 . S
O80 C83 1.247 . S
O81 Zn75 2.035 . S
O81 C83 1.258 . S
C82 O76 1.247 . S
C82 O77 1.258 . S
C83 O80 1.247 . S
C83 O81 1.258 . S
C84 O86 1.247 1_556 S
C84 O88 1.258 . S
C85 O92 1.247 1_554 S
C85 O93 1.258 . S
O86 C84 1.247 1_554 S
O86 Zn87 2.028 . S
Zn87 O86 2.028 . S
Zn87 O91 2.035 . S
Zn87 O93 2.035 . S
Zn87 O94 2.028 . S
O88 C84 1.258 . S
O88 Zn89 2.035 . S
Zn89 O88 2.035 . S
Zn89 O90 2.028 . S
Zn89 O92 2.028 . S
Zn89 O95 2.035 . S
O90 Zn89 2.028 . S
O90 C96 1.247 1_556 S
O91 Zn87 2.035 . S
O91 C96 1.258 . S
O92 C85 1.247 1_556 S
O92 Zn89 2.028 . S
O93 C85 1.258 . S
O93 Zn87 2.035 . S
O94 Zn87 2.028 . S
O94 C97 1.247 1_554 S
O95 Zn89 2.035 . S
O95 C97 1.258 . S
C96 O90 1.247 1_554 S
C96 O91 1.258 . S
C97 O94 1.247 1_556 S
C97 O95 1.258 . S
C98 O100 1.247 . S
C98 O102 1.258 . S
C99 O106 1.247 . S
C99 O107 1.258 . S
O100 C98 1.247 . S
O100 Zn101 2.030 1_655 S
Zn101 O100 2.030 1_455 S
Zn101 O105 2.037 1_455 S
Zn101 O107 2.033 . S
Zn101 O108 2.026 . S
O102 C98 1.258 . S
O102 Zn103 2.033 1_655 S
Zn103 O102 2.033 1_455 S
Zn103 O104 2.026 1_455 S
Zn103 O106 2.030 . S
Zn103 O109 2.037 . S
O104 Zn103 2.026 1_655 S
O104 C110 1.247 . S
O105 Zn101 2.037 1_655 S
O105 C110 1.258 . S
O106 C99 1.247 . S
O106 Zn103 2.030 . S
O107 C99 1.258 . S
O107 Zn101 2.033 . S
O108 Zn101 2.026 . S
O108 C111 1.247 . S
O109 Zn103 2.037 . S
O109 C111 1.258 . S
C110 O104 1.247 . S
C110 O105 1.258 . S
C111 O108 1.247 . S
C111 O109 1.258 . S
H112 C118 0.930 . S
H113 C121 0.930 . S
H114 C122 0.930 . S
H115 C123 0.930 . S
H116 C126 0.930 . S
H117 C127 0.930 . S
C118 H112 0.930 . S
C118 C119 1.355 . S
C118 C120 1.415 . S
C119 C118 1.355 . S
C119 C121 1.419 . S
C120 C118 1.415 . S
C120 C125 1.425 . S
C120 C127 1.409 . S
C121 H113 0.930 . S
C121 C119 1.419 . S
C121 C122 1.362 . S
C122 H114 0.930 . S
C122 C121 1.362 . S
C122 C125 1.409 . S
C123 H115 0.930 . S
C123 C124 1.355 . S
C123 C125 1.415 . S
C124 C123 1.355 . S
C124 C126 1.419 . S
C125 C120 1.425 . S
C125 C122 1.409 . S
C125 C123 1.415 . S
C126 H116 0.930 . S
C126 C124 1.419 . S
C126 C127 1.362 . S
C127 H117 0.930 . S
C127 C120 1.409 . S
C127 C126 1.362 . S
H128 C134 0.930 . S
H129 C137 0.930 . S
H130 C138 0.930 . S
H131 C139 0.930 . S
H132 C142 0.930 . S
H133 C143 0.930 . S
C134 H128 0.930 . S
C134 C135 1.355 . S
C134 C136 1.415 . S
C135 C134 1.355 . S
C135 C137 1.419 . S
C136 C134 1.415 . S
C136 C141 1.425 . S
C136 C143 1.409 . S
C137 H129 0.930 . S
C137 C135 1.419 . S
C137 C138 1.362 . S
C138 H130 0.930 . S
C138 C137 1.362 . S
C138 C141 1.409 . S
C139 H131 0.930 . S
C139 C140 1.355 . S
C139 C141 1.415 . S
C140 C139 1.355 . S
C140 C142 1.419 . S
C141 C136 1.425 . S
C141 C138 1.409 . S
C141 C139 1.415 . S
C142 H132 0.930 . S
C142 C140 1.419 . S
C142 C143 1.362 . S
C143 H133 0.930 . S
C143 C136 1.409 . S
C143 C142 1.362 . S
H144 C150 0.930 . S
H145 C153 0.930 . S
H146 C154 0.930 . S
H147 C155 0.930 . S
H148 C158 0.930 . S
H149 C159 0.930 . S
C150 H144 0.930 . S
C150 C151 1.355 . S
C150 C152 1.415 . S
C151 C150 1.355 . S
C151 C153 1.419 . S
C152 C150 1.415 . S
C152 C157 1.425 . S
C152 C159 1.409 . S
C153 H145 0.930 . S
C153 C151 1.419 . S
C153 C154 1.362 . S
C154 H146 0.930 . S
C154 C153 1.362 . S
C154 C157 1.409 . S
C155 H147 0.930 . S
C155 C156 1.355 . S
C155 C157 1.415 . S
C156 C155 1.355 . S
C156 C158 1.419 . S
C157 C152 1.425 . S
C157 C154 1.409 . S
C157 C155 1.415 . S
C158 H148 0.930 . S
C158 C156 1.419 . S
C158 C159 1.362 . S
C159 H149 0.930 . S
C159 C152 1.409 . S
C159 C158 1.362 . S
H160 C166 0.930 . S
H161 C169 0.930 . S
H162 C170 0.930 . S
H163 C171 0.930 . S
H164 C174 0.930 1_556 S
H165 C175 0.929 . S
C166 H160 0.930 . S
C166 C167 1.355 . S
C166 C168 1.415 . S
C167 C166 1.355 . S
C167 C169 1.419 . S
C168 C166 1.415 . S
C168 C173 1.425 . S
C168 C175 1.409 . S
C169 H161 0.930 . S
C169 C167 1.419 . S
C169 C170 1.362 . S
C170 H162 0.930 . S
C170 C169 1.362 . S
C170 C173 1.409 . S
C171 H163 0.930 . S
C171 C172 1.355 . S
C171 C173 1.415 . S
C172 C171 1.355 . S
C172 C174 1.419 . S
C173 C168 1.425 . S
C173 C170 1.409 . S
C173 C171 1.415 . S
C174 H164 0.930 1_554 S
C174 C172 1.419 . S
C174 C175 1.362 . S
C175 H165 0.929 . S
C175 C168 1.409 . S
C175 C174 1.362 . S
H176 C182 0.930 . S
H177 C185 0.930 . S
H178 C186 0.930 . S
H179 C187 0.930 . S
H180 C190 0.930 . S
H181 C191 0.930 . S
C182 H176 0.930 . S
C182 C183 1.355 . S
C182 C184 1.415 . S
C183 C182 1.355 . S
C183 C185 1.419 . S
C184 C182 1.415 . S
C184 C189 1.425 . S
C184 C191 1.409 . S
C185 H177 0.930 . S
C185 C183 1.419 . S
C185 C186 1.362 . S
C186 H178 0.930 . S
C186 C185 1.362 . S
C186 C189 1.409 . S
C187 H179 0.930 . S
C187 C188 1.355 . S
C187 C189 1.415 . S
C188 C187 1.355 . S
C188 C190 1.419 . S
C189 C184 1.425 . S
C189 C186 1.409 . S
C189 C187 1.415 . S
C190 H180 0.930 . S
C190 C188 1.419 . S
C190 C191 1.362 . S
C191 H181 0.930 . S
C191 C184 1.409 . S
C191 C190 1.362 . S
H192 C198 0.930 . S
H193 C201 0.930 . S
H194 C202 0.930 . S
H195 C203 0.930 . S
H196 C206 0.930 . S
H197 C207 0.930 . S
C198 H192 0.930 . S
C198 C199 1.355 . S
C198 C200 1.415 . S
C199 C198 1.355 . S
C199 C201 1.419 . S
C200 C198 1.415 . S
C200 C205 1.425 . S
C200 C207 1.409 . S
C201 H193 0.930 . S
C201 C199 1.419 . S
C201 C202 1.362 . S
C202 H194 0.930 . S
C202 C201 1.362 . S
C202 C205 1.409 . S
C203 H195 0.930 . S
C203 C204 1.355 . S
C203 C205 1.415 . S
C204 C203 1.355 . S
C204 C206 1.419 . S
C205 C200 1.425 . S
C205 C202 1.409 . S
C205 C203 1.415 . S
C206 H196 0.930 . S
C206 C204 1.419 . S
C206 C207 1.362 . S
C207 H197 0.930 . S
C207 C200 1.409 . S
C207 C206 1.362 . S
H208 C214 0.930 . S
H209 C217 0.930 . S
H210 C218 0.930 . S
H211 C219 0.930 . S
H212 C222 0.930 . S
H213 C223 0.930 . S
C214 H208 0.930 . S
C214 C215 1.355 . S
C214 C216 1.415 . S
C215 C214 1.355 . S
C215 C217 1.419 . S
C216 C214 1.415 . S
C216 C221 1.425 . S
C216 C223 1.409 . S
C217 H209 0.930 . S
C217 C215 1.419 . S
C217 C218 1.362 . S
C218 H210 0.930 . S
C218 C217 1.362 . S
C218 C221 1.409 . S
C219 H211 0.930 . S
C219 C220 1.355 . S
C219 C221 1.415 . S
C220 C219 1.355 . S
C220 C222 1.419 . S
C221 C216 1.425 . S
C221 C218 1.409 . S
C221 C219 1.415 . S
C222 H212 0.930 . S
C222 C220 1.419 . S
C222 C223 1.362 . S
C223 H213 0.930 . S
C223 C216 1.409 . S
C223 C222 1.362 . S
H224 C230 0.930 . S
H225 C233 0.930 1_554 S
H226 C234 0.930 1_554 S
H227 C235 0.930 . S
H228 C238 0.930 . S
H229 C239 0.930 . S
C230 H224 0.930 . S
C230 C231 1.355 . S
C230 C232 1.415 . S
C231 C230 1.355 . S
C231 C233 1.419 . S
C232 C230 1.415 . S
C232 C237 1.425 . S
C232 C239 1.409 . S
C233 H225 0.930 1_556 S
C233 C231 1.419 . S
C233 C234 1.362 . S
C234 H226 0.930 1_556 S
C234 C233 1.362 . S
C234 C237 1.409 . S
C235 H227 0.930 . S
C235 C236 1.355 . S
C235 C237 1.415 . S
C236 C235 1.355 . S
C236 C238 1.419 . S
C237 C232 1.425 . S
C237 C234 1.409 . S
C237 C235 1.415 . S
C238 H228 0.930 . S
C238 C236 1.419 . S
C238 C239 1.362 . S
C239 H229 0.930 . S
C239 C232 1.409 . S
C239 C238 1.362 . S
H240 C246 0.930 . S
H241 C249 0.930 1_554 S
H242 C250 0.930 . S
H243 C251 0.930 . S
H244 C254 0.930 . S
H245 C255 0.930 . S
C246 H240 0.930 . S
C246 C247 1.355 . S
C246 C248 1.415 . S
C247 C246 1.355 . S
C247 C249 1.419 . S
C248 C246 1.415 . S
C248 C253 1.425 . S
C248 C255 1.409 . S
C249 H241 0.930 1_556 S
C249 C247 1.419 . S
C249 C250 1.362 . S
C250 H242 0.930 . S
C250 C249 1.362 . S
C250 C253 1.409 . S
C251 H243 0.930 . S
C251 C252 1.355 . S
C251 C253 1.415 . S
C252 C251 1.355 . S
C252 C254 1.419 . S
C253 C248 1.425 . S
C253 C250 1.409 . S
C253 C251 1.415 . S
C254 H244 0.930 . S
C254 C252 1.419 . S
C254 C255 1.362 . S
C255 H245 0.930 . S
C255 C248 1.409 . S
C255 C254 1.362 . S
H256 C262 0.930 . S
H257 C265 0.930 . S
H258 C266 0.930 . S
H259 C267 0.930 . S
H260 C270 0.930 . S
H261 C271 0.930 . S
C262 H256 0.930 . S
C262 C263 1.355 . S
C262 C264 1.415 . S
C263 C262 1.355 . S
C263 C265 1.419 . S
C264 C262 1.415 . S
C264 C269 1.425 . S
C264 C271 1.409 . S
C265 H257 0.930 . S
C265 C263 1.419 . S
C265 C266 1.362 . S
C266 H258 0.930 . S
C266 C265 1.362 . S
C266 C269 1.409 . S
C267 H259 0.930 . S
C267 C268 1.355 . S
C267 C269 1.415 . S
C268 C267 1.355 . S
C268 C270 1.419 . S
C269 C264 1.425 . S
C269 C266 1.409 . S
C269 C267 1.415 . S
C270 H260 0.930 . S
C270 C268 1.419 . S
C270 C271 1.362 . S
C271 H261 0.930 . S
C271 C264 1.409 . S
C271 C270 1.362 . S
H272 C278 0.930 . S
H273 C281 0.930 . S
H274 C282 0.930 . S
H275 C283 0.930 . S
H276 C286 0.930 . S
H277 C287 0.930 . S
C278 H272 0.930 . S
C278 C279 1.355 . S
C278 C280 1.415 . S
C279 C278 1.355 . S
C279 C281 1.419 . S
C280 C278 1.415 . S
C280 C285 1.425 . S
C280 C287 1.409 . S
C281 H273 0.930 . S
C281 C279 1.419 . S
C281 C282 1.362 . S
C282 H274 0.930 . S
C282 C281 1.362 . S
C282 C285 1.409 . S
C283 H275 0.930 . S
C283 C284 1.355 . S
C283 C285 1.415 . S
C284 C283 1.355 . S
C284 C286 1.419 . S
C285 C280 1.425 . S
C285 C282 1.409 . S
C285 C283 1.415 . S
C286 H276 0.930 . S
C286 C284 1.419 . S
C286 C287 1.362 . S
C287 H277 0.930 . S
C287 C280 1.409 . S
C287 C286 1.362 . S
H288 C294 0.930 . S
H289 C297 0.930 . S
H290 C298 0.930 . S
H291 C299 0.930 . S
H292 C302 0.930 . S
H293 C303 0.930 . S
C294 H288 0.930 . S
C294 C295 1.355 . S
C294 C296 1.415 . S
C295 C294 1.355 . S
C295 C297 1.419 . S
C296 C294 1.415 . S
C296 C301 1.425 . S
C296 C303 1.409 . S
C297 H289 0.930 . S
C297 C295 1.419 . S
C297 C298 1.362 . S
C298 H290 0.930 . S
C298 C297 1.362 . S
C298 C301 1.409 . S
C299 H291 0.930 . S
C299 C300 1.355 . S
C299 C301 1.415 . S
C300 C299 1.355 . S
C300 C302 1.419 . S
C301 C296 1.425 . S
C301 C298 1.409 . S
C301 C299 1.415 . S
C302 H292 0.930 . S
C302 C300 1.419 . S
C302 C303 1.362 . S
C303 H293 0.930 . S
C303 C296 1.409 . S
C303 C302 1.362 . S
H304 C310 0.930 . S
H305 C313 0.930 . S
H306 C314 0.930 . S
H307 C315 0.930 . S
H308 C318 0.930 . S
H309 C319 0.930 . S
C310 H304 0.930 . S
C310 C311 1.355 . S
C310 C312 1.415 . S
C311 C310 1.355 . S
C311 C313 1.419 . S
C312 C310 1.415 . S
C312 C317 1.425 . S
C312 C319 1.409 . S
C313 H305 0.930 . S
C313 C311 1.419 . S
C313 C314 1.362 . S
C314 H306 0.930 . S
C314 C313 1.362 . S
C314 C317 1.409 . S
C315 H307 0.930 . S
C315 C316 1.355 . S
C315 C317 1.415 . S
C316 C315 1.355 . S
C316 C318 1.419 . S
C317 C312 1.425 . S
C317 C314 1.409 . S
C317 C315 1.415 . S
C318 H308 0.930 . S
C318 C316 1.419 . S
C318 C319 1.362 . S
C319 H309 0.930 . S
C319 C312 1.409 . S
C319 C318 1.362 . S
H320 C326 0.930 . S
H321 C329 0.930 . S
H322 C330 0.930 . S
H323 C331 0.930 . S
H324 C334 0.930 1_554 S
H325 C335 0.930 . S
C326 H320 0.930 . S
C326 C327 1.355 . S
C326 C328 1.415 . S
C327 C326 1.355 . S
C327 C329 1.419 . S
C328 C326 1.415 . S
C328 C333 1.425 . S
C328 C335 1.409 . S
C329 H321 0.930 . S
C329 C327 1.419 . S
C329 C330 1.362 . S
C330 H322 0.930 . S
C330 C329 1.362 . S
C330 C333 1.409 . S
C331 H323 0.930 . S
C331 C332 1.355 . S
C331 C333 1.415 . S
C332 C331 1.355 . S
C332 C334 1.419 . S
C333 C328 1.425 . S
C333 C330 1.409 . S
C333 C331 1.415 . S
C334 H324 0.930 1_556 S
C334 C332 1.419 . S
C334 C335 1.362 . S
C335 H325 0.930 . S
C335 C328 1.409 . S
C335 C334 1.362 . S
H336 C342 0.930 . S
H337 C345 0.930 . S
H338 C346 0.930 . S
H339 C347 0.930 . S
H340 C350 0.930 . S
H341 C351 0.930 . S
C342 H336 0.930 . S
C342 C343 1.355 . S
C342 C344 1.415 . S
C343 C342 1.355 . S
C343 C345 1.419 . S
C344 C342 1.415 . S
C344 C349 1.425 . S
C344 C351 1.409 . S
C345 H337 0.930 . S
C345 C343 1.419 . S
C345 C346 1.362 . S
C346 H338 0.930 . S
C346 C345 1.362 . S
C346 C349 1.409 . S
C347 H339 0.930 . S
C347 C348 1.355 . S
C347 C349 1.415 . S
C348 C347 1.355 . S
C348 C350 1.419 . S
C349 C344 1.425 . S
C349 C346 1.409 . S
C349 C347 1.415 . S
C350 H340 0.930 . S
C350 C348 1.419 . S
C350 C351 1.362 . S
C351 H341 0.930 . S
C351 C344 1.409 . S
C351 C350 1.362 . S
H352 C358 0.930 . S
H353 C361 0.930 . S
H354 C362 0.930 . S
H355 C363 0.930 . S
H356 C366 0.930 . S
H357 C367 0.930 . S
C358 H352 0.930 . S
C358 C359 1.355 . S
C358 C360 1.415 . S
C359 C358 1.355 . S
C359 C361 1.419 . S
C360 C358 1.415 . S
C360 C365 1.425 . S
C360 C367 1.409 . S
C361 H353 0.930 . S
C361 C359 1.419 . S
C361 C362 1.362 . S
C362 H354 0.930 . S
C362 C361 1.362 . S
C362 C365 1.409 . S
C363 H355 0.930 . S
C363 C364 1.355 . S
C363 C365 1.415 . S
C364 C363 1.355 . S
C364 C366 1.419 . S
C365 C360 1.425 . S
C365 C362 1.409 . S
C365 C363 1.415 . S
C366 H356 0.930 . S
C366 C364 1.419 . S
C366 C367 1.362 . S
C367 H357 0.930 . S
C367 C360 1.409 . S
C367 C366 1.362 . S
C119 C1 1.488 . S
C124 C54 1.489 . S
C135 C13 1.498 . S
C140 C14 1.487 . S
C151 C28 1.498 . S
C156 C26 1.489 . S
C167 C42 1.491 . S
C172 C40 1.487 . S
C183 C0 1.491 . S
C188 C83 1.501 . S
C199 C12 1.488 . S
C204 C57 1.499 . S
C215 C69 1.487 . S
C220 C29 1.491 . S
C231 C41 1.491 . S
C236 C71 1.492 . S
C247 C97 1.491 . S
C252 C82 1.490 . S
C263 C56 1.498 . S
C268 C85 1.486 . S
C279 C68 1.487 . S
C284 C98 1.500 . S
C295 C70 1.498 . S
C300 C110 1.489 . S
C311 C96 1.489 . S
C316 C55 1.498 . S
C327 C15 1.489 . S
C332 C84 1.492 . S
C343 C27 1.486 . S
C348 C99 1.496 . S
C359 C43 1.497 . S
C364 C111 1.487 . S
