# Generated by pormake.
# Topology kag, (6)-cn, num edge types: 1
# Building blocks:
#     Node 0, Type 0, BuildingBlock: LEVNOQ01_clean_sbu_1, # of connection points: 6
#     Node 1, Type 0, BuildingBlock: LEVNOQ01_clean_sbu_1, # of connection points: 6
#     Node 2, Type 0, BuildingBlock: LEVNOQ01_clean_sbu_1, # of connection points: 6
#     Edge 3, Type (0, 0), BuildingBlock: TEMPAE_clean_linker_10, # of connection points: 2
#     Edge 4, Type (0, 0), BuildingBlock: TEMPAE_clean_linker_10, # of connection points: 2
#     Edge 5, Type (0, 0), BuildingBlock: TEMPAE_clean_linker_10, # of connection points: 2
#     Edge 6, Type (0, 0), BuildingBlock: TEMPAE_clean_linker_10, # of connection points: 2
#     Edge 7, Type (0, 0), BuildingBlock: TEMPAE_clean_linker_10, # of connection points: 2
#     Edge 8, Type (0, 0), BuildingBlock: TEMPAE_clean_linker_10, # of connection points: 2
#     Edge 9, Type (0, 0), BuildingBlock: TEMPAE_clean_linker_10, # of connection points: 2
#     Edge 10, Type (0, 0), BuildingBlock: TEMPAE_clean_linker_10, # of connection points: 2
#     Edge 11, Type (0, 0), BuildingBlock: TEMPAE_clean_linker_10, # of connection points: 2
# Relax obj value: 0.109
# Max RMSD: 0.157
# Mean RMSD: 0.150
data_MOF--net-kag--node1-LEVNOQ01_clean_sbu_1--edge1-TEMPAE_clean_linker_10
_symmetry_space_group_name_H-M    P1
_symmetry_Int_Tables_number       1
_symmetry_cell_setting            triclinic
loop_
_symmetry_equiv_pos_as_xyz
'x, y, z'
_cell_length_a     30.816787
_cell_length_b     30.562552
_cell_length_c     15.641965
_cell_angle_alpha  89.815007
_cell_angle_beta   101.38176
_cell_angle_gamma 119.62004
loop_
_atom_site_label
_atom_site_type_symbol
_atom_site_fract_x
_atom_site_fract_y
_atom_site_fract_z
_atom_type_partial_charge
O0 O 0.90632 0.4067 0.89654 0.0
Mg1 Mg 0.92912 0.4802 0.85784 0.0
O2 O 0.97705 0.42766 0.99895 0.0
Mg3 Mg 0.03651 0.51259 -0.00011 0.0
O4 O 0.00408 0.51227 0.8563 0.0
O5 O 0.94551 0.49914 0.73603 0.0
O6 O 0.09614 0.59591 2e-05 0.0
O7 O 0.08314 0.48328 0.93442 0.0
Mg8 Mg 0.11494 0.51529 0.08677 0.0
O9 O 0.06648 0.5165 0.15541 0.0
O10 O 0.16048 0.58179 0.0277 0.0
O11 O 0.09315 0.44111 0.04022 0.0
O12 O 0.1452 0.52944 0.21638 0.0
C13 C 0.94964 0.54829 0.01722 0.0
C14 C 0.93233 0.39505 0.95574 0.0
C15 C 0.99272 0.51499 0.77328 0.0
C16 C 0.1433 0.61133 0.00626 0.0
C17 C 0.09188 0.44831 0.96096 0.0
C18 C 0.10237 0.52488 0.22438 0.0
O19 O 0.92427 0.53091 0.939 0.0
O20 O 0.98663 0.54112 0.05131 0.0
O21 O 0.59376 0.93018 0.97162 0.0
Mg22 Mg 0.52819 0.93703 0.94 0.0
O23 O 0.57368 0.94974 0.08448 0.0
Mg24 Mg 0.56018 0.01546 0.01696 0.0
O25 O 0.53354 0.98997 0.85985 0.0
O26 O 0.49266 0.90652 0.81554 0.0
O27 O 0.55246 0.08507 0.97151 0.0
O28 O 0.64528 0.05455 0.00027 0.0
Mg29 Mg 0.64065 0.11604 0.15959 0.0
O30 O 0.58213 0.04595 0.15825 0.0
O31 O 0.60719 0.15042 0.07266 0.0
O32 O 0.69677 0.10512 0.12212 0.0
O33 O 0.62182 0.09753 0.28116 0.0
C34 C 0.45199 0.9292 0.03507 0.0
C35 C 0.59252 0.92676 0.05125 0.0
C36 C 0.50866 0.95238 0.79741 0.0
C37 C 0.57283 0.13157 0.0017 0.0
C38 C 0.69013 0.0824 0.04883 0.0
C39 C 0.5864 0.05399 0.24083 0.0
O40 O 0.46944 0.90261 0.0117 0.0
O41 O 0.47623 0.97667 0.03177 0.0
O42 O 0.41422 0.48086 0.86408 0.0
Mg43 Mg 0.48597 0.54006 0.92489 0.0
O44 O 0.43508 0.46553 0.99742 0.0
Mg45 Mg 0.526 0.4975 0.01691 0.0
O46 O 0.54186 0.53465 0.88171 0.0
O47 O 0.51264 0.58678 0.83424 0.0
O48 O 0.61003 0.51804 0.04838 0.0
O49 O 0.5044 0.42224 0.93219 0.0
Mg50 Mg 0.52642 0.40898 0.11227 0.0
O51 O 0.51897 0.46717 0.15069 0.0
O52 O 0.60388 0.446 0.09299 0.0
O53 O 0.46296 0.36232 0.01013 0.0
O54 O 0.51442 0.40827 0.23804 0.0
C55 C 0.52911 0.59748 0.09664 0.0
C56 C 0.40068 0.45722 0.92848 0.0
C57 C 0.53874 0.56535 0.82565 0.0
C58 C 0.63013 0.49099 0.07367 0.0
C59 C 0.47499 0.37534 0.93788 0.0
C60 C 0.51503 0.4503 0.22631 0.0
O61 O 0.49169 0.58593 0.03314 0.0
O62 O 0.55327 0.57368 0.09929 0.0
C63 C 0.03232 0.56869 0.66221 0.0
C64 C 0.03056 0.53275 0.71906 0.0
C65 C 0.05442 0.57473 0.58989 0.0
C66 C 0.07349 0.54275 0.57302 0.0
C67 C 0.07629 0.50987 0.63526 0.0
C68 C 0.05497 0.50554 0.70846 0.0
C69 C 0.05247 0.61163 0.52696 0.0
C70 C 0.09631 0.47509 0.61978 0.0
C71 C 0.04624 0.50169 0.33097 0.0
C72 C 0.09486 0.52968 0.3131 0.0
C73 C 0.03928 0.50456 0.41621 0.0
C74 C 0.08173 0.53753 0.48424 0.0
C75 C 0.13081 0.56656 0.46606 0.0
C76 C 0.13693 0.56169 0.38076 0.0
C77 C 0.98639 0.47231 0.43338 0.0
C78 C 0.17647 0.60343 0.53602 0.0
H79 H 0.01323 0.5896 0.67094 0.0
H80 H 0.0528 0.47724 0.75212 0.0
H81 H 0.08843 0.63165 0.50325 0.0
H82 H 0.02049 0.59067 0.46897 0.0
H83 H 0.0462 0.64015 0.55772 0.0
H84 H 0.10486 0.45934 0.68078 0.0
H85 H 0.06695 0.4431 0.57007 0.0
H86 H 0.13146 0.49504 0.59384 0.0
H87 H 0.01388 0.4767 0.27869 0.0
H88 H 0.17454 0.58372 0.36653 0.0
H89 H 0.97221 0.49692 0.45299 0.0
H90 H 0.98784 0.44966 0.48834 0.0
H91 H 0.95841 0.44608 0.37485 0.0
H92 H 0.16947 0.63302 0.55995 0.0
H93 H 0.21231 0.62221 0.51156 0.0
H94 H 0.18212 0.58374 0.59315 0.0
C95 C 0.51008 0.01904 0.30329 0.0
C96 C 0.55235 0.01653 0.28977 0.0
C97 C 0.48907 -0.00068 0.37573 0.0
C98 C 0.51185 0.97775 0.43574 0.0
C99 C 0.55037 0.96961 0.41565 0.0
C100 C 0.5704 0.98945 0.3426 0.0
C101 C 0.44663 0.00683 0.39311 0.0
C102 C 0.57487 0.94565 0.47682 0.0
C103 C 0.53449 0.00889 0.67969 0.0
C104 C 0.50241 0.96151 0.70433 0.0
C105 C 0.53573 0.01526 0.5913 0.0
C106 C 0.50353 0.97334 0.52627 0.0
C107 C 0.46793 0.92658 0.55014 0.0
C108 C 0.46808 0.92109 0.63917 0.0
C109 C 0.57397 0.06603 0.56826 0.0
C110 C 0.43194 0.88147 0.48268 0.0
H111 H 0.49657 0.04044 0.26213 0.0
H112 H 0.6034 0.98803 0.33171 0.0
H113 H 0.41924 0.97395 0.42175 0.0
H114 H 0.46327 0.04084 0.44102 0.0
H115 H 0.42539 0.01258 0.33217 0.0
H116 H 0.59833 0.93523 0.44538 0.0
H117 H 0.60011 0.97278 0.53599 0.0
H118 H 0.54535 0.91121 0.49882 0.0
H119 H 0.56085 0.04024 0.72975 0.0
H120 H 0.44252 0.88447 0.65786 0.0
H121 H 0.5545 0.07928 0.51632 0.0
H122 H 0.60308 0.06229 0.5421 0.0
H123 H 0.59402 0.09539 0.6258 0.0
H124 H 0.41699 0.89306 0.42177 0.0
H125 H 0.39906 0.85278 0.50824 0.0
H126 H 0.45291 0.86328 0.46499 0.0
C127 C 0.57391 0.53717 0.71965 0.0
C128 C 0.55495 0.56787 0.74162 0.0
C129 C 0.57502 0.52829 0.63215 0.0
C130 C 0.55555 0.54961 0.5653 0.0
C131 C 0.54133 0.5846 0.58841 0.0
C132 C 0.54203 0.59395 0.67645 0.0
C133 C 0.59285 0.4926 0.61037 0.0
C134 C 0.51997 0.60794 0.51951 0.0
C135 C 0.56423 0.52816 0.33114 0.0
C136 C 0.51961 0.48122 0.30264 0.0
C137 C 0.57625 0.55201 0.41599 0.0
C138 C 0.54194 0.52876 0.47195 0.0
C139 C 0.49479 0.48334 0.44009 0.0
C140 C 0.48476 0.45952 0.35643 0.0
C141 C 0.62732 0.59972 0.44755 0.0
C142 C 0.45596 0.45849 0.49595 0.0
H143 H 0.58467 0.51741 0.76951 0.0
H144 H 0.52812 0.61853 0.69265 0.0
H145 H 0.55911 0.45532 0.58138 0.0
H146 H 0.61678 0.50732 0.56118 0.0
H147 H 0.61524 0.48672 0.66953 0.0
H148 H 0.5191 0.64059 0.54839 0.0
H149 H 0.54262 0.6208 0.46836 0.0
H150 H 0.4802 0.57897 0.48658 0.0
H151 H 0.5916 0.54425 0.2897 0.0
H152 H 0.45046 0.42298 0.33409 0.0
H153 H 0.65405 0.58999 0.48992 0.0
H154 H 0.62386 0.62727 0.4875 0.0
H155 H 0.64444 0.61821 0.39203 0.0
H156 H 0.47129 0.44351 0.55124 0.0
H157 H 0.41906 0.42671 0.458 0.0
H158 H 0.44841 0.48661 0.52443 0.0
C159 C 0.11411 0.38328 0.93042 0.0
C160 C 0.11843 0.43037 0.91523 0.0
C161 C 0.15244 0.37318 0.919 0.0
C162 C 0.19645 0.41173 0.8944 0.0
C163 C 0.19776 0.45687 0.86875 0.0
C164 C 0.15812 0.46532 0.87828 0.0
C165 C 0.14808 0.32341 0.94209 0.0
C166 C 0.24381 0.49891 0.84141 0.0
C167 C 0.32969 0.43899 0.00109 0.0
C168 C 0.34575 0.43075 0.92827 0.0
C169 C 0.27935 0.42904 0.99254 0.0
C170 C 0.24436 0.40936 0.9097 0.0
C171 C 0.25882 0.39503 0.8392 0.0
C172 C 0.30972 0.40664 0.84895 0.0
C173 C 0.26529 0.44442 0.06982 0.0
C174 C 0.22204 0.37156 0.75132 0.0
H175 H 0.08295 0.356 0.9582 0.0
H176 H 0.16142 0.50173 0.86652 0.0
H177 H 0.16612 0.31094 0.90052 0.0
H178 H 0.16803 0.32786 0.01151 0.0
H179 H 0.10738 0.29333 0.93462 0.0
H180 H 0.23665 0.5292 0.81547 0.0
H181 H 0.27682 0.51604 0.89889 0.0
H182 H 0.25488 0.48387 0.79043 0.0
H183 H 0.35761 0.45775 0.06229 0.0
H184 H 0.32216 0.39979 0.79277 0.0
H185 H 0.22874 0.41301 0.08102 0.0
H186 H 0.25967 0.47713 0.05572 0.0
H187 H 0.29535 0.45535 0.1311 0.0
H188 H 0.18276 0.34472 0.75933 0.0
H189 H 0.2344 0.35124 0.71217 0.0
H190 H 0.22041 0.40173 0.71364 0.0
C191 C 0.7835 0.11767 0.07333 0.0
C192 C 0.73626 0.09953 0.01358 0.0
C193 C 0.82799 0.15867 0.05649 0.0
C194 C 0.82437 0.18105 0.9782 0.0
C195 C 0.77983 0.15487 0.90988 0.0
C196 C 0.73563 0.11407 0.92857 0.0
C197 C 0.87573 0.1835 0.12909 0.0
C198 C 0.776 0.17544 0.82276 0.0
C199 C 0.86531 0.31985 0.00473 0.0
C200 C 0.90984 0.34201 0.97276 0.0
C201 C 0.83877 0.26774 0.01042 0.0
C202 C 0.85651 0.23686 0.98056 0.0
C203 C 0.90263 0.25954 0.95063 0.0
C204 C 0.92907 0.31224 0.94764 0.0
C205 C 0.79068 0.2457 0.04572 0.0
C206 C 0.92282 0.22855 0.91706 0.0
H207 H 0.78432 0.105 0.13819 0.0
H208 H 0.69943 0.09909 0.88108 0.0
H209 H 0.91073 0.20146 0.10237 0.0
H210 H 0.87548 0.21352 0.16844 0.0
H211 H 0.87746 0.15571 0.17356 0.0
H212 H 0.7453 0.1455 0.77101 0.0
H213 H 0.76676 0.20594 0.82903 0.0
H214 H 0.81294 0.19191 0.8021 0.0
H215 H 0.85075 0.34333 0.02376 0.0
H216 H 0.96338 0.32981 0.92173 0.0
H217 H 0.79282 0.2226 0.09949 0.0
H218 H 0.75684 0.22058 0.99296 0.0
H219 H 0.78436 0.27544 0.07144 0.0
H220 H 0.91208 0.19331 0.94906 0.0
H221 H 0.9652 0.25086 0.92705 0.0
H222 H 0.90642 0.21773 0.84551 0.0
C223 C 0.58096 0.84121 0.03494 0.0
C224 C 0.59535 0.88404 0.09114 0.0
C225 C 0.57684 0.79713 0.06741 0.0
C226 C 0.58917 0.79592 0.15927 0.0
C227 C 0.60546 0.83958 0.21701 0.0
C228 C 0.60757 0.88313 0.18214 0.0
C229 C 0.55746 0.75127 0.00249 0.0
C230 C 0.62129 0.84075 0.31495 0.0
C231 C 0.51596 0.65854 0.17578 0.0
C232 C 0.54986 0.64479 0.15393 0.0
C233 C 0.53166 0.70959 0.19611 0.0
C234 C 0.58178 0.74727 0.19122 0.0
C235 C 0.61836 0.73282 0.18537 0.0
C236 C 0.6019 0.68131 0.16683 0.0
C237 C 0.49207 0.72313 0.20726 0.0
C238 C 0.67271 0.77185 0.18368 0.0
H239 H 0.57049 0.84119 0.96456 0.0
H240 H 0.61879 0.91627 0.22571 0.0
H241 H 0.58647 0.73932 0.00887 0.0
H242 H 0.52201 0.71914 0.01593 0.0
H243 H 0.54868 0.7586 0.9334 0.0
H244 H 0.62051 0.87151 0.35108 0.0
H245 H 0.59645 0.80412 0.3381 0.0
H246 H 0.66102 0.84764 0.33172 0.0
H247 H 0.47591 0.63 0.16806 0.0
H248 H 0.62843 0.67063 0.15131 0.0
H249 H 0.47555 0.73041 0.14282 0.0
H250 H 0.50939 0.7579 0.25353 0.0
H251 H 0.46039 0.69181 0.23157 0.0
H252 H 0.67414 0.78375 0.11668 0.0
H253 H 0.69881 0.75632 0.20065 0.0
H254 H 0.68669 0.80593 0.22988 0.0
C255 C 0.91458 0.55138 0.14553 0.0
C256 C 0.92999 0.57158 0.06926 0.0
C257 C 0.87352 0.55258 0.16957 0.0
C258 C 0.84737 0.57311 0.11445 0.0
C259 C 0.86941 0.60185 0.04792 0.0
C260 C 0.91108 0.60114 0.02671 0.0
C261 C 0.85361 0.52558 0.24603 0.0
C262 C 0.844 0.62589 0.98915 0.0
C263 C 0.70378 0.48542 0.04664 0.0
C264 C 0.6855 0.51267 0.0838 0.0
C265 C 0.75646 0.50501 0.05649 0.0
C266 C 0.79171 0.55215 0.10802 0.0
C267 C 0.77322 0.57931 0.14748 0.0
C268 C 0.72009 0.55949 0.13371 0.0
C269 C 0.77421 0.47537 0.01047 0.0
C270 C 0.80898 0.62816 0.20657 0.0
H271 H 0.92987 0.52927 0.17964 0.0
H272 H 0.92409 0.61782 0.96886 0.0
H273 H 0.83799 0.54488 0.27934 0.0
H274 H 0.82215 0.4863 0.22192 0.0
H275 H 0.88416 0.52368 0.29438 0.0
H276 H 0.87056 0.65427 0.95235 0.0
H277 H 0.81051 0.59602 0.94094 0.0
H278 H 0.82987 0.64461 0.02749 0.0
H279 H 0.67671 0.44916 0.00828 0.0
H280 H 0.70552 0.57988 0.16399 0.0
H281 H 0.79618 0.46318 0.05959 0.0
H282 H 0.8 0.49953 0.96844 0.0
H283 H 0.74176 0.44112 0.96869 0.0
H284 H 0.81963 0.61902 0.27339 0.0
H285 H 0.79042 0.65105 0.21137 0.0
H286 H 0.84488 0.6515 0.18403 0.0
C287 C 0.22453 0.67819 0.97287 0.0
C288 C 0.17939 0.6649 4e-05 0.0
C289 C 0.2631 0.72897 0.97967 0.0
C290 C 0.25688 0.76721 0.0169 0.0
C291 C 0.21026 0.75419 0.0405 0.0
C292 C 0.17171 0.70302 0.03087 0.0
C293 C 0.31163 0.74136 0.951 0.0
C294 C 0.20231 0.79357 0.08141 0.0
C295 C 0.38946 0.87272 0.11808 0.0
C296 C 0.39982 0.90266 0.04887 0.0
C297 C 0.34014 0.8317 0.1139 0.0
C298 C 0.30131 0.81966 0.03716 0.0
C299 C 0.31033 0.85348 0.97204 0.0
C300 C 0.35974 0.89508 0.97913 0.0
C301 C 0.33147 0.79781 0.18663 0.0
C302 C 0.27008 0.8423 0.88945 0.0
H303 H 0.23022 0.64868 0.94834 0.0
H304 H 0.13686 0.69267 0.05258 0.0
H305 H 0.32145 0.77218 0.90776 0.0
H306 H 0.34392 0.75488 0.00934 0.0
H307 H 0.3082 0.70803 0.9153 0.0
H308 H 0.16114 0.77939 0.07863 0.0
H309 H 0.2231 0.80367 0.1513 0.0
H310 H 0.21787 0.82871 0.04865 0.0
H311 H 0.42079 0.87871 0.17177 0.0
H312 H 0.36824 0.91811 0.92519 0.0
H313 H 0.33306 0.76397 0.16625 0.0
H314 H 0.29313 0.7845 0.20025 0.0
H315 H 0.3611 0.81748 0.24813 0.0
H316 H 0.26896 0.81391 0.84365 0.0
H317 H 0.27866 0.87685 0.85593 0.0
H318 H 0.2315 0.82617 0.90365 0.0
C319 C 0.43529 0.28506 0.8819 0.0
C320 C 0.47209 0.33569 0.87898 0.0
C321 C 0.44545 0.246 0.86831 0.0
C322 C 0.49321 0.25817 0.8504 0.0
C323 C 0.52506 0.30734 0.82871 0.0
C324 C 0.51432 0.34599 0.8439 0.0
C325 C 0.40923 0.19371 0.88877 0.0
C326 C 0.57454 0.32098 0.80313 0.0
C327 C 0.56254 0.207 0.00803 0.0
C328 C 0.55414 0.16431 0.95841 0.0
C329 C 0.54374 0.23795 0.9725 0.0
C330 C 0.5163 0.22677 0.88382 0.0
C331 C 0.50881 0.18456 0.83202 0.0
C332 C 0.52754 0.15348 0.87023 0.0
C333 C 0.55231 0.28202 0.03141 0.0
C334 C 0.48203 0.17264 0.73627 0.0
H335 H 0.40177 0.27675 0.9065 0.0
H336 H 0.54245 0.38489 0.83924 0.0
H337 H 0.40714 0.16408 0.84467 0.0
H338 H 0.42346 0.18913 0.95722 0.0
H339 H 0.37003 0.18759 0.88268 0.0
H340 H 0.58732 0.35468 0.76621 0.0
H341 H 0.60483 0.33004 0.86325 0.0
H342 H 0.57034 0.28882 0.76255 0.0
H343 H 0.58283 0.21565 0.07628 0.0
H344 H 0.5216 0.12099 0.83107 0.0
H345 H 0.51503 0.27839 0.03459 0.0
H346 H 0.57474 0.31814 0.00457 0.0
H347 H 0.57326 0.2845 0.09938 0.0
H348 H 0.44897 0.17898 0.72419 0.0
H349 H 0.46847 0.13297 0.71136 0.0
H350 H 0.50936 0.19827 0.69775 0.0
loop_
_geom_bond_atom_site_label_1
_geom_bond_atom_site_label_2
_geom_bond_distance
_geom_bond_site_symmetry_2
_ccdc_geom_bond_type
O0 Mg1 1.990 . S
O0 C14 1.253 . S
Mg1 O0 1.990 . S
Mg1 O4 2.180 1_655 S
Mg1 O5 2.117 . S
Mg1 O19 2.030 . S
O2 Mg3 2.072 1_655 S
O2 C14 1.260 1_554 S
Mg3 O2 2.072 1_455 S
Mg3 O4 2.099 1_554 S
Mg3 O6 2.079 . S
Mg3 O7 2.072 1_554 S
Mg3 O9 2.099 . S
Mg3 O20 2.079 1_455 S
O4 Mg1 2.180 1_455 S
O4 Mg3 2.099 1_556 S
O4 C15 1.279 . S
O5 Mg1 2.117 . S
O5 C15 1.250 1_655 S
O6 Mg3 2.079 . S
O6 C16 1.264 . S
O7 Mg3 2.072 1_556 S
O7 C17 1.260 1_556 S
Mg8 O9 2.180 . S
Mg8 O10 2.030 . S
Mg8 O11 1.990 . S
Mg8 O12 2.117 . S
O9 Mg3 2.099 . S
O9 Mg8 2.180 . S
O9 C18 1.279 . S
O10 Mg8 2.030 . S
O10 C16 1.248 . S
O11 Mg8 1.990 . S
O11 C17 1.253 . S
O12 Mg8 2.117 . S
O12 C18 1.250 . S
C13 O19 1.248 . S
C13 O20 1.264 1_556 S
C14 O0 1.253 . S
C14 O2 1.260 1_556 S
C15 O4 1.279 . S
C15 O5 1.250 1_455 S
C16 O6 1.264 . S
C16 O10 1.248 . S
C17 O7 1.260 1_554 S
C17 O11 1.253 . S
C18 O9 1.279 . S
C18 O12 1.250 . S
O19 Mg1 2.030 . S
O19 C13 1.248 . S
O20 Mg3 2.079 1_655 S
O20 C13 1.264 1_554 S
O21 Mg22 1.990 . S
O21 C35 1.253 1_556 S
Mg22 O21 1.990 . S
Mg22 O25 2.180 . S
Mg22 O26 2.117 . S
Mg22 O40 2.030 . S
O23 Mg24 2.072 1_565 S
O23 C35 1.260 . S
Mg24 O23 2.072 1_545 S
Mg24 O25 2.099 1_544 S
Mg24 O27 2.079 1_554 S
Mg24 O28 2.072 . S
Mg24 O30 2.099 . S
Mg24 O41 2.079 1_545 S
O25 Mg22 2.180 . S
O25 Mg24 2.099 1_566 S
O25 C36 1.279 . S
O26 Mg22 2.117 . S
O26 C36 1.250 . S
O27 Mg24 2.079 1_556 S
O27 C37 1.264 1_556 S
O28 Mg24 2.072 . S
O28 C38 1.260 . S
Mg29 O30 2.180 . S
Mg29 O31 2.030 . S
Mg29 O32 1.990 . S
Mg29 O33 2.117 . S
O30 Mg24 2.099 . S
O30 Mg29 2.180 . S
O30 C39 1.279 . S
O31 Mg29 2.030 . S
O31 C37 1.248 . S
O32 Mg29 1.990 . S
O32 C38 1.253 . S
O33 Mg29 2.117 . S
O33 C39 1.250 . S
C34 O40 1.248 . S
C34 O41 1.264 1_556 S
C35 O21 1.253 1_554 S
C35 O23 1.260 . S
C36 O25 1.279 . S
C36 O26 1.250 . S
C37 O27 1.264 1_554 S
C37 O31 1.248 . S
C38 O28 1.260 . S
C38 O32 1.253 . S
C39 O30 1.279 . S
C39 O33 1.250 . S
O40 Mg22 2.030 . S
O40 C34 1.248 . S
O41 Mg24 2.079 1_565 S
O41 C34 1.264 1_554 S
O42 Mg43 1.990 . S
O42 C56 1.253 . S
Mg43 O42 1.990 . S
Mg43 O46 2.180 . S
Mg43 O47 2.117 . S
Mg43 O61 2.030 . S
O44 Mg45 2.072 . S
O44 C56 1.260 1_554 S
Mg45 O44 2.072 . S
Mg45 O46 2.099 1_554 S
Mg45 O48 2.079 . S
Mg45 O49 2.072 1_554 S
Mg45 O51 2.099 . S
Mg45 O62 2.079 . S
O46 Mg43 2.180 . S
O46 Mg45 2.099 1_556 S
O46 C57 1.279 . S
O47 Mg43 2.117 . S
O47 C57 1.250 . S
O48 Mg45 2.079 . S
O48 C58 1.264 . S
O49 Mg45 2.072 1_556 S
O49 C59 1.260 1_556 S
Mg50 O51 2.180 . S
Mg50 O52 2.030 . S
Mg50 O53 1.990 . S
Mg50 O54 2.117 . S
O51 Mg45 2.099 . S
O51 Mg50 2.180 . S
O51 C60 1.279 . S
O52 Mg50 2.030 . S
O52 C58 1.248 . S
O53 Mg50 1.990 . S
O53 C59 1.253 . S
O54 Mg50 2.117 . S
O54 C60 1.250 . S
C55 O61 1.248 1_554 S
C55 O62 1.264 . S
C56 O42 1.253 . S
C56 O44 1.260 1_556 S
C57 O46 1.279 . S
C57 O47 1.250 . S
C58 O48 1.264 . S
C58 O52 1.248 . S
C59 O49 1.260 1_554 S
C59 O53 1.253 . S
C60 O51 1.279 . S
C60 O54 1.250 . S
O61 Mg43 2.030 . S
O61 C55 1.248 1_556 S
O62 Mg45 2.079 . S
O62 C55 1.264 . S
C63 C64 1.391 . S
C63 C65 1.394 . S
C63 H79 0.931 . S
C64 C63 1.391 . S
C64 C68 1.376 . S
C65 C63 1.394 . S
C65 C66 1.369 . S
C65 C69 1.531 1_455 S
C66 C65 1.369 . S
C66 C67 1.410 . S
C66 C74 1.503 . S
C67 C66 1.410 . S
C67 C68 1.392 . S
C67 C70 1.511 . S
C68 C64 1.376 . S
C68 C67 1.392 . S
C68 H80 0.929 . S
C69 C65 1.531 1_655 S
C69 H81 0.960 1_655 S
C69 H82 0.962 . S
C69 H83 0.960 . S
C70 C67 1.511 . S
C70 H84 0.961 . S
C70 H85 0.961 . S
C70 H86 0.961 . S
C71 C72 1.370 . S
C71 C73 1.363 . S
C71 H87 0.931 1_455 S
C72 C71 1.370 . S
C72 C76 1.408 . S
C73 C71 1.363 . S
C73 C74 1.370 . S
C73 C77 1.524 1_455 S
C74 C66 1.503 . S
C74 C73 1.370 . S
C74 C75 1.403 . S
C75 C74 1.403 . S
C75 C76 1.404 . S
C75 C78 1.539 . S
C76 C72 1.408 . S
C76 C75 1.404 . S
C76 H88 0.930 . S
C77 C73 1.524 1_655 S
C77 H89 0.956 . S
C77 H90 0.961 . S
C77 H91 0.961 . S
C78 C75 1.539 . S
C78 H92 0.958 . S
C78 H93 0.961 . S
C78 H94 0.960 . S
H79 C63 0.931 . S
H80 C68 0.929 . S
H81 C69 0.960 1_455 S
H82 C69 0.962 . S
H83 C69 0.960 . S
H84 C70 0.961 . S
H85 C70 0.961 . S
H86 C70 0.961 . S
H87 C71 0.931 1_655 S
H88 C76 0.930 . S
H89 C77 0.956 . S
H90 C77 0.961 . S
H91 C77 0.961 . S
H92 C78 0.958 . S
H93 C78 0.961 . S
H94 C78 0.960 . S
C95 C96 1.391 1_545 S
C95 C97 1.394 . S
C95 H111 0.931 . S
C96 C95 1.391 1_565 S
C96 C100 1.376 . S
C97 C95 1.394 . S
C97 C98 1.369 1_545 S
C97 C101 1.531 . S
C98 C97 1.369 1_565 S
C98 C99 1.410 . S
C98 C106 1.503 1_565 S
C99 C98 1.410 . S
C99 C100 1.392 . S
C99 C102 1.511 . S
C100 C96 1.376 . S
C100 C99 1.392 . S
C100 H112 0.929 . S
C101 C97 1.531 . S
C101 H113 0.960 . S
C101 H114 0.962 . S
C101 H115 0.960 . S
C102 C99 1.511 . S
C102 H116 0.961 . S
C102 H117 0.961 . S
C102 H118 0.961 . S
C103 C104 1.370 . S
C103 C105 1.363 . S
C103 H119 0.931 . S
C104 C103 1.370 . S
C104 C108 1.408 1_545 S
C105 C103 1.363 . S
C105 C106 1.370 . S
C105 C109 1.524 . S
C106 C98 1.503 1_545 S
C106 C105 1.370 . S
C106 C107 1.403 1_545 S
C107 C106 1.403 1_565 S
C107 C108 1.404 . S
C107 C110 1.539 . S
C108 C104 1.408 1_565 S
C108 C107 1.404 . S
C108 H120 0.930 . S
C109 C105 1.524 . S
C109 H121 0.956 . S
C109 H122 0.961 . S
C109 H123 0.961 . S
C110 C107 1.539 . S
C110 H124 0.958 . S
C110 H125 0.961 . S
C110 H126 0.960 . S
H111 C95 0.931 . S
H112 C100 0.929 . S
H113 C101 0.960 . S
H114 C101 0.962 . S
H115 C101 0.960 . S
H116 C102 0.961 . S
H117 C102 0.961 . S
H118 C102 0.961 . S
H119 C103 0.931 . S
H120 C108 0.930 . S
H121 C109 0.956 . S
H122 C109 0.961 . S
H123 C109 0.961 . S
H124 C110 0.958 . S
H125 C110 0.961 . S
H126 C110 0.960 . S
C127 C128 1.391 . S
C127 C129 1.394 . S
C127 H143 0.931 . S
C128 C127 1.391 . S
C128 C132 1.376 . S
C129 C127 1.394 . S
C129 C130 1.369 . S
C129 C133 1.531 . S
C130 C129 1.369 . S
C130 C131 1.410 . S
C130 C138 1.503 . S
C131 C130 1.410 . S
C131 C132 1.392 . S
C131 C134 1.511 . S
C132 C128 1.376 . S
C132 C131 1.392 . S
C132 H144 0.929 . S
C133 C129 1.531 . S
C133 H145 0.960 . S
C133 H146 0.962 . S
C133 H147 0.960 . S
C134 C131 1.511 . S
C134 H148 0.961 . S
C134 H149 0.961 . S
C134 H150 0.961 . S
C135 C136 1.370 . S
C135 C137 1.363 . S
C135 H151 0.931 . S
C136 C135 1.370 . S
C136 C140 1.408 . S
C137 C135 1.363 . S
C137 C138 1.370 . S
C137 C141 1.524 . S
C138 C130 1.503 . S
C138 C137 1.370 . S
C138 C139 1.403 . S
C139 C138 1.403 . S
C139 C140 1.404 . S
C139 C142 1.539 . S
C140 C136 1.408 . S
C140 C139 1.404 . S
C140 H152 0.930 . S
C141 C137 1.524 . S
C141 H153 0.956 . S
C141 H154 0.961 . S
C141 H155 0.961 . S
C142 C139 1.539 . S
C142 H156 0.958 . S
C142 H157 0.961 . S
C142 H158 0.960 . S
H143 C127 0.931 . S
H144 C132 0.929 . S
H145 C133 0.960 . S
H146 C133 0.962 . S
H147 C133 0.960 . S
H148 C134 0.961 . S
H149 C134 0.961 . S
H150 C134 0.961 . S
H151 C135 0.931 . S
H152 C140 0.930 . S
H153 C141 0.956 . S
H154 C141 0.961 . S
H155 C141 0.961 . S
H156 C142 0.958 . S
H157 C142 0.961 . S
H158 C142 0.960 . S
C159 C160 1.391 1_556 S
C159 C161 1.394 . S
C159 H175 0.931 . S
C160 C159 1.391 1_554 S
C160 C164 1.376 . S
C161 C159 1.394 . S
C161 C162 1.369 . S
C161 C165 1.531 . S
C162 C161 1.369 . S
C162 C163 1.410 1_556 S
C162 C170 1.503 . S
C163 C162 1.410 1_554 S
C163 C164 1.392 . S
C163 C166 1.511 . S
C164 C160 1.376 . S
C164 C163 1.392 . S
C164 H176 0.929 . S
C165 C161 1.531 . S
C165 H177 0.960 . S
C165 H178 0.962 . S
C165 H179 0.960 . S
C166 C163 1.511 . S
C166 H180 0.961 . S
C166 H181 0.961 . S
C166 H182 0.961 . S
C167 C168 1.370 . S
C167 C169 1.363 . S
C167 H183 0.931 . S
C168 C167 1.370 . S
C168 C172 1.408 1_554 S
C169 C167 1.363 . S
C169 C170 1.370 1_554 S
C169 C173 1.524 . S
C170 C162 1.503 . S
C170 C169 1.370 1_556 S
C170 C171 1.403 . S
C171 C170 1.403 . S
C171 C172 1.404 . S
C171 C174 1.539 . S
C172 C168 1.408 1_556 S
C172 C171 1.404 . S
C172 H184 0.930 . S
C173 C169 1.524 . S
C173 H185 0.956 . S
C173 H186 0.961 . S
C173 H187 0.961 . S
C174 C171 1.539 . S
C174 H188 0.958 . S
C174 H189 0.961 . S
C174 H190 0.960 . S
H175 C159 0.931 . S
H176 C164 0.929 . S
H177 C165 0.960 . S
H178 C165 0.962 . S
H179 C165 0.960 . S
H180 C166 0.961 . S
H181 C166 0.961 . S
H182 C166 0.961 . S
H183 C167 0.931 . S
H184 C172 0.930 . S
H185 C173 0.956 . S
H186 C173 0.961 . S
H187 C173 0.961 . S
H188 C174 0.958 . S
H189 C174 0.961 . S
H190 C174 0.960 . S
C191 C192 1.391 . S
C191 C193 1.394 . S
C191 H207 0.931 . S
C192 C191 1.391 . S
C192 C196 1.376 1_554 S
C193 C191 1.394 . S
C193 C194 1.369 . S
C193 C197 1.531 . S
C194 C193 1.369 . S
C194 C195 1.410 1_554 S
C194 C202 1.503 . S
C195 C194 1.410 1_556 S
C195 C196 1.392 . S
C195 C198 1.511 . S
C196 C192 1.376 1_556 S
C196 C195 1.392 . S
C196 H208 0.929 . S
C197 C193 1.531 . S
C197 H209 0.960 . S
C197 H210 0.962 . S
C197 H211 0.960 . S
C198 C195 1.511 . S
C198 H212 0.961 . S
C198 H213 0.961 . S
C198 H214 0.961 . S
C199 C200 1.370 . S
C199 C201 1.363 . S
C199 H215 0.931 . S
C200 C199 1.370 . S
C200 C204 1.408 1_554 S
C201 C199 1.363 . S
C201 C202 1.370 . S
C201 C205 1.524 . S
C202 C194 1.503 . S
C202 C201 1.370 . S
C202 C203 1.403 1_554 S
C203 C202 1.403 1_556 S
C203 C204 1.404 . S
C203 C206 1.539 . S
C204 C200 1.408 1_556 S
C204 C203 1.404 . S
C204 H216 0.930 . S
C205 C201 1.524 . S
C205 H217 0.956 . S
C205 H218 0.961 . S
C205 H219 0.961 . S
C206 C203 1.539 . S
C206 H220 0.958 . S
C206 H221 0.961 . S
C206 H222 0.960 . S
H207 C191 0.931 . S
H208 C196 0.929 . S
H209 C197 0.960 . S
H210 C197 0.962 . S
H211 C197 0.960 . S
H212 C198 0.961 . S
H213 C198 0.961 . S
H214 C198 0.961 . S
H215 C199 0.931 . S
H216 C204 0.930 . S
H217 C205 0.956 . S
H218 C205 0.961 . S
H219 C205 0.961 . S
H220 C206 0.958 . S
H221 C206 0.961 . S
H222 C206 0.960 . S
C223 C224 1.391 1_556 S
C223 C225 1.394 . S
C223 H239 0.931 . S
C224 C223 1.391 1_554 S
C224 C228 1.376 . S
C225 C223 1.394 . S
C225 C226 1.369 1_556 S
C225 C229 1.531 . S
C226 C225 1.369 1_554 S
C226 C227 1.410 . S
C226 C234 1.503 . S
C227 C226 1.410 . S
C227 C228 1.392 . S
C227 C230 1.511 . S
C228 C224 1.376 . S
C228 C227 1.392 . S
C228 H240 0.929 . S
C229 C225 1.531 . S
C229 H241 0.960 . S
C229 H242 0.962 . S
C229 H243 0.960 . S
C230 C227 1.511 . S
C230 H244 0.961 . S
C230 H245 0.961 . S
C230 H246 0.961 . S
C231 C232 1.370 . S
C231 C233 1.363 . S
C231 H247 0.931 . S
C232 C231 1.370 . S
C232 C236 1.408 1_554 S
C233 C231 1.363 . S
C233 C234 1.370 . S
C233 C237 1.524 . S
C234 C226 1.503 . S
C234 C233 1.370 . S
C234 C235 1.403 1_554 S
C235 C234 1.403 1_556 S
C235 C236 1.404 . S
C235 C238 1.539 . S
C236 C232 1.408 1_556 S
C236 C235 1.404 . S
C236 H248 0.930 . S
C237 C233 1.524 . S
C237 H249 0.956 . S
C237 H250 0.961 . S
C237 H251 0.961 . S
C238 C235 1.539 . S
C238 H252 0.958 . S
C238 H253 0.961 . S
C238 H254 0.960 . S
H239 C223 0.931 . S
H240 C228 0.929 . S
H241 C229 0.960 . S
H242 C229 0.962 . S
H243 C229 0.960 . S
H244 C230 0.961 . S
H245 C230 0.961 . S
H246 C230 0.961 . S
H247 C231 0.931 . S
H248 C236 0.930 . S
H249 C237 0.956 . S
H250 C237 0.961 . S
H251 C237 0.961 . S
H252 C238 0.958 . S
H253 C238 0.961 . S
H254 C238 0.960 . S
C255 C256 1.391 . S
C255 C257 1.394 . S
C255 H271 0.931 . S
C256 C255 1.391 . S
C256 C260 1.376 1_554 S
C257 C255 1.394 . S
C257 C258 1.369 . S
C257 C261 1.531 . S
C258 C257 1.369 . S
C258 C259 1.410 1_554 S
C258 C266 1.503 . S
C259 C258 1.410 1_556 S
C259 C260 1.392 . S
C259 C262 1.511 . S
C260 C256 1.376 1_556 S
C260 C259 1.392 . S
C260 H272 0.929 . S
C261 C257 1.531 . S
C261 H273 0.960 . S
C261 H274 0.962 . S
C261 H275 0.960 . S
C262 C259 1.511 . S
C262 H276 0.961 . S
C262 H277 0.961 . S
C262 H278 0.961 . S
C263 C264 1.370 1_556 S
C263 C265 1.363 . S
C263 H279 0.931 . S
C264 C263 1.370 1_554 S
C264 C268 1.408 . S
C265 C263 1.363 . S
C265 C266 1.370 1_556 S
C265 C269 1.524 . S
C266 C258 1.503 . S
C266 C265 1.370 1_554 S
C266 C267 1.403 . S
C267 C266 1.403 . S
C267 C268 1.404 . S
C267 C270 1.539 . S
C268 C264 1.408 . S
C268 C267 1.404 . S
C268 H280 0.930 . S
C269 C265 1.524 . S
C269 H281 0.956 . S
C269 H282 0.961 . S
C269 H283 0.961 . S
C270 C267 1.539 . S
C270 H284 0.958 . S
C270 H285 0.961 . S
C270 H286 0.960 . S
H271 C255 0.931 . S
H272 C260 0.929 . S
H273 C261 0.960 . S
H274 C261 0.962 . S
H275 C261 0.960 . S
H276 C262 0.961 . S
H277 C262 0.961 . S
H278 C262 0.961 . S
H279 C263 0.931 . S
H280 C268 0.930 . S
H281 C269 0.956 . S
H282 C269 0.961 . S
H283 C269 0.961 . S
H284 C270 0.958 . S
H285 C270 0.961 . S
H286 C270 0.960 . S
C287 C288 1.391 1_556 S
C287 C289 1.394 . S
C287 H303 0.931 . S
C288 C287 1.391 1_554 S
C288 C292 1.376 . S
C289 C287 1.394 . S
C289 C290 1.369 . S
C289 C293 1.531 . S
C290 C289 1.369 . S
C290 C291 1.410 1_556 S
C290 C298 1.503 . S
C291 C290 1.410 1_554 S
C291 C292 1.392 . S
C291 C294 1.511 . S
C292 C288 1.376 . S
C292 C291 1.392 . S
C292 H304 0.929 . S
C293 C289 1.531 . S
C293 H305 0.960 . S
C293 H306 0.962 . S
C293 H307 0.960 . S
C294 C291 1.511 . S
C294 H308 0.961 . S
C294 H309 0.961 . S
C294 H310 0.961 . S
C295 C296 1.370 . S
C295 C297 1.363 . S
C295 H311 0.931 . S
C296 C295 1.370 . S
C296 C300 1.408 1_554 S
C297 C295 1.363 . S
C297 C298 1.370 1_554 S
C297 C301 1.524 . S
C298 C290 1.503 . S
C298 C297 1.370 1_556 S
C298 C299 1.403 . S
C299 C298 1.403 . S
C299 C300 1.404 . S
C299 C302 1.539 . S
C300 C296 1.408 1_556 S
C300 C299 1.404 . S
C300 H312 0.930 . S
C301 C297 1.524 . S
C301 H313 0.956 . S
C301 H314 0.961 . S
C301 H315 0.961 . S
C302 C299 1.539 . S
C302 H316 0.958 . S
C302 H317 0.961 . S
C302 H318 0.960 . S
H303 C287 0.931 . S
H304 C292 0.929 . S
H305 C293 0.960 . S
H306 C293 0.962 . S
H307 C293 0.960 . S
H308 C294 0.961 . S
H309 C294 0.961 . S
H310 C294 0.961 . S
H311 C295 0.931 . S
H312 C300 0.930 . S
H313 C301 0.956 . S
H314 C301 0.961 . S
H315 C301 0.961 . S
H316 C302 0.958 . S
H317 C302 0.961 . S
H318 C302 0.960 . S
C319 C320 1.391 . S
C319 C321 1.394 . S
C319 H335 0.931 . S
C320 C319 1.391 . S
C320 C324 1.376 1_556 S
C321 C319 1.394 . S
C321 C322 1.369 . S
C321 C325 1.531 . S
C322 C321 1.369 . S
C322 C323 1.410 . S
C322 C330 1.503 . S
C323 C322 1.410 . S
C323 C324 1.392 1_556 S
C323 C326 1.511 1_556 S
C324 C320 1.376 1_554 S
C324 C323 1.392 1_554 S
C324 H336 0.929 . S
C325 C321 1.531 . S
C325 H337 0.960 . S
C325 H338 0.962 . S
C325 H339 0.960 . S
C326 C323 1.511 1_554 S
C326 H340 0.961 . S
C326 H341 0.961 . S
C326 H342 0.961 1_554 S
C327 C328 1.370 1_554 S
C327 C329 1.363 . S
C327 H343 0.931 . S
C328 C327 1.370 1_556 S
C328 C332 1.408 . S
C329 C327 1.363 . S
C329 C330 1.370 1_554 S
C329 C333 1.524 . S
C330 C322 1.503 . S
C330 C329 1.370 1_556 S
C330 C331 1.403 . S
C331 C330 1.403 . S
C331 C332 1.404 . S
C331 C334 1.539 . S
C332 C328 1.408 . S
C332 C331 1.404 . S
C332 H344 0.930 . S
C333 C329 1.524 . S
C333 H345 0.956 . S
C333 H346 0.961 . S
C333 H347 0.961 . S
C334 C331 1.539 . S
C334 H348 0.958 . S
C334 H349 0.961 . S
C334 H350 0.960 . S
H335 C319 0.931 . S
H336 C324 0.929 . S
H337 C325 0.960 . S
H338 C325 0.962 . S
H339 C325 0.960 . S
H340 C326 0.961 . S
H341 C326 0.961 . S
H342 C326 0.961 1_556 S
H343 C327 0.931 . S
H344 C332 0.930 . S
H345 C333 0.956 . S
H346 C333 0.961 . S
H347 C333 0.961 . S
H348 C334 0.958 . S
H349 C334 0.961 . S
H350 C334 0.960 . S
C64 C15 1.341 . S
C72 C18 1.273 . S
C96 C39 1.327 1_565 S
C104 C36 1.253 1_545 S
C128 C57 1.274 . S
C136 C60 1.282 . S
C160 C17 1.202 . S
C168 C56 1.162 1_554 S
C192 C38 1.218 . S
C200 C14 1.168 1_554 S
C224 C35 1.127 . S
C232 C55 1.158 . S
C256 C13 1.177 1_554 S
C264 C58 1.143 . S
C288 C16 1.174 . S
C296 C34 1.136 1_554 S
C320 C59 1.186 1_556 S
C328 C37 1.166 1_556 S
