# Generated by pormake.
# Topology ukf, (4)-cn, num edge types: 1
# Building blocks:
#     Node 0, Type 0, BuildingBlock: KUFVIS_clean_sbu_0, # of connection points: 4
#     Node 1, Type 0, BuildingBlock: KUFVIS_clean_sbu_0, # of connection points: 4
#     Node 2, Type 0, BuildingBlock: KUFVIS_clean_sbu_0, # of connection points: 4
#     Node 3, Type 0, BuildingBlock: KUFVIS_clean_sbu_0, # of connection points: 4
#     Node 4, Type 0, BuildingBlock: KUFVIS_clean_sbu_0, # of connection points: 4
#     Node 5, Type 0, BuildingBlock: KUFVIS_clean_sbu_0, # of connection points: 4
#     Node 6, Type 0, BuildingBlock: KUFVIS_clean_sbu_0, # of connection points: 4
#     Node 7, Type 0, BuildingBlock: KUFVIS_clean_sbu_0, # of connection points: 4
#     Node 8, Type 0, BuildingBlock: KUFVIS_clean_sbu_0, # of connection points: 4
#     Node 9, Type 0, BuildingBlock: KUFVIS_clean_sbu_0, # of connection points: 4
#     Node 10, Type 0, BuildingBlock: KUFVIS_clean_sbu_0, # of connection points: 4
#     Node 11, Type 0, BuildingBlock: KUFVIS_clean_sbu_0, # of connection points: 4
#     Edge 12, Type (0, 0), BuildingBlock: UVAHIK_clean_linker_0, # of connection points: 2
#     Edge 13, Type (0, 0), BuildingBlock: UVAHIK_clean_linker_0, # of connection points: 2
#     Edge 14, Type (0, 0), BuildingBlock: UVAHIK_clean_linker_0, # of connection points: 2
#     Edge 15, Type (0, 0), BuildingBlock: UVAHIK_clean_linker_0, # of connection points: 2
#     Edge 16, Type (0, 0), BuildingBlock: UVAHIK_clean_linker_0, # of connection points: 2
#     Edge 17, Type (0, 0), BuildingBlock: UVAHIK_clean_linker_0, # of connection points: 2
#     Edge 18, Type (0, 0), BuildingBlock: UVAHIK_clean_linker_0, # of connection points: 2
#     Edge 19, Type (0, 0), BuildingBlock: UVAHIK_clean_linker_0, # of connection points: 2
#     Edge 20, Type (0, 0), BuildingBlock: UVAHIK_clean_linker_0, # of connection points: 2
#     Edge 21, Type (0, 0), BuildingBlock: UVAHIK_clean_linker_0, # of connection points: 2
#     Edge 22, Type (0, 0), BuildingBlock: UVAHIK_clean_linker_0, # of connection points: 2
#     Edge 23, Type (0, 0), BuildingBlock: UVAHIK_clean_linker_0, # of connection points: 2
#     Edge 24, Type (0, 0), BuildingBlock: UVAHIK_clean_linker_0, # of connection points: 2
#     Edge 25, Type (0, 0), BuildingBlock: UVAHIK_clean_linker_0, # of connection points: 2
#     Edge 26, Type (0, 0), BuildingBlock: UVAHIK_clean_linker_0, # of connection points: 2
#     Edge 27, Type (0, 0), BuildingBlock: UVAHIK_clean_linker_0, # of connection points: 2
#     Edge 28, Type (0, 0), BuildingBlock: UVAHIK_clean_linker_0, # of connection points: 2
#     Edge 29, Type (0, 0), BuildingBlock: UVAHIK_clean_linker_0, # of connection points: 2
#     Edge 30, Type (0, 0), BuildingBlock: UVAHIK_clean_linker_0, # of connection points: 2
#     Edge 31, Type (0, 0), BuildingBlock: UVAHIK_clean_linker_0, # of connection points: 2
#     Edge 32, Type (0, 0), BuildingBlock: UVAHIK_clean_linker_0, # of connection points: 2
#     Edge 33, Type (0, 0), BuildingBlock: UVAHIK_clean_linker_0, # of connection points: 2
#     Edge 34, Type (0, 0), BuildingBlock: UVAHIK_clean_linker_0, # of connection points: 2
#     Edge 35, Type (0, 0), BuildingBlock: UVAHIK_clean_linker_0, # of connection points: 2
# Relax obj value: 0.099
# Max RMSD: 0.094
# Mean RMSD: 0.094
data_MOF--net-ukf--node1-KUFVIS_clean_sbu_0--edge1-UVAHIK_clean_linker_0
_symmetry_space_group_name_H-M    P1
_symmetry_Int_Tables_number       1
_symmetry_cell_setting            triclinic
loop_
_symmetry_equiv_pos_as_xyz
'x, y, z'
_cell_length_a     41.955563
_cell_length_b     41.971561
_cell_length_c     81.508094
_cell_angle_alpha  90.017123
_cell_angle_beta   89.987833
_cell_angle_gamma 119.98917
loop_
_atom_site_label
_atom_site_type_symbol
_atom_site_fract_x
_atom_site_fract_y
_atom_site_fract_z
_atom_type_partial_charge
Mn0 Mn 0.41104 0.22714 0.04781 0.0
Mn1 Mn 0.49052 0.27551 0.06888 0.0
C2 C 0.4665 0.24173 0.03569 0.0
C3 C 0.36111 0.16963 0.04077 0.0
C4 C 0.44898 0.31018 0.05377 0.0
O5 O 0.39355 0.22273 0.07155 0.0
O6 O 0.44857 0.25212 0.0844 0.0
C7 C 0.49253 0.21348 0.0851 0.0
N8 N 0.50862 0.24364 0.07521 0.0
C9 C 0.56178 0.23688 0.07122 0.0
C10 C 0.54588 0.20588 0.08146 0.0
C11 C 0.51107 0.19409 0.08839 0.0
C12 C 0.54206 0.25517 0.06844 0.0
H13 H 0.46572 0.20427 0.0904 0.0
C14 C 0.41331 0.23392 0.0845 0.0
O15 O 0.35918 0.19946 0.0392 0.0
O16 O 0.39129 0.17333 0.04683 0.0
N17 N 0.53344 0.29953 0.05533 0.0
C18 C 0.54414 0.3289 0.04514 0.0
C19 C 0.57802 0.34362 0.03693 0.0
C20 C 0.60063 0.32818 0.03935 0.0
C21 C 0.58922 0.29823 0.05003 0.0
C22 C 0.55533 0.28495 0.058 0.0
H23 H 0.52689 0.3409 0.04324 0.0
O24 O 0.43782 0.23311 0.0267 0.0
O25 O 0.46172 0.24118 0.05144 0.0
O26 O 0.4234 0.28137 0.0468 0.0
O27 O 0.47431 0.31044 0.06256 0.0
C28 C 0.60983 0.28063 0.05287 0.0
C29 C 0.59608 0.24994 0.06343 0.0
H30 H 0.56001 0.19074 0.08396 0.0
H31 H 0.49855 0.17008 0.09624 0.0
H32 H 0.58664 0.36673 0.0287 0.0
H33 H 0.62658 0.33939 0.03288 0.0
H34 H 0.63603 0.29015 0.0468 0.0
H35 H 0.61194 0.23632 0.06533 0.0
Mn36 Mn 0.18663 0.4133 0.38148 0.0
Mn37 Mn 0.22403 0.49301 0.40256 0.0
C38 C 0.22663 0.4681 0.3685 0.0
C39 C 0.19121 0.36198 0.37363 0.0
C40 C 0.14448 0.45216 0.39082 0.0
O41 O 0.17702 0.39678 0.40554 0.0
O42 O 0.2115 0.45177 0.41792 0.0
C43 C 0.29329 0.49709 0.41348 0.0
N44 N 0.27567 0.51252 0.40563 0.0
C45 C 0.33316 0.56698 0.39934 0.0
C46 C 0.35186 0.55197 0.40765 0.0
C47 C 0.33184 0.51679 0.41467 0.0
C48 C 0.29469 0.54615 0.39864 0.0
H49 H 0.27805 0.46984 0.41864 0.0
C50 C 0.19217 0.41656 0.41824 0.0
O51 O 0.15981 0.36114 0.3732 0.0
O52 O 0.21918 0.39193 0.37898 0.0
N53 N 0.2379 0.53517 0.38895 0.0
C54 C 0.21598 0.54441 0.38023 0.0
C55 C 0.23191 0.57801 0.37174 0.0
C56 C 0.27014 0.60187 0.37239 0.0
C57 C 0.29212 0.59192 0.38153 0.0
C58 C 0.27467 0.55819 0.38983 0.0
H59 H 0.18658 0.52628 0.37971 0.0
O60 O 0.20476 0.43939 0.3599 0.0
O61 O 0.22472 0.46354 0.38426 0.0
O62 O 0.14619 0.42749 0.38226 0.0
O63 O 0.17108 0.47577 0.39962 0.0
C64 C 0.33072 0.61379 0.38244 0.0
C65 C 0.35123 0.6013 0.39131 0.0
H66 H 0.38161 0.56695 0.40848 0.0
H67 H 0.3461 0.5048 0.4209 0.0
H68 H 0.21477 0.58547 0.3647 0.0
H69 H 0.28236 0.62761 0.36571 0.0
H70 H 0.34497 0.63993 0.3761 0.0
H71 H 0.38096 0.61801 0.39164 0.0
Mn72 Mn 0.77342 0.18291 0.71423 0.0
Mn73 Mn 0.73119 0.22158 0.73443 0.0
C74 C 0.75942 0.22286 0.70066 0.0
C75 C 0.82934 0.18691 0.70691 0.0
C76 C 0.69214 0.14171 0.72315 0.0
O77 O 0.77975 0.17401 0.73846 0.0
O78 O 0.7591 0.209 0.75023 0.0
C79 C 0.79645 0.29065 0.74542 0.0
N80 N 0.76369 0.27318 0.73733 0.0
C81 C 0.76764 0.33083 0.73048 0.0
C82 C 0.80109 0.3494 0.739 0.0
C83 C 0.81564 0.32922 0.74643 0.0
C84 C 0.74966 0.29235 0.72997 0.0
H85 H 0.80795 0.27528 0.75095 0.0
C86 C 0.77488 0.18959 0.75094 0.0
O87 O 0.79869 0.15559 0.70649 0.0
O88 O 0.82739 0.2151 0.71196 0.0
N89 N 0.70367 0.23558 0.72036 0.0
C90 C 0.67269 0.21372 0.71153 0.0
C91 C 0.65559 0.22978 0.70268 0.0
C92 C 0.67034 0.26807 0.7031 0.0
C93 C 0.70209 0.28998 0.71235 0.0
C94 C 0.71781 0.27242 0.72101 0.0
H95 H 0.66111 0.18427 0.71119 0.0
O96 O 0.76615 0.20051 0.69237 0.0
O97 O 0.76164 0.22138 0.71646 0.0
O98 O 0.71862 0.14281 0.7149 0.0
O99 O 0.69516 0.16873 0.73164 0.0
C100 C 0.71919 0.32862 0.71306 0.0
C101 C 0.75198 0.34904 0.72209 0.0
H102 H 0.81612 0.37915 0.7397 0.0
H103 H 0.84167 0.34337 0.75285 0.0
H104 H 0.63112 0.21268 0.69554 0.0
H105 H 0.65725 0.28037 0.69615 0.0
H106 H 0.70772 0.34297 0.70645 0.0
H107 H 0.76527 0.37878 0.72226 0.0
Mn108 Mn 0.59205 0.77203 0.04721 0.0
Mn109 Mn 0.51411 0.72845 0.06973 0.0
C110 C 0.53634 0.75892 0.03587 0.0
C111 C 0.64311 0.82773 0.03907 0.0
C112 C 0.55139 0.68943 0.05456 0.0
O113 O 0.61135 0.77762 0.07067 0.0
O114 O 0.55746 0.75165 0.08447 0.0
C115 C 0.51658 0.79343 0.08522 0.0
N116 N 0.49854 0.76245 0.07592 0.0
C117 C 0.44639 0.77119 0.07273 0.0
C118 C 0.46432 0.80307 0.08237 0.0
C119 C 0.4996 0.81428 0.0886 0.0
C120 C 0.46463 0.75148 0.06982 0.0
H121 H 0.54374 0.80215 0.08999 0.0
C122 C 0.59269 0.7684 0.08396 0.0
O123 O 0.64316 0.79686 0.03778 0.0
O124 O 0.61408 0.82613 0.04542 0.0
N125 N 0.46986 0.70473 0.05702 0.0
C126 C 0.45709 0.67432 0.04732 0.0
C127 C 0.42248 0.66 0.03981 0.0
C128 C 0.40124 0.67687 0.04246 0.0
C129 C 0.41476 0.70787 0.05265 0.0
C130 C 0.44932 0.72073 0.05991 0.0
H131 H 0.47326 0.66119 0.04527 0.0
O132 O 0.56393 0.76558 0.02648 0.0
O133 O 0.54232 0.76061 0.05156 0.0
O134 O 0.57712 0.71696 0.04693 0.0
O135 O 0.52761 0.69141 0.06363 0.0
C136 C 0.3956 0.7269 0.05565 0.0
C137 C 0.41144 0.75858 0.06566 0.0
H138 H 0.45139 0.81932 0.08495 0.0
H139 H 0.51368 0.83895 0.09598 0.0
H140 H 0.41224 0.63607 0.03196 0.0
H141 H 0.3747 0.66595 0.03653 0.0
H142 H 0.36892 0.71773 0.05012 0.0
H143 H 0.39668 0.77329 0.06768 0.0
Mn144 Mn 0.8223 0.59384 0.38229 0.0
Mn145 Mn 0.79234 0.51691 0.40515 0.0
C146 C 0.78162 0.53696 0.37128 0.0
C147 C 0.81355 0.64246 0.37401 0.0
C148 C 0.86837 0.55755 0.38979 0.0
O149 O 0.83552 0.61389 0.40565 0.0
O150 O 0.81046 0.5604 0.41974 0.0
C151 C 0.72791 0.51544 0.42074 0.0
N152 N 0.7423 0.49875 0.41142 0.0
C153 C 0.68278 0.44466 0.40819 0.0
C154 C 0.66735 0.46117 0.41785 0.0
C155 C 0.69001 0.49674 0.42412 0.0
C156 C 0.72075 0.46456 0.40531 0.0
H157 H 0.74524 0.54283 0.42552 0.0
C158 C 0.82716 0.59561 0.41903 0.0
O159 O 0.84553 0.64476 0.37258 0.0
O160 O 0.78755 0.61268 0.38054 0.0
N161 N 0.7739 0.47274 0.3925 0.0
C162 C 0.79276 0.46159 0.38266 0.0
C163 C 0.7739 0.42702 0.37501 0.0
C164 C 0.73596 0.40419 0.37764 0.0
C165 C 0.71723 0.41609 0.38796 0.0
C166 C 0.73753 0.45069 0.39536 0.0
H167 H 0.82191 0.47904 0.38058 0.0
O168 O 0.80129 0.56465 0.36172 0.0
O169 O 0.7862 0.54352 0.38692 0.0
O170 O 0.86472 0.58206 0.38201 0.0
O171 O 0.84354 0.53314 0.39898 0.0
C172 C 0.67908 0.3953 0.39092 0.0
C173 C 0.66186 0.40959 0.40102 0.0
H174 H 0.6381 0.44693 0.4204 0.0
H175 H 0.67827 0.50973 0.43151 0.0
H176 H 0.78854 0.41805 0.36705 0.0
H177 H 0.72143 0.37771 0.37158 0.0
H178 H 0.66263 0.36853 0.38529 0.0
H179 H 0.63243 0.39359 0.403 0.0
Mn180 Mn 0.22864 0.81982 0.71288 0.0
Mn181 Mn 0.2751 0.78702 0.73431 0.0
C182 C 0.24313 0.77884 0.7008 0.0
C183 C 0.17192 0.81366 0.70527 0.0
C184 C 0.31144 0.86384 0.71983 0.0
O185 O 0.22313 0.83212 0.73661 0.0
O186 O 0.25127 0.80542 0.74965 0.0
C187 C 0.21179 0.72279 0.74979 0.0
N188 N 0.24245 0.73692 0.7402 0.0
C189 C 0.23534 0.67693 0.73606 0.0
C190 C 0.2038 0.66175 0.74597 0.0
C191 C 0.19195 0.68477 0.75283 0.0
C192 C 0.25406 0.71501 0.73351 0.0
H193 H 0.20255 0.74041 0.75504 0.0
C194 C 0.23344 0.82285 0.74964 0.0
O195 O 0.20224 0.84512 0.70412 0.0
O196 O 0.17462 0.78651 0.71122 0.0
N197 N 0.29944 0.7682 0.72091 0.0
C198 C 0.32934 0.78697 0.71102 0.0
C199 C 0.34419 0.76782 0.70289 0.0
C200 C 0.32833 0.72968 0.70512 0.0
C201 C 0.29782 0.71103 0.7155 0.0
C202 C 0.28441 0.73162 0.72338 0.0
H203 H 0.34167 0.81629 0.70928 0.0
O204 O 0.23543 0.79954 0.69177 0.0
O205 O 0.24181 0.78256 0.71655 0.0
O206 O 0.28318 0.86122 0.71254 0.0
O207 O 0.31087 0.83825 0.72851 0.0
C208 C 0.27978 0.67274 0.7181 0.0
C209 C 0.24852 0.65569 0.72835 0.0
H210 H 0.18832 0.63242 0.74829 0.0
H211 H 0.16753 0.67323 0.76043 0.0
H212 H 0.36774 0.7824 0.6949 0.0
H213 H 0.33966 0.71496 0.69871 0.0
H214 H 0.28939 0.65607 0.7121 0.0
H215 H 0.23458 0.62616 0.73008 0.0
Mn216 Mn 0.77236 0.59082 0.61852 0.0
Mn217 Mn 0.73057 0.51165 0.59707 0.0
C218 C 0.75801 0.53582 0.63118 0.0
C219 C 0.8282 0.64209 0.62644 0.0
C220 C 0.69146 0.55188 0.60911 0.0
O221 O 0.77916 0.60786 0.59454 0.0
O222 O 0.75936 0.55326 0.58189 0.0
C223 C 0.79593 0.50797 0.58606 0.0
N224 N 0.76283 0.49232 0.59387 0.0
C225 C 0.76601 0.43785 0.59994 0.0
C226 C 0.79976 0.45309 0.59166 0.0
C227 C 0.81488 0.48839 0.58476 0.0
C228 C 0.74827 0.45858 0.60074 0.0
H229 H 0.80791 0.53531 0.581 0.0
C230 C 0.77495 0.58846 0.58174 0.0
O231 O 0.79757 0.64279 0.62705 0.0
O232 O 0.82629 0.61231 0.6209 0.0
N233 N 0.70231 0.46923 0.61054 0.0
C234 C 0.67117 0.45982 0.61931 0.0
C235 C 0.6536 0.42613 0.62773 0.0
C236 C 0.66806 0.40236 0.62697 0.0
C237 C 0.69999 0.4125 0.61779 0.0
C238 C 0.71618 0.44632 0.60956 0.0
H239 H 0.65982 0.47787 0.61993 0.0
O240 O 0.76464 0.56424 0.63996 0.0
O241 O 0.76054 0.54079 0.61545 0.0
O242 O 0.71762 0.57629 0.61785 0.0
O243 O 0.69474 0.52871 0.60011 0.0
C244 C 0.71683 0.39074 0.61677 0.0
C245 C 0.74984 0.40343 0.60788 0.0
H246 H 0.81462 0.43821 0.59075 0.0
H247 H 0.84118 0.50056 0.57856 0.0
H248 H 0.629 0.41852 0.63481 0.0
H249 H 0.65463 0.37654 0.6336 0.0
H250 H 0.705 0.36451 0.62304 0.0
H251 H 0.76294 0.3868 0.60748 0.0
Mn252 Mn 0.18361 0.77106 0.95087 0.0
Mn253 Mn 0.22125 0.72735 0.93115 0.0
C254 C 0.2228 0.75649 0.96475 0.0
C255 C 0.18922 0.82787 0.95771 0.0
C256 C 0.14128 0.68975 0.9423 0.0
O257 O 0.17494 0.77695 0.92659 0.0
O258 O 0.20941 0.7554 0.91508 0.0
C259 C 0.29096 0.7916 0.92001 0.0
N260 N 0.27301 0.75918 0.92833 0.0
C261 C 0.33022 0.76273 0.93575 0.0
C262 C 0.34928 0.79585 0.92704 0.0
C263 C 0.32956 0.81043 0.9192 0.0
C264 C 0.29173 0.74509 0.93605 0.0
H265 H 0.27594 0.80313 0.91415 0.0
C266 C 0.19037 0.77156 0.9142 0.0
O267 O 0.15741 0.79778 0.95834 0.0
O268 O 0.21683 0.82478 0.95277 0.0
N269 N 0.23449 0.6997 0.94551 0.0
C270 C 0.21218 0.66901 0.95442 0.0
C271 C 0.22773 0.6519 0.96361 0.0
C272 C 0.266 0.66636 0.96349 0.0
C273 C 0.2884 0.69781 0.95414 0.0
C274 C 0.27132 0.71353 0.94513 0.0
H275 H 0.18274 0.65769 0.95456 0.0
O276 O 0.20078 0.76398 0.97287 0.0
O277 O 0.22144 0.75834 0.94893 0.0
O278 O 0.14279 0.71656 0.95043 0.0
O279 O 0.16816 0.69211 0.93392 0.0
C280 C 0.32705 0.7146 0.9537 0.0
C281 C 0.34795 0.74707 0.94453 0.0
H282 H 0.37906 0.81061 0.92649 0.0
H283 H 0.34409 0.8362 0.9126 0.0
H284 H 0.21027 0.62767 0.97082 0.0
H285 H 0.27792 0.65328 0.97071 0.0
H286 H 0.34102 0.70313 0.96059 0.0
H287 H 0.37768 0.76011 0.94454 0.0
Mn288 Mn 0.41412 0.1871 0.28635 0.0
Mn289 Mn 0.49511 0.22546 0.26625 0.0
C290 C 0.46819 0.22567 0.30017 0.0
C291 C 0.36264 0.19174 0.29387 0.0
C292 C 0.45293 0.14508 0.2767 0.0
O293 O 0.39912 0.17945 0.26209 0.0
O294 O 0.45492 0.21438 0.25045 0.0
C295 C 0.50047 0.2957 0.25609 0.0
N296 N 0.51509 0.27733 0.26394 0.0
C297 C 0.56912 0.3341 0.27148 0.0
C298 C 0.55492 0.35359 0.26322 0.0
C299 C 0.52036 0.3343 0.25556 0.0
C300 C 0.54814 0.29562 0.27151 0.0
H301 H 0.47372 0.281 0.25039 0.0
C302 C 0.41971 0.19533 0.24969 0.0
O303 O 0.36141 0.16014 0.29395 0.0
O304 O 0.3931 0.21988 0.28907 0.0
N305 N 0.53629 0.23798 0.28033 0.0
C306 C 0.54479 0.21524 0.28881 0.0
C307 C 0.57772 0.23031 0.2978 0.0
C308 C 0.60167 0.26854 0.2979 0.0
C309 C 0.59248 0.29137 0.28899 0.0
C310 C 0.55942 0.27477 0.28015 0.0
H311 H 0.52658 0.18583 0.28878 0.0
O312 O 0.43885 0.20333 0.3083 0.0
O313 O 0.46465 0.22502 0.28436 0.0
O314 O 0.4279 0.1464 0.28514 0.0
O315 O 0.47731 0.17223 0.26841 0.0
C316 C 0.61448 0.33001 0.28879 0.0
C317 C 0.60278 0.35136 0.28006 0.0
H318 H 0.57004 0.38338 0.26289 0.0
H319 H 0.50901 0.34917 0.24933 0.0
H320 H 0.58459 0.2125 0.30468 0.0
H321 H 0.62688 0.28008 0.30497 0.0
H322 H 0.64013 0.34362 0.29555 0.0
H323 H 0.61958 0.38107 0.28027 0.0
Mn324 Mn 0.22757 0.40878 0.61928 0.0
Mn325 Mn 0.27238 0.48745 0.59735 0.0
C326 C 0.24216 0.46441 0.63119 0.0
C327 C 0.17144 0.35815 0.62739 0.0
C328 C 0.31007 0.44797 0.61155 0.0
O329 O 0.22109 0.39036 0.59562 0.0
O330 O 0.24814 0.44479 0.58225 0.0
C331 C 0.20794 0.4873 0.58251 0.0
N332 N 0.23909 0.50433 0.59176 0.0
C333 C 0.23156 0.55694 0.59596 0.0
C334 C 0.19952 0.54007 0.58638 0.0
C335 C 0.18763 0.50507 0.57966 0.0
C336 C 0.25073 0.53796 0.59832 0.0
H337 H 0.19867 0.46034 0.57737 0.0
C338 C 0.23058 0.40954 0.58248 0.0
O339 O 0.20197 0.35732 0.6283 0.0
O340 O 0.17359 0.38772 0.62142 0.0
N341 N 0.29707 0.531 0.61047 0.0
C342 C 0.32753 0.54267 0.62005 0.0
C343 C 0.34251 0.57686 0.628 0.0
C344 C 0.32621 0.59879 0.62593 0.0
C345 C 0.29512 0.58638 0.61587 0.0
C346 C 0.2816 0.55221 0.60814 0.0
H347 H 0.3402 0.52595 0.62167 0.0
O348 O 0.2351 0.43631 0.6403 0.0
O349 O 0.24012 0.45896 0.61545 0.0
O350 O 0.28228 0.42241 0.61912 0.0
O351 O 0.30878 0.47257 0.60284 0.0
C352 C 0.27662 0.60626 0.61343 0.0
C353 C 0.24482 0.59152 0.60352 0.0
H354 H 0.18366 0.5536 0.58423 0.0
H355 H 0.16282 0.4918 0.57232 0.0
H356 H 0.3665 0.58625 0.63575 0.0
H357 H 0.33764 0.625 0.6322 0.0
H358 H 0.2863 0.63266 0.61933 0.0
H359 H 0.23054 0.60683 0.60193 0.0
Mn360 Mn 0.81976 0.22682 0.95234 0.0
Mn361 Mn 0.78584 0.27236 0.93101 0.0
C362 C 0.77894 0.24121 0.96464 0.0
C363 C 0.8142 0.17044 0.95996 0.0
C364 C 0.86312 0.30943 0.94508 0.0
O365 O 0.83153 0.22104 0.92856 0.0
O366 O 0.804 0.24842 0.91559 0.0
C367 C 0.7213 0.20844 0.91603 0.0
N368 N 0.73558 0.23933 0.92547 0.0
C369 C 0.67553 0.23183 0.93001 0.0
C370 C 0.66019 0.20006 0.92025 0.0
C371 C 0.68318 0.18828 0.91327 0.0
C372 C 0.71372 0.25086 0.93228 0.0
H373 H 0.73889 0.19926 0.91069 0.0
C374 C 0.82171 0.23087 0.91556 0.0
O375 O 0.84561 0.20086 0.96097 0.0
O376 O 0.78676 0.17285 0.95417 0.0
N377 N 0.76721 0.29679 0.94446 0.0
C378 C 0.78617 0.32702 0.95416 0.0
C379 C 0.76712 0.34188 0.96235 0.0
C380 C 0.72886 0.32571 0.9604 0.0
C381 C 0.71001 0.29487 0.95022 0.0
C382 C 0.73051 0.28146 0.94225 0.0
H383 H 0.81559 0.33959 0.95569 0.0
O384 O 0.79999 0.23378 0.97355 0.0
O385 O 0.78217 0.2396 0.94886 0.0
O386 O 0.86089 0.28144 0.95243 0.0
O387 O 0.8372 0.30847 0.93648 0.0
C388 C 0.6716 0.27651 0.94789 0.0
C389 C 0.65436 0.24497 0.93782 0.0
H390 H 0.63078 0.18433 0.91815 0.0
H391 H 0.67152 0.16369 0.90579 0.0
H392 H 0.78186 0.36568 0.97019 0.0
H393 H 0.71422 0.33706 0.96685 0.0
H394 H 0.65499 0.28611 0.95397 0.0
H395 H 0.62476 0.2308 0.9363 0.0
Mn396 Mn 0.5915 0.82143 0.28393 0.0
Mn397 Mn 0.51111 0.78595 0.26353 0.0
C398 C 0.5368 0.78271 0.29731 0.0
C399 C 0.64165 0.8142 0.29113 0.0
C400 C 0.55467 0.86561 0.27495 0.0
O401 O 0.60706 0.83032 0.25976 0.0
O402 O 0.55139 0.79696 0.2478 0.0
C403 C 0.504 0.71552 0.2524 0.0
N404 N 0.49 0.73408 0.26059 0.0
C405 C 0.43513 0.67759 0.26764 0.0
C406 C 0.44871 0.65793 0.25904 0.0
C407 C 0.48337 0.67698 0.25146 0.0
C408 C 0.45683 0.71601 0.26807 0.0
H409 H 0.53083 0.73001 0.24677 0.0
C410 C 0.58665 0.81536 0.24721 0.0
O411 O 0.64413 0.84634 0.29182 0.0
O412 O 0.61082 0.78719 0.28596 0.0
N413 N 0.46997 0.77358 0.27762 0.0
C414 C 0.46222 0.79634 0.28655 0.0
C415 C 0.42936 0.78142 0.29559 0.0
C416 C 0.40472 0.74334 0.29528 0.0
C417 C 0.41315 0.72049 0.28593 0.0
C418 C 0.4462 0.73693 0.27708 0.0
H419 H 0.481 0.82562 0.28684 0.0
O420 O 0.56608 0.80404 0.30571 0.0
O421 O 0.54078 0.78457 0.28153 0.0
O422 O 0.57908 0.86318 0.2834 0.0
O423 O 0.53016 0.83924 0.26635 0.0
C424 C 0.39045 0.68195 0.28534 0.0
C425 C 0.40145 0.66052 0.27621 0.0
H426 H 0.43303 0.62818 0.25841 0.0
H427 H 0.49424 0.66197 0.24497 0.0
H428 H 0.42309 0.79924 0.30281 0.0
H429 H 0.37957 0.7319 0.3024 0.0
H430 H 0.3648 0.66846 0.2921 0.0
H431 H 0.38412 0.63086 0.27613 0.0
C432 C 0.17372 0.86682 0.97593 0.0
C433 C 0.19562 0.86398 0.9636 0.0
C434 C 0.1852 0.90066 0.98382 0.0
C435 C 0.2144 0.98214 0.99495 0.0
H436 H 0.3176 0.0267 0.00656 0.0
C437 C 0.30613 0.12988 0.02296 0.0
C438 C 0.33226 0.13323 0.03467 0.0
C439 C 0.2836 0.09601 0.01514 0.0
C440 C 0.28869 0.01457 0.00355 0.0
H441 H 0.24464 0.8948 0.94879 0.0
H442 H 0.26411 0.95339 0.96223 0.0
H443 H 0.28894 0.97083 0.99033 0.0
H444 H 0.35301 0.10313 0.04838 0.0
H445 H 0.31372 0.0445 0.03501 0.0
H446 H 0.21461 0.02645 0.00838 0.0
C447 C 0.23869 0.92957 0.96616 0.0
C448 C 0.27233 0.98271 0.99405 0.0
C449 C 0.22742 0.89599 0.95841 0.0
C450 C 0.33355 0.10163 0.03924 0.0
C451 C 0.31111 0.06801 0.03153 0.0
C452 C 0.231 0.01451 0.00441 0.0
C453 C 0.21864 0.93203 0.97943 0.0
C454 C 0.23507 0.9661 0.98957 0.0
C455 C 0.28689 0.06506 0.01895 0.0
C456 C 0.26833 0.03089 0.00889 0.0
H457 H 0.14914 0.84255 0.98021 0.0
H458 H 0.16916 0.90172 0.994 0.0
H459 H 0.18562 0.96995 0.99168 0.0
H460 H 0.30453 0.15377 0.01917 0.0
H461 H 0.2652 0.0946 0.00549 0.0
C462 C 0.17244 0.30675 0.3555 0.0
C463 C 0.19637 0.33176 0.36727 0.0
C464 C 0.18102 0.28206 0.34778 0.0
C465 C 0.24117 0.24049 0.35061 0.0
H466 H 0.24131 0.24357 0.30307 0.0
C467 C 0.30649 0.17248 0.31143 0.0
C468 C 0.33225 0.19686 0.30002 0.0
C469 C 0.28162 0.181 0.31904 0.0
C470 C 0.24115 0.24214 0.31634 0.0
H471 H 0.24689 0.3491 0.38081 0.0
H472 H 0.26147 0.30595 0.36762 0.0
H473 H 0.21273 0.27246 0.31863 0.0
H474 H 0.35074 0.24811 0.28693 0.0
H475 H 0.30729 0.26258 0.2999 0.0
H476 H 0.27103 0.21159 0.34832 0.0
C477 C 0.23617 0.3053 0.36427 0.0
C478 C 0.22448 0.25842 0.32526 0.0
C479 C 0.2279 0.33022 0.37178 0.0
C480 C 0.33128 0.22878 0.2957 0.0
C481 C 0.30618 0.23698 0.30308 0.0
C482 C 0.25754 0.22392 0.34168 0.0
C483 C 0.21335 0.28151 0.35189 0.0
C484 C 0.2253 0.25878 0.34251 0.0
C485 C 0.28165 0.21371 0.31513 0.0
C486 C 0.25874 0.22555 0.32445 0.0
H487 H 0.14803 0.30743 0.35172 0.0
H488 H 0.16279 0.26393 0.33835 0.0
H489 H 0.24196 0.24 0.36388 0.0
H490 H 0.30671 0.14777 0.31506 0.0
H491 H 0.26291 0.16242 0.32822 0.0
C492 C 0.89781 0.22319 0.70548 0.0
C493 C 0.86479 0.1918 0.70081 0.0
C494 C 0.93111 0.23148 0.69809 0.0
C495 C 0.96668 0.22033 0.65909 0.0
H496 H 0.0599 0.26723 0.68227 0.0
C497 C 0.10301 0.3272 0.62946 0.0
C498 C 0.13594 0.3283 0.63384 0.0
C499 C 0.06976 0.30227 0.63692 0.0
C500 C 0.03414 0.25367 0.6756 0.0
H501 H 0.841 0.14367 0.68515 0.0
H502 H 0.89948 0.15846 0.67198 0.0
H503 H 1.00235 0.23768 0.69776 0.0
H504 H 0.1596 0.30318 0.64912 0.0
H505 H 0.10125 0.25966 0.66237 0.0
H506 H 0.99847 0.23748 0.63694 0.0
C507 C 0.89944 0.17657 0.68144 0.0
C508 C 1.00115 0.237 0.68448 0.0
C509 C 0.86603 0.16796 0.68905 0.0
C510 C 0.13465 0.30291 0.64545 0.0
C511 C 0.10131 0.27818 0.6531 0.0
C512 C 0.99968 0.23726 0.65021 0.0
C513 C 0.93226 0.20884 0.68567 0.0
C514 C 0.96702 0.22099 0.67634 0.0
C515 C 0.06857 0.27799 0.64909 0.0
C516 C 0.0338 0.25499 0.65836 0.0
H517 H 0.89778 0.2421 0.71452 0.0
H518 H 0.9557 0.25673 0.70154 0.0
H519 H 0.94092 0.20849 0.65242 0.0
H520 H 0.10304 0.34635 0.62055 0.0
H521 H 0.04522 0.30322 0.63366 0.0
C522 C 0.69753 0.8641 0.02052 0.0
C523 C 0.67315 0.86308 0.03261 0.0
C524 C 0.72218 0.89742 0.01284 0.0
C525 C 0.76456 0.99915 0.01622 0.0
H526 H 0.76061 0.997 0.96869 0.0
C527 C 0.77651 0.10203 0.96169 0.0
C528 C 0.80848 0.13474 0.96614 0.0
C529 C 0.76803 0.0686 0.96898 0.0
C530 C 0.76225 0.99806 0.98196 0.0
H531 H 0.6569 0.89637 0.04678 0.0
H532 H 0.69986 0.95413 0.03362 0.0
H533 H 0.73166 0.93932 0.98405 0.0
H534 H 0.8574 0.15782 0.98132 0.0
H535 H 0.84233 0.09913 0.99426 0.0
H536 H 0.79366 0.0579 0.01416 0.0
C537 C 0.7001 0.92942 0.02999 0.0
C538 C 0.74595 0.96498 0.99076 0.0
C539 C 0.67526 0.89621 0.03748 0.0
C540 C 0.83261 0.13304 0.97761 0.0
C541 C 0.82386 0.09951 0.98509 0.0
C542 C 0.78109 0.03222 0.00742 0.0
C543 C 0.72327 0.93038 0.01731 0.0
C544 C 0.74593 0.96515 0.00801 0.0
C545 C 0.79112 0.067 0.98104 0.0
C546 C 0.77914 0.03208 0.9902 0.0
H547 H 0.69644 0.83899 0.01648 0.0
H548 H 0.73985 0.8973 0.00319 0.0
H549 H 0.76535 1.00022 0.0295 0.0
H550 H 0.75736 0.10239 0.95288 0.0
H551 H 0.7424 0.04425 0.9657 0.0
C552 C 0.67006 0.77455 0.29195 0.0
C553 C 0.67078 0.80688 0.29705 0.0
C554 C 0.69224 0.76291 0.29955 0.0
C555 C 0.7131 0.72933 0.32698 0.0
H556 H 0.81498 0.78707 0.34071 0.0
C557 C 0.77223 0.66896 0.37197 0.0
C558 C 0.80531 0.67054 0.36746 0.0
C559 C 0.76062 0.6909 0.36411 0.0
C560 C 0.78654 0.77065 0.33689 0.0
H561 H 0.69723 0.85374 0.31339 0.0
H562 H 0.73611 0.83303 0.32692 0.0
H563 H 0.78695 0.81599 0.32433 0.0
H564 H 0.85337 0.69818 0.35184 0.0
H565 H 0.83278 0.73667 0.33789 0.0
H566 H 0.71226 0.6841 0.33933 0.0
C567 C 0.71839 0.81688 0.31692 0.0
C568 C 0.77046 0.78723 0.32763 0.0
C569 C 0.69616 0.82874 0.30919 0.0
C570 C 0.82774 0.69636 0.35558 0.0
C571 C 0.81597 0.71841 0.34761 0.0
C572 C 0.72894 0.71299 0.33627 0.0
C573 C 0.71556 0.78307 0.31258 0.0
C574 C 0.73357 0.76659 0.32248 0.0
C575 C 0.78163 0.71494 0.35143 0.0
C576 C 0.76577 0.73335 0.34142 0.0
H577 H 0.65116 0.75734 0.28248 0.0
H578 H 0.69004 0.73722 0.29563 0.0
H579 H 0.68448 0.71271 0.32345 0.0
H580 H 0.75451 0.64976 0.38124 0.0
H581 H 0.73444 0.68815 0.36761 0.0
C582 C 0.86482 0.69678 0.64483 0.0
C583 C 0.86363 0.67224 0.63278 0.0
C584 C 0.89823 0.72128 0.65252 0.0
C585 C 0.9659 0.74451 0.67461 0.0
H586 H 0.05871 0.79228 0.6511 0.0
C587 C 0.10348 0.77545 0.70351 0.0
C588 C 0.13607 0.80757 0.69906 0.0
C589 C 0.06993 0.76675 0.69624 0.0
C590 C 0.03307 0.77967 0.65788 0.0
H591 H 0.89667 0.65557 0.61869 0.0
H592 H 0.95459 0.69839 0.63181 0.0
H593 H 1.0009 0.7641 0.63583 0.0
H594 H 0.15878 0.85645 0.68389 0.0
H595 H 0.09993 0.84099 0.67099 0.0
H596 H 0.99809 0.75896 0.69664 0.0
C597 C 0.92996 0.69882 0.63542 0.0
C598 C 0.99992 0.76324 0.64911 0.0
C599 C 0.89667 0.67409 0.62795 0.0
C600 C 0.13412 0.83156 0.68761 0.0
C601 C 0.10049 0.82259 0.68015 0.0
C602 C 0.99905 0.76069 0.68337 0.0
C603 C 0.93109 0.72212 0.64807 0.0
C604 C 0.96595 0.74463 0.65736 0.0
C605 C 0.06809 0.78974 0.6842 0.0
C606 C 0.03305 0.77764 0.6751 0.0
H607 H 0.83977 0.69584 0.64886 0.0
H608 H 0.89825 0.73904 0.66217 0.0
H609 H 0.94026 0.73022 0.68134 0.0
H610 H 0.10401 0.7564 0.71232 0.0
H611 H 0.04568 0.74105 0.69953 0.0
C612 C 0.71182 0.21619 0.96718 0.0
C613 C 0.74757 0.24184 0.97219 0.0
C614 C 0.68156 0.21602 0.97434 0.0
C615 C 0.62206 0.20837 0.99761 0.0
H616 H 0.62584 0.30119 0.00593 0.0
C617 C 0.50943 0.21755 0.03397 0.0
C618 C 0.49873 0.24238 0.02839 0.0
C619 C 0.53967 0.21731 0.02702 0.0
C620 C 0.62431 0.27507 0.00356 0.0
H621 H 0.78021 0.28546 0.98934 0.0
H622 H 0.72709 0.2855 0.00195 0.0
H623 H 0.67943 0.30103 0.99427 0.0
H624 H 0.50884 0.28441 0.01049 0.0
H625 H 0.56226 0.28432 0.99824 0.0
H626 H 0.56682 0.18235 0.00658 0.0
C627 C 0.72245 0.26618 0.99217 0.0
C628 C 0.65512 0.27499 0.99707 0.0
C629 C 0.75275 0.26611 0.98505 0.0
C630 C 0.51741 0.26573 0.0152 0.0
C631 C 0.54792 0.26573 0.00829 0.0
C632 C 0.59134 0.20846 0.00409 0.0
C633 C 0.68654 0.24129 0.98678 0.0
C634 C 0.65427 0.24161 0.99401 0.0
C635 C 0.55951 0.24167 0.01422 0.0
C636 C 0.5921 0.24178 0.00713 0.0
H637 H 0.70731 0.19647 0.95759 0.0
H638 H 0.65431 0.19664 0.96985 0.0
H639 H 0.62066 0.18221 0.99552 0.0
H640 H 0.49454 0.19851 0.04381 0.0
H641 H 0.54797 0.19858 0.03192 0.0
C642 C 0.29355 0.50911 0.36514 0.0
C643 C 0.25771 0.49978 0.36067 0.0
C644 C 0.32365 0.53955 0.35817 0.0
C645 C 0.3496 0.62654 0.33655 0.0
H646 H 0.43915 0.62397 0.3279 0.0
C647 C 0.49635 0.71578 0.30057 0.0
C648 C 0.50552 0.75144 0.30526 0.0
C649 C 0.46652 0.68542 0.30773 0.0
C650 C 0.4143 0.62513 0.33011 0.0
H651 H 0.22464 0.51239 0.34452 0.0
H652 H 0.27756 0.56597 0.33204 0.0
H653 H 0.38527 0.56922 0.33803 0.0
H654 H 0.49321 0.78396 0.32191 0.0
H655 H 0.44062 0.73052 0.3347 0.0
H656 H 0.37849 0.68224 0.32798 0.0
C657 C 0.28243 0.55052 0.34136 0.0
C658 C 0.38348 0.59381 0.33612 0.0
C659 C 0.25222 0.51986 0.34838 0.0
C660 C 0.48585 0.75651 0.31789 0.0
C661 C 0.45577 0.72601 0.3251 0.0
C662 C 0.38044 0.65789 0.33039 0.0
C663 C 0.3185 0.56095 0.34635 0.0
C664 C 0.35078 0.59412 0.33945 0.0
C665 C 0.44558 0.69011 0.31995 0.0
C666 C 0.41313 0.65748 0.32707 0.0
H667 H 0.29826 0.49319 0.37429 0.0
H668 H 0.35092 0.54687 0.36242 0.0
H669 H 0.32499 0.62785 0.33921 0.0
H670 H 0.51196 0.71138 0.29114 0.0
H671 H 0.45932 0.65828 0.30334 0.0
C672 C 0.78643 0.28977 0.69693 0.0
C673 C 0.75966 0.25403 0.69249 0.0
C674 C 0.78675 0.32 0.68973 0.0
C675 C 0.72654 0.34649 0.6678 0.0
H676 H 0.81899 0.43635 0.6602 0.0
C677 C 0.73298 0.48351 0.65102 0.0
C678 C 0.75824 0.50432 0.63875 0.0
C679 C 0.73337 0.45304 0.65776 0.0
C680 C 0.79289 0.41141 0.6621 0.0
H681 H 0.71431 0.22119 0.67615 0.0
H682 H 0.7148 0.27433 0.66328 0.0
H683 H 0.81946 0.3819 0.66977 0.0
H684 H 0.80563 0.51236 0.62486 0.0
H685 H 0.80602 0.459 0.63623 0.0
H686 H 0.70005 0.37587 0.6595 0.0
C687 C 0.73482 0.27905 0.67273 0.0
C688 C 0.79316 0.38026 0.66779 0.0
C689 C 0.7346 0.24871 0.67998 0.0
C690 C 0.78524 0.49588 0.634 0.0
C691 C 0.78572 0.46562 0.64069 0.0
C692 C 0.72627 0.37766 0.66194 0.0
C693 C 0.76061 0.31505 0.67773 0.0
C694 C 0.76003 0.34748 0.67082 0.0
C695 C 0.75951 0.44351 0.6525 0.0
C696 C 0.75948 0.41051 0.65907 0.0
H697 H 0.80668 0.29433 0.70626 0.0
H698 H 0.80679 0.3472 0.69401 0.0
H699 H 0.70052 0.32182 0.67021 0.0
H700 H 0.71249 0.49028 0.65508 0.0
H701 H 0.71329 0.43702 0.66707 0.0
C702 C 0.28964 0.78325 0.96884 0.0
C703 C 0.25372 0.75658 0.97311 0.0
C704 C 0.31962 0.78389 0.9765 0.0
C705 C 0.37837 0.79137 0.99992 0.0
H706 H 0.37569 0.69894 0.00774 0.0
C707 C 0.49423 0.78411 0.03435 0.0
C708 C 0.50394 0.75846 0.0289 0.0
C709 C 0.46352 0.78414 0.02784 0.0
C710 C 0.37694 0.72498 0.00551 0.0
H711 H 0.22026 0.71155 0.98949 0.0
H712 H 0.27298 0.71241 0.00305 0.0
H713 H 0.32175 0.69864 0.99632 0.0
H714 H 0.4918 0.71491 0.01152 0.0
H715 H 0.43783 0.71486 0.99994 0.0
H716 H 0.43385 0.81781 0.00852 0.0
C717 C 0.27801 0.73222 0.99346 0.0
C718 C 0.34587 0.72478 0.9992 0.0
C719 C 0.24794 0.73175 0.9858 0.0
C720 C 0.48397 0.73422 0.01617 0.0
C721 C 0.4531 0.73412 0.00965 0.0
C722 C 0.40941 0.79157 0.00615 0.0
C723 C 0.31419 0.7581 0.98875 0.0
C724 C 0.34634 0.75801 0.99625 0.0
C725 C 0.44231 0.75884 0.01556 0.0
C726 C 0.40914 0.75841 0.00896 0.0
H727 H 0.29454 0.80332 0.95937 0.0
H728 H 0.34704 0.80397 0.97246 0.0
H729 H 0.3795 0.81743 0.99797 0.0
H730 H 0.51015 0.80385 0.04381 0.0
H731 H 0.45594 0.80343 0.03273 0.0
C732 C 0.51861 0.24948 0.32097 0.0
C733 C 0.49938 0.25604 0.30862 0.0
C734 C 0.54862 0.27905 0.32869 0.0
C735 C 0.59073 0.37918 0.3361 0.0
H736 H 0.68018 0.37537 0.3431 0.0
C737 C 0.75377 0.48406 0.35179 0.0
C738 C 0.74975 0.504 0.36462 0.0
C739 C 0.7229 0.45299 0.34545 0.0
C740 C 0.65547 0.37693 0.34109 0.0
H741 H 0.49364 0.29774 0.29556 0.0
H742 H 0.54614 0.34933 0.30875 0.0
H743 H 0.62611 0.32214 0.33146 0.0
H744 H 0.71084 0.50966 0.37999 0.0
H745 H 0.65699 0.45515 0.36923 0.0
H746 H 0.62023 0.43428 0.34509 0.0
C747 C 0.53864 0.32169 0.31248 0.0
C748 C 0.62435 0.34626 0.33466 0.0
C749 C 0.5089 0.29223 0.30476 0.0
C750 C 0.71452 0.49383 0.37043 0.0
C751 C 0.68372 0.46294 0.36411 0.0
C752 C 0.62179 0.40981 0.34242 0.0
C753 C 0.55916 0.3155 0.32439 0.0
C754 C 0.5917 0.34716 0.33201 0.0
C755 C 0.68753 0.44197 0.35162 0.0
C756 C 0.65457 0.40913 0.34495 0.0
H757 H 0.51097 0.22159 0.32435 0.0
H758 H 0.56349 0.2734 0.33803 0.0
H759 H 0.56589 0.38065 0.33439 0.0
H760 H 0.78077 0.49219 0.34688 0.0
H761 H 0.72667 0.43788 0.33559 0.0
C762 C 0.26726 0.5162 0.65125 0.0
C763 C 0.24279 0.4966 0.63853 0.0
C764 C 0.26735 0.54676 0.65815 0.0
C765 C 0.20939 0.58946 0.66307 0.0
H766 H 0.30225 0.67844 0.67138 0.0
C767 C 0.21816 0.71166 0.69883 0.0
C768 C 0.24355 0.74718 0.69346 0.0
C769 C 0.21786 0.68112 0.69194 0.0
C770 C 0.27611 0.65388 0.66899 0.0
H771 H 0.19709 0.49082 0.62397 0.0
H772 H 0.19735 0.54435 0.63579 0.0
H773 H 0.30209 0.62449 0.66001 0.0
H774 H 0.28651 0.77904 0.6759 0.0
H775 H 0.28623 0.72542 0.66371 0.0
H776 H 0.18335 0.61892 0.67167 0.0
C777 C 0.21685 0.53673 0.64036 0.0
C778 C 0.27603 0.62286 0.66269 0.0
C779 C 0.21697 0.50642 0.63344 0.0
C780 C 0.26737 0.75179 0.68047 0.0
C781 C 0.26727 0.7212 0.67359 0.0
C782 C 0.20948 0.62042 0.66934 0.0
C783 C 0.24231 0.55752 0.65266 0.0
C784 C 0.24264 0.59032 0.65965 0.0
C785 C 0.24268 0.68555 0.67936 0.0
C786 C 0.24281 0.65297 0.67239 0.0
H787 H 0.28675 0.50832 0.6556 0.0
H788 H 0.28681 0.56181 0.66783 0.0
H789 H 0.18321 0.56471 0.66101 0.0
H790 H 0.19877 0.70757 0.70852 0.0
H791 H 0.19872 0.65411 0.69673 0.0
C792 C 0.36435 0.19149 0.10429 0.0
C793 C 0.39541 0.22576 0.10075 0.0
C794 C 0.35133 0.18261 0.12047 0.0
C795 C 0.35844 0.22406 0.16158 0.0
H796 H 0.35891 0.13816 0.17881 0.0
C797 C 0.42145 0.22255 0.22238 0.0
C798 C 0.40272 0.19349 0.23354 0.0
C799 C 0.40699 0.22134 0.2069 0.0
C800 C 0.3576 0.16166 0.17416 0.0
H801 H 0.43578 0.27828 0.11101 0.0
H802 H 0.41295 0.26324 0.13892 0.0
H803 H 0.35702 0.14581 0.1491 0.0
H804 H 0.35391 0.14025 0.23716 0.0
H805 H 0.32909 0.13751 0.20942 0.0
H806 H 0.36213 0.2414 0.18655 0.0
C807 C 0.39855 0.24307 0.12938 0.0
C808 C 0.35651 0.16606 0.15716 0.0
C809 C 0.41186 0.25162 0.1134 0.0
C810 C 0.36884 0.16311 0.22883 0.0
C811 C 0.3547 0.1615 0.21302 0.0
C812 C 0.3597 0.21975 0.17849 0.0
C813 C 0.36869 0.20822 0.13321 0.0
C814 C 0.35893 0.19829 0.15071 0.0
C815 C 0.37372 0.19076 0.20198 0.0
C816 C 0.36117 0.18946 0.18489 0.0
H817 H 0.35134 0.17101 0.09474 0.0
H818 H 0.3283 0.15553 0.12309 0.0
H819 H 0.35968 0.24886 0.15696 0.0
H820 H 0.44756 0.24636 0.22556 0.0
H821 H 0.42251 0.24401 0.19853 0.0
C822 C 0.15806 0.36512 0.43867 0.0
C823 C 0.18929 0.3986 0.43423 0.0
C824 C 0.15552 0.35024 0.45439 0.0
C825 C 0.21187 0.35167 0.489 0.0
H826 H 0.14051 0.35399 0.51848 0.0
C827 C 0.24695 0.40626 0.55357 0.0
C828 C 0.22141 0.39093 0.5664 0.0
C829 C 0.23755 0.39234 0.53771 0.0
C830 C 0.15996 0.35204 0.51039 0.0
H831 H 0.24265 0.44191 0.44259 0.0
H832 H 0.23873 0.41552 0.46943 0.0
H833 H 0.1328 0.35582 0.48876 0.0
H834 H 0.1663 0.34834 0.5729 0.0
H835 H 0.14928 0.32432 0.54474 0.0
H836 H 0.24047 0.35052 0.51052 0.0
C837 C 0.21611 0.4009 0.46093 0.0
C838 C 0.15551 0.35307 0.49339 0.0
C839 C 0.21823 0.41613 0.44555 0.0
C840 C 0.18654 0.36042 0.56319 0.0
C841 C 0.17678 0.34685 0.54713 0.0
C842 C 0.21623 0.3505 0.50592 0.0
C843 C 0.1847 0.36808 0.4656 0.0
C844 C 0.18254 0.35493 0.48263 0.0
C845 C 0.20214 0.36305 0.5342 0.0
C846 C 0.19148 0.35281 0.5168 0.0
H847 H 0.13527 0.35114 0.43021 0.0
H848 H 0.13089 0.32501 0.45782 0.0
H849 H 0.23294 0.35283 0.48092 0.0
H850 H 0.27403 0.42976 0.55573 0.0
H851 H 0.25753 0.40585 0.52802 0.0
C852 C 0.82821 0.18786 0.89612 0.0
C853 C 0.83098 0.22206 0.89935 0.0
C854 C 0.83213 0.17836 0.88002 0.0
C855 C 0.86573 0.2182 0.83868 0.0
H856 H 0.77897 0.13203 0.82188 0.0
C857 C 0.79921 0.21581 0.77851 0.0
C858 C 0.78971 0.18731 0.76712 0.0
C859 C 0.81261 0.21448 0.79394 0.0
C860 C 0.80391 0.15556 0.82641 0.0
H861 H 0.84211 0.27386 0.88864 0.0
H862 H 0.84962 0.2578 0.86086 0.0
H863 H 0.78894 0.14041 0.85156 0.0
H864 H 0.78679 0.13486 0.76305 0.0
H865 H 0.8091 0.13185 0.79072 0.0
H866 H 0.879 0.23492 0.81362 0.0
C867 C 0.84431 0.23814 0.87058 0.0
C868 C 0.80964 0.16039 0.84339 0.0
C869 C 0.8397 0.24726 0.88648 0.0
C870 C 0.79404 0.15728 0.77156 0.0
C871 C 0.80673 0.15552 0.78732 0.0
C872 C 0.85993 0.21345 0.82179 0.0
C873 C 0.83981 0.20335 0.86707 0.0
C874 C 0.83956 0.19278 0.84966 0.0
C875 C 0.81629 0.18432 0.79856 0.0
C876 C 0.82801 0.18306 0.81555 0.0
H877 H 0.82127 0.16788 0.90586 0.0
H878 H 0.82844 0.15133 0.87764 0.0
H879 H 0.88933 0.24313 0.84317 0.0
H880 H 0.79627 0.23935 0.77556 0.0
H881 H 0.81923 0.23675 0.80247 0.0
C882 C 0.64321 0.81172 0.10287 0.0
C883 C 0.61188 0.7773 0.09989 0.0
C884 C 0.65713 0.82168 0.11887 0.0
C885 C 0.65102 0.78335 0.16068 0.0
H886 H 0.65035 0.87035 0.17625 0.0
C887 C 0.58433 0.78916 0.21957 0.0
C888 C 0.60391 0.81712 0.23113 0.0
C889 C 0.59947 0.78987 0.20432 0.0
C890 C 0.65179 0.8466 0.17206 0.0
H891 H 0.57205 0.72552 0.11089 0.0
H892 H 0.5964 0.74238 0.13849 0.0
H893 H 0.65259 0.86072 0.14673 0.0
H894 H 0.65485 0.86803 0.23563 0.0
H895 H 0.68094 0.87002 0.20825 0.0
H896 H 0.64668 0.76759 0.18593 0.0
C897 C 0.61037 0.76186 0.12868 0.0
C898 C 0.65307 0.84105 0.15518 0.0
C899 C 0.59618 0.75226 0.11287 0.0
C900 C 0.6392 0.84604 0.22699 0.0
C901 C 0.6541 0.84721 0.2114 0.0
C902 C 0.64949 0.78878 0.17749 0.0
C903 C 0.64038 0.79699 0.13197 0.0
C904 C 0.6506 0.80833 0.14933 0.0
C905 C 0.63431 0.8189 0.20003 0.0
C906 C 0.64796 0.8195 0.18325 0.0
H907 H 0.65562 0.83158 0.09304 0.0
H908 H 0.68025 0.84894 0.12107 0.0
H909 H 0.6497 0.75819 0.15654 0.0
H910 H 0.55714 0.76646 0.22229 0.0
H911 H 0.58348 0.768 0.19566 0.0
C912 C 0.79295 0.6406 0.56164 0.0
C913 C 0.79046 0.60692 0.56589 0.0
C914 C 0.80601 0.65613 0.54607 0.0
C915 C 0.86307 0.65699 0.51207 0.0
H916 H 0.78968 0.65183 0.48161 0.0
C917 C 0.84776 0.60146 0.44792 0.0
C918 C 0.83656 0.61529 0.43485 0.0
C919 C 0.85176 0.61604 0.46362 0.0
C920 C 0.811 0.65463 0.48996 0.0
H921 H 0.80076 0.56389 0.55735 0.0
H922 H 0.82451 0.59142 0.5308 0.0
H923 H 0.7785 0.64977 0.51118 0.0
H924 H 0.82192 0.65604 0.42773 0.0
H925 H 0.82805 0.68123 0.45558 0.0
H926 H 0.89444 0.65916 0.49097 0.0
C927 C 0.81611 0.60567 0.53933 0.0
C928 C 0.80458 0.65347 0.50688 0.0
C929 C 0.80228 0.5898 0.55454 0.0
C930 C 0.83086 0.64513 0.43763 0.0
C931 C 0.83418 0.65936 0.45352 0.0
C932 C 0.86957 0.65833 0.49523 0.0
C933 C 0.81783 0.63873 0.53486 0.0
C934 C 0.82968 0.65257 0.51799 0.0
C935 C 0.84413 0.6445 0.46672 0.0
C936 C 0.84263 0.65494 0.48399 0.0
H937 H 0.78384 0.65429 0.57012 0.0
H938 H 0.80682 0.68153 0.54278 0.0
H939 H 0.88288 0.65648 0.52044 0.0
H940 H 0.85236 0.5785 0.44609 0.0
H941 H 0.85887 0.60354 0.47353 0.0
C942 C 0.21637 0.79462 0.88644 0.0
C943 C 0.18831 0.78625 0.89795 0.0
C944 C 0.21538 0.80836 0.87105 0.0
C945 C 0.15773 0.80253 0.83867 0.0
H946 H 0.24579 0.88846 0.82262 0.0
C947 C 0.19033 0.8289 0.76919 0.0
C948 C 0.22475 0.83226 0.76584 0.0
C949 C 0.18084 0.83247 0.78534 0.0
C950 C 0.22075 0.86469 0.82691 0.0
H951 H 0.13694 0.78555 0.90222 0.0
H952 H 0.13452 0.80844 0.87462 0.0
H953 H 0.23726 0.87656 0.85206 0.0
H954 H 0.27696 0.84422 0.77639 0.0
H955 H 0.26088 0.85097 0.80425 0.0
H956 H 0.14279 0.78886 0.81342 0.0
C957 C 0.15758 0.80492 0.87791 0.0
C958 C 0.21582 0.85802 0.84375 0.0
C959 C 0.15901 0.79189 0.89362 0.0
C960 C 0.25019 0.84135 0.77864 0.0
C961 C 0.24105 0.84553 0.7946 0.0
C962 C 0.16278 0.80908 0.82175 0.0
C963 C 0.186 0.81347 0.86658 0.0
C964 C 0.18519 0.82596 0.8497 0.0
C965 C 0.206 0.84029 0.79824 0.0
C966 C 0.19534 0.8392 0.8157 0.0
H967 H 0.23936 0.79069 0.88931 0.0
H968 H 0.23735 0.81426 0.86244 0.0
H969 H 0.13402 0.77749 0.843 0.0
H970 H 0.17016 0.82167 0.75951 0.0
H971 H 0.15363 0.82824 0.7878 0.0
C972 C 0.53592 0.62903 0.06647 0.0
C973 C 0.54699 0.6524 0.05277 0.0
C974 C 0.52455 0.59183 0.06474 0.0
C975 C 0.52191 0.52072 0.03674 0.0
H976 H 0.43928 0.45668 0.06454 0.0
C977 C 0.45091 0.36007 0.03607 0.0
C978 C 0.4507 0.34592 0.05172 0.0
C979 C 0.45942 0.39678 0.03428 0.0
C980 C 0.46225 0.47418 0.05665 0.0
H981 H 0.55629 0.65554 0.02656 0.0
H982 H 0.53575 0.58982 0.02339 0.0
H983 H 0.46283 0.52269 0.06495 0.0
H984 H 0.45781 0.3582 0.0777 0.0
H985 H 0.47112 0.42148 0.07466 0.0
H986 H 0.52094 0.47157 0.02851 0.0
C987 C 0.53633 0.60051 0.03554 0.0
C988 C 0.47603 0.5121 0.05697 0.0
C989 C 0.54826 0.63814 0.03734 0.0
C990 C 0.45747 0.3684 0.06553 0.0
C991 C 0.46511 0.4046 0.06377 0.0
C992 C 0.50779 0.48254 0.03631 0.0
C993 C 0.52322 0.57669 0.04918 0.0
C994 C 0.50676 0.53604 0.04742 0.0
C995 C 0.46695 0.41947 0.04813 0.0
C996 C 0.47842 0.45904 0.04659 0.0
H997 H 0.53496 0.63938 0.07854 0.0
H998 H 0.51591 0.5747 0.07561 0.0
H999 H 0.54556 0.53827 0.02922 0.0
H1000 H 0.44638 0.34338 0.02524 0.0
H1001 H 0.4606 0.40759 0.02209 0.0
C1002 C 0.91923 0.55232 0.40238 0.0
C1003 C 0.9023 0.55551 0.38814 0.0
C1004 C 0.9458 0.54168 0.40146 0.0
C1005 C 0.00615 0.52538 0.37319 0.0
H1006 H 0.99867 0.45917 0.40811 0.0
C1007 C 0.09222 0.45079 0.37509 0.0
C1008 C 0.11137 0.45612 0.38992 0.0
C1009 C 0.06478 0.46051 0.37377 0.0
C1010 C 1.00113 0.47763 0.39828 0.0
H1011 H 0.90051 0.55121 0.36167 0.0
H1012 H 0.94678 0.53184 0.35996 0.0
H1013 H 0.95678 0.48339 0.40765 0.0
H1014 H 0.11586 0.47437 0.41512 0.0
H1015 H 0.06746 0.49013 0.41298 0.0
H1016 H 0.0505 0.51896 0.36381 0.0
C1017 C 0.94008 0.53831 0.37187 0.0
C1018 C 0.97731 0.49184 0.39806 0.0
C1019 C 0.91373 0.54959 0.37281 0.0
C1020 C 0.10149 0.46982 0.40355 0.0
C1021 C 0.07374 0.47882 0.40233 0.0
C1022 C 0.02984 0.51079 0.37333 0.0
C1023 C 0.95553 0.53301 0.38626 0.0
C1024 C 0.97998 0.51659 0.38574 0.0
C1025 C 0.05554 0.47496 0.38737 0.0
C1026 C 0.028 0.48731 0.38606 0.0
H1027 H 0.91076 0.55665 0.41435 0.0
H1028 H 0.95786 0.5391 0.41277 0.0
H1029 H 0.00912 0.54437 0.36353 0.0
H1030 H 0.09961 0.44075 0.36433 0.0
H1031 H 0.05105 0.45708 0.36211 0.0
C1032 C 0.6409 0.09039 0.7072 0.0
C1033 C 0.65481 0.10906 0.72211 0.0
C1034 C 0.60333 0.06439 0.70559 0.0
C1035 C 0.51368 0.03854 0.72574 0.0
H1036 H 0.47554 0.95103 0.69872 0.0
C1037 C 0.36812 0.91381 0.73258 0.0
C1038 C 0.34744 0.89778 0.71834 0.0
C1039 C 0.40463 0.94217 0.73151 0.0
C1040 C 0.48584 0.97567 0.70612 0.0
H1041 H 0.64098 0.11343 0.74729 0.0
H1042 H 0.57637 0.0671 0.74481 0.0
H1043 H 0.54203 0.99311 0.70026 0.0
H1044 H 0.34843 0.89868 0.69179 0.0
H1045 H 0.41313 0.94822 0.68987 0.0
H1046 H 0.45759 0.02025 0.73211 0.0
C1047 C 0.59376 0.07341 0.73409 0.0
C1048 C 0.52395 0.99981 0.70703 0.0
C1049 C 0.63098 0.09967 0.7356 0.0
C1050 C 0.3637 0.91113 0.70294 0.0
C1051 C 0.40069 0.93909 0.70185 0.0
C1052 C 0.47577 0.01424 0.725 0.0
C1053 C 0.57906 0.05629 0.71893 0.0
C1054 C 0.53845 0.03127 0.7171 0.0
C1055 C 0.4216 0.95457 0.71616 0.0
C1056 C 0.46145 0.98229 0.71538 0.0
H1057 H 0.65857 0.09743 0.69653 0.0
H1058 H 0.59311 0.05192 0.6937 0.0
H1059 H 0.52352 0.06301 0.73322 0.0
H1060 H 0.35627 0.90364 0.74458 0.0
H1061 H 0.4201 0.95333 0.74273 0.0
C1062 C 0.63944 0.5499 0.62525 0.0
C1063 C 0.65415 0.54726 0.61016 0.0
C1064 C 0.60181 0.53823 0.62667 0.0
C1065 C 0.51325 0.47781 0.60494 0.0
H1066 H 0.4737 0.5227 0.63397 0.0
C1067 C 0.3679 0.45788 0.59862 0.0
C1068 C 0.34642 0.4506 0.61283 0.0
C1069 C 0.40445 0.46612 0.59967 0.0
C1070 C 0.48439 0.5096 0.62599 0.0
H1071 H 0.64173 0.53278 0.58453 0.0
H1072 H 0.57704 0.51445 0.58673 0.0
H1073 H 0.54026 0.54731 0.63277 0.0
H1074 H 0.34607 0.44601 0.63928 0.0
H1075 H 0.41084 0.46135 0.64119 0.0
H1076 H 0.45749 0.44115 0.59769 0.0
C1077 C 0.59382 0.52388 0.59769 0.0
C1078 C 0.52255 0.52369 0.62527 0.0
C1079 C 0.63109 0.53489 0.59635 0.0
C1080 C 0.36195 0.45096 0.62814 0.0
C1081 C 0.39899 0.46009 0.62923 0.0
C1082 C 0.47531 0.46414 0.6055 0.0
C1083 C 0.57828 0.52411 0.61297 0.0
C1084 C 0.53757 0.50837 0.61451 0.0
C1085 C 0.42066 0.46811 0.61499 0.0
C1086 C 0.46049 0.48015 0.61585 0.0
H1087 H 0.65651 0.55888 0.63615 0.0
H1088 H 0.59096 0.53875 0.63865 0.0
H1089 H 0.52346 0.46439 0.59689 0.0
H1090 H 0.35662 0.45808 0.58669 0.0
H1091 H 0.42051 0.47244 0.5885 0.0
C1092 C 0.09044 0.63852 0.95839 0.0
C1093 C 0.10823 0.65276 0.94334 0.0
C1094 C 0.06431 0.60099 0.9599 0.0
C1095 C 0.03697 0.51201 0.93883 0.0
H1096 H 0.95127 0.47308 0.96708 0.0
C1097 C 0.9117 0.36687 0.93223 0.0
C1098 C 0.8969 0.34561 0.94644 0.0
C1099 C 0.94003 0.40336 0.93331 0.0
C1100 C 0.97541 0.48361 0.95932 0.0
H1101 H 0.11093 0.63972 0.91786 0.0
H1102 H 0.06428 0.57519 0.9202 0.0
H1103 H 0.99327 0.53961 0.96573 0.0
H1104 H 0.90001 0.34558 0.97294 0.0
H1105 H 0.94949 0.41028 0.9749 0.0
H1106 H 0.01822 0.45614 0.93193 0.0
C1107 C 0.07138 0.59225 0.93107 0.0
C1108 C 0.99949 0.52173 0.95852 0.0
C1109 C 0.0978 0.62941 0.92964 0.0
C1110 C 0.91146 0.3613 0.9618 0.0
C1111 C 0.93939 0.39829 0.96292 0.0
C1112 C 0.01271 0.47411 0.93947 0.0
C1113 C 0.05522 0.57713 0.94633 0.0
C1114 C 0.03027 0.53651 0.94802 0.0
C1115 C 0.95365 0.41974 0.94866 0.0
C1116 C 0.98142 0.45952 0.94953 0.0
H1117 H 0.09835 0.65584 0.9692 0.0
H1118 H 0.05258 0.59043 0.97187 0.0
H1119 H 0.06094 0.52207 0.931 0.0
H1120 H 0.90065 0.35545 0.92025 0.0
H1121 H 0.95027 0.41928 0.92213 0.0
C1122 C 0.55152 0.91502 0.29093 0.0
C1123 C 0.55181 0.89927 0.27577 0.0
C1124 C 0.54056 0.94158 0.29187 0.0
C1125 C 0.48718 0.97463 0.26752 0.0
H1126 H 0.5243 0.05328 0.29962 0.0
C1127 C 0.46781 0.10105 0.26296 0.0
C1128 C 0.4563 0.11165 0.2771 0.0
C1129 C 0.47644 0.07296 0.26364 0.0
C1130 C 0.51341 0.03115 0.29072 0.0
H1131 H 0.54333 0.90045 0.24965 0.0
H1132 H 0.52661 0.94812 0.25107 0.0
H1133 H 0.54885 0.01129 0.29893 0.0
H1134 H 0.44456 0.10104 0.30304 0.0
H1135 H 0.46054 0.05211 0.30431 0.0
H1136 H 0.45288 0.99554 0.25893 0.0
C1137 C 0.53307 0.93907 0.26238 0.0
C1138 C 0.52744 0.00702 0.29031 0.0
C1139 C 0.54324 0.91212 0.26151 0.0
C1140 C 0.45284 0.09301 0.29191 0.0
C1141 C 0.46234 0.06537 0.29267 0.0
C1142 C 0.47366 0.99905 0.26778 0.0
C1143 C 0.53018 0.95323 0.27763 0.0
C1144 C 0.51484 0.97865 0.27855 0.0
C1145 C 0.47458 0.05537 0.27855 0.0
C1146 C 0.48682 0.02773 0.27928 0.0
H1147 H 0.55742 0.9051 0.30215 0.0
H1148 H 0.53855 0.95157 0.30385 0.0
H1149 H 0.47576 0.95253 0.25863 0.0
H1150 H 0.47094 0.11512 0.25142 0.0
H1151 H 0.48599 0.06597 0.25259 0.0
loop_
_geom_bond_atom_site_label_1
_geom_bond_atom_site_label_2
_geom_bond_distance
_geom_bond_site_symmetry_2
_ccdc_geom_bond_type
Mn0 O5 2.095 . S
Mn0 O15 2.162 . S
Mn0 O16 2.297 . S
Mn0 O24 2.385 . S
Mn0 O25 2.209 . S
Mn0 O26 2.094 . S
Mn1 O6 2.121 . S
Mn1 N8 2.257 . S
Mn1 N17 2.282 . S
Mn1 O25 2.215 . S
Mn1 O27 2.117 . S
C2 O24 1.234 . S
C2 O25 1.283 . S
C3 O15 1.281 . S
C3 O16 1.236 . S
C4 O26 1.240 . S
C4 O27 1.264 . S
O5 Mn0 2.095 . S
O5 C14 1.250 . S
O6 Mn1 2.121 . S
O6 C14 1.258 . S
C7 N8 1.326 . S
C7 C11 1.460 . S
C7 H13 0.929 . S
N8 Mn1 2.257 . S
N8 C7 1.326 . S
N8 C12 1.362 . S
C9 C10 1.258 . S
C9 C12 1.431 . S
C9 C29 1.449 . S
C10 C9 1.258 . S
C10 C11 1.477 . S
C10 H30 0.931 . S
C11 C7 1.460 . S
C11 C10 1.477 . S
C11 H31 0.930 . S
C12 N8 1.362 . S
C12 C9 1.431 . S
C12 C22 1.476 . S
H13 C7 0.929 . S
C14 O5 1.250 . S
C14 O6 1.258 . S
O15 Mn0 2.162 . S
O15 C3 1.281 . S
O16 Mn0 2.297 . S
O16 C3 1.236 . S
N17 Mn1 2.282 . S
N17 C18 1.328 . S
N17 C22 1.318 . S
C18 N17 1.328 . S
C18 C19 1.457 . S
C18 H23 0.929 . S
C19 C18 1.457 . S
C19 C20 1.291 . S
C19 H32 0.931 . S
C20 C19 1.291 . S
C20 C21 1.373 . S
C20 H33 0.929 . S
C21 C20 1.373 . S
C21 C22 1.396 . S
C21 C28 1.403 . S
C22 C12 1.476 . S
C22 N17 1.318 . S
C22 C21 1.396 . S
H23 C18 0.929 . S
O24 Mn0 2.385 . S
O24 C2 1.234 . S
O25 Mn0 2.209 . S
O25 Mn1 2.215 . S
O25 C2 1.283 . S
O26 Mn0 2.094 . S
O26 C4 1.240 . S
O27 Mn1 2.117 . S
O27 C4 1.264 . S
C28 C21 1.403 . S
C28 C29 1.399 . S
C28 H34 0.929 . S
C29 C9 1.449 . S
C29 C28 1.399 . S
C29 H35 0.930 . S
H30 C10 0.931 . S
H31 C11 0.930 . S
H32 C19 0.931 . S
H33 C20 0.929 . S
H34 C28 0.929 . S
H35 C29 0.930 . S
Mn36 O41 2.095 . S
Mn36 O51 2.162 . S
Mn36 O52 2.297 . S
Mn36 O60 2.385 . S
Mn36 O61 2.209 . S
Mn36 O62 2.094 . S
Mn37 O42 2.121 . S
Mn37 N44 2.257 . S
Mn37 N53 2.282 . S
Mn37 O61 2.215 . S
Mn37 O63 2.117 . S
C38 O60 1.234 . S
C38 O61 1.283 . S
C39 O51 1.281 . S
C39 O52 1.236 . S
C40 O62 1.240 . S
C40 O63 1.264 . S
O41 Mn36 2.095 . S
O41 C50 1.250 . S
O42 Mn37 2.121 . S
O42 C50 1.258 . S
C43 N44 1.326 . S
C43 C47 1.460 . S
C43 H49 0.929 . S
N44 Mn37 2.257 . S
N44 C43 1.326 . S
N44 C48 1.362 . S
C45 C46 1.258 . S
C45 C48 1.431 . S
C45 C65 1.449 . S
C46 C45 1.258 . S
C46 C47 1.477 . S
C46 H66 0.931 . S
C47 C43 1.460 . S
C47 C46 1.477 . S
C47 H67 0.930 . S
C48 N44 1.362 . S
C48 C45 1.431 . S
C48 C58 1.476 . S
H49 C43 0.929 . S
C50 O41 1.250 . S
C50 O42 1.258 . S
O51 Mn36 2.162 . S
O51 C39 1.281 . S
O52 Mn36 2.297 . S
O52 C39 1.236 . S
N53 Mn37 2.282 . S
N53 C54 1.328 . S
N53 C58 1.318 . S
C54 N53 1.328 . S
C54 C55 1.457 . S
C54 H59 0.929 . S
C55 C54 1.457 . S
C55 C56 1.291 . S
C55 H68 0.931 . S
C56 C55 1.291 . S
C56 C57 1.373 . S
C56 H69 0.929 . S
C57 C56 1.373 . S
C57 C58 1.396 . S
C57 C64 1.403 . S
C58 C48 1.476 . S
C58 N53 1.318 . S
C58 C57 1.396 . S
H59 C54 0.929 . S
O60 Mn36 2.385 . S
O60 C38 1.234 . S
O61 Mn36 2.209 . S
O61 Mn37 2.215 . S
O61 C38 1.283 . S
O62 Mn36 2.094 . S
O62 C40 1.240 . S
O63 Mn37 2.117 . S
O63 C40 1.264 . S
C64 C57 1.403 . S
C64 C65 1.399 . S
C64 H70 0.929 . S
C65 C45 1.449 . S
C65 C64 1.399 . S
C65 H71 0.930 . S
H66 C46 0.931 . S
H67 C47 0.930 . S
H68 C55 0.931 . S
H69 C56 0.929 . S
H70 C64 0.929 . S
H71 C65 0.930 . S
Mn72 O77 2.095 . S
Mn72 O87 2.162 . S
Mn72 O88 2.297 . S
Mn72 O96 2.385 . S
Mn72 O97 2.209 . S
Mn72 O98 2.094 . S
Mn73 O78 2.121 . S
Mn73 N80 2.257 . S
Mn73 N89 2.282 . S
Mn73 O97 2.215 . S
Mn73 O99 2.117 . S
C74 O96 1.234 . S
C74 O97 1.283 . S
C75 O87 1.281 . S
C75 O88 1.236 . S
C76 O98 1.240 . S
C76 O99 1.264 . S
O77 Mn72 2.095 . S
O77 C86 1.250 . S
O78 Mn73 2.121 . S
O78 C86 1.258 . S
C79 N80 1.326 . S
C79 C83 1.460 . S
C79 H85 0.929 . S
N80 Mn73 2.257 . S
N80 C79 1.326 . S
N80 C84 1.362 . S
C81 C82 1.258 . S
C81 C84 1.431 . S
C81 C101 1.449 . S
C82 C81 1.258 . S
C82 C83 1.477 . S
C82 H102 0.931 . S
C83 C79 1.460 . S
C83 C82 1.477 . S
C83 H103 0.930 . S
C84 N80 1.362 . S
C84 C81 1.431 . S
C84 C94 1.476 . S
H85 C79 0.929 . S
C86 O77 1.250 . S
C86 O78 1.258 . S
O87 Mn72 2.162 . S
O87 C75 1.281 . S
O88 Mn72 2.297 . S
O88 C75 1.236 . S
N89 Mn73 2.282 . S
N89 C90 1.328 . S
N89 C94 1.318 . S
C90 N89 1.328 . S
C90 C91 1.457 . S
C90 H95 0.929 . S
C91 C90 1.457 . S
C91 C92 1.291 . S
C91 H104 0.931 . S
C92 C91 1.291 . S
C92 C93 1.373 . S
C92 H105 0.929 . S
C93 C92 1.373 . S
C93 C94 1.396 . S
C93 C100 1.403 . S
C94 C84 1.476 . S
C94 N89 1.318 . S
C94 C93 1.396 . S
H95 C90 0.929 . S
O96 Mn72 2.385 . S
O96 C74 1.234 . S
O97 Mn72 2.209 . S
O97 Mn73 2.215 . S
O97 C74 1.283 . S
O98 Mn72 2.094 . S
O98 C76 1.240 . S
O99 Mn73 2.117 . S
O99 C76 1.264 . S
C100 C93 1.403 . S
C100 C101 1.399 . S
C100 H106 0.929 . S
C101 C81 1.449 . S
C101 C100 1.399 . S
C101 H107 0.930 . S
H102 C82 0.931 . S
H103 C83 0.930 . S
H104 C91 0.931 . S
H105 C92 0.929 . S
H106 C100 0.929 . S
H107 C101 0.930 . S
Mn108 O113 2.095 . S
Mn108 O123 2.162 . S
Mn108 O124 2.297 . S
Mn108 O132 2.385 . S
Mn108 O133 2.209 . S
Mn108 O134 2.094 . S
Mn109 O114 2.121 . S
Mn109 N116 2.257 . S
Mn109 N125 2.282 . S
Mn109 O133 2.215 . S
Mn109 O135 2.117 . S
C110 O132 1.234 . S
C110 O133 1.283 . S
C111 O123 1.281 . S
C111 O124 1.236 . S
C112 O134 1.240 . S
C112 O135 1.264 . S
O113 Mn108 2.095 . S
O113 C122 1.250 . S
O114 Mn109 2.121 . S
O114 C122 1.258 . S
C115 N116 1.326 . S
C115 C119 1.460 . S
C115 H121 0.929 . S
N116 Mn109 2.257 . S
N116 C115 1.326 . S
N116 C120 1.362 . S
C117 C118 1.258 . S
C117 C120 1.431 . S
C117 C137 1.449 . S
C118 C117 1.258 . S
C118 C119 1.477 . S
C118 H138 0.931 . S
C119 C115 1.460 . S
C119 C118 1.477 . S
C119 H139 0.930 . S
C120 N116 1.362 . S
C120 C117 1.431 . S
C120 C130 1.476 . S
H121 C115 0.929 . S
C122 O113 1.250 . S
C122 O114 1.258 . S
O123 Mn108 2.162 . S
O123 C111 1.281 . S
O124 Mn108 2.297 . S
O124 C111 1.236 . S
N125 Mn109 2.282 . S
N125 C126 1.328 . S
N125 C130 1.318 . S
C126 N125 1.328 . S
C126 C127 1.457 . S
C126 H131 0.929 . S
C127 C126 1.457 . S
C127 C128 1.291 . S
C127 H140 0.931 . S
C128 C127 1.291 . S
C128 C129 1.373 . S
C128 H141 0.929 . S
C129 C128 1.373 . S
C129 C130 1.396 . S
C129 C136 1.403 . S
C130 C120 1.476 . S
C130 N125 1.318 . S
C130 C129 1.396 . S
H131 C126 0.929 . S
O132 Mn108 2.385 . S
O132 C110 1.234 . S
O133 Mn108 2.209 . S
O133 Mn109 2.215 . S
O133 C110 1.283 . S
O134 Mn108 2.094 . S
O134 C112 1.240 . S
O135 Mn109 2.117 . S
O135 C112 1.264 . S
C136 C129 1.403 . S
C136 C137 1.399 . S
C136 H142 0.929 . S
C137 C117 1.449 . S
C137 C136 1.399 . S
C137 H143 0.930 . S
H138 C118 0.931 . S
H139 C119 0.930 . S
H140 C127 0.931 . S
H141 C128 0.929 . S
H142 C136 0.929 . S
H143 C137 0.930 . S
Mn144 O149 2.095 . S
Mn144 O159 2.162 . S
Mn144 O160 2.297 . S
Mn144 O168 2.385 . S
Mn144 O169 2.209 . S
Mn144 O170 2.094 . S
Mn145 O150 2.121 . S
Mn145 N152 2.257 . S
Mn145 N161 2.282 . S
Mn145 O169 2.215 . S
Mn145 O171 2.117 . S
C146 O168 1.234 . S
C146 O169 1.283 . S
C147 O159 1.281 . S
C147 O160 1.236 . S
C148 O170 1.240 . S
C148 O171 1.264 . S
O149 Mn144 2.095 . S
O149 C158 1.250 . S
O150 Mn145 2.121 . S
O150 C158 1.258 . S
C151 N152 1.326 . S
C151 C155 1.460 . S
C151 H157 0.929 . S
N152 Mn145 2.257 . S
N152 C151 1.326 . S
N152 C156 1.362 . S
C153 C154 1.258 . S
C153 C156 1.431 . S
C153 C173 1.449 . S
C154 C153 1.258 . S
C154 C155 1.477 . S
C154 H174 0.931 . S
C155 C151 1.460 . S
C155 C154 1.477 . S
C155 H175 0.930 . S
C156 N152 1.362 . S
C156 C153 1.431 . S
C156 C166 1.476 . S
H157 C151 0.929 . S
C158 O149 1.250 . S
C158 O150 1.258 . S
O159 Mn144 2.162 . S
O159 C147 1.281 . S
O160 Mn144 2.297 . S
O160 C147 1.236 . S
N161 Mn145 2.282 . S
N161 C162 1.328 . S
N161 C166 1.318 . S
C162 N161 1.328 . S
C162 C163 1.457 . S
C162 H167 0.929 . S
C163 C162 1.457 . S
C163 C164 1.291 . S
C163 H176 0.931 . S
C164 C163 1.291 . S
C164 C165 1.373 . S
C164 H177 0.929 . S
C165 C164 1.373 . S
C165 C166 1.396 . S
C165 C172 1.403 . S
C166 C156 1.476 . S
C166 N161 1.318 . S
C166 C165 1.396 . S
H167 C162 0.929 . S
O168 Mn144 2.385 . S
O168 C146 1.234 . S
O169 Mn144 2.209 . S
O169 Mn145 2.215 . S
O169 C146 1.283 . S
O170 Mn144 2.094 . S
O170 C148 1.240 . S
O171 Mn145 2.117 . S
O171 C148 1.264 . S
C172 C165 1.403 . S
C172 C173 1.399 . S
C172 H178 0.929 . S
C173 C153 1.449 . S
C173 C172 1.399 . S
C173 H179 0.930 . S
H174 C154 0.931 . S
H175 C155 0.930 . S
H176 C163 0.931 . S
H177 C164 0.929 . S
H178 C172 0.929 . S
H179 C173 0.930 . S
Mn180 O185 2.095 . S
Mn180 O195 2.162 . S
Mn180 O196 2.297 . S
Mn180 O204 2.385 . S
Mn180 O205 2.209 . S
Mn180 O206 2.094 . S
Mn181 O186 2.121 . S
Mn181 N188 2.257 . S
Mn181 N197 2.282 . S
Mn181 O205 2.215 . S
Mn181 O207 2.117 . S
C182 O204 1.234 . S
C182 O205 1.283 . S
C183 O195 1.281 . S
C183 O196 1.236 . S
C184 O206 1.240 . S
C184 O207 1.264 . S
O185 Mn180 2.095 . S
O185 C194 1.250 . S
O186 Mn181 2.121 . S
O186 C194 1.258 . S
C187 N188 1.326 . S
C187 C191 1.460 . S
C187 H193 0.929 . S
N188 Mn181 2.257 . S
N188 C187 1.326 . S
N188 C192 1.362 . S
C189 C190 1.258 . S
C189 C192 1.431 . S
C189 C209 1.449 . S
C190 C189 1.258 . S
C190 C191 1.477 . S
C190 H210 0.931 . S
C191 C187 1.460 . S
C191 C190 1.477 . S
C191 H211 0.930 . S
C192 N188 1.362 . S
C192 C189 1.431 . S
C192 C202 1.476 . S
H193 C187 0.929 . S
C194 O185 1.250 . S
C194 O186 1.258 . S
O195 Mn180 2.162 . S
O195 C183 1.281 . S
O196 Mn180 2.297 . S
O196 C183 1.236 . S
N197 Mn181 2.282 . S
N197 C198 1.328 . S
N197 C202 1.318 . S
C198 N197 1.328 . S
C198 C199 1.457 . S
C198 H203 0.929 . S
C199 C198 1.457 . S
C199 C200 1.291 . S
C199 H212 0.931 . S
C200 C199 1.291 . S
C200 C201 1.373 . S
C200 H213 0.929 . S
C201 C200 1.373 . S
C201 C202 1.396 . S
C201 C208 1.403 . S
C202 C192 1.476 . S
C202 N197 1.318 . S
C202 C201 1.396 . S
H203 C198 0.929 . S
O204 Mn180 2.385 . S
O204 C182 1.234 . S
O205 Mn180 2.209 . S
O205 Mn181 2.215 . S
O205 C182 1.283 . S
O206 Mn180 2.094 . S
O206 C184 1.240 . S
O207 Mn181 2.117 . S
O207 C184 1.264 . S
C208 C201 1.403 . S
C208 C209 1.399 . S
C208 H214 0.929 . S
C209 C189 1.449 . S
C209 C208 1.399 . S
C209 H215 0.930 . S
H210 C190 0.931 . S
H211 C191 0.930 . S
H212 C199 0.931 . S
H213 C200 0.929 . S
H214 C208 0.929 . S
H215 C209 0.930 . S
Mn216 O221 2.095 . S
Mn216 O231 2.162 . S
Mn216 O232 2.297 . S
Mn216 O240 2.385 . S
Mn216 O241 2.209 . S
Mn216 O242 2.094 . S
Mn217 O222 2.121 . S
Mn217 N224 2.257 . S
Mn217 N233 2.282 . S
Mn217 O241 2.215 . S
Mn217 O243 2.117 . S
C218 O240 1.234 . S
C218 O241 1.283 . S
C219 O231 1.281 . S
C219 O232 1.236 . S
C220 O242 1.240 . S
C220 O243 1.264 . S
O221 Mn216 2.095 . S
O221 C230 1.250 . S
O222 Mn217 2.121 . S
O222 C230 1.258 . S
C223 N224 1.326 . S
C223 C227 1.460 . S
C223 H229 0.929 . S
N224 Mn217 2.257 . S
N224 C223 1.326 . S
N224 C228 1.362 . S
C225 C226 1.258 . S
C225 C228 1.431 . S
C225 C245 1.449 . S
C226 C225 1.258 . S
C226 C227 1.477 . S
C226 H246 0.931 . S
C227 C223 1.460 . S
C227 C226 1.477 . S
C227 H247 0.930 . S
C228 N224 1.362 . S
C228 C225 1.431 . S
C228 C238 1.476 . S
H229 C223 0.929 . S
C230 O221 1.250 . S
C230 O222 1.258 . S
O231 Mn216 2.162 . S
O231 C219 1.281 . S
O232 Mn216 2.297 . S
O232 C219 1.236 . S
N233 Mn217 2.282 . S
N233 C234 1.328 . S
N233 C238 1.318 . S
C234 N233 1.328 . S
C234 C235 1.457 . S
C234 H239 0.929 . S
C235 C234 1.457 . S
C235 C236 1.291 . S
C235 H248 0.931 . S
C236 C235 1.291 . S
C236 C237 1.373 . S
C236 H249 0.929 . S
C237 C236 1.373 . S
C237 C238 1.396 . S
C237 C244 1.403 . S
C238 C228 1.476 . S
C238 N233 1.318 . S
C238 C237 1.396 . S
H239 C234 0.929 . S
O240 Mn216 2.385 . S
O240 C218 1.234 . S
O241 Mn216 2.209 . S
O241 Mn217 2.215 . S
O241 C218 1.283 . S
O242 Mn216 2.094 . S
O242 C220 1.240 . S
O243 Mn217 2.117 . S
O243 C220 1.264 . S
C244 C237 1.403 . S
C244 C245 1.399 . S
C244 H250 0.929 . S
C245 C225 1.449 . S
C245 C244 1.399 . S
C245 H251 0.930 . S
H246 C226 0.931 . S
H247 C227 0.930 . S
H248 C235 0.931 . S
H249 C236 0.929 . S
H250 C244 0.929 . S
H251 C245 0.930 . S
Mn252 O257 2.095 . S
Mn252 O267 2.162 . S
Mn252 O268 2.297 . S
Mn252 O276 2.385 . S
Mn252 O277 2.209 . S
Mn252 O278 2.094 . S
Mn253 O258 2.121 . S
Mn253 N260 2.257 . S
Mn253 N269 2.282 . S
Mn253 O277 2.215 . S
Mn253 O279 2.117 . S
C254 O276 1.234 . S
C254 O277 1.283 . S
C255 O267 1.281 . S
C255 O268 1.236 . S
C256 O278 1.240 . S
C256 O279 1.264 . S
O257 Mn252 2.095 . S
O257 C266 1.250 . S
O258 Mn253 2.121 . S
O258 C266 1.258 . S
C259 N260 1.326 . S
C259 C263 1.460 . S
C259 H265 0.929 . S
N260 Mn253 2.257 . S
N260 C259 1.326 . S
N260 C264 1.362 . S
C261 C262 1.258 . S
C261 C264 1.431 . S
C261 C281 1.449 . S
C262 C261 1.258 . S
C262 C263 1.477 . S
C262 H282 0.931 . S
C263 C259 1.460 . S
C263 C262 1.477 . S
C263 H283 0.930 . S
C264 N260 1.362 . S
C264 C261 1.431 . S
C264 C274 1.476 . S
H265 C259 0.929 . S
C266 O257 1.250 . S
C266 O258 1.258 . S
O267 Mn252 2.162 . S
O267 C255 1.281 . S
O268 Mn252 2.297 . S
O268 C255 1.236 . S
N269 Mn253 2.282 . S
N269 C270 1.328 . S
N269 C274 1.318 . S
C270 N269 1.328 . S
C270 C271 1.457 . S
C270 H275 0.929 . S
C271 C270 1.457 . S
C271 C272 1.291 . S
C271 H284 0.931 . S
C272 C271 1.291 . S
C272 C273 1.373 . S
C272 H285 0.929 . S
C273 C272 1.373 . S
C273 C274 1.396 . S
C273 C280 1.403 . S
C274 C264 1.476 . S
C274 N269 1.318 . S
C274 C273 1.396 . S
H275 C270 0.929 . S
O276 Mn252 2.385 . S
O276 C254 1.234 . S
O277 Mn252 2.209 . S
O277 Mn253 2.215 . S
O277 C254 1.283 . S
O278 Mn252 2.094 . S
O278 C256 1.240 . S
O279 Mn253 2.117 . S
O279 C256 1.264 . S
C280 C273 1.403 . S
C280 C281 1.399 . S
C280 H286 0.929 . S
C281 C261 1.449 . S
C281 C280 1.399 . S
C281 H287 0.930 . S
H282 C262 0.931 . S
H283 C263 0.930 . S
H284 C271 0.931 . S
H285 C272 0.929 . S
H286 C280 0.929 . S
H287 C281 0.930 . S
Mn288 O293 2.095 . S
Mn288 O303 2.162 . S
Mn288 O304 2.297 . S
Mn288 O312 2.385 . S
Mn288 O313 2.209 . S
Mn288 O314 2.094 . S
Mn289 O294 2.121 . S
Mn289 N296 2.257 . S
Mn289 N305 2.282 . S
Mn289 O313 2.215 . S
Mn289 O315 2.117 . S
C290 O312 1.234 . S
C290 O313 1.283 . S
C291 O303 1.281 . S
C291 O304 1.236 . S
C292 O314 1.240 . S
C292 O315 1.264 . S
O293 Mn288 2.095 . S
O293 C302 1.250 . S
O294 Mn289 2.121 . S
O294 C302 1.258 . S
C295 N296 1.326 . S
C295 C299 1.460 . S
C295 H301 0.929 . S
N296 Mn289 2.257 . S
N296 C295 1.326 . S
N296 C300 1.362 . S
C297 C298 1.258 . S
C297 C300 1.431 . S
C297 C317 1.449 . S
C298 C297 1.258 . S
C298 C299 1.477 . S
C298 H318 0.931 . S
C299 C295 1.460 . S
C299 C298 1.477 . S
C299 H319 0.930 . S
C300 N296 1.362 . S
C300 C297 1.431 . S
C300 C310 1.476 . S
H301 C295 0.929 . S
C302 O293 1.250 . S
C302 O294 1.258 . S
O303 Mn288 2.162 . S
O303 C291 1.281 . S
O304 Mn288 2.297 . S
O304 C291 1.236 . S
N305 Mn289 2.282 . S
N305 C306 1.328 . S
N305 C310 1.318 . S
C306 N305 1.328 . S
C306 C307 1.457 . S
C306 H311 0.929 . S
C307 C306 1.457 . S
C307 C308 1.291 . S
C307 H320 0.931 . S
C308 C307 1.291 . S
C308 C309 1.373 . S
C308 H321 0.929 . S
C309 C308 1.373 . S
C309 C310 1.396 . S
C309 C316 1.403 . S
C310 C300 1.476 . S
C310 N305 1.318 . S
C310 C309 1.396 . S
H311 C306 0.929 . S
O312 Mn288 2.385 . S
O312 C290 1.234 . S
O313 Mn288 2.209 . S
O313 Mn289 2.215 . S
O313 C290 1.283 . S
O314 Mn288 2.094 . S
O314 C292 1.240 . S
O315 Mn289 2.117 . S
O315 C292 1.264 . S
C316 C309 1.403 . S
C316 C317 1.399 . S
C316 H322 0.929 . S
C317 C297 1.449 . S
C317 C316 1.399 . S
C317 H323 0.930 . S
H318 C298 0.931 . S
H319 C299 0.930 . S
H320 C307 0.931 . S
H321 C308 0.929 . S
H322 C316 0.929 . S
H323 C317 0.930 . S
Mn324 O329 2.095 . S
Mn324 O339 2.162 . S
Mn324 O340 2.297 . S
Mn324 O348 2.385 . S
Mn324 O349 2.209 . S
Mn324 O350 2.094 . S
Mn325 O330 2.121 . S
Mn325 N332 2.257 . S
Mn325 N341 2.282 . S
Mn325 O349 2.215 . S
Mn325 O351 2.117 . S
C326 O348 1.234 . S
C326 O349 1.283 . S
C327 O339 1.281 . S
C327 O340 1.236 . S
C328 O350 1.240 . S
C328 O351 1.264 . S
O329 Mn324 2.095 . S
O329 C338 1.250 . S
O330 Mn325 2.121 . S
O330 C338 1.258 . S
C331 N332 1.326 . S
C331 C335 1.460 . S
C331 H337 0.929 . S
N332 Mn325 2.257 . S
N332 C331 1.326 . S
N332 C336 1.362 . S
C333 C334 1.258 . S
C333 C336 1.431 . S
C333 C353 1.449 . S
C334 C333 1.258 . S
C334 C335 1.477 . S
C334 H354 0.931 . S
C335 C331 1.460 . S
C335 C334 1.477 . S
C335 H355 0.930 . S
C336 N332 1.362 . S
C336 C333 1.431 . S
C336 C346 1.476 . S
H337 C331 0.929 . S
C338 O329 1.250 . S
C338 O330 1.258 . S
O339 Mn324 2.162 . S
O339 C327 1.281 . S
O340 Mn324 2.297 . S
O340 C327 1.236 . S
N341 Mn325 2.282 . S
N341 C342 1.328 . S
N341 C346 1.318 . S
C342 N341 1.328 . S
C342 C343 1.457 . S
C342 H347 0.929 . S
C343 C342 1.457 . S
C343 C344 1.291 . S
C343 H356 0.931 . S
C344 C343 1.291 . S
C344 C345 1.373 . S
C344 H357 0.929 . S
C345 C344 1.373 . S
C345 C346 1.396 . S
C345 C352 1.403 . S
C346 C336 1.476 . S
C346 N341 1.318 . S
C346 C345 1.396 . S
H347 C342 0.929 . S
O348 Mn324 2.385 . S
O348 C326 1.234 . S
O349 Mn324 2.209 . S
O349 Mn325 2.215 . S
O349 C326 1.283 . S
O350 Mn324 2.094 . S
O350 C328 1.240 . S
O351 Mn325 2.117 . S
O351 C328 1.264 . S
C352 C345 1.403 . S
C352 C353 1.399 . S
C352 H358 0.929 . S
C353 C333 1.449 . S
C353 C352 1.399 . S
C353 H359 0.930 . S
H354 C334 0.931 . S
H355 C335 0.930 . S
H356 C343 0.931 . S
H357 C344 0.929 . S
H358 C352 0.929 . S
H359 C353 0.930 . S
Mn360 O365 2.095 . S
Mn360 O375 2.162 . S
Mn360 O376 2.297 . S
Mn360 O384 2.385 . S
Mn360 O385 2.209 . S
Mn360 O386 2.094 . S
Mn361 O366 2.121 . S
Mn361 N368 2.257 . S
Mn361 N377 2.282 . S
Mn361 O385 2.215 . S
Mn361 O387 2.117 . S
C362 O384 1.234 . S
C362 O385 1.283 . S
C363 O375 1.281 . S
C363 O376 1.236 . S
C364 O386 1.240 . S
C364 O387 1.264 . S
O365 Mn360 2.095 . S
O365 C374 1.250 . S
O366 Mn361 2.121 . S
O366 C374 1.258 . S
C367 N368 1.326 . S
C367 C371 1.460 . S
C367 H373 0.929 . S
N368 Mn361 2.257 . S
N368 C367 1.326 . S
N368 C372 1.362 . S
C369 C370 1.258 . S
C369 C372 1.431 . S
C369 C389 1.449 . S
C370 C369 1.258 . S
C370 C371 1.477 . S
C370 H390 0.931 . S
C371 C367 1.460 . S
C371 C370 1.477 . S
C371 H391 0.930 . S
C372 N368 1.362 . S
C372 C369 1.431 . S
C372 C382 1.476 . S
H373 C367 0.929 . S
C374 O365 1.250 . S
C374 O366 1.258 . S
O375 Mn360 2.162 . S
O375 C363 1.281 . S
O376 Mn360 2.297 . S
O376 C363 1.236 . S
N377 Mn361 2.282 . S
N377 C378 1.328 . S
N377 C382 1.318 . S
C378 N377 1.328 . S
C378 C379 1.457 . S
C378 H383 0.929 . S
C379 C378 1.457 . S
C379 C380 1.291 . S
C379 H392 0.931 . S
C380 C379 1.291 . S
C380 C381 1.373 . S
C380 H393 0.929 . S
C381 C380 1.373 . S
C381 C382 1.396 . S
C381 C388 1.403 . S
C382 C372 1.476 . S
C382 N377 1.318 . S
C382 C381 1.396 . S
H383 C378 0.929 . S
O384 Mn360 2.385 . S
O384 C362 1.234 . S
O385 Mn360 2.209 . S
O385 Mn361 2.215 . S
O385 C362 1.283 . S
O386 Mn360 2.094 . S
O386 C364 1.240 . S
O387 Mn361 2.117 . S
O387 C364 1.264 . S
C388 C381 1.403 . S
C388 C389 1.399 . S
C388 H394 0.929 . S
C389 C369 1.449 . S
C389 C388 1.399 . S
C389 H395 0.930 . S
H390 C370 0.931 . S
H391 C371 0.930 . S
H392 C379 0.931 . S
H393 C380 0.929 . S
H394 C388 0.929 . S
H395 C389 0.930 . S
Mn396 O401 2.095 . S
Mn396 O411 2.162 . S
Mn396 O412 2.297 . S
Mn396 O420 2.385 . S
Mn396 O421 2.209 . S
Mn396 O422 2.094 . S
Mn397 O402 2.121 . S
Mn397 N404 2.257 . S
Mn397 N413 2.282 . S
Mn397 O421 2.215 . S
Mn397 O423 2.117 . S
C398 O420 1.234 . S
C398 O421 1.283 . S
C399 O411 1.281 . S
C399 O412 1.236 . S
C400 O422 1.240 . S
C400 O423 1.264 . S
O401 Mn396 2.095 . S
O401 C410 1.250 . S
O402 Mn397 2.121 . S
O402 C410 1.258 . S
C403 N404 1.326 . S
C403 C407 1.460 . S
C403 H409 0.929 . S
N404 Mn397 2.257 . S
N404 C403 1.326 . S
N404 C408 1.362 . S
C405 C406 1.258 . S
C405 C408 1.431 . S
C405 C425 1.449 . S
C406 C405 1.258 . S
C406 C407 1.477 . S
C406 H426 0.931 . S
C407 C403 1.460 . S
C407 C406 1.477 . S
C407 H427 0.930 . S
C408 N404 1.362 . S
C408 C405 1.431 . S
C408 C418 1.476 . S
H409 C403 0.929 . S
C410 O401 1.250 . S
C410 O402 1.258 . S
O411 Mn396 2.162 . S
O411 C399 1.281 . S
O412 Mn396 2.297 . S
O412 C399 1.236 . S
N413 Mn397 2.282 . S
N413 C414 1.328 . S
N413 C418 1.318 . S
C414 N413 1.328 . S
C414 C415 1.457 . S
C414 H419 0.929 . S
C415 C414 1.457 . S
C415 C416 1.291 . S
C415 H428 0.931 . S
C416 C415 1.291 . S
C416 C417 1.373 . S
C416 H429 0.929 . S
C417 C416 1.373 . S
C417 C418 1.396 . S
C417 C424 1.403 . S
C418 C408 1.476 . S
C418 N413 1.318 . S
C418 C417 1.396 . S
H419 C414 0.929 . S
O420 Mn396 2.385 . S
O420 C398 1.234 . S
O421 Mn396 2.209 . S
O421 Mn397 2.215 . S
O421 C398 1.283 . S
O422 Mn396 2.094 . S
O422 C400 1.240 . S
O423 Mn397 2.117 . S
O423 C400 1.264 . S
C424 C417 1.403 . S
C424 C425 1.399 . S
C424 H430 0.929 . S
C425 C405 1.449 . S
C425 C424 1.399 . S
C425 H431 0.930 . S
H426 C406 0.931 . S
H427 C407 0.930 . S
H428 C415 0.931 . S
H429 C416 0.929 . S
H430 C424 0.929 . S
H431 C425 0.930 . S
C432 C433 1.349 . S
C432 C434 1.327 . S
C432 H457 0.950 . S
C433 C432 1.349 . S
C433 C449 1.349 . S
C434 C432 1.327 . S
C434 C453 1.429 . S
C434 H458 0.950 1_556 S
C435 C452 1.574 1_565 S
C435 C454 1.368 . S
C435 H459 0.949 . S
H436 C440 0.949 . S
C437 C438 1.349 . S
C437 C439 1.327 . S
C437 H460 0.950 . S
C438 C437 1.349 . S
C438 C450 1.349 . S
C439 C437 1.327 . S
C439 C455 1.429 . S
C439 H461 0.950 1_554 S
C440 H436 0.949 . S
C440 C448 1.574 1_545 S
C440 C456 1.368 . S
H441 C449 0.950 . S
H442 C447 0.950 . S
H443 C448 0.949 . S
H444 C450 0.950 . S
H445 C451 0.950 . S
H446 C452 0.949 . S
C447 H442 0.950 . S
C447 C449 1.327 . S
C447 C453 1.429 . S
C448 C440 1.574 1_565 S
C448 H443 0.949 . S
C448 C454 1.368 1_554 S
C449 C433 1.349 . S
C449 H441 0.950 . S
C449 C447 1.327 . S
C450 C438 1.349 . S
C450 H444 0.950 . S
C450 C451 1.327 . S
C451 H445 0.950 . S
C451 C450 1.327 . S
C451 C455 1.429 . S
C452 C435 1.574 1_545 S
C452 H446 0.949 . S
C452 C456 1.368 1_556 S
C453 C434 1.429 . S
C453 C447 1.429 . S
C453 C454 1.523 . S
C454 C435 1.368 . S
C454 C448 1.368 1_556 S
C454 C453 1.523 . S
C455 C439 1.429 . S
C455 C451 1.429 . S
C455 C456 1.523 . S
C456 C440 1.368 . S
C456 C452 1.368 1_554 S
C456 C455 1.523 . S
H457 C432 0.950 . S
H458 C434 0.950 1_554 S
H459 C435 0.949 . S
H460 C437 0.950 . S
H461 C439 0.950 1_556 S
C462 C463 1.349 . S
C462 C464 1.327 . S
C462 H487 0.950 . S
C463 C462 1.349 . S
C463 C479 1.349 . S
C464 C462 1.327 . S
C464 C483 1.429 . S
C464 H488 0.950 . S
C465 C482 1.574 . S
C465 C484 1.368 . S
C465 H489 0.949 . S
H466 C470 0.949 . S
C467 C468 1.349 . S
C467 C469 1.327 . S
C467 H490 0.950 . S
C468 C467 1.349 . S
C468 C480 1.349 . S
C469 C467 1.327 . S
C469 C485 1.429 . S
C469 H491 0.950 . S
C470 H466 0.949 . S
C470 C478 1.574 . S
C470 C486 1.368 . S
H471 C479 0.950 . S
H472 C477 0.950 . S
H473 C478 0.949 . S
H474 C480 0.950 . S
H475 C481 0.950 . S
H476 C482 0.949 . S
C477 H472 0.950 . S
C477 C479 1.327 . S
C477 C483 1.429 . S
C478 C470 1.574 . S
C478 H473 0.949 . S
C478 C484 1.368 . S
C479 C463 1.349 . S
C479 H471 0.950 . S
C479 C477 1.327 . S
C480 C468 1.349 . S
C480 H474 0.950 . S
C480 C481 1.327 . S
C481 H475 0.950 . S
C481 C480 1.327 . S
C481 C485 1.429 . S
C482 C465 1.574 . S
C482 H476 0.949 . S
C482 C486 1.368 . S
C483 C464 1.429 . S
C483 C477 1.429 . S
C483 C484 1.523 . S
C484 C465 1.368 . S
C484 C478 1.368 . S
C484 C483 1.523 . S
C485 C469 1.429 . S
C485 C481 1.429 . S
C485 C486 1.523 . S
C486 C470 1.368 . S
C486 C482 1.368 . S
C486 C485 1.523 . S
H487 C462 0.950 . S
H488 C464 0.950 . S
H489 C465 0.949 . S
H490 C467 0.950 . S
H491 C469 0.950 . S
C492 C493 1.349 . S
C492 C494 1.327 . S
C492 H517 0.950 . S
C493 C492 1.349 . S
C493 C509 1.349 . S
C494 C492 1.327 . S
C494 C513 1.429 . S
C494 H518 0.950 . S
C495 C512 1.574 1_655 S
C495 C514 1.368 . S
C495 H519 0.949 . S
H496 C500 0.949 . S
C497 C498 1.349 . S
C497 C499 1.327 . S
C497 H520 0.950 . S
C498 C497 1.349 . S
C498 C510 1.349 . S
C499 C497 1.327 . S
C499 C515 1.429 . S
C499 H521 0.950 . S
C500 H496 0.949 . S
C500 C508 1.574 1_455 S
C500 C516 1.368 . S
H501 C509 0.950 . S
H502 C507 0.950 . S
H503 C508 0.949 . S
H504 C510 0.950 . S
H505 C511 0.950 . S
H506 C512 0.949 . S
C507 H502 0.950 . S
C507 C509 1.327 . S
C507 C513 1.429 . S
C508 C500 1.574 1_655 S
C508 H503 0.949 . S
C508 C514 1.368 . S
C509 C493 1.349 . S
C509 H501 0.950 . S
C509 C507 1.327 . S
C510 C498 1.349 . S
C510 H504 0.950 . S
C510 C511 1.327 . S
C511 H505 0.950 . S
C511 C510 1.327 . S
C511 C515 1.429 . S
C512 C495 1.574 1_455 S
C512 H506 0.949 . S
C512 C516 1.368 . S
C513 C494 1.429 . S
C513 C507 1.429 . S
C513 C514 1.523 . S
C514 C495 1.368 . S
C514 C508 1.368 . S
C514 C513 1.523 . S
C515 C499 1.429 . S
C515 C511 1.429 . S
C515 C516 1.523 . S
C516 C500 1.368 . S
C516 C512 1.368 . S
C516 C515 1.523 . S
H517 C492 0.950 . S
H518 C494 0.950 . S
H519 C495 0.949 . S
H520 C497 0.950 . S
H521 C499 0.950 . S
C522 C523 1.349 . S
C522 C524 1.327 . S
C522 H547 0.950 . S
C523 C522 1.349 . S
C523 C539 1.349 . S
C524 C522 1.327 . S
C524 C543 1.429 . S
C524 H548 0.950 . S
C525 C542 1.574 1_565 S
C525 C544 1.368 1_556 S
C525 H549 0.949 . S
H526 C530 0.949 . S
C527 C528 1.349 . S
C527 C529 1.327 . S
C527 H550 0.950 . S
C528 C527 1.349 . S
C528 C540 1.349 . S
C529 C527 1.327 . S
C529 C545 1.429 . S
C529 H551 0.950 . S
C530 H526 0.949 . S
C530 C538 1.574 1_545 S
C530 C546 1.368 1_554 S
H531 C539 0.950 . S
H532 C537 0.950 . S
H533 C538 0.949 . S
H534 C540 0.950 . S
H535 C541 0.950 . S
H536 C542 0.949 . S
C537 H532 0.950 . S
C537 C539 1.327 . S
C537 C543 1.429 . S
C538 C530 1.574 1_565 S
C538 H533 0.949 . S
C538 C544 1.368 . S
C539 C523 1.349 . S
C539 H531 0.950 . S
C539 C537 1.327 . S
C540 C528 1.349 . S
C540 H534 0.950 . S
C540 C541 1.327 . S
C541 H535 0.950 . S
C541 C540 1.327 . S
C541 C545 1.429 . S
C542 C525 1.574 1_545 S
C542 H536 0.949 . S
C542 C546 1.368 . S
C543 C524 1.429 . S
C543 C537 1.429 . S
C543 C544 1.523 . S
C544 C525 1.368 1_554 S
C544 C538 1.368 . S
C544 C543 1.523 . S
C545 C529 1.429 . S
C545 C541 1.429 . S
C545 C546 1.523 . S
C546 C530 1.368 1_556 S
C546 C542 1.368 . S
C546 C545 1.523 . S
H547 C522 0.950 . S
H548 C524 0.950 . S
H549 C525 0.949 . S
H550 C527 0.950 . S
H551 C529 0.950 . S
C552 C553 1.349 . S
C552 C554 1.327 . S
C552 H577 0.950 . S
C553 C552 1.349 . S
C553 C569 1.349 . S
C554 C552 1.327 . S
C554 C573 1.429 . S
C554 H578 0.950 . S
C555 C572 1.574 . S
C555 C574 1.368 . S
C555 H579 0.949 . S
H556 C560 0.949 . S
C557 C558 1.349 . S
C557 C559 1.327 . S
C557 H580 0.950 . S
C558 C557 1.349 . S
C558 C570 1.349 . S
C559 C557 1.327 . S
C559 C575 1.429 . S
C559 H581 0.950 . S
C560 H556 0.949 . S
C560 C568 1.574 . S
C560 C576 1.368 . S
H561 C569 0.950 . S
H562 C567 0.950 . S
H563 C568 0.949 . S
H564 C570 0.950 . S
H565 C571 0.950 . S
H566 C572 0.949 . S
C567 H562 0.950 . S
C567 C569 1.327 . S
C567 C573 1.429 . S
C568 C560 1.574 . S
C568 H563 0.949 . S
C568 C574 1.368 . S
C569 C553 1.349 . S
C569 H561 0.950 . S
C569 C567 1.327 . S
C570 C558 1.349 . S
C570 H564 0.950 . S
C570 C571 1.327 . S
C571 H565 0.950 . S
C571 C570 1.327 . S
C571 C575 1.429 . S
C572 C555 1.574 . S
C572 H566 0.949 . S
C572 C576 1.368 . S
C573 C554 1.429 . S
C573 C567 1.429 . S
C573 C574 1.523 . S
C574 C555 1.368 . S
C574 C568 1.368 . S
C574 C573 1.523 . S
C575 C559 1.429 . S
C575 C571 1.429 . S
C575 C576 1.523 . S
C576 C560 1.368 . S
C576 C572 1.368 . S
C576 C575 1.523 . S
H577 C552 0.950 . S
H578 C554 0.950 . S
H579 C555 0.949 . S
H580 C557 0.950 . S
H581 C559 0.950 . S
C582 C583 1.349 . S
C582 C584 1.327 . S
C582 H607 0.950 . S
C583 C582 1.349 . S
C583 C599 1.349 . S
C584 C582 1.327 . S
C584 C603 1.429 . S
C584 H608 0.950 . S
C585 C602 1.574 1_655 S
C585 C604 1.368 . S
C585 H609 0.949 . S
H586 C590 0.949 . S
C587 C588 1.349 . S
C587 C589 1.327 . S
C587 H610 0.950 . S
C588 C587 1.349 . S
C588 C600 1.349 . S
C589 C587 1.327 . S
C589 C605 1.429 . S
C589 H611 0.950 . S
C590 H586 0.949 . S
C590 C598 1.574 1_455 S
C590 C606 1.368 . S
H591 C599 0.950 . S
H592 C597 0.950 . S
H593 C598 0.949 . S
H594 C600 0.950 . S
H595 C601 0.950 . S
H596 C602 0.949 . S
C597 H592 0.950 . S
C597 C599 1.327 . S
C597 C603 1.429 . S
C598 C590 1.574 1_655 S
C598 H593 0.949 . S
C598 C604 1.368 . S
C599 C583 1.349 . S
C599 H591 0.950 . S
C599 C597 1.327 . S
C600 C588 1.349 . S
C600 H594 0.950 . S
C600 C601 1.327 . S
C601 H595 0.950 . S
C601 C600 1.327 . S
C601 C605 1.429 . S
C602 C585 1.574 1_455 S
C602 H596 0.949 . S
C602 C606 1.368 . S
C603 C584 1.429 . S
C603 C597 1.429 . S
C603 C604 1.523 . S
C604 C585 1.368 . S
C604 C598 1.368 . S
C604 C603 1.523 . S
C605 C589 1.429 . S
C605 C601 1.429 . S
C605 C606 1.523 . S
C606 C590 1.368 . S
C606 C602 1.368 . S
C606 C605 1.523 . S
H607 C582 0.950 . S
H608 C584 0.950 . S
H609 C585 0.949 . S
H610 C587 0.950 . S
H611 C589 0.950 . S
C612 C613 1.349 . S
C612 C614 1.327 . S
C612 H637 0.950 . S
C613 C612 1.349 . S
C613 C629 1.349 . S
C614 C612 1.327 . S
C614 C633 1.429 . S
C614 H638 0.950 . S
C615 C632 1.574 . S
C615 C634 1.368 1_554 S
C615 H639 0.949 . S
H616 C620 0.949 . S
C617 C618 1.349 . S
C617 C619 1.327 . S
C617 H640 0.950 . S
C618 C617 1.349 . S
C618 C630 1.349 . S
C619 C617 1.327 . S
C619 C635 1.429 . S
C619 H641 0.950 . S
C620 H616 0.949 . S
C620 C628 1.574 . S
C620 C636 1.368 1_556 S
H621 C629 0.950 . S
H622 C627 0.950 . S
H623 C628 0.949 . S
H624 C630 0.950 . S
H625 C631 0.950 . S
H626 C632 0.949 . S
C627 H622 0.950 . S
C627 C629 1.327 . S
C627 C633 1.429 . S
C628 C620 1.574 . S
C628 H623 0.949 . S
C628 C634 1.368 . S
C629 C613 1.349 . S
C629 H621 0.950 . S
C629 C627 1.327 . S
C630 C618 1.349 . S
C630 H624 0.950 . S
C630 C631 1.327 . S
C631 H625 0.950 . S
C631 C630 1.327 . S
C631 C635 1.429 . S
C632 C615 1.574 . S
C632 H626 0.949 . S
C632 C636 1.368 . S
C633 C614 1.429 . S
C633 C627 1.429 . S
C633 C634 1.523 . S
C634 C615 1.368 1_556 S
C634 C628 1.368 . S
C634 C633 1.523 . S
C635 C619 1.429 . S
C635 C631 1.429 . S
C635 C636 1.523 . S
C636 C620 1.368 1_554 S
C636 C632 1.368 . S
C636 C635 1.523 . S
H637 C612 0.950 . S
H638 C614 0.950 . S
H639 C615 0.949 . S
H640 C617 0.950 . S
H641 C619 0.950 . S
C642 C643 1.349 . S
C642 C644 1.327 . S
C642 H667 0.950 . S
C643 C642 1.349 . S
C643 C659 1.349 . S
C644 C642 1.327 . S
C644 C663 1.429 . S
C644 H668 0.950 . S
C645 C662 1.574 . S
C645 C664 1.368 . S
C645 H669 0.949 . S
H646 C650 0.949 . S
C647 C648 1.349 . S
C647 C649 1.327 . S
C647 H670 0.950 . S
C648 C647 1.349 . S
C648 C660 1.349 . S
C649 C647 1.327 . S
C649 C665 1.429 . S
C649 H671 0.950 . S
C650 H646 0.949 . S
C650 C658 1.574 . S
C650 C666 1.368 . S
H651 C659 0.950 . S
H652 C657 0.950 . S
H653 C658 0.949 . S
H654 C660 0.950 . S
H655 C661 0.950 . S
H656 C662 0.949 . S
C657 H652 0.950 . S
C657 C659 1.327 . S
C657 C663 1.429 . S
C658 C650 1.574 . S
C658 H653 0.949 . S
C658 C664 1.368 . S
C659 C643 1.349 . S
C659 H651 0.950 . S
C659 C657 1.327 . S
C660 C648 1.349 . S
C660 H654 0.950 . S
C660 C661 1.327 . S
C661 H655 0.950 . S
C661 C660 1.327 . S
C661 C665 1.429 . S
C662 C645 1.574 . S
C662 H656 0.949 . S
C662 C666 1.368 . S
C663 C644 1.429 . S
C663 C657 1.429 . S
C663 C664 1.523 . S
C664 C645 1.368 . S
C664 C658 1.368 . S
C664 C663 1.523 . S
C665 C649 1.429 . S
C665 C661 1.429 . S
C665 C666 1.523 . S
C666 C650 1.368 . S
C666 C662 1.368 . S
C666 C665 1.523 . S
H667 C642 0.950 . S
H668 C644 0.950 . S
H669 C645 0.949 . S
H670 C647 0.950 . S
H671 C649 0.950 . S
C672 C673 1.349 . S
C672 C674 1.327 . S
C672 H697 0.950 . S
C673 C672 1.349 . S
C673 C689 1.349 . S
C674 C672 1.327 . S
C674 C693 1.429 . S
C674 H698 0.950 . S
C675 C692 1.574 . S
C675 C694 1.368 . S
C675 H699 0.949 . S
H676 C680 0.949 . S
C677 C678 1.349 . S
C677 C679 1.327 . S
C677 H700 0.950 . S
C678 C677 1.349 . S
C678 C690 1.349 . S
C679 C677 1.327 . S
C679 C695 1.429 . S
C679 H701 0.950 . S
C680 H676 0.949 . S
C680 C688 1.574 . S
C680 C696 1.368 . S
H681 C689 0.950 . S
H682 C687 0.950 . S
H683 C688 0.949 . S
H684 C690 0.950 . S
H685 C691 0.950 . S
H686 C692 0.949 . S
C687 H682 0.950 . S
C687 C689 1.327 . S
C687 C693 1.429 . S
C688 C680 1.574 . S
C688 H683 0.949 . S
C688 C694 1.368 . S
C689 C673 1.349 . S
C689 H681 0.950 . S
C689 C687 1.327 . S
C690 C678 1.349 . S
C690 H684 0.950 . S
C690 C691 1.327 . S
C691 H685 0.950 . S
C691 C690 1.327 . S
C691 C695 1.429 . S
C692 C675 1.574 . S
C692 H686 0.949 . S
C692 C696 1.368 . S
C693 C674 1.429 . S
C693 C687 1.429 . S
C693 C694 1.523 . S
C694 C675 1.368 . S
C694 C688 1.368 . S
C694 C693 1.523 . S
C695 C679 1.429 . S
C695 C691 1.429 . S
C695 C696 1.523 . S
C696 C680 1.368 . S
C696 C692 1.368 . S
C696 C695 1.523 . S
H697 C672 0.950 . S
H698 C674 0.950 . S
H699 C675 0.949 . S
H700 C677 0.950 . S
H701 C679 0.950 . S
C702 C703 1.349 . S
C702 C704 1.327 . S
C702 H727 0.950 . S
C703 C702 1.349 . S
C703 C719 1.349 . S
C704 C702 1.327 . S
C704 C723 1.429 . S
C704 H728 0.950 . S
C705 C722 1.574 . S
C705 C724 1.368 1_554 S
C705 H729 0.949 . S
H706 C710 0.949 . S
C707 C708 1.349 . S
C707 C709 1.327 . S
C707 H730 0.950 . S
C708 C707 1.349 . S
C708 C720 1.349 . S
C709 C707 1.327 . S
C709 C725 1.429 . S
C709 H731 0.950 . S
C710 H706 0.949 . S
C710 C718 1.574 . S
C710 C726 1.368 1_556 S
H711 C719 0.950 . S
H712 C717 0.950 . S
H713 C718 0.949 . S
H714 C720 0.950 . S
H715 C721 0.950 . S
H716 C722 0.949 . S
C717 H712 0.950 . S
C717 C719 1.327 . S
C717 C723 1.429 . S
C718 C710 1.574 . S
C718 H713 0.949 . S
C718 C724 1.368 . S
C719 C703 1.349 . S
C719 H711 0.950 . S
C719 C717 1.327 . S
C720 C708 1.349 . S
C720 H714 0.950 . S
C720 C721 1.327 . S
C721 H715 0.950 . S
C721 C720 1.327 . S
C721 C725 1.429 . S
C722 C705 1.574 . S
C722 H716 0.949 . S
C722 C726 1.368 . S
C723 C704 1.429 . S
C723 C717 1.429 . S
C723 C724 1.523 . S
C724 C705 1.368 1_556 S
C724 C718 1.368 . S
C724 C723 1.523 . S
C725 C709 1.429 . S
C725 C721 1.429 . S
C725 C726 1.523 . S
C726 C710 1.368 1_554 S
C726 C722 1.368 . S
C726 C725 1.523 . S
H727 C702 0.950 . S
H728 C704 0.950 . S
H729 C705 0.949 . S
H730 C707 0.950 . S
H731 C709 0.950 . S
C732 C733 1.349 . S
C732 C734 1.327 . S
C732 H757 0.950 . S
C733 C732 1.349 . S
C733 C749 1.349 . S
C734 C732 1.327 . S
C734 C753 1.429 . S
C734 H758 0.950 . S
C735 C752 1.574 . S
C735 C754 1.368 . S
C735 H759 0.949 . S
H736 C740 0.949 . S
C737 C738 1.349 . S
C737 C739 1.327 . S
C737 H760 0.950 . S
C738 C737 1.349 . S
C738 C750 1.349 . S
C739 C737 1.327 . S
C739 C755 1.429 . S
C739 H761 0.950 . S
C740 H736 0.949 . S
C740 C748 1.574 . S
C740 C756 1.368 . S
H741 C749 0.950 . S
H742 C747 0.950 . S
H743 C748 0.949 . S
H744 C750 0.950 . S
H745 C751 0.950 . S
H746 C752 0.949 . S
C747 H742 0.950 . S
C747 C749 1.327 . S
C747 C753 1.429 . S
C748 C740 1.574 . S
C748 H743 0.949 . S
C748 C754 1.368 . S
C749 C733 1.349 . S
C749 H741 0.950 . S
C749 C747 1.327 . S
C750 C738 1.349 . S
C750 H744 0.950 . S
C750 C751 1.327 . S
C751 H745 0.950 . S
C751 C750 1.327 . S
C751 C755 1.429 . S
C752 C735 1.574 . S
C752 H746 0.949 . S
C752 C756 1.368 . S
C753 C734 1.429 . S
C753 C747 1.429 . S
C753 C754 1.523 . S
C754 C735 1.368 . S
C754 C748 1.368 . S
C754 C753 1.523 . S
C755 C739 1.429 . S
C755 C751 1.429 . S
C755 C756 1.523 . S
C756 C740 1.368 . S
C756 C752 1.368 . S
C756 C755 1.523 . S
H757 C732 0.950 . S
H758 C734 0.950 . S
H759 C735 0.949 . S
H760 C737 0.950 . S
H761 C739 0.950 . S
C762 C763 1.349 . S
C762 C764 1.327 . S
C762 H787 0.950 . S
C763 C762 1.349 . S
C763 C779 1.349 . S
C764 C762 1.327 . S
C764 C783 1.429 . S
C764 H788 0.950 . S
C765 C782 1.574 . S
C765 C784 1.368 . S
C765 H789 0.949 . S
H766 C770 0.949 . S
C767 C768 1.349 . S
C767 C769 1.327 . S
C767 H790 0.950 . S
C768 C767 1.349 . S
C768 C780 1.349 . S
C769 C767 1.327 . S
C769 C785 1.429 . S
C769 H791 0.950 . S
C770 H766 0.949 . S
C770 C778 1.574 . S
C770 C786 1.368 . S
H771 C779 0.950 . S
H772 C777 0.950 . S
H773 C778 0.949 . S
H774 C780 0.950 . S
H775 C781 0.950 . S
H776 C782 0.949 . S
C777 H772 0.950 . S
C777 C779 1.327 . S
C777 C783 1.429 . S
C778 C770 1.574 . S
C778 H773 0.949 . S
C778 C784 1.368 . S
C779 C763 1.349 . S
C779 H771 0.950 . S
C779 C777 1.327 . S
C780 C768 1.349 . S
C780 H774 0.950 . S
C780 C781 1.327 . S
C781 H775 0.950 . S
C781 C780 1.327 . S
C781 C785 1.429 . S
C782 C765 1.574 . S
C782 H776 0.949 . S
C782 C786 1.368 . S
C783 C764 1.429 . S
C783 C777 1.429 . S
C783 C784 1.523 . S
C784 C765 1.368 . S
C784 C778 1.368 . S
C784 C783 1.523 . S
C785 C769 1.429 . S
C785 C781 1.429 . S
C785 C786 1.523 . S
C786 C770 1.368 . S
C786 C782 1.368 . S
C786 C785 1.523 . S
H787 C762 0.950 . S
H788 C764 0.950 . S
H789 C765 0.949 . S
H790 C767 0.950 . S
H791 C769 0.950 . S
C792 C793 1.349 . S
C792 C794 1.327 . S
C792 H817 0.950 . S
C793 C792 1.349 . S
C793 C809 1.349 . S
C794 C792 1.327 . S
C794 C813 1.429 . S
C794 H818 0.950 . S
C795 C812 1.574 . S
C795 C814 1.368 . S
C795 H819 0.949 . S
H796 C800 0.949 . S
C797 C798 1.349 . S
C797 C799 1.327 . S
C797 H820 0.950 . S
C798 C797 1.349 . S
C798 C810 1.349 . S
C799 C797 1.327 . S
C799 C815 1.429 . S
C799 H821 0.950 . S
C800 H796 0.949 . S
C800 C808 1.574 . S
C800 C816 1.368 . S
H801 C809 0.950 . S
H802 C807 0.950 . S
H803 C808 0.949 . S
H804 C810 0.950 . S
H805 C811 0.950 . S
H806 C812 0.949 . S
C807 H802 0.950 . S
C807 C809 1.327 . S
C807 C813 1.429 . S
C808 C800 1.574 . S
C808 H803 0.949 . S
C808 C814 1.368 . S
C809 C793 1.349 . S
C809 H801 0.950 . S
C809 C807 1.327 . S
C810 C798 1.349 . S
C810 H804 0.950 . S
C810 C811 1.327 . S
C811 H805 0.950 . S
C811 C810 1.327 . S
C811 C815 1.429 . S
C812 C795 1.574 . S
C812 H806 0.949 . S
C812 C816 1.368 . S
C813 C794 1.429 . S
C813 C807 1.429 . S
C813 C814 1.523 . S
C814 C795 1.368 . S
C814 C808 1.368 . S
C814 C813 1.523 . S
C815 C799 1.429 . S
C815 C811 1.429 . S
C815 C816 1.523 . S
C816 C800 1.368 . S
C816 C812 1.368 . S
C816 C815 1.523 . S
H817 C792 0.950 . S
H818 C794 0.950 . S
H819 C795 0.949 . S
H820 C797 0.950 . S
H821 C799 0.950 . S
C822 C823 1.349 . S
C822 C824 1.327 . S
C822 H847 0.950 . S
C823 C822 1.349 . S
C823 C839 1.349 . S
C824 C822 1.327 . S
C824 C843 1.429 . S
C824 H848 0.950 . S
C825 C842 1.574 . S
C825 C844 1.368 . S
C825 H849 0.949 . S
H826 C830 0.949 . S
C827 C828 1.349 . S
C827 C829 1.327 . S
C827 H850 0.950 . S
C828 C827 1.349 . S
C828 C840 1.349 . S
C829 C827 1.327 . S
C829 C845 1.429 . S
C829 H851 0.950 . S
C830 H826 0.949 . S
C830 C838 1.574 . S
C830 C846 1.368 . S
H831 C839 0.950 . S
H832 C837 0.950 . S
H833 C838 0.949 . S
H834 C840 0.950 . S
H835 C841 0.950 . S
H836 C842 0.949 . S
C837 H832 0.950 . S
C837 C839 1.327 . S
C837 C843 1.429 . S
C838 C830 1.574 . S
C838 H833 0.949 . S
C838 C844 1.368 . S
C839 C823 1.349 . S
C839 H831 0.950 . S
C839 C837 1.327 . S
C840 C828 1.349 . S
C840 H834 0.950 . S
C840 C841 1.327 . S
C841 H835 0.950 . S
C841 C840 1.327 . S
C841 C845 1.429 . S
C842 C825 1.574 . S
C842 H836 0.949 . S
C842 C846 1.368 . S
C843 C824 1.429 . S
C843 C837 1.429 . S
C843 C844 1.523 . S
C844 C825 1.368 . S
C844 C838 1.368 . S
C844 C843 1.523 . S
C845 C829 1.429 . S
C845 C841 1.429 . S
C845 C846 1.523 . S
C846 C830 1.368 . S
C846 C842 1.368 . S
C846 C845 1.523 . S
H847 C822 0.950 . S
H848 C824 0.950 . S
H849 C825 0.949 . S
H850 C827 0.950 . S
H851 C829 0.950 . S
C852 C853 1.349 . S
C852 C854 1.327 . S
C852 H877 0.950 . S
C853 C852 1.349 . S
C853 C869 1.349 . S
C854 C852 1.327 . S
C854 C873 1.429 . S
C854 H878 0.950 . S
C855 C872 1.574 . S
C855 C874 1.368 . S
C855 H879 0.949 . S
H856 C860 0.949 . S
C857 C858 1.349 . S
C857 C859 1.327 . S
C857 H880 0.950 . S
C858 C857 1.349 . S
C858 C870 1.349 . S
C859 C857 1.327 . S
C859 C875 1.429 . S
C859 H881 0.950 . S
C860 H856 0.949 . S
C860 C868 1.574 . S
C860 C876 1.368 . S
H861 C869 0.950 . S
H862 C867 0.950 . S
H863 C868 0.949 . S
H864 C870 0.950 . S
H865 C871 0.950 . S
H866 C872 0.949 . S
C867 H862 0.950 . S
C867 C869 1.327 . S
C867 C873 1.429 . S
C868 C860 1.574 . S
C868 H863 0.949 . S
C868 C874 1.368 . S
C869 C853 1.349 . S
C869 H861 0.950 . S
C869 C867 1.327 . S
C870 C858 1.349 . S
C870 H864 0.950 . S
C870 C871 1.327 . S
C871 H865 0.950 . S
C871 C870 1.327 . S
C871 C875 1.429 . S
C872 C855 1.574 . S
C872 H866 0.949 . S
C872 C876 1.368 . S
C873 C854 1.429 . S
C873 C867 1.429 . S
C873 C874 1.523 . S
C874 C855 1.368 . S
C874 C868 1.368 . S
C874 C873 1.523 . S
C875 C859 1.429 . S
C875 C871 1.429 . S
C875 C876 1.523 . S
C876 C860 1.368 . S
C876 C872 1.368 . S
C876 C875 1.523 . S
H877 C852 0.950 . S
H878 C854 0.950 . S
H879 C855 0.949 . S
H880 C857 0.950 . S
H881 C859 0.950 . S
C882 C883 1.349 . S
C882 C884 1.327 . S
C882 H907 0.950 . S
C883 C882 1.349 . S
C883 C899 1.349 . S
C884 C882 1.327 . S
C884 C903 1.429 . S
C884 H908 0.950 . S
C885 C902 1.574 . S
C885 C904 1.368 . S
C885 H909 0.949 . S
H886 C890 0.949 . S
C887 C888 1.349 . S
C887 C889 1.327 . S
C887 H910 0.950 . S
C888 C887 1.349 . S
C888 C900 1.349 . S
C889 C887 1.327 . S
C889 C905 1.429 . S
C889 H911 0.950 . S
C890 H886 0.949 . S
C890 C898 1.574 . S
C890 C906 1.368 . S
H891 C899 0.950 . S
H892 C897 0.950 . S
H893 C898 0.949 . S
H894 C900 0.950 . S
H895 C901 0.950 . S
H896 C902 0.949 . S
C897 H892 0.950 . S
C897 C899 1.327 . S
C897 C903 1.429 . S
C898 C890 1.574 . S
C898 H893 0.949 . S
C898 C904 1.368 . S
C899 C883 1.349 . S
C899 H891 0.950 . S
C899 C897 1.327 . S
C900 C888 1.349 . S
C900 H894 0.950 . S
C900 C901 1.327 . S
C901 H895 0.950 . S
C901 C900 1.327 . S
C901 C905 1.429 . S
C902 C885 1.574 . S
C902 H896 0.949 . S
C902 C906 1.368 . S
C903 C884 1.429 . S
C903 C897 1.429 . S
C903 C904 1.523 . S
C904 C885 1.368 . S
C904 C898 1.368 . S
C904 C903 1.523 . S
C905 C889 1.429 . S
C905 C901 1.429 . S
C905 C906 1.523 . S
C906 C890 1.368 . S
C906 C902 1.368 . S
C906 C905 1.523 . S
H907 C882 0.950 . S
H908 C884 0.950 . S
H909 C885 0.949 . S
H910 C887 0.950 . S
H911 C889 0.950 . S
C912 C913 1.349 . S
C912 C914 1.327 . S
C912 H937 0.950 . S
C913 C912 1.349 . S
C913 C929 1.349 . S
C914 C912 1.327 . S
C914 C933 1.429 . S
C914 H938 0.950 . S
C915 C932 1.574 . S
C915 C934 1.368 . S
C915 H939 0.949 . S
H916 C920 0.949 . S
C917 C918 1.349 . S
C917 C919 1.327 . S
C917 H940 0.950 . S
C918 C917 1.349 . S
C918 C930 1.349 . S
C919 C917 1.327 . S
C919 C935 1.429 . S
C919 H941 0.950 . S
C920 H916 0.949 . S
C920 C928 1.574 . S
C920 C936 1.368 . S
H921 C929 0.950 . S
H922 C927 0.950 . S
H923 C928 0.949 . S
H924 C930 0.950 . S
H925 C931 0.950 . S
H926 C932 0.949 . S
C927 H922 0.950 . S
C927 C929 1.327 . S
C927 C933 1.429 . S
C928 C920 1.574 . S
C928 H923 0.949 . S
C928 C934 1.368 . S
C929 C913 1.349 . S
C929 H921 0.950 . S
C929 C927 1.327 . S
C930 C918 1.349 . S
C930 H924 0.950 . S
C930 C931 1.327 . S
C931 H925 0.950 . S
C931 C930 1.327 . S
C931 C935 1.429 . S
C932 C915 1.574 . S
C932 H926 0.949 . S
C932 C936 1.368 . S
C933 C914 1.429 . S
C933 C927 1.429 . S
C933 C934 1.523 . S
C934 C915 1.368 . S
C934 C928 1.368 . S
C934 C933 1.523 . S
C935 C919 1.429 . S
C935 C931 1.429 . S
C935 C936 1.523 . S
C936 C920 1.368 . S
C936 C932 1.368 . S
C936 C935 1.523 . S
H937 C912 0.950 . S
H938 C914 0.950 . S
H939 C915 0.949 . S
H940 C917 0.950 . S
H941 C919 0.950 . S
C942 C943 1.349 . S
C942 C944 1.327 . S
C942 H967 0.950 . S
C943 C942 1.349 . S
C943 C959 1.349 . S
C944 C942 1.327 . S
C944 C963 1.429 . S
C944 H968 0.950 . S
C945 C962 1.574 . S
C945 C964 1.368 . S
C945 H969 0.949 . S
H946 C950 0.949 . S
C947 C948 1.349 . S
C947 C949 1.327 . S
C947 H970 0.950 . S
C948 C947 1.349 . S
C948 C960 1.349 . S
C949 C947 1.327 . S
C949 C965 1.429 . S
C949 H971 0.950 . S
C950 H946 0.949 . S
C950 C958 1.574 . S
C950 C966 1.368 . S
H951 C959 0.950 . S
H952 C957 0.950 . S
H953 C958 0.949 . S
H954 C960 0.950 . S
H955 C961 0.950 . S
H956 C962 0.949 . S
C957 H952 0.950 . S
C957 C959 1.327 . S
C957 C963 1.429 . S
C958 C950 1.574 . S
C958 H953 0.949 . S
C958 C964 1.368 . S
C959 C943 1.349 . S
C959 H951 0.950 . S
C959 C957 1.327 . S
C960 C948 1.349 . S
C960 H954 0.950 . S
C960 C961 1.327 . S
C961 H955 0.950 . S
C961 C960 1.327 . S
C961 C965 1.429 . S
C962 C945 1.574 . S
C962 H956 0.949 . S
C962 C966 1.368 . S
C963 C944 1.429 . S
C963 C957 1.429 . S
C963 C964 1.523 . S
C964 C945 1.368 . S
C964 C958 1.368 . S
C964 C963 1.523 . S
C965 C949 1.429 . S
C965 C961 1.429 . S
C965 C966 1.523 . S
C966 C950 1.368 . S
C966 C962 1.368 . S
C966 C965 1.523 . S
H967 C942 0.950 . S
H968 C944 0.950 . S
H969 C945 0.949 . S
H970 C947 0.950 . S
H971 C949 0.950 . S
C972 C973 1.349 . S
C972 C974 1.327 . S
C972 H997 0.950 . S
C973 C972 1.349 . S
C973 C989 1.349 . S
C974 C972 1.327 . S
C974 C993 1.429 . S
C974 H998 0.950 . S
C975 C992 1.574 . S
C975 C994 1.368 . S
C975 H999 0.949 . S
H976 C980 0.949 . S
C977 C978 1.349 . S
C977 C979 1.327 . S
C977 H1000 0.950 . S
C978 C977 1.349 . S
C978 C990 1.349 . S
C979 C977 1.327 . S
C979 C995 1.429 . S
C979 H1001 0.950 . S
C980 H976 0.949 . S
C980 C988 1.574 . S
C980 C996 1.368 . S
H981 C989 0.950 . S
H982 C987 0.950 . S
H983 C988 0.949 . S
H984 C990 0.950 . S
H985 C991 0.950 . S
H986 C992 0.949 . S
C987 H982 0.950 . S
C987 C989 1.327 . S
C987 C993 1.429 . S
C988 C980 1.574 . S
C988 H983 0.949 . S
C988 C994 1.368 . S
C989 C973 1.349 . S
C989 H981 0.950 . S
C989 C987 1.327 . S
C990 C978 1.349 . S
C990 H984 0.950 . S
C990 C991 1.327 . S
C991 H985 0.950 . S
C991 C990 1.327 . S
C991 C995 1.429 . S
C992 C975 1.574 . S
C992 H986 0.949 . S
C992 C996 1.368 . S
C993 C974 1.429 . S
C993 C987 1.429 . S
C993 C994 1.523 . S
C994 C975 1.368 . S
C994 C988 1.368 . S
C994 C993 1.523 . S
C995 C979 1.429 . S
C995 C991 1.429 . S
C995 C996 1.523 . S
C996 C980 1.368 . S
C996 C992 1.368 . S
C996 C995 1.523 . S
H997 C972 0.950 . S
H998 C974 0.950 . S
H999 C975 0.949 . S
H1000 C977 0.950 . S
H1001 C979 0.950 . S
C1002 C1003 1.349 . S
C1002 C1004 1.327 . S
C1002 H1027 0.950 . S
C1003 C1002 1.349 . S
C1003 C1019 1.349 . S
C1004 C1002 1.327 . S
C1004 C1023 1.429 . S
C1004 H1028 0.950 . S
C1005 C1022 1.574 . S
C1005 C1024 1.368 1_455 S
C1005 H1029 0.949 . S
H1006 C1010 0.949 . S
C1007 C1008 1.349 . S
C1007 C1009 1.327 . S
C1007 H1030 0.950 . S
C1008 C1007 1.349 . S
C1008 C1020 1.349 . S
C1009 C1007 1.327 . S
C1009 C1025 1.429 . S
C1009 H1031 0.950 . S
C1010 H1006 0.949 . S
C1010 C1018 1.574 . S
C1010 C1026 1.368 1_655 S
H1011 C1019 0.950 . S
H1012 C1017 0.950 . S
H1013 C1018 0.949 . S
H1014 C1020 0.950 . S
H1015 C1021 0.950 . S
H1016 C1022 0.949 . S
C1017 H1012 0.950 . S
C1017 C1019 1.327 . S
C1017 C1023 1.429 . S
C1018 C1010 1.574 . S
C1018 H1013 0.949 . S
C1018 C1024 1.368 . S
C1019 C1003 1.349 . S
C1019 H1011 0.950 . S
C1019 C1017 1.327 . S
C1020 C1008 1.349 . S
C1020 H1014 0.950 . S
C1020 C1021 1.327 . S
C1021 H1015 0.950 . S
C1021 C1020 1.327 . S
C1021 C1025 1.429 . S
C1022 C1005 1.574 . S
C1022 H1016 0.949 . S
C1022 C1026 1.368 . S
C1023 C1004 1.429 . S
C1023 C1017 1.429 . S
C1023 C1024 1.523 . S
C1024 C1005 1.368 1_655 S
C1024 C1018 1.368 . S
C1024 C1023 1.523 . S
C1025 C1009 1.429 . S
C1025 C1021 1.429 . S
C1025 C1026 1.523 . S
C1026 C1010 1.368 1_455 S
C1026 C1022 1.368 . S
C1026 C1025 1.523 . S
H1027 C1002 0.950 . S
H1028 C1004 0.950 . S
H1029 C1005 0.949 . S
H1030 C1007 0.950 . S
H1031 C1009 0.950 . S
C1032 C1033 1.349 . S
C1032 C1034 1.327 . S
C1032 H1057 0.950 . S
C1033 C1032 1.349 . S
C1033 C1049 1.349 . S
C1034 C1032 1.327 . S
C1034 C1053 1.429 . S
C1034 H1058 0.950 . S
C1035 C1052 1.574 . S
C1035 C1054 1.368 . S
C1035 H1059 0.949 . S
H1036 C1040 0.949 . S
C1037 C1038 1.349 . S
C1037 C1039 1.327 . S
C1037 H1060 0.950 . S
C1038 C1037 1.349 . S
C1038 C1050 1.349 . S
C1039 C1037 1.327 . S
C1039 C1055 1.429 . S
C1039 H1061 0.950 . S
C1040 H1036 0.949 . S
C1040 C1048 1.574 . S
C1040 C1056 1.368 . S
H1041 C1049 0.950 . S
H1042 C1047 0.950 . S
H1043 C1048 0.949 . S
H1044 C1050 0.950 . S
H1045 C1051 0.950 . S
H1046 C1052 0.949 . S
C1047 H1042 0.950 . S
C1047 C1049 1.327 . S
C1047 C1053 1.429 . S
C1048 C1040 1.574 . S
C1048 H1043 0.949 . S
C1048 C1054 1.368 1_565 S
C1049 C1033 1.349 . S
C1049 H1041 0.950 . S
C1049 C1047 1.327 . S
C1050 C1038 1.349 . S
C1050 H1044 0.950 . S
C1050 C1051 1.327 . S
C1051 H1045 0.950 . S
C1051 C1050 1.327 . S
C1051 C1055 1.429 . S
C1052 C1035 1.574 . S
C1052 H1046 0.949 . S
C1052 C1056 1.368 1_545 S
C1053 C1034 1.429 . S
C1053 C1047 1.429 . S
C1053 C1054 1.523 . S
C1054 C1035 1.368 . S
C1054 C1048 1.368 1_545 S
C1054 C1053 1.523 . S
C1055 C1039 1.429 . S
C1055 C1051 1.429 . S
C1055 C1056 1.523 . S
C1056 C1040 1.368 . S
C1056 C1052 1.368 1_565 S
C1056 C1055 1.523 . S
H1057 C1032 0.950 . S
H1058 C1034 0.950 . S
H1059 C1035 0.949 . S
H1060 C1037 0.950 . S
H1061 C1039 0.950 . S
C1062 C1063 1.349 . S
C1062 C1064 1.327 . S
C1062 H1087 0.950 . S
C1063 C1062 1.349 . S
C1063 C1079 1.349 . S
C1064 C1062 1.327 . S
C1064 C1083 1.429 . S
C1064 H1088 0.950 . S
C1065 C1082 1.574 . S
C1065 C1084 1.368 . S
C1065 H1089 0.949 . S
H1066 C1070 0.949 . S
C1067 C1068 1.349 . S
C1067 C1069 1.327 . S
C1067 H1090 0.950 . S
C1068 C1067 1.349 . S
C1068 C1080 1.349 . S
C1069 C1067 1.327 . S
C1069 C1085 1.429 . S
C1069 H1091 0.950 . S
C1070 H1066 0.949 . S
C1070 C1078 1.574 . S
C1070 C1086 1.368 . S
H1071 C1079 0.950 . S
H1072 C1077 0.950 . S
H1073 C1078 0.949 . S
H1074 C1080 0.950 . S
H1075 C1081 0.950 . S
H1076 C1082 0.949 . S
C1077 H1072 0.950 . S
C1077 C1079 1.327 . S
C1077 C1083 1.429 . S
C1078 C1070 1.574 . S
C1078 H1073 0.949 . S
C1078 C1084 1.368 . S
C1079 C1063 1.349 . S
C1079 H1071 0.950 . S
C1079 C1077 1.327 . S
C1080 C1068 1.349 . S
C1080 H1074 0.950 . S
C1080 C1081 1.327 . S
C1081 H1075 0.950 . S
C1081 C1080 1.327 . S
C1081 C1085 1.429 . S
C1082 C1065 1.574 . S
C1082 H1076 0.949 . S
C1082 C1086 1.368 . S
C1083 C1064 1.429 . S
C1083 C1077 1.429 . S
C1083 C1084 1.523 . S
C1084 C1065 1.368 . S
C1084 C1078 1.368 . S
C1084 C1083 1.523 . S
C1085 C1069 1.429 . S
C1085 C1081 1.429 . S
C1085 C1086 1.523 . S
C1086 C1070 1.368 . S
C1086 C1082 1.368 . S
C1086 C1085 1.523 . S
H1087 C1062 0.950 . S
H1088 C1064 0.950 . S
H1089 C1065 0.949 . S
H1090 C1067 0.950 . S
H1091 C1069 0.950 . S
C1092 C1093 1.349 . S
C1092 C1094 1.327 . S
C1092 H1117 0.950 . S
C1093 C1092 1.349 . S
C1093 C1109 1.349 . S
C1094 C1092 1.327 . S
C1094 C1113 1.429 . S
C1094 H1118 0.950 . S
C1095 C1112 1.574 . S
C1095 C1114 1.368 . S
C1095 H1119 0.949 . S
H1096 C1100 0.949 . S
C1097 C1098 1.349 . S
C1097 C1099 1.327 . S
C1097 H1120 0.950 . S
C1098 C1097 1.349 . S
C1098 C1110 1.349 . S
C1099 C1097 1.327 . S
C1099 C1115 1.429 . S
C1099 H1121 0.950 . S
C1100 H1096 0.949 . S
C1100 C1108 1.574 . S
C1100 C1116 1.368 . S
H1101 C1109 0.950 . S
H1102 C1107 0.950 . S
H1103 C1108 0.949 . S
H1104 C1110 0.950 . S
H1105 C1111 0.950 . S
H1106 C1112 0.949 . S
C1107 H1102 0.950 . S
C1107 C1109 1.327 . S
C1107 C1113 1.429 . S
C1108 C1100 1.574 . S
C1108 H1103 0.949 . S
C1108 C1114 1.368 1_655 S
C1109 C1093 1.349 . S
C1109 H1101 0.950 . S
C1109 C1107 1.327 . S
C1110 C1098 1.349 . S
C1110 H1104 0.950 . S
C1110 C1111 1.327 . S
C1111 H1105 0.950 . S
C1111 C1110 1.327 . S
C1111 C1115 1.429 . S
C1112 C1095 1.574 . S
C1112 H1106 0.949 . S
C1112 C1116 1.368 1_455 S
C1113 C1094 1.429 . S
C1113 C1107 1.429 . S
C1113 C1114 1.523 . S
C1114 C1095 1.368 . S
C1114 C1108 1.368 1_455 S
C1114 C1113 1.523 . S
C1115 C1099 1.429 . S
C1115 C1111 1.429 . S
C1115 C1116 1.523 . S
C1116 C1100 1.368 . S
C1116 C1112 1.368 1_655 S
C1116 C1115 1.523 . S
H1117 C1092 0.950 . S
H1118 C1094 0.950 . S
H1119 C1095 0.949 . S
H1120 C1097 0.950 . S
H1121 C1099 0.950 . S
C1122 C1123 1.349 . S
C1122 C1124 1.327 . S
C1122 H1147 0.950 . S
C1123 C1122 1.349 . S
C1123 C1139 1.349 . S
C1124 C1122 1.327 . S
C1124 C1143 1.429 . S
C1124 H1148 0.950 . S
C1125 C1142 1.574 . S
C1125 C1144 1.368 . S
C1125 H1149 0.949 . S
H1126 C1130 0.949 . S
C1127 C1128 1.349 . S
C1127 C1129 1.327 . S
C1127 H1150 0.950 . S
C1128 C1127 1.349 . S
C1128 C1140 1.349 . S
C1129 C1127 1.327 . S
C1129 C1145 1.429 . S
C1129 H1151 0.950 . S
C1130 H1126 0.949 . S
C1130 C1138 1.574 . S
C1130 C1146 1.368 . S
H1131 C1139 0.950 . S
H1132 C1137 0.950 . S
H1133 C1138 0.949 . S
H1134 C1140 0.950 . S
H1135 C1141 0.950 . S
H1136 C1142 0.949 . S
C1137 H1132 0.950 . S
C1137 C1139 1.327 . S
C1137 C1143 1.429 . S
C1138 C1130 1.574 . S
C1138 H1133 0.949 . S
C1138 C1144 1.368 1_545 S
C1139 C1123 1.349 . S
C1139 H1131 0.950 . S
C1139 C1137 1.327 . S
C1140 C1128 1.349 . S
C1140 H1134 0.950 . S
C1140 C1141 1.327 . S
C1141 H1135 0.950 . S
C1141 C1140 1.327 . S
C1141 C1145 1.429 . S
C1142 C1125 1.574 . S
C1142 H1136 0.949 . S
C1142 C1146 1.368 1_565 S
C1143 C1124 1.429 . S
C1143 C1137 1.429 . S
C1143 C1144 1.523 . S
C1144 C1125 1.368 . S
C1144 C1138 1.368 1_565 S
C1144 C1143 1.523 . S
C1145 C1129 1.429 . S
C1145 C1141 1.429 . S
C1145 C1146 1.523 . S
C1146 C1130 1.368 . S
C1146 C1142 1.368 1_545 S
C1146 C1145 1.523 . S
H1147 C1122 0.950 . S
H1148 C1124 0.950 . S
H1149 C1125 0.949 . S
H1150 C1127 0.950 . S
H1151 C1129 0.950 . S
C433 C255 1.248 . S
C438 C3 1.248 . S
C463 C39 1.248 . S
C468 C291 1.248 . S
C493 C75 1.248 . S
C498 C327 1.248 . S
C523 C111 1.248 . S
C528 C363 1.248 . S
C553 C399 1.248 . S
C558 C147 1.248 . S
C583 C219 1.248 . S
C588 C183 1.248 . S
C613 C362 1.335 . S
C618 C2 1.335 . S
C643 C38 1.334 . S
C648 C398 1.334 . S
C673 C74 1.335 . S
C678 C218 1.335 . S
C703 C254 1.335 . S
C708 C110 1.335 . S
C733 C290 1.334 . S
C738 C146 1.334 . S
C763 C326 1.335 . S
C768 C182 1.335 . S
C793 C14 1.616 . S
C798 C302 1.616 . S
C823 C50 1.616 . S
C828 C338 1.616 . S
C853 C374 1.616 . S
C858 C86 1.616 . S
C883 C122 1.616 . S
C888 C410 1.616 . S
C913 C230 1.616 . S
C918 C158 1.616 . S
C943 C266 1.616 . S
C948 C194 1.616 . S
C973 C112 1.237 . S
C978 C4 1.237 . S
C1003 C148 1.237 . S
C1008 C40 1.237 . S
C1033 C76 1.237 . S
C1038 C184 1.237 . S
C1063 C220 1.237 . S
C1068 C328 1.237 . S
C1093 C256 1.237 . S
C1098 C364 1.237 . S
C1123 C400 1.237 . S
C1128 C292 1.237 . S
