# Generated by pormake.
# Topology uki, (4)-cn, num edge types: 1
# Building blocks:
#     Node 0, Type 0, BuildingBlock: NAWXER_clean_sbu_0, # of connection points: 4
#     Node 1, Type 0, BuildingBlock: NAWXER_clean_sbu_0, # of connection points: 4
#     Node 2, Type 0, BuildingBlock: NAWXER_clean_sbu_0, # of connection points: 4
#     Node 3, Type 0, BuildingBlock: NAWXER_clean_sbu_0, # of connection points: 4
#     Node 4, Type 0, BuildingBlock: NAWXER_clean_sbu_0, # of connection points: 4
#     Node 5, Type 0, BuildingBlock: NAWXER_clean_sbu_0, # of connection points: 4
#     Node 6, Type 0, BuildingBlock: NAWXER_clean_sbu_0, # of connection points: 4
#     Node 7, Type 0, BuildingBlock: NAWXER_clean_sbu_0, # of connection points: 4
#     Node 8, Type 0, BuildingBlock: NAWXER_clean_sbu_0, # of connection points: 4
#     Node 9, Type 0, BuildingBlock: NAWXER_clean_sbu_0, # of connection points: 4
#     Node 10, Type 0, BuildingBlock: NAWXER_clean_sbu_0, # of connection points: 4
#     Node 11, Type 0, BuildingBlock: NAWXER_clean_sbu_0, # of connection points: 4
#     Node 12, Type 0, BuildingBlock: NAWXER_clean_sbu_0, # of connection points: 4
#     Node 13, Type 0, BuildingBlock: NAWXER_clean_sbu_0, # of connection points: 4
#     Node 14, Type 0, BuildingBlock: NAWXER_clean_sbu_0, # of connection points: 4
#     Node 15, Type 0, BuildingBlock: NAWXER_clean_sbu_0, # of connection points: 4
#     Edge 16, Type (0, 0), BuildingBlock: UVAHIK_clean_linker_0, # of connection points: 2
#     Edge 17, Type (0, 0), BuildingBlock: UVAHIK_clean_linker_0, # of connection points: 2
#     Edge 18, Type (0, 0), BuildingBlock: UVAHIK_clean_linker_0, # of connection points: 2
#     Edge 19, Type (0, 0), BuildingBlock: UVAHIK_clean_linker_0, # of connection points: 2
#     Edge 20, Type (0, 0), BuildingBlock: UVAHIK_clean_linker_0, # of connection points: 2
#     Edge 21, Type (0, 0), BuildingBlock: UVAHIK_clean_linker_0, # of connection points: 2
#     Edge 22, Type (0, 0), BuildingBlock: UVAHIK_clean_linker_0, # of connection points: 2
#     Edge 23, Type (0, 0), BuildingBlock: UVAHIK_clean_linker_0, # of connection points: 2
#     Edge 24, Type (0, 0), BuildingBlock: UVAHIK_clean_linker_0, # of connection points: 2
#     Edge 25, Type (0, 0), BuildingBlock: UVAHIK_clean_linker_0, # of connection points: 2
#     Edge 26, Type (0, 0), BuildingBlock: UVAHIK_clean_linker_0, # of connection points: 2
#     Edge 27, Type (0, 0), BuildingBlock: UVAHIK_clean_linker_0, # of connection points: 2
#     Edge 28, Type (0, 0), BuildingBlock: UVAHIK_clean_linker_0, # of connection points: 2
#     Edge 29, Type (0, 0), BuildingBlock: UVAHIK_clean_linker_0, # of connection points: 2
#     Edge 30, Type (0, 0), BuildingBlock: UVAHIK_clean_linker_0, # of connection points: 2
#     Edge 31, Type (0, 0), BuildingBlock: UVAHIK_clean_linker_0, # of connection points: 2
#     Edge 32, Type (0, 0), BuildingBlock: UVAHIK_clean_linker_0, # of connection points: 2
#     Edge 33, Type (0, 0), BuildingBlock: UVAHIK_clean_linker_0, # of connection points: 2
#     Edge 34, Type (0, 0), BuildingBlock: UVAHIK_clean_linker_0, # of connection points: 2
#     Edge 35, Type (0, 0), BuildingBlock: UVAHIK_clean_linker_0, # of connection points: 2
#     Edge 36, Type (0, 0), BuildingBlock: UVAHIK_clean_linker_0, # of connection points: 2
#     Edge 37, Type (0, 0), BuildingBlock: UVAHIK_clean_linker_0, # of connection points: 2
#     Edge 38, Type (0, 0), BuildingBlock: UVAHIK_clean_linker_0, # of connection points: 2
#     Edge 39, Type (0, 0), BuildingBlock: UVAHIK_clean_linker_0, # of connection points: 2
#     Edge 40, Type (0, 0), BuildingBlock: UVAHIK_clean_linker_0, # of connection points: 2
#     Edge 41, Type (0, 0), BuildingBlock: UVAHIK_clean_linker_0, # of connection points: 2
#     Edge 42, Type (0, 0), BuildingBlock: UVAHIK_clean_linker_0, # of connection points: 2
#     Edge 43, Type (0, 0), BuildingBlock: UVAHIK_clean_linker_0, # of connection points: 2
#     Edge 44, Type (0, 0), BuildingBlock: UVAHIK_clean_linker_0, # of connection points: 2
#     Edge 45, Type (0, 0), BuildingBlock: UVAHIK_clean_linker_0, # of connection points: 2
#     Edge 46, Type (0, 0), BuildingBlock: UVAHIK_clean_linker_0, # of connection points: 2
#     Edge 47, Type (0, 0), BuildingBlock: UVAHIK_clean_linker_0, # of connection points: 2
# Relax obj value: 0.074
# Max RMSD: 0.234
# Mean RMSD: 0.234
data_MOF--net-uki--node1-NAWXER_clean_sbu_0--edge1-UVAHIK_clean_linker_0
_symmetry_space_group_name_H-M    P1
_symmetry_Int_Tables_number       1
_symmetry_cell_setting            triclinic
loop_
_symmetry_equiv_pos_as_xyz
'x, y, z'
_cell_length_a     40.658755
_cell_length_b     40.591975
_cell_length_c     94.248698
_cell_angle_alpha  90.086118
_cell_angle_beta   89.979618
_cell_angle_gamma 90.067428
loop_
_atom_site_label
_atom_site_type_symbol
_atom_site_fract_x
_atom_site_fract_y
_atom_site_fract_z
_atom_type_partial_charge
C0 C 0.12848 0.23684 0.34095 0.0
C1 C 0.04377 0.26182 0.30619 0.0
O2 O 0.10224 0.25338 0.34233 0.0
Zn3 Zn 0.08667 0.24953 0.32316 0.0
O4 O 0.13573 0.22467 0.32876 0.0
Zn5 Zn 0.11344 0.22383 0.30794 0.0
O6 O 0.14469 0.24514 0.29593 0.0
O7 O 0.12024 0.27952 0.31063 0.0
O8 O 0.06702 0.24455 0.30072 0.0
O9 O 0.04547 0.27032 0.31914 0.0
O10 O 0.07419 0.19748 0.32097 0.0
O11 O 0.10735 0.17803 0.30445 0.0
C12 C 0.1406 0.27427 0.30045 0.0
C13 C 0.0843 0.17332 0.31329 0.0
C14 C 0.26461 0.8678 0.70887 0.0
C15 C 0.16336 0.92481 0.69745 0.0
O16 O 0.26953 0.88998 0.69938 0.0
Zn17 Zn 0.23932 0.92471 0.68762 0.0
O18 O 0.23557 0.86232 0.7132 0.0
Zn19 Zn 0.21404 0.89523 0.70214 0.0
O20 O 0.21592 0.87535 0.68096 0.0
O21 O 0.24327 0.9112 0.66803 0.0
O22 O 0.16813 0.90045 0.70561 0.0
O23 O 0.18746 0.93624 0.69013 0.0
O24 O 0.25971 0.96566 0.69289 0.0
O25 O 0.23463 0.94068 0.71066 0.0
C26 C 0.22783 0.88411 0.66894 0.0
C27 C 0.25155 0.96505 0.70591 0.0
C28 C 0.87047 0.7562 0.29088 0.0
C29 C 0.92202 0.85881 0.30554 0.0
O30 O 0.86764 0.78474 0.28554 0.0
Zn31 Zn 0.89577 0.80732 0.29863 0.0
O32 O 0.88863 0.75211 0.30189 0.0
Zn33 Zn 0.91983 0.78279 0.31514 0.0
O34 O 0.90058 0.77918 0.33362 0.0
O35 O 0.86867 0.80511 0.31837 0.0
O36 O 0.93084 0.8348 0.31352 0.0
O37 O 0.90163 0.85361 0.29559 0.0
O38 O 0.94353 0.78717 0.2933 0.0
O39 O 0.96207 0.76268 0.31258 0.0
C40 C 0.87374 0.79376 0.33089 0.0
C41 C 0.96597 0.77056 0.29965 0.0
C42 C 0.78393 0.13558 0.68379 0.0
C43 C 0.76161 0.03973 0.71308 0.0
O44 O 0.79498 0.13955 0.69644 0.0
Zn45 Zn 0.79731 0.11046 0.71561 0.0
O46 O 0.76999 0.10868 0.68046 0.0
Zn47 Zn 0.77369 0.08749 0.69853 0.0
O48 O 0.74214 0.1167 0.71232 0.0
O49 O 0.7743 0.13713 0.72904 0.0
O50 O 0.75496 0.04425 0.70007 0.0
O51 O 0.77704 0.06216 0.72003 0.0
O52 O 0.84361 0.1047 0.71878 0.0
O53 O 0.82558 0.07735 0.70014 0.0
C54 C 0.74587 0.13407 0.72362 0.0
C55 C 0.84926 0.08553 0.70842 0.0
C56 C 0.06086 0.28212 0.98535 0.0
C57 C 0.14136 0.29888 0.94731 0.0
O58 O 0.0528 0.26947 0.97343 0.0
Zn59 Zn 0.07134 0.26354 0.95266 0.0
O60 O 0.08828 0.29692 0.98673 0.0
Zn61 Zn 0.10287 0.29124 0.96699 0.0
O62 O 0.06808 0.31968 0.95524 0.0
O63 O 0.03762 0.28662 0.94188 0.0
O64 O 0.14463 0.30852 0.9601 0.0
O65 O 0.1157 0.28262 0.9436 0.0
O66 O 0.0774 0.21556 0.9515 0.0
O67 O 0.11241 0.24018 0.96595 0.0
C68 C 0.04482 0.31543 0.94625 0.0
C69 C 0.10178 0.21398 0.95994 0.0
C70 C 0.29272 0.87153 0.0705 0.0
C71 C 0.26018 0.95419 0.03595 0.0
O72 O 0.30366 0.86455 0.05807 0.0
Zn73 Zn 0.30381 0.8878 0.03743 0.0
O74 O 0.27773 0.89854 0.07247 0.0
Zn75 Zn 0.27924 0.91422 0.05325 0.0
O76 O 0.24984 0.87819 0.04164 0.0
O77 O 0.283 0.85446 0.02613 0.0
O78 O 0.25565 0.95398 0.04929 0.0
O79 O 0.27775 0.93149 0.03022 0.0
O80 O 0.34943 0.89697 0.03346 0.0
O81 O 0.32981 0.92876 0.05036 0.0
C82 C 0.25453 0.85731 0.03157 0.0
C83 C 0.35382 0.91998 0.04238 0.0
C84 C 0.87356 0.71219 0.93195 0.0
C85 C 0.96975 0.72439 0.96201 0.0
O86 O 0.9015 0.72441 0.9291 0.0
Zn87 Zn 0.92151 0.71716 0.94716 0.0
O88 O 0.86826 0.70009 0.94433 0.0
Zn89 Zn 0.89671 0.6933 0.96361 0.0
O90 O 0.87156 0.717 0.97751 0.0
O91 O 0.89405 0.74918 0.96134 0.0
O92 O 0.94656 0.70915 0.96856 0.0
O93 O 0.9654 0.73329 0.94925 0.0
O94 O 0.92782 0.66432 0.9476 0.0
O95 O 0.89834 0.64611 0.96557 0.0
C96 C 0.87638 0.74566 0.97255 0.0
C97 C 0.91731 0.64026 0.95518 0.0
C98 C 0.73009 0.12259 0.07948 0.0
C99 C 0.76098 0.03319 0.04762 0.0
O100 O 0.72275 0.12902 0.06653 0.0
Zn101 Zn 0.72577 0.10426 0.04629 0.0
O102 O 0.74247 0.0948 0.08254 0.0
Zn103 Zn 0.74431 0.0775 0.06351 0.0
O104 O 0.77935 0.11031 0.05314 0.0
O105 O 0.75235 0.1346 0.03576 0.0
O106 O 0.76395 0.03484 0.06101 0.0
O107 O 0.74752 0.05716 0.04091 0.0
O108 O 0.68053 0.09936 0.04048 0.0
O109 O 0.69329 0.06779 0.05862 0.0
C110 C 0.77879 0.13076 0.04274 0.0
C111 C 0.67208 0.07783 0.04953 0.0
C112 C 0.53556 0.74038 0.79011 0.0
C113 C 0.62462 0.71855 0.82323 0.0
O114 O 0.53796 0.74876 0.80306 0.0
Zn115 Zn 0.57976 0.7284 0.80666 0.0
O116 O 0.55857 0.72328 0.78439 0.0
Zn117 Zn 0.60534 0.70277 0.79083 0.0
O118 O 0.59919 0.65635 0.78816 0.0
O119 O 0.56819 0.67654 0.80525 0.0
O120 O 0.6307 0.70645 0.81092 0.0
O121 O 0.59742 0.73298 0.82545 0.0
O122 O 0.61259 0.758 0.79367 0.0
O123 O 0.63489 0.72421 0.77802 0.0
C124 C 0.57753 0.65199 0.79766 0.0
C125 C 0.6318 0.75308 0.78305 0.0
C126 C 0.72688 0.37701 0.18618 0.0
C127 C 0.74851 0.47007 0.21745 0.0
O128 O 0.71621 0.37157 0.19877 0.0
Zn129 Zn 0.7138 0.39839 0.21849 0.0
O130 O 0.74007 0.40456 0.18334 0.0
Zn131 Zn 0.73663 0.42403 0.2019 0.0
O132 O 0.7691 0.39453 0.21509 0.0
O133 O 0.73764 0.37019 0.23106 0.0
O134 O 0.75486 0.46728 0.2043 0.0
O135 O 0.73363 0.44655 0.22393 0.0
O136 O 0.66749 0.40337 0.22206 0.0
O137 O 0.6849 0.43391 0.20428 0.0
C138 C 0.76599 0.37534 0.22585 0.0
C139 C 0.66153 0.42444 0.21247 0.0
C140 C 0.3739 0.27391 0.83336 0.0
C141 C 0.46143 0.24941 0.79985 0.0
O142 O 0.40092 0.25904 0.83529 0.0
Zn143 Zn 0.41729 0.26156 0.81619 0.0
O144 O 0.36662 0.28426 0.82089 0.0
Zn145 Zn 0.38977 0.28401 0.80027 0.0
O146 O 0.35944 0.25995 0.78875 0.0
O147 O 0.38634 0.22836 0.8038 0.0
O148 O 0.43727 0.26403 0.79373 0.0
O149 O 0.45997 0.24342 0.81306 0.0
O150 O 0.42708 0.31358 0.81315 0.0
O151 O 0.39427 0.32988 0.79595 0.0
C152 C 0.36555 0.23149 0.79362 0.0
C153 C 0.41649 0.33648 0.80497 0.0
C154 C 0.28431 0.63523 0.18439 0.0
C155 C 0.26133 0.54802 0.21847 0.0
O156 O 0.29524 0.64251 0.19677 0.0
Zn157 Zn 0.29741 0.619 0.21725 0.0
O158 O 0.27048 0.60758 0.1824 0.0
Zn159 Zn 0.27383 0.59113 0.2015 0.0
O160 O 0.24217 0.62336 0.21389 0.0
O161 O 0.27434 0.64969 0.22901 0.0
O162 O 0.25494 0.54867 0.20528 0.0
O163 O 0.2767 0.5723 0.2242 0.0
O164 O 0.3437 0.6137 0.22081 0.0
O165 O 0.32542 0.58082 0.20397 0.0
C166 C 0.24581 0.64421 0.22405 0.0
C167 C 0.34911 0.59114 0.21178 0.0
C168 C 0.54409 0.78369 0.47483 0.0
C169 C 0.63 0.81176 0.44134 0.0
O170 O 0.54562 0.7785 0.46157 0.0
Zn171 Zn 0.58583 0.80129 0.45801 0.0
O172 O 0.56609 0.80175 0.4808 0.0
Zn173 Zn 0.61091 0.82654 0.47395 0.0
O174 O 0.60348 0.87303 0.47667 0.0
O175 O 0.57331 0.85278 0.45935 0.0
O176 O 0.63635 0.82365 0.45368 0.0
O177 O 0.6028 0.79727 0.43919 0.0
O178 O 0.62041 0.77227 0.47049 0.0
O179 O 0.64217 0.80596 0.48636 0.0
C180 C 0.58243 0.87742 0.46693 0.0
C181 C 0.63987 0.77727 0.48103 0.0
C182 C 0.79452 0.39626 0.58054 0.0
C183 C 0.77119 0.49047 0.55035 0.0
O184 O 0.80136 0.39031 0.56748 0.0
Zn185 Zn 0.80022 0.4171 0.54763 0.0
O186 O 0.78428 0.42464 0.5841 0.0
Zn187 Zn 0.78436 0.44353 0.56545 0.0
O188 O 0.74645 0.41479 0.55463 0.0
O189 O 0.7711 0.39033 0.53662 0.0
O190 O 0.7688 0.48814 0.56373 0.0
O191 O 0.7823 0.46599 0.54319 0.0
O192 O 0.84545 0.41883 0.54162 0.0
O193 O 0.83634 0.44787 0.56099 0.0
C194 C 0.74515 0.39559 0.54378 0.0
C195 C 0.85625 0.43723 0.55147 0.0
C196 C 0.45558 0.20379 0.44948 0.0
C197 C 0.40414 0.31259 0.45521 0.0
O198 O 0.43503 0.20566 0.45977 0.0
Zn199 Zn 0.40453 0.24154 0.47007 0.0
O200 O 0.46223 0.22919 0.44208 0.0
Zn201 Zn 0.43253 0.2592 0.45193 0.0
O202 O 0.45685 0.26304 0.47161 0.0
O203 O 0.42461 0.24615 0.489 0.0
O204 O 0.42634 0.30552 0.44618 0.0
O205 O 0.39513 0.29086 0.46423 0.0
O206 O 0.36074 0.22284 0.46711 0.0
O207 O 0.38591 0.23756 0.44725 0.0
C208 C 0.45208 0.25762 0.4848 0.0
C209 C 0.36106 0.22496 0.45362 0.0
C210 C 0.2998 0.60486 0.5468 0.0
C211 C 0.18794 0.5605 0.54783 0.0
O212 O 0.2902 0.58043 0.55416 0.0
Zn213 Zn 0.24426 0.58206 0.54798 0.0
O214 O 0.27961 0.62002 0.53873 0.0
Zn215 Zn 0.22946 0.61818 0.53256 0.0
O216 O 0.21421 0.66118 0.53913 0.0
O217 O 0.22765 0.6277 0.55662 0.0
O218 O 0.19147 0.5845 0.53911 0.0
O219 O 0.21217 0.55129 0.55538 0.0
O220 O 0.24891 0.56718 0.52629 0.0
O221 O 0.23473 0.60861 0.51237 0.0
C222 C 0.21716 0.65574 0.55236 0.0
C223 C 0.2452 0.57927 0.51384 0.0
C224 C 0.17108 0.29743 0.27969 0.0
C225 C 0.15704 0.30211 0.29318 0.0
C226 C 0.18379 0.32407 0.2721 0.0
C227 C 0.21783 0.40672 0.27503 0.0
H228 H 0.18391 0.41873 0.23694 0.0
C229 C 0.24787 0.52304 0.24205 0.0
C230 C 0.25073 0.51976 0.22726 0.0
C231 C 0.23708 0.49661 0.25034 0.0
C232 C 0.19418 0.41553 0.24744 0.0
H233 H 0.14651 0.33829 0.30951 0.0
H234 H 0.16964 0.38489 0.29631 0.0
H235 H 0.16529 0.3722 0.25108 0.0
H236 H 0.24534 0.48598 0.20959 0.0
H237 H 0.22793 0.43949 0.22404 0.0
H238 H 0.24756 0.44933 0.27132 0.0
C239 C 0.1704 0.36053 0.29162 0.0
C240 C 0.18329 0.38893 0.25557 0.0
C241 C 0.15712 0.3339 0.29914 0.0
C242 C 0.24308 0.48936 0.22095 0.0
C243 C 0.23284 0.46274 0.22926 0.0
C244 C 0.22921 0.43307 0.2668 0.0
C245 C 0.18327 0.35591 0.27792 0.0
C246 C 0.19497 0.38428 0.26943 0.0
C247 C 0.2294 0.46605 0.24407 0.0
C248 C 0.21751 0.43788 0.25288 0.0
H249 H 0.17135 0.2733 0.27476 0.0
H250 H 0.19384 0.31984 0.26161 0.0
H251 H 0.22738 0.4035 0.28566 0.0
H252 H 0.25335 0.54627 0.24721 0.0
H253 H 0.23421 0.50042 0.26164 0.0
C254 C 0.50305 0.73946 0.76753 0.0
C255 C 0.50692 0.75085 0.78153 0.0
C256 C 0.47658 0.75003 0.75926 0.0
C257 C 0.43038 0.79145 0.7414 0.0
H258 H 0.34464 0.80439 0.7585 0.0
C259 C 0.3251 0.86123 0.71318 0.0
C260 C 0.29268 0.85048 0.71551 0.0
C261 C 0.35127 0.84699 0.72059 0.0
C262 C 0.36831 0.80054 0.75349 0.0
H263 H 0.48593 0.78224 0.79782 0.0
H264 H 0.4401 0.80112 0.78332 0.0
H265 H 0.38956 0.78302 0.7728 0.0
H266 H 0.26248 0.81531 0.72695 0.0
H267 H 0.30812 0.79001 0.73958 0.0
H268 H 0.4089 0.80835 0.722 0.0
C269 C 0.45719 0.78355 0.7788 0.0
C270 C 0.39422 0.78872 0.76176 0.0
C271 C 0.48359 0.77286 0.7871 0.0
C272 C 0.28714 0.82437 0.72499 0.0
C273 C 0.3133 0.81001 0.73232 0.0
C274 C 0.40441 0.80316 0.7331 0.0
C275 C 0.45342 0.77236 0.76476 0.0
C276 C 0.42564 0.78419 0.75585 0.0
C277 C 0.34562 0.82155 0.73042 0.0
C278 C 0.37308 0.808 0.73906 0.0
H279 H 0.52049 0.72235 0.76293 0.0
H280 H 0.47416 0.74049 0.74857 0.0
H281 H 0.45434 0.78861 0.73652 0.0
H282 H 0.3302 0.8814 0.706 0.0
H283 H 0.37578 0.85674 0.71896 0.0
C284 C 0.76718 0.52893 0.21807 0.0
C285 C 0.75863 0.49993 0.22533 0.0
C286 C 0.77703 0.55701 0.22557 0.0
C287 C 0.81527 0.5829 0.25867 0.0
H288 H 0.77724 0.66839 0.25061 0.0
C289 C 0.85118 0.69757 0.29136 0.0
C290 C 0.85424 0.7276 0.2841 0.0
C291 C 0.83735 0.67009 0.28468 0.0
C292 C 0.78849 0.64481 0.25288 0.0
H293 H 0.75383 0.4776 0.24613 0.0
H294 H 0.7717 0.52651 0.25918 0.0
H295 H 0.7579 0.61991 0.23773 0.0
H296 H 0.84506 0.75243 0.26414 0.0
H297 H 0.82208 0.70437 0.25231 0.0
H298 H 0.8467 0.60759 0.2734 0.0
C299 C 0.77054 0.52749 0.24771 0.0
C300 C 0.77726 0.61705 0.24553 0.0
C301 C 0.76018 0.49959 0.24023 0.0
C302 C 0.84282 0.72969 0.27006 0.0
C303 C 0.82944 0.7021 0.26331 0.0
C304 C 0.82686 0.6107 0.26587 0.0
C305 C 0.77905 0.55646 0.24044 0.0
C306 C 0.79056 0.58585 0.24836 0.0
C307 C 0.8267 0.67184 0.27048 0.0
C308 C 0.81366 0.64208 0.26307 0.0
H309 H 0.76615 0.52998 0.2066 0.0
H310 H 0.78369 0.57899 0.21972 0.0
H311 H 0.8262 0.55915 0.26093 0.0
H312 H 0.85952 0.69526 0.30223 0.0
H313 H 0.83503 0.64747 0.29067 0.0
C314 C 0.52022 0.23164 0.79857 0.0
C315 C 0.49072 0.23943 0.7916 0.0
C316 C 0.54784 0.22178 0.79085 0.0
C317 C 0.5831 0.22013 0.75433 0.0
H318 H 0.64005 0.15391 0.77086 0.0
C319 C 0.68654 0.15103 0.72372 0.0
C320 C 0.71703 0.14905 0.7307 0.0
C321 C 0.65895 0.16366 0.73074 0.0
C322 C 0.62447 0.17259 0.76616 0.0
H323 H 0.46698 0.24292 0.77107 0.0
H324 H 0.51481 0.22457 0.75761 0.0
H325 H 0.59155 0.17209 0.7838 0.0
H326 H 0.74257 0.15916 0.75045 0.0
H327 H 0.6943 0.18065 0.76273 0.0
H328 H 0.61587 0.21962 0.73648 0.0
C329 C 0.51697 0.2269 0.76901 0.0
C330 C 0.59673 0.18317 0.7736 0.0
C331 C 0.48945 0.23725 0.77673 0.0
C332 C 0.71946 0.16037 0.74476 0.0
C333 C 0.69181 0.17252 0.75183 0.0
C334 C 0.61066 0.20914 0.7468 0.0
C335 C 0.54653 0.21893 0.77598 0.0
C336 C 0.57577 0.2073 0.76785 0.0
C337 C 0.66126 0.17405 0.74493 0.0
C338 C 0.63173 0.18547 0.75271 0.0
H339 H 0.52209 0.23343 0.81001 0.0
H340 H 0.57031 0.21663 0.79659 0.0
H341 H 0.56787 0.23906 0.74964 0.0
H342 H 0.68391 0.14258 0.71287 0.0
H343 H 0.63562 0.16446 0.7252 0.0
C344 C 0.24509 0.97735 0.01213 0.0
C345 C 0.24397 0.97944 0.02702 0.0
C346 C 0.22871 1.00054 1.00373 0.0
C347 C 0.19739 0.0853 1.00493 0.0
H348 H 0.14723 0.06039 0.97156 0.0
C349 C 0.15183 0.18357 0.96702 0.0
C350 C 0.11832 0.18267 0.96344 0.0
C351 C 0.16703 0.15631 0.97308 0.0
C352 C 0.16105 0.06763 0.98088 0.0
H353 H 0.22459 0.00751 0.04476 0.0
H354 H 0.19626 0.04795 0.03014 0.0
H355 H 0.17355 0.01768 0.98605 0.0
H356 H 0.07489 0.15185 0.96248 0.0
H357 H 0.10163 0.10369 0.97332 0.0
H358 H 0.18488 0.13501 0.99996 0.0
C359 C 0.20995 0.02849 0.02494 0.0
C360 C 0.17633 0.04327 0.9891 0.0
C361 C 0.22615 1.00525 0.03332 0.0
C362 C 0.10079 0.15309 0.96511 0.0
C363 C 0.11608 0.12563 0.97133 0.0
C364 C 0.18239 0.10951 0.99671 0.0
C365 C 0.21106 0.02645 0.01005 0.0
C366 C 0.19465 0.0519 1.00122 0.0
C367 C 0.14905 0.12751 0.97586 0.0
C368 C 0.16423 0.10105 0.98454 0.0
H369 H 0.25846 0.95768 0.00693 0.0
H370 H 0.23031 0.99851 0.99229 0.0
H371 H 0.21155 0.09282 0.01412 0.0
H372 H 0.16609 0.20592 0.96565 0.0
H373 H 0.19267 0.15824 0.9761 0.0
C374 C 0.23175 0.81245 0.01607 0.0
C375 C 0.22652 0.83809 0.02585 0.0
C376 C 0.2051 0.79581 0.00999 0.0
C377 C 0.11456 0.7827 0.01346 0.0
H378 H 0.12077 0.76227 0.97336 0.0
C379 C 0.02383 0.75384 0.96297 0.0
C380 C 1.0008 0.73277 0.96941 0.0
C381 C 0.05236 0.76325 0.97016 0.0
C382 C 0.11851 0.76798 0.98455 0.0
H383 H 0.1892 0.86599 0.03708 0.0
H384 H 0.14286 0.8377 0.02622 0.0
H385 H 0.16801 0.7855 0.98559 0.0
H386 H 0.99014 0.70439 0.98834 0.0
H387 H 0.04038 0.7202 1.00078 0.0
H388 H 0.06449 0.76676 0.01223 0.0
C389 C 0.16747 0.82984 0.02346 0.0
C390 C 0.14583 0.78087 0.99163 0.0
C391 C 0.1941 0.84624 0.02963 0.0
C392 C 0.0073 0.72079 0.98311 0.0
C393 C 0.03603 0.73003 0.99027 0.0
C394 C 0.08713 0.77005 0.00634 0.0
C395 C 0.17259 0.80464 0.01343 0.0
C396 C 0.14413 0.78877 0.00615 0.0
C397 C 0.05879 0.75162 0.98393 0.0
C398 C 0.08862 0.76291 0.99175 0.0
H399 H 0.25643 0.80539 0.01301 0.0
H400 H 0.21002 0.77614 1.00251 0.0
H401 H 0.11246 0.788 0.02469 0.0
H402 H 0.01952 0.76369 0.95246 0.0
H403 H 0.06895 0.78037 0.96502 0.0
C404 C 0.86179 0.80565 0.97303 0.0
C405 C 0.86266 0.77492 0.97985 0.0
C406 C 0.84977 0.83349 0.98008 0.0
C407 C 0.80113 0.85915 0.01186 0.0
H408 H 0.84275 0.9436 1.00487 0.0
C409 C 0.77963 0.97432 0.047 0.0
C410 C 0.77262 1.00377 0.03978 0.0
C411 C 0.79001 0.94638 0.03955 0.0
C412 C 0.83076 0.9202 0.00685 0.0
H413 H 0.85166 0.74932 0.99946 0.0
H414 H 0.83178 0.7979 0.01193 0.0
H415 H 0.86194 0.89487 0.99221 0.0
H416 H 0.77143 0.02709 0.01909 0.0
H417 H 0.79016 0.9784 0.00613 0.0
H418 H 0.77063 0.88462 0.02684 0.0
C419 C 0.83949 0.8005 1.00099 0.0
C420 C 0.84161 0.89224 0.99954 0.0
C421 C 0.85109 0.77259 0.99386 0.0
C422 C 0.77656 1.00476 0.02496 0.0
C423 C 0.78743 0.97697 0.01754 0.0
C424 C 0.79061 0.88705 0.01931 0.0
C425 C 0.83873 0.83139 0.99422 0.0
C426 C 0.82692 0.86129 1.00193 0.0
C427 C 0.79409 0.94745 0.02475 0.0
C428 C 0.80528 0.91785 0.01686 0.0
H429 H 0.8703 0.80822 0.96219 0.0
H430 H 0.84898 0.85662 0.97439 0.0
H431 H 0.78874 0.83597 0.01381 0.0
H432 H 0.77677 0.97273 0.05841 0.0
H433 H 0.79523 0.92401 0.04538 0.0
C434 C 0.80617 0.17713 0.0298 0.0
C435 C 0.80853 0.15012 0.03904 0.0
C436 C 0.83407 0.19542 0.02621 0.0
C437 C 0.9214 0.21163 0.0364 0.0
H438 H 0.92712 0.24118 0.99739 0.0
C439 C 0.04079 0.25454 0.00725 0.0
C440 C 0.03702 0.27923 0.99698 0.0
C441 C 0.01346 0.24335 0.01496 0.0
C442 C 0.92574 0.23363 0.00839 0.0
H443 H 0.84211 0.12133 0.05188 0.0
H444 H 0.89107 0.1526 0.04523 0.0
H445 H 0.87871 0.21152 1.00524 0.0
H446 H 1.00278 0.3131 0.98727 0.0
H447 H 0.95538 0.29446 1.00099 0.0
H448 H 0.96938 0.23296 0.03925 0.0
C449 C 0.86751 0.16013 0.041 0.0
C450 C 0.89786 0.21656 0.01292 0.0
C451 C 0.83945 0.14202 0.04473 0.0
C452 C 0.00631 0.29441 0.99533 0.0
C453 C 0.97914 0.2834 1.00303 0.0
C454 C 0.94957 0.22854 0.0318 0.0
C455 C 0.86522 0.18695 0.03159 0.0
C456 C 0.89517 0.20539 0.02698 0.0
C457 C 0.98203 0.25659 0.01238 0.0
C458 C 0.95194 0.23986 0.01775 0.0
H459 H 0.78267 0.18433 0.02538 0.0
H460 H 0.83113 0.21632 0.0192 0.0
H461 H 0.92009 0.2037 0.04734 0.0
H462 H 0.06411 0.24193 0.0084 0.0
H463 H 0.01645 0.22257 0.02204 0.0
C464 C 0.66134 0.77823 0.76243 0.0
C465 C 0.64898 0.78111 0.77631 0.0
C466 C 0.67557 0.80535 0.75568 0.0
C467 C 0.71635 0.8842 0.76175 0.0
H468 H 0.68171 0.9082 0.72487 0.0
C469 C 0.7489 0.00802 0.73515 0.0
C470 C 0.75107 0.00917 0.72028 0.0
C471 C 0.73787 0.97953 0.74197 0.0
C472 C 0.69219 0.9016 0.73503 0.0
H473 H 0.64279 0.81435 0.79415 0.0
H474 H 0.66839 0.86159 0.78241 0.0
H475 H 0.66096 0.85926 0.73681 0.0
H476 H 0.74431 0.98111 0.70092 0.0
H477 H 0.72636 0.93099 0.7128 0.0
H478 H 0.74817 0.92593 0.75991 0.0
C479 C 0.66677 0.83837 0.77676 0.0
C480 C 0.68012 0.87361 0.74189 0.0
C481 C 0.65201 0.81141 0.78344 0.0
C482 C 0.74259 0.98106 0.71239 0.0
C483 C 0.73208 0.95238 0.71922 0.0
C484 C 0.72884 0.91192 0.75479 0.0
C485 C 0.67824 0.8357 0.76275 0.0
C486 C 0.69192 0.86479 0.75535 0.0
C487 C 0.72924 0.95131 0.73411 0.0
C488 C 0.71676 0.92116 0.74137 0.0
H489 H 0.65929 0.75525 0.75665 0.0
H490 H 0.68444 0.80263 0.7449 0.0
H491 H 0.72605 0.87771 0.77208 0.0
H492 H 0.75503 0.0294 0.74152 0.0
H493 H 0.73547 0.97997 0.75341 0.0
C494 C 0.994 0.29687 0.30218 0.0
C495 C 0.01543 0.27207 0.2974 0.0
C496 C 0.96766 0.3071 0.29375 0.0
C497 C 0.91266 0.28044 0.2653 0.0
H498 H 0.89793 0.37396 0.25977 0.0
C499 C 0.79216 0.33559 0.24273 0.0
C500 C 0.79541 0.36075 0.23259 0.0
C501 C 0.8198 0.32327 0.24975 0.0
C502 C 0.90187 0.34777 0.26115 0.0
H503 H 0.02575 0.23822 0.28013 0.0
H504 H 0.97933 0.25581 0.26551 0.0
H505 H 0.9447 0.35552 0.27396 0.0
H506 H 0.83031 0.39233 0.2217 0.0
H507 H 0.87851 0.37106 0.23412 0.0
H508 H 0.86951 0.27276 0.25263 0.0
C509 C 0.98309 0.26737 0.27575 0.0
C510 C 0.92843 0.33724 0.26936 0.0
C511 C 0.00972 0.25744 0.2841 0.0
C512 C 0.82696 0.37291 0.22944 0.0
C513 C 0.85454 0.36089 0.2366 0.0
C514 C 0.8858 0.291 0.25723 0.0
C515 C 0.96194 0.29245 0.28046 0.0
C516 C 0.93405 0.30349 0.27154 0.0
C517 C 0.85119 0.33616 0.24691 0.0
C518 C 0.88015 0.32477 0.25509 0.0
H519 H 0.99775 0.30867 0.31236 0.0
H520 H 0.95155 0.32628 0.29769 0.0
H521 H 0.91634 0.25428 0.26688 0.0
H522 H 0.76819 0.32565 0.24537 0.0
H523 H 0.8165 0.30436 0.25773 0.0
C524 C 0.24819 0.99448 0.72928 0.0
C525 C 0.26192 0.99184 0.71563 0.0
C526 C 0.25832 0.01945 0.73855 0.0
C527 C 0.3275 0.07477 0.74617 0.0
H528 H 0.26302 0.12737 0.76636 0.0
C529 C 0.36447 0.17074 0.78869 0.0
C530 C 0.35061 0.20215 0.78683 0.0
C531 C 0.35253 0.1437 0.78103 0.0
C532 C 0.28128 0.11282 0.76081 0.0
H533 H 0.29713 0.01337 0.70102 0.0
H534 H 0.31503 0.05674 0.71728 0.0
H535 H 0.24467 0.08309 0.75057 0.0
H536 H 0.31247 0.22952 0.77591 0.0
H537 H 0.29136 0.18224 0.76273 0.0
H538 H 0.3641 0.10463 0.75631 0.0
C539 C 0.29643 0.03944 0.72079 0.0
C540 C 0.2708 0.08739 0.75185 0.0
C541 C 0.28602 0.01473 0.71145 0.0
C542 C 0.32373 0.20566 0.77757 0.0
C543 C 0.31153 0.17856 0.77006 0.0
C544 C 0.33798 0.09991 0.75526 0.0
C545 C 0.2827 0.04207 0.73443 0.0
C546 C 0.2938 0.06833 0.74432 0.0
C547 C 0.32618 0.14743 0.77151 0.0
C548 C 0.31499 0.11941 0.76258 0.0
H549 H 0.22955 0.97727 0.73282 0.0
H550 H 0.24745 0.02076 0.74903 0.0
H551 H 0.34577 0.06029 0.7406 0.0
H552 H 0.38527 0.16723 0.79571 0.0
H553 H 0.3641 0.1199 0.78244 0.0
C554 C 0.01651 0.73567 0.2975 0.0
C555 C 0.99566 0.75988 0.29182 0.0
C556 C 0.04368 0.72446 0.28981 0.0
C557 C 0.10111 0.74678 0.26144 0.0
H558 H 0.11414 0.65245 0.25798 0.0
C559 C 0.2206 0.68663 0.24005 0.0
C560 C 0.21676 0.6603 0.23049 0.0
C561 C 0.19328 0.70033 0.24686 0.0
C562 C 0.1107 0.67884 0.25879 0.0
H563 H 0.98741 0.79189 0.27375 0.0
H564 H 0.0352 0.77257 0.26041 0.0
H565 H 0.06738 0.67347 0.27152 0.0
H566 H 0.18114 0.6281 0.22036 0.0
H567 H 0.1335 0.65184 0.23237 0.0
H568 H 0.14465 0.75209 0.24879 0.0
C569 C 0.03038 0.76222 0.27079 0.0
C570 C 0.08415 0.69086 0.26664 0.0
C571 C 1.00296 0.77314 0.27841 0.0
C572 C 0.18494 0.64839 0.22766 0.0
C573 C 0.15768 0.66182 0.23459 0.0
C574 C 0.12794 0.73475 0.25373 0.0
C575 C 0.0508 0.73753 0.27635 0.0
C576 C 0.07908 0.72493 0.26804 0.0
C577 C 0.16162 0.68771 0.24436 0.0
C578 C 0.13295 0.70065 0.25231 0.0
H579 H 0.01156 0.72493 0.3078 0.0
H580 H 0.05921 0.70562 0.2944 0.0
H581 H 0.09784 0.77317 0.26242 0.0
H582 H 0.24478 0.6964 0.24244 0.0
H583 H 0.19703 0.72014 0.2544 0.0
C584 C 0.7543 0.54994 0.55059 0.0
C585 C 0.76056 0.52082 0.54296 0.0
C586 C 0.74364 0.57834 0.54357 0.0
C587 C 0.69983 0.60495 0.51178 0.0
H588 H 0.73925 0.6903 0.51913 0.0
C589 C 0.66057 0.71927 0.48002 0.0
C590 C 0.65789 0.74926 0.48737 0.0
C591 C 0.67541 0.692 0.48638 0.0
C592 C 0.72765 0.66675 0.51708 0.0
H593 H 0.76062 0.49872 0.52198 0.0
H594 H 0.74156 0.54816 0.5098 0.0
H595 H 0.76017 0.64161 0.53132 0.0
H596 H 0.66912 0.77434 0.50711 0.0
H597 H 0.69407 0.72659 0.5184 0.0
H598 H 0.66664 0.62984 0.49792 0.0
C599 C 0.74499 0.54899 0.5212 0.0
C600 C 0.73975 0.63886 0.52404 0.0
C601 C 0.75606 0.52075 0.52817 0.0
C602 C 0.67099 0.75161 0.50113 0.0
C603 C 0.68546 0.72421 0.50758 0.0
C604 C 0.68746 0.63283 0.50496 0.0
C605 C 0.7386 0.57804 0.52882 0.0
C606 C 0.72599 0.60769 0.52143 0.0
C607 C 0.68752 0.6939 0.50035 0.0
C608 C 0.70122 0.66414 0.50749 0.0
H609 H 0.7576 0.5508 0.56199 0.0
H610 H 0.73867 0.60034 0.54972 0.0
H611 H 0.68845 0.58127 0.50973 0.0
H612 H 0.65097 0.71674 0.46935 0.0
H613 H 0.67722 0.66936 0.48034 0.0
C614 C 0.7128 0.35815 0.52791 0.0
C615 C 0.71373 0.3797 0.53958 0.0
C616 C 0.68326 0.34366 0.52364 0.0
C617 C 0.59862 0.32309 0.53508 0.0
H618 H 0.58339 0.31994 0.49451 0.0
C619 C 0.47546 0.28226 0.50719 0.0
C620 C 0.47964 0.26434 0.49456 0.0
C621 C 0.50305 0.29461 0.51447 0.0
C622 C 0.58736 0.32028 0.50587 0.0
H623 H 0.68427 0.40231 0.55614 0.0
H624 H 0.63244 0.37712 0.54855 0.0
H625 H 0.63307 0.3456 0.50354 0.0
H626 H 0.51544 0.24268 0.48032 0.0
H627 H 0.56313 0.26315 0.49312 0.0
H628 H 0.55244 0.29766 0.53727 0.0
C629 C 0.65474 0.37132 0.54278 0.0
C630 C 0.6159 0.33501 0.51106 0.0
C631 C 0.68441 0.3859 0.54707 0.0
C632 C 0.51157 0.25678 0.48996 0.0
C633 C 0.53888 0.26872 0.49723 0.0
C634 C 0.56983 0.30827 0.52986 0.0
C635 C 0.65378 0.35034 0.5309 0.0
C636 C 0.62224 0.33612 0.52569 0.0
C637 C 0.535 0.289 0.50919 0.0
C638 C 0.56426 0.30616 0.51516 0.0
H639 H 0.73491 0.35254 0.52197 0.0
H640 H 0.68355 0.32711 0.51462 0.0
H641 H 0.60281 0.32354 0.54643 0.0
H642 H 0.45103 0.28855 0.51089 0.0
H643 H 0.49933 0.31009 0.5237 0.0
C644 C 0.24712 0.52538 0.50146 0.0
C645 C 0.25518 0.55898 0.50159 0.0
C646 C 0.26125 0.5042 0.49152 0.0
C647 C 0.33732 0.49135 0.47295 0.0
H648 H 0.28884 0.42038 0.45497 0.0
C649 C 0.40155 0.37391 0.45024 0.0
C650 C 0.38704 0.34483 0.4554 0.0
C651 C 0.38531 0.40432 0.45179 0.0
C652 C 0.3028 0.44012 0.45985 0.0
H653 H 0.28384 0.59709 0.49133 0.0
H654 H 0.30952 0.55957 0.47402 0.0
H655 H 0.25914 0.46693 0.46517 0.0
H656 H 0.34356 0.32467 0.46558 0.0
H657 H 0.31571 0.37682 0.46822 0.0
H658 H 0.38087 0.46336 0.4685 0.0
C659 C 0.29171 0.54988 0.48148 0.0
C660 C 0.28577 0.46681 0.46564 0.0
C661 C 0.27685 0.57133 0.49126 0.0
C662 C 0.35563 0.34659 0.46158 0.0
C663 C 0.3394 0.37657 0.46296 0.0
C664 C 0.35442 0.46441 0.46724 0.0
C665 C 0.2844 0.51599 0.48168 0.0
C666 C 0.30273 0.49205 0.47274 0.0
C667 C 0.35406 0.40593 0.45825 0.0
C668 C 0.3372 0.4378 0.46119 0.0
H669 H 0.23073 0.51526 0.50941 0.0
H670 H 0.25543 0.47818 0.49206 0.0
H671 H 0.35102 0.5104 0.47843 0.0
H672 H 0.42575 0.37329 0.44544 0.0
H673 H 0.39724 0.42654 0.44805 0.0
C674 C 0.51264 0.77522 0.49752 0.0
C675 C 0.51963 0.76568 0.48351 0.0
C676 C 0.49154 0.75623 0.50598 0.0
C677 C 0.42966 0.68795 0.50349 0.0
H678 H 0.44357 0.6823 0.54413 0.0
C679 C 0.35533 0.59778 0.53675 0.0
C680 C 0.3344 0.61482 0.54602 0.0
C681 C 0.38318 0.61336 0.53119 0.0
C682 C 0.43967 0.68356 0.53278 0.0
H683 H 0.51037 0.7285 0.46745 0.0
H684 H 0.47513 0.69488 0.4822 0.0
H685 H 0.48034 0.71629 0.52967 0.0
H686 H 0.32695 0.6603 0.55755 0.0
H687 H 0.37657 0.68709 0.54834 0.0
H688 H 0.38954 0.6546 0.50661 0.0
C689 C 0.48462 0.71759 0.48663 0.0
C690 C 0.46041 0.70332 0.52448 0.0
C691 C 0.50505 0.73689 0.47813 0.0
C692 C 0.3433 0.64644 0.5507 0.0
C693 C 0.3715 0.6618 0.54536 0.0
C694 C 0.40954 0.66771 0.51171 0.0
C695 C 0.47748 0.7269 0.5007 0.0
C696 C 0.45559 0.70593 0.5097 0.0
C697 C 0.39064 0.64603 0.53498 0.0
C698 C 0.41424 0.6654 0.52642 0.0
H699 H 0.52356 0.79728 0.50197 0.0
H700 H 0.48624 0.76465 0.51664 0.0
H701 H 0.42436 0.68987 0.49227 0.0
H702 H 0.3484 0.57375 0.5327 0.0
H703 H 0.39759 0.60077 0.52318 0.0
C704 C 0.30097 0.22536 0.44777 0.0
C705 C 0.33301 0.21453 0.44482 0.0
C706 C 0.27633 0.22271 0.4374 0.0
C707 C 0.27102 0.21928 0.39836 0.0
H708 H 0.17775 0.20576 0.40456 0.0
C709 C 0.17987 0.21379 0.35177 0.0
C710 C 0.15032 0.23137 0.35332 0.0
C711 C 0.20062 0.2089 0.3634 0.0
C712 C 0.20374 0.20978 0.4027 0.0
H713 H 0.36393 0.18988 0.42942 0.0
H714 H 0.3209 0.18385 0.41167 0.0
H715 H 0.21611 0.20032 0.42445 0.0
H716 H 0.11919 0.25713 0.36839 0.0
H717 H 0.15561 0.2488 0.38864 0.0
H718 H 0.25887 0.22905 0.37672 0.0
C719 C 0.31482 0.1955 0.42167 0.0
C720 C 0.22568 0.20665 0.41409 0.0
C721 C 0.33939 0.19859 0.43189 0.0
C722 C 0.14181 0.24354 0.36681 0.0
C723 C 0.16255 0.23855 0.37846 0.0
C724 C 0.2492 0.2223 0.38702 0.0
C725 C 0.28343 0.20893 0.42401 0.0
C726 C 0.25964 0.21127 0.41203 0.0
C727 C 0.19233 0.2214 0.37686 0.0
C728 C 0.21531 0.21758 0.38903 0.0
H729 H 0.29563 0.23809 0.45762 0.0
H730 H 0.25243 0.23335 0.43955 0.0
H731 H 0.29686 0.22397 0.39642 0.0
H732 H 0.1871 0.2039 0.34156 0.0
H733 H 0.22319 0.1952 0.36184 0.0
C734 C 0.20289 0.67242 0.57701 0.0
C735 C 0.21077 0.68165 0.56307 0.0
C736 C 0.20152 0.69587 0.58783 0.0
C737 C 0.20026 0.78592 0.59564 0.0
H738 H 0.23751 0.75659 0.63134 0.0
C739 C 0.23295 0.87347 0.64272 0.0
C740 C 0.22385 0.86254 0.65633 0.0
C741 C 0.22965 0.85272 0.63091 0.0
C742 C 0.22675 0.7651 0.62149 0.0
H743 H 0.22209 0.72292 0.54938 0.0
H744 H 0.22055 0.76408 0.56841 0.0
H745 H 0.23422 0.71854 0.61149 0.0
H746 H 0.20378 0.8213 0.66814 0.0
H747 H 0.19836 0.78514 0.64761 0.0
H748 H 0.19363 0.83289 0.60576 0.0
C749 C 0.21488 0.7387 0.57094 0.0
C750 C 0.2247 0.74323 0.61009 0.0
C751 C 0.21577 0.71515 0.56002 0.0
C752 C 0.21112 0.83052 0.65783 0.0
C753 C 0.20813 0.80972 0.64607 0.0
C754 C 0.2026 0.80797 0.60707 0.0
C755 C 0.20861 0.72917 0.58507 0.0
C756 C 0.21109 0.75315 0.59704 0.0
C757 C 0.21754 0.82048 0.63249 0.0
C758 C 0.21559 0.79766 0.62016 0.0
H759 H 0.19848 0.64682 0.57966 0.0
H760 H 0.19556 0.68768 0.59846 0.0
H761 H 0.18945 0.7944 0.58581 0.0
H762 H 0.24274 0.89803 0.64118 0.0
H763 H 0.23731 0.86162 0.62059 0.0
C764 C 0.6449 0.80986 0.41561 0.0
C765 C 0.65458 0.81374 0.42982 0.0
C766 C 0.66825 0.81008 0.40474 0.0
C767 C 0.756 0.8308 0.39694 0.0
H768 H 0.74179 0.77222 0.36496 0.0
C769 C 0.85703 0.79455 0.35646 0.0
C770 C 0.84851 0.79765 0.34207 0.0
C771 C 0.83322 0.79825 0.36703 0.0
C772 C 0.74592 0.78886 0.37378 0.0
H773 H 0.69627 0.82102 0.44379 0.0
H774 H 0.7372 0.82008 0.42492 0.0
H775 H 0.70077 0.77526 0.38375 0.0
H776 H 0.80835 0.80686 0.32747 0.0
H777 H 0.76654 0.8125 0.346 0.0
H778 H 0.80193 0.84322 0.38709 0.0
C779 C 0.71151 0.81786 0.42206 0.0
C780 C 0.72234 0.79081 0.38454 0.0
C781 C 0.68806 0.81823 0.43292 0.0
C782 C 0.81566 0.8044 0.33847 0.0
C783 C 0.79173 0.80751 0.34904 0.0
C784 C 0.77983 0.8284 0.38629 0.0
C785 C 0.70195 0.81355 0.40782 0.0
C786 C 0.727 0.81186 0.39627 0.0
C787 C 0.80033 0.80454 0.36341 0.0
C788 C 0.77496 0.80745 0.37461 0.0
H789 H 0.61921 0.80667 0.41288 0.0
H790 H 0.65976 0.80751 0.3939 0.0
H791 H 0.76027 0.84774 0.40563 0.0
H792 H 0.88217 0.78947 0.35956 0.0
H793 H 0.84039 0.79564 0.37804 0.0
C794 C 0.79422 0.19462 0.67748 0.0
C795 C 0.78719 0.16222 0.6732 0.0
C796 C 0.79648 0.21992 0.66748 0.0
C797 C 0.77332 0.24009 0.63029 0.0
H798 H 0.835 0.31204 0.63553 0.0
C799 C 0.7994 0.33665 0.58689 0.0
C800 C 0.79707 0.36972 0.59122 0.0
C801 C 0.7997 0.31134 0.59691 0.0
C802 C 0.81758 0.29215 0.63399 0.0
H803 H 0.77789 0.13072 0.65504 0.0
H804 H 0.78299 0.17446 0.63756 0.0
H805 H 0.83302 0.26745 0.65287 0.0
H806 H 0.79422 0.40222 0.60947 0.0
H807 H 0.79536 0.35786 0.627 0.0
H808 H 0.7585 0.26457 0.61123 0.0
C809 C 0.78573 0.1807 0.64867 0.0
C810 C 0.81628 0.26666 0.64394 0.0
C811 C 0.78301 0.15552 0.65869 0.0
C812 C 0.79595 0.37698 0.6058 0.0
C813 C 0.79675 0.35165 0.61584 0.0
C814 C 0.77497 0.26531 0.62026 0.0
C815 C 0.79221 0.21332 0.65293 0.0
C816 C 0.79404 0.24032 0.64225 0.0
C817 C 0.79817 0.31858 0.61147 0.0
C818 C 0.79702 0.29162 0.62203 0.0
H819 H 0.79738 0.20059 0.68861 0.0
H820 H 0.80095 0.24476 0.67121 0.0
H821 H 0.75537 0.22069 0.62875 0.0
H822 H 0.80024 0.33023 0.57574 0.0
H823 H 0.80108 0.28604 0.59328 0.0
C824 C 0.15752 0.30898 0.92231 0.0
C825 C 0.16695 0.30493 0.93652 0.0
C826 C 0.18101 0.30964 0.91155 0.0
C827 C 0.27091 0.31464 0.90395 0.0
H828 H 0.24465 0.26753 0.86993 0.0
C829 C 0.3614 0.27383 0.85944 0.0
C830 C 0.35115 0.27954 0.8454 0.0
C831 C 0.33989 0.27916 0.87081 0.0
C832 C 0.25226 0.28104 0.8793 0.0
H833 H 0.2084 0.29976 0.95074 0.0
H834 H 0.24978 0.29984 0.93182 0.0
H835 H 0.20593 0.27348 0.88938 0.0
H836 H 0.31032 0.29555 0.83232 0.0
H837 H 0.27268 0.30438 0.85214 0.0
H838 H 0.31778 0.32116 0.89382 0.0
C839 C 0.22419 0.30318 0.929 0.0
C840 C 0.23 0.28463 0.89046 0.0
C841 C 0.20055 0.30311 0.93986 0.0
C842 C 0.31898 0.29084 0.84299 0.0
C843 C 0.29738 0.2958 0.85434 0.0
C844 C 0.29337 0.31071 0.89279 0.0
C845 C 0.21458 0.30551 0.91466 0.0
C846 C 0.23885 0.30175 0.9029 0.0
C847 C 0.30757 0.28993 0.86836 0.0
C848 C 0.28414 0.29406 0.88032 0.0
H849 H 0.13176 0.31087 0.91947 0.0
H850 H 0.1727 0.31261 0.90071 0.0
H851 H 0.27854 0.32817 0.9133 0.0
H852 H 0.38607 0.26526 0.86167 0.0
H853 H 0.34832 0.27419 0.88149 0.0
C854 C 0.29294 0.69265 0.17543 0.0
C855 C 0.28743 0.65911 0.17261 0.0
C856 C 0.29509 0.7154 0.16434 0.0
C857 C 0.27536 0.7252 0.12587 0.0
H858 H 0.3318 0.80187 0.12938 0.0
C859 C 0.30185 0.81407 0.07929 0.0
C860 C 0.29593 0.84752 0.08222 0.0
C861 C 0.30246 0.79092 0.09027 0.0
C862 C 0.31588 0.7806 0.1283 0.0
H863 H 0.28066 0.62296 0.15592 0.0
H864 H 0.2858 0.66224 0.13655 0.0
H865 H 0.33023 0.76133 0.14845 0.0
H866 H 0.28707 0.88306 0.09899 0.0
H867 H 0.28899 0.84262 0.11821 0.0
H868 H 0.26183 0.74428 0.1055 0.0
C869 C 0.28735 0.67135 0.14733 0.0
C870 C 0.31477 0.75741 0.13926 0.0
C871 C 0.28462 0.6487 0.15844 0.0
C872 C 0.29161 0.85746 0.0964 0.0
C873 C 0.29284 0.83438 0.1074 0.0
C874 C 0.27694 0.74809 0.11483 0.0
C875 C 0.29236 0.7051 0.15011 0.0
C876 C 0.29429 0.72946 0.13826 0.0
C877 C 0.29779 0.80083 0.10441 0.0
C878 C 0.29704 0.77611 0.11597 0.0
H879 H 0.29494 0.70148 0.18625 0.0
H880 H 0.29829 0.74116 0.16698 0.0
H881 H 0.25876 0.70449 0.12477 0.0
H882 H 0.30514 0.80561 0.06848 0.0
H883 H 0.30653 0.76523 0.0877 0.0
C884 C 0.85555 0.71556 0.90665 0.0
C885 C 0.84744 0.71189 0.92104 0.0
C886 C 0.83105 0.71545 0.89627 0.0
C887 C 0.74297 0.69358 0.89023 0.0
H888 H 0.75453 0.74879 0.85704 0.0
C889 C 0.64047 0.72104 0.84892 0.0
C890 C 0.64947 0.71637 0.83465 0.0
C891 C 0.66415 0.71957 0.85966 0.0
C892 C 0.7511 0.73313 0.86623 0.0
H893 H 0.80724 0.70547 0.93588 0.0
H894 H 0.76425 0.70662 0.91786 0.0
H895 H 0.7963 0.74887 0.87555 0.0
H896 H 0.69031 0.70659 0.82045 0.0
H897 H 0.73177 0.70482 0.83921 0.0
H898 H 0.69704 0.67884 0.88096 0.0
C899 C 0.78963 0.7086 0.91449 0.0
C900 C 0.77511 0.73298 0.87682 0.0
C901 C 0.81425 0.70814 0.92486 0.0
C902 C 0.6826 0.71019 0.83135 0.0
C903 C 0.70634 0.70934 0.84206 0.0
C904 C 0.71867 0.69419 0.87973 0.0
C905 C 0.79768 0.71228 0.90004 0.0
C906 C 0.77156 0.71298 0.88893 0.0
C907 C 0.69734 0.71404 0.8563 0.0
C908 C 0.72268 0.71376 0.86758 0.0
H909 H 0.88096 0.71813 0.90336 0.0
H910 H 0.8384 0.71754 0.88527 0.0
H911 H 0.73952 0.67746 0.89925 0.0
H912 H 0.6151 0.72574 0.8518 0.0
H913 H 0.65664 0.72344 0.87056 0.0
C914 C 0.72778 0.14011 0.10503 0.0
C915 C 0.72589 0.14817 0.09054 0.0
C916 C 0.72555 0.16474 0.11539 0.0
C917 C 0.7419 0.25205 0.12085 0.0
H918 H 0.68441 0.24455 0.15351 0.0
C919 C 0.72832 0.35892 0.16075 0.0
C920 C 0.7245 0.35108 0.17517 0.0
C921 C 0.72678 0.33429 0.15039 0.0
C922 C 0.70099 0.24688 0.14458 0.0
H923 H 0.71987 0.18835 0.0756 0.0
H924 H 0.71656 0.23127 0.0937 0.0
H925 H 0.68508 0.20084 0.13569 0.0
H926 H 0.71616 0.31122 0.19003 0.0
H927 H 0.7147 0.26813 0.17206 0.0
H928 H 0.75879 0.29734 0.12982 0.0
C929 C 0.71962 0.20591 0.09701 0.0
C930 C 0.70121 0.22187 0.13435 0.0
C931 C 0.72133 0.18129 0.08667 0.0
C932 C 0.71897 0.31809 0.17899 0.0
C933 C 0.71793 0.29338 0.16865 0.0
C934 C 0.74208 0.2768 0.13117 0.0
C935 C 0.72193 0.19792 0.11146 0.0
C936 C 0.72158 0.2243 0.12236 0.0
C937 C 0.7219 0.3011 0.15419 0.0
C938 C 0.72154 0.27466 0.14317 0.0
H939 H 0.73124 0.11482 0.10835 0.0
H940 H 0.72756 0.15795 0.12647 0.0
H941 H 0.75819 0.25431 0.1118 0.0
H942 H 0.73232 0.38416 0.15745 0.0
H943 H 0.72924 0.34139 0.13937 0.0
C944 C 0.95939 0.89788 0.31845 0.0
C945 C 0.93627 0.89205 0.30763 0.0
C946 C 0.97401 0.92888 0.31997 0.0
C947 C 0.99366 1.00304 0.29932 0.0
H948 H 0.0106 0.04255 0.3361 0.0
C949 C 0.04123 0.13523 0.32317 0.0
C950 C 0.06827 0.1406 0.31415 0.0
C951 C 0.0249 0.10485 0.32317 0.0
C952 C 1.00585 0.0319 0.32576 0.0
H953 H 0.90973 0.91454 0.29019 0.0
H954 H 0.93509 0.96858 0.2929 0.0
H955 H 0.98096 0.99016 0.33465 0.0
H956 H 0.09998 0.11786 0.2984 0.0
H957 H 0.07171 0.06505 0.29849 0.0
H958 H 0.01821 0.04474 0.2904 0.0
C959 C 0.94223 0.94906 0.30009 0.0
C960 C 0.98915 1.00179 0.32493 0.0
C961 C 0.92758 0.91811 0.29858 0.0
C962 C 0.07912 0.11469 0.30542 0.0
C963 C 0.06279 0.08444 0.3054 0.0
C964 C 0.01042 0.03299 0.30015 0.0
C965 C 0.96589 0.9547 0.31069 0.0
C966 C 0.98293 0.98701 0.31169 0.0
C967 C 0.03522 0.07931 0.31411 0.0
C968 C 0.01687 0.0477 0.31337 0.0
H969 H 0.96663 0.87835 0.32561 0.0
H970 H 0.99237 0.93236 0.32816 0.0
H971 H 0.98959 0.99215 0.28897 0.0
H972 H 0.03226 0.15469 0.33002 0.0
H973 H 1.00362 0.10169 0.32994 0.0
C974 C 0.88877 0.05022 0.69479 0.0
C975 C 0.88258 0.07177 0.70618 0.0
C976 C 0.91976 0.03588 0.69308 0.0
C977 C 0.99253 0.02159 0.68811 0.0
H978 H 0.03465 0.9875 0.72194 0.0
C979 C 0.1254 0.96917 0.68876 0.0
C980 C 0.13069 0.94087 0.69703 0.0
C981 C 0.09512 0.98551 0.68918 0.0
C982 C 0.02312 0.9967 0.71238 0.0
H983 H 0.90439 0.09583 0.72448 0.0
H984 H 0.95848 0.07094 0.72143 0.0
H985 H 0.98218 0.01598 0.72395 0.0
H986 H 0.10795 0.90698 0.7119 0.0
H987 H 0.05526 0.93527 0.71253 0.0
H988 H 0.03333 1.00169 0.67653 0.0
C989 C 0.93923 0.06482 0.71394 0.0
C990 C 0.99325 0.01339 0.71355 0.0
C991 C 0.90827 0.07921 0.71563 0.0
C992 C 0.10481 0.92881 0.70545 0.0
C993 C 0.07464 0.94515 0.70589 0.0
C994 C 0.02253 1.00496 0.68694 0.0
C995 C 0.94522 0.04272 0.70273 0.0
C996 C 0.97753 0.02591 0.70143 0.0
C997 C 0.06958 0.97392 0.69792 0.0
C998 C 0.03803 0.99214 0.69906 0.0
H999 H 0.86954 0.04396 0.68731 0.0
H1000 H 0.92349 0.01871 0.68442 0.0
H1001 H 0.98114 0.03119 0.67859 0.0
H1002 H 0.14483 0.97912 0.68216 0.0
H1003 H 0.09204 0.00774 0.68298 0.0
C1004 C 0.04367 0.37056 0.93515 0.0
C1005 C 0.02652 0.34463 0.94159 0.0
C1006 C 0.02915 0.40154 0.93379 0.0
C1007 C 0.95076 0.44872 0.93899 0.0
H1008 H 0.01167 0.51987 0.94717 0.0
C1009 C 0.91161 0.57906 0.95822 0.0
C1010 C 0.92752 0.60606 0.95187 0.0
C1011 C 0.92176 0.54682 0.95528 0.0
C1012 C 0.99439 0.50034 0.94471 0.0
H1013 H 0.98067 0.33002 0.95134 0.0
H1014 H 0.95537 0.38447 0.94944 0.0
H1015 H 0.03228 0.46412 0.94454 0.0
H1016 H 0.96635 0.62032 0.93732 0.0
H1017 H 0.98437 0.5641 0.93238 0.0
H1018 H 0.91272 0.48533 0.93984 0.0
C1019 C 0.97965 0.38086 0.94498 0.0
C1020 C 0.0062 0.46828 0.94309 0.0
C1021 C 0.99403 0.3496 0.94606 0.0
C1022 C 0.95359 0.60009 0.9424 0.0
C1023 C 0.96399 0.56792 0.93961 0.0
C1024 C 0.93888 0.48085 0.94079 0.0
C1025 C 0.99749 0.40756 0.93928 0.0
C1026 C 0.9846 0.44194 0.94021 0.0
C1027 C 0.9483 0.54096 0.94606 0.0
C1028 C 0.96062 0.50696 0.9437 0.0
H1029 H 0.06891 0.36721 0.93173 0.0
H1030 H 0.04334 0.42111 0.92896 0.0
H1031 H 0.93339 0.42924 0.93662 0.0
H1032 H 0.89136 0.5828 0.96552 0.0
H1033 H 0.9094 0.52653 0.9605 0.0
C1034 C 0.39117 0.96243 0.05326 0.0
C1035 C 0.38619 0.93679 0.04344 0.0
C1036 C 0.42158 0.97852 0.05413 0.0
C1037 C 0.49378 0.99525 0.05922 0.0
H1038 H 0.54127 0.01532 0.02461 0.0
C1039 C 0.62926 0.03931 0.05921 0.0
C1040 C 0.6384 0.06364 0.04935 0.0
C1041 C 0.59795 0.025 0.05873 0.0
C1042 C 0.52823 0.01018 0.03438 0.0
H1043 H 0.40948 0.90787 0.02688 0.0
H1044 H 0.46249 0.93569 0.02848 0.0
H1045 H 0.48771 0.9885 0.02326 0.0
H1046 H 0.62147 0.09236 0.03139 0.0
H1047 H 0.5668 0.0676 0.03064 0.0
H1048 H 0.53414 0.01735 0.07033 0.0
C1049 C 0.44276 0.94368 0.0354 0.0
C1050 C 0.49767 0.99441 0.03361 0.0
C1051 C 0.41239 0.92757 0.03454 0.0
C1052 C 0.61531 0.07361 0.03912 0.0
C1053 C 0.58401 0.05926 0.03863 0.0
C1054 C 0.52439 0.01097 0.05999 0.0
C1055 C 0.44775 0.96941 0.04518 0.0
C1056 C 0.48009 0.98663 0.04602 0.0
C1057 C 0.575 0.03462 0.04838 0.0
C1058 C 0.54206 0.01855 0.04758 0.0
H1059 H 0.37152 0.97024 0.06026 0.0
H1060 H 0.42442 0.99847 0.06168 0.0
H1061 H 0.48107 0.98939 0.069 0.0
H1062 H 0.64642 0.03096 0.06722 0.0
H1063 H 0.59201 1.00583 0.06629 0.0
C1064 C 0.45676 0.37705 0.8151 0.0
C1065 C 0.43113 0.36988 0.80556 0.0
C1066 C 0.47196 0.40797 0.81503 0.0
C1067 C 0.48696 0.47866 0.79149 0.0
H1068 H 0.51245 0.52348 0.82616 0.0
C1069 C 0.53769 0.61429 0.80991 0.0
C1070 C 0.56224 0.61916 0.79961 0.0
C1071 C 0.52211 0.58371 0.81123 0.0
C1072 C 0.50532 0.51134 0.81639 0.0
H1073 H 0.40076 0.38996 0.78874 0.0
H1074 H 0.42709 0.44389 0.7887 0.0
H1075 H 0.48293 0.47108 0.82748 0.0
H1076 H 0.59022 0.59545 0.78285 0.0
H1077 H 0.56321 0.54215 0.78525 0.0
H1078 H 0.50889 0.519 0.78039 0.0
C1079 C 0.43576 0.42544 0.7961 0.0
C1080 C 0.48869 0.4812 0.81715 0.0
C1081 C 0.42054 0.39458 0.79619 0.0
C1082 C 0.5713 0.59261 0.79086 0.0
C1083 C 0.55568 0.56209 0.79216 0.0
C1084 C 0.50365 0.50868 0.79074 0.0
C1085 C 0.46191 0.43237 0.80539 0.0
C1086 C 0.47928 0.46455 0.8047 0.0
C1087 C 0.53068 0.55738 0.80227 0.0
C1088 C 0.51307 0.52536 0.80317 0.0
H1089 H 0.46554 0.35858 0.82246 0.0
H1090 H 0.49221 0.41244 0.82224 0.0
H1091 H 0.48041 0.46629 0.7817 0.0
H1092 H 0.5301 0.63423 0.81682 0.0
H1093 H 0.50274 0.58096 0.81904 0.0
C1094 C 0.60317 0.43071 0.22068 0.0
C1095 C 0.62846 0.43942 0.21122 0.0
C1096 C 0.5727 0.44659 0.22012 0.0
C1097 C 0.52019 0.49934 0.22278 0.0
H1098 H 0.47882 0.52126 0.18695 0.0
C1099 C 0.40768 0.5854 0.21977 0.0
C1100 C 0.38198 0.57564 0.21072 0.0
C1101 C 0.43804 0.56929 0.21935 0.0
C1102 C 0.48997 0.51517 0.19704 0.0
H1103 H 0.64127 0.47117 0.19355 0.0
H1104 H 0.58825 0.49895 0.19265 0.0
H1105 H 0.5303 0.49038 0.18706 0.0
H1106 H 0.36831 0.54169 0.1939 0.0
H1107 H 0.42114 0.51352 0.19324 0.0
H1108 H 0.47964 0.52361 0.23278 0.0
C1109 C 0.59185 0.47965 0.20042 0.0
C1110 C 0.51962 0.49774 0.1971 0.0
C1111 C 0.62232 0.4638 0.20098 0.0
C1112 C 0.38758 0.54989 0.20102 0.0
C1113 C 0.41794 0.53381 0.20059 0.0
C1114 C 0.4906 0.51681 0.22272 0.0
C1115 C 0.56682 0.47151 0.21009 0.0
C1116 C 0.53505 0.4896 0.20997 0.0
C1117 C 0.44341 0.54309 0.20985 0.0
C1118 C 0.47514 0.52494 0.20985 0.0
H1119 H 0.60702 0.41196 0.22867 0.0
H1120 H 0.55375 0.43939 0.22758 0.0
H1121 H 0.53163 0.49383 0.23287 0.0
H1122 H 0.40425 0.60521 0.22734 0.0
H1123 H 0.45733 0.57736 0.22648 0.0
C1124 C 0.4509 0.14448 0.44364 0.0
C1125 C 0.47098 0.1717 0.44662 0.0
C1126 C 0.4639 0.11264 0.4437 0.0
C1127 C 0.54263 0.06459 0.44631 0.0
H1128 H 0.48418 0.99807 0.46174 0.0
C1129 C 0.58646 0.93894 0.46884 0.0
C1130 C 0.56956 0.91087 0.46396 0.0
C1131 C 0.57506 0.97056 0.46559 0.0
C1132 C 0.5007 0.01631 0.45731 0.0
H1133 H 0.52029 0.18748 0.45183 0.0
H1134 H 0.54306 0.13178 0.4525 0.0
H1135 H 0.46374 0.0535 0.45773 0.0
H1136 H 0.52725 0.89403 0.45196 0.0
H1137 H 0.50682 0.94936 0.44665 0.0
H1138 H 0.57997 0.02723 0.44661 0.0
C1139 C 0.5175 0.13479 0.4496 0.0
C1140 C 0.48896 0.04816 0.45488 0.0
C1141 C 0.50455 0.16679 0.44921 0.0
C1142 C 0.54081 0.91514 0.45588 0.0
C1143 C 0.52908 0.94678 0.45286 0.0
C1144 C 0.55451 0.03281 0.44899 0.0
C1145 C 0.49712 0.10715 0.44722 0.0
C1146 C 0.5097 0.07284 0.44932 0.0
C1147 C 0.5462 0.9748 0.45761 0.0
C1148 C 0.53363 0.00837 0.45451 0.0
H1149 H 0.42484 0.14779 0.44169 0.0
H1150 H 0.44755 0.09227 0.44137 0.0
H1151 H 0.5593 0.0826 0.44183 0.0
H1152 H 0.60879 0.93651 0.47501 0.0
H1153 H 0.58857 0.99174 0.46949 0.0
C1154 C 0.91035 0.44647 0.5394 0.0
C1155 C 0.8914 0.44674 0.55186 0.0
C1156 C 0.94328 0.45644 0.53966 0.0
C1157 C 1.00419 0.50199 0.56217 0.0
H1158 H 0.06593 0.46584 0.53492 0.0
C1159 C 0.14535 0.52916 0.56167 0.0
C1160 C 0.15565 0.54386 0.54892 0.0
C1161 C 0.11393 0.51511 0.56273 0.0
C1162 C 0.04891 0.47602 0.54261 0.0
H1163 H 0.89232 0.45674 0.57443 0.0
H1164 H 0.95011 0.47249 0.57508 0.0
H1165 H 0.00983 0.44465 0.53575 0.0
H1166 H 0.14169 0.55447 0.5272 0.0
H1167 H 0.08737 0.52886 0.52895 0.0
H1168 H 0.04406 0.53265 0.56922 0.0
C1169 C 0.93941 0.46586 0.56496 0.0
C1170 C 0.01661 0.46417 0.54302 0.0
C1171 C 0.90625 0.45658 0.56463 0.0
C1172 C 0.13435 0.54345 0.53718 0.0
C1173 C 0.10337 0.5287 0.53814 0.0
C1174 C 0.03673 0.51328 0.56195 0.0
C1175 C 0.95841 0.46624 0.55244 0.0
C1176 C 0.99353 0.47738 0.55263 0.0
C1177 C 0.09274 0.51475 0.55096 0.0
C1178 C 0.05919 0.50075 0.55203 0.0
H1179 H 0.8995 0.4393 0.52937 0.0
H1180 H 0.95659 0.45705 0.52972 0.0
H1181 H 0.98726 0.51333 0.56956 0.0
H1182 H 0.16122 0.52927 0.57089 0.0
H1183 H 0.1062 0.50444 0.57272 0.0
loop_
_geom_bond_atom_site_label_1
_geom_bond_atom_site_label_2
_geom_bond_distance
_geom_bond_site_symmetry_2
_ccdc_geom_bond_type
C0 O2 1.247 . S
C0 O4 1.258 . S
C1 O8 1.247 . S
C1 O9 1.258 . S
O2 C0 1.247 . S
O2 Zn3 2.028 . S
Zn3 O2 2.028 . S
Zn3 O7 2.035 . S
Zn3 O9 2.035 . S
Zn3 O10 2.028 . S
O4 C0 1.258 . S
O4 Zn5 2.035 . S
Zn5 O4 2.035 . S
Zn5 O6 2.028 . S
Zn5 O8 2.028 . S
Zn5 O11 2.035 . S
O6 Zn5 2.028 . S
O6 C12 1.247 . S
O7 Zn3 2.035 . S
O7 C12 1.258 . S
O8 C1 1.247 . S
O8 Zn5 2.028 . S
O9 C1 1.258 . S
O9 Zn3 2.035 . S
O10 Zn3 2.028 . S
O10 C13 1.247 . S
O11 Zn5 2.035 . S
O11 C13 1.258 . S
C12 O6 1.247 . S
C12 O7 1.258 . S
C13 O10 1.247 . S
C13 O11 1.258 . S
C14 O16 1.247 . S
C14 O18 1.258 . S
C15 O22 1.247 . S
C15 O23 1.258 . S
O16 C14 1.247 . S
O16 Zn17 2.028 . S
Zn17 O16 2.028 . S
Zn17 O21 2.035 . S
Zn17 O23 2.035 . S
Zn17 O24 2.028 . S
O18 C14 1.258 . S
O18 Zn19 2.035 . S
Zn19 O18 2.035 . S
Zn19 O20 2.028 . S
Zn19 O22 2.028 . S
Zn19 O25 2.035 . S
O20 Zn19 2.028 . S
O20 C26 1.247 . S
O21 Zn17 2.035 . S
O21 C26 1.258 . S
O22 C15 1.247 . S
O22 Zn19 2.028 . S
O23 C15 1.258 . S
O23 Zn17 2.035 . S
O24 Zn17 2.028 . S
O24 C27 1.247 . S
O25 Zn19 2.035 . S
O25 C27 1.258 . S
C26 O20 1.247 . S
C26 O21 1.258 . S
C27 O24 1.247 . S
C27 O25 1.258 . S
C28 O30 1.247 . S
C28 O32 1.258 . S
C29 O36 1.247 . S
C29 O37 1.258 . S
O30 C28 1.247 . S
O30 Zn31 2.028 . S
Zn31 O30 2.028 . S
Zn31 O35 2.035 . S
Zn31 O37 2.035 . S
Zn31 O38 2.028 . S
O32 C28 1.258 . S
O32 Zn33 2.035 . S
Zn33 O32 2.035 . S
Zn33 O34 2.028 . S
Zn33 O36 2.028 . S
Zn33 O39 2.035 . S
O34 Zn33 2.028 . S
O34 C40 1.247 . S
O35 Zn31 2.035 . S
O35 C40 1.258 . S
O36 C29 1.247 . S
O36 Zn33 2.028 . S
O37 C29 1.258 . S
O37 Zn31 2.035 . S
O38 Zn31 2.028 . S
O38 C41 1.247 . S
O39 Zn33 2.035 . S
O39 C41 1.258 . S
C40 O34 1.247 . S
C40 O35 1.258 . S
C41 O38 1.247 . S
C41 O39 1.258 . S
C42 O44 1.247 . S
C42 O46 1.258 . S
C43 O50 1.247 . S
C43 O51 1.258 . S
O44 C42 1.247 . S
O44 Zn45 2.028 . S
Zn45 O44 2.028 . S
Zn45 O49 2.035 . S
Zn45 O51 2.035 . S
Zn45 O52 2.028 . S
O46 C42 1.258 . S
O46 Zn47 2.035 . S
Zn47 O46 2.035 . S
Zn47 O48 2.028 . S
Zn47 O50 2.028 . S
Zn47 O53 2.035 . S
O48 Zn47 2.028 . S
O48 C54 1.247 . S
O49 Zn45 2.035 . S
O49 C54 1.258 . S
O50 C43 1.247 . S
O50 Zn47 2.028 . S
O51 C43 1.258 . S
O51 Zn45 2.035 . S
O52 Zn45 2.028 . S
O52 C55 1.247 . S
O53 Zn47 2.035 . S
O53 C55 1.258 . S
C54 O48 1.247 . S
C54 O49 1.258 . S
C55 O52 1.247 . S
C55 O53 1.258 . S
C56 O58 1.247 . S
C56 O60 1.258 . S
C57 O64 1.247 . S
C57 O65 1.258 . S
O58 C56 1.247 . S
O58 Zn59 2.028 . S
Zn59 O58 2.028 . S
Zn59 O63 2.035 . S
Zn59 O65 2.035 . S
Zn59 O66 2.028 . S
O60 C56 1.258 . S
O60 Zn61 2.035 . S
Zn61 O60 2.035 . S
Zn61 O62 2.028 . S
Zn61 O64 2.028 . S
Zn61 O67 2.035 . S
O62 Zn61 2.028 . S
O62 C68 1.247 . S
O63 Zn59 2.035 . S
O63 C68 1.258 . S
O64 C57 1.247 . S
O64 Zn61 2.028 . S
O65 C57 1.258 . S
O65 Zn59 2.035 . S
O66 Zn59 2.028 . S
O66 C69 1.247 . S
O67 Zn61 2.035 . S
O67 C69 1.258 . S
C68 O62 1.247 . S
C68 O63 1.258 . S
C69 O66 1.247 . S
C69 O67 1.258 . S
C70 O72 1.247 . S
C70 O74 1.258 . S
C71 O78 1.247 . S
C71 O79 1.258 . S
O72 C70 1.247 . S
O72 Zn73 2.028 . S
Zn73 O72 2.028 . S
Zn73 O77 2.035 . S
Zn73 O79 2.035 . S
Zn73 O80 2.028 . S
O74 C70 1.258 . S
O74 Zn75 2.035 . S
Zn75 O74 2.035 . S
Zn75 O76 2.028 . S
Zn75 O78 2.028 . S
Zn75 O81 2.035 . S
O76 Zn75 2.028 . S
O76 C82 1.247 . S
O77 Zn73 2.035 . S
O77 C82 1.258 . S
O78 C71 1.247 . S
O78 Zn75 2.028 . S
O79 C71 1.258 . S
O79 Zn73 2.035 . S
O80 Zn73 2.028 . S
O80 C83 1.247 . S
O81 Zn75 2.035 . S
O81 C83 1.258 . S
C82 O76 1.247 . S
C82 O77 1.258 . S
C83 O80 1.247 . S
C83 O81 1.258 . S
C84 O86 1.247 . S
C84 O88 1.258 . S
C85 O92 1.247 . S
C85 O93 1.258 . S
O86 C84 1.247 . S
O86 Zn87 2.028 . S
Zn87 O86 2.028 . S
Zn87 O91 2.035 . S
Zn87 O93 2.035 . S
Zn87 O94 2.028 . S
O88 C84 1.258 . S
O88 Zn89 2.035 . S
Zn89 O88 2.035 . S
Zn89 O90 2.028 . S
Zn89 O92 2.028 . S
Zn89 O95 2.035 . S
O90 Zn89 2.028 . S
O90 C96 1.247 . S
O91 Zn87 2.035 . S
O91 C96 1.258 . S
O92 C85 1.247 . S
O92 Zn89 2.028 . S
O93 C85 1.258 . S
O93 Zn87 2.035 . S
O94 Zn87 2.028 . S
O94 C97 1.247 . S
O95 Zn89 2.035 . S
O95 C97 1.258 . S
C96 O90 1.247 . S
C96 O91 1.258 . S
C97 O94 1.247 . S
C97 O95 1.258 . S
C98 O100 1.247 . S
C98 O102 1.258 . S
C99 O106 1.247 . S
C99 O107 1.258 . S
O100 C98 1.247 . S
O100 Zn101 2.028 . S
Zn101 O100 2.028 . S
Zn101 O105 2.035 . S
Zn101 O107 2.035 . S
Zn101 O108 2.028 . S
O102 C98 1.258 . S
O102 Zn103 2.035 . S
Zn103 O102 2.035 . S
Zn103 O104 2.028 . S
Zn103 O106 2.028 . S
Zn103 O109 2.035 . S
O104 Zn103 2.028 . S
O104 C110 1.247 . S
O105 Zn101 2.035 . S
O105 C110 1.258 . S
O106 C99 1.247 . S
O106 Zn103 2.028 . S
O107 C99 1.258 . S
O107 Zn101 2.035 . S
O108 Zn101 2.028 . S
O108 C111 1.247 . S
O109 Zn103 2.035 . S
O109 C111 1.258 . S
C110 O104 1.247 . S
C110 O105 1.258 . S
C111 O108 1.247 . S
C111 O109 1.258 . S
C112 O114 1.247 . S
C112 O116 1.258 . S
C113 O120 1.247 . S
C113 O121 1.258 . S
O114 C112 1.247 . S
O114 Zn115 2.028 . S
Zn115 O114 2.028 . S
Zn115 O119 2.035 . S
Zn115 O121 2.035 . S
Zn115 O122 2.028 . S
O116 C112 1.258 . S
O116 Zn117 2.035 . S
Zn117 O116 2.035 . S
Zn117 O118 2.028 . S
Zn117 O120 2.028 . S
Zn117 O123 2.035 . S
O118 Zn117 2.028 . S
O118 C124 1.247 . S
O119 Zn115 2.035 . S
O119 C124 1.258 . S
O120 C113 1.247 . S
O120 Zn117 2.028 . S
O121 C113 1.258 . S
O121 Zn115 2.035 . S
O122 Zn115 2.028 . S
O122 C125 1.247 . S
O123 Zn117 2.035 . S
O123 C125 1.258 . S
C124 O118 1.247 . S
C124 O119 1.258 . S
C125 O122 1.247 . S
C125 O123 1.258 . S
C126 O128 1.247 . S
C126 O130 1.258 . S
C127 O134 1.247 . S
C127 O135 1.258 . S
O128 C126 1.247 . S
O128 Zn129 2.028 . S
Zn129 O128 2.028 . S
Zn129 O133 2.035 . S
Zn129 O135 2.035 . S
Zn129 O136 2.028 . S
O130 C126 1.258 . S
O130 Zn131 2.035 . S
Zn131 O130 2.035 . S
Zn131 O132 2.028 . S
Zn131 O134 2.028 . S
Zn131 O137 2.035 . S
O132 Zn131 2.028 . S
O132 C138 1.247 . S
O133 Zn129 2.035 . S
O133 C138 1.258 . S
O134 C127 1.247 . S
O134 Zn131 2.028 . S
O135 C127 1.258 . S
O135 Zn129 2.035 . S
O136 Zn129 2.028 . S
O136 C139 1.247 . S
O137 Zn131 2.035 . S
O137 C139 1.258 . S
C138 O132 1.247 . S
C138 O133 1.258 . S
C139 O136 1.247 . S
C139 O137 1.258 . S
C140 O142 1.247 . S
C140 O144 1.258 . S
C141 O148 1.247 . S
C141 O149 1.258 . S
O142 C140 1.247 . S
O142 Zn143 2.028 . S
Zn143 O142 2.028 . S
Zn143 O147 2.035 . S
Zn143 O149 2.035 . S
Zn143 O150 2.028 . S
O144 C140 1.258 . S
O144 Zn145 2.035 . S
Zn145 O144 2.035 . S
Zn145 O146 2.028 . S
Zn145 O148 2.028 . S
Zn145 O151 2.035 . S
O146 Zn145 2.028 . S
O146 C152 1.247 . S
O147 Zn143 2.035 . S
O147 C152 1.258 . S
O148 C141 1.247 . S
O148 Zn145 2.028 . S
O149 C141 1.258 . S
O149 Zn143 2.035 . S
O150 Zn143 2.028 . S
O150 C153 1.247 . S
O151 Zn145 2.035 . S
O151 C153 1.258 . S
C152 O146 1.247 . S
C152 O147 1.258 . S
C153 O150 1.247 . S
C153 O151 1.258 . S
C154 O156 1.247 . S
C154 O158 1.258 . S
C155 O162 1.247 . S
C155 O163 1.258 . S
O156 C154 1.247 . S
O156 Zn157 2.028 . S
Zn157 O156 2.028 . S
Zn157 O161 2.035 . S
Zn157 O163 2.035 . S
Zn157 O164 2.028 . S
O158 C154 1.258 . S
O158 Zn159 2.035 . S
Zn159 O158 2.035 . S
Zn159 O160 2.028 . S
Zn159 O162 2.028 . S
Zn159 O165 2.035 . S
O160 Zn159 2.028 . S
O160 C166 1.247 . S
O161 Zn157 2.035 . S
O161 C166 1.258 . S
O162 C155 1.247 . S
O162 Zn159 2.028 . S
O163 C155 1.258 . S
O163 Zn157 2.035 . S
O164 Zn157 2.028 . S
O164 C167 1.247 . S
O165 Zn159 2.035 . S
O165 C167 1.258 . S
C166 O160 1.247 . S
C166 O161 1.258 . S
C167 O164 1.247 . S
C167 O165 1.258 . S
C168 O170 1.247 . S
C168 O172 1.258 . S
C169 O176 1.247 . S
C169 O177 1.258 . S
O170 C168 1.247 . S
O170 Zn171 2.028 . S
Zn171 O170 2.028 . S
Zn171 O175 2.035 . S
Zn171 O177 2.035 . S
Zn171 O178 2.028 . S
O172 C168 1.258 . S
O172 Zn173 2.035 . S
Zn173 O172 2.035 . S
Zn173 O174 2.028 . S
Zn173 O176 2.028 . S
Zn173 O179 2.035 . S
O174 Zn173 2.028 . S
O174 C180 1.247 . S
O175 Zn171 2.035 . S
O175 C180 1.258 . S
O176 C169 1.247 . S
O176 Zn173 2.028 . S
O177 C169 1.258 . S
O177 Zn171 2.035 . S
O178 Zn171 2.028 . S
O178 C181 1.247 . S
O179 Zn173 2.035 . S
O179 C181 1.258 . S
C180 O174 1.247 . S
C180 O175 1.258 . S
C181 O178 1.247 . S
C181 O179 1.258 . S
C182 O184 1.247 . S
C182 O186 1.258 . S
C183 O190 1.247 . S
C183 O191 1.258 . S
O184 C182 1.247 . S
O184 Zn185 2.028 . S
Zn185 O184 2.028 . S
Zn185 O189 2.035 . S
Zn185 O191 2.035 . S
Zn185 O192 2.028 . S
O186 C182 1.258 . S
O186 Zn187 2.035 . S
Zn187 O186 2.035 . S
Zn187 O188 2.028 . S
Zn187 O190 2.028 . S
Zn187 O193 2.035 . S
O188 Zn187 2.028 . S
O188 C194 1.247 . S
O189 Zn185 2.035 . S
O189 C194 1.258 . S
O190 C183 1.247 . S
O190 Zn187 2.028 . S
O191 C183 1.258 . S
O191 Zn185 2.035 . S
O192 Zn185 2.028 . S
O192 C195 1.247 . S
O193 Zn187 2.035 . S
O193 C195 1.258 . S
C194 O188 1.247 . S
C194 O189 1.258 . S
C195 O192 1.247 . S
C195 O193 1.258 . S
C196 O198 1.247 . S
C196 O200 1.258 . S
C197 O204 1.247 . S
C197 O205 1.258 . S
O198 C196 1.247 . S
O198 Zn199 2.028 . S
Zn199 O198 2.028 . S
Zn199 O203 2.035 . S
Zn199 O205 2.035 . S
Zn199 O206 2.028 . S
O200 C196 1.258 . S
O200 Zn201 2.035 . S
Zn201 O200 2.035 . S
Zn201 O202 2.028 . S
Zn201 O204 2.028 . S
Zn201 O207 2.035 . S
O202 Zn201 2.028 . S
O202 C208 1.247 . S
O203 Zn199 2.035 . S
O203 C208 1.258 . S
O204 C197 1.247 . S
O204 Zn201 2.028 . S
O205 C197 1.258 . S
O205 Zn199 2.035 . S
O206 Zn199 2.028 . S
O206 C209 1.247 . S
O207 Zn201 2.035 . S
O207 C209 1.258 . S
C208 O202 1.247 . S
C208 O203 1.258 . S
C209 O206 1.247 . S
C209 O207 1.258 . S
C210 O212 1.247 . S
C210 O214 1.258 . S
C211 O218 1.247 . S
C211 O219 1.258 . S
O212 C210 1.247 . S
O212 Zn213 2.028 . S
Zn213 O212 2.028 . S
Zn213 O217 2.035 . S
Zn213 O219 2.035 . S
Zn213 O220 2.028 . S
O214 C210 1.258 . S
O214 Zn215 2.035 . S
Zn215 O214 2.035 . S
Zn215 O216 2.028 . S
Zn215 O218 2.028 . S
Zn215 O221 2.035 . S
O216 Zn215 2.028 . S
O216 C222 1.247 . S
O217 Zn213 2.035 . S
O217 C222 1.258 . S
O218 C211 1.247 . S
O218 Zn215 2.028 . S
O219 C211 1.258 . S
O219 Zn213 2.035 . S
O220 Zn213 2.028 . S
O220 C223 1.247 . S
O221 Zn215 2.035 . S
O221 C223 1.258 . S
C222 O216 1.247 . S
C222 O217 1.258 . S
C223 O220 1.247 . S
C223 O221 1.258 . S
C224 C225 1.349 . S
C224 C226 1.327 . S
C224 H249 0.950 . S
C225 C224 1.349 . S
C225 C241 1.349 . S
C226 C224 1.327 . S
C226 C245 1.429 . S
C226 H250 0.950 . S
C227 C244 1.574 . S
C227 C246 1.368 . S
C227 H251 0.949 . S
H228 C232 0.949 . S
C229 C230 1.349 . S
C229 C231 1.327 . S
C229 H252 0.950 . S
C230 C229 1.349 . S
C230 C242 1.349 . S
C231 C229 1.327 . S
C231 C247 1.429 . S
C231 H253 0.950 . S
C232 H228 0.949 . S
C232 C240 1.574 . S
C232 C248 1.368 . S
H233 C241 0.950 . S
H234 C239 0.950 . S
H235 C240 0.949 . S
H236 C242 0.950 . S
H237 C243 0.950 . S
H238 C244 0.949 . S
C239 H234 0.950 . S
C239 C241 1.327 . S
C239 C245 1.429 . S
C240 C232 1.574 . S
C240 H235 0.949 . S
C240 C246 1.368 . S
C241 C225 1.349 . S
C241 H233 0.950 . S
C241 C239 1.327 . S
C242 C230 1.349 . S
C242 H236 0.950 . S
C242 C243 1.327 . S
C243 H237 0.950 . S
C243 C242 1.327 . S
C243 C247 1.429 . S
C244 C227 1.574 . S
C244 H238 0.949 . S
C244 C248 1.368 . S
C245 C226 1.429 . S
C245 C239 1.429 . S
C245 C246 1.523 . S
C246 C227 1.368 . S
C246 C240 1.368 . S
C246 C245 1.523 . S
C247 C231 1.429 . S
C247 C243 1.429 . S
C247 C248 1.523 . S
C248 C232 1.368 . S
C248 C244 1.368 . S
C248 C247 1.523 . S
H249 C224 0.950 . S
H250 C226 0.950 . S
H251 C227 0.949 . S
H252 C229 0.950 . S
H253 C231 0.950 . S
C254 C255 1.349 . S
C254 C256 1.327 . S
C254 H279 0.950 . S
C255 C254 1.349 . S
C255 C271 1.349 . S
C256 C254 1.327 . S
C256 C275 1.429 . S
C256 H280 0.950 . S
C257 C274 1.574 . S
C257 C276 1.368 . S
C257 H281 0.949 . S
H258 C262 0.949 . S
C259 C260 1.349 . S
C259 C261 1.327 . S
C259 H282 0.950 . S
C260 C259 1.349 . S
C260 C272 1.349 . S
C261 C259 1.327 . S
C261 C277 1.429 . S
C261 H283 0.950 . S
C262 H258 0.949 . S
C262 C270 1.574 . S
C262 C278 1.368 . S
H263 C271 0.950 . S
H264 C269 0.950 . S
H265 C270 0.949 . S
H266 C272 0.950 . S
H267 C273 0.950 . S
H268 C274 0.949 . S
C269 H264 0.950 . S
C269 C271 1.327 . S
C269 C275 1.429 . S
C270 C262 1.574 . S
C270 H265 0.949 . S
C270 C276 1.368 . S
C271 C255 1.349 . S
C271 H263 0.950 . S
C271 C269 1.327 . S
C272 C260 1.349 . S
C272 H266 0.950 . S
C272 C273 1.327 . S
C273 H267 0.950 . S
C273 C272 1.327 . S
C273 C277 1.429 . S
C274 C257 1.574 . S
C274 H268 0.949 . S
C274 C278 1.368 . S
C275 C256 1.429 . S
C275 C269 1.429 . S
C275 C276 1.523 . S
C276 C257 1.368 . S
C276 C270 1.368 . S
C276 C275 1.523 . S
C277 C261 1.429 . S
C277 C273 1.429 . S
C277 C278 1.523 . S
C278 C262 1.368 . S
C278 C274 1.368 . S
C278 C277 1.523 . S
H279 C254 0.950 . S
H280 C256 0.950 . S
H281 C257 0.949 . S
H282 C259 0.950 . S
H283 C261 0.950 . S
C284 C285 1.349 . S
C284 C286 1.327 . S
C284 H309 0.950 . S
C285 C284 1.349 . S
C285 C301 1.349 . S
C286 C284 1.327 . S
C286 C305 1.429 . S
C286 H310 0.950 . S
C287 C304 1.574 . S
C287 C306 1.368 . S
C287 H311 0.949 . S
H288 C292 0.949 . S
C289 C290 1.349 . S
C289 C291 1.327 . S
C289 H312 0.950 . S
C290 C289 1.349 . S
C290 C302 1.349 . S
C291 C289 1.327 . S
C291 C307 1.429 . S
C291 H313 0.950 . S
C292 H288 0.949 . S
C292 C300 1.574 . S
C292 C308 1.368 . S
H293 C301 0.950 . S
H294 C299 0.950 . S
H295 C300 0.949 . S
H296 C302 0.950 . S
H297 C303 0.950 . S
H298 C304 0.949 . S
C299 H294 0.950 . S
C299 C301 1.327 . S
C299 C305 1.429 . S
C300 C292 1.574 . S
C300 H295 0.949 . S
C300 C306 1.368 . S
C301 C285 1.349 . S
C301 H293 0.950 . S
C301 C299 1.327 . S
C302 C290 1.349 . S
C302 H296 0.950 . S
C302 C303 1.327 . S
C303 H297 0.950 . S
C303 C302 1.327 . S
C303 C307 1.429 . S
C304 C287 1.574 . S
C304 H298 0.949 . S
C304 C308 1.368 . S
C305 C286 1.429 . S
C305 C299 1.429 . S
C305 C306 1.523 . S
C306 C287 1.368 . S
C306 C300 1.368 . S
C306 C305 1.523 . S
C307 C291 1.429 . S
C307 C303 1.429 . S
C307 C308 1.523 . S
C308 C292 1.368 . S
C308 C304 1.368 . S
C308 C307 1.523 . S
H309 C284 0.950 . S
H310 C286 0.950 . S
H311 C287 0.949 . S
H312 C289 0.950 . S
H313 C291 0.950 . S
C314 C315 1.349 . S
C314 C316 1.327 . S
C314 H339 0.950 . S
C315 C314 1.349 . S
C315 C331 1.349 . S
C316 C314 1.327 . S
C316 C335 1.429 . S
C316 H340 0.950 . S
C317 C334 1.574 . S
C317 C336 1.368 . S
C317 H341 0.949 . S
H318 C322 0.949 . S
C319 C320 1.349 . S
C319 C321 1.327 . S
C319 H342 0.950 . S
C320 C319 1.349 . S
C320 C332 1.349 . S
C321 C319 1.327 . S
C321 C337 1.429 . S
C321 H343 0.950 . S
C322 H318 0.949 . S
C322 C330 1.574 . S
C322 C338 1.368 . S
H323 C331 0.950 . S
H324 C329 0.950 . S
H325 C330 0.949 . S
H326 C332 0.950 . S
H327 C333 0.950 . S
H328 C334 0.949 . S
C329 H324 0.950 . S
C329 C331 1.327 . S
C329 C335 1.429 . S
C330 C322 1.574 . S
C330 H325 0.949 . S
C330 C336 1.368 . S
C331 C315 1.349 . S
C331 H323 0.950 . S
C331 C329 1.327 . S
C332 C320 1.349 . S
C332 H326 0.950 . S
C332 C333 1.327 . S
C333 H327 0.950 . S
C333 C332 1.327 . S
C333 C337 1.429 . S
C334 C317 1.574 . S
C334 H328 0.949 . S
C334 C338 1.368 . S
C335 C316 1.429 . S
C335 C329 1.429 . S
C335 C336 1.523 . S
C336 C317 1.368 . S
C336 C330 1.368 . S
C336 C335 1.523 . S
C337 C321 1.429 . S
C337 C333 1.429 . S
C337 C338 1.523 . S
C338 C322 1.368 . S
C338 C334 1.368 . S
C338 C337 1.523 . S
H339 C314 0.950 . S
H340 C316 0.950 . S
H341 C317 0.949 . S
H342 C319 0.950 . S
H343 C321 0.950 . S
C344 C345 1.349 . S
C344 C346 1.327 1_565 S
C344 H369 0.950 . S
C345 C344 1.349 . S
C345 C361 1.349 1_565 S
C346 C344 1.327 1_545 S
C346 C365 1.429 . S
C346 H370 0.919 1_554 S
C347 C364 1.574 1_554 S
C347 C366 1.368 . S
C347 H371 0.949 . S
H348 C352 0.949 . S
C349 C350 1.349 . S
C349 C351 1.327 . S
C349 H372 0.950 . S
C350 C349 1.349 . S
C350 C362 1.349 . S
C351 C349 1.327 . S
C351 C367 1.429 . S
C351 H373 0.950 . S
C352 H348 0.949 . S
C352 C360 1.574 . S
C352 C368 1.368 . S
H353 C361 0.950 . S
H354 C359 0.950 . S
H355 C360 0.949 . S
H356 C362 0.950 . S
H357 C363 0.950 . S
H358 C364 0.949 . S
C359 H354 0.950 . S
C359 C361 1.327 . S
C359 C365 1.429 . S
C360 C352 1.574 . S
C360 H355 0.949 . S
C360 C366 1.368 1_556 S
C361 C345 1.349 1_545 S
C361 H353 0.950 . S
C361 C359 1.327 . S
C362 C350 1.349 . S
C362 H356 0.950 . S
C362 C363 1.327 . S
C363 H357 0.950 . S
C363 C362 1.327 . S
C363 C367 1.429 . S
C364 C347 1.574 1_556 S
C364 H358 0.949 . S
C364 C368 1.368 . S
C365 C346 1.429 . S
C365 C359 1.429 . S
C365 C366 1.523 . S
C366 C347 1.368 . S
C366 C360 1.368 1_554 S
C366 C365 1.523 . S
C367 C351 1.429 . S
C367 C363 1.429 . S
C367 C368 1.523 . S
C368 C352 1.368 . S
C368 C364 1.368 . S
C368 C367 1.523 . S
H369 C344 0.950 . S
H370 C346 0.919 1_556 S
H371 C347 0.949 . S
H372 C349 0.950 . S
H373 C351 0.950 . S
C374 C375 1.349 . S
C374 C376 1.327 . S
C374 H399 0.950 . S
C375 C374 1.349 . S
C375 C391 1.349 . S
C376 C374 1.327 . S
C376 C395 1.429 . S
C376 H400 0.950 . S
C377 C394 1.574 . S
C377 C396 1.368 . S
C377 H401 0.949 . S
H378 C382 0.949 1_556 S
C379 C380 1.349 . S
C379 C381 1.327 1_655 S
C379 H402 0.950 . S
C380 C379 1.349 . S
C380 C392 1.349 1_655 S
C381 C379 1.327 1_455 S
C381 C397 1.429 . S
C381 H403 0.950 . S
C382 H378 0.949 1_554 S
C382 C390 1.574 . S
C382 C398 1.368 1_554 S
H383 C391 0.950 . S
H384 C389 0.950 . S
H385 C390 0.949 . S
H386 C392 0.950 . S
H387 C393 0.950 . S
H388 C394 0.939 1_556 S
C389 H384 0.950 . S
C389 C391 1.327 . S
C389 C395 1.429 . S
C390 C382 1.574 . S
C390 H385 0.949 . S
C390 C396 1.368 . S
C391 C375 1.349 . S
C391 H383 0.950 . S
C391 C389 1.327 . S
C392 C380 1.349 1_455 S
C392 H386 0.950 . S
C392 C393 1.327 . S
C393 H387 0.950 . S
C393 C392 1.327 . S
C393 C397 1.429 . S
C394 C377 1.574 . S
C394 H388 0.939 1_554 S
C394 C398 1.368 1_554 S
C395 C376 1.429 . S
C395 C389 1.429 . S
C395 C396 1.523 . S
C396 C377 1.368 . S
C396 C390 1.368 . S
C396 C395 1.523 . S
C397 C381 1.429 . S
C397 C393 1.429 . S
C397 C398 1.523 . S
C398 C382 1.368 1_556 S
C398 C394 1.368 1_556 S
C398 C397 1.523 . S
H399 C374 0.950 . S
H400 C376 0.950 . S
H401 C377 0.949 . S
H402 C379 0.950 . S
H403 C381 0.950 . S
C404 C405 1.349 . S
C404 C406 1.327 . S
C404 H429 0.950 . S
C405 C404 1.349 . S
C405 C421 1.349 . S
C406 C404 1.327 . S
C406 C425 1.429 . S
C406 H430 0.950 . S
C407 C424 1.571 . S
C407 C426 1.373 1_554 S
C407 H431 0.947 . S
H408 C412 0.949 . S
C409 C410 1.349 1_565 S
C409 C411 1.327 . S
C409 H432 0.950 . S
C410 C409 1.349 1_545 S
C410 C422 1.349 . S
C411 C409 1.327 . S
C411 C427 1.429 . S
C411 H433 0.950 . S
C412 H408 0.949 . S
C412 C420 1.574 . S
C412 C428 1.368 1_556 S
H413 C421 0.950 . S
H414 C419 0.950 . S
H415 C420 0.949 . S
H416 C422 0.950 . S
H417 C423 0.950 1_556 S
H418 C424 0.949 . S
C419 H414 0.950 . S
C419 C421 1.327 . S
C419 C425 1.429 . S
C420 C412 1.574 . S
C420 H415 0.949 . S
C420 C426 1.368 . S
C421 C405 1.349 . S
C421 H413 0.950 . S
C421 C419 1.327 . S
C422 C410 1.349 . S
C422 H416 0.950 . S
C422 C423 1.327 1_545 S
C423 H417 0.950 1_554 S
C423 C422 1.327 1_565 S
C423 C427 1.429 . S
C424 C407 1.571 . S
C424 H418 0.949 . S
C424 C428 1.368 . S
C425 C406 1.429 . S
C425 C419 1.429 . S
C425 C426 1.523 . S
C426 C407 1.373 1_556 S
C426 C420 1.368 . S
C426 C425 1.523 . S
C427 C411 1.429 . S
C427 C423 1.429 . S
C427 C428 1.523 . S
C428 C412 1.368 1_554 S
C428 C424 1.368 . S
C428 C427 1.523 . S
H429 C404 0.950 . S
H430 C406 0.950 . S
H431 C407 0.947 . S
H432 C409 0.950 . S
H433 C411 0.950 . S
C434 C435 1.349 . S
C434 C436 1.327 . S
C434 H459 0.950 . S
C435 C434 1.349 . S
C435 C451 1.349 . S
C436 C434 1.327 . S
C436 C455 1.429 . S
C436 H460 0.950 . S
C437 C454 1.574 . S
C437 C456 1.368 . S
C437 H461 0.949 . S
H438 C442 0.949 . S
C439 C440 1.349 . S
C439 C441 1.327 1_455 S
C439 H462 0.950 . S
C440 C439 1.349 . S
C440 C452 1.349 1_455 S
C441 C439 1.327 1_655 S
C441 C457 1.429 . S
C441 H463 0.929 1_556 S
C442 H438 0.949 . S
C442 C450 1.574 1_556 S
C442 C458 1.368 . S
H443 C451 0.950 . S
H444 C449 0.950 . S
H445 C450 0.949 . S
H446 C452 0.950 . S
H447 C453 0.950 . S
H448 C454 0.949 . S
C449 H444 0.950 . S
C449 C451 1.327 . S
C449 C455 1.429 . S
C450 C442 1.574 1_554 S
C450 H445 0.949 . S
C450 C456 1.368 . S
C451 C435 1.349 . S
C451 H443 0.950 . S
C451 C449 1.327 . S
C452 C440 1.349 1_655 S
C452 H446 0.950 . S
C452 C453 1.327 . S
C453 H447 0.950 . S
C453 C452 1.327 . S
C453 C457 1.429 . S
C454 C437 1.574 . S
C454 H448 0.949 . S
C454 C458 1.368 1_554 S
C455 C436 1.429 . S
C455 C449 1.429 . S
C455 C456 1.523 . S
C456 C437 1.368 . S
C456 C450 1.368 . S
C456 C455 1.523 . S
C457 C441 1.429 . S
C457 C453 1.429 . S
C457 C458 1.523 . S
C458 C442 1.368 . S
C458 C454 1.368 1_556 S
C458 C457 1.523 . S
H459 C434 0.950 . S
H460 C436 0.950 . S
H461 C437 0.949 . S
H462 C439 0.950 . S
H463 C441 0.929 1_554 S
C464 C465 1.349 . S
C464 C466 1.327 . S
C464 H489 0.950 . S
C465 C464 1.349 . S
C465 C481 1.349 . S
C466 C464 1.327 . S
C466 C485 1.429 . S
C466 H490 0.950 . S
C467 C484 1.574 . S
C467 C486 1.368 . S
C467 H491 0.949 . S
H468 C472 0.949 . S
C469 C470 1.349 . S
C469 C471 1.327 1_545 S
C469 H492 0.950 . S
C470 C469 1.349 . S
C470 C482 1.349 1_545 S
C471 C469 1.327 1_565 S
C471 C487 1.429 . S
C471 H493 0.950 . S
C472 H468 0.949 . S
C472 C480 1.574 . S
C472 C488 1.368 . S
H473 C481 0.950 . S
H474 C479 0.950 . S
H475 C480 0.949 . S
H476 C482 0.950 . S
H477 C483 0.950 . S
H478 C484 0.949 . S
C479 H474 0.950 . S
C479 C481 1.327 . S
C479 C485 1.429 . S
C480 C472 1.574 . S
C480 H475 0.949 . S
C480 C486 1.368 . S
C481 C465 1.349 . S
C481 H473 0.950 . S
C481 C479 1.327 . S
C482 C470 1.349 1_565 S
C482 H476 0.950 . S
C482 C483 1.327 . S
C483 H477 0.950 . S
C483 C482 1.327 . S
C483 C487 1.429 . S
C484 C467 1.574 . S
C484 H478 0.949 . S
C484 C488 1.368 . S
C485 C466 1.429 . S
C485 C479 1.429 . S
C485 C486 1.523 . S
C486 C467 1.368 . S
C486 C480 1.368 . S
C486 C485 1.523 . S
C487 C471 1.429 . S
C487 C483 1.429 . S
C487 C488 1.523 . S
C488 C472 1.368 . S
C488 C484 1.368 . S
C488 C487 1.523 . S
H489 C464 0.950 . S
H490 C466 0.950 . S
H491 C467 0.949 . S
H492 C469 0.950 . S
H493 C471 0.950 . S
C494 C495 1.349 . S
C494 C496 1.327 1_455 S
C494 H519 0.950 . S
C495 C494 1.349 . S
C495 C511 1.349 1_455 S
C496 C494 1.327 1_655 S
C496 C515 1.429 . S
C496 H520 0.950 . S
C497 C514 1.574 . S
C497 C516 1.368 . S
C497 H521 0.949 . S
H498 C502 0.949 . S
C499 C500 1.349 . S
C499 C501 1.327 . S
C499 H522 0.950 . S
C500 C499 1.349 . S
C500 C512 1.349 . S
C501 C499 1.327 . S
C501 C517 1.429 . S
C501 H523 0.950 . S
C502 H498 0.949 . S
C502 C510 1.574 . S
C502 C518 1.368 . S
H503 C511 0.950 . S
H504 C509 0.950 . S
H505 C510 0.949 . S
H506 C512 0.950 . S
H507 C513 0.950 . S
H508 C514 0.949 . S
C509 H504 0.950 . S
C509 C511 1.327 . S
C509 C515 1.429 . S
C510 C502 1.574 . S
C510 H505 0.949 . S
C510 C516 1.368 . S
C511 C495 1.349 1_655 S
C511 H503 0.950 . S
C511 C509 1.327 . S
C512 C500 1.349 . S
C512 H506 0.950 . S
C512 C513 1.327 . S
C513 H507 0.950 . S
C513 C512 1.327 . S
C513 C517 1.429 . S
C514 C497 1.574 . S
C514 H508 0.949 . S
C514 C518 1.368 . S
C515 C496 1.429 . S
C515 C509 1.429 . S
C515 C516 1.523 . S
C516 C497 1.368 . S
C516 C510 1.368 . S
C516 C515 1.523 . S
C517 C501 1.429 . S
C517 C513 1.429 . S
C517 C518 1.523 . S
C518 C502 1.368 . S
C518 C514 1.368 . S
C518 C517 1.523 . S
H519 C494 0.950 . S
H520 C496 0.950 . S
H521 C497 0.949 . S
H522 C499 0.950 . S
H523 C501 0.950 . S
C524 C525 1.349 . S
C524 C526 1.327 1_565 S
C524 H549 0.950 . S
C525 C524 1.349 . S
C525 C541 1.349 1_565 S
C526 C524 1.327 1_545 S
C526 C545 1.429 . S
C526 H550 0.950 . S
C527 C544 1.574 . S
C527 C546 1.368 . S
C527 H551 0.949 . S
H528 C532 0.949 . S
C529 C530 1.349 . S
C529 C531 1.327 . S
C529 H552 0.950 . S
C530 C529 1.349 . S
C530 C542 1.349 . S
C531 C529 1.327 . S
C531 C547 1.429 . S
C531 H553 0.950 . S
C532 H528 0.949 . S
C532 C540 1.574 . S
C532 C548 1.368 . S
H533 C541 0.950 . S
H534 C539 0.950 . S
H535 C540 0.949 . S
H536 C542 0.950 . S
H537 C543 0.950 . S
H538 C544 0.949 . S
C539 H534 0.950 . S
C539 C541 1.327 . S
C539 C545 1.429 . S
C540 C532 1.574 . S
C540 H535 0.949 . S
C540 C546 1.368 . S
C541 C525 1.349 1_545 S
C541 H533 0.950 . S
C541 C539 1.327 . S
C542 C530 1.349 . S
C542 H536 0.950 . S
C542 C543 1.327 . S
C543 H537 0.950 . S
C543 C542 1.327 . S
C543 C547 1.429 . S
C544 C527 1.574 . S
C544 H538 0.949 . S
C544 C548 1.368 . S
C545 C526 1.429 . S
C545 C539 1.429 . S
C545 C546 1.523 . S
C546 C527 1.368 . S
C546 C540 1.368 . S
C546 C545 1.523 . S
C547 C531 1.429 . S
C547 C543 1.429 . S
C547 C548 1.523 . S
C548 C532 1.368 . S
C548 C544 1.368 . S
C548 C547 1.523 . S
H549 C524 0.950 . S
H550 C526 0.950 . S
H551 C527 0.949 . S
H552 C529 0.950 . S
H553 C531 0.950 . S
C554 C555 1.349 . S
C554 C556 1.327 1_655 S
C554 H579 0.950 . S
C555 C554 1.349 . S
C555 C571 1.349 1_655 S
C556 C554 1.327 1_455 S
C556 C575 1.429 . S
C556 H580 0.950 . S
C557 C574 1.574 . S
C557 C576 1.368 . S
C557 H581 0.949 . S
H558 C562 0.949 . S
C559 C560 1.349 . S
C559 C561 1.327 . S
C559 H582 0.950 . S
C560 C559 1.349 . S
C560 C572 1.349 . S
C561 C559 1.327 . S
C561 C577 1.429 . S
C561 H583 0.950 . S
C562 H558 0.949 . S
C562 C570 1.574 . S
C562 C578 1.368 . S
H563 C571 0.950 . S
H564 C569 0.950 . S
H565 C570 0.949 . S
H566 C572 0.950 . S
H567 C573 0.950 . S
H568 C574 0.949 . S
C569 H564 0.950 . S
C569 C571 1.327 . S
C569 C575 1.429 . S
C570 C562 1.574 . S
C570 H565 0.949 . S
C570 C576 1.368 . S
C571 C555 1.349 1_455 S
C571 H563 0.950 . S
C571 C569 1.327 . S
C572 C560 1.349 . S
C572 H566 0.950 . S
C572 C573 1.327 . S
C573 H567 0.950 . S
C573 C572 1.327 . S
C573 C577 1.429 . S
C574 C557 1.574 . S
C574 H568 0.949 . S
C574 C578 1.368 . S
C575 C556 1.429 . S
C575 C569 1.429 . S
C575 C576 1.523 . S
C576 C557 1.368 . S
C576 C570 1.368 . S
C576 C575 1.523 . S
C577 C561 1.429 . S
C577 C573 1.429 . S
C577 C578 1.523 . S
C578 C562 1.368 . S
C578 C574 1.368 . S
C578 C577 1.523 . S
H579 C554 0.950 . S
H580 C556 0.950 . S
H581 C557 0.949 . S
H582 C559 0.950 . S
H583 C561 0.950 . S
C584 C585 1.349 . S
C584 C586 1.327 . S
C584 H609 0.950 . S
C585 C584 1.349 . S
C585 C601 1.349 . S
C586 C584 1.327 . S
C586 C605 1.429 . S
C586 H610 0.950 . S
C587 C604 1.574 . S
C587 C606 1.368 . S
C587 H611 0.949 . S
H588 C592 0.949 . S
C589 C590 1.349 . S
C589 C591 1.327 . S
C589 H612 0.950 . S
C590 C589 1.349 . S
C590 C602 1.349 . S
C591 C589 1.327 . S
C591 C607 1.429 . S
C591 H613 0.950 . S
C592 H588 0.949 . S
C592 C600 1.574 . S
C592 C608 1.368 . S
H593 C601 0.950 . S
H594 C599 0.950 . S
H595 C600 0.949 . S
H596 C602 0.950 . S
H597 C603 0.950 . S
H598 C604 0.949 . S
C599 H594 0.950 . S
C599 C601 1.327 . S
C599 C605 1.429 . S
C600 C592 1.574 . S
C600 H595 0.949 . S
C600 C606 1.368 . S
C601 C585 1.349 . S
C601 H593 0.950 . S
C601 C599 1.327 . S
C602 C590 1.349 . S
C602 H596 0.950 . S
C602 C603 1.327 . S
C603 H597 0.950 . S
C603 C602 1.327 . S
C603 C607 1.429 . S
C604 C587 1.574 . S
C604 H598 0.949 . S
C604 C608 1.368 . S
C605 C586 1.429 . S
C605 C599 1.429 . S
C605 C606 1.523 . S
C606 C587 1.368 . S
C606 C600 1.368 . S
C606 C605 1.523 . S
C607 C591 1.429 . S
C607 C603 1.429 . S
C607 C608 1.523 . S
C608 C592 1.368 . S
C608 C604 1.368 . S
C608 C607 1.523 . S
H609 C584 0.950 . S
H610 C586 0.950 . S
H611 C587 0.949 . S
H612 C589 0.950 . S
H613 C591 0.950 . S
C614 C615 1.349 . S
C614 C616 1.327 . S
C614 H639 0.950 . S
C615 C614 1.349 . S
C615 C631 1.349 . S
C616 C614 1.327 . S
C616 C635 1.429 . S
C616 H640 0.950 . S
C617 C634 1.574 . S
C617 C636 1.368 . S
C617 H641 0.949 . S
H618 C622 0.949 . S
C619 C620 1.349 . S
C619 C621 1.327 . S
C619 H642 0.950 . S
C620 C619 1.349 . S
C620 C632 1.349 . S
C621 C619 1.327 . S
C621 C637 1.429 . S
C621 H643 0.950 . S
C622 H618 0.949 . S
C622 C630 1.574 . S
C622 C638 1.368 . S
H623 C631 0.950 . S
H624 C629 0.950 . S
H625 C630 0.949 . S
H626 C632 0.950 . S
H627 C633 0.950 . S
H628 C634 0.949 . S
C629 H624 0.950 . S
C629 C631 1.327 . S
C629 C635 1.429 . S
C630 C622 1.574 . S
C630 H625 0.949 . S
C630 C636 1.368 . S
C631 C615 1.349 . S
C631 H623 0.950 . S
C631 C629 1.327 . S
C632 C620 1.349 . S
C632 H626 0.950 . S
C632 C633 1.327 . S
C633 H627 0.950 . S
C633 C632 1.327 . S
C633 C637 1.429 . S
C634 C617 1.574 . S
C634 H628 0.949 . S
C634 C638 1.368 . S
C635 C616 1.429 . S
C635 C629 1.429 . S
C635 C636 1.523 . S
C636 C617 1.368 . S
C636 C630 1.368 . S
C636 C635 1.523 . S
C637 C621 1.429 . S
C637 C633 1.429 . S
C637 C638 1.523 . S
C638 C622 1.368 . S
C638 C634 1.368 . S
C638 C637 1.523 . S
H639 C614 0.950 . S
H640 C616 0.950 . S
H641 C617 0.949 . S
H642 C619 0.950 . S
H643 C621 0.950 . S
C644 C645 1.349 . S
C644 C646 1.327 . S
C644 H669 0.950 . S
C645 C644 1.349 . S
C645 C661 1.349 . S
C646 C644 1.327 . S
C646 C665 1.429 . S
C646 H670 0.950 . S
C647 C664 1.574 . S
C647 C666 1.368 . S
C647 H671 0.949 . S
H648 C652 0.949 . S
C649 C650 1.349 . S
C649 C651 1.327 . S
C649 H672 0.950 . S
C650 C649 1.349 . S
C650 C662 1.349 . S
C651 C649 1.327 . S
C651 C667 1.429 . S
C651 H673 0.950 . S
C652 H648 0.949 . S
C652 C660 1.574 . S
C652 C668 1.368 . S
H653 C661 0.950 . S
H654 C659 0.950 . S
H655 C660 0.949 . S
H656 C662 0.950 . S
H657 C663 0.950 . S
H658 C664 0.949 . S
C659 H654 0.950 . S
C659 C661 1.327 . S
C659 C665 1.429 . S
C660 C652 1.574 . S
C660 H655 0.949 . S
C660 C666 1.368 . S
C661 C645 1.349 . S
C661 H653 0.950 . S
C661 C659 1.327 . S
C662 C650 1.349 . S
C662 H656 0.950 . S
C662 C663 1.327 . S
C663 H657 0.950 . S
C663 C662 1.327 . S
C663 C667 1.429 . S
C664 C647 1.574 . S
C664 H658 0.949 . S
C664 C668 1.368 . S
C665 C646 1.429 . S
C665 C659 1.429 . S
C665 C666 1.523 . S
C666 C647 1.368 . S
C666 C660 1.368 . S
C666 C665 1.523 . S
C667 C651 1.429 . S
C667 C663 1.429 . S
C667 C668 1.523 . S
C668 C652 1.368 . S
C668 C664 1.368 . S
C668 C667 1.523 . S
H669 C644 0.950 . S
H670 C646 0.950 . S
H671 C647 0.949 . S
H672 C649 0.950 . S
H673 C651 0.950 . S
C674 C675 1.349 . S
C674 C676 1.327 . S
C674 H699 0.950 . S
C675 C674 1.349 . S
C675 C691 1.349 . S
C676 C674 1.327 . S
C676 C695 1.429 . S
C676 H700 0.950 . S
C677 C694 1.574 . S
C677 C696 1.368 . S
C677 H701 0.949 . S
H678 C682 0.949 . S
C679 C680 1.349 . S
C679 C681 1.327 . S
C679 H702 0.950 . S
C680 C679 1.349 . S
C680 C692 1.349 . S
C681 C679 1.327 . S
C681 C697 1.429 . S
C681 H703 0.950 . S
C682 H678 0.949 . S
C682 C690 1.574 . S
C682 C698 1.368 . S
H683 C691 0.950 . S
H684 C689 0.950 . S
H685 C690 0.949 . S
H686 C692 0.950 . S
H687 C693 0.950 . S
H688 C694 0.949 . S
C689 H684 0.950 . S
C689 C691 1.327 . S
C689 C695 1.429 . S
C690 C682 1.574 . S
C690 H685 0.949 . S
C690 C696 1.368 . S
C691 C675 1.349 . S
C691 H683 0.950 . S
C691 C689 1.327 . S
C692 C680 1.349 . S
C692 H686 0.950 . S
C692 C693 1.327 . S
C693 H687 0.950 . S
C693 C692 1.327 . S
C693 C697 1.429 . S
C694 C677 1.574 . S
C694 H688 0.949 . S
C694 C698 1.368 . S
C695 C676 1.429 . S
C695 C689 1.429 . S
C695 C696 1.523 . S
C696 C677 1.368 . S
C696 C690 1.368 . S
C696 C695 1.523 . S
C697 C681 1.429 . S
C697 C693 1.429 . S
C697 C698 1.523 . S
C698 C682 1.368 . S
C698 C694 1.368 . S
C698 C697 1.523 . S
H699 C674 0.950 . S
H700 C676 0.950 . S
H701 C677 0.949 . S
H702 C679 0.950 . S
H703 C681 0.950 . S
C704 C705 1.349 . S
C704 C706 1.327 . S
C704 H729 0.950 . S
C705 C704 1.349 . S
C705 C721 1.349 . S
C706 C704 1.327 . S
C706 C725 1.429 . S
C706 H730 0.950 . S
C707 C724 1.574 . S
C707 C726 1.368 . S
C707 H731 0.949 . S
H708 C712 0.949 . S
C709 C710 1.349 . S
C709 C711 1.327 . S
C709 H732 0.950 . S
C710 C709 1.349 . S
C710 C722 1.349 . S
C711 C709 1.327 . S
C711 C727 1.429 . S
C711 H733 0.950 . S
C712 H708 0.949 . S
C712 C720 1.574 . S
C712 C728 1.368 . S
H713 C721 0.950 . S
H714 C719 0.950 . S
H715 C720 0.949 . S
H716 C722 0.950 . S
H717 C723 0.950 . S
H718 C724 0.949 . S
C719 H714 0.950 . S
C719 C721 1.327 . S
C719 C725 1.429 . S
C720 C712 1.574 . S
C720 H715 0.949 . S
C720 C726 1.368 . S
C721 C705 1.349 . S
C721 H713 0.950 . S
C721 C719 1.327 . S
C722 C710 1.349 . S
C722 H716 0.950 . S
C722 C723 1.327 . S
C723 H717 0.950 . S
C723 C722 1.327 . S
C723 C727 1.429 . S
C724 C707 1.574 . S
C724 H718 0.949 . S
C724 C728 1.368 . S
C725 C706 1.429 . S
C725 C719 1.429 . S
C725 C726 1.523 . S
C726 C707 1.368 . S
C726 C720 1.368 . S
C726 C725 1.523 . S
C727 C711 1.429 . S
C727 C723 1.429 . S
C727 C728 1.523 . S
C728 C712 1.368 . S
C728 C724 1.368 . S
C728 C727 1.523 . S
H729 C704 0.950 . S
H730 C706 0.950 . S
H731 C707 0.949 . S
H732 C709 0.950 . S
H733 C711 0.950 . S
C734 C735 1.349 . S
C734 C736 1.327 . S
C734 H759 0.950 . S
C735 C734 1.349 . S
C735 C751 1.349 . S
C736 C734 1.327 . S
C736 C755 1.429 . S
C736 H760 0.950 . S
C737 C754 1.574 . S
C737 C756 1.368 . S
C737 H761 0.949 . S
H738 C742 0.949 . S
C739 C740 1.349 . S
C739 C741 1.327 . S
C739 H762 0.950 . S
C740 C739 1.349 . S
C740 C752 1.349 . S
C741 C739 1.327 . S
C741 C757 1.429 . S
C741 H763 0.950 . S
C742 H738 0.949 . S
C742 C750 1.574 . S
C742 C758 1.368 . S
H743 C751 0.950 . S
H744 C749 0.950 . S
H745 C750 0.949 . S
H746 C752 0.950 . S
H747 C753 0.950 . S
H748 C754 0.949 . S
C749 H744 0.950 . S
C749 C751 1.327 . S
C749 C755 1.429 . S
C750 C742 1.574 . S
C750 H745 0.949 . S
C750 C756 1.368 . S
C751 C735 1.349 . S
C751 H743 0.950 . S
C751 C749 1.327 . S
C752 C740 1.349 . S
C752 H746 0.950 . S
C752 C753 1.327 . S
C753 H747 0.950 . S
C753 C752 1.327 . S
C753 C757 1.429 . S
C754 C737 1.574 . S
C754 H748 0.949 . S
C754 C758 1.368 . S
C755 C736 1.429 . S
C755 C749 1.429 . S
C755 C756 1.523 . S
C756 C737 1.368 . S
C756 C750 1.368 . S
C756 C755 1.523 . S
C757 C741 1.429 . S
C757 C753 1.429 . S
C757 C758 1.523 . S
C758 C742 1.368 . S
C758 C754 1.368 . S
C758 C757 1.523 . S
H759 C734 0.950 . S
H760 C736 0.950 . S
H761 C737 0.949 . S
H762 C739 0.950 . S
H763 C741 0.950 . S
C764 C765 1.349 . S
C764 C766 1.327 . S
C764 H789 0.950 . S
C765 C764 1.349 . S
C765 C781 1.349 . S
C766 C764 1.327 . S
C766 C785 1.429 . S
C766 H790 0.950 . S
C767 C784 1.574 . S
C767 C786 1.368 . S
C767 H791 0.949 . S
H768 C772 0.949 . S
C769 C770 1.349 . S
C769 C771 1.327 . S
C769 H792 0.950 . S
C770 C769 1.349 . S
C770 C782 1.349 . S
C771 C769 1.327 . S
C771 C787 1.429 . S
C771 H793 0.950 . S
C772 H768 0.949 . S
C772 C780 1.574 . S
C772 C788 1.368 . S
H773 C781 0.950 . S
H774 C779 0.950 . S
H775 C780 0.949 . S
H776 C782 0.950 . S
H777 C783 0.950 . S
H778 C784 0.949 . S
C779 H774 0.950 . S
C779 C781 1.327 . S
C779 C785 1.429 . S
C780 C772 1.574 . S
C780 H775 0.949 . S
C780 C786 1.368 . S
C781 C765 1.349 . S
C781 H773 0.950 . S
C781 C779 1.327 . S
C782 C770 1.349 . S
C782 H776 0.950 . S
C782 C783 1.327 . S
C783 H777 0.950 . S
C783 C782 1.327 . S
C783 C787 1.429 . S
C784 C767 1.574 . S
C784 H778 0.949 . S
C784 C788 1.368 . S
C785 C766 1.429 . S
C785 C779 1.429 . S
C785 C786 1.523 . S
C786 C767 1.368 . S
C786 C780 1.368 . S
C786 C785 1.523 . S
C787 C771 1.429 . S
C787 C783 1.429 . S
C787 C788 1.523 . S
C788 C772 1.368 . S
C788 C784 1.368 . S
C788 C787 1.523 . S
H789 C764 0.950 . S
H790 C766 0.950 . S
H791 C767 0.949 . S
H792 C769 0.950 . S
H793 C771 0.950 . S
C794 C795 1.349 . S
C794 C796 1.327 . S
C794 H819 0.950 . S
C795 C794 1.349 . S
C795 C811 1.349 . S
C796 C794 1.327 . S
C796 C815 1.429 . S
C796 H820 0.950 . S
C797 C814 1.574 . S
C797 C816 1.368 . S
C797 H821 0.949 . S
H798 C802 0.949 . S
C799 C800 1.349 . S
C799 C801 1.327 . S
C799 H822 0.950 . S
C800 C799 1.349 . S
C800 C812 1.349 . S
C801 C799 1.327 . S
C801 C817 1.429 . S
C801 H823 0.950 . S
C802 H798 0.949 . S
C802 C810 1.574 . S
C802 C818 1.368 . S
H803 C811 0.950 . S
H804 C809 0.950 . S
H805 C810 0.949 . S
H806 C812 0.950 . S
H807 C813 0.950 . S
H808 C814 0.949 . S
C809 H804 0.950 . S
C809 C811 1.327 . S
C809 C815 1.429 . S
C810 C802 1.574 . S
C810 H805 0.949 . S
C810 C816 1.368 . S
C811 C795 1.349 . S
C811 H803 0.950 . S
C811 C809 1.327 . S
C812 C800 1.349 . S
C812 H806 0.950 . S
C812 C813 1.327 . S
C813 H807 0.950 . S
C813 C812 1.327 . S
C813 C817 1.429 . S
C814 C797 1.574 . S
C814 H808 0.949 . S
C814 C818 1.368 . S
C815 C796 1.429 . S
C815 C809 1.429 . S
C815 C816 1.523 . S
C816 C797 1.368 . S
C816 C810 1.368 . S
C816 C815 1.523 . S
C817 C801 1.429 . S
C817 C813 1.429 . S
C817 C818 1.523 . S
C818 C802 1.368 . S
C818 C814 1.368 . S
C818 C817 1.523 . S
H819 C794 0.950 . S
H820 C796 0.950 . S
H821 C797 0.949 . S
H822 C799 0.950 . S
H823 C801 0.950 . S
C824 C825 1.349 . S
C824 C826 1.327 . S
C824 H849 0.950 . S
C825 C824 1.349 . S
C825 C841 1.349 . S
C826 C824 1.327 . S
C826 C845 1.429 . S
C826 H850 0.950 . S
C827 C844 1.574 . S
C827 C846 1.368 . S
C827 H851 0.949 . S
H828 C832 0.949 . S
C829 C830 1.349 . S
C829 C831 1.327 . S
C829 H852 0.950 . S
C830 C829 1.349 . S
C830 C842 1.349 . S
C831 C829 1.327 . S
C831 C847 1.429 . S
C831 H853 0.950 . S
C832 H828 0.949 . S
C832 C840 1.574 . S
C832 C848 1.368 . S
H833 C841 0.950 . S
H834 C839 0.950 . S
H835 C840 0.949 . S
H836 C842 0.950 . S
H837 C843 0.950 . S
H838 C844 0.949 . S
C839 H834 0.950 . S
C839 C841 1.327 . S
C839 C845 1.429 . S
C840 C832 1.574 . S
C840 H835 0.949 . S
C840 C846 1.368 . S
C841 C825 1.349 . S
C841 H833 0.950 . S
C841 C839 1.327 . S
C842 C830 1.349 . S
C842 H836 0.950 . S
C842 C843 1.327 . S
C843 H837 0.950 . S
C843 C842 1.327 . S
C843 C847 1.429 . S
C844 C827 1.574 . S
C844 H838 0.949 . S
C844 C848 1.368 . S
C845 C826 1.429 . S
C845 C839 1.429 . S
C845 C846 1.523 . S
C846 C827 1.368 . S
C846 C840 1.368 . S
C846 C845 1.523 . S
C847 C831 1.429 . S
C847 C843 1.429 . S
C847 C848 1.523 . S
C848 C832 1.368 . S
C848 C844 1.368 . S
C848 C847 1.523 . S
H849 C824 0.950 . S
H850 C826 0.950 . S
H851 C827 0.949 . S
H852 C829 0.950 . S
H853 C831 0.950 . S
C854 C855 1.349 . S
C854 C856 1.327 . S
C854 H879 0.950 . S
C855 C854 1.349 . S
C855 C871 1.349 . S
C856 C854 1.327 . S
C856 C875 1.429 . S
C856 H880 0.950 . S
C857 C874 1.574 . S
C857 C876 1.368 . S
C857 H881 0.949 . S
H858 C862 0.949 . S
C859 C860 1.349 . S
C859 C861 1.327 . S
C859 H882 0.950 . S
C860 C859 1.349 . S
C860 C872 1.349 . S
C861 C859 1.327 . S
C861 C877 1.429 . S
C861 H883 0.950 . S
C862 H858 0.949 . S
C862 C870 1.574 . S
C862 C878 1.368 . S
H863 C871 0.950 . S
H864 C869 0.950 . S
H865 C870 0.949 . S
H866 C872 0.950 . S
H867 C873 0.950 . S
H868 C874 0.949 . S
C869 H864 0.950 . S
C869 C871 1.327 . S
C869 C875 1.429 . S
C870 C862 1.574 . S
C870 H865 0.949 . S
C870 C876 1.368 . S
C871 C855 1.349 . S
C871 H863 0.950 . S
C871 C869 1.327 . S
C872 C860 1.349 . S
C872 H866 0.950 . S
C872 C873 1.327 . S
C873 H867 0.950 . S
C873 C872 1.327 . S
C873 C877 1.429 . S
C874 C857 1.574 . S
C874 H868 0.949 . S
C874 C878 1.368 . S
C875 C856 1.429 . S
C875 C869 1.429 . S
C875 C876 1.523 . S
C876 C857 1.368 . S
C876 C870 1.368 . S
C876 C875 1.523 . S
C877 C861 1.429 . S
C877 C873 1.429 . S
C877 C878 1.523 . S
C878 C862 1.368 . S
C878 C874 1.368 . S
C878 C877 1.523 . S
H879 C854 0.950 . S
H880 C856 0.950 . S
H881 C857 0.949 . S
H882 C859 0.950 . S
H883 C861 0.950 . S
C884 C885 1.349 . S
C884 C886 1.327 . S
C884 H909 0.950 . S
C885 C884 1.349 . S
C885 C901 1.349 . S
C886 C884 1.327 . S
C886 C905 1.429 . S
C886 H910 0.950 . S
C887 C904 1.574 . S
C887 C906 1.368 . S
C887 H911 0.949 . S
H888 C892 0.949 . S
C889 C890 1.349 . S
C889 C891 1.327 . S
C889 H912 0.950 . S
C890 C889 1.349 . S
C890 C902 1.349 . S
C891 C889 1.327 . S
C891 C907 1.429 . S
C891 H913 0.950 . S
C892 H888 0.949 . S
C892 C900 1.574 . S
C892 C908 1.368 . S
H893 C901 0.950 . S
H894 C899 0.950 . S
H895 C900 0.949 . S
H896 C902 0.950 . S
H897 C903 0.950 . S
H898 C904 0.949 . S
C899 H894 0.950 . S
C899 C901 1.327 . S
C899 C905 1.429 . S
C900 C892 1.574 . S
C900 H895 0.949 . S
C900 C906 1.368 . S
C901 C885 1.349 . S
C901 H893 0.950 . S
C901 C899 1.327 . S
C902 C890 1.349 . S
C902 H896 0.950 . S
C902 C903 1.327 . S
C903 H897 0.950 . S
C903 C902 1.327 . S
C903 C907 1.429 . S
C904 C887 1.574 . S
C904 H898 0.949 . S
C904 C908 1.368 . S
C905 C886 1.429 . S
C905 C899 1.429 . S
C905 C906 1.523 . S
C906 C887 1.368 . S
C906 C900 1.368 . S
C906 C905 1.523 . S
C907 C891 1.429 . S
C907 C903 1.429 . S
C907 C908 1.523 . S
C908 C892 1.368 . S
C908 C904 1.368 . S
C908 C907 1.523 . S
H909 C884 0.950 . S
H910 C886 0.950 . S
H911 C887 0.949 . S
H912 C889 0.950 . S
H913 C891 0.950 . S
C914 C915 1.349 . S
C914 C916 1.327 . S
C914 H939 0.950 . S
C915 C914 1.349 . S
C915 C931 1.349 . S
C916 C914 1.327 . S
C916 C935 1.429 . S
C916 H940 0.950 . S
C917 C934 1.574 . S
C917 C936 1.368 . S
C917 H941 0.949 . S
H918 C922 0.949 . S
C919 C920 1.349 . S
C919 C921 1.327 . S
C919 H942 0.950 . S
C920 C919 1.349 . S
C920 C932 1.349 . S
C921 C919 1.327 . S
C921 C937 1.429 . S
C921 H943 0.950 . S
C922 H918 0.949 . S
C922 C930 1.574 . S
C922 C938 1.368 . S
H923 C931 0.950 . S
H924 C929 0.950 . S
H925 C930 0.949 . S
H926 C932 0.950 . S
H927 C933 0.950 . S
H928 C934 0.949 . S
C929 H924 0.950 . S
C929 C931 1.327 . S
C929 C935 1.429 . S
C930 C922 1.574 . S
C930 H925 0.949 . S
C930 C936 1.368 . S
C931 C915 1.349 . S
C931 H923 0.950 . S
C931 C929 1.327 . S
C932 C920 1.349 . S
C932 H926 0.950 . S
C932 C933 1.327 . S
C933 H927 0.950 . S
C933 C932 1.327 . S
C933 C937 1.429 . S
C934 C917 1.574 . S
C934 H928 0.949 . S
C934 C938 1.368 . S
C935 C916 1.429 . S
C935 C929 1.429 . S
C935 C936 1.523 . S
C936 C917 1.368 . S
C936 C930 1.368 . S
C936 C935 1.523 . S
C937 C921 1.429 . S
C937 C933 1.429 . S
C937 C938 1.523 . S
C938 C922 1.368 . S
C938 C934 1.368 . S
C938 C937 1.523 . S
H939 C914 0.950 . S
H940 C916 0.950 . S
H941 C917 0.949 . S
H942 C919 0.950 . S
H943 C921 0.950 . S
C944 C945 1.349 . S
C944 C946 1.327 . S
C944 H969 0.950 . S
C945 C944 1.349 . S
C945 C961 1.349 . S
C946 C944 1.327 . S
C946 C965 1.429 . S
C946 H970 0.929 1_655 S
C947 C964 1.574 1_565 S
C947 C966 1.368 . S
C947 H971 0.949 . S
H948 C952 0.949 . S
C949 C950 1.349 . S
C949 C951 1.327 . S
C949 H972 0.950 . S
C950 C949 1.349 . S
C950 C962 1.349 . S
C951 C949 1.327 . S
C951 C967 1.429 . S
C951 H973 0.929 1_455 S
C952 H948 0.949 . S
C952 C960 1.574 1_545 S
C952 C968 1.368 . S
H953 C961 0.950 . S
H954 C959 0.950 . S
H955 C960 0.949 . S
H956 C962 0.950 . S
H957 C963 0.950 . S
H958 C964 0.949 . S
C959 H954 0.950 . S
C959 C961 1.327 . S
C959 C965 1.429 . S
C960 C952 1.574 1_565 S
C960 H955 0.949 . S
C960 C966 1.368 1_455 S
C961 C945 1.349 . S
C961 H953 0.950 . S
C961 C959 1.327 . S
C962 C950 1.349 . S
C962 H956 0.950 . S
C962 C963 1.327 . S
C963 H957 0.950 . S
C963 C962 1.327 . S
C963 C967 1.429 . S
C964 C947 1.574 1_545 S
C964 H958 0.949 . S
C964 C968 1.368 1_655 S
C965 C946 1.429 . S
C965 C959 1.429 . S
C965 C966 1.523 . S
C966 C947 1.368 . S
C966 C960 1.368 1_655 S
C966 C965 1.523 . S
C967 C951 1.429 . S
C967 C963 1.429 . S
C967 C968 1.523 . S
C968 C952 1.368 . S
C968 C964 1.368 1_455 S
C968 C967 1.523 . S
H969 C944 0.950 . S
H970 C946 0.929 1_455 S
H971 C947 0.949 . S
H972 C949 0.950 . S
H973 C951 0.929 1_655 S
C974 C975 1.349 . S
C974 C976 1.327 . S
C974 H999 0.950 . S
C975 C974 1.349 . S
C975 C991 1.349 . S
C976 C974 1.327 . S
C976 C995 1.429 . S
C976 H1000 0.929 1_545 S
C977 C994 1.574 1_655 S
C977 C996 1.368 . S
C977 H1001 0.949 . S
H978 C982 0.949 . S
C979 C980 1.349 . S
C979 C981 1.327 . S
C979 H1002 0.950 . S
C980 C979 1.349 . S
C980 C992 1.349 . S
C981 C979 1.327 . S
C981 C997 1.429 . S
C981 H1003 0.929 1_565 S
C982 H978 0.949 . S
C982 C990 1.574 1_455 S
C982 C998 1.368 . S
H983 C991 0.950 . S
H984 C989 0.950 . S
H985 C990 0.949 . S
H986 C992 0.950 . S
H987 C993 0.950 . S
H988 C994 0.949 . S
C989 H984 0.950 . S
C989 C991 1.327 . S
C989 C995 1.429 . S
C990 C982 1.574 1_655 S
C990 H985 0.949 . S
C990 C996 1.368 1_565 S
C991 C975 1.349 . S
C991 H983 0.950 . S
C991 C989 1.327 . S
C992 C980 1.349 . S
C992 H986 0.950 . S
C992 C993 1.327 . S
C993 H987 0.950 . S
C993 C992 1.327 . S
C993 C997 1.429 . S
C994 C977 1.574 1_455 S
C994 H988 0.949 . S
C994 C998 1.368 1_545 S
C995 C976 1.429 . S
C995 C989 1.429 . S
C995 C996 1.523 . S
C996 C977 1.368 . S
C996 C990 1.368 1_545 S
C996 C995 1.523 . S
C997 C981 1.429 . S
C997 C993 1.429 . S
C997 C998 1.523 . S
C998 C982 1.368 . S
C998 C994 1.368 1_565 S
C998 C997 1.523 . S
H999 C974 0.950 . S
H1000 C976 0.929 1_565 S
H1001 C977 0.949 . S
H1002 C979 0.950 . S
H1003 C981 0.929 1_545 S
C1004 C1005 1.349 . S
C1004 C1006 1.327 . S
C1004 H1029 0.950 . S
C1005 C1004 1.349 . S
C1005 C1021 1.349 . S
C1006 C1004 1.327 . S
C1006 C1025 1.429 . S
C1006 H1030 0.950 . S
C1007 C1024 1.574 . S
C1007 C1026 1.368 1_655 S
C1007 H1031 0.949 . S
H1008 C1012 0.949 . S
C1009 C1010 1.349 . S
C1009 C1011 1.327 . S
C1009 H1032 0.950 . S
C1010 C1009 1.349 . S
C1010 C1022 1.349 . S
C1011 C1009 1.327 . S
C1011 C1027 1.429 . S
C1011 H1033 0.950 . S
C1012 H1008 0.949 . S
C1012 C1020 1.574 . S
C1012 C1028 1.368 1_455 S
H1013 C1021 0.950 . S
H1014 C1019 0.929 1_655 S
H1015 C1020 0.949 . S
H1016 C1022 0.950 . S
H1017 C1023 0.929 1_455 S
H1018 C1024 0.949 . S
C1019 H1014 0.929 1_455 S
C1019 C1021 1.327 . S
C1019 C1025 1.429 . S
C1020 C1012 1.574 . S
C1020 H1015 0.949 . S
C1020 C1026 1.368 . S
C1021 C1005 1.349 . S
C1021 H1013 0.950 . S
C1021 C1019 1.327 . S
C1022 C1010 1.349 . S
C1022 H1016 0.950 . S
C1022 C1023 1.327 . S
C1023 H1017 0.929 1_655 S
C1023 C1022 1.327 . S
C1023 C1027 1.429 . S
C1024 C1007 1.574 . S
C1024 H1018 0.949 . S
C1024 C1028 1.368 . S
C1025 C1006 1.429 . S
C1025 C1019 1.429 . S
C1025 C1026 1.523 . S
C1026 C1007 1.368 1_455 S
C1026 C1020 1.368 . S
C1026 C1025 1.523 . S
C1027 C1011 1.429 . S
C1027 C1023 1.429 . S
C1027 C1028 1.523 . S
C1028 C1012 1.368 1_655 S
C1028 C1024 1.368 . S
C1028 C1027 1.523 . S
H1029 C1004 0.950 . S
H1030 C1006 0.950 . S
H1031 C1007 0.949 . S
H1032 C1009 0.950 . S
H1033 C1011 0.950 . S
C1034 C1035 1.349 . S
C1034 C1036 1.327 . S
C1034 H1059 0.950 . S
C1035 C1034 1.349 . S
C1035 C1051 1.349 . S
C1036 C1034 1.327 . S
C1036 C1055 1.429 . S
C1036 H1060 0.929 1_565 S
C1037 C1054 1.574 . S
C1037 C1056 1.368 . S
C1037 H1061 0.949 . S
H1038 C1042 0.949 . S
C1039 C1040 1.349 . S
C1039 C1041 1.327 . S
C1039 H1062 0.950 . S
C1040 C1039 1.349 . S
C1040 C1052 1.349 . S
C1041 C1039 1.327 . S
C1041 C1057 1.429 . S
C1041 H1063 0.929 1_545 S
C1042 H1038 0.949 . S
C1042 C1050 1.574 . S
C1042 C1058 1.368 . S
H1043 C1051 0.950 . S
H1044 C1049 0.950 . S
H1045 C1050 0.949 . S
H1046 C1052 0.950 . S
H1047 C1053 0.950 . S
H1048 C1054 0.949 . S
C1049 H1044 0.950 . S
C1049 C1051 1.327 . S
C1049 C1055 1.429 . S
C1050 C1042 1.574 . S
C1050 H1045 0.949 . S
C1050 C1056 1.368 1_545 S
C1051 C1035 1.349 . S
C1051 H1043 0.950 . S
C1051 C1049 1.327 . S
C1052 C1040 1.349 . S
C1052 H1046 0.950 . S
C1052 C1053 1.327 . S
C1053 H1047 0.950 . S
C1053 C1052 1.327 . S
C1053 C1057 1.429 . S
C1054 C1037 1.574 . S
C1054 H1048 0.949 . S
C1054 C1058 1.368 1_565 S
C1055 C1036 1.429 . S
C1055 C1049 1.429 . S
C1055 C1056 1.523 . S
C1056 C1037 1.368 . S
C1056 C1050 1.368 1_565 S
C1056 C1055 1.523 . S
C1057 C1041 1.429 . S
C1057 C1053 1.429 . S
C1057 C1058 1.523 . S
C1058 C1042 1.368 . S
C1058 C1054 1.368 1_545 S
C1058 C1057 1.523 . S
H1059 C1034 0.950 . S
H1060 C1036 0.929 1_545 S
H1061 C1037 0.949 . S
H1062 C1039 0.950 . S
H1063 C1041 0.929 1_565 S
C1064 C1065 1.349 . S
C1064 C1066 1.327 . S
C1064 H1089 0.950 . S
C1065 C1064 1.349 . S
C1065 C1081 1.349 . S
C1066 C1064 1.327 . S
C1066 C1085 1.429 . S
C1066 H1090 0.950 . S
C1067 C1084 1.574 . S
C1067 C1086 1.368 . S
C1067 H1091 0.949 . S
H1068 C1072 0.949 . S
C1069 C1070 1.349 . S
C1069 C1071 1.327 . S
C1069 H1092 0.950 . S
C1070 C1069 1.349 . S
C1070 C1082 1.349 . S
C1071 C1069 1.327 . S
C1071 C1087 1.429 . S
C1071 H1093 0.950 . S
C1072 H1068 0.949 . S
C1072 C1080 1.574 . S
C1072 C1088 1.368 . S
H1073 C1081 0.950 . S
H1074 C1079 0.950 . S
H1075 C1080 0.949 . S
H1076 C1082 0.950 . S
H1077 C1083 0.950 . S
H1078 C1084 0.949 . S
C1079 H1074 0.950 . S
C1079 C1081 1.327 . S
C1079 C1085 1.429 . S
C1080 C1072 1.574 . S
C1080 H1075 0.949 . S
C1080 C1086 1.368 . S
C1081 C1065 1.349 . S
C1081 H1073 0.950 . S
C1081 C1079 1.327 . S
C1082 C1070 1.349 . S
C1082 H1076 0.950 . S
C1082 C1083 1.327 . S
C1083 H1077 0.950 . S
C1083 C1082 1.327 . S
C1083 C1087 1.429 . S
C1084 C1067 1.574 . S
C1084 H1078 0.949 . S
C1084 C1088 1.368 . S
C1085 C1066 1.429 . S
C1085 C1079 1.429 . S
C1085 C1086 1.523 . S
C1086 C1067 1.368 . S
C1086 C1080 1.368 . S
C1086 C1085 1.523 . S
C1087 C1071 1.429 . S
C1087 C1083 1.429 . S
C1087 C1088 1.523 . S
C1088 C1072 1.368 . S
C1088 C1084 1.368 . S
C1088 C1087 1.523 . S
H1089 C1064 0.950 . S
H1090 C1066 0.950 . S
H1091 C1067 0.949 . S
H1092 C1069 0.950 . S
H1093 C1071 0.950 . S
C1094 C1095 1.349 . S
C1094 C1096 1.327 . S
C1094 H1119 0.950 . S
C1095 C1094 1.349 . S
C1095 C1111 1.349 . S
C1096 C1094 1.327 . S
C1096 C1115 1.429 . S
C1096 H1120 0.950 . S
C1097 C1114 1.574 . S
C1097 C1116 1.368 . S
C1097 H1121 0.949 . S
H1098 C1102 0.949 . S
C1099 C1100 1.349 . S
C1099 C1101 1.327 . S
C1099 H1122 0.950 . S
C1100 C1099 1.349 . S
C1100 C1112 1.349 . S
C1101 C1099 1.327 . S
C1101 C1117 1.429 . S
C1101 H1123 0.950 . S
C1102 H1098 0.949 . S
C1102 C1110 1.574 . S
C1102 C1118 1.368 . S
H1103 C1111 0.950 . S
H1104 C1109 0.950 . S
H1105 C1110 0.949 . S
H1106 C1112 0.950 . S
H1107 C1113 0.950 . S
H1108 C1114 0.949 . S
C1109 H1104 0.950 . S
C1109 C1111 1.327 . S
C1109 C1115 1.429 . S
C1110 C1102 1.574 . S
C1110 H1105 0.949 . S
C1110 C1116 1.368 . S
C1111 C1095 1.349 . S
C1111 H1103 0.950 . S
C1111 C1109 1.327 . S
C1112 C1100 1.349 . S
C1112 H1106 0.950 . S
C1112 C1113 1.327 . S
C1113 H1107 0.950 . S
C1113 C1112 1.327 . S
C1113 C1117 1.429 . S
C1114 C1097 1.574 . S
C1114 H1108 0.949 . S
C1114 C1118 1.368 . S
C1115 C1096 1.429 . S
C1115 C1109 1.429 . S
C1115 C1116 1.523 . S
C1116 C1097 1.368 . S
C1116 C1110 1.368 . S
C1116 C1115 1.523 . S
C1117 C1101 1.429 . S
C1117 C1113 1.429 . S
C1117 C1118 1.523 . S
C1118 C1102 1.368 . S
C1118 C1114 1.368 . S
C1118 C1117 1.523 . S
H1119 C1094 0.950 . S
H1120 C1096 0.950 . S
H1121 C1097 0.949 . S
H1122 C1099 0.950 . S
H1123 C1101 0.950 . S
C1124 C1125 1.349 . S
C1124 C1126 1.327 . S
C1124 H1149 0.950 . S
C1125 C1124 1.349 . S
C1125 C1141 1.349 . S
C1126 C1124 1.327 . S
C1126 C1145 1.429 . S
C1126 H1150 0.950 . S
C1127 C1144 1.574 1_545 S
C1127 C1146 1.368 . S
C1127 H1151 0.949 . S
H1128 C1132 0.949 . S
C1129 C1130 1.349 . S
C1129 C1131 1.327 . S
C1129 H1152 0.950 . S
C1130 C1129 1.349 . S
C1130 C1142 1.349 . S
C1131 C1129 1.327 . S
C1131 C1147 1.429 . S
C1131 H1153 0.950 . S
C1132 H1128 0.949 . S
C1132 C1140 1.574 1_565 S
C1132 C1148 1.368 . S
H1133 C1141 0.950 . S
H1134 C1139 0.950 . S
H1135 C1140 0.949 . S
H1136 C1142 0.950 . S
H1137 C1143 0.950 . S
H1138 C1144 0.949 . S
C1139 H1134 0.950 . S
C1139 C1141 1.327 . S
C1139 C1145 1.429 . S
C1140 C1132 1.574 1_545 S
C1140 H1135 0.949 . S
C1140 C1146 1.368 . S
C1141 C1125 1.349 . S
C1141 H1133 0.950 . S
C1141 C1139 1.327 . S
C1142 C1130 1.349 . S
C1142 H1136 0.950 . S
C1142 C1143 1.327 . S
C1143 H1137 0.950 . S
C1143 C1142 1.327 . S
C1143 C1147 1.429 . S
C1144 C1127 1.574 1_565 S
C1144 H1138 0.949 . S
C1144 C1148 1.368 . S
C1145 C1126 1.429 . S
C1145 C1139 1.429 . S
C1145 C1146 1.523 . S
C1146 C1127 1.368 . S
C1146 C1140 1.368 . S
C1146 C1145 1.523 . S
C1147 C1131 1.429 . S
C1147 C1143 1.429 . S
C1147 C1148 1.523 . S
C1148 C1132 1.368 . S
C1148 C1144 1.368 . S
C1148 C1147 1.523 . S
H1149 C1124 0.950 . S
H1150 C1126 0.950 . S
H1151 C1127 0.949 . S
H1152 C1129 0.950 . S
H1153 C1131 0.950 . S
C1154 C1155 1.349 . S
C1154 C1156 1.327 . S
C1154 H1179 0.950 . S
C1155 C1154 1.349 . S
C1155 C1171 1.349 . S
C1156 C1154 1.327 . S
C1156 C1175 1.429 . S
C1156 H1180 0.950 . S
C1157 C1174 1.574 1_655 S
C1157 C1176 1.368 . S
C1157 H1181 0.949 . S
H1158 C1162 0.949 . S
C1159 C1160 1.349 . S
C1159 C1161 1.327 . S
C1159 H1182 0.950 . S
C1160 C1159 1.349 . S
C1160 C1172 1.349 . S
C1161 C1159 1.327 . S
C1161 C1177 1.429 . S
C1161 H1183 0.950 . S
C1162 H1158 0.949 . S
C1162 C1170 1.574 1_455 S
C1162 C1178 1.368 . S
H1163 C1171 0.950 . S
H1164 C1169 0.950 . S
H1165 C1170 0.949 . S
H1166 C1172 0.950 . S
H1167 C1173 0.950 . S
H1168 C1174 0.949 . S
C1169 H1164 0.950 . S
C1169 C1171 1.327 . S
C1169 C1175 1.429 . S
C1170 C1162 1.574 1_655 S
C1170 H1165 0.949 . S
C1170 C1176 1.368 . S
C1171 C1155 1.349 . S
C1171 H1163 0.950 . S
C1171 C1169 1.327 . S
C1172 C1160 1.349 . S
C1172 H1166 0.950 . S
C1172 C1173 1.327 . S
C1173 H1167 0.950 . S
C1173 C1172 1.327 . S
C1173 C1177 1.429 . S
C1174 C1157 1.574 1_455 S
C1174 H1168 0.949 . S
C1174 C1178 1.368 . S
C1175 C1156 1.429 . S
C1175 C1169 1.429 . S
C1175 C1176 1.523 . S
C1176 C1157 1.368 . S
C1176 C1170 1.368 . S
C1176 C1175 1.523 . S
C1177 C1161 1.429 . S
C1177 C1173 1.429 . S
C1177 C1178 1.523 . S
C1178 C1162 1.368 . S
C1178 C1174 1.368 . S
C1178 C1177 1.523 . S
H1179 C1154 0.950 . S
H1180 C1156 0.950 . S
H1181 C1157 0.949 . S
H1182 C1159 0.950 . S
H1183 C1161 0.950 . S
C225 C12 1.606 . S
C230 C155 1.613 . S
C255 C112 1.613 . S
C260 C14 1.607 . S
C285 C127 1.613 . S
C290 C28 1.606 . S
C315 C141 1.614 . S
C320 C54 1.607 . S
C345 C71 1.613 . S
C350 C69 1.607 . S
C375 C82 1.607 . S
C380 C85 1.614 . S
C405 C96 1.606 . S
C410 C99 1.613 . S
C435 C110 1.607 . S
C440 C56 1.613 . S
C465 C125 1.607 . S
C470 C43 1.613 . S
C495 C1 1.614 . S
C500 C138 1.607 . S
C525 C27 1.613 . S
C530 C152 1.606 . S
C555 C41 1.614 . S
C560 C166 1.607 . S
C585 C183 1.613 . S
C590 C181 1.607 . S
C615 C194 1.607 . S
C620 C208 1.613 . S
C645 C223 1.613 . S
C650 C197 1.607 . S
C675 C168 1.613 . S
C680 C210 1.607 . S
C705 C209 1.853 . S
C710 C0 1.851 . S
C735 C222 1.853 . S
C740 C26 1.853 . S
C765 C169 1.853 . S
C770 C40 1.852 . S
C795 C42 1.853 . S
C800 C182 1.853 . S
C825 C57 1.853 . S
C830 C140 1.851 . S
C855 C154 1.853 . S
C860 C70 1.853 . S
C885 C84 1.851 . S
C890 C113 1.853 . S
C915 C98 1.853 . S
C920 C126 1.853 . S
C945 C29 1.677 . S
C950 C13 1.677 . S
C975 C55 1.676 . S
C980 C15 1.676 . S
C1005 C68 1.676 . S
C1010 C97 1.677 . S
C1035 C83 1.676 . S
C1040 C111 1.676 . S
C1065 C153 1.677 . S
C1070 C124 1.676 . S
C1095 C139 1.676 . S
C1100 C167 1.676 . S
C1125 C196 1.676 . S
C1130 C180 1.676 . S
C1155 C195 1.676 . S
C1160 C211 1.676 . S
