# Generated by pormake.
# Topology wjd, (6)-cn, num edge types: 1
# Building blocks:
#     Node 0, Type 0, BuildingBlock: NUHQIS_clean_sbu_0, # of connection points: 6
#     Node 1, Type 0, BuildingBlock: NUHQIS_clean_sbu_0, # of connection points: 6
#     Node 2, Type 0, BuildingBlock: NUHQIS_clean_sbu_0, # of connection points: 6
#     Node 3, Type 0, BuildingBlock: NUHQIS_clean_sbu_0, # of connection points: 6
#     Node 4, Type 0, BuildingBlock: NUHQIS_clean_sbu_0, # of connection points: 6
#     Node 5, Type 0, BuildingBlock: NUHQIS_clean_sbu_0, # of connection points: 6
#     Node 6, Type 0, BuildingBlock: NUHQIS_clean_sbu_0, # of connection points: 6
#     Node 7, Type 0, BuildingBlock: NUHQIS_clean_sbu_0, # of connection points: 6
#     Node 8, Type 0, BuildingBlock: NUHQIS_clean_sbu_0, # of connection points: 6
#     Node 9, Type 0, BuildingBlock: NUHQIS_clean_sbu_0, # of connection points: 6
#     Node 10, Type 0, BuildingBlock: NUHQIS_clean_sbu_0, # of connection points: 6
#     Node 11, Type 0, BuildingBlock: NUHQIS_clean_sbu_0, # of connection points: 6
#     Edge 12, Type (0, 0), BuildingBlock: TEMPAE_clean_linker_10, # of connection points: 2
#     Edge 13, Type (0, 0), BuildingBlock: TEMPAE_clean_linker_10, # of connection points: 2
#     Edge 14, Type (0, 0), BuildingBlock: TEMPAE_clean_linker_10, # of connection points: 2
#     Edge 15, Type (0, 0), BuildingBlock: TEMPAE_clean_linker_10, # of connection points: 2
#     Edge 16, Type (0, 0), BuildingBlock: TEMPAE_clean_linker_10, # of connection points: 2
#     Edge 17, Type (0, 0), BuildingBlock: TEMPAE_clean_linker_10, # of connection points: 2
#     Edge 18, Type (0, 0), BuildingBlock: TEMPAE_clean_linker_10, # of connection points: 2
#     Edge 19, Type (0, 0), BuildingBlock: TEMPAE_clean_linker_10, # of connection points: 2
#     Edge 20, Type (0, 0), BuildingBlock: TEMPAE_clean_linker_10, # of connection points: 2
#     Edge 21, Type (0, 0), BuildingBlock: TEMPAE_clean_linker_10, # of connection points: 2
#     Edge 22, Type (0, 0), BuildingBlock: TEMPAE_clean_linker_10, # of connection points: 2
#     Edge 23, Type (0, 0), BuildingBlock: TEMPAE_clean_linker_10, # of connection points: 2
#     Edge 24, Type (0, 0), BuildingBlock: TEMPAE_clean_linker_10, # of connection points: 2
#     Edge 25, Type (0, 0), BuildingBlock: TEMPAE_clean_linker_10, # of connection points: 2
#     Edge 26, Type (0, 0), BuildingBlock: TEMPAE_clean_linker_10, # of connection points: 2
#     Edge 27, Type (0, 0), BuildingBlock: TEMPAE_clean_linker_10, # of connection points: 2
#     Edge 28, Type (0, 0), BuildingBlock: TEMPAE_clean_linker_10, # of connection points: 2
#     Edge 29, Type (0, 0), BuildingBlock: TEMPAE_clean_linker_10, # of connection points: 2
#     Edge 30, Type (0, 0), BuildingBlock: TEMPAE_clean_linker_10, # of connection points: 2
#     Edge 31, Type (0, 0), BuildingBlock: TEMPAE_clean_linker_10, # of connection points: 2
#     Edge 32, Type (0, 0), BuildingBlock: TEMPAE_clean_linker_10, # of connection points: 2
#     Edge 33, Type (0, 0), BuildingBlock: TEMPAE_clean_linker_10, # of connection points: 2
#     Edge 34, Type (0, 0), BuildingBlock: TEMPAE_clean_linker_10, # of connection points: 2
#     Edge 35, Type (0, 0), BuildingBlock: TEMPAE_clean_linker_10, # of connection points: 2
#     Edge 36, Type (0, 0), BuildingBlock: TEMPAE_clean_linker_10, # of connection points: 2
#     Edge 37, Type (0, 0), BuildingBlock: TEMPAE_clean_linker_10, # of connection points: 2
#     Edge 38, Type (0, 0), BuildingBlock: TEMPAE_clean_linker_10, # of connection points: 2
#     Edge 39, Type (0, 0), BuildingBlock: TEMPAE_clean_linker_10, # of connection points: 2
#     Edge 40, Type (0, 0), BuildingBlock: TEMPAE_clean_linker_10, # of connection points: 2
#     Edge 41, Type (0, 0), BuildingBlock: TEMPAE_clean_linker_10, # of connection points: 2
#     Edge 42, Type (0, 0), BuildingBlock: TEMPAE_clean_linker_10, # of connection points: 2
#     Edge 43, Type (0, 0), BuildingBlock: TEMPAE_clean_linker_10, # of connection points: 2
#     Edge 44, Type (0, 0), BuildingBlock: TEMPAE_clean_linker_10, # of connection points: 2
#     Edge 45, Type (0, 0), BuildingBlock: TEMPAE_clean_linker_10, # of connection points: 2
#     Edge 46, Type (0, 0), BuildingBlock: TEMPAE_clean_linker_10, # of connection points: 2
#     Edge 47, Type (0, 0), BuildingBlock: TEMPAE_clean_linker_10, # of connection points: 2
# Relax obj value: 0.092
# Max RMSD: 0.205
# Mean RMSD: 0.205
data_MOF--net-wjd--node1-NUHQIS_clean_sbu_0--edge1-TEMPAE_clean_linker_10
_symmetry_space_group_name_H-M    P1
_symmetry_Int_Tables_number       1
_symmetry_cell_setting            triclinic
loop_
_symmetry_equiv_pos_as_xyz
'x, y, z'
_cell_length_a     40.74055
_cell_length_b     40.615083
_cell_length_c     54.951932
_cell_angle_alpha  89.992354
_cell_angle_beta   90.014446
_cell_angle_gamma 120.06088
loop_
_atom_site_label
_atom_site_type_symbol
_atom_site_fract_x
_atom_site_fract_y
_atom_site_fract_z
_atom_type_partial_charge
Tb0 Tb 0.37706 0.1868 0.10652 0.0
Eu1 Eu 0.32746 0.0993 0.12848 0.0
C2 C 0.339 0.11455 0.07291 0.0
C3 C 0.28956 0.15028 0.11718 0.0
C4 C 0.44868 0.29176 0.09611 0.0
C5 C 0.4767 0.3562 0.11252 0.0
C6 C 0.44526 0.3199 0.10893 0.0
C7 C 0.48456 0.30095 0.087 0.0
C8 C 0.51608 0.33739 0.09054 0.0
C9 C 0.51252 0.36563 0.10321 0.0
C10 C 0.41413 0.25459 0.09058 0.0
O11 O 0.39245 0.1904 0.14519 0.0
O12 O 0.33662 0.14002 0.15877 0.0
O13 O 0.38915 0.11552 0.13433 0.0
O14 O 0.41693 0.16614 0.10753 0.0
C15 C 0.36844 0.17173 0.16294 0.0
O16 O 0.29878 0.05774 0.15761 0.0
O17 O 0.29587 0.03855 0.1206 0.0
O18 O 0.34583 0.09747 0.09057 0.0
O19 O 0.34273 0.14837 0.07659 0.0
O20 O 0.32356 0.18023 0.11891 0.0
O21 O 0.28479 0.11584 0.11551 0.0
C22 C 0.41882 0.14122 0.12193 0.0
O23 O 0.41816 0.22667 0.08236 0.0
O24 O 0.38637 0.24248 0.10612 0.0
C25 C 0.2418 1.00328 0.14464 0.0
C26 C 0.16251 0.95266 0.14359 0.0
C27 C 0.18798 0.93888 0.1457 0.0
C28 C 0.22717 0.96394 0.14621 0.0
C29 C 0.21667 1.01736 0.14287 0.0
C30 C 0.1774 0.99231 0.14241 0.0
C31 C 0.28312 0.0289 0.14269 0.0
H32 H 0.47265 0.37725 0.12203 0.0
H33 H 0.41796 0.31414 0.1158 0.0
H34 H 0.48823 0.28019 0.07682 0.0
H35 H 0.54328 0.34346 0.08333 0.0
H36 H 0.1777 0.9086 0.14623 0.0
H37 H 0.24613 0.95251 0.14722 0.0
H38 H 0.22745 0.04767 0.14144 0.0
H39 H 0.15872 1.00401 0.14103 0.0
Tb40 Tb 0.80887 0.71345 0.38553 0.0
Eu41 Eu 0.84865 0.66304 0.40302 0.0
C42 C 0.83865 0.67736 0.34667 0.0
C43 C 0.75959 0.6229 0.38763 0.0
C44 C 0.79698 0.79831 0.37769 0.0
C45 C 0.84443 0.86362 0.36765 0.0
C46 C 0.83071 0.8244 0.36581 0.0
C47 C 0.77749 0.81213 0.3915 0.0
C48 C 0.79133 0.85121 0.39352 0.0
C49 C 0.82495 0.87745 0.38164 0.0
C50 C 0.78221 0.7568 0.37705 0.0
O51 O 0.78997 0.69006 0.42146 0.0
O52 O 0.84516 0.697 0.43516 0.0
O53 O 0.89533 0.7197 0.39079 0.0
O54 O 0.86671 0.75519 0.39723 0.0
C55 C 0.81424 0.69872 0.43909 0.0
O56 O 0.8494 0.61923 0.42604 0.0
O57 O 0.89618 0.65263 0.40163 0.0
O58 O 0.83698 0.65227 0.36259 0.0
O59 O 0.83632 0.70722 0.35339 0.0
O60 O 0.76419 0.65468 0.37773 0.0
O61 O 0.78623 0.62166 0.40046 0.0
C62 C 0.8974 0.75265 0.39382 0.0
O63 O 0.79459 0.74322 0.36013 0.0
O64 O 0.7805 0.7413 0.39805 0.0
C65 C 0.88523 0.59122 0.41155 0.0
C66 C 0.89796 0.53046 0.39989 0.0
C67 C 0.91554 0.55389 0.42021 0.0
C68 C 0.90924 0.58384 0.42593 0.0
C69 C 0.86714 0.56779 0.39139 0.0
C70 C 0.87332 0.53756 0.38567 0.0
C71 C 0.8816 0.62484 0.41729 0.0
H72 H 0.87059 0.88316 0.35846 0.0
H73 H 0.84664 0.81457 0.35531 0.0
H74 H 0.75155 0.7926 0.40092 0.0
H75 H 0.77544 0.86088 0.4042 0.0
H76 H 0.93408 0.54893 0.43186 0.0
H77 H 0.92355 0.60161 0.44154 0.0
H78 H 0.84869 0.57318 0.37993 0.0
H79 H 0.85943 0.52026 0.36984 0.0
Tb80 Tb 0.85923 0.21657 0.11123 0.0
Eu81 Eu 0.94498 0.24932 0.13365 0.0
C82 C 0.93088 0.23871 0.07826 0.0
C83 C 0.88721 0.16034 0.12539 0.0
C84 C 0.7555 0.18625 0.10075 0.0
C85 C 0.69791 0.18494 0.08717 0.0
C86 C 0.73463 0.19184 0.08255 0.0
C87 C 0.73918 0.17445 0.12397 0.0
C88 C 0.70231 0.16746 0.12861 0.0
C89 C 0.6809 0.17205 0.11015 0.0
C90 C 0.79264 0.18999 0.0944 0.0
O91 O 0.85261 0.20989 0.1512 0.0
O92 O 0.91217 0.25553 0.16389 0.0
O93 O 0.93955 0.30078 0.12232 0.0
O94 O 0.87472 0.27235 0.12516 0.0
C95 C 0.87615 0.2321 0.16834 0.0
O96 O 0.98429 0.25027 0.16109 0.0
O97 O 1.00617 0.28332 0.12806 0.0
O98 O 0.94253 0.22679 0.09648 0.0
O99 O 0.90095 0.24282 0.08114 0.0
O100 O 0.87139 0.17023 0.10822 0.0
O101 O 0.91154 0.18585 0.14063 0.0
C102 C 0.9083 0.30305 0.1237 0.0
O103 O 0.82066 0.22386 0.08933 0.0
O104 O 0.80385 0.17059 0.10737 0.0
C105 C 0.03887 0.25355 0.14377 0.0
C106 C 0.08596 0.22132 0.13734 0.0
C107 C 0.09517 0.25043 0.15454 0.0
C108 C 0.07186 0.26634 0.15771 0.0
C109 C 0.02941 0.22448 0.12663 0.0
C110 C 0.05275 0.20861 0.12339 0.0
C111 C 1.01411 0.27004 0.14747 0.0
H112 H 0.68277 0.18964 0.07263 0.0
H113 H 0.74652 0.2009 0.06451 0.0
H114 H 0.75455 0.16982 0.13839 0.0
H115 H 0.69021 0.15741 0.14648 0.0
H116 H 0.12076 0.26135 0.16535 0.0
H117 H 0.07965 0.28871 0.17104 0.0
H118 H 1.00386 0.21396 0.1158 0.0
H119 H 0.04452 0.18603 0.11017 0.0
Tb120 Tb 0.33827 0.09782 0.3804 0.0
Eu121 Eu 0.38786 0.18642 0.40011 0.0
C122 C 0.38486 0.16613 0.34273 0.0
C123 C 0.42784 0.13588 0.38634 0.0
C124 C 0.24934 1.00622 0.37164 0.0
C125 C 0.18952 0.95061 0.3603 0.0
C126 C 0.22896 0.97297 0.35787 0.0
C127 C 0.22967 1.01695 0.38784 0.0
C128 C 0.1902 0.99464 0.39028 0.0
C129 C 0.16957 0.9611 0.37655 0.0
C130 C 0.29087 0.02983 0.36868 0.0
O131 O 0.3565 0.09659 0.41711 0.0
O132 O 0.35248 0.14693 0.43122 0.0
O133 O 0.3354 0.17989 0.38284 0.0
O134 O 0.29872 0.11711 0.39162 0.0
C135 C 0.35041 0.11392 0.43498 0.0
O136 O 0.43411 0.22939 0.42226 0.0
O137 O 0.39496 0.24317 0.40488 0.0
O138 O 0.40252 0.19158 0.35999 0.0
O139 O 0.35797 0.13096 0.34719 0.0
O140 O 0.39661 0.10858 0.37599 0.0
O141 O 0.42859 0.16454 0.39802 0.0
C142 C 0.30194 0.15011 0.38605 0.0
O143 O 0.30252 0.05866 0.35399 0.0
O144 O 0.3108 0.0394 0.38861 0.0
C145 C 0.45758 0.29407 0.41132 0.0
C146 C 0.51891 0.3679 0.40114 0.0
C147 C 0.49067 0.3625 0.41805 0.0
C148 C 0.46043 0.32603 0.42307 0.0
C149 C 0.48518 0.29916 0.39407 0.0
C150 C 0.51556 0.33574 0.38903 0.0
C151 C 0.42587 0.25592 0.41767 0.0
H152 H 0.17474 0.9247 0.34973 0.0
H153 H 0.24358 0.9642 0.34526 0.0
H154 H 0.24483 0.04257 0.39863 0.0
H155 H 0.17583 1.00384 0.40276 0.0
H156 H 0.49187 0.38652 0.42744 0.0
H157 H 0.43931 0.32276 0.43632 0.0
H158 H 0.48347 0.27486 0.38473 0.0
H159 H 0.5369 0.33869 0.37607 0.0
Tb160 Tb 0.83334 0.66849 0.10901 0.0
Eu161 Eu 0.79599 0.71716 0.13349 0.0
C162 C 0.80621 0.7163 0.07755 0.0
C163 C 0.88527 0.75316 0.12386 0.0
C164 C 0.86768 0.59844 0.09546 0.0
C165 C 0.88561 0.55336 0.08003 0.0
C166 C 0.87895 0.58363 0.07622 0.0
C167 C 0.86294 0.58221 0.1187 0.0
C168 C 0.86962 0.5518 0.12256 0.0
C169 C 0.88115 0.53694 0.10325 0.0
C170 C 0.86292 0.6318 0.09081 0.0
O171 O 0.84125 0.66879 0.14887 0.0
O172 O 0.79241 0.6771 0.16246 0.0
O173 O 0.74707 0.65966 0.12108 0.0
O174 O 0.77828 0.62566 0.1224 0.0
C175 C 0.81817 0.66734 0.16633 0.0
O176 O 0.79427 0.75387 0.16203 0.0
O177 O 0.75759 0.73982 0.13055 0.0
O178 O 0.81563 0.73916 0.09615 0.0
O179 O 0.80617 0.68382 0.07943 0.0
O180 O 0.87656 0.72821 0.10629 0.0
O181 O 0.85946 0.75011 0.13948 0.0
C182 C 0.74671 0.62692 0.12136 0.0
O183 O 0.82901 0.62533 0.0855 0.0
O184 O 0.88041 0.66073 0.10546 0.0
C185 C 0.78336 0.80218 0.14689 0.0
C186 C 0.80771 0.88076 0.14225 0.0
C187 C 0.79337 0.86157 0.1645 0.0
C188 C 0.78133 0.82276 0.16675 0.0
C189 C 0.79779 0.82115 0.12466 0.0
C190 C 0.80969 0.85993 0.12235 0.0
C191 C 0.77132 0.76138 0.1498 0.0
H192 H 0.89498 0.54329 0.06477 0.0
H193 H 0.88311 0.59588 0.05818 0.0
H194 H 0.85431 0.59318 0.13386 0.0
H195 H 0.86541 0.5397 0.14063 0.0
H196 H 0.79195 0.87665 0.18034 0.0
H197 H 0.77063 0.80884 0.18412 0.0
H198 H 0.79991 0.80604 0.10905 0.0
H199 H 0.82007 0.87346 0.10486 0.0
Tb200 Tb 0.94977 0.23705 0.37747 0.0
Eu201 Eu 0.86801 0.21423 0.40469 0.0
C202 C 0.87626 0.21277 0.34657 0.0
C203 C 0.92732 0.29827 0.39062 0.0
C204 C 0.039 0.23795 0.36213 0.0
C205 C 0.09456 0.23471 0.34954 0.0
C206 C 0.06921 0.24812 0.346 0.0
C207 C 0.03464 0.21441 0.38206 0.0
C208 C 0.06002 0.20098 0.38564 0.0
C209 C 0.09018 0.2107 0.36929 0.0
C210 C 1.01103 0.25016 0.35719 0.0
O211 O 0.96552 0.24926 0.41525 0.0
O212 O 0.90826 0.22128 0.43595 0.0
O213 O 0.86506 0.16021 0.39177 0.0
O214 O 0.92856 0.18133 0.39425 0.0
C215 C 0.94578 0.23813 0.43548 0.0
O216 O 0.82613 0.231 0.41303 0.0
O217 O 0.81619 0.1759 0.42492 0.0
O218 O 0.86082 0.22188 0.36442 0.0
O219 O 0.90618 0.20931 0.35013 0.0
O220 O 0.93965 0.2853 0.3729 0.0
O221 O 0.90905 0.27633 0.40905 0.0
C222 C 0.89326 0.15333 0.39295 0.0
O223 O 0.97755 0.22314 0.3507 0.0
O224 O 1.00876 0.27282 0.37304 0.0
C225 C 0.76196 0.1826 0.41719 0.0
C226 C 0.68507 0.15801 0.4055 0.0
C227 C 0.69911 0.16978 0.42927 0.0
C228 C 0.73697 0.18182 0.435 0.0
C229 C 0.74827 0.17049 0.39349 0.0
C230 C 0.71019 0.15824 0.38771 0.0
C231 C 0.80253 0.19889 0.42349 0.0
H232 H 0.11776 0.24337 0.33682 0.0
H233 H 0.07302 0.26615 0.33049 0.0
H234 H 1.01128 0.20595 0.39463 0.0
H235 H 0.05553 0.18234 0.40091 0.0
H236 H 0.68117 0.17089 0.4434 0.0
H237 H 0.747 0.19149 0.45333 0.0
H238 H 0.76714 0.17108 0.37939 0.0
H239 H 0.70052 0.14911 0.36929 0.0
Tb240 Tb 0.11936 0.32513 0.63398 0.0
Eu241 Eu 0.20425 0.37491 0.60929 0.0
C242 C 0.18885 0.3743 0.66719 0.0
C243 C 0.15597 0.41402 0.62327 0.0
C244 C 1.02647 0.23984 0.64681 0.0
C245 C 0.9697 0.18207 0.65972 0.0
C246 C 0.99492 0.22121 0.66218 0.0
C247 C 0.03256 0.21872 0.62895 0.0
C248 C 1.00727 0.17959 0.6264 0.0
C249 C 0.97548 0.1607 0.64177 0.0
C250 C 0.05311 0.28106 0.64973 0.0
O251 O 0.11675 0.30361 0.5977 0.0
O252 O 0.15951 0.35865 0.57934 0.0
O253 O 0.18754 0.31332 0.60636 0.0
O254 O 0.14927 0.29341 0.63987 0.0
C255 C 0.12797 0.32539 0.57847 0.0
O256 O 0.24593 0.42167 0.58673 0.0
O257 O 0.26091 0.38291 0.60371 0.0
O258 O 0.21161 0.37361 0.65037 0.0
O259 O 0.15342 0.36408 0.66245 0.0
O260 O 0.12486 0.38009 0.62271 0.0
O261 O 0.1898 0.41761 0.62359 0.0
C262 C 0.17094 0.28882 0.62405 0.0
O263 O 0.08386 0.29026 0.66207 0.0
O264 O 0.06048 0.30168 0.6301 0.0
C265 C 0.31116 0.44566 0.59638 0.0
C266 C 0.38572 0.50597 0.60619 0.0
C267 C 0.37876 0.47983 0.58729 0.0
C268 C 0.34197 0.45012 0.58248 0.0
C269 C 0.31774 0.47129 0.61544 0.0
C270 C 0.35467 0.50117 0.62029 0.0
C271 C 0.27278 0.41371 0.59076 0.0
H272 H 0.9453 0.16864 0.67166 0.0
H273 H 0.98973 0.23696 0.67609 0.0
H274 H 0.05694 0.23248 0.61702 0.0
H275 H 1.01287 0.16406 0.61257 0.0
H276 H 0.40185 0.48209 0.57629 0.0
H277 H 0.33759 0.43047 0.56782 0.0
H278 H 0.29437 0.46829 0.62647 0.0
H279 H 0.35878 0.52088 0.63482 0.0
Tb280 Tb 0.21048 0.85403 0.90127 0.0
Eu281 Eu 0.24891 0.9413 0.87871 0.0
C282 C 0.24113 0.9267 0.93542 0.0
C283 C 0.16088 0.89183 0.89027 0.0
C284 C 0.17676 0.74889 0.91154 0.0
C285 C 0.13922 0.68412 0.89579 0.0
C286 C 0.14434 0.72054 0.89953 0.0
C287 C 0.20405 0.73982 0.91964 0.0
C288 C 0.19887 0.70329 0.91595 0.0
C289 C 0.16621 0.67481 0.90415 0.0
C290 C 0.1799 0.78625 0.91737 0.0
O291 O 0.22212 0.84863 0.8628 0.0
O292 O 0.21951 0.90021 0.84837 0.0
O293 O 0.29301 0.92328 0.87297 0.0
O294 O 0.27135 0.87708 0.90263 0.0
C295 C 0.21796 0.86759 0.84471 0.0
O296 O 0.24793 0.97986 0.85136 0.0
O297 O 0.29011 1.00217 0.87985 0.0
O298 O 0.26405 0.94713 0.918 0.0
O299 O 0.21333 0.89146 0.93157 0.0
O300 O 0.1646 0.86173 0.88791 0.0
O301 O 0.19076 0.92581 0.89302 0.0
C302 C 0.29769 0.89973 0.88719 0.0
O303 O 0.21239 0.81399 0.92491 0.0
O304 O 0.16359 0.79855 0.90248 0.0
C305 C 0.26429 0.04016 0.86686 0.0
C306 C 0.2417 0.0949 0.87438 0.0
C307 C 0.25634 0.092 0.85177 0.0
C308 C 0.26754 0.06496 0.84809 0.0
C309 C 0.24978 0.04287 0.8895 0.0
C310 C 0.23875 0.07007 0.89325 0.0
C311 C 0.27404 1.01031 0.86215 0.0
H312 H 0.11349 0.6629 0.88695 0.0
H313 H 0.12238 0.72624 0.89343 0.0
H314 H 0.22919 0.76073 0.92917 0.0
H315 H 0.22051 0.69736 0.9224 0.0
H316 H 0.25842 0.1101 0.83668 0.0
H317 H 0.27822 0.063 0.83041 0.0
H318 H 0.24667 0.02375 0.90422 0.0
H319 H 0.22805 0.0717 0.91098 0.0
Tb320 Tb 0.73228 0.79771 0.63309 0.0
Eu321 Eu 0.68098 0.83328 0.60759 0.0
C322 C 0.67809 0.81678 0.66581 0.0
C323 C 0.64273 0.74366 0.62366 0.0
C324 C 0.81809 0.79126 0.64817 0.0
C325 C 0.87645 0.79621 0.66337 0.0
C326 C 0.83804 0.78456 0.66642 0.0
C327 C 0.83711 0.80988 0.62674 0.0
C328 C 0.87555 0.82142 0.6236 0.0
C329 C 0.8958 0.81481 0.64192 0.0
C330 C 0.77808 0.78028 0.65225 0.0
O331 O 0.73303 0.78592 0.59504 0.0
O332 O 0.71568 0.82643 0.57708 0.0
O333 O 0.73197 0.88139 0.62505 0.0
O334 O 0.77107 0.85663 0.6216 0.0
C335 C 0.73021 0.80371 0.57603 0.0
O336 O 0.63373 0.82646 0.58487 0.0
O337 O 0.67332 0.88175 0.59945 0.0
O338 O 0.66435 0.82688 0.64738 0.0
O339 O 0.70403 0.80678 0.66354 0.0
O340 O 0.6745 0.74792 0.63318 0.0
O341 O 0.64055 0.77121 0.61265 0.0
C342 C 0.76604 0.88592 0.62464 0.0
O343 O 0.77249 0.80728 0.66019 0.0
O344 O 0.754 0.76043 0.63517 0.0
C345 C 0.60923 0.86787 0.59358 0.0
C346 C 0.54862 0.88262 0.60117 0.0
C347 C 0.54395 0.85248 0.58613 0.0
C348 C 0.57384 0.84532 0.58233 0.0
C349 C 0.61389 0.89777 0.60884 0.0
C350 C 0.58397 0.90498 0.61263 0.0
C351 C 0.6414 0.86145 0.58789 0.0
H352 H 0.89114 0.7912 0.67806 0.0
H353 H 0.82398 0.77065 0.68321 0.0
H354 H 0.82226 0.81562 0.61251 0.0
H355 H 0.88928 0.83524 0.60674 0.0
H356 H 0.51706 0.83421 0.57729 0.0
H357 H 0.56932 0.82228 0.57031 0.0
H358 H 0.64085 0.91605 0.61762 0.0
H359 H 0.58886 0.92867 0.62413 0.0
Tb360 Tb 0.18812 0.37671 0.90377 0.0
Eu361 Eu 0.10278 0.32321 0.8801 0.0
C362 C 0.11466 0.32847 0.93569 0.0
C363 C 0.15908 0.29131 0.89158 0.0
C364 C 0.29169 0.44915 0.9152 0.0
C365 C 0.35963 0.48454 0.9231 0.0
C366 C 0.32322 0.45496 0.92886 0.0
C367 C 0.2972 0.47326 0.89539 0.0
C368 C 0.33378 0.50305 0.8896 0.0
C369 C 0.36553 0.50925 0.9035 0.0
C370 C 0.25379 0.41735 0.92192 0.0
O371 O 0.19724 0.37358 0.86441 0.0
O372 O 0.13826 0.35741 0.84894 0.0
O373 O 0.10938 0.38102 0.88965 0.0
O374 O 0.17413 0.41604 0.88653 0.0
C375 C 0.17433 0.36874 0.84597 0.0
O376 O 0.06378 0.28475 0.85254 0.0
O377 O 0.04153 0.29701 0.88492 0.0
O378 O 0.10376 0.30425 0.91782 0.0
O379 O 0.14504 0.3624 0.93286 0.0
O380 O 0.1752 0.3181 0.90814 0.0
O381 O 0.13475 0.29141 0.87593 0.0
C382 C 0.14104 0.41411 0.88765 0.0
O383 O 0.22624 0.42469 0.92425 0.0
O384 O 0.24263 0.38528 0.91065 0.0
C385 C 1.00819 0.2343 0.86954 0.0
C386 C 0.95982 0.15506 0.87612 0.0
C387 C 0.95078 0.1754 0.8592 0.0
C388 C 0.97474 0.2146 0.85595 0.0
C389 C 1.01744 0.21427 0.88645 0.0
C390 C 0.99345 0.17507 0.88976 0.0
C391 C 0.03371 0.27544 0.86569 0.0
H392 H 0.38327 0.48782 0.93396 0.0
H393 H 0.31968 0.43647 0.94406 0.0
H394 H 0.27327 0.46917 0.88449 0.0
H395 H 0.33708 0.52161 0.87451 0.0
H396 H 0.92487 0.1611 0.84865 0.0
H397 H 0.96714 0.22955 0.84281 0.0
H398 H 0.04333 0.22894 0.897 0.0
H399 H 1.00153 0.16035 0.90276 0.0
Tb400 Tb 0.25935 0.938 0.63314 0.0
Eu401 Eu 0.22336 0.85297 0.60755 0.0
C402 C 0.23803 0.86752 0.66575 0.0
C403 C 0.31103 0.90133 0.62135 0.0
C404 C 0.26927 0.03178 0.6478 0.0
C405 C 0.26371 0.0842 0.66467 0.0
C406 C 0.27614 0.05777 0.66661 0.0
C407 C 0.24949 0.03243 0.62702 0.0
C408 C 0.23725 0.059 0.62499 0.0
C409 C 0.24419 0.08532 0.64378 0.0
C410 C 0.28222 1.0038 0.65025 0.0
O411 O 0.24216 0.94269 0.59681 0.0
O412 O 0.25101 0.89807 0.57756 0.0
O413 O 0.17934 0.87045 0.6044 0.0
O414 O 0.19755 0.90837 0.63817 0.0
C415 C 0.25164 0.9309 0.57736 0.0
O416 O 0.22767 0.81215 0.58354 0.0
O417 O 0.17537 0.79546 0.60291 0.0
O418 O 0.21471 0.84501 0.64871 0.0
O419 O 0.26369 0.90294 0.66105 0.0
O420 O 0.30848 0.93258 0.62156 0.0
O421 O 0.28067 0.86741 0.62129 0.0
C422 C 0.17155 0.8872 0.62202 0.0
O423 O 0.25935 0.97248 0.66176 0.0
O424 O 0.29609 0.99705 0.63071 0.0
C425 C 0.18883 0.74638 0.59331 0.0
C426 C 0.17638 0.67186 0.60145 0.0
C427 C 0.16935 0.68261 0.57852 0.0
C428 C 0.17552 0.71936 0.57454 0.0
C429 C 0.19603 0.73606 0.61625 0.0
C430 C 0.18984 0.69918 0.62029 0.0
C431 C 0.19362 0.78446 0.58862 0.0
H432 H 0.26905 0.10348 0.6797 0.0
H433 H 0.29102 0.05753 0.68289 0.0
H434 H 0.24357 1.01246 0.61232 0.0
H435 H 0.22278 0.0592 0.60851 0.0
H436 H 0.15846 0.66239 0.56367 0.0
H437 H 0.1695 0.72659 0.55674 0.0
H438 H 0.20629 0.75645 0.63103 0.0
H439 H 0.19603 0.69221 0.63809 0.0
Tb440 Tb 0.66549 0.82919 0.9014 0.0
Eu441 Eu 0.71692 0.79191 0.8831 0.0
C442 C 0.69497 0.78964 0.93673 0.0
C443 C 0.7533 0.8808 0.89466 0.0
C444 C 0.59252 0.86018 0.91078 0.0
C445 C 0.54016 0.86789 0.92501 0.0
C446 C 0.57087 0.86245 0.92983 0.0
C447 C 0.58224 0.86241 0.88665 0.0
C448 C 0.55151 0.86797 0.88179 0.0
C449 C 0.5304 0.87141 0.90093 0.0
C450 C 0.62736 0.85884 0.91665 0.0
O451 O 0.65496 0.82033 0.86212 0.0
O452 O 0.71045 0.82249 0.85108 0.0
O453 O 0.65651 0.74513 0.87493 0.0
O454 O 0.62399 0.76947 0.896 0.0
C455 C 0.68015 0.82452 0.8455 0.0
O456 O 0.74868 0.77818 0.85674 0.0
O457 O 0.75025 0.76648 0.89504 0.0
O458 O 0.68905 0.76685 0.91857 0.0
O459 O 0.69597 0.82207 0.93256 0.0
O460 O 0.71978 0.87688 0.89095 0.0
O461 O 0.75743 0.85097 0.89763 0.0
C462 C 0.62481 0.74205 0.88368 0.0
O463 O 0.62343 0.827 0.92501 0.0
O464 O 0.65521 0.87484 0.90117 0.0
C465 C 0.80662 0.78628 0.87326 0.0
C466 C 0.88642 0.82115 0.87751 0.0
C467 C 0.86982 0.84102 0.86712 0.0
C468 C 0.83023 0.82385 0.8652 0.0
C469 C 0.82323 0.76628 0.88321 0.0
C470 C 0.86264 0.78351 0.88537 0.0
C471 C 0.76484 0.76848 0.87363 0.0
H472 H 0.52414 0.8695 0.94022 0.0
H473 H 0.57822 0.86082 0.94857 0.0
H474 H 0.59849 0.86081 0.87156 0.0
H475 H 0.54504 0.8707 0.86304 0.0
H476 H 0.8874 0.87013 0.86105 0.0
H477 H 0.81809 0.84016 0.85787 0.0
H478 H 0.80561 0.73745 0.88976 0.0
H479 H 0.87455 0.7673 0.89319 0.0
C480 C 0.11951 0.19724 0.11034 0.0
C481 C 0.11125 0.20482 0.1338 0.0
C482 C 0.14525 0.18413 0.10671 0.0
C483 C 0.16332 0.17843 0.127 0.0
C484 C 0.15397 0.18459 0.15076 0.0
C485 C 0.12815 0.19768 0.15386 0.0
C486 C 0.15441 0.17805 0.08107 0.0
C487 C 0.17241 0.17879 0.17292 0.0
C488 C 0.21903 0.12594 0.12013 0.0
C489 C 0.25643 0.1564 0.11845 0.0
C490 C 0.18824 0.13247 0.12259 0.0
C491 C 0.19501 0.1703 0.12335 0.0
C492 C 0.23261 0.20101 0.1212 0.0
C493 C 0.26266 0.19371 0.11878 0.0
C494 C 0.14857 0.09893 0.12476 0.0
C495 C 0.2413 0.24181 0.12185 0.0
H496 H 0.10689 0.20288 0.09469 0.0
H497 H 0.12144 0.20269 0.17208 0.0
H498 H 0.18396 0.20004 0.07656 0.0
H499 H 0.15253 0.14993 0.07943 0.0
H500 H 0.1351 0.1797 0.06747 0.0
H501 H 0.15966 0.18145 0.19015 0.0
H502 H 0.16989 0.1503 0.17238 0.0
H503 H 0.2031 0.20023 0.17303 0.0
H504 H 0.21381 0.09703 0.11986 0.0
H505 H 0.2913 0.21759 0.11737 0.0
H506 H 0.1302 0.10039 0.11039 0.0
H507 H 0.13621 0.09984 0.14256 0.0
H508 H 0.14789 0.07131 0.12318 0.0
H509 H 0.22525 0.24668 0.10735 0.0
H510 H 0.27198 0.26245 0.11937 0.0
H511 H 0.23215 0.24774 0.13953 0.0
C512 C 0.10429 0.91889 0.35929 0.0
C513 C 0.12761 0.9365 0.37954 0.0
C514 C 0.06535 0.89283 0.36202 0.0
C515 C 0.04911 0.88404 0.3856 0.0
C516 C 0.07203 0.90321 0.40601 0.0
C517 C 0.11094 0.92913 0.40275 0.0
C518 C 0.04203 0.87321 0.33973 0.0
C519 C 0.05596 0.89476 0.43146 0.0
C520 C 0.94096 0.82394 0.3909 0.0
C521 C 0.9358 0.78721 0.39319 0.0
C522 C 0.97767 0.856 0.38878 0.0
C523 C 1.00985 0.85117 0.38908 0.0
C524 C 1.00468 0.81425 0.392 0.0
C525 C 0.96794 0.78294 0.394 0.0
C526 C 0.98201 0.8949 0.38576 0.0
C527 C 0.03802 0.80761 0.39254 0.0
H528 H 0.11665 0.92498 0.34123 0.0
H529 H 0.12863 0.94235 0.41856 0.0
H530 H 0.03407 0.84277 0.33998 0.0
H531 H 1.01536 0.87429 0.33971 0.0
H532 H 0.05766 0.88616 0.32259 0.0
H533 H 0.07591 0.91554 0.44494 0.0
H534 H 0.02886 0.89499 0.43217 0.0
H535 H 0.04977 0.86589 0.43689 0.0
H536 H 0.91636 0.82756 0.39022 0.0
H537 H 0.96449 0.75483 0.396 0.0
H538 H 0.99498 0.90688 0.36782 0.0
H539 H 1.00138 0.91453 0.39989 0.0
H540 H 0.95442 0.89415 0.38699 0.0
H541 H 0.05366 0.8168 0.37505 0.0
H542 H 0.02923 0.77726 0.39562 0.0
H543 H 0.05805 0.82487 0.40718 0.0
C544 C 0.85209 0.09248 0.11092 0.0
C545 C 0.87739 0.11979 0.12747 0.0
C546 C 0.84154 0.05389 0.11303 0.0
C547 C 0.85647 0.04202 0.13222 0.0
C548 C 0.88231 0.06945 0.14885 0.0
C549 C 0.89248 0.10793 0.14627 0.0
C550 C 0.81407 0.02571 0.09482 0.0
C551 C 0.89887 0.05807 0.16958 0.0
C552 C 0.80047 0.93772 0.15134 0.0
C553 C 0.8205 0.92224 0.13984 0.0
C554 C 0.81206 0.97658 0.14921 0.0
C555 C 0.84443 1.00081 0.13511 0.0
C556 C 0.86484 0.98546 0.12348 0.0
C557 C 0.85272 0.94651 0.12602 0.0
C558 C 0.78944 0.99168 0.16193 0.0
C559 C 0.89946 1.0102 0.10826 0.0
H560 H 0.84024 0.10118 0.0963 0.0
H561 H 0.91202 0.12866 0.15918 0.0
H562 H 0.82692 1.01043 0.08579 0.0
H563 H 0.78812 1.00407 0.10431 0.0
H564 H 0.80569 0.03956 0.08062 0.0
H565 H 0.91919 0.08286 0.18065 0.0
H566 H 0.87578 0.0376 0.18163 0.0
H567 H 0.91372 0.04349 0.16242 0.0
H568 H 0.77523 0.91929 0.16176 0.0
H569 H 0.86884 0.93515 0.11735 0.0
H570 H 0.77784 1.00335 0.14833 0.0
H571 H 0.80811 1.01532 0.1743 0.0
H572 H 0.76554 0.9694 0.17269 0.0
H573 H 0.89181 0.02318 0.09312 0.0
H574 H 0.91231 0.99402 0.10045 0.0
H575 H 0.92112 0.03383 0.11947 0.0
C576 C 0.2732 0.19157 0.38069 0.0
C577 C 0.26811 0.15508 0.38454 0.0
C578 C 0.24224 0.19761 0.37897 0.0
C579 C 0.20487 0.16643 0.38106 0.0
C580 C 0.19935 0.12946 0.38505 0.0
C581 C 0.23102 0.12421 0.38678 0.0
C582 C 0.24964 0.23753 0.37475 0.0
C583 C 0.15999 0.09544 0.38733 0.0
C584 C 0.13072 0.19458 0.39592 0.0
C585 C 0.11708 0.19606 0.3727 0.0
C586 C 0.15793 0.18321 0.39907 0.0
C587 C 0.17198 0.17302 0.37854 0.0
C588 C 0.15724 0.17302 0.35518 0.0
C589 C 0.13007 0.18449 0.35256 0.0
C590 C 0.17285 0.1837 0.42429 0.0
C591 C 0.17123 0.16228 0.33279 0.0
H592 H 0.30161 0.21576 0.37898 0.0
H593 H 0.22669 0.09593 0.38974 0.0
H594 H 0.23633 0.23874 0.35741 0.0
H595 H 0.23663 0.24576 0.38954 0.0
H596 H 0.2804 0.25881 0.37395 0.0
H597 H 0.16043 0.06867 0.39067 0.0
H598 H 0.14463 0.09987 0.40249 0.0
H599 H 0.14366 0.09209 0.37045 0.0
H600 H 0.12113 0.20363 0.4116 0.0
H601 H 0.11918 0.18471 0.3346 0.0
H602 H 0.2029 0.20673 0.42553 0.0
H603 H 0.17204 0.15648 0.42809 0.0
H604 H 0.1564 0.18847 0.43859 0.0
H605 H 0.20141 0.18379 0.3295 0.0
H606 H 0.15463 0.16047 0.31629 0.0
H607 H 0.16972 0.13449 0.33552 0.0
C608 C 0.09832 0.93236 0.12544 0.0
C609 C 0.12079 0.92562 0.14183 0.0
C610 C 0.05942 0.90608 0.12265 0.0
C611 C 0.04246 0.87206 0.13646 0.0
C612 C 0.06477 0.86543 0.15337 0.0
C613 C 0.10352 0.89227 0.15589 0.0
C614 C 0.03665 0.91433 0.10449 0.0
C615 C 0.04785 0.82956 0.16848 0.0
C616 C 0.93494 0.81373 0.14359 0.0
C617 C 0.92516 0.78473 0.12636 0.0
C618 C 0.97286 0.84272 0.14678 0.0
C619 C 1.00181 0.84262 0.13256 0.0
C620 C 0.99205 0.81372 0.11494 0.0
C621 C 0.95393 0.78527 0.11201 0.0
C622 C 0.98201 0.87319 0.16561 0.0
C623 C 1.02201 0.81241 0.09946 0.0
H624 H 0.11135 0.95773 0.11425 0.0
H625 H 0.12039 0.88704 0.1689 0.0
H626 H 1.02654 0.89285 0.0897 0.0
H627 H 1.01121 0.91218 0.11338 0.0
H628 H 0.05342 0.94305 0.09625 0.0
H629 H 0.06871 0.82916 0.18132 0.0
H630 H 1.02333 0.8266 0.17906 0.0
H631 H 0.03711 0.80439 0.15637 0.0
H632 H 0.91298 0.8137 0.15473 0.0
H633 H 0.94682 0.763 0.09869 0.0
H634 H 0.9977 0.90173 0.15707 0.0
H635 H 1.00071 0.87195 0.17983 0.0
H636 H 0.95615 0.87014 0.17452 0.0
H637 H 0.03837 0.83949 0.08931 0.0
H638 H 1.00971 0.78856 0.0862 0.0
H639 H 0.04234 0.80921 0.11127 0.0
C640 C 0.85084 0.94235 0.36304 0.0
C641 C 0.83914 0.91901 0.38375 0.0
C642 C 0.86164 0.98105 0.36461 0.0
C643 C 0.86108 0.99693 0.38747 0.0
C644 C 0.8505 0.97378 0.40855 0.0
C645 C 0.83953 0.93512 0.40642 0.0
C646 C 0.87248 1.00466 0.34167 0.0
C647 C 0.84996 0.98963 0.4333 0.0
C648 C 0.91451 0.10491 0.39441 0.0
C649 C 0.88514 0.11332 0.39218 0.0
C650 C 0.90716 0.06721 0.39301 0.0
C651 C 0.86958 0.03716 0.38916 0.0
C652 C 0.83983 0.04546 0.38695 0.0
C653 C 0.84793 0.08333 0.38856 0.0
C654 C 0.93964 0.05956 0.39561 0.0
C655 C 0.79938 1.01431 0.38272 0.0
H656 H 0.85033 0.93002 0.34545 0.0
H657 H 0.83105 0.91737 0.42255 0.0
H658 H 0.85172 1.0142 0.33813 0.0
H659 H 0.90068 0.03055 0.34387 0.0
H660 H 0.87334 0.98863 0.32553 0.0
H661 H 0.84327 0.96852 0.44807 0.0
H662 H 0.87785 1.01514 0.43719 0.0
H663 H 0.82843 0.99873 0.43357 0.0
H664 H 0.94337 0.12781 0.39719 0.0
H665 H 0.82501 0.08942 0.38672 0.0
H666 H 0.94196 0.04538 0.37898 0.0
H667 H 0.93419 0.03991 0.41108 0.0
H668 H 0.96718 0.08602 0.39868 0.0
H669 H 0.79757 0.9987 0.36574 0.0
H670 H 0.77954 0.02549 0.38125 0.0
H671 H 0.78987 0.99348 0.39787 0.0
C672 C 0.25435 0.1513 0.65011 0.0
C673 C 0.23143 0.11396 0.64154 0.0
C674 C 0.24305 0.1787 0.64781 0.0
C675 C 0.20806 0.16882 0.63648 0.0
C676 C 0.18464 0.13117 0.62794 0.0
C677 C 0.19651 0.10424 0.63063 0.0
C678 C 0.26889 0.21846 0.65722 0.0
C679 C 0.14718 0.11944 0.6157 0.0
C680 C 0.16629 0.23333 0.64749 0.0
C681 C 0.17846 0.25668 0.62676 0.0
C682 C 0.17525 0.20432 0.65078 0.0
C683 C 0.19671 0.19828 0.63285 0.0
C684 C 0.20831 0.2212 0.61165 0.0
C685 C 0.19917 0.25009 0.60891 0.0
C686 C 0.16244 0.18064 0.67368 0.0
C687 C 0.23094 0.21559 0.59198 0.0
H688 H 0.2816 0.15943 0.65823 0.0
H689 H 0.17823 0.0754 0.62429 0.0
H690 H 0.27831 0.23902 0.64191 0.0
H691 H 0.25334 0.22662 0.67021 0.0
H692 H 0.29438 0.22121 0.66649 0.0
H693 H 0.13191 0.08891 0.61046 0.0
H694 H 0.12876 0.12477 0.628 0.0
H695 H 0.15192 0.13683 0.5991 0.0
H696 H 0.15033 0.23814 0.66143 0.0
H697 H 0.2086 0.26777 0.59276 0.0
H698 H 0.18753 0.18494 0.68421 0.0
H699 H 0.14573 0.14999 0.669 0.0
H700 H 0.14488 0.18798 0.68548 0.0
H701 H 0.25847 0.22094 0.59947 0.0
H702 H 0.23661 0.23481 0.5762 0.0
H703 H 0.21554 0.18574 0.58543 0.0
C704 C 0.09183 0.85121 0.88104 0.0
C705 C 0.12205 0.88657 0.88849 0.0
C706 C 0.05472 0.84474 0.87925 0.0
C707 C 0.04718 0.87419 0.88524 0.0
C708 C 0.07749 0.91013 0.89261 0.0
C709 C 0.11464 0.91596 0.89405 0.0
C710 C 1.02346 0.80607 0.87111 0.0
C711 C 0.07058 0.94217 0.89931 0.0
C712 C 0.9527 0.85797 0.8607 0.0
C713 C 0.92834 0.8392 0.8803 0.0
C714 C 0.9919 0.87142 0.86242 0.0
C715 C 1.00719 0.86637 0.88436 0.0
C716 C 0.98298 0.8494 0.90463 0.0
C717 C 0.94391 0.83583 0.9023 0.0
C718 C 1.01655 0.88902 0.84031 0.0
C719 C 0.99803 0.84386 0.92846 0.0
H720 H 0.09708 0.8283 0.87648 0.0
H721 H 0.13775 0.94336 0.89982 0.0
H722 H 1.00214 0.79266 0.88582 0.0
H723 H 1.00865 0.80905 0.85505 0.0
H724 H 0.03424 0.78663 0.86629 0.0
H725 H 0.09727 0.96877 0.90383 0.0
H726 H 0.05636 0.94803 0.88408 0.0
H727 H 0.05128 0.93376 0.91523 0.0
H728 H 0.94084 0.86058 0.84363 0.0
H729 H 0.92532 0.82193 0.91765 0.0
H730 H 1.02574 0.86941 0.83307 0.0
H731 H 0.04252 0.91597 0.84523 0.0
H732 H 1.00142 0.89491 0.82564 0.0
H733 H 1.00665 0.8221 0.92617 0.0
H734 H 0.97658 0.83442 0.94323 0.0
H735 H 1.02356 0.87068 0.93415 0.0
C736 C 0.83655 0.93241 0.62688 0.0
C737 C 0.79907 0.9253 0.62675 0.0
C738 C 0.86752 0.96979 0.62907 0.0
C739 C 0.86091 1.00082 0.63114 0.0
C740 C 0.82318 0.99375 0.63093 0.0
C741 C 0.79289 0.95628 0.62878 0.0
C742 C 0.9073 0.97609 0.62925 0.0
C743 C 0.81469 0.02583 0.63307 0.0
C744 C 0.93289 0.0956 0.65951 0.0
C745 C 0.94815 0.11903 0.63897 0.0
C746 C 0.90565 0.05678 0.65719 0.0
C747 C 0.89311 0.04079 0.63376 0.0
C748 C 0.90919 0.064 0.61293 0.0
C749 C 0.93647 0.10273 0.61578 0.0
C750 C 0.88945 0.03313 0.67989 0.0
C751 C 0.89655 0.04826 0.58762 0.0
H752 H 0.84172 0.90879 0.62535 0.0
H753 H 0.76417 0.95135 0.6287 0.0
H754 H 0.92399 0.99542 0.61417 0.0
H755 H 0.92171 0.99009 0.64649 0.0
H756 H 0.90775 0.94908 0.62734 0.0
H757 H 0.78381 1.01564 0.63235 0.0
H758 H 0.82612 0.04123 0.65047 0.0
H759 H 0.82886 0.04661 0.61813 0.0
H760 H 0.94216 0.10769 0.67749 0.0
H761 H 0.94776 0.12056 0.59979 0.0
H762 H 0.89162 1.007 0.67882 0.0
H763 H 0.85891 0.02398 0.68145 0.0
H764 H 0.90413 0.04898 0.69665 0.0
H765 H 0.8983 0.02207 0.58515 0.0
H766 H 0.91387 0.06906 0.5733 0.0
H767 H 0.86646 0.04031 0.585 0.0
C768 C 0.15508 0.23389 0.87145 0.0
C769 C 0.16889 0.26065 0.89041 0.0
C770 C 0.16588 0.20611 0.86933 0.0
C771 C 0.19097 0.20484 0.88666 0.0
C772 C 0.20434 0.23121 0.90615 0.0
C773 C 0.19325 0.25881 0.90775 0.0
C774 C 0.15108 0.17863 0.84823 0.0
C775 C 0.2309 0.23065 0.92511 0.0
C776 C 0.19621 0.11394 0.89151 0.0
C777 C 0.22908 0.12334 0.87806 0.0
C778 C 0.18364 0.14022 0.89464 0.0
C779 C 0.20423 0.17677 0.88393 0.0
C780 C 0.23749 0.18652 0.87044 0.0
C781 C 0.24957 0.15982 0.86777 0.0
C782 C 0.14813 0.12876 0.90925 0.0
C783 C 0.26027 0.22516 0.85871 0.0
H784 H 0.13629 0.23501 0.85792 0.0
H785 H 0.20404 0.27923 0.92253 0.0
H786 H 0.17509 0.18255 0.83666 0.0
H787 H 0.13667 0.14891 0.85501 0.0
H788 H 0.13082 0.18254 0.83676 0.0
H789 H 0.23746 0.25201 0.9397 0.0
H790 H 0.21825 0.20204 0.93355 0.0
H791 H 0.25787 0.23654 0.9164 0.0
H792 H 0.17981 0.08572 0.89926 0.0
H793 H 0.27534 0.16768 0.8577 0.0
H794 H 0.12646 0.12986 0.89759 0.0
H795 H 0.15442 0.14908 0.92443 0.0
H796 H 0.13588 0.09964 0.91691 0.0
H797 H 0.24217 0.23 0.84579 0.0
H798 H 0.28536 0.22825 0.84871 0.0
H799 H 0.27014 0.24774 0.87277 0.0
C800 C 0.10511 0.8598 0.60622 0.0
C801 C 0.13212 0.88018 0.62434 0.0
C802 C 0.06719 0.85089 0.60865 0.0
C803 C 0.05571 0.86241 0.62977 0.0
C804 C 0.08294 0.88369 0.6479 0.0
C805 C 0.12081 0.89241 0.64494 0.0
C806 C 0.03922 0.82842 0.58878 0.0
C807 C 0.07188 0.89645 0.67072 0.0
C808 C 0.96191 0.86217 0.6277 0.0
C809 C 0.93689 0.82724 0.6388 0.0
C810 C 1.00064 0.87413 0.62479 0.0
C811 C 1.01489 0.85075 0.63326 0.0
C812 C 0.98987 0.8156 0.64458 0.0
C813 C 0.95128 0.80424 0.64711 0.0
C814 C 1.02629 0.91176 0.61257 0.0
C815 C 1.0038 0.78975 0.65385 0.0
H816 H 0.11347 0.85036 0.59015 0.0
H817 H 0.14135 0.90815 0.65906 0.0
H818 H 1.01702 0.8006 0.59606 0.0
H819 H 1.02476 0.84378 0.58231 0.0
H820 H 0.05298 0.82313 0.57299 0.0
H821 H 0.09666 0.91421 0.68257 0.0
H822 H 0.05788 0.91301 0.66594 0.0
H823 H 0.05109 0.87123 0.68123 0.0
H824 H 0.95133 0.88046 0.62152 0.0
H825 H 0.93223 0.77695 0.65536 0.0
H826 H 0.03924 0.90718 0.59609 0.0
H827 H 0.04982 0.93044 0.62498 0.0
H828 H 1.01093 0.92678 0.60715 0.0
H829 H 1.01529 0.78079 0.63853 0.0
H830 H 0.981 0.76388 0.66287 0.0
H831 H 1.02724 0.80525 0.66704 0.0
C832 C 0.91637 0.08941 0.85961 0.0
C833 C 0.93396 0.1133 0.87966 0.0
C834 C 0.89005 0.05052 0.86271 0.0
C835 C 0.88093 0.03491 0.88646 0.0
C836 C 0.89966 0.0585 0.90673 0.0
C837 C 0.92589 0.09734 0.90309 0.0
C838 C 0.87087 0.02646 0.84057 0.0
C839 C 0.89077 0.0431 0.93235 0.0
C840 C 0.78109 0.95135 0.89456 0.0
C841 C 0.78676 0.91997 0.8943 0.0
C842 C 0.81153 0.98869 0.89254 0.0
C843 C 0.8489 0.99519 0.89014 0.0
C844 C 0.85509 0.96377 0.89042 0.0
C845 C 0.82393 0.9265 0.89254 0.0
C846 C 0.80351 0.02122 0.89242 0.0
C847 C 0.89449 0.96948 0.88794 0.0
H848 H 0.92295 0.10124 0.8414 0.0
H849 H 0.93907 0.11551 0.91874 0.0
H850 H 0.87293 1.00024 0.84085 0.0
H851 H 0.84029 1.01752 0.84079 0.0
H852 H 0.88341 0.04196 0.82332 0.0
H853 H 0.91055 0.06389 0.94589 0.0
H854 H 0.86145 0.03587 0.93714 0.0
H855 H 0.89213 1.01656 0.93375 0.0
H856 H 0.75258 0.9468 0.89609 0.0
H857 H 0.82864 0.90249 0.89226 0.0
H858 H 0.8124 0.03646 0.87476 0.0
H859 H 0.82015 0.04198 0.90689 0.0
H860 H 0.77299 1.01147 0.89528 0.0
H861 H 0.90662 0.98259 0.87005 0.0
H862 H 0.89476 0.94234 0.88946 0.0
H863 H 0.91333 0.98936 0.90217 0.0
C864 C 0.39023 0.14852 0.30019 0.0
C865 C 0.39405 0.17653 0.31672 0.0
C866 C 0.39239 0.1548 0.27501 0.0
C867 C 0.398 0.18989 0.26592 0.0
C868 C 0.4042 0.21921 0.28254 0.0
C869 C 0.40238 0.21226 0.30783 0.0
C870 C 0.38621 0.12284 0.25811 0.0
C871 C 0.41025 0.25699 0.27367 0.0
C872 C 0.41511 0.20075 0.19736 0.0
C873 C 0.37779 0.18402 0.18866 0.0
C874 C 0.42272 0.20535 0.22258 0.0
C875 C 0.39234 0.19334 0.23933 0.0
C876 C 0.35504 0.17928 0.23039 0.0
C877 C 0.34823 0.17453 0.20526 0.0
C878 C 0.46287 0.22043 0.23127 0.0
C879 C 0.32177 0.16664 0.24744 0.0
H880 H 0.38428 0.12099 0.30698 0.0
H881 H 0.40524 0.23398 0.32052 0.0
H882 H 0.35845 0.11159 0.2488 0.0
H883 H 0.40847 0.1334 0.24387 0.0
H884 H 0.38637 0.09902 0.26795 0.0
H885 H 0.42083 0.2787 0.28836 0.0
H886 H 0.43066 0.26773 0.25831 0.0
H887 H 0.38298 0.25334 0.26686 0.0
H888 H 0.43806 0.208 0.18462 0.0
H889 H 0.31935 0.16197 0.19861 0.0
H890 H 0.46593 0.19653 0.23837 0.0
H891 H 0.46971 0.241 0.24637 0.0
H892 H 0.4838 0.23451 0.21639 0.0
H893 H 0.31624 0.14023 0.25694 0.0
H894 H 0.29552 0.16087 0.23768 0.0
H895 H 0.32816 0.1886 0.26153 0.0
C896 C 0.83513 0.63713 0.3106 0.0
C897 C 0.84223 0.67215 0.32018 0.0
C898 C 0.83437 0.63139 0.28523 0.0
C899 C 0.84083 0.66135 0.26913 0.0
C900 C 0.85006 0.69729 0.2788 0.0
C901 C 0.85064 0.70221 0.30408 0.0
C902 C 0.82481 0.59277 0.2757 0.0
C903 C 0.85734 0.73018 0.26242 0.0
C904 C 0.85801 0.66524 0.20073 0.0
C905 C 0.82275 0.65802 0.19179 0.0
C906 C 0.86382 0.66367 0.22592 0.0
C907 C 0.83366 0.65459 0.24241 0.0
C908 C 0.79731 0.64426 0.23319 0.0
C909 C 0.79235 0.64613 0.20808 0.0
C910 C 0.90289 0.67438 0.23495 0.0
C911 C 0.76419 0.63407 0.24996 0.0
H912 H 0.82875 0.61376 0.32286 0.0
H913 H 0.85674 0.72959 0.3112 0.0
H914 H 0.79546 0.57806 0.26843 0.0
H915 H 0.84402 0.59558 0.26053 0.0
H916 H 0.82674 0.57466 0.29013 0.0
H917 H 0.8671 0.75704 0.27271 0.0
H918 H 0.87906 0.73489 0.24856 0.0
H919 H 0.8309 0.72343 0.25258 0.0
H920 H 0.88163 0.67437 0.18828 0.0
H921 H 0.76482 0.63988 0.20129 0.0
H922 H 0.9012 0.655 0.24974 0.0
H923 H 0.91678 0.70361 0.24254 0.0
H924 H 0.92105 0.67366 0.22012 0.0
H925 H 0.76146 0.61268 0.26357 0.0
H926 H 0.73698 0.62259 0.23989 0.0
H927 H 0.76909 0.65981 0.26006 0.0
C928 C 0.83036 0.19749 0.20265 0.0
C929 C 0.86344 0.22935 0.194 0.0
C930 C 0.82257 0.1922 0.22782 0.0
C931 C 0.84866 0.21918 0.24459 0.0
C932 C 0.88032 0.25284 0.23572 0.0
C933 C 0.88713 0.25756 0.21064 0.0
C934 C 0.78784 0.15653 0.23647 0.0
C935 C 0.90895 0.28252 0.25278 0.0
C936 C 0.83951 0.22329 0.31338 0.0
C937 C 0.86182 0.20792 0.32121 0.0
C938 C 0.83191 0.22429 0.28841 0.0
C939 C 0.84731 0.20994 0.27102 0.0
C940 C 0.86719 0.1917 0.27911 0.0
C941 C 0.87397 0.19076 0.304 0.0
C942 C 0.80957 0.24291 0.28062 0.0
C943 C 0.88415 0.17589 0.26136 0.0
H944 H 0.81162 0.17572 0.18995 0.0
H945 H 0.91233 0.28275 0.20415 0.0
H946 H 0.79603 0.13548 0.2423 0.0
H947 H 0.77486 0.16257 0.25235 0.0
H948 H 0.76627 0.14345 0.22182 0.0
H949 H 0.92999 0.30859 0.24302 0.0
H950 H 0.89452 0.29069 0.26661 0.0
H951 H 0.92445 0.27057 0.2626 0.0
H952 H 0.82967 0.23629 0.32655 0.0
H953 H 0.89051 0.17801 0.30986 0.0
H954 H 0.7908 0.2276 0.265 0.0
H955 H 0.82941 0.27251 0.27471 0.0
H956 H 0.79205 0.24396 0.29577 0.0
H957 H 0.86251 0.15681 0.24804 0.0
H958 H 0.89593 0.15975 0.27063 0.0
H959 H 0.90734 0.1996 0.25101 0.0
C960 C 0.187 0.40289 0.70675 0.0
C961 C 0.20175 0.38458 0.69265 0.0
C962 C 0.19174 0.40583 0.73208 0.0
C963 C 0.21103 0.3893 0.74372 0.0
C964 C 0.22873 0.37357 0.72936 0.0
C965 C 0.22408 0.37162 0.70388 0.0
C966 C 0.17302 0.42357 0.74652 0.0
C967 C 0.24956 0.35567 0.74097 0.0
C968 C 0.22185 0.40366 0.81265 0.0
C969 C 0.18769 0.3725 0.82057 0.0
C970 C 0.23111 0.40891 0.78765 0.0
C971 C 0.20587 0.38199 0.77048 0.0
C972 C 0.17266 0.34926 0.77879 0.0
C973 C 0.16388 0.34517 0.80362 0.0
C974 C 0.26667 0.44423 0.77955 0.0
C975 C 0.14519 0.31937 0.76134 0.0
H976 H 0.17012 0.41339 0.69805 0.0
H977 H 0.23547 0.35737 0.69301 0.0
H978 H 0.14724 0.40082 0.75556 0.0
H979 H 0.19232 0.44243 0.76095 0.0
H980 H 0.16453 0.44033 0.7348 0.0
H981 H 0.26789 0.3518 0.72767 0.0
H982 H 0.26729 0.37316 0.75639 0.0
H983 H 0.22865 0.32732 0.74832 0.0
H984 H 0.24027 0.42481 0.82578 0.0
H985 H 0.13771 0.32072 0.8098 0.0
H986 H 0.25895 0.46441 0.77135 0.0
H987 H 0.2817 0.43732 0.7654 0.0
H988 H 0.28634 0.4587 0.79498 0.0
H989 H 0.13134 0.33155 0.74999 0.0
H990 H 0.12272 0.29395 0.77093 0.0
H991 H 0.16044 0.31009 0.74889 0.0
C992 C 0.22531 0.82906 0.81113 0.0
C993 C 0.2133 0.85416 0.81907 0.0
C994 C 0.22629 0.82183 0.78606 0.0
C995 C 0.21527 0.84033 0.76869 0.0
C996 C 0.20061 0.86347 0.77685 0.0
C997 C 0.19966 0.86988 0.80181 0.0
C998 C 0.24119 0.7962 0.77818 0.0
C999 C 0.18844 0.88384 0.75916 0.0
C1000 C 0.26368 0.87654 0.70797 0.0
C1001 C 0.2344 0.85464 0.69147 0.0
C1002 C 0.25882 0.87 0.73311 0.0
C1003 C 0.22381 0.84057 0.74219 0.0
C1004 C 0.19533 0.81612 0.72555 0.0
C1005 C 0.20089 0.82352 0.70034 0.0
C1006 C 0.29012 0.89681 0.75001 0.0
C1007 C 0.15798 0.78382 0.73441 0.0
H1008 H 0.23566 0.81657 0.82432 0.0
H1009 H 0.18954 0.88869 0.80773 0.0
H1010 H 0.22454 0.77804 0.76265 0.0
H1011 H 0.27101 0.81382 0.77206 0.0
H1012 H 0.24047 0.77768 0.7933 0.0
H1013 H 0.175 0.8984 0.76844 0.0
H1014 H 0.21352 0.90548 0.74894 0.0
H1015 H 0.16807 0.86353 0.74571 0.0
H1016 H 0.29002 0.90021 0.70133 0.0
H1017 H 0.1782 0.80621 0.68776 0.0
H1018 H 0.29583 0.88065 0.764 0.0
H1019 H 0.28115 0.91503 0.75964 0.0
H1020 H 0.31693 0.91556 0.74013 0.0
H1021 H 0.16229 0.76902 0.74999 0.0
H1022 H 0.14258 0.76282 0.71974 0.0
H1023 H 0.13983 0.79527 0.74079 0.0
C1024 C 0.66305 0.84763 0.70039 0.0
C1025 C 0.66495 0.81657 0.69095 0.0
C1026 C 0.65951 0.85112 0.72568 0.0
C1027 C 0.65751 0.82272 0.74168 0.0
C1028 C 0.65604 0.78978 0.73184 0.0
C1029 C 0.66005 0.78729 0.70669 0.0
C1030 C 0.66094 0.88656 0.73535 0.0
C1031 C 0.65338 0.75847 0.74803 0.0
C1032 C 0.70505 0.84542 0.80349 0.0
C1033 C 0.67399 0.82954 0.81943 0.0
C1034 C 0.70005 0.84578 0.77826 0.0
C1035 C 0.66296 0.8295 0.76851 0.0
C1036 C 0.63154 0.8155 0.78458 0.0
C1037 C 0.63744 0.81581 0.80991 0.0
C1038 C 0.7345 0.86151 0.76195 0.0
C1039 C 0.59157 0.79803 0.775 0.0
H1040 H 0.66704 0.87042 0.68827 0.0
H1041 H 0.66117 0.76306 0.69938 0.0
H1042 H 0.64019 0.87954 0.75031 0.0
H1043 H 0.68958 0.90585 0.7429 0.0
H1044 H 0.65513 0.90206 0.72087 0.0
H1045 H 0.64776 0.73282 0.73749 0.0
H1046 H 0.68045 0.76888 0.75806 0.0
H1047 H 0.63053 0.75013 0.7617 0.0
H1048 H 0.73346 0.85664 0.8107 0.0
H1049 H 0.61327 0.80352 0.82211 0.0
H1050 H 0.73383 0.88142 0.74842 0.0
H1051 H 0.73441 0.83788 0.75175 0.0
H1052 H 0.76143 0.87669 0.77238 0.0
H1053 H 0.58989 0.81557 0.76011 0.0
H1054 H 0.57116 0.79472 0.78952 0.0
H1055 H 0.58278 0.7695 0.76737 0.0
C1056 C 0.26779 0.94706 0.97725 0.0
C1057 C 0.24484 0.94735 0.95838 0.0
C1058 C 0.28054 0.97459 0.99596 0.0
C1059 C 0.27043 1.00338 0.99565 0.0
C1060 C 0.24604 1.00278 0.97703 0.0
C1061 C 0.23379 0.97498 0.95861 0.0
C1062 C 0.30642 0.97399 0.01539 0.0
C1063 C 0.23434 0.03262 0.97587 0.0
C1064 C 0.28385 0.05764 0.05502 0.0
C1065 C 0.319 0.09076 0.05144 0.0
C1066 C 0.2671 0.02973 0.03678 0.0
C1067 C 0.28622 0.0346 0.01438 0.0
C1068 C 0.32124 0.06871 0.01037 0.0
C1069 C 0.33721 0.09642 0.02895 0.0
C1070 C 0.22967 0.99428 0.04191 0.0
C1071 C 0.34271 0.07514 0.98684 0.0
H1072 H 0.27745 0.92659 0.97666 0.0
H1073 H 0.21702 0.97598 0.94359 0.0
H1074 H 0.33472 0.99999 0.01395 0.0
H1075 H 0.29505 0.97411 0.03371 0.0
H1076 H 0.31001 0.94869 0.01387 0.0
H1077 H 0.2132 0.02668 0.96128 0.0
H1078 H 0.22214 0.03436 0.99354 0.0
H1079 H 0.25961 0.0609 0.9724 0.0
H1080 H 0.26999 0.05295 0.07257 0.0
H1081 H 0.36479 0.12154 0.02635 0.0
H1082 H 0.23373 0.96924 0.04246 0.0
H1083 H 0.20916 0.9893 0.02711 0.0
H1084 H 0.21715 0.996 0.05949 0.0
H1085 H 0.35164 0.05356 0.98495 0.0
H1086 H 0.36831 0.1039 0.98593 0.0
H1087 H 0.32413 0.07161 0.97112 0.0
C1088 C 0.79197 0.69899 0.48154 0.0
C1089 C 0.80991 0.71878 0.46027 0.0
C1090 C 0.7804 0.7158 0.49959 0.0
C1091 C 0.78667 0.75322 0.49619 0.0
C1092 C 0.80559 0.77352 0.47487 0.0
C1093 C 0.81677 0.756 0.45718 0.0
C1094 C 0.76032 0.69301 0.52194 0.0
C1095 C 0.81306 0.81336 0.47039 0.0
C1096 C 0.72343 0.78015 0.53292 0.0
C1097 C 0.7463 0.79811 0.55321 0.0
C1098 C 0.73656 0.76638 0.51382 0.0
C1099 C 0.77351 0.77097 0.51499 0.0
C1100 C 0.79728 0.79101 0.53488 0.0
C1101 C 0.78329 0.80395 0.55375 0.0
C1102 C 0.71015 0.74509 0.49305 0.0
C1103 C 0.83697 0.79725 0.53685 0.0
H1104 H 0.78565 0.66984 0.48361 0.0
H1105 H 0.8298 0.77099 0.44043 0.0
H1106 H 0.77553 0.70872 0.53858 0.0
H1107 H 0.73128 0.68888 0.52282 0.0
H1108 H 0.75821 0.66466 0.52212 0.0
H1109 H 0.78578 0.81318 0.46924 0.0
H1110 H 0.82924 0.83213 0.48582 0.0
H1111 H 0.82916 0.82576 0.45331 0.0
H1112 H 0.69455 0.77481 0.53269 0.0
H1113 H 0.80092 0.81753 0.56954 0.0
H1114 H 0.70278 0.71484 0.49361 0.0
H1115 H 0.72431 0.75692 0.47536 0.0
H1116 H 0.68352 0.74629 0.49382 0.0
H1117 H 0.8357 0.76949 0.53913 0.0
H1118 H 0.85281 0.81578 0.55249 0.0
H1119 H 0.85306 0.81037 0.51991 0.0
C1120 C 0.05463 0.28268 0.95702 0.0
C1121 C 0.0888 0.31783 0.95722 0.0
C1122 C 1.0281 0.27177 0.97595 0.0
C1123 C 0.03567 0.29623 0.99608 0.0
C1124 C 0.07002 0.33182 0.99654 0.0
C1125 C 0.09611 0.34231 0.97705 0.0
C1126 C 0.99206 0.23359 0.9745 0.0
C1127 C 0.07937 0.35858 0.01779 0.0
C1128 C 0.95143 0.2738 0.03788 0.0
C1129 C 0.95568 0.25213 0.0562 0.0
C1130 C 0.97762 0.28909 0.01843 0.0
C1131 C 1.00889 0.28276 0.01732 0.0
C1132 C 1.01313 0.26086 0.03575 0.0
C1133 C 0.98657 0.24577 0.05472 0.0
C1134 C 0.97183 0.31195 0.99902 0.0
C1135 C 0.04572 0.25307 0.03542 0.0
H1136 H 0.04818 0.26337 0.94183 0.0
H1137 H 0.12213 0.36958 0.97738 0.0
H1138 H 0.99153 0.21493 0.98942 0.0
H1139 H 0.96697 0.23715 0.97687 0.0
H1140 H 0.98926 0.21894 0.9569 0.0
H1141 H 0.10625 0.38585 0.015 0.0
H1142 H 0.05607 0.36476 0.0208 0.0
H1143 H 0.08198 0.34491 0.0346 0.0
H1144 H 0.92801 0.27926 0.03891 0.0
H1145 H 0.99043 0.22914 0.06867 0.0
H1146 H 0.96776 0.29783 0.9811 0.0
H1147 H 0.99744 0.34057 0.99756 0.0
H1148 H 0.9469 0.31534 1.00279 0.0
H1149 H 0.04358 0.23599 0.01911 0.0
H1150 H 0.04627 0.23741 0.05185 0.0
H1151 H 0.0731 0.28019 0.03422 0.0
C1152 C 0.30114 0.08026 0.46709 0.0
C1153 C 0.3379 0.09313 0.45837 0.0
C1154 C 0.28589 0.05315 0.48602 0.0
C1155 C 0.30823 0.03919 0.4968 0.0
C1156 C 0.34592 0.05333 0.48854 0.0
C1157 C 0.35997 0.0795 0.46917 0.0
C1158 C 0.24539 0.03839 0.49386 0.0
C1159 C 0.37126 0.04032 0.49988 0.0
C1160 C 0.28233 0.99671 0.56049 0.0
C1161 C 0.26572 0.95742 0.55616 0.0
C1162 C 0.29614 0.02333 0.54146 0.0
C1163 C 0.29276 1.01065 0.51713 0.0
C1164 C 0.27572 0.97097 0.51249 0.0
C1165 C 0.26288 0.94482 0.53209 0.0
C1166 C 0.31497 0.0652 0.54749 0.0
C1167 C 0.27085 0.95615 0.4868 0.0
H1168 H 0.2836 0.0898 0.45821 0.0
H1169 H 0.38813 0.08883 0.46208 0.0
H1170 H 0.22866 1.00717 0.49095 0.0
H1171 H 0.24426 0.04353 0.51358 0.0
H1172 H 0.23171 0.05196 0.48368 0.0
H1173 H 0.4004 0.05541 0.49221 0.0
H1174 H 0.37307 0.04513 0.51983 0.0
H1175 H 0.35906 1.00934 0.49691 0.0
H1176 H 0.28528 1.00694 0.57903 0.0
H1177 H 0.25 0.9146 0.52855 0.0
H1178 H 0.29999 0.07817 0.53825 0.0
H1179 H 0.34462 0.08004 0.54072 0.0
H1180 H 0.31534 0.07042 0.56736 0.0
H1181 H 0.25501 0.96658 0.47585 0.0
H1182 H 0.25547 0.92457 0.4861 0.0
H1183 H 0.299 0.96709 0.47812 0.0
C1184 C 0.79668 0.72081 0.03228 0.0
C1185 C 0.78887 0.72515 0.05652 0.0
C1186 C 0.7819 0.73251 0.01293 0.0
C1187 C 0.75788 0.74776 0.01796 0.0
C1188 C 0.74923 0.75109 0.04244 0.0
C1189 C 0.76513 0.74026 0.06128 0.0
C1190 C 0.79251 0.72921 0.98711 0.0
C1191 C 0.7229 0.76591 0.04882 0.0
C1192 C 0.74183 0.80823 0.97102 0.0
C1193 C 0.70815 0.78103 0.95981 0.0
C1194 C 0.75863 0.79779 0.98974 0.0
C1195 C 0.74088 0.75941 0.9978 0.0
C1196 C 0.70604 0.73227 0.9871 0.0
C1197 C 0.69051 0.74328 0.96805 0.0
C1198 C 0.79606 0.82754 1.0003 0.0
C1199 C 0.68536 0.69139 0.99554 0.0
H1200 H 0.81521 0.70946 0.0285 0.0
H1201 H 0.75862 0.74335 0.07997 0.0
H1202 H 0.76668 0.71009 0.97653 0.0
H1203 H 0.80595 0.75751 0.97818 0.0
H1204 H 0.81238 0.718 0.98621 0.0
H1205 H 0.71844 0.76602 0.06877 0.0
H1206 H 0.73456 0.79532 0.04189 0.0
H1207 H 0.69495 0.74811 0.03996 0.0
H1208 H 0.75611 0.83721 0.96427 0.0
H1209 H 0.66471 0.72206 0.95921 0.0
H1210 H 0.81769 0.81893 0.99745 0.0
H1211 H 0.79335 0.82989 0.02022 0.0
H1212 H 0.80643 0.85599 0.99197 0.0
H1213 H 0.70309 0.67821 0.9922 0.0
H1214 H 0.65776 0.67419 0.98611 0.0
H1215 H 0.68012 0.69011 0.01543 0.0
C1216 C 0.10472 0.33734 0.53852 0.0
C1217 C 0.10259 0.31213 0.55672 0.0
C1218 C 0.07773 0.32496 0.51951 0.0
C1219 C 0.04804 0.28642 0.51856 0.0
C1220 C 0.04618 0.26083 0.53672 0.0
C1221 C 0.07328 0.27394 0.55547 0.0
C1222 C 0.08077 0.35321 0.50054 0.0
C1223 C 1.01553 0.21944 0.53637 0.0
C1224 C 0.95955 0.25837 0.47963 0.0
C1225 C 0.96864 0.24616 0.45812 0.0
C1226 C 0.98505 0.2716 0.49951 0.0
C1227 C 1.02018 0.27219 0.4979 0.0
C1228 C 1.02863 0.25849 0.47651 0.0
C1229 C 1.00297 0.24587 0.45699 0.0
C1230 C 0.97493 0.28594 0.52198 0.0
C1231 C 0.0652 0.25775 0.47401 0.0
H1232 H 0.12688 0.36693 0.53945 0.0
H1233 H 0.07122 0.25406 0.56937 0.0
H1234 H 0.08475 0.34405 0.48229 0.0
H1235 H 0.05405 0.35421 0.49993 0.0
H1236 H 0.10473 0.38232 0.50415 0.0
H1237 H 1.01735 0.20342 0.55221 0.0
H1238 H 0.98715 0.21698 0.53639 0.0
H1239 H 1.01769 0.20577 0.51944 0.0
H1240 H 0.93335 0.25911 0.48053 0.0
H1241 H 1.01016 0.23626 0.44048 0.0
H1242 H 0.99616 0.31639 0.52487 0.0
H1243 H 0.97575 0.27018 0.53824 0.0
H1244 H 0.94634 0.28292 0.52066 0.0
H1245 H 0.08973 0.28706 0.47548 0.0
H1246 H 0.06712 0.24542 0.45639 0.0
H1247 H 0.06773 0.24084 0.48899 0.0
C1248 C 0.63039 0.17284 0.13654 0.0
C1249 C 0.64091 0.16306 0.11453 0.0
C1250 C 0.59334 0.16635 0.14018 0.0
C1251 C 0.566 0.14973 0.12138 0.0
C1252 C 0.57606 0.13856 0.09949 0.0
C1253 C 0.61319 0.14525 0.09637 0.0
C1254 C 0.58393 0.17871 0.1638 0.0
C1255 C 0.54797 0.12077 0.07893 0.0
C1256 C 0.46028 0.11305 0.13265 0.0
C1257 C 0.45638 0.14324 0.1236 0.0
C1258 C 0.49587 0.1149 0.13257 0.0
C1259 C 0.52834 0.14777 0.12339 0.0
C1260 C 0.52464 0.17868 0.11497 0.0
C1261 C 0.48895 0.17602 0.11516 0.0
C1262 C 0.4986 0.08135 0.14175 0.0
C1263 C 0.55831 0.21443 0.10518 0.0
H1264 H 0.65146 0.18677 0.15068 0.0
H1265 H 0.6206 0.13672 0.07951 0.0
H1266 H 0.57964 0.20323 0.1604 0.0
H1267 H 0.55709 0.15543 0.17145 0.0
H1268 H 0.60676 0.18727 0.17757 0.0
H1269 H 0.55917 0.11093 0.06388 0.0
H1270 H 0.52125 0.0962 0.08569 0.0
H1271 H 0.54082 0.14181 0.07149 0.0
H1272 H 0.43542 0.08765 0.13925 0.0
H1273 H 0.48663 0.19986 0.10843 0.0
H1274 H 0.52118 0.09073 0.15574 0.0
H1275 H 0.50658 0.06876 0.12656 0.0
H1276 H 0.47146 0.05893 0.14969 0.0
H1277 H 0.58141 0.22653 0.11888 0.0
H1278 H 0.55102 0.23653 0.10025 0.0
H1279 H 0.56956 0.20754 0.08876 0.0
C1280 C 0.72245 0.5519 0.38824 0.0
C1281 C 0.72301 0.58651 0.38507 0.0
C1282 C 0.68828 0.51702 0.38864 0.0
C1283 C 0.65343 0.51642 0.38596 0.0
C1284 C 0.65375 0.55108 0.38179 0.0
C1285 C 0.68858 0.58574 0.38126 0.0
C1286 C 0.68952 0.4809 0.39285 0.0
C1287 C 0.61725 0.55169 0.37887 0.0
C1288 C 0.56708 0.41881 0.37334 0.0
C1289 C 0.55221 0.40678 0.39682 0.0
C1290 C 0.59915 0.45494 0.36934 0.0
C1291 C 0.61696 0.47972 0.38929 0.0
C1292 C 0.60161 0.46804 0.41293 0.0
C1293 C 0.5696 0.43185 0.4164 0.0
C1294 C 0.61451 0.46623 0.34385 0.0
C1295 C 0.61975 0.49333 0.43478 0.0
H1296 H 0.7489 0.55205 0.39085 0.0
H1297 H 0.68871 0.6123 0.37885 0.0
H1298 H 0.67615 0.46826 0.4106 0.0
H1299 H 0.67312 0.45966 0.37855 0.0
H1300 H 0.71895 0.48591 0.39292 0.0
H1301 H 0.62228 0.58025 0.37358 0.0
H1302 H 0.59901 0.53073 0.36492 0.0
H1303 H 0.60132 0.54334 0.39628 0.0
H1304 H 0.55363 0.39997 0.35802 0.0
H1305 H 0.55881 0.42278 0.43467 0.0
H1306 H 0.64309 0.46927 0.34276 0.0
H1307 H 0.61769 0.49425 0.33915 0.0
H1308 H 0.59593 0.44501 0.33008 0.0
H1309 H 0.64851 0.49741 0.43768 0.0
H1310 H 0.60294 0.48124 0.45166 0.0
H1311 H 0.62309 0.52182 0.43157 0.0
C1312 C 0.87805 0.34246 0.132 0.0
C1313 C 0.90954 0.34046 0.12347 0.0
C1314 C 0.87597 0.37584 0.12982 0.0
C1315 C 0.90602 0.40843 0.11865 0.0
C1316 C 0.93856 0.40715 0.11072 0.0
C1317 C 0.94002 0.37325 0.11331 0.0
C1318 C 0.84087 0.37575 0.13879 0.0
C1319 C 0.97122 0.44115 0.09868 0.0
C1320 C 0.87756 0.47586 0.08944 0.0
C1321 C 0.88847 0.50452 0.10711 0.0
C1322 C 0.88416 0.44525 0.09266 0.0
C1323 C 0.90204 0.44279 0.11416 0.0
C1324 C 0.91351 0.47176 0.13199 0.0
C1325 C 0.9066 0.50215 0.12827 0.0
C1326 C 0.87115 0.415 0.07322 0.0
C1327 C 0.9326 0.47034 0.15518 0.0
H1328 H 0.85444 0.31752 0.14013 0.0
H1329 H 0.96439 0.37203 0.10657 0.0
H1330 H 0.84881 0.39993 0.15139 0.0
H1331 H 0.82572 0.37944 0.12319 0.0
H1332 H 0.82102 0.34893 0.14835 0.0
H1333 H 0.99558 0.43672 0.09517 0.0
H1334 H 0.9617 0.44697 0.0811 0.0
H1335 H 0.98098 0.46681 0.11022 0.0
H1336 H 0.86306 0.47689 0.07317 0.0
H1337 H 0.91571 0.52428 0.14192 0.0
H1338 H 0.8487 0.38742 0.08064 0.0
H1339 H 0.89504 0.41103 0.06746 0.0
H1340 H 0.85973 0.42211 0.05694 0.0
H1341 H 0.91292 0.44479 0.16586 0.0
H1342 H 0.94156 0.49594 0.1667 0.0
H1343 H 0.95788 0.46786 0.1509 0.0
C1344 C 0.46659 0.10404 0.37678 0.0
C1345 C 0.46427 0.13521 0.38574 0.0
C1346 C 0.50111 0.10361 0.37763 0.0
C1347 C 0.53405 0.13497 0.38773 0.0
C1348 C 0.53192 0.16669 0.3963 0.0
C1349 C 0.4974 0.16645 0.39514 0.0
C1350 C 0.50223 0.06938 0.36808 0.0
C1351 C 0.56606 0.20083 0.40723 0.0
C1352 C 0.61562 0.12808 0.4164 0.0
C1353 C 0.64494 0.1473 0.39937 0.0
C1354 C 0.57884 0.1219 0.41222 0.0
C1355 C 0.57068 0.13481 0.39032 0.0
C1356 C 0.59943 0.15211 0.3724 0.0
C1357 C 0.63613 0.1583 0.37716 0.0
C1358 C 0.54928 0.10343 0.43191 0.0
C1359 C 0.59206 0.16607 0.3487 0.0
H1360 H 0.44139 0.07979 0.36943 0.0
H1361 H 0.49647 0.191 0.40196 0.0
H1362 H 0.52543 0.07836 0.35458 0.0
H1363 H 0.50834 0.05516 0.38321 0.0
H1364 H 0.47506 0.04839 0.3594 0.0
H1365 H 0.55993 0.22355 0.41267 0.0
H1366 H 0.57584 0.19203 0.42353 0.0
H1367 H 0.5898 0.21295 0.39399 0.0
H1368 H 0.62159 0.11852 0.43337 0.0
H1369 H 0.65834 0.17335 0.36385 0.0
H1370 H 0.52244 0.08028 0.42419 0.0
H1371 H 0.54301 0.1248 0.43988 0.0
H1372 H 0.55874 0.09153 0.44676 0.0
H1373 H 0.56489 0.14411 0.34058 0.0
H1374 H 0.6152 0.17365 0.33531 0.0
H1375 H 0.58959 0.19165 0.35214 0.0
C1376 C 0.57114 0.42322 0.08706 0.0
C1377 C 0.54569 0.40497 0.1063 0.0
C1378 C 0.6023 0.46029 0.08966 0.0
C1379 C 0.60846 0.47978 0.11208 0.0
C1380 C 0.5827 0.4617 0.13151 0.0
C1381 C 0.55172 0.42465 0.12839 0.0
C1382 C 0.62895 0.47843 0.06844 0.0
C1383 C 0.58831 0.4812 0.15579 0.0
C1384 C 0.7102 0.55607 0.12605 0.0
C1385 C 0.71032 0.58992 0.12048 0.0
C1386 C 0.67721 0.52036 0.12383 0.0
C1387 C 0.64315 0.51801 0.11566 0.0
C1388 C 0.64274 0.55204 0.11044 0.0
C1389 C 0.67627 0.5876 0.113 0.0
C1390 C 0.67904 0.48501 0.12983 0.0
C1391 C 0.60706 0.55081 0.10164 0.0
H1392 H 0.56649 0.40864 0.06979 0.0
H1393 H 0.53254 0.41078 0.14347 0.0
H1394 H 0.63154 0.50631 0.06407 0.0
H1395 H 0.65767 0.48389 0.07336 0.0
H1396 H 0.61933 0.4603 0.05189 0.0
H1397 H 0.56476 0.46417 0.16866 0.0
H1398 H 0.61526 0.48626 0.16412 0.0
H1399 H 0.59058 0.50937 0.1533 0.0
H1400 H 0.73617 0.55735 0.13204 0.0
H1401 H 0.67603 0.61347 0.10856 0.0
H1402 H 0.67258 0.46703 0.11334 0.0
H1403 H 0.65738 0.46788 0.14372 0.0
H1404 H 0.70734 0.49172 0.13678 0.0
H1405 H 0.59817 0.53549 0.08401 0.0
H1406 H 0.61094 0.5797 0.09918 0.0
H1407 H 0.58364 0.53486 0.11475 0.0
C1408 C 0.87554 0.46268 0.3872 0.0
C1409 C 0.90531 0.49871 0.39395 0.0
C1410 C 0.88164 0.43174 0.38385 0.0
C1411 C 0.91843 0.43682 0.38721 0.0
C1412 C 0.94891 0.47355 0.39283 0.0
C1413 C 0.94199 0.50392 0.39615 0.0
C1414 C 0.84826 0.39312 0.37794 0.0
C1415 C 0.9886 0.48046 0.39642 0.0
C1416 C 0.92242 0.35079 0.41069 0.0
C1417 C 0.92991 0.33621 0.38954 0.0
C1418 C 0.91935 0.38368 0.41013 0.0
C1419 C 0.92403 0.40303 0.38785 0.0
C1420 C 0.93304 0.38942 0.36652 0.0
C1421 C 0.93587 0.35614 0.3676 0.0
C1422 C 0.90994 0.39705 0.43339 0.0
C1423 C 0.93852 0.40935 0.34244 0.0
H1424 H 0.84709 0.4582 0.38555 0.0
H1425 H 0.96537 0.53178 0.40085 0.0
H1426 H 0.85507 0.38022 0.36236 0.0
H1427 H 0.84189 0.37391 0.39378 0.0
H1428 H 0.82241 0.39455 0.37345 0.0
H1429 H 1.00985 0.51123 0.39796 0.0
H1430 H 0.9897 0.466 0.41328 0.0
H1431 H 0.99672 0.46826 0.38107 0.0
H1432 H 0.91803 0.3359 0.42782 0.0
H1433 H 0.94143 0.34505 0.35114 0.0
H1434 H 0.88237 0.39609 0.43138 0.0
H1435 H 0.93176 0.427 0.43717 0.0
H1436 H 0.90813 0.37939 0.44933 0.0
H1437 H 0.91139 0.40707 0.3366 0.0
H1438 H 0.94822 0.39708 0.32797 0.0
H1439 H 0.95955 0.44008 0.3443 0.0
C1440 C 0.15409 0.61285 0.62736 0.0
C1441 C 0.16988 0.63247 0.60551 0.0
C1442 C 0.14821 0.57596 0.63134 0.0
C1443 C 0.15838 0.55802 0.61309 0.0
C1444 C 0.17381 0.57744 0.59088 0.0
C1445 C 0.1794 0.61425 0.5874 0.0
C1446 C 0.1317 0.55641 0.65527 0.0
C1447 C 0.18534 0.55968 0.57095 0.0
C1448 C 0.186 0.48418 0.63006 0.0
C1449 C 0.15409 0.44981 0.62287 0.0
C1450 C 0.18715 0.51918 0.62771 0.0
C1451 C 0.15567 0.5203 0.61776 0.0
C1452 C 0.12279 0.48562 0.61119 0.0
C1453 C 0.12231 0.45076 0.61392 0.0
C1454 C 0.22268 0.55519 0.6352 0.0
C1455 C 0.08862 0.48548 0.60049 0.0
H1456 H 0.14605 0.62625 0.64136 0.0
H1457 H 0.19209 0.62915 0.57058 0.0
H1458 H 0.10644 0.52803 0.65203 0.0
H1459 H 0.15278 0.55177 0.66517 0.0
H1460 H 0.12335 0.57319 0.66708 0.0
H1461 H 0.19477 0.57741 0.55423 0.0
H1462 H 0.20886 0.55561 0.57744 0.0
H1463 H 0.16128 0.53119 0.56622 0.0
H1464 H 0.21063 0.48389 0.63726 0.0
H1465 H 0.09759 0.42447 0.60824 0.0
H1466 H 0.21559 0.57168 0.64812 0.0
H1467 H 0.23594 0.5734 0.619 0.0
H1468 H 0.24386 0.54934 0.6439 0.0
H1469 H 0.07955 0.50152 0.61239 0.0
H1470 H 0.06433 0.45619 0.59796 0.0
H1471 H 0.09615 0.49999 0.58256 0.0
C1472 C 0.36519 0.92356 0.87299 0.0
C1473 C 0.33335 0.8978 0.88652 0.0
C1474 C 0.39884 0.92155 0.87315 0.0
C1475 C 0.40065 0.89307 0.8871 0.0
C1476 C 0.36838 0.86671 0.90042 0.0
C1477 C 0.33538 0.86939 0.89997 0.0
C1478 C 0.4326 0.95012 0.85864 0.0
C1479 C 0.36879 0.83579 0.91551 0.0
C1480 C 0.47337 0.86142 0.87664 0.0
C1481 C 0.49871 0.87919 0.89603 0.0
C1482 C 0.44238 0.86713 0.87275 0.0
C1483 C 0.43635 0.8911 0.88865 0.0
C1484 C 0.46256 0.91013 0.9077 0.0
C1485 C 0.49334 0.90405 0.9111 0.0
C1486 C 0.4152 0.84626 0.85221 0.0
C1487 C 0.45732 0.93589 0.92512 0.0
H1488 H 0.364 0.94553 0.86248 0.0
H1489 H 0.31102 0.84897 0.91036 0.0
H1490 H 0.45667 0.96741 0.87107 0.0
H1491 H 0.44196 0.93521 0.84595 0.0
H1492 H 0.42629 0.96956 0.848 0.0
H1493 H 0.34101 0.81688 0.92432 0.0
H1494 H 0.37625 0.81812 0.90393 0.0
H1495 H 0.39075 0.84873 0.9299 0.0
H1496 H 0.47699 0.84201 0.86494 0.0
H1497 H 0.51316 0.91868 0.92578 0.0
H1498 H 0.40994 0.86618 0.84134 0.0
H1499 H 0.38754 0.82434 0.85979 0.0
H1500 H 0.42594 0.83205 0.83992 0.0
H1501 H 0.45355 0.95733 0.91492 0.0
H1502 H 0.48171 0.95095 0.93775 0.0
H1503 H 0.43127 0.91886 0.93607 0.0
C1504 C 0.572 0.70647 0.62429 0.0
C1505 C 0.60654 0.70658 0.62527 0.0
C1506 C 0.53706 0.67247 0.62313 0.0
C1507 C 0.5362 0.63721 0.6228 0.0
C1508 C 0.57082 0.63689 0.62474 0.0
C1509 C 0.60563 0.67161 0.62609 0.0
C1510 C 0.50107 0.67444 0.62136 0.0
C1511 C 0.57118 0.59994 0.62446 0.0
C1512 C 0.4387 0.55014 0.63447 0.0
C1513 C 0.42508 0.5384 0.6107 0.0
C1514 C 0.47535 0.58121 0.63875 0.0
C1515 C 0.49912 0.60126 0.61883 0.0
C1516 C 0.48585 0.58905 0.59483 0.0
C1517 C 0.44915 0.55797 0.59108 0.0
C1518 C 0.48827 0.59319 0.66462 0.0
C1519 C 0.50995 0.60966 0.57301 0.0
H1520 H 0.57223 0.73328 0.62405 0.0
H1521 H 0.6321 0.67137 0.62681 0.0
H1522 H 0.48735 0.6632 0.60347 0.0
H1523 H 0.48068 0.65646 0.63562 0.0
H1524 H 0.50639 0.70395 0.62333 0.0
H1525 H 0.59983 0.60417 0.62823 0.0
H1526 H 0.551 0.57998 0.63814 0.0
H1527 H 0.56171 0.58625 0.60637 0.0
H1528 H 0.42068 0.53498 0.64979 0.0
H1529 H 0.43893 0.54965 0.57263 0.0
H1530 H 0.49176 0.6217 0.668 0.0
H1531 H 0.5163 0.59556 0.66763 0.0
H1532 H 0.46782 0.57292 0.67811 0.0
H1533 H 0.51429 0.63888 0.5722 0.0
H1534 H 0.4968 0.59493 0.55564 0.0
H1535 H 0.53833 0.61234 0.57465 0.0
C1536 C 0.16869 0.61772 0.91989 0.0
C1537 C 0.15986 0.63536 0.90104 0.0
C1538 C 0.16293 0.58069 0.91726 0.0
C1539 C 0.14802 0.56056 0.89519 0.0
C1540 C 0.13862 0.57798 0.87619 0.0
C1541 C 0.1446 0.61503 0.87934 0.0
C1542 C 0.17328 0.56329 0.93803 0.0
C1543 C 0.12297 0.55778 0.8523 0.0
C1544 C 0.17355 0.48442 0.88057 0.0
C1545 C 0.1407 0.45068 0.8875 0.0
C1546 C 0.17583 0.52001 0.88241 0.0
C1547 C 0.14457 0.52234 0.89154 0.0
C1548 C 0.11087 0.48835 0.89794 0.0
C1549 C 0.10927 0.45291 0.89577 0.0
C1550 C 0.21221 0.5553 0.87514 0.0
C1551 C 0.07691 0.48952 0.90778 0.0
H1552 H 0.17985 0.63277 0.93689 0.0
H1553 H 0.13799 0.6284 0.86455 0.0
H1554 H 0.14853 0.53545 0.94312 0.0
H1555 H 0.19627 0.55789 0.93227 0.0
H1556 H 0.18296 0.58188 0.95438 0.0
H1557 H 0.11518 0.57429 0.83982 0.0
H1558 H 0.14437 0.55277 0.84316 0.0
H1559 H 0.09752 0.52954 0.85553 0.0
H1560 H 0.19798 0.48318 0.87397 0.0
H1561 H 0.08385 0.42713 0.90129 0.0
H1562 H 0.22509 0.57381 0.89127 0.0
H1563 H 0.20627 0.57189 0.86159 0.0
H1564 H 0.23327 0.54854 0.86727 0.0
H1565 H 0.08436 0.50501 0.92538 0.0
H1566 H 0.05218 0.46061 0.9107 0.0
H1567 H 0.06853 0.50527 0.89509 0.0
C1568 C 0.38232 0.9371 0.61521 0.0
C1569 C 0.34861 0.90325 0.62059 0.0
C1570 C 0.41708 0.93755 0.61272 0.0
C1571 C 0.41822 0.9034 0.61574 0.0
C1572 C 0.38447 0.8695 0.62186 0.0
C1573 C 0.35033 0.86985 0.62419 0.0
C1574 C 0.45241 0.97433 0.60628 0.0
C1575 C 0.38415 0.83244 0.62537 0.0
C1576 C 0.49303 0.88728 0.58511 0.0
C1577 C 0.51678 0.89069 0.60467 0.0
C1578 C 0.46186 0.89286 0.58827 0.0
C1579 C 0.45402 0.90223 0.61157 0.0
C1580 C 0.47856 0.90698 0.63123 0.0
C1581 C 0.50952 0.90112 0.62757 0.0
C1582 C 0.43657 0.8875 0.56677 0.0
C1583 C 0.47133 0.91691 0.65637 0.0
H1584 H 0.38142 0.96303 0.61236 0.0
H1585 H 0.32469 0.8435 0.62857 0.0
H1586 H 0.47535 0.98034 0.61949 0.0
H1587 H 0.46265 0.97177 0.58806 0.0
H1588 H 0.44743 0.99884 0.60603 0.0
H1589 H 0.35587 0.80888 0.63098 0.0
H1590 H 0.39237 0.82421 0.60815 0.0
H1591 H 0.40522 0.83584 0.63939 0.0
H1592 H 0.49871 0.88007 0.56722 0.0
H1593 H 0.52737 0.9036 0.64288 0.0
H1594 H 0.43311 0.91274 0.56456 0.0
H1595 H 0.40796 0.86261 0.56999 0.0
H1596 H 0.4479 0.88283 0.54954 0.0
H1597 H 0.46731 0.94196 0.65558 0.0
H1598 H 0.4949 0.9232 0.66915 0.0
H1599 H 0.44483 0.89283 0.6638 0.0
C1600 C 0.55418 0.70768 0.88124 0.0
C1601 C 0.58785 0.70612 0.88089 0.0
C1602 C 0.51848 0.67452 0.88238 0.0
C1603 C 0.51605 0.63853 0.88341 0.0
C1604 C 0.54983 0.63657 0.88185 0.0
C1605 C 0.58538 0.67042 0.88048 0.0
C1606 C 0.48341 0.67819 0.88369 0.0
C1607 C 0.54857 0.59885 0.8829 0.0
C1608 C 0.42926 0.56248 0.91714 0.0
C1609 C 0.40455 0.54162 0.89806 0.0
C1610 C 0.46589 0.59313 0.91256 0.0
C1611 C 0.47844 0.60365 0.88827 0.0
C1612 C 0.45389 0.58253 0.86889 0.0
C1613 C 0.41732 0.55187 0.87399 0.0
C1614 C 0.49086 0.61489 0.93384 0.0
C1615 C 0.46605 0.59275 0.84273 0.0
H1616 H 0.55575 0.73514 0.88127 0.0
H1617 H 0.61121 0.66894 0.88034 0.0
H1618 H 0.46224 0.65944 0.87002 0.0
H1619 H 0.47012 0.66896 0.9019 0.0
H1620 H 0.48984 0.70787 0.88056 0.0
H1621 H 0.57659 0.60169 0.87884 0.0
H1622 H 0.53962 0.58643 0.90136 0.0
H1623 H 0.52737 0.57851 0.86982 0.0
H1624 H 0.41968 0.55538 0.93579 0.0
H1625 H 0.39878 0.53574 0.85909 0.0
H1626 H 0.4963 0.64453 0.93363 0.0
H1627 H 0.51871 0.61636 0.93234 0.0
H1628 H 0.47788 0.60179 0.9516 0.0
H1629 H 0.47078 0.62159 0.83876 0.0
H1630 H 0.44462 0.5723 0.82975 0.0
H1631 H 0.49334 0.59356 0.83956 0.0
loop_
_geom_bond_atom_site_label_1
_geom_bond_atom_site_label_2
_geom_bond_distance
_geom_bond_site_symmetry_2
_ccdc_geom_bond_type
Tb0 C10 2.825 . S
Tb0 O11 2.347 . S
Tb0 O14 2.366 . S
Tb0 O19 2.418 . S
Tb0 O20 2.384 . S
Tb0 O23 2.479 . S
Tb0 O24 2.471 . S
Eu1 O12 2.418 . S
Eu1 O13 2.384 . S
Eu1 O16 2.479 . S
Eu1 O17 2.471 . S
Eu1 O18 2.347 . S
Eu1 O21 2.366 . S
Eu1 C31 2.825 . S
C2 O18 1.259 . S
C2 O19 1.265 . S
C3 O20 1.255 . S
C3 O21 1.265 . S
C4 C6 1.380 . S
C4 C7 1.374 . S
C4 C10 1.507 . S
C5 C6 1.384 . S
C5 C9 1.387 . S
C5 H32 0.930 . S
C6 C4 1.380 . S
C6 C5 1.384 . S
C6 H33 0.931 . S
C7 C4 1.374 . S
C7 C8 1.390 . S
C7 H34 0.930 . S
C8 C7 1.390 . S
C8 C9 1.391 . S
C8 H35 0.930 . S
C9 C5 1.387 . S
C9 C8 1.391 . S
C10 Tb0 2.825 . S
C10 C4 1.507 . S
C10 O23 1.238 . S
C10 O24 1.247 . S
O11 Tb0 2.347 . S
O11 C15 1.259 . S
O12 Eu1 2.418 . S
O12 C15 1.265 . S
O13 Eu1 2.384 . S
O13 C22 1.255 . S
O14 Tb0 2.366 . S
O14 C22 1.265 . S
C15 O11 1.259 . S
C15 O12 1.265 . S
O16 Eu1 2.479 . S
O16 C31 1.238 . S
O17 Eu1 2.471 . S
O17 C31 1.247 . S
O18 Eu1 2.347 . S
O18 C2 1.259 . S
O19 Tb0 2.418 . S
O19 C2 1.265 . S
O20 Tb0 2.384 . S
O20 C3 1.255 . S
O21 Eu1 2.366 . S
O21 C3 1.265 . S
C22 O13 1.255 . S
C22 O14 1.265 . S
O23 Tb0 2.479 . S
O23 C10 1.238 . S
O24 Tb0 2.471 . S
O24 C10 1.247 . S
C25 C28 1.380 . S
C25 C29 1.374 . S
C25 C31 1.507 1_565 S
C26 C27 1.387 . S
C26 C30 1.391 . S
C27 C26 1.387 . S
C27 C28 1.384 . S
C27 H36 0.930 . S
C28 C25 1.380 . S
C28 C27 1.384 . S
C28 H37 0.931 . S
C29 C25 1.374 . S
C29 C30 1.390 . S
C29 H38 0.930 1_565 S
C30 C26 1.391 . S
C30 C29 1.390 . S
C30 H39 0.930 . S
C31 Eu1 2.825 . S
C31 O16 1.238 . S
C31 O17 1.247 . S
C31 C25 1.507 1_545 S
H32 C5 0.930 . S
H33 C6 0.931 . S
H34 C7 0.930 . S
H35 C8 0.930 . S
H36 C27 0.930 . S
H37 C28 0.931 . S
H38 C29 0.930 1_545 S
H39 C30 0.930 . S
Tb40 C50 2.825 . S
Tb40 O51 2.347 . S
Tb40 O54 2.366 . S
Tb40 O59 2.418 . S
Tb40 O60 2.384 . S
Tb40 O63 2.479 . S
Tb40 O64 2.471 . S
Eu41 O52 2.418 . S
Eu41 O53 2.384 . S
Eu41 O56 2.479 . S
Eu41 O57 2.471 . S
Eu41 O58 2.347 . S
Eu41 O61 2.366 . S
Eu41 C71 2.825 . S
C42 O58 1.259 . S
C42 O59 1.265 . S
C43 O60 1.255 . S
C43 O61 1.265 . S
C44 C46 1.380 . S
C44 C47 1.374 . S
C44 C50 1.507 . S
C45 C46 1.384 . S
C45 C49 1.387 . S
C45 H72 0.930 . S
C46 C44 1.380 . S
C46 C45 1.384 . S
C46 H73 0.931 . S
C47 C44 1.374 . S
C47 C48 1.390 . S
C47 H74 0.930 . S
C48 C47 1.390 . S
C48 C49 1.391 . S
C48 H75 0.930 . S
C49 C45 1.387 . S
C49 C48 1.391 . S
C50 Tb40 2.825 . S
C50 C44 1.507 . S
C50 O63 1.238 . S
C50 O64 1.247 . S
O51 Tb40 2.347 . S
O51 C55 1.259 . S
O52 Eu41 2.418 . S
O52 C55 1.265 . S
O53 Eu41 2.384 . S
O53 C62 1.255 . S
O54 Tb40 2.366 . S
O54 C62 1.265 . S
C55 O51 1.259 . S
C55 O52 1.265 . S
O56 Eu41 2.479 . S
O56 C71 1.238 . S
O57 Eu41 2.471 . S
O57 C71 1.247 . S
O58 Eu41 2.347 . S
O58 C42 1.259 . S
O59 Tb40 2.418 . S
O59 C42 1.265 . S
O60 Tb40 2.384 . S
O60 C43 1.255 . S
O61 Eu41 2.366 . S
O61 C43 1.265 . S
C62 O53 1.255 . S
C62 O54 1.265 . S
O63 Tb40 2.479 . S
O63 C50 1.238 . S
O64 Tb40 2.471 . S
O64 C50 1.247 . S
C65 C68 1.380 . S
C65 C69 1.374 . S
C65 C71 1.507 . S
C66 C67 1.387 . S
C66 C70 1.391 . S
C67 C66 1.387 . S
C67 C68 1.384 . S
C67 H76 0.930 . S
C68 C65 1.380 . S
C68 C67 1.384 . S
C68 H77 0.931 . S
C69 C65 1.374 . S
C69 C70 1.390 . S
C69 H78 0.930 . S
C70 C66 1.391 . S
C70 C69 1.390 . S
C70 H79 0.930 . S
C71 Eu41 2.825 . S
C71 O56 1.238 . S
C71 O57 1.247 . S
C71 C65 1.507 . S
H72 C45 0.930 . S
H73 C46 0.931 . S
H74 C47 0.930 . S
H75 C48 0.930 . S
H76 C67 0.930 . S
H77 C68 0.931 . S
H78 C69 0.930 . S
H79 C70 0.930 . S
Tb80 C90 2.825 . S
Tb80 O91 2.347 . S
Tb80 O94 2.366 . S
Tb80 O99 2.418 . S
Tb80 O100 2.384 . S
Tb80 O103 2.479 . S
Tb80 O104 2.471 . S
Eu81 O92 2.418 . S
Eu81 O93 2.384 . S
Eu81 O96 2.479 . S
Eu81 O97 2.471 . S
Eu81 O98 2.347 . S
Eu81 O101 2.366 . S
Eu81 C111 2.825 . S
C82 O98 1.259 . S
C82 O99 1.265 . S
C83 O100 1.255 . S
C83 O101 1.265 . S
C84 C86 1.380 . S
C84 C87 1.374 . S
C84 C90 1.507 . S
C85 C86 1.384 . S
C85 C89 1.387 . S
C85 H112 0.930 . S
C86 C84 1.380 . S
C86 C85 1.384 . S
C86 H113 0.931 . S
C87 C84 1.374 . S
C87 C88 1.390 . S
C87 H114 0.930 . S
C88 C87 1.390 . S
C88 C89 1.391 . S
C88 H115 0.930 . S
C89 C85 1.387 . S
C89 C88 1.391 . S
C90 Tb80 2.825 . S
C90 C84 1.507 . S
C90 O103 1.238 . S
C90 O104 1.247 . S
O91 Tb80 2.347 . S
O91 C95 1.259 . S
O92 Eu81 2.418 . S
O92 C95 1.265 . S
O93 Eu81 2.384 . S
O93 C102 1.255 . S
O94 Tb80 2.366 . S
O94 C102 1.265 . S
C95 O91 1.259 . S
C95 O92 1.265 . S
O96 Eu81 2.479 . S
O96 C111 1.238 . S
O97 Eu81 2.471 . S
O97 C111 1.247 . S
O98 Eu81 2.347 . S
O98 C82 1.259 . S
O99 Tb80 2.418 . S
O99 C82 1.265 . S
O100 Tb80 2.384 . S
O100 C83 1.255 . S
O101 Eu81 2.366 . S
O101 C83 1.265 . S
C102 O93 1.255 . S
C102 O94 1.265 . S
O103 Tb80 2.479 . S
O103 C90 1.238 . S
O104 Tb80 2.471 . S
O104 C90 1.247 . S
C105 C108 1.380 . S
C105 C109 1.374 . S
C105 C111 1.507 1_455 S
C106 C107 1.387 . S
C106 C110 1.391 . S
C107 C106 1.387 . S
C107 C108 1.384 . S
C107 H116 0.930 . S
C108 C105 1.380 . S
C108 C107 1.384 . S
C108 H117 0.931 . S
C109 C105 1.374 . S
C109 C110 1.390 . S
C109 H118 0.930 1_455 S
C110 C106 1.391 . S
C110 C109 1.390 . S
C110 H119 0.930 . S
C111 Eu81 2.825 . S
C111 O96 1.238 . S
C111 O97 1.247 . S
C111 C105 1.507 1_655 S
H112 C85 0.930 . S
H113 C86 0.931 . S
H114 C87 0.930 . S
H115 C88 0.930 . S
H116 C107 0.930 . S
H117 C108 0.931 . S
H118 C109 0.930 1_655 S
H119 C110 0.930 . S
Tb120 C130 2.825 . S
Tb120 O131 2.347 . S
Tb120 O134 2.366 . S
Tb120 O139 2.418 . S
Tb120 O140 2.384 . S
Tb120 O143 2.479 . S
Tb120 O144 2.471 . S
Eu121 O132 2.418 . S
Eu121 O133 2.384 . S
Eu121 O136 2.479 . S
Eu121 O137 2.471 . S
Eu121 O138 2.347 . S
Eu121 O141 2.366 . S
Eu121 C151 2.825 . S
C122 O138 1.259 . S
C122 O139 1.265 . S
C123 O140 1.255 . S
C123 O141 1.265 . S
C124 C126 1.380 . S
C124 C127 1.374 . S
C124 C130 1.507 1_565 S
C125 C126 1.384 . S
C125 C129 1.387 . S
C125 H152 0.930 . S
C126 C124 1.380 . S
C126 C125 1.384 . S
C126 H153 0.931 . S
C127 C124 1.374 . S
C127 C128 1.390 . S
C127 H154 0.930 1_565 S
C128 C127 1.390 . S
C128 C129 1.391 . S
C128 H155 0.930 . S
C129 C125 1.387 . S
C129 C128 1.391 . S
C130 Tb120 2.825 . S
C130 C124 1.507 1_545 S
C130 O143 1.238 . S
C130 O144 1.247 . S
O131 Tb120 2.347 . S
O131 C135 1.259 . S
O132 Eu121 2.418 . S
O132 C135 1.265 . S
O133 Eu121 2.384 . S
O133 C142 1.255 . S
O134 Tb120 2.366 . S
O134 C142 1.265 . S
C135 O131 1.259 . S
C135 O132 1.265 . S
O136 Eu121 2.479 . S
O136 C151 1.238 . S
O137 Eu121 2.471 . S
O137 C151 1.247 . S
O138 Eu121 2.347 . S
O138 C122 1.259 . S
O139 Tb120 2.418 . S
O139 C122 1.265 . S
O140 Tb120 2.384 . S
O140 C123 1.255 . S
O141 Eu121 2.366 . S
O141 C123 1.265 . S
C142 O133 1.255 . S
C142 O134 1.265 . S
O143 Tb120 2.479 . S
O143 C130 1.238 . S
O144 Tb120 2.471 . S
O144 C130 1.247 . S
C145 C148 1.380 . S
C145 C149 1.374 . S
C145 C151 1.507 . S
C146 C147 1.387 . S
C146 C150 1.391 . S
C147 C146 1.387 . S
C147 C148 1.384 . S
C147 H156 0.930 . S
C148 C145 1.380 . S
C148 C147 1.384 . S
C148 H157 0.931 . S
C149 C145 1.374 . S
C149 C150 1.390 . S
C149 H158 0.930 . S
C150 C146 1.391 . S
C150 C149 1.390 . S
C150 H159 0.930 . S
C151 Eu121 2.825 . S
C151 O136 1.238 . S
C151 O137 1.247 . S
C151 C145 1.507 . S
H152 C125 0.930 . S
H153 C126 0.931 . S
H154 C127 0.930 1_545 S
H155 C128 0.930 . S
H156 C147 0.930 . S
H157 C148 0.931 . S
H158 C149 0.930 . S
H159 C150 0.930 . S
Tb160 C170 2.825 . S
Tb160 O171 2.347 . S
Tb160 O174 2.366 . S
Tb160 O179 2.418 . S
Tb160 O180 2.384 . S
Tb160 O183 2.479 . S
Tb160 O184 2.471 . S
Eu161 O172 2.418 . S
Eu161 O173 2.384 . S
Eu161 O176 2.479 . S
Eu161 O177 2.471 . S
Eu161 O178 2.347 . S
Eu161 O181 2.366 . S
Eu161 C191 2.825 . S
C162 O178 1.259 . S
C162 O179 1.265 . S
C163 O180 1.255 . S
C163 O181 1.265 . S
C164 C166 1.380 . S
C164 C167 1.374 . S
C164 C170 1.507 . S
C165 C166 1.384 . S
C165 C169 1.387 . S
C165 H192 0.930 . S
C166 C164 1.380 . S
C166 C165 1.384 . S
C166 H193 0.931 . S
C167 C164 1.374 . S
C167 C168 1.390 . S
C167 H194 0.930 . S
C168 C167 1.390 . S
C168 C169 1.391 . S
C168 H195 0.930 . S
C169 C165 1.387 . S
C169 C168 1.391 . S
C170 Tb160 2.825 . S
C170 C164 1.507 . S
C170 O183 1.238 . S
C170 O184 1.247 . S
O171 Tb160 2.347 . S
O171 C175 1.259 . S
O172 Eu161 2.418 . S
O172 C175 1.265 . S
O173 Eu161 2.384 . S
O173 C182 1.255 . S
O174 Tb160 2.366 . S
O174 C182 1.265 . S
C175 O171 1.259 . S
C175 O172 1.265 . S
O176 Eu161 2.479 . S
O176 C191 1.238 . S
O177 Eu161 2.471 . S
O177 C191 1.247 . S
O178 Eu161 2.347 . S
O178 C162 1.259 . S
O179 Tb160 2.418 . S
O179 C162 1.265 . S
O180 Tb160 2.384 . S
O180 C163 1.255 . S
O181 Eu161 2.366 . S
O181 C163 1.265 . S
C182 O173 1.255 . S
C182 O174 1.265 . S
O183 Tb160 2.479 . S
O183 C170 1.238 . S
O184 Tb160 2.471 . S
O184 C170 1.247 . S
C185 C188 1.380 . S
C185 C189 1.374 . S
C185 C191 1.507 . S
C186 C187 1.387 . S
C186 C190 1.391 . S
C187 C186 1.387 . S
C187 C188 1.384 . S
C187 H196 0.930 . S
C188 C185 1.380 . S
C188 C187 1.384 . S
C188 H197 0.931 . S
C189 C185 1.374 . S
C189 C190 1.390 . S
C189 H198 0.930 . S
C190 C186 1.391 . S
C190 C189 1.390 . S
C190 H199 0.930 . S
C191 Eu161 2.825 . S
C191 O176 1.238 . S
C191 O177 1.247 . S
C191 C185 1.507 . S
H192 C165 0.930 . S
H193 C166 0.931 . S
H194 C167 0.930 . S
H195 C168 0.930 . S
H196 C187 0.930 . S
H197 C188 0.931 . S
H198 C189 0.930 . S
H199 C190 0.930 . S
Tb200 C210 2.825 . S
Tb200 O211 2.347 . S
Tb200 O214 2.366 . S
Tb200 O219 2.418 . S
Tb200 O220 2.384 . S
Tb200 O223 2.479 . S
Tb200 O224 2.471 . S
Eu201 O212 2.418 . S
Eu201 O213 2.384 . S
Eu201 O216 2.479 . S
Eu201 O217 2.471 . S
Eu201 O218 2.347 . S
Eu201 O221 2.366 . S
Eu201 C231 2.825 . S
C202 O218 1.259 . S
C202 O219 1.265 . S
C203 O220 1.255 . S
C203 O221 1.265 . S
C204 C206 1.380 . S
C204 C207 1.374 . S
C204 C210 1.507 1_455 S
C205 C206 1.384 . S
C205 C209 1.387 . S
C205 H232 0.930 . S
C206 C204 1.380 . S
C206 C205 1.384 . S
C206 H233 0.931 . S
C207 C204 1.374 . S
C207 C208 1.390 . S
C207 H234 0.930 1_455 S
C208 C207 1.390 . S
C208 C209 1.391 . S
C208 H235 0.930 . S
C209 C205 1.387 . S
C209 C208 1.391 . S
C210 Tb200 2.825 . S
C210 C204 1.507 1_655 S
C210 O223 1.238 . S
C210 O224 1.247 . S
O211 Tb200 2.347 . S
O211 C215 1.259 . S
O212 Eu201 2.418 . S
O212 C215 1.265 . S
O213 Eu201 2.384 . S
O213 C222 1.255 . S
O214 Tb200 2.366 . S
O214 C222 1.265 . S
C215 O211 1.259 . S
C215 O212 1.265 . S
O216 Eu201 2.479 . S
O216 C231 1.238 . S
O217 Eu201 2.471 . S
O217 C231 1.247 . S
O218 Eu201 2.347 . S
O218 C202 1.259 . S
O219 Tb200 2.418 . S
O219 C202 1.265 . S
O220 Tb200 2.384 . S
O220 C203 1.255 . S
O221 Eu201 2.366 . S
O221 C203 1.265 . S
C222 O213 1.255 . S
C222 O214 1.265 . S
O223 Tb200 2.479 . S
O223 C210 1.238 . S
O224 Tb200 2.471 . S
O224 C210 1.247 . S
C225 C228 1.380 . S
C225 C229 1.374 . S
C225 C231 1.507 . S
C226 C227 1.387 . S
C226 C230 1.391 . S
C227 C226 1.387 . S
C227 C228 1.384 . S
C227 H236 0.930 . S
C228 C225 1.380 . S
C228 C227 1.384 . S
C228 H237 0.931 . S
C229 C225 1.374 . S
C229 C230 1.390 . S
C229 H238 0.930 . S
C230 C226 1.391 . S
C230 C229 1.390 . S
C230 H239 0.930 . S
C231 Eu201 2.825 . S
C231 O216 1.238 . S
C231 O217 1.247 . S
C231 C225 1.507 . S
H232 C205 0.930 . S
H233 C206 0.931 . S
H234 C207 0.930 1_655 S
H235 C208 0.930 . S
H236 C227 0.930 . S
H237 C228 0.931 . S
H238 C229 0.930 . S
H239 C230 0.930 . S
Tb240 C250 2.825 . S
Tb240 O251 2.347 . S
Tb240 O254 2.366 . S
Tb240 O259 2.418 . S
Tb240 O260 2.384 . S
Tb240 O263 2.479 . S
Tb240 O264 2.471 . S
Eu241 O252 2.418 . S
Eu241 O253 2.384 . S
Eu241 O256 2.479 . S
Eu241 O257 2.471 . S
Eu241 O258 2.347 . S
Eu241 O261 2.366 . S
Eu241 C271 2.825 . S
C242 O258 1.259 . S
C242 O259 1.265 . S
C243 O260 1.255 . S
C243 O261 1.265 . S
C244 C246 1.380 . S
C244 C247 1.374 . S
C244 C250 1.507 1_655 S
C245 C246 1.384 . S
C245 C249 1.387 . S
C245 H272 0.930 . S
C246 C244 1.380 . S
C246 C245 1.384 . S
C246 H273 0.931 . S
C247 C244 1.374 . S
C247 C248 1.390 . S
C247 H274 0.930 1_655 S
C248 C247 1.390 . S
C248 C249 1.391 . S
C248 H275 0.930 . S
C249 C245 1.387 . S
C249 C248 1.391 . S
C250 Tb240 2.825 . S
C250 C244 1.507 1_455 S
C250 O263 1.238 . S
C250 O264 1.247 . S
O251 Tb240 2.347 . S
O251 C255 1.259 . S
O252 Eu241 2.418 . S
O252 C255 1.265 . S
O253 Eu241 2.384 . S
O253 C262 1.255 . S
O254 Tb240 2.366 . S
O254 C262 1.265 . S
C255 O251 1.259 . S
C255 O252 1.265 . S
O256 Eu241 2.479 . S
O256 C271 1.238 . S
O257 Eu241 2.471 . S
O257 C271 1.247 . S
O258 Eu241 2.347 . S
O258 C242 1.259 . S
O259 Tb240 2.418 . S
O259 C242 1.265 . S
O260 Tb240 2.384 . S
O260 C243 1.255 . S
O261 Eu241 2.366 . S
O261 C243 1.265 . S
C262 O253 1.255 . S
C262 O254 1.265 . S
O263 Tb240 2.479 . S
O263 C250 1.238 . S
O264 Tb240 2.471 . S
O264 C250 1.247 . S
C265 C268 1.380 . S
C265 C269 1.374 . S
C265 C271 1.507 . S
C266 C267 1.387 . S
C266 C270 1.391 . S
C267 C266 1.387 . S
C267 C268 1.384 . S
C267 H276 0.930 . S
C268 C265 1.380 . S
C268 C267 1.384 . S
C268 H277 0.931 . S
C269 C265 1.374 . S
C269 C270 1.390 . S
C269 H278 0.930 . S
C270 C266 1.391 . S
C270 C269 1.390 . S
C270 H279 0.930 . S
C271 Eu241 2.825 . S
C271 O256 1.238 . S
C271 O257 1.247 . S
C271 C265 1.507 . S
H272 C245 0.930 . S
H273 C246 0.931 . S
H274 C247 0.930 1_455 S
H275 C248 0.930 . S
H276 C267 0.930 . S
H277 C268 0.931 . S
H278 C269 0.930 . S
H279 C270 0.930 . S
Tb280 C290 2.825 . S
Tb280 O291 2.347 . S
Tb280 O294 2.366 . S
Tb280 O299 2.418 . S
Tb280 O300 2.384 . S
Tb280 O303 2.479 . S
Tb280 O304 2.471 . S
Eu281 O292 2.418 . S
Eu281 O293 2.384 . S
Eu281 O296 2.479 . S
Eu281 O297 2.471 . S
Eu281 O298 2.347 . S
Eu281 O301 2.366 . S
Eu281 C311 2.825 . S
C282 O298 1.259 . S
C282 O299 1.265 . S
C283 O300 1.255 . S
C283 O301 1.265 . S
C284 C286 1.380 . S
C284 C287 1.374 . S
C284 C290 1.507 . S
C285 C286 1.384 . S
C285 C289 1.387 . S
C285 H312 0.930 . S
C286 C284 1.380 . S
C286 C285 1.384 . S
C286 H313 0.931 . S
C287 C284 1.374 . S
C287 C288 1.390 . S
C287 H314 0.930 . S
C288 C287 1.390 . S
C288 C289 1.391 . S
C288 H315 0.930 . S
C289 C285 1.387 . S
C289 C288 1.391 . S
C290 Tb280 2.825 . S
C290 C284 1.507 . S
C290 O303 1.238 . S
C290 O304 1.247 . S
O291 Tb280 2.347 . S
O291 C295 1.259 . S
O292 Eu281 2.418 . S
O292 C295 1.265 . S
O293 Eu281 2.384 . S
O293 C302 1.255 . S
O294 Tb280 2.366 . S
O294 C302 1.265 . S
C295 O291 1.259 . S
C295 O292 1.265 . S
O296 Eu281 2.479 . S
O296 C311 1.238 . S
O297 Eu281 2.471 . S
O297 C311 1.247 . S
O298 Eu281 2.347 . S
O298 C282 1.259 . S
O299 Tb280 2.418 . S
O299 C282 1.265 . S
O300 Tb280 2.384 . S
O300 C283 1.255 . S
O301 Eu281 2.366 . S
O301 C283 1.265 . S
C302 O293 1.255 . S
C302 O294 1.265 . S
O303 Tb280 2.479 . S
O303 C290 1.238 . S
O304 Tb280 2.471 . S
O304 C290 1.247 . S
C305 C308 1.380 . S
C305 C309 1.374 . S
C305 C311 1.507 1_545 S
C306 C307 1.387 . S
C306 C310 1.391 . S
C307 C306 1.387 . S
C307 C308 1.384 . S
C307 H316 0.930 . S
C308 C305 1.380 . S
C308 C307 1.384 . S
C308 H317 0.931 . S
C309 C305 1.374 . S
C309 C310 1.390 . S
C309 H318 0.930 1_545 S
C310 C306 1.391 . S
C310 C309 1.390 . S
C310 H319 0.930 . S
C311 Eu281 2.825 . S
C311 O296 1.238 . S
C311 O297 1.247 . S
C311 C305 1.507 1_565 S
H312 C285 0.930 . S
H313 C286 0.931 . S
H314 C287 0.930 . S
H315 C288 0.930 . S
H316 C307 0.930 . S
H317 C308 0.931 . S
H318 C309 0.930 1_565 S
H319 C310 0.930 . S
Tb320 C330 2.825 . S
Tb320 O331 2.347 . S
Tb320 O334 2.366 . S
Tb320 O339 2.418 . S
Tb320 O340 2.384 . S
Tb320 O343 2.479 . S
Tb320 O344 2.471 . S
Eu321 O332 2.418 . S
Eu321 O333 2.384 . S
Eu321 O336 2.479 . S
Eu321 O337 2.471 . S
Eu321 O338 2.347 . S
Eu321 O341 2.366 . S
Eu321 C351 2.825 . S
C322 O338 1.259 . S
C322 O339 1.265 . S
C323 O340 1.255 . S
C323 O341 1.265 . S
C324 C326 1.380 . S
C324 C327 1.374 . S
C324 C330 1.507 . S
C325 C326 1.384 . S
C325 C329 1.387 . S
C325 H352 0.930 . S
C326 C324 1.380 . S
C326 C325 1.384 . S
C326 H353 0.931 . S
C327 C324 1.374 . S
C327 C328 1.390 . S
C327 H354 0.930 . S
C328 C327 1.390 . S
C328 C329 1.391 . S
C328 H355 0.930 . S
C329 C325 1.387 . S
C329 C328 1.391 . S
C330 Tb320 2.825 . S
C330 C324 1.507 . S
C330 O343 1.238 . S
C330 O344 1.247 . S
O331 Tb320 2.347 . S
O331 C335 1.259 . S
O332 Eu321 2.418 . S
O332 C335 1.265 . S
O333 Eu321 2.384 . S
O333 C342 1.255 . S
O334 Tb320 2.366 . S
O334 C342 1.265 . S
C335 O331 1.259 . S
C335 O332 1.265 . S
O336 Eu321 2.479 . S
O336 C351 1.238 . S
O337 Eu321 2.471 . S
O337 C351 1.247 . S
O338 Eu321 2.347 . S
O338 C322 1.259 . S
O339 Tb320 2.418 . S
O339 C322 1.265 . S
O340 Tb320 2.384 . S
O340 C323 1.255 . S
O341 Eu321 2.366 . S
O341 C323 1.265 . S
C342 O333 1.255 . S
C342 O334 1.265 . S
O343 Tb320 2.479 . S
O343 C330 1.238 . S
O344 Tb320 2.471 . S
O344 C330 1.247 . S
C345 C348 1.380 . S
C345 C349 1.374 . S
C345 C351 1.507 . S
C346 C347 1.387 . S
C346 C350 1.391 . S
C347 C346 1.387 . S
C347 C348 1.384 . S
C347 H356 0.930 . S
C348 C345 1.380 . S
C348 C347 1.384 . S
C348 H357 0.931 . S
C349 C345 1.374 . S
C349 C350 1.390 . S
C349 H358 0.930 . S
C350 C346 1.391 . S
C350 C349 1.390 . S
C350 H359 0.930 . S
C351 Eu321 2.825 . S
C351 O336 1.238 . S
C351 O337 1.247 . S
C351 C345 1.507 . S
H352 C325 0.930 . S
H353 C326 0.931 . S
H354 C327 0.930 . S
H355 C328 0.930 . S
H356 C347 0.930 . S
H357 C348 0.931 . S
H358 C349 0.930 . S
H359 C350 0.930 . S
Tb360 C370 2.825 . S
Tb360 O371 2.347 . S
Tb360 O374 2.366 . S
Tb360 O379 2.418 . S
Tb360 O380 2.384 . S
Tb360 O383 2.479 . S
Tb360 O384 2.471 . S
Eu361 O372 2.418 . S
Eu361 O373 2.384 . S
Eu361 O376 2.479 . S
Eu361 O377 2.471 . S
Eu361 O378 2.347 . S
Eu361 O381 2.366 . S
Eu361 C391 2.825 . S
C362 O378 1.259 . S
C362 O379 1.265 . S
C363 O380 1.255 . S
C363 O381 1.265 . S
C364 C366 1.380 . S
C364 C367 1.374 . S
C364 C370 1.507 . S
C365 C366 1.384 . S
C365 C369 1.387 . S
C365 H392 0.930 . S
C366 C364 1.380 . S
C366 C365 1.384 . S
C366 H393 0.931 . S
C367 C364 1.374 . S
C367 C368 1.390 . S
C367 H394 0.930 . S
C368 C367 1.390 . S
C368 C369 1.391 . S
C368 H395 0.930 . S
C369 C365 1.387 . S
C369 C368 1.391 . S
C370 Tb360 2.825 . S
C370 C364 1.507 . S
C370 O383 1.238 . S
C370 O384 1.247 . S
O371 Tb360 2.347 . S
O371 C375 1.259 . S
O372 Eu361 2.418 . S
O372 C375 1.265 . S
O373 Eu361 2.384 . S
O373 C382 1.255 . S
O374 Tb360 2.366 . S
O374 C382 1.265 . S
C375 O371 1.259 . S
C375 O372 1.265 . S
O376 Eu361 2.479 . S
O376 C391 1.238 . S
O377 Eu361 2.471 . S
O377 C391 1.247 . S
O378 Eu361 2.347 . S
O378 C362 1.259 . S
O379 Tb360 2.418 . S
O379 C362 1.265 . S
O380 Tb360 2.384 . S
O380 C363 1.255 . S
O381 Eu361 2.366 . S
O381 C363 1.265 . S
C382 O373 1.255 . S
C382 O374 1.265 . S
O383 Tb360 2.479 . S
O383 C370 1.238 . S
O384 Tb360 2.471 . S
O384 C370 1.247 . S
C385 C388 1.380 . S
C385 C389 1.374 . S
C385 C391 1.507 1_655 S
C386 C387 1.387 . S
C386 C390 1.391 . S
C387 C386 1.387 . S
C387 C388 1.384 . S
C387 H396 0.930 . S
C388 C385 1.380 . S
C388 C387 1.384 . S
C388 H397 0.931 . S
C389 C385 1.374 . S
C389 C390 1.390 . S
C389 H398 0.930 1_655 S
C390 C386 1.391 . S
C390 C389 1.390 . S
C390 H399 0.930 . S
C391 Eu361 2.825 . S
C391 O376 1.238 . S
C391 O377 1.247 . S
C391 C385 1.507 1_455 S
H392 C365 0.930 . S
H393 C366 0.931 . S
H394 C367 0.930 . S
H395 C368 0.930 . S
H396 C387 0.930 . S
H397 C388 0.931 . S
H398 C389 0.930 1_455 S
H399 C390 0.930 . S
Tb400 C410 2.825 . S
Tb400 O411 2.347 . S
Tb400 O414 2.366 . S
Tb400 O419 2.418 . S
Tb400 O420 2.384 . S
Tb400 O423 2.479 . S
Tb400 O424 2.471 . S
Eu401 O412 2.418 . S
Eu401 O413 2.384 . S
Eu401 O416 2.479 . S
Eu401 O417 2.471 . S
Eu401 O418 2.347 . S
Eu401 O421 2.366 . S
Eu401 C431 2.825 . S
C402 O418 1.259 . S
C402 O419 1.265 . S
C403 O420 1.255 . S
C403 O421 1.265 . S
C404 C406 1.380 . S
C404 C407 1.374 . S
C404 C410 1.507 1_545 S
C405 C406 1.384 . S
C405 C409 1.387 . S
C405 H432 0.930 . S
C406 C404 1.380 . S
C406 C405 1.384 . S
C406 H433 0.931 . S
C407 C404 1.374 . S
C407 C408 1.390 . S
C407 H434 0.930 1_545 S
C408 C407 1.390 . S
C408 C409 1.391 . S
C408 H435 0.930 . S
C409 C405 1.387 . S
C409 C408 1.391 . S
C410 Tb400 2.825 . S
C410 C404 1.507 1_565 S
C410 O423 1.238 . S
C410 O424 1.247 . S
O411 Tb400 2.347 . S
O411 C415 1.259 . S
O412 Eu401 2.418 . S
O412 C415 1.265 . S
O413 Eu401 2.384 . S
O413 C422 1.255 . S
O414 Tb400 2.366 . S
O414 C422 1.265 . S
C415 O411 1.259 . S
C415 O412 1.265 . S
O416 Eu401 2.479 . S
O416 C431 1.238 . S
O417 Eu401 2.471 . S
O417 C431 1.247 . S
O418 Eu401 2.347 . S
O418 C402 1.259 . S
O419 Tb400 2.418 . S
O419 C402 1.265 . S
O420 Tb400 2.384 . S
O420 C403 1.255 . S
O421 Eu401 2.366 . S
O421 C403 1.265 . S
C422 O413 1.255 . S
C422 O414 1.265 . S
O423 Tb400 2.479 . S
O423 C410 1.238 . S
O424 Tb400 2.471 . S
O424 C410 1.247 . S
C425 C428 1.380 . S
C425 C429 1.374 . S
C425 C431 1.507 . S
C426 C427 1.387 . S
C426 C430 1.391 . S
C427 C426 1.387 . S
C427 C428 1.384 . S
C427 H436 0.930 . S
C428 C425 1.380 . S
C428 C427 1.384 . S
C428 H437 0.931 . S
C429 C425 1.374 . S
C429 C430 1.390 . S
C429 H438 0.930 . S
C430 C426 1.391 . S
C430 C429 1.390 . S
C430 H439 0.930 . S
C431 Eu401 2.825 . S
C431 O416 1.238 . S
C431 O417 1.247 . S
C431 C425 1.507 . S
H432 C405 0.930 . S
H433 C406 0.931 . S
H434 C407 0.930 1_565 S
H435 C408 0.930 . S
H436 C427 0.930 . S
H437 C428 0.931 . S
H438 C429 0.930 . S
H439 C430 0.930 . S
Tb440 C450 2.825 . S
Tb440 O451 2.347 . S
Tb440 O454 2.366 . S
Tb440 O459 2.418 . S
Tb440 O460 2.384 . S
Tb440 O463 2.479 . S
Tb440 O464 2.471 . S
Eu441 O452 2.418 . S
Eu441 O453 2.384 . S
Eu441 O456 2.479 . S
Eu441 O457 2.471 . S
Eu441 O458 2.347 . S
Eu441 O461 2.366 . S
Eu441 C471 2.825 . S
C442 O458 1.259 . S
C442 O459 1.265 . S
C443 O460 1.255 . S
C443 O461 1.265 . S
C444 C446 1.380 . S
C444 C447 1.374 . S
C444 C450 1.507 . S
C445 C446 1.384 . S
C445 C449 1.387 . S
C445 H472 0.930 . S
C446 C444 1.380 . S
C446 C445 1.384 . S
C446 H473 0.931 . S
C447 C444 1.374 . S
C447 C448 1.390 . S
C447 H474 0.930 . S
C448 C447 1.390 . S
C448 C449 1.391 . S
C448 H475 0.930 . S
C449 C445 1.387 . S
C449 C448 1.391 . S
C450 Tb440 2.825 . S
C450 C444 1.507 . S
C450 O463 1.238 . S
C450 O464 1.247 . S
O451 Tb440 2.347 . S
O451 C455 1.259 . S
O452 Eu441 2.418 . S
O452 C455 1.265 . S
O453 Eu441 2.384 . S
O453 C462 1.255 . S
O454 Tb440 2.366 . S
O454 C462 1.265 . S
C455 O451 1.259 . S
C455 O452 1.265 . S
O456 Eu441 2.479 . S
O456 C471 1.238 . S
O457 Eu441 2.471 . S
O457 C471 1.247 . S
O458 Eu441 2.347 . S
O458 C442 1.259 . S
O459 Tb440 2.418 . S
O459 C442 1.265 . S
O460 Tb440 2.384 . S
O460 C443 1.255 . S
O461 Eu441 2.366 . S
O461 C443 1.265 . S
C462 O453 1.255 . S
C462 O454 1.265 . S
O463 Tb440 2.479 . S
O463 C450 1.238 . S
O464 Tb440 2.471 . S
O464 C450 1.247 . S
C465 C468 1.380 . S
C465 C469 1.374 . S
C465 C471 1.507 . S
C466 C467 1.387 . S
C466 C470 1.391 . S
C467 C466 1.387 . S
C467 C468 1.384 . S
C467 H476 0.930 . S
C468 C465 1.380 . S
C468 C467 1.384 . S
C468 H477 0.931 . S
C469 C465 1.374 . S
C469 C470 1.390 . S
C469 H478 0.930 . S
C470 C466 1.391 . S
C470 C469 1.390 . S
C470 H479 0.930 . S
C471 Eu441 2.825 . S
C471 O456 1.238 . S
C471 O457 1.247 . S
C471 C465 1.507 . S
H472 C445 0.930 . S
H473 C446 0.931 . S
H474 C447 0.930 . S
H475 C448 0.930 . S
H476 C467 0.930 . S
H477 C468 0.931 . S
H478 C469 0.930 . S
H479 C470 0.930 . S
C480 C481 1.391 . S
C480 C482 1.394 . S
C480 H496 0.931 . S
C481 C480 1.391 . S
C481 C485 1.376 . S
C482 C480 1.394 . S
C482 C483 1.369 . S
C482 C486 1.531 . S
C483 C482 1.369 . S
C483 C484 1.410 . S
C483 C491 1.503 . S
C484 C483 1.410 . S
C484 C485 1.392 . S
C484 C487 1.511 . S
C485 C481 1.376 . S
C485 C484 1.392 . S
C485 H497 0.929 . S
C486 C482 1.531 . S
C486 H498 0.960 . S
C486 H499 0.962 . S
C486 H500 0.960 . S
C487 C484 1.511 . S
C487 H501 0.961 . S
C487 H502 0.961 . S
C487 H503 0.961 . S
C488 C489 1.370 . S
C488 C490 1.363 . S
C488 H504 0.931 . S
C489 C488 1.370 . S
C489 C493 1.408 . S
C490 C488 1.363 . S
C490 C491 1.370 . S
C490 C494 1.524 . S
C491 C483 1.503 . S
C491 C490 1.370 . S
C491 C492 1.403 . S
C492 C491 1.403 . S
C492 C493 1.404 . S
C492 C495 1.539 . S
C493 C489 1.408 . S
C493 C492 1.404 . S
C493 H505 0.930 . S
C494 C490 1.524 . S
C494 H506 0.956 . S
C494 H507 0.961 . S
C494 H508 0.961 . S
C495 C492 1.539 . S
C495 H509 0.958 . S
C495 H510 0.961 . S
C495 H511 0.960 . S
H496 C480 0.931 . S
H497 C485 0.929 . S
H498 C486 0.960 . S
H499 C486 0.962 . S
H500 C486 0.960 . S
H501 C487 0.961 . S
H502 C487 0.961 . S
H503 C487 0.961 . S
H504 C488 0.931 . S
H505 C493 0.930 . S
H506 C494 0.956 . S
H507 C494 0.961 . S
H508 C494 0.961 . S
H509 C495 0.958 . S
H510 C495 0.961 . S
H511 C495 0.960 . S
C512 C513 1.391 . S
C512 C514 1.394 . S
C512 H528 0.931 . S
C513 C512 1.391 . S
C513 C517 1.376 . S
C514 C512 1.394 . S
C514 C515 1.369 . S
C514 C518 1.531 1_455 S
C515 C514 1.369 . S
C515 C516 1.410 . S
C515 C523 1.503 1_455 S
C516 C515 1.410 . S
C516 C517 1.392 . S
C516 C519 1.511 . S
C517 C513 1.376 . S
C517 C516 1.392 . S
C517 H529 0.929 . S
C518 C514 1.531 1_655 S
C518 H530 0.960 . S
C518 H531 0.962 . S
C518 H532 0.959 1_655 S
C519 C516 1.511 . S
C519 H533 0.961 . S
C519 H534 0.961 . S
C519 H535 0.961 . S
C520 C521 1.370 . S
C520 C522 1.363 . S
C520 H536 0.931 . S
C521 C520 1.370 . S
C521 C525 1.408 . S
C522 C520 1.363 . S
C522 C523 1.370 . S
C522 C526 1.524 . S
C523 C515 1.503 1_655 S
C523 C522 1.370 . S
C523 C524 1.403 . S
C524 C523 1.403 . S
C524 C525 1.404 . S
C524 C527 1.539 . S
C525 C521 1.408 . S
C525 C524 1.404 . S
C525 H537 0.930 . S
C526 C522 1.524 . S
C526 H538 0.956 . S
C526 H539 0.961 . S
C526 H540 0.961 . S
C527 C524 1.539 . S
C527 H541 0.958 . S
C527 H542 0.961 . S
C527 H543 0.960 1_655 S
H528 C512 0.931 . S
H529 C517 0.929 . S
H530 C518 0.960 . S
H531 C518 0.962 . S
H532 C518 0.959 1_455 S
H533 C519 0.961 . S
H534 C519 0.961 . S
H535 C519 0.961 . S
H536 C520 0.931 . S
H537 C525 0.930 . S
H538 C526 0.956 . S
H539 C526 0.961 . S
H540 C526 0.961 . S
H541 C527 0.958 . S
H542 C527 0.961 . S
H543 C527 0.960 1_455 S
C544 C545 1.391 . S
C544 C546 1.394 . S
C544 H560 0.931 . S
C545 C544 1.391 . S
C545 C549 1.376 . S
C546 C544 1.394 . S
C546 C547 1.369 . S
C546 C550 1.531 . S
C547 C546 1.369 . S
C547 C548 1.410 . S
C547 C555 1.503 1_545 S
C548 C547 1.410 . S
C548 C549 1.392 . S
C548 C551 1.511 . S
C549 C545 1.376 . S
C549 C548 1.392 . S
C549 H561 0.929 . S
C550 C546 1.531 . S
C550 H562 0.960 1_545 S
C550 H563 0.962 1_545 S
C550 H564 0.960 . S
C551 C548 1.511 . S
C551 H565 0.961 . S
C551 H566 0.961 . S
C551 H567 0.961 . S
C552 C553 1.370 . S
C552 C554 1.363 . S
C552 H568 0.931 . S
C553 C552 1.370 . S
C553 C557 1.408 . S
C554 C552 1.363 . S
C554 C555 1.370 . S
C554 C558 1.524 . S
C555 C547 1.503 1_565 S
C555 C554 1.370 . S
C555 C556 1.403 . S
C556 C555 1.403 . S
C556 C557 1.404 . S
C556 C559 1.539 1_565 S
C557 C553 1.408 . S
C557 C556 1.404 . S
C557 H569 0.930 . S
C558 C554 1.524 . S
C558 H570 0.956 . S
C558 H571 0.961 . S
C558 H572 0.961 . S
C559 C556 1.539 1_545 S
C559 H573 0.958 . S
C559 H574 0.961 1_545 S
C559 H575 0.960 . S
H560 C544 0.931 . S
H561 C549 0.929 . S
H562 C550 0.960 1_565 S
H563 C550 0.962 1_565 S
H564 C550 0.960 . S
H565 C551 0.961 . S
H566 C551 0.961 . S
H567 C551 0.961 . S
H568 C552 0.931 . S
H569 C557 0.930 . S
H570 C558 0.956 . S
H571 C558 0.961 . S
H572 C558 0.961 . S
H573 C559 0.958 . S
H574 C559 0.961 1_565 S
H575 C559 0.960 . S
C576 C577 1.391 . S
C576 C578 1.394 . S
C576 H592 0.931 . S
C577 C576 1.391 . S
C577 C581 1.376 . S
C578 C576 1.394 . S
C578 C579 1.369 . S
C578 C582 1.531 . S
C579 C578 1.369 . S
C579 C580 1.410 . S
C579 C587 1.503 . S
C580 C579 1.410 . S
C580 C581 1.392 . S
C580 C583 1.511 . S
C581 C577 1.376 . S
C581 C580 1.392 . S
C581 H593 0.929 . S
C582 C578 1.531 . S
C582 H594 0.960 . S
C582 H595 0.962 . S
C582 H596 0.960 . S
C583 C580 1.511 . S
C583 H597 0.961 . S
C583 H598 0.961 . S
C583 H599 0.961 . S
C584 C585 1.370 . S
C584 C586 1.363 . S
C584 H600 0.931 . S
C585 C584 1.370 . S
C585 C589 1.408 . S
C586 C584 1.363 . S
C586 C587 1.370 . S
C586 C590 1.524 . S
C587 C579 1.503 . S
C587 C586 1.370 . S
C587 C588 1.403 . S
C588 C587 1.403 . S
C588 C589 1.404 . S
C588 C591 1.539 . S
C589 C585 1.408 . S
C589 C588 1.404 . S
C589 H601 0.930 . S
C590 C586 1.524 . S
C590 H602 0.956 . S
C590 H603 0.961 . S
C590 H604 0.961 . S
C591 C588 1.539 . S
C591 H605 0.958 . S
C591 H606 0.961 . S
C591 H607 0.960 . S
H592 C576 0.931 . S
H593 C581 0.929 . S
H594 C582 0.960 . S
H595 C582 0.962 . S
H596 C582 0.960 . S
H597 C583 0.961 . S
H598 C583 0.961 . S
H599 C583 0.961 . S
H600 C584 0.931 . S
H601 C589 0.930 . S
H602 C590 0.956 . S
H603 C590 0.961 . S
H604 C590 0.961 . S
H605 C591 0.958 . S
H606 C591 0.961 . S
H607 C591 0.960 . S
C608 C609 1.391 . S
C608 C610 1.394 . S
C608 H624 0.931 . S
C609 C608 1.391 . S
C609 C613 1.376 . S
C610 C608 1.394 . S
C610 C611 1.369 . S
C610 C614 1.531 . S
C611 C610 1.369 . S
C611 C612 1.410 . S
C611 C619 1.503 1_455 S
C612 C611 1.410 . S
C612 C613 1.392 . S
C612 C615 1.511 . S
C613 C609 1.376 . S
C613 C612 1.392 . S
C613 H625 0.929 . S
C614 C610 1.531 . S
C614 H626 0.960 . S
C614 H627 0.962 . S
C614 H628 0.960 . S
C615 C612 1.511 . S
C615 H629 0.961 . S
C615 H630 0.961 1_455 S
C615 H631 0.961 . S
C616 C617 1.370 . S
C616 C618 1.363 . S
C616 H632 0.931 . S
C617 C616 1.370 . S
C617 C621 1.408 . S
C618 C616 1.363 . S
C618 C619 1.370 . S
C618 C622 1.524 . S
C619 C611 1.503 1_655 S
C619 C618 1.370 . S
C619 C620 1.403 . S
C620 C619 1.403 . S
C620 C621 1.404 . S
C620 C623 1.539 . S
C621 C617 1.408 . S
C621 C620 1.404 . S
C621 H633 0.930 . S
C622 C618 1.524 . S
C622 H634 0.956 . S
C622 H635 0.961 . S
C622 H636 0.961 . S
C623 C620 1.539 . S
C623 H637 0.958 1_655 S
C623 H638 0.961 . S
C623 H639 0.960 1_655 S
H624 C608 0.931 . S
H625 C613 0.929 . S
H626 C614 0.960 . S
H627 C614 0.962 . S
H628 C614 0.960 . S
H629 C615 0.961 . S
H630 C615 0.961 1_655 S
H631 C615 0.961 . S
H632 C616 0.931 . S
H633 C621 0.930 . S
H634 C622 0.956 . S
H635 C622 0.961 . S
H636 C622 0.961 . S
H637 C623 0.958 1_455 S
H638 C623 0.961 . S
H639 C623 0.960 1_455 S
C640 C641 1.391 . S
C640 C642 1.394 . S
C640 H656 0.931 . S
C641 C640 1.391 . S
C641 C645 1.376 . S
C642 C640 1.394 . S
C642 C643 1.369 . S
C642 C646 1.531 . S
C643 C642 1.369 . S
C643 C644 1.410 . S
C643 C651 1.503 1_565 S
C644 C643 1.410 . S
C644 C645 1.392 . S
C644 C647 1.511 . S
C645 C641 1.376 . S
C645 C644 1.392 . S
C645 H657 0.929 . S
C646 C642 1.531 . S
C646 H658 0.960 . S
C646 H659 0.962 . S
C646 H660 0.960 . S
C647 C644 1.511 . S
C647 H661 0.961 . S
C647 H662 0.961 1_565 S
C647 H663 0.961 . S
C648 C649 1.370 . S
C648 C650 1.363 . S
C648 H664 0.931 . S
C649 C648 1.370 . S
C649 C653 1.408 . S
C650 C648 1.363 . S
C650 C651 1.370 . S
C650 C654 1.524 . S
C651 C643 1.503 1_545 S
C651 C650 1.370 . S
C651 C652 1.403 . S
C652 C651 1.403 . S
C652 C653 1.404 . S
C652 C655 1.539 . S
C653 C649 1.408 . S
C653 C652 1.404 . S
C653 H665 0.930 . S
C654 C650 1.524 . S
C654 H666 0.956 . S
C654 H667 0.961 . S
C654 H668 0.961 . S
C655 C652 1.539 . S
C655 H669 0.958 1_545 S
C655 H670 0.961 . S
C655 H671 0.960 1_545 S
H656 C640 0.931 . S
H657 C645 0.929 . S
H658 C646 0.960 . S
H659 C646 0.962 . S
H660 C646 0.960 . S
H661 C647 0.961 . S
H662 C647 0.961 1_545 S
H663 C647 0.961 . S
H664 C648 0.931 . S
H665 C653 0.930 . S
H666 C654 0.956 . S
H667 C654 0.961 . S
H668 C654 0.961 . S
H669 C655 0.958 1_565 S
H670 C655 0.961 . S
H671 C655 0.960 1_565 S
C672 C673 1.391 . S
C672 C674 1.394 . S
C672 H688 0.931 . S
C673 C672 1.391 . S
C673 C677 1.376 . S
C674 C672 1.394 . S
C674 C675 1.369 . S
C674 C678 1.531 . S
C675 C674 1.369 . S
C675 C676 1.410 . S
C675 C683 1.503 . S
C676 C675 1.410 . S
C676 C677 1.392 . S
C676 C679 1.511 . S
C677 C673 1.376 . S
C677 C676 1.392 . S
C677 H689 0.929 . S
C678 C674 1.531 . S
C678 H690 0.960 . S
C678 H691 0.962 . S
C678 H692 0.960 . S
C679 C676 1.511 . S
C679 H693 0.961 . S
C679 H694 0.961 . S
C679 H695 0.961 . S
C680 C681 1.370 . S
C680 C682 1.363 . S
C680 H696 0.931 . S
C681 C680 1.370 . S
C681 C685 1.408 . S
C682 C680 1.363 . S
C682 C683 1.370 . S
C682 C686 1.524 . S
C683 C675 1.503 . S
C683 C682 1.370 . S
C683 C684 1.403 . S
C684 C683 1.403 . S
C684 C685 1.404 . S
C684 C687 1.539 . S
C685 C681 1.408 . S
C685 C684 1.404 . S
C685 H697 0.930 . S
C686 C682 1.524 . S
C686 H698 0.956 . S
C686 H699 0.961 . S
C686 H700 0.961 . S
C687 C684 1.539 . S
C687 H701 0.958 . S
C687 H702 0.961 . S
C687 H703 0.960 . S
H688 C672 0.931 . S
H689 C677 0.929 . S
H690 C678 0.960 . S
H691 C678 0.962 . S
H692 C678 0.960 . S
H693 C679 0.961 . S
H694 C679 0.961 . S
H695 C679 0.961 . S
H696 C680 0.931 . S
H697 C685 0.930 . S
H698 C686 0.956 . S
H699 C686 0.961 . S
H700 C686 0.961 . S
H701 C687 0.958 . S
H702 C687 0.961 . S
H703 C687 0.960 . S
C704 C705 1.391 . S
C704 C706 1.394 . S
C704 H720 0.931 . S
C705 C704 1.391 . S
C705 C709 1.376 . S
C706 C704 1.394 . S
C706 C707 1.369 . S
C706 C710 1.530 . S
C707 C706 1.369 . S
C707 C708 1.410 . S
C707 C715 1.503 1_455 S
C708 C707 1.410 . S
C708 C709 1.392 . S
C708 C711 1.511 . S
C709 C705 1.376 . S
C709 C708 1.392 . S
C709 H721 0.929 . S
C710 C706 1.530 . S
C710 H722 0.963 1_455 S
C710 H723 0.962 1_455 S
C710 H724 0.959 . S
C711 C708 1.511 . S
C711 H725 0.961 . S
C711 H726 0.961 . S
C711 H727 0.961 . S
C712 C713 1.370 . S
C712 C714 1.363 . S
C712 H728 0.931 . S
C713 C712 1.370 . S
C713 C717 1.408 . S
C714 C712 1.363 . S
C714 C715 1.370 . S
C714 C718 1.524 . S
C715 C707 1.503 1_655 S
C715 C714 1.370 . S
C715 C716 1.403 . S
C716 C715 1.403 . S
C716 C717 1.404 . S
C716 C719 1.539 . S
C717 C713 1.408 . S
C717 C716 1.404 . S
C717 H729 0.930 . S
C718 C714 1.524 . S
C718 H730 0.956 . S
C718 H731 0.961 1_655 S
C718 H732 0.961 . S
C719 C716 1.539 . S
C719 H733 0.958 . S
C719 H734 0.961 . S
C719 H735 0.960 1_655 S
H720 C704 0.931 . S
H721 C709 0.929 . S
H722 C710 0.963 1_655 S
H723 C710 0.962 1_655 S
H724 C710 0.959 . S
H725 C711 0.961 . S
H726 C711 0.961 . S
H727 C711 0.961 . S
H728 C712 0.931 . S
H729 C717 0.930 . S
H730 C718 0.956 . S
H731 C718 0.961 1_455 S
H732 C718 0.961 . S
H733 C719 0.958 . S
H734 C719 0.961 . S
H735 C719 0.960 1_455 S
C736 C737 1.391 . S
C736 C738 1.394 . S
C736 H752 0.931 . S
C737 C736 1.391 . S
C737 C741 1.376 . S
C738 C736 1.394 . S
C738 C739 1.369 . S
C738 C742 1.531 . S
C739 C738 1.369 . S
C739 C740 1.410 . S
C739 C747 1.503 1_565 S
C740 C739 1.410 . S
C740 C741 1.392 . S
C740 C743 1.511 . S
C741 C737 1.376 . S
C741 C740 1.392 . S
C741 H753 0.929 . S
C742 C738 1.531 . S
C742 H754 0.960 . S
C742 H755 0.962 . S
C742 H756 0.960 . S
C743 C740 1.511 . S
C743 H757 0.961 . S
C743 H758 0.961 1_565 S
C743 H759 0.961 1_565 S
C744 C745 1.370 . S
C744 C746 1.363 . S
C744 H760 0.931 . S
C745 C744 1.370 . S
C745 C749 1.408 . S
C746 C744 1.363 . S
C746 C747 1.370 . S
C746 C750 1.524 1_545 S
C747 C739 1.503 1_545 S
C747 C746 1.370 . S
C747 C748 1.403 . S
C748 C747 1.403 . S
C748 C749 1.404 . S
C748 C751 1.539 . S
C749 C745 1.408 . S
C749 C748 1.404 . S
C749 H761 0.930 . S
C750 C746 1.524 1_565 S
C750 H762 0.956 . S
C750 H763 0.961 . S
C750 H764 0.961 1_565 S
C751 C748 1.539 . S
C751 H765 0.958 . S
C751 H766 0.961 . S
C751 H767 0.960 . S
H752 C736 0.931 . S
H753 C741 0.929 . S
H754 C742 0.960 . S
H755 C742 0.962 . S
H756 C742 0.960 . S
H757 C743 0.961 . S
H758 C743 0.961 1_545 S
H759 C743 0.961 1_545 S
H760 C744 0.931 . S
H761 C749 0.930 . S
H762 C750 0.956 . S
H763 C750 0.961 . S
H764 C750 0.961 1_545 S
H765 C751 0.958 . S
H766 C751 0.961 . S
H767 C751 0.960 . S
C768 C769 1.391 . S
C768 C770 1.394 . S
C768 H784 0.931 . S
C769 C768 1.391 . S
C769 C773 1.376 . S
C770 C768 1.394 . S
C770 C771 1.369 . S
C770 C774 1.531 . S
C771 C770 1.369 . S
C771 C772 1.410 . S
C771 C779 1.503 . S
C772 C771 1.410 . S
C772 C773 1.392 . S
C772 C775 1.511 . S
C773 C769 1.376 . S
C773 C772 1.392 . S
C773 H785 0.929 . S
C774 C770 1.531 . S
C774 H786 0.960 . S
C774 H787 0.962 . S
C774 H788 0.960 . S
C775 C772 1.511 . S
C775 H789 0.961 . S
C775 H790 0.961 . S
C775 H791 0.961 . S
C776 C777 1.370 . S
C776 C778 1.363 . S
C776 H792 0.931 . S
C777 C776 1.370 . S
C777 C781 1.408 . S
C778 C776 1.363 . S
C778 C779 1.370 . S
C778 C782 1.524 . S
C779 C771 1.503 . S
C779 C778 1.370 . S
C779 C780 1.403 . S
C780 C779 1.403 . S
C780 C781 1.404 . S
C780 C783 1.539 . S
C781 C777 1.408 . S
C781 C780 1.404 . S
C781 H793 0.930 . S
C782 C778 1.524 . S
C782 H794 0.956 . S
C782 H795 0.961 . S
C782 H796 0.961 . S
C783 C780 1.539 . S
C783 H797 0.958 . S
C783 H798 0.961 . S
C783 H799 0.960 . S
H784 C768 0.931 . S
H785 C773 0.929 . S
H786 C774 0.960 . S
H787 C774 0.962 . S
H788 C774 0.960 . S
H789 C775 0.961 . S
H790 C775 0.961 . S
H791 C775 0.961 . S
H792 C776 0.931 . S
H793 C781 0.930 . S
H794 C782 0.956 . S
H795 C782 0.961 . S
H796 C782 0.961 . S
H797 C783 0.958 . S
H798 C783 0.961 . S
H799 C783 0.960 . S
C800 C801 1.391 . S
C800 C802 1.394 . S
C800 H816 0.931 . S
C801 C800 1.391 . S
C801 C805 1.376 . S
C802 C800 1.394 . S
C802 C803 1.369 . S
C802 C806 1.531 . S
C803 C802 1.369 . S
C803 C804 1.410 . S
C803 C811 1.503 1_455 S
C804 C803 1.410 . S
C804 C805 1.392 . S
C804 C807 1.511 . S
C805 C801 1.376 . S
C805 C804 1.392 . S
C805 H817 0.929 . S
C806 C802 1.531 . S
C806 H818 0.960 1_455 S
C806 H819 0.962 . S
C806 H820 0.960 . S
C807 C804 1.511 . S
C807 H821 0.961 . S
C807 H822 0.961 . S
C807 H823 0.961 . S
C808 C809 1.370 . S
C808 C810 1.363 . S
C808 H824 0.931 . S
C809 C808 1.370 . S
C809 C813 1.408 . S
C810 C808 1.363 . S
C810 C811 1.370 . S
C810 C814 1.524 1_655 S
C811 C803 1.503 1_655 S
C811 C810 1.370 . S
C811 C812 1.403 . S
C812 C811 1.403 . S
C812 C813 1.404 . S
C812 C815 1.539 . S
C813 C809 1.408 . S
C813 C812 1.404 . S
C813 H825 0.930 . S
C814 C810 1.524 1_455 S
C814 H826 0.956 . S
C814 H827 0.961 . S
C814 H828 0.964 . S
C815 C812 1.539 . S
C815 H829 0.958 . S
C815 H830 0.961 . S
C815 H831 0.960 . S
H816 C800 0.931 . S
H817 C805 0.929 . S
H818 C806 0.960 1_655 S
H819 C806 0.962 . S
H820 C806 0.960 . S
H821 C807 0.961 . S
H822 C807 0.961 . S
H823 C807 0.961 . S
H824 C808 0.931 . S
H825 C813 0.930 . S
H826 C814 0.956 . S
H827 C814 0.961 . S
H828 C814 0.964 . S
H829 C815 0.958 . S
H830 C815 0.961 . S
H831 C815 0.960 . S
C832 C833 1.391 . S
C832 C834 1.394 . S
C832 H848 0.931 . S
C833 C832 1.391 . S
C833 C837 1.376 . S
C834 C832 1.394 . S
C834 C835 1.369 . S
C834 C838 1.531 1_545 S
C835 C834 1.369 . S
C835 C836 1.410 . S
C835 C843 1.503 1_545 S
C836 C835 1.410 . S
C836 C837 1.392 . S
C836 C839 1.511 . S
C837 C833 1.376 . S
C837 C836 1.392 . S
C837 H849 0.929 . S
C838 C834 1.531 1_565 S
C838 H850 0.960 . S
C838 H851 0.962 . S
C838 H852 0.960 . S
C839 C836 1.511 . S
C839 H853 0.961 . S
C839 H854 0.961 . S
C839 H855 0.961 . S
C840 C841 1.370 . S
C840 C842 1.363 . S
C840 H856 0.931 . S
C841 C840 1.370 . S
C841 C845 1.408 . S
C842 C840 1.363 . S
C842 C843 1.370 . S
C842 C846 1.524 . S
C843 C835 1.503 1_565 S
C843 C842 1.370 . S
C843 C844 1.403 . S
C844 C843 1.403 . S
C844 C845 1.404 . S
C844 C847 1.539 . S
C845 C841 1.408 . S
C845 C844 1.404 . S
C845 H857 0.930 . S
C846 C842 1.524 . S
C846 H858 0.956 . S
C846 H859 0.961 1_565 S
C846 H860 0.961 . S
C847 C844 1.539 . S
C847 H861 0.958 . S
C847 H862 0.961 . S
C847 H863 0.960 . S
H848 C832 0.931 . S
H849 C837 0.929 . S
H850 C838 0.960 . S
H851 C838 0.962 . S
H852 C838 0.960 . S
H853 C839 0.961 . S
H854 C839 0.961 . S
H855 C839 0.961 . S
H856 C840 0.931 . S
H857 C845 0.930 . S
H858 C846 0.956 . S
H859 C846 0.961 1_545 S
H860 C846 0.961 . S
H861 C847 0.958 . S
H862 C847 0.961 . S
H863 C847 0.960 . S
C864 C865 1.391 . S
C864 C866 1.394 . S
C864 H880 0.931 . S
C865 C864 1.391 . S
C865 C869 1.376 . S
C866 C864 1.394 . S
C866 C867 1.369 . S
C866 C870 1.531 . S
C867 C866 1.369 . S
C867 C868 1.410 . S
C867 C875 1.503 . S
C868 C867 1.410 . S
C868 C869 1.392 . S
C868 C871 1.511 . S
C869 C865 1.376 . S
C869 C868 1.392 . S
C869 H881 0.929 . S
C870 C866 1.531 . S
C870 H882 0.960 . S
C870 H883 0.962 . S
C870 H884 0.960 . S
C871 C868 1.511 . S
C871 H885 0.961 . S
C871 H886 0.961 . S
C871 H887 0.961 . S
C872 C873 1.370 . S
C872 C874 1.363 . S
C872 H888 0.931 . S
C873 C872 1.370 . S
C873 C877 1.408 . S
C874 C872 1.363 . S
C874 C875 1.370 . S
C874 C878 1.524 . S
C875 C867 1.503 . S
C875 C874 1.370 . S
C875 C876 1.403 . S
C876 C875 1.403 . S
C876 C877 1.404 . S
C876 C879 1.539 . S
C877 C873 1.408 . S
C877 C876 1.404 . S
C877 H889 0.930 . S
C878 C874 1.524 . S
C878 H890 0.956 . S
C878 H891 0.961 . S
C878 H892 0.961 . S
C879 C876 1.539 . S
C879 H893 0.958 . S
C879 H894 0.961 . S
C879 H895 0.960 . S
H880 C864 0.931 . S
H881 C869 0.929 . S
H882 C870 0.960 . S
H883 C870 0.962 . S
H884 C870 0.960 . S
H885 C871 0.961 . S
H886 C871 0.961 . S
H887 C871 0.961 . S
H888 C872 0.931 . S
H889 C877 0.930 . S
H890 C878 0.956 . S
H891 C878 0.961 . S
H892 C878 0.961 . S
H893 C879 0.958 . S
H894 C879 0.961 . S
H895 C879 0.960 . S
C896 C897 1.391 . S
C896 C898 1.394 . S
C896 H912 0.931 . S
C897 C896 1.391 . S
C897 C901 1.376 . S
C898 C896 1.394 . S
C898 C899 1.369 . S
C898 C902 1.531 . S
C899 C898 1.369 . S
C899 C900 1.410 . S
C899 C907 1.503 . S
C900 C899 1.410 . S
C900 C901 1.392 . S
C900 C903 1.511 . S
C901 C897 1.376 . S
C901 C900 1.392 . S
C901 H913 0.929 . S
C902 C898 1.531 . S
C902 H914 0.960 . S
C902 H915 0.962 . S
C902 H916 0.960 . S
C903 C900 1.511 . S
C903 H917 0.961 . S
C903 H918 0.961 . S
C903 H919 0.961 . S
C904 C905 1.370 . S
C904 C906 1.363 . S
C904 H920 0.931 . S
C905 C904 1.370 . S
C905 C909 1.408 . S
C906 C904 1.363 . S
C906 C907 1.370 . S
C906 C910 1.524 . S
C907 C899 1.503 . S
C907 C906 1.370 . S
C907 C908 1.403 . S
C908 C907 1.403 . S
C908 C909 1.404 . S
C908 C911 1.539 . S
C909 C905 1.408 . S
C909 C908 1.404 . S
C909 H921 0.930 . S
C910 C906 1.524 . S
C910 H922 0.956 . S
C910 H923 0.961 . S
C910 H924 0.961 . S
C911 C908 1.539 . S
C911 H925 0.958 . S
C911 H926 0.961 . S
C911 H927 0.960 . S
H912 C896 0.931 . S
H913 C901 0.929 . S
H914 C902 0.960 . S
H915 C902 0.962 . S
H916 C902 0.960 . S
H917 C903 0.961 . S
H918 C903 0.961 . S
H919 C903 0.961 . S
H920 C904 0.931 . S
H921 C909 0.930 . S
H922 C910 0.956 . S
H923 C910 0.961 . S
H924 C910 0.961 . S
H925 C911 0.958 . S
H926 C911 0.961 . S
H927 C911 0.960 . S
C928 C929 1.391 . S
C928 C930 1.394 . S
C928 H944 0.931 . S
C929 C928 1.391 . S
C929 C933 1.376 . S
C930 C928 1.394 . S
C930 C931 1.369 . S
C930 C934 1.531 . S
C931 C930 1.369 . S
C931 C932 1.410 . S
C931 C939 1.503 . S
C932 C931 1.410 . S
C932 C933 1.392 . S
C932 C935 1.511 . S
C933 C929 1.376 . S
C933 C932 1.392 . S
C933 H945 0.929 . S
C934 C930 1.531 . S
C934 H946 0.960 . S
C934 H947 0.962 . S
C934 H948 0.960 . S
C935 C932 1.511 . S
C935 H949 0.961 . S
C935 H950 0.961 . S
C935 H951 0.961 . S
C936 C937 1.370 . S
C936 C938 1.363 . S
C936 H952 0.931 . S
C937 C936 1.370 . S
C937 C941 1.408 . S
C938 C936 1.363 . S
C938 C939 1.370 . S
C938 C942 1.524 . S
C939 C931 1.503 . S
C939 C938 1.370 . S
C939 C940 1.403 . S
C940 C939 1.403 . S
C940 C941 1.404 . S
C940 C943 1.539 . S
C941 C937 1.408 . S
C941 C940 1.404 . S
C941 H953 0.930 . S
C942 C938 1.524 . S
C942 H954 0.956 . S
C942 H955 0.961 . S
C942 H956 0.961 . S
C943 C940 1.539 . S
C943 H957 0.958 . S
C943 H958 0.961 . S
C943 H959 0.960 . S
H944 C928 0.931 . S
H945 C933 0.929 . S
H946 C934 0.960 . S
H947 C934 0.962 . S
H948 C934 0.960 . S
H949 C935 0.961 . S
H950 C935 0.961 . S
H951 C935 0.961 . S
H952 C936 0.931 . S
H953 C941 0.930 . S
H954 C942 0.956 . S
H955 C942 0.961 . S
H956 C942 0.961 . S
H957 C943 0.958 . S
H958 C943 0.961 . S
H959 C943 0.960 . S
C960 C961 1.391 . S
C960 C962 1.394 . S
C960 H976 0.931 . S
C961 C960 1.391 . S
C961 C965 1.376 . S
C962 C960 1.394 . S
C962 C963 1.369 . S
C962 C966 1.531 . S
C963 C962 1.369 . S
C963 C964 1.410 . S
C963 C971 1.503 . S
C964 C963 1.410 . S
C964 C965 1.392 . S
C964 C967 1.511 . S
C965 C961 1.376 . S
C965 C964 1.392 . S
C965 H977 0.929 . S
C966 C962 1.531 . S
C966 H978 0.960 . S
C966 H979 0.962 . S
C966 H980 0.960 . S
C967 C964 1.511 . S
C967 H981 0.961 . S
C967 H982 0.961 . S
C967 H983 0.961 . S
C968 C969 1.370 . S
C968 C970 1.363 . S
C968 H984 0.931 . S
C969 C968 1.370 . S
C969 C973 1.408 . S
C970 C968 1.363 . S
C970 C971 1.370 . S
C970 C974 1.524 . S
C971 C963 1.503 . S
C971 C970 1.370 . S
C971 C972 1.403 . S
C972 C971 1.403 . S
C972 C973 1.404 . S
C972 C975 1.539 . S
C973 C969 1.408 . S
C973 C972 1.404 . S
C973 H985 0.930 . S
C974 C970 1.524 . S
C974 H986 0.956 . S
C974 H987 0.961 . S
C974 H988 0.961 . S
C975 C972 1.539 . S
C975 H989 0.958 . S
C975 H990 0.961 . S
C975 H991 0.960 . S
H976 C960 0.931 . S
H977 C965 0.929 . S
H978 C966 0.960 . S
H979 C966 0.962 . S
H980 C966 0.960 . S
H981 C967 0.961 . S
H982 C967 0.961 . S
H983 C967 0.961 . S
H984 C968 0.931 . S
H985 C973 0.930 . S
H986 C974 0.956 . S
H987 C974 0.961 . S
H988 C974 0.961 . S
H989 C975 0.958 . S
H990 C975 0.961 . S
H991 C975 0.960 . S
C992 C993 1.391 . S
C992 C994 1.394 . S
C992 H1008 0.931 . S
C993 C992 1.391 . S
C993 C997 1.376 . S
C994 C992 1.394 . S
C994 C995 1.369 . S
C994 C998 1.531 . S
C995 C994 1.369 . S
C995 C996 1.410 . S
C995 C1003 1.503 . S
C996 C995 1.410 . S
C996 C997 1.392 . S
C996 C999 1.511 . S
C997 C993 1.376 . S
C997 C996 1.392 . S
C997 H1009 0.929 . S
C998 C994 1.531 . S
C998 H1010 0.960 . S
C998 H1011 0.962 . S
C998 H1012 0.960 . S
C999 C996 1.511 . S
C999 H1013 0.961 . S
C999 H1014 0.961 . S
C999 H1015 0.961 . S
C1000 C1001 1.370 . S
C1000 C1002 1.363 . S
C1000 H1016 0.931 . S
C1001 C1000 1.370 . S
C1001 C1005 1.408 . S
C1002 C1000 1.363 . S
C1002 C1003 1.370 . S
C1002 C1006 1.524 . S
C1003 C995 1.503 . S
C1003 C1002 1.370 . S
C1003 C1004 1.403 . S
C1004 C1003 1.403 . S
C1004 C1005 1.404 . S
C1004 C1007 1.539 . S
C1005 C1001 1.408 . S
C1005 C1004 1.404 . S
C1005 H1017 0.930 . S
C1006 C1002 1.524 . S
C1006 H1018 0.956 . S
C1006 H1019 0.961 . S
C1006 H1020 0.961 . S
C1007 C1004 1.539 . S
C1007 H1021 0.958 . S
C1007 H1022 0.961 . S
C1007 H1023 0.960 . S
H1008 C992 0.931 . S
H1009 C997 0.929 . S
H1010 C998 0.960 . S
H1011 C998 0.962 . S
H1012 C998 0.960 . S
H1013 C999 0.961 . S
H1014 C999 0.961 . S
H1015 C999 0.961 . S
H1016 C1000 0.931 . S
H1017 C1005 0.930 . S
H1018 C1006 0.956 . S
H1019 C1006 0.961 . S
H1020 C1006 0.961 . S
H1021 C1007 0.958 . S
H1022 C1007 0.961 . S
H1023 C1007 0.960 . S
C1024 C1025 1.391 . S
C1024 C1026 1.394 . S
C1024 H1040 0.931 . S
C1025 C1024 1.391 . S
C1025 C1029 1.376 . S
C1026 C1024 1.394 . S
C1026 C1027 1.369 . S
C1026 C1030 1.531 . S
C1027 C1026 1.369 . S
C1027 C1028 1.410 . S
C1027 C1035 1.503 . S
C1028 C1027 1.410 . S
C1028 C1029 1.392 . S
C1028 C1031 1.511 . S
C1029 C1025 1.376 . S
C1029 C1028 1.392 . S
C1029 H1041 0.929 . S
C1030 C1026 1.531 . S
C1030 H1042 0.960 . S
C1030 H1043 0.962 . S
C1030 H1044 0.960 . S
C1031 C1028 1.511 . S
C1031 H1045 0.961 . S
C1031 H1046 0.961 . S
C1031 H1047 0.961 . S
C1032 C1033 1.370 . S
C1032 C1034 1.363 . S
C1032 H1048 0.931 . S
C1033 C1032 1.370 . S
C1033 C1037 1.408 . S
C1034 C1032 1.363 . S
C1034 C1035 1.370 . S
C1034 C1038 1.524 . S
C1035 C1027 1.503 . S
C1035 C1034 1.370 . S
C1035 C1036 1.403 . S
C1036 C1035 1.403 . S
C1036 C1037 1.404 . S
C1036 C1039 1.539 . S
C1037 C1033 1.408 . S
C1037 C1036 1.404 . S
C1037 H1049 0.930 . S
C1038 C1034 1.524 . S
C1038 H1050 0.956 . S
C1038 H1051 0.961 . S
C1038 H1052 0.961 . S
C1039 C1036 1.539 . S
C1039 H1053 0.958 . S
C1039 H1054 0.961 . S
C1039 H1055 0.960 . S
H1040 C1024 0.931 . S
H1041 C1029 0.929 . S
H1042 C1030 0.960 . S
H1043 C1030 0.962 . S
H1044 C1030 0.960 . S
H1045 C1031 0.961 . S
H1046 C1031 0.961 . S
H1047 C1031 0.961 . S
H1048 C1032 0.931 . S
H1049 C1037 0.930 . S
H1050 C1038 0.956 . S
H1051 C1038 0.961 . S
H1052 C1038 0.961 . S
H1053 C1039 0.958 . S
H1054 C1039 0.961 . S
H1055 C1039 0.960 . S
C1056 C1057 1.391 . S
C1056 C1058 1.394 . S
C1056 H1072 0.931 . S
C1057 C1056 1.391 . S
C1057 C1061 1.376 . S
C1058 C1056 1.394 . S
C1058 C1059 1.369 . S
C1058 C1062 1.531 1_556 S
C1059 C1058 1.369 . S
C1059 C1060 1.410 . S
C1059 C1067 1.503 1_566 S
C1060 C1059 1.410 . S
C1060 C1061 1.392 . S
C1060 C1063 1.511 1_565 S
C1061 C1057 1.376 . S
C1061 C1060 1.392 . S
C1061 H1073 0.929 . S
C1062 C1058 1.531 1_554 S
C1062 H1074 0.937 1_565 S
C1062 H1075 0.962 . S
C1062 H1076 0.960 1_554 S
C1063 C1060 1.511 1_545 S
C1063 H1077 0.961 1_545 S
C1063 H1078 0.961 . S
C1063 H1079 0.961 . S
C1064 C1065 1.370 . S
C1064 C1066 1.363 . S
C1064 H1080 0.931 . S
C1065 C1064 1.370 . S
C1065 C1069 1.408 . S
C1066 C1064 1.363 . S
C1066 C1067 1.370 . S
C1066 C1070 1.524 1_545 S
C1067 C1059 1.503 1_544 S
C1067 C1066 1.370 . S
C1067 C1068 1.403 1_554 S
C1068 C1067 1.403 1_556 S
C1068 C1069 1.404 1_556 S
C1068 C1071 1.539 . S
C1069 C1065 1.408 . S
C1069 C1068 1.404 1_554 S
C1069 H1081 0.930 . S
C1070 C1066 1.524 1_565 S
C1070 H1082 0.956 . S
C1070 H1083 0.961 . S
C1070 H1084 0.961 . S
C1071 C1068 1.539 . S
C1071 H1085 0.958 . S
C1071 H1086 0.961 . S
C1071 H1087 0.960 . S
H1072 C1056 0.931 . S
H1073 C1061 0.929 . S
H1074 C1062 0.937 1_545 S
H1075 C1062 0.962 . S
H1076 C1062 0.960 1_556 S
H1077 C1063 0.961 1_565 S
H1078 C1063 0.961 . S
H1079 C1063 0.961 . S
H1080 C1064 0.931 . S
H1081 C1069 0.930 . S
H1082 C1070 0.956 . S
H1083 C1070 0.961 . S
H1084 C1070 0.961 . S
H1085 C1071 0.958 . S
H1086 C1071 0.961 . S
H1087 C1071 0.960 . S
C1088 C1089 1.391 . S
C1088 C1090 1.394 . S
C1088 H1104 0.931 . S
C1089 C1088 1.391 . S
C1089 C1093 1.376 . S
C1090 C1088 1.394 . S
C1090 C1091 1.369 . S
C1090 C1094 1.531 . S
C1091 C1090 1.369 . S
C1091 C1092 1.410 . S
C1091 C1099 1.503 . S
C1092 C1091 1.410 . S
C1092 C1093 1.392 . S
C1092 C1095 1.511 . S
C1093 C1089 1.376 . S
C1093 C1092 1.392 . S
C1093 H1105 0.929 . S
C1094 C1090 1.531 . S
C1094 H1106 0.960 . S
C1094 H1107 0.962 . S
C1094 H1108 0.960 . S
C1095 C1092 1.511 . S
C1095 H1109 0.961 . S
C1095 H1110 0.961 . S
C1095 H1111 0.961 . S
C1096 C1097 1.370 . S
C1096 C1098 1.363 . S
C1096 H1112 0.931 . S
C1097 C1096 1.370 . S
C1097 C1101 1.408 . S
C1098 C1096 1.363 . S
C1098 C1099 1.370 . S
C1098 C1102 1.524 . S
C1099 C1091 1.503 . S
C1099 C1098 1.370 . S
C1099 C1100 1.403 . S
C1100 C1099 1.403 . S
C1100 C1101 1.404 . S
C1100 C1103 1.539 . S
C1101 C1097 1.408 . S
C1101 C1100 1.404 . S
C1101 H1113 0.930 . S
C1102 C1098 1.524 . S
C1102 H1114 0.956 . S
C1102 H1115 0.961 . S
C1102 H1116 0.961 . S
C1103 C1100 1.539 . S
C1103 H1117 0.958 . S
C1103 H1118 0.961 . S
C1103 H1119 0.960 . S
H1104 C1088 0.931 . S
H1105 C1093 0.929 . S
H1106 C1094 0.960 . S
H1107 C1094 0.962 . S
H1108 C1094 0.960 . S
H1109 C1095 0.961 . S
H1110 C1095 0.961 . S
H1111 C1095 0.961 . S
H1112 C1096 0.931 . S
H1113 C1101 0.930 . S
H1114 C1102 0.956 . S
H1115 C1102 0.961 . S
H1116 C1102 0.961 . S
H1117 C1103 0.958 . S
H1118 C1103 0.961 . S
H1119 C1103 0.960 . S
C1120 C1121 1.391 . S
C1120 C1122 1.394 . S
C1120 H1136 0.931 . S
C1121 C1120 1.391 . S
C1121 C1125 1.376 . S
C1122 C1120 1.394 . S
C1122 C1123 1.369 . S
C1122 C1126 1.531 1_455 S
C1123 C1122 1.369 . S
C1123 C1124 1.410 . S
C1123 C1131 1.503 1_456 S
C1124 C1123 1.410 . S
C1124 C1125 1.392 . S
C1124 C1127 1.511 1_556 S
C1125 C1121 1.376 . S
C1125 C1124 1.392 . S
C1125 H1137 0.929 . S
C1126 C1122 1.531 1_655 S
C1126 H1138 0.960 . S
C1126 H1139 0.962 . S
C1126 H1140 0.960 . S
C1127 C1124 1.511 1_554 S
C1127 H1141 0.961 . S
C1127 H1142 0.961 . S
C1127 H1143 0.961 . S
C1128 C1129 1.370 . S
C1128 C1130 1.363 . S
C1128 H1144 0.931 . S
C1129 C1128 1.370 . S
C1129 C1133 1.408 . S
C1130 C1128 1.363 . S
C1130 C1131 1.370 . S
C1130 C1134 1.524 1_655 S
C1131 C1123 1.503 1_654 S
C1131 C1130 1.370 . S
C1131 C1132 1.403 . S
C1132 C1131 1.403 . S
C1132 C1133 1.404 . S
C1132 C1135 1.539 1_554 S
C1133 C1129 1.408 . S
C1133 C1132 1.404 . S
C1133 H1145 0.930 . S
C1134 C1130 1.524 1_455 S
C1134 H1146 0.956 . S
C1134 H1147 0.961 . S
C1134 H1148 0.961 . S
C1135 C1132 1.539 1_556 S
C1135 H1149 0.958 . S
C1135 H1150 0.961 . S
C1135 H1151 0.960 . S
H1136 C1120 0.931 . S
H1137 C1125 0.929 . S
H1138 C1126 0.960 . S
H1139 C1126 0.962 . S
H1140 C1126 0.960 . S
H1141 C1127 0.961 . S
H1142 C1127 0.961 . S
H1143 C1127 0.961 . S
H1144 C1128 0.931 . S
H1145 C1133 0.930 . S
H1146 C1134 0.956 . S
H1147 C1134 0.961 . S
H1148 C1134 0.961 . S
H1149 C1135 0.958 . S
H1150 C1135 0.961 . S
H1151 C1135 0.960 . S
C1152 C1153 1.391 . S
C1152 C1154 1.394 . S
C1152 H1168 0.931 . S
C1153 C1152 1.391 . S
C1153 C1157 1.376 . S
C1154 C1152 1.394 . S
C1154 C1155 1.369 . S
C1154 C1158 1.531 . S
C1155 C1154 1.369 . S
C1155 C1156 1.410 . S
C1155 C1163 1.503 1_545 S
C1156 C1155 1.410 . S
C1156 C1157 1.392 . S
C1156 C1159 1.511 . S
C1157 C1153 1.376 . S
C1157 C1156 1.392 . S
C1157 H1169 0.929 . S
C1158 C1154 1.531 . S
C1158 H1170 0.960 1_545 S
C1158 H1171 0.962 . S
C1158 H1172 0.960 . S
C1159 C1156 1.511 . S
C1159 H1173 0.961 . S
C1159 H1174 0.961 1_545 S
C1159 H1175 0.961 1_545 S
C1160 C1161 1.370 . S
C1160 C1162 1.363 . S
C1160 H1176 0.931 . S
C1161 C1160 1.370 . S
C1161 C1165 1.408 . S
C1162 C1160 1.363 . S
C1162 C1163 1.370 . S
C1162 C1166 1.524 1_565 S
C1163 C1155 1.503 1_565 S
C1163 C1162 1.370 . S
C1163 C1164 1.403 . S
C1164 C1163 1.403 . S
C1164 C1165 1.404 . S
C1164 C1167 1.539 . S
C1165 C1161 1.408 . S
C1165 C1164 1.404 . S
C1165 H1177 0.930 . S
C1166 C1162 1.524 1_545 S
C1166 H1178 0.956 . S
C1166 H1179 0.961 . S
C1166 H1180 0.961 . S
C1167 C1164 1.539 . S
C1167 H1181 0.958 . S
C1167 H1182 0.961 . S
C1167 H1183 0.960 . S
H1168 C1152 0.931 . S
H1169 C1157 0.929 . S
H1170 C1158 0.960 1_565 S
H1171 C1158 0.962 . S
H1172 C1158 0.960 . S
H1173 C1159 0.961 . S
H1174 C1159 0.961 1_565 S
H1175 C1159 0.961 1_565 S
H1176 C1160 0.931 . S
H1177 C1165 0.930 . S
H1178 C1166 0.956 . S
H1179 C1166 0.961 . S
H1180 C1166 0.961 . S
H1181 C1167 0.958 . S
H1182 C1167 0.961 . S
H1183 C1167 0.960 . S
C1184 C1185 1.391 . S
C1184 C1186 1.394 1_554 S
C1184 H1200 0.931 . S
C1185 C1184 1.391 . S
C1185 C1189 1.376 . S
C1186 C1184 1.394 1_556 S
C1186 C1187 1.369 1_556 S
C1186 C1190 1.531 . S
C1187 C1186 1.369 1_554 S
C1187 C1188 1.410 . S
C1187 C1195 1.503 1_554 S
C1188 C1187 1.410 . S
C1188 C1189 1.392 . S
C1188 C1191 1.511 . S
C1189 C1185 1.376 . S
C1189 C1188 1.392 . S
C1189 H1201 0.929 . S
C1190 C1186 1.531 . S
C1190 H1202 0.960 . S
C1190 H1203 0.962 . S
C1190 H1204 0.960 . S
C1191 C1188 1.511 . S
C1191 H1205 0.961 . S
C1191 H1206 0.961 . S
C1191 H1207 0.961 . S
C1192 C1193 1.370 . S
C1192 C1194 1.363 . S
C1192 H1208 0.931 . S
C1193 C1192 1.370 . S
C1193 C1197 1.408 . S
C1194 C1192 1.363 . S
C1194 C1195 1.370 . S
C1194 C1198 1.523 . S
C1195 C1187 1.503 1_556 S
C1195 C1194 1.370 . S
C1195 C1196 1.403 . S
C1196 C1195 1.403 . S
C1196 C1197 1.404 . S
C1196 C1199 1.539 . S
C1197 C1193 1.408 . S
C1197 C1196 1.404 . S
C1197 H1209 0.930 . S
C1198 C1194 1.523 . S
C1198 H1210 0.954 . S
C1198 H1211 0.964 1_556 S
C1198 H1212 0.960 . S
C1199 C1196 1.539 . S
C1199 H1213 0.958 . S
C1199 H1214 0.961 . S
C1199 H1215 0.948 1_556 S
H1200 C1184 0.931 . S
H1201 C1189 0.929 . S
H1202 C1190 0.960 . S
H1203 C1190 0.962 . S
H1204 C1190 0.960 . S
H1205 C1191 0.961 . S
H1206 C1191 0.961 . S
H1207 C1191 0.961 . S
H1208 C1192 0.931 . S
H1209 C1197 0.930 . S
H1210 C1198 0.954 . S
H1211 C1198 0.964 1_554 S
H1212 C1198 0.960 . S
H1213 C1199 0.958 . S
H1214 C1199 0.961 . S
H1215 C1199 0.948 1_554 S
C1216 C1217 1.391 . S
C1216 C1218 1.394 . S
C1216 H1232 0.931 . S
C1217 C1216 1.391 . S
C1217 C1221 1.376 . S
C1218 C1216 1.394 . S
C1218 C1219 1.369 . S
C1218 C1222 1.531 . S
C1219 C1218 1.369 . S
C1219 C1220 1.410 . S
C1219 C1227 1.503 1_455 S
C1220 C1219 1.410 . S
C1220 C1221 1.392 . S
C1220 C1223 1.511 1_455 S
C1221 C1217 1.376 . S
C1221 C1220 1.392 . S
C1221 H1233 0.929 . S
C1222 C1218 1.531 . S
C1222 H1234 0.960 . S
C1222 H1235 0.962 . S
C1222 H1236 0.960 . S
C1223 C1220 1.511 1_655 S
C1223 H1237 0.961 . S
C1223 H1238 0.961 . S
C1223 H1239 0.961 . S
C1224 C1225 1.370 . S
C1224 C1226 1.363 . S
C1224 H1240 0.931 . S
C1225 C1224 1.370 . S
C1225 C1229 1.408 . S
C1226 C1224 1.363 . S
C1226 C1227 1.370 . S
C1226 C1230 1.524 . S
C1227 C1219 1.503 1_655 S
C1227 C1226 1.370 . S
C1227 C1228 1.403 . S
C1228 C1227 1.403 . S
C1228 C1229 1.404 . S
C1228 C1231 1.539 1_655 S
C1229 C1225 1.408 . S
C1229 C1228 1.404 . S
C1229 H1241 0.930 . S
C1230 C1226 1.524 . S
C1230 H1242 0.956 . S
C1230 H1243 0.961 . S
C1230 H1244 0.961 . S
C1231 C1228 1.539 1_455 S
C1231 H1245 0.958 . S
C1231 H1246 0.961 . S
C1231 H1247 0.960 . S
H1232 C1216 0.931 . S
H1233 C1221 0.929 . S
H1234 C1222 0.960 . S
H1235 C1222 0.962 . S
H1236 C1222 0.960 . S
H1237 C1223 0.961 . S
H1238 C1223 0.961 . S
H1239 C1223 0.961 . S
H1240 C1224 0.931 . S
H1241 C1229 0.930 . S
H1242 C1230 0.956 . S
H1243 C1230 0.961 . S
H1244 C1230 0.961 . S
H1245 C1231 0.958 . S
H1246 C1231 0.961 . S
H1247 C1231 0.960 . S
C1248 C1249 1.391 . S
C1248 C1250 1.394 . S
C1248 H1264 0.931 . S
C1249 C1248 1.391 . S
C1249 C1253 1.376 . S
C1250 C1248 1.394 . S
C1250 C1251 1.369 . S
C1250 C1254 1.531 . S
C1251 C1250 1.369 . S
C1251 C1252 1.410 . S
C1251 C1259 1.503 . S
C1252 C1251 1.410 . S
C1252 C1253 1.392 . S
C1252 C1255 1.511 . S
C1253 C1249 1.376 . S
C1253 C1252 1.392 . S
C1253 H1265 0.929 . S
C1254 C1250 1.531 . S
C1254 H1266 0.960 . S
C1254 H1267 0.962 . S
C1254 H1268 0.960 . S
C1255 C1252 1.511 . S
C1255 H1269 0.961 . S
C1255 H1270 0.961 . S
C1255 H1271 0.961 . S
C1256 C1257 1.370 . S
C1256 C1258 1.363 . S
C1256 H1272 0.931 . S
C1257 C1256 1.370 . S
C1257 C1261 1.408 . S
C1258 C1256 1.363 . S
C1258 C1259 1.370 . S
C1258 C1262 1.524 . S
C1259 C1251 1.503 . S
C1259 C1258 1.370 . S
C1259 C1260 1.403 . S
C1260 C1259 1.403 . S
C1260 C1261 1.404 . S
C1260 C1263 1.539 . S
C1261 C1257 1.408 . S
C1261 C1260 1.404 . S
C1261 H1273 0.930 . S
C1262 C1258 1.524 . S
C1262 H1274 0.956 . S
C1262 H1275 0.961 . S
C1262 H1276 0.961 . S
C1263 C1260 1.539 . S
C1263 H1277 0.958 . S
C1263 H1278 0.961 . S
C1263 H1279 0.960 . S
H1264 C1248 0.931 . S
H1265 C1253 0.929 . S
H1266 C1254 0.960 . S
H1267 C1254 0.962 . S
H1268 C1254 0.960 . S
H1269 C1255 0.961 . S
H1270 C1255 0.961 . S
H1271 C1255 0.961 . S
H1272 C1256 0.931 . S
H1273 C1261 0.930 . S
H1274 C1262 0.956 . S
H1275 C1262 0.961 . S
H1276 C1262 0.961 . S
H1277 C1263 0.958 . S
H1278 C1263 0.961 . S
H1279 C1263 0.960 . S
C1280 C1281 1.391 . S
C1280 C1282 1.394 . S
C1280 H1296 0.931 . S
C1281 C1280 1.391 . S
C1281 C1285 1.376 . S
C1282 C1280 1.394 . S
C1282 C1283 1.369 . S
C1282 C1286 1.531 . S
C1283 C1282 1.369 . S
C1283 C1284 1.410 . S
C1283 C1291 1.503 . S
C1284 C1283 1.410 . S
C1284 C1285 1.392 . S
C1284 C1287 1.511 . S
C1285 C1281 1.376 . S
C1285 C1284 1.392 . S
C1285 H1297 0.929 . S
C1286 C1282 1.531 . S
C1286 H1298 0.960 . S
C1286 H1299 0.962 . S
C1286 H1300 0.960 . S
C1287 C1284 1.511 . S
C1287 H1301 0.961 . S
C1287 H1302 0.961 . S
C1287 H1303 0.961 . S
C1288 C1289 1.370 . S
C1288 C1290 1.363 . S
C1288 H1304 0.931 . S
C1289 C1288 1.370 . S
C1289 C1293 1.408 . S
C1290 C1288 1.363 . S
C1290 C1291 1.370 . S
C1290 C1294 1.524 . S
C1291 C1283 1.503 . S
C1291 C1290 1.370 . S
C1291 C1292 1.403 . S
C1292 C1291 1.403 . S
C1292 C1293 1.404 . S
C1292 C1295 1.539 . S
C1293 C1289 1.408 . S
C1293 C1292 1.404 . S
C1293 H1305 0.930 . S
C1294 C1290 1.524 . S
C1294 H1306 0.956 . S
C1294 H1307 0.961 . S
C1294 H1308 0.961 . S
C1295 C1292 1.539 . S
C1295 H1309 0.958 . S
C1295 H1310 0.961 . S
C1295 H1311 0.960 . S
H1296 C1280 0.931 . S
H1297 C1285 0.929 . S
H1298 C1286 0.960 . S
H1299 C1286 0.962 . S
H1300 C1286 0.960 . S
H1301 C1287 0.961 . S
H1302 C1287 0.961 . S
H1303 C1287 0.961 . S
H1304 C1288 0.931 . S
H1305 C1293 0.930 . S
H1306 C1294 0.956 . S
H1307 C1294 0.961 . S
H1308 C1294 0.961 . S
H1309 C1295 0.958 . S
H1310 C1295 0.961 . S
H1311 C1295 0.960 . S
C1312 C1313 1.391 . S
C1312 C1314 1.394 . S
C1312 H1328 0.931 . S
C1313 C1312 1.391 . S
C1313 C1317 1.376 . S
C1314 C1312 1.394 . S
C1314 C1315 1.369 . S
C1314 C1318 1.531 . S
C1315 C1314 1.369 . S
C1315 C1316 1.410 . S
C1315 C1323 1.503 . S
C1316 C1315 1.410 . S
C1316 C1317 1.392 . S
C1316 C1319 1.511 . S
C1317 C1313 1.376 . S
C1317 C1316 1.392 . S
C1317 H1329 0.929 . S
C1318 C1314 1.531 . S
C1318 H1330 0.960 . S
C1318 H1331 0.962 . S
C1318 H1332 0.960 . S
C1319 C1316 1.511 . S
C1319 H1333 0.961 . S
C1319 H1334 0.961 . S
C1319 H1335 0.961 . S
C1320 C1321 1.370 . S
C1320 C1322 1.363 . S
C1320 H1336 0.931 . S
C1321 C1320 1.370 . S
C1321 C1325 1.408 . S
C1322 C1320 1.363 . S
C1322 C1323 1.370 . S
C1322 C1326 1.524 . S
C1323 C1315 1.503 . S
C1323 C1322 1.370 . S
C1323 C1324 1.403 . S
C1324 C1323 1.403 . S
C1324 C1325 1.404 . S
C1324 C1327 1.539 . S
C1325 C1321 1.408 . S
C1325 C1324 1.404 . S
C1325 H1337 0.930 . S
C1326 C1322 1.524 . S
C1326 H1338 0.956 . S
C1326 H1339 0.961 . S
C1326 H1340 0.961 . S
C1327 C1324 1.539 . S
C1327 H1341 0.958 . S
C1327 H1342 0.961 . S
C1327 H1343 0.960 . S
H1328 C1312 0.931 . S
H1329 C1317 0.929 . S
H1330 C1318 0.960 . S
H1331 C1318 0.962 . S
H1332 C1318 0.960 . S
H1333 C1319 0.961 . S
H1334 C1319 0.961 . S
H1335 C1319 0.961 . S
H1336 C1320 0.931 . S
H1337 C1325 0.930 . S
H1338 C1326 0.956 . S
H1339 C1326 0.961 . S
H1340 C1326 0.961 . S
H1341 C1327 0.958 . S
H1342 C1327 0.961 . S
H1343 C1327 0.960 . S
C1344 C1345 1.391 . S
C1344 C1346 1.394 . S
C1344 H1360 0.931 . S
C1345 C1344 1.391 . S
C1345 C1349 1.376 . S
C1346 C1344 1.394 . S
C1346 C1347 1.369 . S
C1346 C1350 1.531 . S
C1347 C1346 1.369 . S
C1347 C1348 1.410 . S
C1347 C1355 1.503 . S
C1348 C1347 1.410 . S
C1348 C1349 1.392 . S
C1348 C1351 1.511 . S
C1349 C1345 1.376 . S
C1349 C1348 1.392 . S
C1349 H1361 0.929 . S
C1350 C1346 1.531 . S
C1350 H1362 0.960 . S
C1350 H1363 0.962 . S
C1350 H1364 0.960 . S
C1351 C1348 1.511 . S
C1351 H1365 0.961 . S
C1351 H1366 0.961 . S
C1351 H1367 0.961 . S
C1352 C1353 1.370 . S
C1352 C1354 1.363 . S
C1352 H1368 0.931 . S
C1353 C1352 1.370 . S
C1353 C1357 1.408 . S
C1354 C1352 1.363 . S
C1354 C1355 1.370 . S
C1354 C1358 1.524 . S
C1355 C1347 1.503 . S
C1355 C1354 1.370 . S
C1355 C1356 1.403 . S
C1356 C1355 1.403 . S
C1356 C1357 1.404 . S
C1356 C1359 1.539 . S
C1357 C1353 1.408 . S
C1357 C1356 1.404 . S
C1357 H1369 0.930 . S
C1358 C1354 1.524 . S
C1358 H1370 0.956 . S
C1358 H1371 0.961 . S
C1358 H1372 0.961 . S
C1359 C1356 1.539 . S
C1359 H1373 0.958 . S
C1359 H1374 0.961 . S
C1359 H1375 0.960 . S
H1360 C1344 0.931 . S
H1361 C1349 0.929 . S
H1362 C1350 0.960 . S
H1363 C1350 0.962 . S
H1364 C1350 0.960 . S
H1365 C1351 0.961 . S
H1366 C1351 0.961 . S
H1367 C1351 0.961 . S
H1368 C1352 0.931 . S
H1369 C1357 0.930 . S
H1370 C1358 0.956 . S
H1371 C1358 0.961 . S
H1372 C1358 0.961 . S
H1373 C1359 0.958 . S
H1374 C1359 0.961 . S
H1375 C1359 0.960 . S
C1376 C1377 1.391 . S
C1376 C1378 1.394 . S
C1376 H1392 0.931 . S
C1377 C1376 1.391 . S
C1377 C1381 1.376 . S
C1378 C1376 1.394 . S
C1378 C1379 1.369 . S
C1378 C1382 1.531 . S
C1379 C1378 1.369 . S
C1379 C1380 1.410 . S
C1379 C1387 1.503 . S
C1380 C1379 1.410 . S
C1380 C1381 1.392 . S
C1380 C1383 1.511 . S
C1381 C1377 1.376 . S
C1381 C1380 1.392 . S
C1381 H1393 0.929 . S
C1382 C1378 1.531 . S
C1382 H1394 0.960 . S
C1382 H1395 0.962 . S
C1382 H1396 0.960 . S
C1383 C1380 1.511 . S
C1383 H1397 0.961 . S
C1383 H1398 0.961 . S
C1383 H1399 0.961 . S
C1384 C1385 1.370 . S
C1384 C1386 1.363 . S
C1384 H1400 0.931 . S
C1385 C1384 1.370 . S
C1385 C1389 1.408 . S
C1386 C1384 1.363 . S
C1386 C1387 1.370 . S
C1386 C1390 1.524 . S
C1387 C1379 1.503 . S
C1387 C1386 1.370 . S
C1387 C1388 1.403 . S
C1388 C1387 1.403 . S
C1388 C1389 1.404 . S
C1388 C1391 1.539 . S
C1389 C1385 1.408 . S
C1389 C1388 1.404 . S
C1389 H1401 0.930 . S
C1390 C1386 1.524 . S
C1390 H1402 0.956 . S
C1390 H1403 0.961 . S
C1390 H1404 0.961 . S
C1391 C1388 1.539 . S
C1391 H1405 0.958 . S
C1391 H1406 0.961 . S
C1391 H1407 0.960 . S
H1392 C1376 0.931 . S
H1393 C1381 0.929 . S
H1394 C1382 0.960 . S
H1395 C1382 0.962 . S
H1396 C1382 0.960 . S
H1397 C1383 0.961 . S
H1398 C1383 0.961 . S
H1399 C1383 0.961 . S
H1400 C1384 0.931 . S
H1401 C1389 0.930 . S
H1402 C1390 0.956 . S
H1403 C1390 0.961 . S
H1404 C1390 0.961 . S
H1405 C1391 0.958 . S
H1406 C1391 0.961 . S
H1407 C1391 0.960 . S
C1408 C1409 1.391 . S
C1408 C1410 1.394 . S
C1408 H1424 0.931 . S
C1409 C1408 1.391 . S
C1409 C1413 1.376 . S
C1410 C1408 1.394 . S
C1410 C1411 1.369 . S
C1410 C1414 1.531 . S
C1411 C1410 1.369 . S
C1411 C1412 1.410 . S
C1411 C1419 1.503 . S
C1412 C1411 1.410 . S
C1412 C1413 1.392 . S
C1412 C1415 1.511 . S
C1413 C1409 1.376 . S
C1413 C1412 1.392 . S
C1413 H1425 0.929 . S
C1414 C1410 1.531 . S
C1414 H1426 0.960 . S
C1414 H1427 0.962 . S
C1414 H1428 0.960 . S
C1415 C1412 1.511 . S
C1415 H1429 0.961 . S
C1415 H1430 0.961 . S
C1415 H1431 0.961 . S
C1416 C1417 1.370 . S
C1416 C1418 1.363 . S
C1416 H1432 0.931 . S
C1417 C1416 1.370 . S
C1417 C1421 1.408 . S
C1418 C1416 1.363 . S
C1418 C1419 1.370 . S
C1418 C1422 1.524 . S
C1419 C1411 1.503 . S
C1419 C1418 1.370 . S
C1419 C1420 1.403 . S
C1420 C1419 1.403 . S
C1420 C1421 1.404 . S
C1420 C1423 1.539 . S
C1421 C1417 1.408 . S
C1421 C1420 1.404 . S
C1421 H1433 0.930 . S
C1422 C1418 1.524 . S
C1422 H1434 0.956 . S
C1422 H1435 0.961 . S
C1422 H1436 0.961 . S
C1423 C1420 1.539 . S
C1423 H1437 0.958 . S
C1423 H1438 0.961 . S
C1423 H1439 0.960 . S
H1424 C1408 0.931 . S
H1425 C1413 0.929 . S
H1426 C1414 0.960 . S
H1427 C1414 0.962 . S
H1428 C1414 0.960 . S
H1429 C1415 0.961 . S
H1430 C1415 0.961 . S
H1431 C1415 0.961 . S
H1432 C1416 0.931 . S
H1433 C1421 0.930 . S
H1434 C1422 0.956 . S
H1435 C1422 0.961 . S
H1436 C1422 0.961 . S
H1437 C1423 0.958 . S
H1438 C1423 0.961 . S
H1439 C1423 0.960 . S
C1440 C1441 1.391 . S
C1440 C1442 1.394 . S
C1440 H1456 0.931 . S
C1441 C1440 1.391 . S
C1441 C1445 1.376 . S
C1442 C1440 1.394 . S
C1442 C1443 1.369 . S
C1442 C1446 1.531 . S
C1443 C1442 1.369 . S
C1443 C1444 1.410 . S
C1443 C1451 1.503 . S
C1444 C1443 1.410 . S
C1444 C1445 1.392 . S
C1444 C1447 1.511 . S
C1445 C1441 1.376 . S
C1445 C1444 1.392 . S
C1445 H1457 0.929 . S
C1446 C1442 1.531 . S
C1446 H1458 0.960 . S
C1446 H1459 0.962 . S
C1446 H1460 0.960 . S
C1447 C1444 1.511 . S
C1447 H1461 0.961 . S
C1447 H1462 0.961 . S
C1447 H1463 0.961 . S
C1448 C1449 1.370 . S
C1448 C1450 1.363 . S
C1448 H1464 0.931 . S
C1449 C1448 1.370 . S
C1449 C1453 1.408 . S
C1450 C1448 1.363 . S
C1450 C1451 1.370 . S
C1450 C1454 1.524 . S
C1451 C1443 1.503 . S
C1451 C1450 1.370 . S
C1451 C1452 1.403 . S
C1452 C1451 1.403 . S
C1452 C1453 1.404 . S
C1452 C1455 1.539 . S
C1453 C1449 1.408 . S
C1453 C1452 1.404 . S
C1453 H1465 0.930 . S
C1454 C1450 1.524 . S
C1454 H1466 0.956 . S
C1454 H1467 0.961 . S
C1454 H1468 0.961 . S
C1455 C1452 1.539 . S
C1455 H1469 0.958 . S
C1455 H1470 0.961 . S
C1455 H1471 0.960 . S
H1456 C1440 0.931 . S
H1457 C1445 0.929 . S
H1458 C1446 0.960 . S
H1459 C1446 0.962 . S
H1460 C1446 0.960 . S
H1461 C1447 0.961 . S
H1462 C1447 0.961 . S
H1463 C1447 0.961 . S
H1464 C1448 0.931 . S
H1465 C1453 0.930 . S
H1466 C1454 0.956 . S
H1467 C1454 0.961 . S
H1468 C1454 0.961 . S
H1469 C1455 0.958 . S
H1470 C1455 0.961 . S
H1471 C1455 0.960 . S
C1472 C1473 1.391 . S
C1472 C1474 1.394 . S
C1472 H1488 0.931 . S
C1473 C1472 1.391 . S
C1473 C1477 1.376 . S
C1474 C1472 1.394 . S
C1474 C1475 1.369 . S
C1474 C1478 1.531 . S
C1475 C1474 1.369 . S
C1475 C1476 1.410 . S
C1475 C1483 1.503 . S
C1476 C1475 1.410 . S
C1476 C1477 1.392 . S
C1476 C1479 1.511 . S
C1477 C1473 1.376 . S
C1477 C1476 1.392 . S
C1477 H1489 0.929 . S
C1478 C1474 1.531 . S
C1478 H1490 0.960 . S
C1478 H1491 0.962 . S
C1478 H1492 0.960 . S
C1479 C1476 1.511 . S
C1479 H1493 0.961 . S
C1479 H1494 0.961 . S
C1479 H1495 0.961 . S
C1480 C1481 1.370 . S
C1480 C1482 1.363 . S
C1480 H1496 0.931 . S
C1481 C1480 1.370 . S
C1481 C1485 1.408 . S
C1482 C1480 1.363 . S
C1482 C1483 1.370 . S
C1482 C1486 1.524 . S
C1483 C1475 1.503 . S
C1483 C1482 1.370 . S
C1483 C1484 1.403 . S
C1484 C1483 1.403 . S
C1484 C1485 1.404 . S
C1484 C1487 1.539 . S
C1485 C1481 1.408 . S
C1485 C1484 1.404 . S
C1485 H1497 0.930 . S
C1486 C1482 1.524 . S
C1486 H1498 0.956 . S
C1486 H1499 0.961 . S
C1486 H1500 0.961 . S
C1487 C1484 1.539 . S
C1487 H1501 0.958 . S
C1487 H1502 0.961 . S
C1487 H1503 0.960 . S
H1488 C1472 0.931 . S
H1489 C1477 0.929 . S
H1490 C1478 0.960 . S
H1491 C1478 0.962 . S
H1492 C1478 0.960 . S
H1493 C1479 0.961 . S
H1494 C1479 0.961 . S
H1495 C1479 0.961 . S
H1496 C1480 0.931 . S
H1497 C1485 0.930 . S
H1498 C1486 0.956 . S
H1499 C1486 0.961 . S
H1500 C1486 0.961 . S
H1501 C1487 0.958 . S
H1502 C1487 0.961 . S
H1503 C1487 0.960 . S
C1504 C1505 1.391 . S
C1504 C1506 1.394 . S
C1504 H1520 0.931 . S
C1505 C1504 1.391 . S
C1505 C1509 1.376 . S
C1506 C1504 1.394 . S
C1506 C1507 1.369 . S
C1506 C1510 1.531 . S
C1507 C1506 1.369 . S
C1507 C1508 1.410 . S
C1507 C1515 1.503 . S
C1508 C1507 1.410 . S
C1508 C1509 1.392 . S
C1508 C1511 1.511 . S
C1509 C1505 1.376 . S
C1509 C1508 1.392 . S
C1509 H1521 0.929 . S
C1510 C1506 1.531 . S
C1510 H1522 0.960 . S
C1510 H1523 0.962 . S
C1510 H1524 0.960 . S
C1511 C1508 1.511 . S
C1511 H1525 0.961 . S
C1511 H1526 0.961 . S
C1511 H1527 0.961 . S
C1512 C1513 1.370 . S
C1512 C1514 1.363 . S
C1512 H1528 0.931 . S
C1513 C1512 1.370 . S
C1513 C1517 1.408 . S
C1514 C1512 1.363 . S
C1514 C1515 1.370 . S
C1514 C1518 1.524 . S
C1515 C1507 1.503 . S
C1515 C1514 1.370 . S
C1515 C1516 1.403 . S
C1516 C1515 1.403 . S
C1516 C1517 1.404 . S
C1516 C1519 1.539 . S
C1517 C1513 1.408 . S
C1517 C1516 1.404 . S
C1517 H1529 0.930 . S
C1518 C1514 1.524 . S
C1518 H1530 0.956 . S
C1518 H1531 0.961 . S
C1518 H1532 0.961 . S
C1519 C1516 1.539 . S
C1519 H1533 0.958 . S
C1519 H1534 0.961 . S
C1519 H1535 0.960 . S
H1520 C1504 0.931 . S
H1521 C1509 0.929 . S
H1522 C1510 0.960 . S
H1523 C1510 0.962 . S
H1524 C1510 0.960 . S
H1525 C1511 0.961 . S
H1526 C1511 0.961 . S
H1527 C1511 0.961 . S
H1528 C1512 0.931 . S
H1529 C1517 0.930 . S
H1530 C1518 0.956 . S
H1531 C1518 0.961 . S
H1532 C1518 0.961 . S
H1533 C1519 0.958 . S
H1534 C1519 0.961 . S
H1535 C1519 0.960 . S
C1536 C1537 1.391 . S
C1536 C1538 1.394 . S
C1536 H1552 0.931 . S
C1537 C1536 1.391 . S
C1537 C1541 1.376 . S
C1538 C1536 1.394 . S
C1538 C1539 1.369 . S
C1538 C1542 1.531 . S
C1539 C1538 1.369 . S
C1539 C1540 1.410 . S
C1539 C1547 1.503 . S
C1540 C1539 1.410 . S
C1540 C1541 1.392 . S
C1540 C1543 1.511 . S
C1541 C1537 1.376 . S
C1541 C1540 1.392 . S
C1541 H1553 0.929 . S
C1542 C1538 1.531 . S
C1542 H1554 0.960 . S
C1542 H1555 0.962 . S
C1542 H1556 0.960 . S
C1543 C1540 1.511 . S
C1543 H1557 0.961 . S
C1543 H1558 0.961 . S
C1543 H1559 0.961 . S
C1544 C1545 1.370 . S
C1544 C1546 1.363 . S
C1544 H1560 0.931 . S
C1545 C1544 1.370 . S
C1545 C1549 1.408 . S
C1546 C1544 1.363 . S
C1546 C1547 1.370 . S
C1546 C1550 1.524 . S
C1547 C1539 1.503 . S
C1547 C1546 1.370 . S
C1547 C1548 1.403 . S
C1548 C1547 1.403 . S
C1548 C1549 1.404 . S
C1548 C1551 1.539 . S
C1549 C1545 1.408 . S
C1549 C1548 1.404 . S
C1549 H1561 0.930 . S
C1550 C1546 1.524 . S
C1550 H1562 0.956 . S
C1550 H1563 0.961 . S
C1550 H1564 0.961 . S
C1551 C1548 1.539 . S
C1551 H1565 0.958 . S
C1551 H1566 0.961 . S
C1551 H1567 0.960 . S
H1552 C1536 0.931 . S
H1553 C1541 0.929 . S
H1554 C1542 0.960 . S
H1555 C1542 0.962 . S
H1556 C1542 0.960 . S
H1557 C1543 0.961 . S
H1558 C1543 0.961 . S
H1559 C1543 0.961 . S
H1560 C1544 0.931 . S
H1561 C1549 0.930 . S
H1562 C1550 0.956 . S
H1563 C1550 0.961 . S
H1564 C1550 0.961 . S
H1565 C1551 0.958 . S
H1566 C1551 0.961 . S
H1567 C1551 0.960 . S
C1568 C1569 1.391 . S
C1568 C1570 1.394 . S
C1568 H1584 0.931 . S
C1569 C1568 1.391 . S
C1569 C1573 1.376 . S
C1570 C1568 1.394 . S
C1570 C1571 1.369 . S
C1570 C1574 1.531 . S
C1571 C1570 1.369 . S
C1571 C1572 1.410 . S
C1571 C1579 1.503 . S
C1572 C1571 1.410 . S
C1572 C1573 1.392 . S
C1572 C1575 1.511 . S
C1573 C1569 1.376 . S
C1573 C1572 1.392 . S
C1573 H1585 0.929 . S
C1574 C1570 1.531 . S
C1574 H1586 0.960 . S
C1574 H1587 0.962 . S
C1574 H1588 0.960 . S
C1575 C1572 1.511 . S
C1575 H1589 0.961 . S
C1575 H1590 0.961 . S
C1575 H1591 0.961 . S
C1576 C1577 1.370 . S
C1576 C1578 1.363 . S
C1576 H1592 0.931 . S
C1577 C1576 1.370 . S
C1577 C1581 1.408 . S
C1578 C1576 1.363 . S
C1578 C1579 1.370 . S
C1578 C1582 1.524 . S
C1579 C1571 1.503 . S
C1579 C1578 1.370 . S
C1579 C1580 1.403 . S
C1580 C1579 1.403 . S
C1580 C1581 1.404 . S
C1580 C1583 1.539 . S
C1581 C1577 1.408 . S
C1581 C1580 1.404 . S
C1581 H1593 0.930 . S
C1582 C1578 1.524 . S
C1582 H1594 0.956 . S
C1582 H1595 0.961 . S
C1582 H1596 0.961 . S
C1583 C1580 1.539 . S
C1583 H1597 0.958 . S
C1583 H1598 0.961 . S
C1583 H1599 0.960 . S
H1584 C1568 0.931 . S
H1585 C1573 0.929 . S
H1586 C1574 0.960 . S
H1587 C1574 0.962 . S
H1588 C1574 0.960 . S
H1589 C1575 0.961 . S
H1590 C1575 0.961 . S
H1591 C1575 0.961 . S
H1592 C1576 0.931 . S
H1593 C1581 0.930 . S
H1594 C1582 0.956 . S
H1595 C1582 0.961 . S
H1596 C1582 0.961 . S
H1597 C1583 0.958 . S
H1598 C1583 0.961 . S
H1599 C1583 0.960 . S
C1600 C1601 1.391 . S
C1600 C1602 1.394 . S
C1600 H1616 0.931 . S
C1601 C1600 1.391 . S
C1601 C1605 1.376 . S
C1602 C1600 1.394 . S
C1602 C1603 1.369 . S
C1602 C1606 1.531 . S
C1603 C1602 1.369 . S
C1603 C1604 1.410 . S
C1603 C1611 1.503 . S
C1604 C1603 1.410 . S
C1604 C1605 1.392 . S
C1604 C1607 1.511 . S
C1605 C1601 1.376 . S
C1605 C1604 1.392 . S
C1605 H1617 0.929 . S
C1606 C1602 1.531 . S
C1606 H1618 0.960 . S
C1606 H1619 0.962 . S
C1606 H1620 0.960 . S
C1607 C1604 1.511 . S
C1607 H1621 0.961 . S
C1607 H1622 0.961 . S
C1607 H1623 0.961 . S
C1608 C1609 1.370 . S
C1608 C1610 1.363 . S
C1608 H1624 0.931 . S
C1609 C1608 1.370 . S
C1609 C1613 1.408 . S
C1610 C1608 1.363 . S
C1610 C1611 1.370 . S
C1610 C1614 1.524 . S
C1611 C1603 1.503 . S
C1611 C1610 1.370 . S
C1611 C1612 1.403 . S
C1612 C1611 1.403 . S
C1612 C1613 1.404 . S
C1612 C1615 1.539 . S
C1613 C1609 1.408 . S
C1613 C1612 1.404 . S
C1613 H1625 0.930 . S
C1614 C1610 1.524 . S
C1614 H1626 0.956 . S
C1614 H1627 0.961 . S
C1614 H1628 0.961 . S
C1615 C1612 1.539 . S
C1615 H1629 0.958 . S
C1615 H1630 0.961 . S
C1615 H1631 0.960 . S
H1616 C1600 0.931 . S
H1617 C1605 0.929 . S
H1618 C1606 0.960 . S
H1619 C1606 0.962 . S
H1620 C1606 0.960 . S
H1621 C1607 0.961 . S
H1622 C1607 0.961 . S
H1623 C1607 0.961 . S
H1624 C1608 0.931 . S
H1625 C1613 0.930 . S
H1626 C1614 0.956 . S
H1627 C1614 0.961 . S
H1628 C1614 0.961 . S
H1629 C1615 0.958 . S
H1630 C1615 0.961 . S
H1631 C1615 0.960 . S
C481 C106 1.276 . S
C489 C3 1.260 . S
C513 C129 1.275 . S
C521 C62 1.257 . S
C545 C83 1.280 . S
C553 C186 1.276 . S
C577 C142 1.260 . S
C585 C209 1.278 . S
C609 C26 1.272 . S
C617 C163 1.256 . S
C641 C49 1.268 . S
C649 C222 1.259 . S
C673 C409 1.269 . S
C681 C262 1.258 . S
C705 C283 1.273 . S
C713 C466 1.274 . S
C737 C342 1.257 . S
C745 C249 1.273 . S
C769 C363 1.247 . S
C777 C306 1.276 . S
C801 C422 1.241 . S
C809 C329 1.276 . S
C833 C386 1.269 . S
C841 C443 1.270 . S
C865 C122 1.729 . S
C873 C15 1.750 . S
C897 C42 1.753 . S
C905 C175 1.756 . S
C929 C95 1.725 . S
C937 C202 1.747 . S
C961 C242 1.738 . S
C969 C375 1.754 . S
C993 C295 1.748 . S
C1001 C402 1.754 . S
C1025 C322 1.769 . S
C1033 C455 1.763 . S
C1057 C282 2.299 . S
C1065 C2 2.318 . S
C1089 C55 2.312 . S
C1097 C335 2.313 . S
C1121 C362 2.301 . S
C1129 C82 2.316 . S
C1153 C135 2.298 . S
C1161 C415 2.318 . S
C1185 C162 2.310 . S
C1193 C442 2.314 . S
C1217 C255 2.316 . S
C1225 C215 2.311 . S
C1249 C89 1.705 . S
C1257 C22 1.722 . S
C1281 C43 1.720 . S
C1289 C146 1.682 . S
C1313 C102 1.732 . S
C1321 C169 1.675 . S
C1345 C123 1.717 . S
C1353 C226 1.693 . S
C1377 C9 1.685 . S
C1385 C182 1.725 . S
C1409 C66 1.680 . S
C1417 C203 1.728 . S
C1441 C426 1.658 . S
C1449 C243 1.729 . S
C1473 C302 1.731 . S
C1481 C449 1.675 . S
C1505 C323 1.713 . S
C1513 C266 1.690 . S
C1537 C289 1.685 . S
C1545 C382 1.725 . S
C1569 C403 1.721 . S
C1577 C346 1.690 . S
C1601 C462 1.725 . S
C1609 C369 1.683 . S
