# Generated by pormake.
# Topology smd, (6)-cn, num edge types: 1
# Building blocks:
#     Node 0, Type 0, BuildingBlock: MIDCAF_clean_sbu_0, # of connection points: 6
#     Node 1, Type 0, BuildingBlock: MIDCAF_clean_sbu_0, # of connection points: 6
#     Node 2, Type 0, BuildingBlock: MIDCAF_clean_sbu_0, # of connection points: 6
#     Node 3, Type 0, BuildingBlock: MIDCAF_clean_sbu_0, # of connection points: 6
#     Node 4, Type 0, BuildingBlock: MIDCAF_clean_sbu_0, # of connection points: 6
#     Node 5, Type 0, BuildingBlock: MIDCAF_clean_sbu_0, # of connection points: 6
#     Node 6, Type 0, BuildingBlock: MIDCAF_clean_sbu_0, # of connection points: 6
#     Node 7, Type 0, BuildingBlock: MIDCAF_clean_sbu_0, # of connection points: 6
#     Node 8, Type 0, BuildingBlock: MIDCAF_clean_sbu_0, # of connection points: 6
#     Node 9, Type 0, BuildingBlock: MIDCAF_clean_sbu_0, # of connection points: 6
#     Node 10, Type 0, BuildingBlock: MIDCAF_clean_sbu_0, # of connection points: 6
#     Node 11, Type 0, BuildingBlock: MIDCAF_clean_sbu_0, # of connection points: 6
#     Node 12, Type 0, BuildingBlock: MIDCAF_clean_sbu_0, # of connection points: 6
#     Node 13, Type 0, BuildingBlock: MIDCAF_clean_sbu_0, # of connection points: 6
#     Node 14, Type 0, BuildingBlock: MIDCAF_clean_sbu_0, # of connection points: 6
#     Node 15, Type 0, BuildingBlock: MIDCAF_clean_sbu_0, # of connection points: 6
#     Node 16, Type 0, BuildingBlock: MIDCAF_clean_sbu_0, # of connection points: 6
#     Node 17, Type 0, BuildingBlock: MIDCAF_clean_sbu_0, # of connection points: 6
#     Edge 18, Type (0, 0), BuildingBlock: XIVTED_clean_linker_0, # of connection points: 2
#     Edge 19, Type (0, 0), BuildingBlock: XIVTED_clean_linker_0, # of connection points: 2
#     Edge 20, Type (0, 0), BuildingBlock: XIVTED_clean_linker_0, # of connection points: 2
#     Edge 21, Type (0, 0), BuildingBlock: XIVTED_clean_linker_0, # of connection points: 2
#     Edge 22, Type (0, 0), BuildingBlock: XIVTED_clean_linker_0, # of connection points: 2
#     Edge 23, Type (0, 0), BuildingBlock: XIVTED_clean_linker_0, # of connection points: 2
#     Edge 24, Type (0, 0), BuildingBlock: XIVTED_clean_linker_0, # of connection points: 2
#     Edge 25, Type (0, 0), BuildingBlock: XIVTED_clean_linker_0, # of connection points: 2
#     Edge 26, Type (0, 0), BuildingBlock: XIVTED_clean_linker_0, # of connection points: 2
#     Edge 27, Type (0, 0), BuildingBlock: XIVTED_clean_linker_0, # of connection points: 2
#     Edge 28, Type (0, 0), BuildingBlock: XIVTED_clean_linker_0, # of connection points: 2
#     Edge 29, Type (0, 0), BuildingBlock: XIVTED_clean_linker_0, # of connection points: 2
#     Edge 30, Type (0, 0), BuildingBlock: XIVTED_clean_linker_0, # of connection points: 2
#     Edge 31, Type (0, 0), BuildingBlock: XIVTED_clean_linker_0, # of connection points: 2
#     Edge 32, Type (0, 0), BuildingBlock: XIVTED_clean_linker_0, # of connection points: 2
#     Edge 33, Type (0, 0), BuildingBlock: XIVTED_clean_linker_0, # of connection points: 2
#     Edge 34, Type (0, 0), BuildingBlock: XIVTED_clean_linker_0, # of connection points: 2
#     Edge 35, Type (0, 0), BuildingBlock: XIVTED_clean_linker_0, # of connection points: 2
#     Edge 36, Type (0, 0), BuildingBlock: XIVTED_clean_linker_0, # of connection points: 2
#     Edge 37, Type (0, 0), BuildingBlock: XIVTED_clean_linker_0, # of connection points: 2
#     Edge 38, Type (0, 0), BuildingBlock: XIVTED_clean_linker_0, # of connection points: 2
#     Edge 39, Type (0, 0), BuildingBlock: XIVTED_clean_linker_0, # of connection points: 2
#     Edge 40, Type (0, 0), BuildingBlock: XIVTED_clean_linker_0, # of connection points: 2
#     Edge 41, Type (0, 0), BuildingBlock: XIVTED_clean_linker_0, # of connection points: 2
#     Edge 42, Type (0, 0), BuildingBlock: XIVTED_clean_linker_0, # of connection points: 2
#     Edge 43, Type (0, 0), BuildingBlock: XIVTED_clean_linker_0, # of connection points: 2
#     Edge 44, Type (0, 0), BuildingBlock: XIVTED_clean_linker_0, # of connection points: 2
#     Edge 45, Type (0, 0), BuildingBlock: XIVTED_clean_linker_0, # of connection points: 2
#     Edge 46, Type (0, 0), BuildingBlock: XIVTED_clean_linker_0, # of connection points: 2
#     Edge 47, Type (0, 0), BuildingBlock: XIVTED_clean_linker_0, # of connection points: 2
#     Edge 48, Type (0, 0), BuildingBlock: XIVTED_clean_linker_0, # of connection points: 2
#     Edge 49, Type (0, 0), BuildingBlock: XIVTED_clean_linker_0, # of connection points: 2
#     Edge 50, Type (0, 0), BuildingBlock: XIVTED_clean_linker_0, # of connection points: 2
#     Edge 51, Type (0, 0), BuildingBlock: XIVTED_clean_linker_0, # of connection points: 2
#     Edge 52, Type (0, 0), BuildingBlock: XIVTED_clean_linker_0, # of connection points: 2
#     Edge 53, Type (0, 0), BuildingBlock: XIVTED_clean_linker_0, # of connection points: 2
#     Edge 54, Type (0, 0), BuildingBlock: XIVTED_clean_linker_0, # of connection points: 2
#     Edge 55, Type (0, 0), BuildingBlock: XIVTED_clean_linker_0, # of connection points: 2
#     Edge 56, Type (0, 0), BuildingBlock: XIVTED_clean_linker_0, # of connection points: 2
#     Edge 57, Type (0, 0), BuildingBlock: XIVTED_clean_linker_0, # of connection points: 2
#     Edge 58, Type (0, 0), BuildingBlock: XIVTED_clean_linker_0, # of connection points: 2
#     Edge 59, Type (0, 0), BuildingBlock: XIVTED_clean_linker_0, # of connection points: 2
#     Edge 60, Type (0, 0), BuildingBlock: XIVTED_clean_linker_0, # of connection points: 2
#     Edge 61, Type (0, 0), BuildingBlock: XIVTED_clean_linker_0, # of connection points: 2
#     Edge 62, Type (0, 0), BuildingBlock: XIVTED_clean_linker_0, # of connection points: 2
#     Edge 63, Type (0, 0), BuildingBlock: XIVTED_clean_linker_0, # of connection points: 2
#     Edge 64, Type (0, 0), BuildingBlock: XIVTED_clean_linker_0, # of connection points: 2
#     Edge 65, Type (0, 0), BuildingBlock: XIVTED_clean_linker_0, # of connection points: 2
#     Edge 66, Type (0, 0), BuildingBlock: XIVTED_clean_linker_0, # of connection points: 2
#     Edge 67, Type (0, 0), BuildingBlock: XIVTED_clean_linker_0, # of connection points: 2
#     Edge 68, Type (0, 0), BuildingBlock: XIVTED_clean_linker_0, # of connection points: 2
#     Edge 69, Type (0, 0), BuildingBlock: XIVTED_clean_linker_0, # of connection points: 2
#     Edge 70, Type (0, 0), BuildingBlock: XIVTED_clean_linker_0, # of connection points: 2
#     Edge 71, Type (0, 0), BuildingBlock: XIVTED_clean_linker_0, # of connection points: 2
# Relax obj value: 0.150
# Max RMSD: 0.135
# Mean RMSD: 0.133
data_MOF--net-smd--node1-MIDCAF_clean_sbu_0--edge1-XIVTED_clean_linker_0
_symmetry_space_group_name_H-M    P1
_symmetry_Int_Tables_number       1
_symmetry_cell_setting            triclinic
loop_
_symmetry_equiv_pos_as_xyz
'x, y, z'
_cell_length_a     71.440791
_cell_length_b     71.374559
_cell_length_c     14.81348
_cell_angle_alpha  90.434252
_cell_angle_beta   89.66849
_cell_angle_gamma 119.97644
loop_
_atom_site_label
_atom_site_type_symbol
_atom_site_fract_x
_atom_site_fract_y
_atom_site_fract_z
_atom_type_partial_charge
Zn0 Zn 0.99457 0.22235 0.50268 0.0
Zn1 Zn 0.0659 0.25662 0.35802 0.0
Zn2 Zn 0.02893 0.23763 0.42701 0.0
C3 C 0.03881 0.22324 0.23881 0.0
C4 C 0.05455 0.28779 0.35976 0.0
O5 O 0.0317 0.22267 0.55257 0.0
O6 O 0.99709 0.20146 0.58142 0.0
C7 C 0.9828 0.20455 0.33863 0.0
O8 O 0.02414 0.22187 0.29381 0.0
O9 O 0.05847 0.23616 0.25571 0.0
O10 O 0.06917 0.28487 0.32644 0.0
O11 O 0.03899 0.27261 0.40557 0.0
O12 O 0.97437 0.2102 0.40025 0.0
O13 O 1.0034 0.21207 0.33871 0.0
O14 O 0.02246 0.26452 0.46848 0.0
O15 O 0.99623 0.24739 0.56738 0.0
C16 C 1.00981 0.26482 0.5305 0.0
O17 O 0.05189 0.23043 0.50226 0.0
O18 O 0.08424 0.25436 0.45148 0.0
C19 C 0.01654 0.20775 0.60048 0.0
C20 C 0.07263 0.23885 0.50324 0.0
Zn21 Zn 0.83805 0.80348 0.56946 0.0
Zn22 Zn 0.80352 0.8371 0.41929 0.0
Zn23 Zn 0.82193 0.82161 0.49497 0.0
C24 C 0.77465 0.7949 0.40255 0.0
C25 C 0.8115 0.85699 0.57988 0.0
O26 O 0.84938 0.82412 0.4099 0.0
O27 O 0.85243 0.79748 0.46824 0.0
C28 C 0.79572 0.77446 0.58749 0.0
O29 O 0.78773 0.79551 0.46394 0.0
O30 O 0.77914 0.81187 0.36012 0.0
O31 O 0.79688 0.85089 0.52109 0.0
O32 O 0.82426 0.84906 0.57908 0.0
O33 O 0.81299 0.7788 0.62703 0.0
O34 O 0.79591 0.78754 0.5272 0.0
O35 O 0.83498 0.83905 0.62488 0.0
O36 O 0.85694 0.82662 0.6546 0.0
C37 C 0.84978 0.8391 0.67453 0.0
O38 O 0.83927 0.8347 0.36521 0.0
O39 O 0.82688 0.85675 0.33693 0.0
C40 C 0.85794 0.81191 0.40906 0.0
C41 C 0.83947 0.84975 0.31687 0.0
Zn42 Zn 0.22421 1.00264 0.42338 0.0
Zn43 Zn 0.26242 0.07389 0.56791 0.0
Zn44 Zn 0.24117 0.0376 0.50232 0.0
C45 C 0.2278 0.04921 0.68646 0.0
C46 C 0.29165 0.06107 0.56877 0.0
O47 O 0.22724 0.04225 0.37741 0.0
O48 O 0.2065 0.00814 0.33781 0.0
C49 C 0.20523 0.99187 0.58861 0.0
O50 O 0.22568 0.03367 0.63486 0.0
O51 O 0.24151 0.0685 0.66688 0.0
O52 O 0.28971 0.07604 0.60468 0.0
O53 O 0.27591 0.04612 0.52256 0.0
O54 O 0.20874 0.98266 0.52313 0.0
O55 O 0.21495 0.01273 0.59222 0.0
O56 O 0.26677 0.02901 0.46247 0.0
O57 O 0.24895 1.00163 0.36858 0.0
C58 C 0.26651 0.01513 0.40507 0.0
O59 O 0.23575 0.0626 0.43048 0.0
O60 O 0.26363 0.09364 0.4731 0.0
C61 C 0.21302 0.02788 0.32423 0.0
C62 C 0.24663 0.08351 0.42707 0.0
Zn63 Zn 0.06781 0.83879 0.43428 0.0
Zn64 Zn 0.99886 0.80422 0.58549 0.0
Zn65 Zn 0.0334 0.82273 0.50914 0.0
C66 C 0.02302 0.83989 0.69071 0.0
C67 C 0.01205 0.77496 0.59911 0.0
O68 O 0.02925 0.83581 0.37998 0.0
O69 O 0.06369 0.85795 0.35104 0.0
C70 C 0.07928 0.8592 0.59289 0.0
O71 O 0.03774 0.8401 0.63918 0.0
O72 O 1.00339 0.82715 0.67275 0.0
O73 O 0.99892 0.77905 0.63936 0.0
O74 O 0.02524 0.78845 0.54027 0.0
O75 O 0.08821 0.85325 0.53467 0.0
O76 O 0.05851 0.85064 0.59242 0.0
O77 O 0.0414 0.79664 0.47643 0.0
O78 O 0.06722 0.81356 0.37561 0.0
C79 C 0.05425 0.79633 0.41544 0.0
O80 O 1.00853 0.82508 0.42427 0.0
O81 O 0.97873 0.79896 0.48513 0.0
C82 C 0.04412 0.85086 0.33139 0.0
C83 C 0.98775 0.81306 0.42465 0.0
Zn84 Zn 0.23108 0.28234 0.58335 0.0
Zn85 Zn 0.24066 0.22882 0.69578 0.0
Zn86 Zn 0.24356 0.25365 0.56498 0.0
C87 C 0.28469 0.25879 0.64805 0.0
C88 C 0.22598 0.20151 0.54906 0.0
O89 O 0.21091 0.22941 0.54276 0.0
O90 O 0.20461 0.25266 0.61837 0.0
C91 C 0.27583 0.29818 0.53722 0.0
O92 O 0.27561 0.25911 0.57479 0.0
O93 O 0.27312 0.24829 0.7148 0.0
O94 O 0.22995 0.20078 0.63148 0.0
O95 O 0.22863 0.2193 0.51568 0.0
O96 O 0.26504 0.29953 0.60323 0.0
O97 O 0.26746 0.28051 0.49149 0.0
O98 O 0.24288 0.26939 0.43815 0.0
O99 O 0.22512 0.28711 0.45676 0.0
C100 C 0.23418 0.27983 0.40515 0.0
O101 O 0.24079 0.26496 0.70004 0.0
O102 O 0.22127 0.23466 0.77388 0.0
C103 C 0.19799 0.23376 0.58649 0.0
C104 C 0.22945 0.25492 0.7688 0.0
Zn105 Zn 0.80239 0.99693 0.395 0.0
Zn106 Zn 0.836 0.06586 0.54857 0.0
Zn107 Zn 0.81992 0.03119 0.47129 0.0
C108 C 0.79324 0.05179 0.56587 0.0
C109 C 0.85504 0.07665 0.38496 0.0
O110 O 0.82241 1.00634 0.55523 0.0
O111 O 0.79564 0.97663 0.49615 0.0
C112 C 0.77376 0.01092 0.37518 0.0
O113 O 0.79361 0.03891 0.50505 0.0
O114 O 0.81046 0.06498 0.60548 0.0
O115 O 0.85013 0.08576 0.44642 0.0
O116 O 0.84664 0.05591 0.38514 0.0
O117 O 0.77844 0.99819 0.33488 0.0
O118 O 0.78618 0.02332 0.43862 0.0
O119 O 0.83706 0.03511 0.34073 0.0
O120 O 0.82584 1.00079 0.31219 0.0
C121 C 0.8377 0.02042 0.29165 0.0
O122 O 0.83315 0.02716 0.60035 0.0
O123 O 0.85488 0.06156 0.63275 0.0
C124 C 0.81004 0.98559 0.55572 0.0
C125 C 0.84789 0.04191 0.65074 0.0
Zn126 Zn 0.7356 0.59582 0.7616 0.0
Zn127 Zn 0.66771 0.56116 0.9145 0.0
Zn128 Zn 0.70126 0.57726 0.83703 0.0
C129 C 0.68095 0.60331 0.93712 0.0
C130 C 0.65554 0.54236 0.75256 0.0
O131 O 0.72626 0.57465 0.91963 0.0
O132 O 0.75597 0.6015 0.86165 0.0
C133 C 0.72174 0.62459 0.74712 0.0
O134 O 0.69309 0.60315 0.87249 0.0
O135 O 0.66887 0.58607 0.97889 0.0
O136 O 0.64715 0.54826 0.8134 0.0
O137 O 0.67619 0.55013 0.75202 0.0
O138 O 0.73491 0.62056 0.7068 0.0
O139 O 0.70887 0.61129 0.80718 0.0
O140 O 0.69697 0.56016 0.70605 0.0
O141 O 0.73138 0.57293 0.67449 0.0
C142 C 0.71178 0.56036 0.65522 0.0
O143 O 0.70559 0.56391 0.96546 0.0
O144 O 0.67131 0.54085 0.99262 0.0
C145 C 0.74701 0.58688 0.92013 0.0
C146 C 0.69091 0.5484 0.01296 0.0
Zn147 Zn 0.44999 0.17654 0.69064 0.0
Zn148 Zn 0.50686 0.14304 0.91594 0.0
Zn149 Zn 0.48573 0.15327 0.82131 0.0
C150 C 0.46533 0.10793 0.92361 0.0
C151 C 0.52778 0.15168 0.75259 0.0
O152 O 0.48116 0.18098 0.87535 0.0
O153 O 0.46091 0.1937 0.80846 0.0
C154 C 0.44335 0.13145 0.74773 0.0
O155 O 0.46349 0.11898 0.85942 0.0
O156 O 0.48292 0.11547 0.96612 0.0
O157 O 0.52662 0.14185 0.82468 0.0
O158 O 0.51459 0.15874 0.73885 0.0
O159 O 0.453 0.15159 0.73496 0.0
O160 O 0.4539 0.12475 0.7932 0.0
O161 O 0.50159 0.16463 0.69046 0.0
O162 O 0.47447 0.16977 0.6903 0.0
C163 C 0.49063 0.17138 0.6481 0.0
O164 O 0.49283 0.17366 0.94184 0.0
O165 O 0.51844 0.16858 -0.00246 0.0
C166 C 0.47312 0.19385 0.8722 0.0
C167 C 0.50737 0.17788 0.0018 0.0
Zn168 Zn 0.92866 0.39639 0.88113 0.0
Zn169 Zn 0.89425 0.32804 0.72864 0.0
Zn170 Zn 0.91044 0.36223 0.80458 0.0
C171 C 0.88205 0.35192 0.62793 0.0
C172 C 0.93656 0.34137 0.70724 0.0
O173 O 0.89332 0.35785 0.93546 0.0
O174 O 0.90575 0.39224 0.96738 0.0
C175 C 0.92019 0.40823 0.72291 0.0
O176 O 0.89726 0.36672 0.67641 0.0
O177 O 0.87486 0.33231 0.64726 0.0
O178 O 0.91918 0.32854 0.66785 0.0
O179 O 0.93654 0.35418 0.76931 0.0
O180 O 0.93464 0.41704 0.7823 0.0
O181 O 0.90794 0.38745 0.72222 0.0
O182 O 0.94452 0.37003 0.8348 0.0
O183 O 0.9533 0.39571 0.93685 0.0
C184 C 0.95763 0.38283 0.89577 0.0
O185 O 0.8829 0.33709 0.88852 0.0
O186 O 0.88016 0.30748 0.82855 0.0
C187 C 0.89334 0.37261 0.98639 0.0
C188 C 0.87444 0.31631 0.88817 0.0
Zn189 Zn 0.7308 0.16784 0.7401 0.0
Zn190 Zn 0.66188 0.13642 0.88867 0.0
Zn191 Zn 0.69656 0.1528 0.81296 0.0
C192 C 0.67145 0.10445 0.89697 0.0
C193 C 0.65228 0.14661 0.72762 0.0
O194 O 0.72244 0.17967 0.89823 0.0
O195 O 0.75152 0.181 0.84006 0.0
C196 C 0.71564 0.12499 0.71929 0.0
O197 O 0.68567 0.11768 0.84037 0.0
O198 O 0.65932 0.10977 0.93802 0.0
O199 O 0.64234 0.13306 0.78901 0.0
O200 O 0.67313 0.1572 0.72711 0.0
O201 O 0.72893 0.14224 0.68038 0.0
O202 O 0.70294 0.12552 0.78044 0.0
O203 O 0.69387 0.16702 0.68399 0.0
O204 O 0.72858 0.18823 0.65744 0.0
C205 C 0.70923 0.18188 0.63649 0.0
O206 O 0.70169 0.17018 0.94394 0.0
O207 O 0.66774 0.15918 0.97859 0.0
C208 C 0.74309 0.18731 0.89898 0.0
C209 C 0.68756 0.17092 0.99619 0.0
Zn210 Zn 0.89436 0.5929 0.74639 0.0
Zn211 Zn 0.92913 0.55891 0.89531 0.0
Zn212 Zn 0.91077 0.57475 0.82159 0.0
C213 C 0.95756 0.60142 0.91568 0.0
C214 C 0.92112 0.539 0.73593 0.0
O215 O 0.88344 0.5721 0.90779 0.0
O216 O 0.8793 0.59796 0.84758 0.0
C217 C 0.93677 0.62249 0.73176 0.0
O218 O 0.94466 0.60107 0.85412 0.0
O219 O 0.95324 0.58418 0.95543 0.0
O220 O 0.93588 0.5451 0.79407 0.0
O221 O 0.90854 0.54716 0.73716 0.0
O222 O 0.91951 0.61819 0.69214 0.0
O223 O 0.93664 0.60912 0.79047 0.0
O224 O 0.89796 0.55738 0.69148 0.0
O225 O 0.8762 0.56992 0.65943 0.0
C226 C 0.88335 0.55738 0.64071 0.0
O227 O 0.8935 0.56141 0.9512 0.0
O228 O 0.90577 0.53918 0.97762 0.0
C229 C 0.87449 0.58396 0.90814 0.0
C230 C 0.89329 0.54625 -0.00126 0.0
Zn231 Zn 0.47636 0.33365 0.75805 0.0
Zn232 Zn 0.50372 0.40205 0.9104 0.0
Zn233 Zn 0.49058 0.36726 0.83796 0.0
C234 C 0.46045 0.38459 0.92564 0.0
C235 C 0.52423 0.41412 0.75255 0.0
O236 O 0.49533 0.34443 0.92509 0.0
O237 O 0.47173 0.31395 0.85873 0.0
C238 C 0.44339 0.34136 0.74584 0.0
O239 O 0.46215 0.3719 0.86774 0.0
O240 O 0.47712 0.39918 0.96402 0.0
O241 O 0.51752 0.42253 0.80995 0.0
O242 O 0.51697 0.39353 0.75429 0.0
O243 O 0.45031 0.33102 0.70084 0.0
O244 O 0.45543 0.35476 0.80775 0.0
O245 O 0.5085 0.373 0.70777 0.0
O246 O 0.50022 0.33962 0.67461 0.0
C247 C 0.51078 0.35952 0.65682 0.0
O248 O 0.50493 0.36527 0.96759 0.0
O249 O 0.52347 0.40016 -0.0021 0.0
C250 C 0.48462 0.32358 0.92271 0.0
C251 C 0.51864 0.38108 0.01723 0.0
Zn252 Zn 0.32945 0.89517 0.26126 0.0
Zn253 Zn 0.39786 0.92862 0.10963 0.0
Zn254 Zn 0.36386 0.91083 0.18417 0.0
C255 C 0.37445 0.89355 0.0034 0.0
C256 C 0.3846 0.95758 0.09276 0.0
O257 O 0.36852 0.89768 0.31172 0.0
O258 O 0.33416 0.87657 0.34544 0.0
C259 C 0.31818 0.87495 0.09993 0.0
O260 O 0.35966 0.89387 0.05276 0.0
O261 O 0.39402 0.9055 0.02465 0.0
O262 O 0.3971 0.95286 0.05105 0.0
O263 O 0.37203 0.94486 0.15484 0.0
O264 O 0.30925 0.88026 0.16067 0.0
O265 O 0.33894 0.88363 0.09912 0.0
O266 O 0.3557 0.9371 0.21798 0.0
O267 O 0.32945 0.92042 0.31726 0.0
C268 C 0.34253 0.93756 0.27707 0.0
O269 O 0.38915 0.90793 0.26445 0.0
O270 O 0.41871 0.93536 0.20876 0.0
C271 C 0.35377 0.88307 0.36214 0.0
C272 C 0.40991 0.92023 0.26519 0.0
Zn273 Zn 0.17067 0.46968 0.22629 0.0
Zn274 Zn 0.13635 0.50383 0.07596 0.0
Zn275 Zn 0.15462 0.48787 0.15059 0.0
C276 C 0.10774 0.46142 0.05552 0.0
C277 C 0.14411 0.52319 0.23748 0.0
O278 O 0.18203 0.49054 0.06554 0.0
O279 O 0.18523 0.46404 0.12472 0.0
C280 C 0.12834 0.44036 0.23999 0.0
O281 O 0.12067 0.46172 0.11688 0.0
O282 O 0.11212 0.47867 0.01566 0.0
O283 O 0.12967 0.51748 0.17809 0.0
O284 O 0.15667 0.51503 0.2364 0.0
O285 O 0.14538 0.44476 0.28167 0.0
O286 O 0.12875 0.45359 0.17996 0.0
O287 O 0.16738 0.50498 0.28161 0.0
O288 O 0.18933 0.49261 0.31248 0.0
C289 C 0.18208 0.50503 0.33196 0.0
O290 O 0.17217 0.50139 0.02172 0.0
O291 O 0.15987 0.52356 0.99421 0.0
C292 C 0.19055 0.4783 0.06491 0.0
C293 C 0.17244 0.51655 0.97389 0.0
Zn294 Zn 0.55851 0.65844 0.11836 0.0
Zn295 Zn 0.59084 0.72782 0.26929 0.0
Zn296 Zn 0.57336 0.69313 0.1938 0.0
C297 C 0.55559 0.70271 0.37486 0.0
C298 C 0.62143 0.71649 0.28114 0.0
O299 O 0.55948 0.69636 0.0652 0.0
O300 O 0.53926 0.66174 0.0327 0.0
C301 C 0.53874 0.64691 0.27904 0.0
O302 O 0.5562 0.68822 0.32443 0.0
O303 O 0.56766 0.72244 0.35647 0.0
O304 O 0.61672 0.72908 0.32243 0.0
O305 O 0.60811 0.70298 0.2225 0.0
O306 O 0.54451 0.63816 0.21923 0.0
O307 O 0.54678 0.66761 0.27875 0.0
O308 O 0.6005 0.68675 0.15878 0.0
O309 O 0.58418 0.65982 0.06158 0.0
C310 C 0.60129 0.67381 0.0994 0.0
O311 O 0.56862 0.71699 0.11324 0.0
O312 O 0.59474 0.74759 0.16939 0.0
C313 C 0.5453 0.68119 0.01453 0.0
C314 C 0.57976 0.73784 0.11284 0.0
Zn315 Zn 0.39714 0.49991 0.08642 0.0
Zn316 Zn 0.32806 0.46613 0.23658 0.0
Zn317 Zn 0.36294 0.48418 0.16392 0.0
C318 C 0.35204 0.50188 0.34201 0.0
C319 C 0.34234 0.43774 0.26027 0.0
O320 O 0.35882 0.49694 0.03369 0.0
O321 O 0.39315 0.51899 0.00233 0.0
C322 C 0.40848 0.51956 0.24868 0.0
O323 O 0.3669 0.50164 0.29306 0.0
O324 O 0.33247 0.48958 0.32146 0.0
O325 O 0.32855 0.44171 0.29493 0.0
O326 O 0.35566 0.45063 0.2004 0.0
O327 O 0.41727 0.51401 0.18824 0.0
O328 O 0.38779 0.51144 0.24854 0.0
O329 O 0.37059 0.45777 0.13224 0.0
O330 O 0.39587 0.47419 0.02892 0.0
C331 C 0.38302 0.45712 0.07014 0.0
O332 O 0.33803 0.48654 0.07892 0.0
O333 O 0.3079 0.46002 0.13587 0.0
C334 C 0.37351 0.51174 0.98353 0.0
C335 C 0.31725 0.47451 0.07721 0.0
Zn336 Zn 0.59511 0.89534 0.25596 0.0
Zn337 Zn 0.55545 0.90956 0.0737 0.0
Zn338 Zn 0.57633 0.90845 0.18772 0.0
C339 C 0.59358 0.91284 0.00938 0.0
C340 C 0.58748 0.95237 0.08869 0.0
O341 O 0.57167 0.91085 0.32871 0.0
O342 O 0.57317 0.88154 0.35425 0.0
C343 C 0.57825 0.86762 0.12146 0.0
O344 O 0.60009 0.92432 0.08211 0.0
O345 O 0.57342 0.90016 -0.00151 0.0
O346 O 0.56772 0.94255 0.06637 0.0
O347 O 0.5953 0.94136 0.12539 0.0
O348 O 0.59665 0.87712 0.1579 0.0
O349 O 0.56549 0.87515 0.1343 0.0
O350 O 0.61002 0.93587 0.17495 0.0
O351 O 0.62087 0.92363 0.28748 0.0
C352 C 0.62428 0.93886 0.23504 0.0
O353 O 0.55061 0.9111 0.25503 0.0
O354 O 0.52836 0.89113 0.14839 0.0
C355 C 0.56991 0.89635 0.38352 0.0
C356 C 0.53123 0.89949 0.22646 0.0
Zn357 Zn 0.13664 0.66465 0.09058 0.0
Zn358 Zn 0.17029 0.73254 0.24488 0.0
Zn359 Zn 0.15461 0.69865 0.1675 0.0
C360 C 0.12795 0.71891 0.26331 0.0
C361 C 0.18997 0.7445 0.08456 0.0
O362 O 0.15691 0.67359 0.25067 0.0
O363 O 0.12998 0.64414 0.19078 0.0
C364 C 0.10784 0.67819 0.07252 0.0
O365 O 0.1284 0.70649 0.20047 0.0
O366 O 0.14506 0.73151 0.30498 0.0
O367 O 0.18407 0.75308 0.14455 0.0
O368 O 0.18198 0.7238 0.08409 0.0
O369 O 0.11241 0.6655 0.03127 0.0
O370 O 0.1206 0.69073 0.13491 0.0
O371 O 0.17213 0.70305 0.03781 0.0
O372 O 0.1601 0.66866 0.0076 0.0
C373 C 0.17245 0.68828 0.98818 0.0
O374 O 0.16764 0.69433 0.29687 0.0
O375 O 0.18979 0.72873 0.32705 0.0
C376 C 0.14439 0.65286 0.2504 0.0
C377 C 0.18263 0.70912 0.34628 0.0
H378 H 0.11194 0.4228 0.40306 0.0
H379 H 0.05615 0.30533 0.19745 0.0
H380 H 0.10181 0.40966 0.11787 0.0
H381 H 0.05692 0.31787 0.48258 0.0
H382 H 0.06673 0.34293 0.16675 0.0
H383 H 0.08613 0.38482 0.434 0.0
C384 C 0.10375 0.41195 0.34701 0.0
C385 C 0.10892 0.41929 0.25783 0.0
C386 C 0.06413 0.33745 0.23606 0.0
C387 C 0.0799 0.37563 0.29241 0.0
C388 C 0.05803 0.31598 0.25351 0.0
C389 C 0.05569 0.30863 0.34256 0.0
C390 C 0.06853 0.35188 0.3084 0.0
C391 C 0.05845 0.32297 0.41297 0.0
C392 C 0.08906 0.39026 0.36464 0.0
C393 C 0.09807 0.40464 0.18756 0.0
N394 N 0.06514 0.34407 0.39447 0.0
N395 N 0.08436 0.38339 0.20629 0.0
H396 H 0.75689 0.77878 0.23902 0.0
H397 H 0.63949 0.7192 0.44419 0.0
H398 H 0.74425 0.76773 0.52398 0.0
H399 H 0.65208 0.7201 0.15912 0.0
H400 H 0.67745 0.73148 0.47499 0.0
H401 H 0.71911 0.75232 0.20788 0.0
C402 C 0.74621 0.77029 0.29496 0.0
C403 C 0.75364 0.77536 0.38416 0.0
C404 C 0.67192 0.72853 0.4057 0.0
C405 C 0.71017 0.74553 0.34935 0.0
C406 C 0.65022 0.72147 0.38814 0.0
C407 C 0.64272 0.71864 0.29904 0.0
C408 C 0.6864 0.73338 0.33343 0.0
C409 C 0.65724 0.72192 0.22879 0.0
C410 C 0.72462 0.75522 0.2772 0.0
C411 C 0.73918 0.76409 0.45424 0.0
N412 N 0.67851 0.72952 0.24739 0.0
N413 N 0.71802 0.74997 0.43544 0.0
H414 H 0.27972 0.00985 0.23988 0.0
H415 H 0.33969 0.95316 0.44079 0.0
H416 H 0.29637 0.01509 0.52152 0.0
H417 H 0.34041 0.96548 0.15627 0.0
H418 H 0.32798 0.97944 0.47193 0.0
H419 H 0.30556 0.99775 0.20661 0.0
C420 C 0.2893 0.00899 0.29446 0.0
C421 C 0.28591 0.01345 0.3836 0.0
C422 C 0.3312 0.97687 0.40277 0.0
C423 C 0.31506 0.99887 0.34647 0.0
C424 C 0.33794 0.96189 0.38498 0.0
C425 C 0.34105 0.95718 0.29584 0.0
C426 C 0.3269 0.98681 0.33069 0.0
C427 C 0.33838 0.96879 0.22598 0.0
C428 C 0.30402 1.00203 0.27546 0.0
C429 C 0.29862 0.01197 0.45182 0.0
N430 N 0.33101 0.98273 0.24473 0.0
N431 N 0.3123 1.00433 0.43215 0.0
H432 H 0.30605 0.04845 0.71189 0.0
H433 H 0.42579 0.13703 0.59599 0.0
H434 H 0.32518 0.07838 0.45096 0.0
H435 H 0.4109 0.09357 0.81982 0.0
H436 H 0.3891 0.11432 0.53916 0.0
H437 H 0.34414 0.06192 0.74858 0.0
C438 C 0.31829 0.05712 0.66103 0.0
C439 C 0.31261 0.06211 0.57794 0.0
C440 C 0.39387 0.10952 0.60006 0.0
C441 C 0.35613 0.07851 0.62074 0.0
C442 C 0.41477 0.12259 0.63293 0.0
C443 C 0.42135 0.11711 0.71263 0.0
C444 C 0.37921 0.09102 0.64826 0.0
C445 C 0.40652 0.09816 0.7575 0.0
C446 C 0.34002 0.06501 0.68224 0.0
C447 C 0.32899 0.07395 0.51521 0.0
N448 N 0.38601 0.08593 0.72539 0.0
N449 N 0.35006 0.0821 0.53847 0.0
H450 H 0.9514 0.34138 0.53891 0.0
H451 H 1.0095 0.27891 0.70027 0.0
H452 H 0.96492 0.33727 0.81868 0.0
H453 H 1.00779 0.29472 0.42161 0.0
H454 H 0.99893 0.3053 0.74574 0.0
H455 H 0.97718 0.32993 0.49493 0.0
C456 C 0.96031 0.33863 0.59107 0.0
C457 C 0.95606 0.34025 0.68251 0.0
C458 C 1.00137 0.30348 0.67472 0.0
C459 C 0.9851 0.32637 0.63284 0.0
C460 C 1.0075 0.28846 0.64877 0.0
C461 C 1.00952 0.28468 0.5571 0.0
C462 C 0.99662 0.31442 0.60837 0.0
C463 C 1.00656 0.2973 0.49301 0.0
C464 C 0.97499 0.33201 0.56596 0.0
C465 C 0.96787 0.33635 0.74746 0.0
N466 N 0.99981 0.3113 0.51975 0.0
N467 N 0.98154 0.32915 0.72141 0.0
H468 H 0.76706 0.74341 0.47122 0.0
H469 H 0.72351 0.65538 0.86436 0.0
H470 H 0.78098 0.75822 0.75379 0.0
H471 H 0.72295 0.64074 0.58138 0.0
H472 H 0.73415 0.69282 0.82507 0.0
H473 H 0.74064 0.70589 0.51106 0.0
C474 C 0.76398 0.73891 0.54171 0.0
C475 C 0.77615 0.7538 0.60939 0.0
C476 C 0.73116 0.68126 0.77146 0.0
C477 C 0.74651 0.71102 0.65548 0.0
C478 C 0.72489 0.65988 0.79394 0.0
C479 C 0.72244 0.64509 0.72594 0.0
C480 C 0.73502 0.68776 0.68047 0.0
C481 C 0.72483 0.65178 0.63572 0.0
C482 C 0.74909 0.71749 0.56449 0.0
C483 C 0.77193 0.74711 0.69969 0.0
N484 N 0.73123 0.67267 0.61561 0.0
N485 N 0.75766 0.72617 0.72009 0.0
H486 H 1.01078 0.75803 0.76331 0.0
H487 H 0.95222 0.63952 0.56712 0.0
H488 H 1.00887 0.74401 0.47914 0.0
H489 H 0.96436 0.65357 0.85096 0.0
H490 H 0.9781 0.67729 0.53307 0.0
H491 H 0.99943 0.72035 0.79691 0.0
C492 C 1.00853 0.74707 0.70803 0.0
C493 C 1.0108 0.75409 0.61837 0.0
C494 C 0.97558 0.67211 0.60278 0.0
C495 C 0.99706 0.7107 0.65603 0.0
C496 C 0.96085 0.65051 0.6222 0.0
C497 C 0.95622 0.64347 0.71193 0.0
C498 C 0.98537 0.68697 0.67379 0.0
C499 C 0.96765 0.65834 0.78085 0.0
C500 C 1.00198 0.72553 0.72719 0.0
C501 C 1.00751 0.73926 0.54918 0.0
N502 N 0.9814 0.67951 0.76044 0.0
N503 N 1.0004 0.71815 0.56939 0.0
H504 H 0.31516 0.28256 0.51927 0.0
H505 H 0.41308 0.33615 0.8727 0.0
H506 H 0.30816 0.26745 0.80349 0.0
H507 H 0.42215 0.33269 0.58639 0.0
H508 H 0.37384 0.31816 0.84819 0.0
H509 H 0.3539 0.30711 0.54288 0.0
C510 C 0.32176 0.28425 0.58642 0.0
C511 C 0.3084 0.27262 0.65919 0.0
C512 C 0.38448 0.3217 0.79064 0.0
C513 C 0.3526 0.30112 0.68701 0.0
C514 C 0.40685 0.33222 0.80451 0.0
C515 C 0.42078 0.33584 0.73144 0.0
C516 C 0.37614 0.31498 0.70307 0.0
C517 C 0.41188 0.33008 0.64453 0.0
C518 C 0.34384 0.29837 0.59994 0.0
C519 C 0.31785 0.2758 0.74508 0.0
N520 N 0.39014 0.31981 0.63276 0.0
N521 N 0.33932 0.28975 0.75659 0.0
H522 H 0.7105 0.09196 0.83124 0.0
H523 H 0.77741 0.05099 0.73292 0.0
H524 H 0.72362 0.11357 0.55529 0.0
H525 H 0.76539 0.05589 0.45208 0.0
H526 H 0.75064 0.06113 0.77459 0.0
H527 H 0.72187 0.06544 0.79642 0.0
C528 C 0.71528 0.09075 0.76291 0.0
C529 C 0.71654 0.10523 0.6965 0.0
C530 C 0.75304 0.0592 0.70377 0.0
C531 C 0.73049 0.07571 0.6567 0.0
C532 C 0.76848 0.05349 0.67998 0.0
C533 C 0.77343 0.05243 0.58899 0.0
C534 C 0.74272 0.06434 0.63584 0.0
C535 C 0.76177 0.05619 0.52297 0.0
C536 C 0.72218 0.07588 0.74323 0.0
C537 C 0.72283 0.10297 0.60895 0.0
N538 N 0.74725 0.06239 0.54772 0.0
N539 N 0.72983 0.08878 0.59197 0.0
H540 H 0.63986 0.96204 0.38775 0.0
H541 H 0.75889 0.00939 0.20621 0.0
H542 H 0.65553 0.96093 0.10735 0.0
H543 H 0.74245 0.00988 0.4861 0.0
H544 H 0.72229 1.00029 0.16358 0.0
H545 H 0.67761 0.98842 0.41838 0.0
C546 C 0.65125 0.96795 0.33206 0.0
C547 C 0.64478 0.95927 0.24515 0.0
C548 C 0.72676 1.0029 0.2342 0.0
C549 C 0.68814 0.98877 0.28011 0.0
C550 C 0.74765 0.00811 0.25854 0.0
C551 C 0.75359 0.01037 0.34977 0.0
C552 C 0.71155 0.99947 0.30181 0.0
C553 C 0.73853 0.00852 0.41501 0.0
C554 C 0.67282 0.98289 0.34963 0.0
C555 C 0.66 0.9673 0.17526 0.0
N556 N 0.71806 1.00281 0.38985 0.0
N557 N 0.68116 0.98127 0.19465 0.0
H558 H 0.05514 0.78117 0.24856 0.0
H559 H 0.11231 0.71939 0.42949 0.0
H560 H 0.05678 0.76773 0.53045 0.0
H561 H 0.10024 0.7226 0.1471 0.0
H562 H 0.08638 0.73104 0.4678 0.0
H563 H 0.06561 0.75435 0.20952 0.0
C564 C 0.05717 0.77209 0.30216 0.0
C565 C 0.05514 0.77663 0.3928 0.0
C566 C 0.08892 0.7287 0.39744 0.0
C567 C 0.06781 0.74637 0.34894 0.0
C568 C 0.10368 0.72198 0.37558 0.0
C569 C 0.10839 0.72009 0.28506 0.0
C570 C 0.07921 0.73416 0.32815 0.0
C571 C 0.09691 0.72374 0.21771 0.0
C572 C 0.06319 0.75681 0.27989 0.0
C573 C 0.05804 0.76456 0.45975 0.0
N574 N 0.08316 0.73105 0.24057 0.0
N575 N 0.06465 0.75027 0.43656 0.0
H576 H 0.33591 0.40143 0.16775 0.0
H577 H 0.29988 0.33669 0.62512 0.0
H578 H 0.34919 0.43091 0.43174 0.0
H579 H 0.29444 0.30548 0.36855 0.0
H580 H 0.32429 0.37147 0.55646 0.0
H581 H 0.3269 0.3667 0.23774 0.0
C582 C 0.33768 0.40072 0.24002 0.0
C583 C 0.34322 0.41889 0.2944 0.0
C584 C 0.31802 0.35703 0.51503 0.0
C585 C 0.33249 0.37944 0.37493 0.0
C586 C 0.30408 0.33711 0.55447 0.0
C587 C 0.29454 0.3182 0.50184 0.0
C588 C 0.32216 0.35818 0.42168 0.0
C589 C 0.30093 0.31972 0.41103 0.0
C590 C 0.33239 0.38091 0.28011 0.0
C591 C 0.34492 0.41716 0.38774 0.0
N592 N 0.31391 0.33942 0.37314 0.0
N593 N 0.33929 0.39776 0.42511 0.0
H594 H 0.98868 0.38561 0.77784 0.0
H595 H 0.07716 0.43192 0.17061 0.0
H596 H 0.97412 0.38429 0.06113 0.0
H597 H 0.09126 0.44708 0.88866 0.0
H598 H 0.03999 0.40456 0.13031 0.0
H599 H 0.02654 0.39794 0.81661 0.0
C600 C 0.99331 0.38716 0.84819 0.0
C601 C 0.97839 0.38405 0.91645 0.0
C602 C 0.05137 0.41352 0.07707 0.0
C603 C 0.02151 0.39851 0.96132 0.0
C604 C 0.07261 0.42896 0.1001 0.0
C605 C 0.0872 0.44171 0.03281 0.0
C606 C 0.04477 0.41093 0.98621 0.0
C607 C 0.0804 0.43761 0.94251 0.0
C608 C 0.01492 0.3944 0.87037 0.0
C609 C 0.98524 0.38666 0.00659 0.0
N610 N 0.05963 0.42276 0.92188 0.0
N611 N 1.00633 0.39398 0.0264 0.0
H612 H 0.68061 0.61855 0.1046 0.0
H613 H 0.61692 0.67457 0.9321 0.0
H614 H 0.67622 0.63081 0.82349 0.0
H615 H 0.6304 0.67184 0.21314 0.0
H616 H 0.64427 0.66502 0.89081 0.0
H617 H 0.66846 0.64396 0.14583 0.0
C618 C 0.67764 0.62712 0.05157 0.0
C619 C 0.67938 0.62261 0.96056 0.0
C620 C 0.64172 0.66702 0.96153 0.0
C621 C 0.66475 0.65121 0.00703 0.0
C622 C 0.62616 0.67255 0.98508 0.0
C623 C 0.62147 0.67398 0.07607 0.0
C624 C 0.65228 0.66227 0.02961 0.0
C625 C 0.63369 0.67104 0.14221 0.0
C626 C 0.67064 0.64158 0.0751 0.0
C627 C 0.67523 0.63399 0.89443 0.0
N628 N 0.64826 0.66489 0.11771 0.0
N629 N 0.66768 0.64746 0.91893 0.0
H630 H 0.43432 0.07678 0.8146 0.0
H631 H 0.38971 0.9894 0.21113 0.0
H632 H 0.45537 0.09059 0.09152 0.0
H633 H 0.38472 0.9735 0.92787 0.0
H634 H 0.40376 0.02754 0.17147 0.0
H635 H 0.40681 0.04003 0.85897 0.0
C636 C 0.43284 0.07219 0.88493 0.0
C637 C 0.44717 0.08659 0.94941 0.0
C638 C 0.39903 0.01559 0.11805 0.0
C639 C 0.41597 0.04478 0.00058 0.0
C640 C 0.39081 0.99385 0.14072 0.0
C641 C 0.38625 0.97849 0.07251 0.0
C642 C 0.40259 0.02177 0.02672 0.0
C643 C 0.38822 0.98501 0.98225 0.0
C644 C 0.41723 0.05125 0.91021 0.0
C645 C 0.44478 0.07982 0.03955 0.0
N646 N 0.39651 1.00621 0.96187 0.0
N647 N 0.42959 0.05936 0.0624 0.0
H648 H 0.65326 0.07069 0.77889 0.0
H649 H 0.62591 0.98235 0.16381 0.0
H650 H 0.67771 0.08776 0.04988 0.0
H651 H 0.58296 0.97332 0.94357 0.0
H652 H 0.65114 0.01876 0.10786 0.0
H653 H 0.63445 0.03228 0.82158 0.0
C654 C 0.65542 0.06625 0.8462 0.0
C655 C 0.66722 0.08227 0.91078 0.0
C656 C 0.63622 0.00875 0.07172 0.0
C657 C 0.64541 0.03869 0.9607 0.0
C658 C 0.62182 0.98801 0.10362 0.0
C659 C 0.60223 0.97486 0.0588 0.0
C660 C 0.63118 0.01627 0.99334 0.0
C661 C 0.59771 0.98305 0.98111 0.0
C662 C 0.64441 0.04442 0.87097 0.0
C663 C 0.66899 0.0758 -0.00203 0.0
N664 N 0.61211 1.00318 0.95063 0.0
N665 N 0.65808 0.05451 0.02066 0.0
H666 H 0.09243 0.678 0.90602 0.0
H667 H 0.97284 0.61639 0.08312 0.0
H668 H 0.07599 0.67444 0.18797 0.0
H669 H 0.98908 0.63027 0.80182 0.0
H670 H 1.00993 0.64307 0.12346 0.0
H671 H 0.05508 0.66659 0.86663 0.0
C672 C 0.081 0.67537 0.95962 0.0
C673 C 0.08722 0.67711 0.05032 0.0
C674 C 1.00536 0.64075 0.05294 0.0
C675 C 0.04421 0.66331 0.00597 0.0
C676 C 0.98416 0.62554 0.02992 0.0
C677 C 0.97798 0.62115 0.93906 0.0
C678 C 0.0207 0.65125 0.98442 0.0
C679 C 0.99321 0.63332 0.87267 0.0
C680 C 0.05965 0.66879 0.93714 0.0
C681 C 0.07184 0.67343 0.11724 0.0
N682 N 0.01402 0.64752 0.89659 0.0
N683 N 0.05091 0.66626 0.09376 0.0
H684 H 0.38413 0.44173 0.90395 0.0
H685 H 0.44381 0.38361 0.09087 0.0
H686 H 0.38505 0.42844 0.18652 0.0
H687 H 0.43115 0.38493 0.80783 0.0
H688 H 0.41633 0.39329 0.12736 0.0
H689 H 0.39492 0.41507 0.86676 0.0
C690 C 0.38605 0.4327 0.95809 0.0
C691 C 0.3838 0.4373 0.04842 0.0
C692 C 0.41905 0.39092 0.05726 0.0
C693 C 0.39685 0.40723 0.00666 0.0
C694 C 0.43468 0.38529 0.03646 0.0
C695 C 0.43975 0.38359 0.94627 0.0
C696 C 0.40884 0.39553 0.9872 0.0
C697 C 0.42763 0.38604 0.87822 0.0
C698 C 0.39225 0.4175 0.93686 0.0
C699 C 0.3865 0.42525 0.11603 0.0
N700 N 0.41307 0.3924 0.9 0.0
N701 N 0.39337 0.41109 0.09389 0.0
H702 H 0.09847 0.25198 0.65214 0.0
H703 H 0.17318 0.22244 0.73657 0.0
H704 H 0.07244 0.20285 0.44542 0.0
H705 H 0.16948 0.21414 0.44784 0.0
H706 H 0.13607 0.21568 0.7385 0.0
H707 H 0.12456 0.24057 0.69081 0.0
C708 C 0.09766 0.23814 0.61779 0.0
C709 C 0.08302 0.22797 0.54719 0.0
C710 C 0.14312 0.21468 0.67502 0.0
C711 C 0.11336 0.21538 0.58781 0.0
C712 C 0.16414 0.21809 0.67402 0.0
C713 C 0.17445 0.219 0.59181 0.0
C714 C 0.13239 0.21226 0.59305 0.0
C715 C 0.1621 0.2135 0.51264 0.0
C716 C 0.11258 0.23162 0.63952 0.0
C717 C 0.08319 0.2107 0.50188 0.0
N718 N 0.14183 0.21086 0.51487 0.0
N719 N 0.09853 0.20532 0.52118 0.0
H720 H 0.84852 0.98753 0.59217 0.0
H721 H 0.78226 0.86167 0.68025 0.0
H722 H 0.78023 0.95033 0.64658 0.0
H723 H 0.84913 0.89543 0.59948 0.0
H724 H 0.78496 0.89615 0.72031 0.0
H725 H 0.85237 0.95691 0.64321 0.0
C726 C 0.83451 0.97325 0.61841 0.0
C727 C 0.81399 0.97129 0.61447 0.0
C728 C 0.79928 0.89611 0.69623 0.0
C729 C 0.81814 0.9362 0.67126 0.0
C730 C 0.79777 0.87636 0.67433 0.0
C731 C 0.81545 0.87577 0.63609 0.0
C732 C 0.81844 0.9155 0.67712 0.0
C733 C 0.83514 0.89525 0.62901 0.0
C734 C 0.83666 0.9557 0.64673 0.0
C735 C 0.7963 0.95238 0.64801 0.0
N736 N 0.83597 0.91443 0.64684 0.0
N737 N 0.79873 0.93549 0.67364 0.0
H738 H 0.07628 0.89551 0.62481 0.0
H739 H 0.20304 0.96005 0.69424 0.0
H740 H 0.11583 0.8671 0.68019 0.0
H741 H 0.16654 0.99014 0.61353 0.0
H742 H 0.16955 0.92792 0.73972 0.0
H743 H 0.10666 0.93113 0.66763 0.0
C744 C 0.09104 0.89663 0.64967 0.0
C745 C 0.09365 0.8784 0.64834 0.0
C746 C 0.16878 0.94174 0.7147 0.0
C747 C 0.12852 0.91902 0.69567 0.0
C748 C 0.18799 0.96023 0.68997 0.0
C749 C 0.18754 0.97777 0.65044 0.0
C750 C 0.14885 0.94048 0.69728 0.0
C751 C 0.16756 0.977 0.64461 0.0
C752 C 0.10847 0.917 0.67319 0.0
C753 C 0.11321 0.88079 0.67978 0.0
N754 N 0.14893 0.95842 0.66539 0.0
N755 N 0.12994 0.90071 0.70076 0.0
H756 H 0.19719 0.15943 0.58662 0.0
H757 H 0.26758 0.12156 0.3353 0.0
H758 H 0.24404 0.19976 0.38793 0.0
H759 H 0.2054 0.07597 0.44547 0.0
H760 H 0.25672 0.14908 0.33337 0.0
H761 H 0.19674 0.12775 0.51999 0.0
C762 C 0.20684 0.16148 0.52687 0.0
C763 C 0.2206 0.18224 0.49251 0.0
C764 C 0.24513 0.13288 0.35517 0.0
C765 C 0.22093 0.1461 0.41801 0.0
C766 C 0.25127 0.11708 0.35547 0.0
C767 C 0.23738 0.09644 0.39068 0.0
C768 C 0.22518 0.12822 0.39296 0.0
C769 C 0.21656 0.09162 0.41722 0.0
C770 C 0.20666 0.14339 0.48899 0.0
C771 C 0.23302 0.18402 0.41586 0.0
N772 N 0.21132 0.10756 0.42038 0.0
N773 N 0.23333 0.16628 0.38263 0.0
H774 H 0.85735 0.10949 0.28613 0.0
H775 H 0.98404 0.1676 0.3028 0.0
H776 H 0.8925 0.07662 0.34596 0.0
H777 H 0.94686 0.19885 0.25282 0.0
H778 H 0.95206 0.13255 0.26823 0.0
H779 H 0.89017 0.13951 0.22294 0.0
C780 C 0.87191 0.10835 0.28322 0.0
C781 C 0.87235 0.09073 0.32182 0.0
C782 C 0.95108 0.14714 0.26161 0.0
C783 C 0.91033 0.12549 0.25366 0.0
C784 C 0.96943 0.16718 0.28027 0.0
C785 C 0.96791 0.18604 0.28183 0.0
C786 C 0.93123 0.14612 0.24459 0.0
C787 C 0.94858 0.18461 0.25324 0.0
C788 C 0.89072 0.12555 0.24767 0.0
C789 C 0.89159 0.09001 0.3168 0.0
N790 N 0.9309 0.16498 0.23762 0.0
N791 N 0.91001 0.10744 0.28565 0.0
H792 H 0.99063 0.85175 0.38157 0.0
H793 H 0.89398 0.85099 0.37386 0.0
H794 H 0.95168 0.78305 0.33866 0.0
H795 H 0.86529 0.78272 0.32152 0.0
H796 H 0.92937 0.85579 0.33457 0.0
H797 H 0.96031 0.85606 0.33324 0.0
C798 C 0.97592 0.83768 0.35858 0.0
C799 C 0.97351 0.81699 0.36527 0.0
C800 C 0.91542 0.8398 0.3289 0.0
C801 C 0.9383 0.8215 0.31271 0.0
C802 C 0.89505 0.83715 0.35025 0.0
C803 C 0.87678 0.81639 0.3521 0.0
C804 C 0.91737 0.82146 0.30951 0.0
C805 C 0.87905 0.79898 0.32187 0.0
C806 C 0.95836 0.84005 0.33214 0.0
C807 C 0.95411 0.79927 0.3354 0.0
N808 N 0.89895 0.80185 0.30353 0.0
N809 N 0.93722 0.80189 0.312 0.0
H810 H 0.87124 0.61312 0.01508 0.0
H811 H 0.74468 0.54794 0.94961 0.0
H812 H 0.83615 0.54641 0.93107 0.0
H813 H 0.7827 0.61589 0.01163 0.0
H814 H 0.77556 0.54355 0.99089 0.0
H815 H 0.83743 0.61057 0.06492 0.0
C816 C 0.85643 0.59766 0.0105 0.0
C817 C 0.85643 0.57998 0.96881 0.0
C818 C 0.77691 0.55928 -0.00159 0.0
C819 C 0.81738 0.57717 0.021 0.0
C820 C 0.75919 0.56173 0.97583 0.0
C821 C 0.76128 0.58235 0.97648 0.0
C822 C 0.79671 0.57761 0.02192 0.0
C823 C 0.78051 0.59975 0.00963 0.0
C824 C 0.83705 0.59624 0.03799 0.0
C825 C 0.8368 0.56038 0.96337 0.0
N826 N 0.79756 0.59706 0.02953 0.0
N827 N 0.81794 0.55964 0.98677 0.0
H828 H 0.45657 0.29334 0.03863 0.0
H829 H 0.5135 0.22699 0.91233 0.0
H830 H 0.52154 0.32166 0.93644 0.0
H831 H 0.44634 0.20044 0.98085 0.0
H832 H 0.52116 0.26179 0.97838 0.0
H833 H 0.45775 0.26087 0.07933 0.0
C834 C 0.47148 0.29308 0.02883 0.0
C835 C 0.48893 0.31005 0.98378 0.0
C836 C 0.50488 0.24814 0.98201 0.0
C837 C 0.49001 0.27248 0.02481 0.0
C838 C 0.50057 0.22824 0.94505 0.0
C839 C 0.47924 0.21103 0.94045 0.0
C840 C 0.48768 0.25066 0.01411 0.0
C841 C 0.46298 0.21346 0.98258 0.0
C842 C 0.47209 0.27442 0.0509 0.0
C843 C 0.50777 0.30885 0.97129 0.0
N844 N 0.46746 0.23301 0.01619 0.0
N845 N 0.5076 0.29007 0.98903 0.0
H846 H 0.77687 0.19161 -0.0024 0.0
H847 H 0.83758 0.31814 0.92097 0.0
H848 H 0.74435 0.22604 0.9201 0.0
H849 H 0.86815 0.28063 0.97776 0.0
H850 H 0.80263 0.2872 0.96612 0.0
H851 H 0.80864 0.22586 0.0392 0.0
C852 C 0.77617 0.20639 0.9926 0.0
C853 C 0.75803 0.20603 0.9551 0.0
C854 C 0.81709 0.28597 0.9715 0.0
C855 C 0.79481 0.24556 -0.00195 0.0
C856 C 0.83707 0.30373 0.94667 0.0
C857 C 0.85571 0.30183 0.9451 0.0
C858 C 0.81587 0.26631 0.99498 0.0
C859 C 0.85412 0.28269 0.97758 0.0
C860 C 0.79441 0.22602 0.0154 0.0
C861 C 0.75802 0.22565 0.94916 0.0
N862 N 0.83456 0.26562 -0.00021 0.0
N863 N 0.77637 0.24471 0.96801 0.0
H864 H 0.88259 0.50179 0.70603 0.0
H865 H 0.94907 0.44176 0.62131 0.0
H866 H 0.95052 0.53276 0.64413 0.0
H867 H 0.88244 0.40891 0.70535 0.0
H868 H 0.94616 0.47329 0.58104 0.0
H869 H 0.87882 0.46683 0.66073 0.0
C870 C 0.89651 0.50136 0.67921 0.0
C871 C 0.91693 0.52013 0.67931 0.0
C872 C 0.93192 0.45903 0.60592 0.0
C873 C 0.91289 0.48028 0.6292 0.0
C874 C 0.93355 0.44091 0.62787 0.0
C875 C 0.91599 0.42275 0.66675 0.0
C876 C 0.91277 0.4593 0.62548 0.0
C877 C 0.89632 0.42258 0.67499 0.0
C878 C 0.89441 0.48137 0.6543 0.0
C879 C 0.93451 0.51864 0.64544 0.0
N880 N 0.89537 0.44082 0.65689 0.0
N881 N 0.93216 0.49908 0.62312 0.0
H882 H 0.52933 0.44902 0.65995 0.0
H883 H 0.65563 0.50468 0.71802 0.0
H884 H 0.56193 0.41379 0.72322 0.0
H885 H 0.62059 0.5379 0.6629 0.0
H886 H 0.62361 0.47037 0.6743 0.0
H887 H 0.56372 0.47975 0.61303 0.0
C888 C 0.5437 0.44754 0.66112 0.0
C889 C 0.54287 0.42897 0.69623 0.0
C890 C 0.62315 0.48526 0.66882 0.0
C891 C 0.5826 0.46451 0.64675 0.0
C892 C 0.64152 0.50486 0.69281 0.0
C893 C 0.64061 0.52405 0.69474 0.0
C894 C 0.60387 0.48498 0.64684 0.0
C895 C 0.62186 0.5234 0.66285 0.0
C896 C 0.56341 0.46517 0.635 0.0
C897 C 0.56195 0.42788 0.69658 0.0
N898 N 0.60416 0.50418 0.64176 0.0
N899 N 0.58117 0.44565 0.67468 0.0
H900 H 0.6191 0.11896 0.62115 0.0
H901 H 0.56482 0.18954 0.7183 0.0
H902 H 0.65438 0.18555 0.70663 0.0
H903 H 0.53096 0.12172 0.65136 0.0
H904 H 0.59858 0.19212 0.6639 0.0
H905 H 0.58882 0.12372 0.57813 0.0
C906 C 0.62078 0.13487 0.62716 0.0
C907 C 0.63915 0.15186 0.6678 0.0
C908 C 0.58364 0.17684 0.6579 0.0
C909 C 0.60409 0.15719 0.62368 0.0
C910 C 0.56434 0.17544 0.68796 0.0
C911 C 0.54517 0.1554 0.68885 0.0
C912 C 0.58365 0.15799 0.62942 0.0
C913 C 0.54544 0.13748 0.65124 0.0
C914 C 0.60338 0.13755 0.60366 0.0
C915 C 0.64047 0.17208 0.67522 0.0
N916 N 0.56442 0.13911 0.62445 0.0
N917 N 0.62289 0.17405 0.65594 0.0
H918 H 0.48902 0.86769 0.21551 0.0
H919 H 0.4486 0.94769 0.34321 0.0
H920 H 0.53045 0.92923 0.34323 0.0
H921 H 0.40487 0.88007 0.2913 0.0
H922 H 0.47768 0.93976 0.36906 0.0
H923 H 0.45749 0.86992 0.26451 0.0
C924 C 0.49146 0.88147 0.25574 0.0
C925 C 0.51242 0.89842 0.27446 0.0
C926 C 0.46161 0.9265 0.35475 0.0
C927 C 0.47628 0.90134 0.32915 0.0
C928 C 0.44494 0.93101 0.34073 0.0
C929 C 0.42433 0.91453 0.31452 0.0
C930 C 0.45782 0.90542 0.34011 0.0
C931 C 0.42051 0.89325 0.31155 0.0
C932 C 0.47341 0.88274 0.28378 0.0
C933 C 0.51459 0.91583 0.32713 0.0
N934 N 0.43724 0.88938 0.32157 0.0
N935 N 0.49677 0.91708 0.35083 0.0
H936 H 0.115 0.61909 0.34957 0.0
H937 H 0.18245 0.56019 0.2717 0.0
H938 H 0.18214 0.65246 0.27283 0.0
H939 H 0.11427 0.52871 0.32926 0.0
H940 H 0.18591 0.59486 0.31937 0.0
H941 H 0.11799 0.58777 0.39277 0.0
C942 C 0.13061 0.62007 0.34508 0.0
C943 C 0.14831 0.63828 0.30723 0.0
C944 C 0.17032 0.58026 0.32442 0.0
C945 C 0.15166 0.60203 0.35191 0.0
C946 C 0.1684 0.56044 0.2981 0.0
C947 C 0.148 0.54166 0.29587 0.0
C948 C 0.15169 0.58115 0.34859 0.0
C949 C 0.13026 0.54288 0.32944 0.0
C950 C 0.1323 0.6021 0.36883 0.0
C951 C 0.16813 0.63869 0.30202 0.0
N952 N 0.13244 0.5623 0.35297 0.0
N953 N 0.16915 0.62058 0.32166 0.0
H954 H 0.50219 0.6491 0.31227 0.0
H955 H 0.44113 0.52205 0.34958 0.0
H956 H 0.53204 0.6108 0.36638 0.0
H957 H 0.4096 0.55794 0.27982 0.0
H958 H 0.47201 0.55526 0.40606 0.0
H959 H 0.46682 0.61778 0.3491 0.0
C960 C 0.50141 0.63441 0.33602 0.0
C961 C 0.51996 0.63238 0.3353 0.0
C962 C 0.45817 0.55592 0.38064 0.0
C963 C 0.47968 0.59645 0.37541 0.0
C964 C 0.44046 0.53689 0.34908 0.0
C965 C 0.42293 0.53735 0.30963 0.0
C966 C 0.4587 0.57574 0.36991 0.0
C967 C 0.42286 0.55697 0.30995 0.0
C968 C 0.48119 0.61644 0.35599 0.0
C969 C 0.51806 0.61293 0.36537 0.0
N970 N 0.44076 0.57555 0.33731 0.0
N971 N 0.49827 0.59564 0.38254 0.0
H972 H 0.5404 0.73536 0.10947 0.0
H973 H 0.60296 0.86038 0.00424 0.0
H974 H 0.60522 0.77181 0.00538 0.0
H975 H 0.54052 0.82832 0.13317 0.0
H976 H 0.59816 0.82555 0.95833 0.0
H977 H 0.53477 0.76583 0.07484 0.0
C978 C 0.55307 0.74937 0.07529 0.0
C979 C 0.57334 0.75119 0.06041 0.0
C980 C 0.58517 0.82597 0.99466 0.0
C981 C 0.56724 0.78615 0.02259 0.0
C982 C 0.5878 0.84596 0.01985 0.0
C983 C 0.57205 0.84728 0.07195 0.0
C984 C 0.567 0.80693 0.0248 0.0
C985 C 0.55298 0.82799 0.0924 0.0
C986 C 0.54995 0.76687 0.05662 0.0
C987 C 0.58938 0.76982 0.0179 0.0
N988 N 0.55121 0.80852 0.07082 0.0
N989 N 0.5861 0.78666 0.00174 0.0
H990 H 0.32022 0.83834 0.06344 0.0
H991 H 0.19406 0.7781 0.98559 0.0
H992 H 0.28274 0.86909 0.0098 0.0
H993 H 0.22843 0.74543 0.0618 0.0
H994 H 0.22822 0.80974 0.94295 0.0
H995 H 0.28945 0.80356 0.01489 0.0
C996 C 0.30585 0.83792 0.03773 0.0
C997 C 0.30387 0.85651 0.04125 0.0
C998 C 0.22837 0.7955 0.96662 0.0
C999 C 0.26859 0.81689 0.9875 0.0
C1000 C 0.2088 0.77734 0.99003 0.0
C1001 C 0.20849 0.75924 0.02762 0.0
C1002 C 0.24789 0.79585 0.9836 0.0
C1003 C 0.22803 0.75911 0.03279 0.0
C1004 C 0.28821 0.81804 0.0109 0.0
C1005 C 0.28483 0.85507 0.00857 0.0
N1006 N 0.24706 0.7774 0.0135 0.0
N1007 N 0.26785 0.83559 0.98447 0.0
H1008 H 0.32006 0.51355 0.04446 0.0
H1009 H 0.19424 0.44921 0.95913 0.0
H1010 H 0.28201 0.44555 0.98323 0.0
H1011 H 0.22902 0.5158 0.04512 0.0
H1012 H 0.22832 0.45159 0.91507 0.0
H1013 H 0.28982 0.51825 0.99566 0.0
C1014 C 0.30568 0.4998 0.01706 0.0
C1015 C 0.30336 0.47909 0.0186 0.0
C1016 C 0.22859 0.46594 0.94111 0.0
C1017 C 0.26868 0.4842 0.96444 0.0
C1018 C 0.20906 0.46462 0.96524 0.0
C1019 C 0.20889 0.4823 0.00608 0.0
C1020 C 0.24817 0.48488 0.96064 0.0
C1021 C 0.22852 0.50183 0.01351 0.0
C1022 C 0.28834 0.50243 0.99005 0.0
C1023 C 0.28434 0.46176 0.98366 0.0
N1024 N 0.24748 0.50245 0.99351 0.0
N1025 N 0.26765 0.46463 0.95943 0.0
H1026 H 0.99968 0.20255 0.15069 0.0
H1027 H 0.98859 0.1736 0.70431 0.0
H1028 H 0.06626 0.21864 0.12461 0.0
H1029 H 0.05438 0.22651 0.69693 0.0
H1030 H 0.99251 0.16944 0.86543 0.0
H1031 H 0.99366 0.19031 0.99388 0.0
C1032 C 0.0128 0.20277 0.11329 0.0
C1033 C 0.03346 0.21169 0.15106 0.0
C1034 C 1.00617 0.18171 0.82806 0.0
C1035 C 0.0269 0.19813 0.97087 0.0
C1036 C 1.00407 0.184 0.73595 0.0
C1037 C 0.02107 0.20079 0.68739 0.0
C1038 C 0.02543 0.19628 0.87163 0.0
C1039 C 0.04084 0.21346 0.73157 0.0
C1040 C 1.0094 0.1958 0.02344 0.0
C1041 C 0.05009 0.21213 0.09802 0.0
N1042 N 0.04237 0.21117 0.82177 0.0
N1043 N 0.04658 0.20598 0.01003 0.0
H1044 H 0.84759 0.88495 0.21701 0.0
H1045 H 0.83196 0.8603 0.76535 0.0
H1046 H 0.85691 0.82967 0.21548 0.0
H1047 H 0.88132 0.84258 0.78801 0.0
H1048 H 0.83691 0.87049 0.92462 0.0
H1049 H 0.85656 0.8901 0.0565 0.0
C1050 C 0.85203 0.87417 0.18352 0.0
C1051 C 0.85105 0.85653 0.2295 0.0
C1052 C 0.84719 0.86508 0.89392 0.0
C1053 C 0.86104 0.86227 0.04569 0.0
C1054 C 0.84438 0.8593 0.80258 0.0
C1055 C 0.85611 0.85046 0.76287 0.0
C1056 C 0.86156 0.8616 0.94609 0.0
C1057 C 0.87169 0.84909 0.81581 0.0
C1058 C 0.85696 0.87707 0.09175 0.0
C1059 C 0.85735 0.84339 0.18291 0.0
N1060 N 0.87353 0.854 0.90521 0.0
N1061 N 0.86179 0.84634 0.09298 0.0
H1062 H 0.23174 0.06752 0.24065 0.0
H1063 H 0.22232 0.0782 0.78679 0.0
H1064 H 0.18109 1.00109 0.2087 0.0
H1065 H 0.2078 0.01179 0.78669 0.0
H1066 H 0.21184 0.07486 0.94539 0.0
H1067 H 0.22827 0.07353 0.08141 0.0
C1068 C 0.21931 0.05443 0.2013 0.0
C1069 C 0.20691 0.03372 0.23807 0.0
C1070 C 0.21074 0.06097 0.91038 0.0
C1071 C 0.2031 0.04032 0.05511 0.0
C1072 C 0.21658 0.06276 0.8197 0.0
C1073 C 0.21643 0.04535 0.77394 0.0
C1074 C 0.20474 0.04163 0.95574 0.0
C1075 C 0.20835 0.02564 0.8194 0.0
C1076 C 0.21735 0.05784 0.10994 0.0
C1077 C 0.19127 0.01726 0.18288 0.0
N1078 N 0.20311 0.0244 0.90848 0.0
N1079 N 0.19026 0.02074 0.09359 0.0
H1080 H 0.06198 0.86059 0.78002 0.0
H1081 H 0.07116 0.88608 0.23109 0.0
H1082 H 0.99525 0.84409 0.80494 0.0
H1083 H 1.00676 0.83066 0.23101 0.0
H1084 H 0.06736 0.89126 0.07088 0.0
H1085 H 0.06733 0.87109 0.93892 0.0
C1086 C 0.04869 0.85998 0.81759 0.0
C1087 C 0.02817 0.85141 0.77867 0.0
C1088 C 0.05395 0.87822 0.1065 0.0
C1089 C 0.03395 0.86277 0.96154 0.0
C1090 C 0.05598 0.87529 0.19806 0.0
C1091 C 0.03935 0.85761 0.24433 0.0
C1092 C 0.03511 0.86342 0.06102 0.0
C1093 C 0.01997 0.84444 0.1983 0.0
C1094 C 0.05171 0.8659 0.90875 0.0
C1095 C 0.01134 0.8504 0.83218 0.0
N1096 N 0.01848 0.84744 0.1086 0.0
N1097 N 0.01444 0.85541 0.92144 0.0
H1098 H 0.26397 0.28151 0.28549 0.0
H1099 H 0.19503 0.24383 0.87954 0.0
H1100 H 0.20577 0.28553 0.30245 0.0
H1101 H 0.26192 0.29205 0.83969 0.0
H1102 H 0.1968 0.25779 0.03285 0.0
H1103 H 0.26332 0.28412 0.12146 0.0
C1104 C 0.25132 0.28339 0.25478 0.0
C1105 C 0.23498 0.28343 0.30732 0.0
C1106 C 0.21084 0.26577 0.98931 0.0
C1107 C 0.23375 0.28567 0.1203 0.0
C1108 C 0.20986 0.2578 0.9023 0.0
C1109 C 0.22842 0.26676 0.84802 0.0
C1110 C 0.23071 0.28214 0.02252 0.0
C1111 C 0.2473 0.28476 0.88003 0.0
C1112 C 0.25101 0.28498 0.16139 0.0
C1113 C 0.2187 0.28552 0.26399 0.0
N1114 N 0.24821 0.29145 0.96675 0.0
N1115 N 0.21813 0.28596 0.17235 0.0
H1116 H 0.8562 0.05868 0.19805 0.0
H1117 H 0.82883 1.00332 0.7425 0.0
H1118 H 0.84333 0.99294 0.18035 0.0
H1119 H 0.88095 0.06939 0.76062 0.0
H1120 H 0.8344 0.99832 0.90092 0.0
H1121 H 0.86657 0.06362 0.03922 0.0
C1122 C 0.85638 0.04558 0.16217 0.0
C1123 C 0.84894 0.02544 0.20322 0.0
C1124 C 0.84502 0.01371 0.86927 0.0
C1125 C 0.85961 0.03056 0.01987 0.0
C1126 C 0.84197 0.0165 0.77838 0.0
C1127 C 0.85435 0.03678 0.73783 0.0
C1128 C 0.8601 0.03151 0.92032 0.0
C1129 C 0.87078 0.05352 0.78928 0.0
C1130 C 0.86208 0.04831 0.07095 0.0
C1131 C 0.84875 0.00872 0.15146 0.0
N1132 N 0.87279 0.0507 0.87849 0.0
N1133 N 0.85341 0.01146 0.06186 0.0
H1134 H 0.66411 0.51328 0.11444 0.0
H1135 H 0.67289 0.53922 0.56535 0.0
H1136 H 0.72832 0.569 0.113 0.0
H1137 H 0.73996 0.55696 0.54051 0.0
H1138 H 0.66771 0.52871 0.40638 0.0
H1139 H 0.66795 0.50863 0.27513 0.0
C1140 C 0.67925 0.52424 0.14725 0.0
C1141 C 0.6958 0.54187 0.10035 0.0
C1142 C 0.68339 0.5342 0.43657 0.0
C1143 C 0.70008 0.53668 0.28433 0.0
C1144 C 0.68631 0.54014 0.52774 0.0
C1145 C 0.70685 0.54904 0.56678 0.0
C1146 C 0.70125 0.5376 0.38387 0.0
C1147 C 0.72384 0.55039 0.51326 0.0
C1148 C 0.6813 0.52164 0.23913 0.0
C1149 C 0.71514 0.55528 0.14621 0.0
N1150 N 0.7208 0.54531 0.42403 0.0
N1151 N 0.71665 0.55258 0.2362 0.0
H1152 H 0.46575 0.18022 0.53657 0.0
H1153 H 0.54214 0.2 0.11134 0.0
H1154 H 0.52663 0.18128 0.54628 0.0
H1155 H 0.4745 0.17985 0.0898 0.0
H1156 H 0.54033 0.20505 0.27368 0.0
H1157 H 0.47229 0.19048 0.3776 0.0
C1158 C 0.48067 0.18293 0.50571 0.0
C1159 C 0.4956 0.17969 0.55465 0.0
C1160 C 0.52601 0.20007 0.23318 0.0
C1161 C 0.50319 0.19156 0.3726 0.0
C1162 C 0.52708 0.19742 0.14032 0.0
C1163 C 0.50835 0.18916 0.08724 0.0
C1164 C 0.50606 0.19439 0.27333 0.0
C1165 C 0.48931 0.1862 0.12818 0.0
C1166 C 0.48435 0.18877 0.41486 0.0
C1167 C 0.51461 0.18341 0.51093 0.0
N1168 N 0.48852 0.18835 0.21934 0.0
N1169 N 0.51779 0.18901 0.42221 0.0
H1170 H 0.87285 0.33375 0.07641 0.0
H1171 H 0.84697 0.32488 0.52656 0.0
H1172 H 0.8894 0.40059 0.10069 0.0
H1173 H 0.90217 0.38946 0.52865 0.0
H1174 H 0.8421 0.32864 0.36605 0.0
H1175 H 0.86243 0.32859 0.23531 0.0
C1176 C 0.87351 0.34711 0.11387 0.0
C1177 C 0.88204 0.36759 0.0747 0.0
C1178 C 0.85504 0.34208 0.40214 0.0
C1179 C 0.87074 0.36202 0.25757 0.0
C1180 C 0.85778 0.34008 0.4939 0.0
C1181 C 0.87535 0.35675 0.54085 0.0
C1182 C 0.8699 0.36093 0.35709 0.0
C1183 C 0.88853 0.37617 0.49527 0.0
C1184 C 0.86763 0.3442 0.205 0.0
C1185 C 0.8831 0.38452 0.12806 0.0
N1186 N 0.88572 0.37762 0.40532 0.0
N1187 N 0.87811 0.38151 0.2173 0.0
H1188 H 0.72656 0.18933 0.08512 0.0
H1189 H 0.73783 0.21614 0.53504 0.0
H1190 H 0.66136 0.1776 0.11038 0.0
H1191 H 0.6718 0.16363 0.5365 0.0
H1192 H 0.73445 0.22151 0.37463 0.0
H1193 H 0.73271 0.20023 0.24348 0.0
C1194 C 0.71383 0.18986 0.1226 0.0
C1195 C 0.69346 0.18251 0.08396 0.0
C1196 C 0.72061 0.20909 0.41067 0.0
C1197 C 0.70011 0.19432 0.26625 0.0
C1198 C 0.72242 0.20606 0.50234 0.0
C1199 C 0.70515 0.18908 0.54911 0.0
C1200 C 0.70137 0.19512 0.36565 0.0
C1201 C 0.68551 0.17684 0.50344 0.0
C1202 C 0.7173 0.19601 0.21345 0.0
C1203 C 0.6773 0.18293 0.13742 0.0
N1204 N 0.68424 0.17992 0.41369 0.0
N1205 N 0.68078 0.18811 0.22643 0.0
H1206 H 0.88578 0.51127 0.099 0.0
H1207 H 0.90206 0.53708 0.54969 0.0
H1208 H 0.87562 0.56602 0.10057 0.0
H1209 H 0.85121 0.55274 0.5282 0.0
H1210 H 0.89699 0.52653 0.39082 0.0
H1211 H 0.877 0.50616 0.25972 0.0
C1212 C 0.88119 0.52193 0.13249 0.0
C1213 C 0.88187 0.53943 0.08644 0.0
C1214 C 0.88642 0.53155 0.42175 0.0
C1215 C 0.87204 0.53368 0.27037 0.0
C1216 C 0.88928 0.5375 0.51288 0.0
C1217 C 0.87713 0.54586 0.55275 0.0
C1218 C 0.87161 0.53442 0.36992 0.0
C1219 C 0.86115 0.54661 0.50021 0.0
C1220 C 0.87635 0.51904 0.22435 0.0
C1221 C 0.87539 0.55241 0.13312 0.0
N1222 N 0.85928 0.54157 0.41094 0.0
N1223 N 0.87102 0.54945 0.22308 0.0
H1224 H 0.50537 0.34281 0.10746 0.0
H1225 H 0.52559 0.39779 0.56558 0.0
H1226 H 0.54902 0.41161 0.12846 0.0
H1227 H 0.52095 0.33526 0.54551 0.0
H1228 H 0.53602 0.40405 0.40692 0.0
H1229 H 0.51205 0.33915 0.26609 0.0
C1230 C 0.51686 0.35702 0.1442 0.0
C1231 C 0.52637 0.37753 0.1045 0.0
C1232 C 0.53334 0.38922 0.43807 0.0
C1233 C 0.53351 0.37361 0.28679 0.0
C1234 C 0.5276 0.38575 0.52919 0.0
C1235 C 0.52236 0.36601 0.56936 0.0
C1236 C 0.53315 0.37255 0.38634 0.0
C1237 C 0.52457 0.35066 0.51716 0.0
C1238 C 0.52061 0.35496 0.23508 0.0
C1239 C 0.54097 0.39548 0.15652 0.0
N1240 N 0.52922 0.35399 0.42772 0.0
N1241 N 0.54364 0.39319 0.24557 0.0
H1242 H 0.32702 0.84775 0.46207 0.0
H1243 H 0.33583 0.8733 0.91163 0.0
H1244 H 0.39152 0.90303 0.46042 0.0
H1245 H 0.40264 0.88997 0.88918 0.0
H1246 H 0.33085 0.86306 0.75252 0.0
H1247 H 0.33098 0.8427 0.62217 0.0
C1248 C 0.34225 0.85854 0.49479 0.0
C1249 C 0.35881 0.8762 0.44822 0.0
C1250 C 0.34641 0.86825 0.78323 0.0
C1251 C 0.36321 0.87059 0.63153 0.0
C1252 C 0.34922 0.87402 0.87452 0.0
C1253 C 0.36962 0.88249 0.91439 0.0
C1254 C 0.36428 0.87142 0.73109 0.0
C1255 C 0.38661 0.88368 0.86133 0.0
C1256 C 0.34437 0.8557 0.58631 0.0
C1257 C 0.37829 0.88934 0.49369 0.0
N1258 N 0.38371 0.8788 0.77189 0.0
N1259 N 0.37984 0.88647 0.58352 0.0
H1260 H 0.18021 0.55157 0.87338 0.0
H1261 H 0.16332 0.52513 0.42387 0.0
H1262 H 0.19012 0.49666 0.87287 0.0
H1263 H 0.21424 0.50956 0.44423 0.0
H1264 H 0.16859 0.53581 0.58252 0.0
H1265 H 0.18895 0.55651 0.7126 0.0
C1266 C 0.18476 0.54085 0.84011 0.0
C1267 C 0.18398 0.52334 0.88644 0.0
C1268 C 0.17914 0.53078 0.55138 0.0
C1269 C 0.19375 0.52887 0.70245 0.0
C1270 C 0.17617 0.52477 0.46034 0.0
C1271 C 0.18831 0.51645 0.42014 0.0
C1272 C 0.19403 0.52799 0.6029 0.0
C1273 C 0.20433 0.5157 0.47242 0.0
C1274 C 0.18957 0.54363 0.74821 0.0
C1275 C 0.1904 0.51027 0.84006 0.0
N1276 N 0.20631 0.5208 0.56166 0.0
N1277 N 0.19473 0.51312 0.75004 0.0
H1278 H 0.56128 0.72014 0.92692 0.0
H1279 H 0.54569 0.72853 0.47662 0.0
H1280 H 0.51455 0.65221 0.89975 0.0
H1281 H 0.53955 0.66522 0.47355 0.0
H1282 H 0.5362 0.72411 0.63667 0.0
H1283 H 0.55597 0.72511 0.76844 0.0
C1284 C 0.54932 0.70645 0.88892 0.0
C1285 C 0.53848 0.68576 0.92705 0.0
C1286 C 0.53661 0.71108 0.6005 0.0
C1287 C 0.53264 0.69116 0.74464 0.0
C1288 C 0.54185 0.71346 0.50901 0.0
C1289 C 0.54386 0.69736 0.46195 0.0
C1290 C 0.53329 0.69244 0.64518 0.0
C1291 C 0.5383 0.67806 0.50704 0.0
C1292 C 0.5463 0.70926 0.798 0.0
C1293 C 0.52349 0.66846 0.87311 0.0
N1294 N 0.53356 0.67626 0.59676 0.0
N1295 N 0.52147 0.67143 0.78407 0.0
H1296 H 0.33502 0.49229 0.89093 0.0
H1297 H 0.39062 0.52225 0.43407 0.0
H1298 H 0.40082 0.54487 0.87395 0.0
H1299 H 0.3239 0.50598 0.45468 0.0
H1300 H 0.39538 0.53222 0.59361 0.0
H1301 H 0.32989 0.49789 0.73282 0.0
C1302 C 0.34812 0.50552 0.85535 0.0
C1303 C 0.36834 0.51806 0.8962 0.0
C1304 C 0.37986 0.52705 0.56241 0.0
C1305 C 0.36294 0.52387 0.71387 0.0
C1306 C 0.3772 0.52151 0.47088 0.0
C1307 C 0.35685 0.51314 0.43052 0.0
C1308 C 0.36189 0.52357 0.61427 0.0
C1309 C 0.33985 0.51206 0.48306 0.0
C1310 C 0.34526 0.50861 0.76459 0.0
C1311 C 0.38499 0.5346 0.84506 0.0
N1312 N 0.34259 0.51663 0.57276 0.0
N1313 N 0.3821 0.53666 0.75595 0.0
H1314 H 0.60969 0.95015 0.91573 0.0
H1315 H 0.56082 0.86717 0.5164 0.0
H1316 H 0.60443 0.88748 0.91316 0.0
H1317 H 0.58589 0.9353 0.47092 0.0
H1318 H 0.57611 0.87549 0.6673 0.0
H1319 H 0.605 0.94792 0.75193 0.0
C1320 C 0.60893 0.9365 0.87999 0.0
C1321 C 0.60664 0.91857 0.92761 0.0
C1322 C 0.57824 0.88866 0.62457 0.0
C1323 C 0.60051 0.91553 0.74267 0.0
C1324 C 0.56908 0.88386 0.5392 0.0
C1325 C 0.57217 0.90056 0.4811 0.0
C1326 C 0.59043 0.91033 0.6526 0.0
C1327 C 0.58302 0.92192 0.51396 0.0
C1328 C 0.60572 0.93501 0.78673 0.0
C1329 C 0.60581 0.90139 0.87859 0.0
N1330 N 0.59194 0.92625 0.59775 0.0
N1331 N 0.6019 0.89986 0.7888 0.0
H1332 H 0.1644 0.67042 0.43764 0.0
H1333 H 0.19291 0.72702 0.89702 0.0
H1334 H 0.2151 0.73712 0.45721 0.0
H1335 H 0.17694 0.6603 0.87594 0.0
H1336 H 0.20283 0.73173 0.7373 0.0
H1337 H 0.16977 0.66572 0.59676 0.0
C1338 C 0.17713 0.68386 0.47418 0.0
C1339 C 0.18913 0.70421 0.43382 0.0
C1340 C 0.19769 0.71622 0.76844 0.0
C1341 C 0.19476 0.69921 0.61683 0.0
C1342 C 0.19217 0.71358 0.85998 0.0
C1343 C 0.18385 0.69322 0.90013 0.0
C1344 C 0.19433 0.69823 0.71652 0.0
C1345 C 0.18293 0.67624 0.84764 0.0
C1346 C 0.1801 0.68123 0.56539 0.0
C1347 C 0.20519 0.72119 0.48571 0.0
N1348 N 0.18752 0.67896 0.75805 0.0
N1349 N 0.20715 0.71847 0.57506 0.0
loop_
_geom_bond_atom_site_label_1
_geom_bond_atom_site_label_2
_geom_bond_distance
_geom_bond_site_symmetry_2
_ccdc_geom_bond_type
Zn0 O6 1.903 1_655 S
Zn0 O12 1.898 . S
Zn0 O15 1.905 . S
Zn1 O9 1.905 . S
Zn1 O10 1.898 . S
Zn1 O18 1.920 . S
Zn2 O5 2.080 . S
Zn2 O8 2.114 . S
Zn2 O11 2.120 . S
Zn2 O13 2.120 1_455 S
Zn2 O14 2.114 1_455 S
Zn2 O17 2.080 . S
C3 O8 1.166 . S
C3 O9 1.182 . S
C4 O10 1.167 . S
C4 O11 1.299 . S
O5 Zn2 2.080 . S
O5 C19 1.305 . S
O6 Zn0 1.903 1_455 S
O6 C19 1.250 . S
C7 O12 1.167 . S
C7 O13 1.299 . S
O8 Zn2 2.114 . S
O8 C3 1.166 . S
O9 Zn1 1.905 . S
O9 C3 1.182 . S
O10 Zn1 1.898 . S
O10 C4 1.167 . S
O11 Zn2 2.120 . S
O11 C4 1.299 . S
O12 Zn0 1.898 . S
O12 C7 1.167 . S
O13 Zn2 2.120 1_655 S
O13 C7 1.299 . S
O14 Zn2 2.114 1_655 S
O14 C16 1.166 . S
O15 Zn0 1.905 . S
O15 C16 1.182 . S
C16 O14 1.166 . S
C16 O15 1.182 . S
O17 Zn2 2.080 . S
O17 C20 1.305 . S
O18 Zn1 1.920 . S
O18 C20 1.234 . S
C19 O5 1.305 . S
C19 O6 1.250 . S
C20 O17 1.305 . S
C20 O18 1.234 . S
Zn21 O27 1.920 . S
Zn21 O33 1.898 . S
Zn21 O36 1.905 . S
Zn22 O30 1.905 . S
Zn22 O31 1.898 . S
Zn22 O39 1.920 . S
Zn23 O26 2.080 . S
Zn23 O29 2.114 . S
Zn23 O32 2.120 . S
Zn23 O34 2.120 . S
Zn23 O35 2.114 . S
Zn23 O38 2.080 . S
C24 O29 1.166 . S
C24 O30 1.182 . S
C25 O31 1.167 . S
C25 O32 1.299 . S
O26 Zn23 2.080 . S
O26 C40 1.305 . S
O27 Zn21 1.920 . S
O27 C40 1.234 . S
C28 O33 1.167 . S
C28 O34 1.299 . S
O29 Zn23 2.114 . S
O29 C24 1.166 . S
O30 Zn22 1.905 . S
O30 C24 1.182 . S
O31 Zn22 1.898 . S
O31 C25 1.167 . S
O32 Zn23 2.120 . S
O32 C25 1.299 . S
O33 Zn21 1.898 . S
O33 C28 1.167 . S
O34 Zn23 2.120 . S
O34 C28 1.299 . S
O35 Zn23 2.114 . S
O35 C37 1.166 . S
O36 Zn21 1.905 . S
O36 C37 1.182 . S
C37 O35 1.166 . S
C37 O36 1.182 . S
O38 Zn23 2.080 . S
O38 C41 1.305 . S
O39 Zn22 1.920 . S
O39 C41 1.234 . S
C40 O26 1.305 . S
C40 O27 1.234 . S
C41 O38 1.305 . S
C41 O39 1.234 . S
Zn42 O48 1.920 1_565 S
Zn42 O54 1.898 . S
Zn42 O57 1.905 . S
Zn43 O51 1.905 . S
Zn43 O52 1.898 . S
Zn43 O60 1.920 . S
Zn44 O47 2.080 . S
Zn44 O50 2.114 . S
Zn44 O53 2.120 . S
Zn44 O55 2.120 . S
Zn44 O56 2.114 . S
Zn44 O59 2.080 . S
C45 O50 1.166 . S
C45 O51 1.182 . S
C46 O52 1.167 . S
C46 O53 1.299 . S
O47 Zn44 2.080 . S
O47 C61 1.305 . S
O48 Zn42 1.920 1_545 S
O48 C61 1.234 . S
C49 O54 1.167 . S
C49 O55 1.299 1_565 S
O50 Zn44 2.114 . S
O50 C45 1.166 . S
O51 Zn43 1.905 . S
O51 C45 1.182 . S
O52 Zn43 1.898 . S
O52 C46 1.167 . S
O53 Zn44 2.120 . S
O53 C46 1.299 . S
O54 Zn42 1.898 . S
O54 C49 1.167 . S
O55 Zn44 2.120 . S
O55 C49 1.299 1_545 S
O56 Zn44 2.114 . S
O56 C58 1.166 1_545 S
O57 Zn42 1.905 . S
O57 C58 1.182 . S
C58 O56 1.166 1_565 S
C58 O57 1.182 . S
O59 Zn44 2.080 . S
O59 C62 1.305 . S
O60 Zn43 1.920 . S
O60 C62 1.234 . S
C61 O47 1.305 . S
C61 O48 1.234 . S
C62 O59 1.305 . S
C62 O60 1.234 . S
Zn63 O69 1.920 . S
Zn63 O75 1.898 . S
Zn63 O78 1.905 . S
Zn64 O72 1.905 1_655 S
Zn64 O73 1.898 . S
Zn64 O81 1.920 . S
Zn65 O68 2.080 . S
Zn65 O71 2.114 . S
Zn65 O74 2.120 1_455 S
Zn65 O76 2.120 . S
Zn65 O77 2.114 . S
Zn65 O80 2.033 1_455 S
C66 O71 1.166 . S
C66 O72 1.182 . S
C67 O73 1.167 . S
C67 O74 1.299 . S
O68 Zn65 2.080 . S
O68 C82 1.305 . S
O69 Zn63 1.920 . S
O69 C82 1.234 . S
C70 O75 1.167 . S
C70 O76 1.299 . S
O71 Zn65 2.114 . S
O71 C66 1.166 . S
O72 Zn64 1.905 1_455 S
O72 C66 1.182 . S
O73 Zn64 1.898 . S
O73 C67 1.167 . S
O74 Zn65 2.120 1_655 S
O74 C67 1.299 . S
O75 Zn63 1.898 . S
O75 C70 1.167 . S
O76 Zn65 2.120 . S
O76 C70 1.299 . S
O77 Zn65 2.114 . S
O77 C79 1.166 . S
O78 Zn63 1.905 . S
O78 C79 1.182 . S
C79 O77 1.166 . S
C79 O78 1.182 . S
O80 Zn65 2.033 1_655 S
O80 C83 1.351 . S
O81 Zn64 1.920 . S
O81 C83 1.234 . S
C82 O68 1.305 . S
C82 O69 1.234 . S
C83 O80 1.351 . S
C83 O81 1.234 . S
Zn84 O90 1.920 . S
Zn84 O96 1.898 . S
Zn84 O99 1.905 . S
Zn85 O93 1.905 . S
Zn85 O94 1.898 . S
Zn85 O102 1.920 . S
Zn86 O89 2.080 . S
Zn86 O92 2.114 . S
Zn86 O95 2.120 . S
Zn86 O97 2.120 . S
Zn86 O98 2.114 . S
Zn86 O101 2.080 . S
C87 O92 1.166 . S
C87 O93 1.182 . S
C88 O94 1.167 . S
C88 O95 1.299 . S
O89 Zn86 2.080 . S
O89 C103 1.305 . S
O90 Zn84 1.920 . S
O90 C103 1.234 . S
C91 O96 1.167 . S
C91 O97 1.299 . S
O92 Zn86 2.114 . S
O92 C87 1.166 . S
O93 Zn85 1.905 . S
O93 C87 1.182 . S
O94 Zn85 1.898 . S
O94 C88 1.167 . S
O95 Zn86 2.120 . S
O95 C88 1.299 . S
O96 Zn84 1.898 . S
O96 C91 1.167 . S
O97 Zn86 2.120 . S
O97 C91 1.299 . S
O98 Zn86 2.114 . S
O98 C100 1.166 . S
O99 Zn84 1.905 . S
O99 C100 1.182 . S
C100 O98 1.166 . S
C100 O99 1.182 . S
O101 Zn86 2.080 . S
O101 C104 1.305 . S
O102 Zn85 1.920 . S
O102 C104 1.234 . S
C103 O89 1.305 . S
C103 O90 1.234 . S
C104 O101 1.305 . S
C104 O102 1.234 . S
Zn105 O111 1.920 . S
Zn105 O117 1.898 . S
Zn105 O120 1.905 1_565 S
Zn106 O114 1.905 . S
Zn106 O115 1.898 . S
Zn106 O123 1.920 . S
Zn107 O110 2.080 . S
Zn107 O113 2.114 . S
Zn107 O116 2.120 . S
Zn107 O118 2.125 . S
Zn107 O119 2.114 . S
Zn107 O122 2.080 . S
C108 O113 1.166 . S
C108 O114 1.182 . S
C109 O115 1.167 . S
C109 O116 1.299 . S
O110 Zn107 2.080 . S
O110 C124 1.305 1_545 S
O111 Zn105 1.920 . S
O111 C124 1.234 . S
C112 O117 1.167 . S
C112 O118 1.298 1_565 S
O113 Zn107 2.114 . S
O113 C108 1.166 . S
O114 Zn106 1.905 . S
O114 C108 1.182 . S
O115 Zn106 1.898 . S
O115 C109 1.167 . S
O116 Zn107 2.120 . S
O116 C109 1.299 . S
O117 Zn105 1.898 . S
O117 C112 1.167 . S
O118 Zn107 2.125 . S
O118 C112 1.298 1_545 S
O119 Zn107 2.114 . S
O119 C121 1.166 . S
O120 Zn105 1.905 1_545 S
O120 C121 1.182 . S
C121 O119 1.166 . S
C121 O120 1.182 . S
O122 Zn107 2.080 . S
O122 C125 1.305 . S
O123 Zn106 1.920 . S
O123 C125 1.234 . S
C124 O110 1.305 1_565 S
C124 O111 1.234 . S
C125 O122 1.305 . S
C125 O123 1.234 . S
Zn126 O132 1.920 . S
Zn126 O138 1.898 . S
Zn126 O141 1.905 . S
Zn127 O135 1.906 . S
Zn127 O136 1.900 . S
Zn127 O144 1.918 1_556 S
Zn128 O131 2.080 . S
Zn128 O134 2.114 . S
Zn128 O137 2.120 . S
Zn128 O139 2.120 . S
Zn128 O140 2.114 . S
Zn128 O143 2.080 . S
C129 O134 1.166 . S
C129 O135 1.182 . S
C130 O136 1.167 . S
C130 O137 1.299 . S
O131 Zn128 2.080 . S
O131 C145 1.305 . S
O132 Zn126 1.920 . S
O132 C145 1.234 . S
C133 O138 1.167 . S
C133 O139 1.299 . S
O134 Zn128 2.114 . S
O134 C129 1.166 . S
O135 Zn127 1.906 . S
O135 C129 1.182 . S
O136 Zn127 1.900 . S
O136 C130 1.167 . S
O137 Zn128 2.120 . S
O137 C130 1.299 . S
O138 Zn126 1.898 . S
O138 C133 1.167 . S
O139 Zn128 2.120 . S
O139 C133 1.299 . S
O140 Zn128 2.114 . S
O140 C142 1.166 . S
O141 Zn126 1.905 . S
O141 C142 1.182 . S
C142 O140 1.166 . S
C142 O141 1.182 . S
O143 Zn128 2.080 . S
O143 C146 1.305 1_556 S
O144 Zn127 1.918 1_554 S
O144 C146 1.234 . S
C145 O131 1.305 . S
C145 O132 1.234 . S
C146 O143 1.305 1_554 S
C146 O144 1.234 . S
Zn147 O153 1.920 . S
Zn147 O159 1.898 . S
Zn147 O162 1.905 . S
Zn148 O156 1.907 . S
Zn148 O157 1.904 . S
Zn148 O165 1.914 1_556 S
Zn149 O152 2.080 . S
Zn149 O155 2.114 . S
Zn149 O158 2.120 . S
Zn149 O160 2.120 . S
Zn149 O161 2.114 . S
Zn149 O164 2.080 . S
C150 O155 1.166 . S
C150 O156 1.182 . S
C151 O157 1.167 . S
C151 O158 1.299 . S
O152 Zn149 2.080 . S
O152 C166 1.305 . S
O153 Zn147 1.920 . S
O153 C166 1.234 . S
C154 O159 1.167 . S
C154 O160 1.299 . S
O155 Zn149 2.114 . S
O155 C150 1.166 . S
O156 Zn148 1.907 . S
O156 C150 1.182 . S
O157 Zn148 1.904 . S
O157 C151 1.167 . S
O158 Zn149 2.120 . S
O158 C151 1.299 . S
O159 Zn147 1.898 . S
O159 C154 1.167 . S
O160 Zn149 2.120 . S
O160 C154 1.299 . S
O161 Zn149 2.114 . S
O161 C163 1.166 . S
O162 Zn147 1.905 . S
O162 C163 1.182 . S
C163 O161 1.166 . S
C163 O162 1.182 . S
O164 Zn149 2.080 . S
O164 C167 1.305 1_556 S
O165 Zn148 1.914 1_554 S
O165 C167 1.234 . S
C166 O152 1.305 . S
C166 O153 1.234 . S
C167 O164 1.305 1_554 S
C167 O165 1.234 . S
Zn168 O174 1.916 1_556 S
Zn168 O180 1.902 . S
Zn168 O183 1.907 . S
Zn169 O177 1.905 . S
Zn169 O178 1.898 . S
Zn169 O186 1.920 . S
Zn170 O173 2.080 . S
Zn170 O176 2.114 . S
Zn170 O179 2.120 . S
Zn170 O181 2.120 . S
Zn170 O182 2.114 . S
Zn170 O185 2.080 . S
C171 O176 1.166 . S
C171 O177 1.182 . S
C172 O178 1.167 . S
C172 O179 1.299 . S
O173 Zn170 2.080 . S
O173 C187 1.305 1_556 S
O174 Zn168 1.916 1_554 S
O174 C187 1.234 . S
C175 O180 1.167 . S
C175 O181 1.299 . S
O176 Zn170 2.114 . S
O176 C171 1.166 . S
O177 Zn169 1.905 . S
O177 C171 1.182 . S
O178 Zn169 1.898 . S
O178 C172 1.167 . S
O179 Zn170 2.120 . S
O179 C172 1.299 . S
O180 Zn168 1.902 . S
O180 C175 1.167 . S
O181 Zn170 2.120 . S
O181 C175 1.299 . S
O182 Zn170 2.114 . S
O182 C184 1.166 . S
O183 Zn168 1.907 . S
O183 C184 1.182 . S
C184 O182 1.166 . S
C184 O183 1.182 . S
O185 Zn170 2.080 . S
O185 C188 1.305 . S
O186 Zn169 1.920 . S
O186 C188 1.234 . S
C187 O173 1.305 1_554 S
C187 O174 1.234 . S
C188 O185 1.305 . S
C188 O186 1.234 . S
Zn189 O195 1.920 . S
Zn189 O201 1.898 . S
Zn189 O204 1.905 . S
Zn190 O198 1.905 . S
Zn190 O199 1.898 . S
Zn190 O207 1.920 1_556 S
Zn191 O194 2.080 . S
Zn191 O197 2.114 . S
Zn191 O200 2.120 . S
Zn191 O202 2.120 . S
Zn191 O203 2.114 . S
Zn191 O206 2.080 . S
C192 O197 1.166 . S
C192 O198 1.182 . S
C193 O199 1.167 . S
C193 O200 1.299 . S
O194 Zn191 2.080 . S
O194 C208 1.305 . S
O195 Zn189 1.920 . S
O195 C208 1.234 . S
C196 O201 1.167 . S
C196 O202 1.299 . S
O197 Zn191 2.114 . S
O197 C192 1.166 . S
O198 Zn190 1.905 . S
O198 C192 1.182 . S
O199 Zn190 1.898 . S
O199 C193 1.167 . S
O200 Zn191 2.120 . S
O200 C193 1.299 . S
O201 Zn189 1.898 . S
O201 C196 1.167 . S
O202 Zn191 2.120 . S
O202 C196 1.299 . S
O203 Zn191 2.114 . S
O203 C205 1.166 . S
O204 Zn189 1.905 . S
O204 C205 1.182 . S
C205 O203 1.166 . S
C205 O204 1.182 . S
O206 Zn191 2.080 . S
O206 C209 1.305 1_556 S
O207 Zn190 1.920 1_554 S
O207 C209 1.234 . S
C208 O194 1.305 . S
C208 O195 1.234 . S
C209 O206 1.305 1_554 S
C209 O207 1.234 . S
Zn210 O216 1.920 . S
Zn210 O222 1.898 . S
Zn210 O225 1.905 . S
Zn211 O219 1.905 . S
Zn211 O220 1.898 . S
Zn211 O228 1.920 1_556 S
Zn212 O215 2.080 . S
Zn212 O218 2.114 . S
Zn212 O221 2.120 . S
Zn212 O223 2.120 . S
Zn212 O224 2.114 . S
Zn212 O227 2.080 . S
C213 O218 1.166 . S
C213 O219 1.182 . S
C214 O220 1.167 . S
C214 O221 1.299 . S
O215 Zn212 2.080 . S
O215 C229 1.305 . S
O216 Zn210 1.920 . S
O216 C229 1.234 . S
C217 O222 1.167 . S
C217 O223 1.299 . S
O218 Zn212 2.114 . S
O218 C213 1.166 . S
O219 Zn211 1.905 . S
O219 C213 1.182 . S
O220 Zn211 1.898 . S
O220 C214 1.167 . S
O221 Zn212 2.120 . S
O221 C214 1.299 . S
O222 Zn210 1.898 . S
O222 C217 1.167 . S
O223 Zn212 2.120 . S
O223 C217 1.299 . S
O224 Zn212 2.114 . S
O224 C226 1.166 . S
O225 Zn210 1.905 . S
O225 C226 1.182 . S
C226 O224 1.166 . S
C226 O225 1.182 . S
O227 Zn212 2.080 . S
O227 C230 1.305 1_556 S
O228 Zn211 1.920 1_554 S
O228 C230 1.234 . S
C229 O215 1.305 . S
C229 O216 1.234 . S
C230 O227 1.305 1_554 S
C230 O228 1.234 . S
Zn231 O237 1.920 . S
Zn231 O243 1.898 . S
Zn231 O246 1.905 . S
Zn232 O240 1.905 . S
Zn232 O241 1.898 . S
Zn232 O249 1.920 1_556 S
Zn233 O236 2.080 . S
Zn233 O239 2.114 . S
Zn233 O242 2.120 . S
Zn233 O244 2.120 . S
Zn233 O245 2.114 . S
Zn233 O248 2.080 . S
C234 O239 1.166 . S
C234 O240 1.182 . S
C235 O241 1.167 . S
C235 O242 1.299 . S
O236 Zn233 2.080 . S
O236 C250 1.305 . S
O237 Zn231 1.920 . S
O237 C250 1.234 . S
C238 O243 1.167 . S
C238 O244 1.299 . S
O239 Zn233 2.114 . S
O239 C234 1.166 . S
O240 Zn232 1.905 . S
O240 C234 1.182 . S
O241 Zn232 1.898 . S
O241 C235 1.167 . S
O242 Zn233 2.120 . S
O242 C235 1.299 . S
O243 Zn231 1.898 . S
O243 C238 1.167 . S
O244 Zn233 2.120 . S
O244 C238 1.299 . S
O245 Zn233 2.114 . S
O245 C247 1.166 . S
O246 Zn231 1.905 . S
O246 C247 1.182 . S
C247 O245 1.166 . S
C247 O246 1.182 . S
O248 Zn233 2.080 . S
O248 C251 1.305 1_556 S
O249 Zn232 1.920 1_554 S
O249 C251 1.234 . S
C250 O236 1.305 . S
C250 O237 1.234 . S
C251 O248 1.305 1_554 S
C251 O249 1.234 . S
Zn252 O258 1.920 . S
Zn252 O264 1.898 . S
Zn252 O267 1.905 . S
Zn253 O261 1.905 1_554 S
Zn253 O262 1.898 . S
Zn253 O270 1.920 . S
Zn254 O257 2.080 . S
Zn254 O260 2.114 . S
Zn254 O263 2.120 . S
Zn254 O265 2.120 . S
Zn254 O266 2.114 . S
Zn254 O269 2.080 . S
C255 O260 1.166 1_556 S
C255 O261 1.182 . S
C256 O262 1.167 . S
C256 O263 1.299 . S
O257 Zn254 2.080 . S
O257 C271 1.305 . S
O258 Zn252 1.920 . S
O258 C271 1.234 . S
C259 O264 1.167 . S
C259 O265 1.299 . S
O260 Zn254 2.114 . S
O260 C255 1.166 1_554 S
O261 Zn253 1.905 1_556 S
O261 C255 1.182 . S
O262 Zn253 1.898 . S
O262 C256 1.167 . S
O263 Zn254 2.120 . S
O263 C256 1.299 . S
O264 Zn252 1.898 . S
O264 C259 1.167 . S
O265 Zn254 2.120 . S
O265 C259 1.299 . S
O266 Zn254 2.114 . S
O266 C268 1.166 . S
O267 Zn252 1.905 . S
O267 C268 1.182 . S
C268 O266 1.166 . S
C268 O267 1.182 . S
O269 Zn254 2.080 . S
O269 C272 1.305 . S
O270 Zn253 1.920 . S
O270 C272 1.234 . S
C271 O257 1.305 . S
C271 O258 1.234 . S
C272 O269 1.305 . S
C272 O270 1.234 . S
Zn273 O279 1.920 . S
Zn273 O285 1.898 . S
Zn273 O288 1.905 . S
Zn274 O282 1.906 . S
Zn274 O283 1.901 . S
Zn274 O291 1.917 1_554 S
Zn275 O278 2.080 . S
Zn275 O281 2.114 . S
Zn275 O284 2.120 . S
Zn275 O286 2.120 . S
Zn275 O287 2.114 . S
Zn275 O290 2.080 . S
C276 O281 1.166 . S
C276 O282 1.182 . S
C277 O283 1.167 . S
C277 O284 1.299 . S
O278 Zn275 2.080 . S
O278 C292 1.305 . S
O279 Zn273 1.920 . S
O279 C292 1.234 . S
C280 O285 1.167 . S
C280 O286 1.299 . S
O281 Zn275 2.114 . S
O281 C276 1.166 . S
O282 Zn274 1.906 . S
O282 C276 1.182 . S
O283 Zn274 1.901 . S
O283 C277 1.167 . S
O284 Zn275 2.120 . S
O284 C277 1.299 . S
O285 Zn273 1.898 . S
O285 C280 1.167 . S
O286 Zn275 2.120 . S
O286 C280 1.299 . S
O287 Zn275 2.114 . S
O287 C289 1.166 . S
O288 Zn273 1.905 . S
O288 C289 1.182 . S
C289 O287 1.166 . S
C289 O288 1.182 . S
O290 Zn275 2.080 . S
O290 C293 1.305 1_554 S
O291 Zn274 1.917 1_556 S
O291 C293 1.234 . S
C292 O278 1.305 . S
C292 O279 1.234 . S
C293 O290 1.305 1_556 S
C293 O291 1.234 . S
Zn294 O300 1.917 1_554 S
Zn294 O306 1.902 . S
Zn294 O309 1.906 . S
Zn295 O303 1.905 . S
Zn295 O304 1.898 . S
Zn295 O312 1.920 . S
Zn296 O299 2.080 . S
Zn296 O302 2.114 . S
Zn296 O305 2.120 . S
Zn296 O307 2.120 . S
Zn296 O308 2.114 . S
Zn296 O311 2.080 . S
C297 O302 1.166 . S
C297 O303 1.182 . S
C298 O304 1.167 . S
C298 O305 1.299 . S
O299 Zn296 2.080 . S
O299 C313 1.305 1_554 S
O300 Zn294 1.917 1_556 S
O300 C313 1.234 . S
C301 O306 1.167 . S
C301 O307 1.299 . S
O302 Zn296 2.114 . S
O302 C297 1.166 . S
O303 Zn295 1.905 . S
O303 C297 1.182 . S
O304 Zn295 1.898 . S
O304 C298 1.167 . S
O305 Zn296 2.120 . S
O305 C298 1.299 . S
O306 Zn294 1.902 . S
O306 C301 1.167 . S
O307 Zn296 2.120 . S
O307 C301 1.299 . S
O308 Zn296 2.114 . S
O308 C310 1.166 . S
O309 Zn294 1.906 . S
O309 C310 1.182 . S
C310 O308 1.166 . S
C310 O309 1.182 . S
O311 Zn296 2.080 . S
O311 C314 1.305 . S
O312 Zn295 1.920 . S
O312 C314 1.234 . S
C313 O299 1.305 1_556 S
C313 O300 1.234 . S
C314 O311 1.305 . S
C314 O312 1.234 . S
Zn315 O321 1.920 . S
Zn315 O327 1.898 1_556 S
Zn315 O330 1.905 1_556 S
Zn316 O324 1.905 . S
Zn316 O325 1.898 . S
Zn316 O333 1.920 . S
Zn317 O320 2.080 . S
Zn317 O323 2.114 . S
Zn317 O326 2.120 . S
Zn317 O328 2.120 . S
Zn317 O329 2.114 . S
Zn317 O332 2.080 . S
C318 O323 1.166 . S
C318 O324 1.182 . S
C319 O325 1.167 . S
C319 O326 1.299 . S
O320 Zn317 2.080 . S
O320 C334 1.305 1_554 S
O321 Zn315 1.920 . S
O321 C334 1.234 . S
C322 O327 1.167 . S
C322 O328 1.299 . S
O323 Zn317 2.114 . S
O323 C318 1.166 . S
O324 Zn316 1.905 . S
O324 C318 1.182 . S
O325 Zn316 1.898 . S
O325 C319 1.167 . S
O326 Zn317 2.120 . S
O326 C319 1.299 . S
O327 Zn315 1.898 1_554 S
O327 C322 1.167 . S
O328 Zn317 2.120 . S
O328 C322 1.299 . S
O329 Zn317 2.114 . S
O329 C331 1.166 . S
O330 Zn315 1.905 1_554 S
O330 C331 1.182 . S
C331 O329 1.166 . S
C331 O330 1.182 . S
O332 Zn317 2.080 . S
O332 C335 1.305 . S
O333 Zn316 1.920 . S
O333 C335 1.234 . S
C334 O320 1.305 1_556 S
C334 O321 1.234 . S
C335 O332 1.305 . S
C335 O333 1.234 . S
Zn336 O342 1.920 . S
Zn336 O348 1.898 . S
Zn336 O351 1.905 . S
Zn337 O345 1.905 1_554 S
Zn337 O346 1.898 . S
Zn337 O354 1.920 . S
Zn338 O341 2.080 . S
Zn338 O344 2.114 . S
Zn338 O347 2.120 . S
Zn338 O349 2.120 . S
Zn338 O350 2.114 . S
Zn338 O353 2.080 . S
C339 O344 1.166 1_556 S
C339 O345 1.182 . S
C340 O346 1.167 . S
C340 O347 1.299 . S
O341 Zn338 2.080 . S
O341 C355 1.305 . S
O342 Zn336 1.920 . S
O342 C355 1.234 . S
C343 O348 1.167 . S
C343 O349 1.299 . S
O344 Zn338 2.114 . S
O344 C339 1.166 1_554 S
O345 Zn337 1.905 1_556 S
O345 C339 1.182 . S
O346 Zn337 1.898 . S
O346 C340 1.167 . S
O347 Zn338 2.120 . S
O347 C340 1.299 . S
O348 Zn336 1.898 . S
O348 C343 1.167 . S
O349 Zn338 2.120 . S
O349 C343 1.299 . S
O350 Zn338 2.114 . S
O350 C352 1.166 . S
O351 Zn336 1.905 . S
O351 C352 1.182 . S
C352 O350 1.166 . S
C352 O351 1.182 . S
O353 Zn338 2.080 . S
O353 C356 1.305 . S
O354 Zn337 1.920 . S
O354 C356 1.234 . S
C355 O341 1.305 . S
C355 O342 1.234 . S
C356 O353 1.305 . S
C356 O354 1.234 . S
Zn357 O363 1.920 . S
Zn357 O369 1.898 . S
Zn357 O372 1.905 1_554 S
Zn358 O366 1.905 . S
Zn358 O367 1.898 . S
Zn358 O375 1.920 . S
Zn359 O362 2.080 . S
Zn359 O365 2.114 . S
Zn359 O368 2.120 . S
Zn359 O370 2.120 . S
Zn359 O371 2.114 . S
Zn359 O374 2.080 . S
C360 O365 1.166 . S
C360 O366 1.182 . S
C361 O367 1.167 . S
C361 O368 1.299 . S
O362 Zn359 2.080 . S
O362 C376 1.305 . S
O363 Zn357 1.920 . S
O363 C376 1.234 . S
C364 O369 1.167 . S
C364 O370 1.299 . S
O365 Zn359 2.114 . S
O365 C360 1.166 . S
O366 Zn358 1.905 . S
O366 C360 1.182 . S
O367 Zn358 1.898 . S
O367 C361 1.167 . S
O368 Zn359 2.120 . S
O368 C361 1.299 . S
O369 Zn357 1.898 . S
O369 C364 1.167 . S
O370 Zn359 2.120 . S
O370 C364 1.299 . S
O371 Zn359 2.114 . S
O371 C373 1.166 1_554 S
O372 Zn357 1.905 1_556 S
O372 C373 1.182 . S
C373 O371 1.166 1_556 S
C373 O372 1.182 . S
O374 Zn359 2.080 . S
O374 C377 1.305 . S
O375 Zn358 1.920 . S
O375 C377 1.234 . S
C376 O362 1.305 . S
C376 O363 1.234 . S
C377 O374 1.305 . S
C377 O375 1.234 . S
H378 C384 0.930 . S
H379 C388 0.930 . S
H380 C393 0.929 . S
H381 C391 0.929 . S
H382 C386 0.929 . S
H383 C392 0.929 . S
C384 H378 0.930 . S
C384 C385 1.367 . S
C384 C392 1.378 . S
C385 C384 1.367 . S
C385 C393 1.433 . S
C386 H382 0.929 . S
C386 C388 1.378 . S
C386 C390 1.350 . S
C387 C390 1.463 . S
C387 C392 1.350 . S
C387 N395 1.427 . S
C388 H379 0.930 . S
C388 C386 1.378 . S
C388 C389 1.367 . S
C389 C388 1.367 . S
C389 C391 1.433 . S
C390 C386 1.350 . S
C390 C387 1.463 . S
C390 N394 1.427 . S
C391 H381 0.929 . S
C391 C389 1.433 . S
C391 N394 1.384 . S
C392 H383 0.929 . S
C392 C384 1.378 . S
C392 C387 1.350 . S
C393 H380 0.929 . S
C393 C385 1.433 . S
C393 N395 1.384 . S
N394 C390 1.427 . S
N394 C391 1.384 . S
N395 C387 1.427 . S
N395 C393 1.384 . S
H396 C402 0.930 . S
H397 C406 0.930 . S
H398 C411 0.929 . S
H399 C409 0.929 . S
H400 C404 0.929 . S
H401 C410 0.929 . S
C402 H396 0.930 . S
C402 C403 1.367 . S
C402 C410 1.378 . S
C403 C402 1.367 . S
C403 C411 1.433 . S
C404 H400 0.929 . S
C404 C406 1.378 . S
C404 C408 1.350 . S
C405 C408 1.463 . S
C405 C410 1.350 . S
C405 N413 1.427 . S
C406 H397 0.930 . S
C406 C404 1.378 . S
C406 C407 1.367 . S
C407 C406 1.367 . S
C407 C409 1.433 . S
C408 C404 1.350 . S
C408 C405 1.463 . S
C408 N412 1.427 . S
C409 H399 0.929 . S
C409 C407 1.433 . S
C409 N412 1.384 . S
C410 H401 0.929 . S
C410 C402 1.378 . S
C410 C405 1.350 . S
C411 H398 0.929 . S
C411 C403 1.433 . S
C411 N413 1.384 . S
N412 C408 1.427 . S
N412 C409 1.384 . S
N413 C405 1.427 . S
N413 C411 1.384 . S
H414 C420 0.930 . S
H415 C424 0.930 . S
H416 C429 0.929 1_545 S
H417 C427 0.929 . S
H418 C422 0.929 . S
H419 C428 0.929 . S
C420 H414 0.930 . S
C420 C421 1.367 . S
C420 C428 1.378 . S
C421 C420 1.367 . S
C421 C429 1.433 . S
C422 H418 0.929 . S
C422 C424 1.378 . S
C422 C426 1.350 . S
C423 C426 1.463 . S
C423 C428 1.350 . S
C423 N431 1.427 . S
C424 H415 0.930 . S
C424 C422 1.378 . S
C424 C425 1.367 . S
C425 C424 1.367 . S
C425 C427 1.433 . S
C426 C422 1.350 . S
C426 C423 1.463 . S
C426 N430 1.427 . S
C427 H417 0.929 . S
C427 C425 1.433 . S
C427 N430 1.384 . S
C428 H419 0.929 . S
C428 C420 1.378 . S
C428 C423 1.350 . S
C429 H416 0.929 1_565 S
C429 C421 1.433 . S
C429 N431 1.384 . S
N430 C426 1.427 . S
N430 C427 1.384 . S
N431 C423 1.427 . S
N431 C429 1.384 . S
H432 C438 0.930 . S
H433 C442 0.930 . S
H434 C447 0.929 . S
H435 C445 0.929 . S
H436 C440 0.929 . S
H437 C446 0.929 . S
C438 H432 0.930 . S
C438 C439 1.367 . S
C438 C446 1.378 . S
C439 C438 1.367 . S
C439 C447 1.433 . S
C440 H436 0.929 . S
C440 C442 1.378 . S
C440 C444 1.350 . S
C441 C444 1.463 . S
C441 C446 1.350 . S
C441 N449 1.427 . S
C442 H433 0.930 . S
C442 C440 1.378 . S
C442 C443 1.367 . S
C443 C442 1.367 . S
C443 C445 1.433 . S
C444 C440 1.350 . S
C444 C441 1.463 . S
C444 N448 1.427 . S
C445 H435 0.929 . S
C445 C443 1.433 . S
C445 N448 1.384 . S
C446 H437 0.929 . S
C446 C438 1.378 . S
C446 C441 1.350 . S
C447 H434 0.929 . S
C447 C439 1.433 . S
C447 N449 1.384 . S
N448 C444 1.427 . S
N448 C445 1.384 . S
N449 C441 1.427 . S
N449 C447 1.384 . S
H450 C456 0.930 . S
H451 C460 0.930 1_455 S
H452 C465 0.929 . S
H453 C463 0.929 . S
H454 C458 0.929 . S
H455 C464 0.929 . S
C456 H450 0.930 . S
C456 C457 1.367 . S
C456 C464 1.378 . S
C457 C456 1.367 . S
C457 C465 1.433 . S
C458 H454 0.929 . S
C458 C460 1.378 . S
C458 C462 1.350 . S
C459 C462 1.463 . S
C459 C464 1.350 . S
C459 N467 1.427 . S
C460 H451 0.930 1_655 S
C460 C458 1.378 . S
C460 C461 1.367 . S
C461 C460 1.367 . S
C461 C463 1.433 . S
C462 C458 1.350 . S
C462 C459 1.463 . S
C462 N466 1.427 . S
C463 H453 0.929 . S
C463 C461 1.433 . S
C463 N466 1.384 . S
C464 H455 0.929 . S
C464 C456 1.378 . S
C464 C459 1.350 . S
C465 H452 0.929 . S
C465 C457 1.433 . S
C465 N467 1.384 . S
N466 C462 1.427 . S
N466 C463 1.384 . S
N467 C459 1.427 . S
N467 C465 1.384 . S
H468 C474 0.930 . S
H469 C478 0.930 . S
H470 C483 0.929 . S
H471 C481 0.929 . S
H472 C476 0.929 . S
H473 C482 0.929 . S
C474 H468 0.930 . S
C474 C475 1.367 . S
C474 C482 1.378 . S
C475 C474 1.367 . S
C475 C483 1.433 . S
C476 H472 0.929 . S
C476 C478 1.378 . S
C476 C480 1.350 . S
C477 C480 1.463 . S
C477 C482 1.350 . S
C477 N485 1.427 . S
C478 H469 0.930 . S
C478 C476 1.378 . S
C478 C479 1.367 . S
C479 C478 1.367 . S
C479 C481 1.433 . S
C480 C476 1.350 . S
C480 C477 1.463 . S
C480 N484 1.427 . S
C481 H471 0.929 . S
C481 C479 1.433 . S
C481 N484 1.384 . S
C482 H473 0.929 . S
C482 C474 1.378 . S
C482 C477 1.350 . S
C483 H470 0.929 . S
C483 C475 1.433 . S
C483 N485 1.384 . S
N484 C480 1.427 . S
N484 C481 1.384 . S
N485 C477 1.427 . S
N485 C483 1.384 . S
H486 C492 0.930 . S
H487 C496 0.930 . S
H488 C501 0.929 . S
H489 C499 0.929 . S
H490 C494 0.929 . S
H491 C500 0.929 . S
C492 H486 0.930 . S
C492 C493 1.367 . S
C492 C500 1.378 . S
C493 C492 1.367 . S
C493 C501 1.433 . S
C494 H490 0.929 . S
C494 C496 1.378 . S
C494 C498 1.350 . S
C495 C498 1.463 . S
C495 C500 1.350 . S
C495 N503 1.427 . S
C496 H487 0.930 . S
C496 C494 1.378 . S
C496 C497 1.367 . S
C497 C496 1.367 . S
C497 C499 1.433 . S
C498 C494 1.350 . S
C498 C495 1.463 . S
C498 N502 1.427 . S
C499 H489 0.929 . S
C499 C497 1.433 . S
C499 N502 1.384 . S
C500 H491 0.929 . S
C500 C492 1.378 . S
C500 C495 1.350 . S
C501 H488 0.929 . S
C501 C493 1.433 . S
C501 N503 1.384 . S
N502 C498 1.427 . S
N502 C499 1.384 . S
N503 C495 1.427 . S
N503 C501 1.384 . S
H504 C510 0.930 . S
H505 C514 0.930 . S
H506 C519 0.929 . S
H507 C517 0.929 . S
H508 C512 0.929 . S
H509 C518 0.929 . S
C510 H504 0.930 . S
C510 C511 1.367 . S
C510 C518 1.378 . S
C511 C510 1.367 . S
C511 C519 1.433 . S
C512 H508 0.929 . S
C512 C514 1.378 . S
C512 C516 1.350 . S
C513 C516 1.463 . S
C513 C518 1.350 . S
C513 N521 1.427 . S
C514 H505 0.930 . S
C514 C512 1.378 . S
C514 C515 1.367 . S
C515 C514 1.367 . S
C515 C517 1.433 . S
C516 C512 1.350 . S
C516 C513 1.463 . S
C516 N520 1.427 . S
C517 H507 0.929 . S
C517 C515 1.433 . S
C517 N520 1.384 . S
C518 H509 0.929 . S
C518 C510 1.378 . S
C518 C513 1.350 . S
C519 H506 0.929 . S
C519 C511 1.433 . S
C519 N521 1.384 . S
N520 C516 1.427 . S
N520 C517 1.384 . S
N521 C513 1.427 . S
N521 C519 1.384 . S
H522 C528 0.930 . S
H523 C532 0.930 . S
H524 C537 0.929 . S
H525 C535 0.929 . S
H526 C530 0.929 . S
H527 C536 0.929 . S
C528 H522 0.930 . S
C528 C529 1.367 . S
C528 C536 1.378 . S
C529 C528 1.367 . S
C529 C537 1.433 . S
C530 H526 0.929 . S
C530 C532 1.378 . S
C530 C534 1.350 . S
C531 C534 1.463 . S
C531 C536 1.350 . S
C531 N539 1.427 . S
C532 H523 0.930 . S
C532 C530 1.378 . S
C532 C533 1.367 . S
C533 C532 1.367 . S
C533 C535 1.433 . S
C534 C530 1.350 . S
C534 C531 1.463 . S
C534 N538 1.427 . S
C535 H525 0.929 . S
C535 C533 1.433 . S
C535 N538 1.384 . S
C536 H527 0.929 . S
C536 C528 1.378 . S
C536 C531 1.350 . S
C537 H524 0.929 . S
C537 C529 1.433 . S
C537 N539 1.384 . S
N538 C534 1.427 . S
N538 C535 1.384 . S
N539 C531 1.427 . S
N539 C537 1.384 . S
H540 C546 0.930 . S
H541 C550 0.930 . S
H542 C555 0.929 . S
H543 C553 0.929 1_545 S
H544 C548 0.929 . S
H545 C554 0.929 . S
C546 H540 0.930 . S
C546 C547 1.367 . S
C546 C554 1.378 . S
C547 C546 1.367 . S
C547 C555 1.433 . S
C548 H544 0.929 . S
C548 C550 1.378 . S
C548 C552 1.350 . S
C549 C552 1.463 . S
C549 C554 1.350 . S
C549 N557 1.427 . S
C550 H541 0.930 . S
C550 C548 1.378 . S
C550 C551 1.367 . S
C551 C550 1.367 . S
C551 C553 1.433 . S
C552 C548 1.350 . S
C552 C549 1.463 . S
C552 N556 1.427 . S
C553 H543 0.929 1_565 S
C553 C551 1.433 . S
C553 N556 1.384 . S
C554 H545 0.929 . S
C554 C546 1.378 . S
C554 C549 1.350 . S
C555 H542 0.929 . S
C555 C547 1.433 . S
C555 N557 1.384 . S
N556 C552 1.427 . S
N556 C553 1.384 . S
N557 C549 1.427 . S
N557 C555 1.384 . S
H558 C564 0.930 . S
H559 C568 0.930 . S
H560 C573 0.929 . S
H561 C571 0.929 . S
H562 C566 0.929 . S
H563 C572 0.929 . S
C564 H558 0.930 . S
C564 C565 1.367 . S
C564 C572 1.378 . S
C565 C564 1.367 . S
C565 C573 1.433 . S
C566 H562 0.929 . S
C566 C568 1.378 . S
C566 C570 1.350 . S
C567 C570 1.463 . S
C567 C572 1.350 . S
C567 N575 1.427 . S
C568 H559 0.930 . S
C568 C566 1.378 . S
C568 C569 1.367 . S
C569 C568 1.367 . S
C569 C571 1.433 . S
C570 C566 1.350 . S
C570 C567 1.463 . S
C570 N574 1.427 . S
C571 H561 0.929 . S
C571 C569 1.433 . S
C571 N574 1.384 . S
C572 H563 0.929 . S
C572 C564 1.378 . S
C572 C567 1.350 . S
C573 H560 0.929 . S
C573 C565 1.433 . S
C573 N575 1.384 . S
N574 C570 1.427 . S
N574 C571 1.384 . S
N575 C567 1.427 . S
N575 C573 1.384 . S
H576 C582 0.930 . S
H577 C586 0.930 . S
H578 C591 0.929 . S
H579 C589 0.929 . S
H580 C584 0.929 . S
H581 C590 0.929 . S
C582 H576 0.930 . S
C582 C583 1.367 . S
C582 C590 1.378 . S
C583 C582 1.367 . S
C583 C591 1.433 . S
C584 H580 0.929 . S
C584 C586 1.378 . S
C584 C588 1.350 . S
C585 C588 1.463 . S
C585 C590 1.350 . S
C585 N593 1.427 . S
C586 H577 0.930 . S
C586 C584 1.378 . S
C586 C587 1.367 . S
C587 C586 1.367 . S
C587 C589 1.433 . S
C588 C584 1.350 . S
C588 C585 1.463 . S
C588 N592 1.427 . S
C589 H579 0.929 . S
C589 C587 1.433 . S
C589 N592 1.384 . S
C590 H581 0.929 . S
C590 C582 1.378 . S
C590 C585 1.350 . S
C591 H578 0.929 . S
C591 C583 1.433 . S
C591 N593 1.384 . S
N592 C588 1.427 . S
N592 C589 1.384 . S
N593 C585 1.427 . S
N593 C591 1.384 . S
H594 C600 0.930 . S
H595 C604 0.930 . S
H596 C609 0.929 . S
H597 C607 0.929 . S
H598 C602 0.929 . S
H599 C608 0.929 . S
C600 H594 0.930 . S
C600 C601 1.367 . S
C600 C608 1.378 1_655 S
C601 C600 1.367 . S
C601 C609 1.433 1_556 S
C602 H598 0.929 . S
C602 C604 1.378 . S
C602 C606 1.350 . S
C603 C606 1.463 1_556 S
C603 C608 1.350 . S
C603 N611 1.427 1_456 S
C604 H595 0.930 . S
C604 C602 1.378 . S
C604 C605 1.367 . S
C605 C604 1.367 . S
C605 C607 1.433 1_554 S
C606 C602 1.350 . S
C606 C603 1.463 1_554 S
C606 N610 1.427 1_554 S
C607 H597 0.929 . S
C607 C605 1.433 1_556 S
C607 N610 1.384 . S
C608 H599 0.929 . S
C608 C600 1.378 1_455 S
C608 C603 1.350 . S
C609 H596 0.929 . S
C609 C601 1.433 1_554 S
C609 N611 1.384 . S
N610 C606 1.427 1_556 S
N610 C607 1.384 . S
N611 C603 1.427 1_654 S
N611 C609 1.384 . S
H612 C618 0.930 1_554 S
H613 C622 0.930 1_556 S
H614 C627 0.929 . S
H615 C625 0.929 . S
H616 C620 0.929 . S
H617 C626 0.929 . S
C618 H612 0.930 1_556 S
C618 C619 1.367 . S
C618 C626 1.378 1_556 S
C619 C618 1.367 . S
C619 C627 1.433 . S
C620 H616 0.929 . S
C620 C622 1.378 1_556 S
C620 C624 1.350 1_556 S
C621 C624 1.463 1_556 S
C621 C626 1.350 1_556 S
C621 N629 1.427 . S
C622 H613 0.930 1_554 S
C622 C620 1.378 1_554 S
C622 C623 1.367 . S
C623 C622 1.367 . S
C623 C625 1.433 . S
C624 C620 1.350 1_554 S
C624 C621 1.463 1_554 S
C624 N628 1.427 . S
C625 H615 0.929 . S
C625 C623 1.433 . S
C625 N628 1.384 . S
C626 H617 0.929 . S
C626 C618 1.378 1_554 S
C626 C621 1.350 1_554 S
C627 H614 0.929 . S
C627 C619 1.433 . S
C627 N629 1.384 . S
N628 C624 1.427 . S
N628 C625 1.384 . S
N629 C621 1.427 . S
N629 C627 1.384 . S
H630 C636 0.930 . S
H631 C640 0.930 . S
H632 C645 0.929 1_554 S
H633 C643 0.929 1_556 S
H634 C638 0.929 . S
H635 C644 0.929 . S
C636 H630 0.930 . S
C636 C637 1.367 . S
C636 C644 1.378 . S
C637 C636 1.367 . S
C637 C645 1.433 . S
C638 H634 0.929 . S
C638 C640 1.378 1_545 S
C638 C642 1.350 . S
C639 C642 1.463 1_556 S
C639 C644 1.350 . S
C639 N647 1.427 1_556 S
C640 H631 0.930 . S
C640 C638 1.378 1_565 S
C640 C641 1.367 . S
C641 C640 1.367 . S
C641 C643 1.433 . S
C642 C638 1.350 . S
C642 C639 1.463 1_554 S
C642 N646 1.421 1_554 S
C643 H633 0.929 1_554 S
C643 C641 1.433 . S
C643 N646 1.389 1_564 S
C644 H635 0.929 . S
C644 C636 1.378 . S
C644 C639 1.350 . S
C645 H632 0.929 1_556 S
C645 C637 1.433 . S
C645 N647 1.384 1_556 S
N646 C642 1.421 1_556 S
N646 C643 1.389 1_546 S
N647 C639 1.427 1_554 S
N647 C645 1.384 1_554 S
H648 C654 0.930 . S
H649 C658 0.930 . S
H650 C663 0.929 . S
H651 C661 0.929 . S
H652 C656 0.929 . S
H653 C662 0.929 . S
C654 H648 0.930 . S
C654 C655 1.367 . S
C654 C662 1.378 . S
C655 C654 1.367 . S
C655 C663 1.433 1_556 S
C656 H652 0.929 . S
C656 C658 1.378 1_545 S
C656 C660 1.350 . S
C657 C660 1.463 1_556 S
C657 C662 1.350 . S
C657 N665 1.427 1_556 S
C658 H649 0.930 . S
C658 C656 1.378 1_565 S
C658 C659 1.367 . S
C659 C658 1.367 . S
C659 C661 1.433 1_554 S
C660 C656 1.350 . S
C660 C657 1.463 1_554 S
C660 N664 1.427 1_544 S
C661 H651 0.929 . S
C661 C659 1.433 1_556 S
C661 N664 1.384 . S
C662 H653 0.929 . S
C662 C654 1.378 . S
C662 C657 1.350 . S
C663 H650 0.929 . S
C663 C655 1.433 1_554 S
C663 N665 1.384 . S
N664 C660 1.427 1_566 S
N664 C661 1.384 . S
N665 C657 1.427 1_554 S
N665 C663 1.384 . S
H666 C672 0.931 1_556 S
H667 C676 0.930 1_554 S
H668 C681 0.929 . S
H669 C679 0.929 . S
H670 C674 0.929 . S
H671 C680 0.929 . S
C672 H666 0.931 1_554 S
C672 C673 1.366 . S
C672 C680 1.378 1_554 S
C673 C672 1.366 . S
C673 C681 1.433 . S
C674 H670 0.929 . S
C674 C676 1.378 1_554 S
C674 C678 1.350 1_654 S
C675 C678 1.463 1_554 S
C675 C680 1.350 1_554 S
C675 N683 1.427 . S
C676 H667 0.930 1_556 S
C676 C674 1.378 1_556 S
C676 C677 1.367 . S
C677 C676 1.367 . S
C677 C679 1.433 . S
C678 C674 1.350 1_456 S
C678 C675 1.463 1_556 S
C678 N682 1.427 . S
C679 H669 0.929 . S
C679 C677 1.433 . S
C679 N682 1.384 1_655 S
C680 H671 0.929 . S
C680 C672 1.378 1_556 S
C680 C675 1.350 1_556 S
C681 H668 0.929 . S
C681 C673 1.433 . S
C681 N683 1.384 . S
N682 C678 1.427 . S
N682 C679 1.384 1_455 S
N683 C675 1.427 . S
N683 C681 1.384 . S
H684 C690 0.930 . S
H685 C694 0.930 . S
H686 C699 0.929 . S
H687 C697 0.929 . S
H688 C692 0.929 1_554 S
H689 C698 0.922 1_556 S
C690 H684 0.930 . S
C690 C691 1.367 . S
C690 C698 1.382 . S
C691 C690 1.367 . S
C691 C699 1.433 . S
C692 H688 0.929 1_556 S
C692 C694 1.378 . S
C692 C696 1.350 . S
C693 C696 1.463 1_554 S
C693 C698 1.352 . S
C693 N701 1.427 . S
C694 H685 0.930 . S
C694 C692 1.378 . S
C694 C695 1.367 . S
C695 C694 1.367 . S
C695 C697 1.433 . S
C696 C692 1.350 . S
C696 C693 1.463 1_556 S
C696 N700 1.427 . S
C697 H687 0.929 . S
C697 C695 1.433 . S
C697 N700 1.384 . S
C698 H689 0.922 1_554 S
C698 C690 1.382 . S
C698 C693 1.352 . S
C699 H686 0.929 . S
C699 C691 1.433 . S
C699 N701 1.384 . S
N700 C696 1.427 . S
N700 C697 1.384 . S
N701 C693 1.427 . S
N701 C699 1.384 . S
H702 C708 0.930 . S
H703 C712 0.930 . S
H704 C717 0.929 . S
H705 C715 0.929 . S
H706 C710 0.929 . S
H707 C716 0.929 . S
C708 H702 0.930 . S
C708 C709 1.367 . S
C708 C716 1.378 . S
C709 C708 1.367 . S
C709 C717 1.433 . S
C710 H706 0.929 . S
C710 C712 1.378 . S
C710 C714 1.350 . S
C711 C714 1.463 . S
C711 C716 1.350 . S
C711 N719 1.427 . S
C712 H703 0.930 . S
C712 C710 1.378 . S
C712 C713 1.367 . S
C713 C712 1.367 . S
C713 C715 1.433 . S
C714 C710 1.350 . S
C714 C711 1.463 . S
C714 N718 1.427 . S
C715 H705 0.929 . S
C715 C713 1.433 . S
C715 N718 1.384 . S
C716 H707 0.929 . S
C716 C708 1.378 . S
C716 C711 1.350 . S
C717 H704 0.929 . S
C717 C709 1.433 . S
C717 N719 1.384 . S
N718 C714 1.427 . S
N718 C715 1.384 . S
N719 C711 1.427 . S
N719 C717 1.384 . S
H720 C726 0.930 . S
H721 C730 0.930 . S
H722 C735 0.929 . S
H723 C733 0.929 . S
H724 C728 0.929 . S
H725 C734 0.929 . S
C726 H720 0.930 . S
C726 C727 1.367 . S
C726 C734 1.378 . S
C727 C726 1.367 . S
C727 C735 1.433 . S
C728 H724 0.929 . S
C728 C730 1.378 . S
C728 C732 1.350 . S
C729 C732 1.463 . S
C729 C734 1.350 . S
C729 N737 1.427 . S
C730 H721 0.930 . S
C730 C728 1.378 . S
C730 C731 1.367 . S
C731 C730 1.367 . S
C731 C733 1.433 . S
C732 C728 1.350 . S
C732 C729 1.463 . S
C732 N736 1.427 . S
C733 H723 0.929 . S
C733 C731 1.433 . S
C733 N736 1.384 . S
C734 H725 0.929 . S
C734 C726 1.378 . S
C734 C729 1.350 . S
C735 H722 0.929 . S
C735 C727 1.433 . S
C735 N737 1.384 . S
N736 C732 1.427 . S
N736 C733 1.384 . S
N737 C729 1.427 . S
N737 C735 1.384 . S
H738 C744 0.930 . S
H739 C748 0.930 . S
H740 C753 0.929 . S
H741 C751 0.929 . S
H742 C746 0.929 . S
H743 C752 0.929 . S
C744 H738 0.930 . S
C744 C745 1.367 . S
C744 C752 1.378 . S
C745 C744 1.367 . S
C745 C753 1.433 . S
C746 H742 0.929 . S
C746 C748 1.378 . S
C746 C750 1.350 . S
C747 C750 1.463 . S
C747 C752 1.350 . S
C747 N755 1.427 . S
C748 H739 0.930 . S
C748 C746 1.378 . S
C748 C749 1.367 . S
C749 C748 1.367 . S
C749 C751 1.433 . S
C750 C746 1.350 . S
C750 C747 1.463 . S
C750 N754 1.427 . S
C751 H741 0.929 . S
C751 C749 1.433 . S
C751 N754 1.384 . S
C752 H743 0.929 . S
C752 C744 1.378 . S
C752 C747 1.350 . S
C753 H740 0.929 . S
C753 C745 1.433 . S
C753 N755 1.384 . S
N754 C750 1.427 . S
N754 C751 1.384 . S
N755 C747 1.427 . S
N755 C753 1.384 . S
H756 C762 0.930 . S
H757 C766 0.930 . S
H758 C771 0.929 . S
H759 C769 0.929 . S
H760 C764 0.929 . S
H761 C770 0.929 . S
C762 H756 0.930 . S
C762 C763 1.367 . S
C762 C770 1.378 . S
C763 C762 1.367 . S
C763 C771 1.433 . S
C764 H760 0.929 . S
C764 C766 1.378 . S
C764 C768 1.350 . S
C765 C768 1.463 . S
C765 C770 1.350 . S
C765 N773 1.427 . S
C766 H757 0.930 . S
C766 C764 1.378 . S
C766 C767 1.367 . S
C767 C766 1.367 . S
C767 C769 1.433 . S
C768 C764 1.350 . S
C768 C765 1.463 . S
C768 N772 1.427 . S
C769 H759 0.929 . S
C769 C767 1.433 . S
C769 N772 1.384 . S
C770 H761 0.929 . S
C770 C762 1.378 . S
C770 C765 1.350 . S
C771 H758 0.929 . S
C771 C763 1.433 . S
C771 N773 1.384 . S
N772 C768 1.427 . S
N772 C769 1.384 . S
N773 C765 1.427 . S
N773 C771 1.384 . S
H774 C780 0.930 . S
H775 C784 0.930 . S
H776 C789 0.929 . S
H777 C787 0.929 . S
H778 C782 0.929 . S
H779 C788 0.929 . S
C780 H774 0.930 . S
C780 C781 1.367 . S
C780 C788 1.378 . S
C781 C780 1.367 . S
C781 C789 1.433 . S
C782 H778 0.929 . S
C782 C784 1.378 . S
C782 C786 1.350 . S
C783 C786 1.463 . S
C783 C788 1.350 . S
C783 N791 1.427 . S
C784 H775 0.930 . S
C784 C782 1.378 . S
C784 C785 1.367 . S
C785 C784 1.367 . S
C785 C787 1.433 . S
C786 C782 1.350 . S
C786 C783 1.463 . S
C786 N790 1.427 . S
C787 H777 0.929 . S
C787 C785 1.433 . S
C787 N790 1.384 . S
C788 H779 0.929 . S
C788 C780 1.378 . S
C788 C783 1.350 . S
C789 H776 0.929 . S
C789 C781 1.433 . S
C789 N791 1.384 . S
N790 C786 1.427 . S
N790 C787 1.384 . S
N791 C783 1.427 . S
N791 C789 1.384 . S
H792 C798 0.930 . S
H793 C802 0.930 . S
H794 C807 0.929 . S
H795 C805 0.929 . S
H796 C800 0.929 . S
H797 C806 0.929 . S
C798 H792 0.930 . S
C798 C799 1.367 . S
C798 C806 1.378 . S
C799 C798 1.367 . S
C799 C807 1.433 . S
C800 H796 0.929 . S
C800 C802 1.378 . S
C800 C804 1.350 . S
C801 C804 1.463 . S
C801 C806 1.350 . S
C801 N809 1.427 . S
C802 H793 0.930 . S
C802 C800 1.378 . S
C802 C803 1.367 . S
C803 C802 1.367 . S
C803 C805 1.433 . S
C804 C800 1.350 . S
C804 C801 1.463 . S
C804 N808 1.427 . S
C805 H795 0.929 . S
C805 C803 1.433 . S
C805 N808 1.384 . S
C806 H797 0.929 . S
C806 C798 1.378 . S
C806 C801 1.350 . S
C807 H794 0.929 . S
C807 C799 1.433 . S
C807 N809 1.384 . S
N808 C804 1.427 . S
N808 C805 1.384 . S
N809 C801 1.427 . S
N809 C807 1.384 . S
H810 C816 0.930 . S
H811 C820 0.930 . S
H812 C825 0.929 . S
H813 C823 0.929 . S
H814 C818 0.929 . S
H815 C824 0.929 . S
C816 H810 0.930 . S
C816 C817 1.367 . S
C816 C824 1.378 . S
C817 C816 1.367 . S
C817 C825 1.433 . S
C818 H814 0.929 . S
C818 C820 1.378 . S
C818 C822 1.350 . S
C819 C822 1.463 . S
C819 C824 1.350 . S
C819 N827 1.427 . S
C820 H811 0.930 . S
C820 C818 1.378 . S
C820 C821 1.367 . S
C821 C820 1.367 . S
C821 C823 1.433 . S
C822 C818 1.350 . S
C822 C819 1.463 . S
C822 N826 1.427 . S
C823 H813 0.929 . S
C823 C821 1.433 . S
C823 N826 1.384 . S
C824 H815 0.929 . S
C824 C816 1.378 . S
C824 C819 1.350 . S
C825 H812 0.929 . S
C825 C817 1.433 . S
C825 N827 1.384 . S
N826 C822 1.427 . S
N826 C823 1.384 . S
N827 C819 1.427 . S
N827 C825 1.384 . S
H828 C834 0.930 . S
H829 C838 0.930 . S
H830 C843 0.929 . S
H831 C841 0.929 . S
H832 C836 0.929 . S
H833 C842 0.929 . S
C834 H828 0.930 . S
C834 C835 1.367 . S
C834 C842 1.378 . S
C835 C834 1.367 . S
C835 C843 1.433 . S
C836 H832 0.929 . S
C836 C838 1.378 . S
C836 C840 1.350 . S
C837 C840 1.463 . S
C837 C842 1.350 . S
C837 N845 1.427 . S
C838 H829 0.930 . S
C838 C836 1.378 . S
C838 C839 1.367 . S
C839 C838 1.367 . S
C839 C841 1.433 . S
C840 C836 1.350 . S
C840 C837 1.463 . S
C840 N844 1.427 . S
C841 H831 0.929 . S
C841 C839 1.433 . S
C841 N844 1.384 . S
C842 H833 0.929 . S
C842 C834 1.378 . S
C842 C837 1.350 . S
C843 H830 0.929 . S
C843 C835 1.433 . S
C843 N845 1.384 . S
N844 C840 1.427 . S
N844 C841 1.384 . S
N845 C837 1.427 . S
N845 C843 1.384 . S
H846 C852 0.930 . S
H847 C856 0.930 . S
H848 C861 0.929 . S
H849 C859 0.929 . S
H850 C854 0.929 . S
H851 C860 0.929 . S
C852 H846 0.930 . S
C852 C853 1.367 . S
C852 C860 1.378 . S
C853 C852 1.367 . S
C853 C861 1.433 . S
C854 H850 0.929 . S
C854 C856 1.378 . S
C854 C858 1.350 . S
C855 C858 1.463 . S
C855 C860 1.350 . S
C855 N863 1.427 . S
C856 H847 0.930 . S
C856 C854 1.378 . S
C856 C857 1.367 . S
C857 C856 1.367 . S
C857 C859 1.433 . S
C858 C854 1.350 . S
C858 C855 1.463 . S
C858 N862 1.427 . S
C859 H849 0.929 . S
C859 C857 1.433 . S
C859 N862 1.384 . S
C860 H851 0.929 . S
C860 C852 1.378 . S
C860 C855 1.350 . S
C861 H848 0.929 . S
C861 C853 1.433 . S
C861 N863 1.384 . S
N862 C858 1.427 . S
N862 C859 1.384 . S
N863 C855 1.427 . S
N863 C861 1.384 . S
H864 C870 0.930 . S
H865 C874 0.930 . S
H866 C879 0.929 . S
H867 C877 0.929 . S
H868 C872 0.929 . S
H869 C878 0.929 . S
C870 H864 0.930 . S
C870 C871 1.367 . S
C870 C878 1.378 . S
C871 C870 1.367 . S
C871 C879 1.433 . S
C872 H868 0.929 . S
C872 C874 1.378 . S
C872 C876 1.350 . S
C873 C876 1.463 . S
C873 C878 1.350 . S
C873 N881 1.427 . S
C874 H865 0.930 . S
C874 C872 1.378 . S
C874 C875 1.367 . S
C875 C874 1.367 . S
C875 C877 1.433 . S
C876 C872 1.350 . S
C876 C873 1.463 . S
C876 N880 1.427 . S
C877 H867 0.929 . S
C877 C875 1.433 . S
C877 N880 1.384 . S
C878 H869 0.929 . S
C878 C870 1.378 . S
C878 C873 1.350 . S
C879 H866 0.929 . S
C879 C871 1.433 . S
C879 N881 1.384 . S
N880 C876 1.427 . S
N880 C877 1.384 . S
N881 C873 1.427 . S
N881 C879 1.384 . S
H882 C888 0.930 . S
H883 C892 0.930 . S
H884 C897 0.929 . S
H885 C895 0.929 . S
H886 C890 0.929 . S
H887 C896 0.929 . S
C888 H882 0.930 . S
C888 C889 1.367 . S
C888 C896 1.378 . S
C889 C888 1.367 . S
C889 C897 1.433 . S
C890 H886 0.929 . S
C890 C892 1.378 . S
C890 C894 1.350 . S
C891 C894 1.463 . S
C891 C896 1.350 . S
C891 N899 1.427 . S
C892 H883 0.930 . S
C892 C890 1.378 . S
C892 C893 1.367 . S
C893 C892 1.367 . S
C893 C895 1.433 . S
C894 C890 1.350 . S
C894 C891 1.463 . S
C894 N898 1.427 . S
C895 H885 0.929 . S
C895 C893 1.433 . S
C895 N898 1.384 . S
C896 H887 0.929 . S
C896 C888 1.378 . S
C896 C891 1.350 . S
C897 H884 0.929 . S
C897 C889 1.433 . S
C897 N899 1.384 . S
N898 C894 1.427 . S
N898 C895 1.384 . S
N899 C891 1.427 . S
N899 C897 1.384 . S
H900 C906 0.930 . S
H901 C910 0.930 . S
H902 C915 0.929 . S
H903 C913 0.929 . S
H904 C908 0.929 . S
H905 C914 0.929 . S
C906 H900 0.930 . S
C906 C907 1.367 . S
C906 C914 1.378 . S
C907 C906 1.367 . S
C907 C915 1.433 . S
C908 H904 0.929 . S
C908 C910 1.378 . S
C908 C912 1.350 . S
C909 C912 1.463 . S
C909 C914 1.350 . S
C909 N917 1.427 . S
C910 H901 0.930 . S
C910 C908 1.378 . S
C910 C911 1.367 . S
C911 C910 1.367 . S
C911 C913 1.433 . S
C912 C908 1.350 . S
C912 C909 1.463 . S
C912 N916 1.427 . S
C913 H903 0.929 . S
C913 C911 1.433 . S
C913 N916 1.384 . S
C914 H905 0.929 . S
C914 C906 1.378 . S
C914 C909 1.350 . S
C915 H902 0.929 . S
C915 C907 1.433 . S
C915 N917 1.384 . S
N916 C912 1.427 . S
N916 C913 1.384 . S
N917 C909 1.427 . S
N917 C915 1.384 . S
H918 C924 0.930 . S
H919 C928 0.930 . S
H920 C933 0.929 . S
H921 C931 0.929 . S
H922 C926 0.929 . S
H923 C932 0.929 . S
C924 H918 0.930 . S
C924 C925 1.367 . S
C924 C932 1.378 . S
C925 C924 1.367 . S
C925 C933 1.433 . S
C926 H922 0.929 . S
C926 C928 1.378 . S
C926 C930 1.350 . S
C927 C930 1.463 . S
C927 C932 1.350 . S
C927 N935 1.427 . S
C928 H919 0.930 . S
C928 C926 1.378 . S
C928 C929 1.367 . S
C929 C928 1.367 . S
C929 C931 1.433 . S
C930 C926 1.350 . S
C930 C927 1.463 . S
C930 N934 1.427 . S
C931 H921 0.929 . S
C931 C929 1.433 . S
C931 N934 1.384 . S
C932 H923 0.929 . S
C932 C924 1.378 . S
C932 C927 1.350 . S
C933 H920 0.929 . S
C933 C925 1.433 . S
C933 N935 1.384 . S
N934 C930 1.427 . S
N934 C931 1.384 . S
N935 C927 1.427 . S
N935 C933 1.384 . S
H936 C942 0.930 . S
H937 C946 0.930 . S
H938 C951 0.929 . S
H939 C949 0.929 . S
H940 C944 0.929 . S
H941 C950 0.929 . S
C942 H936 0.930 . S
C942 C943 1.367 . S
C942 C950 1.378 . S
C943 C942 1.367 . S
C943 C951 1.433 . S
C944 H940 0.929 . S
C944 C946 1.378 . S
C944 C948 1.350 . S
C945 C948 1.463 . S
C945 C950 1.350 . S
C945 N953 1.427 . S
C946 H937 0.930 . S
C946 C944 1.378 . S
C946 C947 1.367 . S
C947 C946 1.367 . S
C947 C949 1.433 . S
C948 C944 1.350 . S
C948 C945 1.463 . S
C948 N952 1.427 . S
C949 H939 0.929 . S
C949 C947 1.433 . S
C949 N952 1.384 . S
C950 H941 0.929 . S
C950 C942 1.378 . S
C950 C945 1.350 . S
C951 H938 0.929 . S
C951 C943 1.433 . S
C951 N953 1.384 . S
N952 C948 1.427 . S
N952 C949 1.384 . S
N953 C945 1.427 . S
N953 C951 1.384 . S
H954 C960 0.930 . S
H955 C964 0.930 . S
H956 C969 0.929 . S
H957 C967 0.929 . S
H958 C962 0.929 . S
H959 C968 0.929 . S
C960 H954 0.930 . S
C960 C961 1.367 . S
C960 C968 1.378 . S
C961 C960 1.367 . S
C961 C969 1.433 . S
C962 H958 0.929 . S
C962 C964 1.378 . S
C962 C966 1.350 . S
C963 C966 1.463 . S
C963 C968 1.350 . S
C963 N971 1.427 . S
C964 H955 0.930 . S
C964 C962 1.378 . S
C964 C965 1.367 . S
C965 C964 1.367 . S
C965 C967 1.433 . S
C966 C962 1.350 . S
C966 C963 1.463 . S
C966 N970 1.427 . S
C967 H957 0.929 . S
C967 C965 1.433 . S
C967 N970 1.384 . S
C968 H959 0.929 . S
C968 C960 1.378 . S
C968 C963 1.350 . S
C969 H956 0.929 . S
C969 C961 1.433 . S
C969 N971 1.384 . S
N970 C966 1.427 . S
N970 C967 1.384 . S
N971 C963 1.427 . S
N971 C969 1.384 . S
H972 C978 0.930 . S
H973 C982 0.930 . S
H974 C987 0.929 . S
H975 C985 0.929 . S
H976 C980 0.929 . S
H977 C986 0.929 . S
C978 H972 0.930 . S
C978 C979 1.367 . S
C978 C986 1.378 . S
C979 C978 1.367 . S
C979 C987 1.433 . S
C980 H976 0.929 . S
C980 C982 1.378 . S
C980 C984 1.350 . S
C981 C984 1.463 . S
C981 C986 1.350 . S
C981 N989 1.427 . S
C982 H973 0.930 . S
C982 C980 1.378 . S
C982 C983 1.367 . S
C983 C982 1.367 . S
C983 C985 1.433 . S
C984 C980 1.350 . S
C984 C981 1.463 . S
C984 N988 1.427 . S
C985 H975 0.929 . S
C985 C983 1.433 . S
C985 N988 1.384 . S
C986 H977 0.929 . S
C986 C978 1.378 . S
C986 C981 1.350 . S
C987 H974 0.929 . S
C987 C979 1.433 . S
C987 N989 1.384 . S
N988 C984 1.427 . S
N988 C985 1.384 . S
N989 C981 1.427 . S
N989 C987 1.384 . S
H990 C996 0.930 . S
H991 C1000 0.930 . S
H992 C1005 0.929 . S
H993 C1003 0.929 . S
H994 C998 0.929 . S
H995 C1004 0.929 . S
C996 H990 0.930 . S
C996 C997 1.367 . S
C996 C1004 1.378 . S
C997 C996 1.367 . S
C997 C1005 1.433 . S
C998 H994 0.929 . S
C998 C1000 1.378 . S
C998 C1002 1.350 . S
C999 C1002 1.463 . S
C999 C1004 1.350 . S
C999 N1007 1.427 . S
C1000 H991 0.930 . S
C1000 C998 1.378 . S
C1000 C1001 1.367 . S
C1001 C1000 1.367 . S
C1001 C1003 1.433 . S
C1002 C998 1.350 . S
C1002 C999 1.463 . S
C1002 N1006 1.427 . S
C1003 H993 0.929 . S
C1003 C1001 1.433 . S
C1003 N1006 1.384 . S
C1004 H995 0.929 . S
C1004 C996 1.378 . S
C1004 C999 1.350 . S
C1005 H992 0.929 . S
C1005 C997 1.433 . S
C1005 N1007 1.384 . S
N1006 C1002 1.427 . S
N1006 C1003 1.384 . S
N1007 C999 1.427 . S
N1007 C1005 1.384 . S
H1008 C1014 0.930 . S
H1009 C1018 0.930 . S
H1010 C1023 0.929 . S
H1011 C1021 0.929 . S
H1012 C1016 0.929 . S
H1013 C1022 0.929 . S
C1014 H1008 0.930 . S
C1014 C1015 1.367 . S
C1014 C1022 1.378 . S
C1015 C1014 1.367 . S
C1015 C1023 1.433 . S
C1016 H1012 0.929 . S
C1016 C1018 1.378 . S
C1016 C1020 1.350 . S
C1017 C1020 1.463 . S
C1017 C1022 1.350 . S
C1017 N1025 1.427 . S
C1018 H1009 0.930 . S
C1018 C1016 1.378 . S
C1018 C1019 1.367 . S
C1019 C1018 1.367 . S
C1019 C1021 1.433 . S
C1020 C1016 1.350 . S
C1020 C1017 1.463 . S
C1020 N1024 1.427 . S
C1021 H1011 0.929 . S
C1021 C1019 1.433 . S
C1021 N1024 1.384 . S
C1022 H1013 0.929 . S
C1022 C1014 1.378 . S
C1022 C1017 1.350 . S
C1023 H1010 0.929 . S
C1023 C1015 1.433 . S
C1023 N1025 1.384 . S
N1024 C1020 1.427 . S
N1024 C1021 1.384 . S
N1025 C1017 1.427 . S
N1025 C1023 1.384 . S
H1026 C1032 0.930 . S
H1027 C1036 0.930 . S
H1028 C1041 0.929 . S
H1029 C1039 0.929 . S
H1030 C1034 0.929 . S
H1031 C1040 0.929 . S
C1032 H1026 0.930 . S
C1032 C1033 1.367 . S
C1032 C1040 1.378 . S
C1033 C1032 1.367 . S
C1033 C1041 1.433 . S
C1034 H1030 0.929 . S
C1034 C1036 1.378 . S
C1034 C1038 1.350 . S
C1035 C1038 1.463 1_554 S
C1035 C1040 1.350 . S
C1035 N1043 1.427 . S
C1036 H1027 0.930 . S
C1036 C1034 1.378 . S
C1036 C1037 1.367 . S
C1037 C1036 1.367 . S
C1037 C1039 1.433 . S
C1038 C1034 1.350 . S
C1038 C1035 1.463 1_556 S
C1038 N1042 1.427 . S
C1039 H1029 0.929 . S
C1039 C1037 1.433 . S
C1039 N1042 1.384 . S
C1040 H1031 0.929 . S
C1040 C1032 1.378 . S
C1040 C1035 1.350 . S
C1041 H1028 0.929 . S
C1041 C1033 1.433 . S
C1041 N1043 1.384 . S
N1042 C1038 1.427 . S
N1042 C1039 1.384 . S
N1043 C1035 1.427 . S
N1043 C1041 1.384 . S
H1044 C1050 0.930 . S
H1045 C1054 0.930 . S
H1046 C1059 0.929 . S
H1047 C1057 0.929 . S
H1048 C1052 0.929 . S
H1049 C1058 0.929 . S
C1050 H1044 0.930 . S
C1050 C1051 1.367 . S
C1050 C1058 1.378 . S
C1051 C1050 1.367 . S
C1051 C1059 1.433 . S
C1052 H1048 0.929 . S
C1052 C1054 1.378 . S
C1052 C1056 1.350 . S
C1053 C1056 1.463 1_554 S
C1053 C1058 1.350 . S
C1053 N1061 1.427 . S
C1054 H1045 0.930 . S
C1054 C1052 1.378 . S
C1054 C1055 1.367 . S
C1055 C1054 1.367 . S
C1055 C1057 1.433 . S
C1056 C1052 1.350 . S
C1056 C1053 1.463 1_556 S
C1056 N1060 1.427 . S
C1057 H1047 0.929 . S
C1057 C1055 1.433 . S
C1057 N1060 1.384 . S
C1058 H1049 0.929 . S
C1058 C1050 1.378 . S
C1058 C1053 1.350 . S
C1059 H1046 0.929 . S
C1059 C1051 1.433 . S
C1059 N1061 1.384 . S
N1060 C1056 1.427 . S
N1060 C1057 1.384 . S
N1061 C1053 1.427 . S
N1061 C1059 1.384 . S
H1062 C1068 0.930 . S
H1063 C1072 0.930 1_565 S
H1064 C1077 0.929 . S
H1065 C1075 0.929 . S
H1066 C1070 0.929 1_565 S
H1067 C1076 0.929 . S
C1068 H1062 0.930 . S
C1068 C1069 1.367 . S
C1068 C1076 1.378 . S
C1069 C1068 1.367 . S
C1069 C1077 1.433 . S
C1070 H1066 0.929 1_545 S
C1070 C1072 1.378 . S
C1070 C1074 1.350 . S
C1071 C1074 1.463 1_554 S
C1071 C1076 1.350 . S
C1071 N1079 1.427 . S
C1072 H1063 0.930 1_545 S
C1072 C1070 1.378 . S
C1072 C1073 1.367 . S
C1073 C1072 1.367 . S
C1073 C1075 1.433 . S
C1074 C1070 1.350 . S
C1074 C1071 1.463 1_556 S
C1074 N1078 1.427 . S
C1075 H1065 0.929 . S
C1075 C1073 1.433 . S
C1075 N1078 1.384 . S
C1076 H1067 0.929 . S
C1076 C1068 1.378 . S
C1076 C1071 1.350 . S
C1077 H1064 0.929 . S
C1077 C1069 1.433 . S
C1077 N1079 1.384 . S
N1078 C1074 1.427 . S
N1078 C1075 1.384 . S
N1079 C1071 1.427 . S
N1079 C1077 1.384 . S
H1080 C1086 0.930 . S
H1081 C1090 0.930 1_655 S
H1082 C1095 0.929 . S
H1083 C1093 0.929 . S
H1084 C1088 0.929 1_655 S
H1085 C1094 0.929 . S
C1086 H1080 0.930 . S
C1086 C1087 1.367 . S
C1086 C1094 1.378 . S
C1087 C1086 1.367 . S
C1087 C1095 1.433 . S
C1088 H1084 0.929 1_455 S
C1088 C1090 1.378 . S
C1088 C1092 1.350 . S
C1089 C1092 1.463 1_556 S
C1089 C1094 1.350 . S
C1089 N1097 1.427 . S
C1090 H1081 0.930 1_455 S
C1090 C1088 1.378 . S
C1090 C1091 1.367 . S
C1091 C1090 1.367 . S
C1091 C1093 1.433 . S
C1092 C1088 1.350 . S
C1092 C1089 1.463 1_554 S
C1092 N1096 1.427 . S
C1093 H1083 0.929 . S
C1093 C1091 1.433 . S
C1093 N1096 1.384 . S
C1094 H1085 0.929 . S
C1094 C1086 1.378 . S
C1094 C1089 1.350 . S
C1095 H1082 0.929 . S
C1095 C1087 1.433 . S
C1095 N1097 1.384 . S
N1096 C1092 1.427 . S
N1096 C1093 1.384 . S
N1097 C1089 1.427 . S
N1097 C1095 1.384 . S
H1098 C1104 0.930 . S
H1099 C1108 0.930 . S
H1100 C1113 0.929 . S
H1101 C1111 0.929 . S
H1102 C1106 0.929 . S
H1103 C1112 0.929 . S
C1104 H1098 0.930 . S
C1104 C1105 1.367 . S
C1104 C1112 1.378 . S
C1105 C1104 1.367 . S
C1105 C1113 1.433 . S
C1106 H1102 0.929 . S
C1106 C1108 1.378 . S
C1106 C1110 1.350 . S
C1107 C1110 1.463 1_554 S
C1107 C1112 1.350 . S
C1107 N1115 1.427 . S
C1108 H1099 0.930 . S
C1108 C1106 1.378 . S
C1108 C1109 1.367 . S
C1109 C1108 1.367 . S
C1109 C1111 1.433 . S
C1110 C1106 1.350 . S
C1110 C1107 1.463 1_556 S
C1110 N1114 1.427 . S
C1111 H1101 0.929 . S
C1111 C1109 1.433 . S
C1111 N1114 1.384 . S
C1112 H1103 0.929 . S
C1112 C1104 1.378 . S
C1112 C1107 1.350 . S
C1113 H1100 0.929 . S
C1113 C1105 1.433 . S
C1113 N1115 1.384 . S
N1114 C1110 1.427 . S
N1114 C1111 1.384 . S
N1115 C1107 1.427 . S
N1115 C1113 1.384 . S
H1116 C1122 0.930 . S
H1117 C1126 0.930 1_565 S
H1118 C1131 0.929 . S
H1119 C1129 0.929 . S
H1120 C1124 0.929 1_565 S
H1121 C1130 0.929 . S
C1122 H1116 0.930 . S
C1122 C1123 1.367 . S
C1122 C1130 1.378 . S
C1123 C1122 1.367 . S
C1123 C1131 1.433 . S
C1124 H1120 0.929 1_545 S
C1124 C1126 1.378 . S
C1124 C1128 1.350 . S
C1125 C1128 1.463 1_554 S
C1125 C1130 1.350 . S
C1125 N1133 1.427 . S
C1126 H1117 0.930 1_545 S
C1126 C1124 1.378 . S
C1126 C1127 1.367 . S
C1127 C1126 1.367 . S
C1127 C1129 1.433 . S
C1128 C1124 1.350 . S
C1128 C1125 1.463 1_556 S
C1128 N1132 1.427 . S
C1129 H1119 0.929 . S
C1129 C1127 1.433 . S
C1129 N1132 1.384 . S
C1130 H1121 0.929 . S
C1130 C1122 1.378 . S
C1130 C1125 1.350 . S
C1131 H1118 0.929 . S
C1131 C1123 1.433 . S
C1131 N1133 1.384 . S
N1132 C1128 1.427 . S
N1132 C1129 1.384 . S
N1133 C1125 1.427 . S
N1133 C1131 1.384 . S
H1134 C1140 0.930 . S
H1135 C1144 0.930 . S
H1136 C1149 0.929 . S
H1137 C1147 0.929 . S
H1138 C1142 0.929 . S
H1139 C1148 0.929 . S
C1140 H1134 0.930 . S
C1140 C1141 1.367 . S
C1140 C1148 1.378 . S
C1141 C1140 1.367 . S
C1141 C1149 1.433 . S
C1142 H1138 0.929 . S
C1142 C1144 1.378 . S
C1142 C1146 1.350 . S
C1143 C1146 1.463 . S
C1143 C1148 1.350 . S
C1143 N1151 1.427 . S
C1144 H1135 0.930 . S
C1144 C1142 1.378 . S
C1144 C1145 1.367 . S
C1145 C1144 1.367 . S
C1145 C1147 1.433 . S
C1146 C1142 1.350 . S
C1146 C1143 1.463 . S
C1146 N1150 1.427 . S
C1147 H1137 0.929 . S
C1147 C1145 1.433 . S
C1147 N1150 1.384 . S
C1148 H1139 0.929 . S
C1148 C1140 1.378 . S
C1148 C1143 1.350 . S
C1149 H1136 0.929 . S
C1149 C1141 1.433 . S
C1149 N1151 1.384 . S
N1150 C1146 1.427 . S
N1150 C1147 1.384 . S
N1151 C1143 1.427 . S
N1151 C1149 1.384 . S
H1152 C1158 0.930 . S
H1153 C1162 0.930 . S
H1154 C1167 0.929 . S
H1155 C1165 0.929 . S
H1156 C1160 0.929 . S
H1157 C1166 0.929 . S
C1158 H1152 0.930 . S
C1158 C1159 1.367 . S
C1158 C1166 1.378 . S
C1159 C1158 1.367 . S
C1159 C1167 1.433 . S
C1160 H1156 0.929 . S
C1160 C1162 1.378 . S
C1160 C1164 1.350 . S
C1161 C1164 1.463 . S
C1161 C1166 1.350 . S
C1161 N1169 1.427 . S
C1162 H1153 0.930 . S
C1162 C1160 1.378 . S
C1162 C1163 1.367 . S
C1163 C1162 1.367 . S
C1163 C1165 1.433 . S
C1164 C1160 1.350 . S
C1164 C1161 1.463 . S
C1164 N1168 1.427 . S
C1165 H1155 0.929 . S
C1165 C1163 1.433 . S
C1165 N1168 1.384 . S
C1166 H1157 0.929 . S
C1166 C1158 1.378 . S
C1166 C1161 1.350 . S
C1167 H1154 0.929 . S
C1167 C1159 1.433 . S
C1167 N1169 1.384 . S
N1168 C1164 1.427 . S
N1168 C1165 1.384 . S
N1169 C1161 1.427 . S
N1169 C1167 1.384 . S
H1170 C1176 0.930 . S
H1171 C1180 0.930 . S
H1172 C1185 0.929 . S
H1173 C1183 0.929 . S
H1174 C1178 0.929 . S
H1175 C1184 0.929 . S
C1176 H1170 0.930 . S
C1176 C1177 1.367 . S
C1176 C1184 1.378 . S
C1177 C1176 1.367 . S
C1177 C1185 1.433 . S
C1178 H1174 0.929 . S
C1178 C1180 1.378 . S
C1178 C1182 1.350 . S
C1179 C1182 1.463 . S
C1179 C1184 1.350 . S
C1179 N1187 1.427 . S
C1180 H1171 0.930 . S
C1180 C1178 1.378 . S
C1180 C1181 1.367 . S
C1181 C1180 1.367 . S
C1181 C1183 1.433 . S
C1182 C1178 1.350 . S
C1182 C1179 1.463 . S
C1182 N1186 1.427 . S
C1183 H1173 0.929 . S
C1183 C1181 1.433 . S
C1183 N1186 1.384 . S
C1184 H1175 0.929 . S
C1184 C1176 1.378 . S
C1184 C1179 1.350 . S
C1185 H1172 0.929 . S
C1185 C1177 1.433 . S
C1185 N1187 1.384 . S
N1186 C1182 1.427 . S
N1186 C1183 1.384 . S
N1187 C1179 1.427 . S
N1187 C1185 1.384 . S
H1188 C1194 0.930 . S
H1189 C1198 0.930 . S
H1190 C1203 0.929 . S
H1191 C1201 0.929 . S
H1192 C1196 0.929 . S
H1193 C1202 0.929 . S
C1194 H1188 0.930 . S
C1194 C1195 1.367 . S
C1194 C1202 1.378 . S
C1195 C1194 1.367 . S
C1195 C1203 1.433 . S
C1196 H1192 0.929 . S
C1196 C1198 1.378 . S
C1196 C1200 1.350 . S
C1197 C1200 1.463 . S
C1197 C1202 1.350 . S
C1197 N1205 1.427 . S
C1198 H1189 0.930 . S
C1198 C1196 1.378 . S
C1198 C1199 1.367 . S
C1199 C1198 1.367 . S
C1199 C1201 1.433 . S
C1200 C1196 1.350 . S
C1200 C1197 1.463 . S
C1200 N1204 1.427 . S
C1201 H1191 0.929 . S
C1201 C1199 1.433 . S
C1201 N1204 1.384 . S
C1202 H1193 0.929 . S
C1202 C1194 1.378 . S
C1202 C1197 1.350 . S
C1203 H1190 0.929 . S
C1203 C1195 1.433 . S
C1203 N1205 1.384 . S
N1204 C1200 1.427 . S
N1204 C1201 1.384 . S
N1205 C1197 1.427 . S
N1205 C1203 1.384 . S
H1206 C1212 0.930 . S
H1207 C1216 0.930 . S
H1208 C1221 0.929 . S
H1209 C1219 0.929 . S
H1210 C1214 0.929 . S
H1211 C1220 0.929 . S
C1212 H1206 0.930 . S
C1212 C1213 1.367 . S
C1212 C1220 1.378 . S
C1213 C1212 1.367 . S
C1213 C1221 1.433 . S
C1214 H1210 0.929 . S
C1214 C1216 1.378 . S
C1214 C1218 1.350 . S
C1215 C1218 1.463 . S
C1215 C1220 1.350 . S
C1215 N1223 1.427 . S
C1216 H1207 0.930 . S
C1216 C1214 1.378 . S
C1216 C1217 1.367 . S
C1217 C1216 1.367 . S
C1217 C1219 1.433 . S
C1218 C1214 1.350 . S
C1218 C1215 1.463 . S
C1218 N1222 1.427 . S
C1219 H1209 0.929 . S
C1219 C1217 1.433 . S
C1219 N1222 1.384 . S
C1220 H1211 0.929 . S
C1220 C1212 1.378 . S
C1220 C1215 1.350 . S
C1221 H1208 0.929 . S
C1221 C1213 1.433 . S
C1221 N1223 1.384 . S
N1222 C1218 1.427 . S
N1222 C1219 1.384 . S
N1223 C1215 1.427 . S
N1223 C1221 1.384 . S
H1224 C1230 0.930 . S
H1225 C1234 0.930 . S
H1226 C1239 0.929 . S
H1227 C1237 0.929 . S
H1228 C1232 0.929 . S
H1229 C1238 0.929 . S
C1230 H1224 0.930 . S
C1230 C1231 1.367 . S
C1230 C1238 1.378 . S
C1231 C1230 1.367 . S
C1231 C1239 1.433 . S
C1232 H1228 0.929 . S
C1232 C1234 1.378 . S
C1232 C1236 1.350 . S
C1233 C1236 1.463 . S
C1233 C1238 1.350 . S
C1233 N1241 1.427 . S
C1234 H1225 0.930 . S
C1234 C1232 1.378 . S
C1234 C1235 1.367 . S
C1235 C1234 1.367 . S
C1235 C1237 1.433 . S
C1236 C1232 1.350 . S
C1236 C1233 1.463 . S
C1236 N1240 1.427 . S
C1237 H1227 0.929 . S
C1237 C1235 1.433 . S
C1237 N1240 1.384 . S
C1238 H1229 0.929 . S
C1238 C1230 1.378 . S
C1238 C1233 1.350 . S
C1239 H1226 0.929 . S
C1239 C1231 1.433 . S
C1239 N1241 1.384 . S
N1240 C1236 1.427 . S
N1240 C1237 1.384 . S
N1241 C1233 1.427 . S
N1241 C1239 1.384 . S
H1242 C1248 0.930 . S
H1243 C1252 0.930 . S
H1244 C1257 0.929 . S
H1245 C1255 0.929 . S
H1246 C1250 0.929 . S
H1247 C1256 0.929 . S
C1248 H1242 0.930 . S
C1248 C1249 1.367 . S
C1248 C1256 1.378 . S
C1249 C1248 1.367 . S
C1249 C1257 1.433 . S
C1250 H1246 0.929 . S
C1250 C1252 1.378 . S
C1250 C1254 1.350 . S
C1251 C1254 1.463 . S
C1251 C1256 1.350 . S
C1251 N1259 1.427 . S
C1252 H1243 0.930 . S
C1252 C1250 1.378 . S
C1252 C1253 1.367 . S
C1253 C1252 1.367 . S
C1253 C1255 1.433 . S
C1254 C1250 1.350 . S
C1254 C1251 1.463 . S
C1254 N1258 1.427 . S
C1255 H1245 0.929 . S
C1255 C1253 1.433 . S
C1255 N1258 1.384 . S
C1256 H1247 0.929 . S
C1256 C1248 1.378 . S
C1256 C1251 1.350 . S
C1257 H1244 0.929 . S
C1257 C1249 1.433 . S
C1257 N1259 1.384 . S
N1258 C1254 1.427 . S
N1258 C1255 1.384 . S
N1259 C1251 1.427 . S
N1259 C1257 1.384 . S
H1260 C1266 0.930 . S
H1261 C1270 0.930 . S
H1262 C1275 0.929 . S
H1263 C1273 0.929 . S
H1264 C1268 0.929 . S
H1265 C1274 0.929 . S
C1266 H1260 0.930 . S
C1266 C1267 1.367 . S
C1266 C1274 1.378 . S
C1267 C1266 1.367 . S
C1267 C1275 1.433 . S
C1268 H1264 0.929 . S
C1268 C1270 1.378 . S
C1268 C1272 1.350 . S
C1269 C1272 1.463 . S
C1269 C1274 1.350 . S
C1269 N1277 1.427 . S
C1270 H1261 0.930 . S
C1270 C1268 1.378 . S
C1270 C1271 1.367 . S
C1271 C1270 1.367 . S
C1271 C1273 1.433 . S
C1272 C1268 1.350 . S
C1272 C1269 1.463 . S
C1272 N1276 1.427 . S
C1273 H1263 0.929 . S
C1273 C1271 1.433 . S
C1273 N1276 1.384 . S
C1274 H1265 0.929 . S
C1274 C1266 1.378 . S
C1274 C1269 1.350 . S
C1275 H1262 0.929 . S
C1275 C1267 1.433 . S
C1275 N1277 1.384 . S
N1276 C1272 1.427 . S
N1276 C1273 1.384 . S
N1277 C1269 1.427 . S
N1277 C1275 1.384 . S
H1278 C1284 0.930 . S
H1279 C1288 0.930 . S
H1280 C1293 0.929 . S
H1281 C1291 0.929 . S
H1282 C1286 0.929 . S
H1283 C1292 0.929 . S
C1284 H1278 0.930 . S
C1284 C1285 1.367 . S
C1284 C1292 1.378 . S
C1285 C1284 1.367 . S
C1285 C1293 1.433 . S
C1286 H1282 0.929 . S
C1286 C1288 1.378 . S
C1286 C1290 1.350 . S
C1287 C1290 1.463 . S
C1287 C1292 1.350 . S
C1287 N1295 1.427 . S
C1288 H1279 0.930 . S
C1288 C1286 1.378 . S
C1288 C1289 1.367 . S
C1289 C1288 1.367 . S
C1289 C1291 1.433 . S
C1290 C1286 1.350 . S
C1290 C1287 1.463 . S
C1290 N1294 1.427 . S
C1291 H1281 0.929 . S
C1291 C1289 1.433 . S
C1291 N1294 1.384 . S
C1292 H1283 0.929 . S
C1292 C1284 1.378 . S
C1292 C1287 1.350 . S
C1293 H1280 0.929 . S
C1293 C1285 1.433 . S
C1293 N1295 1.384 . S
N1294 C1290 1.427 . S
N1294 C1291 1.384 . S
N1295 C1287 1.427 . S
N1295 C1293 1.384 . S
H1296 C1302 0.930 . S
H1297 C1306 0.930 . S
H1298 C1311 0.929 . S
H1299 C1309 0.929 . S
H1300 C1304 0.929 . S
H1301 C1310 0.929 . S
C1302 H1296 0.930 . S
C1302 C1303 1.367 . S
C1302 C1310 1.378 . S
C1303 C1302 1.367 . S
C1303 C1311 1.433 . S
C1304 H1300 0.929 . S
C1304 C1306 1.378 . S
C1304 C1308 1.350 . S
C1305 C1308 1.463 . S
C1305 C1310 1.350 . S
C1305 N1313 1.427 . S
C1306 H1297 0.930 . S
C1306 C1304 1.378 . S
C1306 C1307 1.367 . S
C1307 C1306 1.367 . S
C1307 C1309 1.433 . S
C1308 C1304 1.350 . S
C1308 C1305 1.463 . S
C1308 N1312 1.427 . S
C1309 H1299 0.929 . S
C1309 C1307 1.433 . S
C1309 N1312 1.384 . S
C1310 H1301 0.929 . S
C1310 C1302 1.378 . S
C1310 C1305 1.350 . S
C1311 H1298 0.929 . S
C1311 C1303 1.433 . S
C1311 N1313 1.384 . S
N1312 C1308 1.427 . S
N1312 C1309 1.384 . S
N1313 C1305 1.427 . S
N1313 C1311 1.384 . S
H1314 C1320 0.930 . S
H1315 C1324 0.930 . S
H1316 C1329 0.929 . S
H1317 C1327 0.929 . S
H1318 C1322 0.929 . S
H1319 C1328 0.929 . S
C1320 H1314 0.930 . S
C1320 C1321 1.367 . S
C1320 C1328 1.378 . S
C1321 C1320 1.367 . S
C1321 C1329 1.433 . S
C1322 H1318 0.929 . S
C1322 C1324 1.378 . S
C1322 C1326 1.350 . S
C1323 C1326 1.463 . S
C1323 C1328 1.350 . S
C1323 N1331 1.427 . S
C1324 H1315 0.930 . S
C1324 C1322 1.378 . S
C1324 C1325 1.367 . S
C1325 C1324 1.367 . S
C1325 C1327 1.433 . S
C1326 C1322 1.350 . S
C1326 C1323 1.463 . S
C1326 N1330 1.427 . S
C1327 H1317 0.929 . S
C1327 C1325 1.433 . S
C1327 N1330 1.384 . S
C1328 H1319 0.929 . S
C1328 C1320 1.378 . S
C1328 C1323 1.350 . S
C1329 H1316 0.929 . S
C1329 C1321 1.433 . S
C1329 N1331 1.384 . S
N1330 C1326 1.427 . S
N1330 C1327 1.384 . S
N1331 C1323 1.427 . S
N1331 C1329 1.384 . S
H1332 C1338 0.930 . S
H1333 C1342 0.930 . S
H1334 C1347 0.929 . S
H1335 C1345 0.929 . S
H1336 C1340 0.929 . S
H1337 C1346 0.929 . S
C1338 H1332 0.930 . S
C1338 C1339 1.367 . S
C1338 C1346 1.378 . S
C1339 C1338 1.367 . S
C1339 C1347 1.433 . S
C1340 H1336 0.929 . S
C1340 C1342 1.378 . S
C1340 C1344 1.350 . S
C1341 C1344 1.463 . S
C1341 C1346 1.350 . S
C1341 N1349 1.427 . S
C1342 H1333 0.930 . S
C1342 C1340 1.378 . S
C1342 C1343 1.367 . S
C1343 C1342 1.367 . S
C1343 C1345 1.433 . S
C1344 C1340 1.350 . S
C1344 C1341 1.463 . S
C1344 N1348 1.427 . S
C1345 H1335 0.929 . S
C1345 C1343 1.433 . S
C1345 N1348 1.384 . S
C1346 H1337 0.929 . S
C1346 C1338 1.378 . S
C1346 C1341 1.350 . S
C1347 H1334 0.929 . S
C1347 C1339 1.433 . S
C1347 N1349 1.384 . S
N1348 C1344 1.427 . S
N1348 C1345 1.384 . S
N1349 C1341 1.427 . S
N1349 C1347 1.384 . S
C385 C280 1.451 . S
C389 C4 1.443 . S
C403 C24 1.464 . S
C407 C298 1.463 . S
C421 C58 1.477 . S
C425 C268 1.490 . S
C439 C46 1.438 . S
C443 C154 1.429 . S
C457 C172 1.456 . S
C461 C16 1.483 . S
C475 C28 1.453 . S
C479 C133 1.461 . S
C493 C67 1.439 . S
C497 C217 1.452 . S
C511 C87 1.496 . S
C515 C238 1.472 . S
C529 C196 1.458 . S
C533 C108 1.484 . S
C547 C352 1.477 . S
C551 C112 1.455 . S
C565 C79 1.482 . S
C569 C360 1.477 . S
C583 C319 1.465 . S
C587 C91 1.463 . S
C601 C184 1.511 . S
C605 C276 1.510 . S
C619 C129 1.488 . S
C623 C310 1.481 . S
C637 C150 1.480 . S
C641 C256 1.477 . S
C655 C192 1.485 . S
C659 C340 1.473 . S
C673 C364 1.446 . S
C677 C213 1.459 . S
C691 C331 1.494 . S
C695 C234 1.481 . S
C709 C20 1.302 . S
C713 C103 1.326 . S
C727 C124 1.304 . S
C731 C25 1.307 . S
C745 C70 1.292 . S
C749 C49 1.301 . S
C763 C88 1.310 . S
C767 C62 1.330 . S
C781 C109 1.335 . S
C785 C7 1.314 . S
C799 C83 1.328 . S
C803 C40 1.303 . S
C817 C229 1.315 . S
C821 C145 1.331 . S
C835 C250 1.322 . S
C839 C166 1.300 . S
C853 C208 1.310 . S
C857 C188 1.287 . S
C871 C214 1.304 . S
C875 C175 1.314 . S
C889 C235 1.305 . S
C893 C130 1.288 . S
C907 C193 1.314 . S
C911 C151 1.328 . S
C925 C356 1.299 . S
C929 C272 1.292 . S
C943 C376 1.312 . S
C947 C277 1.287 . S
C961 C301 1.290 . S
C965 C322 1.318 . S
C979 C314 1.306 . S
C983 C343 1.324 . S
C997 C259 1.292 . S
C1001 C361 1.319 . S
C1015 C335 1.323 . S
C1019 C292 1.325 . S
C1033 C3 1.029 . S
C1037 C19 1.036 . S
C1051 C41 1.048 . S
C1055 C37 1.042 . S
C1069 C61 1.048 . S
C1073 C45 1.057 . S
C1087 C66 1.045 . S
C1091 C82 1.051 . S
C1105 C100 1.037 . S
C1109 C104 1.044 . S
C1123 C121 1.057 . S
C1127 C125 1.047 . S
C1141 C146 1.045 . S
C1145 C142 1.036 . S
C1159 C163 1.024 . S
C1163 C167 1.017 . S
C1177 C187 1.046 . S
C1181 C171 1.056 . S
C1195 C209 1.045 . S
C1199 C205 1.057 . S
C1213 C230 1.022 . S
C1217 C226 1.021 . S
C1231 C251 1.053 . S
C1235 C247 1.050 . S
C1249 C271 1.043 . S
C1253 C255 1.036 . S
C1267 C293 1.050 . S
C1271 C289 1.044 . S
C1285 C313 1.030 . S
C1289 C297 1.045 . S
C1303 C334 1.053 . S
C1307 C318 1.056 . S
C1321 C339 1.037 . S
C1325 C355 1.043 . S
C1339 C377 1.052 . S
C1343 C373 1.050 . S
