# Generated by pormake.
# Topology zfo, (5)-cn, num edge types: 1
# Building blocks:
#     Node 0, Type 0, BuildingBlock: XOMCOT_clean_sbu_0, # of connection points: 5
#     Node 1, Type 0, BuildingBlock: XOMCOT_clean_sbu_0, # of connection points: 5
#     Node 2, Type 0, BuildingBlock: XOMCOT_clean_sbu_0, # of connection points: 5
#     Node 3, Type 0, BuildingBlock: XOMCOT_clean_sbu_0, # of connection points: 5
#     Node 4, Type 0, BuildingBlock: XOMCOT_clean_sbu_0, # of connection points: 5
#     Node 5, Type 0, BuildingBlock: XOMCOT_clean_sbu_0, # of connection points: 5
#     Node 6, Type 0, BuildingBlock: XOMCOT_clean_sbu_0, # of connection points: 5
#     Node 7, Type 0, BuildingBlock: XOMCOT_clean_sbu_0, # of connection points: 5
#     Node 8, Type 0, BuildingBlock: XOMCOT_clean_sbu_0, # of connection points: 5
#     Node 9, Type 0, BuildingBlock: XOMCOT_clean_sbu_0, # of connection points: 5
#     Node 10, Type 0, BuildingBlock: XOMCOT_clean_sbu_0, # of connection points: 5
#     Node 11, Type 0, BuildingBlock: XOMCOT_clean_sbu_0, # of connection points: 5
#     Node 12, Type 0, BuildingBlock: XOMCOT_clean_sbu_0, # of connection points: 5
#     Node 13, Type 0, BuildingBlock: XOMCOT_clean_sbu_0, # of connection points: 5
#     Node 14, Type 0, BuildingBlock: XOMCOT_clean_sbu_0, # of connection points: 5
#     Node 15, Type 0, BuildingBlock: XOMCOT_clean_sbu_0, # of connection points: 5
#     Edge 16, Type (0, 0), BuildingBlock: TEMPAE_clean_linker_10, # of connection points: 2
#     Edge 17, Type (0, 0), BuildingBlock: TEMPAE_clean_linker_10, # of connection points: 2
#     Edge 18, Type (0, 0), BuildingBlock: TEMPAE_clean_linker_10, # of connection points: 2
#     Edge 19, Type (0, 0), BuildingBlock: TEMPAE_clean_linker_10, # of connection points: 2
#     Edge 20, Type (0, 0), BuildingBlock: TEMPAE_clean_linker_10, # of connection points: 2
#     Edge 21, Type (0, 0), BuildingBlock: TEMPAE_clean_linker_10, # of connection points: 2
#     Edge 22, Type (0, 0), BuildingBlock: TEMPAE_clean_linker_10, # of connection points: 2
#     Edge 23, Type (0, 0), BuildingBlock: TEMPAE_clean_linker_10, # of connection points: 2
#     Edge 24, Type (0, 0), BuildingBlock: TEMPAE_clean_linker_10, # of connection points: 2
#     Edge 25, Type (0, 0), BuildingBlock: TEMPAE_clean_linker_10, # of connection points: 2
#     Edge 26, Type (0, 0), BuildingBlock: TEMPAE_clean_linker_10, # of connection points: 2
#     Edge 27, Type (0, 0), BuildingBlock: TEMPAE_clean_linker_10, # of connection points: 2
#     Edge 28, Type (0, 0), BuildingBlock: TEMPAE_clean_linker_10, # of connection points: 2
#     Edge 29, Type (0, 0), BuildingBlock: TEMPAE_clean_linker_10, # of connection points: 2
#     Edge 30, Type (0, 0), BuildingBlock: TEMPAE_clean_linker_10, # of connection points: 2
#     Edge 31, Type (0, 0), BuildingBlock: TEMPAE_clean_linker_10, # of connection points: 2
#     Edge 32, Type (0, 0), BuildingBlock: TEMPAE_clean_linker_10, # of connection points: 2
#     Edge 33, Type (0, 0), BuildingBlock: TEMPAE_clean_linker_10, # of connection points: 2
#     Edge 34, Type (0, 0), BuildingBlock: TEMPAE_clean_linker_10, # of connection points: 2
#     Edge 35, Type (0, 0), BuildingBlock: TEMPAE_clean_linker_10, # of connection points: 2
#     Edge 36, Type (0, 0), BuildingBlock: TEMPAE_clean_linker_10, # of connection points: 2
#     Edge 37, Type (0, 0), BuildingBlock: TEMPAE_clean_linker_10, # of connection points: 2
#     Edge 38, Type (0, 0), BuildingBlock: TEMPAE_clean_linker_10, # of connection points: 2
#     Edge 39, Type (0, 0), BuildingBlock: TEMPAE_clean_linker_10, # of connection points: 2
#     Edge 40, Type (0, 0), BuildingBlock: TEMPAE_clean_linker_10, # of connection points: 2
#     Edge 41, Type (0, 0), BuildingBlock: TEMPAE_clean_linker_10, # of connection points: 2
#     Edge 42, Type (0, 0), BuildingBlock: TEMPAE_clean_linker_10, # of connection points: 2
#     Edge 43, Type (0, 0), BuildingBlock: TEMPAE_clean_linker_10, # of connection points: 2
#     Edge 44, Type (0, 0), BuildingBlock: TEMPAE_clean_linker_10, # of connection points: 2
#     Edge 45, Type (0, 0), BuildingBlock: TEMPAE_clean_linker_10, # of connection points: 2
#     Edge 46, Type (0, 0), BuildingBlock: TEMPAE_clean_linker_10, # of connection points: 2
#     Edge 47, Type (0, 0), BuildingBlock: TEMPAE_clean_linker_10, # of connection points: 2
#     Edge 48, Type (0, 0), BuildingBlock: TEMPAE_clean_linker_10, # of connection points: 2
#     Edge 49, Type (0, 0), BuildingBlock: TEMPAE_clean_linker_10, # of connection points: 2
#     Edge 50, Type (0, 0), BuildingBlock: TEMPAE_clean_linker_10, # of connection points: 2
#     Edge 51, Type (0, 0), BuildingBlock: TEMPAE_clean_linker_10, # of connection points: 2
#     Edge 52, Type (0, 0), BuildingBlock: TEMPAE_clean_linker_10, # of connection points: 2
#     Edge 53, Type (0, 0), BuildingBlock: TEMPAE_clean_linker_10, # of connection points: 2
#     Edge 54, Type (0, 0), BuildingBlock: TEMPAE_clean_linker_10, # of connection points: 2
#     Edge 55, Type (0, 0), BuildingBlock: TEMPAE_clean_linker_10, # of connection points: 2
# Relax obj value: 0.182
# Max RMSD: 0.186
# Mean RMSD: 0.186
data_MOF--net-zfo--node1-XOMCOT_clean_sbu_0--edge1-TEMPAE_clean_linker_10
_symmetry_space_group_name_H-M    P1
_symmetry_Int_Tables_number       1
_symmetry_cell_setting            triclinic
loop_
_symmetry_equiv_pos_as_xyz
'x, y, z'
_cell_length_a     34.647149
_cell_length_b     34.620973
_cell_length_c     58.879896
_cell_angle_alpha  90.031849
_cell_angle_beta   89.985278
_cell_angle_gamma 89.93012
loop_
_atom_site_label
_atom_site_type_symbol
_atom_site_fract_x
_atom_site_fract_y
_atom_site_fract_z
_atom_type_partial_charge
Co0 Co 0.08677 0.21486 0.15771 0.0
C1 C 0.17133 0.20745 0.16418 0.0
C2 C 0.13932 0.17426 0.18835 0.0
C3 C 0.17728 0.17549 0.19526 0.0
N4 N 0.1355 0.19419 0.16875 0.0
N5 N 0.19717 0.19649 0.18002 0.0
H6 H 0.17806 0.22802 0.1511 0.0
H7 H 0.11553 0.16242 0.19798 0.0
C8 C 0.07756 0.12975 0.15701 0.0
O9 O 0.11209 0.12892 0.14777 0.0
N10 N 0.03857 0.23672 0.14755 0.0
C11 C 0.03463 0.26217 0.13043 0.0
C12 C 0.99668 0.27333 0.12916 0.0
C13 C 0.00309 0.23311 0.15677 0.0
N14 N 0.97682 0.25514 0.14571 0.0
C15 C 0.12643 0.22713 0.11533 0.0
C16 C 0.08287 0.17642 0.08975 0.0
C17 C 0.11069 0.19908 0.07892 0.0
C18 C 0.13258 0.22474 0.09193 0.0
C19 C 0.07703 0.18034 0.11311 0.0
N20 N 0.09965 0.2044 0.12591 0.0
H21 H 0.14139 0.2494 0.12452 0.0
H22 H 0.05274 0.16555 0.12052 0.0
H23 H 0.05795 0.27275 0.11995 0.0
H24 H 0.99681 0.21517 0.17136 0.0
O25 O 0.10827 0.26598 0.16029 0.0
O26 O 0.07777 0.23494 0.18793 0.0
O27 O 0.06178 0.16231 0.16168 0.0
C28 C 0.09736 0.26503 0.1814 0.0
H29 H 0.18896 0.16353 0.21079 0.0
H30 H 0.9849 0.2944 0.11748 0.0
H31 H 0.06424 0.15751 0.08002 0.0
H32 H 0.1534 0.24372 0.08396 0.0
Co33 Co 0.79606 0.08393 0.66772 0.0
C34 C 0.80456 0.16742 0.67272 0.0
C35 C 0.84976 0.13767 0.69046 0.0
C36 C 0.85196 0.17657 0.69559 0.0
N37 N 0.82005 0.13216 0.67608 0.0
N38 N 0.82315 0.19505 0.68461 0.0
H39 H 0.77912 0.17245 0.66248 0.0
H40 H 0.86712 0.11486 0.69776 0.0
C41 C 0.86085 0.03007 0.65631 0.0
O42 O 0.83992 0.01745 0.63925 0.0
N43 N 0.77062 0.03552 0.6599 0.0
C44 C 0.74154 0.03043 0.64495 0.0
C45 C 0.72787 0.99347 0.64673 0.0
C46 C 0.7736 1.00128 0.67093 0.0
N47 N 0.74777 0.97512 0.66312 0.0
C48 C 0.77144 0.11029 0.62358 0.0
C49 C 0.84269 0.10698 0.60271 0.0
C50 C 0.81 0.1143 0.58936 0.0
C51 C 0.77419 0.11751 0.60029 0.0
C52 C 0.83852 0.10021 0.626 0.0
N53 N 0.80274 0.09817 0.63575 0.0
H54 H 0.74373 0.11374 0.63169 0.0
H55 H 0.8643 0.09665 0.63603 0.0
H56 H 0.72917 0.05204 0.63409 0.0
H57 H 0.79319 0.99615 0.68493 0.0
O58 O 0.74599 0.10682 0.67327 0.0
O59 O 0.7816 0.07674 0.69912 0.0
O60 O 0.84794 0.05701 0.66911 0.0
C61 C 0.75052 0.0962 0.69428 0.0
H62 H 0.87183 0.18984 0.70742 0.0
H63 H 0.70449 0.98121 0.6369 0.0
H64 H 0.87125 0.10652 0.59523 0.0
H65 H 0.74824 0.12439 0.59087 0.0
Co66 Co 0.9213 0.79426 0.17736 0.0
C67 C 0.83627 0.79838 0.18102 0.0
C68 C 0.86294 0.84829 0.19541 0.0
C69 C 0.82431 0.84887 0.20095 0.0
N70 N 0.87046 0.8171 0.18229 0.0
N71 N 0.80775 0.81714 0.19207 0.0
H72 H 0.83271 0.76996 0.17385 0.0
H73 H 0.8845 0.86761 0.20224 0.0
C74 C 0.93365 0.87681 0.16638 0.0
O75 O 0.90269 0.87358 0.15362 0.0
N76 N 0.97111 0.77015 0.17358 0.0
C77 C 0.97677 0.73687 0.16215 0.0
C78 C 0.01407 0.7249 0.16548 0.0
C79 C 0.00516 0.77827 0.18368 0.0
N80 N 0.03174 0.75082 0.17897 0.0
C81 C 0.88635 0.77821 0.13349 0.0
C82 C 0.94457 0.81132 0.10797 0.0
C83 C 0.91296 0.79498 0.0967 0.0
C84 C 0.88367 0.77809 0.10977 0.0
C85 C 0.94601 0.81096 0.13165 0.0
N86 N 0.9165 0.79577 0.14425 0.0
H87 H 0.86482 0.76294 0.14299 0.0
H88 H 0.97125 0.82273 0.13991 0.0
H89 H 0.9548 0.72175 0.15262 0.0
H90 H 0.00992 0.80265 0.19484 0.0
O91 O 0.89981 0.74378 0.183 0.0
O92 O 0.9226 0.78335 0.20952 0.0
O93 O 0.94584 0.8475 0.1776 0.0
C94 C 0.90614 0.75068 0.20439 0.0
H95 H 0.81017 0.86948 0.21201 0.0
H96 H 0.02725 0.69894 0.15873 0.0
H97 H 0.96807 0.82438 0.0986 0.0
H98 H 0.85943 0.76385 0.10174 0.0
Co99 Co 0.21351 0.91078 0.66475 0.0
C100 C 0.20884 0.82582 0.6708 0.0
C101 C 0.17722 0.85636 0.69633 0.0
C102 C 0.17964 0.81809 0.70264 0.0
N103 N 0.19538 0.86127 0.67623 0.0
N104 N 0.19964 0.79908 0.68652 0.0
H105 H 0.22819 0.81987 0.65696 0.0
H106 H 0.1655 0.87957 0.70654 0.0
C107 C 0.12792 0.91608 0.66515 0.0
O108 O 0.12805 0.8803 0.65771 0.0
N109 N 0.23308 0.9597 0.6541 0.0
C110 C 0.25715 0.96441 0.63635 0.0
C111 C 0.26658 0.00276 0.63464 0.0
C112 C 0.22871 0.99519 0.66329 0.0
N113 N 0.24879 0.02213 0.65155 0.0
C114 C 0.22766 0.8711 0.62249 0.0
C115 C 0.17411 0.91122 0.59697 0.0
C116 C 0.19827 0.8846 0.58605 0.0
C117 C 0.22515 0.86423 0.59916 0.0
C118 C 0.17769 0.91735 0.62032 0.0
N119 N 0.20342 0.89657 0.63308 0.0
H120 H 0.25109 0.85781 0.6316 0.0
H121 H 0.16138 0.94076 0.62766 0.0
H122 H 0.26798 0.9414 0.62569 0.0
H123 H 0.21164 1.00105 0.6783 0.0
O124 O 0.26555 0.89153 0.66752 0.0
O125 O 0.23319 0.92151 0.69486 0.0
O126 O 0.1599 0.93383 0.6684 0.0
C127 C 0.2641 0.90298 0.68854 0.0
H128 H 0.16898 0.80556 0.71827 0.0
H129 H 0.28626 0.01524 0.6224 0.0
H130 H 0.15414 0.92889 0.58736 0.0
H131 H 0.24506 0.84407 0.59134 0.0
Co132 Co 0.5857 0.29525 0.83368 0.0
C133 C 0.67067 0.30136 0.82838 0.0
C134 C 0.6412 0.34629 0.81054 0.0
C135 C 0.67956 0.34699 0.80431 0.0
N136 N 0.63558 0.31819 0.82614 0.0
N137 N 0.69794 0.31863 0.8156 0.0
H138 H 0.67571 0.27434 0.83697 0.0
H139 H 0.61851 0.36322 0.80281 0.0
C140 C 0.57327 0.37895 0.84086 0.0
O141 O 0.60561 0.37774 0.8525 0.0
N142 N 0.53677 0.27071 0.8402 0.0
C143 C 0.53256 0.24195 0.85538 0.0
C144 C 0.49569 0.22793 0.85401 0.0
C145 C 0.50231 0.27362 0.82952 0.0
N146 N 0.47666 0.24749 0.83767 0.0
C147 C 0.62442 0.28535 0.87725 0.0
C148 C 0.56749 0.32101 0.90268 0.0
C149 C 0.59995 0.30622 0.91377 0.0
C150 C 0.62874 0.28829 0.90083 0.0
C151 C 0.56471 0.31822 0.8791 0.0
N152 N 0.59342 0.30143 0.86648 0.0
H153 H 0.64518 0.2686 0.86801 0.0
H154 H 0.53876 0.32872 0.87101 0.0
H155 H 0.55519 0.23122 0.86634 0.0
H156 H 0.49669 0.29317 0.81556 0.0
O157 O 0.60797 0.24453 0.82937 0.0
O158 O 0.58166 0.28054 0.80222 0.0
O159 O 0.56007 0.34795 0.83182 0.0
C160 C 0.59976 0.24904 0.80795 0.0
H161 H 0.69255 0.36578 0.79177 0.0
H162 H 0.48389 0.20475 0.8642 0.0
H163 H 0.54425 0.33436 0.91219 0.0
H164 H 0.65358 0.27525 0.90898 0.0
Co165 Co 0.70283 0.58642 0.33866 0.0
C166 C 0.69803 0.67134 0.33217 0.0
C167 C 0.66369 0.64049 0.30805 0.0
C168 C 0.66474 0.67875 0.3017 0.0
N169 N 0.68414 0.63583 0.32739 0.0
N170 N 0.68649 0.69801 0.31689 0.0
H171 H 0.71889 0.67728 0.34524 0.0
H172 H 0.65088 0.61718 0.29842 0.0
C173 C 0.61732 0.5814 0.33934 0.0
O174 O 0.61781 0.61683 0.34735 0.0
N175 N 0.72312 0.53763 0.34913 0.0
C176 C 0.74883 0.53385 0.36613 0.0
C177 C 0.75973 0.49591 0.36767 0.0
C178 C 0.71912 0.50188 0.34022 0.0
N179 N 0.74114 0.47569 0.35143 0.0
C180 C 0.71806 0.62588 0.38091 0.0
C181 C 0.66493 0.58581 0.40668 0.0
C182 C 0.68976 0.61172 0.41772 0.0
C183 C 0.71647 0.63206 0.40437 0.0
C184 C 0.66826 0.5797 0.38335 0.0
N185 N 0.69369 0.60048 0.37046 0.0
H186 H 0.74104 0.63945 0.37155 0.0
H187 H 0.65163 0.5565 0.3761 0.0
H188 H 0.76009 0.55735 0.37623 0.0
H189 H 0.70113 0.4954 0.32569 0.0
O190 O 0.755 0.60523 0.33528 0.0
O191 O 0.72112 0.57611 0.30829 0.0
O192 O 0.64911 0.56352 0.33554 0.0
C193 C 0.75252 0.59408 0.31424 0.0
H194 H 0.65164 0.69113 0.28668 0.0
H195 H 0.78111 0.48444 0.37925 0.0
H196 H 0.64378 0.5692 0.41602 0.0
H197 H 0.73752 0.65111 0.41204 0.0
Co198 Co 0.41381 0.7154 0.83859 0.0
C199 C 0.32918 0.70405 0.83521 0.0
C200 C 0.36 0.66778 0.81204 0.0
C201 C 0.32114 0.66525 0.80717 0.0
N202 N 0.36506 0.69174 0.82991 0.0
N203 N 0.30196 0.68814 0.82183 0.0
H204 H 0.32292 0.72696 0.84697 0.0
H205 H 0.38316 0.65494 0.80229 0.0
C206 C 0.42651 0.63117 0.84303 0.0
O207 O 0.39306 0.63086 0.85358 0.0
N208 N 0.46172 0.7404 0.84647 0.0
C209 C 0.46512 0.76812 0.86238 0.0
C210 C 0.50195 0.78241 0.86183 0.0
C211 C 0.49653 0.73838 0.83619 0.0
N212 N 0.52169 0.76404 0.84527 0.0
C213 C 0.37649 0.72946 0.88182 0.0
C214 C 0.42645 0.68518 0.90749 0.0
C215 C 0.39699 0.70552 0.91857 0.0
C216 C 0.37185 0.72798 0.90539 0.0
C217 C 0.43009 0.68754 0.88393 0.0
N218 N 0.40427 0.7081 0.87112 0.0
H219 H 0.35932 0.74991 0.87251 0.0
H220 H 0.45505 0.67429 0.87621 0.0
H221 H 0.44205 0.77805 0.8733 0.0
H222 H 0.50276 0.71974 0.82189 0.0
O223 O 0.39003 0.7654 0.83458 0.0
O224 O 0.41974 0.73208 0.80746 0.0
O225 O 0.44056 0.66331 0.83605 0.0
C226 C 0.40007 0.76253 0.81336 0.0
H227 H 0.30819 0.64901 0.79343 0.0
H228 H 0.51324 0.80486 0.87275 0.0
H229 H 0.44777 0.66904 0.91703 0.0
H230 H 0.34936 0.74514 0.91325 0.0
Co231 Co 0.28644 0.41467 0.33205 0.0
C232 C 0.30331 0.33221 0.32974 0.0
C233 C 0.34288 0.36408 0.30895 0.0
C234 C 0.34841 0.32508 0.3051 0.0
N235 N 0.31456 0.36831 0.3244 0.0
N236 N 0.32324 0.30512 0.31811 0.0
H237 H 0.27896 0.32618 0.34068 0.0
H238 H 0.35694 0.38761 0.30015 0.0
C239 C 0.34949 0.46939 0.34525 0.0
O240 O 0.32902 0.47867 0.36325 0.0
N241 N 0.25661 0.46117 0.33903 0.0
C242 C 0.21983 0.46182 0.34659 0.0
C243 C 0.20623 0.49894 0.3462 0.0
C244 C 0.26401 0.49829 0.33308 0.0
N245 N 0.23401 0.52214 0.33786 0.0
C246 C 0.2624 0.39639 0.37777 0.0
C247 C 0.33559 0.39039 0.39604 0.0
C248 C 0.30364 0.38789 0.41056 0.0
C249 C 0.26665 0.38972 0.40102 0.0
C250 C 0.32994 0.39657 0.3728 0.0
N251 N 0.29373 0.40244 0.36419 0.0
H252 H 0.23381 0.39611 0.37076 0.0
H253 H 0.35487 0.39726 0.36179 0.0
H254 H 0.20241 0.4369 0.35044 0.0
H255 H 0.29027 0.50748 0.32481 0.0
O256 O 0.23923 0.38664 0.32665 0.0
O257 O 0.27143 0.4201 0.30062 0.0
O258 O 0.33623 0.44511 0.33087 0.0
C259 C 0.24246 0.39778 0.30564 0.0
H260 H 0.36852 0.31256 0.29311 0.0
H261 H 0.17715 0.50767 0.35054 0.0
H262 H 0.36468 0.38751 0.40257 0.0
H263 H 0.2411 0.38682 0.41148 0.0
Co264 Co 0.91488 0.79062 0.84426 0.0
C265 C 0.83016 0.80193 0.84277 0.0
C266 C 0.85981 0.84576 0.82413 0.0
C267 C 0.82082 0.84929 0.81994 0.0
N268 N 0.86575 0.81648 0.83889 0.0
N269 N 0.80233 0.82157 0.8317 0.0
H270 H 0.82468 0.77502 0.85134 0.0
H271 H 0.88236 0.86169 0.81559 0.0
C272 C 0.93285 0.87339 0.85176 0.0
O273 O 0.90304 0.87385 0.86556 0.0
N274 N 0.96302 0.7638 0.84875 0.0
C275 C 0.96767 0.73283 0.8623 0.0
C276 C 0.00427 0.71854 0.85932 0.0
C277 C 0.99677 0.76799 0.83758 0.0
N278 N 0.02247 0.74047 0.84372 0.0
C279 C 0.88109 0.7771 0.88854 0.0
C280 C 0.93864 0.81302 0.9132 0.0
C281 C 0.90775 0.79616 0.92489 0.0
C282 C 0.87888 0.77773 0.91224 0.0
C283 C 0.93982 0.8115 0.8895 0.0
N284 N 0.91037 0.79528 0.8773 0.0
H285 H 0.86017 0.7603 0.87945 0.0
H286 H 0.96506 0.82266 0.88098 0.0
H287 H 0.94557 0.72094 0.87322 0.0
H288 H 0.00185 0.78967 0.82468 0.0
O289 O 0.8894 0.74151 0.84011 0.0
O290 O 0.91577 0.77647 0.81254 0.0
O291 O 0.94276 0.842 0.84179 0.0
C292 C 0.89671 0.74578 0.81859 0.0
H293 H 0.80735 0.86954 0.80839 0.0
H294 H 0.01653 0.69376 0.86791 0.0
H295 H 0.96243 0.82614 0.9223 0.0
H296 H 0.85497 0.76344 0.92058 0.0
Co297 Co 0.20646 0.92059 0.33541 0.0
C298 C 0.20517 0.83575 0.33036 0.0
C299 C 0.15166 0.86037 0.31932 0.0
C300 C 0.15056 0.82101 0.31565 0.0
N301 N 0.18584 0.86957 0.32879 0.0
N302 N 0.18435 0.80557 0.32259 0.0
H303 H 0.23462 0.83338 0.33615 0.0
H304 H 0.12938 0.88069 0.31474 0.0
C305 C 0.13782 0.97643 0.33503 0.0
O306 O 0.16043 0.00566 0.33973 0.0
N307 N 0.22951 0.97063 0.34202 0.0
C308 C 0.24916 0.97945 0.36114 0.0
C309 C 0.26686 0.01454 0.35846 0.0
C310 C 0.23675 1.00034 0.32764 0.0
N311 N 0.25902 0.02772 0.33747 0.0
C312 C 0.22504 0.88395 0.37785 0.0
C313 C 0.17309 0.92423 0.40447 0.0
C314 C 0.19783 0.89764 0.4149 0.0
C315 C 0.22378 0.87699 0.40124 0.0
C316 C 0.17512 0.93017 0.38108 0.0
N317 N 0.20092 0.91027 0.36793 0.0
H318 H 0.24641 0.86897 0.36788 0.0
H319 H 0.1567 0.95195 0.37405 0.0
H320 H 0.25197 0.9612 0.3759 0.0
H321 H 0.22633 1.00173 0.31033 0.0
O322 O 0.25823 0.9013 0.33057 0.0
O323 O 0.2202 0.92525 0.30374 0.0
O324 O 0.15166 0.94216 0.33345 0.0
C325 C 0.25277 0.90893 0.30918 0.0
H326 H 0.12666 0.80515 0.30839 0.0
H327 H 0.28427 0.02931 0.37102 0.0
H328 H 0.15249 0.94074 0.41436 0.0
H329 H 0.24389 0.85661 0.40866 0.0
Co330 Co 0.08454 0.2097 0.82841 0.0
C331 C 0.16839 0.20056 0.82895 0.0
C332 C 0.14195 0.15825 0.80735 0.0
C333 C 0.18143 0.15684 0.80421 0.0
N334 N 0.13394 0.18574 0.82283 0.0
N335 N 0.1979 0.18365 0.81775 0.0
H336 H 0.17153 0.22544 0.83992 0.0
H337 H 0.12053 0.1423 0.79784 0.0
C338 C 0.0271 0.14526 0.83513 0.0
O339 O 0.00656 0.16793 0.84831 0.0
N340 N 0.03536 0.23554 0.83357 0.0
C341 C 0.02788 0.26269 0.84943 0.0
C342 C 0.99169 0.27747 0.84588 0.0
C343 C 0.00348 0.23489 0.82021 0.0
N344 N 0.97631 0.2601 0.82754 0.0
C345 C 0.1086 0.23568 0.8727 0.0
C346 C 0.09529 0.16743 0.89563 0.0
C347 C 0.10693 0.19992 0.90791 0.0
C348 C 0.11484 0.23406 0.89614 0.0
C349 C 0.09025 0.17008 0.87215 0.0
N350 N 0.09413 0.20465 0.86111 0.0
H351 H 0.11454 0.26244 0.86401 0.0
H352 H 0.084 0.14383 0.86316 0.0
H353 H 0.04735 0.2725 0.8624 0.0
H354 H 1.00052 0.21683 0.8053 0.0
O355 O 0.10771 0.25969 0.82307 0.0
O356 O 0.08157 0.22253 0.79654 0.0
O357 O 0.0589 0.15713 0.82655 0.0
C358 C 0.09999 0.25404 0.80172 0.0
H359 H 0.19667 0.13858 0.79227 0.0
H360 H 0.97767 0.29941 0.85609 0.0
H361 H 0.09058 0.14004 0.90408 0.0
H362 H 0.12474 0.25958 0.90504 0.0
Co363 Co 0.78648 0.08528 0.33858 0.0
C364 C 0.79567 0.1688 0.33952 0.0
C365 C 0.83876 0.143 0.31816 0.0
C366 C 0.84051 0.18268 0.31573 0.0
N367 N 0.81056 0.13456 0.33308 0.0
N368 N 0.81297 0.1987 0.32897 0.0
H369 H 0.77116 0.17153 0.35079 0.0
H370 H 0.85504 0.12185 0.30859 0.0
C371 C 0.85197 0.03038 0.347 0.0
O372 O 0.83163 0.01496 0.3635 0.0
N373 N 0.76101 0.03598 0.34354 0.0
C374 C 0.72926 0.02932 0.35624 0.0
C375 C 0.71619 0.99266 0.35205 0.0
C376 C 0.76616 0.00318 0.33136 0.0
N377 N 0.73923 0.97628 0.33636 0.0
C378 C 0.7616 0.10316 0.38405 0.0
C379 C 0.83351 0.10182 0.40421 0.0
C380 C 0.80085 0.10669 0.41799 0.0
C381 C 0.76462 0.10848 0.40748 0.0
C382 C 0.82906 0.09651 0.38079 0.0
N383 N 0.79317 0.09421 0.37119 0.0
H384 H 0.73373 0.10696 0.37626 0.0
H385 H 0.85471 0.09471 0.37047 0.0
H386 H 0.71463 0.04989 0.36686 0.0
H387 H 0.78804 0.99974 0.31838 0.0
O388 O 0.73681 0.10968 0.33437 0.0
O389 O 0.77158 0.08272 0.30695 0.0
O390 O 0.83831 0.0588 0.33568 0.0
C391 C 0.74084 0.10182 0.31291 0.0
H392 H 0.85881 0.19828 0.304 0.0
H393 H 0.69107 0.97932 0.35966 0.0
H394 H 0.86224 0.10163 0.41145 0.0
H395 H 0.7388 0.11447 0.41725 0.0
Co396 Co 0.4217 0.71225 0.17002 0.0
C397 C 0.33843 0.70474 0.18173 0.0
C398 C 0.35928 0.65555 0.16329 0.0
C399 C 0.31999 0.6518 0.16618 0.0
N400 N 0.37093 0.6888 0.17308 0.0
N401 N 0.30707 0.6828 0.17778 0.0
H402 H 0.33678 0.73309 0.18929 0.0
H403 H 0.37765 0.63639 0.1536 0.0
C404 C 0.44268 0.63466 0.18588 0.0
O405 O 0.42277 0.64335 0.20418 0.0
N406 N 0.47157 0.7361 0.16647 0.0
C407 C 0.47874 0.76568 0.15225 0.0
C408 C 0.51697 0.7754 0.1539 0.0
C409 C 0.50538 0.72854 0.17699 0.0
N410 N 0.53369 0.75213 0.1694 0.0
C411 C 0.38565 0.72786 0.1273 0.0
C412 C 0.44018 0.69075 0.10071 0.0
C413 C 0.4087 0.70878 0.09007 0.0
C414 C 0.38115 0.72743 0.10371 0.0
C415 C 0.44355 0.69181 0.12432 0.0
N416 N 0.41641 0.71006 0.13728 0.0
H417 H 0.36449 0.74261 0.13766 0.0
H418 H 0.46842 0.67849 0.13216 0.0
H419 H 0.45751 0.77922 0.14139 0.0
H420 H 0.50928 0.70616 0.18962 0.0
O421 O 0.40021 0.76291 0.17567 0.0
O422 O 0.42266 0.7233 0.20219 0.0
O423 O 0.44614 0.65961 0.17009 0.0
C424 C 0.40699 0.75635 0.19707 0.0
H425 H 0.3021 0.62884 0.15949 0.0
H426 H 0.53137 0.79823 0.14463 0.0
H427 H 0.462 0.67579 0.09089 0.0
H428 H 0.35669 0.74217 0.09622 0.0
Co429 Co 0.30323 0.41241 0.66166 0.0
C430 C 0.30642 0.32808 0.66184 0.0
C431 C 0.35576 0.35187 0.67883 0.0
C432 C 0.35612 0.31225 0.68156 0.0
N433 N 0.32458 0.36158 0.66641 0.0
N434 N 0.32477 0.29753 0.67109 0.0
H435 H 0.2794 0.32632 0.65269 0.0
H436 H 0.37556 0.37219 0.68647 0.0
C437 C 0.37108 0.46382 0.65225 0.0
O438 O 0.35015 0.48174 0.63691 0.0
N439 N 0.28046 0.46334 0.65749 0.0
C440 C 0.24875 0.47187 0.64512 0.0
C441 C 0.23716 0.5088 0.64991 0.0
C442 C 0.28721 0.49547 0.67003 0.0
N443 N 0.26119 0.52358 0.66556 0.0
C444 C 0.2739 0.39586 0.61696 0.0
C445 C 0.34398 0.39513 0.59465 0.0
C446 C 0.31003 0.39182 0.58187 0.0
C447 C 0.27472 0.39107 0.59342 0.0
C448 C 0.34174 0.40016 0.6182 0.0
N449 N 0.30681 0.40354 0.62888 0.0
H450 H 0.24658 0.39306 0.62554 0.0
H451 H 0.36831 0.40079 0.6277 0.0
H452 H 0.233 0.45235 0.63441 0.0
H453 H 0.3094 0.49754 0.68291 0.0
O454 O 0.25215 0.392 0.66715 0.0
O455 O 0.29134 0.41506 0.69368 0.0
O456 O 0.35686 0.43533 0.66323 0.0
C457 C 0.25861 0.3989 0.68852 0.0
H458 H 0.37659 0.29585 0.69156 0.0
H459 H 0.21219 0.5234 0.64291 0.0
H460 H 0.37202 0.39438 0.58653 0.0
H461 H 0.24791 0.38637 0.58437 0.0
Co462 Co 0.58589 0.29386 0.16521 0.0
C463 C 0.66935 0.30333 0.16267 0.0
C464 C 0.64433 0.34738 0.18369 0.0
C465 C 0.68405 0.3499 0.18515 0.0
N466 N 0.63537 0.31814 0.16957 0.0
N467 N 0.69961 0.3218 0.17212 0.0
H468 H 0.67175 0.27828 0.15176 0.0
H469 H 0.62361 0.36405 0.19333 0.0
C470 C 0.53188 0.36047 0.15681 0.0
O471 O 0.51559 0.34057 0.1404 0.0
N472 N 0.53633 0.26807 0.16145 0.0
C473 C 0.5307 0.23279 0.15223 0.0
C474 C 0.4937 0.22101 0.15645 0.0
C475 C 0.50253 0.27649 0.17197 0.0
N476 N 0.47599 0.24836 0.1689 0.0
C477 C 0.59794 0.26736 0.11943 0.0
C478 C 0.60225 0.3391 0.09921 0.0
C479 C 0.6039 0.30611 0.08533 0.0
C480 C 0.60225 0.26986 0.09593 0.0
C481 C 0.59727 0.33518 0.1227 0.0
N482 N 0.59281 0.29959 0.13242 0.0
H483 H 0.59989 0.23932 0.12713 0.0
H484 H 0.59776 0.3609 0.13306 0.0
H485 H 0.55238 0.21484 0.14451 0.0
H486 H 0.49801 0.30158 0.18262 0.0
O487 O 0.61063 0.24431 0.1694 0.0
O488 O 0.58494 0.27983 0.19697 0.0
O489 O 0.55996 0.34599 0.16803 0.0
C490 C 0.60353 0.24881 0.19092 0.0
H491 H 0.70012 0.36926 0.19604 0.0
H492 H 0.48107 0.1938 0.15129 0.0
H493 H 0.60538 0.36775 0.09209 0.0
H494 H 0.6041 0.24334 0.08625 0.0
Co495 Co 0.71956 0.58358 0.66801 0.0
C496 C 0.70702 0.66682 0.66957 0.0
C497 C 0.66822 0.63759 0.69217 0.0
C498 C 0.66563 0.67685 0.69608 0.0
N499 N 0.69428 0.63152 0.67558 0.0
N500 N 0.69026 0.69506 0.68191 0.0
H501 H 0.73055 0.67147 0.6578 0.0
H502 H 0.65417 0.61502 0.70179 0.0
C503 C 0.65548 0.52789 0.6575 0.0
O504 O 0.6771 0.5133 0.64128 0.0
N505 N 0.7462 0.53553 0.66091 0.0
C506 C 0.77472 0.53003 0.64563 0.0
C507 C 0.78671 0.49231 0.64658 0.0
C508 C 0.74236 0.50107 0.67158 0.0
N509 N 0.76629 0.474 0.66278 0.0
C510 C 0.74403 0.60982 0.62392 0.0
C511 C 0.67358 0.6036 0.60242 0.0
C512 C 0.70608 0.61336 0.58938 0.0
C513 C 0.74136 0.61801 0.60076 0.0
C514 C 0.67746 0.59669 0.6257 0.0
N515 N 0.71298 0.59643 0.63582 0.0
H516 H 0.77142 0.61418 0.63222 0.0
H517 H 0.65157 0.59186 0.6354 0.0
H518 H 0.78725 0.55169 0.63485 0.0
H519 H 0.72203 0.49581 0.68518 0.0
O520 O 0.76847 0.60852 0.67337 0.0
O521 O 0.73433 0.57764 0.69954 0.0
O522 O 0.66811 0.55596 0.66953 0.0
C523 C 0.76435 0.5985 0.69449 0.0
H524 H 0.64814 0.69075 0.70895 0.0
H525 H 0.80945 0.4795 0.63644 0.0
H526 H 0.64531 0.60067 0.59482 0.0
H527 H 0.7669 0.62791 0.59192 0.0
C528 C 0.02254 0.09144 0.17341 0.0
C529 C 0.05651 0.09291 0.16047 0.0
C530 C 0.00254 0.05644 0.17641 0.0
C531 C 0.01653 0.0223 0.16594 0.0
C532 C 0.05099 0.02362 0.15306 0.0
C533 C 0.07063 0.05877 0.15062 0.0
C534 C 0.96614 0.05608 0.1905 0.0
C535 C 0.06662 0.98808 0.14131 0.0
C536 C 0.98242 0.92201 0.18358 0.0
C537 C 0.95447 0.91421 0.16697 0.0
C538 C 0.00207 0.95758 0.18394 0.0
C539 C 0.994 0.98567 0.16708 0.0
C540 C 0.9657 0.97794 0.15037 0.0
C541 C 0.94616 0.9425 0.15062 0.0
C542 C 0.03172 0.96498 0.2022 0.0
C543 C 0.95665 0.00675 0.13185 0.0
H544 H 0.01159 0.11762 0.18121 0.0
H545 H 0.09681 0.05955 0.14054 0.0
H546 H 0.94108 0.04882 0.17959 0.0
H547 H 0.9681 0.03349 0.20381 0.0
H548 H 0.96055 0.08438 0.19879 0.0
H549 H 0.09445 0.99366 0.13255 0.0
H550 H 0.07096 0.96447 0.15379 0.0
H551 H 0.04543 0.97765 0.12858 0.0
H552 H 0.98883 0.90039 0.19635 0.0
H553 H 0.92474 0.93672 0.13764 0.0
H554 H 0.02508 0.99241 0.21115 0.0
H555 H 0.06068 0.96821 0.19441 0.0
H556 H 0.03295 0.94125 0.21487 0.0
H557 H 0.94793 0.03479 0.1394 0.0
H558 H 0.9332 0.99669 0.12043 0.0
H559 H 0.98285 0.01208 0.12147 0.0
C560 C 0.05723 0.91465 0.6726 0.0
C561 C 0.09041 0.93616 0.66757 0.0
C562 C 0.02057 0.93188 0.67274 0.0
C563 C 0.01678 0.97148 0.6672 0.0
C564 C 0.05034 0.9937 0.6628 0.0
C565 C 0.08688 0.97583 0.66328 0.0
C566 C 0.98573 0.90729 0.67804 0.0
C567 C 0.0475 0.03584 0.65648 0.0
C568 C 0.92021 0.99833 0.64093 0.0
C569 C 0.90101 0.01598 0.65915 0.0
C570 C 0.95829 0.98496 0.64315 0.0
C571 C 0.9775 0.98856 0.66429 0.0
C572 C 0.95834 0.0065 0.68276 0.0
C573 C 0.92044 0.02037 0.6799 0.0
C574 C 0.97784 0.96659 0.62291 0.0
C575 C 0.9775 0.01018 0.70568 0.0
H576 H 0.0599 0.88403 0.67614 0.0
H577 H 0.11245 0.99249 0.65925 0.0
H578 H 0.96756 0.92148 0.69114 0.0
H579 H 0.96778 0.90401 0.66256 0.0
H580 H 0.99387 0.87806 0.68418 0.0
H581 H 0.0763 0.04978 0.65529 0.0
H582 H 0.0328 0.03866 0.63982 0.0
H583 H 0.02984 0.05173 0.66912 0.0
H584 H 0.90557 0.99524 0.62476 0.0
H585 H 0.90573 0.03396 0.69407 0.0
H586 H 0.98394 0.93574 0.62653 0.0
H587 H 0.00591 0.98091 0.61958 0.0
H588 H 0.95992 0.96831 0.6073 0.0
H589 H 0.9836 0.98101 0.71262 0.0
H590 H 0.95931 0.02618 0.71807 0.0
H591 H 0.00557 0.02528 0.70399 0.0
C592 C 0.43642 0.56181 0.85301 0.0
C593 C 0.44826 0.59442 0.84069 0.0
C594 C 0.45652 0.52672 0.85154 0.0
C595 C 0.4891 0.5238 0.83715 0.0
C596 C 0.50083 0.55635 0.82427 0.0
C597 C 0.48043 0.59141 0.82633 0.0
C598 C 0.44339 0.493 0.86587 0.0
C599 C 0.53516 0.55422 0.80854 0.0
C600 C 0.5624 0.44703 0.85331 0.0
C601 C 0.55212 0.41613 0.8391 0.0
C602 C 0.54266 0.48238 0.85247 0.0
C603 C 0.51207 0.48733 0.83682 0.0
C604 C 0.50203 0.45659 0.82204 0.0
C605 C 0.52198 0.4212 0.82348 0.0
C606 C 0.55389 0.51409 0.86881 0.0
C607 C 0.46988 0.46093 0.80494 0.0
H608 H 0.41169 0.5638 0.86422 0.0
H609 H 0.4896 0.61638 0.81664 0.0
H610 H 0.43762 0.46755 0.85495 0.0
H611 H 0.46659 0.48474 0.87793 0.0
H612 H 0.41687 0.49968 0.87574 0.0
H613 H 0.53908 0.58123 0.79863 0.0
H614 H 0.56177 0.54879 0.81851 0.0
H615 H 0.53175 0.52973 0.79654 0.0
H616 H 0.58555 0.44341 0.86551 0.0
H617 H 0.51404 0.39757 0.81234 0.0
H618 H 0.52925 0.5208 0.8802 0.0
H619 H 0.5609 0.54089 0.85937 0.0
H620 H 0.57915 0.50608 0.87944 0.0
H621 H 0.442 0.46501 0.81389 0.0
H622 H 0.46741 0.43537 0.79362 0.0
H623 H 0.47475 0.48698 0.79435 0.0
C624 C 0.54696 0.58425 0.3313 0.0
C625 C 0.57962 0.56204 0.33652 0.0
C626 C 0.51005 0.56771 0.33069 0.0
C627 C 0.50552 0.5281 0.33598 0.0
C628 C 0.53857 0.50519 0.34059 0.0
C629 C 0.57539 0.52239 0.34055 0.0
C630 C 0.47576 0.593 0.32518 0.0
C631 C 0.53489 0.463 0.34663 0.0
C632 C 0.40811 0.5016 0.36119 0.0
C633 C 0.38932 0.48443 0.34267 0.0
C634 C 0.44622 0.51495 0.35935 0.0
C635 C 0.46594 0.51167 0.33836 0.0
C636 C 0.44715 0.49443 0.31956 0.0
C637 C 0.40916 0.48073 0.32199 0.0
C638 C 0.46532 0.53279 0.37989 0.0
C639 C 0.46694 0.49101 0.2968 0.0
H640 H 0.55023 0.61487 0.32794 0.0
H641 H 0.6006 0.50522 0.34472 0.0
H642 H 0.45784 0.57938 0.31177 0.0
H643 H 0.45734 0.59628 0.34047 0.0
H644 H 0.48454 0.6222 0.31933 0.0
H645 H 0.56343 0.44857 0.34813 0.0
H646 H 0.51947 0.46016 0.36307 0.0
H647 H 0.51753 0.44762 0.33365 0.0
H648 H 0.39318 0.50421 0.3773 0.0
H649 H 0.39485 0.46747 0.30759 0.0
H650 H 0.47215 0.56353 0.37643 0.0
H651 H 0.49298 0.51784 0.38353 0.0
H652 H 0.44679 0.53134 0.39526 0.0
H653 H 0.4742 0.52019 0.29031 0.0
H654 H 0.44871 0.47609 0.284 0.0
H655 H 0.49446 0.47489 0.2986 0.0
C656 C 0.04472 0.07519 0.83312 0.0
C657 C 0.0163 0.10406 0.83334 0.0
C658 C 0.03462 0.03591 0.83442 0.0
C659 C 0.99515 0.02531 0.83526 0.0
C660 C 0.96638 0.05439 0.83412 0.0
C661 C 0.97732 0.09342 0.83357 0.0
C662 C 0.06617 0.00596 0.83619 0.0
C663 C 0.92398 0.04438 0.83429 0.0
C664 C 0.96314 0.92124 0.82541 0.0
C665 C 0.95364 0.90985 0.84754 0.0
C666 C 0.97758 0.95853 0.82108 0.0
C667 C 0.98368 0.98437 0.83942 0.0
C668 C 0.97619 0.97194 0.86192 0.0
C669 C 0.9606 0.93511 0.86564 0.0
C670 C 0.98421 0.97096 0.79683 0.0
C671 C 0.98337 0.99803 0.88204 0.0
H672 H 0.07492 0.08339 0.83312 0.0
H673 H 0.95531 0.11572 0.83355 0.0
H674 H 0.06552 0.99275 0.85336 0.0
H675 H 0.06146 0.98242 0.82373 0.0
H676 H 0.09527 0.01851 0.83334 0.0
H677 H 0.90547 0.06985 0.83062 0.0
H678 H 0.9178 0.02158 0.82155 0.0
H679 H 0.91586 0.03279 0.85119 0.0
H680 H 0.95728 0.90179 0.81139 0.0
H681 H 0.95338 0.92615 0.88277 0.0
H682 H 0.01337 0.9837 0.79486 0.0
H683 H 0.96297 0.99369 0.79225 0.0
H684 H 0.98117 0.94659 0.78468 0.0
H685 H 0.01288 0.01036 0.88119 0.0
H686 H 0.98004 0.9826 0.89846 0.0
H687 H 0.9627 0.02252 0.88172 0.0
C688 C 0.07985 0.01692 0.34393 0.0
C689 C 0.09535 0.98267 0.33494 0.0
C690 C 0.03982 0.02296 0.34498 0.0
C691 C 0.01444 0.99434 0.33654 0.0
C692 C 0.02982 0.96001 0.32703 0.0
C693 C 0.07007 0.95448 0.32649 0.0
C694 C 0.02468 0.05979 0.3555 0.0
C695 C 0.00374 0.92909 0.31751 0.0
C696 C 0.91212 0.99673 0.35999 0.0
C697 C 0.89262 0.01825 0.34337 0.0
C698 C 0.95153 0.98788 0.3577 0.0
C699 C 0.97185 1.0003 0.33815 0.0
C700 C 0.95194 0.02066 0.32088 0.0
C701 C 0.91267 0.02967 0.32379 0.0
C702 C 0.97176 0.96654 0.37664 0.0
C703 C 0.97236 0.03386 0.29961 0.0
H704 H 0.09901 0.03887 0.35062 0.0
H705 H 0.08167 0.92812 0.31934 0.0
H706 H 0.00659 0.07565 0.34307 0.0
H707 H 0.00606 0.05284 0.37028 0.0
H708 H 0.04823 0.07919 0.36129 0.0
H709 H 0.02023 0.90465 0.31002 0.0
H710 H 0.98478 0.91767 0.33112 0.0
H711 H 0.98472 0.94154 0.30423 0.0
H712 H 0.89692 0.98787 0.37521 0.0
H713 H 0.89775 0.04605 0.31078 0.0
H714 H 0.99402 0.98547 0.38434 0.0
H715 H 0.9868 0.9407 0.36985 0.0
H716 H 0.9515 0.9572 0.39019 0.0
H717 H 0.99423 0.05602 0.304 0.0
H718 H 0.95212 0.04639 0.28696 0.0
H719 H 0.98789 0.0093 0.29163 0.0
C720 C 0.48422 0.41466 0.15273 0.0
C721 C 0.51901 0.40056 0.16168 0.0
C722 C 0.47196 0.45268 0.15709 0.0
C723 C 0.49523 0.47741 0.1705 0.0
C724 C 0.53039 0.46335 0.17956 0.0
C725 C 0.54174 0.42509 0.17516 0.0
C726 C 0.43406 0.46641 0.14732 0.0
C727 C 0.55623 0.48885 0.19376 0.0
C728 C 0.4805 0.58579 0.16355 0.0
C729 C 0.45775 0.59485 0.18256 0.0
C730 C 0.4933 0.54784 0.1596 0.0
C731 C 0.48291 0.51806 0.17491 0.0
C732 C 0.46035 0.52708 0.19427 0.0
C733 C 0.44819 0.56535 0.19791 0.0
C734 C 0.51767 0.53954 0.13889 0.0
C735 C 0.44851 0.49618 0.21096 0.0
H736 H 0.46638 0.39588 0.14241 0.0
H737 H 0.56877 0.41456 0.18206 0.0
H738 H 0.41481 0.47649 0.16118 0.0
H739 H 0.43906 0.49135 0.13588 0.0
H740 H 0.41897 0.44342 0.13762 0.0
H741 H 0.58269 0.47357 0.19952 0.0
H742 H 0.56493 0.51462 0.18381 0.0
H743 H 0.54033 0.49935 0.20891 0.0
H744 H 0.48814 0.60836 0.15163 0.0
H745 H 0.43055 0.57197 0.21261 0.0
H746 H 0.50247 0.51885 0.12763 0.0
H747 H 0.54527 0.52582 0.14404 0.0
H748 H 0.52423 0.56607 0.12902 0.0
H749 H 0.431 0.4739 0.20217 0.0
H750 H 0.43142 0.50799 0.22535 0.0
H751 H 0.47443 0.48151 0.21789 0.0
C752 C 0.42913 0.50341 0.64203 0.0
C753 C 0.41247 0.47397 0.65513 0.0
C754 C 0.46865 0.51203 0.64371 0.0
C755 C 0.4922 0.49078 0.6589 0.0
C756 C 0.47545 0.46158 0.67253 0.0
C757 C 0.43583 0.45352 0.67048 0.0
C758 C 0.48535 0.54345 0.6289 0.0
C759 C 0.49951 0.43835 0.68898 0.0
C760 C 0.59939 0.48744 0.64498 0.0
C761 C 0.61433 0.51615 0.65932 0.0
C762 C 0.55989 0.47831 0.64506 0.0
C763 C 0.53458 0.4983 0.65987 0.0
C764 C 0.54962 0.52649 0.67489 0.0
C765 C 0.58927 0.53507 0.67444 0.0
C766 C 0.54507 0.44798 0.62882 0.0
C767 C 0.52364 0.54832 0.69101 0.0
H768 H 0.4114 0.51948 0.63017 0.0
H769 H 0.42329 0.4308 0.68075 0.0
H770 H 0.50011 0.56536 0.63954 0.0
H771 H 0.50733 0.53096 0.6173 0.0
H772 H 0.46297 0.55815 0.61851 0.0
H773 H 0.48186 0.41773 0.69902 0.0
H774 H 0.52185 0.42185 0.67956 0.0
H775 H 0.51481 0.45792 0.70087 0.0
H776 H 0.61844 0.47254 0.63328 0.0
H777 H 0.60046 0.55727 0.68563 0.0
H778 H 0.52471 0.46135 0.61659 0.0
H779 H 0.52891 0.42546 0.63825 0.0
H780 H 0.5687 0.43384 0.61913 0.0
H781 H 0.50269 0.56592 0.6812 0.0
H782 H 0.54008 0.56779 0.70247 0.0
H783 H 0.50674 0.52783 0.70152 0.0
C784 C 0.12219 0.16454 0.04224 0.0
C785 C 0.11393 0.19883 0.05389 0.0
C786 C 0.12371 0.16385 0.0184 0.0
C787 C 0.11562 0.19802 0.00603 0.0
C788 C 0.10735 0.23273 0.01781 0.0
C789 C 0.10708 0.2328 0.04164 0.0
C790 C 0.13352 0.12652 0.00645 0.0
C791 C 0.09762 0.26951 0.00527 0.0
C792 C 0.1443 0.20826 0.94395 0.0
C793 C 0.10987 0.19836 0.93295 0.0
C794 C 0.14696 0.20727 0.96776 0.0
C795 C 0.11407 0.19718 0.98077 0.0
C796 C 0.0792 0.18731 0.96965 0.0
C797 C 0.07769 0.18755 0.94584 0.0
C798 C 0.18487 0.21707 0.97898 0.0
C799 C 0.04324 0.17733 0.98289 0.0
H800 H 0.12756 0.13834 0.05182 0.0
H801 H 0.10026 0.25918 0.05074 0.0
H802 H 0.10836 0.11654 0.9964 0.0
H803 H 0.15768 0.13116 0.99439 0.0
H804 H 0.14176 0.10331 0.01854 0.0
H805 H 0.09229 0.29413 0.01698 0.0
H806 H 0.12145 0.27738 0.99359 0.0
H807 H 0.07144 0.26503 0.99474 0.0
H808 H 0.16921 0.21639 0.93389 0.0
H809 H 0.051 0.18022 0.93725 0.0
H810 H 0.19384 0.19321 0.99041 0.0
H811 H 0.1815 0.2433 0.98962 0.0
H812 H 0.20822 0.22228 0.96642 0.0
H813 H 0.04876 0.15207 0.994 0.0
H814 H 0.0184 0.17056 0.97165 0.0
H815 H 0.03514 0.20185 0.99407 0.0
C816 C 0.83321 0.1325 0.45314 0.0
C817 C 0.80422 0.10992 0.44312 0.0
C818 C 0.83636 0.13552 0.47689 0.0
C819 C 0.81006 0.11529 0.49094 0.0
C820 C 0.78084 0.09238 0.4809 0.0
C821 C 0.77825 0.09004 0.45716 0.0
C822 C 0.86775 0.1604 0.48697 0.0
C823 C 0.75241 0.07009 0.49525 0.0
C824 C 0.83531 0.09046 0.55203 0.0
C825 C 0.81289 0.11719 0.5642 0.0
C826 C 0.8356 0.09028 0.52818 0.0
C827 C 0.81306 0.11761 0.51616 0.0
C828 C 0.79148 0.14556 0.52833 0.0
C829 C 0.79157 0.14495 0.55219 0.0
C830 C 0.85884 0.05986 0.51587 0.0
C831 C 0.76736 0.17539 0.51614 0.0
H832 H 0.85312 0.14825 0.4424 0.0
H833 H 0.75613 0.0721 0.44954 0.0
H834 H 0.85478 0.18314 0.49785 0.0
H835 H 0.88676 0.14264 0.49797 0.0
H836 H 0.88574 0.17447 0.47373 0.0
H837 H 0.73136 0.05366 0.4848 0.0
H838 H 0.76806 0.0495 0.50637 0.0
H839 H 0.73624 0.09016 0.50646 0.0
H840 H 0.85151 0.06864 0.56117 0.0
H841 H 0.7746 0.16602 0.56147 0.0
H842 H 0.878 0.07351 0.5031 0.0
H843 H 0.83909 0.0402 0.50658 0.0
H844 H 0.87679 0.04234 0.52763 0.0
H845 H 0.78516 0.191 0.50346 0.0
H846 H 0.75446 0.19679 0.52799 0.0
H847 H 0.74369 0.16088 0.50675 0.0
C848 C 0.91611 0.82979 0.96232 0.0
C849 C 0.90671 0.79625 0.95015 0.0
C850 C 0.91619 0.83004 0.98618 0.0
C851 C 0.90685 0.79586 0.99817 0.0
C852 C 0.89708 0.76198 0.98599 0.0
C853 C 0.89705 0.76261 0.96214 0.0
C854 C 0.92653 0.86682 0.99854 0.0
C855 C 0.88725 0.72488 0.99815 0.0
C856 C 0.94409 0.78579 0.0586 0.0
C857 C 0.91115 0.79471 0.07145 0.0
C858 C 0.94303 0.78591 0.03477 0.0
C859 C 0.9082 0.7953 0.02346 0.0
C860 C 0.87479 0.8042 0.03632 0.0
C861 C 0.87664 0.80369 0.06016 0.0
C862 C 0.9792 0.77594 0.02169 0.0
C863 C 0.83719 0.81457 0.02488 0.0
H864 H 0.92321 0.85598 0.95315 0.0
H865 H 0.89028 0.73644 0.95285 0.0
H866 H 0.90282 0.87517 0.01023 0.0
H867 H 0.95268 0.8621 0.00906 0.0
H868 H 0.93212 0.89118 0.98673 0.0
H869 H 0.87947 0.70129 0.98621 0.0
H870 H 0.91222 0.71532 0.00853 0.0
H871 H 0.86274 0.72968 0.00995 0.0
H872 H 0.9707 0.77827 0.06722 0.0
H873 H 0.85119 0.81098 0.06999 0.0
H874 H 0.98751 0.80048 0.01062 0.0
H875 H 0.97376 0.75076 0.01048 0.0
H876 H 0.00386 0.76902 0.03304 0.0
H877 H 0.84123 0.84044 0.01403 0.0
H878 H 0.81381 0.82061 0.0373 0.0
H879 H 0.82784 0.79064 0.01363 0.0
C880 C 0.19614 0.92564 0.45405 0.0
C881 C 0.19763 0.89297 0.43998 0.0
C882 C 0.19597 0.92206 0.47777 0.0
C883 C 0.19718 0.88486 0.48772 0.0
C884 C 0.19864 0.85171 0.47364 0.0
C885 C 0.19903 0.85617 0.4499 0.0
C886 C 0.19479 0.95816 0.49218 0.0
C887 C 0.19973 0.8116 0.48364 0.0
C888 C 0.23269 0.88118 0.54868 0.0
C889 C 0.1979 0.88108 0.56088 0.0
C890 C 0.23288 0.88119 0.52484 0.0
C891 C 0.19743 0.88099 0.5129 0.0
C892 C 0.16223 0.87965 0.52511 0.0
C893 C 0.16288 0.87986 0.54896 0.0
C894 C 0.27102 0.88295 0.51246 0.0
C895 C 0.12385 0.87912 0.51298 0.0
H896 H 0.1957 0.95417 0.44648 0.0
H897 H 0.19988 0.83083 0.43909 0.0
H898 H 0.16907 0.95764 0.5034 0.0
H899 H 0.22062 0.95933 0.50329 0.0
H900 H 0.19381 0.98491 0.48178 0.0
H901 H 0.2004 0.78879 0.47037 0.0
H902 H 0.22559 0.80832 0.49459 0.0
H903 H 0.17406 0.80696 0.49457 0.0
H904 H 0.25985 0.88272 0.55776 0.0
H905 H 0.13594 0.87942 0.55832 0.0
H906 H 0.2733 0.91074 0.50318 0.0
H907 H 0.27285 0.85947 0.49968 0.0
H908 H 0.29602 0.88044 0.52418 0.0
H909 H 0.11975 0.90664 0.50363 0.0
H910 H 0.09925 0.8753 0.52487 0.0
H911 H 0.12324 0.85545 0.50027 0.0
C912 C 0.58869 0.33905 0.04821 0.0
C913 C 0.60732 0.30916 0.06007 0.0
C914 C 0.58954 0.34073 0.02436 0.0
C915 C 0.60871 0.31135 0.01197 0.0
C916 C 0.62827 0.28161 0.02377 0.0
C917 C 0.62783 0.28121 0.04761 0.0
C918 C 0.56902 0.37341 0.0124 0.0
C919 C 0.64862 0.24944 0.01121 0.0
C920 C 0.57326 0.29109 0.95207 0.0
C921 C 0.60252 0.30758 0.93885 0.0
C922 C 0.57512 0.29189 0.97587 0.0
C923 C 0.60655 0.31048 0.98669 0.0
C924 C 0.63596 0.32763 0.97336 0.0
C925 C 0.63385 0.3255 0.94954 0.0
C926 C 0.54366 0.27244 0.98943 0.0
C927 C 0.6694 0.34851 0.98425 0.0
H928 H 0.57241 0.36063 0.05749 0.0
H929 H 0.64334 0.25859 0.05646 0.0
H930 H 0.5885 0.38709 0.9998 0.0
H931 H 0.54378 0.36198 0.00298 0.0
H932 H 0.55876 0.39592 0.02444 0.0
H933 H 0.66311 0.22883 0.02289 0.0
H934 H 0.62748 0.23325 1.00073 0.0
H935 H 0.67052 0.26151 0.99947 0.0
H936 H 0.54919 0.277 0.94372 0.0
H937 H 0.6563 0.33846 0.93924 0.0
H938 H 0.529 0.29386 1.00049 0.0
H939 H 0.5564 0.2501 1.00068 0.0
H940 H 0.52166 0.25855 0.97841 0.0
H941 H 0.65847 0.37196 0.99539 0.0
H942 H 0.68928 0.36124 0.97148 0.0
H943 H 0.68603 0.32834 0.99513 0.0
C944 C 0.73479 0.60718 0.55027 0.0
C945 C 0.70352 0.61786 0.56415 0.0
C946 C 0.73245 0.60938 0.52652 0.0
C947 C 0.69758 0.6214 0.51621 0.0
C948 C 0.66602 0.63265 0.52998 0.0
C949 C 0.66954 0.6313 0.55374 0.0
C950 C 0.76706 0.59782 0.51245 0.0
C951 C 0.62808 0.64491 0.5196 0.0
C952 C 0.69966 0.65 0.45379 0.0
C953 C 0.68988 0.61507 0.44305 0.0
C954 C 0.70211 0.65263 0.47758 0.0
C955 C 0.69355 0.61988 0.49104 0.0
C956 C 0.68256 0.58493 0.48042 0.0
C957 C 0.6815 0.58277 0.45665 0.0
C958 C 0.71477 0.69017 0.48828 0.0
C959 C 0.67257 0.54948 0.49417 0.0
H960 H 0.76098 0.59602 0.55788 0.0
H961 H 0.64542 0.64052 0.56411 0.0
H962 H 0.76062 0.57088 0.50298 0.0
H963 H 0.77367 0.62052 0.49974 0.0
H964 H 0.79314 0.59285 0.52303 0.0
H965 H 0.60666 0.65388 0.53262 0.0
H966 H 0.63261 0.66924 0.50766 0.0
H967 H 0.61578 0.62063 0.50966 0.0
H968 H 0.70564 0.67536 0.44363 0.0
H969 H 0.67493 0.55528 0.44879 0.0
H970 H 0.74178 0.68551 0.49804 0.0
H971 H 0.69262 0.7005 0.50045 0.0
H972 H 0.71995 0.71313 0.47547 0.0
H973 H 0.69851 0.53911 0.50338 0.0
H974 H 0.66155 0.52554 0.48342 0.0
H975 H 0.65038 0.55666 0.5071 0.0
C976 C 0.43764 0.71438 0.05117 0.0
C977 C 0.40505 0.70852 0.06489 0.0
C978 C 0.43486 0.71383 0.0274 0.0
C979 C 0.39857 0.70735 0.01703 0.0
C980 C 0.36549 0.70164 0.03075 0.0
C981 C 0.36912 0.7023 0.05451 0.0
C982 C 0.47079 0.7202 0.01337 0.0
C983 C 0.32633 0.6946 0.02031 0.0
C984 C 0.38821 0.74006 0.95572 0.0
C985 C 0.3946 0.70551 0.9438 0.0
C986 C 0.38852 0.74091 0.97956 0.0
C987 C 0.39545 0.70641 0.99181 0.0
C988 C 0.40104 0.6713 0.97991 0.0
C989 C 0.40054 0.67128 0.95607 0.0
C990 C 0.3825 0.77894 0.99163 0.0
C991 C 0.40839 0.63389 0.99236 0.0
H992 H 0.46538 0.71984 0.05904 0.0
H993 H 0.34389 0.69733 0.06499 0.0
H994 H 0.47601 0.69484 0.00225 0.0
H995 H 0.46687 0.74565 0.00216 0.0
H996 H 0.4968 0.7249 0.02405 0.0
H997 H 0.30338 0.69114 0.03333 0.0
H998 H 0.31845 0.71902 0.00902 0.0
H999 H 0.3272 0.66818 0.00965 0.0
H1000 H 0.38418 0.76675 0.9464 0.0
H1001 H 0.40505 0.64441 0.94698 0.0
H1002 H 0.40903 0.78682 1.00111 0.0
H1003 H 0.35882 0.77635 0.00423 0.0
H1004 H 0.37541 0.80275 0.9797 0.0
H1005 H 0.43569 0.63604 0.00213 0.0
H1006 H 0.41053 0.60881 0.98064 0.0
H1007 H 0.38489 0.62835 0.00473 0.0
C1008 C 0.33758 0.36495 0.54562 0.0
C1009 C 0.31115 0.38927 0.55668 0.0
C1010 C 0.33851 0.36246 0.52179 0.0
C1011 C 0.3127 0.38516 0.50874 0.0
C1012 C 0.28618 0.40996 0.51984 0.0
C1013 C 0.28563 0.41157 0.54364 0.0
C1014 C 0.36689 0.3354 0.51057 0.0
C1015 C 0.25847 0.43497 0.50656 0.0
C1016 C 0.3344 0.40883 0.447 0.0
C1017 C 0.30861 0.38446 0.43554 0.0
C1018 C 0.33683 0.40862 0.47082 0.0
C1019 C 0.31316 0.38315 0.48346 0.0
C1020 C 0.28816 0.35743 0.47192 0.0
C1021 C 0.28603 0.35854 0.44811 0.0
C1022 C 0.36358 0.43674 0.48247 0.0
C1023 C 0.26282 0.32951 0.48476 0.0
H1024 H 0.35712 0.34741 0.55564 0.0
H1025 H 0.26551 0.4308 0.5521 0.0
H1026 H 0.3512 0.31401 0.50001 0.0
H1027 H 0.38619 0.35181 0.49906 0.0
H1028 H 0.38491 0.31962 0.52313 0.0
H1029 H 0.24 0.45303 0.51776 0.0
H1030 H 0.27475 0.45427 0.49497 0.0
H1031 H 0.23955 0.41661 0.49587 0.0
H1032 H 0.35163 0.42918 0.43737 0.0
H1033 H 0.2664 0.33933 0.4393 0.0
H1034 H 0.38278 0.42127 0.49449 0.0
H1035 H 0.34641 0.45774 0.49252 0.0
H1036 H 0.38172 0.45299 0.4702 0.0
H1037 H 0.28041 0.31223 0.49679 0.0
H1038 H 0.24717 0.30948 0.47326 0.0
H1039 H 0.24129 0.34577 0.49495 0.0
C1040 C 0.09387 0.30372 0.21716 0.0
C1041 C 0.11462 0.29135 0.19812 0.0
C1042 C 0.11221 0.32468 0.23452 0.0
C1043 C 0.15248 0.33156 0.23318 0.0
C1044 C 0.17342 0.31916 0.21385 0.0
C1045 C 0.154 0.29998 0.19632 0.0
C1046 C 0.08879 0.33842 0.25458 0.0
C1047 C 0.21668 0.32412 0.21223 0.0
C1048 C 0.20393 0.40527 0.27017 0.0
C1049 C 0.21715 0.38199 0.28795 0.0
C1050 C 0.1813 0.38956 0.25266 0.0
C1051 C 0.17332 0.34942 0.25257 0.0
C1052 C 0.18699 0.32583 0.27051 0.0
C1053 C 0.2081 0.34261 0.28824 0.0
C1054 C 0.16638 0.41572 0.23414 0.0
C1055 C 0.18064 0.28265 0.27054 0.0
H1056 H 0.06347 0.2967 0.21854 0.0
H1057 H 0.1702 0.2896 0.18178 0.0
H1058 H 0.09727 0.32207 0.26998 0.0
H1059 H 0.09466 0.36941 0.25795 0.0
H1060 H 0.0573 0.33458 0.25184 0.0
H1061 H 0.22847 0.31348 0.19582 0.0
H1062 H 0.22454 0.35497 0.21422 0.0
H1063 H 0.23093 0.30798 0.2262 0.0
H1064 H 0.21106 0.43576 0.27006 0.0
H1065 H 0.21902 0.32459 0.30188 0.0
H1066 H 0.13479 0.41179 0.23207 0.0
H1067 H 0.18012 0.40801 0.21773 0.0
H1068 H 0.1723 0.44666 0.23773 0.0
H1069 H 0.14932 0.27614 0.27007 0.0
H1070 H 0.19338 0.26846 0.28572 0.0
H1071 H 0.19374 0.26968 0.25511 0.0
C1072 C 0.74101 0.12423 0.73263 0.0
C1073 C 0.72498 0.11119 0.7122 0.0
C1074 C 0.71856 0.14461 0.74845 0.0
C1075 C 0.67884 0.1508 0.74401 0.0
C1076 C 0.66212 0.13579 0.72391 0.0
C1077 C 0.68563 0.11683 0.70798 0.0
C1078 C 0.73786 0.16141 0.76924 0.0
C1079 C 0.6197 0.14089 0.7189 0.0
C1080 C 0.61899 0.18332 0.79468 0.0
C1081 C 0.61602 0.22304 0.79065 0.0
C1082 C 0.63791 0.15905 0.7791 0.0
C1083 C 0.65559 0.17532 0.75963 0.0
C1084 C 0.65255 0.21553 0.75554 0.0
C1085 C 0.63216 0.23879 0.77092 0.0
C1086 C 0.63965 0.1162 0.78368 0.0
C1087 C 0.67223 0.23427 0.73545 0.0
H1088 H 0.77167 0.12052 0.73564 0.0
H1089 H 0.67337 0.10682 0.69209 0.0
H1090 H 0.73622 0.19342 0.76864 0.0
H1091 H 0.72267 0.15199 0.78485 0.0
H1092 H 0.7687 0.15285 0.77056 0.0
H1093 H 0.61038 0.12374 0.70392 0.0
H1094 H 0.60216 0.13213 0.7338 0.0
H1095 H 0.61344 0.17178 0.71553 0.0
H1096 H 0.6066 0.1713 0.81004 0.0
H1097 H 0.63052 0.26971 0.7681 0.0
H1098 H 0.66988 0.10743 0.78714 0.0
H1099 H 0.62987 0.0999 0.7685 0.0
H1100 H 0.62153 0.10773 0.79842 0.0
H1101 H 0.70384 0.22927 0.73641 0.0
H1102 H 0.66695 0.2659 0.7347 0.0
H1103 H 0.66197 0.22109 0.71938 0.0
C1104 C 0.81811 0.61666 0.30296 0.0
C1105 C 0.77969 0.60898 0.29715 0.0
C1106 C 0.84237 0.63691 0.28802 0.0
C1107 C 0.82728 0.65099 0.26726 0.0
C1108 C 0.78864 0.64262 0.26117 0.0
C1109 C 0.76551 0.62112 0.27605 0.0
C1110 C 0.88368 0.64444 0.29481 0.0
C1111 C 0.77103 0.65823 0.23956 0.0
C1112 C 0.87163 0.74054 0.24083 0.0
C1113 C 0.89048 0.72487 0.22192 0.0
C1114 C 0.8513 0.71673 0.25594 0.0
C1115 C 0.85107 0.67622 0.25239 0.0
C1116 C 0.87167 0.6602 0.23386 0.0
C1117 C 0.89053 0.68486 0.21856 0.0
C1118 C 0.8285 0.73509 0.27499 0.0
C1119 C 0.87281 0.61716 0.22983 0.0
H1120 H 0.82892 0.6075 0.31938 0.0
H1121 H 0.73551 0.61597 0.27178 0.0
H1122 H 0.90351 0.63629 0.28079 0.0
H1123 H 0.88776 0.67572 0.2981 0.0
H1124 H 0.89203 0.62821 0.31033 0.0
H1125 H 0.74092 0.6481 0.23699 0.0
H1126 H 0.77089 0.69029 0.24006 0.0
H1127 H 0.78853 0.64945 0.22465 0.0
H1128 H 0.87098 0.77163 0.24309 0.0
H1129 H 0.90504 0.67291 0.20382 0.0
H1130 H 0.83695 0.72234 0.29154 0.0
H1131 H 0.79728 0.72924 0.27258 0.0
H1132 H 0.83274 0.76687 0.27585 0.0
H1133 H 0.88142 0.6019 0.24561 0.0
H1134 H 0.89321 0.60913 0.21605 0.0
H1135 H 0.84362 0.60673 0.22515 0.0
C1136 C 0.40708 0.80203 0.77817 0.0
C1137 C 0.38425 0.78889 0.79617 0.0
C1138 C 0.39088 0.82436 0.76066 0.0
C1139 C 0.35067 0.83199 0.76073 0.0
C1140 C 0.32759 0.81864 0.77897 0.0
C1141 C 0.34488 0.79793 0.79673 0.0
C1142 C 0.41655 0.839 0.74184 0.0
C1143 C 0.28437 0.82451 0.77921 0.0
C1144 C 0.30299 0.90894 0.72412 0.0
C1145 C 0.29092 0.88704 0.70547 0.0
C1146 C 0.32446 0.89183 0.74172 0.0
C1147 C 0.33216 0.85161 0.74107 0.0
C1148 C 0.32 0.8295 0.72213 0.0
C1149 C 0.30031 0.84772 0.70433 0.0
C1150 C 0.33794 0.91651 0.7613 0.0
C1151 C 0.3258 0.78624 0.72122 0.0
H1152 H 0.43753 0.79478 0.7778 0.0
H1153 H 0.32717 0.78698 0.81048 0.0
H1154 H 0.40928 0.8241 0.72572 0.0
H1155 H 0.41168 0.87036 0.73915 0.0
H1156 H 0.44762 0.83413 0.74552 0.0
H1157 H 0.27066 0.8124 0.79471 0.0
H1158 H 0.27738 0.85572 0.77819 0.0
H1159 H 0.27133 0.81039 0.76412 0.0
H1160 H 0.29536 0.93929 0.72501 0.0
H1161 H 0.29013 0.8306 0.69012 0.0
H1162 H 0.36905 0.91134 0.76464 0.0
H1163 H 0.32193 0.90856 0.77692 0.0
H1164 H 0.33346 0.9478 0.75802 0.0
H1165 H 0.31517 0.77344 0.70508 0.0
H1166 H 0.31017 0.77242 0.73553 0.0
H1167 H 0.3568 0.77902 0.72316 0.0
C1168 C 0.84105 0.70966 0.80298 0.0
C1169 C 0.88012 0.71957 0.80159 0.0
C1170 C 0.82334 0.68815 0.7857 0.0
C1171 C 0.84575 0.67492 0.76712 0.0
C1172 C 0.88572 0.68351 0.76622 0.0
C1173 C 0.90227 0.70658 0.78325 0.0
C1174 C 0.78035 0.68117 0.78682 0.0
C1175 C 0.91079 0.66894 0.74706 0.0
C1176 C 0.80049 0.59554 0.73119 0.0
C1177 C 0.78796 0.61654 0.71229 0.0
C1178 C 0.82078 0.6139 0.74884 0.0
C1179 C 0.82683 0.65437 0.74793 0.0
C1180 C 0.81369 0.67564 0.72889 0.0
C1181 C 0.79516 0.65627 0.71109 0.0
C1182 C 0.83542 0.59012 0.76852 0.0
C1183 C 0.81794 0.71903 0.72766 0.0
H1184 H 0.82391 0.72035 0.81707 0.0
H1185 H 0.93254 0.71436 0.7823 0.0
H1186 H 0.7661 0.69445 0.77185 0.0
H1187 H 0.77421 0.64977 0.78624 0.0
H1188 H 0.76715 0.69341 0.80245 0.0
H1189 H 0.9419 0.67464 0.75013 0.0
H1190 H 0.90662 0.6374 0.74475 0.0
H1191 H 0.9023 0.68318 0.73095 0.0
H1192 H 0.79465 0.56482 0.73207 0.0
H1193 H 0.78466 0.67258 0.69662 0.0
H1194 H 0.82023 0.59866 0.78432 0.0
H1195 H 0.86664 0.59564 0.77119 0.0
H1196 H 0.83108 0.55867 0.76578 0.0
H1197 H 0.80392 0.73264 0.74262 0.0
H1198 H 0.80487 0.73134 0.71202 0.0
H1199 H 0.8489 0.72705 0.72812 0.0
C1200 C 0.26473 0.88118 0.27089 0.0
C1201 C 0.27942 0.89401 0.29174 0.0
C1202 C 0.28814 0.86085 0.25554 0.0
C1203 C 0.32751 0.85445 0.26085 0.0
C1204 C 0.34297 0.86928 0.28134 0.0
C1205 C 0.31852 0.88829 0.29676 0.0
C1206 C 0.27028 0.84464 0.23415 0.0
C1207 C 0.385 0.86392 0.2873 0.0
C1208 C 0.37445 0.76632 0.23417 0.0
C1209 C 0.39138 0.78218 0.21471 0.0
C1210 C 0.35397 0.78964 0.2495 0.0
C1211 C 0.35165 0.82998 0.24565 0.0
C1212 C 0.37044 0.84635 0.22659 0.0
C1213 C 0.38944 0.82208 0.21105 0.0
C1214 C 0.33308 0.77081 0.26911 0.0
C1215 C 0.36957 0.88931 0.22228 0.0
H1216 H 0.23434 0.88508 0.26715 0.0
H1217 H 0.32984 0.89819 0.31291 0.0
H1218 H 0.28473 0.85698 0.21901 0.0
H1219 H 0.27453 0.81288 0.23352 0.0
H1220 H 0.23888 0.85085 0.23299 0.0
H1221 H 0.3934 0.88081 0.30256 0.0
H1222 H 0.39089 0.83294 0.29065 0.0
H1223 H 0.40355 0.87278 0.27285 0.0
H1224 H 0.37532 0.73531 0.23673 0.0
H1225 H 0.40249 0.83424 0.19592 0.0
H1226 H 0.30151 0.77533 0.26723 0.0
H1227 H 0.34185 0.78427 0.28539 0.0
H1228 H 0.33875 0.73926 0.27009 0.0
H1229 H 0.33984 0.89841 0.21778 0.0
H1230 H 0.38924 0.89786 0.20825 0.0
H1231 H 0.3779 0.90528 0.23787 0.0
C1232 C 0.13042 0.26269 0.76393 0.0
C1233 C 0.11658 0.27912 0.78409 0.0
C1234 C 0.15175 0.28472 0.7484 0.0
C1235 C 0.15819 0.32441 0.75284 0.0
C1236 C 0.14249 0.34156 0.77264 0.0
C1237 C 0.12248 0.31847 0.7883 0.0
C1238 C 0.16905 0.26505 0.72784 0.0
C1239 C 0.14777 0.38401 0.7776 0.0
C1240 C 0.24734 0.36893 0.72621 0.0
C1241 C 0.23224 0.38436 0.70612 0.0
C1242 C 0.22342 0.34976 0.74176 0.0
C1243 C 0.18328 0.34724 0.7374 0.0
C1244 C 0.16767 0.36456 0.71764 0.0
C1245 C 0.19252 0.38229 0.70198 0.0
C1246 C 0.24139 0.33057 0.76224 0.0
C1247 C 0.12491 0.36345 0.71277 0.0
H1248 H 0.12641 0.23205 0.7609 0.0
H1249 H 0.11177 0.33106 0.80395 0.0
H1250 H 0.15983 0.27992 0.71208 0.0
H1251 H 0.20101 0.2668 0.72862 0.0
H1252 H 0.16066 0.23415 0.72664 0.0
H1253 H 0.13033 0.39365 0.79239 0.0
H1254 H 0.1786 0.39002 0.78121 0.0
H1255 H 0.13953 0.40149 0.76256 0.0
H1256 H 0.27821 0.37001 0.72919 0.0
H1257 H 0.18095 0.39428 0.68638 0.0
H1258 H 0.23657 0.2989 0.7614 0.0
H1259 H 0.22751 0.34111 0.77805 0.0
H1260 H 0.27293 0.33595 0.76341 0.0
H1261 H 0.11591 0.33334 0.70914 0.0
H1262 H 0.11696 0.38178 0.69801 0.0
H1263 H 0.10839 0.37334 0.72785 0.0
C1264 C 0.70384 0.09876 0.27655 0.0
C1265 C 0.71534 0.11935 0.29584 0.0
C1266 C 0.68217 0.11686 0.2594 0.0
C1267 C 0.67378 0.15685 0.26115 0.0
C1268 C 0.68546 0.17762 0.28071 0.0
C1269 C 0.70527 0.15831 0.29806 0.0
C1270 C 0.66883 0.09342 0.23927 0.0
C1271 C 0.67873 0.2206 0.28284 0.0
C1272 C 0.6596 0.21397 0.20684 0.0
C1273 C 0.6202 0.2226 0.20786 0.0
C1274 C 0.67741 0.19237 0.22402 0.0
C1275 C 0.65477 0.17763 0.24209 0.0
C1276 C 0.61449 0.18485 0.24256 0.0
C1277 C 0.59779 0.20817 0.22568 0.0
C1278 C 0.72066 0.18687 0.22334 0.0
C1279 C 0.58919 0.1684 0.26104 0.0
H1280 H 0.71173 0.06857 0.27494 0.0
H1281 H 0.7147 0.1742 0.3129 0.0
H1282 H 0.63763 0.09842 0.23615 0.0
H1283 H 0.68457 0.10266 0.2238 0.0
H1284 H 0.67374 0.06199 0.24175 0.0
H1285 H 0.69025 0.2325 0.299 0.0
H1286 H 0.69283 0.23585 0.26849 0.0
H1287 H 0.64744 0.22711 0.28194 0.0
H1288 H 0.67683 0.22572 0.19312 0.0
H1289 H 0.56724 0.21493 0.2263 0.0
H1290 H 0.72788 0.15567 0.22321 0.0
H1291 H 0.73384 0.19951 0.23883 0.0
H1292 H 0.73402 0.20061 0.20821 0.0
H1293 H 0.59461 0.13696 0.26292 0.0
H1294 H 0.55801 0.173 0.25753 0.0
H1295 H 0.59626 0.18221 0.27752 0.0
C1296 C 0.42152 0.21054 0.18351 0.0
C1297 C 0.43698 0.24635 0.17721 0.0
C1298 C 0.38194 0.20608 0.18746 0.0
C1299 C 0.35711 0.2383 0.18506 0.0
C1300 C 0.37296 0.27527 0.18063 0.0
C1301 C 0.41289 0.27889 0.17674 0.0
C1302 C 0.36641 0.16626 0.19255 0.0
C1303 C 0.34752 0.31045 0.1784 0.0
C1304 C 0.259 0.21124 0.16171 0.0
C1305 C 0.23669 0.20888 0.18145 0.0
C1306 C 0.29785 0.22226 0.16263 0.0
C1307 C 0.31471 0.23172 0.18384 0.0
C1308 C 0.29184 0.23093 0.20379 0.0
C1309 C 0.25306 0.21924 0.20237 0.0
C1310 C 0.32123 0.22228 0.14097 0.0
C1311 C 0.30835 0.24215 0.22657 0.0
H1312 H 0.44032 0.18557 0.18444 0.0
H1313 H 0.42487 0.30661 0.17194 0.0
H1314 H 0.34694 0.16717 0.20751 0.0
H1315 H 0.34921 0.15585 0.17788 0.0
H1316 H 0.3898 0.14505 0.19592 0.0
H1317 H 0.36446 0.33764 0.1792 0.0
H1318 H 0.33225 0.30949 0.16185 0.0
H1319 H 0.32526 0.31095 0.19195 0.0
H1320 H 0.24621 0.2033 0.14558 0.0
H1321 H 0.23541 0.21848 0.21756 0.0
H1322 H 0.3443 0.20008 0.14206 0.0
H1323 H 0.33549 0.25066 0.13861 0.0
H1324 H 0.30329 0.21612 0.12575 0.0
H1325 H 0.33501 0.22543 0.23009 0.0
H1326 H 0.28755 0.23744 0.24066 0.0
H1327 H 0.31647 0.27313 0.22632 0.0
C1328 C 0.77366 0.24648 0.68426 0.0
C1329 C 0.81244 0.23524 0.68638 0.0
C1330 C 0.76312 0.28565 0.68379 0.0
C1331 C 0.79208 0.31433 0.68535 0.0
C1332 C 0.83094 0.30314 0.68903 0.0
C1333 C 0.84065 0.26372 0.68952 0.0
C1334 C 0.72124 0.29624 0.68041 0.0
C1335 C 0.86262 0.33281 0.69111 0.0
C1336 C 0.7788 0.40669 0.65172 0.0
C1337 C 0.76969 0.4337 0.66864 0.0
C1338 C 0.7853 0.36779 0.65698 0.0
C1339 C 0.78273 0.35532 0.67983 0.0
C1340 C 0.77231 0.38214 0.69699 0.0
C1341 C 0.76581 0.42111 0.69117 0.0
C1342 C 0.79567 0.34015 0.63806 0.0
C1343 C 0.76939 0.37008 0.72155 0.0
H1344 H 0.75152 0.22461 0.68261 0.0
H1345 H 0.87059 0.2552 0.69133 0.0
H1346 H 0.71247 0.31915 0.69255 0.0
H1347 H 0.71717 0.3079 0.66302 0.0
H1348 H 0.70182 0.271 0.68261 0.0
H1349 H 0.89047 0.31971 0.69644 0.0
H1350 H 0.8669 0.34728 0.67449 0.0
H1351 H 0.85444 0.35539 0.70359 0.0
H1352 H 0.78104 0.41614 0.63424 0.0
H1353 H 0.75898 0.44194 0.7043 0.0
H1354 H 0.77506 0.31566 0.63775 0.0
H1355 H 0.82487 0.32796 0.64106 0.0
H1356 H 0.79545 0.35427 0.62112 0.0
H1357 H 0.75337 0.34249 0.72322 0.0
H1358 H 0.75489 0.39238 0.73212 0.0
H1359 H 0.79881 0.36529 0.72842 0.0
C1360 C 0.58475 0.75158 0.19876 0.0
C1361 C 0.57368 0.7534 0.17588 0.0
C1362 C 0.62328 0.75865 0.2052 0.0
C1363 C 0.65104 0.7674 0.18828 0.0
C1364 C 0.6402 0.76706 0.1651 0.0
C1365 C 0.6017 0.76019 0.15924 0.0
C1366 C 0.63375 0.75875 0.23009 0.0
C1367 C 0.66894 0.77556 0.14645 0.0
C1368 C 0.7384 0.83123 0.19655 0.0
C1369 C 0.76848 0.8043 0.19495 0.0
C1370 C 0.6997 0.81929 0.19631 0.0
C1371 C 0.69094 0.77946 0.19437 0.0
C1372 C 0.72119 0.75197 0.19458 0.0
C1373 C 0.75962 0.76473 0.19495 0.0
C1374 C 0.66827 0.84952 0.19641 0.0
C1375 C 0.71302 0.70923 0.19302 0.0
H1376 H 0.56296 0.74653 0.21162 0.0
H1377 H 0.59314 0.76101 0.14155 0.0
H1378 H 0.66122 0.74304 0.23302 0.0
H1379 H 0.63811 0.78895 0.23586 0.0
H1380 H 0.61082 0.74549 0.24071 0.0
H1381 H 0.65627 0.77198 0.12924 0.0
H1382 H 0.67951 0.80567 0.14812 0.0
H1383 H 0.6943 0.75614 0.14794 0.0
H1384 H 0.74507 0.86178 0.19672 0.0
H1385 H 0.78274 0.74367 0.19465 0.0
H1386 H 0.64518 0.84157 0.20859 0.0
H1387 H 0.65499 0.85122 0.17929 0.0
H1388 H 0.67947 0.87857 0.20097 0.0
H1389 H 0.69255 0.70051 0.20656 0.0
H1390 H 0.73966 0.69155 0.19456 0.0
H1391 H 0.69919 0.7026 0.17648 0.0
C1392 C 0.28888 0.58632 0.67676 0.0
C1393 C 0.25736 0.56113 0.67572 0.0
C1394 C 0.28343 0.62563 0.68204 0.0
C1395 C 0.24567 0.63959 0.68649 0.0
C1396 C 0.21446 0.61334 0.68747 0.0
C1397 C 0.22068 0.5745 0.68192 0.0
C1398 C 0.31752 0.65265 0.68128 0.0
C1399 C 0.17395 0.62676 0.69272 0.0
C1400 C 0.2231 0.7414 0.70717 0.0
C1401 C 0.21253 0.75953 0.68679 0.0
C1402 C 0.236 0.70285 0.70734 0.0
C1403 C 0.23748 0.68183 0.68671 0.0
C1404 C 0.22766 0.70041 0.66606 0.0
C1405 C 0.2155 0.73901 0.66637 0.0
C1406 C 0.2469 0.68456 0.7297 0.0
C1407 C 0.2288 0.67917 0.64365 0.0
H1408 H 0.31722 0.57584 0.67197 0.0
H1409 H 0.19647 0.55471 0.68143 0.0
H1410 H 0.31575 0.67074 0.66577 0.0
H1411 H 0.31718 0.67242 0.69613 0.0
H1412 H 0.34539 0.63674 0.68103 0.0
H1413 H 0.15375 0.60221 0.69517 0.0
H1414 H 0.17375 0.64484 0.70828 0.0
H1415 H 0.16309 0.64486 0.67853 0.0
H1416 H 0.22163 0.75746 0.72295 0.0
H1417 H 0.2073 0.75299 0.65063 0.0
H1418 H 0.27071 0.66339 0.72767 0.0
H1419 H 0.22154 0.66898 0.73663 0.0
H1420 H 0.25585 0.70671 0.7423 0.0
H1421 H 0.25759 0.66583 0.64105 0.0
H1422 H 0.22253 0.69843 0.62901 0.0
H1423 H 0.20722 0.6555 0.64376 0.0
C1424 C 0.92256 0.30459 0.81998 0.0
C1425 C 0.93817 0.26727 0.81872 0.0
C1426 C 0.88341 0.31143 0.8156 0.0
C1427 C 0.85909 0.28015 0.8098 0.0
C1428 C 0.87528 0.24288 0.80666 0.0
C1429 C 0.91478 0.23683 0.81118 0.0
C1430 C 0.86759 0.35176 0.81872 0.0
C1431 C 0.85045 0.20903 0.79986 0.0
C1432 C 0.75732 0.29213 0.83235 0.0
C1433 C 0.73769 0.30678 0.81343 0.0
C1434 C 0.7964 0.28186 0.83105 0.0
C1435 C 0.81642 0.28585 0.81019 0.0
C1436 C 0.79629 0.29893 0.79069 0.0
C1437 C 0.75724 0.30972 0.79262 0.0
C1438 C 0.81667 0.26825 0.85231 0.0
C1439 C 0.81607 0.30293 0.76797 0.0
H1440 H 0.94083 0.32831 0.82528 0.0
H1441 H 0.92679 0.20798 0.81014 0.0
H1442 H 0.85041 0.3604 0.80366 0.0
H1443 H 0.84804 0.35239 0.83365 0.0
H1444 H 0.8908 0.37341 0.82139 0.0
H1445 H 0.86802 0.18346 0.79501 0.0
H1446 H 0.83149 0.20087 0.81426 0.0
H1447 H 0.83148 0.21697 0.7854 0.0
H1448 H 0.74232 0.28996 0.84844 0.0
H1449 H 0.74199 0.32034 0.77782 0.0
H1450 H 0.83909 0.28952 0.85725 0.0
H1451 H 0.83145 0.24033 0.84913 0.0
H1452 H 0.79647 0.26454 0.8668 0.0
H1453 H 0.83042 0.33152 0.76709 0.0
H1454 H 0.79502 0.30115 0.75378 0.0
H1455 H 0.83844 0.28037 0.76548 0.0
C1456 C 0.70509 0.75782 0.33656 0.0
C1457 C 0.69778 0.73805 0.31626 0.0
C1458 C 0.71516 0.79697 0.33654 0.0
C1459 C 0.71808 0.81703 0.31564 0.0
C1460 C 0.71194 0.79699 0.29497 0.0
C1461 C 0.70166 0.75772 0.29554 0.0
C1462 C 0.72129 0.8172 0.359 0.0
C1463 C 0.71519 0.81718 0.27232 0.0
C1464 C 0.69734 0.9231 0.32398 0.0
C1465 C 0.73452 0.9382 0.32694 0.0
C1466 C 0.69169 0.88416 0.31851 0.0
C1467 C 0.72406 0.85959 0.31598 0.0
C1468 C 0.76178 0.8753 0.31717 0.0
C1469 C 0.76658 0.9146 0.32262 0.0
C1470 C 0.65097 0.86878 0.31714 0.0
C1471 C 0.79701 0.85011 0.3143 0.0
H1472 H 0.70184 0.74285 0.3526 0.0
H1473 H 0.69677 0.74239 0.27976 0.0
H1474 H 0.74966 0.83203 0.35913 0.0
H1475 H 0.69872 0.8396 0.36142 0.0
H1476 H 0.72017 0.79696 0.37361 0.0
H1477 H 0.71464 0.79653 0.25786 0.0
H1478 H 0.69079 0.83767 0.2703 0.0
H1479 H 0.74224 0.83423 0.27146 0.0
H1480 H 0.67253 0.94158 0.32677 0.0
H1481 H 0.79534 0.92628 0.32485 0.0
H1482 H 0.64518 0.85007 0.33206 0.0
H1483 H 0.64724 0.85082 0.3017 0.0
H1484 H 0.62914 0.89231 0.3169 0.0
H1485 H 0.80075 0.83191 0.32966 0.0
H1486 H 0.82363 0.86748 0.31189 0.0
H1487 H 0.79353 0.83038 0.29959 0.0
C1488 C 0.08503 0.76593 0.83024 0.0
C1489 C 0.06115 0.73451 0.83545 0.0
C1490 C 0.12425 0.76025 0.825 0.0
C1491 C 0.13965 0.72232 0.82494 0.0
C1492 C 0.11496 0.69044 0.8286 0.0
C1493 C 0.07608 0.69694 0.83389 0.0
C1494 C 0.14957 0.7948 0.82043 0.0
C1495 C 0.13001 0.64951 0.82788 0.0
C1496 C 0.23982 0.6988 0.80207 0.0
C1497 C 0.26138 0.69719 0.8222 0.0
C1498 C 0.20039 0.7085 0.80244 0.0
C1499 C 0.18206 0.71592 0.82352 0.0
C1500 C 0.20391 0.71475 0.84383 0.0
C1501 C 0.24324 0.70552 0.84289 0.0
C1502 C 0.1787 0.7097 0.78022 0.0
C1503 C 0.18556 0.72239 0.86668 0.0
H1504 H 0.0735 0.79497 0.8313 0.0
H1505 H 0.0574 0.67254 0.83726 0.0
H1506 H 0.17093 0.79799 0.83434 0.0
H1507 H 0.16597 0.79047 0.80442 0.0
H1508 H 0.13265 0.82198 0.8191 0.0
H1509 H 0.10657 0.62784 0.82958 0.0
H1510 H 0.14548 0.64431 0.81166 0.0
H1511 H 0.151 0.64502 0.84188 0.0
H1512 H 0.25384 0.69297 0.78598 0.0
H1513 H 0.25979 0.70405 0.85848 0.0
H1514 H 0.1519 0.72717 0.78118 0.0
H1515 H 0.17088 0.6798 0.77525 0.0
H1516 H 0.19722 0.72178 0.76658 0.0
H1517 H 0.17086 0.75088 0.8666 0.0
H1518 H 0.20695 0.72204 0.88074 0.0
H1519 H 0.16331 0.70014 0.87019 0.0
C1520 C 0.3247 0.2411 0.29908 0.0
C1521 C 0.3158 0.26402 0.31808 0.0
C1522 C 0.3166 0.20126 0.29884 0.0
C1523 C 0.29852 0.18408 0.3179 0.0
C1524 C 0.28924 0.20712 0.33702 0.0
C1525 C 0.29826 0.24658 0.33693 0.0
C1526 C 0.32703 0.17787 0.27808 0.0
C1527 C 0.27005 0.19001 0.35775 0.0
C1528 C 0.24512 0.08817 0.31681 0.0
C1529 C 0.27114 0.06443 0.32851 0.0
C1530 C 0.25448 0.12684 0.3119 0.0
C1531 C 0.29079 0.14174 0.31869 0.0
C1532 C 0.3182 0.11684 0.32886 0.0
C1533 C 0.30793 0.07861 0.33378 0.0
C1534 C 0.22467 0.1524 0.30078 0.0
C1535 C 0.35765 0.13119 0.33573 0.0
H1536 H 0.33754 0.25428 0.28422 0.0
H1537 H 0.29178 0.26376 0.35182 0.0
H1538 H 0.34874 0.19288 0.26739 0.0
H1539 H 0.33862 0.14909 0.28281 0.0
H1540 H 0.30072 0.17321 0.2677 0.0
H1541 H 0.26318 0.21218 0.37079 0.0
H1542 H 0.2429 0.17524 0.35281 0.0
H1543 H 0.28924 0.16801 0.36551 0.0
H1544 H 0.21664 0.07721 0.31278 0.0
H1545 H 0.32827 0.05999 0.34249 0.0
H1546 H 0.2376 0.16817 0.28627 0.0
H1547 H 0.21443 0.17431 0.31317 0.0
H1548 H 0.19938 0.13572 0.29461 0.0
H1549 H 0.37144 0.14676 0.3214 0.0
H1550 H 0.37698 0.1073 0.34116 0.0
H1551 H 0.35477 0.15193 0.35001 0.0
C1552 C 0.57662 0.8088 0.84223 0.0
C1553 C 0.56105 0.77188 0.83872 0.0
C1554 C 0.61584 0.81625 0.83861 0.0
C1555 C 0.64024 0.78615 0.83098 0.0
C1556 C 0.62438 0.74938 0.82604 0.0
C1557 C 0.58488 0.74261 0.83002 0.0
C1558 C 0.63145 0.856 0.84387 0.0
C1559 C 0.64944 0.71681 0.81747 0.0
C1560 C 0.73993 0.81796 0.81136 0.0
C1561 C 0.76192 0.8118 0.83103 0.0
C1562 C 0.70047 0.80856 0.81075 0.0
C1563 C 0.68269 0.79262 0.83027 0.0
C1564 C 0.70498 0.78578 0.85003 0.0
C1565 C 0.74426 0.79538 0.85013 0.0
C1566 C 0.67789 0.81574 0.78923 0.0
C1567 C 0.68706 0.76945 0.87135 0.0
H1568 H 0.55818 0.8319 0.84826 0.0
H1569 H 0.57303 0.71407 0.82721 0.0
H1570 H 0.65218 0.85418 0.8582 0.0
H1571 H 0.64737 0.86756 0.82901 0.0
H1572 H 0.60829 0.87677 0.84851 0.0
H1573 H 0.63217 0.69128 0.81225 0.0
H1574 H 0.66695 0.72659 0.80278 0.0
H1575 H 0.66982 0.70781 0.831 0.0
H1576 H 0.75364 0.82984 0.79639 0.0
H1577 H 0.76108 0.79086 0.86541 0.0
H1578 H 0.65068 0.83143 0.79296 0.0
H1579 H 0.66994 0.78766 0.78146 0.0
H1580 H 0.69469 0.8327 0.77665 0.0
H1581 H 0.665 0.78983 0.87796 0.0
H1582 H 0.70874 0.76418 0.88489 0.0
H1583 H 0.67218 0.74185 0.86751 0.0
C1584 C 0.20345 0.58481 0.34671 0.0
C1585 C 0.23064 0.56338 0.33425 0.0
C1586 C 0.19809 0.6244 0.34299 0.0
C1587 C 0.22101 0.64365 0.32667 0.0
C1588 C 0.24914 0.62262 0.31429 0.0
C1589 C 0.25353 0.58267 0.31815 0.0
C1590 C 0.16774 0.64564 0.3566 0.0
C1591 C 0.27449 0.64232 0.29697 0.0
C1592 C 0.17839 0.73922 0.30708 0.0
C1593 C 0.19602 0.76542 0.32203 0.0
C1594 C 0.18776 0.69969 0.3075 0.0
C1595 C 0.21559 0.68598 0.32317 0.0
C1596 C 0.2349 0.71251 0.33748 0.0
C1597 C 0.22473 0.75175 0.33685 0.0
C1598 C 0.16652 0.6724 0.2919 0.0
C1599 C 0.26507 0.69922 0.35427 0.0
H1600 H 0.18628 0.57068 0.35961 0.0
H1601 H 0.27448 0.56655 0.30833 0.0
H1602 H 0.18146 0.66866 0.36691 0.0
H1603 H 0.14687 0.65984 0.34499 0.0
H1604 H 0.15155 0.62619 0.36818 0.0
H1605 H 0.29558 0.62213 0.28912 0.0
H1606 H 0.25643 0.65508 0.28334 0.0
H1607 H 0.29054 0.66638 0.30506 0.0
H1608 H 0.15685 0.74945 0.2952 0.0
H1609 H 0.23843 0.77143 0.34862 0.0
H1610 H 0.14688 0.65393 0.30207 0.0
H1611 H 0.18711 0.65298 0.28306 0.0
H1612 H 0.14913 0.68798 0.27895 0.0
H1613 H 0.25104 0.68248 0.36804 0.0
H1614 H 0.28085 0.72382 0.36204 0.0
H1615 H 0.28626 0.67985 0.34588 0.0
C1616 C 0.41327 0.26985 0.8231 0.0
C1617 C 0.43758 0.23992 0.83041 0.0
C1618 C 0.37389 0.26294 0.81863 0.0
C1619 C 0.35865 0.22525 0.82158 0.0
C1620 C 0.38358 0.19469 0.82785 0.0
C1621 C 0.42261 0.20237 0.83207 0.0
C1622 C 0.34831 0.2962 0.81171 0.0
C1623 C 0.36873 0.15403 0.83107 0.0
C1624 C 0.25402 0.20953 0.8385 0.0
C1625 C 0.23788 0.19526 0.81835 0.0
C1626 C 0.29292 0.22068 0.83953 0.0
C1627 C 0.31633 0.21783 0.81986 0.0
C1628 C 0.29991 0.20455 0.79925 0.0
C1629 C 0.26094 0.19321 0.79878 0.0
C1630 C 0.3093 0.23432 0.8619 0.0
C1631 C 0.32368 0.20159 0.77783 0.0
H1632 H 0.42466 0.29889 0.82178 0.0
H1633 H 0.44142 0.1789 0.83712 0.0
H1634 H 0.33061 0.28823 0.79672 0.0
H1635 H 0.32809 0.30314 0.82575 0.0
H1636 H 0.3652 0.32255 0.8076 0.0
H1637 H 0.39226 0.13316 0.83481 0.0
H1638 H 0.34778 0.15342 0.84532 0.0
H1639 H 0.35327 0.14424 0.81562 0.0
H1640 H 0.23636 0.21104 0.85366 0.0
H1641 H 0.24841 0.18301 0.78303 0.0
H1642 H 0.32362 0.26272 0.85975 0.0
H1643 H 0.33155 0.2136 0.86788 0.0
H1644 H 0.28679 0.23706 0.87525 0.0
H1645 H 0.33835 0.22944 0.77437 0.0
H1646 H 0.30591 0.19372 0.76282 0.0
H1647 H 0.34649 0.1794 0.78003 0.0
C1648 C 0.76203 0.2481 0.33343 0.0
C1649 C 0.80089 0.2386 0.32954 0.0
C1650 C 0.74987 0.28667 0.33482 0.0
C1651 C 0.77729 0.31665 0.33255 0.0
C1652 C 0.81638 0.30736 0.32795 0.0
C1653 C 0.82767 0.26842 0.32639 0.0
C1654 C 0.70784 0.2953 0.33941 0.0
C1655 C 0.84656 0.33851 0.3256 0.0
C1656 C 0.74405 0.4208 0.3244 0.0
C1657 C 0.74684 0.4352 0.34662 0.0
C1658 C 0.75335 0.38207 0.3195 0.0
C1659 C 0.7658 0.35735 0.33723 0.0
C1660 C 0.76756 0.3715 0.35975 0.0
C1661 C 0.75785 0.41006 0.36415 0.0
C1662 C 0.75071 0.36784 0.29532 0.0
C1663 C 0.78039 0.34609 0.3792 0.0
H1664 H 0.74096 0.22535 0.33546 0.0
H1665 H 0.8577 0.26127 0.32343 0.0
H1666 H 0.70478 0.30957 0.35619 0.0
H1667 H 0.69645 0.31556 0.32645 0.0
H1668 H 0.68978 0.2688 0.33935 0.0
H1669 H 0.87504 0.32672 0.32035 0.0
H1670 H 0.83723 0.36032 0.31294 0.0
H1671 H 0.85009 0.35368 0.34208 0.0
H1672 H 0.73582 0.44007 0.31075 0.0
H1673 H 0.75923 0.4207 0.38142 0.0
H1674 H 0.73266 0.34143 0.29447 0.0
H1675 H 0.77989 0.35991 0.28909 0.0
H1676 H 0.73831 0.38992 0.28374 0.0
H1677 H 0.76128 0.32051 0.38053 0.0
H1678 H 0.7801 0.36156 0.39574 0.0
H1679 H 0.81009 0.33533 0.37602 0.0
C1680 C 0.09805 0.77553 0.17993 0.0
C1681 C 0.07091 0.74792 0.18659 0.0
C1682 C 0.13779 0.76803 0.18206 0.0
C1683 C 0.15025 0.73232 0.19133 0.0
C1684 C 0.12268 0.70614 0.20012 0.0
C1685 C 0.08329 0.71406 0.19733 0.0
C1686 C 0.16622 0.79668 0.17247 0.0
C1687 C 0.13467 0.66829 0.21072 0.0
C1688 C 0.23921 0.68568 0.16563 0.0
C1689 C 0.26759 0.69387 0.18183 0.0
C1690 C 0.20113 0.69845 0.16851 0.0
C1691 C 0.19094 0.71942 0.18832 0.0
C1692 C 0.21932 0.72719 0.20501 0.0
C1693 C 0.25748 0.7147 0.20142 0.0
C1694 C 0.17186 0.68979 0.15019 0.0
C1695 C 0.20947 0.74873 0.22655 0.0
H1696 H 0.0882 0.80151 0.17146 0.0
H1697 H 0.06199 0.69288 0.20247 0.0
H1698 H 0.19061 0.80116 0.18438 0.0
H1699 H 0.17839 0.78514 0.1564 0.0
H1700 H 0.15251 0.82505 0.16886 0.0
H1701 H 0.11043 0.65429 0.21992 0.0
H1702 H 0.14481 0.64828 0.19725 0.0
H1703 H 0.15893 0.67268 0.22274 0.0
H1704 H 0.2471 0.67021 0.15032 0.0
H1705 H 0.27945 0.72096 0.21399 0.0
H1706 H 0.15893 0.71708 0.14386 0.0
H1707 H 0.14811 0.67201 0.15725 0.0
H1708 H 0.18473 0.67408 0.13557 0.0
H1709 H 0.23392 0.74913 0.23876 0.0
H1710 H 0.18411 0.7354 0.23497 0.0
H1711 H 0.20159 0.77897 0.22241 0.0
C1712 C 0.27183 0.24985 0.67162 0.0
C1713 C 0.31149 0.25809 0.67146 0.0
C1714 C 0.2584 0.21163 0.67081 0.0
C1715 C 0.2853 0.18089 0.66963 0.0
C1716 C 0.32537 0.18897 0.67039 0.0
C1717 C 0.33797 0.22749 0.67137 0.0
C1718 C 0.21546 0.20429 0.67039 0.0
C1719 C 0.355 0.15702 0.66921 0.0
C1720 C 0.25536 0.07613 0.67885 0.0
C1721 C 0.25336 0.06267 0.65641 0.0
C1722 C 0.26464 0.11492 0.68354 0.0
C1723 C 0.27184 0.14069 0.66533 0.0
C1724 C 0.26806 0.12755 0.64267 0.0
C1725 C 0.25891 0.08878 0.63853 0.0
C1726 C 0.26824 0.12791 0.70792 0.0
C1727 C 0.27498 0.15413 0.62274 0.0
H1728 H 0.25122 0.27337 0.67231 0.0
H1729 H 0.3686 0.23375 0.67127 0.0
H1730 H 0.207 0.19325 0.65341 0.0
H1731 H 0.20759 0.18188 0.68302 0.0
H1732 H 0.19851 0.23085 0.67401 0.0
H1733 H 0.38484 0.16784 0.67181 0.0
H1734 H 0.34879 0.1347 0.68221 0.0
H1735 H 0.3535 0.14275 0.65235 0.0
H1736 H 0.25133 0.05598 0.69272 0.0
H1737 H 0.25671 0.07861 0.62117 0.0
H1738 H 0.25135 0.15473 0.71078 0.0
H1739 H 0.29885 0.13467 0.71173 0.0
H1740 H 0.25819 0.1055 0.72005 0.0
H1741 H 0.25638 0.18013 0.62414 0.0
H1742 H 0.26909 0.13984 0.6062 0.0
H1743 H 0.30541 0.16409 0.62283 0.0
C1744 C 0.74986 0.27179 0.16745 0.0
C1745 C 0.73966 0.31068 0.17064 0.0
C1746 C 0.78857 0.26054 0.16521 0.0
C1747 C 0.81791 0.2889 0.16599 0.0
C1748 C 0.80794 0.32807 0.16988 0.0
C1749 C 0.76891 0.33846 0.17224 0.0
C1750 C 0.79796 0.21843 0.16137 0.0
C1751 C 0.83839 0.35917 0.17078 0.0
C1752 C 0.92302 0.25882 0.17332 0.0
C1753 C 0.9365 0.26068 0.15088 0.0
C1754 C 0.88432 0.26746 0.17856 0.0
C1755 C 0.85862 0.27809 0.16091 0.0
C1756 C 0.87187 0.27891 0.13818 0.0
C1757 C 0.91055 0.27017 0.13347 0.0
C1758 C 0.87118 0.26612 0.20298 0.0
C1759 C 0.84533 0.28967 0.11883 0.0
H1760 H 0.72752 0.25001 0.16671 0.0
H1761 H 0.76118 0.3685 0.17466 0.0
H1762 H 0.81007 0.21452 0.14407 0.0
H1763 H 0.82021 0.20862 0.17362 0.0
H1764 H 0.77216 0.19964 0.16311 0.0
H1765 H 0.82619 0.38778 0.17547 0.0
H1766 H 0.86109 0.35139 0.18326 0.0
H1767 H 0.85256 0.36173 0.15394 0.0
H1768 H 0.94298 0.25182 0.18686 0.0
H1769 H 0.92061 0.27094 0.11607 0.0
H1770 H 0.84552 0.2472 0.20467 0.0
H1771 H 0.86242 0.29546 0.20858 0.0
H1772 H 0.89413 0.25538 0.21455 0.0
H1773 H 0.82012 0.26996 0.11846 0.0
H1774 H 0.86003 0.28834 0.10208 0.0
H1775 H 0.83411 0.31939 0.12138 0.0
C1776 C 0.77153 0.91207 0.67728 0.0
C1777 C 0.74093 0.93611 0.6707 0.0
C1778 C 0.76531 0.87256 0.68172 0.0
C1779 C 0.72765 0.85698 0.67955 0.0
C1780 C 0.69643 0.8817 0.67418 0.0
C1781 C 0.70346 0.92086 0.66988 0.0
C1782 C 0.79928 0.84718 0.68764 0.0
C1783 C 0.65577 0.86648 0.67186 0.0
C1784 C 0.71262 0.75286 0.66138 0.0
C1785 C 0.70044 0.73545 0.68163 0.0
C1786 C 0.72281 0.79205 0.66069 0.0
C1787 C 0.72097 0.81449 0.68079 0.0
C1788 C 0.70969 0.79685 0.70145 0.0
C1789 C 0.69935 0.75758 0.7016 0.0
C1790 C 0.73448 0.8097 0.63826 0.0
C1791 C 0.70776 0.81958 0.72329 0.0
H1792 H 0.8005 0.92374 0.67793 0.0
H1793 H 0.67957 0.93953 0.66535 0.0
H1794 H 0.79244 0.82872 0.7025 0.0
H1795 H 0.80571 0.82767 0.67316 0.0
H1796 H 0.82558 0.86432 0.69147 0.0
H1797 H 0.63437 0.88994 0.66913 0.0
H1798 H 0.65424 0.84625 0.65726 0.0
H1799 H 0.64746 0.85009 0.68728 0.0
H1800 H 0.71336 0.73594 0.64591 0.0
H1801 H 0.69076 0.74409 0.7174 0.0
H1802 H 0.76278 0.82439 0.63994 0.0
H1803 H 0.71302 0.83189 0.63319 0.0
H1804 H 0.73659 0.78786 0.62449 0.0
H1805 H 0.73482 0.83609 0.72591 0.0
H1806 H 0.70295 0.80064 0.73824 0.0
H1807 H 0.68379 0.8408 0.72236 0.0
loop_
_geom_bond_atom_site_label_1
_geom_bond_atom_site_label_2
_geom_bond_distance
_geom_bond_site_symmetry_2
_ccdc_geom_bond_type
Co0 N4 2.148 . S
Co0 N10 2.128 . S
Co0 N20 2.194 . S
Co0 O25 2.351 . S
Co0 O26 2.155 . S
Co0 O27 2.096 . S
C1 N4 1.301 . S
C1 N5 1.328 . S
C1 H6 0.930 . S
C2 C3 1.333 . S
C2 N4 1.317 . S
C2 H7 0.930 . S
C3 C2 1.333 . S
C3 N5 1.350 . S
C3 H29 0.931 . S
N4 Co0 2.148 . S
N4 C1 1.301 . S
N4 C2 1.317 . S
N5 C1 1.328 . S
N5 C3 1.350 . S
H6 C1 0.930 . S
H7 C2 0.930 . S
C8 O9 1.224 . S
C8 O27 1.247 . S
O9 C8 1.224 . S
N10 Co0 2.128 . S
N10 C11 1.355 1_455 S
N10 C13 1.311 1_455 S
C11 N10 1.355 1_655 S
C11 C12 1.363 . S
C11 H23 0.929 1_655 S
C12 C11 1.363 . S
C12 N14 1.375 . S
C12 H30 0.931 . S
C13 N10 1.311 1_655 S
C13 N14 1.347 . S
C13 H24 0.929 . S
N14 C12 1.375 . S
N14 C13 1.347 . S
C15 C18 1.365 . S
C15 N20 1.328 . S
C15 H21 0.929 . S
C16 C17 1.362 . S
C16 C19 1.378 . S
C16 H31 0.929 . S
C17 C16 1.362 . S
C17 C18 1.366 . S
C18 C15 1.365 . S
C18 C17 1.366 . S
C18 H32 0.930 . S
C19 C16 1.378 . S
C19 N20 1.315 . S
C19 H22 0.930 . S
N20 Co0 2.194 . S
N20 C15 1.328 . S
N20 C19 1.315 . S
H21 C15 0.929 . S
H22 C19 0.930 . S
H23 C11 0.929 1_455 S
H24 C13 0.929 . S
O25 Co0 2.351 . S
O25 C28 1.244 . S
O26 Co0 2.155 . S
O26 C28 1.240 . S
O27 Co0 2.096 . S
O27 C8 1.247 . S
C28 O25 1.244 . S
C28 O26 1.240 . S
H29 C3 0.931 . S
H30 C12 0.931 . S
H31 C16 0.929 . S
H32 C18 0.930 . S
Co33 N37 2.148 . S
Co33 N43 2.128 . S
Co33 N53 2.194 . S
Co33 O58 2.351 . S
Co33 O59 2.155 . S
Co33 O60 2.096 . S
C34 N37 1.301 . S
C34 N38 1.328 . S
C34 H39 0.930 . S
C35 C36 1.333 . S
C35 N37 1.317 . S
C35 H40 0.930 . S
C36 C35 1.333 . S
C36 N38 1.350 . S
C36 H62 0.931 . S
N37 Co33 2.148 . S
N37 C34 1.301 . S
N37 C35 1.317 . S
N38 C34 1.328 . S
N38 C36 1.350 . S
H39 C34 0.930 . S
H40 C35 0.930 . S
C41 O42 1.224 . S
C41 O60 1.247 . S
O42 C41 1.224 . S
N43 Co33 2.128 . S
N43 C44 1.355 1_545 S
N43 C46 1.311 1_545 S
C44 N43 1.355 1_565 S
C44 C45 1.363 . S
C44 H56 0.929 1_565 S
C45 C44 1.363 . S
C45 N47 1.375 . S
C45 H63 0.931 . S
C46 N43 1.311 1_565 S
C46 N47 1.347 . S
C46 H57 0.929 . S
N47 C45 1.375 . S
N47 C46 1.347 . S
C48 C51 1.365 . S
C48 N53 1.328 . S
C48 H54 0.929 . S
C49 C50 1.362 . S
C49 C52 1.378 . S
C49 H64 0.929 . S
C50 C49 1.362 . S
C50 C51 1.366 . S
C51 C48 1.365 . S
C51 C50 1.366 . S
C51 H65 0.930 . S
C52 C49 1.378 . S
C52 N53 1.315 . S
C52 H55 0.930 . S
N53 Co33 2.194 . S
N53 C48 1.328 . S
N53 C52 1.315 . S
H54 C48 0.929 . S
H55 C52 0.930 . S
H56 C44 0.929 1_545 S
H57 C46 0.929 . S
O58 Co33 2.351 . S
O58 C61 1.244 . S
O59 Co33 2.155 . S
O59 C61 1.240 . S
O60 Co33 2.096 . S
O60 C41 1.247 . S
C61 O58 1.244 . S
C61 O59 1.240 . S
H62 C36 0.931 . S
H63 C45 0.931 . S
H64 C49 0.929 . S
H65 C51 0.930 . S
Co66 N70 2.148 . S
Co66 N76 2.128 . S
Co66 N86 2.194 . S
Co66 O91 2.351 . S
Co66 O92 2.155 . S
Co66 O93 2.096 . S
C67 N70 1.301 . S
C67 N71 1.328 . S
C67 H72 0.930 . S
C68 C69 1.333 . S
C68 N70 1.317 . S
C68 H73 0.930 . S
C69 C68 1.333 . S
C69 N71 1.350 . S
C69 H95 0.931 . S
N70 Co66 2.148 . S
N70 C67 1.301 . S
N70 C68 1.317 . S
N71 C67 1.328 . S
N71 C69 1.350 . S
H72 C67 0.930 . S
H73 C68 0.930 . S
C74 O75 1.224 . S
C74 O93 1.247 . S
O75 C74 1.224 . S
N76 Co66 2.128 . S
N76 C77 1.355 1_655 S
N76 C79 1.311 1_655 S
C77 N76 1.355 1_455 S
C77 C78 1.363 . S
C77 H89 0.929 1_455 S
C78 C77 1.363 . S
C78 N80 1.375 . S
C78 H96 0.931 . S
C79 N76 1.311 1_455 S
C79 N80 1.347 . S
C79 H90 0.929 . S
N80 C78 1.375 . S
N80 C79 1.347 . S
C81 C84 1.365 . S
C81 N86 1.328 . S
C81 H87 0.929 . S
C82 C83 1.362 . S
C82 C85 1.378 . S
C82 H97 0.929 . S
C83 C82 1.362 . S
C83 C84 1.366 . S
C84 C81 1.365 . S
C84 C83 1.366 . S
C84 H98 0.930 . S
C85 C82 1.378 . S
C85 N86 1.315 . S
C85 H88 0.930 . S
N86 Co66 2.194 . S
N86 C81 1.328 . S
N86 C85 1.315 . S
H87 C81 0.929 . S
H88 C85 0.930 . S
H89 C77 0.929 1_655 S
H90 C79 0.929 . S
O91 Co66 2.351 . S
O91 C94 1.244 . S
O92 Co66 2.155 . S
O92 C94 1.240 . S
O93 Co66 2.096 . S
O93 C74 1.247 . S
C94 O91 1.244 . S
C94 O92 1.240 . S
H95 C69 0.931 . S
H96 C78 0.931 . S
H97 C82 0.929 . S
H98 C84 0.930 . S
Co99 N103 2.148 . S
Co99 N109 2.128 . S
Co99 N119 2.194 . S
Co99 O124 2.351 . S
Co99 O125 2.155 . S
Co99 O126 2.096 . S
C100 N103 1.301 . S
C100 N104 1.328 . S
C100 H105 0.930 . S
C101 C102 1.333 . S
C101 N103 1.317 . S
C101 H106 0.930 . S
C102 C101 1.333 . S
C102 N104 1.350 . S
C102 H128 0.931 . S
N103 Co99 2.148 . S
N103 C100 1.301 . S
N103 C101 1.317 . S
N104 C100 1.328 . S
N104 C102 1.350 . S
H105 C100 0.930 . S
H106 C101 0.930 . S
C107 O108 1.224 . S
C107 O126 1.247 . S
O108 C107 1.224 . S
N109 Co99 2.128 . S
N109 C110 1.355 1_565 S
N109 C112 1.311 1_565 S
C110 N109 1.355 1_545 S
C110 C111 1.363 . S
C110 H122 0.929 1_545 S
C111 C110 1.363 . S
C111 N113 1.375 . S
C111 H129 0.931 . S
C112 N109 1.311 1_545 S
C112 N113 1.347 . S
C112 H123 0.929 . S
N113 C111 1.375 . S
N113 C112 1.347 . S
C114 C117 1.365 . S
C114 N119 1.328 . S
C114 H120 0.929 . S
C115 C116 1.362 . S
C115 C118 1.378 . S
C115 H130 0.929 . S
C116 C115 1.362 . S
C116 C117 1.366 . S
C117 C114 1.365 . S
C117 C116 1.366 . S
C117 H131 0.930 . S
C118 C115 1.378 . S
C118 N119 1.315 . S
C118 H121 0.930 . S
N119 Co99 2.194 . S
N119 C114 1.328 . S
N119 C118 1.315 . S
H120 C114 0.929 . S
H121 C118 0.930 . S
H122 C110 0.929 1_565 S
H123 C112 0.929 . S
O124 Co99 2.351 . S
O124 C127 1.244 . S
O125 Co99 2.155 . S
O125 C127 1.240 . S
O126 Co99 2.096 . S
O126 C107 1.247 . S
C127 O124 1.244 . S
C127 O125 1.240 . S
H128 C102 0.931 . S
H129 C111 0.931 . S
H130 C115 0.929 . S
H131 C117 0.930 . S
Co132 N136 2.148 . S
Co132 N142 2.128 . S
Co132 N152 2.194 . S
Co132 O157 2.351 . S
Co132 O158 2.155 . S
Co132 O159 2.096 . S
C133 N136 1.301 . S
C133 N137 1.328 . S
C133 H138 0.930 . S
C134 C135 1.333 . S
C134 N136 1.317 . S
C134 H139 0.930 . S
C135 C134 1.333 . S
C135 N137 1.350 . S
C135 H161 0.931 . S
N136 Co132 2.148 . S
N136 C133 1.301 . S
N136 C134 1.317 . S
N137 C133 1.328 . S
N137 C135 1.350 . S
H138 C133 0.930 . S
H139 C134 0.930 . S
C140 O141 1.224 . S
C140 O159 1.247 . S
O141 C140 1.224 . S
N142 Co132 2.128 . S
N142 C143 1.355 . S
N142 C145 1.311 . S
C143 N142 1.355 . S
C143 C144 1.363 . S
C143 H155 0.929 . S
C144 C143 1.363 . S
C144 N146 1.375 . S
C144 H162 0.931 . S
C145 N142 1.311 . S
C145 N146 1.347 . S
C145 H156 0.929 . S
N146 C144 1.375 . S
N146 C145 1.347 . S
C147 C150 1.365 . S
C147 N152 1.328 . S
C147 H153 0.929 . S
C148 C149 1.362 . S
C148 C151 1.378 . S
C148 H163 0.929 . S
C149 C148 1.362 . S
C149 C150 1.366 . S
C150 C147 1.365 . S
C150 C149 1.366 . S
C150 H164 0.930 . S
C151 C148 1.378 . S
C151 N152 1.315 . S
C151 H154 0.930 . S
N152 Co132 2.194 . S
N152 C147 1.328 . S
N152 C151 1.315 . S
H153 C147 0.929 . S
H154 C151 0.930 . S
H155 C143 0.929 . S
H156 C145 0.929 . S
O157 Co132 2.351 . S
O157 C160 1.244 . S
O158 Co132 2.155 . S
O158 C160 1.240 . S
O159 Co132 2.096 . S
O159 C140 1.247 . S
C160 O157 1.244 . S
C160 O158 1.240 . S
H161 C135 0.931 . S
H162 C144 0.931 . S
H163 C148 0.929 . S
H164 C150 0.930 . S
Co165 N169 2.148 . S
Co165 N175 2.128 . S
Co165 N185 2.194 . S
Co165 O190 2.351 . S
Co165 O191 2.155 . S
Co165 O192 2.096 . S
C166 N169 1.301 . S
C166 N170 1.328 . S
C166 H171 0.930 . S
C167 C168 1.333 . S
C167 N169 1.317 . S
C167 H172 0.930 . S
C168 C167 1.333 . S
C168 N170 1.350 . S
C168 H194 0.931 . S
N169 Co165 2.148 . S
N169 C166 1.301 . S
N169 C167 1.317 . S
N170 C166 1.328 . S
N170 C168 1.350 . S
H171 C166 0.930 . S
H172 C167 0.930 . S
C173 O174 1.224 . S
C173 O192 1.247 . S
O174 C173 1.224 . S
N175 Co165 2.128 . S
N175 C176 1.355 . S
N175 C178 1.311 . S
C176 N175 1.355 . S
C176 C177 1.363 . S
C176 H188 0.929 . S
C177 C176 1.363 . S
C177 N179 1.375 . S
C177 H195 0.931 . S
C178 N175 1.311 . S
C178 N179 1.347 . S
C178 H189 0.929 . S
N179 C177 1.375 . S
N179 C178 1.347 . S
C180 C183 1.365 . S
C180 N185 1.328 . S
C180 H186 0.929 . S
C181 C182 1.362 . S
C181 C184 1.378 . S
C181 H196 0.929 . S
C182 C181 1.362 . S
C182 C183 1.366 . S
C183 C180 1.365 . S
C183 C182 1.366 . S
C183 H197 0.930 . S
C184 C181 1.378 . S
C184 N185 1.315 . S
C184 H187 0.930 . S
N185 Co165 2.194 . S
N185 C180 1.328 . S
N185 C184 1.315 . S
H186 C180 0.929 . S
H187 C184 0.930 . S
H188 C176 0.929 . S
H189 C178 0.929 . S
O190 Co165 2.351 . S
O190 C193 1.244 . S
O191 Co165 2.155 . S
O191 C193 1.240 . S
O192 Co165 2.096 . S
O192 C173 1.247 . S
C193 O190 1.244 . S
C193 O191 1.240 . S
H194 C168 0.931 . S
H195 C177 0.931 . S
H196 C181 0.929 . S
H197 C183 0.930 . S
Co198 N202 2.148 . S
Co198 N208 2.128 . S
Co198 N218 2.194 . S
Co198 O223 2.351 . S
Co198 O224 2.155 . S
Co198 O225 2.096 . S
C199 N202 1.301 . S
C199 N203 1.328 . S
C199 H204 0.930 . S
C200 C201 1.333 . S
C200 N202 1.317 . S
C200 H205 0.930 . S
C201 C200 1.333 . S
C201 N203 1.350 . S
C201 H227 0.931 . S
N202 Co198 2.148 . S
N202 C199 1.301 . S
N202 C200 1.317 . S
N203 C199 1.328 . S
N203 C201 1.350 . S
H204 C199 0.930 . S
H205 C200 0.930 . S
C206 O207 1.224 . S
C206 O225 1.247 . S
O207 C206 1.224 . S
N208 Co198 2.128 . S
N208 C209 1.355 . S
N208 C211 1.311 . S
C209 N208 1.355 . S
C209 C210 1.363 . S
C209 H221 0.929 . S
C210 C209 1.363 . S
C210 N212 1.375 . S
C210 H228 0.931 . S
C211 N208 1.311 . S
C211 N212 1.347 . S
C211 H222 0.929 . S
N212 C210 1.375 . S
N212 C211 1.347 . S
C213 C216 1.365 . S
C213 N218 1.328 . S
C213 H219 0.929 . S
C214 C215 1.362 . S
C214 C217 1.378 . S
C214 H229 0.929 . S
C215 C214 1.362 . S
C215 C216 1.366 . S
C216 C213 1.365 . S
C216 C215 1.366 . S
C216 H230 0.930 . S
C217 C214 1.378 . S
C217 N218 1.315 . S
C217 H220 0.930 . S
N218 Co198 2.194 . S
N218 C213 1.328 . S
N218 C217 1.315 . S
H219 C213 0.929 . S
H220 C217 0.930 . S
H221 C209 0.929 . S
H222 C211 0.929 . S
O223 Co198 2.351 . S
O223 C226 1.244 . S
O224 Co198 2.155 . S
O224 C226 1.240 . S
O225 Co198 2.096 . S
O225 C206 1.247 . S
C226 O223 1.244 . S
C226 O224 1.240 . S
H227 C201 0.931 . S
H228 C210 0.931 . S
H229 C214 0.929 . S
H230 C216 0.930 . S
Co231 N235 2.148 . S
Co231 N241 2.128 . S
Co231 N251 2.194 . S
Co231 O256 2.351 . S
Co231 O257 2.155 . S
Co231 O258 2.096 . S
C232 N235 1.301 . S
C232 N236 1.328 . S
C232 H237 0.930 . S
C233 C234 1.333 . S
C233 N235 1.317 . S
C233 H238 0.930 . S
C234 C233 1.333 . S
C234 N236 1.350 . S
C234 H260 0.931 . S
N235 Co231 2.148 . S
N235 C232 1.301 . S
N235 C233 1.317 . S
N236 C232 1.328 . S
N236 C234 1.350 . S
H237 C232 0.930 . S
H238 C233 0.930 . S
C239 O240 1.224 . S
C239 O258 1.247 . S
O240 C239 1.224 . S
N241 Co231 2.128 . S
N241 C242 1.355 . S
N241 C244 1.311 . S
C242 N241 1.355 . S
C242 C243 1.363 . S
C242 H254 0.929 . S
C243 C242 1.363 . S
C243 N245 1.375 . S
C243 H261 0.931 . S
C244 N241 1.311 . S
C244 N245 1.347 . S
C244 H255 0.929 . S
N245 C243 1.375 . S
N245 C244 1.347 . S
C246 C249 1.365 . S
C246 N251 1.328 . S
C246 H252 0.929 . S
C247 C248 1.362 . S
C247 C250 1.378 . S
C247 H262 0.929 . S
C248 C247 1.362 . S
C248 C249 1.366 . S
C249 C246 1.365 . S
C249 C248 1.366 . S
C249 H263 0.930 . S
C250 C247 1.378 . S
C250 N251 1.315 . S
C250 H253 0.930 . S
N251 Co231 2.194 . S
N251 C246 1.328 . S
N251 C250 1.315 . S
H252 C246 0.929 . S
H253 C250 0.930 . S
H254 C242 0.929 . S
H255 C244 0.929 . S
O256 Co231 2.351 . S
O256 C259 1.244 . S
O257 Co231 2.155 . S
O257 C259 1.240 . S
O258 Co231 2.096 . S
O258 C239 1.247 . S
C259 O256 1.244 . S
C259 O257 1.240 . S
H260 C234 0.931 . S
H261 C243 0.931 . S
H262 C247 0.929 . S
H263 C249 0.930 . S
Co264 N268 2.148 . S
Co264 N274 2.128 . S
Co264 N284 2.194 . S
Co264 O289 2.351 . S
Co264 O290 2.155 . S
Co264 O291 2.096 . S
C265 N268 1.301 . S
C265 N269 1.328 . S
C265 H270 0.930 . S
C266 C267 1.333 . S
C266 N268 1.317 . S
C266 H271 0.930 . S
C267 C266 1.333 . S
C267 N269 1.350 . S
C267 H293 0.931 . S
N268 Co264 2.148 . S
N268 C265 1.301 . S
N268 C266 1.317 . S
N269 C265 1.328 . S
N269 C267 1.350 . S
H270 C265 0.930 . S
H271 C266 0.930 . S
C272 O273 1.224 . S
C272 O291 1.247 . S
O273 C272 1.224 . S
N274 Co264 2.128 . S
N274 C275 1.355 1_655 S
N274 C277 1.311 1_655 S
C275 N274 1.355 1_455 S
C275 C276 1.363 . S
C275 H287 0.929 1_455 S
C276 C275 1.363 . S
C276 N278 1.375 . S
C276 H294 0.931 . S
C277 N274 1.311 1_455 S
C277 N278 1.347 . S
C277 H288 0.929 . S
N278 C276 1.375 . S
N278 C277 1.347 . S
C279 C282 1.365 . S
C279 N284 1.328 . S
C279 H285 0.929 . S
C280 C281 1.362 . S
C280 C283 1.378 . S
C280 H295 0.929 . S
C281 C280 1.362 . S
C281 C282 1.366 . S
C282 C279 1.365 . S
C282 C281 1.366 . S
C282 H296 0.930 . S
C283 C280 1.378 . S
C283 N284 1.315 . S
C283 H286 0.930 . S
N284 Co264 2.194 . S
N284 C279 1.328 . S
N284 C283 1.315 . S
H285 C279 0.929 . S
H286 C283 0.930 . S
H287 C275 0.929 1_655 S
H288 C277 0.929 . S
O289 Co264 2.351 . S
O289 C292 1.244 . S
O290 Co264 2.155 . S
O290 C292 1.240 . S
O291 Co264 2.096 . S
O291 C272 1.247 . S
C292 O289 1.244 . S
C292 O290 1.240 . S
H293 C267 0.931 . S
H294 C276 0.931 . S
H295 C280 0.929 . S
H296 C282 0.930 . S
Co297 N301 2.148 . S
Co297 N307 2.128 . S
Co297 N317 2.194 . S
Co297 O322 2.351 . S
Co297 O323 2.155 . S
Co297 O324 2.096 . S
C298 N301 1.301 . S
C298 N302 1.328 . S
C298 H303 0.930 . S
C299 C300 1.333 . S
C299 N301 1.317 . S
C299 H304 0.930 . S
C300 C299 1.333 . S
C300 N302 1.350 . S
C300 H326 0.931 . S
N301 Co297 2.148 . S
N301 C298 1.301 . S
N301 C299 1.317 . S
N302 C298 1.328 . S
N302 C300 1.350 . S
H303 C298 0.930 . S
H304 C299 0.930 . S
C305 O306 1.224 . S
C305 O324 1.247 . S
O306 C305 1.224 . S
N307 Co297 2.128 . S
N307 C308 1.355 1_565 S
N307 C310 1.311 1_565 S
C308 N307 1.355 1_545 S
C308 C309 1.363 . S
C308 H320 0.929 1_545 S
C309 C308 1.363 . S
C309 N311 1.375 . S
C309 H327 0.931 . S
C310 N307 1.311 1_545 S
C310 N311 1.347 . S
C310 H321 0.929 . S
N311 C309 1.375 . S
N311 C310 1.347 . S
C312 C315 1.365 . S
C312 N317 1.328 . S
C312 H318 0.929 . S
C313 C314 1.362 . S
C313 C316 1.378 . S
C313 H328 0.929 . S
C314 C313 1.362 . S
C314 C315 1.366 . S
C315 C312 1.365 . S
C315 C314 1.366 . S
C315 H329 0.930 . S
C316 C313 1.378 . S
C316 N317 1.315 . S
C316 H319 0.930 . S
N317 Co297 2.194 . S
N317 C312 1.328 . S
N317 C316 1.315 . S
H318 C312 0.929 . S
H319 C316 0.930 . S
H320 C308 0.929 1_565 S
H321 C310 0.929 . S
O322 Co297 2.351 . S
O322 C325 1.244 . S
O323 Co297 2.155 . S
O323 C325 1.240 . S
O324 Co297 2.096 . S
O324 C305 1.247 . S
C325 O322 1.244 . S
C325 O323 1.240 . S
H326 C300 0.931 . S
H327 C309 0.931 . S
H328 C313 0.929 . S
H329 C315 0.930 . S
Co330 N334 2.148 . S
Co330 N340 2.128 . S
Co330 N350 2.194 . S
Co330 O355 2.351 . S
Co330 O356 2.155 . S
Co330 O357 2.096 . S
C331 N334 1.301 . S
C331 N335 1.328 . S
C331 H336 0.930 . S
C332 C333 1.333 . S
C332 N334 1.317 . S
C332 H337 0.930 . S
C333 C332 1.333 . S
C333 N335 1.350 . S
C333 H359 0.931 . S
N334 Co330 2.148 . S
N334 C331 1.301 . S
N334 C332 1.317 . S
N335 C331 1.328 . S
N335 C333 1.350 . S
H336 C331 0.930 . S
H337 C332 0.930 . S
C338 O339 1.224 . S
C338 O357 1.247 . S
O339 C338 1.224 . S
N340 Co330 2.128 . S
N340 C341 1.355 1_455 S
N340 C343 1.311 1_455 S
C341 N340 1.355 1_655 S
C341 C342 1.363 . S
C341 H353 0.929 1_655 S
C342 C341 1.363 . S
C342 N344 1.375 . S
C342 H360 0.931 . S
C343 N340 1.311 1_655 S
C343 N344 1.347 . S
C343 H354 0.929 . S
N344 C342 1.375 . S
N344 C343 1.347 . S
C345 C348 1.365 . S
C345 N350 1.328 . S
C345 H351 0.929 . S
C346 C347 1.362 . S
C346 C349 1.378 . S
C346 H361 0.929 . S
C347 C346 1.362 . S
C347 C348 1.366 . S
C348 C345 1.365 . S
C348 C347 1.366 . S
C348 H362 0.930 . S
C349 C346 1.378 . S
C349 N350 1.315 . S
C349 H352 0.930 . S
N350 Co330 2.194 . S
N350 C345 1.328 . S
N350 C349 1.315 . S
H351 C345 0.929 . S
H352 C349 0.930 . S
H353 C341 0.929 1_455 S
H354 C343 0.929 . S
O355 Co330 2.351 . S
O355 C358 1.244 . S
O356 Co330 2.155 . S
O356 C358 1.240 . S
O357 Co330 2.096 . S
O357 C338 1.247 . S
C358 O355 1.244 . S
C358 O356 1.240 . S
H359 C333 0.931 . S
H360 C342 0.931 . S
H361 C346 0.929 . S
H362 C348 0.930 . S
Co363 N367 2.148 . S
Co363 N373 2.128 . S
Co363 N383 2.194 . S
Co363 O388 2.351 . S
Co363 O389 2.155 . S
Co363 O390 2.096 . S
C364 N367 1.301 . S
C364 N368 1.328 . S
C364 H369 0.930 . S
C365 C366 1.333 . S
C365 N367 1.317 . S
C365 H370 0.930 . S
C366 C365 1.333 . S
C366 N368 1.350 . S
C366 H392 0.931 . S
N367 Co363 2.148 . S
N367 C364 1.301 . S
N367 C365 1.317 . S
N368 C364 1.328 . S
N368 C366 1.350 . S
H369 C364 0.930 . S
H370 C365 0.930 . S
C371 O372 1.224 . S
C371 O390 1.247 . S
O372 C371 1.224 . S
N373 Co363 2.128 . S
N373 C374 1.355 1_545 S
N373 C376 1.311 1_545 S
C374 N373 1.355 1_565 S
C374 C375 1.363 . S
C374 H386 0.929 1_565 S
C375 C374 1.363 . S
C375 N377 1.375 . S
C375 H393 0.931 . S
C376 N373 1.311 1_565 S
C376 N377 1.347 . S
C376 H387 0.929 . S
N377 C375 1.375 . S
N377 C376 1.347 . S
C378 C381 1.365 . S
C378 N383 1.328 . S
C378 H384 0.929 . S
C379 C380 1.362 . S
C379 C382 1.378 . S
C379 H394 0.929 . S
C380 C379 1.362 . S
C380 C381 1.366 . S
C381 C378 1.365 . S
C381 C380 1.366 . S
C381 H395 0.930 . S
C382 C379 1.378 . S
C382 N383 1.315 . S
C382 H385 0.930 . S
N383 Co363 2.194 . S
N383 C378 1.328 . S
N383 C382 1.315 . S
H384 C378 0.929 . S
H385 C382 0.930 . S
H386 C374 0.929 1_545 S
H387 C376 0.929 . S
O388 Co363 2.351 . S
O388 C391 1.244 . S
O389 Co363 2.155 . S
O389 C391 1.240 . S
O390 Co363 2.096 . S
O390 C371 1.247 . S
C391 O388 1.244 . S
C391 O389 1.240 . S
H392 C366 0.931 . S
H393 C375 0.931 . S
H394 C379 0.929 . S
H395 C381 0.930 . S
Co396 N400 2.148 . S
Co396 N406 2.128 . S
Co396 N416 2.194 . S
Co396 O421 2.351 . S
Co396 O422 2.155 . S
Co396 O423 2.096 . S
C397 N400 1.301 . S
C397 N401 1.328 . S
C397 H402 0.930 . S
C398 C399 1.333 . S
C398 N400 1.317 . S
C398 H403 0.930 . S
C399 C398 1.333 . S
C399 N401 1.350 . S
C399 H425 0.931 . S
N400 Co396 2.148 . S
N400 C397 1.301 . S
N400 C398 1.317 . S
N401 C397 1.328 . S
N401 C399 1.350 . S
H402 C397 0.930 . S
H403 C398 0.930 . S
C404 O405 1.224 . S
C404 O423 1.247 . S
O405 C404 1.224 . S
N406 Co396 2.128 . S
N406 C407 1.355 . S
N406 C409 1.311 . S
C407 N406 1.355 . S
C407 C408 1.363 . S
C407 H419 0.929 . S
C408 C407 1.363 . S
C408 N410 1.375 . S
C408 H426 0.931 . S
C409 N406 1.311 . S
C409 N410 1.347 . S
C409 H420 0.929 . S
N410 C408 1.375 . S
N410 C409 1.347 . S
C411 C414 1.365 . S
C411 N416 1.328 . S
C411 H417 0.929 . S
C412 C413 1.362 . S
C412 C415 1.378 . S
C412 H427 0.929 . S
C413 C412 1.362 . S
C413 C414 1.366 . S
C414 C411 1.365 . S
C414 C413 1.366 . S
C414 H428 0.930 . S
C415 C412 1.378 . S
C415 N416 1.315 . S
C415 H418 0.930 . S
N416 Co396 2.194 . S
N416 C411 1.328 . S
N416 C415 1.315 . S
H417 C411 0.929 . S
H418 C415 0.930 . S
H419 C407 0.929 . S
H420 C409 0.929 . S
O421 Co396 2.351 . S
O421 C424 1.244 . S
O422 Co396 2.155 . S
O422 C424 1.240 . S
O423 Co396 2.096 . S
O423 C404 1.247 . S
C424 O421 1.244 . S
C424 O422 1.240 . S
H425 C399 0.931 . S
H426 C408 0.931 . S
H427 C412 0.929 . S
H428 C414 0.930 . S
Co429 N433 2.148 . S
Co429 N439 2.128 . S
Co429 N449 2.194 . S
Co429 O454 2.351 . S
Co429 O455 2.155 . S
Co429 O456 2.096 . S
C430 N433 1.301 . S
C430 N434 1.328 . S
C430 H435 0.930 . S
C431 C432 1.333 . S
C431 N433 1.317 . S
C431 H436 0.930 . S
C432 C431 1.333 . S
C432 N434 1.350 . S
C432 H458 0.931 . S
N433 Co429 2.148 . S
N433 C430 1.301 . S
N433 C431 1.317 . S
N434 C430 1.328 . S
N434 C432 1.350 . S
H435 C430 0.930 . S
H436 C431 0.930 . S
C437 O438 1.224 . S
C437 O456 1.247 . S
O438 C437 1.224 . S
N439 Co429 2.128 . S
N439 C440 1.355 . S
N439 C442 1.311 . S
C440 N439 1.355 . S
C440 C441 1.363 . S
C440 H452 0.929 . S
C441 C440 1.363 . S
C441 N443 1.375 . S
C441 H459 0.931 . S
C442 N439 1.311 . S
C442 N443 1.347 . S
C442 H453 0.929 . S
N443 C441 1.375 . S
N443 C442 1.347 . S
C444 C447 1.365 . S
C444 N449 1.328 . S
C444 H450 0.929 . S
C445 C446 1.362 . S
C445 C448 1.378 . S
C445 H460 0.929 . S
C446 C445 1.362 . S
C446 C447 1.366 . S
C447 C444 1.365 . S
C447 C446 1.366 . S
C447 H461 0.930 . S
C448 C445 1.378 . S
C448 N449 1.315 . S
C448 H451 0.930 . S
N449 Co429 2.194 . S
N449 C444 1.328 . S
N449 C448 1.315 . S
H450 C444 0.929 . S
H451 C448 0.930 . S
H452 C440 0.929 . S
H453 C442 0.929 . S
O454 Co429 2.351 . S
O454 C457 1.244 . S
O455 Co429 2.155 . S
O455 C457 1.240 . S
O456 Co429 2.096 . S
O456 C437 1.247 . S
C457 O454 1.244 . S
C457 O455 1.240 . S
H458 C432 0.931 . S
H459 C441 0.931 . S
H460 C445 0.929 . S
H461 C447 0.930 . S
Co462 N466 2.148 . S
Co462 N472 2.128 . S
Co462 N482 2.194 . S
Co462 O487 2.351 . S
Co462 O488 2.155 . S
Co462 O489 2.096 . S
C463 N466 1.301 . S
C463 N467 1.328 . S
C463 H468 0.930 . S
C464 C465 1.333 . S
C464 N466 1.317 . S
C464 H469 0.930 . S
C465 C464 1.333 . S
C465 N467 1.350 . S
C465 H491 0.931 . S
N466 Co462 2.148 . S
N466 C463 1.301 . S
N466 C464 1.317 . S
N467 C463 1.328 . S
N467 C465 1.350 . S
H468 C463 0.930 . S
H469 C464 0.930 . S
C470 O471 1.224 . S
C470 O489 1.247 . S
O471 C470 1.224 . S
N472 Co462 2.128 . S
N472 C473 1.355 . S
N472 C475 1.311 . S
C473 N472 1.355 . S
C473 C474 1.363 . S
C473 H485 0.929 . S
C474 C473 1.363 . S
C474 N476 1.375 . S
C474 H492 0.931 . S
C475 N472 1.311 . S
C475 N476 1.347 . S
C475 H486 0.929 . S
N476 C474 1.375 . S
N476 C475 1.347 . S
C477 C480 1.365 . S
C477 N482 1.328 . S
C477 H483 0.929 . S
C478 C479 1.362 . S
C478 C481 1.378 . S
C478 H493 0.929 . S
C479 C478 1.362 . S
C479 C480 1.366 . S
C480 C477 1.365 . S
C480 C479 1.366 . S
C480 H494 0.930 . S
C481 C478 1.378 . S
C481 N482 1.315 . S
C481 H484 0.930 . S
N482 Co462 2.194 . S
N482 C477 1.328 . S
N482 C481 1.315 . S
H483 C477 0.929 . S
H484 C481 0.930 . S
H485 C473 0.929 . S
H486 C475 0.929 . S
O487 Co462 2.351 . S
O487 C490 1.244 . S
O488 Co462 2.155 . S
O488 C490 1.240 . S
O489 Co462 2.096 . S
O489 C470 1.247 . S
C490 O487 1.244 . S
C490 O488 1.240 . S
H491 C465 0.931 . S
H492 C474 0.931 . S
H493 C478 0.929 . S
H494 C480 0.930 . S
Co495 N499 2.148 . S
Co495 N505 2.128 . S
Co495 N515 2.194 . S
Co495 O520 2.351 . S
Co495 O521 2.155 . S
Co495 O522 2.096 . S
C496 N499 1.301 . S
C496 N500 1.328 . S
C496 H501 0.930 . S
C497 C498 1.333 . S
C497 N499 1.317 . S
C497 H502 0.930 . S
C498 C497 1.333 . S
C498 N500 1.350 . S
C498 H524 0.931 . S
N499 Co495 2.148 . S
N499 C496 1.301 . S
N499 C497 1.317 . S
N500 C496 1.328 . S
N500 C498 1.350 . S
H501 C496 0.930 . S
H502 C497 0.930 . S
C503 O504 1.224 . S
C503 O522 1.247 . S
O504 C503 1.224 . S
N505 Co495 2.128 . S
N505 C506 1.355 . S
N505 C508 1.311 . S
C506 N505 1.355 . S
C506 C507 1.363 . S
C506 H518 0.929 . S
C507 C506 1.363 . S
C507 N509 1.375 . S
C507 H525 0.931 . S
C508 N505 1.311 . S
C508 N509 1.347 . S
C508 H519 0.929 . S
N509 C507 1.375 . S
N509 C508 1.347 . S
C510 C513 1.365 . S
C510 N515 1.328 . S
C510 H516 0.929 . S
C511 C512 1.362 . S
C511 C514 1.378 . S
C511 H526 0.929 . S
C512 C511 1.362 . S
C512 C513 1.366 . S
C513 C510 1.365 . S
C513 C512 1.366 . S
C513 H527 0.930 . S
C514 C511 1.378 . S
C514 N515 1.315 . S
C514 H517 0.930 . S
N515 Co495 2.194 . S
N515 C510 1.328 . S
N515 C514 1.315 . S
H516 C510 0.929 . S
H517 C514 0.930 . S
H518 C506 0.929 . S
H519 C508 0.929 . S
O520 Co495 2.351 . S
O520 C523 1.244 . S
O521 Co495 2.155 . S
O521 C523 1.240 . S
O522 Co495 2.096 . S
O522 C503 1.247 . S
C523 O520 1.244 . S
C523 O521 1.240 . S
H524 C498 0.931 . S
H525 C507 0.931 . S
H526 C511 0.929 . S
H527 C513 0.930 . S
C528 C529 1.391 1_655 S
C528 C530 1.394 . S
C528 H544 0.931 . S
C529 C528 1.391 1_455 S
C529 C533 1.376 . S
C530 C528 1.394 . S
C530 C531 1.369 1_655 S
C530 C534 1.531 . S
C531 C530 1.369 1_455 S
C531 C532 1.410 . S
C531 C539 1.503 1_445 S
C532 C531 1.410 . S
C532 C533 1.392 . S
C532 C535 1.511 . S
C533 C529 1.376 . S
C533 C532 1.392 . S
C533 H545 0.929 . S
C534 C530 1.531 . S
C534 H546 0.960 . S
C534 H547 0.962 . S
C534 H548 0.960 . S
C535 C532 1.511 . S
C535 H549 0.961 . S
C535 H550 0.961 1_545 S
C535 H551 0.961 1_545 S
C536 C537 1.370 . S
C536 C538 1.363 . S
C536 H552 0.931 . S
C537 C536 1.370 . S
C537 C541 1.408 1_655 S
C538 C536 1.363 . S
C538 C539 1.370 . S
C538 C542 1.524 . S
C539 C531 1.503 1_665 S
C539 C538 1.370 . S
C539 C540 1.403 1_655 S
C540 C539 1.403 1_455 S
C540 C541 1.404 . S
C540 C543 1.539 . S
C541 C537 1.408 1_455 S
C541 C540 1.404 . S
C541 H553 0.930 . S
C542 C538 1.524 . S
C542 H554 0.956 1_565 S
C542 H555 0.961 1_565 S
C542 H556 0.961 . S
C543 C540 1.539 . S
C543 H557 0.958 . S
C543 H558 0.961 . S
C543 H559 0.960 . S
H544 C528 0.931 . S
H545 C533 0.929 . S
H546 C534 0.960 . S
H547 C534 0.962 . S
H548 C534 0.960 . S
H549 C535 0.961 . S
H550 C535 0.961 1_565 S
H551 C535 0.961 1_565 S
H552 C536 0.931 . S
H553 C541 0.930 . S
H554 C542 0.956 1_545 S
H555 C542 0.961 1_545 S
H556 C542 0.961 . S
H557 C543 0.958 . S
H558 C543 0.961 . S
H559 C543 0.960 . S
C560 C561 1.391 . S
C560 C562 1.394 . S
C560 H576 0.931 . S
C561 C560 1.391 . S
C561 C565 1.376 1_565 S
C562 C560 1.394 . S
C562 C563 1.369 . S
C562 C566 1.531 . S
C563 C562 1.369 . S
C563 C564 1.410 1_565 S
C563 C571 1.503 1_465 S
C564 C563 1.410 1_545 S
C564 C565 1.392 . S
C564 C567 1.511 . S
C565 C561 1.376 1_545 S
C565 C564 1.392 . S
C565 H577 0.929 . S
C566 C562 1.531 . S
C566 H578 0.960 1_455 S
C566 H579 0.962 1_455 S
C566 H580 0.960 . S
C567 C564 1.511 . S
C567 H581 0.961 . S
C567 H582 0.961 . S
C567 H583 0.961 . S
C568 C569 1.370 . S
C568 C570 1.363 . S
C568 H584 0.931 . S
C569 C568 1.370 . S
C569 C573 1.408 . S
C570 C568 1.363 . S
C570 C571 1.370 . S
C570 C574 1.524 . S
C571 C563 1.503 1_645 S
C571 C570 1.370 . S
C571 C572 1.403 . S
C572 C571 1.403 . S
C572 C573 1.404 . S
C572 C575 1.539 . S
C573 C569 1.408 . S
C573 C572 1.404 . S
C573 H585 0.930 . S
C574 C570 1.524 . S
C574 H586 0.956 1_545 S
C574 H587 0.961 1_655 S
C574 H588 0.961 . S
C575 C572 1.539 . S
C575 H589 0.958 1_545 S
C575 H590 0.961 . S
C575 H591 0.960 1_655 S
H576 C560 0.931 . S
H577 C565 0.929 . S
H578 C566 0.960 1_655 S
H579 C566 0.962 1_655 S
H580 C566 0.960 . S
H581 C567 0.961 . S
H582 C567 0.961 . S
H583 C567 0.961 . S
H584 C568 0.931 . S
H585 C573 0.930 . S
H586 C574 0.956 1_565 S
H587 C574 0.961 1_455 S
H588 C574 0.961 . S
H589 C575 0.958 1_565 S
H590 C575 0.961 . S
H591 C575 0.960 1_455 S
C592 C593 1.391 . S
C592 C594 1.394 . S
C592 H608 0.931 . S
C593 C592 1.391 . S
C593 C597 1.376 . S
C594 C592 1.394 . S
C594 C595 1.369 . S
C594 C598 1.531 . S
C595 C594 1.369 . S
C595 C596 1.410 . S
C595 C603 1.503 . S
C596 C595 1.410 . S
C596 C597 1.392 . S
C596 C599 1.511 . S
C597 C593 1.376 . S
C597 C596 1.392 . S
C597 H609 0.929 . S
C598 C594 1.531 . S
C598 H610 0.960 . S
C598 H611 0.962 . S
C598 H612 0.960 . S
C599 C596 1.511 . S
C599 H613 0.961 . S
C599 H614 0.961 . S
C599 H615 0.961 . S
C600 C601 1.370 . S
C600 C602 1.363 . S
C600 H616 0.931 . S
C601 C600 1.370 . S
C601 C605 1.408 . S
C602 C600 1.363 . S
C602 C603 1.370 . S
C602 C606 1.524 . S
C603 C595 1.503 . S
C603 C602 1.370 . S
C603 C604 1.403 . S
C604 C603 1.403 . S
C604 C605 1.404 . S
C604 C607 1.539 . S
C605 C601 1.408 . S
C605 C604 1.404 . S
C605 H617 0.930 . S
C606 C602 1.524 . S
C606 H618 0.956 . S
C606 H619 0.961 . S
C606 H620 0.961 . S
C607 C604 1.539 . S
C607 H621 0.958 . S
C607 H622 0.961 . S
C607 H623 0.960 . S
H608 C592 0.931 . S
H609 C597 0.929 . S
H610 C598 0.960 . S
H611 C598 0.962 . S
H612 C598 0.960 . S
H613 C599 0.961 . S
H614 C599 0.961 . S
H615 C599 0.961 . S
H616 C600 0.931 . S
H617 C605 0.930 . S
H618 C606 0.956 . S
H619 C606 0.961 . S
H620 C606 0.961 . S
H621 C607 0.958 . S
H622 C607 0.961 . S
H623 C607 0.960 . S
C624 C625 1.391 . S
C624 C626 1.394 . S
C624 H640 0.931 . S
C625 C624 1.391 . S
C625 C629 1.376 . S
C626 C624 1.394 . S
C626 C627 1.369 . S
C626 C630 1.531 . S
C627 C626 1.369 . S
C627 C628 1.410 . S
C627 C635 1.503 . S
C628 C627 1.410 . S
C628 C629 1.392 . S
C628 C631 1.511 . S
C629 C625 1.376 . S
C629 C628 1.392 . S
C629 H641 0.929 . S
C630 C626 1.531 . S
C630 H642 0.960 . S
C630 H643 0.962 . S
C630 H644 0.960 . S
C631 C628 1.511 . S
C631 H645 0.961 . S
C631 H646 0.961 . S
C631 H647 0.961 . S
C632 C633 1.370 . S
C632 C634 1.363 . S
C632 H648 0.931 . S
C633 C632 1.370 . S
C633 C637 1.408 . S
C634 C632 1.363 . S
C634 C635 1.370 . S
C634 C638 1.524 . S
C635 C627 1.503 . S
C635 C634 1.370 . S
C635 C636 1.403 . S
C636 C635 1.403 . S
C636 C637 1.404 . S
C636 C639 1.539 . S
C637 C633 1.408 . S
C637 C636 1.404 . S
C637 H649 0.930 . S
C638 C634 1.524 . S
C638 H650 0.956 . S
C638 H651 0.961 . S
C638 H652 0.961 . S
C639 C636 1.539 . S
C639 H653 0.958 . S
C639 H654 0.961 . S
C639 H655 0.960 . S
H640 C624 0.931 . S
H641 C629 0.929 . S
H642 C630 0.960 . S
H643 C630 0.962 . S
H644 C630 0.960 . S
H645 C631 0.961 . S
H646 C631 0.961 . S
H647 C631 0.961 . S
H648 C632 0.931 . S
H649 C637 0.930 . S
H650 C638 0.956 . S
H651 C638 0.961 . S
H652 C638 0.961 . S
H653 C639 0.958 . S
H654 C639 0.961 . S
H655 C639 0.960 . S
C656 C657 1.391 . S
C656 C658 1.394 . S
C656 H672 0.931 . S
C657 C656 1.391 . S
C657 C661 1.376 . S
C658 C656 1.394 . S
C658 C659 1.369 . S
C658 C662 1.531 . S
C659 C658 1.369 . S
C659 C660 1.410 1_455 S
C659 C667 1.503 1_445 S
C660 C659 1.410 1_655 S
C660 C661 1.392 1_655 S
C660 C663 1.511 . S
C661 C657 1.376 . S
C661 C660 1.392 1_455 S
C661 H673 0.929 1_455 S
C662 C658 1.531 . S
C662 H674 0.960 1_545 S
C662 H675 0.962 . S
C662 H676 0.960 . S
C663 C660 1.511 . S
C663 H677 0.961 . S
C663 H678 0.961 . S
C663 H679 0.961 . S
C664 C665 1.370 . S
C664 C666 1.363 . S
C664 H680 0.931 . S
C665 C664 1.370 . S
C665 C669 1.408 1_655 S
C666 C664 1.363 . S
C666 C667 1.372 . S
C666 C670 1.524 . S
C667 C659 1.503 1_665 S
C667 C666 1.372 . S
C667 C668 1.401 1_655 S
C668 C667 1.401 1_455 S
C668 C669 1.404 . S
C668 C671 1.539 . S
C669 C665 1.408 1_455 S
C669 C668 1.404 . S
C669 H681 0.930 . S
C670 C666 1.524 . S
C670 H682 0.956 1_565 S
C670 H683 0.961 1_565 S
C670 H684 0.961 . S
C671 C668 1.539 . S
C671 H685 0.958 . S
C671 H686 0.961 . S
C671 H687 0.960 . S
H672 C656 0.931 . S
H673 C661 0.929 1_655 S
H674 C662 0.960 1_565 S
H675 C662 0.962 . S
H676 C662 0.960 . S
H677 C663 0.961 . S
H678 C663 0.961 . S
H679 C663 0.961 . S
H680 C664 0.931 . S
H681 C669 0.930 . S
H682 C670 0.956 1_545 S
H683 C670 0.961 1_545 S
H684 C670 0.961 . S
H685 C671 0.958 . S
H686 C671 0.961 . S
H687 C671 0.960 . S
C688 C689 1.391 1_545 S
C688 C690 1.394 . S
C688 H704 0.931 . S
C689 C688 1.391 1_565 S
C689 C693 1.376 . S
C690 C688 1.394 . S
C690 C691 1.369 1_545 S
C690 C694 1.531 . S
C691 C690 1.369 1_565 S
C691 C692 1.410 . S
C691 C699 1.503 1_465 S
C692 C691 1.410 . S
C692 C693 1.392 . S
C692 C695 1.511 . S
C693 C689 1.376 . S
C693 C692 1.392 . S
C693 H705 0.929 . S
C694 C690 1.531 . S
C694 H706 0.960 . S
C694 H707 0.962 . S
C694 H708 0.960 . S
C695 C692 1.511 . S
C695 H709 0.961 . S
C695 H710 0.961 1_455 S
C695 H711 0.961 1_455 S
C696 C697 1.370 . S
C696 C698 1.363 . S
C696 H712 0.931 . S
C697 C696 1.370 . S
C697 C701 1.408 . S
C698 C696 1.363 . S
C698 C699 1.370 . S
C698 C702 1.524 . S
C699 C691 1.503 1_645 S
C699 C698 1.370 . S
C699 C700 1.403 1_545 S
C700 C699 1.403 1_565 S
C700 C701 1.404 1_565 S
C700 C703 1.539 . S
C701 C697 1.408 . S
C701 C700 1.404 1_545 S
C701 H713 0.932 . S
C702 C698 1.524 . S
C702 H714 0.956 1_655 S
C702 H715 0.961 1_655 S
C702 H716 0.961 . S
C703 C700 1.539 . S
C703 H717 0.958 . S
C703 H718 0.961 . S
C703 H719 0.960 . S
H704 C688 0.931 . S
H705 C693 0.929 . S
H706 C694 0.960 . S
H707 C694 0.962 . S
H708 C694 0.960 . S
H709 C695 0.961 . S
H710 C695 0.961 1_655 S
H711 C695 0.961 1_655 S
H712 C696 0.931 . S
H713 C701 0.932 . S
H714 C702 0.956 1_455 S
H715 C702 0.961 1_455 S
H716 C702 0.961 . S
H717 C703 0.958 . S
H718 C703 0.961 . S
H719 C703 0.960 . S
C720 C721 1.391 . S
C720 C722 1.394 . S
C720 H736 0.931 . S
C721 C720 1.391 . S
C721 C725 1.376 . S
C722 C720 1.394 . S
C722 C723 1.369 . S
C722 C726 1.531 . S
C723 C722 1.369 . S
C723 C724 1.410 . S
C723 C731 1.503 . S
C724 C723 1.410 . S
C724 C725 1.392 . S
C724 C727 1.511 . S
C725 C721 1.376 . S
C725 C724 1.392 . S
C725 H737 0.929 . S
C726 C722 1.531 . S
C726 H738 0.960 . S
C726 H739 0.962 . S
C726 H740 0.960 . S
C727 C724 1.511 . S
C727 H741 0.961 . S
C727 H742 0.961 . S
C727 H743 0.961 . S
C728 C729 1.370 . S
C728 C730 1.363 . S
C728 H744 0.931 . S
C729 C728 1.370 . S
C729 C733 1.408 . S
C730 C728 1.363 . S
C730 C731 1.370 . S
C730 C734 1.524 . S
C731 C723 1.503 . S
C731 C730 1.370 . S
C731 C732 1.403 . S
C732 C731 1.403 . S
C732 C733 1.404 . S
C732 C735 1.539 . S
C733 C729 1.408 . S
C733 C732 1.404 . S
C733 H745 0.930 . S
C734 C730 1.524 . S
C734 H746 0.956 . S
C734 H747 0.961 . S
C734 H748 0.961 . S
C735 C732 1.539 . S
C735 H749 0.958 . S
C735 H750 0.961 . S
C735 H751 0.960 . S
H736 C720 0.931 . S
H737 C725 0.929 . S
H738 C726 0.960 . S
H739 C726 0.962 . S
H740 C726 0.960 . S
H741 C727 0.961 . S
H742 C727 0.961 . S
H743 C727 0.961 . S
H744 C728 0.931 . S
H745 C733 0.930 . S
H746 C734 0.956 . S
H747 C734 0.961 . S
H748 C734 0.961 . S
H749 C735 0.958 . S
H750 C735 0.961 . S
H751 C735 0.960 . S
C752 C753 1.391 . S
C752 C754 1.394 . S
C752 H768 0.931 . S
C753 C752 1.391 . S
C753 C757 1.376 . S
C754 C752 1.394 . S
C754 C755 1.369 . S
C754 C758 1.531 . S
C755 C754 1.369 . S
C755 C756 1.410 . S
C755 C763 1.503 . S
C756 C755 1.410 . S
C756 C757 1.392 . S
C756 C759 1.511 . S
C757 C753 1.376 . S
C757 C756 1.392 . S
C757 H769 0.929 . S
C758 C754 1.531 . S
C758 H770 0.960 . S
C758 H771 0.962 . S
C758 H772 0.960 . S
C759 C756 1.511 . S
C759 H773 0.961 . S
C759 H774 0.961 . S
C759 H775 0.961 . S
C760 C761 1.370 . S
C760 C762 1.363 . S
C760 H776 0.931 . S
C761 C760 1.370 . S
C761 C765 1.408 . S
C762 C760 1.363 . S
C762 C763 1.370 . S
C762 C766 1.524 . S
C763 C755 1.503 . S
C763 C762 1.370 . S
C763 C764 1.403 . S
C764 C763 1.403 . S
C764 C765 1.404 . S
C764 C767 1.539 . S
C765 C761 1.408 . S
C765 C764 1.404 . S
C765 H777 0.930 . S
C766 C762 1.524 . S
C766 H778 0.956 . S
C766 H779 0.961 . S
C766 H780 0.961 . S
C767 C764 1.539 . S
C767 H781 0.958 . S
C767 H782 0.961 . S
C767 H783 0.960 . S
H768 C752 0.931 . S
H769 C757 0.929 . S
H770 C758 0.960 . S
H771 C758 0.962 . S
H772 C758 0.960 . S
H773 C759 0.961 . S
H774 C759 0.961 . S
H775 C759 0.961 . S
H776 C760 0.931 . S
H777 C765 0.930 . S
H778 C766 0.956 . S
H779 C766 0.961 . S
H780 C766 0.961 . S
H781 C767 0.958 . S
H782 C767 0.961 . S
H783 C767 0.960 . S
C784 C785 1.391 . S
C784 C786 1.394 . S
C784 H800 0.931 . S
C785 C784 1.391 . S
C785 C789 1.376 . S
C786 C784 1.394 . S
C786 C787 1.369 . S
C786 C790 1.531 . S
C787 C786 1.369 . S
C787 C788 1.410 . S
C787 C795 1.503 1_554 S
C788 C787 1.410 . S
C788 C789 1.392 . S
C788 C791 1.511 . S
C789 C785 1.376 . S
C789 C788 1.392 . S
C789 H801 0.929 . S
C790 C786 1.531 . S
C790 H802 0.960 1_554 S
C790 H803 0.962 . S
C790 H804 0.960 . S
C791 C788 1.511 . S
C791 H805 0.961 . S
C791 H806 0.961 1_554 S
C791 H807 0.961 1_455 S
C792 C793 1.370 . S
C792 C794 1.363 . S
C792 H808 0.931 . S
C793 C792 1.370 . S
C793 C797 1.408 . S
C794 C792 1.363 . S
C794 C795 1.370 . S
C794 C798 1.524 . S
C795 C787 1.503 1_556 S
C795 C794 1.370 . S
C795 C796 1.403 . S
C796 C795 1.403 . S
C796 C797 1.404 . S
C796 C799 1.539 1_455 S
C797 C793 1.408 . S
C797 C796 1.404 . S
C797 H809 0.930 . S
C798 C794 1.524 . S
C798 H810 0.956 . S
C798 H811 0.961 1_556 S
C798 H812 0.961 . S
C799 C796 1.539 1_655 S
C799 H813 0.958 . S
C799 H814 0.961 . S
C799 H815 0.970 . S
H800 C784 0.931 . S
H801 C789 0.929 . S
H802 C790 0.960 1_556 S
H803 C790 0.962 . S
H804 C790 0.960 . S
H805 C791 0.961 . S
H806 C791 0.961 1_556 S
H807 C791 0.961 1_655 S
H808 C792 0.931 . S
H809 C797 0.930 . S
H810 C798 0.956 . S
H811 C798 0.961 1_554 S
H812 C798 0.961 . S
H813 C799 0.958 . S
H814 C799 0.961 . S
H815 C799 0.970 . S
C816 C817 1.391 . S
C816 C818 1.394 . S
C816 H832 0.931 . S
C817 C816 1.391 . S
C817 C821 1.376 . S
C818 C816 1.394 . S
C818 C819 1.369 . S
C818 C822 1.531 . S
C819 C818 1.369 . S
C819 C820 1.410 . S
C819 C827 1.503 . S
C820 C819 1.410 . S
C820 C821 1.392 . S
C820 C823 1.511 . S
C821 C817 1.376 . S
C821 C820 1.392 . S
C821 H833 0.929 . S
C822 C818 1.531 . S
C822 H834 0.960 . S
C822 H835 0.962 . S
C822 H836 0.960 . S
C823 C820 1.511 . S
C823 H837 0.961 . S
C823 H838 0.961 . S
C823 H839 0.961 . S
C824 C825 1.370 . S
C824 C826 1.363 . S
C824 H840 0.931 . S
C825 C824 1.370 . S
C825 C829 1.408 . S
C826 C824 1.363 . S
C826 C827 1.370 . S
C826 C830 1.524 . S
C827 C819 1.503 . S
C827 C826 1.370 . S
C827 C828 1.403 . S
C828 C827 1.403 . S
C828 C829 1.404 . S
C828 C831 1.539 . S
C829 C825 1.408 . S
C829 C828 1.404 . S
C829 H841 0.930 . S
C830 C826 1.524 . S
C830 H842 0.956 . S
C830 H843 0.961 1_545 S
C830 H844 0.961 1_545 S
C831 C828 1.539 . S
C831 H845 0.958 . S
C831 H846 0.961 . S
C831 H847 0.960 . S
H832 C816 0.931 . S
H833 C821 0.929 . S
H834 C822 0.960 . S
H835 C822 0.962 . S
H836 C822 0.960 . S
H837 C823 0.961 . S
H838 C823 0.961 . S
H839 C823 0.961 . S
H840 C824 0.931 . S
H841 C829 0.930 . S
H842 C830 0.956 . S
H843 C830 0.961 1_565 S
H844 C830 0.961 1_565 S
H845 C831 0.958 . S
H846 C831 0.961 . S
H847 C831 0.960 . S
C848 C849 1.391 . S
C848 C850 1.394 . S
C848 H864 0.931 . S
C849 C848 1.391 . S
C849 C853 1.376 . S
C850 C848 1.394 . S
C850 C851 1.369 . S
C850 C854 1.531 . S
C851 C850 1.369 . S
C851 C852 1.410 . S
C851 C859 1.503 1_556 S
C852 C851 1.410 . S
C852 C853 1.392 . S
C852 C855 1.511 . S
C853 C849 1.376 . S
C853 C852 1.392 . S
C853 H865 0.929 . S
C854 C850 1.531 . S
C854 H866 0.960 1_556 S
C854 H867 0.962 . S
C854 H868 0.960 . S
C855 C852 1.511 . S
C855 H869 0.961 . S
C855 H870 0.961 1_556 S
C855 H871 0.961 . S
C856 C857 1.370 . S
C856 C858 1.363 . S
C856 H872 0.931 . S
C857 C856 1.370 . S
C857 C861 1.408 . S
C858 C856 1.363 . S
C858 C859 1.370 . S
C858 C862 1.524 . S
C859 C851 1.503 1_554 S
C859 C858 1.370 . S
C859 C860 1.403 . S
C860 C859 1.403 . S
C860 C861 1.404 . S
C860 C863 1.539 . S
C861 C857 1.408 . S
C861 C860 1.404 . S
C861 H873 0.930 . S
C862 C858 1.524 . S
C862 H874 0.956 . S
C862 H875 0.961 1_654 S
C862 H876 0.961 1_655 S
C863 C860 1.539 . S
C863 H877 0.958 . S
C863 H878 0.961 . S
C863 H879 0.970 . S
H864 C848 0.931 . S
H865 C853 0.929 . S
H866 C854 0.960 1_554 S
H867 C854 0.962 . S
H868 C854 0.960 . S
H869 C855 0.961 . S
H870 C855 0.961 1_554 S
H871 C855 0.961 . S
H872 C856 0.931 . S
H873 C861 0.930 . S
H874 C862 0.956 . S
H875 C862 0.961 1_456 S
H876 C862 0.961 1_455 S
H877 C863 0.958 . S
H878 C863 0.961 . S
H879 C863 0.970 . S
C880 C881 1.391 . S
C880 C882 1.394 . S
C880 H896 0.931 . S
C881 C880 1.391 . S
C881 C885 1.376 . S
C882 C880 1.394 . S
C882 C883 1.369 . S
C882 C886 1.531 1_565 S
C883 C882 1.369 . S
C883 C884 1.410 . S
C883 C891 1.503 . S
C884 C883 1.410 . S
C884 C885 1.392 . S
C884 C887 1.511 . S
C885 C881 1.376 . S
C885 C884 1.392 . S
C885 H897 0.929 . S
C886 C882 1.531 1_545 S
C886 H898 0.960 1_545 S
C886 H899 0.962 . S
C886 H900 0.960 . S
C887 C884 1.511 . S
C887 H901 0.961 . S
C887 H902 0.961 . S
C887 H903 0.961 . S
C888 C889 1.370 . S
C888 C890 1.363 . S
C888 H904 0.931 . S
C889 C888 1.370 . S
C889 C893 1.408 . S
C890 C888 1.363 . S
C890 C891 1.370 . S
C890 C894 1.524 . S
C891 C883 1.503 . S
C891 C890 1.370 . S
C891 C892 1.403 . S
C892 C891 1.403 . S
C892 C893 1.404 . S
C892 C895 1.539 . S
C893 C889 1.408 . S
C893 C892 1.404 . S
C893 H905 0.930 . S
C894 C890 1.524 . S
C894 H906 0.956 . S
C894 H907 0.961 . S
C894 H908 0.961 . S
C895 C892 1.539 . S
C895 H909 0.958 . S
C895 H910 0.961 . S
C895 H911 0.960 . S
H896 C880 0.931 . S
H897 C885 0.929 . S
H898 C886 0.960 1_565 S
H899 C886 0.962 . S
H900 C886 0.960 . S
H901 C887 0.961 . S
H902 C887 0.961 . S
H903 C887 0.961 . S
H904 C888 0.931 . S
H905 C893 0.930 . S
H906 C894 0.956 . S
H907 C894 0.961 . S
H908 C894 0.961 . S
H909 C895 0.958 . S
H910 C895 0.961 . S
H911 C895 0.960 . S
C912 C913 1.391 . S
C912 C914 1.394 . S
C912 H928 0.931 . S
C913 C912 1.391 . S
C913 C917 1.376 . S
C914 C912 1.394 . S
C914 C915 1.369 . S
C914 C918 1.531 . S
C915 C914 1.369 . S
C915 C916 1.410 . S
C915 C923 1.503 1_554 S
C916 C915 1.410 . S
C916 C917 1.392 . S
C916 C919 1.511 . S
C917 C913 1.376 . S
C917 C916 1.392 . S
C917 H929 0.929 . S
C918 C914 1.531 . S
C918 H930 0.960 1_554 S
C918 H931 0.962 . S
C918 H932 0.960 . S
C919 C916 1.511 . S
C919 H933 0.961 . S
C919 H934 0.961 1_554 S
C919 H935 0.961 . S
C920 C921 1.370 . S
C920 C922 1.363 . S
C920 H936 0.931 . S
C921 C920 1.370 . S
C921 C925 1.408 . S
C922 C920 1.363 . S
C922 C923 1.370 . S
C922 C926 1.524 . S
C923 C915 1.503 1_556 S
C923 C922 1.370 . S
C923 C924 1.403 . S
C924 C923 1.403 . S
C924 C925 1.404 . S
C924 C927 1.539 . S
C925 C921 1.408 . S
C925 C924 1.404 . S
C925 H937 0.930 . S
C926 C922 1.524 . S
C926 H938 0.956 . S
C926 H939 0.961 1_556 S
C926 H940 0.961 . S
C927 C924 1.539 . S
C927 H941 0.958 . S
C927 H942 0.961 . S
C927 H943 0.970 . S
H928 C912 0.931 . S
H929 C917 0.929 . S
H930 C918 0.960 1_556 S
H931 C918 0.962 . S
H932 C918 0.960 . S
H933 C919 0.961 . S
H934 C919 0.961 1_556 S
H935 C919 0.961 . S
H936 C920 0.931 . S
H937 C925 0.930 . S
H938 C926 0.956 . S
H939 C926 0.961 1_554 S
H940 C926 0.961 . S
H941 C927 0.958 . S
H942 C927 0.961 . S
H943 C927 0.970 . S
C944 C945 1.391 . S
C944 C946 1.394 . S
C944 H960 0.931 . S
C945 C944 1.391 . S
C945 C949 1.376 . S
C946 C944 1.394 . S
C946 C947 1.369 . S
C946 C950 1.531 . S
C947 C946 1.369 . S
C947 C948 1.410 . S
C947 C955 1.503 . S
C948 C947 1.410 . S
C948 C949 1.392 . S
C948 C951 1.511 . S
C949 C945 1.376 . S
C949 C948 1.392 . S
C949 H961 0.929 . S
C950 C946 1.531 . S
C950 H962 0.960 . S
C950 H963 0.962 . S
C950 H964 0.960 . S
C951 C948 1.511 . S
C951 H965 0.961 . S
C951 H966 0.961 . S
C951 H967 0.961 . S
C952 C953 1.370 . S
C952 C954 1.363 . S
C952 H968 0.931 . S
C953 C952 1.370 . S
C953 C957 1.408 . S
C954 C952 1.363 . S
C954 C955 1.370 . S
C954 C958 1.524 . S
C955 C947 1.503 . S
C955 C954 1.370 . S
C955 C956 1.403 . S
C956 C955 1.403 . S
C956 C957 1.404 . S
C956 C959 1.539 . S
C957 C953 1.408 . S
C957 C956 1.404 . S
C957 H969 0.930 . S
C958 C954 1.524 . S
C958 H970 0.956 . S
C958 H971 0.961 . S
C958 H972 0.961 . S
C959 C956 1.539 . S
C959 H973 0.958 . S
C959 H974 0.961 . S
C959 H975 0.960 . S
H960 C944 0.931 . S
H961 C949 0.929 . S
H962 C950 0.960 . S
H963 C950 0.962 . S
H964 C950 0.960 . S
H965 C951 0.961 . S
H966 C951 0.961 . S
H967 C951 0.961 . S
H968 C952 0.931 . S
H969 C957 0.930 . S
H970 C958 0.956 . S
H971 C958 0.961 . S
H972 C958 0.961 . S
H973 C959 0.958 . S
H974 C959 0.961 . S
H975 C959 0.960 . S
C976 C977 1.391 . S
C976 C978 1.394 . S
C976 H992 0.931 . S
C977 C976 1.391 . S
C977 C981 1.376 . S
C978 C976 1.394 . S
C978 C979 1.369 . S
C978 C982 1.531 . S
C979 C978 1.369 . S
C979 C980 1.410 . S
C979 C987 1.503 1_554 S
C980 C979 1.410 . S
C980 C981 1.392 . S
C980 C983 1.511 . S
C981 C977 1.376 . S
C981 C980 1.392 . S
C981 H993 0.929 . S
C982 C978 1.531 . S
C982 H994 0.960 1_554 S
C982 H995 0.962 . S
C982 H996 0.960 . S
C983 C980 1.511 . S
C983 H997 0.961 . S
C983 H998 0.961 1_554 S
C983 H999 0.961 . S
C984 C985 1.370 . S
C984 C986 1.363 . S
C984 H1000 0.931 . S
C985 C984 1.370 . S
C985 C989 1.408 . S
C986 C984 1.363 . S
C986 C987 1.370 . S
C986 C990 1.524 . S
C987 C979 1.503 1_556 S
C987 C986 1.370 . S
C987 C988 1.403 . S
C988 C987 1.403 . S
C988 C989 1.404 . S
C988 C991 1.539 . S
C989 C985 1.408 . S
C989 C988 1.404 . S
C989 H1001 0.930 . S
C990 C986 1.524 . S
C990 H1002 0.956 . S
C990 H1003 0.961 1_556 S
C990 H1004 0.961 . S
C991 C988 1.539 . S
C991 H1005 0.958 . S
C991 H1006 0.961 . S
C991 H1007 0.970 . S
H992 C976 0.931 . S
H993 C981 0.929 . S
H994 C982 0.960 1_556 S
H995 C982 0.962 . S
H996 C982 0.960 . S
H997 C983 0.961 . S
H998 C983 0.961 1_556 S
H999 C983 0.961 . S
H1000 C984 0.931 . S
H1001 C989 0.930 . S
H1002 C990 0.956 . S
H1003 C990 0.961 1_554 S
H1004 C990 0.961 . S
H1005 C991 0.958 . S
H1006 C991 0.961 . S
H1007 C991 0.970 . S
C1008 C1009 1.391 . S
C1008 C1010 1.394 . S
C1008 H1024 0.931 . S
C1009 C1008 1.391 . S
C1009 C1013 1.376 . S
C1010 C1008 1.394 . S
C1010 C1011 1.369 . S
C1010 C1014 1.531 . S
C1011 C1010 1.369 . S
C1011 C1012 1.410 . S
C1011 C1019 1.503 . S
C1012 C1011 1.410 . S
C1012 C1013 1.392 . S
C1012 C1015 1.511 . S
C1013 C1009 1.376 . S
C1013 C1012 1.392 . S
C1013 H1025 0.929 . S
C1014 C1010 1.531 . S
C1014 H1026 0.960 . S
C1014 H1027 0.962 . S
C1014 H1028 0.960 . S
C1015 C1012 1.511 . S
C1015 H1029 0.961 . S
C1015 H1030 0.961 . S
C1015 H1031 0.961 . S
C1016 C1017 1.370 . S
C1016 C1018 1.363 . S
C1016 H1032 0.931 . S
C1017 C1016 1.370 . S
C1017 C1021 1.408 . S
C1018 C1016 1.363 . S
C1018 C1019 1.370 . S
C1018 C1022 1.524 . S
C1019 C1011 1.503 . S
C1019 C1018 1.370 . S
C1019 C1020 1.403 . S
C1020 C1019 1.403 . S
C1020 C1021 1.404 . S
C1020 C1023 1.539 . S
C1021 C1017 1.408 . S
C1021 C1020 1.404 . S
C1021 H1033 0.930 . S
C1022 C1018 1.524 . S
C1022 H1034 0.956 . S
C1022 H1035 0.961 . S
C1022 H1036 0.961 . S
C1023 C1020 1.539 . S
C1023 H1037 0.958 . S
C1023 H1038 0.961 . S
C1023 H1039 0.960 . S
H1024 C1008 0.931 . S
H1025 C1013 0.929 . S
H1026 C1014 0.960 . S
H1027 C1014 0.962 . S
H1028 C1014 0.960 . S
H1029 C1015 0.961 . S
H1030 C1015 0.961 . S
H1031 C1015 0.961 . S
H1032 C1016 0.931 . S
H1033 C1021 0.930 . S
H1034 C1022 0.956 . S
H1035 C1022 0.961 . S
H1036 C1022 0.961 . S
H1037 C1023 0.958 . S
H1038 C1023 0.961 . S
H1039 C1023 0.960 . S
C1040 C1041 1.391 . S
C1040 C1042 1.394 . S
C1040 H1056 0.931 . S
C1041 C1040 1.391 . S
C1041 C1045 1.376 . S
C1042 C1040 1.394 . S
C1042 C1043 1.369 . S
C1042 C1046 1.531 . S
C1043 C1042 1.369 . S
C1043 C1044 1.410 . S
C1043 C1051 1.503 . S
C1044 C1043 1.410 . S
C1044 C1045 1.392 . S
C1044 C1047 1.511 . S
C1045 C1041 1.376 . S
C1045 C1044 1.392 . S
C1045 H1057 0.929 . S
C1046 C1042 1.531 . S
C1046 H1058 0.960 . S
C1046 H1059 0.962 . S
C1046 H1060 0.960 . S
C1047 C1044 1.511 . S
C1047 H1061 0.961 . S
C1047 H1062 0.961 . S
C1047 H1063 0.961 . S
C1048 C1049 1.370 . S
C1048 C1050 1.363 . S
C1048 H1064 0.931 . S
C1049 C1048 1.370 . S
C1049 C1053 1.408 . S
C1050 C1048 1.363 . S
C1050 C1051 1.370 . S
C1050 C1054 1.524 . S
C1051 C1043 1.503 . S
C1051 C1050 1.370 . S
C1051 C1052 1.403 . S
C1052 C1051 1.403 . S
C1052 C1053 1.404 . S
C1052 C1055 1.539 . S
C1053 C1049 1.408 . S
C1053 C1052 1.404 . S
C1053 H1065 0.930 . S
C1054 C1050 1.524 . S
C1054 H1066 0.956 . S
C1054 H1067 0.961 . S
C1054 H1068 0.961 . S
C1055 C1052 1.539 . S
C1055 H1069 0.958 . S
C1055 H1070 0.961 . S
C1055 H1071 0.960 . S
H1056 C1040 0.931 . S
H1057 C1045 0.929 . S
H1058 C1046 0.960 . S
H1059 C1046 0.962 . S
H1060 C1046 0.960 . S
H1061 C1047 0.961 . S
H1062 C1047 0.961 . S
H1063 C1047 0.961 . S
H1064 C1048 0.931 . S
H1065 C1053 0.930 . S
H1066 C1054 0.956 . S
H1067 C1054 0.961 . S
H1068 C1054 0.961 . S
H1069 C1055 0.958 . S
H1070 C1055 0.961 . S
H1071 C1055 0.960 . S
C1072 C1073 1.391 . S
C1072 C1074 1.394 . S
C1072 H1088 0.931 . S
C1073 C1072 1.391 . S
C1073 C1077 1.376 . S
C1074 C1072 1.394 . S
C1074 C1075 1.369 . S
C1074 C1078 1.531 . S
C1075 C1074 1.369 . S
C1075 C1076 1.410 . S
C1075 C1083 1.503 . S
C1076 C1075 1.410 . S
C1076 C1077 1.392 . S
C1076 C1079 1.511 . S
C1077 C1073 1.376 . S
C1077 C1076 1.392 . S
C1077 H1089 0.929 . S
C1078 C1074 1.531 . S
C1078 H1090 0.960 . S
C1078 H1091 0.962 . S
C1078 H1092 0.960 . S
C1079 C1076 1.511 . S
C1079 H1093 0.961 . S
C1079 H1094 0.961 . S
C1079 H1095 0.961 . S
C1080 C1081 1.370 . S
C1080 C1082 1.363 . S
C1080 H1096 0.931 . S
C1081 C1080 1.370 . S
C1081 C1085 1.408 . S
C1082 C1080 1.363 . S
C1082 C1083 1.370 . S
C1082 C1086 1.524 . S
C1083 C1075 1.503 . S
C1083 C1082 1.370 . S
C1083 C1084 1.403 . S
C1084 C1083 1.403 . S
C1084 C1085 1.404 . S
C1084 C1087 1.539 . S
C1085 C1081 1.408 . S
C1085 C1084 1.404 . S
C1085 H1097 0.930 . S
C1086 C1082 1.524 . S
C1086 H1098 0.956 . S
C1086 H1099 0.961 . S
C1086 H1100 0.961 . S
C1087 C1084 1.539 . S
C1087 H1101 0.958 . S
C1087 H1102 0.961 . S
C1087 H1103 0.960 . S
H1088 C1072 0.931 . S
H1089 C1077 0.929 . S
H1090 C1078 0.960 . S
H1091 C1078 0.962 . S
H1092 C1078 0.960 . S
H1093 C1079 0.961 . S
H1094 C1079 0.961 . S
H1095 C1079 0.961 . S
H1096 C1080 0.931 . S
H1097 C1085 0.930 . S
H1098 C1086 0.956 . S
H1099 C1086 0.961 . S
H1100 C1086 0.961 . S
H1101 C1087 0.958 . S
H1102 C1087 0.961 . S
H1103 C1087 0.960 . S
C1104 C1105 1.391 . S
C1104 C1106 1.394 . S
C1104 H1120 0.931 . S
C1105 C1104 1.391 . S
C1105 C1109 1.376 . S
C1106 C1104 1.394 . S
C1106 C1107 1.369 . S
C1106 C1110 1.531 . S
C1107 C1106 1.369 . S
C1107 C1108 1.410 . S
C1107 C1115 1.503 . S
C1108 C1107 1.410 . S
C1108 C1109 1.392 . S
C1108 C1111 1.511 . S
C1109 C1105 1.376 . S
C1109 C1108 1.392 . S
C1109 H1121 0.929 . S
C1110 C1106 1.531 . S
C1110 H1122 0.960 . S
C1110 H1123 0.962 . S
C1110 H1124 0.960 . S
C1111 C1108 1.511 . S
C1111 H1125 0.961 . S
C1111 H1126 0.961 . S
C1111 H1127 0.961 . S
C1112 C1113 1.370 . S
C1112 C1114 1.363 . S
C1112 H1128 0.931 . S
C1113 C1112 1.370 . S
C1113 C1117 1.408 . S
C1114 C1112 1.363 . S
C1114 C1115 1.370 . S
C1114 C1118 1.524 . S
C1115 C1107 1.503 . S
C1115 C1114 1.370 . S
C1115 C1116 1.403 . S
C1116 C1115 1.403 . S
C1116 C1117 1.404 . S
C1116 C1119 1.539 . S
C1117 C1113 1.408 . S
C1117 C1116 1.404 . S
C1117 H1129 0.930 . S
C1118 C1114 1.524 . S
C1118 H1130 0.956 . S
C1118 H1131 0.961 . S
C1118 H1132 0.961 . S
C1119 C1116 1.539 . S
C1119 H1133 0.958 . S
C1119 H1134 0.961 . S
C1119 H1135 0.960 . S
H1120 C1104 0.931 . S
H1121 C1109 0.929 . S
H1122 C1110 0.960 . S
H1123 C1110 0.962 . S
H1124 C1110 0.960 . S
H1125 C1111 0.961 . S
H1126 C1111 0.961 . S
H1127 C1111 0.961 . S
H1128 C1112 0.931 . S
H1129 C1117 0.930 . S
H1130 C1118 0.956 . S
H1131 C1118 0.961 . S
H1132 C1118 0.961 . S
H1133 C1119 0.958 . S
H1134 C1119 0.961 . S
H1135 C1119 0.960 . S
C1136 C1137 1.391 . S
C1136 C1138 1.394 . S
C1136 H1152 0.931 . S
C1137 C1136 1.391 . S
C1137 C1141 1.376 . S
C1138 C1136 1.394 . S
C1138 C1139 1.369 . S
C1138 C1142 1.531 . S
C1139 C1138 1.369 . S
C1139 C1140 1.410 . S
C1139 C1147 1.503 . S
C1140 C1139 1.410 . S
C1140 C1141 1.392 . S
C1140 C1143 1.511 . S
C1141 C1137 1.376 . S
C1141 C1140 1.392 . S
C1141 H1153 0.929 . S
C1142 C1138 1.531 . S
C1142 H1154 0.960 . S
C1142 H1155 0.962 . S
C1142 H1156 0.960 . S
C1143 C1140 1.511 . S
C1143 H1157 0.961 . S
C1143 H1158 0.961 . S
C1143 H1159 0.961 . S
C1144 C1145 1.370 . S
C1144 C1146 1.363 . S
C1144 H1160 0.931 . S
C1145 C1144 1.370 . S
C1145 C1149 1.408 . S
C1146 C1144 1.363 . S
C1146 C1147 1.370 . S
C1146 C1150 1.524 . S
C1147 C1139 1.503 . S
C1147 C1146 1.370 . S
C1147 C1148 1.403 . S
C1148 C1147 1.403 . S
C1148 C1149 1.404 . S
C1148 C1151 1.539 . S
C1149 C1145 1.408 . S
C1149 C1148 1.404 . S
C1149 H1161 0.930 . S
C1150 C1146 1.524 . S
C1150 H1162 0.956 . S
C1150 H1163 0.961 . S
C1150 H1164 0.961 . S
C1151 C1148 1.539 . S
C1151 H1165 0.958 . S
C1151 H1166 0.961 . S
C1151 H1167 0.960 . S
H1152 C1136 0.931 . S
H1153 C1141 0.929 . S
H1154 C1142 0.960 . S
H1155 C1142 0.962 . S
H1156 C1142 0.960 . S
H1157 C1143 0.961 . S
H1158 C1143 0.961 . S
H1159 C1143 0.961 . S
H1160 C1144 0.931 . S
H1161 C1149 0.930 . S
H1162 C1150 0.956 . S
H1163 C1150 0.961 . S
H1164 C1150 0.961 . S
H1165 C1151 0.958 . S
H1166 C1151 0.961 . S
H1167 C1151 0.960 . S
C1168 C1169 1.391 . S
C1168 C1170 1.394 . S
C1168 H1184 0.931 . S
C1169 C1168 1.391 . S
C1169 C1173 1.376 . S
C1170 C1168 1.394 . S
C1170 C1171 1.369 . S
C1170 C1174 1.531 . S
C1171 C1170 1.369 . S
C1171 C1172 1.410 . S
C1171 C1179 1.503 . S
C1172 C1171 1.410 . S
C1172 C1173 1.392 . S
C1172 C1175 1.511 . S
C1173 C1169 1.376 . S
C1173 C1172 1.392 . S
C1173 H1185 0.929 . S
C1174 C1170 1.531 . S
C1174 H1186 0.960 . S
C1174 H1187 0.962 . S
C1174 H1188 0.960 . S
C1175 C1172 1.511 . S
C1175 H1189 0.961 . S
C1175 H1190 0.961 . S
C1175 H1191 0.961 . S
C1176 C1177 1.370 . S
C1176 C1178 1.363 . S
C1176 H1192 0.931 . S
C1177 C1176 1.370 . S
C1177 C1181 1.408 . S
C1178 C1176 1.363 . S
C1178 C1179 1.370 . S
C1178 C1182 1.524 . S
C1179 C1171 1.503 . S
C1179 C1178 1.370 . S
C1179 C1180 1.403 . S
C1180 C1179 1.403 . S
C1180 C1181 1.404 . S
C1180 C1183 1.539 . S
C1181 C1177 1.408 . S
C1181 C1180 1.404 . S
C1181 H1193 0.930 . S
C1182 C1178 1.524 . S
C1182 H1194 0.956 . S
C1182 H1195 0.961 . S
C1182 H1196 0.961 . S
C1183 C1180 1.539 . S
C1183 H1197 0.958 . S
C1183 H1198 0.961 . S
C1183 H1199 0.960 . S
H1184 C1168 0.931 . S
H1185 C1173 0.929 . S
H1186 C1174 0.960 . S
H1187 C1174 0.962 . S
H1188 C1174 0.960 . S
H1189 C1175 0.961 . S
H1190 C1175 0.961 . S
H1191 C1175 0.961 . S
H1192 C1176 0.931 . S
H1193 C1181 0.930 . S
H1194 C1182 0.956 . S
H1195 C1182 0.961 . S
H1196 C1182 0.961 . S
H1197 C1183 0.958 . S
H1198 C1183 0.961 . S
H1199 C1183 0.960 . S
C1200 C1201 1.391 . S
C1200 C1202 1.394 . S
C1200 H1216 0.931 . S
C1201 C1200 1.391 . S
C1201 C1205 1.376 . S
C1202 C1200 1.394 . S
C1202 C1203 1.369 . S
C1202 C1206 1.531 . S
C1203 C1202 1.369 . S
C1203 C1204 1.410 . S
C1203 C1211 1.503 . S
C1204 C1203 1.410 . S
C1204 C1205 1.392 . S
C1204 C1207 1.511 . S
C1205 C1201 1.376 . S
C1205 C1204 1.392 . S
C1205 H1217 0.929 . S
C1206 C1202 1.531 . S
C1206 H1218 0.960 . S
C1206 H1219 0.962 . S
C1206 H1220 0.960 . S
C1207 C1204 1.511 . S
C1207 H1221 0.961 . S
C1207 H1222 0.961 . S
C1207 H1223 0.961 . S
C1208 C1209 1.370 . S
C1208 C1210 1.363 . S
C1208 H1224 0.931 . S
C1209 C1208 1.370 . S
C1209 C1213 1.408 . S
C1210 C1208 1.363 . S
C1210 C1211 1.370 . S
C1210 C1214 1.524 . S
C1211 C1203 1.503 . S
C1211 C1210 1.370 . S
C1211 C1212 1.403 . S
C1212 C1211 1.403 . S
C1212 C1213 1.404 . S
C1212 C1215 1.539 . S
C1213 C1209 1.408 . S
C1213 C1212 1.404 . S
C1213 H1225 0.930 . S
C1214 C1210 1.524 . S
C1214 H1226 0.956 . S
C1214 H1227 0.961 . S
C1214 H1228 0.961 . S
C1215 C1212 1.539 . S
C1215 H1229 0.958 . S
C1215 H1230 0.961 . S
C1215 H1231 0.960 . S
H1216 C1200 0.931 . S
H1217 C1205 0.929 . S
H1218 C1206 0.960 . S
H1219 C1206 0.962 . S
H1220 C1206 0.960 . S
H1221 C1207 0.961 . S
H1222 C1207 0.961 . S
H1223 C1207 0.961 . S
H1224 C1208 0.931 . S
H1225 C1213 0.930 . S
H1226 C1214 0.956 . S
H1227 C1214 0.961 . S
H1228 C1214 0.961 . S
H1229 C1215 0.958 . S
H1230 C1215 0.961 . S
H1231 C1215 0.960 . S
C1232 C1233 1.391 . S
C1232 C1234 1.394 . S
C1232 H1248 0.931 . S
C1233 C1232 1.391 . S
C1233 C1237 1.376 . S
C1234 C1232 1.394 . S
C1234 C1235 1.369 . S
C1234 C1238 1.531 . S
C1235 C1234 1.369 . S
C1235 C1236 1.410 . S
C1235 C1243 1.503 . S
C1236 C1235 1.410 . S
C1236 C1237 1.392 . S
C1236 C1239 1.511 . S
C1237 C1233 1.376 . S
C1237 C1236 1.392 . S
C1237 H1249 0.929 . S
C1238 C1234 1.531 . S
C1238 H1250 0.960 . S
C1238 H1251 0.962 . S
C1238 H1252 0.960 . S
C1239 C1236 1.511 . S
C1239 H1253 0.961 . S
C1239 H1254 0.961 . S
C1239 H1255 0.961 . S
C1240 C1241 1.370 . S
C1240 C1242 1.363 . S
C1240 H1256 0.931 . S
C1241 C1240 1.370 . S
C1241 C1245 1.408 . S
C1242 C1240 1.363 . S
C1242 C1243 1.370 . S
C1242 C1246 1.524 . S
C1243 C1235 1.503 . S
C1243 C1242 1.370 . S
C1243 C1244 1.403 . S
C1244 C1243 1.403 . S
C1244 C1245 1.404 . S
C1244 C1247 1.539 . S
C1245 C1241 1.408 . S
C1245 C1244 1.404 . S
C1245 H1257 0.930 . S
C1246 C1242 1.524 . S
C1246 H1258 0.956 . S
C1246 H1259 0.961 . S
C1246 H1260 0.961 . S
C1247 C1244 1.539 . S
C1247 H1261 0.958 . S
C1247 H1262 0.961 . S
C1247 H1263 0.960 . S
H1248 C1232 0.931 . S
H1249 C1237 0.929 . S
H1250 C1238 0.960 . S
H1251 C1238 0.962 . S
H1252 C1238 0.960 . S
H1253 C1239 0.961 . S
H1254 C1239 0.961 . S
H1255 C1239 0.961 . S
H1256 C1240 0.931 . S
H1257 C1245 0.930 . S
H1258 C1246 0.956 . S
H1259 C1246 0.961 . S
H1260 C1246 0.961 . S
H1261 C1247 0.958 . S
H1262 C1247 0.961 . S
H1263 C1247 0.960 . S
C1264 C1265 1.391 . S
C1264 C1266 1.394 . S
C1264 H1280 0.931 . S
C1265 C1264 1.391 . S
C1265 C1269 1.376 . S
C1266 C1264 1.394 . S
C1266 C1267 1.369 . S
C1266 C1270 1.531 . S
C1267 C1266 1.369 . S
C1267 C1268 1.410 . S
C1267 C1275 1.503 . S
C1268 C1267 1.410 . S
C1268 C1269 1.392 . S
C1268 C1271 1.511 . S
C1269 C1265 1.376 . S
C1269 C1268 1.392 . S
C1269 H1281 0.929 . S
C1270 C1266 1.531 . S
C1270 H1282 0.960 . S
C1270 H1283 0.962 . S
C1270 H1284 0.960 . S
C1271 C1268 1.511 . S
C1271 H1285 0.961 . S
C1271 H1286 0.961 . S
C1271 H1287 0.961 . S
C1272 C1273 1.370 . S
C1272 C1274 1.363 . S
C1272 H1288 0.931 . S
C1273 C1272 1.370 . S
C1273 C1277 1.408 . S
C1274 C1272 1.363 . S
C1274 C1275 1.370 . S
C1274 C1278 1.524 . S
C1275 C1267 1.503 . S
C1275 C1274 1.370 . S
C1275 C1276 1.403 . S
C1276 C1275 1.403 . S
C1276 C1277 1.404 . S
C1276 C1279 1.539 . S
C1277 C1273 1.408 . S
C1277 C1276 1.404 . S
C1277 H1289 0.930 . S
C1278 C1274 1.524 . S
C1278 H1290 0.956 . S
C1278 H1291 0.961 . S
C1278 H1292 0.961 . S
C1279 C1276 1.539 . S
C1279 H1293 0.958 . S
C1279 H1294 0.961 . S
C1279 H1295 0.960 . S
H1280 C1264 0.931 . S
H1281 C1269 0.929 . S
H1282 C1270 0.960 . S
H1283 C1270 0.962 . S
H1284 C1270 0.960 . S
H1285 C1271 0.961 . S
H1286 C1271 0.961 . S
H1287 C1271 0.961 . S
H1288 C1272 0.931 . S
H1289 C1277 0.930 . S
H1290 C1278 0.956 . S
H1291 C1278 0.961 . S
H1292 C1278 0.961 . S
H1293 C1279 0.958 . S
H1294 C1279 0.961 . S
H1295 C1279 0.960 . S
C1296 C1297 1.391 . S
C1296 C1298 1.394 . S
C1296 H1312 0.931 . S
C1297 C1296 1.391 . S
C1297 C1301 1.376 . S
C1298 C1296 1.394 . S
C1298 C1299 1.369 . S
C1298 C1302 1.531 . S
C1299 C1298 1.369 . S
C1299 C1300 1.410 . S
C1299 C1307 1.503 . S
C1300 C1299 1.410 . S
C1300 C1301 1.392 . S
C1300 C1303 1.511 . S
C1301 C1297 1.376 . S
C1301 C1300 1.392 . S
C1301 H1313 0.929 . S
C1302 C1298 1.531 . S
C1302 H1314 0.960 . S
C1302 H1315 0.962 . S
C1302 H1316 0.960 . S
C1303 C1300 1.511 . S
C1303 H1317 0.961 . S
C1303 H1318 0.961 . S
C1303 H1319 0.961 . S
C1304 C1305 1.370 . S
C1304 C1306 1.363 . S
C1304 H1320 0.931 . S
C1305 C1304 1.370 . S
C1305 C1309 1.408 . S
C1306 C1304 1.363 . S
C1306 C1307 1.370 . S
C1306 C1310 1.524 . S
C1307 C1299 1.503 . S
C1307 C1306 1.370 . S
C1307 C1308 1.403 . S
C1308 C1307 1.403 . S
C1308 C1309 1.404 . S
C1308 C1311 1.539 . S
C1309 C1305 1.408 . S
C1309 C1308 1.404 . S
C1309 H1321 0.930 . S
C1310 C1306 1.524 . S
C1310 H1322 0.956 . S
C1310 H1323 0.961 . S
C1310 H1324 0.961 . S
C1311 C1308 1.539 . S
C1311 H1325 0.958 . S
C1311 H1326 0.961 . S
C1311 H1327 0.960 . S
H1312 C1296 0.931 . S
H1313 C1301 0.929 . S
H1314 C1302 0.960 . S
H1315 C1302 0.962 . S
H1316 C1302 0.960 . S
H1317 C1303 0.961 . S
H1318 C1303 0.961 . S
H1319 C1303 0.961 . S
H1320 C1304 0.931 . S
H1321 C1309 0.930 . S
H1322 C1310 0.956 . S
H1323 C1310 0.961 . S
H1324 C1310 0.961 . S
H1325 C1311 0.958 . S
H1326 C1311 0.961 . S
H1327 C1311 0.960 . S
C1328 C1329 1.391 . S
C1328 C1330 1.394 . S
C1328 H1344 0.931 . S
C1329 C1328 1.391 . S
C1329 C1333 1.376 . S
C1330 C1328 1.394 . S
C1330 C1331 1.369 . S
C1330 C1334 1.531 . S
C1331 C1330 1.369 . S
C1331 C1332 1.410 . S
C1331 C1339 1.503 . S
C1332 C1331 1.410 . S
C1332 C1333 1.392 . S
C1332 C1335 1.511 . S
C1333 C1329 1.376 . S
C1333 C1332 1.392 . S
C1333 H1345 0.929 . S
C1334 C1330 1.531 . S
C1334 H1346 0.960 . S
C1334 H1347 0.962 . S
C1334 H1348 0.960 . S
C1335 C1332 1.511 . S
C1335 H1349 0.961 . S
C1335 H1350 0.961 . S
C1335 H1351 0.961 . S
C1336 C1337 1.370 . S
C1336 C1338 1.363 . S
C1336 H1352 0.931 . S
C1337 C1336 1.370 . S
C1337 C1341 1.408 . S
C1338 C1336 1.363 . S
C1338 C1339 1.370 . S
C1338 C1342 1.524 . S
C1339 C1331 1.503 . S
C1339 C1338 1.370 . S
C1339 C1340 1.403 . S
C1340 C1339 1.403 . S
C1340 C1341 1.404 . S
C1340 C1343 1.539 . S
C1341 C1337 1.408 . S
C1341 C1340 1.404 . S
C1341 H1353 0.930 . S
C1342 C1338 1.524 . S
C1342 H1354 0.956 . S
C1342 H1355 0.961 . S
C1342 H1356 0.961 . S
C1343 C1340 1.539 . S
C1343 H1357 0.958 . S
C1343 H1358 0.961 . S
C1343 H1359 0.960 . S
H1344 C1328 0.931 . S
H1345 C1333 0.929 . S
H1346 C1334 0.960 . S
H1347 C1334 0.962 . S
H1348 C1334 0.960 . S
H1349 C1335 0.961 . S
H1350 C1335 0.961 . S
H1351 C1335 0.961 . S
H1352 C1336 0.931 . S
H1353 C1341 0.930 . S
H1354 C1342 0.956 . S
H1355 C1342 0.961 . S
H1356 C1342 0.961 . S
H1357 C1343 0.958 . S
H1358 C1343 0.961 . S
H1359 C1343 0.960 . S
C1360 C1361 1.391 . S
C1360 C1362 1.394 . S
C1360 H1376 0.931 . S
C1361 C1360 1.391 . S
C1361 C1365 1.376 . S
C1362 C1360 1.394 . S
C1362 C1363 1.369 . S
C1362 C1366 1.531 . S
C1363 C1362 1.369 . S
C1363 C1364 1.410 . S
C1363 C1371 1.503 . S
C1364 C1363 1.410 . S
C1364 C1365 1.392 . S
C1364 C1367 1.511 . S
C1365 C1361 1.376 . S
C1365 C1364 1.392 . S
C1365 H1377 0.929 . S
C1366 C1362 1.531 . S
C1366 H1378 0.960 . S
C1366 H1379 0.962 . S
C1366 H1380 0.960 . S
C1367 C1364 1.511 . S
C1367 H1381 0.961 . S
C1367 H1382 0.961 . S
C1367 H1383 0.961 . S
C1368 C1369 1.370 . S
C1368 C1370 1.363 . S
C1368 H1384 0.931 . S
C1369 C1368 1.370 . S
C1369 C1373 1.408 . S
C1370 C1368 1.363 . S
C1370 C1371 1.370 . S
C1370 C1374 1.524 . S
C1371 C1363 1.503 . S
C1371 C1370 1.370 . S
C1371 C1372 1.403 . S
C1372 C1371 1.403 . S
C1372 C1373 1.404 . S
C1372 C1375 1.539 . S
C1373 C1369 1.408 . S
C1373 C1372 1.404 . S
C1373 H1385 0.930 . S
C1374 C1370 1.524 . S
C1374 H1386 0.956 . S
C1374 H1387 0.961 . S
C1374 H1388 0.961 . S
C1375 C1372 1.539 . S
C1375 H1389 0.958 . S
C1375 H1390 0.961 . S
C1375 H1391 0.960 . S
H1376 C1360 0.931 . S
H1377 C1365 0.929 . S
H1378 C1366 0.960 . S
H1379 C1366 0.962 . S
H1380 C1366 0.960 . S
H1381 C1367 0.961 . S
H1382 C1367 0.961 . S
H1383 C1367 0.961 . S
H1384 C1368 0.931 . S
H1385 C1373 0.930 . S
H1386 C1374 0.956 . S
H1387 C1374 0.961 . S
H1388 C1374 0.961 . S
H1389 C1375 0.958 . S
H1390 C1375 0.961 . S
H1391 C1375 0.960 . S
C1392 C1393 1.391 . S
C1392 C1394 1.394 . S
C1392 H1408 0.931 . S
C1393 C1392 1.391 . S
C1393 C1397 1.376 . S
C1394 C1392 1.394 . S
C1394 C1395 1.369 . S
C1394 C1398 1.531 . S
C1395 C1394 1.369 . S
C1395 C1396 1.410 . S
C1395 C1403 1.503 . S
C1396 C1395 1.410 . S
C1396 C1397 1.392 . S
C1396 C1399 1.511 . S
C1397 C1393 1.376 . S
C1397 C1396 1.392 . S
C1397 H1409 0.929 . S
C1398 C1394 1.531 . S
C1398 H1410 0.960 . S
C1398 H1411 0.962 . S
C1398 H1412 0.960 . S
C1399 C1396 1.511 . S
C1399 H1413 0.961 . S
C1399 H1414 0.961 . S
C1399 H1415 0.961 . S
C1400 C1401 1.370 . S
C1400 C1402 1.363 . S
C1400 H1416 0.931 . S
C1401 C1400 1.370 . S
C1401 C1405 1.408 . S
C1402 C1400 1.363 . S
C1402 C1403 1.370 . S
C1402 C1406 1.524 . S
C1403 C1395 1.503 . S
C1403 C1402 1.370 . S
C1403 C1404 1.403 . S
C1404 C1403 1.403 . S
C1404 C1405 1.404 . S
C1404 C1407 1.539 . S
C1405 C1401 1.408 . S
C1405 C1404 1.404 . S
C1405 H1417 0.930 . S
C1406 C1402 1.524 . S
C1406 H1418 0.956 . S
C1406 H1419 0.961 . S
C1406 H1420 0.961 . S
C1407 C1404 1.539 . S
C1407 H1421 0.958 . S
C1407 H1422 0.961 . S
C1407 H1423 0.960 . S
H1408 C1392 0.931 . S
H1409 C1397 0.929 . S
H1410 C1398 0.960 . S
H1411 C1398 0.962 . S
H1412 C1398 0.960 . S
H1413 C1399 0.961 . S
H1414 C1399 0.961 . S
H1415 C1399 0.961 . S
H1416 C1400 0.931 . S
H1417 C1405 0.930 . S
H1418 C1406 0.956 . S
H1419 C1406 0.961 . S
H1420 C1406 0.961 . S
H1421 C1407 0.958 . S
H1422 C1407 0.961 . S
H1423 C1407 0.960 . S
C1424 C1425 1.391 . S
C1424 C1426 1.394 . S
C1424 H1440 0.931 . S
C1425 C1424 1.391 . S
C1425 C1429 1.376 . S
C1426 C1424 1.394 . S
C1426 C1427 1.369 . S
C1426 C1430 1.531 . S
C1427 C1426 1.369 . S
C1427 C1428 1.410 . S
C1427 C1435 1.503 . S
C1428 C1427 1.410 . S
C1428 C1429 1.392 . S
C1428 C1431 1.511 . S
C1429 C1425 1.376 . S
C1429 C1428 1.392 . S
C1429 H1441 0.929 . S
C1430 C1426 1.531 . S
C1430 H1442 0.960 . S
C1430 H1443 0.962 . S
C1430 H1444 0.960 . S
C1431 C1428 1.511 . S
C1431 H1445 0.961 . S
C1431 H1446 0.961 . S
C1431 H1447 0.961 . S
C1432 C1433 1.370 . S
C1432 C1434 1.363 . S
C1432 H1448 0.931 . S
C1433 C1432 1.370 . S
C1433 C1437 1.408 . S
C1434 C1432 1.363 . S
C1434 C1435 1.370 . S
C1434 C1438 1.524 . S
C1435 C1427 1.503 . S
C1435 C1434 1.370 . S
C1435 C1436 1.403 . S
C1436 C1435 1.403 . S
C1436 C1437 1.404 . S
C1436 C1439 1.539 . S
C1437 C1433 1.408 . S
C1437 C1436 1.404 . S
C1437 H1449 0.930 . S
C1438 C1434 1.524 . S
C1438 H1450 0.956 . S
C1438 H1451 0.961 . S
C1438 H1452 0.961 . S
C1439 C1436 1.539 . S
C1439 H1453 0.958 . S
C1439 H1454 0.961 . S
C1439 H1455 0.960 . S
H1440 C1424 0.931 . S
H1441 C1429 0.929 . S
H1442 C1430 0.960 . S
H1443 C1430 0.962 . S
H1444 C1430 0.960 . S
H1445 C1431 0.961 . S
H1446 C1431 0.961 . S
H1447 C1431 0.961 . S
H1448 C1432 0.931 . S
H1449 C1437 0.930 . S
H1450 C1438 0.956 . S
H1451 C1438 0.961 . S
H1452 C1438 0.961 . S
H1453 C1439 0.958 . S
H1454 C1439 0.961 . S
H1455 C1439 0.960 . S
C1456 C1457 1.391 . S
C1456 C1458 1.394 . S
C1456 H1472 0.931 . S
C1457 C1456 1.391 . S
C1457 C1461 1.376 . S
C1458 C1456 1.394 . S
C1458 C1459 1.369 . S
C1458 C1462 1.531 . S
C1459 C1458 1.369 . S
C1459 C1460 1.410 . S
C1459 C1467 1.503 . S
C1460 C1459 1.410 . S
C1460 C1461 1.392 . S
C1460 C1463 1.511 . S
C1461 C1457 1.376 . S
C1461 C1460 1.392 . S
C1461 H1473 0.929 . S
C1462 C1458 1.531 . S
C1462 H1474 0.960 . S
C1462 H1475 0.962 . S
C1462 H1476 0.960 . S
C1463 C1460 1.511 . S
C1463 H1477 0.961 . S
C1463 H1478 0.961 . S
C1463 H1479 0.961 . S
C1464 C1465 1.370 . S
C1464 C1466 1.363 . S
C1464 H1480 0.931 . S
C1465 C1464 1.370 . S
C1465 C1469 1.408 . S
C1466 C1464 1.363 . S
C1466 C1467 1.370 . S
C1466 C1470 1.524 . S
C1467 C1459 1.503 . S
C1467 C1466 1.370 . S
C1467 C1468 1.403 . S
C1468 C1467 1.403 . S
C1468 C1469 1.404 . S
C1468 C1471 1.539 . S
C1469 C1465 1.408 . S
C1469 C1468 1.404 . S
C1469 H1481 0.930 . S
C1470 C1466 1.524 . S
C1470 H1482 0.956 . S
C1470 H1483 0.961 . S
C1470 H1484 0.961 . S
C1471 C1468 1.539 . S
C1471 H1485 0.958 . S
C1471 H1486 0.961 . S
C1471 H1487 0.960 . S
H1472 C1456 0.931 . S
H1473 C1461 0.929 . S
H1474 C1462 0.960 . S
H1475 C1462 0.962 . S
H1476 C1462 0.960 . S
H1477 C1463 0.961 . S
H1478 C1463 0.961 . S
H1479 C1463 0.961 . S
H1480 C1464 0.931 . S
H1481 C1469 0.930 . S
H1482 C1470 0.956 . S
H1483 C1470 0.961 . S
H1484 C1470 0.961 . S
H1485 C1471 0.958 . S
H1486 C1471 0.961 . S
H1487 C1471 0.960 . S
C1488 C1489 1.391 . S
C1488 C1490 1.394 . S
C1488 H1504 0.931 . S
C1489 C1488 1.391 . S
C1489 C1493 1.376 . S
C1490 C1488 1.394 . S
C1490 C1491 1.369 . S
C1490 C1494 1.531 . S
C1491 C1490 1.369 . S
C1491 C1492 1.410 . S
C1491 C1499 1.503 . S
C1492 C1491 1.410 . S
C1492 C1493 1.392 . S
C1492 C1495 1.511 . S
C1493 C1489 1.376 . S
C1493 C1492 1.392 . S
C1493 H1505 0.929 . S
C1494 C1490 1.531 . S
C1494 H1506 0.960 . S
C1494 H1507 0.962 . S
C1494 H1508 0.960 . S
C1495 C1492 1.511 . S
C1495 H1509 0.961 . S
C1495 H1510 0.961 . S
C1495 H1511 0.961 . S
C1496 C1497 1.370 . S
C1496 C1498 1.363 . S
C1496 H1512 0.931 . S
C1497 C1496 1.370 . S
C1497 C1501 1.408 . S
C1498 C1496 1.363 . S
C1498 C1499 1.370 . S
C1498 C1502 1.524 . S
C1499 C1491 1.503 . S
C1499 C1498 1.370 . S
C1499 C1500 1.403 . S
C1500 C1499 1.403 . S
C1500 C1501 1.404 . S
C1500 C1503 1.539 . S
C1501 C1497 1.408 . S
C1501 C1500 1.404 . S
C1501 H1513 0.930 . S
C1502 C1498 1.524 . S
C1502 H1514 0.956 . S
C1502 H1515 0.961 . S
C1502 H1516 0.961 . S
C1503 C1500 1.539 . S
C1503 H1517 0.958 . S
C1503 H1518 0.961 . S
C1503 H1519 0.960 . S
H1504 C1488 0.931 . S
H1505 C1493 0.929 . S
H1506 C1494 0.960 . S
H1507 C1494 0.962 . S
H1508 C1494 0.960 . S
H1509 C1495 0.961 . S
H1510 C1495 0.961 . S
H1511 C1495 0.961 . S
H1512 C1496 0.931 . S
H1513 C1501 0.930 . S
H1514 C1502 0.956 . S
H1515 C1502 0.961 . S
H1516 C1502 0.961 . S
H1517 C1503 0.958 . S
H1518 C1503 0.961 . S
H1519 C1503 0.960 . S
C1520 C1521 1.391 . S
C1520 C1522 1.394 . S
C1520 H1536 0.931 . S
C1521 C1520 1.391 . S
C1521 C1525 1.376 . S
C1522 C1520 1.394 . S
C1522 C1523 1.369 . S
C1522 C1526 1.531 . S
C1523 C1522 1.369 . S
C1523 C1524 1.410 . S
C1523 C1531 1.503 . S
C1524 C1523 1.410 . S
C1524 C1525 1.392 . S
C1524 C1527 1.511 . S
C1525 C1521 1.376 . S
C1525 C1524 1.392 . S
C1525 H1537 0.929 . S
C1526 C1522 1.531 . S
C1526 H1538 0.960 . S
C1526 H1539 0.962 . S
C1526 H1540 0.960 . S
C1527 C1524 1.511 . S
C1527 H1541 0.961 . S
C1527 H1542 0.961 . S
C1527 H1543 0.961 . S
C1528 C1529 1.370 . S
C1528 C1530 1.363 . S
C1528 H1544 0.931 . S
C1529 C1528 1.370 . S
C1529 C1533 1.408 . S
C1530 C1528 1.363 . S
C1530 C1531 1.370 . S
C1530 C1534 1.524 . S
C1531 C1523 1.503 . S
C1531 C1530 1.370 . S
C1531 C1532 1.403 . S
C1532 C1531 1.403 . S
C1532 C1533 1.404 . S
C1532 C1535 1.539 . S
C1533 C1529 1.408 . S
C1533 C1532 1.404 . S
C1533 H1545 0.930 . S
C1534 C1530 1.524 . S
C1534 H1546 0.956 . S
C1534 H1547 0.961 . S
C1534 H1548 0.961 . S
C1535 C1532 1.539 . S
C1535 H1549 0.958 . S
C1535 H1550 0.961 . S
C1535 H1551 0.960 . S
H1536 C1520 0.931 . S
H1537 C1525 0.929 . S
H1538 C1526 0.960 . S
H1539 C1526 0.962 . S
H1540 C1526 0.960 . S
H1541 C1527 0.961 . S
H1542 C1527 0.961 . S
H1543 C1527 0.961 . S
H1544 C1528 0.931 . S
H1545 C1533 0.930 . S
H1546 C1534 0.956 . S
H1547 C1534 0.961 . S
H1548 C1534 0.961 . S
H1549 C1535 0.958 . S
H1550 C1535 0.961 . S
H1551 C1535 0.960 . S
C1552 C1553 1.391 . S
C1552 C1554 1.394 . S
C1552 H1568 0.931 . S
C1553 C1552 1.391 . S
C1553 C1557 1.376 . S
C1554 C1552 1.394 . S
C1554 C1555 1.369 . S
C1554 C1558 1.531 . S
C1555 C1554 1.369 . S
C1555 C1556 1.410 . S
C1555 C1563 1.503 . S
C1556 C1555 1.410 . S
C1556 C1557 1.392 . S
C1556 C1559 1.511 . S
C1557 C1553 1.376 . S
C1557 C1556 1.392 . S
C1557 H1569 0.929 . S
C1558 C1554 1.531 . S
C1558 H1570 0.960 . S
C1558 H1571 0.962 . S
C1558 H1572 0.960 . S
C1559 C1556 1.511 . S
C1559 H1573 0.961 . S
C1559 H1574 0.961 . S
C1559 H1575 0.961 . S
C1560 C1561 1.370 . S
C1560 C1562 1.363 . S
C1560 H1576 0.931 . S
C1561 C1560 1.370 . S
C1561 C1565 1.408 . S
C1562 C1560 1.363 . S
C1562 C1563 1.370 . S
C1562 C1566 1.524 . S
C1563 C1555 1.503 . S
C1563 C1562 1.370 . S
C1563 C1564 1.403 . S
C1564 C1563 1.403 . S
C1564 C1565 1.404 . S
C1564 C1567 1.539 . S
C1565 C1561 1.408 . S
C1565 C1564 1.404 . S
C1565 H1577 0.930 . S
C1566 C1562 1.524 . S
C1566 H1578 0.956 . S
C1566 H1579 0.961 . S
C1566 H1580 0.961 . S
C1567 C1564 1.539 . S
C1567 H1581 0.958 . S
C1567 H1582 0.961 . S
C1567 H1583 0.960 . S
H1568 C1552 0.931 . S
H1569 C1557 0.929 . S
H1570 C1558 0.960 . S
H1571 C1558 0.962 . S
H1572 C1558 0.960 . S
H1573 C1559 0.961 . S
H1574 C1559 0.961 . S
H1575 C1559 0.961 . S
H1576 C1560 0.931 . S
H1577 C1565 0.930 . S
H1578 C1566 0.956 . S
H1579 C1566 0.961 . S
H1580 C1566 0.961 . S
H1581 C1567 0.958 . S
H1582 C1567 0.961 . S
H1583 C1567 0.960 . S
C1584 C1585 1.391 . S
C1584 C1586 1.394 . S
C1584 H1600 0.931 . S
C1585 C1584 1.391 . S
C1585 C1589 1.376 . S
C1586 C1584 1.394 . S
C1586 C1587 1.369 . S
C1586 C1590 1.531 . S
C1587 C1586 1.369 . S
C1587 C1588 1.410 . S
C1587 C1595 1.503 . S
C1588 C1587 1.410 . S
C1588 C1589 1.392 . S
C1588 C1591 1.511 . S
C1589 C1585 1.376 . S
C1589 C1588 1.392 . S
C1589 H1601 0.929 . S
C1590 C1586 1.531 . S
C1590 H1602 0.960 . S
C1590 H1603 0.962 . S
C1590 H1604 0.960 . S
C1591 C1588 1.511 . S
C1591 H1605 0.961 . S
C1591 H1606 0.961 . S
C1591 H1607 0.961 . S
C1592 C1593 1.370 . S
C1592 C1594 1.363 . S
C1592 H1608 0.931 . S
C1593 C1592 1.370 . S
C1593 C1597 1.408 . S
C1594 C1592 1.363 . S
C1594 C1595 1.370 . S
C1594 C1598 1.524 . S
C1595 C1587 1.503 . S
C1595 C1594 1.370 . S
C1595 C1596 1.403 . S
C1596 C1595 1.403 . S
C1596 C1597 1.404 . S
C1596 C1599 1.539 . S
C1597 C1593 1.408 . S
C1597 C1596 1.404 . S
C1597 H1609 0.930 . S
C1598 C1594 1.524 . S
C1598 H1610 0.956 . S
C1598 H1611 0.961 . S
C1598 H1612 0.961 . S
C1599 C1596 1.539 . S
C1599 H1613 0.958 . S
C1599 H1614 0.961 . S
C1599 H1615 0.960 . S
H1600 C1584 0.931 . S
H1601 C1589 0.929 . S
H1602 C1590 0.960 . S
H1603 C1590 0.962 . S
H1604 C1590 0.960 . S
H1605 C1591 0.961 . S
H1606 C1591 0.961 . S
H1607 C1591 0.961 . S
H1608 C1592 0.931 . S
H1609 C1597 0.930 . S
H1610 C1598 0.956 . S
H1611 C1598 0.961 . S
H1612 C1598 0.961 . S
H1613 C1599 0.958 . S
H1614 C1599 0.961 . S
H1615 C1599 0.960 . S
C1616 C1617 1.391 . S
C1616 C1618 1.394 . S
C1616 H1632 0.931 . S
C1617 C1616 1.391 . S
C1617 C1621 1.376 . S
C1618 C1616 1.394 . S
C1618 C1619 1.369 . S
C1618 C1622 1.531 . S
C1619 C1618 1.369 . S
C1619 C1620 1.410 . S
C1619 C1627 1.503 . S
C1620 C1619 1.410 . S
C1620 C1621 1.392 . S
C1620 C1623 1.511 . S
C1621 C1617 1.376 . S
C1621 C1620 1.392 . S
C1621 H1633 0.929 . S
C1622 C1618 1.531 . S
C1622 H1634 0.960 . S
C1622 H1635 0.962 . S
C1622 H1636 0.960 . S
C1623 C1620 1.511 . S
C1623 H1637 0.961 . S
C1623 H1638 0.961 . S
C1623 H1639 0.961 . S
C1624 C1625 1.370 . S
C1624 C1626 1.363 . S
C1624 H1640 0.931 . S
C1625 C1624 1.370 . S
C1625 C1629 1.408 . S
C1626 C1624 1.363 . S
C1626 C1627 1.370 . S
C1626 C1630 1.524 . S
C1627 C1619 1.503 . S
C1627 C1626 1.370 . S
C1627 C1628 1.403 . S
C1628 C1627 1.403 . S
C1628 C1629 1.404 . S
C1628 C1631 1.539 . S
C1629 C1625 1.408 . S
C1629 C1628 1.404 . S
C1629 H1641 0.930 . S
C1630 C1626 1.524 . S
C1630 H1642 0.956 . S
C1630 H1643 0.961 . S
C1630 H1644 0.961 . S
C1631 C1628 1.539 . S
C1631 H1645 0.958 . S
C1631 H1646 0.961 . S
C1631 H1647 0.960 . S
H1632 C1616 0.931 . S
H1633 C1621 0.929 . S
H1634 C1622 0.960 . S
H1635 C1622 0.962 . S
H1636 C1622 0.960 . S
H1637 C1623 0.961 . S
H1638 C1623 0.961 . S
H1639 C1623 0.961 . S
H1640 C1624 0.931 . S
H1641 C1629 0.930 . S
H1642 C1630 0.956 . S
H1643 C1630 0.961 . S
H1644 C1630 0.961 . S
H1645 C1631 0.958 . S
H1646 C1631 0.961 . S
H1647 C1631 0.960 . S
C1648 C1649 1.391 . S
C1648 C1650 1.394 . S
C1648 H1664 0.931 . S
C1649 C1648 1.391 . S
C1649 C1653 1.376 . S
C1650 C1648 1.394 . S
C1650 C1651 1.369 . S
C1650 C1654 1.531 . S
C1651 C1650 1.369 . S
C1651 C1652 1.410 . S
C1651 C1659 1.503 . S
C1652 C1651 1.410 . S
C1652 C1653 1.392 . S
C1652 C1655 1.511 . S
C1653 C1649 1.376 . S
C1653 C1652 1.392 . S
C1653 H1665 0.929 . S
C1654 C1650 1.531 . S
C1654 H1666 0.960 . S
C1654 H1667 0.962 . S
C1654 H1668 0.960 . S
C1655 C1652 1.511 . S
C1655 H1669 0.961 . S
C1655 H1670 0.961 . S
C1655 H1671 0.961 . S
C1656 C1657 1.370 . S
C1656 C1658 1.363 . S
C1656 H1672 0.931 . S
C1657 C1656 1.370 . S
C1657 C1661 1.408 . S
C1658 C1656 1.363 . S
C1658 C1659 1.370 . S
C1658 C1662 1.524 . S
C1659 C1651 1.503 . S
C1659 C1658 1.370 . S
C1659 C1660 1.403 . S
C1660 C1659 1.403 . S
C1660 C1661 1.404 . S
C1660 C1663 1.539 . S
C1661 C1657 1.408 . S
C1661 C1660 1.404 . S
C1661 H1673 0.930 . S
C1662 C1658 1.524 . S
C1662 H1674 0.956 . S
C1662 H1675 0.961 . S
C1662 H1676 0.961 . S
C1663 C1660 1.539 . S
C1663 H1677 0.958 . S
C1663 H1678 0.961 . S
C1663 H1679 0.960 . S
H1664 C1648 0.931 . S
H1665 C1653 0.929 . S
H1666 C1654 0.960 . S
H1667 C1654 0.962 . S
H1668 C1654 0.960 . S
H1669 C1655 0.961 . S
H1670 C1655 0.961 . S
H1671 C1655 0.961 . S
H1672 C1656 0.931 . S
H1673 C1661 0.930 . S
H1674 C1662 0.956 . S
H1675 C1662 0.961 . S
H1676 C1662 0.961 . S
H1677 C1663 0.958 . S
H1678 C1663 0.961 . S
H1679 C1663 0.960 . S
C1680 C1681 1.391 . S
C1680 C1682 1.394 . S
C1680 H1696 0.931 . S
C1681 C1680 1.391 . S
C1681 C1685 1.376 . S
C1682 C1680 1.394 . S
C1682 C1683 1.369 . S
C1682 C1686 1.531 . S
C1683 C1682 1.369 . S
C1683 C1684 1.410 . S
C1683 C1691 1.503 . S
C1684 C1683 1.410 . S
C1684 C1685 1.392 . S
C1684 C1687 1.511 . S
C1685 C1681 1.376 . S
C1685 C1684 1.392 . S
C1685 H1697 0.929 . S
C1686 C1682 1.531 . S
C1686 H1698 0.960 . S
C1686 H1699 0.962 . S
C1686 H1700 0.960 . S
C1687 C1684 1.511 . S
C1687 H1701 0.961 . S
C1687 H1702 0.961 . S
C1687 H1703 0.961 . S
C1688 C1689 1.370 . S
C1688 C1690 1.363 . S
C1688 H1704 0.931 . S
C1689 C1688 1.370 . S
C1689 C1693 1.408 . S
C1690 C1688 1.363 . S
C1690 C1691 1.370 . S
C1690 C1694 1.524 . S
C1691 C1683 1.503 . S
C1691 C1690 1.370 . S
C1691 C1692 1.403 . S
C1692 C1691 1.403 . S
C1692 C1693 1.404 . S
C1692 C1695 1.539 . S
C1693 C1689 1.408 . S
C1693 C1692 1.404 . S
C1693 H1705 0.930 . S
C1694 C1690 1.524 . S
C1694 H1706 0.956 . S
C1694 H1707 0.961 . S
C1694 H1708 0.961 . S
C1695 C1692 1.539 . S
C1695 H1709 0.958 . S
C1695 H1710 0.961 . S
C1695 H1711 0.960 . S
H1696 C1680 0.931 . S
H1697 C1685 0.929 . S
H1698 C1686 0.960 . S
H1699 C1686 0.962 . S
H1700 C1686 0.960 . S
H1701 C1687 0.961 . S
H1702 C1687 0.961 . S
H1703 C1687 0.961 . S
H1704 C1688 0.931 . S
H1705 C1693 0.930 . S
H1706 C1694 0.956 . S
H1707 C1694 0.961 . S
H1708 C1694 0.961 . S
H1709 C1695 0.958 . S
H1710 C1695 0.961 . S
H1711 C1695 0.960 . S
C1712 C1713 1.391 . S
C1712 C1714 1.394 . S
C1712 H1728 0.931 . S
C1713 C1712 1.391 . S
C1713 C1717 1.376 . S
C1714 C1712 1.394 . S
C1714 C1715 1.369 . S
C1714 C1718 1.531 . S
C1715 C1714 1.369 . S
C1715 C1716 1.410 . S
C1715 C1723 1.503 . S
C1716 C1715 1.410 . S
C1716 C1717 1.392 . S
C1716 C1719 1.511 . S
C1717 C1713 1.376 . S
C1717 C1716 1.392 . S
C1717 H1729 0.929 . S
C1718 C1714 1.531 . S
C1718 H1730 0.960 . S
C1718 H1731 0.962 . S
C1718 H1732 0.960 . S
C1719 C1716 1.511 . S
C1719 H1733 0.961 . S
C1719 H1734 0.961 . S
C1719 H1735 0.961 . S
C1720 C1721 1.370 . S
C1720 C1722 1.363 . S
C1720 H1736 0.931 . S
C1721 C1720 1.370 . S
C1721 C1725 1.408 . S
C1722 C1720 1.363 . S
C1722 C1723 1.370 . S
C1722 C1726 1.524 . S
C1723 C1715 1.503 . S
C1723 C1722 1.370 . S
C1723 C1724 1.403 . S
C1724 C1723 1.403 . S
C1724 C1725 1.404 . S
C1724 C1727 1.539 . S
C1725 C1721 1.408 . S
C1725 C1724 1.404 . S
C1725 H1737 0.930 . S
C1726 C1722 1.524 . S
C1726 H1738 0.956 . S
C1726 H1739 0.961 . S
C1726 H1740 0.961 . S
C1727 C1724 1.539 . S
C1727 H1741 0.958 . S
C1727 H1742 0.961 . S
C1727 H1743 0.960 . S
H1728 C1712 0.931 . S
H1729 C1717 0.929 . S
H1730 C1718 0.960 . S
H1731 C1718 0.962 . S
H1732 C1718 0.960 . S
H1733 C1719 0.961 . S
H1734 C1719 0.961 . S
H1735 C1719 0.961 . S
H1736 C1720 0.931 . S
H1737 C1725 0.930 . S
H1738 C1726 0.956 . S
H1739 C1726 0.961 . S
H1740 C1726 0.961 . S
H1741 C1727 0.958 . S
H1742 C1727 0.961 . S
H1743 C1727 0.960 . S
C1744 C1745 1.391 . S
C1744 C1746 1.394 . S
C1744 H1760 0.931 . S
C1745 C1744 1.391 . S
C1745 C1749 1.376 . S
C1746 C1744 1.394 . S
C1746 C1747 1.369 . S
C1746 C1750 1.531 . S
C1747 C1746 1.369 . S
C1747 C1748 1.410 . S
C1747 C1755 1.503 . S
C1748 C1747 1.410 . S
C1748 C1749 1.392 . S
C1748 C1751 1.511 . S
C1749 C1745 1.376 . S
C1749 C1748 1.392 . S
C1749 H1761 0.929 . S
C1750 C1746 1.531 . S
C1750 H1762 0.960 . S
C1750 H1763 0.962 . S
C1750 H1764 0.960 . S
C1751 C1748 1.511 . S
C1751 H1765 0.961 . S
C1751 H1766 0.961 . S
C1751 H1767 0.961 . S
C1752 C1753 1.370 . S
C1752 C1754 1.363 . S
C1752 H1768 0.931 . S
C1753 C1752 1.370 . S
C1753 C1757 1.408 . S
C1754 C1752 1.363 . S
C1754 C1755 1.370 . S
C1754 C1758 1.524 . S
C1755 C1747 1.503 . S
C1755 C1754 1.370 . S
C1755 C1756 1.403 . S
C1756 C1755 1.403 . S
C1756 C1757 1.404 . S
C1756 C1759 1.539 . S
C1757 C1753 1.408 . S
C1757 C1756 1.404 . S
C1757 H1769 0.930 . S
C1758 C1754 1.524 . S
C1758 H1770 0.956 . S
C1758 H1771 0.961 . S
C1758 H1772 0.961 . S
C1759 C1756 1.539 . S
C1759 H1773 0.958 . S
C1759 H1774 0.961 . S
C1759 H1775 0.960 . S
H1760 C1744 0.931 . S
H1761 C1749 0.929 . S
H1762 C1750 0.960 . S
H1763 C1750 0.962 . S
H1764 C1750 0.960 . S
H1765 C1751 0.961 . S
H1766 C1751 0.961 . S
H1767 C1751 0.961 . S
H1768 C1752 0.931 . S
H1769 C1757 0.930 . S
H1770 C1758 0.956 . S
H1771 C1758 0.961 . S
H1772 C1758 0.961 . S
H1773 C1759 0.958 . S
H1774 C1759 0.961 . S
H1775 C1759 0.960 . S
C1776 C1777 1.391 . S
C1776 C1778 1.394 . S
C1776 H1792 0.931 . S
C1777 C1776 1.391 . S
C1777 C1781 1.376 . S
C1778 C1776 1.394 . S
C1778 C1779 1.369 . S
C1778 C1782 1.531 . S
C1779 C1778 1.369 . S
C1779 C1780 1.410 . S
C1779 C1787 1.503 . S
C1780 C1779 1.410 . S
C1780 C1781 1.392 . S
C1780 C1783 1.511 . S
C1781 C1777 1.376 . S
C1781 C1780 1.392 . S
C1781 H1793 0.929 . S
C1782 C1778 1.531 . S
C1782 H1794 0.960 . S
C1782 H1795 0.962 . S
C1782 H1796 0.960 . S
C1783 C1780 1.511 . S
C1783 H1797 0.961 . S
C1783 H1798 0.961 . S
C1783 H1799 0.961 . S
C1784 C1785 1.370 . S
C1784 C1786 1.363 . S
C1784 H1800 0.931 . S
C1785 C1784 1.370 . S
C1785 C1789 1.408 . S
C1786 C1784 1.363 . S
C1786 C1787 1.370 . S
C1786 C1790 1.524 . S
C1787 C1779 1.503 . S
C1787 C1786 1.370 . S
C1787 C1788 1.403 . S
C1788 C1787 1.403 . S
C1788 C1789 1.404 . S
C1788 C1791 1.539 . S
C1789 C1785 1.408 . S
C1789 C1788 1.404 . S
C1789 H1801 0.930 . S
C1790 C1786 1.524 . S
C1790 H1802 0.956 . S
C1790 H1803 0.961 . S
C1790 H1804 0.961 . S
C1791 C1788 1.539 . S
C1791 H1805 0.958 . S
C1791 H1806 0.961 . S
C1791 H1807 0.960 . S
H1792 C1776 0.931 . S
H1793 C1781 0.929 . S
H1794 C1782 0.960 . S
H1795 C1782 0.962 . S
H1796 C1782 0.960 . S
H1797 C1783 0.961 . S
H1798 C1783 0.961 . S
H1799 C1783 0.961 . S
H1800 C1784 0.931 . S
H1801 C1789 0.930 . S
H1802 C1790 0.956 . S
H1803 C1790 0.961 . S
H1804 C1790 0.961 . S
H1805 C1791 0.958 . S
H1806 C1791 0.961 . S
H1807 C1791 0.960 . S
C529 C8 2.264 . S
C537 C74 2.275 . S
C561 C107 2.282 . S
C569 C41 2.282 . S
C593 C206 2.281 . S
C601 C140 2.281 . S
C625 C173 2.276 . S
C633 C239 2.278 . S
C657 C338 2.265 . S
C665 C272 2.274 . S
C689 C305 2.282 . S
C697 C371 2.281 . S
C721 C470 2.280 . S
C729 C404 2.280 . S
C753 C437 2.280 . S
C761 C503 2.280 . S
C785 C17 1.512 . S
C793 C347 1.517 . S
C817 C380 1.514 . S
C825 C50 1.518 . S
C849 C281 1.514 . S
C857 C83 1.518 . S
C881 C314 1.494 . S
C889 C116 1.509 . S
C913 C479 1.495 . S
C921 C149 1.510 . S
C945 C512 1.507 . S
C953 C182 1.513 . S
C977 C413 1.497 . S
C985 C215 1.509 . S
C1009 C446 1.520 . S
C1017 C248 1.521 . S
C1041 C28 1.025 . S
C1049 C259 1.038 . S
C1073 C61 1.021 . S
C1081 C160 1.034 . S
C1105 C193 1.039 . S
C1113 C94 1.044 . S
C1137 C226 1.021 . S
C1145 C127 1.036 . S
C1169 C292 1.023 . S
C1177 C523 1.039 . S
C1201 C325 1.063 . S
C1209 C424 1.050 . S
C1233 C358 1.034 . S
C1241 C457 1.045 . S
C1265 C391 1.057 . S
C1273 C490 1.046 . S
C1297 N476 1.023 . S
C1305 N5 1.022 . S
C1329 N38 1.013 . S
C1337 N509 1.010 . S
C1361 N410 1.045 . S
C1369 N71 1.031 . S
C1393 N443 0.963 . S
C1401 N104 1.024 . S
C1425 N344 1.028 . S
C1433 N137 1.023 . S
C1457 N170 1.043 . S
C1465 N377 1.016 . S
C1489 N278 0.959 . S
C1497 N203 1.023 . S
C1521 N236 1.005 . S
C1529 N311 0.988 . S
C1553 N212 0.966 . S
C1561 N269 1.028 . S
C1585 N245 1.017 . S
C1593 N302 1.034 . S
C1617 N146 1.025 . S
C1625 N335 1.020 . S
C1649 N368 1.021 . S
C1657 N179 0.985 . S
C1681 N80 1.036 . S
C1689 N401 1.023 . S
C1713 N434 1.020 . S
C1721 N113 0.985 . S
C1745 N467 1.032 . S
C1753 N14 0.991 . S
C1777 N47 1.002 . S
C1785 N500 1.018 . S
