# Generated by pormake.
# Topology whm, (6)-cn, num edge types: 1
# Building blocks:
#     Node 0, Type 0, BuildingBlock: IZENUY_clean_sbu_0, # of connection points: 6
#     Node 1, Type 0, BuildingBlock: IZENUY_clean_sbu_0, # of connection points: 6
#     Node 2, Type 0, BuildingBlock: IZENUY_clean_sbu_0, # of connection points: 6
#     Node 3, Type 0, BuildingBlock: IZENUY_clean_sbu_0, # of connection points: 6
#     Node 4, Type 0, BuildingBlock: IZENUY_clean_sbu_0, # of connection points: 6
#     Node 5, Type 0, BuildingBlock: IZENUY_clean_sbu_0, # of connection points: 6
#     Node 6, Type 0, BuildingBlock: IZENUY_clean_sbu_0, # of connection points: 6
#     Node 7, Type 0, BuildingBlock: IZENUY_clean_sbu_0, # of connection points: 6
#     Node 8, Type 0, BuildingBlock: IZENUY_clean_sbu_0, # of connection points: 6
#     Node 9, Type 0, BuildingBlock: IZENUY_clean_sbu_0, # of connection points: 6
#     Node 10, Type 0, BuildingBlock: IZENUY_clean_sbu_0, # of connection points: 6
#     Node 11, Type 0, BuildingBlock: IZENUY_clean_sbu_0, # of connection points: 6
#     Node 12, Type 0, BuildingBlock: IZENUY_clean_sbu_0, # of connection points: 6
#     Node 13, Type 0, BuildingBlock: IZENUY_clean_sbu_0, # of connection points: 6
#     Node 14, Type 0, BuildingBlock: IZENUY_clean_sbu_0, # of connection points: 6
#     Node 15, Type 0, BuildingBlock: IZENUY_clean_sbu_0, # of connection points: 6
#     Edge 16, Type (0, 0), BuildingBlock: XIVTED_clean_linker_0, # of connection points: 2
#     Edge 17, Type (0, 0), BuildingBlock: XIVTED_clean_linker_0, # of connection points: 2
#     Edge 18, Type (0, 0), BuildingBlock: XIVTED_clean_linker_0, # of connection points: 2
#     Edge 19, Type (0, 0), BuildingBlock: XIVTED_clean_linker_0, # of connection points: 2
#     Edge 20, Type (0, 0), BuildingBlock: XIVTED_clean_linker_0, # of connection points: 2
#     Edge 21, Type (0, 0), BuildingBlock: XIVTED_clean_linker_0, # of connection points: 2
#     Edge 22, Type (0, 0), BuildingBlock: XIVTED_clean_linker_0, # of connection points: 2
#     Edge 23, Type (0, 0), BuildingBlock: XIVTED_clean_linker_0, # of connection points: 2
#     Edge 24, Type (0, 0), BuildingBlock: XIVTED_clean_linker_0, # of connection points: 2
#     Edge 25, Type (0, 0), BuildingBlock: XIVTED_clean_linker_0, # of connection points: 2
#     Edge 26, Type (0, 0), BuildingBlock: XIVTED_clean_linker_0, # of connection points: 2
#     Edge 27, Type (0, 0), BuildingBlock: XIVTED_clean_linker_0, # of connection points: 2
#     Edge 28, Type (0, 0), BuildingBlock: XIVTED_clean_linker_0, # of connection points: 2
#     Edge 29, Type (0, 0), BuildingBlock: XIVTED_clean_linker_0, # of connection points: 2
#     Edge 30, Type (0, 0), BuildingBlock: XIVTED_clean_linker_0, # of connection points: 2
#     Edge 31, Type (0, 0), BuildingBlock: XIVTED_clean_linker_0, # of connection points: 2
#     Edge 32, Type (0, 0), BuildingBlock: XIVTED_clean_linker_0, # of connection points: 2
#     Edge 33, Type (0, 0), BuildingBlock: XIVTED_clean_linker_0, # of connection points: 2
#     Edge 34, Type (0, 0), BuildingBlock: XIVTED_clean_linker_0, # of connection points: 2
#     Edge 35, Type (0, 0), BuildingBlock: XIVTED_clean_linker_0, # of connection points: 2
#     Edge 36, Type (0, 0), BuildingBlock: XIVTED_clean_linker_0, # of connection points: 2
#     Edge 37, Type (0, 0), BuildingBlock: XIVTED_clean_linker_0, # of connection points: 2
#     Edge 38, Type (0, 0), BuildingBlock: XIVTED_clean_linker_0, # of connection points: 2
#     Edge 39, Type (0, 0), BuildingBlock: XIVTED_clean_linker_0, # of connection points: 2
#     Edge 40, Type (0, 0), BuildingBlock: XIVTED_clean_linker_0, # of connection points: 2
#     Edge 41, Type (0, 0), BuildingBlock: XIVTED_clean_linker_0, # of connection points: 2
#     Edge 42, Type (0, 0), BuildingBlock: XIVTED_clean_linker_0, # of connection points: 2
#     Edge 43, Type (0, 0), BuildingBlock: XIVTED_clean_linker_0, # of connection points: 2
#     Edge 44, Type (0, 0), BuildingBlock: XIVTED_clean_linker_0, # of connection points: 2
#     Edge 45, Type (0, 0), BuildingBlock: XIVTED_clean_linker_0, # of connection points: 2
#     Edge 46, Type (0, 0), BuildingBlock: XIVTED_clean_linker_0, # of connection points: 2
#     Edge 47, Type (0, 0), BuildingBlock: XIVTED_clean_linker_0, # of connection points: 2
#     Edge 48, Type (0, 0), BuildingBlock: XIVTED_clean_linker_0, # of connection points: 2
#     Edge 49, Type (0, 0), BuildingBlock: XIVTED_clean_linker_0, # of connection points: 2
#     Edge 50, Type (0, 0), BuildingBlock: XIVTED_clean_linker_0, # of connection points: 2
#     Edge 51, Type (0, 0), BuildingBlock: XIVTED_clean_linker_0, # of connection points: 2
#     Edge 52, Type (0, 0), BuildingBlock: XIVTED_clean_linker_0, # of connection points: 2
#     Edge 53, Type (0, 0), BuildingBlock: XIVTED_clean_linker_0, # of connection points: 2
#     Edge 54, Type (0, 0), BuildingBlock: XIVTED_clean_linker_0, # of connection points: 2
#     Edge 55, Type (0, 0), BuildingBlock: XIVTED_clean_linker_0, # of connection points: 2
#     Edge 56, Type (0, 0), BuildingBlock: XIVTED_clean_linker_0, # of connection points: 2
#     Edge 57, Type (0, 0), BuildingBlock: XIVTED_clean_linker_0, # of connection points: 2
#     Edge 58, Type (0, 0), BuildingBlock: XIVTED_clean_linker_0, # of connection points: 2
#     Edge 59, Type (0, 0), BuildingBlock: XIVTED_clean_linker_0, # of connection points: 2
#     Edge 60, Type (0, 0), BuildingBlock: XIVTED_clean_linker_0, # of connection points: 2
#     Edge 61, Type (0, 0), BuildingBlock: XIVTED_clean_linker_0, # of connection points: 2
#     Edge 62, Type (0, 0), BuildingBlock: XIVTED_clean_linker_0, # of connection points: 2
#     Edge 63, Type (0, 0), BuildingBlock: XIVTED_clean_linker_0, # of connection points: 2
# Relax obj value: 0.316
# Max RMSD: 0.231
# Mean RMSD: 0.231
data_MOF--net-whm--node1-IZENUY_clean_sbu_0--edge1-XIVTED_clean_linker_0
_symmetry_space_group_name_H-M    P1
_symmetry_Int_Tables_number       1
_symmetry_cell_setting            triclinic
loop_
_symmetry_equiv_pos_as_xyz
'x, y, z'
_cell_length_a     51.20971
_cell_length_b     51.256411
_cell_length_c     28.283994
_cell_angle_alpha  90.002872
_cell_angle_beta   89.968731
_cell_angle_gamma 90.049626
loop_
_atom_site_label
_atom_site_type_symbol
_atom_site_fract_x
_atom_site_fract_y
_atom_site_fract_z
_atom_type_partial_charge
Fe0 Fe 0.53295 0.16676 0.2142 0.0
Fe1 Fe 0.56261 0.11604 0.19188 0.0
O2 O 0.55927 0.15035 0.18612 0.0
Fe3 Fe 0.58199 0.16855 0.15256 0.0
O4 O 0.59065 0.18864 0.20293 0.0
O5 O 0.55032 0.19791 0.22199 0.0
O6 O 0.545 0.15692 0.27184 0.0
C7 C 0.54891 0.13343 0.28367 0.0
C8 C 0.533 0.19027 0.12794 0.0
O9 O 0.55048 0.11546 0.25296 0.0
C10 C 0.5764 0.12555 0.0961 0.0
O11 O 0.5104 0.13891 0.21257 0.0
O12 O 0.53029 0.11033 0.16789 0.0
O13 O 0.55761 0.19206 0.13143 0.0
O14 O 0.51974 0.17739 0.1576 0.0
C15 C 0.61396 0.13082 0.19827 0.0
O16 O 0.57572 0.11085 0.13205 0.0
O17 O 0.57498 0.14996 0.10008 0.0
C18 C 0.50986 0.11827 0.1881 0.0
O19 O 0.5951 0.11868 0.2165 0.0
O20 O 0.61032 0.14816 0.16713 0.0
C21 C 0.57446 0.20312 0.2237 0.0
Fe22 Fe 0.33289 0.53568 0.71321 0.0
Fe23 Fe 0.3848 0.56326 0.69165 0.0
O24 O 0.3505 0.56071 0.68349 0.0
Fe25 Fe 0.33338 0.58293 0.64691 0.0
O26 O 0.31168 0.59267 0.69471 0.0
O27 O 0.30173 0.55301 0.71586 0.0
O28 O 0.34127 0.55006 0.77003 0.0
C29 C 0.36456 0.55399 0.78325 0.0
C30 C 0.31215 0.53313 0.62462 0.0
O31 O 0.38343 0.5534 0.75414 0.0
C32 C 0.37797 0.57615 0.59423 0.0
O33 O 0.36036 0.51293 0.71752 0.0
O34 O 0.39021 0.52988 0.67178 0.0
O35 O 0.31076 0.55788 0.62495 0.0
O36 O 0.32363 0.52066 0.65725 0.0
C37 C 0.3706 0.61529 0.69323 0.0
O38 O 0.39183 0.57413 0.63109 0.0
O39 O 0.35342 0.57565 0.59616 0.0
C40 C 0.3814 0.51068 0.69458 0.0
O41 O 0.3826 0.59663 0.71245 0.0
O42 O 0.35334 0.61137 0.66206 0.0
C43 C 0.2967 0.57707 0.7157 0.0
Fe44 Fe 0.93794 0.38338 0.18696 0.0
Fe45 Fe 0.91778 0.33203 0.14406 0.0
O46 O 0.94008 0.34904 0.18064 0.0
Fe47 Fe 0.9645 0.33145 0.21173 0.0
O48 O 0.95075 0.3417 0.26797 0.0
O49 O 0.94836 0.38338 0.24914 0.0
O50 O 0.90477 0.38151 0.20868 0.0
C51 C 0.88605 0.37005 0.18858 0.0
C52 C 0.99049 0.3791 0.18856 0.0
O53 O 0.88998 0.35348 0.15625 0.0
C54 C 0.96658 0.30839 0.12497 0.0
O55 O 0.9267 0.38938 0.12615 0.0
O56 O 0.92706 0.35065 0.09267 0.0
O57 O 0.98831 0.35839 0.21266 0.0
O58 O 0.97111 0.38786 0.16615 0.0
C59 C 0.92089 0.29772 0.21726 0.0
O60 O 0.94184 0.30766 0.12521 0.0
O61 O 0.97923 0.32026 0.15676 0.0
C62 C 0.92592 0.37511 0.08959 0.0
O63 O 0.90644 0.31219 0.19278 0.0
O64 O 0.94536 0.30124 0.21768 0.0
C65 C 0.94761 0.36528 0.27963 0.0
Fe66 Fe 0.11825 0.93572 0.69009 0.0
Fe67 Fe 0.17007 0.91704 0.6463 0.0
O68 O 0.15261 0.93835 0.68419 0.0
Fe69 Fe 0.16964 0.96228 0.71765 0.0
O70 O 0.15961 0.94661 0.77297 0.0
O71 O 0.11818 0.94472 0.75259 0.0
O72 O 0.12064 0.90226 0.70991 0.0
C73 C 0.13261 0.88402 0.68949 0.0
C74 C 0.12202 0.98818 0.69593 0.0
O75 O 0.14932 0.88845 0.65752 0.0
C76 C 0.1926 0.96703 0.63077 0.0
O77 O 0.11227 0.9255 0.62885 0.0
O78 O 0.15097 0.92623 0.59526 0.0
O79 O 0.14228 0.98516 0.72086 0.0
O80 O 0.11334 0.96943 0.67158 0.0
C81 C 0.20561 0.92043 0.71767 0.0
O82 O 0.19345 0.94231 0.62834 0.0
O83 O 0.1806 0.97866 0.66385 0.0
C84 C 0.12648 0.92491 0.59228 0.0
O85 O 0.19093 0.90562 0.69409 0.0
O86 O 0.20041 0.94439 0.72123 0.0
C87 C 0.13597 0.9419 0.7832 0.0
Fe88 Fe 0.58661 0.33499 0.85262 0.0
Fe89 Fe 0.54077 0.33232 0.7832 0.0
O90 O 0.56462 0.35083 0.81385 0.0
Fe91 Fe 0.56666 0.38497 0.80462 0.0
O92 O 0.59996 0.38235 0.78351 0.0
O93 O 0.61439 0.35653 0.83987 0.0
O94 O 0.59871 0.31385 0.80605 0.0
C95 C 0.5845 0.29886 0.78196 0.0
C96 C 0.57797 0.37933 0.903 0.0
O97 O 0.56005 0.30223 0.7806 0.0
C98 C 0.51418 0.38022 0.80173 0.0
O99 O 0.56248 0.31094 0.87254 0.0
O100 O 0.52537 0.32225 0.83833 0.0
O101 O 0.57758 0.39264 0.86522 0.0
O102 O 0.57647 0.35484 0.90186 0.0
C103 C 0.55827 0.36455 0.71334 0.0
O104 O 0.51698 0.35908 0.77908 0.0
O105 O 0.53317 0.38986 0.82421 0.0
C106 C 0.53772 0.31128 0.87156 0.0
O107 O 0.55526 0.34125 0.72684 0.0
O108 O 0.5567 0.38335 0.74226 0.0
C109 C 0.61852 0.37169 0.80539 0.0
Fe110 Fe 0.16629 0.53353 0.2838 0.0
Fe111 Fe 0.11558 0.56217 0.30887 0.0
O112 O 0.14987 0.55895 0.31452 0.0
Fe113 Fe 0.1678 0.58113 0.34962 0.0
O114 O 0.18825 0.59074 0.30023 0.0
O115 O 0.19732 0.55105 0.27714 0.0
O116 O 0.15615 0.5474 0.22712 0.0
C117 C 0.13258 0.55235 0.2171 0.0
C118 C 0.18989 0.53159 0.37029 0.0
O119 O 0.11498 0.55039 0.24817 0.0
C120 C 0.12443 0.57563 0.40474 0.0
O121 O 0.13842 0.51089 0.28458 0.0
O122 O 0.11022 0.52956 0.33201 0.0
O123 O 0.19111 0.55632 0.3697 0.0
O124 O 0.17742 0.51899 0.33907 0.0
C125 C 0.1305 0.6135 0.30369 0.0
O126 O 0.11019 0.57508 0.36833 0.0
O127 O 0.14885 0.57346 0.40174 0.0
C128 C 0.11825 0.50953 0.31044 0.0
O129 O 0.11842 0.59476 0.28489 0.0
O130 O 0.14739 0.60963 0.33566 0.0
C131 C 0.20255 0.57513 0.27773 0.0
Fe132 Fe 0.93925 0.11686 0.80077 0.0
Fe133 Fe 0.91885 0.16803 0.84404 0.0
O134 O 0.94087 0.15134 0.80655 0.0
Fe135 Fe 0.96492 0.16925 0.77484 0.0
O136 O 0.95113 0.15869 0.71896 0.0
O137 O 0.94905 0.11704 0.73843 0.0
O138 O 0.9058 0.11789 0.78028 0.0
C139 C 0.88709 0.12915 0.80079 0.0
C140 C 0.99174 0.12215 0.79726 0.0
O141 O 0.89103 0.14631 0.83222 0.0
C142 C 0.96754 0.19219 0.86183 0.0
O143 O 0.92857 0.11061 0.86175 0.0
O144 O 0.92905 0.14937 0.8947 0.0
O145 O 0.98887 0.14269 0.7731 0.0
O146 O 0.97282 0.11303 0.82059 0.0
C147 C 0.92123 0.20326 0.77238 0.0
O148 O 0.94282 0.19253 0.86258 0.0
O149 O 0.97999 0.18061 0.82944 0.0
C150 C 0.92856 0.12493 0.89814 0.0
O151 O 0.90694 0.18831 0.79638 0.0
O152 O 0.94555 0.19929 0.76949 0.0
C153 C 0.94862 0.13495 0.70755 0.0
Fe154 Fe 0.38396 0.93335 0.30548 0.0
Fe155 Fe 0.33294 0.91619 0.35364 0.0
O156 O 0.35002 0.9375 0.3154 0.0
Fe157 Fe 0.33305 0.96298 0.28609 0.0
O158 O 0.34074 0.94846 0.22876 0.0
O159 O 0.38272 0.94427 0.24376 0.0
O160 O 0.37935 0.90065 0.28343 0.0
C161 C 0.36773 0.88247 0.3048 0.0
C162 C 0.38257 0.98604 0.30557 0.0
O163 O 0.35222 0.88714 0.33864 0.0
C164 C 0.31274 0.96634 0.37522 0.0
O165 O 0.3913 0.92114 0.36514 0.0
O166 O 0.35393 0.92423 0.40293 0.0
O167 O 0.36136 0.98501 0.28263 0.0
O168 O 0.39105 0.96601 0.32645 0.0
C169 C 0.29582 0.92213 0.28564 0.0
O170 O 0.31092 0.94167 0.37553 0.0
O171 O 0.32429 0.97834 0.34209 0.0
C172 C 0.37838 0.92178 0.40326 0.0
O173 O 0.31043 0.90641 0.30727 0.0
O174 O 0.30154 0.94608 0.28376 0.0
C175 C 0.36381 0.94392 0.21499 0.0
Fe176 Fe 0.43975 0.88394 0.8097 0.0
Fe177 Fe 0.46884 0.83364 0.78364 0.0
O178 O 0.443 0.84961 0.81431 0.0
Fe179 Fe 0.42055 0.831 0.8481 0.0
O180 O 0.39194 0.85089 0.83374 0.0
O181 O 0.40694 0.88148 0.7863 0.0
O182 O 0.45095 0.88499 0.74833 0.0
C183 C 0.45014 0.86747 0.7168 0.0
C184 C 0.42542 0.87394 0.90551 0.0
O185 O 0.45525 0.84392 0.72686 0.0
C186 C 0.47037 0.80953 0.8696 0.0
O187 O 0.47255 0.88937 0.83229 0.0
O188 O 0.49134 0.86161 0.78453 0.0
O189 O 0.42674 0.84949 0.90147 0.0
O190 O 0.42745 0.88874 0.86992 0.0
C191 C 0.4279 0.79671 0.77592 0.0
O192 O 0.48311 0.82252 0.83919 0.0
O193 O 0.44563 0.80801 0.86839 0.0
C194 C 0.49261 0.88168 0.81044 0.0
O195 O 0.4519 0.80233 0.77623 0.0
O196 O 0.41187 0.81085 0.79771 0.0
C197 C 0.38821 0.86854 0.80324 0.0
Fe198 Fe 0.61763 0.43605 0.30405 0.0
Fe199 Fe 0.66836 0.46612 0.28386 0.0
O200 O 0.65179 0.43987 0.312 0.0
Fe201 Fe 0.6697 0.41759 0.34708 0.0
O202 O 0.6502 0.38888 0.33127 0.0
O203 O 0.62122 0.40343 0.28032 0.0
O204 O 0.61801 0.44775 0.24262 0.0
C205 C 0.63656 0.44878 0.21298 0.0
C206 C 0.6254 0.42209 0.40056 0.0
O207 O 0.6598 0.45309 0.22601 0.0
C208 C 0.69002 0.46731 0.37183 0.0
O209 O 0.61108 0.46842 0.32693 0.0
O210 O 0.64018 0.48818 0.28309 0.0
O211 O 0.64989 0.42386 0.3985 0.0
O212 O 0.61143 0.42337 0.36374 0.0
C213 C 0.70539 0.42549 0.27745 0.0
O214 O 0.67783 0.48007 0.34053 0.0
O215 O 0.69208 0.44266 0.36969 0.0
C216 C 0.61924 0.48876 0.30676 0.0
O217 O 0.69985 0.44947 0.27861 0.0
O218 O 0.69105 0.40919 0.29821 0.0
C219 C 0.63338 0.38483 0.29936 0.0
Fe220 Fe 0.08279 0.66873 0.8536 0.0
Fe221 Fe 0.06475 0.61731 0.80884 0.0
O222 O 0.0614 0.65151 0.81567 0.0
Fe223 Fe 0.03669 0.66829 0.78359 0.0
O224 O 0.05483 0.69904 0.77793 0.0
O225 O 0.09358 0.69009 0.8067 0.0
O226 O 0.11157 0.64851 0.84012 0.0
C227 C 0.116 0.63255 0.80679 0.0
C228 C 0.03298 0.69117 0.87091 0.0
O229 O 0.09761 0.62069 0.78642 0.0
C230 C 0.01208 0.62011 0.80831 0.0
O231 O 0.07384 0.64891 0.90401 0.0
O232 O 0.07694 0.61108 0.86845 0.0
O233 O 0.0211 0.67943 0.83792 0.0
O234 O 0.05769 0.69176 0.87312 0.0
C235 C 0.05619 0.63484 0.71715 0.0
O236 O 0.03184 0.61177 0.83036 0.0
O237 O 0.01377 0.64053 0.7831 0.0
C238 C 0.07641 0.62454 0.90574 0.0
O239 O 0.05373 0.61713 0.74774 0.0
O240 O 0.05136 0.65833 0.72749 0.0
C241 C 0.07889 0.70414 0.78186 0.0
Fe242 Fe 0.83201 0.083 0.35801 0.0
Fe243 Fe 0.88303 0.07364 0.3063 0.0
O244 O 0.8499 0.06537 0.31516 0.0
Fe245 Fe 0.83498 0.04018 0.28117 0.0
O246 O 0.80935 0.06173 0.26004 0.0
O247 O 0.80065 0.08086 0.3277 0.0
O248 O 0.83733 0.1139 0.32721 0.0
C249 C 0.85996 0.12288 0.32026 0.0
C250 C 0.81498 0.03323 0.37503 0.0
O251 O 0.87957 0.10802 0.32236 0.0
C252 C 0.88356 0.01881 0.29057 0.0
O253 O 0.86005 0.08842 0.3968 0.0
O254 O 0.89156 0.06471 0.36647 0.0
O255 O 0.81427 0.02852 0.33081 0.0
O256 O 0.82578 0.05353 0.39099 0.0
C257 C 0.86578 0.069 0.21546 0.0
O258 O 0.89318 0.04136 0.2872 0.0
O259 O 0.85943 0.01587 0.29823 0.0
C260 C 0.88173 0.0768 0.40099 0.0
O261 O 0.87612 0.08317 0.24668 0.0
O262 O 0.85311 0.04845 0.22629 0.0
C263 C 0.79486 0.07584 0.28535 0.0
Fe264 Fe 0.43587 0.61487 0.19118 0.0
Fe265 Fe 0.46547 0.66558 0.21262 0.0
O266 O 0.43943 0.64904 0.18396 0.0
Fe267 Fe 0.41705 0.66702 0.14925 0.0
O268 O 0.38845 0.64714 0.16436 0.0
O269 O 0.40327 0.61813 0.21496 0.0
O270 O 0.44746 0.61493 0.25274 0.0
C271 C 0.44786 0.63335 0.28268 0.0
C272 C 0.42186 0.62325 0.09472 0.0
O273 O 0.45225 0.65664 0.2701 0.0
C274 C 0.46669 0.68794 0.12537 0.0
O275 O 0.46834 0.60874 0.16822 0.0
O276 O 0.48774 0.63755 0.21309 0.0
O277 O 0.42365 0.64771 0.09735 0.0
O278 O 0.42323 0.60903 0.13127 0.0
C279 C 0.42444 0.70207 0.21992 0.0
O280 O 0.47948 0.67539 0.15615 0.0
O281 O 0.44201 0.6899 0.12757 0.0
C282 C 0.48857 0.61685 0.18883 0.0
O283 O 0.44853 0.6969 0.21837 0.0
O284 O 0.40832 0.68776 0.1987 0.0
C285 C 0.38457 0.63027 0.19624 0.0
Fe286 Fe 0.88611 0.43587 0.68768 0.0
Fe287 Fe 0.83508 0.4645 0.71116 0.0
O288 O 0.85204 0.43991 0.67943 0.0
Fe289 Fe 0.83491 0.41912 0.64021 0.0
O290 O 0.85526 0.39024 0.65151 0.0
O291 O 0.88168 0.40268 0.7085 0.0
O292 O 0.88587 0.44589 0.74991 0.0
C293 C 0.86746 0.44553 0.77968 0.0
C294 C 0.87928 0.42609 0.58928 0.0
O295 O 0.84417 0.44964 0.76721 0.0
C296 C 0.81264 0.46892 0.62388 0.0
O297 O 0.89272 0.46892 0.66825 0.0
O298 O 0.86299 0.48717 0.71338 0.0
O299 O 0.85491 0.42896 0.59095 0.0
O300 O 0.89268 0.4248 0.62683 0.0
C301 C 0.79927 0.4223 0.71145 0.0
O302 O 0.82467 0.48053 0.65678 0.0
O303 O 0.8117 0.44427 0.6218 0.0
C304 C 0.8841 0.48862 0.69004 0.0
O305 O 0.80422 0.44639 0.71533 0.0
O306 O 0.81343 0.40767 0.68656 0.0
C307 C 0.87024 0.3849 0.68574 0.0
Fe308 Fe 0.0338 0.83195 0.21677 0.0
Fe309 Fe 0.08144 0.8314 0.1511 0.0
O310 O 0.05941 0.8488 0.18738 0.0
Fe311 Fe 0.06292 0.88293 0.19529 0.0
O312 O 0.05112 0.88261 0.25661 0.0
O313 O 0.0476 0.84087 0.27396 0.0
O314 O 0.0511 0.8007 0.22156 0.0
C315 C 0.07519 0.79538 0.22083 0.0
C316 C 0.01006 0.88043 0.19276 0.0
O317 O 0.09091 0.80996 0.19916 0.0
C318 C 0.07627 0.87575 0.09845 0.0
O319 O 0.01922 0.82205 0.1608 0.0
O320 O 0.05647 0.80867 0.12947 0.0
O321 O 0.03032 0.8889 0.17238 0.0
O322 O 0.01125 0.85994 0.21773 0.0
C323 C 0.11411 0.8674 0.19953 0.0
O324 O 0.07387 0.85134 0.10023 0.0
O325 O 0.07593 0.88938 0.13575 0.0
C326 C 0.03175 0.81018 0.12876 0.0
O327 O 0.11006 0.85131 0.16632 0.0
O328 O 0.09551 0.87937 0.21906 0.0
C329 C 0.05159 0.86423 0.28648 0.0
Fe330 Fe 0.61835 0.07401 0.68529 0.0
Fe331 Fe 0.66597 0.03987 0.71032 0.0
O332 O 0.65151 0.06562 0.67706 0.0
Fe333 Fe 0.66994 0.08376 0.63558 0.0
O334 O 0.66473 0.11415 0.66798 0.0
O335 O 0.62239 0.10864 0.67121 0.0
O336 O 0.62472 0.08255 0.74559 0.0
C337 C 0.63509 0.06816 0.77643 0.0
C338 C 0.62058 0.07861 0.5907 0.0
O339 O 0.64768 0.04766 0.76518 0.0
C340 C 0.6864 0.03403 0.61647 0.0
O341 O 0.60766 0.0415 0.70239 0.0
O342 O 0.64142 0.01598 0.69196 0.0
O343 O 0.64227 0.0901 0.59623 0.0
O344 O 0.61033 0.06609 0.62436 0.0
C345 C 0.70655 0.07517 0.7086 0.0
O346 O 0.68677 0.02865 0.66047 0.0
O347 O 0.6761 0.05476 0.60127 0.0
C348 C 0.61721 0.01894 0.69858 0.0
O349 O 0.69172 0.06087 0.73289 0.0
O350 O 0.70109 0.08087 0.66641 0.0
C351 C 0.64217 0.12321 0.6751 0.0
H352 H 0.54417 0.24594 0.24085 0.0
H353 H 0.66088 0.33998 0.31664 0.0
H354 H 0.62426 0.21968 0.24396 0.0
H355 H 0.58853 0.36777 0.2568 0.0
H356 H 0.64676 0.29503 0.30136 0.0
H357 H 0.55894 0.28998 0.25989 0.0
C358 C 0.56485 0.24933 0.24617 0.0
C359 C 0.58303 0.22907 0.24065 0.0
C360 C 0.63407 0.31102 0.29148 0.0
C361 C 0.60001 0.27955 0.26227 0.0
C362 C 0.64207 0.33664 0.30019 0.0
C363 C 0.62586 0.35767 0.28793 0.0
C364 C 0.6095 0.30641 0.27117 0.0
C365 C 0.60172 0.3522 0.26662 0.0
C366 C 0.57326 0.27455 0.25663 0.0
C367 C 0.60959 0.23474 0.24768 0.0
N368 N 0.59419 0.32711 0.25927 0.0
N369 N 0.61731 0.25949 0.25817 0.0
H370 H 0.25439 0.54688 0.73574 0.0
H371 H 0.16089 0.66017 0.8253 0.0
H372 H 0.27993 0.6272 0.73415 0.0
H373 H 0.13304 0.58932 0.75983 0.0
H374 H 0.20583 0.64756 0.80478 0.0
H375 H 0.21095 0.56117 0.75895 0.0
C376 C 0.25095 0.56755 0.74065 0.0
C377 C 0.27086 0.5859 0.73278 0.0
C378 C 0.18979 0.63491 0.79493 0.0
C379 C 0.22096 0.60234 0.75952 0.0
C380 C 0.16422 0.64199 0.80674 0.0
C381 C 0.1432 0.62573 0.79436 0.0
C382 C 0.19429 0.61119 0.77151 0.0
C383 C 0.14859 0.60248 0.77006 0.0
C384 C 0.22606 0.57568 0.75363 0.0
C385 C 0.2651 0.61244 0.7396 0.0
N386 N 0.17359 0.59583 0.7598 0.0
N387 N 0.24062 0.61991 0.75276 0.0
H388 H 0.82809 0.16043 0.28075 0.0
H389 H 0.94493 0.26425 0.27837 0.0
H390 H 0.9032 0.14934 0.34681 0.0
H391 H 0.87106 0.27815 0.20932 0.0
H392 H 0.92733 0.22412 0.31154 0.0
H393 H 0.84063 0.20572 0.26223 0.0
C394 C 0.84697 0.16766 0.29201 0.0
C395 C 0.86478 0.15109 0.31466 0.0
C396 C 0.91484 0.23597 0.28935 0.0
C397 C 0.87925 0.20242 0.29366 0.0
C398 C 0.92495 0.25892 0.27032 0.0
C399 C 0.9096 0.27443 0.24049 0.0
C400 C 0.88922 0.22824 0.27825 0.0
C401 C 0.88368 0.26666 0.23185 0.0
C402 C 0.85418 0.1934 0.28129 0.0
C403 C 0.88902 0.16132 0.3285 0.0
N404 N 0.87438 0.24394 0.25023 0.0
N405 N 0.89557 0.18618 0.31749 0.0
H406 H 0.37119 0.91331 0.76088 0.0
H407 H 0.22309 0.86987 0.7289 0.0
H408 H 0.34369 0.83931 0.81435 0.0
H409 H 0.2476 0.95023 0.74123 0.0
H410 H 0.26768 0.85614 0.74986 0.0
H411 H 0.3263 0.92499 0.74116 0.0
C412 C 0.35573 0.89946 0.76831 0.0
C413 C 0.36118 0.87537 0.78962 0.0
C414 C 0.26309 0.87674 0.74819 0.0
C415 C 0.30976 0.88859 0.76682 0.0
C416 C 0.23774 0.88457 0.73624 0.0
C417 C 0.23158 0.91122 0.73339 0.0
C418 C 0.28239 0.89572 0.75628 0.0
C419 C 0.25133 0.92947 0.74322 0.0
C420 C 0.3301 0.9062 0.75725 0.0
C421 C 0.3403 0.85819 0.79835 0.0
N422 N 0.27584 0.92139 0.75375 0.0
N423 N 0.31546 0.86509 0.78673 0.0
H424 H 0.56132 0.26696 0.71762 0.0
H425 H 0.67464 0.15935 0.71756 0.0
H426 H 0.63335 0.27726 0.79465 0.0
H427 H 0.59936 0.15094 0.65078 0.0
H428 H 0.66317 0.20465 0.73834 0.0
H429 H 0.57819 0.22655 0.68493 0.0
C430 C 0.58077 0.26074 0.72761 0.0
C431 C 0.59578 0.27536 0.75947 0.0
C432 C 0.64935 0.19289 0.7187 0.0
C433 C 0.61533 0.22874 0.72216 0.0
C434 C 0.65594 0.16715 0.70668 0.0
C435 C 0.63779 0.15134 0.68297 0.0
C436 C 0.62459 0.2027 0.70644 0.0
C437 C 0.6138 0.1623 0.66976 0.0
C438 C 0.59045 0.23761 0.70883 0.0
C439 C 0.62103 0.26648 0.77046 0.0
N440 N 0.60789 0.18715 0.68186 0.0
N441 N 0.62995 0.24355 0.7522 0.0
H442 H 0.36812 0.58565 0.23983 0.0
H443 H 0.21873 0.62531 0.25987 0.0
H444 H 0.33947 0.6577 0.18023 0.0
H445 H 0.24514 0.54533 0.25717 0.0
H446 H 0.26305 0.63948 0.23872 0.0
H447 H 0.32323 0.57257 0.25658 0.0
C448 C 0.3524 0.5988 0.2305 0.0
C449 C 0.35754 0.62278 0.20846 0.0
C450 C 0.25897 0.61885 0.2424 0.0
C451 C 0.30612 0.60791 0.22765 0.0
C452 C 0.23376 0.61075 0.25444 0.0
C453 C 0.22824 0.58411 0.26032 0.0
C454 C 0.27881 0.60018 0.23716 0.0
C455 C 0.24844 0.56606 0.25284 0.0
C456 C 0.32678 0.59123 0.23978 0.0
C457 C 0.33634 0.63898 0.19702 0.0
N458 N 0.27287 0.57445 0.24218 0.0
N459 N 0.3115 0.63131 0.20698 0.0
H460 H 0.87625 0.34476 0.62332 0.0
H461 H 0.88344 0.23267 0.81428 0.0
H462 H 0.87784 0.36278 0.77226 0.0
H463 H 0.93541 0.23129 0.6942 0.0
H464 H 0.86972 0.27684 0.79195 0.0
H465 H 0.88719 0.29916 0.64203 0.0
C466 C 0.87871 0.33903 0.65992 0.0
C467 C 0.87626 0.35743 0.69639 0.0
C468 C 0.88391 0.26668 0.77033 0.0
C469 C 0.88803 0.30562 0.71777 0.0
C470 C 0.89158 0.24148 0.78272 0.0
C471 C 0.91057 0.2284 0.75595 0.0
C472 C 0.89479 0.27852 0.73023 0.0
C473 C 0.92076 0.24082 0.71575 0.0
C474 C 0.88502 0.31317 0.67045 0.0
C475 C 0.87976 0.34915 0.7432 0.0
N476 N 0.91261 0.26521 0.70385 0.0
N477 N 0.88522 0.32373 0.75265 0.0
H478 H 0.15865 0.83904 0.18364 0.0
H479 H 0.25372 0.95279 0.26642 0.0
H480 H 0.13136 0.91125 0.24469 0.0
H481 H 0.27818 0.87219 0.26913 0.0
H482 H 0.20977 0.93879 0.24535 0.0
H483 H 0.20362 0.85166 0.2033 0.0
C484 C 0.16211 0.85752 0.20116 0.0
C485 C 0.14124 0.87416 0.21249 0.0
C486 C 0.22476 0.92416 0.25046 0.0
C487 C 0.19245 0.88873 0.23434 0.0
C488 C 0.24993 0.93212 0.26216 0.0
C489 C 0.26968 0.9136 0.26967 0.0
C490 C 0.21927 0.89751 0.24549 0.0
C491 C 0.2635 0.88709 0.26387 0.0
C492 C 0.18771 0.86462 0.21245 0.0
C493 C 0.14681 0.89779 0.23541 0.0
N494 N 0.23879 0.87979 0.25193 0.0
N495 N 0.17189 0.90446 0.2452 0.0
H496 H 0.3426 0.66009 0.67824 0.0
H497 H 0.45859 0.75466 0.75538 0.0
H498 H 0.41592 0.63235 0.73418 0.0
H499 H 0.37805 0.77951 0.75749 0.0
H500 H 0.44434 0.71074 0.73424 0.0
H501 H 0.35627 0.70496 0.69543 0.0
C502 C 0.36156 0.66342 0.69412 0.0
C503 C 0.37815 0.64242 0.70483 0.0
C504 C 0.4298 0.72584 0.73913 0.0
C505 C 0.39396 0.69363 0.72386 0.0
C506 C 0.43791 0.75099 0.75083 0.0
C507 C 0.41947 0.77082 0.75835 0.0
C508 C 0.40308 0.72046 0.73424 0.0
C509 C 0.39292 0.76479 0.75222 0.0
C510 C 0.36929 0.689 0.70398 0.0
C511 C 0.40245 0.6479 0.72554 0.0
N512 N 0.3855 0.74012 0.74044 0.0
N513 N 0.40969 0.67297 0.73406 0.0
H514 H 0.74723 0.45656 0.25767 0.0
H515 H 0.84123 0.34248 0.17185 0.0
H516 H 0.72254 0.37596 0.25711 0.0
H517 H 0.86933 0.41467 0.23199 0.0
H518 H 0.79642 0.35572 0.19072 0.0
H519 H 0.79096 0.44282 0.23454 0.0
C520 C 0.75091 0.43597 0.25221 0.0
C521 C 0.73121 0.41734 0.25953 0.0
C522 C 0.81245 0.36858 0.19976 0.0
C523 C 0.78129 0.40157 0.23307 0.0
C524 C 0.83797 0.36112 0.18891 0.0
C525 C 0.859 0.37753 0.20037 0.0
C526 C 0.80798 0.39279 0.22141 0.0
C527 C 0.8537 0.40138 0.2227 0.0
C528 C 0.77594 0.42816 0.23934 0.0
C529 C 0.73721 0.39093 0.25209 0.0
N530 N 0.82869 0.40837 0.2322 0.0
N531 N 0.76177 0.3838 0.23917 0.0
H532 H 0.12185 0.86482 0.7768 0.0
H533 H 0.06478 0.73002 0.70125 0.0
H534 H 0.12832 0.84201 0.63045 0.0
H535 H 0.11525 0.73545 0.82296 0.0
H536 H 0.07964 0.77362 0.67617 0.0
H537 H 0.11059 0.81966 0.79732 0.0
C538 C 0.12082 0.85028 0.74906 0.0
C539 C 0.12606 0.85695 0.70196 0.0
C540 C 0.08755 0.76502 0.70808 0.0
C541 C 0.11274 0.80581 0.72495 0.0
C542 C 0.07908 0.74033 0.72242 0.0
C543 C 0.08893 0.72921 0.76405 0.0
C544 C 0.10521 0.77884 0.73653 0.0
C545 C 0.10738 0.74329 0.79041 0.0
C546 C 0.11455 0.82462 0.76078 0.0
C547 C 0.12457 0.83746 0.66722 0.0
N548 N 0.11462 0.7676 0.77662 0.0
N549 N 0.11767 0.81271 0.67931 0.0
H550 H 0.63122 0.0822 0.22212 0.0
H551 H 0.7725 0.12313 0.29998 0.0
H552 H 0.65789 0.16114 0.20016 0.0
H553 H 0.7595 0.04922 0.23107 0.0
H554 H 0.72865 0.13714 0.27591 0.0
H555 H 0.67634 0.06898 0.23881 0.0
C556 C 0.64656 0.09676 0.22114 0.0
C557 C 0.64089 0.12281 0.20987 0.0
C558 C 0.73553 0.11796 0.26575 0.0
C559 C 0.69222 0.10787 0.22931 0.0
C560 C 0.76042 0.10995 0.27949 0.0
C561 C 0.76952 0.08505 0.26726 0.0
C562 C 0.71938 0.10062 0.24096 0.0
C563 C 0.7532 0.06865 0.24077 0.0
C564 C 0.67224 0.08916 0.23023 0.0
C565 C 0.6615 0.14086 0.20861 0.0
N566 N 0.72867 0.07657 0.22909 0.0
N567 N 0.68627 0.13312 0.21879 0.0
H568 H 0.34026 0.83782 0.32481 0.0
H569 H 0.45496 0.74404 0.24113 0.0
H570 H 0.41151 0.86525 0.25986 0.0
H571 H 0.37458 0.71842 0.24024 0.0
H572 H 0.44054 0.78754 0.26398 0.0
H573 H 0.35365 0.79274 0.30776 0.0
C574 C 0.35867 0.83436 0.30701 0.0
C575 C 0.37479 0.85527 0.29365 0.0
C576 C 0.42608 0.77235 0.25899 0.0
C577 C 0.39027 0.8041 0.27499 0.0
C578 C 0.43428 0.74746 0.24627 0.0
C579 C 0.41591 0.72761 0.23843 0.0
C580 C 0.39936 0.77741 0.26456 0.0
C581 C 0.38936 0.73325 0.24557 0.0
C582 C 0.36623 0.80872 0.29727 0.0
C583 C 0.3984 0.84975 0.27056 0.0
N584 N 0.38183 0.75771 0.25827 0.0
N585 N 0.40551 0.8247 0.26229 0.0
H586 H 0.63772 0.38065 0.71714 0.0
H587 H 0.77399 0.43596 0.79265 0.0
H588 H 0.66054 0.37734 0.86384 0.0
H589 H 0.76718 0.38681 0.66944 0.0
H590 H 0.73008 0.42207 0.81749 0.0
H591 H 0.68309 0.39092 0.69578 0.0
C592 C 0.65229 0.38222 0.74478 0.0
C593 C 0.64556 0.37817 0.79225 0.0
C594 C 0.73841 0.41421 0.7853 0.0
C595 C 0.69694 0.39022 0.76826 0.0
C596 C 0.7633 0.42211 0.77113 0.0
C597 C 0.77413 0.41237 0.72915 0.0
C598 C 0.72407 0.39719 0.7564 0.0
C599 C 0.75956 0.39454 0.7023 0.0
C600 C 0.67807 0.38787 0.73258 0.0
C601 C 0.66509 0.38022 0.82681 0.0
N602 N 0.73504 0.38782 0.71599 0.0
N603 N 0.68994 0.38646 0.8142 0.0
H604 H 0.12526 0.77935 0.24017 0.0
H605 H 0.08633 0.6296 0.25808 0.0
H606 H 0.04538 0.75234 0.23871 0.0
H607 H 0.15725 0.65893 0.3213 0.0
H608 H 0.07318 0.67433 0.24056 0.0
H609 H 0.13942 0.73511 0.26155 0.0
C610 C 0.11072 0.76419 0.24465 0.0
C611 C 0.0841 0.76955 0.23766 0.0
C612 C 0.0916 0.67097 0.25835 0.0
C613 C 0.10018 0.71903 0.26112 0.0
C614 C 0.09921 0.64543 0.26813 0.0
C615 C 0.12289 0.64051 0.29141 0.0
C616 C 0.10795 0.69178 0.27118 0.0
C617 C 0.13875 0.66187 0.30358 0.0
C618 C 0.1188 0.73902 0.25686 0.0
C619 C 0.06608 0.74917 0.24395 0.0
N620 N 0.13106 0.68661 0.2931 0.0
N621 N 0.07447 0.72479 0.25482 0.0
H622 H 0.86998 0.08069 0.77489 0.0
H623 H 0.72914 0.12271 0.69787 0.0
H624 H 0.84282 0.15884 0.80285 0.0
H625 H 0.74151 0.04735 0.76169 0.0
H626 H 0.77276 0.13622 0.72429 0.0
H627 H 0.82488 0.06748 0.75745 0.0
C628 C 0.85453 0.09506 0.77722 0.0
C629 C 0.86006 0.1209 0.79026 0.0
C630 C 0.7658 0.11682 0.73282 0.0
C631 C 0.80879 0.10602 0.76978 0.0
C632 C 0.74104 0.1091 0.71771 0.0
C633 C 0.73182 0.08394 0.72784 0.0
C634 C 0.78172 0.09897 0.75684 0.0
C635 C 0.74791 0.06698 0.75359 0.0
C636 C 0.82887 0.08747 0.76763 0.0
C637 C 0.83932 0.13871 0.79308 0.0
N638 N 0.77233 0.07466 0.76661 0.0
N639 N 0.8146 0.13103 0.78228 0.0
H640 H 0.57156 0.14982 0.0113 0.0
H641 H 0.63338 0.03573 0.85467 0.0
H642 H 0.59572 0.07686 0.07389 0.0
H643 H 0.62417 0.1159 0.81093 0.0
H644 H 0.61796 0.048 0.93431 0.0
H645 H 0.587 0.13463 0.93518 0.0
C646 C 0.58001 0.13048 0.00897 0.0
C647 C 0.58263 0.11471 0.04913 0.0
C648 C 0.61954 0.06282 0.90717 0.0
C649 C 0.60073 0.09718 0.96168 0.0
C650 C 0.62849 0.05589 0.862 0.0
C651 C 0.62971 0.07478 0.82615 0.0
C652 C 0.61185 0.08871 0.91592 0.0
C653 C 0.6231 0.1006 0.83728 0.0
C654 C 0.58897 0.12183 0.96543 0.0
C655 C 0.59341 0.08966 0.04374 0.0
N656 N 0.61432 0.1067 0.88093 0.0
N657 N 0.60228 0.08167 0.00071 0.0
H658 H 0.42674 0.56306 0.56114 0.0
H659 H 0.42249 0.66346 0.3474 0.0
H660 H 0.35767 0.60708 0.52568 0.0
H661 H 0.46009 0.58875 0.3305 0.0
H662 H 0.40726 0.64974 0.4259 0.0
H663 H 0.44723 0.57837 0.48719 0.0
C664 C 0.41592 0.57584 0.53778 0.0
C665 C 0.3904 0.58359 0.54912 0.0
C666 C 0.41918 0.63656 0.40514 0.0
C667 C 0.4139 0.60176 0.46632 0.0
C668 C 0.42803 0.64443 0.3607 0.0
C669 C 0.44243 0.62714 0.33257 0.0
C670 C 0.4253 0.6115 0.4218 0.0
C671 C 0.44886 0.60255 0.35115 0.0
C672 C 0.42759 0.58456 0.49589 0.0
C673 C 0.37724 0.60032 0.51792 0.0
N674 N 0.44025 0.59542 0.39475 0.0
N675 N 0.38922 0.60905 0.47817 0.0
H676 H 0.89899 0.35166 0.01851 0.0
H677 H 0.9101 0.46178 0.8289 0.0
H678 H 0.93449 0.42499 0.05754 0.0
H679 H 0.83998 0.41568 0.8419 0.0
H680 H 0.92405 0.44649 0.9072 0.0
H681 H 0.88261 0.3718 0.94615 0.0
C682 C 0.90365 0.37192 0.01156 0.0
C683 C 0.91826 0.38669 0.04393 0.0
C684 C 0.90544 0.4401 0.89313 0.0
C685 C 0.89949 0.40971 0.96132 0.0
C686 C 0.8975 0.44875 0.84867 0.0
C687 C 0.87386 0.43995 0.82928 0.0
C688 C 0.89002 0.42191 0.9174 0.0
C689 C 0.85822 0.42304 0.85596 0.0
C690 C 0.894 0.38343 0.97059 0.0
C691 C 0.92334 0.41297 0.03339 0.0
N692 N 0.86683 0.41412 0.89843 0.0
N693 N 0.91418 0.42364 0.99259 0.0
H694 H 0.035 0.90632 0.3368 0.0
H695 H 0.14953 0.8984 0.51998 0.0
H696 H 0.08349 0.83782 0.34682 0.0
H697 H 0.07635 0.93331 0.5615 0.0
H698 H 0.12859 0.88154 0.44855 0.0
H699 H 0.05189 0.92116 0.41349 0.0
C700 C 0.04886 0.89421 0.35566 0.0
C701 C 0.0578 0.87076 0.33587 0.0
C702 C 0.11718 0.89295 0.4733 0.0
C703 C 0.07778 0.88804 0.42209 0.0
C704 C 0.12915 0.90288 0.51372 0.0
C705 C 0.11466 0.91741 0.5466 0.0
C706 C 0.09069 0.89806 0.46511 0.0
C707 C 0.0882 0.92223 0.53697 0.0
C708 C 0.05847 0.9027 0.39918 0.0
C709 C 0.07591 0.85585 0.3613 0.0
N710 N 0.07706 0.91276 0.49679 0.0
N711 N 0.08572 0.865 0.4028 0.0
H712 H 0.60703 0.35739 0.97247 0.0
H713 H 0.59303 0.46425 0.16525 0.0
H714 H 0.56878 0.4294 0.93437 0.0
H715 H 0.66548 0.42251 0.14765 0.0
H716 H 0.57956 0.45016 0.0859 0.0
H717 H 0.62377 0.3782 0.04383 0.0
C718 C 0.60187 0.37753 0.97942 0.0
C719 C 0.58628 0.39167 0.94768 0.0
C720 C 0.59858 0.44455 0.09918 0.0
C721 C 0.60547 0.4155 0.0293 0.0
C722 C 0.60626 0.4525 0.14427 0.0
C723 C 0.63038 0.44445 0.16278 0.0
C724 C 0.61479 0.42779 0.07332 0.0
C725 C 0.64681 0.42922 0.13443 0.0
C726 C 0.61173 0.38944 0.01981 0.0
C727 C 0.58065 0.41784 0.95811 0.0
N728 N 0.63847 0.42088 0.09139 0.0
N729 N 0.58998 0.4289 -0.00145 0.0
H730 H 0.07908 0.60244 0.41943 0.0
H731 H 0.08686 0.59362 0.69792 0.0
H732 H 0.14388 0.56716 0.49313 0.0
H733 H 0.04767 0.65814 0.63018 0.0
H734 H 0.10283 0.57916 0.62159 0.0
H735 H 0.06211 0.61835 0.49519 0.0
C736 C 0.08955 0.59778 0.4516 0.0
C737 C 0.11286 0.58335 0.45021 0.0
C738 C 0.09078 0.5965 0.62331 0.0
C739 C 0.09363 0.60151 0.53626 0.0
C740 C 0.08149 0.60472 0.6668 0.0
C741 C 0.06575 0.62704 0.67023 0.0
C742 C 0.08402 0.61041 0.5826 0.0
C743 C 0.05976 0.64084 0.62886 0.0
C744 C 0.08001 0.60711 0.49457 0.0
C745 C 0.12586 0.57819 0.49271 0.0
N746 N 0.06875 0.63212 0.58635 0.0
N747 N 0.11597 0.58715 0.53411 0.0
H748 H 0.93617 0.1478 0.98357 0.0
H749 H 0.86747 0.03644 0.13749 0.0
H750 H 0.90809 0.07665 0.91945 0.0
H751 H 0.87893 0.11633 0.18127 0.0
H752 H 0.88488 0.0479 0.05884 0.0
H753 H 0.92028 0.1327 0.05963 0.0
C754 C 0.92688 0.12883 0.98561 0.0
C755 C 0.92316 0.11361 0.94505 0.0
C756 C 0.88336 0.06284 0.08577 0.0
C757 C 0.90443 0.0963 0.03217 0.0
C758 C 0.87325 0.05638 0.13034 0.0
C759 C 0.87203 0.07542 0.16597 0.0
C760 C 0.89229 0.08838 0.07738 0.0
C761 C 0.87988 0.10093 0.1551 0.0
C762 C 0.91763 0.12027 0.02905 0.0
C763 C 0.91128 0.08901 0.94994 0.0
N764 N 0.88982 0.10657 0.11203 0.0
N765 N 0.90205 0.08117 0.9928 0.0
H766 H 0.45568 0.8405 0.63241 0.0
H767 H 0.36375 0.93727 0.4914 0.0
H768 H 0.4269 0.91276 0.69121 0.0
H769 H 0.42201 0.89196 0.4179 0.0
H770 H 0.38322 0.92421 0.56664 0.0
H771 H 0.44023 0.85478 0.55396 0.0
C772 C 0.44632 0.85934 0.62883 0.0
C773 C 0.44268 0.87547 0.66839 0.0
C774 C 0.39187 0.91728 0.53402 0.0
C775 C 0.42472 0.89156 0.57968 0.0
C776 C 0.38077 0.92472 0.49116 0.0
C777 C 0.3914 0.91581 0.44849 0.0
C778 C 0.41341 0.90034 0.53431 0.0
C779 C 0.41342 0.89948 0.45012 0.0
C780 C 0.43761 0.86748 0.5842 0.0
C781 C 0.43035 0.89969 0.66178 0.0
N782 N 0.42358 0.89198 0.49246 0.0
N783 N 0.42163 0.90684 0.61851 0.0
H784 H 0.43559 0.92293 0.93942 0.0
H785 H 0.336 0.91268 0.15508 0.0
H786 H 0.39582 0.85124 0.97451 0.0
H787 H 0.40543 0.96013 0.16307 0.0
H788 H 0.35078 0.89619 0.07782 0.0
H789 H 0.41854 0.94253 0.01245 0.0
C790 C 0.42341 0.9113 0.96262 0.0
C791 C 0.41733 0.88535 0.95122 0.0
C792 C 0.36253 0.9105 0.09633 0.0
C793 C 0.39713 0.90787 0.03351 0.0
C794 C 0.35397 0.92011 0.13995 0.0
C795 C 0.36954 0.93778 0.16517 0.0
C796 C 0.38647 0.91909 0.07764 0.0
C797 C 0.39292 0.94648 0.14458 0.0
C798 C 0.41366 0.92249 0.00406 0.0
C799 C 0.40129 0.87118 0.98232 0.0
N800 N 0.40068 0.93709 0.10192 0.0
N801 N 0.39154 0.8827 0.02185 0.0
H802 H 0.5759 0.4322 0.43286 0.0
H803 H 0.58686 0.33554 0.65155 0.0
H804 H 0.64757 0.39292 0.46982 0.0
H805 H 0.54296 0.40709 0.66269 0.0
H806 H 0.6015 0.34894 0.57251 0.0
H807 H 0.55631 0.41636 0.50713 0.0
C808 C 0.58746 0.42032 0.45661 0.0
C809 C 0.61343 0.41407 0.44563 0.0
C810 C 0.58838 0.36148 0.59216 0.0
C811 C 0.59105 0.39534 0.52887 0.0
C812 C 0.57988 0.35378 0.63689 0.0
C813 C 0.56386 0.37035 0.66348 0.0
C814 C 0.58028 0.38558 0.57376 0.0
C815 C 0.55552 0.39392 0.64324 0.0
C816 C 0.57631 0.4113 0.49868 0.0
C817 C 0.6276 0.39849 0.47732 0.0
N818 N 0.56383 0.40088 0.5994 0.0
N819 N 0.61615 0.38946 0.51734 0.0
H820 H 0.10391 0.57952 0.91891 0.0
H821 H 0.08985 0.58093 0.19707 0.0
H822 H 0.0659 0.6419 0.99497 0.0
H823 H 0.15708 0.54566 0.13058 0.0
H824 H 0.07596 0.59761 0.12097 0.0
H825 H 0.11865 0.56116 0.9943 0.0
C826 C 0.09841 0.58917 0.95149 0.0
C827 C 0.08355 0.61221 0.95087 0.0
C828 C 0.09373 0.58621 0.12293 0.0
C829 C 0.10035 0.59135 0.03656 0.0
C830 C 0.10164 0.57648 0.16629 0.0
C831 C 0.12462 0.56169 0.17006 0.0
C832 C 0.10863 0.58089 0.08265 0.0
C833 C 0.13925 0.55695 0.12906 0.0
C834 C 0.10706 0.57883 0.99428 0.0
C835 C 0.07729 0.62412 0.99395 0.0
N836 N 0.13087 0.5664 0.08667 0.0
N837 N 0.0856 0.61344 0.03515 0.0
H838 H 0.91472 0.04693 0.45546 0.0
H839 H 0.94036 0.16665 0.63102 0.0
H840 H 0.88702 0.12553 0.43438 0.0
H841 H 0.95185 0.08598 0.67008 0.0
H842 H 0.9313 0.15273 0.55008 0.0
H843 H 0.93854 0.06192 0.52623 0.0
C844 C 0.91397 0.06732 0.4655 0.0
C845 C 0.8985 0.08494 0.44022 0.0
C846 C 0.93608 0.13812 0.57633 0.0
C847 C 0.9256 0.10218 0.51954 0.0
C848 C 0.94127 0.14607 0.62247 0.0
C849 C 0.94627 0.12742 0.65749 0.0
C850 C 0.93586 0.11137 0.56529 0.0
C851 C 0.94751 0.10099 0.64434 0.0
C852 C 0.92746 0.07586 0.50563 0.0
C853 C 0.89823 0.11122 0.45391 0.0
N854 N 0.94201 0.09371 0.59935 0.0
N855 N 0.91142 0.11901 0.49282 0.0
H856 H 0.40664 0.53736 0.83363 0.0
H857 H 0.39381 0.64647 0.0249 0.0
H858 H 0.33649 0.58343 0.84523 0.0
H859 H 0.43033 0.57346 0.06229 0.0
H860 H 0.3774 0.62646 0.95237 0.0
H861 H 0.41982 0.55216 0.91266 0.0
C862 C 0.39386 0.55029 0.85322 0.0
C863 C 0.37047 0.55925 0.83319 0.0
C864 C 0.38898 0.61485 0.97653 0.0
C865 C 0.38574 0.57671 0.92227 0.0
C866 C 0.39862 0.62629 0.01759 0.0
C867 C 0.4136 0.6116 0.04946 0.0
C868 C 0.39485 0.58872 0.96666 0.0
C869 C 0.41889 0.58543 0.03852 0.0
C870 C 0.40137 0.55866 0.89812 0.0
C871 C 0.35458 0.57598 0.85973 0.0
N872 N 0.40976 0.57483 0.99761 0.0
N873 N 0.36276 0.58461 0.90268 0.0
H874 H 0.96388 0.40883 0.32653 0.0
H875 H 0.85552 0.39985 0.518 0.0
H876 H 0.9192 0.33813 0.34436 0.0
H877 H 0.92974 0.43301 0.55845 0.0
H878 H 0.87552 0.38299 0.44589 0.0
H879 H 0.94962 0.42328 0.40529 0.0
C880 C 0.95138 0.39623 0.34738 0.0
C881 C 0.94262 0.37229 0.3292 0.0
C882 C 0.88738 0.39399 0.47058 0.0
C883 C 0.92583 0.38897 0.41783 0.0
C884 C 0.87597 0.4039 0.51138 0.0
C885 C 0.89102 0.41801 0.54403 0.0
C886 C 0.91386 0.39873 0.4617 0.0
C887 C 0.91753 0.42228 0.53401 0.0
C888 C 0.94335 0.40444 0.39212 0.0
C889 C 0.92646 0.35663 0.35736 0.0
N890 N 0.92813 0.41291 0.49324 0.0
N891 N 0.91812 0.3655 0.40002 0.0
H892 H 0.094 0.91226 0.80375 0.0
H893 H 0.1046 0.92047 0.08352 0.0
H894 H 0.15936 0.95075 0.87031 0.0
H895 H 0.06555 0.85788 0.00985 0.0
H896 H 0.12032 0.93731 0.00722 0.0
H897 H 0.07902 0.89754 0.88068 0.0
C898 C 0.10519 0.91774 0.83471 0.0
C899 C 0.12793 0.93289 0.83064 0.0
C900 C 0.10824 0.91996 0.00796 0.0
C901 C 0.11065 0.91605 0.91927 0.0
C902 C 0.09904 0.9105 0.05129 0.0
C903 C 0.08366 0.88779 0.05291 0.0
C904 C 0.10158 0.90686 0.96611 0.0
C905 C 0.07735 0.87543 0.01022 0.0
C906 C 0.09664 0.90918 0.87863 0.0
C907 C 0.14176 0.93906 0.87198 0.0
N908 N 0.08623 0.88518 0.96861 0.0
N909 N 0.13276 0.93077 0.91487 0.0
H910 H 0.58438 0.04954 0.54149 0.0
H911 H 0.5584 0.16588 0.35854 0.0
H912 H 0.62007 0.12574 0.54846 0.0
H913 H 0.54634 0.0848 0.32306 0.0
H914 H 0.57005 0.15279 0.43891 0.0
H915 H 0.56018 0.06367 0.47055 0.0
C916 C 0.58693 0.06921 0.52827 0.0
C917 C 0.60458 0.08633 0.54994 0.0
C918 C 0.56452 0.13792 0.41361 0.0
C919 C 0.57686 0.10268 0.47053 0.0
C920 C 0.55777 0.14539 0.36785 0.0
C921 C 0.55189 0.12637 0.3339 0.0
C922 C 0.56526 0.1113 0.42543 0.0
C923 C 0.55125 0.10007 0.34797 0.0
C924 C 0.57319 0.07725 0.48805 0.0
C925 C 0.6071 0.11172 0.532 0.0
N926 N 0.55815 0.09326 0.39262 0.0
N927 N 0.59346 0.1191 0.49332 0.0
H928 H 0.43594 0.98555 0.30988 0.0
H929 H 0.45956 0.12905 0.21464 0.0
H930 H 0.37081 0.03536 0.27495 0.0
H931 H 0.51165 0.06503 0.18436 0.0
H932 H 0.42754 0.09779 0.24587 0.0
H933 H 0.46565 0.01818 0.27707 0.0
C934 C 0.42789 0.00359 0.2963 0.0
C935 C 0.4008 0.00771 0.2951 0.0
C936 C 0.44586 0.09065 0.23174 0.0
C937 C 0.43475 0.04495 0.25698 0.0
C938 C 0.46403 0.10841 0.21365 0.0
C939 C 0.48829 0.09964 0.19672 0.0
C940 C 0.4523 0.06408 0.23398 0.0
C941 C 0.49316 0.07268 0.19665 0.0
C942 C 0.44486 0.02203 0.27696 0.0
C943 C 0.39155 0.03139 0.27649 0.0
N944 N 0.47551 0.05591 0.21574 0.0
N945 N 0.4085 0.04917 0.25811 0.0
H946 H 0.49037 0.41839 0.85495 0.0
H947 H 0.41998 0.48747 0.6411 0.0
H948 H 0.48871 0.38185 0.71753 0.0
H949 H 0.38407 0.48581 0.77915 0.0
H950 H 0.45121 0.45399 0.66802 0.0
H951 H 0.45654 0.44914 0.8279 0.0
C952 C 0.4827 0.41668 0.8194 0.0
C953 C 0.49205 0.39734 0.78872 0.0
C954 C 0.43628 0.46092 0.69208 0.0
C955 C 0.45439 0.43282 0.75718 0.0
C956 C 0.41854 0.47992 0.67677 0.0
C957 C 0.39922 0.48913 0.70767 0.0
C958 C 0.43516 0.45185 0.73898 0.0
C959 C 0.39837 0.47893 0.75385 0.0
C960 C 0.46352 0.43418 0.80399 0.0
C961 C 0.48171 0.39617 0.74267 0.0
N962 N 0.41628 0.46111 0.76828 0.0
N963 N 0.46371 0.41387 0.72808 0.0
H964 H 0.03949 0.36682 0.22081 0.0
H965 H 0.06495 0.50996 0.31687 0.0
H966 H 0.99032 0.43236 0.18567 0.0
H967 H 0.12979 0.45983 0.28167 0.0
H968 H 0.03501 0.47729 0.28474 0.0
H969 H 0.07152 0.39722 0.25498 0.0
C970 C 0.03567 0.38759 0.21947 0.0
C971 C 0.01226 0.39705 0.20008 0.0
C972 C 0.05579 0.47335 0.2846 0.0
C973 C 0.04815 0.4316 0.24075 0.0
C974 C 0.07288 0.4918 0.30357 0.0
C975 C 0.09996 0.48765 0.30187 0.0
C976 C 0.06576 0.45037 0.26455 0.0
C977 C 0.10906 0.46382 0.28356 0.0
C978 C 0.05383 0.40484 0.23923 0.0
C979 C 0.00817 0.42415 0.19974 0.0
N980 N 0.09199 0.44605 0.2655 0.0
N981 N 0.02573 0.44042 0.22045 0.0
H982 H 0.08367 0.0111 0.64141 0.0
H983 H 0.01544 0.08478 0.85231 0.0
H984 H 0.12024 0.01486 0.77877 0.0
H985 H 0.01685 0.11898 0.71288 0.0
H986 H 0.04876 0.0532 0.82634 0.0
H987 H 0.05313 0.04558 0.66674 0.0
C988 C 0.0854 0.01929 0.67657 0.0
C989 C 0.10466 0.0103 0.70778 0.0
C990 C 0.04184 0.06785 0.80175 0.0
C991 C 0.06955 0.04876 0.73726 0.0
C992 C 0.02297 0.08581 0.81656 0.0
C993 C 0.01369 0.10471 0.78497 0.0
C994 C 0.05071 0.06832 0.75471 0.0
C995 C 0.0238 0.10502 0.73869 0.0
C996 C 0.06806 0.03886 0.69097 0.0
C997 C 0.10593 0.02143 0.75324 0.0
N998 N 0.0415 0.08687 0.72474 0.0
N999 N 0.08842 0.0398 0.76681 0.0
H1000 H 0.56485 0.02031 0.71417 0.0
H1001 H 0.54074 0.87143 0.77154 0.0
H1002 H 0.62995 0.96676 0.71372 0.0
H1003 H 0.49466 0.93399 0.83042 0.0
H1004 H 0.57292 0.90366 0.74421 0.0
H1005 H 0.53728 0.98635 0.74676 0.0
C1006 C 0.57341 0.00131 0.72049 0.0
C1007 C 0.6 0.99659 0.71141 0.0
C1008 C 0.55596 0.9102 0.76378 0.0
C1009 C 0.56804 0.95729 0.74928 0.0
C1010 C 0.53761 0.89186 0.77956 0.0
C1011 C 0.51479 0.89998 0.80312 0.0
C1012 C 0.55118 0.93685 0.77079 0.0
C1013 C 0.51184 0.92671 0.81244 0.0
C1014 C 0.55758 0.98194 0.73957 0.0
C1015 C 0.60962 0.97134 0.72013 0.0
N1016 N 0.52955 0.94416 0.79558 0.0
N1017 N 0.59362 0.95256 0.7386 0.0
H1018 H 0.63052 0.53902 0.28133 0.0
H1019 H 0.4878 0.56362 0.18193 0.0
H1020 H 0.56593 0.48679 0.30739 0.0
H1021 H 0.53811 0.62809 0.21895 0.0
H1022 H 0.52016 0.53347 0.21413 0.0
H1023 H 0.5998 0.5711 0.24891 0.0
C1024 C 0.60984 0.53453 0.28111 0.0
C1025 C 0.60076 0.51024 0.29725 0.0
C1026 C 0.52418 0.55422 0.21477 0.0
C1027 C 0.56586 0.5463 0.25865 0.0
C1028 C 0.50592 0.57143 0.19575 0.0
C1029 C 0.51023 0.59845 0.19788 0.0
C1030 C 0.54709 0.56404 0.23537 0.0
C1031 C 0.53399 0.60741 0.21675 0.0
C1032 C 0.59241 0.55273 0.26233 0.0
C1033 C 0.5738 0.50533 0.29578 0.0
N1034 N 0.55156 0.59023 0.23489 0.0
N1035 N 0.55735 0.52303 0.27609 0.0
H1036 H 0.93739 0.4887 0.68431 0.0
H1037 H 0.96251 0.63182 0.7784 0.0
H1038 H 0.87213 0.53774 0.72214 0.0
H1039 H 0.01249 0.56688 0.81346 0.0
H1040 H 0.93009 0.60093 0.74701 0.0
H1041 H 0.96709 0.52137 0.71691 0.0
C1042 C 0.92929 0.50659 0.69846 0.0
C1043 C 0.90217 0.51046 0.70053 0.0
C1044 C 0.94804 0.59355 0.7622 0.0
C1045 C 0.93616 0.54779 0.73831 0.0
C1046 C 0.96644 0.61109 0.78034 0.0
C1047 C 0.99022 0.60193 0.79875 0.0
C1048 C 0.95382 0.56681 0.76131 0.0
C1049 C 0.99439 0.57486 0.80001 0.0
C1050 C 0.94627 0.52505 0.71765 0.0
C1051 C 0.89289 0.53396 0.71989 0.0
N1052 N 0.97659 0.55831 0.7808 0.0
N1053 N 0.90987 0.5518 0.73805 0.0
H1054 H 0.9323 0.02188 0.25336 0.0
H1055 H 0.96427 0.87128 0.24116 0.0
H1056 H 0.8737 0.96523 0.29294 0.0
H1057 H 0.00383 0.93006 0.15839 0.0
H1058 H 0.93106 0.90363 0.26283 0.0
H1059 H 0.95957 0.9872 0.22377 0.0
C1060 C 0.92511 0.00207 0.25625 0.0
C1061 C 0.90048 0.99662 0.27599 0.0
C1062 C 0.9468 0.90924 0.23933 0.0
C1063 C 0.9322 0.95629 0.24136 0.0
C1064 C 0.96577 0.89081 0.22681 0.0
C1065 C 0.98718 0.898 0.19834 0.0
C1066 C 0.94943 0.93508 0.22372 0.0
C1067 C 0.98793 0.92358 0.18074 0.0
C1068 C 0.94075 0.9822 0.23877 0.0
C1069 C 0.89251 0.97037 0.27816 0.0
N1070 N 0.9696 0.9412 0.19426 0.0
N1071 N 0.90844 0.95109 0.2613 0.0
H1072 H 0.51914 0.2407 0.14018 0.0
H1073 H 0.51291 0.26451 0.86131 0.0
H1074 H 0.52029 0.17894 0.03703 0.0
H1075 H 0.53363 0.32283 0.96428 0.0
H1076 H 0.50136 0.23452 0.92601 0.0
H1077 H 0.50986 0.27212 0.07702 0.0
C1078 C 0.51643 0.23371 0.10434 0.0
C1079 C 0.52009 0.20732 0.09353 0.0
C1080 C 0.50772 0.25413 0.93439 0.0
C1081 C 0.51043 0.24302 0.0211 0.0
C1082 C 0.51405 0.27126 0.89755 0.0
C1083 C 0.52397 0.29609 0.90784 0.0
C1084 C 0.5114 0.26205 0.98155 0.0
C1085 C 0.52581 0.30384 0.95518 0.0
C1086 C 0.5114 0.25161 0.06828 0.0
C1087 C 0.51718 0.19916 0.04657 0.0
N1088 N 0.51981 0.28681 0.99032 0.0
N1089 N 0.51281 0.21702 0.01186 0.0
H1090 H 0.23974 0.51555 0.35685 0.0
H1091 H 0.26484 0.50966 0.63548 0.0
H1092 H 0.17886 0.51972 0.46157 0.0
H1093 H 0.32359 0.5281 0.53177 0.0
H1094 H 0.2343 0.4989 0.57128 0.0
H1095 H 0.27135 0.50553 0.41949 0.0
C1096 C 0.23292 0.5133 0.3929 0.0
C1097 C 0.20675 0.51803 0.40429 0.0
C1098 C 0.25411 0.50455 0.5626 0.0
C1099 C 0.24269 0.50749 0.47609 0.0
C1100 C 0.27157 0.5104 0.59917 0.0
C1101 C 0.29673 0.51941 0.58858 0.0
C1102 C 0.26198 0.50786 0.51531 0.0
C1103 C 0.30439 0.52088 0.54112 0.0
C1104 C 0.25095 0.50787 0.42867 0.0
C1105 C 0.19888 0.51575 0.45155 0.0
N1106 N 0.28701 0.5154 0.50618 0.0
N1107 N 0.21684 0.51091 0.48588 0.0
H1108 H 0.98469 0.25881 0.13362 0.0
H1109 H 0.98588 0.24174 0.85325 0.0
H1110 H 0.97665 0.322 0.03446 0.0
H1111 H 0.97745 0.1785 0.95225 0.0
H1112 H 0.99618 0.27122 0.91914 0.0
H1113 H 0.99564 0.22941 0.06796 0.0
C1114 C 0.98621 0.26661 0.09812 0.0
C1115 C 0.9801 0.29275 0.08912 0.0
C1116 C 0.99282 0.25074 0.92637 0.0
C1117 C 0.99176 0.25937 0.01399 0.0
C1118 C 0.98723 0.23393 0.88876 0.0
C1119 C 0.98117 0.20775 0.89764 0.0
C1120 C 0.99203 0.24123 0.97303 0.0
C1121 C 0.98237 0.19857 0.94421 0.0
C1122 C 0.9922 0.24986 0.06065 0.0
C1123 C 0.98157 0.30195 0.04259 0.0
N1124 N 0.98738 0.21536 0.98029 0.0
N1125 N 0.98698 0.28521 0.00661 0.0
H1126 H 0.26594 0.99091 0.36568 0.0
H1127 H 0.24262 0.98266 0.64442 0.0
H1128 H 0.32515 0.97133 0.46763 0.0
H1129 H 0.18105 0.98126 0.54091 0.0
H1130 H 0.27399 0.99334 0.58169 0.0
H1131 H 0.23611 0.00204 0.43078 0.0
C1132 C 0.27295 0.99002 0.40179 0.0
C1133 C 0.29801 0.98055 0.41161 0.0
C1134 C 0.2535 0.9915 0.57285 0.0
C1135 C 0.26403 0.99245 0.48594 0.0
C1136 C 0.2356 0.98572 0.6087 0.0
C1137 C 0.20928 0.98151 0.59764 0.0
C1138 C 0.24498 0.99275 0.52563 0.0
C1139 C 0.20118 0.9848 0.55073 0.0
C1140 C 0.25589 0.99607 0.4389 0.0
C1141 C 0.30602 0.97889 0.45885 0.0
N1142 N 0.21901 0.98993 0.51627 0.0
N1143 N 0.28901 0.98453 0.49431 0.0
H1144 H 0.47947 0.67369 0.0361 0.0
H1145 H 0.48911 0.8223 0.95639 0.0
H1146 H 0.48217 0.73841 0.13297 0.0
H1147 H 0.4793 0.7578 0.86055 0.0
H1148 H 0.49839 0.79136 0.02045 0.0
H1149 H 0.49103 0.70327 0.97122 0.0
C1150 C 0.48341 0.69403 0.04379 0.0
C1151 C 0.48023 0.70372 0.08967 0.0
C1152 C 0.49497 0.78394 0.98515 0.0
C1153 C 0.49249 0.73783 0.01582 0.0
C1154 C 0.48997 0.80162 0.94857 0.0
C1155 C 0.48383 0.79245 0.90331 0.0
C1156 C 0.49337 0.75697 0.97631 0.0
C1157 C 0.48435 0.76552 0.89501 0.0
C1158 C 0.48978 0.71096 0.00681 0.0
C1159 C 0.48482 0.73027 0.09796 0.0
N1160 N 0.48868 0.74869 0.9313 0.0
N1161 N 0.4904 0.7465 0.06126 0.0
H1162 H 0.76303 0.48511 0.63919 0.0
H1163 H 0.73627 0.49284 0.36128 0.0
H1164 H 0.82335 0.48238 0.53325 0.0
H1165 H 0.67921 0.47005 0.46525 0.0
H1166 H 0.76668 0.50421 0.42539 0.0
H1167 H 0.73096 0.4952 0.57737 0.0
C1168 C 0.76963 0.48779 0.6031 0.0
C1169 C 0.79578 0.48332 0.59109 0.0
C1170 C 0.74724 0.49744 0.43417 0.0
C1171 C 0.75932 0.49394 0.52025 0.0
C1172 C 0.72987 0.4912 0.39768 0.0
C1173 C 0.70527 0.4808 0.40836 0.0
C1174 C 0.73982 0.49317 0.48143 0.0
C1175 C 0.69799 0.4783 0.45587 0.0
C1176 C 0.75134 0.49322 0.5678 0.0
C1177 C 0.80336 0.48611 0.54377 0.0
N1178 N 0.71527 0.48423 0.49071 0.0
N1179 N 0.78515 0.49096 0.50989 0.0
H1180 H 0.01425 0.74027 0.85899 0.0
H1181 H 0.01026 0.762 0.13851 0.0
H1182 H 0.02206 0.67885 0.96179 0.0
H1183 H 0.02485 0.82275 0.03675 0.0
H1184 H 0.99973 0.73197 0.07351 0.0
H1185 H 0.00322 0.77082 0.92289 0.0
C1186 C 0.01256 0.73306 0.89488 0.0
C1187 C 0.01869 0.70709 0.9054 0.0
C1188 C 0.00447 0.75208 0.06545 0.0
C1189 C 0.00693 0.74181 0.97851 0.0
C1190 C 0.0102 0.76922 0.10251 0.0
C1191 C 0.01807 0.79482 0.09266 0.0
C1192 C 0.00684 0.76066 0.0184 0.0
C1193 C 0.01852 0.80317 0.04553 0.0
C1194 C 0.00657 0.75049 0.93134 0.0
C1195 C 0.01708 0.69872 0.95245 0.0
N1196 N 0.01325 0.78607 0.01005 0.0
N1197 N 0.01162 0.71609 0.98741 0.0
H1198 H 0.82503 0.02204 0.46724 0.0
H1199 H 0.67617 0.02422 0.52383 0.0
H1200 H 0.76621 0.01296 0.35956 0.0
H1201 H 0.73457 0.01227 0.6313 0.0
H1202 H 0.70804 0.01217 0.46344 0.0
H1203 H 0.79277 0.01046 0.52734 0.0
C1204 C 0.80546 0.01679 0.45616 0.0
C1205 C 0.7982 0.01865 0.40843 0.0
C1206 C 0.7138 0.01146 0.50025 0.0
C1207 C 0.76088 0.00623 0.47722 0.0
C1208 C 0.69554 0.01828 0.53477 0.0
C1209 C 0.70282 0.01943 0.58257 0.0
C1210 C 0.73975 0.00644 0.51345 0.0
C1211 C 0.72815 0.01159 0.59485 0.0
C1212 C 0.78699 0.01026 0.49052 0.0
C1213 C 0.77262 0.01171 0.39596 0.0
N1214 N 0.74591 0.00605 0.5604 0.0
N1215 N 0.75469 0.00644 0.43028 0.0
loop_
_geom_bond_atom_site_label_1
_geom_bond_atom_site_label_2
_geom_bond_distance
_geom_bond_site_symmetry_2
_ccdc_geom_bond_type
Fe0 O2 1.918 . S
Fe0 O5 1.997 . S
Fe0 O6 2.002 . S
Fe0 O11 1.976 . S
Fe0 O14 1.996 . S
Fe1 O2 1.918 . S
Fe1 O9 1.997 . S
Fe1 O12 1.996 . S
Fe1 O16 1.976 . S
Fe1 O19 2.002 . S
O2 Fe0 1.918 . S
O2 Fe1 1.918 . S
O2 Fe3 1.918 . S
Fe3 O2 1.918 . S
Fe3 O4 2.002 . S
Fe3 O13 1.976 . S
Fe3 O17 1.996 . S
Fe3 O20 1.997 . S
O4 Fe3 2.002 . S
O4 C21 1.295 . S
O5 Fe0 1.997 . S
O5 C21 1.235 . S
O6 Fe0 2.002 . S
O6 C7 1.295 . S
C7 O6 1.295 . S
C7 O9 1.235 . S
C8 O13 1.287 . S
C8 O14 1.255 . S
O9 Fe1 1.997 . S
O9 C7 1.235 . S
C10 O16 1.287 . S
C10 O17 1.255 . S
O11 Fe0 1.976 . S
O11 C18 1.287 . S
O12 Fe1 1.996 . S
O12 C18 1.255 . S
O13 Fe3 1.976 . S
O13 C8 1.287 . S
O14 Fe0 1.996 . S
O14 C8 1.255 . S
C15 O19 1.295 . S
C15 O20 1.235 . S
O16 Fe1 1.976 . S
O16 C10 1.287 . S
O17 Fe3 1.996 . S
O17 C10 1.255 . S
C18 O11 1.287 . S
C18 O12 1.255 . S
O19 Fe1 2.002 . S
O19 C15 1.295 . S
O20 Fe3 1.997 . S
O20 C15 1.235 . S
C21 O4 1.295 . S
C21 O5 1.235 . S
Fe22 O24 1.918 . S
Fe22 O27 1.997 . S
Fe22 O28 2.002 . S
Fe22 O33 1.976 . S
Fe22 O36 1.996 . S
Fe23 O24 1.918 . S
Fe23 O31 1.997 . S
Fe23 O34 1.996 . S
Fe23 O38 1.976 . S
Fe23 O41 2.002 . S
O24 Fe22 1.918 . S
O24 Fe23 1.918 . S
O24 Fe25 1.918 . S
Fe25 O24 1.918 . S
Fe25 O26 2.002 . S
Fe25 O35 1.976 . S
Fe25 O39 1.996 . S
Fe25 O42 1.997 . S
O26 Fe25 2.002 . S
O26 C43 1.295 . S
O27 Fe22 1.997 . S
O27 C43 1.235 . S
O28 Fe22 2.002 . S
O28 C29 1.295 . S
C29 O28 1.295 . S
C29 O31 1.235 . S
C30 O35 1.287 . S
C30 O36 1.255 . S
O31 Fe23 1.997 . S
O31 C29 1.235 . S
C32 O38 1.287 . S
C32 O39 1.255 . S
O33 Fe22 1.976 . S
O33 C40 1.287 . S
O34 Fe23 1.996 . S
O34 C40 1.255 . S
O35 Fe25 1.976 . S
O35 C30 1.287 . S
O36 Fe22 1.996 . S
O36 C30 1.255 . S
C37 O41 1.295 . S
C37 O42 1.235 . S
O38 Fe23 1.976 . S
O38 C32 1.287 . S
O39 Fe25 1.996 . S
O39 C32 1.255 . S
C40 O33 1.287 . S
C40 O34 1.255 . S
O41 Fe23 2.002 . S
O41 C37 1.295 . S
O42 Fe25 1.997 . S
O42 C37 1.235 . S
C43 O26 1.295 . S
C43 O27 1.235 . S
Fe44 O46 1.918 . S
Fe44 O49 1.997 . S
Fe44 O50 2.002 . S
Fe44 O55 1.976 . S
Fe44 O58 1.996 . S
Fe45 O46 1.918 . S
Fe45 O53 1.997 . S
Fe45 O56 1.996 . S
Fe45 O60 1.976 . S
Fe45 O63 2.002 . S
O46 Fe44 1.918 . S
O46 Fe45 1.918 . S
O46 Fe47 1.918 . S
Fe47 O46 1.918 . S
Fe47 O48 2.002 . S
Fe47 O57 1.976 . S
Fe47 O61 1.996 . S
Fe47 O64 1.997 . S
O48 Fe47 2.002 . S
O48 C65 1.295 . S
O49 Fe44 1.997 . S
O49 C65 1.235 . S
O50 Fe44 2.002 . S
O50 C51 1.295 . S
C51 O50 1.295 . S
C51 O53 1.235 . S
C52 O57 1.287 . S
C52 O58 1.255 . S
O53 Fe45 1.997 . S
O53 C51 1.235 . S
C54 O60 1.287 . S
C54 O61 1.255 . S
O55 Fe44 1.976 . S
O55 C62 1.287 . S
O56 Fe45 1.996 . S
O56 C62 1.255 . S
O57 Fe47 1.976 . S
O57 C52 1.287 . S
O58 Fe44 1.996 . S
O58 C52 1.255 . S
C59 O63 1.295 . S
C59 O64 1.235 . S
O60 Fe45 1.976 . S
O60 C54 1.287 . S
O61 Fe47 1.996 . S
O61 C54 1.255 . S
C62 O55 1.287 . S
C62 O56 1.255 . S
O63 Fe45 2.002 . S
O63 C59 1.295 . S
O64 Fe47 1.997 . S
O64 C59 1.235 . S
C65 O48 1.295 . S
C65 O49 1.235 . S
Fe66 O68 1.918 . S
Fe66 O71 1.997 . S
Fe66 O72 2.002 . S
Fe66 O77 1.976 . S
Fe66 O80 1.996 . S
Fe67 O68 1.918 . S
Fe67 O75 1.997 . S
Fe67 O78 1.996 . S
Fe67 O82 1.976 . S
Fe67 O85 2.002 . S
O68 Fe66 1.918 . S
O68 Fe67 1.918 . S
O68 Fe69 1.918 . S
Fe69 O68 1.918 . S
Fe69 O70 2.002 . S
Fe69 O79 1.976 . S
Fe69 O83 1.996 . S
Fe69 O86 1.997 . S
O70 Fe69 2.002 . S
O70 C87 1.295 . S
O71 Fe66 1.997 . S
O71 C87 1.235 . S
O72 Fe66 2.002 . S
O72 C73 1.295 . S
C73 O72 1.295 . S
C73 O75 1.235 . S
C74 O79 1.287 . S
C74 O80 1.255 . S
O75 Fe67 1.997 . S
O75 C73 1.235 . S
C76 O82 1.287 . S
C76 O83 1.255 . S
O77 Fe66 1.976 . S
O77 C84 1.287 . S
O78 Fe67 1.996 . S
O78 C84 1.255 . S
O79 Fe69 1.976 . S
O79 C74 1.287 . S
O80 Fe66 1.996 . S
O80 C74 1.255 . S
C81 O85 1.295 . S
C81 O86 1.235 . S
O82 Fe67 1.976 . S
O82 C76 1.287 . S
O83 Fe69 1.996 . S
O83 C76 1.255 . S
C84 O77 1.287 . S
C84 O78 1.255 . S
O85 Fe67 2.002 . S
O85 C81 1.295 . S
O86 Fe69 1.997 . S
O86 C81 1.235 . S
C87 O70 1.295 . S
C87 O71 1.235 . S
Fe88 O90 1.918 . S
Fe88 O93 1.997 . S
Fe88 O94 2.002 . S
Fe88 O99 1.976 . S
Fe88 O102 1.996 . S
Fe89 O90 1.918 . S
Fe89 O97 1.997 . S
Fe89 O100 1.996 . S
Fe89 O104 1.976 . S
Fe89 O107 2.002 . S
O90 Fe88 1.918 . S
O90 Fe89 1.918 . S
O90 Fe91 1.918 . S
Fe91 O90 1.918 . S
Fe91 O92 2.002 . S
Fe91 O101 1.976 . S
Fe91 O105 1.996 . S
Fe91 O108 1.997 . S
O92 Fe91 2.002 . S
O92 C109 1.295 . S
O93 Fe88 1.997 . S
O93 C109 1.235 . S
O94 Fe88 2.002 . S
O94 C95 1.295 . S
C95 O94 1.295 . S
C95 O97 1.235 . S
C96 O101 1.287 . S
C96 O102 1.255 . S
O97 Fe89 1.997 . S
O97 C95 1.235 . S
C98 O104 1.287 . S
C98 O105 1.255 . S
O99 Fe88 1.976 . S
O99 C106 1.287 . S
O100 Fe89 1.996 . S
O100 C106 1.255 . S
O101 Fe91 1.976 . S
O101 C96 1.287 . S
O102 Fe88 1.996 . S
O102 C96 1.255 . S
C103 O107 1.295 . S
C103 O108 1.235 . S
O104 Fe89 1.976 . S
O104 C98 1.287 . S
O105 Fe91 1.996 . S
O105 C98 1.255 . S
C106 O99 1.287 . S
C106 O100 1.255 . S
O107 Fe89 2.002 . S
O107 C103 1.295 . S
O108 Fe91 1.997 . S
O108 C103 1.235 . S
C109 O92 1.295 . S
C109 O93 1.235 . S
Fe110 O112 1.918 . S
Fe110 O115 1.997 . S
Fe110 O116 2.002 . S
Fe110 O121 1.976 . S
Fe110 O124 1.996 . S
Fe111 O112 1.918 . S
Fe111 O119 1.997 . S
Fe111 O122 1.996 . S
Fe111 O126 1.976 . S
Fe111 O129 2.002 . S
O112 Fe110 1.918 . S
O112 Fe111 1.918 . S
O112 Fe113 1.918 . S
Fe113 O112 1.918 . S
Fe113 O114 2.002 . S
Fe113 O123 1.976 . S
Fe113 O127 1.996 . S
Fe113 O130 1.997 . S
O114 Fe113 2.002 . S
O114 C131 1.295 . S
O115 Fe110 1.997 . S
O115 C131 1.235 . S
O116 Fe110 2.002 . S
O116 C117 1.295 . S
C117 O116 1.295 . S
C117 O119 1.235 . S
C118 O123 1.287 . S
C118 O124 1.255 . S
O119 Fe111 1.997 . S
O119 C117 1.235 . S
C120 O126 1.287 . S
C120 O127 1.255 . S
O121 Fe110 1.976 . S
O121 C128 1.287 . S
O122 Fe111 1.996 . S
O122 C128 1.255 . S
O123 Fe113 1.976 . S
O123 C118 1.287 . S
O124 Fe110 1.996 . S
O124 C118 1.255 . S
C125 O129 1.295 . S
C125 O130 1.235 . S
O126 Fe111 1.976 . S
O126 C120 1.287 . S
O127 Fe113 1.996 . S
O127 C120 1.255 . S
C128 O121 1.287 . S
C128 O122 1.255 . S
O129 Fe111 2.002 . S
O129 C125 1.295 . S
O130 Fe113 1.997 . S
O130 C125 1.235 . S
C131 O114 1.295 . S
C131 O115 1.235 . S
Fe132 O134 1.918 . S
Fe132 O137 1.997 . S
Fe132 O138 2.002 . S
Fe132 O143 1.976 . S
Fe132 O146 1.996 . S
Fe133 O134 1.918 . S
Fe133 O141 1.997 . S
Fe133 O144 1.996 . S
Fe133 O148 1.976 . S
Fe133 O151 2.002 . S
O134 Fe132 1.918 . S
O134 Fe133 1.918 . S
O134 Fe135 1.918 . S
Fe135 O134 1.918 . S
Fe135 O136 2.002 . S
Fe135 O145 1.976 . S
Fe135 O149 1.996 . S
Fe135 O152 1.997 . S
O136 Fe135 2.002 . S
O136 C153 1.295 . S
O137 Fe132 1.997 . S
O137 C153 1.235 . S
O138 Fe132 2.002 . S
O138 C139 1.295 . S
C139 O138 1.295 . S
C139 O141 1.235 . S
C140 O145 1.287 . S
C140 O146 1.255 . S
O141 Fe133 1.997 . S
O141 C139 1.235 . S
C142 O148 1.287 . S
C142 O149 1.255 . S
O143 Fe132 1.976 . S
O143 C150 1.287 . S
O144 Fe133 1.996 . S
O144 C150 1.255 . S
O145 Fe135 1.976 . S
O145 C140 1.287 . S
O146 Fe132 1.996 . S
O146 C140 1.255 . S
C147 O151 1.295 . S
C147 O152 1.235 . S
O148 Fe133 1.976 . S
O148 C142 1.287 . S
O149 Fe135 1.996 . S
O149 C142 1.255 . S
C150 O143 1.287 . S
C150 O144 1.255 . S
O151 Fe133 2.002 . S
O151 C147 1.295 . S
O152 Fe135 1.997 . S
O152 C147 1.235 . S
C153 O136 1.295 . S
C153 O137 1.235 . S
Fe154 O156 1.918 . S
Fe154 O159 1.997 . S
Fe154 O160 2.002 . S
Fe154 O165 1.976 . S
Fe154 O168 1.996 . S
Fe155 O156 1.918 . S
Fe155 O163 1.997 . S
Fe155 O166 1.996 . S
Fe155 O170 1.976 . S
Fe155 O173 2.002 . S
O156 Fe154 1.918 . S
O156 Fe155 1.918 . S
O156 Fe157 1.918 . S
Fe157 O156 1.918 . S
Fe157 O158 2.002 . S
Fe157 O167 1.976 . S
Fe157 O171 1.996 . S
Fe157 O174 1.997 . S
O158 Fe157 2.002 . S
O158 C175 1.295 . S
O159 Fe154 1.997 . S
O159 C175 1.235 . S
O160 Fe154 2.002 . S
O160 C161 1.295 . S
C161 O160 1.295 . S
C161 O163 1.235 . S
C162 O167 1.287 . S
C162 O168 1.255 . S
O163 Fe155 1.997 . S
O163 C161 1.235 . S
C164 O170 1.287 . S
C164 O171 1.255 . S
O165 Fe154 1.976 . S
O165 C172 1.287 . S
O166 Fe155 1.996 . S
O166 C172 1.255 . S
O167 Fe157 1.976 . S
O167 C162 1.287 . S
O168 Fe154 1.996 . S
O168 C162 1.255 . S
C169 O173 1.295 . S
C169 O174 1.235 . S
O170 Fe155 1.976 . S
O170 C164 1.287 . S
O171 Fe157 1.996 . S
O171 C164 1.255 . S
C172 O165 1.287 . S
C172 O166 1.255 . S
O173 Fe155 2.002 . S
O173 C169 1.295 . S
O174 Fe157 1.997 . S
O174 C169 1.235 . S
C175 O158 1.295 . S
C175 O159 1.235 . S
Fe176 O178 1.918 . S
Fe176 O181 1.997 . S
Fe176 O182 2.002 . S
Fe176 O187 1.976 . S
Fe176 O190 1.996 . S
Fe177 O178 1.918 . S
Fe177 O185 1.997 . S
Fe177 O188 1.996 . S
Fe177 O192 1.976 . S
Fe177 O195 2.002 . S
O178 Fe176 1.918 . S
O178 Fe177 1.918 . S
O178 Fe179 1.918 . S
Fe179 O178 1.918 . S
Fe179 O180 2.002 . S
Fe179 O189 1.976 . S
Fe179 O193 1.996 . S
Fe179 O196 1.997 . S
O180 Fe179 2.002 . S
O180 C197 1.295 . S
O181 Fe176 1.997 . S
O181 C197 1.235 . S
O182 Fe176 2.002 . S
O182 C183 1.295 . S
C183 O182 1.295 . S
C183 O185 1.235 . S
C184 O189 1.287 . S
C184 O190 1.255 . S
O185 Fe177 1.997 . S
O185 C183 1.235 . S
C186 O192 1.287 . S
C186 O193 1.255 . S
O187 Fe176 1.976 . S
O187 C194 1.287 . S
O188 Fe177 1.996 . S
O188 C194 1.255 . S
O189 Fe179 1.976 . S
O189 C184 1.287 . S
O190 Fe176 1.996 . S
O190 C184 1.255 . S
C191 O195 1.295 . S
C191 O196 1.235 . S
O192 Fe177 1.976 . S
O192 C186 1.287 . S
O193 Fe179 1.996 . S
O193 C186 1.255 . S
C194 O187 1.287 . S
C194 O188 1.255 . S
O195 Fe177 2.002 . S
O195 C191 1.295 . S
O196 Fe179 1.997 . S
O196 C191 1.235 . S
C197 O180 1.295 . S
C197 O181 1.235 . S
Fe198 O200 1.918 . S
Fe198 O203 1.997 . S
Fe198 O204 2.002 . S
Fe198 O209 1.976 . S
Fe198 O212 1.996 . S
Fe199 O200 1.918 . S
Fe199 O207 1.997 . S
Fe199 O210 1.996 . S
Fe199 O214 1.976 . S
Fe199 O217 2.002 . S
O200 Fe198 1.918 . S
O200 Fe199 1.918 . S
O200 Fe201 1.918 . S
Fe201 O200 1.918 . S
Fe201 O202 2.002 . S
Fe201 O211 1.976 . S
Fe201 O215 1.996 . S
Fe201 O218 1.997 . S
O202 Fe201 2.002 . S
O202 C219 1.295 . S
O203 Fe198 1.997 . S
O203 C219 1.235 . S
O204 Fe198 2.002 . S
O204 C205 1.295 . S
C205 O204 1.295 . S
C205 O207 1.235 . S
C206 O211 1.287 . S
C206 O212 1.255 . S
O207 Fe199 1.997 . S
O207 C205 1.235 . S
C208 O214 1.287 . S
C208 O215 1.255 . S
O209 Fe198 1.976 . S
O209 C216 1.287 . S
O210 Fe199 1.996 . S
O210 C216 1.255 . S
O211 Fe201 1.976 . S
O211 C206 1.287 . S
O212 Fe198 1.996 . S
O212 C206 1.255 . S
C213 O217 1.295 . S
C213 O218 1.235 . S
O214 Fe199 1.976 . S
O214 C208 1.287 . S
O215 Fe201 1.996 . S
O215 C208 1.255 . S
C216 O209 1.287 . S
C216 O210 1.255 . S
O217 Fe199 2.002 . S
O217 C213 1.295 . S
O218 Fe201 1.997 . S
O218 C213 1.235 . S
C219 O202 1.295 . S
C219 O203 1.235 . S
Fe220 O222 1.918 . S
Fe220 O225 1.997 . S
Fe220 O226 2.002 . S
Fe220 O231 1.976 . S
Fe220 O234 1.996 . S
Fe221 O222 1.918 . S
Fe221 O229 1.997 . S
Fe221 O232 1.996 . S
Fe221 O236 1.976 . S
Fe221 O239 2.002 . S
O222 Fe220 1.918 . S
O222 Fe221 1.918 . S
O222 Fe223 1.918 . S
Fe223 O222 1.918 . S
Fe223 O224 2.002 . S
Fe223 O233 1.976 . S
Fe223 O237 1.996 . S
Fe223 O240 1.997 . S
O224 Fe223 2.002 . S
O224 C241 1.295 . S
O225 Fe220 1.997 . S
O225 C241 1.235 . S
O226 Fe220 2.002 . S
O226 C227 1.295 . S
C227 O226 1.295 . S
C227 O229 1.235 . S
C228 O233 1.287 . S
C228 O234 1.255 . S
O229 Fe221 1.997 . S
O229 C227 1.235 . S
C230 O236 1.287 . S
C230 O237 1.255 . S
O231 Fe220 1.976 . S
O231 C238 1.287 . S
O232 Fe221 1.996 . S
O232 C238 1.255 . S
O233 Fe223 1.976 . S
O233 C228 1.287 . S
O234 Fe220 1.996 . S
O234 C228 1.255 . S
C235 O239 1.295 . S
C235 O240 1.235 . S
O236 Fe221 1.976 . S
O236 C230 1.287 . S
O237 Fe223 1.996 . S
O237 C230 1.255 . S
C238 O231 1.287 . S
C238 O232 1.255 . S
O239 Fe221 2.002 . S
O239 C235 1.295 . S
O240 Fe223 1.997 . S
O240 C235 1.235 . S
C241 O224 1.295 . S
C241 O225 1.235 . S
Fe242 O244 1.918 . S
Fe242 O247 1.997 . S
Fe242 O248 2.002 . S
Fe242 O253 1.976 . S
Fe242 O256 1.996 . S
Fe243 O244 1.918 . S
Fe243 O251 1.997 . S
Fe243 O254 1.996 . S
Fe243 O258 1.976 . S
Fe243 O261 2.002 . S
O244 Fe242 1.918 . S
O244 Fe243 1.918 . S
O244 Fe245 1.918 . S
Fe245 O244 1.918 . S
Fe245 O246 2.002 . S
Fe245 O255 1.976 . S
Fe245 O259 1.996 . S
Fe245 O262 1.997 . S
O246 Fe245 2.002 . S
O246 C263 1.295 . S
O247 Fe242 1.997 . S
O247 C263 1.235 . S
O248 Fe242 2.002 . S
O248 C249 1.295 . S
C249 O248 1.295 . S
C249 O251 1.235 . S
C250 O255 1.287 . S
C250 O256 1.255 . S
O251 Fe243 1.997 . S
O251 C249 1.235 . S
C252 O258 1.287 . S
C252 O259 1.255 . S
O253 Fe242 1.976 . S
O253 C260 1.287 . S
O254 Fe243 1.996 . S
O254 C260 1.255 . S
O255 Fe245 1.976 . S
O255 C250 1.287 . S
O256 Fe242 1.996 . S
O256 C250 1.255 . S
C257 O261 1.295 . S
C257 O262 1.235 . S
O258 Fe243 1.976 . S
O258 C252 1.287 . S
O259 Fe245 1.996 . S
O259 C252 1.255 . S
C260 O253 1.287 . S
C260 O254 1.255 . S
O261 Fe243 2.002 . S
O261 C257 1.295 . S
O262 Fe245 1.997 . S
O262 C257 1.235 . S
C263 O246 1.295 . S
C263 O247 1.235 . S
Fe264 O266 1.918 . S
Fe264 O269 1.997 . S
Fe264 O270 2.002 . S
Fe264 O275 1.976 . S
Fe264 O278 1.996 . S
Fe265 O266 1.918 . S
Fe265 O273 1.997 . S
Fe265 O276 1.996 . S
Fe265 O280 1.976 . S
Fe265 O283 2.002 . S
O266 Fe264 1.918 . S
O266 Fe265 1.918 . S
O266 Fe267 1.918 . S
Fe267 O266 1.918 . S
Fe267 O268 2.002 . S
Fe267 O277 1.976 . S
Fe267 O281 1.996 . S
Fe267 O284 1.997 . S
O268 Fe267 2.002 . S
O268 C285 1.295 . S
O269 Fe264 1.997 . S
O269 C285 1.235 . S
O270 Fe264 2.002 . S
O270 C271 1.295 . S
C271 O270 1.295 . S
C271 O273 1.235 . S
C272 O277 1.287 . S
C272 O278 1.255 . S
O273 Fe265 1.997 . S
O273 C271 1.235 . S
C274 O280 1.287 . S
C274 O281 1.255 . S
O275 Fe264 1.976 . S
O275 C282 1.287 . S
O276 Fe265 1.996 . S
O276 C282 1.255 . S
O277 Fe267 1.976 . S
O277 C272 1.287 . S
O278 Fe264 1.996 . S
O278 C272 1.255 . S
C279 O283 1.295 . S
C279 O284 1.235 . S
O280 Fe265 1.976 . S
O280 C274 1.287 . S
O281 Fe267 1.996 . S
O281 C274 1.255 . S
C282 O275 1.287 . S
C282 O276 1.255 . S
O283 Fe265 2.002 . S
O283 C279 1.295 . S
O284 Fe267 1.997 . S
O284 C279 1.235 . S
C285 O268 1.295 . S
C285 O269 1.235 . S
Fe286 O288 1.918 . S
Fe286 O291 1.997 . S
Fe286 O292 2.002 . S
Fe286 O297 1.976 . S
Fe286 O300 1.996 . S
Fe287 O288 1.918 . S
Fe287 O295 1.997 . S
Fe287 O298 1.996 . S
Fe287 O302 1.976 . S
Fe287 O305 2.002 . S
O288 Fe286 1.918 . S
O288 Fe287 1.918 . S
O288 Fe289 1.918 . S
Fe289 O288 1.918 . S
Fe289 O290 2.002 . S
Fe289 O299 1.976 . S
Fe289 O303 1.996 . S
Fe289 O306 1.997 . S
O290 Fe289 2.002 . S
O290 C307 1.295 . S
O291 Fe286 1.997 . S
O291 C307 1.235 . S
O292 Fe286 2.002 . S
O292 C293 1.295 . S
C293 O292 1.295 . S
C293 O295 1.235 . S
C294 O299 1.287 . S
C294 O300 1.255 . S
O295 Fe287 1.997 . S
O295 C293 1.235 . S
C296 O302 1.287 . S
C296 O303 1.255 . S
O297 Fe286 1.976 . S
O297 C304 1.287 . S
O298 Fe287 1.996 . S
O298 C304 1.255 . S
O299 Fe289 1.976 . S
O299 C294 1.287 . S
O300 Fe286 1.996 . S
O300 C294 1.255 . S
C301 O305 1.295 . S
C301 O306 1.235 . S
O302 Fe287 1.976 . S
O302 C296 1.287 . S
O303 Fe289 1.996 . S
O303 C296 1.255 . S
C304 O297 1.287 . S
C304 O298 1.255 . S
O305 Fe287 2.002 . S
O305 C301 1.295 . S
O306 Fe289 1.997 . S
O306 C301 1.235 . S
C307 O290 1.295 . S
C307 O291 1.235 . S
Fe308 O310 1.918 . S
Fe308 O313 1.997 . S
Fe308 O314 2.002 . S
Fe308 O319 1.976 . S
Fe308 O322 1.996 . S
Fe309 O310 1.918 . S
Fe309 O317 1.997 . S
Fe309 O320 1.996 . S
Fe309 O324 1.976 . S
Fe309 O327 2.002 . S
O310 Fe308 1.918 . S
O310 Fe309 1.918 . S
O310 Fe311 1.918 . S
Fe311 O310 1.918 . S
Fe311 O312 2.002 . S
Fe311 O321 1.976 . S
Fe311 O325 1.996 . S
Fe311 O328 1.997 . S
O312 Fe311 2.002 . S
O312 C329 1.295 . S
O313 Fe308 1.997 . S
O313 C329 1.235 . S
O314 Fe308 2.002 . S
O314 C315 1.295 . S
C315 O314 1.295 . S
C315 O317 1.235 . S
C316 O321 1.287 . S
C316 O322 1.255 . S
O317 Fe309 1.997 . S
O317 C315 1.235 . S
C318 O324 1.287 . S
C318 O325 1.255 . S
O319 Fe308 1.976 . S
O319 C326 1.287 . S
O320 Fe309 1.996 . S
O320 C326 1.255 . S
O321 Fe311 1.976 . S
O321 C316 1.287 . S
O322 Fe308 1.996 . S
O322 C316 1.255 . S
C323 O327 1.295 . S
C323 O328 1.235 . S
O324 Fe309 1.976 . S
O324 C318 1.287 . S
O325 Fe311 1.996 . S
O325 C318 1.255 . S
C326 O319 1.287 . S
C326 O320 1.255 . S
O327 Fe309 2.002 . S
O327 C323 1.295 . S
O328 Fe311 1.997 . S
O328 C323 1.235 . S
C329 O312 1.295 . S
C329 O313 1.235 . S
Fe330 O332 1.918 . S
Fe330 O335 1.997 . S
Fe330 O336 2.002 . S
Fe330 O341 1.976 . S
Fe330 O344 1.996 . S
Fe331 O332 1.918 . S
Fe331 O339 1.997 . S
Fe331 O342 1.996 . S
Fe331 O346 1.976 . S
Fe331 O349 2.002 . S
O332 Fe330 1.918 . S
O332 Fe331 1.918 . S
O332 Fe333 1.918 . S
Fe333 O332 1.918 . S
Fe333 O334 2.002 . S
Fe333 O343 1.976 . S
Fe333 O347 1.996 . S
Fe333 O350 1.997 . S
O334 Fe333 2.002 . S
O334 C351 1.295 . S
O335 Fe330 1.997 . S
O335 C351 1.235 . S
O336 Fe330 2.002 . S
O336 C337 1.295 . S
C337 O336 1.295 . S
C337 O339 1.235 . S
C338 O343 1.287 . S
C338 O344 1.255 . S
O339 Fe331 1.997 . S
O339 C337 1.235 . S
C340 O346 1.287 . S
C340 O347 1.255 . S
O341 Fe330 1.976 . S
O341 C348 1.287 . S
O342 Fe331 1.996 . S
O342 C348 1.255 . S
O343 Fe333 1.976 . S
O343 C338 1.287 . S
O344 Fe330 1.996 . S
O344 C338 1.255 . S
C345 O349 1.295 . S
C345 O350 1.235 . S
O346 Fe331 1.976 . S
O346 C340 1.287 . S
O347 Fe333 1.996 . S
O347 C340 1.255 . S
C348 O341 1.287 . S
C348 O342 1.255 . S
O349 Fe331 2.002 . S
O349 C345 1.295 . S
O350 Fe333 1.997 . S
O350 C345 1.235 . S
C351 O334 1.295 . S
C351 O335 1.235 . S
H352 C358 0.930 . S
H353 C362 0.930 . S
H354 C367 0.929 . S
H355 C365 0.929 . S
H356 C360 0.929 . S
H357 C366 0.929 . S
C358 H352 0.930 . S
C358 C359 1.367 . S
C358 C366 1.378 . S
C359 C358 1.367 . S
C359 C367 1.433 . S
C360 H356 0.929 . S
C360 C362 1.378 . S
C360 C364 1.350 . S
C361 C364 1.463 . S
C361 C366 1.350 . S
C361 N369 1.427 . S
C362 H353 0.930 . S
C362 C360 1.378 . S
C362 C363 1.367 . S
C363 C362 1.367 . S
C363 C365 1.433 . S
C364 C360 1.350 . S
C364 C361 1.463 . S
C364 N368 1.427 . S
C365 H355 0.929 . S
C365 C363 1.433 . S
C365 N368 1.384 . S
C366 H357 0.929 . S
C366 C358 1.378 . S
C366 C361 1.350 . S
C367 H354 0.929 . S
C367 C359 1.433 . S
C367 N369 1.384 . S
N368 C364 1.427 . S
N368 C365 1.384 . S
N369 C361 1.427 . S
N369 C367 1.384 . S
H370 C376 0.930 . S
H371 C380 0.930 . S
H372 C385 0.929 . S
H373 C383 0.929 . S
H374 C378 0.929 . S
H375 C384 0.929 . S
C376 H370 0.930 . S
C376 C377 1.367 . S
C376 C384 1.378 . S
C377 C376 1.367 . S
C377 C385 1.433 . S
C378 H374 0.929 . S
C378 C380 1.378 . S
C378 C382 1.350 . S
C379 C382 1.463 . S
C379 C384 1.350 . S
C379 N387 1.427 . S
C380 H371 0.930 . S
C380 C378 1.378 . S
C380 C381 1.367 . S
C381 C380 1.367 . S
C381 C383 1.433 . S
C382 C378 1.350 . S
C382 C379 1.463 . S
C382 N386 1.427 . S
C383 H373 0.929 . S
C383 C381 1.433 . S
C383 N386 1.384 . S
C384 H375 0.929 . S
C384 C376 1.378 . S
C384 C379 1.350 . S
C385 H372 0.929 . S
C385 C377 1.433 . S
C385 N387 1.384 . S
N386 C382 1.427 . S
N386 C383 1.384 . S
N387 C379 1.427 . S
N387 C385 1.384 . S
H388 C394 0.930 . S
H389 C398 0.930 . S
H390 C403 0.929 . S
H391 C401 0.929 . S
H392 C396 0.929 . S
H393 C402 0.929 . S
C394 H388 0.930 . S
C394 C395 1.367 . S
C394 C402 1.378 . S
C395 C394 1.367 . S
C395 C403 1.433 . S
C396 H392 0.929 . S
C396 C398 1.378 . S
C396 C400 1.350 . S
C397 C400 1.463 . S
C397 C402 1.350 . S
C397 N405 1.427 . S
C398 H389 0.930 . S
C398 C396 1.378 . S
C398 C399 1.367 . S
C399 C398 1.367 . S
C399 C401 1.433 . S
C400 C396 1.350 . S
C400 C397 1.463 . S
C400 N404 1.427 . S
C401 H391 0.929 . S
C401 C399 1.433 . S
C401 N404 1.384 . S
C402 H393 0.929 . S
C402 C394 1.378 . S
C402 C397 1.350 . S
C403 H390 0.929 . S
C403 C395 1.433 . S
C403 N405 1.384 . S
N404 C400 1.427 . S
N404 C401 1.384 . S
N405 C397 1.427 . S
N405 C403 1.384 . S
H406 C412 0.930 . S
H407 C416 0.930 . S
H408 C421 0.929 . S
H409 C419 0.929 . S
H410 C414 0.929 . S
H411 C420 0.929 . S
C412 H406 0.930 . S
C412 C413 1.367 . S
C412 C420 1.378 . S
C413 C412 1.367 . S
C413 C421 1.433 . S
C414 H410 0.929 . S
C414 C416 1.378 . S
C414 C418 1.350 . S
C415 C418 1.463 . S
C415 C420 1.350 . S
C415 N423 1.427 . S
C416 H407 0.930 . S
C416 C414 1.378 . S
C416 C417 1.367 . S
C417 C416 1.367 . S
C417 C419 1.433 . S
C418 C414 1.350 . S
C418 C415 1.463 . S
C418 N422 1.427 . S
C419 H409 0.929 . S
C419 C417 1.433 . S
C419 N422 1.384 . S
C420 H411 0.929 . S
C420 C412 1.378 . S
C420 C415 1.350 . S
C421 H408 0.929 . S
C421 C413 1.433 . S
C421 N423 1.384 . S
N422 C418 1.427 . S
N422 C419 1.384 . S
N423 C415 1.427 . S
N423 C421 1.384 . S
H424 C430 0.930 . S
H425 C434 0.930 . S
H426 C439 0.929 . S
H427 C437 0.929 . S
H428 C432 0.929 . S
H429 C438 0.929 . S
C430 H424 0.930 . S
C430 C431 1.367 . S
C430 C438 1.378 . S
C431 C430 1.367 . S
C431 C439 1.433 . S
C432 H428 0.929 . S
C432 C434 1.378 . S
C432 C436 1.350 . S
C433 C436 1.463 . S
C433 C438 1.350 . S
C433 N441 1.427 . S
C434 H425 0.930 . S
C434 C432 1.378 . S
C434 C435 1.367 . S
C435 C434 1.367 . S
C435 C437 1.433 . S
C436 C432 1.350 . S
C436 C433 1.463 . S
C436 N440 1.427 . S
C437 H427 0.929 . S
C437 C435 1.433 . S
C437 N440 1.384 . S
C438 H429 0.929 . S
C438 C430 1.378 . S
C438 C433 1.350 . S
C439 H426 0.929 . S
C439 C431 1.433 . S
C439 N441 1.384 . S
N440 C436 1.427 . S
N440 C437 1.384 . S
N441 C433 1.427 . S
N441 C439 1.384 . S
H442 C448 0.930 . S
H443 C452 0.930 . S
H444 C457 0.929 . S
H445 C455 0.929 . S
H446 C450 0.929 . S
H447 C456 0.929 . S
C448 H442 0.930 . S
C448 C449 1.367 . S
C448 C456 1.378 . S
C449 C448 1.367 . S
C449 C457 1.433 . S
C450 H446 0.929 . S
C450 C452 1.378 . S
C450 C454 1.350 . S
C451 C454 1.463 . S
C451 C456 1.350 . S
C451 N459 1.427 . S
C452 H443 0.930 . S
C452 C450 1.378 . S
C452 C453 1.367 . S
C453 C452 1.367 . S
C453 C455 1.433 . S
C454 C450 1.350 . S
C454 C451 1.463 . S
C454 N458 1.427 . S
C455 H445 0.929 . S
C455 C453 1.433 . S
C455 N458 1.384 . S
C456 H447 0.929 . S
C456 C448 1.378 . S
C456 C451 1.350 . S
C457 H444 0.929 . S
C457 C449 1.433 . S
C457 N459 1.384 . S
N458 C454 1.427 . S
N458 C455 1.384 . S
N459 C451 1.427 . S
N459 C457 1.384 . S
H460 C466 0.930 . S
H461 C470 0.930 . S
H462 C475 0.929 . S
H463 C473 0.929 . S
H464 C468 0.929 . S
H465 C474 0.929 . S
C466 H460 0.930 . S
C466 C467 1.367 . S
C466 C474 1.378 . S
C467 C466 1.367 . S
C467 C475 1.433 . S
C468 H464 0.929 . S
C468 C470 1.378 . S
C468 C472 1.350 . S
C469 C472 1.463 . S
C469 C474 1.350 . S
C469 N477 1.427 . S
C470 H461 0.930 . S
C470 C468 1.378 . S
C470 C471 1.367 . S
C471 C470 1.367 . S
C471 C473 1.433 . S
C472 C468 1.350 . S
C472 C469 1.463 . S
C472 N476 1.427 . S
C473 H463 0.929 . S
C473 C471 1.433 . S
C473 N476 1.384 . S
C474 H465 0.929 . S
C474 C466 1.378 . S
C474 C469 1.350 . S
C475 H462 0.929 . S
C475 C467 1.433 . S
C475 N477 1.384 . S
N476 C472 1.427 . S
N476 C473 1.384 . S
N477 C469 1.427 . S
N477 C475 1.384 . S
H478 C484 0.930 . S
H479 C488 0.930 . S
H480 C493 0.929 . S
H481 C491 0.929 . S
H482 C486 0.929 . S
H483 C492 0.929 . S
C484 H478 0.930 . S
C484 C485 1.367 . S
C484 C492 1.378 . S
C485 C484 1.367 . S
C485 C493 1.433 . S
C486 H482 0.929 . S
C486 C488 1.378 . S
C486 C490 1.350 . S
C487 C490 1.463 . S
C487 C492 1.350 . S
C487 N495 1.427 . S
C488 H479 0.930 . S
C488 C486 1.378 . S
C488 C489 1.367 . S
C489 C488 1.367 . S
C489 C491 1.433 . S
C490 C486 1.350 . S
C490 C487 1.463 . S
C490 N494 1.427 . S
C491 H481 0.929 . S
C491 C489 1.433 . S
C491 N494 1.384 . S
C492 H483 0.929 . S
C492 C484 1.378 . S
C492 C487 1.350 . S
C493 H480 0.929 . S
C493 C485 1.433 . S
C493 N495 1.384 . S
N494 C490 1.427 . S
N494 C491 1.384 . S
N495 C487 1.427 . S
N495 C493 1.384 . S
H496 C502 0.930 . S
H497 C506 0.930 . S
H498 C511 0.929 . S
H499 C509 0.929 . S
H500 C504 0.929 . S
H501 C510 0.929 . S
C502 H496 0.930 . S
C502 C503 1.367 . S
C502 C510 1.378 . S
C503 C502 1.367 . S
C503 C511 1.433 . S
C504 H500 0.929 . S
C504 C506 1.378 . S
C504 C508 1.350 . S
C505 C508 1.463 . S
C505 C510 1.350 . S
C505 N513 1.427 . S
C506 H497 0.930 . S
C506 C504 1.378 . S
C506 C507 1.367 . S
C507 C506 1.367 . S
C507 C509 1.433 . S
C508 C504 1.350 . S
C508 C505 1.463 . S
C508 N512 1.427 . S
C509 H499 0.929 . S
C509 C507 1.433 . S
C509 N512 1.384 . S
C510 H501 0.929 . S
C510 C502 1.378 . S
C510 C505 1.350 . S
C511 H498 0.929 . S
C511 C503 1.433 . S
C511 N513 1.384 . S
N512 C508 1.427 . S
N512 C509 1.384 . S
N513 C505 1.427 . S
N513 C511 1.384 . S
H514 C520 0.930 . S
H515 C524 0.930 . S
H516 C529 0.929 . S
H517 C527 0.929 . S
H518 C522 0.929 . S
H519 C528 0.929 . S
C520 H514 0.930 . S
C520 C521 1.367 . S
C520 C528 1.378 . S
C521 C520 1.367 . S
C521 C529 1.433 . S
C522 H518 0.929 . S
C522 C524 1.378 . S
C522 C526 1.350 . S
C523 C526 1.463 . S
C523 C528 1.350 . S
C523 N531 1.427 . S
C524 H515 0.930 . S
C524 C522 1.378 . S
C524 C525 1.367 . S
C525 C524 1.367 . S
C525 C527 1.433 . S
C526 C522 1.350 . S
C526 C523 1.463 . S
C526 N530 1.427 . S
C527 H517 0.929 . S
C527 C525 1.433 . S
C527 N530 1.384 . S
C528 H519 0.929 . S
C528 C520 1.378 . S
C528 C523 1.350 . S
C529 H516 0.929 . S
C529 C521 1.433 . S
C529 N531 1.384 . S
N530 C526 1.427 . S
N530 C527 1.384 . S
N531 C523 1.427 . S
N531 C529 1.384 . S
H532 C538 0.930 . S
H533 C542 0.930 . S
H534 C547 0.929 . S
H535 C545 0.929 . S
H536 C540 0.929 . S
H537 C546 0.929 . S
C538 H532 0.930 . S
C538 C539 1.367 . S
C538 C546 1.378 . S
C539 C538 1.367 . S
C539 C547 1.433 . S
C540 H536 0.929 . S
C540 C542 1.378 . S
C540 C544 1.350 . S
C541 C544 1.463 . S
C541 C546 1.350 . S
C541 N549 1.427 . S
C542 H533 0.930 . S
C542 C540 1.378 . S
C542 C543 1.367 . S
C543 C542 1.367 . S
C543 C545 1.433 . S
C544 C540 1.350 . S
C544 C541 1.463 . S
C544 N548 1.427 . S
C545 H535 0.929 . S
C545 C543 1.433 . S
C545 N548 1.384 . S
C546 H537 0.929 . S
C546 C538 1.378 . S
C546 C541 1.350 . S
C547 H534 0.929 . S
C547 C539 1.433 . S
C547 N549 1.384 . S
N548 C544 1.427 . S
N548 C545 1.384 . S
N549 C541 1.427 . S
N549 C547 1.384 . S
H550 C556 0.930 . S
H551 C560 0.930 . S
H552 C565 0.929 . S
H553 C563 0.929 . S
H554 C558 0.929 . S
H555 C564 0.929 . S
C556 H550 0.930 . S
C556 C557 1.367 . S
C556 C564 1.378 . S
C557 C556 1.367 . S
C557 C565 1.433 . S
C558 H554 0.929 . S
C558 C560 1.378 . S
C558 C562 1.350 . S
C559 C562 1.463 . S
C559 C564 1.350 . S
C559 N567 1.427 . S
C560 H551 0.930 . S
C560 C558 1.378 . S
C560 C561 1.367 . S
C561 C560 1.367 . S
C561 C563 1.433 . S
C562 C558 1.350 . S
C562 C559 1.463 . S
C562 N566 1.427 . S
C563 H553 0.929 . S
C563 C561 1.433 . S
C563 N566 1.384 . S
C564 H555 0.929 . S
C564 C556 1.378 . S
C564 C559 1.350 . S
C565 H552 0.929 . S
C565 C557 1.433 . S
C565 N567 1.384 . S
N566 C562 1.427 . S
N566 C563 1.384 . S
N567 C559 1.427 . S
N567 C565 1.384 . S
H568 C574 0.930 . S
H569 C578 0.930 . S
H570 C583 0.929 . S
H571 C581 0.929 . S
H572 C576 0.929 . S
H573 C582 0.929 . S
C574 H568 0.930 . S
C574 C575 1.367 . S
C574 C582 1.378 . S
C575 C574 1.367 . S
C575 C583 1.433 . S
C576 H572 0.929 . S
C576 C578 1.378 . S
C576 C580 1.350 . S
C577 C580 1.463 . S
C577 C582 1.350 . S
C577 N585 1.427 . S
C578 H569 0.930 . S
C578 C576 1.378 . S
C578 C579 1.367 . S
C579 C578 1.367 . S
C579 C581 1.433 . S
C580 C576 1.350 . S
C580 C577 1.463 . S
C580 N584 1.427 . S
C581 H571 0.929 . S
C581 C579 1.433 . S
C581 N584 1.384 . S
C582 H573 0.929 . S
C582 C574 1.378 . S
C582 C577 1.350 . S
C583 H570 0.929 . S
C583 C575 1.433 . S
C583 N585 1.384 . S
N584 C580 1.427 . S
N584 C581 1.384 . S
N585 C577 1.427 . S
N585 C583 1.384 . S
H586 C592 0.930 . S
H587 C596 0.930 . S
H588 C601 0.929 . S
H589 C599 0.929 . S
H590 C594 0.929 . S
H591 C600 0.929 . S
C592 H586 0.930 . S
C592 C593 1.367 . S
C592 C600 1.378 . S
C593 C592 1.367 . S
C593 C601 1.433 . S
C594 H590 0.929 . S
C594 C596 1.378 . S
C594 C598 1.350 . S
C595 C598 1.463 . S
C595 C600 1.350 . S
C595 N603 1.427 . S
C596 H587 0.930 . S
C596 C594 1.378 . S
C596 C597 1.367 . S
C597 C596 1.367 . S
C597 C599 1.433 . S
C598 C594 1.350 . S
C598 C595 1.463 . S
C598 N602 1.427 . S
C599 H589 0.929 . S
C599 C597 1.433 . S
C599 N602 1.384 . S
C600 H591 0.929 . S
C600 C592 1.378 . S
C600 C595 1.350 . S
C601 H588 0.929 . S
C601 C593 1.433 . S
C601 N603 1.384 . S
N602 C598 1.427 . S
N602 C599 1.384 . S
N603 C595 1.427 . S
N603 C601 1.384 . S
H604 C610 0.930 . S
H605 C614 0.930 . S
H606 C619 0.929 . S
H607 C617 0.929 . S
H608 C612 0.929 . S
H609 C618 0.929 . S
C610 H604 0.930 . S
C610 C611 1.367 . S
C610 C618 1.378 . S
C611 C610 1.367 . S
C611 C619 1.433 . S
C612 H608 0.929 . S
C612 C614 1.378 . S
C612 C616 1.350 . S
C613 C616 1.463 . S
C613 C618 1.350 . S
C613 N621 1.427 . S
C614 H605 0.930 . S
C614 C612 1.378 . S
C614 C615 1.367 . S
C615 C614 1.367 . S
C615 C617 1.433 . S
C616 C612 1.350 . S
C616 C613 1.463 . S
C616 N620 1.427 . S
C617 H607 0.929 . S
C617 C615 1.433 . S
C617 N620 1.384 . S
C618 H609 0.929 . S
C618 C610 1.378 . S
C618 C613 1.350 . S
C619 H606 0.929 . S
C619 C611 1.433 . S
C619 N621 1.384 . S
N620 C616 1.427 . S
N620 C617 1.384 . S
N621 C613 1.427 . S
N621 C619 1.384 . S
H622 C628 0.930 . S
H623 C632 0.930 . S
H624 C637 0.929 . S
H625 C635 0.929 . S
H626 C630 0.929 . S
H627 C636 0.929 . S
C628 H622 0.930 . S
C628 C629 1.367 . S
C628 C636 1.378 . S
C629 C628 1.367 . S
C629 C637 1.433 . S
C630 H626 0.929 . S
C630 C632 1.378 . S
C630 C634 1.350 . S
C631 C634 1.463 . S
C631 C636 1.350 . S
C631 N639 1.427 . S
C632 H623 0.930 . S
C632 C630 1.378 . S
C632 C633 1.367 . S
C633 C632 1.367 . S
C633 C635 1.433 . S
C634 C630 1.350 . S
C634 C631 1.463 . S
C634 N638 1.427 . S
C635 H625 0.929 . S
C635 C633 1.433 . S
C635 N638 1.384 . S
C636 H627 0.929 . S
C636 C628 1.378 . S
C636 C631 1.350 . S
C637 H624 0.929 . S
C637 C629 1.433 . S
C637 N639 1.384 . S
N638 C634 1.427 . S
N638 C635 1.384 . S
N639 C631 1.427 . S
N639 C637 1.384 . S
H640 C646 0.930 . S
H641 C650 0.930 . S
H642 C655 0.929 . S
H643 C653 0.929 . S
H644 C648 0.929 . S
H645 C654 0.929 . S
C646 H640 0.930 . S
C646 C647 1.367 . S
C646 C654 1.378 1_554 S
C647 C646 1.367 . S
C647 C655 1.433 . S
C648 H644 0.929 . S
C648 C650 1.378 . S
C648 C652 1.350 . S
C649 C652 1.463 . S
C649 C654 1.350 . S
C649 N657 1.428 1_556 S
C650 H641 0.930 . S
C650 C648 1.378 . S
C650 C651 1.367 . S
C651 C650 1.367 . S
C651 C653 1.433 . S
C652 C648 1.350 . S
C652 C649 1.463 . S
C652 N656 1.427 . S
C653 H643 0.929 . S
C653 C651 1.433 . S
C653 N656 1.384 . S
C654 H645 0.929 . S
C654 C646 1.378 1_556 S
C654 C649 1.350 . S
C655 H642 0.929 . S
C655 C647 1.433 . S
C655 N657 1.382 . S
N656 C652 1.427 . S
N656 C653 1.384 . S
N657 C649 1.428 1_554 S
N657 C655 1.382 . S
H658 C664 0.930 . S
H659 C668 0.930 . S
H660 C673 0.929 . S
H661 C671 0.929 . S
H662 C666 0.929 . S
H663 C672 0.929 . S
C664 H658 0.930 . S
C664 C665 1.367 . S
C664 C672 1.378 . S
C665 C664 1.367 . S
C665 C673 1.433 . S
C666 H662 0.929 . S
C666 C668 1.378 . S
C666 C670 1.350 . S
C667 C670 1.463 . S
C667 C672 1.350 . S
C667 N675 1.427 . S
C668 H659 0.930 . S
C668 C666 1.378 . S
C668 C669 1.367 . S
C669 C668 1.367 . S
C669 C671 1.433 . S
C670 C666 1.350 . S
C670 C667 1.463 . S
C670 N674 1.427 . S
C671 H661 0.929 . S
C671 C669 1.433 . S
C671 N674 1.384 . S
C672 H663 0.929 . S
C672 C664 1.378 . S
C672 C667 1.350 . S
C673 H660 0.929 . S
C673 C665 1.433 . S
C673 N675 1.384 . S
N674 C670 1.427 . S
N674 C671 1.384 . S
N675 C667 1.427 . S
N675 C673 1.384 . S
H676 C682 0.930 . S
H677 C686 0.930 . S
H678 C691 0.929 . S
H679 C689 0.929 . S
H680 C684 0.929 . S
H681 C690 0.929 . S
C682 H676 0.930 . S
C682 C683 1.367 . S
C682 C690 1.378 1_554 S
C683 C682 1.367 . S
C683 C691 1.433 . S
C684 H680 0.929 . S
C684 C686 1.378 . S
C684 C688 1.350 . S
C685 C688 1.463 . S
C685 C690 1.350 . S
C685 N693 1.427 1_556 S
C686 H677 0.930 . S
C686 C684 1.378 . S
C686 C687 1.367 . S
C687 C686 1.367 . S
C687 C689 1.433 . S
C688 C684 1.350 . S
C688 C685 1.463 . S
C688 N692 1.427 . S
C689 H679 0.929 . S
C689 C687 1.433 . S
C689 N692 1.384 . S
C690 H681 0.929 . S
C690 C682 1.378 1_556 S
C690 C685 1.350 . S
C691 H678 0.929 . S
C691 C683 1.433 . S
C691 N693 1.384 . S
N692 C688 1.427 . S
N692 C689 1.384 . S
N693 C685 1.427 1_554 S
N693 C691 1.384 . S
H694 C700 0.930 . S
H695 C704 0.930 . S
H696 C709 0.929 . S
H697 C707 0.929 . S
H698 C702 0.929 . S
H699 C708 0.929 . S
C700 H694 0.930 . S
C700 C701 1.367 . S
C700 C708 1.378 . S
C701 C700 1.367 . S
C701 C709 1.433 . S
C702 H698 0.929 . S
C702 C704 1.378 . S
C702 C706 1.350 . S
C703 C706 1.463 . S
C703 C708 1.350 . S
C703 N711 1.427 . S
C704 H695 0.930 . S
C704 C702 1.378 . S
C704 C705 1.367 . S
C705 C704 1.367 . S
C705 C707 1.433 . S
C706 C702 1.350 . S
C706 C703 1.463 . S
C706 N710 1.427 . S
C707 H697 0.929 . S
C707 C705 1.433 . S
C707 N710 1.384 . S
C708 H699 0.929 . S
C708 C700 1.378 . S
C708 C703 1.350 . S
C709 H696 0.929 . S
C709 C701 1.433 . S
C709 N711 1.384 . S
N710 C706 1.427 . S
N710 C707 1.384 . S
N711 C703 1.427 . S
N711 C709 1.384 . S
H712 C718 0.930 . S
H713 C722 0.930 . S
H714 C727 0.929 . S
H715 C725 0.929 . S
H716 C720 0.929 . S
H717 C726 0.929 . S
C718 H712 0.930 . S
C718 C719 1.367 . S
C718 C726 1.378 1_556 S
C719 C718 1.367 . S
C719 C727 1.433 . S
C720 H716 0.929 . S
C720 C722 1.378 . S
C720 C724 1.350 . S
C721 C724 1.463 . S
C721 C726 1.350 . S
C721 N729 1.419 1_554 S
C722 H713 0.930 . S
C722 C720 1.378 . S
C722 C723 1.367 . S
C723 C722 1.367 . S
C723 C725 1.433 . S
C724 C720 1.350 . S
C724 C721 1.463 . S
C724 N728 1.427 . S
C725 H715 0.929 . S
C725 C723 1.433 . S
C725 N728 1.384 . S
C726 H717 0.929 . S
C726 C718 1.378 1_554 S
C726 C721 1.350 . S
C727 H714 0.929 . S
C727 C719 1.433 . S
C727 N729 1.398 . S
N728 C724 1.427 . S
N728 C725 1.384 . S
N729 C721 1.419 1_556 S
N729 C727 1.398 . S
H730 C736 0.930 . S
H731 C740 0.930 . S
H732 C745 0.929 . S
H733 C743 0.929 . S
H734 C738 0.929 . S
H735 C744 0.929 . S
C736 H730 0.930 . S
C736 C737 1.367 . S
C736 C744 1.378 . S
C737 C736 1.367 . S
C737 C745 1.433 . S
C738 H734 0.929 . S
C738 C740 1.378 . S
C738 C742 1.350 . S
C739 C742 1.463 . S
C739 C744 1.350 . S
C739 N747 1.427 . S
C740 H731 0.930 . S
C740 C738 1.378 . S
C740 C741 1.367 . S
C741 C740 1.367 . S
C741 C743 1.433 . S
C742 C738 1.350 . S
C742 C739 1.463 . S
C742 N746 1.427 . S
C743 H733 0.929 . S
C743 C741 1.433 . S
C743 N746 1.384 . S
C744 H735 0.929 . S
C744 C736 1.378 . S
C744 C739 1.350 . S
C745 H732 0.929 . S
C745 C737 1.433 . S
C745 N747 1.384 . S
N746 C742 1.427 . S
N746 C743 1.384 . S
N747 C739 1.427 . S
N747 C745 1.384 . S
H748 C754 0.930 . S
H749 C758 0.930 . S
H750 C763 0.929 . S
H751 C761 0.929 . S
H752 C756 0.929 . S
H753 C762 0.929 . S
C754 H748 0.930 . S
C754 C755 1.367 . S
C754 C762 1.378 1_556 S
C755 C754 1.367 . S
C755 C763 1.433 . S
C756 H752 0.929 . S
C756 C758 1.378 . S
C756 C760 1.350 . S
C757 C760 1.463 . S
C757 C762 1.350 . S
C757 N765 1.427 1_554 S
C758 H749 0.930 . S
C758 C756 1.378 . S
C758 C759 1.367 . S
C759 C758 1.367 . S
C759 C761 1.433 . S
C760 C756 1.350 . S
C760 C757 1.463 . S
C760 N764 1.427 . S
C761 H751 0.929 . S
C761 C759 1.433 . S
C761 N764 1.384 . S
C762 H753 0.929 . S
C762 C754 1.378 1_554 S
C762 C757 1.350 . S
C763 H750 0.929 . S
C763 C755 1.433 . S
C763 N765 1.384 . S
N764 C760 1.427 . S
N764 C761 1.384 . S
N765 C757 1.427 1_556 S
N765 C763 1.384 . S
H766 C772 0.930 . S
H767 C776 0.930 . S
H768 C781 0.929 . S
H769 C779 0.929 . S
H770 C774 0.929 . S
H771 C780 0.929 . S
C772 H766 0.930 . S
C772 C773 1.367 . S
C772 C780 1.378 . S
C773 C772 1.367 . S
C773 C781 1.433 . S
C774 H770 0.929 . S
C774 C776 1.378 . S
C774 C778 1.350 . S
C775 C778 1.463 . S
C775 C780 1.350 . S
C775 N783 1.427 . S
C776 H767 0.930 . S
C776 C774 1.378 . S
C776 C777 1.367 . S
C777 C776 1.367 . S
C777 C779 1.433 . S
C778 C774 1.350 . S
C778 C775 1.463 . S
C778 N782 1.427 . S
C779 H769 0.929 . S
C779 C777 1.433 . S
C779 N782 1.384 . S
C780 H771 0.929 . S
C780 C772 1.378 . S
C780 C775 1.350 . S
C781 H768 0.929 . S
C781 C773 1.433 . S
C781 N783 1.384 . S
N782 C778 1.427 . S
N782 C779 1.384 . S
N783 C775 1.427 . S
N783 C781 1.384 . S
H784 C790 0.930 . S
H785 C794 0.930 . S
H786 C799 0.929 . S
H787 C797 0.929 . S
H788 C792 0.929 . S
H789 C798 0.929 . S
C790 H784 0.930 . S
C790 C791 1.367 . S
C790 C798 1.378 1_556 S
C791 C790 1.367 . S
C791 C799 1.433 . S
C792 H788 0.929 . S
C792 C794 1.378 . S
C792 C796 1.350 . S
C793 C796 1.463 . S
C793 C798 1.350 . S
C793 N801 1.430 . S
C794 H785 0.930 . S
C794 C792 1.378 . S
C794 C795 1.367 . S
C795 C794 1.367 . S
C795 C797 1.433 . S
C796 C792 1.350 . S
C796 C793 1.463 . S
C796 N800 1.427 . S
C797 H787 0.929 . S
C797 C795 1.433 . S
C797 N800 1.384 . S
C798 H789 0.929 . S
C798 C790 1.378 1_554 S
C798 C793 1.350 . S
C799 H786 0.929 . S
C799 C791 1.433 . S
C799 N801 1.378 1_556 S
N800 C796 1.427 . S
N800 C797 1.384 . S
N801 C793 1.430 . S
N801 C799 1.378 1_554 S
H802 C808 0.930 . S
H803 C812 0.930 . S
H804 C817 0.929 . S
H805 C815 0.929 . S
H806 C810 0.929 . S
H807 C816 0.929 . S
C808 H802 0.930 . S
C808 C809 1.367 . S
C808 C816 1.378 . S
C809 C808 1.367 . S
C809 C817 1.433 . S
C810 H806 0.929 . S
C810 C812 1.378 . S
C810 C814 1.350 . S
C811 C814 1.463 . S
C811 C816 1.350 . S
C811 N819 1.427 . S
C812 H803 0.930 . S
C812 C810 1.378 . S
C812 C813 1.367 . S
C813 C812 1.367 . S
C813 C815 1.433 . S
C814 C810 1.350 . S
C814 C811 1.463 . S
C814 N818 1.427 . S
C815 H805 0.929 . S
C815 C813 1.433 . S
C815 N818 1.384 . S
C816 H807 0.929 . S
C816 C808 1.378 . S
C816 C811 1.350 . S
C817 H804 0.929 . S
C817 C809 1.433 . S
C817 N819 1.384 . S
N818 C814 1.427 . S
N818 C815 1.384 . S
N819 C811 1.427 . S
N819 C817 1.384 . S
H820 C826 0.930 . S
H821 C830 0.930 . S
H822 C835 0.929 . S
H823 C833 0.929 . S
H824 C828 0.929 . S
H825 C834 0.929 . S
C826 H820 0.930 . S
C826 C827 1.367 . S
C826 C834 1.378 . S
C827 C826 1.367 . S
C827 C835 1.433 . S
C828 H824 0.929 . S
C828 C830 1.378 . S
C828 C832 1.350 . S
C829 C832 1.463 . S
C829 C834 1.350 1_554 S
C829 N837 1.427 . S
C830 H821 0.930 . S
C830 C828 1.378 . S
C830 C831 1.367 . S
C831 C830 1.367 . S
C831 C833 1.433 . S
C832 C828 1.350 . S
C832 C829 1.463 . S
C832 N836 1.427 . S
C833 H823 0.929 . S
C833 C831 1.433 . S
C833 N836 1.384 . S
C834 H825 0.929 . S
C834 C826 1.378 . S
C834 C829 1.350 1_556 S
C835 H822 0.929 . S
C835 C827 1.433 . S
C835 N837 1.384 1_556 S
N836 C832 1.427 . S
N836 C833 1.384 . S
N837 C829 1.427 . S
N837 C835 1.384 1_554 S
H838 C844 0.930 . S
H839 C848 0.930 . S
H840 C853 0.929 . S
H841 C851 0.929 . S
H842 C846 0.929 . S
H843 C852 0.929 . S
C844 H838 0.930 . S
C844 C845 1.367 . S
C844 C852 1.378 . S
C845 C844 1.367 . S
C845 C853 1.433 . S
C846 H842 0.929 . S
C846 C848 1.378 . S
C846 C850 1.350 . S
C847 C850 1.463 . S
C847 C852 1.350 . S
C847 N855 1.427 . S
C848 H839 0.930 . S
C848 C846 1.378 . S
C848 C849 1.367 . S
C849 C848 1.367 . S
C849 C851 1.433 . S
C850 C846 1.350 . S
C850 C847 1.463 . S
C850 N854 1.427 . S
C851 H841 0.929 . S
C851 C849 1.433 . S
C851 N854 1.384 . S
C852 H843 0.929 . S
C852 C844 1.378 . S
C852 C847 1.350 . S
C853 H840 0.929 . S
C853 C845 1.433 . S
C853 N855 1.384 . S
N854 C850 1.427 . S
N854 C851 1.384 . S
N855 C847 1.427 . S
N855 C853 1.384 . S
H856 C862 0.930 . S
H857 C866 0.930 . S
H858 C871 0.929 . S
H859 C869 0.929 . S
H860 C864 0.929 . S
H861 C870 0.929 . S
C862 H856 0.930 . S
C862 C863 1.367 . S
C862 C870 1.378 . S
C863 C862 1.367 . S
C863 C871 1.433 . S
C864 H860 0.929 . S
C864 C866 1.378 1_556 S
C864 C868 1.350 . S
C865 C868 1.463 . S
C865 C870 1.350 . S
C865 N873 1.427 . S
C866 H857 0.930 . S
C866 C864 1.378 1_554 S
C866 C867 1.367 . S
C867 C866 1.367 . S
C867 C869 1.433 . S
C868 C864 1.350 . S
C868 C865 1.463 . S
C868 N872 1.427 1_556 S
C869 H859 0.929 . S
C869 C867 1.433 . S
C869 N872 1.384 . S
C870 H861 0.929 . S
C870 C862 1.378 . S
C870 C865 1.350 . S
C871 H858 0.929 . S
C871 C863 1.433 . S
C871 N873 1.384 . S
N872 C868 1.427 1_554 S
N872 C869 1.384 . S
N873 C865 1.427 . S
N873 C871 1.384 . S
H874 C880 0.930 . S
H875 C884 0.930 . S
H876 C889 0.929 . S
H877 C887 0.929 . S
H878 C882 0.929 . S
H879 C888 0.929 . S
C880 H874 0.930 . S
C880 C881 1.367 . S
C880 C888 1.378 . S
C881 C880 1.367 . S
C881 C889 1.433 . S
C882 H878 0.929 . S
C882 C884 1.378 . S
C882 C886 1.350 . S
C883 C886 1.463 . S
C883 C888 1.350 . S
C883 N891 1.427 . S
C884 H875 0.930 . S
C884 C882 1.378 . S
C884 C885 1.367 . S
C885 C884 1.367 . S
C885 C887 1.433 . S
C886 C882 1.350 . S
C886 C883 1.463 . S
C886 N890 1.427 . S
C887 H877 0.929 . S
C887 C885 1.433 . S
C887 N890 1.384 . S
C888 H879 0.929 . S
C888 C880 1.378 . S
C888 C883 1.350 . S
C889 H876 0.929 . S
C889 C881 1.433 . S
C889 N891 1.384 . S
N890 C886 1.427 . S
N890 C887 1.384 . S
N891 C883 1.427 . S
N891 C889 1.384 . S
H892 C898 0.930 . S
H893 C902 0.930 . S
H894 C907 0.929 . S
H895 C905 0.929 . S
H896 C900 0.929 . S
H897 C906 0.929 . S
C898 H892 0.930 . S
C898 C899 1.367 . S
C898 C906 1.378 . S
C899 C898 1.367 . S
C899 C907 1.433 . S
C900 H896 0.929 . S
C900 C902 1.378 . S
C900 C904 1.350 1_554 S
C901 C904 1.463 . S
C901 C906 1.350 . S
C901 N909 1.427 . S
C902 H893 0.930 . S
C902 C900 1.378 . S
C902 C903 1.367 . S
C903 C902 1.367 . S
C903 C905 1.433 . S
C904 C900 1.350 1_556 S
C904 C901 1.463 . S
C904 N908 1.427 . S
C905 H895 0.929 . S
C905 C903 1.433 . S
C905 N908 1.384 1_554 S
C906 H897 0.929 . S
C906 C898 1.378 . S
C906 C901 1.350 . S
C907 H894 0.929 . S
C907 C899 1.433 . S
C907 N909 1.384 . S
N908 C904 1.427 . S
N908 C905 1.384 1_556 S
N909 C901 1.427 . S
N909 C907 1.384 . S
H910 C916 0.930 . S
H911 C920 0.930 . S
H912 C925 0.929 . S
H913 C923 0.929 . S
H914 C918 0.929 . S
H915 C924 0.929 . S
C916 H910 0.930 . S
C916 C917 1.367 . S
C916 C924 1.378 . S
C917 C916 1.367 . S
C917 C925 1.433 . S
C918 H914 0.929 . S
C918 C920 1.378 . S
C918 C922 1.350 . S
C919 C922 1.463 . S
C919 C924 1.350 . S
C919 N927 1.427 . S
C920 H911 0.930 . S
C920 C918 1.378 . S
C920 C921 1.367 . S
C921 C920 1.367 . S
C921 C923 1.433 . S
C922 C918 1.350 . S
C922 C919 1.463 . S
C922 N926 1.427 . S
C923 H913 0.929 . S
C923 C921 1.433 . S
C923 N926 1.384 . S
C924 H915 0.929 . S
C924 C916 1.378 . S
C924 C919 1.350 . S
C925 H912 0.929 . S
C925 C917 1.433 . S
C925 N927 1.384 . S
N926 C922 1.427 . S
N926 C923 1.384 . S
N927 C919 1.427 . S
N927 C925 1.384 . S
H928 C934 0.930 1_565 S
H929 C938 0.930 . S
H930 C943 0.929 . S
H931 C941 0.929 . S
H932 C936 0.929 . S
H933 C942 0.929 . S
C934 H928 0.930 1_545 S
C934 C935 1.367 . S
C934 C942 1.378 . S
C935 C934 1.367 . S
C935 C943 1.433 . S
C936 H932 0.929 . S
C936 C938 1.378 . S
C936 C940 1.350 . S
C937 C940 1.463 . S
C937 C942 1.350 . S
C937 N945 1.427 . S
C938 H929 0.930 . S
C938 C936 1.378 . S
C938 C939 1.367 . S
C939 C938 1.367 . S
C939 C941 1.433 . S
C940 C936 1.350 . S
C940 C937 1.463 . S
C940 N944 1.427 . S
C941 H931 0.929 . S
C941 C939 1.433 . S
C941 N944 1.384 . S
C942 H933 0.929 . S
C942 C934 1.378 . S
C942 C937 1.350 . S
C943 H930 0.929 . S
C943 C935 1.433 . S
C943 N945 1.384 . S
N944 C940 1.427 . S
N944 C941 1.384 . S
N945 C937 1.427 . S
N945 C943 1.384 . S
H946 C952 0.930 . S
H947 C956 0.930 . S
H948 C961 0.929 . S
H949 C959 0.929 . S
H950 C954 0.929 . S
H951 C960 0.929 . S
C952 H946 0.930 . S
C952 C953 1.367 . S
C952 C960 1.378 . S
C953 C952 1.367 . S
C953 C961 1.433 . S
C954 H950 0.929 . S
C954 C956 1.378 . S
C954 C958 1.350 . S
C955 C958 1.463 . S
C955 C960 1.350 . S
C955 N963 1.427 . S
C956 H947 0.930 . S
C956 C954 1.378 . S
C956 C957 1.367 . S
C957 C956 1.367 . S
C957 C959 1.433 . S
C958 C954 1.350 . S
C958 C955 1.463 . S
C958 N962 1.427 . S
C959 H949 0.929 . S
C959 C957 1.433 . S
C959 N962 1.384 . S
C960 H951 0.929 . S
C960 C952 1.378 . S
C960 C955 1.350 . S
C961 H948 0.929 . S
C961 C953 1.433 . S
C961 N963 1.384 . S
N962 C958 1.427 . S
N962 C959 1.384 . S
N963 C955 1.427 . S
N963 C961 1.384 . S
H964 C970 0.930 . S
H965 C974 0.930 . S
H966 C979 0.929 1_655 S
H967 C977 0.929 . S
H968 C972 0.929 . S
H969 C978 0.929 . S
C970 H964 0.930 . S
C970 C971 1.367 . S
C970 C978 1.378 . S
C971 C970 1.367 . S
C971 C979 1.433 . S
C972 H968 0.929 . S
C972 C974 1.378 . S
C972 C976 1.350 . S
C973 C976 1.463 . S
C973 C978 1.350 . S
C973 N981 1.427 . S
C974 H965 0.930 . S
C974 C972 1.378 . S
C974 C975 1.367 . S
C975 C974 1.367 . S
C975 C977 1.433 . S
C976 C972 1.350 . S
C976 C973 1.463 . S
C976 N980 1.427 . S
C977 H967 0.929 . S
C977 C975 1.433 . S
C977 N980 1.384 . S
C978 H969 0.929 . S
C978 C970 1.378 . S
C978 C973 1.350 . S
C979 H966 0.929 1_455 S
C979 C971 1.433 . S
C979 N981 1.384 . S
N980 C976 1.427 . S
N980 C977 1.384 . S
N981 C973 1.427 . S
N981 C979 1.384 . S
H982 C988 0.930 . S
H983 C992 0.930 . S
H984 C997 0.929 . S
H985 C995 0.929 . S
H986 C990 0.929 . S
H987 C996 0.929 . S
C988 H982 0.930 . S
C988 C989 1.367 . S
C988 C996 1.378 . S
C989 C988 1.367 . S
C989 C997 1.433 . S
C990 H986 0.929 . S
C990 C992 1.378 . S
C990 C994 1.350 . S
C991 C994 1.463 . S
C991 C996 1.350 . S
C991 N999 1.427 . S
C992 H983 0.930 . S
C992 C990 1.378 . S
C992 C993 1.367 . S
C993 C992 1.367 . S
C993 C995 1.433 . S
C994 C990 1.350 . S
C994 C991 1.463 . S
C994 N998 1.427 . S
C995 H985 0.929 . S
C995 C993 1.433 . S
C995 N998 1.384 . S
C996 H987 0.929 . S
C996 C988 1.378 . S
C996 C991 1.350 . S
C997 H984 0.929 . S
C997 C989 1.433 . S
C997 N999 1.384 . S
N998 C994 1.427 . S
N998 C995 1.384 . S
N999 C991 1.427 . S
N999 C997 1.384 . S
H1000 C1006 0.930 1_545 S
H1001 C1010 0.930 . S
H1002 C1015 0.929 . S
H1003 C1013 0.929 . S
H1004 C1008 0.929 . S
H1005 C1014 0.929 . S
C1006 H1000 0.930 1_565 S
C1006 C1007 1.367 . S
C1006 C1014 1.378 . S
C1007 C1006 1.367 . S
C1007 C1015 1.433 . S
C1008 H1004 0.929 . S
C1008 C1010 1.378 . S
C1008 C1012 1.350 . S
C1009 C1012 1.463 . S
C1009 C1014 1.350 . S
C1009 N1017 1.427 . S
C1010 H1001 0.930 . S
C1010 C1008 1.378 . S
C1010 C1011 1.367 . S
C1011 C1010 1.367 . S
C1011 C1013 1.433 . S
C1012 C1008 1.350 . S
C1012 C1009 1.463 . S
C1012 N1016 1.427 . S
C1013 H1003 0.929 . S
C1013 C1011 1.433 . S
C1013 N1016 1.384 . S
C1014 H1005 0.929 . S
C1014 C1006 1.378 . S
C1014 C1009 1.350 . S
C1015 H1002 0.929 . S
C1015 C1007 1.433 . S
C1015 N1017 1.384 . S
N1016 C1012 1.427 . S
N1016 C1013 1.384 . S
N1017 C1009 1.427 . S
N1017 C1015 1.384 . S
H1018 C1024 0.930 . S
H1019 C1028 0.930 . S
H1020 C1033 0.929 . S
H1021 C1031 0.929 . S
H1022 C1026 0.929 . S
H1023 C1032 0.929 . S
C1024 H1018 0.930 . S
C1024 C1025 1.367 . S
C1024 C1032 1.378 . S
C1025 C1024 1.367 . S
C1025 C1033 1.433 . S
C1026 H1022 0.929 . S
C1026 C1028 1.378 . S
C1026 C1030 1.350 . S
C1027 C1030 1.463 . S
C1027 C1032 1.350 . S
C1027 N1035 1.427 . S
C1028 H1019 0.930 . S
C1028 C1026 1.378 . S
C1028 C1029 1.367 . S
C1029 C1028 1.367 . S
C1029 C1031 1.433 . S
C1030 C1026 1.350 . S
C1030 C1027 1.463 . S
C1030 N1034 1.427 . S
C1031 H1021 0.929 . S
C1031 C1029 1.433 . S
C1031 N1034 1.384 . S
C1032 H1023 0.929 . S
C1032 C1024 1.378 . S
C1032 C1027 1.350 . S
C1033 H1020 0.929 . S
C1033 C1025 1.433 . S
C1033 N1035 1.384 . S
N1034 C1030 1.427 . S
N1034 C1031 1.384 . S
N1035 C1027 1.427 . S
N1035 C1033 1.384 . S
H1036 C1042 0.930 . S
H1037 C1046 0.930 . S
H1038 C1051 0.929 . S
H1039 C1049 0.929 1_455 S
H1040 C1044 0.929 . S
H1041 C1050 0.929 . S
C1042 H1036 0.930 . S
C1042 C1043 1.367 . S
C1042 C1050 1.378 . S
C1043 C1042 1.367 . S
C1043 C1051 1.433 . S
C1044 H1040 0.929 . S
C1044 C1046 1.378 . S
C1044 C1048 1.350 . S
C1045 C1048 1.463 . S
C1045 C1050 1.350 . S
C1045 N1053 1.427 . S
C1046 H1037 0.930 . S
C1046 C1044 1.378 . S
C1046 C1047 1.367 . S
C1047 C1046 1.367 . S
C1047 C1049 1.433 . S
C1048 C1044 1.350 . S
C1048 C1045 1.463 . S
C1048 N1052 1.427 . S
C1049 H1039 0.929 1_655 S
C1049 C1047 1.433 . S
C1049 N1052 1.384 . S
C1050 H1041 0.929 . S
C1050 C1042 1.378 . S
C1050 C1045 1.350 . S
C1051 H1038 0.929 . S
C1051 C1043 1.433 . S
C1051 N1053 1.384 . S
N1052 C1048 1.427 . S
N1052 C1049 1.384 . S
N1053 C1045 1.427 . S
N1053 C1051 1.384 . S
H1054 C1060 0.930 1_545 S
H1055 C1064 0.930 . S
H1056 C1069 0.929 . S
H1057 C1067 0.929 . S
H1058 C1062 0.929 . S
H1059 C1068 0.929 . S
C1060 H1054 0.930 1_565 S
C1060 C1061 1.367 . S
C1060 C1068 1.378 . S
C1061 C1060 1.367 . S
C1061 C1069 1.433 . S
C1062 H1058 0.929 . S
C1062 C1064 1.378 . S
C1062 C1066 1.350 . S
C1063 C1066 1.463 . S
C1063 C1068 1.350 . S
C1063 N1071 1.427 . S
C1064 H1055 0.930 . S
C1064 C1062 1.378 . S
C1064 C1065 1.367 . S
C1065 C1064 1.367 . S
C1065 C1067 1.433 . S
C1066 C1062 1.350 . S
C1066 C1063 1.463 . S
C1066 N1070 1.427 . S
C1067 H1057 0.929 . S
C1067 C1065 1.433 . S
C1067 N1070 1.384 . S
C1068 H1059 0.929 . S
C1068 C1060 1.378 . S
C1068 C1063 1.350 . S
C1069 H1056 0.929 . S
C1069 C1061 1.433 . S
C1069 N1071 1.384 . S
N1070 C1066 1.427 . S
N1070 C1067 1.384 . S
N1071 C1063 1.427 . S
N1071 C1069 1.384 . S
H1072 C1078 0.930 . S
H1073 C1082 0.930 . S
H1074 C1087 0.929 . S
H1075 C1085 0.929 . S
H1076 C1080 0.929 . S
H1077 C1086 0.929 . S
C1078 H1072 0.930 . S
C1078 C1079 1.367 . S
C1078 C1086 1.378 . S
C1079 C1078 1.367 . S
C1079 C1087 1.433 . S
C1080 H1076 0.929 . S
C1080 C1082 1.378 . S
C1080 C1084 1.350 . S
C1081 C1084 1.463 1_554 S
C1081 C1086 1.350 . S
C1081 N1089 1.427 . S
C1082 H1073 0.930 . S
C1082 C1080 1.378 . S
C1082 C1083 1.367 . S
C1083 C1082 1.367 . S
C1083 C1085 1.433 . S
C1084 C1080 1.350 . S
C1084 C1081 1.463 1_556 S
C1084 N1088 1.427 . S
C1085 H1075 0.929 . S
C1085 C1083 1.433 . S
C1085 N1088 1.384 . S
C1086 H1077 0.929 . S
C1086 C1078 1.378 . S
C1086 C1081 1.350 . S
C1087 H1074 0.929 . S
C1087 C1079 1.433 . S
C1087 N1089 1.384 . S
N1088 C1084 1.427 . S
N1088 C1085 1.384 . S
N1089 C1081 1.427 . S
N1089 C1087 1.384 . S
H1090 C1096 0.930 . S
H1091 C1100 0.930 . S
H1092 C1105 0.929 . S
H1093 C1103 0.929 . S
H1094 C1098 0.929 . S
H1095 C1104 0.929 . S
C1096 H1090 0.930 . S
C1096 C1097 1.367 . S
C1096 C1104 1.378 . S
C1097 C1096 1.367 . S
C1097 C1105 1.433 . S
C1098 H1094 0.929 . S
C1098 C1100 1.378 . S
C1098 C1102 1.350 . S
C1099 C1102 1.463 . S
C1099 C1104 1.350 . S
C1099 N1107 1.427 . S
C1100 H1091 0.930 . S
C1100 C1098 1.378 . S
C1100 C1101 1.367 . S
C1101 C1100 1.367 . S
C1101 C1103 1.433 . S
C1102 C1098 1.350 . S
C1102 C1099 1.463 . S
C1102 N1106 1.427 . S
C1103 H1093 0.929 . S
C1103 C1101 1.433 . S
C1103 N1106 1.384 . S
C1104 H1095 0.929 . S
C1104 C1096 1.378 . S
C1104 C1099 1.350 . S
C1105 H1092 0.929 . S
C1105 C1097 1.433 . S
C1105 N1107 1.384 . S
N1106 C1102 1.427 . S
N1106 C1103 1.384 . S
N1107 C1099 1.427 . S
N1107 C1105 1.384 . S
H1108 C1114 0.930 . S
H1109 C1118 0.939 . S
H1110 C1123 0.933 . S
H1111 C1121 0.929 . S
H1112 C1116 0.937 . S
H1113 C1122 0.929 . S
C1114 H1108 0.930 . S
C1114 C1115 1.367 . S
C1114 C1122 1.378 . S
C1115 C1114 1.367 . S
C1115 C1123 1.433 . S
C1116 H1112 0.937 . S
C1116 C1118 1.378 . S
C1116 C1120 1.350 . S
C1117 C1120 1.463 1_554 S
C1117 C1122 1.350 . S
C1117 N1125 1.427 . S
C1118 H1109 0.939 . S
C1118 C1116 1.378 . S
C1118 C1119 1.367 . S
C1119 C1118 1.367 . S
C1119 C1121 1.433 . S
C1120 C1116 1.350 . S
C1120 C1117 1.463 1_556 S
C1120 N1124 1.427 . S
C1121 H1111 0.929 . S
C1121 C1119 1.433 . S
C1121 N1124 1.384 . S
C1122 H1113 0.929 . S
C1122 C1114 1.378 . S
C1122 C1117 1.350 . S
C1123 H1110 0.933 . S
C1123 C1115 1.433 . S
C1123 N1125 1.384 . S
N1124 C1120 1.427 . S
N1124 C1121 1.384 . S
N1125 C1117 1.427 . S
N1125 C1123 1.384 . S
H1126 C1132 0.930 . S
H1127 C1136 0.930 . S
H1128 C1141 0.929 . S
H1129 C1139 0.929 . S
H1130 C1134 0.929 . S
H1131 C1140 0.929 . S
C1132 H1126 0.930 . S
C1132 C1133 1.367 . S
C1132 C1140 1.378 . S
C1133 C1132 1.367 . S
C1133 C1141 1.433 . S
C1134 H1130 0.929 . S
C1134 C1136 1.378 . S
C1134 C1138 1.350 . S
C1135 C1138 1.463 . S
C1135 C1140 1.350 . S
C1135 N1143 1.427 . S
C1136 H1127 0.930 . S
C1136 C1134 1.378 . S
C1136 C1137 1.367 . S
C1137 C1136 1.367 . S
C1137 C1139 1.433 . S
C1138 C1134 1.350 . S
C1138 C1135 1.463 . S
C1138 N1142 1.427 . S
C1139 H1129 0.929 . S
C1139 C1137 1.433 . S
C1139 N1142 1.384 . S
C1140 H1131 0.929 . S
C1140 C1132 1.378 . S
C1140 C1135 1.350 . S
C1141 H1128 0.929 . S
C1141 C1133 1.433 . S
C1141 N1143 1.384 . S
N1142 C1138 1.427 . S
N1142 C1139 1.384 . S
N1143 C1135 1.427 . S
N1143 C1141 1.384 . S
H1144 C1150 0.930 . S
H1145 C1154 0.930 . S
H1146 C1159 0.929 . S
H1147 C1157 0.929 . S
H1148 C1152 0.929 1_554 S
H1149 C1158 0.929 1_556 S
C1150 H1144 0.930 . S
C1150 C1151 1.367 . S
C1150 C1158 1.378 . S
C1151 C1150 1.367 . S
C1151 C1159 1.433 . S
C1152 H1148 0.929 1_556 S
C1152 C1154 1.378 . S
C1152 C1156 1.350 . S
C1153 C1156 1.463 1_554 S
C1153 C1158 1.350 . S
C1153 N1161 1.427 . S
C1154 H1145 0.930 . S
C1154 C1152 1.378 . S
C1154 C1155 1.367 . S
C1155 C1154 1.367 . S
C1155 C1157 1.433 . S
C1156 C1152 1.350 . S
C1156 C1153 1.463 1_556 S
C1156 N1160 1.427 . S
C1157 H1147 0.929 . S
C1157 C1155 1.433 . S
C1157 N1160 1.384 . S
C1158 H1149 0.929 1_554 S
C1158 C1150 1.378 . S
C1158 C1153 1.350 . S
C1159 H1146 0.929 . S
C1159 C1151 1.433 . S
C1159 N1161 1.384 . S
N1160 C1156 1.427 . S
N1160 C1157 1.384 . S
N1161 C1153 1.427 . S
N1161 C1159 1.384 . S
H1162 C1168 0.930 . S
H1163 C1172 0.930 . S
H1164 C1177 0.929 . S
H1165 C1175 0.929 . S
H1166 C1170 0.929 . S
H1167 C1176 0.929 . S
C1168 H1162 0.930 . S
C1168 C1169 1.367 . S
C1168 C1176 1.378 . S
C1169 C1168 1.367 . S
C1169 C1177 1.433 . S
C1170 H1166 0.929 . S
C1170 C1172 1.378 . S
C1170 C1174 1.350 . S
C1171 C1174 1.463 . S
C1171 C1176 1.350 . S
C1171 N1179 1.427 . S
C1172 H1163 0.930 . S
C1172 C1170 1.378 . S
C1172 C1173 1.367 . S
C1173 C1172 1.367 . S
C1173 C1175 1.433 . S
C1174 C1170 1.350 . S
C1174 C1171 1.463 . S
C1174 N1178 1.427 . S
C1175 H1165 0.929 . S
C1175 C1173 1.433 . S
C1175 N1178 1.384 . S
C1176 H1167 0.929 . S
C1176 C1168 1.378 . S
C1176 C1171 1.350 . S
C1177 H1164 0.929 . S
C1177 C1169 1.433 . S
C1177 N1179 1.384 . S
N1178 C1174 1.427 . S
N1178 C1175 1.384 . S
N1179 C1171 1.427 . S
N1179 C1177 1.384 . S
H1180 C1186 0.930 1_655 S
H1181 C1190 0.930 . S
H1182 C1195 0.929 . S
H1183 C1193 0.929 1_655 S
H1184 C1188 0.929 . S
H1185 C1194 0.929 1_655 S
C1186 H1180 0.930 1_455 S
C1186 C1187 1.367 . S
C1186 C1194 1.378 . S
C1187 C1186 1.367 . S
C1187 C1195 1.433 . S
C1188 H1184 0.929 . S
C1188 C1190 1.378 . S
C1188 C1192 1.350 . S
C1189 C1192 1.463 1_556 S
C1189 C1194 1.350 . S
C1189 N1197 1.427 . S
C1190 H1181 0.930 . S
C1190 C1188 1.378 . S
C1190 C1191 1.367 . S
C1191 C1190 1.367 . S
C1191 C1193 1.433 . S
C1192 C1188 1.350 . S
C1192 C1189 1.463 1_554 S
C1192 N1196 1.427 . S
C1193 H1183 0.929 1_455 S
C1193 C1191 1.433 . S
C1193 N1196 1.384 . S
C1194 H1185 0.929 1_455 S
C1194 C1186 1.378 . S
C1194 C1189 1.350 . S
C1195 H1182 0.929 . S
C1195 C1187 1.433 . S
C1195 N1197 1.384 . S
N1196 C1192 1.427 . S
N1196 C1193 1.384 . S
N1197 C1189 1.427 . S
N1197 C1195 1.384 . S
H1198 C1204 0.966 . S
H1199 C1208 0.930 . S
H1200 C1213 0.929 . S
H1201 C1211 0.929 . S
H1202 C1206 0.929 . S
H1203 C1212 0.965 . S
C1204 H1198 0.966 . S
C1204 C1205 1.331 1_565 S
C1204 C1212 1.378 . S
C1205 C1204 1.331 1_545 S
C1205 C1213 1.433 . S
C1206 H1202 0.929 . S
C1206 C1208 1.378 . S
C1206 C1210 1.350 . S
C1207 C1210 1.463 . S
C1207 C1212 1.314 1_545 S
C1207 N1215 1.427 . S
C1208 H1199 0.930 . S
C1208 C1206 1.378 . S
C1208 C1209 1.367 . S
C1209 C1208 1.367 . S
C1209 C1211 1.433 1_545 S
C1210 C1206 1.350 . S
C1210 C1207 1.463 . S
C1210 N1214 1.427 1_545 S
C1211 H1201 0.929 . S
C1211 C1209 1.433 1_565 S
C1211 N1214 1.384 . S
C1212 H1203 0.965 . S
C1212 C1204 1.378 . S
C1212 C1207 1.314 1_565 S
C1213 H1200 0.929 . S
C1213 C1205 1.433 . S
C1213 N1215 1.384 . S
N1214 C1210 1.427 1_565 S
N1214 C1211 1.384 . S
N1215 C1207 1.427 . S
N1215 C1213 1.384 . S
C359 C21 1.340 . S
C363 C219 1.360 . S
C377 C43 1.337 . S
C381 C227 1.357 . S
C395 C249 1.361 . S
C399 C59 1.346 . S
C413 C197 1.356 . S
C417 C81 1.346 . S
C431 C95 1.336 . S
C435 C351 1.356 . S
C449 C285 1.358 . S
C453 C131 1.348 . S
C467 C307 1.354 . S
C471 C147 1.338 . S
C485 C323 1.356 . S
C489 C169 1.336 . S
C503 C37 1.351 . S
C507 C191 1.334 . S
C521 C213 1.340 . S
C525 C51 1.353 . S
C539 C73 1.352 . S
C543 C241 1.344 . S
C557 C15 1.346 . S
C561 C263 1.341 . S
C575 C161 1.352 . S
C579 C279 1.336 . S
C593 C109 1.351 . S
C597 C301 1.344 . S
C611 C315 1.343 . S
C615 C125 1.347 . S
C629 C139 1.345 . S
C633 C345 1.337 . S
C647 C10 1.336 . S
C651 C337 1.333 . S
C665 C32 1.343 . S
C669 C271 1.328 . S
C683 C62 1.336 . S
C687 C293 1.334 . S
C701 C329 1.332 . S
C705 C84 1.336 . S
C719 C96 1.336 . S
C723 C205 1.333 . S
C737 C120 1.339 . S
C741 C235 1.326 . S
C755 C150 1.336 . S
C759 C257 1.334 . S
C773 C183 1.338 . S
C777 C172 1.340 . S
C791 C184 1.357 . S
C795 C175 1.347 . S
C809 C206 1.357 . S
C813 C103 1.348 . S
C827 C238 1.354 . S
C831 C117 1.342 . S
C845 C260 1.357 . S
C849 C153 1.349 . S
C863 C29 1.349 . S
C867 C272 1.350 . S
C881 C65 1.347 . S
C885 C294 1.349 . S
C899 C87 1.344 . S
C903 C318 1.350 . S
C917 C338 1.357 . S
C921 C7 1.349 . S
C935 C162 1.235 1_545 S
C939 C18 1.244 . S
C953 C98 1.242 . S
C957 C40 1.245 . S
C971 C52 1.244 1_455 S
C975 C128 1.234 . S
C989 C74 1.244 1_545 S
C993 C140 1.243 1_455 S
C1007 C348 1.250 1_565 S
C1011 C194 1.256 . S
C1025 C216 1.257 . S
C1029 C282 1.253 . S
C1043 C304 1.244 . S
C1047 C230 1.251 1_655 S
C1061 C252 1.243 1_565 S
C1065 C316 1.247 1_655 S
C1079 C8 1.299 . S
C1083 C106 1.300 . S
C1097 C118 1.299 . S
C1101 C30 1.300 . S
C1115 C54 1.295 . S
C1119 C142 1.304 . S
C1133 C164 1.301 . S
C1137 C76 1.298 . S
C1151 C274 1.264 . S
C1155 C186 1.275 . S
C1169 C296 1.267 . S
C1173 C208 1.276 . S
C1187 C228 1.278 . S
C1191 C326 1.265 . S
C1205 C250 1.279 . S
C1209 C340 1.261 . S
