# Generated by pormake.
# Topology atn, (4)-cn, num edge types: 1
# Building blocks:
#     Node 0, Type 0, BuildingBlock: GALJAG_clean_sbu_0, # of connection points: 4
#     Node 1, Type 0, BuildingBlock: GALJAG_clean_sbu_0, # of connection points: 4
#     Node 2, Type 0, BuildingBlock: GALJAG_clean_sbu_0, # of connection points: 4
#     Node 3, Type 0, BuildingBlock: GALJAG_clean_sbu_0, # of connection points: 4
#     Node 4, Type 0, BuildingBlock: GALJAG_clean_sbu_0, # of connection points: 4
#     Node 5, Type 0, BuildingBlock: GALJAG_clean_sbu_0, # of connection points: 4
#     Node 6, Type 0, BuildingBlock: GALJAG_clean_sbu_0, # of connection points: 4
#     Node 7, Type 0, BuildingBlock: GALJAG_clean_sbu_0, # of connection points: 4
#     Node 8, Type 0, BuildingBlock: GALJAG_clean_sbu_0, # of connection points: 4
#     Node 9, Type 0, BuildingBlock: GALJAG_clean_sbu_0, # of connection points: 4
#     Node 10, Type 0, BuildingBlock: GALJAG_clean_sbu_0, # of connection points: 4
#     Node 11, Type 0, BuildingBlock: GALJAG_clean_sbu_0, # of connection points: 4
#     Node 12, Type 0, BuildingBlock: GALJAG_clean_sbu_0, # of connection points: 4
#     Node 13, Type 0, BuildingBlock: GALJAG_clean_sbu_0, # of connection points: 4
#     Node 14, Type 0, BuildingBlock: GALJAG_clean_sbu_0, # of connection points: 4
#     Node 15, Type 0, BuildingBlock: GALJAG_clean_sbu_0, # of connection points: 4
#     Edge 16, Type (0, 0), BuildingBlock: XUDNAN_clean_linker_2, # of connection points: 2
#     Edge 17, Type (0, 0), BuildingBlock: XUDNAN_clean_linker_2, # of connection points: 2
#     Edge 18, Type (0, 0), BuildingBlock: XUDNAN_clean_linker_2, # of connection points: 2
#     Edge 19, Type (0, 0), BuildingBlock: XUDNAN_clean_linker_2, # of connection points: 2
#     Edge 20, Type (0, 0), BuildingBlock: XUDNAN_clean_linker_2, # of connection points: 2
#     Edge 21, Type (0, 0), BuildingBlock: XUDNAN_clean_linker_2, # of connection points: 2
#     Edge 22, Type (0, 0), BuildingBlock: XUDNAN_clean_linker_2, # of connection points: 2
#     Edge 23, Type (0, 0), BuildingBlock: XUDNAN_clean_linker_2, # of connection points: 2
#     Edge 24, Type (0, 0), BuildingBlock: XUDNAN_clean_linker_2, # of connection points: 2
#     Edge 25, Type (0, 0), BuildingBlock: XUDNAN_clean_linker_2, # of connection points: 2
#     Edge 26, Type (0, 0), BuildingBlock: XUDNAN_clean_linker_2, # of connection points: 2
#     Edge 27, Type (0, 0), BuildingBlock: XUDNAN_clean_linker_2, # of connection points: 2
#     Edge 28, Type (0, 0), BuildingBlock: XUDNAN_clean_linker_2, # of connection points: 2
#     Edge 29, Type (0, 0), BuildingBlock: XUDNAN_clean_linker_2, # of connection points: 2
#     Edge 30, Type (0, 0), BuildingBlock: XUDNAN_clean_linker_2, # of connection points: 2
#     Edge 31, Type (0, 0), BuildingBlock: XUDNAN_clean_linker_2, # of connection points: 2
#     Edge 32, Type (0, 0), BuildingBlock: XUDNAN_clean_linker_2, # of connection points: 2
#     Edge 33, Type (0, 0), BuildingBlock: XUDNAN_clean_linker_2, # of connection points: 2
#     Edge 34, Type (0, 0), BuildingBlock: XUDNAN_clean_linker_2, # of connection points: 2
#     Edge 35, Type (0, 0), BuildingBlock: XUDNAN_clean_linker_2, # of connection points: 2
#     Edge 36, Type (0, 0), BuildingBlock: XUDNAN_clean_linker_2, # of connection points: 2
#     Edge 37, Type (0, 0), BuildingBlock: XUDNAN_clean_linker_2, # of connection points: 2
#     Edge 38, Type (0, 0), BuildingBlock: XUDNAN_clean_linker_2, # of connection points: 2
#     Edge 39, Type (0, 0), BuildingBlock: XUDNAN_clean_linker_2, # of connection points: 2
#     Edge 40, Type (0, 0), BuildingBlock: XUDNAN_clean_linker_2, # of connection points: 2
#     Edge 41, Type (0, 0), BuildingBlock: XUDNAN_clean_linker_2, # of connection points: 2
#     Edge 42, Type (0, 0), BuildingBlock: XUDNAN_clean_linker_2, # of connection points: 2
#     Edge 43, Type (0, 0), BuildingBlock: XUDNAN_clean_linker_2, # of connection points: 2
#     Edge 44, Type (0, 0), BuildingBlock: XUDNAN_clean_linker_2, # of connection points: 2
#     Edge 45, Type (0, 0), BuildingBlock: XUDNAN_clean_linker_2, # of connection points: 2
#     Edge 46, Type (0, 0), BuildingBlock: XUDNAN_clean_linker_2, # of connection points: 2
#     Edge 47, Type (0, 0), BuildingBlock: XUDNAN_clean_linker_2, # of connection points: 2
# Relax obj value: 0.083
# Max RMSD: 0.111
# Mean RMSD: 0.111
data_MOF--net-atn--node1-GALJAG_clean_sbu_0--edge1-XUDNAN_clean_linker_2
_symmetry_space_group_name_H-M    P1
_symmetry_Int_Tables_number       1
_symmetry_cell_setting            triclinic
loop_
_symmetry_equiv_pos_as_xyz
'x, y, z'
_cell_length_a     58.388567
_cell_length_b     58.377807
_cell_length_c     28.34581
_cell_angle_alpha  89.95775
_cell_angle_beta   89.957094
_cell_angle_gamma 90.065927
loop_
_atom_site_label
_atom_site_type_symbol
_atom_site_fract_x
_atom_site_fract_y
_atom_site_fract_z
_atom_type_partial_charge
In0 In 0.18363 0.36917 0.00732 0.0
O1 O 0.15864 0.35741 0.06511 0.0
O2 O 0.18939 0.37483 0.08486 0.0
C3 C 0.1654 0.36555 0.92113 0.0
C4 C 0.18127 0.41467 0.00414 0.0
C5 C 0.21438 0.33535 1.00026 0.0
O6 O 0.15543 0.35698 0.95682 0.0
O7 O 0.18434 0.37524 0.92919 0.0
O8 O 0.22072 0.35609 0.003 0.0
O9 O 0.19302 0.33218 1.00176 0.0
C10 C 0.17093 0.36553 0.09797 0.0
O11 O 0.20051 0.40451 0.00429 0.0
O12 O 0.16387 0.40179 0.00653 0.0
In13 In 0.62625 0.18714 0.03047 0.0
O14 O 0.63406 0.161 0.08845 0.0
O15 O 0.61211 0.18907 0.10483 0.0
C16 C 0.6409 0.1687 0.9489 0.0
C17 C 0.5818 0.18628 0.00865 0.0
C18 C 0.65812 0.21956 0.0453 0.0
O19 O 0.64243 0.1581 0.98777 0.0
O20 O 0.63266 0.18863 0.95171 0.0
O21 O 0.63861 0.22464 0.02886 0.0
O22 O 0.66118 0.19856 0.05339 0.0
C23 C 0.62203 0.17118 0.11915 0.0
O24 O 0.59183 0.20498 0.01834 0.0
O25 O 0.59421 0.16861 0.0105 0.0
In26 In 0.80652 0.62245 0.99636 0.0
O27 O 0.79458 0.5856 0.00586 0.0
O28 O 0.83023 0.59206 0.99526 0.0
C29 C 0.76857 0.64791 0.00472 0.0
C30 C 0.82761 0.63576 0.07606 0.0
C31 C 0.81428 0.62677 0.90321 0.0
O32 O 0.76831 0.62645 0.01086 0.0
O33 O 0.78784 0.65625 0.99412 0.0
O34 O 0.82718 0.63617 0.93348 0.0
O35 O 0.79768 0.61563 0.92016 0.0
C36 C 0.81455 0.57745 1.00158 0.0
O37 O 0.83474 0.64195 0.03579 0.0
O38 O 0.81022 0.62293 0.07556 0.0
In39 In 0.36655 0.81315 0.00295 0.0
O40 O 0.35928 0.84031 0.06072 0.0
O41 O 0.37101 0.80715 0.08067 0.0
C42 C 0.36467 0.83227 0.9164 0.0
C43 C 0.41133 0.80409 0.00308 0.0
C44 C 0.33041 0.78462 1.00034 0.0
O45 O 0.35646 0.84246 0.95206 0.0
O46 O 0.37347 0.81302 0.92477 0.0
O47 O 0.35075 0.77736 0.9983 0.0
O48 O 0.32848 0.80609 0.00296 0.0
C49 C 0.36493 0.82682 0.09382 0.0
O50 O 0.3963 0.78847 1.00071 0.0
O51 O 0.40367 0.82435 0.00509 0.0
In52 In 0.18661 0.62714 0.03195 0.0
O53 O 0.1561 0.6411 0.9908 0.0
O54 O 0.18564 0.62961 0.95281 0.0
C55 C 0.17793 0.62673 0.12474 0.0
C56 C 0.18371 0.58218 0.01729 0.0
C57 C 0.21543 0.66267 0.02911 0.0
O58 O 0.16373 0.63471 0.09518 0.0
O59 O 0.19627 0.619 0.10725 0.0
O60 O 0.22263 0.6424 0.02249 0.0
O61 O 0.19433 0.66438 0.03799 0.0
C62 C 0.16574 0.6381 0.95114 0.0
O63 O 0.20309 0.59208 0.01881 0.0
O64 O 0.16656 0.59497 0.0239 0.0
In65 In 0.3695 0.18866 0.01209 0.0
O66 O 0.40445 0.20615 0.0061 0.0
O67 O 0.40238 0.16945 0.00919 0.0
C68 C 0.33482 0.21835 0.00407 0.0
C69 C 0.36569 0.16917 0.92732 0.0
C70 C 0.36718 0.17706 0.10344 0.0
O71 O 0.35537 0.22531 0.00624 0.0
O72 O 0.33225 0.19693 0.00673 0.0
O73 O 0.35898 0.16421 0.0716 0.0
O74 O 0.37596 0.19554 0.08898 0.0
C75 C 0.41487 0.18705 0.00508 0.0
O76 O 0.35784 0.15935 0.9639 0.0
O77 O 0.37459 0.18863 0.93378 0.0
In78 In 0.81272 0.36429 0.00735 0.0
O79 O 0.83498 0.34983 0.94732 0.0
O80 O 0.80323 0.36607 0.93073 0.0
C81 C 0.8345 0.36238 0.09031 0.0
C82 C 0.81743 0.4096 1.00138 0.0
C83 C 0.77943 0.3342 0.02742 0.0
O84 O 0.84141 0.35075 0.05526 0.0
O85 O 0.81694 0.37447 0.08311 0.0
O86 O 0.77483 0.35488 0.01786 0.0
O87 O 0.80037 0.329 0.02569 0.0
C88 C 0.82119 0.35656 0.91567 0.0
O89 O 0.79809 0.40045 0.00965 0.0
O90 O 0.8339 0.3958 0.99591 0.0
In91 In 0.62475 0.80528 0.0028 0.0
O92 O 0.63374 0.83021 0.94149 0.0
O93 O 0.62085 0.79723 0.92493 0.0
C94 C 0.63569 0.82899 0.0823 0.0
C95 C 0.57913 0.8004 0.00726 0.0
C96 C 0.65202 0.76831 0.01257 0.0
O97 O 0.64403 0.83399 0.04241 0.0
O98 O 0.62156 0.81271 0.08154 0.0
O99 O 0.63088 0.76797 0.02098 0.0
O100 O 0.6597 0.78749 0.99934 0.0
C101 C 0.62788 0.81622 0.90963 0.0
O102 O 0.59293 0.78387 0.01011 0.0
O103 O 0.58834 0.81991 0.00258 0.0
In104 In 0.68851 0.86912 0.50237 0.0
O105 O 0.65968 0.85014 0.5423 0.0
O106 O 0.68161 0.87193 0.58141 0.0
C107 C 0.67736 0.8663 0.40934 0.0
C108 C 0.69349 0.91474 0.50685 0.0
C109 C 0.7252 0.84141 0.51107 0.0
O110 O 0.66346 0.86025 0.4413 0.0
O111 O 0.69634 0.87337 0.42449 0.0
O112 O 0.72581 0.86251 0.51987 0.0
O113 O 0.7059 0.83401 0.49807 0.0
C114 C 0.66505 0.85812 0.58226 0.0
O115 O 0.71003 0.90092 0.5088 0.0
O116 O 0.67393 0.90554 0.50318 0.0
In117 In 0.12583 0.68539 0.53065 0.0
O118 O 0.08911 0.6973 0.52113 0.0
O119 O 0.09548 0.66141 0.52744 0.0
C120 C 0.15016 0.72435 0.52321 0.0
C121 C 0.12894 0.67625 0.6234 0.0
C122 C 0.13989 0.66416 0.45167 0.0
O123 O 0.12883 0.7237 0.51585 0.0
O124 O 0.15901 0.70546 0.53477 0.0
O125 O 0.14618 0.65746 0.49213 0.0
O126 O 0.12678 0.6813 0.45165 0.0
C127 C 0.08095 0.67722 0.52232 0.0
O128 O 0.13989 0.66473 0.59304 0.0
O129 O 0.11692 0.69227 0.60682 0.0
In130 In 0.31296 0.12991 0.51547 0.0
O131 O 0.2869 0.10086 0.51431 0.0
O132 O 0.32233 0.09241 0.51016 0.0
C133 C 0.28489 0.16641 0.51766 0.0
C134 C 0.33211 0.13085 0.60192 0.0
C135 C 0.33323 0.13736 0.43138 0.0
O136 O 0.2774 0.14623 0.51321 0.0
O137 O 0.30634 0.16802 0.52109 0.0
O138 O 0.34309 0.14142 0.47011 0.0
O139 O 0.31327 0.1293 0.4351 0.0
C140 C 0.3019 0.08536 0.51134 0.0
O141 O 0.34377 0.13245 0.56454 0.0
O142 O 0.31083 0.12873 0.59564 0.0
In143 In 0.86931 0.30429 0.50171 0.0
O144 O 0.85804 0.33398 0.54832 0.0
O145 O 0.86928 0.30347 0.58217 0.0
C146 C 0.86907 0.32402 0.41567 0.0
C147 C 0.9139 0.29349 0.50651 0.0
C148 C 0.83178 0.27765 0.49842 0.0
O149 O 0.86775 0.33548 0.45336 0.0
O150 O 0.87051 0.30264 0.42143 0.0
O151 O 0.85162 0.26924 0.50253 0.0
O152 O 0.83113 0.29918 0.49548 0.0
C153 C 0.86148 0.3235 0.58666 0.0
O154 O 0.8986 0.27827 0.50249 0.0
O155 O 0.90655 0.31378 0.50843 0.0
In156 In 0.68064 0.12716 0.5261 0.0
O157 O 0.70514 0.09761 0.51547 0.0
O158 O 0.66951 0.08998 0.52301 0.0
C159 C 0.70913 0.16327 0.51995 0.0
C160 C 0.65685 0.13244 0.44546 0.0
C161 C 0.67024 0.12805 0.61885 0.0
O162 O 0.71626 0.1429 0.51759 0.0
O163 O 0.68782 0.16528 0.52581 0.0
O164 O 0.65684 0.13634 0.58819 0.0
O165 O 0.68834 0.11943 0.60256 0.0
C166 C 0.68963 0.08249 0.51706 0.0
O167 O 0.64749 0.13503 0.48543 0.0
O168 O 0.67776 0.12713 0.44677 0.0
In169 In 0.86856 0.68437 0.49591 0.0
O170 O 0.85522 0.66322 0.43342 0.0
O171 O 0.87629 0.69229 0.4196 0.0
C172 C 0.85432 0.66397 0.57583 0.0
C173 C 0.91349 0.67652 0.5041 0.0
C174 C 0.84365 0.72282 0.50245 0.0
O175 O 0.84843 0.65661 0.53559 0.0
O176 O 0.86728 0.68125 0.57519 0.0
O177 O 0.86505 0.72272 0.50916 0.0
O178 O 0.83505 0.70364 0.49212 0.0
C179 C 0.86508 0.6757 0.40296 0.0
O180 O 0.90521 0.69651 0.5058 0.0
O181 O 0.89906 0.66062 0.49856 0.0
In182 In 0.30397 0.87233 0.50447 0.0
O183 O 0.33032 0.85308 0.45967 0.0
O184 O 0.30879 0.87683 0.42472 0.0
C185 C 0.32428 0.86706 0.58984 0.0
C186 C 0.29714 0.91781 0.5074 0.0
C187 C 0.26729 0.84425 0.50048 0.0
O188 O 0.33522 0.8661 0.55148 0.0
O189 O 0.3031 0.87054 0.58519 0.0
O190 O 0.28673 0.83737 0.51369 0.0
O191 O 0.26651 0.86506 0.48898 0.0
C192 C 0.32476 0.86245 0.42124 0.0
O193 O 0.28117 0.90347 0.51232 0.0
O194 O 0.31674 0.90922 0.50116 0.0
In195 In 0.12573 0.30873 0.50997 0.0
O196 O 0.09714 0.28194 0.5076 0.0
O197 O 0.08805 0.31724 0.50877 0.0
C198 C 0.16338 0.28223 0.51296 0.0
C199 C 0.13173 0.32897 0.42517 0.0
C200 C 0.12743 0.3285 0.59587 0.0
O201 O 0.1435 0.27379 0.51002 0.0
O202 O 0.16408 0.30378 0.5143 0.0
O203 O 0.12888 0.33982 0.55802 0.0
O204 O 0.12497 0.30719 0.5904 0.0
C205 C 0.08134 0.2967 0.50782 0.0
O206 O 0.13479 0.33935 0.46369 0.0
O207 O 0.12534 0.30842 0.42934 0.0
H208 H 0.21571 0.54734 0.02287 0.0
H209 H 0.14434 0.56156 0.99113 0.0
H210 H 0.13716 0.52052 0.97977 0.0
H211 H 0.22215 0.49896 0.93951 0.0
H212 H 0.24 0.4827 0.97911 0.0
H213 H 0.24043 0.51357 0.981 0.0
H214 H 0.23054 0.51238 0.07008 0.0
H215 H 0.22999 0.48156 0.06843 0.0
H216 H 0.20537 0.49711 0.08946 0.0
H217 H 0.13641 0.47885 0.97745 0.0
H218 H 0.14229 0.43732 0.98298 0.0
H219 H 0.21413 0.44836 0.01583 0.0
C220 C 0.19871 0.54175 0.0128 0.0
C221 C 0.18057 0.55758 0.00786 0.0
C222 C 0.15846 0.54971 0.99528 0.0
C223 C 0.1542 0.52644 0.98854 0.0
C224 C 0.17224 0.51122 0.99446 0.0
C225 C 0.19407 0.51838 0.00613 0.0
C226 C 0.20992 0.49801 0.01265 0.0
C227 C 0.22927 0.49833 0.97587 0.0
C228 C 0.21951 0.49723 0.06316 0.0
C229 C 0.19337 0.47842 0.00374 0.0
C230 C 0.1718 0.4866 0.99303 0.0
C231 C 0.15326 0.47215 0.98533 0.0
C232 C 0.15677 0.44859 0.98879 0.0
C233 C 0.17866 0.43966 0.9998 0.0
C234 C 0.19727 0.45477 0.00697 0.0
H235 H 0.44907 0.21875 0.02157 0.0
H236 H 0.43628 0.14992 0.96985 0.0
H237 H 0.47754 0.14427 0.95768 0.0
H238 H 0.49859 0.23155 0.94353 0.0
H239 H 0.51398 0.24664 0.98905 0.0
H240 H 0.4831 0.24662 0.98894 0.0
H241 H 0.4829 0.23064 0.07425 0.0
H242 H 0.51372 0.23063 0.07462 0.0
H243 H 0.49824 0.20458 0.08711 0.0
H244 H 0.51928 0.14444 0.95653 0.0
H245 H 0.56052 0.14987 0.96935 0.0
H246 H 0.54784 0.21836 0.02304 0.0
C247 C 0.45504 0.20269 0.00697 0.0
C248 C 0.43959 0.18477 0.99654 0.0
C249 C 0.4479 0.16381 0.97826 0.0
C250 C 0.47127 0.16048 0.97088 0.0
C251 C 0.48614 0.17827 0.98206 0.0
C252 C 0.47851 0.19894 0.99984 0.0
C253 C 0.49852 0.2144 0.01238 0.0
C254 C 0.49854 0.23609 0.98163 0.0
C255 C 0.49833 0.2204 0.06523 0.0
C256 C 0.51845 0.19885 1.00003 0.0
C257 C 0.51077 0.17826 0.98194 0.0
C258 C 0.52559 0.16056 0.97016 0.0
C259 C 0.54898 0.16379 0.97774 0.0
C260 C 0.55731 0.18453 0.99709 0.0
C261 C 0.54189 0.20246 0.00763 0.0
H262 H 0.7854 0.44377 0.01186 0.0
H263 H 0.85784 0.43168 0.98742 0.0
H264 H 0.86483 0.47325 0.98646 0.0
H265 H 0.78082 0.49342 0.93663 0.0
H266 H 0.7611 0.5082 0.9749 0.0
H267 H 0.76165 0.47736 0.97406 0.0
H268 H 0.76848 0.47685 0.0644 0.0
H269 H 0.76805 0.5077 0.06548 0.0
H270 H 0.79239 0.49245 0.08868 0.0
H271 H 0.86431 0.51559 0.98846 0.0
H272 H 0.85603 0.55695 0.99077 0.0
H273 H 0.78392 0.54216 0.01329 0.0
C274 C 0.8027 0.44992 0.00623 0.0
C275 C 0.82108 0.43454 0.99973 0.0
C276 C 0.84349 0.44317 0.99245 0.0
C277 C 0.84767 0.46674 0.99192 0.0
C278 C 0.82924 0.48144 0.99866 0.0
C279 C 0.80719 0.47347 0.00549 0.0
C280 C 0.79049 0.49311 0.0114 0.0
C281 C 0.77245 0.49301 0.97189 0.0
C282 C 0.77919 0.49248 0.06041 0.0
C283 C 0.80665 0.5133 0.00668 0.0
C284 C 0.82892 0.50612 0.99954 0.0
C285 C 0.84695 0.52149 0.99401 0.0
C286 C 0.84207 0.54492 0.99543 0.0
C287 C 0.81935 0.5527 1.0022 0.0
C288 C 0.80145 0.53666 0.00813 0.0
H289 H 0.54502 0.83282 0.00417 0.0
H290 H 0.55697 0.75951 0.01227 0.0
H291 H 0.51536 0.75259 0.01199 0.0
H292 H 0.49526 0.83348 0.08026 0.0
H293 H 0.48062 0.85517 0.04655 0.0
H294 H 0.51145 0.85448 0.04757 0.0
H295 H 0.5122 0.85252 0.95622 0.0
H296 H 0.48136 0.85314 0.95494 0.0
H297 H 0.49658 0.83012 0.9265 0.0
H298 H 0.4728 0.75336 0.0093 0.0
H299 H 0.43145 0.76199 0.0067 0.0
H300 H 0.44685 0.83474 1.00151 0.0
C301 C 0.53884 0.81534 0.00602 0.0
C302 C 0.55417 0.7967 0.00822 0.0
C303 C 0.5455 0.77405 0.0106 0.0
C304 C 0.5219 0.76992 0.01042 0.0
C305 C 0.50723 0.78863 0.008 0.0
C306 C 0.51528 0.81089 0.00604 0.0
C307 C 0.49573 0.82787 0.00375 0.0
C308 C 0.49577 0.84368 0.04712 0.0
C309 C 0.49652 0.84172 0.9576 0.0
C310 C 0.4755 0.81162 0.00458 0.0
C311 C 0.48254 0.78908 0.00692 0.0
C312 C 0.46703 0.77094 0.00761 0.0
C313 C 0.44361 0.77601 0.00605 0.0
C314 C 0.43601 0.799 0.00399 0.0
C315 C 0.4522 0.81699 0.00321 0.0
H316 H 0.65899 0.04697 0.51445 0.0
H317 H 0.73173 0.06247 0.51183 0.0
H318 H 0.74042 0.02114 0.50837 0.0
H319 H 0.6625 -0.00272 0.58747 0.0
H320 H 0.64055 0.9817 0.55633 0.0
H321 H 0.63993 0.01253 0.55758 0.0
H322 H 0.63936 0.0136 0.46617 0.0
H323 H 0.63989 0.98276 0.46462 0.0
H324 H 0.66146 -0.00104 0.43358 0.0
H325 H 0.7413 0.97856 0.50765 0.0
H326 H 0.73443 0.93693 0.507 0.0
H327 H 0.66103 0.94883 0.50877 0.0
C328 C 0.67674 0.04166 0.51296 0.0
C329 C 0.69472 0.05786 0.51346 0.0
C330 C 0.71772 0.0503 0.51143 0.0
C331 C 0.72282 0.02689 0.5095 0.0
C332 C 0.70471 0.01136 0.50939 0.0
C333 C 0.68214 0.01837 0.5108 0.0
C334 C 0.66592 -0.00191 0.5104 0.0
C335 C 0.65137 -0.00263 0.55564 0.0
C336 C 0.65077 -0.00162 0.46605 0.0
C337 C 0.68295 0.97858 0.50896 0.0
C338 C 0.70521 0.98666 0.50845 0.0
C339 C 0.72396 0.972 0.50784 0.0
C340 C 0.71986 0.94839 0.50757 0.0
C341 C 0.6972 0.9397 0.50778 0.0
C342 C 0.67852 0.95502 0.50847 0.0
H343 H 0.94819 0.70795 0.50958 0.0
H344 H 0.93454 0.63485 0.50583 0.0
H345 H 0.97604 0.6271 0.50993 0.0
H346 H -0.00148 0.70662 0.43717 0.0
H347 H 0.01324 0.72855 0.4701 0.0
H348 H 0.98242 0.72838 0.46772 0.0
H349 H 0.98057 0.72773 0.55909 0.0
H350 H 0.01139 0.72797 0.56176 0.0
H351 H 0.9955 0.70558 0.59099 0.0
H352 H 0.01877 0.62728 0.51428 0.0
H353 H 0.06022 0.63539 0.51865 0.0
H354 H 0.04601 0.70838 0.51852 0.0
C355 C 0.95394 0.69032 0.50979 0.0
C356 C 0.93822 0.67198 0.50747 0.0
C357 C 0.94635 0.64914 0.50761 0.0
C358 C 0.96986 0.64456 0.50992 0.0
C359 C 0.98492 0.66303 0.51195 0.0
C360 C 0.97733 0.68545 0.51192 0.0
C361 C -0.00287 0.70216 0.51398 0.0
C362 C -0.00214 0.71732 0.46959 0.0
C363 C 0.99608 0.71671 0.55915 0.0
C364 C 0.01704 0.68562 0.51518 0.0
C365 C 0.00962 0.66314 0.51406 0.0
C366 C 0.02482 0.6448 0.51514 0.0
C367 C 0.04829 0.64958 0.51761 0.0
C368 C 0.05625 0.67249 0.51884 0.0
C369 C 0.04039 0.69069 0.51746 0.0
H370 H 0.33164 0.04961 0.50379 0.0
H371 H 0.25935 0.06578 0.51658 0.0
H372 H 0.25014 0.02441 0.51652 0.0
H373 H 0.32508 0.00132 0.42593 0.0
H374 H 0.34794 0.98527 0.45294 0.0
H375 H 0.34867 0.01611 0.45345 0.0
H376 H 0.35238 0.0157 0.5446 0.0
H377 H 0.35161 0.98486 0.54439 0.0
H378 H 0.33128 0.0007 0.57936 0.0
H379 H 0.24905 0.98136 0.5166 0.0
H380 H 0.256 0.93964 0.5153 0.0
H381 H 0.32905 0.95201 0.50191 0.0
C382 C 0.31385 0.04446 0.50641 0.0
C383 C 0.29618 0.06081 0.51018 0.0
C384 C 0.27313 0.05346 0.51361 0.0
C385 C 0.26775 0.03004 0.51364 0.0
C386 C 0.28563 0.01435 0.51011 0.0
C387 C 0.3082 0.02125 0.50643 0.0
C388 C 0.32425 0.00099 0.50332 0.0
C389 C 0.33724 0.00093 0.4561 0.0
C390 C 0.34085 0.00054 0.54543 0.0
C391 C 0.30717 0.98157 0.50596 0.0
C392 C 0.285 0.98961 0.50991 0.0
C393 C 0.26632 0.97485 0.51338 0.0
C394 C 0.27045 0.95122 0.51267 0.0
C395 C 0.29305 0.94267 0.50845 0.0
C396 C 0.31159 0.95808 0.50506 0.0
H397 H 0.04551 0.32617 0.51289 0.0
H398 H 0.06188 0.25388 0.50237 0.0
H399 H 0.02042 0.24459 0.50213 0.0
H400 H -0.0026 0.32007 0.59057 0.0
H401 H 0.98149 0.34287 0.56301 0.0
H402 H 0.01232 0.34346 0.56253 0.0
H403 H 0.01208 0.3467 0.47125 0.0
H404 H 0.98126 0.34616 0.47145 0.0
H405 H -0.00303 0.32554 0.43697 0.0
H406 H 0.97667 0.24371 0.50205 0.0
H407 H 0.93489 0.25138 0.50204 0.0
H408 H 0.9486 0.32424 0.51339 0.0
C409 C 0.04043 0.30836 0.51053 0.0
C410 C 0.05682 0.29072 0.50757 0.0
C411 C 0.0495 0.26763 0.50464 0.0
C412 C 0.02604 0.26222 0.50452 0.0
C413 C 0.01029 0.28011 0.50751 0.0
C414 C 0.01726 0.3027 0.51051 0.0
C415 C -0.00285 0.31886 0.51318 0.0
C416 C -0.00291 0.33209 0.56012 0.0
C417 C -0.00315 0.33527 0.47068 0.0
C418 C 0.97768 0.30189 0.51094 0.0
C419 C 0.98548 0.2796 0.50774 0.0
C420 C 0.9704 0.2611 0.50468 0.0
C421 C 0.94675 0.2656 0.50472 0.0
C422 C 0.93859 0.28837 0.50778 0.0
C423 C 0.95432 0.30663 0.51113 0.0
H424 H 0.26151 0.33457 0.01157 0.0
H425 H 0.20277 0.29195 0.97741 0.0
H426 H 0.22781 0.25838 0.97106 0.0
H427 H 0.30253 0.30511 0.93403 0.0
H428 H 0.32589 0.30743 0.97529 0.0
H429 H 0.30371 0.32887 0.97455 0.0
H430 H 0.29613 0.32184 0.06344 0.0
H431 H 0.31825 0.30036 0.06444 0.0
H432 H 0.28967 0.29326 0.08368 0.0
H433 H 0.2577 0.22929 0.97225 0.0
H434 H 0.29193 0.20527 0.9806 0.0
H435 H 0.33258 0.26552 0.01383 0.0
C436 C 0.25405 0.3182 1.00226 0.0
C437 C 0.2302 0.31585 0.99497 0.0
C438 C 0.22097 0.29415 0.9833 0.0
C439 C 0.23505 0.27495 0.97944 0.0
C440 C 0.25836 0.2777 0.98733 0.0
C441 C 0.26794 0.29867 0.99843 0.0
C442 C 0.29352 0.29635 0.00696 0.0
C443 C 0.30722 0.31027 0.97053 0.0
C444 C 0.29975 0.30337 0.05765 0.0
C445 C 0.2966 0.27078 0.99949 0.0
C446 C 0.27602 0.26053 0.98799 0.0
C447 C 0.274 0.23707 0.9809 0.0
C448 C 0.29355 0.22358 0.98591 0.0
C449 C 0.31489 0.23354 0.99784 0.0
C450 C 0.3165 0.25751 0.00433 0.0
H451 H 0.73402 0.33172 1.0009 0.0
H452 H 0.78629 0.29788 0.08436 0.0
H453 H 0.75907 0.26718 0.10445 0.0
H454 H 0.68403 0.31506 0.07539 0.0
H455 H 0.66577 0.3102 0.02512 0.0
H456 H 0.68824 0.33137 0.02204 0.0
H457 H 0.70477 0.31137 0.94793 0.0
H458 H 0.68243 0.29015 0.95084 0.0
H459 H 0.71202 0.28139 0.95073 0.0
H460 H 0.72844 0.2388 0.11004 0.0
H461 H 0.69565 0.21295 0.09926 0.0
H462 H 0.6623 0.26371 0.01087 0.0
C463 C 0.73944 0.31807 0.02424 0.0
C464 C 0.76213 0.31715 0.04143 0.0
C465 C 0.76895 0.29883 0.0709 0.0
C466 C 0.7536 0.2814 0.08273 0.0
C467 C 0.7315 0.28247 0.06459 0.0
C468 C 0.72433 0.30023 0.03591 0.0
C469 C 0.70022 0.2959 0.01784 0.0
C470 C 0.68358 0.31422 0.03621 0.0
C471 C 0.69985 0.29462 0.96363 0.0
C472 C 0.69532 0.27271 0.03995 0.0
C473 C 0.71356 0.26556 0.06726 0.0
C474 C 0.71391 0.24428 0.08925 0.0
C475 C 0.69523 0.22968 0.08273 0.0
C476 C 0.67645 0.23637 0.05434 0.0
C477 C 0.67632 0.25833 0.03327 0.0
H478 H 0.76563 0.69394 0.99005 0.0
H479 H 0.72538 0.63459 0.03091 0.0
H480 H 0.69122 0.65929 0.03959 0.0
H481 H 0.73896 0.73421 0.0692 0.0
H482 H 0.74013 0.75752 0.02751 0.0
H483 H 0.7614 0.73521 0.0255 0.0
H484 H 0.75153 0.72749 0.93778 0.0
H485 H 0.73027 0.74978 0.93948 0.0
H486 H 0.72234 0.72125 0.92152 0.0
H487 H 0.66156 0.69041 0.04277 0.0
H488 H 0.63815 0.72553 0.03868 0.0
H489 H 0.69802 0.76437 0.99525 0.0
C490 C 0.74965 0.68612 1.00093 0.0
C491 C 0.74808 0.66238 0.00986 0.0
C492 C 0.72688 0.65277 0.02389 0.0
C493 C 0.70745 0.66665 0.02899 0.0
C494 C 0.7096 0.69003 0.01989 0.0
C495 C 0.73015 0.69968 0.0061 0.0
C496 C 0.72786 0.72517 0.99765 0.0
C497 C 0.74298 0.73883 0.03203 0.0
C498 C 0.73332 0.73127 0.94604 0.0
C499 C 0.70272 0.72836 0.00853 0.0
C500 C 0.69252 0.70791 0.02151 0.0
C501 C 0.66936 0.70652 0.03274 0.0
C502 C 0.65623 0.72655 0.03032 0.0
C503 C 0.66631 0.74763 0.01665 0.0
C504 C 0.68988 0.7485 0.0059 0.0
H505 H 0.26237 0.66559 0.01627 0.0
H506 H 0.20078 0.70659 0.03212 0.0
H507 H 0.22349 0.74173 0.02354 0.0
H508 H 0.2992 0.70339 0.08235 0.0
H509 H 0.32379 0.69912 0.0449 0.0
H510 H 0.3027 0.67677 0.05099 0.0
H511 H 0.29735 0.676 0.96027 0.0
H512 H 0.31836 0.69843 0.95392 0.0
H513 H 0.29008 0.70207 0.92964 0.0
H514 H 0.25199 0.77234 0.01364 0.0
H515 H 0.28578 0.79735 0.0065 0.0
H516 H 0.3297 0.73747 0.99823 0.0
C517 C 0.25374 0.68198 0.01788 0.0
C518 C 0.22982 0.68335 0.02483 0.0
C519 C 0.2191 0.7051 0.02692 0.0
C520 C 0.23182 0.7252 0.02193 0.0
C521 C 0.25529 0.72334 0.015 0.0
C522 C 0.26626 0.70239 0.01322 0.0
C523 C 0.29186 0.70551 0.00659 0.0
C524 C 0.30517 0.69561 0.04873 0.0
C525 C 0.29988 0.69487 0.95982 0.0
C526 C 0.29341 0.73145 0.00519 0.0
C527 C 0.27203 0.74129 0.00979 0.0
C528 C 0.26887 0.7649 0.00997 0.0
C529 C 0.28816 0.77895 0.00585 0.0
C530 C 0.31032 0.76934 1.00181 0.0
C531 C 0.31294 0.74526 1.00113 0.0
H532 H 0.79766 0.72654 0.48783 0.0
H533 H 0.85777 0.76589 0.52733 0.0
H534 H 0.83372 0.80053 0.53556 0.0
H535 H 0.77081 0.77024 0.41896 0.0
H536 H 0.74223 0.76281 0.43759 0.0
H537 H 0.76416 0.74118 0.43566 0.0
H538 H 0.75662 0.73159 0.52364 0.0
H539 H 0.7347 0.75324 0.52588 0.0
H540 H 0.75819 0.75409 0.56707 0.0
H541 H 0.80313 0.83072 0.539 0.0
H542 H 0.76835 0.85467 0.53581 0.0
H543 H 0.72838 0.79537 0.49365 0.0
C544 C 0.80578 0.74244 0.49824 0.0
C545 C 0.82955 0.74361 0.50697 0.0
C546 C 0.83957 0.76469 0.52045 0.0
C547 C 0.82606 0.7844 0.52529 0.0
C548 C 0.80264 0.78264 0.51648 0.0
C549 C 0.79259 0.76221 0.50316 0.0
C550 C 0.76712 0.76492 0.49522 0.0
C551 C 0.76071 0.75947 0.4438 0.0
C552 C 0.75335 0.75008 0.53004 0.0
C553 C 0.76438 0.79013 0.50589 0.0
C554 C 0.78505 0.80002 0.51828 0.0
C555 C 0.78685 0.82317 0.5294 0.0
C556 C 0.76701 0.83661 0.52751 0.0
C557 C 0.74572 0.82683 0.51448 0.0
C558 C 0.74443 0.80328 0.50378 0.0
H559 H 0.26446 0.79894 0.525 0.0
H560 H 0.22393 0.85621 0.47451 0.0
H561 H 0.18934 0.83184 0.47522 0.0
H562 H 0.23539 0.7552 0.45804 0.0
H563 H 0.23719 0.73415 0.50445 0.0
H564 H 0.25874 0.75612 0.49958 0.0
H565 H 0.25087 0.76835 0.58598 0.0
H566 H 0.22923 0.74648 0.59106 0.0
H567 H 0.22216 0.77592 0.60342 0.0
H568 H 0.15908 0.80137 0.48248 0.0
H569 H 0.13552 0.76657 0.49398 0.0
H570 H 0.19596 0.72939 0.53939 0.0
C571 C 0.24832 0.80632 0.51394 0.0
C572 C 0.24683 0.82943 0.49969 0.0
C573 C 0.22542 0.83851 0.48553 0.0
C574 C 0.20569 0.82483 0.48586 0.0
C575 C 0.2077 0.80213 0.50039 0.0
C576 C 0.22847 0.79291 0.51402 0.0
C577 C 0.22597 0.76804 0.52815 0.0
C578 C 0.24016 0.75246 0.4956 0.0
C579 C 0.23244 0.76451 0.58024 0.0
C580 C 0.20056 0.76473 0.52036 0.0
C581 C 0.1903 0.7846 0.50443 0.0
C582 C 0.16691 0.7857 0.49489 0.0
C583 C 0.15368 0.76589 0.50159 0.0
C584 C 0.16393 0.74534 0.51756 0.0
C585 C 0.18765 0.74486 0.52714 0.0
H586 H 0.23796 0.16758 0.51218 0.0
H587 H 0.29806 0.21102 0.52484 0.0
H588 H 0.27335 0.24523 0.52541 0.0
H589 H 0.20627 0.20455 0.43493 0.0
H590 H 0.17895 0.1985 0.46189 0.0
H591 H 0.2013 0.17727 0.463 0.0
H592 H 0.1984 0.17517 0.55415 0.0
H593 H 0.17602 0.19638 0.55331 0.0
H594 H 0.20135 0.20102 0.58837 0.0
H595 H 0.24256 0.27458 0.5238 0.0
H596 H 0.20723 0.29759 0.5207 0.0
H597 H 0.16684 0.23532 0.5094 0.0
C598 C 0.24589 0.1843 0.51514 0.0
C599 C 0.2699 0.18669 0.51846 0.0
C600 C 0.27968 0.20882 0.52228 0.0
C601 C 0.26581 0.22835 0.52263 0.0
C602 C 0.24221 0.22542 0.51921 0.0
C603 C 0.23228 0.204 0.51561 0.0
C604 C 0.20644 0.20572 0.51229 0.0
C605 C 0.19774 0.19593 0.46522 0.0
C606 C 0.19488 0.19387 0.55455 0.0
C607 C 0.20346 0.23146 0.51438 0.0
C608 C 0.22434 0.24246 0.5184 0.0
C609 C 0.22609 0.2662 0.52073 0.0
C610 C 0.20593 0.2791 0.51892 0.0
C611 C 0.18433 0.26822 0.51483 0.0
C612 C 0.18312 0.24408 0.51257 0.0
H613 H 0.82799 0.23074 0.50308 0.0
H614 H 0.78797 0.29327 0.49464 0.0
H615 H 0.75239 0.27063 0.49816 0.0
H616 H 0.78984 0.19593 0.4312 0.0
H617 H 0.79404 0.17047 0.46614 0.0
H618 H 0.81653 0.19153 0.46183 0.0
H619 H 0.81762 0.19476 0.55299 0.0
H620 H 0.79509 0.17377 0.55758 0.0
H621 H 0.79169 0.2015 0.58464 0.0
H622 H 0.72133 0.2418 0.50563 0.0
H623 H 0.69631 0.20797 0.51377 0.0
H624 H 0.75611 0.16383 0.51594 0.0
C625 C 0.81173 0.23962 0.50168 0.0
C626 C 0.81071 0.26374 0.4986 0.0
C627 C 0.78914 0.27479 0.49694 0.0
C628 C 0.76883 0.2621 0.49895 0.0
C629 C 0.77039 0.23838 0.50237 0.0
C630 C 0.79123 0.22719 0.50345 0.0
C631 C 0.788 0.20151 0.50763 0.0
C632 C 0.79767 0.18914 0.4641 0.0
C633 C 0.79874 0.19235 0.55344 0.0
C634 C 0.7621 0.20011 0.50917 0.0
C635 C 0.75233 0.2216 0.50613 0.0
C636 C 0.72874 0.22484 0.50778 0.0
C637 C 0.71469 0.20554 0.51252 0.0
C638 C 0.72429 0.18333 0.51539 0.0
C639 C 0.74831 0.18062 0.51362 0.0
H640 H 0.12274 0.31155 0.33712 0.0
H641 H 0.15191 0.37035 0.40906 0.0
H642 H 0.16282 0.3871 0.33232 0.0
H643 H 0.16476 0.3066 0.24905 0.0
H644 H 0.1453 0.29894 0.20229 0.0
H645 H 0.1382 0.29223 0.26254 0.0
H646 H 0.09996 0.31434 0.25431 0.0
H647 H 0.1069 0.32105 0.19388 0.0
H648 H 0.10033 0.34373 0.23479 0.0
H649 H 0.17409 0.39548 0.24962 0.0
H650 H 0.18291 0.39642 0.16456 0.0
H651 H 0.1447 0.33341 0.14449 0.0
C652 C 0.13114 0.3281 0.33662 0.0
C653 C 0.13651 0.33968 0.37899 0.0
C654 C 0.14757 0.36124 0.37701 0.0
C655 C 0.15384 0.37088 0.33361 0.0
C656 C 0.14862 0.35889 0.29253 0.0
C657 C 0.13728 0.33811 0.2935 0.0
C658 C 0.13435 0.32851 0.24414 0.0
C659 C 0.14638 0.30519 0.23924 0.0
C660 C 0.10887 0.32681 0.23101 0.0
C661 C 0.14637 0.34686 0.21544 0.0
C662 C 0.15446 0.36419 0.2442 0.0
C663 C 0.16751 0.38224 0.22661 0.0
C664 C 0.17252 0.38256 0.17834 0.0
C665 C 0.16429 0.36511 0.14812 0.0
C666 C 0.15081 0.34718 0.1668 0.0
H667 H 0.67235 0.12153 0.35777 0.0
H668 H 0.61509 0.15286 0.43077 0.0
H669 H 0.59779 0.16309 0.35379 0.0
H670 H 0.67818 0.1624 0.27004 0.0
H671 H 0.68537 0.14258 0.22363 0.0
H672 H 0.69176 0.13551 0.28395 0.0
H673 H 0.66853 0.09784 0.27624 0.0
H674 H 0.66213 0.10474 0.21568 0.0
H675 H 0.6392 0.09892 0.25658 0.0
H676 H 0.58949 0.17402 0.26932 0.0
H677 H 0.58978 0.18321 0.18417 0.0
H678 H 0.65181 0.14332 0.16662 0.0
C679 C 0.65595 0.13017 0.3576 0.0
C680 C 0.64501 0.13642 0.40016 0.0
C681 C 0.62365 0.14781 0.39852 0.0
C682 C 0.61374 0.15368 0.35499 0.0
C683 C 0.62526 0.1477 0.31363 0.0
C684 C 0.64577 0.13594 0.31463 0.0
C685 C 0.65538 0.13257 0.2655 0.0
C686 C 0.67907 0.14395 0.26051 0.0
C687 C 0.65636 0.10699 0.25276 0.0
C688 C 0.63747 0.14494 0.23663 0.0
C689 C 0.62017 0.15346 0.26499 0.0
C690 C 0.60269 0.16705 0.24671 0.0
C691 C 0.60304 0.17223 0.19838 0.0
C692 C 0.62068 0.16374 0.16886 0.0
C693 C 0.63786 0.14962 0.1882 0.0
H694 H 0.83762 0.64503 0.35582 0.0
H695 H 0.88954 0.69727 0.33417 0.0
H696 H 0.88707 0.69146 0.24814 0.0
H697 H 0.85545 0.60735 0.26014 0.0
H698 H 0.82651 0.59986 0.24427 0.0
H699 H 0.83325 0.60723 0.30439 0.0
H700 H 0.80209 0.63882 0.303 0.0
H701 H 0.79525 0.63154 0.24294 0.0
H702 H 0.80301 0.66054 0.25779 0.0
H703 H 0.87816 0.68083 0.16413 0.0
H704 H 0.86246 0.66678 0.08834 0.0
H705 H 0.81606 0.62206 0.16496 0.0
C706 C 0.8486 0.65508 0.33296 0.0
C707 C 0.86381 0.67154 0.35163 0.0
C708 C 0.87775 0.68454 0.32059 0.0
C709 C 0.87653 0.68134 0.27168 0.0
C710 C 0.86126 0.66509 0.25431 0.0
C711 C 0.84751 0.6522 0.28397 0.0
C712 C 0.83189 0.63654 0.25614 0.0
C713 C 0.8371 0.61125 0.26688 0.0
C714 C 0.80657 0.64221 0.26553 0.0
C715 C 0.83884 0.64283 0.2063 0.0
C716 C 0.85594 0.65919 0.20595 0.0
C717 C 0.86483 0.66794 0.16393 0.0
C718 C 0.85584 0.65987 0.1211 0.0
C719 C 0.83808 0.64337 0.12081 0.0
C720 C 0.82967 0.63468 0.16404 0.0
H721 H 0.31353 0.87825 0.33278 0.0
H722 H 0.36054 0.83328 0.4068 0.0
H723 H 0.37793 0.82212 0.33088 0.0
H724 H 0.30335 0.84156 0.23617 0.0
H725 H 0.30204 0.86399 0.19252 0.0
H726 H 0.29446 0.87 0.25281 0.0
H727 H 0.32447 0.9027 0.25508 0.0
H728 H 0.33217 0.89676 0.19472 0.0
H729 H 0.35384 0.89666 0.23997 0.0
H730 H 0.38821 0.81355 0.24796 0.0
H731 H 0.39081 0.80768 0.16214 0.0
H732 H 0.33779 0.85857 0.13995 0.0
C733 C 0.32769 0.86628 0.333 0.0
C734 C 0.33575 0.85666 0.37573 0.0
C735 C 0.35413 0.84089 0.37455 0.0
C736 C 0.36416 0.8345 0.33161 0.0
C737 C 0.3557 0.84412 0.29014 0.0
C738 C 0.33793 0.85971 0.29034 0.0
C739 C 0.33137 0.86653 0.24042 0.0
C740 C 0.30632 0.86013 0.22988 0.0
C741 C 0.33573 0.89219 0.23207 0.0
C742 C 0.34789 0.85193 0.21212 0.0
C743 C 0.36185 0.83929 0.24173 0.0
C744 C 0.3776 0.82354 0.22441 0.0
C745 C 0.3789 0.82031 0.1756 0.0
C746 C 0.36462 0.8328 0.14447 0.0
C747 C 0.34919 0.84913 0.16294 0.0
H748 H 0.1598 0.64955 0.67139 0.0
H749 H 0.10003 0.69266 0.69068 0.0
H750 H 0.10157 0.68588 0.77656 0.0
H751 H 0.14654 0.60805 0.7637 0.0
H752 H 0.17599 0.60523 0.78182 0.0
H753 H 0.16928 0.61222 0.72148 0.0
H754 H 0.19479 0.6485 0.727 0.0
H755 H 0.20158 0.6416 0.78728 0.0
H756 H 0.18946 0.66913 0.773 0.0
H757 H 0.11015 0.67523 0.86063 0.0
H758 H 0.12645 0.66286 0.93713 0.0
H759 H 0.1812 0.62783 0.86291 0.0
C760 C 0.14692 0.65734 0.69369 0.0
C761 C 0.12975 0.67153 0.67449 0.0
C762 C 0.11335 0.68172 0.70476 0.0
C763 C 0.11402 0.67791 0.75354 0.0
C764 C 0.13126 0.66397 0.77148 0.0
C765 C 0.14748 0.65392 0.74256 0.0
C766 C 0.1649 0.64066 0.77105 0.0
C767 C 0.16412 0.61502 0.75878 0.0
C768 C 0.18911 0.65058 0.76417 0.0
C769 C 0.15607 0.64503 0.82044 0.0
C770 C 0.13651 0.65829 0.81997 0.0
C771 C 0.12544 0.66477 0.86149 0.0
C772 C 0.13478 0.65767 0.9047 0.0
C773 C 0.15506 0.64446 0.90586 0.0
C774 C 0.16567 0.63796 0.86311 0.0
H775 H 0.3102 0.12784 0.68718 0.0
H776 H 0.37708 0.13802 0.62354 0.0
H777 H 0.39377 0.14417 0.70248 0.0
H778 H 0.31449 0.17071 0.77088 0.0
H779 H 0.29986 0.15554 0.81742 0.0
H780 H 0.29366 0.14895 0.7568 0.0
H781 H 0.30352 0.1063 0.77186 0.0
H782 H 0.30973 0.11277 0.83271 0.0
H783 H 0.33098 0.09889 0.79653 0.0
H784 H 0.40203 0.15458 0.78536 0.0
H785 H 0.40174 0.16737 0.86836 0.0
H786 H 0.33011 0.14873 0.88024 0.0
C787 C 0.32844 0.13089 0.68999 0.0
C788 C 0.34239 0.13243 0.64933 0.0
C789 C 0.36612 0.1367 0.65428 0.0
C790 C 0.37576 0.14014 0.69895 0.0
C791 C 0.36147 0.13895 0.73828 0.0
C792 C 0.33836 0.13421 0.73438 0.0
C793 C 0.32654 0.13552 0.78196 0.0
C794 C 0.30752 0.15377 0.78172 0.0
C795 C 0.31714 0.11197 0.79663 0.0
C796 C 0.34645 0.14263 0.81292 0.0
C797 C 0.36646 0.14432 0.78693 0.0
C798 C 0.38665 0.15279 0.80636 0.0
C799 C 0.38631 0.16007 0.85334 0.0
C800 C 0.36602 0.15859 0.88043 0.0
C801 C 0.34597 0.14933 0.8604 0.0
H802 H 0.84912 0.32619 0.86796 0.0
H803 H 0.80411 0.38454 0.84841 0.0
H804 H 0.81166 0.38382 0.76296 0.0
H805 H 0.89078 0.34089 0.77678 0.0
H806 H 0.89441 0.31172 0.75738 0.0
H807 H 0.88687 0.3176 0.81783 0.0
H808 H 0.85123 0.29137 0.81019 0.0
H809 H 0.85872 0.28535 0.74983 0.0
H810 H 0.83082 0.29668 0.76377 0.0
H811 H 0.82362 0.37701 0.68019 0.0
H812 H 0.83666 0.36215 0.60327 0.0
H813 H 0.87222 0.30677 0.67449 0.0
C814 C 0.84105 0.33887 0.8456 0.0
C815 C 0.82612 0.35548 0.86468 0.0
C816 C 0.81555 0.37162 0.83441 0.0
C817 C 0.81983 0.37146 0.78588 0.0
C818 C 0.83453 0.35487 0.768 0.0
C819 C 0.84479 0.33869 0.79668 0.0
C820 C 0.85868 0.32186 0.76766 0.0
C821 C 0.8842 0.3231 0.7807 0.0
C822 C 0.8493 0.29736 0.77319 0.0
C823 C 0.85445 0.33109 0.71839 0.0
C824 C 0.84075 0.35035 0.71959 0.0
C825 C 0.83436 0.36193 0.67869 0.0
C826 C 0.84189 0.3534 0.63521 0.0
C827 C 0.85539 0.33332 0.63297 0.0
C828 C 0.8619 0.32217 0.67518 0.0
H829 H 0.6518 0.85047 0.86313 0.0
H830 H 0.60648 0.79262 0.8399 0.0
H831 H 0.60884 0.79882 0.75404 0.0
H832 H 0.63094 0.88597 0.76481 0.0
H833 H 0.65911 0.89642 0.75 0.0
H834 H 0.65245 0.88873 0.81007 0.0
H835 H 0.6868 0.86069 0.81119 0.0
H836 H 0.69357 0.86831 0.75123 0.0
H837 H 0.68877 0.83873 0.76668 0.0
H838 H 0.61723 0.81007 0.67041 0.0
H839 H 0.63266 0.82466 0.59484 0.0
H840 H 0.67338 0.87453 0.67132 0.0
C841 C 0.64214 0.83935 0.83993 0.0
C842 C 0.62885 0.82114 0.85828 0.0
C843 C 0.61676 0.8067 0.82672 0.0
C844 C 0.61791 0.81012 0.77783 0.0
C845 C 0.63133 0.82802 0.76075 0.0
C846 C 0.6433 0.84238 0.79075 0.0
C847 C 0.65752 0.85947 0.76289 0.0
C848 C 0.64952 0.88411 0.77252 0.0
C849 C 0.68318 0.85662 0.77364 0.0
C850 C 0.65192 0.85222 0.71276 0.0
C851 C 0.63655 0.83423 0.71234 0.0
C852 C 0.62919 0.82424 0.67027 0.0
C853 C 0.63801 0.83266 0.62749 0.0
C854 C 0.65416 0.85075 0.62709 0.0
C855 C 0.66096 0.86076 0.67041 0.0
H856 H 0.86802 0.6755 0.66463 0.0
H857 H 0.82256 0.6298 0.58838 0.0
H858 H 0.80812 0.61449 0.66431 0.0
H859 H 0.88206 0.63597 0.75947 0.0
H860 H 0.88271 0.65818 0.8036 0.0
H861 H 0.88995 0.6648 0.74331 0.0
H862 H 0.85893 0.69651 0.74219 0.0
H863 H 0.85153 0.68995 0.80236 0.0
H864 H 0.82979 0.68933 0.75727 0.0
H865 H 0.79739 0.60575 0.74843 0.0
H866 H 0.79188 0.60308 0.83455 0.0
H867 H 0.84501 0.6541 0.85573 0.0
C868 C 0.85514 0.66215 0.66383 0.0
C869 C 0.84636 0.65381 0.62066 0.0
C870 C 0.82953 0.63636 0.6211 0.0
C871 C 0.82124 0.6276 0.664 0.0
C872 C 0.83011 0.63639 0.70595 0.0
C873 C 0.8468 0.65317 0.70618 0.0
C874 C 0.85324 0.65999 0.756 0.0
C875 C 0.87849 0.65439 0.76618 0.0
C876 C 0.84806 0.68545 0.76496 0.0
C877 C 0.83734 0.64463 0.78391 0.0
C878 C 0.82415 0.63115 0.75437 0.0
C879 C 0.80773 0.61608 0.77188 0.0
C880 C 0.8047 0.61474 0.82085 0.0
C881 C 0.81807 0.62835 0.85178 0.0
C882 C 0.83466 0.64339 0.83295 0.0
H883 H 0.30469 0.87147 0.67759 0.0
H884 H 0.36875 0.85547 0.60725 0.0
H885 H 0.38696 0.84862 0.68454 0.0
H886 H 0.33043 0.90035 0.7806 0.0
H887 H 0.30948 0.88894 0.82103 0.0
H888 H 0.30181 0.89422 0.7604 0.0
H889 H 0.2887 0.85202 0.75162 0.0
H890 H 0.29625 0.84664 0.81215 0.0
H891 H 0.30839 0.82929 0.76592 0.0
H892 H 0.39708 0.83969 0.76777 0.0
H893 H 0.39879 0.82993 0.85245 0.0
H894 H 0.32901 0.85357 0.87067 0.0
C895 C 0.32262 0.86678 0.67852 0.0
C896 C 0.33533 0.864 0.63639 0.0
C897 C 0.35871 0.85775 0.63904 0.0
C898 C 0.36921 0.85388 0.68279 0.0
C899 C 0.35618 0.8566 0.72362 0.0
C900 C 0.33344 0.86305 0.722 0.0
C901 C 0.32309 0.8638 0.77113 0.0
C902 C 0.31577 0.88829 0.78404 0.0
C903 C 0.30292 0.84693 0.77544 0.0
C904 C 0.34339 0.85613 0.8005 0.0
C905 C 0.36232 0.85217 0.77225 0.0
C906 C 0.38255 0.84317 0.79038 0.0
C907 C 0.38337 0.83768 0.83844 0.0
C908 C 0.3642 0.84146 0.86798 0.0
C909 C 0.34411 0.85122 0.849 0.0
H910 H 0.12402 0.30767 0.68241 0.0
H911 H 0.13629 0.37339 0.61519 0.0
H912 H 0.14326 0.39083 0.69311 0.0
H913 H 0.09581 0.3308 0.79004 0.0
H914 H 0.10888 0.30965 0.82771 0.0
H915 H 0.10244 0.30278 0.76715 0.0
H916 H 0.1448 0.2914 0.75341 0.0
H917 H 0.15137 0.29826 0.81376 0.0
H918 H 0.16715 0.31175 0.76662 0.0
H919 H 0.15382 0.3999 0.77566 0.0
H920 H 0.1657 0.40057 0.85921 0.0
H921 H 0.14472 0.32973 0.87497 0.0
C922 C 0.12775 0.32583 0.68422 0.0
C923 C 0.1296 0.33922 0.64281 0.0
C924 C 0.13472 0.36285 0.64649 0.0
C925 C 0.13866 0.37291 0.69058 0.0
C926 C 0.13711 0.35917 0.73066 0.0
C927 C 0.13156 0.3362 0.72806 0.0
C928 C 0.13232 0.32502 0.77637 0.0
C929 C 0.10844 0.31657 0.79119 0.0
C930 C 0.14996 0.30546 0.77759 0.0
C931 C 0.13995 0.34514 0.80628 0.0
C932 C 0.1425 0.36468 0.77909 0.0
C933 C 0.1514 0.38489 0.79755 0.0
C934 C 0.15816 0.3851 0.84488 0.0
C935 C 0.15572 0.36533 0.87331 0.0
C936 C 0.14611 0.34522 0.8541 0.0
H937 H 0.62942 0.18408 0.86104 0.0
H938 H 0.66602 0.12983 0.9335 0.0
H939 H 0.67599 0.11249 0.8565 0.0
H940 H 0.60585 0.14824 0.7686 0.0
H941 H 0.60854 0.17003 0.72384 0.0
H942 H 0.60423 0.17808 0.78456 0.0
H943 H 0.64094 0.20304 0.78186 0.0
H944 H 0.64529 0.19517 0.72112 0.0
H945 H 0.66764 0.19028 0.76377 0.0
H946 H 0.68361 0.1024 0.77184 0.0
H947 H 0.68758 0.09947 0.68532 0.0
H948 H 0.6441 0.15906 0.66791 0.0
C949 C 0.63958 0.16857 0.86071 0.0
C950 C 0.64712 0.15833 0.90315 0.0
C951 C 0.66014 0.13793 0.90134 0.0
C952 C 0.66584 0.12798 0.85783 0.0
C953 C 0.65809 0.13849 0.81662 0.0
C954 C 0.64512 0.15825 0.81769 0.0
C955 C 0.63891 0.16613 0.76836 0.0
C956 C 0.61283 0.16558 0.76092 0.0
C957 C 0.6488 0.19007 0.7582 0.0
C958 C 0.65075 0.14791 0.73924 0.0
C959 C 0.66174 0.13216 0.76782 0.0
C960 C 0.67486 0.11445 0.74914 0.0
C961 C 0.67702 0.11295 0.70001 0.0
C962 C 0.66593 0.1289 0.6701 0.0
C963 C 0.65237 0.14639 0.69 0.0
H964 H 0.87063 0.30256 0.32975 0.0
H965 H 0.86484 0.36952 0.39512 0.0
H966 H 0.86032 0.38717 0.31654 0.0
H967 H 0.90155 0.32193 0.22191 0.0
H968 H 0.88637 0.30202 0.18469 0.0
H969 H 0.8919 0.29491 0.24553 0.0
H970 H 0.84852 0.28814 0.25917 0.0
H971 H 0.84288 0.29519 0.19852 0.0
H972 H 0.82851 0.31061 0.24497 0.0
H973 H 0.85147 0.39684 0.23332 0.0
H974 H 0.83929 0.39806 0.15 0.0
H975 H 0.85227 0.32526 0.13689 0.0
C976 C 0.86885 0.32099 0.32743 0.0
C977 C 0.86813 0.33471 0.36848 0.0
C978 C 0.86551 0.35871 0.36411 0.0
C979 C 0.86302 0.3689 0.31963 0.0
C980 C 0.86344 0.35486 0.27989 0.0
C981 C 0.86645 0.33145 0.28325 0.0
C982 C 0.86459 0.3201 0.23528 0.0
C983 C 0.88747 0.30909 0.22102 0.0
C984 C 0.84496 0.30248 0.23446 0.0
C985 C 0.85924 0.34069 0.20467 0.0
C986 C 0.85888 0.36059 0.23117 0.0
C987 C 0.85221 0.3815 0.21197 0.0
C988 C 0.8453 0.38202 0.16473 0.0
C989 C 0.84529 0.36184 0.13714 0.0
C990 C 0.85285 0.34102 0.157 0.0
H991 H 0.61919 0.82074 0.17135 0.0
H992 H 0.66907 0.86149 0.09467 0.0
H993 H 0.68351 0.87706 0.17015 0.0
H994 H 0.60754 0.86316 0.2646 0.0
H995 H 0.60474 0.84157 0.30974 0.0
H996 H 0.59724 0.83497 0.2496 0.0
H997 H 0.62532 0.80066 0.2507 0.0
H998 H 0.633 0.80721 0.31068 0.0
H999 H 0.65491 0.80543 0.266 0.0
H1000 H 0.6946 0.88562 0.25373 0.0
H1001 H 0.7008 0.88794 0.33956 0.0
H1002 H 0.64313 0.84236 0.36299 0.0
C1003 C 0.63292 0.83322 0.17037 0.0
C1004 C 0.64298 0.83998 0.12704 0.0
C1005 C 0.66103 0.85618 0.12734 0.0
C1006 C 0.66935 0.86508 0.17006 0.0
C1007 C 0.65931 0.85777 0.21217 0.0
C1008 C 0.64135 0.84236 0.21268 0.0
C1009 C 0.63415 0.83669 0.26287 0.0
C1010 C 0.60945 0.84457 0.27225 0.0
C1011 C 0.63703 0.81097 0.27315 0.0
C1012 C 0.65121 0.85093 0.2906 0.0
C1013 C 0.6655 0.86299 0.26055 0.0
C1014 C 0.68334 0.87647 0.27755 0.0
C1015 C 0.68676 0.87761 0.32643 0.0
C1016 C 0.67238 0.86543 0.35804 0.0
C1017 C 0.65421 0.85209 0.33977 0.0
H1018 H 0.12375 0.6729 0.36351 0.0
H1019 H 0.17304 0.63133 0.43945 0.0
H1020 H 0.1868 0.6153 0.36361 0.0
H1021 H 0.11026 0.63076 0.27232 0.0
H1022 H 0.10758 0.65227 0.22702 0.0
H1023 H 0.10087 0.65924 0.28737 0.0
H1024 H 0.12987 0.69287 0.2846 0.0
H1025 H 0.13671 0.68599 0.22436 0.0
H1026 H 0.15915 0.68733 0.26791 0.0
H1027 H 0.197 0.60631 0.27896 0.0
H1028 H 0.20209 0.60399 0.19253 0.0
H1029 H 0.14519 0.65075 0.17289 0.0
C1030 C 0.13729 0.66025 0.3643 0.0
C1031 C 0.14739 0.65334 0.40726 0.0
C1032 C 0.16506 0.63677 0.40685 0.0
C1033 C 0.17295 0.62761 0.36401 0.0
C1034 C 0.16278 0.63504 0.32218 0.0
C1035 C 0.1452 0.65085 0.32209 0.0
C1036 C 0.13759 0.65658 0.27245 0.0
C1037 C 0.11259 0.64927 0.26433 0.0
C1038 C 0.14105 0.68221 0.26172 0.0
C1039 C 0.15395 0.64188 0.24439 0.0
C1040 C 0.16832 0.62954 0.27367 0.0
C1041 C 0.18566 0.61567 0.25574 0.0
C1042 C 0.18845 0.61451 0.20665 0.0
C1043 C 0.17393 0.62708 0.17613 0.0
C1044 C 0.15633 0.64072 0.19536 0.0
H1045 H 0.31714 0.1262 0.34355 0.0
H1046 H 0.37269 0.16119 0.41541 0.0
H1047 H 0.38863 0.17311 0.33851 0.0
H1048 H 0.35152 0.1062 0.24237 0.0
H1049 H 0.32842 0.11036 0.2011 0.0
H1050 H 0.32224 0.10323 0.26167 0.0
H1051 H 0.29666 0.13931 0.26858 0.0
H1052 H 0.30284 0.14661 0.2082 0.0
H1053 H 0.30854 0.16701 0.25446 0.0
H1054 H 0.39624 0.18446 0.25533 0.0
H1055 H 0.39666 0.19256 0.16993 0.0
H1056 H 0.33737 0.14868 0.15083 0.0
C1057 C 0.33284 0.13611 0.34303 0.0
C1058 C 0.34371 0.14281 0.38535 0.0
C1059 C 0.36416 0.15582 0.38335 0.0
C1060 C 0.37332 0.16267 0.33988 0.0
C1061 C 0.36199 0.15609 0.29882 0.0
C1062 C 0.34236 0.14287 0.2999 0.0
C1063 C 0.33319 0.13873 0.2506 0.0
C1064 C 0.33389 0.11311 0.23821 0.0
C1065 C 0.30887 0.14851 0.24516 0.0
C1066 C 0.35041 0.1522 0.22174 0.0
C1067 C 0.36686 0.16206 0.25036 0.0
C1068 C 0.3837 0.17654 0.23245 0.0
C1069 C 0.38373 0.18111 0.18398 0.0
C1070 C 0.36716 0.17108 0.15394 0.0
C1071 C 0.35045 0.15624 0.173 0.0
loop_
_geom_bond_atom_site_label_1
_geom_bond_atom_site_label_2
_geom_bond_distance
_geom_bond_site_symmetry_2
_ccdc_geom_bond_type
In0 O1 2.294 . S
In0 O2 2.326 . S
In0 O6 2.266 1_554 S
In0 O7 2.326 1_554 S
In0 O8 2.266 1_554 S
In0 O9 2.327 . S
In0 O11 2.294 . S
In0 O12 2.326 . S
O1 In0 2.294 . S
O1 C10 1.240 . S
O2 In0 2.326 . S
O2 C10 1.252 . S
C3 O6 1.252 . S
C3 O7 1.260 . S
C4 O11 1.240 . S
C4 O12 1.252 . S
C5 O8 1.252 . S
C5 O9 1.259 1_556 S
O6 In0 2.266 1_556 S
O6 C3 1.252 . S
O7 In0 2.326 1_556 S
O7 C3 1.260 . S
O8 In0 2.266 1_556 S
O8 C5 1.252 . S
O9 In0 2.327 . S
O9 C5 1.259 1_554 S
C10 O1 1.240 . S
C10 O2 1.252 . S
O11 In0 2.294 . S
O11 C4 1.240 . S
O12 In0 2.326 . S
O12 C4 1.252 . S
In13 O14 2.294 . S
In13 O15 2.326 . S
In13 O19 2.266 1_554 S
In13 O20 2.326 1_554 S
In13 O21 2.266 1_554 S
In13 O22 2.327 . S
In13 O24 2.294 . S
In13 O25 2.326 . S
O14 In13 2.294 . S
O14 C23 1.240 . S
O15 In13 2.326 . S
O15 C23 1.252 . S
C16 O19 1.252 . S
C16 O20 1.260 . S
C17 O24 1.240 . S
C17 O25 1.252 . S
C18 O21 1.252 . S
C18 O22 1.259 1_556 S
O19 In13 2.266 1_556 S
O19 C16 1.252 . S
O20 In13 2.326 1_556 S
O20 C16 1.260 . S
O21 In13 2.266 1_556 S
O21 C18 1.252 . S
O22 In13 2.327 . S
O22 C18 1.259 1_554 S
C23 O14 1.240 . S
C23 O15 1.252 . S
O24 In13 2.294 . S
O24 C17 1.240 . S
O25 In13 2.326 . S
O25 C17 1.252 . S
In26 O27 2.294 . S
In26 O28 2.326 . S
In26 O32 2.266 1_554 S
In26 O33 2.327 . S
In26 O34 2.266 1_554 S
In26 O35 2.326 1_554 S
In26 O37 2.294 . S
In26 O38 2.326 . S
O27 In26 2.294 . S
O27 C36 1.240 . S
O28 In26 2.326 . S
O28 C36 1.252 . S
C29 O32 1.252 . S
C29 O33 1.259 1_556 S
C30 O37 1.240 . S
C30 O38 1.252 . S
C31 O34 1.252 . S
C31 O35 1.260 . S
O32 In26 2.266 1_556 S
O32 C29 1.252 . S
O33 In26 2.327 . S
O33 C29 1.259 1_554 S
O34 In26 2.266 1_556 S
O34 C31 1.252 . S
O35 In26 2.326 1_556 S
O35 C31 1.260 . S
C36 O27 1.240 . S
C36 O28 1.252 . S
O37 In26 2.294 . S
O37 C30 1.240 . S
O38 In26 2.326 . S
O38 C30 1.252 . S
In39 O40 2.294 . S
In39 O41 2.326 . S
In39 O45 2.266 1_554 S
In39 O46 2.326 1_554 S
In39 O47 2.266 1_554 S
In39 O48 2.327 . S
In39 O50 2.294 . S
In39 O51 2.326 . S
O40 In39 2.294 . S
O40 C49 1.240 . S
O41 In39 2.326 . S
O41 C49 1.252 . S
C42 O45 1.252 . S
C42 O46 1.260 . S
C43 O50 1.240 . S
C43 O51 1.252 . S
C44 O47 1.252 . S
C44 O48 1.259 1_556 S
O45 In39 2.266 1_556 S
O45 C42 1.252 . S
O46 In39 2.326 1_556 S
O46 C42 1.260 . S
O47 In39 2.266 1_556 S
O47 C44 1.252 . S
O48 In39 2.327 . S
O48 C44 1.259 1_554 S
C49 O40 1.240 . S
C49 O41 1.252 . S
O50 In39 2.294 . S
O50 C43 1.240 . S
O51 In39 2.326 . S
O51 C43 1.252 . S
In52 O53 2.294 1_554 S
In52 O54 2.326 1_554 S
In52 O58 2.266 . S
In52 O59 2.326 . S
In52 O60 2.266 . S
In52 O61 2.326 . S
In52 O63 2.294 1_554 S
In52 O64 2.326 1_554 S
O53 In52 2.294 1_556 S
O53 C62 1.240 . S
O54 In52 2.326 1_556 S
O54 C62 1.252 . S
C55 O58 1.252 . S
C55 O59 1.260 . S
C56 O63 1.240 . S
C56 O64 1.252 . S
C57 O60 1.252 . S
C57 O61 1.260 . S
O58 In52 2.266 . S
O58 C55 1.252 . S
O59 In52 2.326 . S
O59 C55 1.260 . S
O60 In52 2.266 . S
O60 C57 1.252 . S
O61 In52 2.326 . S
O61 C57 1.260 . S
C62 O53 1.240 . S
C62 O54 1.252 . S
O63 In52 2.294 1_556 S
O63 C56 1.240 . S
O64 In52 2.326 1_556 S
O64 C56 1.252 . S
In65 O66 2.294 1_554 S
In65 O67 2.326 1_554 S
In65 O71 2.266 . S
In65 O72 2.326 . S
In65 O73 2.266 . S
In65 O74 2.326 . S
In65 O76 2.294 1_554 S
In65 O77 2.326 1_554 S
O66 In65 2.294 1_556 S
O66 C75 1.240 . S
O67 In65 2.326 1_556 S
O67 C75 1.252 . S
C68 O71 1.252 . S
C68 O72 1.260 . S
C69 O76 1.240 . S
C69 O77 1.252 . S
C70 O73 1.252 . S
C70 O74 1.260 . S
O71 In65 2.266 . S
O71 C68 1.252 . S
O72 In65 2.326 . S
O72 C68 1.260 . S
O73 In65 2.266 . S
O73 C70 1.252 . S
O74 In65 2.326 . S
O74 C70 1.260 . S
C75 O66 1.240 . S
C75 O67 1.252 . S
O76 In65 2.294 1_556 S
O76 C69 1.240 . S
O77 In65 2.326 1_556 S
O77 C69 1.252 . S
In78 O79 2.294 1_554 S
In78 O80 2.326 1_554 S
In78 O84 2.266 . S
In78 O85 2.326 . S
In78 O86 2.266 . S
In78 O87 2.326 . S
In78 O89 2.294 1_554 S
In78 O90 2.326 1_554 S
O79 In78 2.294 1_556 S
O79 C88 1.240 . S
O80 In78 2.326 1_556 S
O80 C88 1.252 . S
C81 O84 1.252 . S
C81 O85 1.260 . S
C82 O89 1.240 . S
C82 O90 1.252 . S
C83 O86 1.252 . S
C83 O87 1.260 . S
O84 In78 2.266 . S
O84 C81 1.252 . S
O85 In78 2.326 . S
O85 C81 1.260 . S
O86 In78 2.266 . S
O86 C83 1.252 . S
O87 In78 2.326 . S
O87 C83 1.260 . S
C88 O79 1.240 . S
C88 O80 1.252 . S
O89 In78 2.294 1_556 S
O89 C82 1.240 . S
O90 In78 2.326 1_556 S
O90 C82 1.252 . S
In91 O92 2.294 1_554 S
In91 O93 2.326 1_554 S
In91 O97 2.266 . S
In91 O98 2.326 . S
In91 O99 2.266 . S
In91 O100 2.326 . S
In91 O102 2.294 1_554 S
In91 O103 2.326 1_554 S
O92 In91 2.294 1_556 S
O92 C101 1.240 . S
O93 In91 2.326 1_556 S
O93 C101 1.252 . S
C94 O97 1.252 . S
C94 O98 1.260 . S
C95 O102 1.240 . S
C95 O103 1.252 . S
C96 O99 1.252 . S
C96 O100 1.260 . S
O97 In91 2.266 . S
O97 C94 1.252 . S
O98 In91 2.326 . S
O98 C94 1.260 . S
O99 In91 2.266 . S
O99 C96 1.252 . S
O100 In91 2.326 . S
O100 C96 1.260 . S
C101 O92 1.240 . S
C101 O93 1.252 . S
O102 In91 2.294 1_556 S
O102 C95 1.240 . S
O103 In91 2.326 1_556 S
O103 C95 1.252 . S
In104 O105 2.294 . S
In104 O106 2.326 . S
In104 O110 2.266 . S
In104 O111 2.326 . S
In104 O112 2.266 . S
In104 O113 2.326 . S
In104 O115 2.294 . S
In104 O116 2.326 . S
O105 In104 2.294 . S
O105 C114 1.240 . S
O106 In104 2.326 . S
O106 C114 1.252 . S
C107 O110 1.252 . S
C107 O111 1.260 . S
C108 O115 1.240 . S
C108 O116 1.252 . S
C109 O112 1.252 . S
C109 O113 1.260 . S
O110 In104 2.266 . S
O110 C107 1.252 . S
O111 In104 2.326 . S
O111 C107 1.260 . S
O112 In104 2.266 . S
O112 C109 1.252 . S
O113 In104 2.326 . S
O113 C109 1.260 . S
C114 O105 1.240 . S
C114 O106 1.252 . S
O115 In104 2.294 . S
O115 C108 1.240 . S
O116 In104 2.326 . S
O116 C108 1.252 . S
In117 O118 2.294 . S
In117 O119 2.326 . S
In117 O123 2.266 . S
In117 O124 2.326 . S
In117 O125 2.266 . S
In117 O126 2.326 . S
In117 O128 2.294 . S
In117 O129 2.326 . S
O118 In117 2.294 . S
O118 C127 1.240 . S
O119 In117 2.326 . S
O119 C127 1.252 . S
C120 O123 1.252 . S
C120 O124 1.260 . S
C121 O128 1.240 . S
C121 O129 1.252 . S
C122 O125 1.252 . S
C122 O126 1.260 . S
O123 In117 2.266 . S
O123 C120 1.252 . S
O124 In117 2.326 . S
O124 C120 1.260 . S
O125 In117 2.266 . S
O125 C122 1.252 . S
O126 In117 2.326 . S
O126 C122 1.260 . S
C127 O118 1.240 . S
C127 O119 1.252 . S
O128 In117 2.294 . S
O128 C121 1.240 . S
O129 In117 2.326 . S
O129 C121 1.252 . S
In130 O131 2.294 . S
In130 O132 2.326 . S
In130 O136 2.266 . S
In130 O137 2.326 . S
In130 O138 2.266 . S
In130 O139 2.326 . S
In130 O141 2.294 . S
In130 O142 2.326 . S
O131 In130 2.294 . S
O131 C140 1.240 . S
O132 In130 2.326 . S
O132 C140 1.252 . S
C133 O136 1.252 . S
C133 O137 1.260 . S
C134 O141 1.240 . S
C134 O142 1.252 . S
C135 O138 1.252 . S
C135 O139 1.260 . S
O136 In130 2.266 . S
O136 C133 1.252 . S
O137 In130 2.326 . S
O137 C133 1.260 . S
O138 In130 2.266 . S
O138 C135 1.252 . S
O139 In130 2.326 . S
O139 C135 1.260 . S
C140 O131 1.240 . S
C140 O132 1.252 . S
O141 In130 2.294 . S
O141 C134 1.240 . S
O142 In130 2.326 . S
O142 C134 1.252 . S
In143 O144 2.294 . S
In143 O145 2.326 . S
In143 O149 2.266 . S
In143 O150 2.326 . S
In143 O151 2.266 . S
In143 O152 2.326 . S
In143 O154 2.294 . S
In143 O155 2.326 . S
O144 In143 2.294 . S
O144 C153 1.240 . S
O145 In143 2.326 . S
O145 C153 1.252 . S
C146 O149 1.252 . S
C146 O150 1.260 . S
C147 O154 1.240 . S
C147 O155 1.252 . S
C148 O151 1.252 . S
C148 O152 1.260 . S
O149 In143 2.266 . S
O149 C146 1.252 . S
O150 In143 2.326 . S
O150 C146 1.260 . S
O151 In143 2.266 . S
O151 C148 1.252 . S
O152 In143 2.326 . S
O152 C148 1.260 . S
C153 O144 1.240 . S
C153 O145 1.252 . S
O154 In143 2.294 . S
O154 C147 1.240 . S
O155 In143 2.326 . S
O155 C147 1.252 . S
In156 O157 2.294 . S
In156 O158 2.326 . S
In156 O162 2.266 . S
In156 O163 2.326 . S
In156 O164 2.266 . S
In156 O165 2.326 . S
In156 O167 2.294 . S
In156 O168 2.326 . S
O157 In156 2.294 . S
O157 C166 1.240 . S
O158 In156 2.326 . S
O158 C166 1.252 . S
C159 O162 1.252 . S
C159 O163 1.260 . S
C160 O167 1.240 . S
C160 O168 1.252 . S
C161 O164 1.252 . S
C161 O165 1.260 . S
O162 In156 2.266 . S
O162 C159 1.252 . S
O163 In156 2.326 . S
O163 C159 1.260 . S
O164 In156 2.266 . S
O164 C161 1.252 . S
O165 In156 2.326 . S
O165 C161 1.260 . S
C166 O157 1.240 . S
C166 O158 1.252 . S
O167 In156 2.294 . S
O167 C160 1.240 . S
O168 In156 2.326 . S
O168 C160 1.252 . S
In169 O170 2.294 . S
In169 O171 2.326 . S
In169 O175 2.266 . S
In169 O176 2.326 . S
In169 O177 2.266 . S
In169 O178 2.326 . S
In169 O180 2.294 . S
In169 O181 2.326 . S
O170 In169 2.294 . S
O170 C179 1.240 . S
O171 In169 2.326 . S
O171 C179 1.252 . S
C172 O175 1.252 . S
C172 O176 1.260 . S
C173 O180 1.240 . S
C173 O181 1.252 . S
C174 O177 1.252 . S
C174 O178 1.260 . S
O175 In169 2.266 . S
O175 C172 1.252 . S
O176 In169 2.326 . S
O176 C172 1.260 . S
O177 In169 2.266 . S
O177 C174 1.252 . S
O178 In169 2.326 . S
O178 C174 1.260 . S
C179 O170 1.240 . S
C179 O171 1.252 . S
O180 In169 2.294 . S
O180 C173 1.240 . S
O181 In169 2.326 . S
O181 C173 1.252 . S
In182 O183 2.294 . S
In182 O184 2.326 . S
In182 O188 2.266 . S
In182 O189 2.326 . S
In182 O190 2.266 . S
In182 O191 2.326 . S
In182 O193 2.294 . S
In182 O194 2.326 . S
O183 In182 2.294 . S
O183 C192 1.240 . S
O184 In182 2.326 . S
O184 C192 1.252 . S
C185 O188 1.252 . S
C185 O189 1.260 . S
C186 O193 1.240 . S
C186 O194 1.252 . S
C187 O190 1.252 . S
C187 O191 1.260 . S
O188 In182 2.266 . S
O188 C185 1.252 . S
O189 In182 2.326 . S
O189 C185 1.260 . S
O190 In182 2.266 . S
O190 C187 1.252 . S
O191 In182 2.326 . S
O191 C187 1.260 . S
C192 O183 1.240 . S
C192 O184 1.252 . S
O193 In182 2.294 . S
O193 C186 1.240 . S
O194 In182 2.326 . S
O194 C186 1.252 . S
In195 O196 2.294 . S
In195 O197 2.326 . S
In195 O201 2.266 . S
In195 O202 2.326 . S
In195 O203 2.266 . S
In195 O204 2.326 . S
In195 O206 2.294 . S
In195 O207 2.326 . S
O196 In195 2.294 . S
O196 C205 1.240 . S
O197 In195 2.326 . S
O197 C205 1.252 . S
C198 O201 1.252 . S
C198 O202 1.260 . S
C199 O206 1.240 . S
C199 O207 1.252 . S
C200 O203 1.252 . S
C200 O204 1.260 . S
O201 In195 2.266 . S
O201 C198 1.252 . S
O202 In195 2.326 . S
O202 C198 1.260 . S
O203 In195 2.266 . S
O203 C200 1.252 . S
O204 In195 2.326 . S
O204 C200 1.260 . S
C205 O196 1.240 . S
C205 O197 1.252 . S
O206 In195 2.294 . S
O206 C199 1.240 . S
O207 In195 2.326 . S
O207 C199 1.252 . S
H208 C220 0.930 . S
H209 C222 0.930 . S
H210 C223 0.930 . S
H211 C227 0.959 . S
H212 C227 0.959 . S
H213 C227 0.961 . S
H214 C228 0.960 . S
H215 C228 0.961 . S
H216 C228 0.959 . S
H217 C231 0.929 . S
H218 C232 0.931 . S
H219 C234 0.930 . S
C220 H208 0.930 . S
C220 C221 1.399 1_554 S
C220 C225 1.399 . S
C221 C220 1.399 1_556 S
C221 C222 1.376 . S
C222 H209 0.930 . S
C222 C221 1.376 . S
C222 C223 1.388 . S
C223 H210 0.930 . S
C223 C222 1.388 . S
C223 C224 1.390 . S
C224 C223 1.390 . S
C224 C225 1.394 1_556 S
C224 C230 1.465 . S
C225 C220 1.399 . S
C225 C224 1.394 1_554 S
C225 C226 1.516 . S
C226 C225 1.516 . S
C226 C227 1.502 . S
C226 C228 1.561 . S
C226 C229 1.526 . S
C227 H211 0.959 . S
C227 H212 0.959 . S
C227 H213 0.961 . S
C227 C226 1.502 . S
C228 H214 0.960 . S
C228 H215 0.961 . S
C228 H216 0.959 . S
C228 C226 1.561 . S
C229 C226 1.526 . S
C229 C230 1.396 1_554 S
C229 C234 1.390 . S
C230 C224 1.465 . S
C230 C229 1.396 1_556 S
C230 C231 1.399 . S
C231 H217 0.929 . S
C231 C230 1.399 . S
C231 C232 1.385 . S
C232 H218 0.931 . S
C232 C231 1.385 . S
C232 C233 1.389 1_556 S
C233 C232 1.389 1_554 S
C233 C234 1.387 . S
C234 H219 0.930 . S
C234 C229 1.390 . S
C234 C233 1.387 . S
H235 C247 0.928 1_556 S
H236 C249 0.931 . S
H237 C250 0.930 . S
H238 C254 0.959 . S
H239 C254 0.959 . S
H240 C254 0.961 . S
H241 C255 0.960 . S
H242 C255 0.961 . S
H243 C255 0.959 . S
H244 C258 0.929 . S
H245 C259 0.931 . S
H246 C261 0.930 . S
C247 H235 0.928 1_554 S
C247 C248 1.398 1_554 S
C247 C252 1.402 . S
C248 C247 1.398 1_556 S
C248 C249 1.376 1_556 S
C249 H236 0.931 . S
C249 C248 1.376 1_554 S
C249 C250 1.388 . S
C250 H237 0.930 . S
C250 C249 1.388 . S
C250 C251 1.390 . S
C251 C250 1.390 . S
C251 C252 1.394 . S
C251 C257 1.465 . S
C252 C247 1.402 . S
C252 C251 1.394 . S
C252 C253 1.516 . S
C253 C252 1.516 . S
C253 C254 1.502 1_554 S
C253 C255 1.561 . S
C253 C256 1.526 . S
C254 H238 0.959 . S
C254 H239 0.959 . S
C254 H240 0.961 . S
C254 C253 1.502 1_556 S
C255 H241 0.960 . S
C255 H242 0.961 . S
C255 H243 0.959 . S
C255 C253 1.561 . S
C256 C253 1.526 . S
C256 C257 1.396 . S
C256 C261 1.390 . S
C257 C251 1.465 . S
C257 C256 1.396 . S
C257 C258 1.399 . S
C258 H244 0.929 . S
C258 C257 1.399 . S
C258 C259 1.385 . S
C259 H245 0.931 . S
C259 C258 1.385 . S
C259 C260 1.389 . S
C260 C259 1.389 . S
C260 C261 1.387 . S
C261 H246 0.930 . S
C261 C256 1.390 . S
C261 C260 1.387 . S
H262 C274 0.930 . S
H263 C276 0.930 . S
H264 C277 0.930 . S
H265 C281 0.959 . S
H266 C281 0.959 . S
H267 C281 0.961 . S
H268 C282 0.960 . S
H269 C282 0.961 . S
H270 C282 0.959 . S
H271 C285 0.929 . S
H272 C286 0.931 . S
H273 C288 0.930 . S
C274 H262 0.930 . S
C274 C275 1.399 1_554 S
C274 C279 1.399 . S
C275 C274 1.399 1_556 S
C275 C276 1.376 . S
C276 H263 0.930 . S
C276 C275 1.376 . S
C276 C277 1.388 . S
C277 H264 0.930 . S
C277 C276 1.388 . S
C277 C278 1.390 . S
C278 C277 1.390 . S
C278 C279 1.394 1_556 S
C278 C284 1.465 . S
C279 C274 1.399 . S
C279 C278 1.394 1_554 S
C279 C280 1.516 . S
C280 C279 1.516 . S
C280 C281 1.502 . S
C280 C282 1.561 . S
C280 C283 1.526 . S
C281 H265 0.959 . S
C281 H266 0.959 . S
C281 H267 0.961 . S
C281 C280 1.502 . S
C282 H268 0.960 . S
C282 H269 0.961 . S
C282 H270 0.959 . S
C282 C280 1.561 . S
C283 C280 1.526 . S
C283 C284 1.396 1_554 S
C283 C288 1.390 . S
C284 C278 1.465 . S
C284 C283 1.396 1_556 S
C284 C285 1.399 . S
C285 H271 0.929 . S
C285 C284 1.399 . S
C285 C286 1.385 . S
C286 H272 0.931 . S
C286 C285 1.385 . S
C286 C287 1.389 1_556 S
C287 C286 1.389 1_554 S
C287 C288 1.387 . S
C288 H273 0.930 . S
C288 C283 1.390 . S
C288 C287 1.387 . S
H289 C301 0.930 . S
H290 C303 0.930 . S
H291 C304 0.930 . S
H292 C308 0.959 . S
H293 C308 0.959 . S
H294 C308 0.961 . S
H295 C309 0.960 . S
H296 C309 0.961 . S
H297 C309 0.959 . S
H298 C312 0.929 . S
H299 C313 0.931 . S
H300 C315 0.930 . S
C301 H289 0.930 . S
C301 C302 1.399 1_554 S
C301 C306 1.399 . S
C302 C301 1.399 1_556 S
C302 C303 1.376 . S
C303 H290 0.930 . S
C303 C302 1.376 . S
C303 C304 1.388 . S
C304 H291 0.930 . S
C304 C303 1.388 . S
C304 C305 1.390 . S
C305 C304 1.390 . S
C305 C306 1.394 1_556 S
C305 C311 1.465 . S
C306 C301 1.399 . S
C306 C305 1.394 1_554 S
C306 C307 1.516 . S
C307 C306 1.516 . S
C307 C308 1.502 . S
C307 C309 1.561 1_554 S
C307 C310 1.526 . S
C308 H292 0.959 . S
C308 H293 0.959 . S
C308 H294 0.961 . S
C308 C307 1.502 . S
C309 H295 0.960 . S
C309 H296 0.961 . S
C309 H297 0.959 . S
C309 C307 1.561 1_556 S
C310 C307 1.526 . S
C310 C311 1.396 1_554 S
C310 C315 1.390 . S
C311 C305 1.465 . S
C311 C310 1.396 1_556 S
C311 C312 1.399 . S
C312 H298 0.929 . S
C312 C311 1.399 . S
C312 C313 1.385 . S
C313 H299 0.931 . S
C313 C312 1.385 . S
C313 C314 1.389 1_556 S
C314 C313 1.389 1_554 S
C314 C315 1.387 . S
C315 H300 0.930 . S
C315 C310 1.390 . S
C315 C314 1.387 . S
H316 C328 0.930 . S
H317 C330 0.930 . S
H318 C331 0.930 . S
H319 C335 0.959 . S
H320 C335 0.959 . S
H321 C335 0.961 1_545 S
H322 C336 0.960 1_545 S
H323 C336 0.961 . S
H324 C336 0.959 . S
H325 C339 0.929 . S
H326 C340 0.931 . S
H327 C342 0.930 . S
C328 H316 0.930 . S
C328 C329 1.399 . S
C328 C333 1.399 . S
C329 C328 1.399 . S
C329 C330 1.376 . S
C330 H317 0.930 . S
C330 C329 1.376 . S
C330 C331 1.388 . S
C331 H318 0.930 . S
C331 C330 1.388 . S
C331 C332 1.390 . S
C332 C331 1.390 . S
C332 C333 1.394 . S
C332 C338 1.465 1_545 S
C333 C328 1.399 . S
C333 C332 1.394 . S
C333 C334 1.516 1_545 S
C334 C333 1.516 1_565 S
C334 C335 1.502 . S
C334 C336 1.561 . S
C334 C337 1.526 . S
C335 H319 0.959 . S
C335 H320 0.959 . S
C335 H321 0.961 1_565 S
C335 C334 1.502 . S
C336 H322 0.960 1_565 S
C336 H323 0.961 . S
C336 H324 0.959 . S
C336 C334 1.561 . S
C337 C334 1.526 . S
C337 C338 1.396 . S
C337 C342 1.390 . S
C338 C332 1.465 1_565 S
C338 C337 1.396 . S
C338 C339 1.399 . S
C339 H325 0.929 . S
C339 C338 1.399 . S
C339 C340 1.385 . S
C340 H326 0.931 . S
C340 C339 1.385 . S
C340 C341 1.389 . S
C341 C340 1.389 . S
C341 C342 1.387 . S
C342 H327 0.930 . S
C342 C337 1.390 . S
C342 C341 1.387 . S
H343 C355 0.930 . S
H344 C357 0.930 . S
H345 C358 0.930 . S
H346 C362 0.959 . S
H347 C362 0.959 . S
H348 C362 0.961 1_655 S
H349 C363 0.960 . S
H350 C363 0.961 1_455 S
H351 C363 0.961 . S
H352 C366 0.929 . S
H353 C367 0.931 . S
H354 C369 0.930 . S
C355 H343 0.930 . S
C355 C356 1.399 . S
C355 C360 1.399 . S
C356 C355 1.399 . S
C356 C357 1.376 . S
C357 H344 0.930 . S
C357 C356 1.376 . S
C357 C358 1.388 . S
C358 H345 0.930 . S
C358 C357 1.388 . S
C358 C359 1.390 . S
C359 C358 1.390 . S
C359 C360 1.394 . S
C359 C365 1.465 1_655 S
C360 C355 1.399 . S
C360 C359 1.394 . S
C360 C361 1.512 1_655 S
C361 C360 1.512 1_455 S
C361 C362 1.502 . S
C361 C363 1.561 1_455 S
C361 C364 1.530 . S
C362 H346 0.959 . S
C362 H347 0.959 . S
C362 H348 0.961 1_455 S
C362 C361 1.502 . S
C363 H349 0.960 . S
C363 H350 0.961 1_655 S
C363 H351 0.961 . S
C363 C361 1.561 1_655 S
C364 C361 1.530 . S
C364 C365 1.396 . S
C364 C369 1.390 . S
C365 C359 1.465 1_455 S
C365 C364 1.396 . S
C365 C366 1.399 . S
C366 H352 0.929 . S
C366 C365 1.399 . S
C366 C367 1.385 . S
C367 H353 0.931 . S
C367 C366 1.385 . S
C367 C368 1.389 . S
C368 C367 1.389 . S
C368 C369 1.387 . S
C369 H354 0.930 . S
C369 C364 1.390 . S
C369 C368 1.387 . S
H370 C382 0.930 . S
H371 C384 0.930 . S
H372 C385 0.930 . S
H373 C389 0.959 . S
H374 C389 0.959 . S
H375 C389 0.961 1_545 S
H376 C390 0.960 1_545 S
H377 C390 0.961 . S
H378 C390 0.959 . S
H379 C393 0.929 . S
H380 C394 0.931 . S
H381 C396 0.930 . S
C382 H370 0.930 . S
C382 C383 1.399 . S
C382 C387 1.399 . S
C383 C382 1.399 . S
C383 C384 1.376 . S
C384 H371 0.930 . S
C384 C383 1.376 . S
C384 C385 1.388 . S
C385 H372 0.930 . S
C385 C384 1.388 . S
C385 C386 1.390 . S
C386 C385 1.390 . S
C386 C387 1.394 . S
C386 C392 1.465 1_545 S
C387 C382 1.399 . S
C387 C386 1.394 . S
C387 C388 1.516 1_545 S
C388 C387 1.516 1_565 S
C388 C389 1.502 . S
C388 C390 1.561 . S
C388 C391 1.526 . S
C389 H373 0.959 . S
C389 H374 0.959 . S
C389 H375 0.961 1_565 S
C389 C388 1.502 . S
C390 H376 0.960 1_565 S
C390 H377 0.961 . S
C390 H378 0.959 . S
C390 C388 1.561 . S
C391 C388 1.526 . S
C391 C392 1.396 . S
C391 C396 1.390 . S
C392 C386 1.465 1_565 S
C392 C391 1.396 . S
C392 C393 1.399 . S
C393 H379 0.929 . S
C393 C392 1.399 . S
C393 C394 1.385 . S
C394 H380 0.931 . S
C394 C393 1.385 . S
C394 C395 1.389 . S
C395 C394 1.389 . S
C395 C396 1.387 . S
C396 H381 0.930 . S
C396 C391 1.390 . S
C396 C395 1.387 . S
H397 C409 0.930 . S
H398 C411 0.930 . S
H399 C412 0.930 . S
H400 C416 0.959 . S
H401 C416 0.959 1_655 S
H402 C416 0.961 . S
H403 C417 0.929 1_455 S
H404 C417 0.989 . S
H405 C417 0.965 . S
H406 C420 0.929 . S
H407 C421 0.931 . S
H408 C423 0.930 . S
C409 H397 0.930 . S
C409 C410 1.399 . S
C409 C414 1.399 . S
C410 C409 1.399 . S
C410 C411 1.376 . S
C411 H398 0.930 . S
C411 C410 1.376 . S
C411 C412 1.388 . S
C412 H399 0.930 . S
C412 C411 1.388 . S
C412 C413 1.390 . S
C413 C412 1.390 . S
C413 C414 1.394 . S
C413 C419 1.465 1_455 S
C414 C409 1.399 . S
C414 C413 1.394 . S
C414 C415 1.537 . S
C415 C414 1.537 . S
C415 C416 1.503 . S
C415 C417 1.559 1_455 S
C415 C418 1.504 1_455 S
C416 H400 0.959 . S
C416 H401 0.959 1_455 S
C416 H402 0.961 . S
C416 C415 1.503 . S
C417 H403 0.929 1_655 S
C417 H404 0.989 . S
C417 H405 0.965 . S
C417 C415 1.559 1_655 S
C418 C415 1.504 1_655 S
C418 C419 1.396 . S
C418 C423 1.390 . S
C419 C413 1.465 1_655 S
C419 C418 1.396 . S
C419 C420 1.399 . S
C420 H406 0.929 . S
C420 C419 1.399 . S
C420 C421 1.385 . S
C421 H407 0.931 . S
C421 C420 1.385 . S
C421 C422 1.389 . S
C422 C421 1.389 . S
C422 C423 1.387 . S
C423 H408 0.930 . S
C423 C418 1.390 . S
C423 C422 1.387 . S
H424 C436 0.930 . S
H425 C438 0.930 . S
H426 C439 0.930 . S
H427 C443 0.959 . S
H428 C443 0.959 . S
H429 C443 0.961 . S
H430 C444 0.960 . S
H431 C444 0.961 . S
H432 C444 0.959 . S
H433 C447 0.929 . S
H434 C448 0.931 . S
H435 C450 0.930 . S
C436 H424 0.930 . S
C436 C437 1.399 1_554 S
C436 C441 1.399 . S
C437 C436 1.399 1_556 S
C437 C438 1.376 . S
C438 H425 0.930 . S
C438 C437 1.376 . S
C438 C439 1.388 . S
C439 H426 0.930 . S
C439 C438 1.388 . S
C439 C440 1.390 . S
C440 C439 1.390 . S
C440 C441 1.394 1_556 S
C440 C446 1.465 . S
C441 C436 1.399 . S
C441 C440 1.394 1_554 S
C441 C442 1.516 . S
C442 C441 1.516 . S
C442 C443 1.502 . S
C442 C444 1.561 . S
C442 C445 1.526 . S
C443 H427 0.959 . S
C443 H428 0.959 . S
C443 H429 0.961 . S
C443 C442 1.502 . S
C444 H430 0.960 . S
C444 H431 0.961 . S
C444 H432 0.959 . S
C444 C442 1.561 . S
C445 C442 1.526 . S
C445 C446 1.396 1_554 S
C445 C450 1.390 . S
C446 C440 1.465 . S
C446 C445 1.396 1_556 S
C446 C447 1.399 . S
C447 H433 0.929 . S
C447 C446 1.399 . S
C447 C448 1.385 . S
C448 H434 0.931 . S
C448 C447 1.385 . S
C448 C449 1.389 1_556 S
C449 C448 1.389 1_554 S
C449 C450 1.387 . S
C450 H435 0.930 . S
C450 C445 1.390 . S
C450 C449 1.387 . S
H451 C463 0.930 . S
H452 C465 0.930 . S
H453 C466 0.930 . S
H454 C470 0.959 . S
H455 C470 0.959 . S
H456 C470 0.961 . S
H457 C471 0.960 . S
H458 C471 0.961 . S
H459 C471 0.959 . S
H460 C474 0.929 . S
H461 C475 0.931 . S
H462 C477 0.930 . S
C463 H451 0.930 . S
C463 C464 1.399 1_556 S
C463 C468 1.399 . S
C464 C463 1.399 1_554 S
C464 C465 1.376 . S
C465 H452 0.930 . S
C465 C464 1.376 . S
C465 C466 1.388 . S
C466 H453 0.930 . S
C466 C465 1.388 . S
C466 C467 1.390 . S
C467 C466 1.390 . S
C467 C468 1.394 1_554 S
C467 C473 1.465 . S
C468 C463 1.399 . S
C468 C467 1.394 1_556 S
C468 C469 1.516 . S
C469 C468 1.516 . S
C469 C470 1.502 . S
C469 C471 1.561 . S
C469 C472 1.526 . S
C470 H454 0.959 . S
C470 H455 0.959 . S
C470 H456 0.961 . S
C470 C469 1.502 . S
C471 H457 0.960 . S
C471 H458 0.961 . S
C471 H459 0.959 . S
C471 C469 1.561 . S
C472 C469 1.526 . S
C472 C473 1.396 1_556 S
C472 C477 1.390 . S
C473 C467 1.465 . S
C473 C472 1.396 1_554 S
C473 C474 1.399 . S
C474 H460 0.929 . S
C474 C473 1.399 . S
C474 C475 1.385 . S
C475 H461 0.931 . S
C475 C474 1.385 . S
C475 C476 1.397 . S
C476 C475 1.397 . S
C476 C477 1.381 1_554 S
C477 H462 0.930 . S
C477 C472 1.390 . S
C477 C476 1.381 1_556 S
H478 C490 0.928 1_554 S
H479 C492 0.930 . S
H480 C493 0.930 . S
H481 C497 0.959 . S
H482 C497 0.959 . S
H483 C497 0.961 . S
H484 C498 0.960 . S
H485 C498 0.961 . S
H486 C498 0.959 . S
H487 C501 0.927 1_556 S
H488 C502 0.931 . S
H489 C504 0.930 . S
C490 H478 0.928 1_556 S
C490 C491 1.399 . S
C490 C495 1.399 . S
C491 C490 1.399 . S
C491 C492 1.376 . S
C492 H479 0.930 . S
C492 C491 1.376 . S
C492 C493 1.388 . S
C493 H480 0.930 . S
C493 C492 1.388 . S
C493 C494 1.390 . S
C494 C493 1.390 . S
C494 C495 1.395 . S
C494 C500 1.465 1_556 S
C495 C490 1.399 . S
C495 C494 1.395 . S
C495 C496 1.516 1_556 S
C496 C495 1.516 1_554 S
C496 C497 1.502 . S
C496 C498 1.561 1_554 S
C496 C499 1.526 . S
C497 H481 0.959 . S
C497 H482 0.959 . S
C497 H483 0.961 . S
C497 C496 1.502 . S
C498 H484 0.960 . S
C498 H485 0.961 . S
C498 H486 0.959 . S
C498 C496 1.561 1_556 S
C499 C496 1.526 . S
C499 C500 1.396 . S
C499 C504 1.390 . S
C500 C494 1.465 1_554 S
C500 C499 1.396 . S
C500 C501 1.399 . S
C501 H487 0.927 1_554 S
C501 C500 1.399 . S
C501 C502 1.385 . S
C502 H488 0.931 . S
C502 C501 1.385 . S
C502 C503 1.389 . S
C503 C502 1.389 . S
C503 C504 1.387 . S
C504 H489 0.930 . S
C504 C499 1.390 . S
C504 C503 1.387 . S
H505 C517 0.930 . S
H506 C519 0.930 . S
H507 C520 0.930 . S
H508 C524 0.959 . S
H509 C524 0.959 . S
H510 C524 0.961 . S
H511 C525 0.960 . S
H512 C525 0.961 . S
H513 C525 0.959 . S
H514 C528 0.929 . S
H515 C529 0.931 . S
H516 C531 0.930 . S
C517 H505 0.930 . S
C517 C518 1.399 . S
C517 C522 1.399 . S
C518 C517 1.399 . S
C518 C519 1.376 1_554 S
C519 H506 0.930 . S
C519 C518 1.376 1_556 S
C519 C520 1.388 . S
C520 H507 0.930 . S
C520 C519 1.388 . S
C520 C521 1.390 . S
C521 C520 1.390 . S
C521 C522 1.394 1_556 S
C521 C527 1.465 . S
C522 C517 1.399 . S
C522 C521 1.394 1_554 S
C522 C523 1.516 . S
C523 C522 1.516 . S
C523 C524 1.502 . S
C523 C525 1.561 . S
C523 C526 1.526 . S
C524 H508 0.959 . S
C524 H509 0.959 . S
C524 H510 0.961 . S
C524 C523 1.502 . S
C525 H511 0.960 . S
C525 H512 0.961 . S
C525 H513 0.959 . S
C525 C523 1.561 . S
C526 C523 1.526 . S
C526 C527 1.396 1_554 S
C526 C531 1.390 . S
C527 C521 1.465 . S
C527 C526 1.396 1_556 S
C527 C528 1.399 . S
C528 H514 0.929 . S
C528 C527 1.399 . S
C528 C529 1.385 . S
C529 H515 0.931 . S
C529 C528 1.385 . S
C529 C530 1.389 . S
C530 C529 1.389 . S
C530 C531 1.387 1_556 S
C531 H516 0.930 . S
C531 C526 1.390 . S
C531 C530 1.387 1_554 S
H532 C544 0.930 . S
H533 C546 0.930 . S
H534 C547 0.930 . S
H535 C551 0.959 . S
H536 C551 0.959 . S
H537 C551 0.961 . S
H538 C552 0.960 . S
H539 C552 0.961 . S
H540 C552 0.959 . S
H541 C555 0.929 . S
H542 C556 0.931 . S
H543 C558 0.930 . S
C544 H532 0.930 . S
C544 C545 1.399 . S
C544 C549 1.399 . S
C545 C544 1.399 . S
C545 C546 1.376 . S
C546 H533 0.930 . S
C546 C545 1.376 . S
C546 C547 1.388 . S
C547 H534 0.930 . S
C547 C546 1.388 . S
C547 C548 1.390 . S
C548 C547 1.390 . S
C548 C549 1.394 . S
C548 C554 1.465 . S
C549 C544 1.399 . S
C549 C548 1.394 . S
C549 C550 1.516 . S
C550 C549 1.516 . S
C550 C551 1.502 . S
C550 C552 1.561 . S
C550 C553 1.526 . S
C551 H535 0.959 . S
C551 H536 0.959 . S
C551 H537 0.961 . S
C551 C550 1.502 . S
C552 H538 0.960 . S
C552 H539 0.961 . S
C552 H540 0.959 . S
C552 C550 1.561 . S
C553 C550 1.526 . S
C553 C554 1.396 . S
C553 C558 1.390 . S
C554 C548 1.465 . S
C554 C553 1.396 . S
C554 C555 1.399 . S
C555 H541 0.929 . S
C555 C554 1.399 . S
C555 C556 1.385 . S
C556 H542 0.931 . S
C556 C555 1.385 . S
C556 C557 1.389 . S
C557 C556 1.389 . S
C557 C558 1.387 . S
C558 H543 0.930 . S
C558 C553 1.390 . S
C558 C557 1.387 . S
H559 C571 0.930 . S
H560 C573 0.930 . S
H561 C574 0.930 . S
H562 C578 0.959 . S
H563 C578 0.959 . S
H564 C578 0.961 . S
H565 C579 0.960 . S
H566 C579 0.961 . S
H567 C579 0.959 . S
H568 C582 0.929 . S
H569 C583 0.931 . S
H570 C585 0.930 . S
C571 H559 0.930 . S
C571 C572 1.399 . S
C571 C576 1.399 . S
C572 C571 1.399 . S
C572 C573 1.376 . S
C573 H560 0.930 . S
C573 C572 1.376 . S
C573 C574 1.388 . S
C574 H561 0.930 . S
C574 C573 1.388 . S
C574 C575 1.390 . S
C575 C574 1.390 . S
C575 C576 1.394 . S
C575 C581 1.465 . S
C576 C571 1.399 . S
C576 C575 1.394 . S
C576 C577 1.516 . S
C577 C576 1.516 . S
C577 C578 1.502 . S
C577 C579 1.561 . S
C577 C580 1.526 . S
C578 H562 0.959 . S
C578 H563 0.959 . S
C578 H564 0.961 . S
C578 C577 1.502 . S
C579 H565 0.960 . S
C579 H566 0.961 . S
C579 H567 0.959 . S
C579 C577 1.561 . S
C580 C577 1.526 . S
C580 C581 1.396 . S
C580 C585 1.390 . S
C581 C575 1.465 . S
C581 C580 1.396 . S
C581 C582 1.399 . S
C582 H568 0.929 . S
C582 C581 1.399 . S
C582 C583 1.385 . S
C583 H569 0.931 . S
C583 C582 1.385 . S
C583 C584 1.389 . S
C584 C583 1.389 . S
C584 C585 1.387 . S
C585 H570 0.930 . S
C585 C580 1.390 . S
C585 C584 1.387 . S
H586 C598 0.930 . S
H587 C600 0.930 . S
H588 C601 0.930 . S
H589 C605 0.959 . S
H590 C605 0.959 . S
H591 C605 0.961 . S
H592 C606 0.960 . S
H593 C606 0.961 . S
H594 C606 0.959 . S
H595 C609 0.929 . S
H596 C610 0.931 . S
H597 C612 0.930 . S
C598 H586 0.930 . S
C598 C599 1.399 . S
C598 C603 1.399 . S
C599 C598 1.399 . S
C599 C600 1.376 . S
C600 H587 0.930 . S
C600 C599 1.376 . S
C600 C601 1.388 . S
C601 H588 0.930 . S
C601 C600 1.388 . S
C601 C602 1.390 . S
C602 C601 1.390 . S
C602 C603 1.394 . S
C602 C608 1.465 . S
C603 C598 1.399 . S
C603 C602 1.394 . S
C603 C604 1.516 . S
C604 C603 1.516 . S
C604 C605 1.502 . S
C604 C606 1.561 . S
C604 C607 1.526 . S
C605 H589 0.959 . S
C605 H590 0.959 . S
C605 H591 0.961 . S
C605 C604 1.502 . S
C606 H592 0.960 . S
C606 H593 0.961 . S
C606 H594 0.959 . S
C606 C604 1.561 . S
C607 C604 1.526 . S
C607 C608 1.396 . S
C607 C612 1.390 . S
C608 C602 1.465 . S
C608 C607 1.396 . S
C608 C609 1.399 . S
C609 H595 0.929 . S
C609 C608 1.399 . S
C609 C610 1.385 . S
C610 H596 0.931 . S
C610 C609 1.385 . S
C610 C611 1.389 . S
C611 C610 1.389 . S
C611 C612 1.387 . S
C612 H597 0.930 . S
C612 C607 1.390 . S
C612 C611 1.387 . S
H613 C625 0.930 . S
H614 C627 0.930 . S
H615 C628 0.930 . S
H616 C632 0.959 . S
H617 C632 0.959 . S
H618 C632 0.961 . S
H619 C633 0.960 . S
H620 C633 0.961 . S
H621 C633 0.959 . S
H622 C636 0.929 . S
H623 C637 0.931 . S
H624 C639 0.930 . S
C625 H613 0.930 . S
C625 C626 1.399 . S
C625 C630 1.399 . S
C626 C625 1.399 . S
C626 C627 1.376 . S
C627 H614 0.930 . S
C627 C626 1.376 . S
C627 C628 1.388 . S
C628 H615 0.930 . S
C628 C627 1.388 . S
C628 C629 1.390 . S
C629 C628 1.390 . S
C629 C630 1.394 . S
C629 C635 1.465 . S
C630 C625 1.399 . S
C630 C629 1.394 . S
C630 C631 1.516 . S
C631 C630 1.516 . S
C631 C632 1.502 . S
C631 C633 1.561 . S
C631 C634 1.526 . S
C632 H616 0.959 . S
C632 H617 0.959 . S
C632 H618 0.961 . S
C632 C631 1.502 . S
C633 H619 0.960 . S
C633 H620 0.961 . S
C633 H621 0.959 . S
C633 C631 1.561 . S
C634 C631 1.526 . S
C634 C635 1.396 . S
C634 C639 1.390 . S
C635 C629 1.465 . S
C635 C634 1.396 . S
C635 C636 1.399 . S
C636 H622 0.929 . S
C636 C635 1.399 . S
C636 C637 1.385 . S
C637 H623 0.931 . S
C637 C636 1.385 . S
C637 C638 1.389 . S
C638 C637 1.389 . S
C638 C639 1.387 . S
C639 H624 0.930 . S
C639 C634 1.390 . S
C639 C638 1.387 . S
H640 C652 0.930 . S
H641 C654 0.930 . S
H642 C655 0.930 . S
H643 C659 0.959 . S
H644 C659 0.959 . S
H645 C659 0.961 . S
H646 C660 0.960 . S
H647 C660 0.961 . S
H648 C660 0.959 . S
H649 C663 0.929 . S
H650 C664 0.931 . S
H651 C666 0.930 . S
C652 H640 0.930 . S
C652 C653 1.399 . S
C652 C657 1.399 . S
C653 C652 1.399 . S
C653 C654 1.376 . S
C654 H641 0.930 . S
C654 C653 1.376 . S
C654 C655 1.388 . S
C655 H642 0.930 . S
C655 C654 1.388 . S
C655 C656 1.390 . S
C656 C655 1.390 . S
C656 C657 1.394 . S
C656 C662 1.465 . S
C657 C652 1.399 . S
C657 C656 1.394 . S
C657 C658 1.516 . S
C658 C657 1.516 . S
C658 C659 1.502 . S
C658 C660 1.561 . S
C658 C661 1.526 . S
C659 H643 0.959 . S
C659 H644 0.959 . S
C659 H645 0.961 . S
C659 C658 1.502 . S
C660 H646 0.960 . S
C660 H647 0.961 . S
C660 H648 0.959 . S
C660 C658 1.561 . S
C661 C658 1.526 . S
C661 C662 1.396 . S
C661 C666 1.390 . S
C662 C656 1.465 . S
C662 C661 1.396 . S
C662 C663 1.399 . S
C663 H649 0.929 . S
C663 C662 1.399 . S
C663 C664 1.385 . S
C664 H650 0.931 . S
C664 C663 1.385 . S
C664 C665 1.389 . S
C665 C664 1.389 . S
C665 C666 1.387 . S
C666 H651 0.930 . S
C666 C661 1.390 . S
C666 C665 1.387 . S
H667 C679 0.930 . S
H668 C681 0.930 . S
H669 C682 0.930 . S
H670 C686 0.959 . S
H671 C686 0.959 . S
H672 C686 0.961 . S
H673 C687 0.960 . S
H674 C687 0.961 . S
H675 C687 0.959 . S
H676 C690 0.929 . S
H677 C691 0.931 . S
H678 C693 0.930 . S
C679 H667 0.930 . S
C679 C680 1.399 . S
C679 C684 1.399 . S
C680 C679 1.399 . S
C680 C681 1.376 . S
C681 H668 0.930 . S
C681 C680 1.376 . S
C681 C682 1.388 . S
C682 H669 0.930 . S
C682 C681 1.388 . S
C682 C683 1.390 . S
C683 C682 1.390 . S
C683 C684 1.394 . S
C683 C689 1.465 . S
C684 C679 1.399 . S
C684 C683 1.394 . S
C684 C685 1.516 . S
C685 C684 1.516 . S
C685 C686 1.502 . S
C685 C687 1.561 . S
C685 C688 1.526 . S
C686 H670 0.959 . S
C686 H671 0.959 . S
C686 H672 0.961 . S
C686 C685 1.502 . S
C687 H673 0.960 . S
C687 H674 0.961 . S
C687 H675 0.959 . S
C687 C685 1.561 . S
C688 C685 1.526 . S
C688 C689 1.396 . S
C688 C693 1.390 . S
C689 C683 1.465 . S
C689 C688 1.396 . S
C689 C690 1.399 . S
C690 H676 0.929 . S
C690 C689 1.399 . S
C690 C691 1.385 . S
C691 H677 0.931 . S
C691 C690 1.385 . S
C691 C692 1.389 . S
C692 C691 1.389 . S
C692 C693 1.387 . S
C693 H678 0.930 . S
C693 C688 1.390 . S
C693 C692 1.387 . S
H694 C706 0.930 . S
H695 C708 0.930 . S
H696 C709 0.930 . S
H697 C713 0.959 . S
H698 C713 0.959 . S
H699 C713 0.961 . S
H700 C714 0.960 . S
H701 C714 0.961 . S
H702 C714 0.959 . S
H703 C717 0.929 . S
H704 C718 0.931 . S
H705 C720 0.930 . S
C706 H694 0.930 . S
C706 C707 1.399 . S
C706 C711 1.399 . S
C707 C706 1.399 . S
C707 C708 1.376 . S
C708 H695 0.930 . S
C708 C707 1.376 . S
C708 C709 1.388 . S
C709 H696 0.930 . S
C709 C708 1.388 . S
C709 C710 1.390 . S
C710 C709 1.390 . S
C710 C711 1.394 . S
C710 C716 1.465 . S
C711 C706 1.399 . S
C711 C710 1.394 . S
C711 C712 1.516 . S
C712 C711 1.516 . S
C712 C713 1.502 . S
C712 C714 1.561 . S
C712 C715 1.526 . S
C713 H697 0.959 . S
C713 H698 0.959 . S
C713 H699 0.961 . S
C713 C712 1.502 . S
C714 H700 0.960 . S
C714 H701 0.961 . S
C714 H702 0.959 . S
C714 C712 1.561 . S
C715 C712 1.526 . S
C715 C716 1.396 . S
C715 C720 1.390 . S
C716 C710 1.465 . S
C716 C715 1.396 . S
C716 C717 1.399 . S
C717 H703 0.929 . S
C717 C716 1.399 . S
C717 C718 1.385 . S
C718 H704 0.931 . S
C718 C717 1.385 . S
C718 C719 1.389 . S
C719 C718 1.389 . S
C719 C720 1.387 . S
C720 H705 0.930 . S
C720 C715 1.390 . S
C720 C719 1.387 . S
H721 C733 0.930 . S
H722 C735 0.930 . S
H723 C736 0.930 . S
H724 C740 0.959 . S
H725 C740 0.959 . S
H726 C740 0.961 . S
H727 C741 0.960 . S
H728 C741 0.961 . S
H729 C741 0.959 . S
H730 C744 0.929 . S
H731 C745 0.931 . S
H732 C747 0.930 . S
C733 H721 0.930 . S
C733 C734 1.399 . S
C733 C738 1.399 . S
C734 C733 1.399 . S
C734 C735 1.376 . S
C735 H722 0.930 . S
C735 C734 1.376 . S
C735 C736 1.388 . S
C736 H723 0.930 . S
C736 C735 1.388 . S
C736 C737 1.390 . S
C737 C736 1.390 . S
C737 C738 1.394 . S
C737 C743 1.465 . S
C738 C733 1.399 . S
C738 C737 1.394 . S
C738 C739 1.516 . S
C739 C738 1.516 . S
C739 C740 1.502 . S
C739 C741 1.561 . S
C739 C742 1.526 . S
C740 H724 0.959 . S
C740 H725 0.959 . S
C740 H726 0.961 . S
C740 C739 1.502 . S
C741 H727 0.960 . S
C741 H728 0.961 . S
C741 H729 0.959 . S
C741 C739 1.561 . S
C742 C739 1.526 . S
C742 C743 1.396 . S
C742 C747 1.390 . S
C743 C737 1.465 . S
C743 C742 1.396 . S
C743 C744 1.399 . S
C744 H730 0.929 . S
C744 C743 1.399 . S
C744 C745 1.385 . S
C745 H731 0.931 . S
C745 C744 1.385 . S
C745 C746 1.389 . S
C746 C745 1.389 . S
C746 C747 1.387 . S
C747 H732 0.930 . S
C747 C742 1.390 . S
C747 C746 1.387 . S
H748 C760 0.930 . S
H749 C762 0.930 . S
H750 C763 0.930 . S
H751 C767 0.959 . S
H752 C767 0.959 . S
H753 C767 0.961 . S
H754 C768 0.960 . S
H755 C768 0.961 . S
H756 C768 0.959 . S
H757 C771 0.929 . S
H758 C772 0.931 . S
H759 C774 0.930 . S
C760 H748 0.930 . S
C760 C761 1.399 . S
C760 C765 1.399 . S
C761 C760 1.399 . S
C761 C762 1.376 . S
C762 H749 0.930 . S
C762 C761 1.376 . S
C762 C763 1.388 . S
C763 H750 0.930 . S
C763 C762 1.388 . S
C763 C764 1.390 . S
C764 C763 1.390 . S
C764 C765 1.394 . S
C764 C770 1.465 . S
C765 C760 1.399 . S
C765 C764 1.394 . S
C765 C766 1.516 . S
C766 C765 1.516 . S
C766 C767 1.502 . S
C766 C768 1.561 . S
C766 C769 1.526 . S
C767 H751 0.959 . S
C767 H752 0.959 . S
C767 H753 0.961 . S
C767 C766 1.502 . S
C768 H754 0.960 . S
C768 H755 0.961 . S
C768 H756 0.959 . S
C768 C766 1.561 . S
C769 C766 1.526 . S
C769 C770 1.396 . S
C769 C774 1.390 . S
C770 C764 1.465 . S
C770 C769 1.396 . S
C770 C771 1.399 . S
C771 H757 0.929 . S
C771 C770 1.399 . S
C771 C772 1.385 . S
C772 H758 0.931 . S
C772 C771 1.385 . S
C772 C773 1.389 . S
C773 C772 1.389 . S
C773 C774 1.387 . S
C774 H759 0.930 . S
C774 C769 1.390 . S
C774 C773 1.387 . S
H775 C787 0.930 . S
H776 C789 0.930 . S
H777 C790 0.930 . S
H778 C794 0.959 . S
H779 C794 0.959 . S
H780 C794 0.961 . S
H781 C795 0.960 . S
H782 C795 0.961 . S
H783 C795 0.959 . S
H784 C798 0.929 . S
H785 C799 0.931 . S
H786 C801 0.930 . S
C787 H775 0.930 . S
C787 C788 1.399 . S
C787 C792 1.399 . S
C788 C787 1.399 . S
C788 C789 1.376 . S
C789 H776 0.930 . S
C789 C788 1.376 . S
C789 C790 1.388 . S
C790 H777 0.930 . S
C790 C789 1.388 . S
C790 C791 1.390 . S
C791 C790 1.390 . S
C791 C792 1.394 . S
C791 C797 1.465 . S
C792 C787 1.399 . S
C792 C791 1.394 . S
C792 C793 1.516 . S
C793 C792 1.516 . S
C793 C794 1.502 . S
C793 C795 1.561 . S
C793 C796 1.526 . S
C794 H778 0.959 . S
C794 H779 0.959 . S
C794 H780 0.961 . S
C794 C793 1.502 . S
C795 H781 0.960 . S
C795 H782 0.961 . S
C795 H783 0.959 . S
C795 C793 1.561 . S
C796 C793 1.526 . S
C796 C797 1.396 . S
C796 C801 1.390 . S
C797 C791 1.465 . S
C797 C796 1.396 . S
C797 C798 1.399 . S
C798 H784 0.929 . S
C798 C797 1.399 . S
C798 C799 1.385 . S
C799 H785 0.931 . S
C799 C798 1.385 . S
C799 C800 1.389 . S
C800 C799 1.389 . S
C800 C801 1.387 . S
C801 H786 0.930 . S
C801 C796 1.390 . S
C801 C800 1.387 . S
H802 C814 0.930 . S
H803 C816 0.930 . S
H804 C817 0.930 . S
H805 C821 0.959 . S
H806 C821 0.959 . S
H807 C821 0.961 . S
H808 C822 0.960 . S
H809 C822 0.961 . S
H810 C822 0.959 . S
H811 C825 0.929 . S
H812 C826 0.931 . S
H813 C828 0.930 . S
C814 H802 0.930 . S
C814 C815 1.399 . S
C814 C819 1.399 . S
C815 C814 1.399 . S
C815 C816 1.376 . S
C816 H803 0.930 . S
C816 C815 1.376 . S
C816 C817 1.388 . S
C817 H804 0.930 . S
C817 C816 1.388 . S
C817 C818 1.390 . S
C818 C817 1.390 . S
C818 C819 1.394 . S
C818 C824 1.465 . S
C819 C814 1.399 . S
C819 C818 1.394 . S
C819 C820 1.516 . S
C820 C819 1.516 . S
C820 C821 1.502 . S
C820 C822 1.561 . S
C820 C823 1.526 . S
C821 H805 0.959 . S
C821 H806 0.959 . S
C821 H807 0.961 . S
C821 C820 1.502 . S
C822 H808 0.960 . S
C822 H809 0.961 . S
C822 H810 0.959 . S
C822 C820 1.561 . S
C823 C820 1.526 . S
C823 C824 1.396 . S
C823 C828 1.390 . S
C824 C818 1.465 . S
C824 C823 1.396 . S
C824 C825 1.399 . S
C825 H811 0.929 . S
C825 C824 1.399 . S
C825 C826 1.385 . S
C826 H812 0.931 . S
C826 C825 1.385 . S
C826 C827 1.389 . S
C827 C826 1.389 . S
C827 C828 1.387 . S
C828 H813 0.930 . S
C828 C823 1.390 . S
C828 C827 1.387 . S
H829 C841 0.930 . S
H830 C843 0.930 . S
H831 C844 0.930 . S
H832 C848 0.959 . S
H833 C848 0.959 . S
H834 C848 0.961 . S
H835 C849 0.960 . S
H836 C849 0.961 . S
H837 C849 0.959 . S
H838 C852 0.929 . S
H839 C853 0.931 . S
H840 C855 0.930 . S
C841 H829 0.930 . S
C841 C842 1.399 . S
C841 C846 1.399 . S
C842 C841 1.399 . S
C842 C843 1.376 . S
C843 H830 0.930 . S
C843 C842 1.376 . S
C843 C844 1.388 . S
C844 H831 0.930 . S
C844 C843 1.388 . S
C844 C845 1.390 . S
C845 C844 1.390 . S
C845 C846 1.394 . S
C845 C851 1.465 . S
C846 C841 1.399 . S
C846 C845 1.394 . S
C846 C847 1.516 . S
C847 C846 1.516 . S
C847 C848 1.502 . S
C847 C849 1.561 . S
C847 C850 1.526 . S
C848 H832 0.959 . S
C848 H833 0.959 . S
C848 H834 0.961 . S
C848 C847 1.502 . S
C849 H835 0.960 . S
C849 H836 0.961 . S
C849 H837 0.959 . S
C849 C847 1.561 . S
C850 C847 1.526 . S
C850 C851 1.396 . S
C850 C855 1.390 . S
C851 C845 1.465 . S
C851 C850 1.396 . S
C851 C852 1.399 . S
C852 H838 0.929 . S
C852 C851 1.399 . S
C852 C853 1.385 . S
C853 H839 0.931 . S
C853 C852 1.385 . S
C853 C854 1.389 . S
C854 C853 1.389 . S
C854 C855 1.387 . S
C855 H840 0.930 . S
C855 C850 1.390 . S
C855 C854 1.387 . S
H856 C868 0.930 . S
H857 C870 0.930 . S
H858 C871 0.930 . S
H859 C875 0.959 . S
H860 C875 0.959 . S
H861 C875 0.961 . S
H862 C876 0.960 . S
H863 C876 0.961 . S
H864 C876 0.959 . S
H865 C879 0.929 . S
H866 C880 0.931 . S
H867 C882 0.930 . S
C868 H856 0.930 . S
C868 C869 1.399 . S
C868 C873 1.399 . S
C869 C868 1.399 . S
C869 C870 1.376 . S
C870 H857 0.930 . S
C870 C869 1.376 . S
C870 C871 1.388 . S
C871 H858 0.930 . S
C871 C870 1.388 . S
C871 C872 1.390 . S
C872 C871 1.390 . S
C872 C873 1.394 . S
C872 C878 1.465 . S
C873 C868 1.399 . S
C873 C872 1.394 . S
C873 C874 1.516 . S
C874 C873 1.516 . S
C874 C875 1.502 . S
C874 C876 1.561 . S
C874 C877 1.526 . S
C875 H859 0.959 . S
C875 H860 0.959 . S
C875 H861 0.961 . S
C875 C874 1.502 . S
C876 H862 0.960 . S
C876 H863 0.961 . S
C876 H864 0.959 . S
C876 C874 1.561 . S
C877 C874 1.526 . S
C877 C878 1.396 . S
C877 C882 1.390 . S
C878 C872 1.465 . S
C878 C877 1.396 . S
C878 C879 1.399 . S
C879 H865 0.929 . S
C879 C878 1.399 . S
C879 C880 1.385 . S
C880 H866 0.931 . S
C880 C879 1.385 . S
C880 C881 1.389 . S
C881 C880 1.389 . S
C881 C882 1.387 . S
C882 H867 0.930 . S
C882 C877 1.390 . S
C882 C881 1.387 . S
H883 C895 0.930 . S
H884 C897 0.930 . S
H885 C898 0.930 . S
H886 C902 0.959 . S
H887 C902 0.959 . S
H888 C902 0.961 . S
H889 C903 0.960 . S
H890 C903 0.961 . S
H891 C903 0.959 . S
H892 C906 0.929 . S
H893 C907 0.931 . S
H894 C909 0.930 . S
C895 H883 0.930 . S
C895 C896 1.399 . S
C895 C900 1.399 . S
C896 C895 1.399 . S
C896 C897 1.376 . S
C897 H884 0.930 . S
C897 C896 1.376 . S
C897 C898 1.388 . S
C898 H885 0.930 . S
C898 C897 1.388 . S
C898 C899 1.390 . S
C899 C898 1.390 . S
C899 C900 1.394 . S
C899 C905 1.465 . S
C900 C895 1.399 . S
C900 C899 1.394 . S
C900 C901 1.516 . S
C901 C900 1.516 . S
C901 C902 1.502 . S
C901 C903 1.561 . S
C901 C904 1.526 . S
C902 H886 0.959 . S
C902 H887 0.959 . S
C902 H888 0.961 . S
C902 C901 1.502 . S
C903 H889 0.960 . S
C903 H890 0.961 . S
C903 H891 0.959 . S
C903 C901 1.561 . S
C904 C901 1.526 . S
C904 C905 1.396 . S
C904 C909 1.390 . S
C905 C899 1.465 . S
C905 C904 1.396 . S
C905 C906 1.399 . S
C906 H892 0.929 . S
C906 C905 1.399 . S
C906 C907 1.385 . S
C907 H893 0.931 . S
C907 C906 1.385 . S
C907 C908 1.389 . S
C908 C907 1.389 . S
C908 C909 1.387 . S
C909 H894 0.930 . S
C909 C904 1.390 . S
C909 C908 1.387 . S
H910 C922 0.930 . S
H911 C924 0.930 . S
H912 C925 0.930 . S
H913 C929 0.959 . S
H914 C929 0.959 . S
H915 C929 0.961 . S
H916 C930 0.960 . S
H917 C930 0.961 . S
H918 C930 0.959 . S
H919 C933 0.929 . S
H920 C934 0.931 . S
H921 C936 0.930 . S
C922 H910 0.930 . S
C922 C923 1.399 . S
C922 C927 1.399 . S
C923 C922 1.399 . S
C923 C924 1.376 . S
C924 H911 0.930 . S
C924 C923 1.376 . S
C924 C925 1.388 . S
C925 H912 0.930 . S
C925 C924 1.388 . S
C925 C926 1.390 . S
C926 C925 1.390 . S
C926 C927 1.394 . S
C926 C932 1.465 . S
C927 C922 1.399 . S
C927 C926 1.394 . S
C927 C928 1.516 . S
C928 C927 1.516 . S
C928 C929 1.502 . S
C928 C930 1.561 . S
C928 C931 1.526 . S
C929 H913 0.959 . S
C929 H914 0.959 . S
C929 H915 0.961 . S
C929 C928 1.502 . S
C930 H916 0.960 . S
C930 H917 0.961 . S
C930 H918 0.959 . S
C930 C928 1.561 . S
C931 C928 1.526 . S
C931 C932 1.396 . S
C931 C936 1.390 . S
C932 C926 1.465 . S
C932 C931 1.396 . S
C932 C933 1.399 . S
C933 H919 0.929 . S
C933 C932 1.399 . S
C933 C934 1.385 . S
C934 H920 0.931 . S
C934 C933 1.385 . S
C934 C935 1.389 . S
C935 C934 1.389 . S
C935 C936 1.387 . S
C936 H921 0.930 . S
C936 C931 1.390 . S
C936 C935 1.387 . S
H937 C949 0.930 . S
H938 C951 0.930 . S
H939 C952 0.930 . S
H940 C956 0.959 . S
H941 C956 0.959 . S
H942 C956 0.961 . S
H943 C957 0.960 . S
H944 C957 0.961 . S
H945 C957 0.959 . S
H946 C960 0.929 . S
H947 C961 0.931 . S
H948 C963 0.930 . S
C949 H937 0.930 . S
C949 C950 1.399 . S
C949 C954 1.399 . S
C950 C949 1.399 . S
C950 C951 1.376 . S
C951 H938 0.930 . S
C951 C950 1.376 . S
C951 C952 1.388 . S
C952 H939 0.930 . S
C952 C951 1.388 . S
C952 C953 1.390 . S
C953 C952 1.390 . S
C953 C954 1.394 . S
C953 C959 1.465 . S
C954 C949 1.399 . S
C954 C953 1.394 . S
C954 C955 1.516 . S
C955 C954 1.516 . S
C955 C956 1.502 . S
C955 C957 1.561 . S
C955 C958 1.526 . S
C956 H940 0.959 . S
C956 H941 0.959 . S
C956 H942 0.961 . S
C956 C955 1.502 . S
C957 H943 0.960 . S
C957 H944 0.961 . S
C957 H945 0.959 . S
C957 C955 1.561 . S
C958 C955 1.526 . S
C958 C959 1.396 . S
C958 C963 1.390 . S
C959 C953 1.465 . S
C959 C958 1.396 . S
C959 C960 1.399 . S
C960 H946 0.929 . S
C960 C959 1.399 . S
C960 C961 1.385 . S
C961 H947 0.931 . S
C961 C960 1.385 . S
C961 C962 1.389 . S
C962 C961 1.389 . S
C962 C963 1.387 . S
C963 H948 0.930 . S
C963 C958 1.390 . S
C963 C962 1.387 . S
H964 C976 0.930 . S
H965 C978 0.930 . S
H966 C979 0.930 . S
H967 C983 0.959 . S
H968 C983 0.959 . S
H969 C983 0.961 . S
H970 C984 0.960 . S
H971 C984 0.961 . S
H972 C984 0.959 . S
H973 C987 0.929 . S
H974 C988 0.931 . S
H975 C990 0.930 . S
C976 H964 0.930 . S
C976 C977 1.399 . S
C976 C981 1.399 . S
C977 C976 1.399 . S
C977 C978 1.376 . S
C978 H965 0.930 . S
C978 C977 1.376 . S
C978 C979 1.388 . S
C979 H966 0.930 . S
C979 C978 1.388 . S
C979 C980 1.390 . S
C980 C979 1.390 . S
C980 C981 1.394 . S
C980 C986 1.465 . S
C981 C976 1.399 . S
C981 C980 1.394 . S
C981 C982 1.516 . S
C982 C981 1.516 . S
C982 C983 1.502 . S
C982 C984 1.561 . S
C982 C985 1.526 . S
C983 H967 0.959 . S
C983 H968 0.959 . S
C983 H969 0.961 . S
C983 C982 1.502 . S
C984 H970 0.960 . S
C984 H971 0.961 . S
C984 H972 0.959 . S
C984 C982 1.561 . S
C985 C982 1.526 . S
C985 C986 1.396 . S
C985 C990 1.390 . S
C986 C980 1.465 . S
C986 C985 1.396 . S
C986 C987 1.399 . S
C987 H973 0.929 . S
C987 C986 1.399 . S
C987 C988 1.385 . S
C988 H974 0.931 . S
C988 C987 1.385 . S
C988 C989 1.389 . S
C989 C988 1.389 . S
C989 C990 1.387 . S
C990 H975 0.930 . S
C990 C985 1.390 . S
C990 C989 1.387 . S
H991 C1003 0.930 . S
H992 C1005 0.930 . S
H993 C1006 0.930 . S
H994 C1010 0.959 . S
H995 C1010 0.959 . S
H996 C1010 0.961 . S
H997 C1011 0.960 . S
H998 C1011 0.961 . S
H999 C1011 0.959 . S
H1000 C1014 0.929 . S
H1001 C1015 0.931 . S
H1002 C1017 0.930 . S
C1003 H991 0.930 . S
C1003 C1004 1.399 . S
C1003 C1008 1.399 . S
C1004 C1003 1.399 . S
C1004 C1005 1.376 . S
C1005 H992 0.930 . S
C1005 C1004 1.376 . S
C1005 C1006 1.388 . S
C1006 H993 0.930 . S
C1006 C1005 1.388 . S
C1006 C1007 1.390 . S
C1007 C1006 1.390 . S
C1007 C1008 1.394 . S
C1007 C1013 1.465 . S
C1008 C1003 1.399 . S
C1008 C1007 1.394 . S
C1008 C1009 1.516 . S
C1009 C1008 1.516 . S
C1009 C1010 1.502 . S
C1009 C1011 1.561 . S
C1009 C1012 1.526 . S
C1010 H994 0.959 . S
C1010 H995 0.959 . S
C1010 H996 0.961 . S
C1010 C1009 1.502 . S
C1011 H997 0.960 . S
C1011 H998 0.961 . S
C1011 H999 0.959 . S
C1011 C1009 1.561 . S
C1012 C1009 1.526 . S
C1012 C1013 1.396 . S
C1012 C1017 1.390 . S
C1013 C1007 1.465 . S
C1013 C1012 1.396 . S
C1013 C1014 1.399 . S
C1014 H1000 0.929 . S
C1014 C1013 1.399 . S
C1014 C1015 1.385 . S
C1015 H1001 0.931 . S
C1015 C1014 1.385 . S
C1015 C1016 1.389 . S
C1016 C1015 1.389 . S
C1016 C1017 1.387 . S
C1017 H1002 0.930 . S
C1017 C1012 1.390 . S
C1017 C1016 1.387 . S
H1018 C1030 0.930 . S
H1019 C1032 0.930 . S
H1020 C1033 0.930 . S
H1021 C1037 0.959 . S
H1022 C1037 0.959 . S
H1023 C1037 0.961 . S
H1024 C1038 0.960 . S
H1025 C1038 0.961 . S
H1026 C1038 0.959 . S
H1027 C1041 0.929 . S
H1028 C1042 0.931 . S
H1029 C1044 0.930 . S
C1030 H1018 0.930 . S
C1030 C1031 1.399 . S
C1030 C1035 1.399 . S
C1031 C1030 1.399 . S
C1031 C1032 1.376 . S
C1032 H1019 0.930 . S
C1032 C1031 1.376 . S
C1032 C1033 1.388 . S
C1033 H1020 0.930 . S
C1033 C1032 1.388 . S
C1033 C1034 1.390 . S
C1034 C1033 1.390 . S
C1034 C1035 1.394 . S
C1034 C1040 1.465 . S
C1035 C1030 1.399 . S
C1035 C1034 1.394 . S
C1035 C1036 1.516 . S
C1036 C1035 1.516 . S
C1036 C1037 1.502 . S
C1036 C1038 1.561 . S
C1036 C1039 1.526 . S
C1037 H1021 0.959 . S
C1037 H1022 0.959 . S
C1037 H1023 0.961 . S
C1037 C1036 1.502 . S
C1038 H1024 0.960 . S
C1038 H1025 0.961 . S
C1038 H1026 0.959 . S
C1038 C1036 1.561 . S
C1039 C1036 1.526 . S
C1039 C1040 1.396 . S
C1039 C1044 1.390 . S
C1040 C1034 1.465 . S
C1040 C1039 1.396 . S
C1040 C1041 1.399 . S
C1041 H1027 0.929 . S
C1041 C1040 1.399 . S
C1041 C1042 1.385 . S
C1042 H1028 0.931 . S
C1042 C1041 1.385 . S
C1042 C1043 1.389 . S
C1043 C1042 1.389 . S
C1043 C1044 1.387 . S
C1044 H1029 0.930 . S
C1044 C1039 1.390 . S
C1044 C1043 1.387 . S
H1045 C1057 0.930 . S
H1046 C1059 0.930 . S
H1047 C1060 0.930 . S
H1048 C1064 0.959 . S
H1049 C1064 0.959 . S
H1050 C1064 0.961 . S
H1051 C1065 0.960 . S
H1052 C1065 0.961 . S
H1053 C1065 0.959 . S
H1054 C1068 0.929 . S
H1055 C1069 0.931 . S
H1056 C1071 0.930 . S
C1057 H1045 0.930 . S
C1057 C1058 1.399 . S
C1057 C1062 1.399 . S
C1058 C1057 1.399 . S
C1058 C1059 1.376 . S
C1059 H1046 0.930 . S
C1059 C1058 1.376 . S
C1059 C1060 1.388 . S
C1060 H1047 0.930 . S
C1060 C1059 1.388 . S
C1060 C1061 1.390 . S
C1061 C1060 1.390 . S
C1061 C1062 1.394 . S
C1061 C1067 1.465 . S
C1062 C1057 1.399 . S
C1062 C1061 1.394 . S
C1062 C1063 1.516 . S
C1063 C1062 1.516 . S
C1063 C1064 1.502 . S
C1063 C1065 1.561 . S
C1063 C1066 1.526 . S
C1064 H1048 0.959 . S
C1064 H1049 0.959 . S
C1064 H1050 0.961 . S
C1064 C1063 1.502 . S
C1065 H1051 0.960 . S
C1065 H1052 0.961 . S
C1065 H1053 0.959 . S
C1065 C1063 1.561 . S
C1066 C1063 1.526 . S
C1066 C1067 1.396 . S
C1066 C1071 1.390 . S
C1067 C1061 1.465 . S
C1067 C1066 1.396 . S
C1067 C1068 1.399 . S
C1068 H1054 0.929 . S
C1068 C1067 1.399 . S
C1068 C1069 1.385 . S
C1069 H1055 0.931 . S
C1069 C1068 1.385 . S
C1069 C1070 1.389 . S
C1070 C1069 1.389 . S
C1070 C1071 1.387 . S
C1071 H1056 0.930 . S
C1071 C1066 1.390 . S
C1071 C1070 1.387 . S
C221 C56 1.498 . S
C233 C4 1.486 . S
C248 C75 1.490 . S
C260 C17 1.494 . S
C275 C82 1.498 . S
C287 C36 1.486 . S
C302 C95 1.496 . S
C314 C43 1.487 . S
C329 C166 1.485 . S
C341 C108 1.498 . S
C356 C173 1.488 . S
C368 C127 1.496 . S
C383 C140 1.485 . S
C395 C186 1.497 . S
C410 C205 1.497 . S
C422 C147 1.486 . S
C437 C5 1.540 . S
C449 C68 1.526 . S
C464 C83 1.542 . S
C476 C18 1.525 1_554 S
C491 C29 1.547 . S
C503 C96 1.540 . S
C518 C57 1.525 . S
C530 C44 1.545 . S
C545 C174 1.531 . S
C557 C109 1.549 . S
C572 C187 1.530 . S
C584 C120 1.549 . S
C599 C133 1.538 . S
C611 C198 1.526 . S
C626 C148 1.540 . S
C638 C159 1.526 . S
C653 C199 1.418 . S
C665 C10 1.403 . S
C680 C160 1.423 . S
C692 C23 1.406 . S
C707 C179 1.402 . S
C719 C30 1.410 . S
C734 C192 1.422 . S
C746 C49 1.405 . S
C761 C121 1.402 . S
C773 C62 1.417 . S
C788 C134 1.430 . S
C800 C69 1.413 . S
C815 C88 1.409 . S
C827 C153 1.427 . S
C842 C101 1.403 . S
C854 C114 1.408 . S
C869 C172 1.397 . S
C881 C31 1.368 . S
C896 C185 1.383 . S
C908 C42 1.371 . S
C923 C200 1.396 . S
C935 C3 1.367 . S
C950 C16 1.400 . S
C962 C161 1.370 . S
C977 C146 1.400 . S
C989 C81 1.370 . S
C1004 C94 1.392 . S
C1016 C107 1.367 . S
C1031 C122 1.400 . S
C1043 C55 1.370 . S
C1058 C135 1.377 . S
C1070 C70 1.375 . S
