# Generated by pormake.
# Topology uox, (4)-cn, num edge types: 1
# Building blocks:
#     Node 0, Type 0, BuildingBlock: ICAMEG_clean_sbu_1, # of connection points: 4
#     Node 1, Type 0, BuildingBlock: ICAMEG_clean_sbu_1, # of connection points: 4
#     Node 2, Type 0, BuildingBlock: ICAMEG_clean_sbu_1, # of connection points: 4
#     Node 3, Type 0, BuildingBlock: ICAMEG_clean_sbu_1, # of connection points: 4
#     Node 4, Type 0, BuildingBlock: ICAMEG_clean_sbu_1, # of connection points: 4
#     Node 5, Type 0, BuildingBlock: ICAMEG_clean_sbu_1, # of connection points: 4
#     Node 6, Type 0, BuildingBlock: ICAMEG_clean_sbu_1, # of connection points: 4
#     Node 7, Type 0, BuildingBlock: ICAMEG_clean_sbu_1, # of connection points: 4
#     Node 8, Type 0, BuildingBlock: ICAMEG_clean_sbu_1, # of connection points: 4
#     Node 9, Type 0, BuildingBlock: ICAMEG_clean_sbu_1, # of connection points: 4
#     Node 10, Type 0, BuildingBlock: ICAMEG_clean_sbu_1, # of connection points: 4
#     Node 11, Type 0, BuildingBlock: ICAMEG_clean_sbu_1, # of connection points: 4
#     Node 12, Type 0, BuildingBlock: ICAMEG_clean_sbu_1, # of connection points: 4
#     Node 13, Type 0, BuildingBlock: ICAMEG_clean_sbu_1, # of connection points: 4
#     Node 14, Type 0, BuildingBlock: ICAMEG_clean_sbu_1, # of connection points: 4
#     Node 15, Type 0, BuildingBlock: ICAMEG_clean_sbu_1, # of connection points: 4
#     Node 16, Type 0, BuildingBlock: ICAMEG_clean_sbu_1, # of connection points: 4
#     Node 17, Type 0, BuildingBlock: ICAMEG_clean_sbu_1, # of connection points: 4
#     Node 18, Type 0, BuildingBlock: ICAMEG_clean_sbu_1, # of connection points: 4
#     Node 19, Type 0, BuildingBlock: ICAMEG_clean_sbu_1, # of connection points: 4
#     Node 20, Type 0, BuildingBlock: ICAMEG_clean_sbu_1, # of connection points: 4
#     Node 21, Type 0, BuildingBlock: ICAMEG_clean_sbu_1, # of connection points: 4
#     Node 22, Type 0, BuildingBlock: ICAMEG_clean_sbu_1, # of connection points: 4
#     Node 23, Type 0, BuildingBlock: ICAMEG_clean_sbu_1, # of connection points: 4
#     Node 24, Type 0, BuildingBlock: ICAMEG_clean_sbu_1, # of connection points: 4
#     Node 25, Type 0, BuildingBlock: ICAMEG_clean_sbu_1, # of connection points: 4
#     Node 26, Type 0, BuildingBlock: ICAMEG_clean_sbu_1, # of connection points: 4
#     Node 27, Type 0, BuildingBlock: ICAMEG_clean_sbu_1, # of connection points: 4
#     Node 28, Type 0, BuildingBlock: ICAMEG_clean_sbu_1, # of connection points: 4
#     Node 29, Type 0, BuildingBlock: ICAMEG_clean_sbu_1, # of connection points: 4
#     Node 30, Type 0, BuildingBlock: ICAMEG_clean_sbu_1, # of connection points: 4
#     Node 31, Type 0, BuildingBlock: ICAMEG_clean_sbu_1, # of connection points: 4
#     Edge 32, Type (0, 0), None
#     Edge 33, Type (0, 0), None
#     Edge 34, Type (0, 0), None
#     Edge 35, Type (0, 0), None
#     Edge 36, Type (0, 0), None
#     Edge 37, Type (0, 0), None
#     Edge 38, Type (0, 0), None
#     Edge 39, Type (0, 0), None
#     Edge 40, Type (0, 0), None
#     Edge 41, Type (0, 0), None
#     Edge 42, Type (0, 0), None
#     Edge 43, Type (0, 0), None
#     Edge 44, Type (0, 0), None
#     Edge 45, Type (0, 0), None
#     Edge 46, Type (0, 0), None
#     Edge 47, Type (0, 0), None
#     Edge 48, Type (0, 0), None
#     Edge 49, Type (0, 0), None
#     Edge 50, Type (0, 0), None
#     Edge 51, Type (0, 0), None
#     Edge 52, Type (0, 0), None
#     Edge 53, Type (0, 0), None
#     Edge 54, Type (0, 0), None
#     Edge 55, Type (0, 0), None
#     Edge 56, Type (0, 0), None
#     Edge 57, Type (0, 0), None
#     Edge 58, Type (0, 0), None
#     Edge 59, Type (0, 0), None
#     Edge 60, Type (0, 0), None
#     Edge 61, Type (0, 0), None
#     Edge 62, Type (0, 0), None
#     Edge 63, Type (0, 0), None
#     Edge 64, Type (0, 0), None
#     Edge 65, Type (0, 0), None
#     Edge 66, Type (0, 0), None
#     Edge 67, Type (0, 0), None
#     Edge 68, Type (0, 0), None
#     Edge 69, Type (0, 0), None
#     Edge 70, Type (0, 0), None
#     Edge 71, Type (0, 0), None
#     Edge 72, Type (0, 0), None
#     Edge 73, Type (0, 0), None
#     Edge 74, Type (0, 0), None
#     Edge 75, Type (0, 0), None
#     Edge 76, Type (0, 0), None
#     Edge 77, Type (0, 0), None
#     Edge 78, Type (0, 0), None
#     Edge 79, Type (0, 0), None
#     Edge 80, Type (0, 0), None
#     Edge 81, Type (0, 0), None
#     Edge 82, Type (0, 0), None
#     Edge 83, Type (0, 0), None
#     Edge 84, Type (0, 0), None
#     Edge 85, Type (0, 0), None
#     Edge 86, Type (0, 0), None
#     Edge 87, Type (0, 0), None
#     Edge 88, Type (0, 0), None
#     Edge 89, Type (0, 0), None
#     Edge 90, Type (0, 0), None
#     Edge 91, Type (0, 0), None
#     Edge 92, Type (0, 0), None
#     Edge 93, Type (0, 0), None
#     Edge 94, Type (0, 0), None
#     Edge 95, Type (0, 0), None
# Relax obj value: 0.078
# Max RMSD: 0.106
# Mean RMSD: 0.106
data_MOF--net-uox--node1-ICAMEG_clean_sbu_1--edge1-none
_symmetry_space_group_name_H-M    P1
_symmetry_Int_Tables_number       1
_symmetry_cell_setting            triclinic
loop_
_symmetry_equiv_pos_as_xyz
'x, y, z'
_cell_length_a     23.131754
_cell_length_b     23.167441
_cell_length_c     41.797179
_cell_angle_alpha  90.194617
_cell_angle_beta   89.930063
_cell_angle_gamma 89.601101
loop_
_atom_site_label
_atom_site_type_symbol
_atom_site_fract_x
_atom_site_fract_y
_atom_site_fract_z
_atom_type_partial_charge
Co0 Co 0.42153 0.03165 0.12117 0.0
Co1 Co 0.43932 0.10014 0.19351 0.0
O2 O 0.42163 0.03436 0.16725 0.0
C3 C 0.31489 0.96669 0.14286 0.0
O4 O 0.33539 0.96314 0.17198 0.0
C5 C 0.45951 -0.00245 0.23662 0.0
O6 O 0.4153 0.97316 0.22248 0.0
O7 O 0.51661 0.11084 0.1701 0.0
O8 O 0.49972 0.07131 0.121 0.0
H9 H 0.42138 0.30907 0.22598 0.0
H10 H 0.40008 0.9157 0.09221 0.0
O11 O 0.34281 -0.00665 0.12106 0.0
H12 H 0.55383 0.88628 0.17226 0.0
H13 H 0.33478 0.06486 0.01393 0.0
H14 H 0.50919 0.00581 0.0731 0.0
H15 H 0.51985 0.98421 0.15903 0.0
H16 H 0.33151 0.04927 0.07191 0.0
O17 O 0.47818 0.0459 0.22608 0.0
H18 H 0.4341 0.23268 0.18727 0.0
H19 H 0.48361 0.11782 0.26215 0.0
H20 H 0.51809 0.03816 0.0167 0.0
H21 H 0.43118 0.81665 0.10592 0.0
H22 H 0.42959 0.05895 0.98581 0.0
H23 H 0.5072 0.80164 0.14692 0.0
O24 O 0.38494 0.10985 0.11532 0.0
H25 H 0.29867 0.06277 0.28415 0.0
H26 H 0.32125 0.08698 0.16828 0.0
H27 H 0.22856 0.0548 0.18938 0.0
H28 H 0.21855 0.03561 0.24736 0.0
H29 H 0.3918 0.0851 0.26226 0.0
H30 H 0.46442 0.19125 0.30121 0.0
H31 H 0.43043 0.2887 0.28397 0.0
O32 O 0.40319 0.15398 0.16144 0.0
C33 C 0.53195 0.09919 0.14085 0.0
C34 C 0.43116 0.26586 0.23415 0.0
C35 C 0.45525 0.20011 0.27635 0.0
N36 N 0.45319 0.16663 0.22177 0.0
C37 C 0.43851 0.22129 0.21205 0.0
C38 C 0.46663 0.15798 0.25339 0.0
C39 C 0.43672 0.25442 0.26665 0.0
C40 C 0.43416 0.90954 0.10956 0.0
N41 N 0.4576 0.95589 0.12503 0.0
C42 C 0.45161 0.85336 0.11718 0.0
C43 C 0.49444 0.84489 0.14011 0.0
C44 C 0.5204 0.8924 0.15446 0.0
C45 C 0.50134 0.94788 0.14658 0.0
C46 C 0.37342 0.05178 0.02654 0.0
C47 C 0.47184 0.02035 0.05999 0.0
C48 C 0.37174 0.04205 0.05932 0.0
N49 N 0.42103 0.02757 0.07553 0.0
C50 C 0.4763 0.0358 0.02807 0.0
C51 C 0.42637 0.04874 0.01089 0.0
C52 C 0.38604 0.15508 0.13245 0.0
C53 C 0.30347 0.06667 0.25855 0.0
C54 C 0.31698 0.08239 0.19376 0.0
C55 C 0.26407 0.06335 0.20552 0.0
C56 C 0.25823 0.0533 0.23805 0.0
N57 N 0.36361 0.08927 0.21354 0.0
C58 C 0.35653 0.08245 0.24582 0.0
Co59 Co 0.20344 0.17743 0.3591 0.0
Co60 Co 0.15096 0.17897 0.43574 0.0
O61 O 0.21316 0.17094 0.40523 0.0
C62 C 0.25825 0.06029 0.3676 0.0
O63 O 0.21705 0.04667 0.3877 0.0
C64 C 0.25506 0.22269 0.47763 0.0
O65 O 0.29551 0.21681 0.45576 0.0
O66 O 0.1268 0.25743 0.41671 0.0
O67 O 0.15051 0.2446 0.3646 0.0
H68 H 0.94278 0.1851 0.47265 0.0
H69 H 0.31843 0.18227 0.32561 0.0
O70 O 0.25723 0.10892 0.35314 0.0
H71 H 0.31776 0.34242 0.40382 0.0
H72 H 0.15897 0.11157 0.24753 0.0
H73 H 0.2041 0.27833 0.31589 0.0
H74 H 0.23454 0.27926 0.39882 0.0
H75 H 0.18348 0.09743 0.30476 0.0
O76 O 0.20155 0.2183 0.46999 0.0
H77 H 0.02014 0.18818 0.43243 0.0
H78 H 0.14532 0.16853 0.50614 0.0
H79 H 0.18346 0.29276 0.25857 0.0
H80 H 0.40585 0.24196 0.33296 0.0
H81 H 0.16577 0.20801 0.22377 0.0
H82 H 0.40432 0.32371 0.37096 0.0
O83 O 0.13235 0.12666 0.35667 0.0
H84 H 0.29412 0.02245 0.46518 0.0
H85 H 0.09064 0.07417 0.44944 0.0
H86 H 0.11673 0.97174 0.45875 0.0
H87 H 0.21931 0.94564 0.46843 0.0
H88 H 0.26548 0.12011 0.45147 0.0
H89 H 0.07256 0.18137 0.5463 0.0
H90 H 0.96767 0.18774 0.53022 0.0
O91 O 0.09592 0.14082 0.40528 0.0
C92 C 0.12649 0.27356 0.387 0.0
C93 C 0.98754 0.18354 0.48007 0.0
C94 C 0.05937 0.18107 0.52161 0.0
N95 N 0.08845 0.18229 0.46669 0.0
C96 C 0.03183 0.18431 0.45732 0.0
C97 C 0.10176 0.17693 0.49836 0.0
C98 C 0.00161 0.18464 0.51247 0.0
C99 C 0.31798 0.21729 0.34277 0.0
N100 N 0.27004 0.22808 0.36096 0.0
C101 C 0.36735 0.25114 0.34643 0.0
C102 C 0.36691 0.29694 0.36803 0.0
C103 C 0.31814 0.30768 0.38642 0.0
C104 C 0.27033 0.27218 0.38289 0.0
C105 C 0.17263 0.14745 0.26213 0.0
C106 C 0.19602 0.24126 0.30084 0.0
C107 C 0.18514 0.14019 0.29453 0.0
N108 N 0.19657 0.1869 0.31341 0.0
C109 C 0.18409 0.24983 0.26852 0.0
C110 C 0.17449 0.20224 0.24889 0.0
C111 C 0.09107 0.12231 0.37677 0.0
C112 C 0.24885 0.03283 0.46226 0.0
C113 C 0.13433 0.06217 0.45377 0.0
C114 C 0.14937 0.00468 0.45924 0.0
C115 C 0.20707 0.99003 0.46402 0.0
N116 N 0.17501 0.10373 0.45169 0.0
C117 C 0.23203 0.08941 0.45558 0.0
Co118 Co 0.05536 0.95133 0.60888 0.0
Co119 Co 0.05444 0.89555 0.68517 0.0
O120 O 0.06507 0.95729 0.65491 0.0
C121 C 0.16283 0.02206 0.62065 0.0
O122 O 0.15092 0.02344 0.6513 0.0
C123 C 0.04842 0.00101 0.73061 0.0
O124 O 0.09472 0.02205 0.71683 0.0
O125 O 0.97172 0.88352 0.66883 0.0
O126 O 0.98041 0.90786 0.61617 0.0
H127 H 0.07254 0.69097 0.7246 0.0
H128 H 0.05987 0.06292 0.57299 0.0
O129 O 0.13024 -0.00512 0.60115 0.0
H130 H 0.90939 0.0896 0.65564 0.0
H131 H 0.12463 0.89919 0.49953 0.0
H132 H 0.96011 0.97059 0.56347 0.0
H133 H 0.96305 -0.00176 0.65141 0.0
H134 H 0.13605 0.9238 0.55622 0.0
O135 O 0.02463 0.95551 0.71874 0.0
H136 H 0.05476 0.76295 0.68429 0.0
H137 H 0.02945 0.88931 0.7577 0.0
H138 H 0.94354 0.93823 0.50696 0.0
H139 H 0.00771 0.15674 0.57865 0.0
H140 H 0.02794 0.90705 0.47435 0.0
H141 H 0.93321 0.16958 0.618 0.0
O142 O 0.0959 0.87508 0.60465 0.0
H143 H 0.22216 0.93244 0.76099 0.0
H144 H 0.16435 0.9031 0.64956 0.0
H145 H 0.26556 0.92101 0.66155 0.0
H146 H 0.29556 0.93894 0.71752 0.0
H147 H 0.12227 0.91633 0.74835 0.0
H148 H 0.05532 0.8195 0.79783 0.0
H149 H 0.07806 0.71905 0.78202 0.0
O150 O 0.08076 0.83551 0.65218 0.0
C151 C 0.95141 0.88706 0.63991 0.0
C152 C 0.06609 0.73546 0.73179 0.0
C153 C 0.05612 0.80735 0.77281 0.0
N154 N 0.04669 0.8339 0.71723 0.0
C155 C 0.05625 0.77751 0.7087 0.0
C156 C 0.0414 0.84717 0.74924 0.0
C157 C 0.06914 0.75118 0.76393 0.0
C158 C 0.02697 0.06838 0.59117 0.0
N159 N 0.01376 0.02425 0.61137 0.0
C160 C -0.00212 0.12113 0.59377 0.0
C161 C 0.95521 0.12863 0.61661 0.0
C162 C 0.94214 0.08391 0.63736 0.0
C163 C 0.9724 0.03188 0.63452 0.0
C164 C 0.08778 0.91433 0.51322 0.0
C165 C -0.0053 0.95233 0.54944 0.0
C166 C 0.09395 0.92872 0.54534 0.0
N167 N 0.04722 0.94596 0.56316 0.0
C168 C 0.98598 0.93532 0.51771 0.0
C169 C 0.0334 0.91806 0.49928 0.0
C170 C 0.09428 0.83111 0.62248 0.0
C171 C 0.20999 0.92596 0.73642 0.0
C172 C 0.17631 0.90769 0.6742 0.0
C173 C 0.23424 0.91893 0.68078 0.0
C174 C 0.251 0.92888 0.71213 0.0
N175 N 0.13546 0.90638 0.69797 0.0
C176 C 0.1525 0.91477 0.72897 0.0
Co177 Co 0.28455 0.80208 0.87046 0.0
Co178 Co 0.34906 0.80815 0.94455 0.0
O179 O 0.28122 0.81094 0.91715 0.0
C180 C 0.23042 0.9183 0.8776 0.0
O181 O 0.27314 0.93452 0.89601 0.0
C182 C 0.25173 0.76605 0.99334 0.0
O183 O 0.20954 0.7656 0.97234 0.0
O184 O 0.36967 0.72703 0.92624 0.0
O185 O 0.33936 0.73601 0.87468 0.0
H186 H 0.56323 0.8066 0.96886 0.0
H187 H 0.17161 0.78929 0.83653 0.0
O188 O 0.22914 0.8678 0.86562 0.0
H189 H 0.17355 0.63948 0.9201 0.0
H190 H 0.30995 0.87318 0.75946 0.0
H191 H 0.28285 0.701 0.82636 0.0
H192 H 0.25562 0.70476 0.91387 0.0
H193 H 0.29274 0.8832 0.81698 0.0
O194 O 0.30409 0.77479 0.98384 0.0
H195 H 0.47824 0.79648 0.9344 0.0
H196 H 0.3683 0.83094 0.01409 0.0
H197 H 0.29699 0.68962 0.76824 0.0
H198 H 0.08768 0.72484 0.84241 0.0
H199 H 0.30724 0.7769 0.73409 0.0
H200 H 0.08915 0.64926 0.88461 0.0
O201 O 0.35288 0.85448 0.86418 0.0
H202 H 0.20785 0.96428 0.97678 0.0
H203 H 0.40756 0.91949 0.9456 0.0
H204 H 0.37517 0.02129 0.94711 0.0
H205 H 0.27498 0.04446 0.96444 0.0
H206 H 0.23958 0.86537 0.96897 0.0
H207 H 0.45204 0.83266 0.04964 0.0
H208 H 0.55051 0.8186 0.02748 0.0
O209 O 0.39959 0.84154 0.90968 0.0
C210 C 0.36605 0.7086 0.89668 0.0
C211 C 0.5203 0.81039 0.979 0.0
C212 C 0.45797 0.82441 0.02442 0.0
N213 N 0.41709 0.80989 0.97213 0.0
C214 C 0.47156 0.80575 0.95945 0.0
C215 C 0.41038 0.82191 1.00404 0.0
C216 C 0.51318 0.81724 0.01189 0.0
C217 C 0.17235 0.75635 0.8548 0.0
N218 N 0.2192 0.75034 0.87447 0.0
C219 C 0.12476 0.71998 0.85796 0.0
C220 C 0.12537 0.67759 0.88154 0.0
C221 C 0.17296 0.67194 0.90155 0.0
C222 C 0.21964 0.70894 0.8977 0.0
C223 C 0.30073 0.83558 0.77357 0.0
C224 C 0.28677 0.73889 0.81154 0.0
C225 C 0.29205 0.84068 0.8063 0.0
N226 N 0.286 0.79266 0.82483 0.0
C227 C 0.2943 0.73231 0.77873 0.0
C228 C 0.30052 0.78124 0.75961 0.0
C229 C 0.39827 0.85913 0.88092 0.0
C230 C 0.25225 0.95533 0.9703 0.0
C231 C 0.3646 0.92966 0.95301 0.0
C232 C 0.34632 0.98719 0.95421 0.0
C233 C 0.28984 0.0001 0.96335 0.0
N234 N 0.32717 0.88582 0.95842 0.0
C235 C 0.27135 0.8984 0.96701 0.0
Co236 Co 0.40126 0.94283 0.38739 0.0
Co237 Co 0.42989 0.87736 0.31597 0.0
O238 O 0.40766 0.9429 0.34171 0.0
C239 C 0.31003 0.02292 0.3639 0.0
O240 O 0.34864 0.03826 0.34259 0.0
C241 C 0.47881 0.97368 0.2681 0.0
O242 O 0.52224 -0.00413 0.28401 0.0
O243 O 0.50991 0.87862 0.3376 0.0
O244 O 0.48097 0.90351 0.3886 0.0
H245 H 0.44167 0.66476 0.28387 0.0
H246 H 0.37829 0.05254 0.42273 0.0
O247 O 0.32212 0.98268 0.38406 0.0
H248 H 0.52986 0.09823 0.34405 0.0
H249 H 0.3057 0.88872 0.48984 0.0
H250 H 0.47809 0.97585 0.44106 0.0
H251 H 0.49891 -0.00201 0.35186 0.0
H252 H 0.3083 0.91138 0.43229 0.0
O253 O 0.44819 0.93346 0.28014 0.0
H254 H 0.43245 0.7429 0.32105 0.0
H255 H 0.47121 0.86245 0.2461 0.0
H256 H 0.48023 0.9469 0.49832 0.0
H257 H 0.40868 0.15329 0.41597 0.0
H258 H 0.39381 0.90294 0.52234 0.0
H259 H 0.48378 0.17706 0.37576 0.0
O260 O 0.36343 0.86426 0.38883 0.0
H261 H 0.24793 0.98361 0.29377 0.0
H262 H 0.33406 0.79386 0.31448 0.0
H263 H 0.22853 0.80966 0.32189 0.0
H264 H 0.18689 0.90611 0.3134 0.0
H265 H 0.35281 0.96809 0.28776 0.0
H266 H 0.48267 0.78335 0.20942 0.0
H267 H 0.46513 0.68319 0.22705 0.0
O268 O 0.41046 0.81996 0.35006 0.0
C269 C 0.51954 0.88439 0.36838 0.0
C270 C 0.447 0.70853 0.27551 0.0
C271 C 0.46989 0.77491 0.23388 0.0
N272 N 0.44903 0.81108 0.28716 0.0
C273 C 0.44164 0.75477 0.29684 0.0
C274 C 0.46353 0.82042 0.25564 0.0
C275 C 0.4604 0.71876 0.24373 0.0
C276 C 0.41282 0.06198 0.40614 0.0
N277 N 0.43683 0.01896 0.38778 0.0
C278 C 0.42937 0.11933 0.40217 0.0
C279 C 0.47135 0.13262 0.37954 0.0
C280 C 0.49724 0.08842 0.36177 0.0
C281 C 0.47983 0.03149 0.36651 0.0
C282 C 0.34379 0.90789 0.47937 0.0
C283 C 0.44105 0.95587 0.45184 0.0
C284 C 0.34565 0.92072 0.44688 0.0
N285 N 0.39481 0.94215 0.43337 0.0
C286 C 0.44157 0.94182 0.48423 0.0
C287 C 0.39277 0.9172 0.49782 0.0
C288 C 0.38064 0.81806 0.37537 0.0
C289 C 0.26681 0.94152 0.29709 0.0
C290 C 0.31516 0.83466 0.30861 0.0
C291 C 0.25589 0.84359 0.31333 0.0
C292 C 0.23212 0.89783 0.30841 0.0
N293 N 0.35028 0.87914 0.30077 0.0
C294 C 0.32606 0.93151 0.2931 0.0
Co295 Co 0.28476 0.15772 0.6293 0.0
Co296 Co 0.36452 0.1709 0.56014 0.0
O297 O 0.29329 0.15756 0.58314 0.0
C298 C 0.20703 0.06191 0.60857 0.0
O299 O 0.19718 0.08964 0.58177 0.0
C300 C 0.27074 0.21988 0.51256 0.0
O301 O 0.22957 0.22163 0.53409 0.0
O302 O 0.36982 0.25107 0.58148 0.0
O303 O 0.32602 0.23474 0.62998 0.0
H304 H 0.58108 0.19043 0.54423 0.0
H305 H 0.16324 0.14129 0.6537 0.0
O306 O 0.24449 0.08066 0.62841 0.0
H307 H 0.15139 0.30448 0.57867 0.0
H308 H 0.28267 0.06642 0.73767 0.0
H309 H 0.23505 0.23924 0.67527 0.0
H310 H 0.24507 0.25978 0.59128 0.0
H311 H 0.3048 0.07087 0.68027 0.0
O312 O 0.32167 0.20337 0.52061 0.0
H313 H 0.49206 0.18932 0.57596 0.0
H314 H 0.39489 0.15987 0.49096 0.0
H315 H 0.2128 0.23818 0.73202 0.0
H316 H 0.06857 0.18503 0.64178 0.0
H317 H 0.23496 0.15079 0.76373 0.0
H318 H 0.06192 0.26536 0.60262 0.0
O319 O 0.36146 0.11828 0.63887 0.0
H320 H 0.23932 0.00714 0.53159 0.0
H321 H 0.43592 0.0661 0.56043 0.0
H322 H 0.40697 0.96495 0.56883 0.0
H323 H 0.30658 0.93563 0.55532 0.0
H324 H 0.26921 0.10797 0.52674 0.0
H325 H 0.4824 0.16996 0.45874 0.0
H326 H 0.5763 0.1874 0.4852 0.0
O327 O 0.41331 0.14077 0.59654 0.0
C328 C 0.35403 0.26726 0.6102 0.0
C329 C 0.53982 0.18576 0.53252 0.0
C330 C 0.48448 0.17456 0.48445 0.0
N331 N 0.43623 0.17862 0.53559 0.0
C332 C 0.48874 0.1838 0.5504 0.0
C333 C 0.43455 0.1706 0.50305 0.0
C334 C 0.53722 0.18379 0.49931 0.0
C335 C 0.16101 0.17658 0.63692 0.0
N336 N 0.21013 0.19644 0.62241 0.0
C337 C 0.10713 0.20139 0.63039 0.0
C338 C 0.10345 0.24694 0.60883 0.0
C339 C 0.15364 0.26861 0.59517 0.0
C340 C 0.20682 0.24301 0.60248 0.0
C341 C 0.27327 0.10529 0.72434 0.0
C342 C 0.2484 0.20327 0.68931 0.0
C343 C 0.28636 0.10846 0.69189 0.0
N344 N 0.27391 0.15739 0.67488 0.0
C345 C 0.23447 0.20173 0.72141 0.0
C346 C 0.24671 0.1524 0.73901 0.0
C347 C 0.40987 0.12084 0.62469 0.0
C348 C 0.28307 0.01939 0.53755 0.0
C349 C 0.39373 0.05262 0.55337 0.0
C350 C 0.37691 -0.00422 0.55861 0.0
C351 C 0.32065 0.97941 0.55115 0.0
N352 N 0.35472 0.09311 0.54385 0.0
C353 C 0.301 0.07644 0.53393 0.0
Co354 Co 0.08586 0.03346 0.88961 0.0
Co355 Co 0.0813 0.10573 0.81888 0.0
O356 O 0.09237 0.03767 0.8438 0.0
C357 C 0.18141 0.95657 0.87098 0.0
O358 O 0.14867 0.94348 0.84641 0.0
C359 C 0.03009 0.02569 0.76264 0.0
O360 O 0.97812 0.01654 0.77412 0.0
O361 O -0.00405 0.10787 0.8343 0.0
O362 O 0.0078 0.07346 0.88558 0.0
H363 H 0.07999 0.32081 0.80033 0.0
H364 H 0.09788 0.91937 0.92176 0.0
O365 O 0.16434 -0.00588 0.89155 0.0
H366 H 0.96866 0.88609 0.82995 0.0
H367 H 0.15257 0.06807 1.00107 0.0
H368 H 0.99209 0.00418 0.93286 0.0
H369 H -0.00184 0.98454 0.84437 0.0
H370 H 0.16674 0.05129 0.94352 0.0
O371 O 0.06695 0.05527 0.77873 0.0
H372 H 0.05375 0.2344 0.82992 0.0
H373 H 0.1017 0.13084 0.7493 0.0
H374 H 0.97171 0.0349 0.98861 0.0
H375 H 0.06966 0.82 0.9078 0.0
H376 H 0.05368 0.05951 0.02422 0.0
H377 H 0.00636 0.80275 0.86105 0.0
O378 O 0.12249 0.1111 0.8985 0.0
H379 H 0.26283 -0.00576 0.79376 0.0
H380 H 0.18365 0.17945 0.83117 0.0
H381 H 0.28877 0.15827 0.83704 0.0
H382 H 0.32809 0.06604 0.8172 0.0
H383 H 0.15838 0.01402 0.79067 0.0
H384 H 0.11284 0.21724 0.7173 0.0
H385 H 0.10868 0.31344 0.74339 0.0
O386 O 0.09568 0.15895 0.85584 0.0
C387 C 0.97668 0.09688 0.86331 0.0
C388 C 0.08332 0.27898 0.78894 0.0
C389 C 0.10171 0.22099 0.74239 0.0
N390 N 0.0762 0.17529 0.79218 0.0
C391 C 0.06964 0.22893 0.80584 0.0
C392 C 0.09261 0.17159 0.76067 0.0
C393 C 0.09943 0.2749 0.75699 0.0
C394 C 0.06834 0.91254 0.9021 0.0
N395 N 0.05009 0.95807 0.88382 0.0
C396 C 0.05296 0.85608 0.89418 0.0
C397 C 0.0176 0.84639 0.86784 0.0
C398 C -0.00347 0.89313 0.85037 0.0
C399 C 0.01296 0.94899 0.85889 0.0
C400 C 0.11679 0.05393 0.98651 0.0
C401 C 0.02609 0.01996 0.94793 0.0
C402 C 0.12469 0.0439 0.95396 0.0
N403 N 0.07903 0.02864 0.93515 0.0
C404 C 0.01544 0.03434 0.97963 0.0
C405 C 0.06151 0.04936 0.99936 0.0
C406 C 0.11308 0.15857 0.88443 0.0
C407 C 0.24556 0.03546 0.80127 0.0
C408 C 0.20074 0.13926 0.82265 0.0
C409 C 0.26007 0.12773 0.8258 0.0
C410 C 0.28244 0.07561 0.81483 0.0
N411 N 0.16419 0.09932 0.81001 0.0
C412 C 0.1864 0.04786 0.79904 0.0
Co413 Co 0.18841 0.83241 0.15028 0.0
Co414 Co 0.13301 0.82049 0.07351 0.0
O415 O 0.19621 0.83031 0.10345 0.0
C416 C 0.27065 0.92517 0.13292 0.0
O417 O 0.2815 0.89521 0.10694 0.0
C418 C 0.23707 0.77134 0.02878 0.0
O419 O 0.2788 0.77227 0.05004 0.0
O420 O 0.11995 0.7406 0.09305 0.0
O421 O 0.14595 0.75569 0.14578 0.0
H422 H 0.92404 0.80432 0.03757 0.0
H423 H 0.29378 0.85021 0.18851 0.0
O424 O 0.23155 0.90861 0.15262 0.0
H425 H 0.33365 0.67643 0.12388 0.0
H426 H 0.12445 0.92039 0.25468 0.0
H427 H 0.21734 0.75233 0.20452 0.0
H428 H 0.24286 0.73043 0.11684 0.0
H429 H 0.15229 0.92196 0.19785 0.0
O430 O 0.18545 0.78678 0.03705 0.0
H431 H 0.0024 0.80114 0.07698 0.0
H432 H 0.12381 0.83932 1.00347 0.0
H433 H 0.1865 0.74602 0.26095 0.0
H434 H 0.38579 0.80056 0.19461 0.0
H435 H 0.13688 0.82992 0.28587 0.0
H436 H 0.40609 0.71088 0.1642 0.0
O437 O 0.11147 0.87309 0.15161 0.0
H438 H 0.26622 0.97954 0.04061 0.0
H439 H 0.06927 0.93104 0.07382 0.0
H440 H 0.09819 0.03314 0.07281 0.0
H441 H 0.19805 0.05801 0.05611 0.0
H442 H 0.23653 0.87923 0.04527 0.0
H443 H 0.04727 0.83524 0.96347 0.0
H444 H 0.9465 0.81539 0.98008 0.0
O445 O 0.07349 0.84934 0.10545 0.0
C446 C 0.12553 0.72376 0.12272 0.0
C447 C 0.96828 0.80998 0.03 0.0
C448 C 0.03733 0.82695 0.98827 0.0
N449 N 0.06949 0.81595 0.04274 0.0
C450 C 0.01327 0.80951 0.05234 0.0
C451 C 0.08097 0.82776 0.01124 0.0
C452 C 0.98082 0.81645 0.99766 0.0
C453 C 0.30266 0.8128 0.17375 0.0
N454 N 0.26236 0.79291 0.15262 0.0
C455 C 0.35498 0.78417 0.1777 0.0
C456 C 0.36624 0.73433 0.16015 0.0
C457 C 0.32582 0.71516 0.13778 0.0
C458 C 0.27399 0.74562 0.13406 0.0
C459 C 0.14371 0.8825 0.24369 0.0
C460 C 0.19428 0.78738 0.21501 0.0
C461 C 0.15945 0.88293 0.21142 0.0
N462 N 0.18104 0.83423 0.1969 0.0
C463 C 0.17857 0.78475 0.24722 0.0
C464 C 0.15138 0.83212 0.26129 0.0
C465 C 0.0678 0.86759 0.13393 0.0
C466 C 0.22244 0.96956 0.04764 0.0
C467 C 0.11162 0.94175 0.06605 0.0
C468 C 0.12824 -0.00044 0.06554 0.0
C469 C 0.18427 0.01346 0.05641 0.0
N470 N 0.14988 0.89863 0.0592 0.0
C471 C 0.20459 0.91221 0.04942 0.0
Co472 Co 0.56341 0.95181 0.88697 0.0
Co473 Co 0.54568 0.88327 0.81464 0.0
O474 O 0.56333 0.94907 0.8409 0.0
C475 C 0.67004 0.01679 0.86529 0.0
O476 O 0.64953 0.02034 0.83617 0.0
C477 C 0.52546 0.98583 0.77152 0.0
O478 O 0.56965 0.01025 0.78566 0.0
O479 O 0.46838 0.87256 0.83805 0.0
O480 O 0.48522 0.91215 0.88714 0.0
H481 H 0.56358 0.67429 0.78225 0.0
H482 H 0.58482 0.06778 0.91592 0.0
O483 O 0.64212 0.99012 0.88709 0.0
H484 H 0.4311 0.09713 0.83586 0.0
H485 H 0.65008 0.91865 0.99424 0.0
H486 H 0.47573 0.97771 0.93502 0.0
H487 H 0.4651 -0.00078 0.8491 0.0
H488 H 0.65339 0.93421 0.93625 0.0
O489 O 0.50681 0.93747 0.78206 0.0
H490 H 0.55088 0.75075 0.82093 0.0
H491 H 0.50153 0.86554 0.74598 0.0
H492 H 0.46678 0.94539 0.99143 0.0
H493 H 0.55369 0.16682 0.90221 0.0
H494 H 0.55524 0.9246 0.02234 0.0
H495 H 0.47768 0.1818 0.86119 0.0
O496 O 0.6 0.87361 0.89285 0.0
H497 H 0.68638 0.92066 0.72403 0.0
H498 H 0.66373 0.89649 0.8399 0.0
H499 H 0.75641 0.92871 0.81881 0.0
H500 H 0.76646 0.94787 0.76083 0.0
H501 H 0.59324 0.89832 0.7459 0.0
H502 H 0.5207 0.79204 0.70696 0.0
H503 H 0.55457 0.69458 0.72425 0.0
O504 O 0.58182 0.82947 0.84673 0.0
C505 C 0.453 0.88425 0.86729 0.0
C506 C 0.55383 0.7175 0.77406 0.0
C507 C 0.52984 0.78321 0.73183 0.0
N508 N 0.53185 0.81676 0.7864 0.0
C509 C 0.54649 0.7621 0.79614 0.0
C510 C 0.51846 0.82538 0.75477 0.0
C511 C 0.5483 0.7289 0.74156 0.0
C512 C 0.55075 0.07393 0.89856 0.0
N513 N 0.52733 0.02757 0.8831 0.0
C514 C 0.53328 0.1301 0.89094 0.0
C515 C 0.49046 0.13855 0.86801 0.0
C516 C 0.46452 0.09104 0.85365 0.0
C517 C 0.48359 0.03556 0.86154 0.0
C518 C 0.61145 0.93174 0.98162 0.0
C519 C 0.51306 0.96316 0.94814 0.0
C520 C 0.61315 0.94144 0.94884 0.0
N521 N 0.56388 0.95592 0.93261 0.0
C522 C 0.50858 0.94774 0.98006 0.0
C523 C 0.55849 0.9348 0.99726 0.0
C524 C 0.59894 0.82838 0.87572 0.0
C525 C 0.68156 0.91677 0.74963 0.0
C526 C 0.66801 0.90108 0.81442 0.0
C527 C 0.72092 0.92014 0.80266 0.0
C528 C 0.72677 0.93017 0.77013 0.0
N529 N 0.6214 0.89418 0.79463 0.0
C530 C 0.6285 0.90098 0.76234 0.0
Co531 Co 0.78154 0.80597 0.64903 0.0
Co532 Co 0.83404 0.80442 0.57239 0.0
O533 O 0.77183 0.81246 0.6029 0.0
C534 C 0.72672 0.92311 0.64054 0.0
O535 O 0.76794 0.93674 0.62044 0.0
C536 C 0.72993 0.76072 0.5305 0.0
O537 O 0.68948 0.76661 0.55237 0.0
O538 O 0.85818 0.72596 0.59143 0.0
O539 O 0.83448 0.73881 0.64354 0.0
H540 H 0.04223 0.79827 0.53549 0.0
H541 H 0.66657 0.80106 0.68254 0.0
O542 O 0.72773 0.87446 0.65499 0.0
H543 H 0.6673 0.64093 0.60431 0.0
H544 H 0.82597 0.87187 0.76059 0.0
H545 H 0.78089 0.70508 0.69225 0.0
H546 H 0.75045 0.70417 0.60928 0.0
H547 H 0.80147 0.88599 0.70337 0.0
O548 O 0.78344 0.76509 0.53814 0.0
H549 H 0.96486 0.79522 0.57571 0.0
H550 H 0.83969 0.81483 0.50199 0.0
H551 H 0.80151 0.69067 0.74957 0.0
H552 H 0.57921 0.74124 0.67524 0.0
H553 H 0.81918 0.77543 0.78437 0.0
H554 H 0.58077 0.65951 0.63722 0.0
O555 O 0.85262 0.85675 0.65146 0.0
H556 H 0.69089 0.96097 0.54297 0.0
H557 H 0.89437 0.90921 0.5587 0.0
H558 H 0.86829 0.01165 0.5494 0.0
H559 H 0.76571 0.03777 0.53973 0.0
H560 H 0.71952 0.8633 0.55666 0.0
H561 H 0.91245 0.80195 0.46183 0.0
H562 H 0.01734 0.7956 0.47792 0.0
O563 O 0.88907 0.84257 0.60286 0.0
C564 C 0.8585 0.70984 0.62114 0.0
C565 C -0.00253 0.79983 0.52807 0.0
C566 C 0.92564 0.80228 0.48652 0.0
N567 N 0.89655 0.80109 0.54144 0.0
C568 C 0.95317 0.79908 0.55082 0.0
C569 C 0.88324 0.80643 0.50977 0.0
C570 C 0.9834 0.79871 0.49567 0.0
C571 C 0.66703 0.76604 0.66537 0.0
N572 N 0.71495 0.7553 0.64716 0.0
C573 C 0.61769 0.73213 0.66174 0.0
C574 C 0.61815 0.68634 0.64013 0.0
C575 C 0.6669 0.67566 0.62172 0.0
C576 C 0.71468 0.71122 0.62523 0.0
C577 C 0.81231 0.83599 0.746 0.0
C578 C 0.78896 0.74216 0.70729 0.0
C579 C 0.79982 0.84323 0.71359 0.0
N580 N 0.7884 0.79651 0.69472 0.0
C581 C 0.80088 0.7336 0.73961 0.0
C582 C 0.81046 0.7812 0.75924 0.0
C583 C 0.89392 0.86109 0.63136 0.0
C584 C 0.73616 0.95058 0.54589 0.0
C585 C 0.85067 0.92122 0.55437 0.0
C586 C 0.83565 0.97871 0.5489 0.0
C587 C 0.77795 -0.00662 0.54413 0.0
N588 N 0.80999 0.87967 0.55644 0.0
C589 C 0.75297 0.894 0.55256 0.0
Co590 Co 0.92963 0.03209 0.39926 0.0
Co591 Co 0.93053 0.08789 0.32298 0.0
O592 O 0.9199 0.02614 0.35323 0.0
C593 C 0.82215 0.96137 0.38748 0.0
O594 O 0.83405 0.96 0.35684 0.0
C595 C 0.93653 0.98243 0.27754 0.0
O596 O 0.89023 0.9614 0.29132 0.0
O597 O 0.01326 0.0999 0.33931 0.0
O598 O 0.00458 0.07554 0.39197 0.0
H599 H 0.91239 0.29246 0.28356 0.0
H600 H 0.92513 0.9205 0.43516 0.0
O601 O 0.85474 0.98854 0.40699 0.0
H602 H 0.07555 0.8938 0.35247 0.0
H603 H 0.86038 0.08419 0.50862 0.0
H604 H 0.02488 0.0128 0.44467 0.0
H605 H 0.0219 0.98516 0.35671 0.0
H606 H 0.84895 0.05961 0.45193 0.0
O607 O 0.96033 0.02793 0.28941 0.0
H608 H 0.93021 0.22048 0.32386 0.0
H609 H 0.95554 0.09413 0.25044 0.0
H610 H 0.04147 0.04513 0.50118 0.0
H611 H 0.9773 0.82669 0.42951 0.0
H612 H 0.95707 0.07631 0.53379 0.0
H613 H 0.05176 0.81383 0.39013 0.0
O614 O 0.8891 0.10833 0.40351 0.0
H615 H 0.76281 0.051 0.24716 0.0
H616 H 0.82063 0.08035 0.35859 0.0
H617 H 0.71941 0.06244 0.3466 0.0
H618 H 0.68941 0.04451 0.29064 0.0
H619 H 0.8627 0.06712 0.25979 0.0
H620 H 0.92964 0.16394 0.21032 0.0
H621 H 0.90685 0.26438 0.22613 0.0
O622 O 0.90423 0.14792 0.35597 0.0
C623 C 0.03358 0.09634 0.36822 0.0
C624 C 0.91885 0.24797 0.27636 0.0
C625 C 0.92884 0.17609 0.23534 0.0
N626 N 0.93829 0.14954 0.29092 0.0
C627 C 0.92872 0.20592 0.29945 0.0
C628 C 0.94358 0.13627 0.25891 0.0
C629 C 0.91579 0.23225 0.24422 0.0
C630 C 0.95801 0.91504 0.41697 0.0
N631 N 0.97121 0.95916 0.39676 0.0
C632 C 0.98711 0.86229 0.41437 0.0
C633 C 0.02976 0.85478 0.39152 0.0
C634 C 0.04281 0.89949 0.37077 0.0
C635 C 0.01255 0.95153 0.3736 0.0
C636 C 0.89723 0.06905 0.49492 0.0
C637 C 0.9903 0.03105 0.4587 0.0
C638 C 0.89105 0.05468 0.4628 0.0
N639 N 0.93778 0.03744 0.44498 0.0
C640 C -0.00098 0.04805 0.49043 0.0
C641 C 0.9516 0.06531 0.50886 0.0
C642 C 0.89072 0.15232 0.38567 0.0
C643 C 0.77498 0.05749 0.27173 0.0
C644 C 0.80867 0.07576 0.33395 0.0
C645 C 0.75073 0.06452 0.32737 0.0
C646 C 0.73397 0.05457 0.29602 0.0
N647 N 0.84952 0.07706 0.31018 0.0
C648 C 0.83247 0.06868 0.27918 0.0
Co649 Co 0.7004 0.18136 0.1377 0.0
Co650 Co 0.6359 0.17532 0.0636 0.0
O651 O 0.70374 0.17252 0.09101 0.0
C652 C 0.75451 0.06514 0.13055 0.0
O653 O 0.71179 0.04892 0.11214 0.0
C654 C 0.73324 0.21742 0.01482 0.0
O655 O 0.77544 0.21786 0.03582 0.0
O656 O 0.61529 0.25643 0.08193 0.0
O657 O 0.64559 0.24744 0.13349 0.0
H658 H 0.42174 0.17689 0.03927 0.0
H659 H 0.81333 0.19413 0.17163 0.0
O660 O 0.7558 0.11564 0.14253 0.0
H661 H 0.81141 0.34399 0.08809 0.0
H662 H 0.67496 0.1102 0.24868 0.0
H663 H 0.70211 0.28241 0.18181 0.0
H664 H 0.72933 0.27871 0.09431 0.0
H665 H 0.69217 0.10021 0.19117 0.0
O666 O 0.68088 0.2087 0.02432 0.0
H667 H 0.50672 0.18699 0.07375 0.0
H668 H 0.61668 0.15256 0.99406 0.0
H669 H 0.68799 0.29376 0.23994 0.0
H670 H 0.89727 0.25857 0.16576 0.0
H671 H 0.6777 0.20647 0.27408 0.0
H672 H 0.8958 0.33418 0.12358 0.0
O673 O 0.63207 0.12896 0.14396 0.0
H674 H 0.77713 0.0192 0.03139 0.0
H675 H 0.57738 0.06399 0.06251 0.0
H676 H 0.60978 0.96219 0.06101 0.0
H677 H 0.70998 0.93901 0.04371 0.0
H678 H 0.7454 0.1181 0.03921 0.0
H679 H 0.53296 0.15085 0.9585 0.0
H680 H 0.43448 0.16492 0.98065 0.0
O681 O 0.58537 0.14191 0.09847 0.0
C682 C 0.6189 0.27486 0.11149 0.0
C683 C 0.46467 0.1731 0.02913 0.0
C684 C 0.52702 0.15909 0.98372 0.0
N685 N 0.56788 0.17359 0.03602 0.0
C686 C 0.51341 0.17772 0.04869 0.0
C687 C 0.5746 0.16158 0.0041 0.0
C688 C 0.4718 0.16626 0.99624 0.0
C689 C 0.8126 0.22708 0.15337 0.0
N690 N 0.76574 0.2331 0.1337 0.0
C691 C 0.86019 0.26344 0.15022 0.0
C692 C 0.85958 0.30585 0.12665 0.0
C693 C 0.81199 0.31151 0.10663 0.0
C694 C 0.76531 0.27452 0.11048 0.0
C695 C 0.6842 0.14781 0.23458 0.0
C696 C 0.69818 0.24452 0.19664 0.0
C697 C 0.69288 0.14273 0.20186 0.0
N698 N 0.69894 0.19075 0.18333 0.0
C699 C 0.69066 0.25108 0.22945 0.0
C700 C 0.68442 0.20214 0.24855 0.0
C701 C 0.58668 0.1243 0.12722 0.0
C702 C 0.73272 0.02815 0.03785 0.0
C703 C 0.62036 0.05382 0.05512 0.0
C704 C 0.63863 -0.00372 0.05392 0.0
C705 C 0.69512 0.98338 0.04479 0.0
N706 N 0.6578 0.09765 0.04972 0.0
C707 C 0.71363 0.08508 0.04115 0.0
Co708 Co 0.58373 0.04059 0.62074 0.0
Co709 Co 0.55508 0.10603 0.69217 0.0
O710 O 0.57732 0.0405 0.66642 0.0
C711 C 0.67495 0.96048 0.64423 0.0
O712 O 0.63633 0.94514 0.66555 0.0
C713 C 0.50618 0.00969 0.74003 0.0
O714 O 0.46276 0.98748 0.72411 0.0
O715 O 0.47507 0.10477 0.67054 0.0
O716 O 0.50403 0.07992 0.61953 0.0
H717 H 0.54332 0.31861 0.72432 0.0
H718 H 0.60671 0.93091 0.58539 0.0
O719 O 0.66287 0.00074 0.62408 0.0
H720 H 0.45516 0.88517 0.66408 0.0
H721 H 0.67936 0.09476 0.51832 0.0
H722 H 0.50693 0.00761 0.56706 0.0
H723 H 0.48608 0.98541 0.65626 0.0
H724 H 0.67672 0.07206 0.57587 0.0
O725 O 0.53678 0.04991 0.728 0.0
H726 H 0.55258 0.24049 0.68712 0.0
H727 H 0.51366 0.1209 0.76203 0.0
H728 H 0.50482 0.0366 0.5098 0.0
H729 H 0.57634 0.83015 0.59214 0.0
H730 H 0.59126 0.08057 0.4858 0.0
H731 H 0.50126 0.80636 0.63235 0.0
O732 O 0.62157 0.11916 0.61933 0.0
H733 H 0.73706 -0.00021 0.71436 0.0
H734 H 0.65091 0.18955 0.69369 0.0
H735 H 0.75644 0.17376 0.68628 0.0
H736 H 0.79809 0.07731 0.69476 0.0
H737 H 0.63217 0.0153 0.72037 0.0
H738 H 0.50221 0.19996 0.79873 0.0
H739 H 0.51979 0.30014 0.78113 0.0
O740 O 0.57452 0.16345 0.65809 0.0
C741 C 0.46544 0.09902 0.63975 0.0
C742 C 0.53797 0.27484 0.73267 0.0
C743 C 0.51502 0.20842 0.77428 0.0
N744 N 0.53593 0.1723 0.721 0.0
C745 C 0.54335 0.22861 0.71133 0.0
C746 C 0.52138 0.16293 0.7525 0.0
C747 C 0.52453 0.26458 0.76444 0.0
C748 C 0.57218 0.92146 0.60198 0.0
N749 N 0.54816 0.96447 0.62034 0.0
C750 C 0.55564 0.8641 0.60594 0.0
C751 C 0.51367 0.85079 0.62858 0.0
C752 C 0.48778 0.89499 0.64635 0.0
C753 C 0.50516 0.95192 0.64161 0.0
C754 C 0.64125 0.07558 0.52878 0.0
C755 C 0.54398 0.0276 0.55629 0.0
C756 C 0.63938 0.06274 0.56127 0.0
N757 N 0.5902 0.0413 0.57477 0.0
C758 C 0.54348 0.04167 0.5239 0.0
C759 C 0.59228 0.0663 0.51032 0.0
C760 C 0.60435 0.16535 0.63279 0.0
C761 C 0.71818 0.04188 0.71105 0.0
C762 C 0.66981 0.14874 0.69955 0.0
C763 C 0.72908 0.13982 0.69483 0.0
C764 C 0.75286 0.08558 0.69974 0.0
N765 N 0.6347 0.10425 0.70737 0.0
C766 C 0.65892 0.05188 0.71504 0.0
Co767 Co 0.70023 0.82571 0.37884 0.0
Co768 Co 0.62048 0.81255 0.448 0.0
O769 O 0.6917 0.82587 0.425 0.0
C770 C 0.77795 0.92152 0.39956 0.0
O771 O 0.78779 0.89379 0.42636 0.0
C772 C 0.71425 0.76354 0.49557 0.0
O773 O 0.75541 0.76177 0.47405 0.0
O774 O 0.61517 0.73238 0.42667 0.0
O775 O 0.65897 0.74869 0.37816 0.0
H776 H 0.40391 0.79304 0.46391 0.0
H777 H 0.82174 0.84214 0.35443 0.0
O778 O 0.74049 0.90277 0.37972 0.0
H779 H 0.83361 0.67896 0.42946 0.0
H780 H 0.70229 0.91696 0.27045 0.0
H781 H 0.74992 0.74417 0.33287 0.0
H782 H 0.73992 0.72365 0.41685 0.0
H783 H 0.68018 0.91254 0.32786 0.0
O784 O 0.66332 0.78008 0.48753 0.0
H785 H 0.49294 0.79412 0.43218 0.0
H786 H 0.5901 0.8236 0.51718 0.0
H787 H 0.77217 0.74521 0.27612 0.0
H788 H 0.91642 0.79841 0.36635 0.0
H789 H 0.75 0.83258 0.2444 0.0
H790 H 0.92308 0.71809 0.40552 0.0
O791 O 0.62352 0.86513 0.36926 0.0
H792 H 0.7457 0.97629 0.47656 0.0
H793 H 0.54909 0.91736 0.44771 0.0
H794 H 0.57806 0.01852 0.43933 0.0
H795 H 0.67845 0.04781 0.45285 0.0
H796 H 0.71579 0.87546 0.48139 0.0
H797 H 0.50259 0.81353 0.5494 0.0
H798 H 0.40869 0.79609 0.52294 0.0
O799 O 0.57169 0.84268 0.4116 0.0
C800 C 0.63096 0.71617 0.39794 0.0
C801 C 0.44518 0.79771 0.47562 0.0
C802 C 0.50051 0.80893 0.52369 0.0
N803 N 0.54877 0.80484 0.47255 0.0
C804 C 0.49626 0.79965 0.45774 0.0
C805 C 0.55044 0.81288 0.50509 0.0
C806 C 0.44778 0.7997 0.50883 0.0
C807 C 0.82398 0.80686 0.37122 0.0
N808 N 0.77486 0.78699 0.38572 0.0
C809 C 0.87786 0.78204 0.37774 0.0
C810 C 0.88154 0.7365 0.3993 0.0
C811 C 0.83135 0.71482 0.41296 0.0
C812 C 0.77817 0.74042 0.40565 0.0
C813 C 0.71169 0.8781 0.28379 0.0
C814 C 0.73657 0.78014 0.31883 0.0
C815 C 0.69861 0.87495 0.31624 0.0
N816 N 0.71107 0.82602 0.33325 0.0
C817 C 0.7505 0.78166 0.28673 0.0
C818 C 0.73825 0.83098 0.26912 0.0
C819 C 0.57512 0.86259 0.38344 0.0
C820 C 0.70195 0.96404 0.4706 0.0
C821 C 0.59129 0.93083 0.45477 0.0
C822 C 0.60811 0.98768 0.44954 0.0
C823 C 0.66438 0.00404 0.45701 0.0
N824 N 0.63029 0.89034 0.46429 0.0
C825 C 0.68401 0.90699 0.47422 0.0
Co826 Co 0.89907 0.94997 0.11853 0.0
Co827 Co 0.90365 0.87772 0.18928 0.0
O828 O 0.89258 0.94577 0.16435 0.0
C829 C 0.80353 0.02686 0.13717 0.0
O830 O 0.83627 0.03996 0.16173 0.0
C831 C 0.95487 0.95774 0.24551 0.0
O832 O 0.00684 0.96684 0.23404 0.0
O833 O 0.989 0.87558 0.17385 0.0
O834 O 0.97714 0.90997 0.12256 0.0
H835 H 0.90498 0.66263 0.20784 0.0
H836 H 0.88703 0.06405 0.08637 0.0
O837 O 0.82059 0.98931 0.1166 0.0
H838 H 0.01628 0.09737 0.17816 0.0
H839 H 0.83231 0.91532 0.00709 0.0
H840 H -0.00718 0.97922 0.07527 0.0
H841 H 0.98678 -0.00109 0.16376 0.0
H842 H 0.81817 0.93213 0.06464 0.0
O843 O 0.91799 0.92818 0.22942 0.0
H844 H 0.93118 0.74904 0.17824 0.0
H845 H 0.88326 0.85262 0.25885 0.0
H846 H 0.01317 0.94847 0.01952 0.0
H847 H 0.91524 0.16342 0.10032 0.0
H848 H 0.93119 0.92385 0.98392 0.0
H849 H 0.97855 0.18069 0.14707 0.0
O850 O 0.86244 0.87233 0.10966 0.0
H851 H 0.72211 0.98919 0.2144 0.0
H852 H 0.8013 0.80398 0.17698 0.0
H853 H 0.69618 0.82516 0.1711 0.0
H854 H 0.65685 0.91738 0.19094 0.0
H855 H 0.82656 0.96941 0.21749 0.0
H856 H 0.87214 0.76623 0.29086 0.0
H857 H 0.87632 0.67002 0.26479 0.0
O858 O 0.88928 0.82449 0.15232 0.0
C859 C 0.00826 0.88657 0.14484 0.0
C860 C 0.90165 0.70447 0.21923 0.0
C861 C 0.88327 0.76247 0.26577 0.0
N862 N 0.90875 0.80816 0.21598 0.0
C863 C 0.91531 0.75451 0.20232 0.0
C864 C 0.89235 0.81187 0.24749 0.0
C865 C 0.88555 0.70856 0.25118 0.0
C866 C 0.91657 0.07089 0.10603 0.0
N867 N 0.93484 0.02537 0.12432 0.0
C868 C 0.93194 0.12735 0.11394 0.0
C869 C 0.96732 0.13705 0.14028 0.0
C870 C 0.9884 0.09032 0.15775 0.0
C871 C 0.97197 0.03446 0.14924 0.0
C872 C 0.86809 0.92946 0.02164 0.0
C873 C 0.95881 0.96345 0.06021 0.0
C874 C 0.86021 0.93951 0.0542 0.0
N875 N 0.90588 0.95477 0.073 0.0
C876 C 0.96944 0.94905 0.02851 0.0
C877 C 0.92337 0.93402 0.00878 0.0
C878 C 0.87187 0.82486 0.12373 0.0
C879 C 0.73938 0.94796 0.20688 0.0
C880 C 0.78421 0.84418 0.18549 0.0
C881 C 0.72488 0.8557 0.18234 0.0
C882 C 0.70251 0.90781 0.19331 0.0
N883 N 0.82076 0.88412 0.19813 0.0
C884 C 0.79854 0.93557 0.20911 0.0
Co885 Co 0.79654 0.15105 0.85787 0.0
Co886 Co 0.85194 0.16296 0.93464 0.0
O887 O 0.78874 0.15315 0.90471 0.0
C888 C 0.71427 0.05831 0.87524 0.0
O889 O 0.70344 0.08827 0.90122 0.0
C890 C 0.74789 0.21213 0.97938 0.0
O891 O 0.70616 0.21122 0.95812 0.0
O892 O 0.86501 0.24285 0.9151 0.0
O893 O 0.83901 0.22776 0.86237 0.0
H894 H 0.06092 0.17909 0.97058 0.0
H895 H 0.69117 0.13329 0.81964 0.0
O896 O 0.75337 0.07486 0.85554 0.0
H897 H 0.65135 0.30707 0.88428 0.0
H898 H 0.86048 0.06304 0.75348 0.0
H899 H 0.76764 0.23114 0.80363 0.0
H900 H 0.74211 0.25304 0.89132 0.0
H901 H 0.83263 0.06149 0.81031 0.0
O902 O 0.79951 0.19667 0.9711 0.0
H903 H 0.98255 0.1823 0.93116 0.0
H904 H 0.86115 0.14412 0.00469 0.0
H905 H 0.79849 0.23743 0.74721 0.0
H906 H 0.59919 0.18299 0.81353 0.0
H907 H 0.84809 0.15352 0.72229 0.0
H908 H 0.57892 0.27268 0.84394 0.0
O909 O 0.87347 0.11036 0.85655 0.0
H910 H 0.71871 0.00393 0.96755 0.0
H911 H 0.91566 0.05239 0.93432 0.0
H912 H 0.88672 0.95031 0.93533 0.0
H913 H 0.78687 0.92545 0.95205 0.0
H914 H 0.74842 0.10424 0.96289 0.0
H915 H 0.9377 0.14817 0.04467 0.0
H916 H 0.03847 0.168 0.02806 0.0
O917 O 0.91145 0.13411 0.9027 0.0
C918 C 0.85943 0.25969 0.88543 0.0
C919 C 0.01669 0.17344 0.97815 0.0
C920 C 0.94763 0.15646 0.01988 0.0
N921 N 0.91546 0.16749 0.96541 0.0
C922 C 0.97169 0.17392 0.95581 0.0
C923 C 0.90399 0.15567 0.99691 0.0
C924 C 0.00415 0.16695 0.01049 0.0
C925 C 0.68229 0.1707 0.8344 0.0
N926 N 0.7226 0.19057 0.85554 0.0
C927 C 0.62999 0.19936 0.83045 0.0
C928 C 0.61874 0.2492 0.84799 0.0
C929 C 0.65916 0.26835 0.87038 0.0
C930 C 0.71099 0.23786 0.87409 0.0
C931 C 0.84123 0.10094 0.76447 0.0
C932 C 0.79069 0.19608 0.79314 0.0
C933 C 0.82548 0.10052 0.79673 0.0
N934 N 0.80391 0.14922 0.81125 0.0
C935 C 0.80641 0.19871 0.76094 0.0
C936 C 0.83358 0.15132 0.74686 0.0
C937 C 0.91714 0.11586 0.87422 0.0
C938 C 0.7625 0.0139 0.96052 0.0
C939 C 0.87331 0.04169 0.9421 0.0
C940 C 0.85668 0.98388 0.94261 0.0
C941 C 0.80065 0.97 0.95175 0.0
N942 N 0.83506 0.08482 0.94895 0.0
C943 C 0.78035 0.07125 0.95873 0.0
Co944 Co 0.92154 0.53157 0.62121 0.0
Co945 Co 0.93907 0.60037 0.69349 0.0
O946 O 0.9217 0.53443 0.66729 0.0
C947 C 0.81509 0.46649 0.64297 0.0
O948 O 0.83589 0.46269 0.67202 0.0
C949 C 0.95939 0.49807 0.73683 0.0
O950 O 0.91532 0.47347 0.72267 0.0
O951 O 0.01644 0.61122 0.67004 0.0
O952 O -0.00028 0.57125 0.621 0.0
H953 H 0.92217 0.80995 0.72526 0.0
H954 H 0.90007 0.41554 0.59236 0.0
O955 O 0.84282 0.49331 0.62115 0.0
H956 H 0.0539 0.38636 0.67237 0.0
H957 H 0.83474 0.56487 0.51401 0.0
H958 H 0.00907 0.50543 0.57313 0.0
H959 H 0.01991 0.48425 0.65907 0.0
H960 H 0.83147 0.54912 0.57197 0.0
O961 O 0.97801 0.5464 0.72621 0.0
H962 H 0.93411 0.73287 0.68688 0.0
H963 H 0.98215 0.61851 0.76229 0.0
H964 H 0.01801 0.53799 0.51674 0.0
H965 H 0.93118 0.31654 0.60614 0.0
H966 H 0.92955 0.55893 0.48587 0.0
H967 H 0.00726 0.30164 0.64713 0.0
O968 O 0.88495 0.60976 0.61523 0.0
H969 H 0.79825 0.56247 0.78398 0.0
H970 H 0.82115 0.5867 0.66814 0.0
H971 H 0.72861 0.55385 0.68912 0.0
H972 H 0.71847 0.53462 0.7471 0.0
H973 H 0.89126 0.58531 0.76223 0.0
H974 H 0.96376 0.69268 0.801 0.0
H975 H 0.93122 0.79035 0.78334 0.0
O976 O 0.90285 0.65396 0.66135 0.0
C977 C 0.03188 0.59934 0.6408 0.0
C978 C 0.93154 0.76676 0.73361 0.0
C979 C 0.95469 0.7013 0.77611 0.0
N980 N 0.95256 0.66711 0.72165 0.0
C981 C 0.93837 0.72178 0.71171 0.0
C982 C 0.96559 0.6587 0.75334 0.0
C983 C 0.93706 0.75575 0.76616 0.0
C984 C 0.93415 0.40943 0.60971 0.0
N985 N 0.9576 0.45582 0.62513 0.0
C986 C 0.95161 0.35327 0.61736 0.0
C987 C -0.00552 0.34487 0.64029 0.0
C988 C 0.02045 0.39242 0.65459 0.0
C989 C 0.00138 0.44788 0.64667 0.0
C990 C 0.87337 0.55168 0.5266 0.0
C991 C 0.97175 0.52007 0.56002 0.0
C992 C 0.87169 0.54187 0.55937 0.0
N993 N 0.92097 0.52734 0.57557 0.0
C994 C 0.97623 0.53562 0.52812 0.0
C995 C 0.92632 0.54865 0.51095 0.0
C996 C 0.88589 0.65501 0.63234 0.0
C997 C 0.80313 0.5663 0.75839 0.0
C998 C 0.81681 0.58208 0.69361 0.0
C999 C 0.76398 0.56265 0.70531 0.0
C1000 C 0.75808 0.55256 0.73783 0.0
N1001 N 0.86332 0.58926 0.71345 0.0
C1002 C 0.85612 0.58243 0.74573 0.0
Co1003 Co 0.70351 0.67746 0.85912 0.0
Co1004 Co 0.65109 0.67919 0.93574 0.0
O1005 O 0.71326 0.67115 0.90524 0.0
C1006 C 0.75838 0.56046 0.86776 0.0
O1007 O 0.71698 0.54683 0.88774 0.0
C1008 C 0.75523 0.72306 0.97745 0.0
O1009 O 0.79559 0.71704 0.95554 0.0
O1010 O 0.62678 0.7575 0.91661 0.0
O1011 O 0.65033 0.74452 0.8645 0.0
H1012 H 0.44291 0.68506 0.97261 0.0
H1013 H 0.81844 0.68279 0.82556 0.0
O1014 O 0.7575 0.60909 0.85329 0.0
H1015 H 0.81694 0.84336 0.90351 0.0
H1016 H 0.65928 0.61097 0.74763 0.0
H1017 H 0.70404 0.77815 0.81573 0.0
H1018 H 0.7343 0.7794 0.89883 0.0
H1019 H 0.68367 0.59717 0.80489 0.0
O1020 O 0.70168 0.71881 0.96987 0.0
H1021 H 0.52027 0.68806 0.9324 0.0
H1022 H 0.64549 0.66945 0.00618 0.0
H1023 H 0.68366 0.79225 0.75837 0.0
H1024 H 0.90528 0.74354 0.83249 0.0
H1025 H 0.66616 0.70728 0.72367 0.0
H1026 H 0.90333 0.82546 0.87036 0.0
O1027 O 0.63261 0.62642 0.85678 0.0
H1028 H 0.79441 0.52268 0.96504 0.0
H1029 H 0.5908 0.57454 0.9499 0.0
H1030 H 0.6169 0.47218 0.95924 0.0
H1031 H 0.71953 0.44599 0.96864 0.0
H1032 H 0.76574 0.62033 0.9513 0.0
H1033 H 0.57275 0.6827 0.04627 0.0
H1034 H 0.46778 0.68832 0.03017 0.0
O1035 O 0.59615 0.64069 0.90538 0.0
C1036 C 0.62632 0.77352 0.88689 0.0
C1037 C 0.48768 0.68368 0.98004 0.0
C1038 C 0.55952 0.68192 0.02159 0.0
N1039 N 0.58859 0.68262 0.96668 0.0
C1040 C 0.53197 0.68442 0.9573 0.0
C1041 C 0.60192 0.67764 0.99837 0.0
C1042 C 0.50173 0.68511 0.01243 0.0
C1043 C 0.81782 0.7179 0.84267 0.0
N1044 N 0.76992 0.72839 0.86093 0.0
C1045 C 0.86688 0.7523 0.84612 0.0
C1046 C 0.86619 0.79823 0.86763 0.0
C1047 C 0.81751 0.80854 0.88617 0.0
C1048 C 0.77001 0.77256 0.88282 0.0
C1049 C 0.67291 0.64694 0.76216 0.0
C1050 C 0.69608 0.74098 0.80074 0.0
C1051 C 0.68531 0.63987 0.7946 0.0
N1052 N 0.69664 0.6867 0.8134 0.0
C1053 C 0.68431 0.74936 0.76839 0.0
C1054 C 0.6748 0.70165 0.74883 0.0
C1055 C 0.59139 0.62194 0.87691 0.0
C1056 C 0.74912 0.53311 0.96225 0.0
C1057 C 0.63455 0.56255 0.95411 0.0
C1058 C 0.64958 0.50508 0.95961 0.0
C1059 C 0.70731 0.49037 0.96421 0.0
N1060 N 0.67525 0.60405 0.95181 0.0
C1061 C 0.7323 0.58969 0.95555 0.0
Co1062 Co 0.55515 0.45151 0.10864 0.0
Co1063 Co 0.55358 0.39687 0.18512 0.0
O1064 O 0.56487 0.45797 0.15459 0.0
C1065 C 0.66272 0.5223 0.12023 0.0
O1066 O 0.6509 0.52379 0.15089 0.0
C1067 C 0.54853 0.50286 0.23009 0.0
O1068 O 0.59603 0.52226 0.21683 0.0
O1069 O 0.47096 0.38495 0.16872 0.0
O1070 O 0.48018 0.40807 0.11596 0.0
H1071 H 0.57242 0.19384 0.22647 0.0
H1072 H 0.5599 0.56302 0.07262 0.0
O1073 O 0.63006 0.49503 0.10079 0.0
H1074 H 0.40919 0.59007 0.15511 0.0
H1075 H 0.62459 0.39853 0.99945 0.0
H1076 H 0.45995 0.47043 0.06313 0.0
H1077 H 0.46267 0.49865 0.15096 0.0
H1078 H 0.63584 0.42321 0.05615 0.0
O1079 O 0.52386 0.45793 0.21812 0.0
H1080 H 0.55494 0.26431 0.18536 0.0
H1081 H 0.5256 0.39238 0.25738 0.0
H1082 H 0.44358 0.43817 0.0066 0.0
H1083 H 0.50808 0.65702 0.07834 0.0
H1084 H 0.52808 0.40674 0.97413 0.0
H1085 H 0.43343 0.67004 0.11755 0.0
O1086 O 0.59572 0.37521 0.1048 0.0
H1087 H 0.72096 0.43228 0.26139 0.0
H1088 H 0.66376 0.40396 0.14975 0.0
H1089 H 0.76501 0.42131 0.162 0.0
H1090 H 0.79469 0.43875 0.21806 0.0
H1091 H 0.62105 0.41677 0.24848 0.0
H1092 H 0.55218 0.32438 0.29833 0.0
H1093 H 0.57737 0.22398 0.28363 0.0
O1094 O 0.57993 0.33605 0.15245 0.0
C1095 C 0.45095 0.38776 0.13975 0.0
C1096 C 0.56542 0.23846 0.23321 0.0
C1097 C 0.55359 0.31145 0.27345 0.0
N1098 N 0.545 0.33609 0.21757 0.0
C1099 C 0.55554 0.27961 0.20964 0.0
C1100 C 0.53844 0.35019 0.2494 0.0
C1101 C 0.56805 0.25531 0.26519 0.0
C1102 C 0.52695 0.56855 0.09075 0.0
N1103 N 0.51352 0.52444 0.11092 0.0
C1104 C 0.49805 0.6214 0.09338 0.0
C1105 C 0.45529 0.62901 0.11616 0.0
C1106 C 0.44198 0.5843 0.13685 0.0
C1107 C 0.47211 0.53219 0.13403 0.0
C1108 C 0.58772 0.4138 0.01309 0.0
C1109 C 0.49458 0.45212 0.04916 0.0
C1110 C 0.59379 0.42821 0.04521 0.0
N1111 N 0.54705 0.44567 0.06294 0.0
C1112 C 0.48597 0.43514 0.01742 0.0
C1113 C 0.53343 0.41774 0.99906 0.0
C1114 C 0.59388 0.3314 0.12278 0.0
C1115 C 0.70894 0.42599 0.23677 0.0
C1116 C 0.67559 0.40842 0.17442 0.0
C1117 C 0.73353 0.41929 0.18115 0.0
C1118 C 0.75013 0.42893 0.21256 0.0
N1119 N 0.63456 0.40727 0.19809 0.0
C1120 C 0.65145 0.41513 0.22917 0.0
Co1121 Co 0.78433 0.30227 0.37105 0.0
Co1122 Co 0.84944 0.30838 0.44494 0.0
O1123 O 0.78144 0.3113 0.4177 0.0
C1124 C 0.73053 0.41858 0.37826 0.0
O1125 O 0.77348 0.43486 0.39648 0.0
C1126 C 0.75219 0.26623 0.49369 0.0
O1127 O 0.71011 0.26573 0.47262 0.0
O1128 O 0.86975 0.22719 0.42665 0.0
O1129 O 0.83895 0.23616 0.37519 0.0
H1130 H 0.06375 0.30634 0.46891 0.0
H1131 H 0.671 0.28959 0.33747 0.0
O1132 O 0.72907 0.36806 0.36633 0.0
H1133 H 0.67344 0.14006 0.42119 0.0
H1134 H 0.80853 0.37298 0.25993 0.0
H1135 H 0.78209 0.20104 0.32708 0.0
H1136 H 0.75557 0.20518 0.41467 0.0
H1137 H 0.79202 0.38319 0.31749 0.0
O1138 O 0.80456 0.27517 0.48428 0.0
H1139 H 0.97857 0.29661 0.43456 0.0
H1140 H 0.86911 0.33102 0.51446 0.0
H1141 H 0.79569 0.18947 0.26892 0.0
H1142 H 0.58706 0.22523 0.34362 0.0
H1143 H 0.80551 0.27664 0.23466 0.0
H1144 H 0.58878 0.14976 0.38588 0.0
O1145 O 0.85282 0.35446 0.3645 0.0
H1146 H 0.70851 0.46483 0.4771 0.0
H1147 H 0.90797 0.41964 0.44561 0.0
H1148 H 0.87562 0.52146 0.44683 0.0
H1149 H 0.77553 0.54483 0.46426 0.0
H1150 H 0.74025 0.3658 0.46972 0.0
H1151 H 0.95304 0.33236 0.54989 0.0
H1152 H 0.05135 0.31812 0.52756 0.0
O1153 O 0.89984 0.34155 0.40991 0.0
C1154 C 0.86578 0.20873 0.39712 0.0
C1155 C 0.02088 0.3102 0.47913 0.0
C1156 C 0.95881 0.3242 0.52465 0.0
N1157 N 0.91763 0.31002 0.4724 0.0
C1158 C 0.97203 0.3058 0.45963 0.0
C1159 C 0.91111 0.32194 0.50434 0.0
C1160 C 0.01395 0.31692 0.51203 0.0
C1161 C 0.67185 0.25671 0.35576 0.0
N1162 N 0.71888 0.2507 0.37531 0.0
C1163 C 0.62425 0.22039 0.35908 0.0
C1164 C 0.625 0.17807 0.3827 0.0
C1165 C 0.67275 0.17246 0.4026 0.0
C1166 C 0.71944 0.20937 0.39859 0.0
C1167 C 0.79943 0.33544 0.2741 0.0
C1168 C 0.78589 0.23886 0.3122 0.0
C1169 C 0.79115 0.34064 0.30685 0.0
N1170 N 0.78528 0.29269 0.32544 0.0
C1171 C 0.79312 0.23217 0.27938 0.0
C1172 C 0.79907 0.28106 0.2602 0.0
C1173 C 0.89839 0.35901 0.38112 0.0
C1174 C 0.75289 0.45578 0.47059 0.0
C1175 C 0.8651 0.4299 0.45312 0.0
C1176 C 0.84682 0.48745 0.45414 0.0
C1177 C 0.7904 0.50046 0.46335 0.0
N1178 N 0.82774 0.38613 0.45879 0.0
C1179 C 0.77199 0.3988 0.46751 0.0
Co1180 Co 0.90114 0.44278 0.88772 0.0
Co1181 Co 0.92994 0.37769 0.81623 0.0
O1182 O 0.90762 0.44306 0.84206 0.0
C1183 C 0.81014 0.52305 0.86417 0.0
O1184 O 0.84888 0.53837 0.84292 0.0
C1185 C 0.97863 0.47436 0.76838 0.0
O1186 O 0.02213 0.49655 0.78424 0.0
O1187 O 0.00993 0.379 0.83789 0.0
O1188 O 0.98083 0.40342 0.88894 0.0
H1189 H 0.94156 0.16541 0.78345 0.0
H1190 H 0.87824 0.55229 0.92327 0.0
O1191 O 0.82205 0.48273 0.88433 0.0
H1192 H 0.02919 0.59841 0.84432 0.0
H1193 H 0.8052 0.38792 0.98993 0.0
H1194 H 0.97769 0.47569 0.9416 0.0
H1195 H -0.00134 0.49811 0.85222 0.0
H1196 H 0.80804 0.41098 0.93244 0.0
O1197 O 0.94811 0.43407 0.78045 0.0
H1198 H 0.93148 0.24319 0.8208 0.0
H1199 H 0.97279 0.36335 0.74659 0.0
H1200 H 0.97944 0.44673 0.99887 0.0
H1201 H 0.90845 0.65309 0.91657 0.0
H1202 H 0.89307 0.40221 0.02263 0.0
H1203 H 0.98329 0.67709 0.87624 0.0
O1204 O 0.86329 0.36422 0.88898 0.0
H1205 H 0.74777 0.48374 0.79421 0.0
H1206 H 0.83415 0.294 0.81467 0.0
H1207 H 0.72869 0.30972 0.82227 0.0
H1208 H 0.68692 0.40615 0.81391 0.0
H1209 H 0.85267 0.46835 0.7881 0.0
H1210 H 0.98398 0.28474 0.70961 0.0
H1211 H 0.96589 0.18442 0.7268 0.0
O1212 O 0.91065 0.32005 0.85027 0.0
C1213 C 0.01947 0.38447 0.86871 0.0
C1214 C 0.94711 0.20925 0.77527 0.0
C1215 C 0.97088 0.27604 0.73398 0.0
N1216 N 0.94925 0.31165 0.78728 0.0
C1217 C 0.94139 0.25528 0.79671 0.0
C1218 C 0.96448 0.32129 0.7559 0.0
C1219 C 0.96104 0.2198 0.74359 0.0
C1220 C 0.91272 0.56182 0.90667 0.0
N1221 N 0.93672 0.51888 0.88825 0.0
C1222 C 0.92916 0.6192 0.90272 0.0
C1223 C 0.97098 0.63263 0.88001 0.0
C1224 C -0.00321 0.58851 0.86215 0.0
C1225 C 0.9796 0.53154 0.86692 0.0
C1226 C 0.84331 0.40723 0.97956 0.0
C1227 C 0.94062 0.45558 0.95228 0.0
C1228 C 0.84532 0.42027 0.94709 0.0
N1229 N 0.89452 0.44186 0.9337 0.0
C1230 C 0.94095 0.44144 0.98466 0.0
C1231 C 0.89216 0.41655 0.99811 0.0
C1232 C 0.88071 0.31806 0.87554 0.0
C1233 C 0.76672 0.44166 0.79751 0.0
C1234 C 0.81523 0.33482 0.80888 0.0
C1235 C 0.75598 0.34369 0.8137 0.0
C1236 C 0.73214 0.39792 0.80886 0.0
N1237 N 0.85029 0.37937 0.80105 0.0
C1238 C 0.82598 0.43173 0.79344 0.0
Co1239 Co 0.78484 0.65781 0.12894 0.0
Co1240 Co 0.8648 0.67132 0.05988 0.0
O1241 O 0.79349 0.65788 0.08281 0.0
C1242 C 0.70695 0.5621 0.10809 0.0
O1243 O 0.697 0.58992 0.08134 0.0
C1244 C 0.77103 0.72032 0.01236 0.0
O1245 O 0.72995 0.72216 0.03393 0.0
O1246 O 0.86996 0.75146 0.08128 0.0
O1247 O 0.82614 0.73484 0.12976 0.0
H1248 H 0.08143 0.69072 0.04412 0.0
H1249 H 0.66323 0.64133 0.15322 0.0
O1250 O 0.74452 0.58076 0.1279 0.0
H1251 H 0.6517 0.80506 0.07854 0.0
H1252 H 0.78129 0.56527 0.23695 0.0
H1253 H 0.73498 0.73909 0.17509 0.0
H1254 H 0.74529 0.76014 0.09109 0.0
H1255 H 0.80462 0.57059 0.17971 0.0
O1256 O 0.82198 0.70379 0.02036 0.0
H1257 H 0.99234 0.68961 0.0758 0.0
H1258 H 0.89532 0.66071 0.99069 0.0
H1259 H 0.71162 0.73711 0.23167 0.0
H1260 H 0.56864 0.68529 0.14136 0.0
H1261 H 0.73293 0.64918 0.26308 0.0
H1262 H 0.56215 0.7659 0.10237 0.0
O1263 O 0.8615 0.61825 0.1385 0.0
H1264 H 0.7397 0.50749 0.03165 0.0
H1265 H 0.93647 0.56669 0.06001 0.0
H1266 H 0.90759 0.46556 0.06864 0.0
H1267 H 0.80706 0.43621 0.0555 0.0
H1268 H 0.76958 0.60828 0.02651 0.0
H1269 H 0.9829 0.67094 0.95854 0.0
H1270 H 0.07676 0.68806 0.98509 0.0
O1271 O 0.91352 0.64113 0.0963 0.0
C1272 C 0.85409 0.76753 0.11002 0.0
C1273 C 0.04017 0.68619 0.03238 0.0
C1274 C 0.98493 0.67536 0.98426 0.0
N1275 N 0.93657 0.67918 0.03539 0.0
C1276 C 0.98906 0.68423 0.05023 0.0
C1277 C 0.93495 0.67133 1.00283 0.0
C1278 C 0.03764 0.68442 0.99917 0.0
C1279 C 0.66107 0.67673 0.1365 0.0
N1280 N 0.71025 0.69663 0.12207 0.0
C1281 C 0.60724 0.70167 0.13001 0.0
C1282 C 0.60365 0.74738 0.10856 0.0
C1283 C 0.65389 0.76907 0.09496 0.0
C1284 C 0.70702 0.74334 0.10224 0.0
C1285 C 0.77226 0.60437 0.22375 0.0
C1286 C 0.74816 0.70291 0.18903 0.0
C1287 C 0.78602 0.60804 0.1914 0.0
N1288 N 0.77385 0.6572 0.17453 0.0
C1289 C 0.73358 0.70087 0.22104 0.0
C1290 C 0.74537 0.65124 0.23847 0.0
C1291 C 0.90998 0.62095 0.1244 0.0
C1292 C 0.78349 0.51979 0.0375 0.0
C1293 C 0.89425 0.55314 0.05303 0.0
C1294 C 0.87747 0.49633 0.05842 0.0
C1295 C 0.82113 0.47993 0.05116 0.0
N1296 N 0.85514 0.59356 0.04354 0.0
C1297 C 0.80141 0.57681 0.0337 0.0
Co1298 Co 0.58599 0.53374 0.39014 0.0
Co1299 Co 0.58165 0.60486 0.31904 0.0
O1300 O 0.59266 0.53736 0.34436 0.0
C1301 C 0.68153 0.45684 0.37168 0.0
O1302 O 0.64867 0.44351 0.34721 0.0
C1303 C 0.52947 0.52901 0.26161 0.0
O1304 O 0.4749 0.5292 0.27021 0.0
O1305 O 0.49622 0.60713 0.33437 0.0
O1306 O 0.50789 0.57365 0.38586 0.0
H1307 H 0.57974 0.81957 0.29899 0.0
H1308 H 0.59847 0.41997 0.42256 0.0
O1309 O 0.66451 0.49448 0.39221 0.0
H1310 H 0.46852 0.38571 0.33119 0.0
H1311 H 0.65256 0.56927 0.50159 0.0
H1312 H 0.49227 0.50466 0.43347 0.0
H1313 H 0.49806 0.4843 0.34522 0.0
H1314 H 0.66676 0.55235 0.44404 0.0
O1315 O 0.56784 0.55316 0.27934 0.0
H1316 H 0.55444 0.73378 0.32931 0.0
H1317 H 0.60157 0.62852 0.24925 0.0
H1318 H 0.47177 0.5356 0.48918 0.0
H1319 H 0.57078 0.32039 0.40872 0.0
H1320 H 0.55369 0.56051 0.52477 0.0
H1321 H 0.507 0.30267 0.36225 0.0
O1322 O 0.62251 0.61148 0.39868 0.0
H1323 H 0.76354 0.49354 0.29404 0.0
H1324 H 0.68393 0.67899 0.3309 0.0
H1325 H 0.78939 0.65859 0.33613 0.0
H1326 H 0.82886 0.56631 0.31655 0.0
H1327 H 0.65899 0.5126 0.29155 0.0
H1328 H 0.61169 0.71415 0.21654 0.0
H1329 H 0.60749 0.81096 0.24193 0.0
O1330 O 0.5959 0.65879 0.35574 0.0
C1331 C 0.47683 0.59665 0.36341 0.0
C1332 C 0.58311 0.77748 0.28787 0.0
C1333 C 0.60089 0.71847 0.24164 0.0
N1334 N 0.57642 0.67383 0.29188 0.0
C1335 C 0.56996 0.72778 0.3052 0.0
C1336 C 0.59237 0.66947 0.26033 0.0
C1337 C 0.59864 0.77271 0.25586 0.0
C1338 C 0.56882 0.41291 0.40298 0.0
N1339 N 0.55029 0.45826 0.38464 0.0
C1340 C 0.55369 0.35635 0.39516 0.0
C1341 C 0.51807 0.34639 0.36895 0.0
C1342 C 0.49659 0.39296 0.3515 0.0
C1343 C 0.51299 0.44891 0.35982 0.0
C1344 C 0.61681 0.55501 0.48704 0.0
C1345 C 0.52619 0.52071 0.4485 0.0
C1346 C 0.62472 0.54494 0.45449 0.0
N1347 N 0.5791 0.52948 0.4357 0.0
C1348 C 0.5155 0.53517 0.48019 0.0
C1349 C 0.56154 0.55032 0.49991 0.0
C1350 C 0.61322 0.65875 0.38437 0.0
C1351 C 0.74619 0.53483 0.30142 0.0
C1352 C 0.70113 0.63877 0.32248 0.0
C1353 C 0.76061 0.62768 0.32527 0.0
C1354 C 0.78309 0.57552 0.31445 0.0
N1355 N 0.66459 0.5984 0.31026 0.0
C1356 C 0.68692 0.54681 0.29952 0.0
Co1357 Co 0.68843 0.33244 0.65044 0.0
Co1358 Co 0.6331 0.32034 0.57368 0.0
O1359 O 0.69626 0.33029 0.60361 0.0
C1360 C 0.77079 0.42504 0.63305 0.0
O1361 O 0.78159 0.39504 0.60708 0.0
C1362 C 0.73733 0.27144 0.52909 0.0
O1363 O 0.77894 0.27258 0.55043 0.0
O1364 O 0.62015 0.24045 0.59321 0.0
O1365 O 0.64591 0.25573 0.64595 0.0
H1366 H 0.42412 0.30373 0.53785 0.0
H1367 H 0.79381 0.35003 0.68874 0.0
O1368 O 0.73168 0.40856 0.65275 0.0
H1369 H 0.83337 0.17611 0.62417 0.0
H1370 H 0.62532 0.42083 0.75491 0.0
H1371 H 0.71721 0.25238 0.70468 0.0
H1372 H 0.74283 0.23044 0.61699 0.0
H1373 H 0.65261 0.42213 0.69798 0.0
O1374 O 0.68561 0.28669 0.53726 0.0
H1375 H 0.50254 0.30079 0.57723 0.0
H1376 H 0.62378 0.33888 0.50361 0.0
H1377 H 0.68646 0.24617 0.76112 0.0
H1378 H 0.88553 0.29983 0.6951 0.0
H1379 H 0.6373 0.33029 0.78608 0.0
H1380 H 0.90564 0.21017 0.66468 0.0
O1381 O 0.61146 0.37324 0.65172 0.0
H1382 H 0.76607 0.47961 0.54084 0.0
H1383 H 0.5692 0.43078 0.57402 0.0
H1384 H 0.59799 0.53289 0.57312 0.0
H1385 H 0.69781 0.55795 0.55643 0.0
H1386 H 0.73651 0.37927 0.5454 0.0
H1387 H 0.54718 0.3344 0.46367 0.0
H1388 H 0.4465 0.31443 0.48034 0.0
O1389 O 0.57357 0.34914 0.6056 0.0
C1390 C 0.62565 0.22369 0.62289 0.0
C1391 C 0.46833 0.3094 0.53025 0.0
C1392 C 0.53731 0.32623 0.48847 0.0
N1393 N 0.56956 0.31561 0.54294 0.0
C1394 C 0.51336 0.3091 0.55257 0.0
C1395 C 0.58097 0.32728 0.51142 0.0
C1396 C 0.48083 0.31567 0.4979 0.0
C1397 C 0.80263 0.31259 0.674 0.0
N1398 N 0.76235 0.29284 0.65281 0.0
C1399 C 0.85479 0.28369 0.67807 0.0
C1400 C 0.86595 0.23382 0.66054 0.0
C1401 C 0.82562 0.21486 0.63806 0.0
C1402 C 0.77391 0.24553 0.63426 0.0
C1403 C 0.6442 0.38281 0.74388 0.0
C1404 C 0.69422 0.28746 0.71517 0.0
C1405 C 0.65969 0.38311 0.71157 0.0
N1406 N 0.68104 0.33432 0.69705 0.0
C1407 C 0.67861 0.28491 0.74739 0.0
C1408 C 0.6517 0.33241 0.76148 0.0
C1409 C 0.5678 0.36762 0.63403 0.0
C1410 C 0.72229 0.46956 0.54785 0.0
C1411 C 0.61152 0.44156 0.56623 0.0
C1412 C 0.62807 0.49939 0.56579 0.0
C1413 C 0.68408 0.51338 0.55666 0.0
N1414 N 0.64983 0.3985 0.55935 0.0
C1415 C 0.70452 0.41219 0.54958 0.0
Co1416 Co 0.06349 0.45183 0.38697 0.0
Co1417 Co 0.0459 0.38308 0.31468 0.0
O1418 O 0.06329 0.44901 0.34088 0.0
C1419 C 0.16993 0.51691 0.3652 0.0
O1420 O 0.14913 0.52072 0.33616 0.0
C1421 C 0.02558 0.48541 0.27135 0.0
O1422 O 0.06968 0.50998 0.2855 0.0
O1423 O 0.96854 0.37224 0.33814 0.0
O1424 O 0.98529 0.41217 0.38718 0.0
H1425 H 0.0628 0.17353 0.28284 0.0
H1426 H 0.08499 0.56784 0.41584 0.0
O1427 O 0.14221 0.49008 0.38702 0.0
H1428 H 0.93115 0.59711 0.33584 0.0
H1429 H 0.15036 0.41848 0.49414 0.0
H1430 H 0.97599 0.47793 0.43508 0.0
H1431 H 0.9651 0.4992 0.34913 0.0
H1432 H 0.15359 0.43426 0.43619 0.0
O1433 O 0.00695 0.43708 0.28197 0.0
H1434 H 0.05087 0.25058 0.32125 0.0
H1435 H 0.00274 0.36499 0.24589 0.0
H1436 H 0.96708 0.44533 0.49146 0.0
H1437 H 0.05393 0.66686 0.40207 0.0
H1438 H 0.05558 0.42438 0.5223 0.0
H1439 H 0.97786 0.6818 0.36108 0.0
O1440 O 0.10006 0.37364 0.39293 0.0
H1441 H 0.18668 0.42099 0.22417 0.0
H1442 H 0.16384 0.39671 0.34001 0.0
H1443 H 0.25637 0.42956 0.31902 0.0
H1444 H 0.26648 0.4488 0.26104 0.0
H1445 H 0.09368 0.39815 0.24593 0.0
H1446 H 0.02112 0.29087 0.20715 0.0
H1447 H 0.05371 0.19319 0.22477 0.0
O1448 O 0.08212 0.32946 0.3468 0.0
C1449 C 0.95311 0.3841 0.36738 0.0
C1450 C 0.05341 0.21673 0.27451 0.0
C1451 C 0.03021 0.28222 0.23204 0.0
N1452 N 0.03238 0.31637 0.2865 0.0
C1453 C 0.04659 0.26169 0.29642 0.0
C1454 C 0.01931 0.32479 0.25482 0.0
C1455 C 0.04787 0.22777 0.24197 0.0
C1456 C 0.05091 0.57397 0.39849 0.0
N1457 N 0.02743 0.52759 0.38307 0.0
C1458 C 0.03347 0.63013 0.39084 0.0
C1459 C 0.99061 0.63856 0.36792 0.0
C1460 C 0.9646 0.59103 0.35362 0.0
C1461 C 0.98365 0.53555 0.36153 0.0
C1462 C 0.11172 0.43166 0.48156 0.0
C1463 C 0.01331 0.46328 0.44817 0.0
C1464 C 0.11338 0.44149 0.4488 0.0
N1465 N 0.06408 0.45603 0.43261 0.0
C1466 C 0.00886 0.44771 0.48007 0.0
C1467 C 0.05879 0.43468 0.49723 0.0
C1468 C 0.09911 0.3284 0.37581 0.0
C1469 C 0.18182 0.41715 0.24976 0.0
C1470 C 0.16816 0.40135 0.31453 0.0
C1471 C 0.22099 0.42077 0.30283 0.0
C1472 C 0.22687 0.43087 0.27031 0.0
N1473 N 0.12164 0.39418 0.2947 0.0
C1474 C 0.12883 0.40102 0.26243 0.0
Co1475 Co 0.28147 0.306 0.14906 0.0
Co1476 Co 0.33387 0.30428 0.07243 0.0
O1477 O 0.2717 0.31231 0.10293 0.0
C1478 C 0.2266 0.42301 0.14042 0.0
O1479 O 0.26799 0.43663 0.12042 0.0
C1480 C 0.22975 0.26038 0.03072 0.0
O1481 O 0.18938 0.26641 0.05262 0.0
O1482 O 0.3582 0.22597 0.09157 0.0
O1483 O 0.33464 0.23894 0.14368 0.0
H1484 H 0.54204 0.29843 0.03556 0.0
H1485 H 0.16652 0.30074 0.1826 0.0
O1486 O 0.22749 0.37438 0.15489 0.0
H1487 H 0.16799 0.14012 0.10468 0.0
H1488 H 0.32572 0.37249 0.26055 0.0
H1489 H 0.28093 0.20532 0.19244 0.0
H1490 H 0.25068 0.20403 0.10937 0.0
H1491 H 0.30133 0.3863 0.20329 0.0
O1492 O 0.28329 0.26464 0.0383 0.0
H1493 H 0.46469 0.2954 0.07576 0.0
H1494 H 0.33946 0.31403 1.002 0.0
H1495 H 0.30132 0.19121 0.24981 0.0
H1496 H 0.07964 0.24007 0.17564 0.0
H1497 H 0.31884 0.27618 0.28451 0.0
H1498 H 0.08157 0.15812 0.13779 0.0
O1499 O 0.35236 0.35705 0.15139 0.0
H1500 H 0.19053 0.46076 0.04312 0.0
H1501 H 0.39415 0.40893 0.05826 0.0
H1502 H 0.36803 0.51128 0.0489 0.0
H1503 H 0.2654 0.53746 0.03951 0.0
H1504 H 0.21921 0.36312 0.05688 0.0
H1505 H 0.4122 0.30083 0.96189 0.0
H1506 H 0.51717 0.2952 0.97799 0.0
O1507 O 0.38881 0.34279 0.10279 0.0
C1508 C 0.35865 0.20995 0.12129 0.0
C1509 C 0.49728 0.29981 0.02813 0.0
C1510 C 0.42543 0.30158 0.98657 0.0
N1511 N 0.39637 0.30085 0.04149 0.0
C1512 C 0.45299 0.29905 0.05087 0.0
C1513 C 0.38304 0.30585 0.0098 0.0
C1514 C 0.48322 0.29839 0.99573 0.0
C1515 C 0.16713 0.26562 0.16549 0.0
N1516 N 0.21505 0.25508 0.14725 0.0
C1517 C 0.11805 0.23127 0.16204 0.0
C1518 C 0.11873 0.18532 0.14053 0.0
C1519 C 0.16743 0.17495 0.12202 0.0
C1520 C 0.21495 0.2109 0.12537 0.0
C1521 C 0.31209 0.33653 0.24602 0.0
C1522 C 0.2889 0.24248 0.20743 0.0
C1523 C 0.29969 0.34359 0.21358 0.0
N1524 N 0.28834 0.29677 0.19477 0.0
C1525 C 0.30067 0.2341 0.23979 0.0
C1526 C 0.31019 0.28181 0.25935 0.0
C1527 C 0.39357 0.36154 0.13125 0.0
C1528 C 0.23582 0.45033 0.04591 0.0
C1529 C 0.3504 0.42091 0.05405 0.0
C1530 C 0.33536 0.47838 0.04854 0.0
C1531 C 0.27763 0.49307 0.04394 0.0
N1532 N 0.3097 0.3794 0.05635 0.0
C1533 C 0.25265 0.39376 0.05262 0.0
Co1534 Co 0.42982 0.53195 0.89951 0.0
Co1535 Co 0.43136 0.58663 0.82304 0.0
O1536 O 0.42011 0.5255 0.85356 0.0
C1537 C 0.32226 0.46114 0.88791 0.0
O1538 O 0.33409 0.45964 0.85726 0.0
C1539 C 0.43649 0.48068 0.77804 0.0
O1540 O 0.38905 0.46117 0.79132 0.0
O1541 O 0.51399 0.59858 0.83944 0.0
O1542 O 0.50478 0.57539 0.89219 0.0
H1543 H 0.41258 0.78976 0.78178 0.0
H1544 H 0.42504 0.42043 0.93552 0.0
O1545 O 0.3549 0.48842 0.90735 0.0
H1546 H 0.57581 0.3934 0.85306 0.0
H1547 H 0.36036 0.58493 0.0087 0.0
H1548 H 0.52501 0.51304 0.94502 0.0
H1549 H 0.52232 0.48483 0.8572 0.0
H1550 H 0.34911 0.56022 0.952 0.0
O1551 O 0.46111 0.52564 0.79001 0.0
H1552 H 0.43006 0.71921 0.82285 0.0
H1553 H 0.4592 0.59122 0.75076 0.0
H1554 H 0.54137 0.54532 1.00155 0.0
H1555 H 0.47686 0.32643 0.92981 0.0
H1556 H 0.45687 0.57675 0.03402 0.0
H1557 H 0.55155 0.31343 0.89062 0.0
O1558 O 0.38924 0.60825 0.90337 0.0
H1559 H 0.26398 0.55116 0.74678 0.0
H1560 H 0.3212 0.57949 0.85841 0.0
H1561 H 0.21995 0.56211 0.84617 0.0
H1562 H 0.19026 0.54467 0.79011 0.0
H1563 H 0.36389 0.56669 0.75968 0.0
H1564 H 0.43268 0.65931 0.70985 0.0
H1565 H 0.40763 0.75973 0.7246 0.0
O1566 O 0.405 0.64741 0.85572 0.0
C1567 C 0.53401 0.59572 0.86841 0.0
C1568 C 0.41956 0.74514 0.77502 0.0
C1569 C 0.43129 0.6722 0.73474 0.0
N1570 N 0.4399 0.64747 0.7906 0.0
C1571 C 0.42942 0.70394 0.79856 0.0
C1572 C 0.4464 0.6334 0.75876 0.0
C1573 C 0.41692 0.72835 0.74303 0.0
C1574 C 0.45801 0.41491 0.91739 0.0
N1575 N 0.47144 0.45902 0.89723 0.0
C1576 C 0.48691 0.36205 0.91476 0.0
C1577 C 0.52969 0.35446 0.892 0.0
C1578 C 0.54301 0.39917 0.87131 0.0
C1579 C 0.51287 0.45128 0.87412 0.0
C1580 C 0.39723 0.56967 0.99506 0.0
C1581 C 0.49038 0.53135 0.95899 0.0
C1582 C 0.39116 0.55524 0.96294 0.0
N1583 N 0.43791 0.53778 0.94521 0.0
C1584 C 0.49898 0.54834 0.99074 0.0
C1585 C 0.45152 0.56574 0.00909 0.0
C1586 C 0.39106 0.65206 0.88539 0.0
C1587 C 0.27601 0.55745 0.7714 0.0
C1588 C 0.30937 0.57503 0.83374 0.0
C1589 C 0.25143 0.56414 0.82701 0.0
C1590 C 0.23483 0.55449 0.7956 0.0
N1591 N 0.35039 0.5762 0.81007 0.0
C1592 C 0.3335 0.56832 0.77899 0.0
Co1593 Co 0.20068 0.68116 0.63713 0.0
Co1594 Co 0.13558 0.67502 0.56324 0.0
O1595 O 0.20358 0.67211 0.59048 0.0
C1596 C 0.25449 0.56485 0.62994 0.0
O1597 O 0.21156 0.54857 0.6117 0.0
C1598 C 0.23281 0.71719 0.51448 0.0
O1599 O 0.27489 0.7177 0.53555 0.0
O1600 O 0.11526 0.75622 0.58152 0.0
O1601 O 0.14606 0.74727 0.63298 0.0
H1602 H 0.92126 0.67703 0.53927 0.0
H1603 H 0.31399 0.69387 0.67072 0.0
O1604 O 0.25594 0.61537 0.64187 0.0
H1605 H 0.31157 0.84334 0.58697 0.0
H1606 H 0.17644 0.61052 0.74827 0.0
H1607 H 0.20288 0.78242 0.68108 0.0
H1608 H 0.22945 0.77822 0.5935 0.0
H1609 H 0.19298 0.60027 0.69071 0.0
O1610 O 0.18044 0.70822 0.52389 0.0
H1611 H 0.00644 0.68679 0.57362 0.0
H1612 H 0.1159 0.65235 0.49372 0.0
H1613 H 0.18924 0.79403 0.73924 0.0
H1614 H 0.39794 0.75822 0.66456 0.0
H1615 H 0.17943 0.70688 0.77351 0.0
H1616 H 0.39623 0.83366 0.62229 0.0
O1617 O 0.13219 0.62897 0.64369 0.0
H1618 H 0.2765 0.51858 0.53106 0.0
H1619 H 0.07706 0.56375 0.5626 0.0
H1620 H 0.10942 0.46193 0.56136 0.0
H1621 H 0.20949 0.43857 0.54391 0.0
H1622 H 0.24475 0.61761 0.53845 0.0
H1623 H 0.03196 0.65099 0.4583 0.0
H1624 H 0.93365 0.66522 0.48063 0.0
O1625 O 0.08518 0.64186 0.59827 0.0
C1626 C 0.11923 0.77469 0.61104 0.0
C1627 C 0.96413 0.67317 0.52906 0.0
C1628 C 0.02619 0.65916 0.48353 0.0
N1629 N 0.06738 0.67337 0.53578 0.0
C1630 C 0.01298 0.67759 0.54855 0.0
C1631 C 0.07389 0.66144 0.50384 0.0
C1632 C 0.97106 0.66644 0.49616 0.0
C1633 C 0.31314 0.72674 0.65242 0.0
N1634 N 0.26612 0.73273 0.63287 0.0
C1635 C 0.36074 0.76305 0.6491 0.0
C1636 C 0.36 0.80535 0.62547 0.0
C1637 C 0.31226 0.81096 0.60557 0.0
C1638 C 0.26556 0.77405 0.60958 0.0
C1639 C 0.18554 0.64806 0.73409 0.0
C1640 C 0.19908 0.74461 0.69597 0.0
C1641 C 0.19384 0.64283 0.70134 0.0
N1642 N 0.1997 0.69077 0.68274 0.0
C1643 C 0.19183 0.75132 0.72879 0.0
C1644 C 0.18588 0.70244 0.74797 0.0
C1645 C 0.08662 0.62442 0.62706 0.0
C1646 C 0.23213 0.52763 0.53758 0.0
C1647 C 0.11992 0.55349 0.55508 0.0
C1648 C 0.1382 0.49595 0.55405 0.0
C1649 C 0.19462 0.48294 0.54483 0.0
N1650 N 0.15728 0.59727 0.54939 0.0
C1651 C 0.21302 0.5846 0.54066 0.0
Co1652 Co 0.08383 0.54067 0.12045 0.0
Co1653 Co 0.05504 0.60577 0.19194 0.0
O1654 O 0.07735 0.5404 0.16611 0.0
C1655 C 0.17484 0.46042 0.144 0.0
O1656 O 0.1361 0.44509 0.16525 0.0
C1657 C 0.00633 0.50913 0.2398 0.0
O1658 O 0.9628 0.48697 0.22396 0.0
O1659 O 0.97505 0.60446 0.17027 0.0
O1660 O 0.00414 0.58002 0.11923 0.0
H1661 H 0.04337 0.81807 0.22468 0.0
H1662 H 0.10674 0.43115 0.08491 0.0
O1663 O 0.16292 0.50072 0.12384 0.0
H1664 H 0.95578 0.38504 0.16386 0.0
H1665 H 0.17974 0.59551 0.01823 0.0
H1666 H 0.00728 0.50772 0.06657 0.0
H1667 H 0.98632 0.48534 0.15596 0.0
H1668 H 0.17691 0.57247 0.07573 0.0
O1669 O 0.03686 0.5494 0.22772 0.0
H1670 H 0.05341 0.74027 0.18734 0.0
H1671 H 0.01229 0.62013 0.2616 0.0
H1672 H 0.00551 0.53667 0.0093 0.0
H1673 H 0.07651 0.33035 0.09161 0.0
H1674 H 0.09187 0.5812 0.98554 0.0
H1675 H 0.00167 0.30635 0.13194 0.0
O1676 O 0.12167 0.61923 0.11918 0.0
H1677 H 0.2372 0.49972 0.21394 0.0
H1678 H 0.15082 0.68947 0.19349 0.0
H1679 H 0.25628 0.67374 0.18587 0.0
H1680 H 0.29804 0.5773 0.19423 0.0
H1681 H 0.1323 0.51512 0.22007 0.0
H1682 H 0.00107 0.69877 0.29856 0.0
H1683 H 0.01909 0.79909 0.28134 0.0
O1684 O 0.07432 0.66341 0.1579 0.0
C1685 C 0.9655 0.59897 0.13946 0.0
C1686 C 0.03784 0.77423 0.23287 0.0
C1687 C 0.01414 0.70746 0.27418 0.0
N1688 N 0.03573 0.67182 0.22088 0.0
C1689 C 0.04355 0.72819 0.21144 0.0
C1690 C 0.02055 0.66219 0.25227 0.0
C1691 C 0.02395 0.76369 0.26456 0.0
C1692 C 0.07226 0.42162 0.10151 0.0
N1693 N 0.04825 0.46456 0.11993 0.0
C1694 C 0.05581 0.36424 0.10546 0.0
C1695 C 0.01399 0.35082 0.12817 0.0
C1696 C 0.98818 0.39494 0.14603 0.0
C1697 C 0.00538 0.45191 0.14126 0.0
C1698 C 0.14163 0.57619 0.0286 0.0
C1699 C 0.04435 0.52783 0.05589 0.0
C1700 C 0.13964 0.56316 0.06107 0.0
N1701 N 0.09044 0.54157 0.07447 0.0
C1702 C 0.04401 0.54197 0.02351 0.0
C1703 C 0.09279 0.56686 0.01006 0.0
C1704 C 0.10426 0.66539 0.13262 0.0
C1705 C 0.21824 0.5418 0.21065 0.0
C1706 C 0.16974 0.64864 0.19928 0.0
C1707 C 0.22898 0.63976 0.19445 0.0
C1708 C 0.25282 0.58553 0.19929 0.0
N1709 N 0.13468 0.6041 0.20712 0.0
C1710 C 0.15899 0.55174 0.21473 0.0
Co1711 Co 0.20013 0.32562 0.87922 0.0
Co1712 Co 0.12018 0.31211 0.94828 0.0
O1713 O 0.19148 0.32556 0.92535 0.0
C1714 C 0.27803 0.42134 0.90006 0.0
O1715 O 0.28798 0.39352 0.92682 0.0
C1716 C 0.21395 0.26312 0.99581 0.0
O1717 O 0.25504 0.26129 0.97424 0.0
O1718 O 0.11502 0.23197 0.92688 0.0
O1719 O 0.15883 0.24859 0.8784 0.0
H1720 H 0.90355 0.29271 0.96404 0.0
H1721 H 0.32175 0.34209 0.85494 0.0
O1722 O 0.24046 0.40267 0.88025 0.0
H1723 H 0.33326 0.17838 0.92963 0.0
H1724 H 0.20364 0.41813 0.7712 0.0
H1725 H 0.24999 0.24434 0.83307 0.0
H1726 H 0.23967 0.2233 0.91708 0.0
H1727 H 0.18035 0.41283 0.82844 0.0
O1728 O 0.163 0.27964 0.9878 0.0
H1729 H -0.00737 0.29382 0.93237 0.0
H1730 H 0.08966 0.32271 0.01748 0.0
H1731 H 0.2733 0.24628 0.77649 0.0
H1732 H 0.41634 0.29813 0.8668 0.0
H1733 H 0.25196 0.3342 0.74507 0.0
H1734 H 0.42282 0.21752 0.9058 0.0
O1735 O 0.12347 0.36518 0.86966 0.0
H1736 H 0.24527 0.47594 0.9765 0.0
H1737 H 0.0485 0.41674 0.94816 0.0
H1738 H 0.07737 0.51786 0.93953 0.0
H1739 H 0.17791 0.54722 0.95266 0.0
H1740 H 0.21541 0.37515 0.98165 0.0
H1741 H 0.00208 0.31247 0.04962 0.0
H1742 H 0.90822 0.29536 0.02307 0.0
O1743 O 0.07145 0.34231 0.91186 0.0
C1744 C 0.13088 0.2159 0.89814 0.0
C1745 C 0.94481 0.29723 0.97578 0.0
C1746 C 6e-05 0.30806 0.0239 0.0
N1747 N 0.04841 0.30425 0.97278 0.0
C1748 C -0.00408 0.2992 0.95793 0.0
C1749 C 0.05003 0.31209 0.00534 0.0
C1750 C 0.94734 0.299 0.009 0.0
C1751 C 0.3239 0.3067 0.87166 0.0
N1752 N 0.27472 0.2868 0.88609 0.0
C1753 C 0.37773 0.28175 0.87815 0.0
C1754 C 0.38132 0.23605 0.89961 0.0
C1755 C 0.33108 0.21436 0.9132 0.0
C1756 C 0.27795 0.24009 0.90592 0.0
C1757 C 0.21268 0.37903 0.78441 0.0
C1758 C 0.2368 0.2805 0.81913 0.0
C1759 C 0.19894 0.37538 0.81676 0.0
N1760 N 0.21112 0.32622 0.83363 0.0
C1761 C 0.25136 0.28254 0.78712 0.0
C1762 C 0.23955 0.33215 0.76969 0.0
C1763 C 0.075 0.36249 0.88376 0.0
C1764 C 0.20148 0.46364 0.97066 0.0
C1765 C 0.09072 0.43029 0.95513 0.0
C1766 C 0.1075 0.4871 0.94974 0.0
C1767 C 0.16384 0.5035 0.957 0.0
N1768 N 0.12983 0.38987 0.96462 0.0
C1769 C 0.18357 0.40662 0.97446 0.0
Co1770 Co 0.39905 0.4497 0.61807 0.0
Co1771 Co 0.40337 0.37847 0.68914 0.0
O1772 O 0.39236 0.44602 0.66386 0.0
C1773 C 0.30349 0.52659 0.63653 0.0
O1774 O 0.33633 0.5399 0.66102 0.0
C1775 C 0.4555 0.45465 0.74648 0.0
O1776 O 0.50994 0.45524 0.73764 0.0
O1777 O 0.4888 0.3762 0.67381 0.0
O1778 O 0.47714 0.40978 0.62234 0.0
H1779 H 0.40521 0.16373 0.70907 0.0
H1780 H 0.38662 0.5635 0.58568 0.0
O1781 O 0.32053 0.48896 0.61599 0.0
H1782 H 0.51648 0.59766 0.6771 0.0
H1783 H 0.33258 0.41428 0.50659 0.0
H1784 H 0.49279 0.47884 0.57478 0.0
H1785 H 0.48694 0.49909 0.66303 0.0
H1786 H 0.31832 0.43115 0.56414 0.0
O1787 O 0.41722 0.43005 0.72888 0.0
H1788 H 0.43057 0.24957 0.6788 0.0
H1789 H 0.38342 0.35468 0.75892 0.0
H1790 H 0.51334 0.44796 0.51906 0.0
H1791 H 0.41436 0.66306 0.59954 0.0
H1792 H 0.43146 0.42308 0.48345 0.0
H1793 H 0.47809 0.68073 0.64604 0.0
O1794 O 0.36253 0.37196 0.60949 0.0
H1795 H 0.22152 0.48982 0.71416 0.0
H1796 H 0.30107 0.30439 0.67725 0.0
H1797 H 0.19563 0.32485 0.67199 0.0
H1798 H 0.15618 0.41713 0.6916 0.0
H1799 H 0.32606 0.4707 0.71669 0.0
H1800 H 0.37324 0.26899 0.79157 0.0
H1801 H 0.37742 0.17223 0.76612 0.0
O1802 O 0.38908 0.3246 0.65241 0.0
C1803 C 0.50819 0.38675 0.64478 0.0
C1804 C 0.40184 0.20579 0.72021 0.0
C1805 C 0.38404 0.26472 0.76647 0.0
N1806 N 0.40857 0.30944 0.71626 0.0
C1807 C 0.41503 0.25552 0.70291 0.0
C1808 C 0.3926 0.31375 0.74781 0.0
C1809 C 0.38629 0.21051 0.75222 0.0
C1810 C 0.41625 0.57053 0.60527 0.0
N1811 N 0.43474 0.52517 0.62361 0.0
C1812 C 0.43141 0.62709 0.61311 0.0
C1813 C 0.46699 0.63702 0.63932 0.0
C1814 C 0.48843 0.59043 0.65678 0.0
C1815 C 0.47202 0.53449 0.64844 0.0
C1816 C 0.36831 0.42853 0.52115 0.0
C1817 C 0.45889 0.46281 0.55973 0.0
C1818 C 0.36037 0.43858 0.55371 0.0
N1819 N 0.40597 0.45402 0.57251 0.0
C1820 C 0.46961 0.44837 0.52804 0.0
C1821 C 0.42359 0.43324 0.5083 0.0
C1822 C 0.37178 0.32468 0.62379 0.0
C1823 C 0.23885 0.44853 0.70677 0.0
C1824 C 0.28388 0.34461 0.68568 0.0
C1825 C 0.2244 0.35573 0.68287 0.0
C1826 C 0.20194 0.40789 0.69371 0.0
N1827 N 0.32042 0.38493 0.69793 0.0
C1828 C 0.29812 0.43652 0.70869 0.0
Co1829 Co 0.29658 0.65096 0.35773 0.0
Co1830 Co 0.35191 0.66309 0.4345 0.0
O1831 O 0.28875 0.65311 0.40456 0.0
C1832 C 0.21423 0.55835 0.37513 0.0
O1833 O 0.20343 0.58835 0.4011 0.0
C1834 C 0.24766 0.71197 0.47908 0.0
O1835 O 0.20605 0.7108 0.45775 0.0
O1836 O 0.36485 0.74297 0.41496 0.0
O1837 O 0.33908 0.72768 0.36222 0.0
H1838 H 0.56087 0.67976 0.47034 0.0
H1839 H 0.1912 0.63333 0.31944 0.0
O1840 O 0.25335 0.57483 0.35542 0.0
H1841 H 0.1516 0.80726 0.38399 0.0
H1842 H 0.3596 0.56256 0.25324 0.0
H1843 H 0.26777 0.73102 0.3035 0.0
H1844 H 0.24215 0.75296 0.39118 0.0
H1845 H 0.33239 0.56127 0.31019 0.0
O1846 O 0.29938 0.69674 0.47091 0.0
H1847 H 0.48246 0.68265 0.43095 0.0
H1848 H 0.36121 0.64458 0.50457 0.0
H1849 H 0.29849 0.73724 0.24706 0.0
H1850 H 0.09946 0.6835 0.31307 0.0
H1851 H 0.34763 0.65312 0.22208 0.0
H1852 H 0.07934 0.77318 0.34348 0.0
O1853 O 0.37356 0.61018 0.35645 0.0
H1854 H 0.21894 0.5038 0.46732 0.0
H1855 H 0.41583 0.55266 0.43421 0.0
H1856 H 0.38706 0.45054 0.4351 0.0
H1857 H 0.28722 0.42547 0.45175 0.0
H1858 H 0.24848 0.60415 0.46276 0.0
H1859 H 0.4378 0.64912 0.54452 0.0
H1860 H 0.53848 0.66911 0.52785 0.0
O1861 O 0.41144 0.63426 0.40258 0.0
C1862 C 0.35934 0.75972 0.38528 0.0
C1863 C 0.51666 0.67408 0.47794 0.0
C1864 C 0.44768 0.65727 0.51971 0.0
N1865 N 0.41543 0.66784 0.46524 0.0
C1866 C 0.47163 0.67435 0.45561 0.0
C1867 C 0.40402 0.65619 0.49676 0.0
C1868 C 0.50415 0.66784 0.51029 0.0
C1869 C 0.18237 0.67077 0.33418 0.0
N1870 N 0.22265 0.69054 0.35537 0.0
C1871 C 0.13021 0.69966 0.3301 0.0
C1872 C 0.11903 0.74953 0.34763 0.0
C1873 C 0.15936 0.76851 0.37011 0.0
C1874 C 0.21107 0.73786 0.37391 0.0
C1875 C 0.34074 0.60059 0.26429 0.0
C1876 C 0.29076 0.69594 0.29301 0.0
C1877 C 0.32529 0.60029 0.2966 0.0
N1878 N 0.30395 0.64909 0.31112 0.0
C1879 C 0.30635 0.6985 0.26079 0.0
C1880 C 0.33324 0.651 0.24668 0.0
C1881 C 0.41721 0.61578 0.37416 0.0
C1882 C 0.26272 0.51386 0.46032 0.0
C1883 C 0.37351 0.54187 0.44198 0.0
C1884 C 0.35697 0.48404 0.44242 0.0
C1885 C 0.30095 0.47004 0.45152 0.0
N1886 N 0.33518 0.58493 0.44884 0.0
C1887 C 0.28048 0.57124 0.4586 0.0
loop_
_geom_bond_atom_site_label_1
_geom_bond_atom_site_label_2
_geom_bond_distance
_geom_bond_site_symmetry_2
_ccdc_geom_bond_type
Co0 O2 2.143 . S
Co0 O8 2.074 . S
Co0 O11 2.093 1_545 S
Co0 O24 2.097 . S
Co0 N41 2.151 1_545 S
Co0 N49 2.214 . S
Co1 O2 2.160 . S
Co1 O7 2.058 . S
Co1 O17 2.057 . S
Co1 O32 2.037 . S
Co1 N36 2.145 . S
Co1 N57 2.257 . S
O2 Co0 2.143 . S
O2 Co1 2.160 . S
C3 O4 1.278 . S
C3 O11 1.224 . S
O4 C3 1.278 . S
C5 O6 1.245 1_545 S
C5 O17 1.232 . S
O6 C5 1.245 1_565 S
O7 Co1 2.058 . S
O7 C33 1.269 . S
O8 Co0 2.074 . S
O8 C33 1.257 . S
H9 C34 0.930 . S
H10 C40 0.930 . S
O11 Co0 2.093 1_565 S
O11 C3 1.224 . S
H12 C44 0.929 . S
H13 C46 0.930 1_566 S
H14 C47 0.930 . S
H15 C45 0.929 . S
H16 C48 0.929 . S
O17 Co1 2.057 . S
O17 C5 1.232 . S
H18 C37 0.929 . S
H19 C38 0.929 . S
H20 C50 0.931 . S
H21 C42 0.929 . S
H22 C51 0.930 . S
H23 C43 0.931 . S
O24 Co0 2.097 . S
O24 C52 1.214 . S
H25 C53 0.929 . S
H26 C54 0.929 . S
H27 C55 0.930 . S
H28 C56 0.929 . S
H29 C58 0.930 . S
H30 C35 0.930 . S
H31 C39 0.930 . S
O32 Co1 2.037 . S
O32 C52 1.234 . S
C33 O7 1.269 . S
C33 O8 1.257 . S
C34 H9 0.930 . S
C34 C37 1.388 . S
C34 C39 1.418 . S
C35 H30 0.930 . S
C35 C38 1.404 . S
C35 C39 1.353 . S
N36 Co1 2.145 . S
N36 C37 1.397 . S
N36 C38 1.334 . S
C37 H18 0.929 . S
C37 C34 1.388 . S
C37 N36 1.397 . S
C38 H19 0.929 . S
C38 C35 1.404 . S
C38 N36 1.334 . S
C39 H31 0.930 . S
C39 C34 1.418 . S
C39 C35 1.353 . S
C40 H10 0.930 . S
C40 N41 1.330 . S
C40 C42 1.446 . S
N41 Co0 2.151 1_565 S
N41 C40 1.330 . S
N41 C45 1.418 . S
C42 H21 0.929 . S
C42 C40 1.446 . S
C42 C43 1.332 . S
C43 H23 0.931 . S
C43 C42 1.332 . S
C43 C44 1.267 . S
C44 H12 0.929 . S
C44 C43 1.267 . S
C44 C45 1.251 . S
C45 H15 0.929 . S
C45 N41 1.418 . S
C45 C44 1.251 . S
C46 H13 0.930 1_544 S
C46 C48 1.405 1_545 S
C46 C51 1.261 1_554 S
C47 H14 0.930 . S
C47 N49 1.325 . S
C47 C50 1.357 . S
C48 H16 0.929 . S
C48 C46 1.405 1_565 S
C48 N49 1.261 1_565 S
N49 Co0 2.214 . S
N49 C47 1.325 . S
N49 C48 1.261 1_545 S
C50 H20 0.931 . S
C50 C47 1.357 . S
C50 C51 1.312 1_554 S
C51 H22 0.930 . S
C51 C46 1.261 1_556 S
C51 C50 1.312 1_556 S
C52 O24 1.214 . S
C52 O32 1.234 . S
C53 H25 0.929 . S
C53 C56 1.391 . S
C53 C58 1.391 . S
C54 H26 0.929 . S
C54 C55 1.390 . S
C54 N57 1.391 . S
C55 H27 0.930 . S
C55 C54 1.390 . S
C55 C56 1.392 . S
C56 H28 0.929 . S
C56 C53 1.391 . S
C56 C55 1.392 . S
N57 Co1 2.257 . S
N57 C54 1.391 . S
N57 C58 1.388 . S
C58 H29 0.930 . S
C58 C53 1.391 . S
C58 N57 1.388 . S
Co59 O61 2.143 . S
Co59 O67 2.074 . S
Co59 O70 2.093 . S
Co59 O83 2.097 . S
Co59 N100 2.151 . S
Co59 N108 2.214 . S
Co60 O61 2.160 . S
Co60 O66 2.058 . S
Co60 O76 2.057 . S
Co60 O91 2.037 . S
Co60 N95 2.145 . S
Co60 N116 2.257 . S
O61 Co59 2.143 . S
O61 Co60 2.160 . S
C62 O63 1.278 . S
C62 O70 1.224 . S
O63 C62 1.278 . S
C64 O65 1.245 . S
C64 O76 1.232 . S
O65 C64 1.245 . S
O66 Co60 2.058 . S
O66 C92 1.269 . S
O67 Co59 2.074 . S
O67 C92 1.257 . S
H68 C93 0.930 . S
H69 C99 0.930 . S
O70 Co59 2.093 . S
O70 C62 1.224 . S
H71 C103 0.929 . S
H72 C105 0.930 . S
H73 C106 0.930 . S
H74 C104 0.929 . S
H75 C107 0.928 . S
O76 Co60 2.057 . S
O76 C64 1.232 . S
H77 C96 0.929 . S
H78 C97 0.929 . S
H79 C109 0.931 . S
H80 C101 0.929 . S
H81 C110 0.930 . S
H82 C102 0.931 . S
O83 Co59 2.097 . S
O83 C111 1.214 . S
H84 C112 0.929 . S
H85 C113 0.929 . S
H86 C114 0.930 1_565 S
H87 C115 0.929 . S
H88 C117 0.930 . S
H89 C94 0.930 . S
H90 C98 0.930 . S
O91 Co60 2.037 . S
O91 C111 1.234 . S
C92 O66 1.269 . S
C92 O67 1.257 . S
C93 H68 0.930 . S
C93 C96 1.388 1_655 S
C93 C98 1.418 . S
C94 H89 0.930 . S
C94 C97 1.404 . S
C94 C98 1.353 1_455 S
N95 Co60 2.145 . S
N95 C96 1.397 . S
N95 C97 1.334 . S
C96 H77 0.929 . S
C96 C93 1.388 1_455 S
C96 N95 1.397 . S
C97 H78 0.929 . S
C97 C94 1.404 . S
C97 N95 1.334 . S
C98 H90 0.930 . S
C98 C93 1.418 . S
C98 C94 1.353 1_655 S
C99 H69 0.930 . S
C99 N100 1.330 . S
C99 C101 1.446 . S
N100 Co59 2.151 . S
N100 C99 1.330 . S
N100 C104 1.418 . S
C101 H80 0.929 . S
C101 C99 1.446 . S
C101 C102 1.332 . S
C102 H82 0.931 . S
C102 C101 1.332 . S
C102 C103 1.267 . S
C103 H71 0.929 . S
C103 C102 1.267 . S
C103 C104 1.251 . S
C104 H74 0.929 . S
C104 N100 1.418 . S
C104 C103 1.251 . S
C105 H72 0.930 . S
C105 C107 1.406 . S
C105 C110 1.261 . S
C106 H73 0.930 . S
C106 N108 1.325 . S
C106 C109 1.357 . S
C107 H75 0.928 . S
C107 C105 1.406 . S
C107 N108 1.261 . S
N108 Co59 2.214 . S
N108 C106 1.325 . S
N108 C107 1.261 . S
C109 H79 0.931 . S
C109 C106 1.357 . S
C109 C110 1.312 . S
C110 H81 0.930 . S
C110 C105 1.261 . S
C110 C109 1.312 . S
C111 O83 1.214 . S
C111 O91 1.234 . S
C112 H84 0.929 . S
C112 C115 1.391 1_545 S
C112 C117 1.391 . S
C113 H85 0.929 . S
C113 C114 1.390 . S
C113 N116 1.391 . S
C114 H86 0.930 1_545 S
C114 C113 1.390 . S
C114 C115 1.392 1_545 S
C115 H87 0.929 . S
C115 C112 1.391 1_565 S
C115 C114 1.392 1_565 S
N116 Co60 2.257 . S
N116 C113 1.391 . S
N116 C117 1.388 . S
C117 H88 0.930 . S
C117 C112 1.391 . S
C117 N116 1.388 . S
Co118 O120 2.143 . S
Co118 O126 2.074 1_455 S
Co118 O129 2.093 1_565 S
Co118 O142 2.097 . S
Co118 N159 2.151 1_565 S
Co118 N167 2.214 . S
Co119 O120 2.160 . S
Co119 O125 2.058 1_455 S
Co119 O135 2.057 . S
Co119 O150 2.037 . S
Co119 N154 2.145 . S
Co119 N175 2.257 . S
O120 Co118 2.143 . S
O120 Co119 2.160 . S
C121 O122 1.278 . S
C121 O129 1.224 . S
O122 C121 1.278 . S
C123 O124 1.245 1_565 S
C123 O135 1.232 . S
O124 C123 1.245 1_545 S
O125 Co119 2.058 1_655 S
O125 C151 1.269 . S
O126 Co118 2.074 1_655 S
O126 C151 1.257 . S
H127 C152 0.930 . S
H128 C158 0.930 . S
O129 Co118 2.093 1_545 S
O129 C121 1.224 . S
H130 C162 0.929 . S
H131 C164 0.930 1_545 S
H132 C165 0.930 . S
H133 C163 0.929 . S
H134 C166 0.929 . S
O135 Co119 2.057 . S
O135 C123 1.232 . S
H136 C155 0.929 . S
H137 C156 0.929 . S
H138 C168 0.931 . S
H139 C160 0.929 . S
H140 C169 0.930 . S
H141 C161 0.931 . S
O142 Co118 2.097 . S
O142 C170 1.214 . S
H143 C171 0.929 . S
H144 C172 0.929 . S
H145 C173 0.930 . S
H146 C174 0.929 . S
H147 C176 0.930 . S
H148 C153 0.930 . S
H149 C157 0.930 . S
O150 Co119 2.037 . S
O150 C170 1.234 . S
C151 O125 1.269 . S
C151 O126 1.257 . S
C152 H127 0.930 . S
C152 C155 1.388 . S
C152 C157 1.418 . S
C153 H148 0.930 . S
C153 C156 1.404 . S
C153 C157 1.353 . S
N154 Co119 2.145 . S
N154 C155 1.397 . S
N154 C156 1.334 . S
C155 H136 0.929 . S
C155 C152 1.388 . S
C155 N154 1.397 . S
C156 H137 0.929 . S
C156 C153 1.404 . S
C156 N154 1.334 . S
C157 H149 0.930 . S
C157 C152 1.418 . S
C157 C153 1.353 . S
C158 H128 0.930 . S
C158 N159 1.330 . S
C158 C160 1.446 1_455 S
N159 Co118 2.151 1_545 S
N159 C158 1.330 . S
N159 C163 1.418 1_455 S
C160 H139 0.929 . S
C160 C158 1.446 1_655 S
C160 C161 1.332 . S
C161 H141 0.931 . S
C161 C160 1.332 . S
C161 C162 1.267 . S
C162 H130 0.929 . S
C162 C161 1.267 . S
C162 C163 1.251 . S
C163 H133 0.929 . S
C163 N159 1.418 1_655 S
C163 C162 1.251 . S
C164 H131 0.930 1_565 S
C164 C166 1.405 1_565 S
C164 C169 1.261 . S
C165 H132 0.930 . S
C165 N167 1.325 . S
C165 C168 1.357 . S
C166 H134 0.929 . S
C166 C164 1.405 1_545 S
C166 N167 1.261 1_545 S
N167 Co118 2.214 . S
N167 C165 1.325 . S
N167 C166 1.261 1_565 S
C168 H138 0.931 . S
C168 C165 1.357 . S
C168 C169 1.312 . S
C169 H140 0.930 . S
C169 C164 1.261 . S
C169 C168 1.312 . S
C170 O142 1.214 . S
C170 O150 1.234 . S
C171 H143 0.929 . S
C171 C174 1.391 . S
C171 C176 1.391 . S
C172 H144 0.929 . S
C172 C173 1.390 . S
C172 N175 1.391 . S
C173 H145 0.930 . S
C173 C172 1.390 . S
C173 C174 1.392 . S
C174 H146 0.929 . S
C174 C171 1.391 . S
C174 C173 1.392 . S
N175 Co119 2.257 . S
N175 C172 1.391 . S
N175 C176 1.388 . S
C176 H147 0.930 . S
C176 C171 1.391 . S
C176 N175 1.388 . S
Co177 O179 2.143 . S
Co177 O185 2.074 . S
Co177 O188 2.093 . S
Co177 O201 2.097 . S
Co177 N218 2.151 . S
Co177 N226 2.214 . S
Co178 O179 2.160 . S
Co178 O184 2.058 . S
Co178 O194 2.057 . S
Co178 O209 2.037 . S
Co178 N213 2.145 . S
Co178 N234 2.257 . S
O179 Co177 2.143 . S
O179 Co178 2.160 . S
C180 O181 1.278 . S
C180 O188 1.224 . S
O181 C180 1.278 . S
C182 O183 1.245 . S
C182 O194 1.232 . S
O183 C182 1.245 . S
O184 Co178 2.058 . S
O184 C210 1.269 . S
O185 Co177 2.074 . S
O185 C210 1.257 . S
H186 C211 0.930 . S
H187 C217 0.930 . S
O188 Co177 2.093 . S
O188 C180 1.224 . S
H189 C221 0.929 . S
H190 C223 0.930 . S
H191 C224 0.930 . S
H192 C222 0.929 . S
H193 C225 0.928 . S
O194 Co178 2.057 . S
O194 C182 1.232 . S
H195 C214 0.929 . S
H196 C215 0.929 1_554 S
H197 C227 0.931 . S
H198 C219 0.929 . S
H199 C228 0.930 . S
H200 C220 0.931 . S
O201 Co177 2.097 . S
O201 C229 1.214 . S
H202 C230 0.929 . S
H203 C231 0.929 . S
H204 C232 0.930 1_545 S
H205 C233 0.929 . S
H206 C235 0.930 . S
H207 C212 0.930 . S
H208 C216 0.932 1_554 S
O209 Co178 2.037 . S
O209 C229 1.234 . S
C210 O184 1.269 . S
C210 O185 1.257 . S
C211 H186 0.930 . S
C211 C214 1.388 . S
C211 C216 1.415 . S
C212 H207 0.930 . S
C212 C215 1.404 1_554 S
C212 C216 1.354 1_554 S
N213 Co178 2.145 . S
N213 C214 1.397 . S
N213 C215 1.334 . S
C214 H195 0.929 . S
C214 C211 1.388 . S
C214 N213 1.397 . S
C215 H196 0.929 1_556 S
C215 C212 1.404 1_556 S
C215 N213 1.334 . S
C216 H208 0.932 1_556 S
C216 C211 1.415 . S
C216 C212 1.354 1_556 S
C217 H187 0.930 . S
C217 N218 1.330 . S
C217 C219 1.446 . S
N218 Co177 2.151 . S
N218 C217 1.330 . S
N218 C222 1.418 . S
C219 H198 0.929 . S
C219 C217 1.446 . S
C219 C220 1.332 . S
C220 H200 0.931 . S
C220 C219 1.332 . S
C220 C221 1.267 . S
C221 H189 0.929 . S
C221 C220 1.267 . S
C221 C222 1.251 . S
C222 H192 0.929 . S
C222 N218 1.418 . S
C222 C221 1.251 . S
C223 H190 0.930 . S
C223 C225 1.406 . S
C223 C228 1.261 . S
C224 H191 0.930 . S
C224 N226 1.325 . S
C224 C227 1.357 . S
C225 H193 0.928 . S
C225 C223 1.406 . S
C225 N226 1.261 . S
N226 Co177 2.214 . S
N226 C224 1.325 . S
N226 C225 1.261 . S
C227 H197 0.931 . S
C227 C224 1.357 . S
C227 C228 1.312 . S
C228 H199 0.930 . S
C228 C223 1.261 . S
C228 C227 1.312 . S
C229 O201 1.214 . S
C229 O209 1.234 . S
C230 H202 0.929 . S
C230 C233 1.391 1_565 S
C230 C235 1.391 . S
C231 H203 0.929 . S
C231 C232 1.390 . S
C231 N234 1.391 . S
C232 H204 0.930 1_565 S
C232 C231 1.390 . S
C232 C233 1.392 1_565 S
C233 H205 0.929 . S
C233 C230 1.391 1_545 S
C233 C232 1.392 1_545 S
N234 Co178 2.257 . S
N234 C231 1.391 . S
N234 C235 1.388 . S
C235 H206 0.930 . S
C235 C230 1.391 . S
C235 N234 1.388 . S
Co236 O238 2.143 . S
Co236 O244 2.074 . S
Co236 O247 2.093 1_565 S
Co236 O260 2.097 . S
Co236 N277 2.151 1_565 S
Co236 N285 2.214 . S
Co237 O238 2.160 . S
Co237 O243 2.058 . S
Co237 O253 2.057 . S
Co237 O268 2.037 . S
Co237 N272 2.145 . S
Co237 N293 2.257 . S
O238 Co236 2.143 . S
O238 Co237 2.160 . S
C239 O240 1.278 . S
C239 O247 1.224 . S
O240 C239 1.278 . S
C241 O242 1.245 1_565 S
C241 O253 1.232 . S
O242 C241 1.245 1_545 S
O243 Co237 2.058 . S
O243 C269 1.269 . S
O244 Co236 2.074 . S
O244 C269 1.257 . S
H245 C270 0.930 . S
H246 C276 0.930 . S
O247 Co236 2.093 1_545 S
O247 C239 1.224 . S
H248 C280 0.929 . S
H249 C282 0.930 1_545 S
H250 C283 0.930 . S
H251 C281 0.929 . S
H252 C284 0.929 . S
O253 Co237 2.057 . S
O253 C241 1.232 . S
H254 C273 0.929 . S
H255 C274 0.929 . S
H256 C286 0.931 . S
H257 C278 0.929 . S
H258 C287 0.930 . S
H259 C279 0.931 . S
O260 Co236 2.097 . S
O260 C288 1.214 . S
H261 C289 0.929 . S
H262 C290 0.929 . S
H263 C291 0.930 . S
H264 C292 0.929 . S
H265 C294 0.930 . S
H266 C271 0.930 . S
H267 C275 0.930 . S
O268 Co237 2.037 . S
O268 C288 1.234 . S
C269 O243 1.269 . S
C269 O244 1.257 . S
C270 H245 0.930 . S
C270 C273 1.388 . S
C270 C275 1.418 . S
C271 H266 0.930 . S
C271 C274 1.404 . S
C271 C275 1.353 . S
N272 Co237 2.145 . S
N272 C273 1.397 . S
N272 C274 1.334 . S
C273 H254 0.929 . S
C273 C270 1.388 . S
C273 N272 1.397 . S
C274 H255 0.929 . S
C274 C271 1.404 . S
C274 N272 1.334 . S
C275 H267 0.930 . S
C275 C270 1.418 . S
C275 C271 1.353 . S
C276 H246 0.930 . S
C276 N277 1.330 . S
C276 C278 1.446 . S
N277 Co236 2.151 1_545 S
N277 C276 1.330 . S
N277 C281 1.418 . S
C278 H257 0.929 . S
C278 C276 1.446 . S
C278 C279 1.332 . S
C279 H259 0.931 . S
C279 C278 1.332 . S
C279 C280 1.267 . S
C280 H248 0.929 . S
C280 C279 1.267 . S
C280 C281 1.251 . S
C281 H251 0.929 . S
C281 N277 1.418 . S
C281 C280 1.251 . S
C282 H249 0.930 1_565 S
C282 C284 1.405 1_565 S
C282 C287 1.261 . S
C283 H250 0.930 . S
C283 N285 1.325 . S
C283 C286 1.357 . S
C284 H252 0.929 . S
C284 C282 1.405 1_545 S
C284 N285 1.261 1_545 S
N285 Co236 2.214 . S
N285 C283 1.325 . S
N285 C284 1.261 1_565 S
C286 H256 0.931 . S
C286 C283 1.357 . S
C286 C287 1.312 . S
C287 H258 0.930 . S
C287 C282 1.261 . S
C287 C286 1.312 . S
C288 O260 1.214 . S
C288 O268 1.234 . S
C289 H261 0.929 . S
C289 C292 1.391 . S
C289 C294 1.391 . S
C290 H262 0.929 . S
C290 C291 1.390 . S
C290 N293 1.391 . S
C291 H263 0.930 . S
C291 C290 1.390 . S
C291 C292 1.392 . S
C292 H264 0.929 . S
C292 C289 1.391 . S
C292 C291 1.392 . S
N293 Co237 2.257 . S
N293 C290 1.391 . S
N293 C294 1.388 . S
C294 H265 0.930 . S
C294 C289 1.391 . S
C294 N293 1.388 . S
Co295 O297 2.143 . S
Co295 O303 2.074 . S
Co295 O306 2.093 . S
Co295 O319 2.097 . S
Co295 N336 2.151 . S
Co295 N344 2.214 . S
Co296 O297 2.160 . S
Co296 O302 2.058 . S
Co296 O312 2.057 . S
Co296 O327 2.037 . S
Co296 N331 2.145 . S
Co296 N352 2.257 . S
O297 Co295 2.143 . S
O297 Co296 2.160 . S
C298 O299 1.278 . S
C298 O306 1.224 . S
O299 C298 1.278 . S
C300 O301 1.245 . S
C300 O312 1.232 . S
O301 C300 1.245 . S
O302 Co296 2.058 . S
O302 C328 1.269 . S
O303 Co295 2.074 . S
O303 C328 1.257 . S
H304 C329 0.930 . S
H305 C335 0.930 . S
O306 Co295 2.093 . S
O306 C298 1.224 . S
H307 C339 0.929 . S
H308 C341 0.930 . S
H309 C342 0.930 . S
H310 C340 0.929 . S
H311 C343 0.928 . S
O312 Co296 2.057 . S
O312 C300 1.232 . S
H313 C332 0.929 . S
H314 C333 0.929 . S
H315 C345 0.931 . S
H316 C337 0.929 . S
H317 C346 0.930 . S
H318 C338 0.931 . S
O319 Co295 2.097 . S
O319 C347 1.214 . S
H320 C348 0.929 . S
H321 C349 0.929 . S
H322 C350 0.930 1_565 S
H323 C351 0.929 . S
H324 C353 0.930 . S
H325 C330 0.930 . S
H326 C334 0.930 . S
O327 Co296 2.037 . S
O327 C347 1.234 . S
C328 O302 1.269 . S
C328 O303 1.257 . S
C329 H304 0.930 . S
C329 C332 1.388 . S
C329 C334 1.418 . S
C330 H325 0.930 . S
C330 C333 1.404 . S
C330 C334 1.353 . S
N331 Co296 2.145 . S
N331 C332 1.397 . S
N331 C333 1.334 . S
C332 H313 0.929 . S
C332 C329 1.388 . S
C332 N331 1.397 . S
C333 H314 0.929 . S
C333 C330 1.404 . S
C333 N331 1.334 . S
C334 H326 0.930 . S
C334 C329 1.418 . S
C334 C330 1.353 . S
C335 H305 0.930 . S
C335 N336 1.330 . S
C335 C337 1.446 . S
N336 Co295 2.151 . S
N336 C335 1.330 . S
N336 C340 1.418 . S
C337 H316 0.929 . S
C337 C335 1.446 . S
C337 C338 1.332 . S
C338 H318 0.931 . S
C338 C337 1.332 . S
C338 C339 1.267 . S
C339 H307 0.929 . S
C339 C338 1.267 . S
C339 C340 1.251 . S
C340 H310 0.929 . S
C340 N336 1.418 . S
C340 C339 1.251 . S
C341 H308 0.930 . S
C341 C343 1.406 . S
C341 C346 1.261 . S
C342 H309 0.930 . S
C342 N344 1.325 . S
C342 C345 1.357 . S
C343 H311 0.928 . S
C343 C341 1.406 . S
C343 N344 1.261 . S
N344 Co295 2.214 . S
N344 C342 1.325 . S
N344 C343 1.261 . S
C345 H315 0.931 . S
C345 C342 1.357 . S
C345 C346 1.312 . S
C346 H317 0.930 . S
C346 C341 1.261 . S
C346 C345 1.312 . S
C347 O319 1.214 . S
C347 O327 1.234 . S
C348 H320 0.929 . S
C348 C351 1.391 1_545 S
C348 C353 1.391 . S
C349 H321 0.929 . S
C349 C350 1.390 . S
C349 N352 1.391 . S
C350 H322 0.930 1_545 S
C350 C349 1.390 . S
C350 C351 1.392 1_545 S
C351 H323 0.929 . S
C351 C348 1.391 1_565 S
C351 C350 1.392 1_565 S
N352 Co296 2.257 . S
N352 C349 1.391 . S
N352 C353 1.388 . S
C353 H324 0.930 . S
C353 C348 1.391 . S
C353 N352 1.388 . S
Co354 O356 2.143 . S
Co354 O362 2.074 1_455 S
Co354 O365 2.093 1_545 S
Co354 O378 2.097 . S
Co354 N395 2.151 1_545 S
Co354 N403 2.214 . S
Co355 O356 2.160 . S
Co355 O361 2.058 1_455 S
Co355 O371 2.057 . S
Co355 O386 2.037 . S
Co355 N390 2.145 . S
Co355 N411 2.257 . S
O356 Co354 2.143 . S
O356 Co355 2.160 . S
C357 O358 1.278 . S
C357 O365 1.224 . S
O358 C357 1.278 . S
C359 O360 1.245 1_545 S
C359 O371 1.232 . S
O360 C359 1.245 1_565 S
O361 Co355 2.058 1_655 S
O361 C387 1.269 . S
O362 Co354 2.074 1_655 S
O362 C387 1.257 . S
H363 C388 0.930 . S
H364 C394 0.930 . S
O365 Co354 2.093 1_565 S
O365 C357 1.224 . S
H366 C398 0.929 . S
H367 C400 0.930 1_564 S
H368 C401 0.930 . S
H369 C399 0.929 . S
H370 C402 0.929 . S
O371 Co355 2.057 . S
O371 C359 1.232 . S
H372 C391 0.929 . S
H373 C392 0.929 . S
H374 C404 0.931 . S
H375 C396 0.929 . S
H376 C405 0.930 . S
H377 C397 0.931 . S
O378 Co354 2.097 . S
O378 C406 1.214 . S
H379 C407 0.929 . S
H380 C408 0.929 . S
H381 C409 0.930 . S
H382 C410 0.929 . S
H383 C412 0.930 . S
H384 C389 0.930 . S
H385 C393 0.930 . S
O386 Co355 2.037 . S
O386 C406 1.234 . S
C387 O361 1.269 . S
C387 O362 1.257 . S
C388 H363 0.930 . S
C388 C391 1.388 . S
C388 C393 1.418 . S
C389 H384 0.930 . S
C389 C392 1.404 . S
C389 C393 1.353 . S
N390 Co355 2.145 . S
N390 C391 1.397 . S
N390 C392 1.334 . S
C391 H372 0.929 . S
C391 C388 1.388 . S
C391 N390 1.397 . S
C392 H373 0.929 . S
C392 C389 1.404 . S
C392 N390 1.334 . S
C393 H385 0.930 . S
C393 C388 1.418 . S
C393 C389 1.353 . S
C394 H364 0.930 . S
C394 N395 1.330 . S
C394 C396 1.446 1_455 S
N395 Co354 2.151 1_565 S
N395 C394 1.330 . S
N395 C399 1.418 1_455 S
C396 H375 0.929 . S
C396 C394 1.446 1_655 S
C396 C397 1.332 . S
C397 H377 0.931 . S
C397 C396 1.332 . S
C397 C398 1.267 . S
C398 H366 0.929 . S
C398 C397 1.267 . S
C398 C399 1.251 . S
C399 H369 0.929 . S
C399 N395 1.418 1_655 S
C399 C398 1.251 . S
C400 H367 0.930 1_546 S
C400 C402 1.405 1_545 S
C400 C405 1.261 1_556 S
C401 H368 0.930 . S
C401 N403 1.325 . S
C401 C404 1.357 . S
C402 H370 0.929 . S
C402 C400 1.405 1_565 S
C402 N403 1.261 1_565 S
N403 Co354 2.214 . S
N403 C401 1.325 . S
N403 C402 1.261 1_545 S
C404 H374 0.931 . S
C404 C401 1.357 . S
C404 C405 1.312 1_556 S
C405 H376 0.930 . S
C405 C400 1.261 1_554 S
C405 C404 1.312 1_554 S
C406 O378 1.214 . S
C406 O386 1.234 . S
C407 H379 0.929 . S
C407 C410 1.391 . S
C407 C412 1.391 . S
C408 H380 0.929 . S
C408 C409 1.390 . S
C408 N411 1.391 . S
C409 H381 0.930 . S
C409 C408 1.390 . S
C409 C410 1.392 . S
C410 H382 0.929 . S
C410 C407 1.391 . S
C410 C409 1.392 . S
N411 Co355 2.257 . S
N411 C408 1.391 . S
N411 C412 1.388 . S
C412 H383 0.930 . S
C412 C407 1.391 . S
C412 N411 1.388 . S
Co413 O415 2.143 . S
Co413 O421 2.074 . S
Co413 O424 2.093 . S
Co413 O437 2.097 . S
Co413 N454 2.151 . S
Co413 N462 2.214 . S
Co414 O415 2.160 . S
Co414 O420 2.058 . S
Co414 O430 2.057 . S
Co414 O445 2.037 . S
Co414 N449 2.145 . S
Co414 N470 2.257 . S
O415 Co413 2.143 . S
O415 Co414 2.160 . S
C416 O417 1.278 . S
C416 O424 1.224 . S
O417 C416 1.278 . S
C418 O419 1.245 . S
C418 O430 1.232 . S
O419 C418 1.245 . S
O420 Co414 2.058 . S
O420 C446 1.269 . S
O421 Co413 2.074 . S
O421 C446 1.257 . S
H422 C447 0.930 . S
H423 C453 0.930 . S
O424 Co413 2.093 . S
O424 C416 1.224 . S
H425 C457 0.929 . S
H426 C459 0.930 . S
H427 C460 0.930 . S
H428 C458 0.929 . S
H429 C461 0.928 . S
O430 Co414 2.057 . S
O430 C418 1.232 . S
H431 C450 0.929 . S
H432 C451 0.929 1_556 S
H433 C463 0.931 . S
H434 C455 0.929 . S
H435 C464 0.930 . S
H436 C456 0.931 . S
O437 Co413 2.097 . S
O437 C465 1.214 . S
H438 C466 0.929 . S
H439 C467 0.929 . S
H440 C468 0.930 1_545 S
H441 C469 0.929 . S
H442 C471 0.930 . S
H443 C448 0.930 . S
H444 C452 0.932 1_556 S
O445 Co414 2.037 . S
O445 C465 1.234 . S
C446 O420 1.269 . S
C446 O421 1.257 . S
C447 H422 0.930 . S
C447 C450 1.388 1_655 S
C447 C452 1.415 . S
C448 H443 0.930 . S
C448 C451 1.404 1_556 S
C448 C452 1.354 1_456 S
N449 Co414 2.145 . S
N449 C450 1.397 . S
N449 C451 1.334 . S
C450 H431 0.929 . S
C450 C447 1.388 1_455 S
C450 N449 1.397 . S
C451 H432 0.929 1_554 S
C451 C448 1.404 1_554 S
C451 N449 1.334 . S
C452 H444 0.932 1_554 S
C452 C447 1.415 . S
C452 C448 1.354 1_654 S
C453 H423 0.930 . S
C453 N454 1.330 . S
C453 C455 1.446 . S
N454 Co413 2.151 . S
N454 C453 1.330 . S
N454 C458 1.418 . S
C455 H434 0.929 . S
C455 C453 1.446 . S
C455 C456 1.332 . S
C456 H436 0.931 . S
C456 C455 1.332 . S
C456 C457 1.267 . S
C457 H425 0.929 . S
C457 C456 1.267 . S
C457 C458 1.251 . S
C458 H428 0.929 . S
C458 N454 1.418 . S
C458 C457 1.251 . S
C459 H426 0.930 . S
C459 C461 1.406 . S
C459 C464 1.261 . S
C460 H427 0.930 . S
C460 N462 1.325 . S
C460 C463 1.357 . S
C461 H429 0.928 . S
C461 C459 1.406 . S
C461 N462 1.261 . S
N462 Co413 2.214 . S
N462 C460 1.325 . S
N462 C461 1.261 . S
C463 H433 0.931 . S
C463 C460 1.357 . S
C463 C464 1.312 . S
C464 H435 0.930 . S
C464 C459 1.261 . S
C464 C463 1.312 . S
C465 O437 1.214 . S
C465 O445 1.234 . S
C466 H438 0.929 . S
C466 C469 1.391 1_565 S
C466 C471 1.391 . S
C467 H439 0.929 . S
C467 C468 1.390 . S
C467 N470 1.391 . S
C468 H440 0.930 1_565 S
C468 C467 1.390 . S
C468 C469 1.392 1_565 S
C469 H441 0.929 . S
C469 C466 1.391 1_545 S
C469 C468 1.392 1_545 S
N470 Co414 2.257 . S
N470 C467 1.391 . S
N470 C471 1.388 . S
C471 H442 0.930 . S
C471 C466 1.391 . S
C471 N470 1.388 . S
Co472 O474 2.143 . S
Co472 O480 2.074 . S
Co472 O483 2.093 1_565 S
Co472 O496 2.097 . S
Co472 N513 2.151 1_565 S
Co472 N521 2.214 . S
Co473 O474 2.160 . S
Co473 O479 2.058 . S
Co473 O489 2.057 . S
Co473 O504 2.037 . S
Co473 N508 2.145 . S
Co473 N529 2.257 . S
O474 Co472 2.143 . S
O474 Co473 2.160 . S
C475 O476 1.278 . S
C475 O483 1.224 . S
O476 C475 1.278 . S
C477 O478 1.245 1_565 S
C477 O489 1.232 . S
O478 C477 1.245 1_545 S
O479 Co473 2.058 . S
O479 C505 1.269 . S
O480 Co472 2.074 . S
O480 C505 1.257 . S
H481 C506 0.930 . S
H482 C512 0.930 . S
O483 Co472 2.093 1_545 S
O483 C475 1.224 . S
H484 C516 0.929 . S
H485 C518 0.930 1_544 S
H486 C519 0.930 . S
H487 C517 0.929 . S
H488 C520 0.929 . S
O489 Co473 2.057 . S
O489 C477 1.232 . S
H490 C509 0.929 . S
H491 C510 0.929 . S
H492 C522 0.931 . S
H493 C514 0.929 . S
H494 C523 0.930 . S
H495 C515 0.931 . S
O496 Co472 2.097 . S
O496 C524 1.214 . S
H497 C525 0.929 . S
H498 C526 0.929 . S
H499 C527 0.930 . S
H500 C528 0.929 . S
H501 C530 0.930 . S
H502 C507 0.930 . S
H503 C511 0.930 . S
O504 Co473 2.037 . S
O504 C524 1.234 . S
C505 O479 1.269 . S
C505 O480 1.257 . S
C506 H481 0.930 . S
C506 C509 1.388 . S
C506 C511 1.418 . S
C507 H502 0.930 . S
C507 C510 1.404 . S
C507 C511 1.353 . S
N508 Co473 2.145 . S
N508 C509 1.397 . S
N508 C510 1.334 . S
C509 H490 0.929 . S
C509 C506 1.388 . S
C509 N508 1.397 . S
C510 H491 0.929 . S
C510 C507 1.404 . S
C510 N508 1.334 . S
C511 H503 0.930 . S
C511 C506 1.418 . S
C511 C507 1.353 . S
C512 H482 0.930 . S
C512 N513 1.330 . S
C512 C514 1.446 . S
N513 Co472 2.151 1_545 S
N513 C512 1.330 . S
N513 C517 1.418 . S
C514 H493 0.929 . S
C514 C512 1.446 . S
C514 C515 1.332 . S
C515 H495 0.931 . S
C515 C514 1.332 . S
C515 C516 1.267 . S
C516 H484 0.929 . S
C516 C515 1.267 . S
C516 C517 1.251 . S
C517 H487 0.929 . S
C517 N513 1.418 . S
C517 C516 1.251 . S
C518 H485 0.930 1_566 S
C518 C520 1.405 1_565 S
C518 C523 1.261 1_556 S
C519 H486 0.930 . S
C519 N521 1.325 . S
C519 C522 1.357 . S
C520 H488 0.929 . S
C520 C518 1.405 1_545 S
C520 N521 1.261 1_545 S
N521 Co472 2.214 . S
N521 C519 1.325 . S
N521 C520 1.261 1_565 S
C522 H492 0.931 . S
C522 C519 1.357 . S
C522 C523 1.312 1_556 S
C523 H494 0.930 . S
C523 C518 1.261 1_554 S
C523 C522 1.312 1_554 S
C524 O496 1.214 . S
C524 O504 1.234 . S
C525 H497 0.929 . S
C525 C528 1.391 . S
C525 C530 1.391 . S
C526 H498 0.929 . S
C526 C527 1.390 . S
C526 N529 1.391 . S
C527 H499 0.930 . S
C527 C526 1.390 . S
C527 C528 1.392 . S
C528 H500 0.929 . S
C528 C525 1.391 . S
C528 C527 1.392 . S
N529 Co473 2.257 . S
N529 C526 1.391 . S
N529 C530 1.388 . S
C530 H501 0.930 . S
C530 C525 1.391 . S
C530 N529 1.388 . S
Co531 O533 2.143 . S
Co531 O539 2.074 . S
Co531 O542 2.093 . S
Co531 O555 2.097 . S
Co531 N572 2.151 . S
Co531 N580 2.214 . S
Co532 O533 2.160 . S
Co532 O538 2.058 . S
Co532 O548 2.057 . S
Co532 O563 2.037 . S
Co532 N567 2.145 . S
Co532 N588 2.257 . S
O533 Co531 2.143 . S
O533 Co532 2.160 . S
C534 O535 1.278 . S
C534 O542 1.224 . S
O535 C534 1.278 . S
C536 O537 1.245 . S
C536 O548 1.232 . S
O537 C536 1.245 . S
O538 Co532 2.058 . S
O538 C564 1.269 . S
O539 Co531 2.074 . S
O539 C564 1.257 . S
H540 C565 0.930 . S
H541 C571 0.930 . S
O542 Co531 2.093 . S
O542 C534 1.224 . S
H543 C575 0.929 . S
H544 C577 0.930 . S
H545 C578 0.930 . S
H546 C576 0.929 . S
H547 C579 0.928 . S
O548 Co532 2.057 . S
O548 C536 1.232 . S
H549 C568 0.929 . S
H550 C569 0.929 . S
H551 C581 0.931 . S
H552 C573 0.929 . S
H553 C582 0.930 . S
H554 C574 0.931 . S
O555 Co531 2.097 . S
O555 C583 1.214 . S
H556 C584 0.929 . S
H557 C585 0.929 . S
H558 C586 0.930 1_545 S
H559 C587 0.929 . S
H560 C589 0.930 . S
H561 C566 0.930 . S
H562 C570 0.930 . S
O563 Co532 2.037 . S
O563 C583 1.234 . S
C564 O538 1.269 . S
C564 O539 1.257 . S
C565 H540 0.930 . S
C565 C568 1.388 1_455 S
C565 C570 1.418 . S
C566 H561 0.930 . S
C566 C569 1.404 . S
C566 C570 1.353 1_655 S
N567 Co532 2.145 . S
N567 C568 1.397 . S
N567 C569 1.334 . S
C568 H549 0.929 . S
C568 C565 1.388 1_655 S
C568 N567 1.397 . S
C569 H550 0.929 . S
C569 C566 1.404 . S
C569 N567 1.334 . S
C570 H562 0.930 . S
C570 C565 1.418 . S
C570 C566 1.353 1_455 S
C571 H541 0.930 . S
C571 N572 1.330 . S
C571 C573 1.446 . S
N572 Co531 2.151 . S
N572 C571 1.330 . S
N572 C576 1.418 . S
C573 H552 0.929 . S
C573 C571 1.446 . S
C573 C574 1.332 . S
C574 H554 0.931 . S
C574 C573 1.332 . S
C574 C575 1.267 . S
C575 H543 0.929 . S
C575 C574 1.267 . S
C575 C576 1.251 . S
C576 H546 0.929 . S
C576 N572 1.418 . S
C576 C575 1.251 . S
C577 H544 0.930 . S
C577 C579 1.406 . S
C577 C582 1.261 . S
C578 H545 0.930 . S
C578 N580 1.325 . S
C578 C581 1.357 . S
C579 H547 0.928 . S
C579 C577 1.406 . S
C579 N580 1.261 . S
N580 Co531 2.214 . S
N580 C578 1.325 . S
N580 C579 1.261 . S
C581 H551 0.931 . S
C581 C578 1.357 . S
C581 C582 1.312 . S
C582 H553 0.930 . S
C582 C577 1.261 . S
C582 C581 1.312 . S
C583 O555 1.214 . S
C583 O563 1.234 . S
C584 H556 0.929 . S
C584 C587 1.391 1_565 S
C584 C589 1.391 . S
C585 H557 0.929 . S
C585 C586 1.390 . S
C585 N588 1.391 . S
C586 H558 0.930 1_565 S
C586 C585 1.390 . S
C586 C587 1.392 1_565 S
C587 H559 0.929 . S
C587 C584 1.391 1_545 S
C587 C586 1.392 1_545 S
N588 Co532 2.257 . S
N588 C585 1.391 . S
N588 C589 1.388 . S
C589 H560 0.930 . S
C589 C584 1.391 . S
C589 N588 1.388 . S
Co590 O592 2.143 . S
Co590 O598 2.074 1_655 S
Co590 O601 2.093 1_545 S
Co590 O614 2.097 . S
Co590 N631 2.151 1_545 S
Co590 N639 2.214 . S
Co591 O592 2.160 . S
Co591 O597 2.058 1_655 S
Co591 O607 2.057 . S
Co591 O622 2.037 . S
Co591 N626 2.145 . S
Co591 N647 2.257 . S
O592 Co590 2.143 . S
O592 Co591 2.160 . S
C593 O594 1.278 . S
C593 O601 1.224 . S
O594 C593 1.278 . S
C595 O596 1.245 1_545 S
C595 O607 1.232 . S
O596 C595 1.245 1_565 S
O597 Co591 2.058 1_455 S
O597 C623 1.269 . S
O598 Co590 2.074 1_455 S
O598 C623 1.257 . S
H599 C624 0.930 . S
H600 C630 0.930 . S
O601 Co590 2.093 1_565 S
O601 C593 1.224 . S
H602 C634 0.929 . S
H603 C636 0.930 1_565 S
H604 C637 0.930 . S
H605 C635 0.929 . S
H606 C638 0.929 . S
O607 Co591 2.057 . S
O607 C595 1.232 . S
H608 C627 0.929 . S
H609 C628 0.929 . S
H610 C640 0.931 . S
H611 C632 0.929 . S
H612 C641 0.930 . S
H613 C633 0.931 . S
O614 Co590 2.097 . S
O614 C642 1.214 . S
H615 C643 0.929 . S
H616 C644 0.929 . S
H617 C645 0.930 . S
H618 C646 0.929 . S
H619 C648 0.930 . S
H620 C625 0.930 . S
H621 C629 0.930 . S
O622 Co591 2.037 . S
O622 C642 1.234 . S
C623 O597 1.269 . S
C623 O598 1.257 . S
C624 H599 0.930 . S
C624 C627 1.388 . S
C624 C629 1.418 . S
C625 H620 0.930 . S
C625 C628 1.404 . S
C625 C629 1.353 . S
N626 Co591 2.145 . S
N626 C627 1.397 . S
N626 C628 1.334 . S
C627 H608 0.929 . S
C627 C624 1.388 . S
C627 N626 1.397 . S
C628 H609 0.929 . S
C628 C625 1.404 . S
C628 N626 1.334 . S
C629 H621 0.930 . S
C629 C624 1.418 . S
C629 C625 1.353 . S
C630 H600 0.930 . S
C630 N631 1.330 . S
C630 C632 1.446 1_655 S
N631 Co590 2.151 1_565 S
N631 C630 1.330 . S
N631 C635 1.418 1_655 S
C632 H611 0.929 . S
C632 C630 1.446 1_455 S
C632 C633 1.332 . S
C633 H613 0.931 . S
C633 C632 1.332 . S
C633 C634 1.267 . S
C634 H602 0.929 . S
C634 C633 1.267 . S
C634 C635 1.251 . S
C635 H605 0.929 . S
C635 N631 1.418 1_455 S
C635 C634 1.251 . S
C636 H603 0.930 1_545 S
C636 C638 1.405 1_545 S
C636 C641 1.261 . S
C637 H604 0.930 . S
C637 N639 1.325 . S
C637 C640 1.357 . S
C638 H606 0.929 . S
C638 C636 1.405 1_565 S
C638 N639 1.261 1_565 S
N639 Co590 2.214 . S
N639 C637 1.325 . S
N639 C638 1.261 1_545 S
C640 H610 0.931 . S
C640 C637 1.357 . S
C640 C641 1.312 . S
C641 H612 0.930 . S
C641 C636 1.261 . S
C641 C640 1.312 . S
C642 O614 1.214 . S
C642 O622 1.234 . S
C643 H615 0.929 . S
C643 C646 1.391 . S
C643 C648 1.391 . S
C644 H616 0.929 . S
C644 C645 1.390 . S
C644 N647 1.391 . S
C645 H617 0.930 . S
C645 C644 1.390 . S
C645 C646 1.392 . S
C646 H618 0.929 . S
C646 C643 1.391 . S
C646 C645 1.392 . S
N647 Co591 2.257 . S
N647 C644 1.391 . S
N647 C648 1.388 . S
C648 H619 0.930 . S
C648 C643 1.391 . S
C648 N647 1.388 . S
Co649 O651 2.143 . S
Co649 O657 2.074 . S
Co649 O660 2.093 . S
Co649 O673 2.097 . S
Co649 N690 2.151 . S
Co649 N698 2.214 . S
Co650 O651 2.160 . S
Co650 O656 2.058 . S
Co650 O666 2.057 . S
Co650 O681 2.037 . S
Co650 N685 2.145 . S
Co650 N706 2.257 . S
O651 Co649 2.143 . S
O651 Co650 2.160 . S
C652 O653 1.278 . S
C652 O660 1.224 . S
O653 C652 1.278 . S
C654 O655 1.245 . S
C654 O666 1.232 . S
O655 C654 1.245 . S
O656 Co650 2.058 . S
O656 C682 1.269 . S
O657 Co649 2.074 . S
O657 C682 1.257 . S
H658 C683 0.930 . S
H659 C689 0.930 . S
O660 Co649 2.093 . S
O660 C652 1.224 . S
H661 C693 0.929 . S
H662 C695 0.930 . S
H663 C696 0.930 . S
H664 C694 0.929 . S
H665 C697 0.928 . S
O666 Co650 2.057 . S
O666 C654 1.232 . S
H667 C686 0.929 . S
H668 C687 0.929 1_556 S
H669 C699 0.931 . S
H670 C691 0.929 . S
H671 C700 0.930 . S
H672 C692 0.931 . S
O673 Co649 2.097 . S
O673 C701 1.214 . S
H674 C702 0.929 . S
H675 C703 0.929 . S
H676 C704 0.930 1_565 S
H677 C705 0.929 . S
H678 C707 0.930 . S
H679 C684 0.930 . S
H680 C688 0.932 1_556 S
O681 Co650 2.037 . S
O681 C701 1.234 . S
C682 O656 1.269 . S
C682 O657 1.257 . S
C683 H658 0.930 . S
C683 C686 1.388 . S
C683 C688 1.415 . S
C684 H679 0.930 . S
C684 C687 1.404 1_556 S
C684 C688 1.354 1_556 S
N685 Co650 2.145 . S
N685 C686 1.397 . S
N685 C687 1.334 . S
C686 H667 0.929 . S
C686 C683 1.388 . S
C686 N685 1.397 . S
C687 H668 0.929 1_554 S
C687 C684 1.404 1_554 S
C687 N685 1.334 . S
C688 H680 0.932 1_554 S
C688 C683 1.415 . S
C688 C684 1.354 1_554 S
C689 H659 0.930 . S
C689 N690 1.330 . S
C689 C691 1.446 . S
N690 Co649 2.151 . S
N690 C689 1.330 . S
N690 C694 1.418 . S
C691 H670 0.929 . S
C691 C689 1.446 . S
C691 C692 1.332 . S
C692 H672 0.931 . S
C692 C691 1.332 . S
C692 C693 1.267 . S
C693 H661 0.929 . S
C693 C692 1.267 . S
C693 C694 1.251 . S
C694 H664 0.929 . S
C694 N690 1.418 . S
C694 C693 1.251 . S
C695 H662 0.930 . S
C695 C697 1.406 . S
C695 C700 1.261 . S
C696 H663 0.930 . S
C696 N698 1.325 . S
C696 C699 1.357 . S
C697 H665 0.928 . S
C697 C695 1.406 . S
C697 N698 1.261 . S
N698 Co649 2.214 . S
N698 C696 1.325 . S
N698 C697 1.261 . S
C699 H669 0.931 . S
C699 C696 1.357 . S
C699 C700 1.312 . S
C700 H671 0.930 . S
C700 C695 1.261 . S
C700 C699 1.312 . S
C701 O673 1.214 . S
C701 O681 1.234 . S
C702 H674 0.929 . S
C702 C705 1.391 1_545 S
C702 C707 1.391 . S
C703 H675 0.929 . S
C703 C704 1.390 . S
C703 N706 1.391 . S
C704 H676 0.930 1_545 S
C704 C703 1.390 . S
C704 C705 1.392 1_545 S
C705 H677 0.929 . S
C705 C702 1.391 1_565 S
C705 C704 1.392 1_565 S
N706 Co650 2.257 . S
N706 C703 1.391 . S
N706 C707 1.388 . S
C707 H678 0.930 . S
C707 C702 1.391 . S
C707 N706 1.388 . S
Co708 O710 2.143 . S
Co708 O716 2.074 . S
Co708 O719 2.093 1_545 S
Co708 O732 2.097 . S
Co708 N749 2.151 1_545 S
Co708 N757 2.214 . S
Co709 O710 2.160 . S
Co709 O715 2.058 . S
Co709 O725 2.057 . S
Co709 O740 2.037 . S
Co709 N744 2.145 . S
Co709 N765 2.257 . S
O710 Co708 2.143 . S
O710 Co709 2.160 . S
C711 O712 1.278 . S
C711 O719 1.224 . S
O712 C711 1.278 . S
C713 O714 1.245 1_545 S
C713 O725 1.232 . S
O714 C713 1.245 1_565 S
O715 Co709 2.058 . S
O715 C741 1.269 . S
O716 Co708 2.074 . S
O716 C741 1.257 . S
H717 C742 0.930 . S
H718 C748 0.930 . S
O719 Co708 2.093 1_565 S
O719 C711 1.224 . S
H720 C752 0.929 . S
H721 C754 0.930 1_565 S
H722 C755 0.930 . S
H723 C753 0.929 . S
H724 C756 0.929 . S
O725 Co709 2.057 . S
O725 C713 1.232 . S
H726 C745 0.929 . S
H727 C746 0.929 . S
H728 C758 0.931 . S
H729 C750 0.929 . S
H730 C759 0.930 . S
H731 C751 0.931 . S
O732 Co708 2.097 . S
O732 C760 1.214 . S
H733 C761 0.929 . S
H734 C762 0.929 . S
H735 C763 0.930 . S
H736 C764 0.929 . S
H737 C766 0.930 . S
H738 C743 0.930 . S
H739 C747 0.930 . S
O740 Co709 2.037 . S
O740 C760 1.234 . S
C741 O715 1.269 . S
C741 O716 1.257 . S
C742 H717 0.930 . S
C742 C745 1.388 . S
C742 C747 1.418 . S
C743 H738 0.930 . S
C743 C746 1.404 . S
C743 C747 1.353 . S
N744 Co709 2.145 . S
N744 C745 1.397 . S
N744 C746 1.334 . S
C745 H726 0.929 . S
C745 C742 1.388 . S
C745 N744 1.397 . S
C746 H727 0.929 . S
C746 C743 1.404 . S
C746 N744 1.334 . S
C747 H739 0.930 . S
C747 C742 1.418 . S
C747 C743 1.353 . S
C748 H718 0.930 . S
C748 N749 1.330 . S
C748 C750 1.446 . S
N749 Co708 2.151 1_565 S
N749 C748 1.330 . S
N749 C753 1.418 . S
C750 H729 0.929 . S
C750 C748 1.446 . S
C750 C751 1.332 . S
C751 H731 0.931 . S
C751 C750 1.332 . S
C751 C752 1.267 . S
C752 H720 0.929 . S
C752 C751 1.267 . S
C752 C753 1.251 . S
C753 H723 0.929 . S
C753 N749 1.418 . S
C753 C752 1.251 . S
C754 H721 0.930 1_545 S
C754 C756 1.405 1_545 S
C754 C759 1.261 . S
C755 H722 0.930 . S
C755 N757 1.325 . S
C755 C758 1.357 . S
C756 H724 0.929 . S
C756 C754 1.405 1_565 S
C756 N757 1.261 1_565 S
N757 Co708 2.214 . S
N757 C755 1.325 . S
N757 C756 1.261 1_545 S
C758 H728 0.931 . S
C758 C755 1.357 . S
C758 C759 1.312 . S
C759 H730 0.930 . S
C759 C754 1.261 . S
C759 C758 1.312 . S
C760 O732 1.214 . S
C760 O740 1.234 . S
C761 H733 0.929 . S
C761 C764 1.391 . S
C761 C766 1.391 . S
C762 H734 0.929 . S
C762 C763 1.390 . S
C762 N765 1.391 . S
C763 H735 0.930 . S
C763 C762 1.390 . S
C763 C764 1.392 . S
C764 H736 0.929 . S
C764 C761 1.391 . S
C764 C763 1.392 . S
N765 Co709 2.257 . S
N765 C762 1.391 . S
N765 C766 1.388 . S
C766 H737 0.930 . S
C766 C761 1.391 . S
C766 N765 1.388 . S
Co767 O769 2.143 . S
Co767 O775 2.074 . S
Co767 O778 2.093 . S
Co767 O791 2.097 . S
Co767 N808 2.151 . S
Co767 N816 2.214 . S
Co768 O769 2.160 . S
Co768 O774 2.058 . S
Co768 O784 2.057 . S
Co768 O799 2.037 . S
Co768 N803 2.145 . S
Co768 N824 2.257 . S
O769 Co767 2.143 . S
O769 Co768 2.160 . S
C770 O771 1.278 . S
C770 O778 1.224 . S
O771 C770 1.278 . S
C772 O773 1.245 . S
C772 O784 1.232 . S
O773 C772 1.245 . S
O774 Co768 2.058 . S
O774 C800 1.269 . S
O775 Co767 2.074 . S
O775 C800 1.257 . S
H776 C801 0.930 . S
H777 C807 0.930 . S
O778 Co767 2.093 . S
O778 C770 1.224 . S
H779 C811 0.929 . S
H780 C813 0.930 . S
H781 C814 0.930 . S
H782 C812 0.929 . S
H783 C815 0.928 . S
O784 Co768 2.057 . S
O784 C772 1.232 . S
H785 C804 0.929 . S
H786 C805 0.929 . S
H787 C817 0.931 . S
H788 C809 0.929 . S
H789 C818 0.930 . S
H790 C810 0.931 . S
O791 Co767 2.097 . S
O791 C819 1.214 . S
H792 C820 0.929 . S
H793 C821 0.929 . S
H794 C822 0.930 1_545 S
H795 C823 0.929 . S
H796 C825 0.930 . S
H797 C802 0.930 . S
H798 C806 0.930 . S
O799 Co768 2.037 . S
O799 C819 1.234 . S
C800 O774 1.269 . S
C800 O775 1.257 . S
C801 H776 0.930 . S
C801 C804 1.388 . S
C801 C806 1.418 . S
C802 H797 0.930 . S
C802 C805 1.404 . S
C802 C806 1.353 . S
N803 Co768 2.145 . S
N803 C804 1.397 . S
N803 C805 1.334 . S
C804 H785 0.929 . S
C804 C801 1.388 . S
C804 N803 1.397 . S
C805 H786 0.929 . S
C805 C802 1.404 . S
C805 N803 1.334 . S
C806 H798 0.930 . S
C806 C801 1.418 . S
C806 C802 1.353 . S
C807 H777 0.930 . S
C807 N808 1.330 . S
C807 C809 1.446 . S
N808 Co767 2.151 . S
N808 C807 1.330 . S
N808 C812 1.418 . S
C809 H788 0.929 . S
C809 C807 1.446 . S
C809 C810 1.332 . S
C810 H790 0.931 . S
C810 C809 1.332 . S
C810 C811 1.267 . S
C811 H779 0.929 . S
C811 C810 1.267 . S
C811 C812 1.251 . S
C812 H782 0.929 . S
C812 N808 1.418 . S
C812 C811 1.251 . S
C813 H780 0.930 . S
C813 C815 1.406 . S
C813 C818 1.261 . S
C814 H781 0.930 . S
C814 N816 1.325 . S
C814 C817 1.357 . S
C815 H783 0.928 . S
C815 C813 1.406 . S
C815 N816 1.261 . S
N816 Co767 2.214 . S
N816 C814 1.325 . S
N816 C815 1.261 . S
C817 H787 0.931 . S
C817 C814 1.357 . S
C817 C818 1.312 . S
C818 H789 0.930 . S
C818 C813 1.261 . S
C818 C817 1.312 . S
C819 O791 1.214 . S
C819 O799 1.234 . S
C820 H792 0.929 . S
C820 C823 1.391 1_565 S
C820 C825 1.391 . S
C821 H793 0.929 . S
C821 C822 1.390 . S
C821 N824 1.391 . S
C822 H794 0.930 1_565 S
C822 C821 1.390 . S
C822 C823 1.392 1_565 S
C823 H795 0.929 . S
C823 C820 1.391 1_545 S
C823 C822 1.392 1_545 S
N824 Co768 2.257 . S
N824 C821 1.391 . S
N824 C825 1.388 . S
C825 H796 0.930 . S
C825 C820 1.391 . S
C825 N824 1.388 . S
Co826 O828 2.143 . S
Co826 O834 2.074 1_655 S
Co826 O837 2.093 1_565 S
Co826 O850 2.097 . S
Co826 N867 2.151 1_565 S
Co826 N875 2.214 . S
Co827 O828 2.160 . S
Co827 O833 2.058 1_655 S
Co827 O843 2.057 . S
Co827 O858 2.037 . S
Co827 N862 2.145 . S
Co827 N883 2.257 . S
O828 Co826 2.143 . S
O828 Co827 2.160 . S
C829 O830 1.278 . S
C829 O837 1.224 . S
O830 C829 1.278 . S
C831 O832 1.245 1_565 S
C831 O843 1.232 . S
O832 C831 1.245 1_545 S
O833 Co827 2.058 1_455 S
O833 C859 1.269 . S
O834 Co826 2.074 1_455 S
O834 C859 1.257 . S
H835 C860 0.930 . S
H836 C866 0.930 . S
O837 Co826 2.093 1_545 S
O837 C829 1.224 . S
H838 C870 0.929 . S
H839 C872 0.930 1_546 S
H840 C873 0.930 . S
H841 C871 0.929 . S
H842 C874 0.929 . S
O843 Co827 2.057 . S
O843 C831 1.232 . S
H844 C863 0.929 . S
H845 C864 0.929 . S
H846 C876 0.931 . S
H847 C868 0.929 . S
H848 C877 0.930 . S
H849 C869 0.931 . S
O850 Co826 2.097 . S
O850 C878 1.214 . S
H851 C879 0.929 . S
H852 C880 0.929 . S
H853 C881 0.930 . S
H854 C882 0.929 . S
H855 C884 0.930 . S
H856 C861 0.930 . S
H857 C865 0.930 . S
O858 Co827 2.037 . S
O858 C878 1.234 . S
C859 O833 1.269 . S
C859 O834 1.257 . S
C860 H835 0.930 . S
C860 C863 1.388 . S
C860 C865 1.418 . S
C861 H856 0.930 . S
C861 C864 1.404 . S
C861 C865 1.353 . S
N862 Co827 2.145 . S
N862 C863 1.397 . S
N862 C864 1.334 . S
C863 H844 0.929 . S
C863 C860 1.388 . S
C863 N862 1.397 . S
C864 H845 0.929 . S
C864 C861 1.404 . S
C864 N862 1.334 . S
C865 H857 0.930 . S
C865 C860 1.418 . S
C865 C861 1.353 . S
C866 H836 0.930 . S
C866 N867 1.330 . S
C866 C868 1.446 1_655 S
N867 Co826 2.151 1_545 S
N867 C866 1.330 . S
N867 C871 1.418 1_655 S
C868 H847 0.929 . S
C868 C866 1.446 1_455 S
C868 C869 1.332 . S
C869 H849 0.931 . S
C869 C868 1.332 . S
C869 C870 1.267 . S
C870 H838 0.929 . S
C870 C869 1.267 . S
C870 C871 1.251 . S
C871 H841 0.929 . S
C871 N867 1.418 1_455 S
C871 C870 1.251 . S
C872 H839 0.930 1_564 S
C872 C874 1.405 1_565 S
C872 C877 1.261 1_554 S
C873 H840 0.930 . S
C873 N875 1.325 . S
C873 C876 1.357 . S
C874 H842 0.929 . S
C874 C872 1.405 1_545 S
C874 N875 1.261 1_545 S
N875 Co826 2.214 . S
N875 C873 1.325 . S
N875 C874 1.261 1_565 S
C876 H846 0.931 . S
C876 C873 1.357 . S
C876 C877 1.312 1_554 S
C877 H848 0.930 . S
C877 C872 1.261 1_556 S
C877 C876 1.312 1_556 S
C878 O850 1.214 . S
C878 O858 1.234 . S
C879 H851 0.929 . S
C879 C882 1.391 . S
C879 C884 1.391 . S
C880 H852 0.929 . S
C880 C881 1.390 . S
C880 N883 1.391 . S
C881 H853 0.930 . S
C881 C880 1.390 . S
C881 C882 1.392 . S
C882 H854 0.929 . S
C882 C879 1.391 . S
C882 C881 1.392 . S
N883 Co827 2.257 . S
N883 C880 1.391 . S
N883 C884 1.388 . S
C884 H855 0.930 . S
C884 C879 1.391 . S
C884 N883 1.388 . S
Co885 O887 2.143 . S
Co885 O893 2.074 . S
Co885 O896 2.093 . S
Co885 O909 2.097 . S
Co885 N926 2.151 . S
Co885 N934 2.214 . S
Co886 O887 2.160 . S
Co886 O892 2.058 . S
Co886 O902 2.057 . S
Co886 O917 2.037 . S
Co886 N921 2.145 . S
Co886 N942 2.257 . S
O887 Co885 2.143 . S
O887 Co886 2.160 . S
C888 O889 1.278 . S
C888 O896 1.224 . S
O889 C888 1.278 . S
C890 O891 1.245 . S
C890 O902 1.232 . S
O891 C890 1.245 . S
O892 Co886 2.058 . S
O892 C918 1.269 . S
O893 Co885 2.074 . S
O893 C918 1.257 . S
H894 C919 0.930 . S
H895 C925 0.930 . S
O896 Co885 2.093 . S
O896 C888 1.224 . S
H897 C929 0.929 . S
H898 C931 0.930 . S
H899 C932 0.930 . S
H900 C930 0.929 . S
H901 C933 0.928 . S
O902 Co886 2.057 . S
O902 C890 1.232 . S
H903 C922 0.929 . S
H904 C923 0.929 1_554 S
H905 C935 0.931 . S
H906 C927 0.929 . S
H907 C936 0.930 . S
H908 C928 0.931 . S
O909 Co885 2.097 . S
O909 C937 1.214 . S
H910 C938 0.929 . S
H911 C939 0.929 . S
H912 C940 0.930 1_565 S
H913 C941 0.929 . S
H914 C943 0.930 . S
H915 C920 0.930 . S
H916 C924 0.932 1_554 S
O917 Co886 2.037 . S
O917 C937 1.234 . S
C918 O892 1.269 . S
C918 O893 1.257 . S
C919 H894 0.930 . S
C919 C922 1.388 1_455 S
C919 C924 1.415 . S
C920 H915 0.930 . S
C920 C923 1.404 1_554 S
C920 C924 1.354 1_654 S
N921 Co886 2.145 . S
N921 C922 1.397 . S
N921 C923 1.334 . S
C922 H903 0.929 . S
C922 C919 1.388 1_655 S
C922 N921 1.397 . S
C923 H904 0.929 1_556 S
C923 C920 1.404 1_556 S
C923 N921 1.334 . S
C924 H916 0.932 1_556 S
C924 C919 1.415 . S
C924 C920 1.354 1_456 S
C925 H895 0.930 . S
C925 N926 1.330 . S
C925 C927 1.446 . S
N926 Co885 2.151 . S
N926 C925 1.330 . S
N926 C930 1.418 . S
C927 H906 0.929 . S
C927 C925 1.446 . S
C927 C928 1.332 . S
C928 H908 0.931 . S
C928 C927 1.332 . S
C928 C929 1.267 . S
C929 H897 0.929 . S
C929 C928 1.267 . S
C929 C930 1.251 . S
C930 H900 0.929 . S
C930 N926 1.418 . S
C930 C929 1.251 . S
C931 H898 0.930 . S
C931 C933 1.406 . S
C931 C936 1.261 . S
C932 H899 0.930 . S
C932 N934 1.325 . S
C932 C935 1.357 . S
C933 H901 0.928 . S
C933 C931 1.406 . S
C933 N934 1.261 . S
N934 Co885 2.214 . S
N934 C932 1.325 . S
N934 C933 1.261 . S
C935 H905 0.931 . S
C935 C932 1.357 . S
C935 C936 1.312 . S
C936 H907 0.930 . S
C936 C931 1.261 . S
C936 C935 1.312 . S
C937 O909 1.214 . S
C937 O917 1.234 . S
C938 H910 0.929 . S
C938 C941 1.391 1_545 S
C938 C943 1.391 . S
C939 H911 0.929 . S
C939 C940 1.390 . S
C939 N942 1.391 . S
C940 H912 0.930 1_545 S
C940 C939 1.390 . S
C940 C941 1.392 1_545 S
C941 H913 0.929 . S
C941 C938 1.391 1_565 S
C941 C940 1.392 1_565 S
N942 Co886 2.257 . S
N942 C939 1.391 . S
N942 C943 1.388 . S
C943 H914 0.930 . S
C943 C938 1.391 . S
C943 N942 1.388 . S
Co944 O946 2.143 . S
Co944 O952 2.074 1_655 S
Co944 O955 2.093 . S
Co944 O968 2.097 . S
Co944 N985 2.151 . S
Co944 N993 2.214 . S
Co945 O946 2.160 . S
Co945 O951 2.058 1_655 S
Co945 O961 2.057 . S
Co945 O976 2.037 . S
Co945 N980 2.145 . S
Co945 N1001 2.257 . S
O946 Co944 2.143 . S
O946 Co945 2.160 . S
C947 O948 1.278 . S
C947 O955 1.224 . S
O948 C947 1.278 . S
C949 O950 1.245 . S
C949 O961 1.232 . S
O950 C949 1.245 . S
O951 Co945 2.058 1_455 S
O951 C977 1.269 . S
O952 Co944 2.074 1_455 S
O952 C977 1.257 . S
H953 C978 0.930 . S
H954 C984 0.930 . S
O955 Co944 2.093 . S
O955 C947 1.224 . S
H956 C988 0.929 . S
H957 C990 0.930 . S
H958 C991 0.930 . S
H959 C989 0.929 . S
H960 C992 0.928 . S
O961 Co945 2.057 . S
O961 C949 1.232 . S
H962 C981 0.929 . S
H963 C982 0.929 . S
H964 C994 0.931 . S
H965 C986 0.929 . S
H966 C995 0.930 . S
H967 C987 0.931 . S
O968 Co944 2.097 . S
O968 C996 1.214 . S
H969 C997 0.929 . S
H970 C998 0.929 . S
H971 C999 0.930 . S
H972 C1000 0.929 . S
H973 C1002 0.930 . S
H974 C979 0.930 . S
H975 C983 0.930 . S
O976 Co945 2.037 . S
O976 C996 1.234 . S
C977 O951 1.269 . S
C977 O952 1.257 . S
C978 H953 0.930 . S
C978 C981 1.388 . S
C978 C983 1.418 . S
C979 H974 0.930 . S
C979 C982 1.404 . S
C979 C983 1.353 . S
N980 Co945 2.145 . S
N980 C981 1.397 . S
N980 C982 1.334 . S
C981 H962 0.929 . S
C981 C978 1.388 . S
C981 N980 1.397 . S
C982 H963 0.929 . S
C982 C979 1.404 . S
C982 N980 1.334 . S
C983 H975 0.930 . S
C983 C978 1.418 . S
C983 C979 1.353 . S
C984 H954 0.930 . S
C984 N985 1.330 . S
C984 C986 1.446 1_655 S
N985 Co944 2.151 . S
N985 C984 1.330 . S
N985 C989 1.418 1_655 S
C986 H965 0.929 . S
C986 C984 1.446 1_455 S
C986 C987 1.332 . S
C987 H967 0.931 . S
C987 C986 1.332 . S
C987 C988 1.267 . S
C988 H956 0.929 . S
C988 C987 1.267 . S
C988 C989 1.251 . S
C989 H959 0.929 . S
C989 N985 1.418 1_455 S
C989 C988 1.251 . S
C990 H957 0.930 . S
C990 C992 1.406 . S
C990 C995 1.261 . S
C991 H958 0.930 . S
C991 N993 1.325 . S
C991 C994 1.357 . S
C992 H960 0.928 . S
C992 C990 1.406 . S
C992 N993 1.261 . S
N993 Co944 2.214 . S
N993 C991 1.325 . S
N993 C992 1.261 . S
C994 H964 0.931 . S
C994 C991 1.357 . S
C994 C995 1.312 . S
C995 H966 0.930 . S
C995 C990 1.261 . S
C995 C994 1.312 . S
C996 O968 1.214 . S
C996 O976 1.234 . S
C997 H969 0.929 . S
C997 C1000 1.391 . S
C997 C1002 1.391 . S
C998 H970 0.929 . S
C998 C999 1.390 . S
C998 N1001 1.391 . S
C999 H971 0.930 . S
C999 C998 1.390 . S
C999 C1000 1.392 . S
C1000 H972 0.929 . S
C1000 C997 1.391 . S
C1000 C999 1.392 . S
N1001 Co945 2.257 . S
N1001 C998 1.391 . S
N1001 C1002 1.388 . S
C1002 H973 0.930 . S
C1002 C997 1.391 . S
C1002 N1001 1.388 . S
Co1003 O1005 2.143 . S
Co1003 O1011 2.074 . S
Co1003 O1014 2.093 . S
Co1003 O1027 2.097 . S
Co1003 N1044 2.151 . S
Co1003 N1052 2.214 . S
Co1004 O1005 2.160 . S
Co1004 O1010 2.058 . S
Co1004 O1020 2.057 . S
Co1004 O1035 2.037 . S
Co1004 N1039 2.145 . S
Co1004 N1060 2.257 . S
O1005 Co1003 2.143 . S
O1005 Co1004 2.160 . S
C1006 O1007 1.278 . S
C1006 O1014 1.224 . S
O1007 C1006 1.278 . S
C1008 O1009 1.245 . S
C1008 O1020 1.232 . S
O1009 C1008 1.245 . S
O1010 Co1004 2.058 . S
O1010 C1036 1.269 . S
O1011 Co1003 2.074 . S
O1011 C1036 1.257 . S
H1012 C1037 0.930 . S
H1013 C1043 0.930 . S
O1014 Co1003 2.093 . S
O1014 C1006 1.224 . S
H1015 C1047 0.929 . S
H1016 C1049 0.930 . S
H1017 C1050 0.930 . S
H1018 C1048 0.929 . S
H1019 C1051 0.928 . S
O1020 Co1004 2.057 . S
O1020 C1008 1.232 . S
H1021 C1040 0.929 . S
H1022 C1041 0.929 1_554 S
H1023 C1053 0.931 . S
H1024 C1045 0.929 . S
H1025 C1054 0.930 . S
H1026 C1046 0.931 . S
O1027 Co1003 2.097 . S
O1027 C1055 1.214 . S
H1028 C1056 0.929 . S
H1029 C1057 0.929 . S
H1030 C1058 0.930 . S
H1031 C1059 0.929 . S
H1032 C1061 0.930 . S
H1033 C1038 0.930 . S
H1034 C1042 0.932 1_554 S
O1035 Co1004 2.037 . S
O1035 C1055 1.234 . S
C1036 O1010 1.269 . S
C1036 O1011 1.257 . S
C1037 H1012 0.930 . S
C1037 C1040 1.388 . S
C1037 C1042 1.415 . S
C1038 H1033 0.930 . S
C1038 C1041 1.404 1_554 S
C1038 C1042 1.354 1_554 S
N1039 Co1004 2.145 . S
N1039 C1040 1.397 . S
N1039 C1041 1.334 . S
C1040 H1021 0.929 . S
C1040 C1037 1.388 . S
C1040 N1039 1.397 . S
C1041 H1022 0.929 1_556 S
C1041 C1038 1.404 1_556 S
C1041 N1039 1.334 . S
C1042 H1034 0.932 1_556 S
C1042 C1037 1.415 . S
C1042 C1038 1.354 1_556 S
C1043 H1013 0.930 . S
C1043 N1044 1.330 . S
C1043 C1045 1.446 . S
N1044 Co1003 2.151 . S
N1044 C1043 1.330 . S
N1044 C1048 1.418 . S
C1045 H1024 0.929 . S
C1045 C1043 1.446 . S
C1045 C1046 1.332 . S
C1046 H1026 0.931 . S
C1046 C1045 1.332 . S
C1046 C1047 1.267 . S
C1047 H1015 0.929 . S
C1047 C1046 1.267 . S
C1047 C1048 1.251 . S
C1048 H1018 0.929 . S
C1048 N1044 1.418 . S
C1048 C1047 1.251 . S
C1049 H1016 0.930 . S
C1049 C1051 1.406 . S
C1049 C1054 1.261 . S
C1050 H1017 0.930 . S
C1050 N1052 1.325 . S
C1050 C1053 1.357 . S
C1051 H1019 0.928 . S
C1051 C1049 1.406 . S
C1051 N1052 1.261 . S
N1052 Co1003 2.214 . S
N1052 C1050 1.325 . S
N1052 C1051 1.261 . S
C1053 H1023 0.931 . S
C1053 C1050 1.357 . S
C1053 C1054 1.312 . S
C1054 H1025 0.930 . S
C1054 C1049 1.261 . S
C1054 C1053 1.312 . S
C1055 O1027 1.214 . S
C1055 O1035 1.234 . S
C1056 H1028 0.929 . S
C1056 C1059 1.391 . S
C1056 C1061 1.391 . S
C1057 H1029 0.929 . S
C1057 C1058 1.390 . S
C1057 N1060 1.391 . S
C1058 H1030 0.930 . S
C1058 C1057 1.390 . S
C1058 C1059 1.392 . S
C1059 H1031 0.929 . S
C1059 C1056 1.391 . S
C1059 C1058 1.392 . S
N1060 Co1004 2.257 . S
N1060 C1057 1.391 . S
N1060 C1061 1.388 . S
C1061 H1032 0.930 . S
C1061 C1056 1.391 . S
C1061 N1060 1.388 . S
Co1062 O1064 2.143 . S
Co1062 O1070 2.074 . S
Co1062 O1073 2.093 . S
Co1062 O1086 2.097 . S
Co1062 N1103 2.151 . S
Co1062 N1111 2.214 . S
Co1063 O1064 2.160 . S
Co1063 O1069 2.058 . S
Co1063 O1079 2.057 . S
Co1063 O1094 2.037 . S
Co1063 N1098 2.145 . S
Co1063 N1119 2.257 . S
O1064 Co1062 2.143 . S
O1064 Co1063 2.160 . S
C1065 O1066 1.278 . S
C1065 O1073 1.224 . S
O1066 C1065 1.278 . S
C1067 O1068 1.245 . S
C1067 O1079 1.232 . S
O1068 C1067 1.245 . S
O1069 Co1063 2.058 . S
O1069 C1095 1.269 . S
O1070 Co1062 2.074 . S
O1070 C1095 1.257 . S
H1071 C1096 0.930 . S
H1072 C1102 0.930 . S
O1073 Co1062 2.093 . S
O1073 C1065 1.224 . S
H1074 C1106 0.929 . S
H1075 C1108 0.930 1_556 S
H1076 C1109 0.930 . S
H1077 C1107 0.929 . S
H1078 C1110 0.928 . S
O1079 Co1063 2.057 . S
O1079 C1067 1.232 . S
H1080 C1099 0.929 . S
H1081 C1100 0.929 . S
H1082 C1112 0.931 . S
H1083 C1104 0.929 . S
H1084 C1113 0.930 . S
H1085 C1105 0.931 . S
O1086 Co1062 2.097 . S
O1086 C1114 1.214 . S
H1087 C1115 0.929 . S
H1088 C1116 0.929 . S
H1089 C1117 0.930 . S
H1090 C1118 0.929 . S
H1091 C1120 0.930 . S
H1092 C1097 0.930 . S
H1093 C1101 0.930 . S
O1094 Co1063 2.037 . S
O1094 C1114 1.234 . S
C1095 O1069 1.269 . S
C1095 O1070 1.257 . S
C1096 H1071 0.930 . S
C1096 C1099 1.388 . S
C1096 C1101 1.418 . S
C1097 H1092 0.930 . S
C1097 C1100 1.404 . S
C1097 C1101 1.353 . S
N1098 Co1063 2.145 . S
N1098 C1099 1.397 . S
N1098 C1100 1.334 . S
C1099 H1080 0.929 . S
C1099 C1096 1.388 . S
C1099 N1098 1.397 . S
C1100 H1081 0.929 . S
C1100 C1097 1.404 . S
C1100 N1098 1.334 . S
C1101 H1093 0.930 . S
C1101 C1096 1.418 . S
C1101 C1097 1.353 . S
C1102 H1072 0.930 . S
C1102 N1103 1.330 . S
C1102 C1104 1.446 . S
N1103 Co1062 2.151 . S
N1103 C1102 1.330 . S
N1103 C1107 1.418 . S
C1104 H1083 0.929 . S
C1104 C1102 1.446 . S
C1104 C1105 1.332 . S
C1105 H1085 0.931 . S
C1105 C1104 1.332 . S
C1105 C1106 1.267 . S
C1106 H1074 0.929 . S
C1106 C1105 1.267 . S
C1106 C1107 1.251 . S
C1107 H1077 0.929 . S
C1107 N1103 1.418 . S
C1107 C1106 1.251 . S
C1108 H1075 0.930 1_554 S
C1108 C1110 1.406 . S
C1108 C1113 1.261 1_554 S
C1109 H1076 0.930 . S
C1109 N1111 1.325 . S
C1109 C1112 1.357 . S
C1110 H1078 0.928 . S
C1110 C1108 1.406 . S
C1110 N1111 1.261 . S
N1111 Co1062 2.214 . S
N1111 C1109 1.325 . S
N1111 C1110 1.261 . S
C1112 H1082 0.931 . S
C1112 C1109 1.357 . S
C1112 C1113 1.312 1_554 S
C1113 H1084 0.930 . S
C1113 C1108 1.261 1_556 S
C1113 C1112 1.312 1_556 S
C1114 O1086 1.214 . S
C1114 O1094 1.234 . S
C1115 H1087 0.929 . S
C1115 C1118 1.391 . S
C1115 C1120 1.391 . S
C1116 H1088 0.929 . S
C1116 C1117 1.390 . S
C1116 N1119 1.391 . S
C1117 H1089 0.930 . S
C1117 C1116 1.390 . S
C1117 C1118 1.392 . S
C1118 H1090 0.929 . S
C1118 C1115 1.391 . S
C1118 C1117 1.392 . S
N1119 Co1063 2.257 . S
N1119 C1116 1.391 . S
N1119 C1120 1.388 . S
C1120 H1091 0.930 . S
C1120 C1115 1.391 . S
C1120 N1119 1.388 . S
Co1121 O1123 2.143 . S
Co1121 O1129 2.074 . S
Co1121 O1132 2.093 . S
Co1121 O1145 2.097 . S
Co1121 N1162 2.151 . S
Co1121 N1170 2.214 . S
Co1122 O1123 2.160 . S
Co1122 O1128 2.058 . S
Co1122 O1138 2.057 . S
Co1122 O1153 2.037 . S
Co1122 N1157 2.145 . S
Co1122 N1178 2.257 . S
O1123 Co1121 2.143 . S
O1123 Co1122 2.160 . S
C1124 O1125 1.278 . S
C1124 O1132 1.224 . S
O1125 C1124 1.278 . S
C1126 O1127 1.245 . S
C1126 O1138 1.232 . S
O1127 C1126 1.245 . S
O1128 Co1122 2.058 . S
O1128 C1154 1.269 . S
O1129 Co1121 2.074 . S
O1129 C1154 1.257 . S
H1130 C1155 0.930 . S
H1131 C1161 0.930 . S
O1132 Co1121 2.093 . S
O1132 C1124 1.224 . S
H1133 C1165 0.929 . S
H1134 C1167 0.930 . S
H1135 C1168 0.930 . S
H1136 C1166 0.929 . S
H1137 C1169 0.928 . S
O1138 Co1122 2.057 . S
O1138 C1126 1.232 . S
H1139 C1158 0.929 . S
H1140 C1159 0.929 . S
H1141 C1171 0.931 . S
H1142 C1163 0.929 . S
H1143 C1172 0.930 . S
H1144 C1164 0.931 . S
O1145 Co1121 2.097 . S
O1145 C1173 1.214 . S
H1146 C1174 0.929 . S
H1147 C1175 0.929 . S
H1148 C1176 0.930 . S
H1149 C1177 0.929 . S
H1150 C1179 0.930 . S
H1151 C1156 0.930 . S
H1152 C1160 0.930 . S
O1153 Co1122 2.037 . S
O1153 C1173 1.234 . S
C1154 O1128 1.269 . S
C1154 O1129 1.257 . S
C1155 H1130 0.930 . S
C1155 C1158 1.388 1_455 S
C1155 C1160 1.418 . S
C1156 H1151 0.930 . S
C1156 C1159 1.404 . S
C1156 C1160 1.353 1_655 S
N1157 Co1122 2.145 . S
N1157 C1158 1.397 . S
N1157 C1159 1.334 . S
C1158 H1139 0.929 . S
C1158 C1155 1.388 1_655 S
C1158 N1157 1.397 . S
C1159 H1140 0.929 . S
C1159 C1156 1.404 . S
C1159 N1157 1.334 . S
C1160 H1152 0.930 . S
C1160 C1155 1.418 . S
C1160 C1156 1.353 1_455 S
C1161 H1131 0.930 . S
C1161 N1162 1.330 . S
C1161 C1163 1.446 . S
N1162 Co1121 2.151 . S
N1162 C1161 1.330 . S
N1162 C1166 1.418 . S
C1163 H1142 0.929 . S
C1163 C1161 1.446 . S
C1163 C1164 1.332 . S
C1164 H1144 0.931 . S
C1164 C1163 1.332 . S
C1164 C1165 1.267 . S
C1165 H1133 0.929 . S
C1165 C1164 1.267 . S
C1165 C1166 1.251 . S
C1166 H1136 0.929 . S
C1166 N1162 1.418 . S
C1166 C1165 1.251 . S
C1167 H1134 0.930 . S
C1167 C1169 1.406 . S
C1167 C1172 1.261 . S
C1168 H1135 0.930 . S
C1168 N1170 1.325 . S
C1168 C1171 1.357 . S
C1169 H1137 0.928 . S
C1169 C1167 1.406 . S
C1169 N1170 1.261 . S
N1170 Co1121 2.214 . S
N1170 C1168 1.325 . S
N1170 C1169 1.261 . S
C1171 H1141 0.931 . S
C1171 C1168 1.357 . S
C1171 C1172 1.312 . S
C1172 H1143 0.930 . S
C1172 C1167 1.261 . S
C1172 C1171 1.312 . S
C1173 O1145 1.214 . S
C1173 O1153 1.234 . S
C1174 H1146 0.929 . S
C1174 C1177 1.391 . S
C1174 C1179 1.391 . S
C1175 H1147 0.929 . S
C1175 C1176 1.390 . S
C1175 N1178 1.391 . S
C1176 H1148 0.930 . S
C1176 C1175 1.390 . S
C1176 C1177 1.392 . S
C1177 H1149 0.929 . S
C1177 C1174 1.391 . S
C1177 C1176 1.392 . S
N1178 Co1122 2.257 . S
N1178 C1175 1.391 . S
N1178 C1179 1.388 . S
C1179 H1150 0.930 . S
C1179 C1174 1.391 . S
C1179 N1178 1.388 . S
Co1180 O1182 2.143 . S
Co1180 O1188 2.074 1_655 S
Co1180 O1191 2.093 . S
Co1180 O1204 2.097 . S
Co1180 N1221 2.151 . S
Co1180 N1229 2.214 . S
Co1181 O1182 2.160 . S
Co1181 O1187 2.058 1_655 S
Co1181 O1197 2.057 . S
Co1181 O1212 2.037 . S
Co1181 N1216 2.145 . S
Co1181 N1237 2.257 . S
O1182 Co1180 2.143 . S
O1182 Co1181 2.160 . S
C1183 O1184 1.278 . S
C1183 O1191 1.224 . S
O1184 C1183 1.278 . S
C1185 O1186 1.245 . S
C1185 O1197 1.232 . S
O1186 C1185 1.245 . S
O1187 Co1181 2.058 1_455 S
O1187 C1213 1.269 . S
O1188 Co1180 2.074 1_455 S
O1188 C1213 1.257 . S
H1189 C1214 0.930 . S
H1190 C1220 0.930 . S
O1191 Co1180 2.093 . S
O1191 C1183 1.224 . S
H1192 C1224 0.929 . S
H1193 C1226 0.930 1_554 S
H1194 C1227 0.930 . S
H1195 C1225 0.929 . S
H1196 C1228 0.928 . S
O1197 Co1181 2.057 . S
O1197 C1185 1.232 . S
H1198 C1217 0.929 . S
H1199 C1218 0.929 . S
H1200 C1230 0.931 . S
H1201 C1222 0.929 . S
H1202 C1231 0.930 . S
H1203 C1223 0.931 . S
O1204 Co1180 2.097 . S
O1204 C1232 1.214 . S
H1205 C1233 0.929 . S
H1206 C1234 0.929 . S
H1207 C1235 0.930 . S
H1208 C1236 0.929 . S
H1209 C1238 0.930 . S
H1210 C1215 0.930 . S
H1211 C1219 0.930 . S
O1212 Co1181 2.037 . S
O1212 C1232 1.234 . S
C1213 O1187 1.269 . S
C1213 O1188 1.257 . S
C1214 H1189 0.930 . S
C1214 C1217 1.388 . S
C1214 C1219 1.418 . S
C1215 H1210 0.930 . S
C1215 C1218 1.404 . S
C1215 C1219 1.353 . S
N1216 Co1181 2.145 . S
N1216 C1217 1.397 . S
N1216 C1218 1.334 . S
C1217 H1198 0.929 . S
C1217 C1214 1.388 . S
C1217 N1216 1.397 . S
C1218 H1199 0.929 . S
C1218 C1215 1.404 . S
C1218 N1216 1.334 . S
C1219 H1211 0.930 . S
C1219 C1214 1.418 . S
C1219 C1215 1.353 . S
C1220 H1190 0.930 . S
C1220 N1221 1.330 . S
C1220 C1222 1.446 1_655 S
N1221 Co1180 2.151 . S
N1221 C1220 1.330 . S
N1221 C1225 1.418 1_655 S
C1222 H1201 0.929 . S
C1222 C1220 1.446 1_455 S
C1222 C1223 1.332 . S
C1223 H1203 0.931 . S
C1223 C1222 1.332 . S
C1223 C1224 1.267 . S
C1224 H1192 0.929 . S
C1224 C1223 1.267 . S
C1224 C1225 1.251 . S
C1225 H1195 0.929 . S
C1225 N1221 1.418 1_455 S
C1225 C1224 1.251 . S
C1226 H1193 0.930 1_556 S
C1226 C1228 1.406 . S
C1226 C1231 1.261 1_556 S
C1227 H1194 0.930 . S
C1227 N1229 1.325 . S
C1227 C1230 1.357 . S
C1228 H1196 0.928 . S
C1228 C1226 1.406 . S
C1228 N1229 1.261 . S
N1229 Co1180 2.214 . S
N1229 C1227 1.325 . S
N1229 C1228 1.261 . S
C1230 H1200 0.931 . S
C1230 C1227 1.357 . S
C1230 C1231 1.312 1_556 S
C1231 H1202 0.930 . S
C1231 C1226 1.261 1_554 S
C1231 C1230 1.312 1_554 S
C1232 O1204 1.214 . S
C1232 O1212 1.234 . S
C1233 H1205 0.929 . S
C1233 C1236 1.391 . S
C1233 C1238 1.391 . S
C1234 H1206 0.929 . S
C1234 C1235 1.390 . S
C1234 N1237 1.391 . S
C1235 H1207 0.930 . S
C1235 C1234 1.390 . S
C1235 C1236 1.392 . S
C1236 H1208 0.929 . S
C1236 C1233 1.391 . S
C1236 C1235 1.392 . S
N1237 Co1181 2.257 . S
N1237 C1234 1.391 . S
N1237 C1238 1.388 . S
C1238 H1209 0.930 . S
C1238 C1233 1.391 . S
C1238 N1237 1.388 . S
Co1239 O1241 2.143 . S
Co1239 O1247 2.074 . S
Co1239 O1250 2.093 . S
Co1239 O1263 2.097 . S
Co1239 N1280 2.151 . S
Co1239 N1288 2.214 . S
Co1240 O1241 2.160 . S
Co1240 O1246 2.058 . S
Co1240 O1256 2.057 . S
Co1240 O1271 2.037 . S
Co1240 N1275 2.145 . S
Co1240 N1296 2.257 . S
O1241 Co1239 2.143 . S
O1241 Co1240 2.160 . S
C1242 O1243 1.278 . S
C1242 O1250 1.224 . S
O1243 C1242 1.278 . S
C1244 O1245 1.245 . S
C1244 O1256 1.232 . S
O1245 C1244 1.245 . S
O1246 Co1240 2.058 . S
O1246 C1272 1.269 . S
O1247 Co1239 2.074 . S
O1247 C1272 1.257 . S
H1248 C1273 0.930 . S
H1249 C1279 0.930 . S
O1250 Co1239 2.093 . S
O1250 C1242 1.224 . S
H1251 C1283 0.929 . S
H1252 C1285 0.930 . S
H1253 C1286 0.930 . S
H1254 C1284 0.929 . S
H1255 C1287 0.928 . S
O1256 Co1240 2.057 . S
O1256 C1244 1.232 . S
H1257 C1276 0.929 . S
H1258 C1277 0.929 1_556 S
H1259 C1289 0.931 . S
H1260 C1281 0.929 . S
H1261 C1290 0.930 . S
H1262 C1282 0.931 . S
O1263 Co1239 2.097 . S
O1263 C1291 1.214 . S
H1264 C1292 0.929 . S
H1265 C1293 0.929 . S
H1266 C1294 0.930 . S
H1267 C1295 0.929 . S
H1268 C1297 0.930 . S
H1269 C1274 0.930 . S
H1270 C1278 0.932 1_556 S
O1271 Co1240 2.037 . S
O1271 C1291 1.234 . S
C1272 O1246 1.269 . S
C1272 O1247 1.257 . S
C1273 H1248 0.930 . S
C1273 C1276 1.388 1_455 S
C1273 C1278 1.415 . S
C1274 H1269 0.930 . S
C1274 C1277 1.404 1_556 S
C1274 C1278 1.354 1_656 S
N1275 Co1240 2.145 . S
N1275 C1276 1.397 . S
N1275 C1277 1.334 . S
C1276 H1257 0.929 . S
C1276 C1273 1.388 1_655 S
C1276 N1275 1.397 . S
C1277 H1258 0.929 1_554 S
C1277 C1274 1.404 1_554 S
C1277 N1275 1.334 . S
C1278 H1270 0.932 1_554 S
C1278 C1273 1.415 . S
C1278 C1274 1.354 1_454 S
C1279 H1249 0.930 . S
C1279 N1280 1.330 . S
C1279 C1281 1.446 . S
N1280 Co1239 2.151 . S
N1280 C1279 1.330 . S
N1280 C1284 1.418 . S
C1281 H1260 0.929 . S
C1281 C1279 1.446 . S
C1281 C1282 1.332 . S
C1282 H1262 0.931 . S
C1282 C1281 1.332 . S
C1282 C1283 1.267 . S
C1283 H1251 0.929 . S
C1283 C1282 1.267 . S
C1283 C1284 1.251 . S
C1284 H1254 0.929 . S
C1284 N1280 1.418 . S
C1284 C1283 1.251 . S
C1285 H1252 0.930 . S
C1285 C1287 1.406 . S
C1285 C1290 1.261 . S
C1286 H1253 0.930 . S
C1286 N1288 1.325 . S
C1286 C1289 1.357 . S
C1287 H1255 0.928 . S
C1287 C1285 1.406 . S
C1287 N1288 1.261 . S
N1288 Co1239 2.214 . S
N1288 C1286 1.325 . S
N1288 C1287 1.261 . S
C1289 H1259 0.931 . S
C1289 C1286 1.357 . S
C1289 C1290 1.312 . S
C1290 H1261 0.930 . S
C1290 C1285 1.261 . S
C1290 C1289 1.312 . S
C1291 O1263 1.214 . S
C1291 O1271 1.234 . S
C1292 H1264 0.929 . S
C1292 C1295 1.391 . S
C1292 C1297 1.391 . S
C1293 H1265 0.929 . S
C1293 C1294 1.390 . S
C1293 N1296 1.391 . S
C1294 H1266 0.930 . S
C1294 C1293 1.390 . S
C1294 C1295 1.392 . S
C1295 H1267 0.929 . S
C1295 C1292 1.391 . S
C1295 C1294 1.392 . S
N1296 Co1240 2.257 . S
N1296 C1293 1.391 . S
N1296 C1297 1.388 . S
C1297 H1268 0.930 . S
C1297 C1292 1.391 . S
C1297 N1296 1.388 . S
Co1298 O1300 2.143 . S
Co1298 O1306 2.074 . S
Co1298 O1309 2.093 . S
Co1298 O1322 2.097 . S
Co1298 N1339 2.151 . S
Co1298 N1347 2.214 . S
Co1299 O1300 2.160 . S
Co1299 O1305 2.058 . S
Co1299 O1315 2.057 . S
Co1299 O1330 2.037 . S
Co1299 N1334 2.145 . S
Co1299 N1355 2.257 . S
O1300 Co1298 2.143 . S
O1300 Co1299 2.160 . S
C1301 O1302 1.278 . S
C1301 O1309 1.224 . S
O1302 C1301 1.278 . S
C1303 O1304 1.245 . S
C1303 O1315 1.232 . S
O1304 C1303 1.245 . S
O1305 Co1299 2.058 . S
O1305 C1331 1.269 . S
O1306 Co1298 2.074 . S
O1306 C1331 1.257 . S
H1307 C1332 0.930 . S
H1308 C1338 0.930 . S
O1309 Co1298 2.093 . S
O1309 C1301 1.224 . S
H1310 C1342 0.929 . S
H1311 C1344 0.930 . S
H1312 C1345 0.930 . S
H1313 C1343 0.929 . S
H1314 C1346 0.928 . S
O1315 Co1299 2.057 . S
O1315 C1303 1.232 . S
H1316 C1335 0.929 . S
H1317 C1336 0.929 . S
H1318 C1348 0.931 . S
H1319 C1340 0.929 . S
H1320 C1349 0.930 . S
H1321 C1341 0.931 . S
O1322 Co1298 2.097 . S
O1322 C1350 1.214 . S
H1323 C1351 0.929 . S
H1324 C1352 0.929 . S
H1325 C1353 0.930 . S
H1326 C1354 0.929 . S
H1327 C1356 0.930 . S
H1328 C1333 0.930 . S
H1329 C1337 0.930 . S
O1330 Co1299 2.037 . S
O1330 C1350 1.234 . S
C1331 O1305 1.269 . S
C1331 O1306 1.257 . S
C1332 H1307 0.930 . S
C1332 C1335 1.388 . S
C1332 C1337 1.418 . S
C1333 H1328 0.930 . S
C1333 C1336 1.404 . S
C1333 C1337 1.353 . S
N1334 Co1299 2.145 . S
N1334 C1335 1.397 . S
N1334 C1336 1.334 . S
C1335 H1316 0.929 . S
C1335 C1332 1.388 . S
C1335 N1334 1.397 . S
C1336 H1317 0.929 . S
C1336 C1333 1.404 . S
C1336 N1334 1.334 . S
C1337 H1329 0.930 . S
C1337 C1332 1.418 . S
C1337 C1333 1.353 . S
C1338 H1308 0.930 . S
C1338 N1339 1.330 . S
C1338 C1340 1.446 . S
N1339 Co1298 2.151 . S
N1339 C1338 1.330 . S
N1339 C1343 1.418 . S
C1340 H1319 0.929 . S
C1340 C1338 1.446 . S
C1340 C1341 1.332 . S
C1341 H1321 0.931 . S
C1341 C1340 1.332 . S
C1341 C1342 1.267 . S
C1342 H1310 0.929 . S
C1342 C1341 1.267 . S
C1342 C1343 1.251 . S
C1343 H1313 0.929 . S
C1343 N1339 1.418 . S
C1343 C1342 1.251 . S
C1344 H1311 0.930 . S
C1344 C1346 1.406 . S
C1344 C1349 1.261 . S
C1345 H1312 0.930 . S
C1345 N1347 1.325 . S
C1345 C1348 1.357 . S
C1346 H1314 0.928 . S
C1346 C1344 1.406 . S
C1346 N1347 1.261 . S
N1347 Co1298 2.214 . S
N1347 C1345 1.325 . S
N1347 C1346 1.261 . S
C1348 H1318 0.931 . S
C1348 C1345 1.357 . S
C1348 C1349 1.312 . S
C1349 H1320 0.930 . S
C1349 C1344 1.261 . S
C1349 C1348 1.312 . S
C1350 O1322 1.214 . S
C1350 O1330 1.234 . S
C1351 H1323 0.929 . S
C1351 C1354 1.391 . S
C1351 C1356 1.391 . S
C1352 H1324 0.929 . S
C1352 C1353 1.390 . S
C1352 N1355 1.391 . S
C1353 H1325 0.930 . S
C1353 C1352 1.390 . S
C1353 C1354 1.392 . S
C1354 H1326 0.929 . S
C1354 C1351 1.391 . S
C1354 C1353 1.392 . S
N1355 Co1299 2.257 . S
N1355 C1352 1.391 . S
N1355 C1356 1.388 . S
C1356 H1327 0.930 . S
C1356 C1351 1.391 . S
C1356 N1355 1.388 . S
Co1357 O1359 2.143 . S
Co1357 O1365 2.074 . S
Co1357 O1368 2.093 . S
Co1357 O1381 2.097 . S
Co1357 N1398 2.151 . S
Co1357 N1406 2.214 . S
Co1358 O1359 2.160 . S
Co1358 O1364 2.058 . S
Co1358 O1374 2.057 . S
Co1358 O1389 2.037 . S
Co1358 N1393 2.145 . S
Co1358 N1414 2.257 . S
O1359 Co1357 2.143 . S
O1359 Co1358 2.160 . S
C1360 O1361 1.278 . S
C1360 O1368 1.224 . S
O1361 C1360 1.278 . S
C1362 O1363 1.245 . S
C1362 O1374 1.232 . S
O1363 C1362 1.245 . S
O1364 Co1358 2.058 . S
O1364 C1390 1.269 . S
O1365 Co1357 2.074 . S
O1365 C1390 1.257 . S
H1366 C1391 0.930 . S
H1367 C1397 0.930 . S
O1368 Co1357 2.093 . S
O1368 C1360 1.224 . S
H1369 C1401 0.929 . S
H1370 C1403 0.930 . S
H1371 C1404 0.930 . S
H1372 C1402 0.929 . S
H1373 C1405 0.928 . S
O1374 Co1358 2.057 . S
O1374 C1362 1.232 . S
H1375 C1394 0.929 . S
H1376 C1395 0.929 . S
H1377 C1407 0.931 . S
H1378 C1399 0.929 . S
H1379 C1408 0.930 . S
H1380 C1400 0.931 . S
O1381 Co1357 2.097 . S
O1381 C1409 1.214 . S
H1382 C1410 0.929 . S
H1383 C1411 0.929 . S
H1384 C1412 0.930 . S
H1385 C1413 0.929 . S
H1386 C1415 0.930 . S
H1387 C1392 0.930 . S
H1388 C1396 0.930 . S
O1389 Co1358 2.037 . S
O1389 C1409 1.234 . S
C1390 O1364 1.269 . S
C1390 O1365 1.257 . S
C1391 H1366 0.930 . S
C1391 C1394 1.388 . S
C1391 C1396 1.418 . S
C1392 H1387 0.930 . S
C1392 C1395 1.404 . S
C1392 C1396 1.353 . S
N1393 Co1358 2.145 . S
N1393 C1394 1.397 . S
N1393 C1395 1.334 . S
C1394 H1375 0.929 . S
C1394 C1391 1.388 . S
C1394 N1393 1.397 . S
C1395 H1376 0.929 . S
C1395 C1392 1.404 . S
C1395 N1393 1.334 . S
C1396 H1388 0.930 . S
C1396 C1391 1.418 . S
C1396 C1392 1.353 . S
C1397 H1367 0.930 . S
C1397 N1398 1.330 . S
C1397 C1399 1.446 . S
N1398 Co1357 2.151 . S
N1398 C1397 1.330 . S
N1398 C1402 1.418 . S
C1399 H1378 0.929 . S
C1399 C1397 1.446 . S
C1399 C1400 1.332 . S
C1400 H1380 0.931 . S
C1400 C1399 1.332 . S
C1400 C1401 1.267 . S
C1401 H1369 0.929 . S
C1401 C1400 1.267 . S
C1401 C1402 1.251 . S
C1402 H1372 0.929 . S
C1402 N1398 1.418 . S
C1402 C1401 1.251 . S
C1403 H1370 0.930 . S
C1403 C1405 1.406 . S
C1403 C1408 1.261 . S
C1404 H1371 0.930 . S
C1404 N1406 1.325 . S
C1404 C1407 1.357 . S
C1405 H1373 0.928 . S
C1405 C1403 1.406 . S
C1405 N1406 1.261 . S
N1406 Co1357 2.214 . S
N1406 C1404 1.325 . S
N1406 C1405 1.261 . S
C1407 H1377 0.931 . S
C1407 C1404 1.357 . S
C1407 C1408 1.312 . S
C1408 H1379 0.930 . S
C1408 C1403 1.261 . S
C1408 C1407 1.312 . S
C1409 O1381 1.214 . S
C1409 O1389 1.234 . S
C1410 H1382 0.929 . S
C1410 C1413 1.391 . S
C1410 C1415 1.391 . S
C1411 H1383 0.929 . S
C1411 C1412 1.390 . S
C1411 N1414 1.391 . S
C1412 H1384 0.930 . S
C1412 C1411 1.390 . S
C1412 C1413 1.392 . S
C1413 H1385 0.929 . S
C1413 C1410 1.391 . S
C1413 C1412 1.392 . S
N1414 Co1358 2.257 . S
N1414 C1411 1.391 . S
N1414 C1415 1.388 . S
C1415 H1386 0.930 . S
C1415 C1410 1.391 . S
C1415 N1414 1.388 . S
Co1416 O1418 2.143 . S
Co1416 O1424 2.074 1_455 S
Co1416 O1427 2.093 . S
Co1416 O1440 2.097 . S
Co1416 N1457 2.151 . S
Co1416 N1465 2.214 . S
Co1417 O1418 2.160 . S
Co1417 O1423 2.058 1_455 S
Co1417 O1433 2.057 . S
Co1417 O1448 2.037 . S
Co1417 N1452 2.145 . S
Co1417 N1473 2.257 . S
O1418 Co1416 2.143 . S
O1418 Co1417 2.160 . S
C1419 O1420 1.278 . S
C1419 O1427 1.224 . S
O1420 C1419 1.278 . S
C1421 O1422 1.245 . S
C1421 O1433 1.232 . S
O1422 C1421 1.245 . S
O1423 Co1417 2.058 1_655 S
O1423 C1449 1.269 . S
O1424 Co1416 2.074 1_655 S
O1424 C1449 1.257 . S
H1425 C1450 0.930 . S
H1426 C1456 0.930 . S
O1427 Co1416 2.093 . S
O1427 C1419 1.224 . S
H1428 C1460 0.929 . S
H1429 C1462 0.930 . S
H1430 C1463 0.930 . S
H1431 C1461 0.929 . S
H1432 C1464 0.928 . S
O1433 Co1417 2.057 . S
O1433 C1421 1.232 . S
H1434 C1453 0.929 . S
H1435 C1454 0.929 . S
H1436 C1466 0.931 . S
H1437 C1458 0.929 . S
H1438 C1467 0.930 . S
H1439 C1459 0.931 . S
O1440 Co1416 2.097 . S
O1440 C1468 1.214 . S
H1441 C1469 0.929 . S
H1442 C1470 0.929 . S
H1443 C1471 0.930 . S
H1444 C1472 0.929 . S
H1445 C1474 0.930 . S
H1446 C1451 0.930 . S
H1447 C1455 0.930 . S
O1448 Co1417 2.037 . S
O1448 C1468 1.234 . S
C1449 O1423 1.269 . S
C1449 O1424 1.257 . S
C1450 H1425 0.930 . S
C1450 C1453 1.388 . S
C1450 C1455 1.418 . S
C1451 H1446 0.930 . S
C1451 C1454 1.404 . S
C1451 C1455 1.353 . S
N1452 Co1417 2.145 . S
N1452 C1453 1.397 . S
N1452 C1454 1.334 . S
C1453 H1434 0.929 . S
C1453 C1450 1.388 . S
C1453 N1452 1.397 . S
C1454 H1435 0.929 . S
C1454 C1451 1.404 . S
C1454 N1452 1.334 . S
C1455 H1447 0.930 . S
C1455 C1450 1.418 . S
C1455 C1451 1.353 . S
C1456 H1426 0.930 . S
C1456 N1457 1.330 . S
C1456 C1458 1.446 1_455 S
N1457 Co1416 2.151 . S
N1457 C1456 1.330 . S
N1457 C1461 1.418 1_455 S
C1458 H1437 0.929 . S
C1458 C1456 1.446 1_655 S
C1458 C1459 1.332 . S
C1459 H1439 0.931 . S
C1459 C1458 1.332 . S
C1459 C1460 1.267 . S
C1460 H1428 0.929 . S
C1460 C1459 1.267 . S
C1460 C1461 1.251 . S
C1461 H1431 0.929 . S
C1461 N1457 1.418 1_655 S
C1461 C1460 1.251 . S
C1462 H1429 0.930 . S
C1462 C1464 1.406 . S
C1462 C1467 1.261 . S
C1463 H1430 0.930 . S
C1463 N1465 1.325 . S
C1463 C1466 1.357 . S
C1464 H1432 0.928 . S
C1464 C1462 1.406 . S
C1464 N1465 1.261 . S
N1465 Co1416 2.214 . S
N1465 C1463 1.325 . S
N1465 C1464 1.261 . S
C1466 H1436 0.931 . S
C1466 C1463 1.357 . S
C1466 C1467 1.312 . S
C1467 H1438 0.930 . S
C1467 C1462 1.261 . S
C1467 C1466 1.312 . S
C1468 O1440 1.214 . S
C1468 O1448 1.234 . S
C1469 H1441 0.929 . S
C1469 C1472 1.391 . S
C1469 C1474 1.391 . S
C1470 H1442 0.929 . S
C1470 C1471 1.390 . S
C1470 N1473 1.391 . S
C1471 H1443 0.930 . S
C1471 C1470 1.390 . S
C1471 C1472 1.392 . S
C1472 H1444 0.929 . S
C1472 C1469 1.391 . S
C1472 C1471 1.392 . S
N1473 Co1417 2.257 . S
N1473 C1470 1.391 . S
N1473 C1474 1.388 . S
C1474 H1445 0.930 . S
C1474 C1469 1.391 . S
C1474 N1473 1.388 . S
Co1475 O1477 2.143 . S
Co1475 O1483 2.074 . S
Co1475 O1486 2.093 . S
Co1475 O1499 2.097 . S
Co1475 N1516 2.151 . S
Co1475 N1524 2.214 . S
Co1476 O1477 2.160 . S
Co1476 O1482 2.058 . S
Co1476 O1492 2.057 . S
Co1476 O1507 2.037 . S
Co1476 N1511 2.145 . S
Co1476 N1532 2.257 . S
O1477 Co1475 2.143 . S
O1477 Co1476 2.160 . S
C1478 O1479 1.278 . S
C1478 O1486 1.224 . S
O1479 C1478 1.278 . S
C1480 O1481 1.245 . S
C1480 O1492 1.232 . S
O1481 C1480 1.245 . S
O1482 Co1476 2.058 . S
O1482 C1508 1.269 . S
O1483 Co1475 2.074 . S
O1483 C1508 1.257 . S
H1484 C1509 0.930 . S
H1485 C1515 0.930 . S
O1486 Co1475 2.093 . S
O1486 C1478 1.224 . S
H1487 C1519 0.929 . S
H1488 C1521 0.930 . S
H1489 C1522 0.930 . S
H1490 C1520 0.929 . S
H1491 C1523 0.928 . S
O1492 Co1476 2.057 . S
O1492 C1480 1.232 . S
H1493 C1512 0.929 . S
H1494 C1513 0.929 1_556 S
H1495 C1525 0.931 . S
H1496 C1517 0.929 . S
H1497 C1526 0.930 . S
H1498 C1518 0.931 . S
O1499 Co1475 2.097 . S
O1499 C1527 1.214 . S
H1500 C1528 0.929 . S
H1501 C1529 0.929 . S
H1502 C1530 0.930 . S
H1503 C1531 0.929 . S
H1504 C1533 0.930 . S
H1505 C1510 0.930 . S
H1506 C1514 0.932 1_556 S
O1507 Co1476 2.037 . S
O1507 C1527 1.234 . S
C1508 O1482 1.269 . S
C1508 O1483 1.257 . S
C1509 H1484 0.930 . S
C1509 C1512 1.388 . S
C1509 C1514 1.415 . S
C1510 H1505 0.930 . S
C1510 C1513 1.404 1_556 S
C1510 C1514 1.354 1_556 S
N1511 Co1476 2.145 . S
N1511 C1512 1.397 . S
N1511 C1513 1.334 . S
C1512 H1493 0.929 . S
C1512 C1509 1.388 . S
C1512 N1511 1.397 . S
C1513 H1494 0.929 1_554 S
C1513 C1510 1.404 1_554 S
C1513 N1511 1.334 . S
C1514 H1506 0.932 1_554 S
C1514 C1509 1.415 . S
C1514 C1510 1.354 1_554 S
C1515 H1485 0.930 . S
C1515 N1516 1.330 . S
C1515 C1517 1.446 . S
N1516 Co1475 2.151 . S
N1516 C1515 1.330 . S
N1516 C1520 1.418 . S
C1517 H1496 0.929 . S
C1517 C1515 1.446 . S
C1517 C1518 1.332 . S
C1518 H1498 0.931 . S
C1518 C1517 1.332 . S
C1518 C1519 1.267 . S
C1519 H1487 0.929 . S
C1519 C1518 1.267 . S
C1519 C1520 1.251 . S
C1520 H1490 0.929 . S
C1520 N1516 1.418 . S
C1520 C1519 1.251 . S
C1521 H1488 0.930 . S
C1521 C1523 1.406 . S
C1521 C1526 1.261 . S
C1522 H1489 0.930 . S
C1522 N1524 1.325 . S
C1522 C1525 1.357 . S
C1523 H1491 0.928 . S
C1523 C1521 1.406 . S
C1523 N1524 1.261 . S
N1524 Co1475 2.214 . S
N1524 C1522 1.325 . S
N1524 C1523 1.261 . S
C1525 H1495 0.931 . S
C1525 C1522 1.357 . S
C1525 C1526 1.312 . S
C1526 H1497 0.930 . S
C1526 C1521 1.261 . S
C1526 C1525 1.312 . S
C1527 O1499 1.214 . S
C1527 O1507 1.234 . S
C1528 H1500 0.929 . S
C1528 C1531 1.391 . S
C1528 C1533 1.391 . S
C1529 H1501 0.929 . S
C1529 C1530 1.390 . S
C1529 N1532 1.391 . S
C1530 H1502 0.930 . S
C1530 C1529 1.390 . S
C1530 C1531 1.392 . S
C1531 H1503 0.929 . S
C1531 C1528 1.391 . S
C1531 C1530 1.392 . S
N1532 Co1476 2.257 . S
N1532 C1529 1.391 . S
N1532 C1533 1.388 . S
C1533 H1504 0.930 . S
C1533 C1528 1.391 . S
C1533 N1532 1.388 . S
Co1534 O1536 2.143 . S
Co1534 O1542 2.074 . S
Co1534 O1545 2.093 . S
Co1534 O1558 2.097 . S
Co1534 N1575 2.151 . S
Co1534 N1583 2.214 . S
Co1535 O1536 2.160 . S
Co1535 O1541 2.058 . S
Co1535 O1551 2.057 . S
Co1535 O1566 2.037 . S
Co1535 N1570 2.145 . S
Co1535 N1591 2.257 . S
O1536 Co1534 2.143 . S
O1536 Co1535 2.160 . S
C1537 O1538 1.278 . S
C1537 O1545 1.224 . S
O1538 C1537 1.278 . S
C1539 O1540 1.245 . S
C1539 O1551 1.232 . S
O1540 C1539 1.245 . S
O1541 Co1535 2.058 . S
O1541 C1567 1.269 . S
O1542 Co1534 2.074 . S
O1542 C1567 1.257 . S
H1543 C1568 0.930 . S
H1544 C1574 0.930 . S
O1545 Co1534 2.093 . S
O1545 C1537 1.224 . S
H1546 C1578 0.929 . S
H1547 C1580 0.930 1_554 S
H1548 C1581 0.930 . S
H1549 C1579 0.929 . S
H1550 C1582 0.928 . S
O1551 Co1535 2.057 . S
O1551 C1539 1.232 . S
H1552 C1571 0.929 . S
H1553 C1572 0.929 . S
H1554 C1584 0.931 . S
H1555 C1576 0.929 . S
H1556 C1585 0.930 . S
H1557 C1577 0.931 . S
O1558 Co1534 2.097 . S
O1558 C1586 1.214 . S
H1559 C1587 0.929 . S
H1560 C1588 0.929 . S
H1561 C1589 0.930 . S
H1562 C1590 0.929 . S
H1563 C1592 0.930 . S
H1564 C1569 0.930 . S
H1565 C1573 0.930 . S
O1566 Co1535 2.037 . S
O1566 C1586 1.234 . S
C1567 O1541 1.269 . S
C1567 O1542 1.257 . S
C1568 H1543 0.930 . S
C1568 C1571 1.388 . S
C1568 C1573 1.418 . S
C1569 H1564 0.930 . S
C1569 C1572 1.404 . S
C1569 C1573 1.353 . S
N1570 Co1535 2.145 . S
N1570 C1571 1.397 . S
N1570 C1572 1.334 . S
C1571 H1552 0.929 . S
C1571 C1568 1.388 . S
C1571 N1570 1.397 . S
C1572 H1553 0.929 . S
C1572 C1569 1.404 . S
C1572 N1570 1.334 . S
C1573 H1565 0.930 . S
C1573 C1568 1.418 . S
C1573 C1569 1.353 . S
C1574 H1544 0.930 . S
C1574 N1575 1.330 . S
C1574 C1576 1.446 . S
N1575 Co1534 2.151 . S
N1575 C1574 1.330 . S
N1575 C1579 1.418 . S
C1576 H1555 0.929 . S
C1576 C1574 1.446 . S
C1576 C1577 1.332 . S
C1577 H1557 0.931 . S
C1577 C1576 1.332 . S
C1577 C1578 1.267 . S
C1578 H1546 0.929 . S
C1578 C1577 1.267 . S
C1578 C1579 1.251 . S
C1579 H1549 0.929 . S
C1579 N1575 1.418 . S
C1579 C1578 1.251 . S
C1580 H1547 0.930 1_556 S
C1580 C1582 1.406 . S
C1580 C1585 1.261 1_556 S
C1581 H1548 0.930 . S
C1581 N1583 1.325 . S
C1581 C1584 1.357 . S
C1582 H1550 0.928 . S
C1582 C1580 1.406 . S
C1582 N1583 1.261 . S
N1583 Co1534 2.214 . S
N1583 C1581 1.325 . S
N1583 C1582 1.261 . S
C1584 H1554 0.931 . S
C1584 C1581 1.357 . S
C1584 C1585 1.312 1_556 S
C1585 H1556 0.930 . S
C1585 C1580 1.261 1_554 S
C1585 C1584 1.312 1_554 S
C1586 O1558 1.214 . S
C1586 O1566 1.234 . S
C1587 H1559 0.929 . S
C1587 C1590 1.391 . S
C1587 C1592 1.391 . S
C1588 H1560 0.929 . S
C1588 C1589 1.390 . S
C1588 N1591 1.391 . S
C1589 H1561 0.930 . S
C1589 C1588 1.390 . S
C1589 C1590 1.392 . S
C1590 H1562 0.929 . S
C1590 C1587 1.391 . S
C1590 C1589 1.392 . S
N1591 Co1535 2.257 . S
N1591 C1588 1.391 . S
N1591 C1592 1.388 . S
C1592 H1563 0.930 . S
C1592 C1587 1.391 . S
C1592 N1591 1.388 . S
Co1593 O1595 2.143 . S
Co1593 O1601 2.074 . S
Co1593 O1604 2.093 . S
Co1593 O1617 2.097 . S
Co1593 N1634 2.151 . S
Co1593 N1642 2.214 . S
Co1594 O1595 2.160 . S
Co1594 O1600 2.058 . S
Co1594 O1610 2.057 . S
Co1594 O1625 2.037 . S
Co1594 N1629 2.145 . S
Co1594 N1650 2.257 . S
O1595 Co1593 2.143 . S
O1595 Co1594 2.160 . S
C1596 O1597 1.278 . S
C1596 O1604 1.224 . S
O1597 C1596 1.278 . S
C1598 O1599 1.245 . S
C1598 O1610 1.232 . S
O1599 C1598 1.245 . S
O1600 Co1594 2.058 . S
O1600 C1626 1.269 . S
O1601 Co1593 2.074 . S
O1601 C1626 1.257 . S
H1602 C1627 0.930 . S
H1603 C1633 0.930 . S
O1604 Co1593 2.093 . S
O1604 C1596 1.224 . S
H1605 C1637 0.929 . S
H1606 C1639 0.930 . S
H1607 C1640 0.930 . S
H1608 C1638 0.929 . S
H1609 C1641 0.928 . S
O1610 Co1594 2.057 . S
O1610 C1598 1.232 . S
H1611 C1630 0.929 . S
H1612 C1631 0.929 . S
H1613 C1643 0.931 . S
H1614 C1635 0.929 . S
H1615 C1644 0.930 . S
H1616 C1636 0.931 . S
O1617 Co1593 2.097 . S
O1617 C1645 1.214 . S
H1618 C1646 0.929 . S
H1619 C1647 0.929 . S
H1620 C1648 0.930 . S
H1621 C1649 0.929 . S
H1622 C1651 0.930 . S
H1623 C1628 0.930 . S
H1624 C1632 0.930 . S
O1625 Co1594 2.037 . S
O1625 C1645 1.234 . S
C1626 O1600 1.269 . S
C1626 O1601 1.257 . S
C1627 H1602 0.930 . S
C1627 C1630 1.388 1_655 S
C1627 C1632 1.418 . S
C1628 H1623 0.930 . S
C1628 C1631 1.404 . S
C1628 C1632 1.353 1_455 S
N1629 Co1594 2.145 . S
N1629 C1630 1.397 . S
N1629 C1631 1.334 . S
C1630 H1611 0.929 . S
C1630 C1627 1.388 1_455 S
C1630 N1629 1.397 . S
C1631 H1612 0.929 . S
C1631 C1628 1.404 . S
C1631 N1629 1.334 . S
C1632 H1624 0.930 . S
C1632 C1627 1.418 . S
C1632 C1628 1.353 1_655 S
C1633 H1603 0.930 . S
C1633 N1634 1.330 . S
C1633 C1635 1.446 . S
N1634 Co1593 2.151 . S
N1634 C1633 1.330 . S
N1634 C1638 1.418 . S
C1635 H1614 0.929 . S
C1635 C1633 1.446 . S
C1635 C1636 1.332 . S
C1636 H1616 0.931 . S
C1636 C1635 1.332 . S
C1636 C1637 1.267 . S
C1637 H1605 0.929 . S
C1637 C1636 1.267 . S
C1637 C1638 1.251 . S
C1638 H1608 0.929 . S
C1638 N1634 1.418 . S
C1638 C1637 1.251 . S
C1639 H1606 0.930 . S
C1639 C1641 1.406 . S
C1639 C1644 1.261 . S
C1640 H1607 0.930 . S
C1640 N1642 1.325 . S
C1640 C1643 1.357 . S
C1641 H1609 0.928 . S
C1641 C1639 1.406 . S
C1641 N1642 1.261 . S
N1642 Co1593 2.214 . S
N1642 C1640 1.325 . S
N1642 C1641 1.261 . S
C1643 H1613 0.931 . S
C1643 C1640 1.357 . S
C1643 C1644 1.312 . S
C1644 H1615 0.930 . S
C1644 C1639 1.261 . S
C1644 C1643 1.312 . S
C1645 O1617 1.214 . S
C1645 O1625 1.234 . S
C1646 H1618 0.929 . S
C1646 C1649 1.391 . S
C1646 C1651 1.391 . S
C1647 H1619 0.929 . S
C1647 C1648 1.390 . S
C1647 N1650 1.391 . S
C1648 H1620 0.930 . S
C1648 C1647 1.390 . S
C1648 C1649 1.392 . S
C1649 H1621 0.929 . S
C1649 C1646 1.391 . S
C1649 C1648 1.392 . S
N1650 Co1594 2.257 . S
N1650 C1647 1.391 . S
N1650 C1651 1.388 . S
C1651 H1622 0.930 . S
C1651 C1646 1.391 . S
C1651 N1650 1.388 . S
Co1652 O1654 2.143 . S
Co1652 O1660 2.074 1_455 S
Co1652 O1663 2.093 . S
Co1652 O1676 2.097 . S
Co1652 N1693 2.151 . S
Co1652 N1701 2.214 . S
Co1653 O1654 2.160 . S
Co1653 O1659 2.058 1_455 S
Co1653 O1669 2.057 . S
Co1653 O1684 2.037 . S
Co1653 N1688 2.145 . S
Co1653 N1709 2.257 . S
O1654 Co1652 2.143 . S
O1654 Co1653 2.160 . S
C1655 O1656 1.278 . S
C1655 O1663 1.224 . S
O1656 C1655 1.278 . S
C1657 O1658 1.245 . S
C1657 O1669 1.232 . S
O1658 C1657 1.245 . S
O1659 Co1653 2.058 1_655 S
O1659 C1685 1.269 . S
O1660 Co1652 2.074 1_655 S
O1660 C1685 1.257 . S
H1661 C1686 0.930 . S
H1662 C1692 0.930 . S
O1663 Co1652 2.093 . S
O1663 C1655 1.224 . S
H1664 C1696 0.929 . S
H1665 C1698 0.930 1_556 S
H1666 C1699 0.930 . S
H1667 C1697 0.929 . S
H1668 C1700 0.928 . S
O1669 Co1653 2.057 . S
O1669 C1657 1.232 . S
H1670 C1689 0.929 . S
H1671 C1690 0.929 . S
H1672 C1702 0.931 . S
H1673 C1694 0.929 . S
H1674 C1703 0.930 . S
H1675 C1695 0.931 . S
O1676 Co1652 2.097 . S
O1676 C1704 1.214 . S
H1677 C1705 0.929 . S
H1678 C1706 0.929 . S
H1679 C1707 0.930 . S
H1680 C1708 0.929 . S
H1681 C1710 0.930 . S
H1682 C1687 0.930 . S
H1683 C1691 0.930 . S
O1684 Co1653 2.037 . S
O1684 C1704 1.234 . S
C1685 O1659 1.269 . S
C1685 O1660 1.257 . S
C1686 H1661 0.930 . S
C1686 C1689 1.388 . S
C1686 C1691 1.418 . S
C1687 H1682 0.930 . S
C1687 C1690 1.404 . S
C1687 C1691 1.353 . S
N1688 Co1653 2.145 . S
N1688 C1689 1.397 . S
N1688 C1690 1.334 . S
C1689 H1670 0.929 . S
C1689 C1686 1.388 . S
C1689 N1688 1.397 . S
C1690 H1671 0.929 . S
C1690 C1687 1.404 . S
C1690 N1688 1.334 . S
C1691 H1683 0.930 . S
C1691 C1686 1.418 . S
C1691 C1687 1.353 . S
C1692 H1662 0.930 . S
C1692 N1693 1.330 . S
C1692 C1694 1.446 1_455 S
N1693 Co1652 2.151 . S
N1693 C1692 1.330 . S
N1693 C1697 1.418 1_455 S
C1694 H1673 0.929 . S
C1694 C1692 1.446 1_655 S
C1694 C1695 1.332 . S
C1695 H1675 0.931 . S
C1695 C1694 1.332 . S
C1695 C1696 1.267 . S
C1696 H1664 0.929 . S
C1696 C1695 1.267 . S
C1696 C1697 1.251 . S
C1697 H1667 0.929 . S
C1697 N1693 1.418 1_655 S
C1697 C1696 1.251 . S
C1698 H1665 0.930 1_554 S
C1698 C1700 1.406 . S
C1698 C1703 1.261 1_554 S
C1699 H1666 0.930 . S
C1699 N1701 1.325 . S
C1699 C1702 1.357 . S
C1700 H1668 0.928 . S
C1700 C1698 1.406 . S
C1700 N1701 1.261 . S
N1701 Co1652 2.214 . S
N1701 C1699 1.325 . S
N1701 C1700 1.261 . S
C1702 H1672 0.931 . S
C1702 C1699 1.357 . S
C1702 C1703 1.312 1_554 S
C1703 H1674 0.930 . S
C1703 C1698 1.261 1_556 S
C1703 C1702 1.312 1_556 S
C1704 O1676 1.214 . S
C1704 O1684 1.234 . S
C1705 H1677 0.929 . S
C1705 C1708 1.391 . S
C1705 C1710 1.391 . S
C1706 H1678 0.929 . S
C1706 C1707 1.390 . S
C1706 N1709 1.391 . S
C1707 H1679 0.930 . S
C1707 C1706 1.390 . S
C1707 C1708 1.392 . S
C1708 H1680 0.929 . S
C1708 C1705 1.391 . S
C1708 C1707 1.392 . S
N1709 Co1653 2.257 . S
N1709 C1706 1.391 . S
N1709 C1710 1.388 . S
C1710 H1681 0.930 . S
C1710 C1705 1.391 . S
C1710 N1709 1.388 . S
Co1711 O1713 2.143 . S
Co1711 O1719 2.074 . S
Co1711 O1722 2.093 . S
Co1711 O1735 2.097 . S
Co1711 N1752 2.151 . S
Co1711 N1760 2.214 . S
Co1712 O1713 2.160 . S
Co1712 O1718 2.058 . S
Co1712 O1728 2.057 . S
Co1712 O1743 2.037 . S
Co1712 N1747 2.145 . S
Co1712 N1768 2.257 . S
O1713 Co1711 2.143 . S
O1713 Co1712 2.160 . S
C1714 O1715 1.278 . S
C1714 O1722 1.224 . S
O1715 C1714 1.278 . S
C1716 O1717 1.245 . S
C1716 O1728 1.232 . S
O1717 C1716 1.245 . S
O1718 Co1712 2.058 . S
O1718 C1744 1.269 . S
O1719 Co1711 2.074 . S
O1719 C1744 1.257 . S
H1720 C1745 0.930 . S
H1721 C1751 0.930 . S
O1722 Co1711 2.093 . S
O1722 C1714 1.224 . S
H1723 C1755 0.929 . S
H1724 C1757 0.930 . S
H1725 C1758 0.930 . S
H1726 C1756 0.929 . S
H1727 C1759 0.928 . S
O1728 Co1712 2.057 . S
O1728 C1716 1.232 . S
H1729 C1748 0.929 . S
H1730 C1749 0.929 1_554 S
H1731 C1761 0.931 . S
H1732 C1753 0.929 . S
H1733 C1762 0.930 . S
H1734 C1754 0.931 . S
O1735 Co1711 2.097 . S
O1735 C1763 1.214 . S
H1736 C1764 0.929 . S
H1737 C1765 0.929 . S
H1738 C1766 0.930 . S
H1739 C1767 0.929 . S
H1740 C1769 0.930 . S
H1741 C1746 0.930 . S
H1742 C1750 0.932 1_554 S
O1743 Co1712 2.037 . S
O1743 C1763 1.234 . S
C1744 O1718 1.269 . S
C1744 O1719 1.257 . S
C1745 H1720 0.930 . S
C1745 C1748 1.388 1_655 S
C1745 C1750 1.415 . S
C1746 H1741 0.930 . S
C1746 C1749 1.404 1_554 S
C1746 C1750 1.354 1_454 S
N1747 Co1712 2.145 . S
N1747 C1748 1.397 . S
N1747 C1749 1.334 . S
C1748 H1729 0.929 . S
C1748 C1745 1.388 1_455 S
C1748 N1747 1.397 . S
C1749 H1730 0.929 1_556 S
C1749 C1746 1.404 1_556 S
C1749 N1747 1.334 . S
C1750 H1742 0.932 1_556 S
C1750 C1745 1.415 . S
C1750 C1746 1.354 1_656 S
C1751 H1721 0.930 . S
C1751 N1752 1.330 . S
C1751 C1753 1.446 . S
N1752 Co1711 2.151 . S
N1752 C1751 1.330 . S
N1752 C1756 1.418 . S
C1753 H1732 0.929 . S
C1753 C1751 1.446 . S
C1753 C1754 1.332 . S
C1754 H1734 0.931 . S
C1754 C1753 1.332 . S
C1754 C1755 1.267 . S
C1755 H1723 0.929 . S
C1755 C1754 1.267 . S
C1755 C1756 1.251 . S
C1756 H1726 0.929 . S
C1756 N1752 1.418 . S
C1756 C1755 1.251 . S
C1757 H1724 0.930 . S
C1757 C1759 1.406 . S
C1757 C1762 1.261 . S
C1758 H1725 0.930 . S
C1758 N1760 1.325 . S
C1758 C1761 1.357 . S
C1759 H1727 0.928 . S
C1759 C1757 1.406 . S
C1759 N1760 1.261 . S
N1760 Co1711 2.214 . S
N1760 C1758 1.325 . S
N1760 C1759 1.261 . S
C1761 H1731 0.931 . S
C1761 C1758 1.357 . S
C1761 C1762 1.312 . S
C1762 H1733 0.930 . S
C1762 C1757 1.261 . S
C1762 C1761 1.312 . S
C1763 O1735 1.214 . S
C1763 O1743 1.234 . S
C1764 H1736 0.929 . S
C1764 C1767 1.391 . S
C1764 C1769 1.391 . S
C1765 H1737 0.929 . S
C1765 C1766 1.390 . S
C1765 N1768 1.391 . S
C1766 H1738 0.930 . S
C1766 C1765 1.390 . S
C1766 C1767 1.392 . S
C1767 H1739 0.929 . S
C1767 C1764 1.391 . S
C1767 C1766 1.392 . S
N1768 Co1712 2.257 . S
N1768 C1765 1.391 . S
N1768 C1769 1.388 . S
C1769 H1740 0.930 . S
C1769 C1764 1.391 . S
C1769 N1768 1.388 . S
Co1770 O1772 2.143 . S
Co1770 O1778 2.074 . S
Co1770 O1781 2.093 . S
Co1770 O1794 2.097 . S
Co1770 N1811 2.151 . S
Co1770 N1819 2.214 . S
Co1771 O1772 2.160 . S
Co1771 O1777 2.058 . S
Co1771 O1787 2.057 . S
Co1771 O1802 2.037 . S
Co1771 N1806 2.145 . S
Co1771 N1827 2.257 . S
O1772 Co1770 2.143 . S
O1772 Co1771 2.160 . S
C1773 O1774 1.278 . S
C1773 O1781 1.224 . S
O1774 C1773 1.278 . S
C1775 O1776 1.245 . S
C1775 O1787 1.232 . S
O1776 C1775 1.245 . S
O1777 Co1771 2.058 . S
O1777 C1803 1.269 . S
O1778 Co1770 2.074 . S
O1778 C1803 1.257 . S
H1779 C1804 0.930 . S
H1780 C1810 0.930 . S
O1781 Co1770 2.093 . S
O1781 C1773 1.224 . S
H1782 C1814 0.929 . S
H1783 C1816 0.930 . S
H1784 C1817 0.930 . S
H1785 C1815 0.929 . S
H1786 C1818 0.928 . S
O1787 Co1771 2.057 . S
O1787 C1775 1.232 . S
H1788 C1807 0.929 . S
H1789 C1808 0.929 . S
H1790 C1820 0.931 . S
H1791 C1812 0.929 . S
H1792 C1821 0.930 . S
H1793 C1813 0.931 . S
O1794 Co1770 2.097 . S
O1794 C1822 1.214 . S
H1795 C1823 0.929 . S
H1796 C1824 0.929 . S
H1797 C1825 0.930 . S
H1798 C1826 0.929 . S
H1799 C1828 0.930 . S
H1800 C1805 0.930 . S
H1801 C1809 0.930 . S
O1802 Co1771 2.037 . S
O1802 C1822 1.234 . S
C1803 O1777 1.269 . S
C1803 O1778 1.257 . S
C1804 H1779 0.930 . S
C1804 C1807 1.388 . S
C1804 C1809 1.418 . S
C1805 H1800 0.930 . S
C1805 C1808 1.404 . S
C1805 C1809 1.353 . S
N1806 Co1771 2.145 . S
N1806 C1807 1.397 . S
N1806 C1808 1.334 . S
C1807 H1788 0.929 . S
C1807 C1804 1.388 . S
C1807 N1806 1.397 . S
C1808 H1789 0.929 . S
C1808 C1805 1.404 . S
C1808 N1806 1.334 . S
C1809 H1801 0.930 . S
C1809 C1804 1.418 . S
C1809 C1805 1.353 . S
C1810 H1780 0.930 . S
C1810 N1811 1.330 . S
C1810 C1812 1.446 . S
N1811 Co1770 2.151 . S
N1811 C1810 1.330 . S
N1811 C1815 1.418 . S
C1812 H1791 0.929 . S
C1812 C1810 1.446 . S
C1812 C1813 1.332 . S
C1813 H1793 0.931 . S
C1813 C1812 1.332 . S
C1813 C1814 1.267 . S
C1814 H1782 0.929 . S
C1814 C1813 1.267 . S
C1814 C1815 1.251 . S
C1815 H1785 0.929 . S
C1815 N1811 1.418 . S
C1815 C1814 1.251 . S
C1816 H1783 0.930 . S
C1816 C1818 1.406 . S
C1816 C1821 1.261 . S
C1817 H1784 0.930 . S
C1817 N1819 1.325 . S
C1817 C1820 1.357 . S
C1818 H1786 0.928 . S
C1818 C1816 1.406 . S
C1818 N1819 1.261 . S
N1819 Co1770 2.214 . S
N1819 C1817 1.325 . S
N1819 C1818 1.261 . S
C1820 H1790 0.931 . S
C1820 C1817 1.357 . S
C1820 C1821 1.312 . S
C1821 H1792 0.930 . S
C1821 C1816 1.261 . S
C1821 C1820 1.312 . S
C1822 O1794 1.214 . S
C1822 O1802 1.234 . S
C1823 H1795 0.929 . S
C1823 C1826 1.391 . S
C1823 C1828 1.391 . S
C1824 H1796 0.929 . S
C1824 C1825 1.390 . S
C1824 N1827 1.391 . S
C1825 H1797 0.930 . S
C1825 C1824 1.390 . S
C1825 C1826 1.392 . S
C1826 H1798 0.929 . S
C1826 C1823 1.391 . S
C1826 C1825 1.392 . S
N1827 Co1771 2.257 . S
N1827 C1824 1.391 . S
N1827 C1828 1.388 . S
C1828 H1799 0.930 . S
C1828 C1823 1.391 . S
C1828 N1827 1.388 . S
Co1829 O1831 2.143 . S
Co1829 O1837 2.074 . S
Co1829 O1840 2.093 . S
Co1829 O1853 2.097 . S
Co1829 N1870 2.151 . S
Co1829 N1878 2.214 . S
Co1830 O1831 2.160 . S
Co1830 O1836 2.058 . S
Co1830 O1846 2.057 . S
Co1830 O1861 2.037 . S
Co1830 N1865 2.145 . S
Co1830 N1886 2.257 . S
O1831 Co1829 2.143 . S
O1831 Co1830 2.160 . S
C1832 O1833 1.278 . S
C1832 O1840 1.224 . S
O1833 C1832 1.278 . S
C1834 O1835 1.245 . S
C1834 O1846 1.232 . S
O1835 C1834 1.245 . S
O1836 Co1830 2.058 . S
O1836 C1862 1.269 . S
O1837 Co1829 2.074 . S
O1837 C1862 1.257 . S
H1838 C1863 0.930 . S
H1839 C1869 0.930 . S
O1840 Co1829 2.093 . S
O1840 C1832 1.224 . S
H1841 C1873 0.929 . S
H1842 C1875 0.930 . S
H1843 C1876 0.930 . S
H1844 C1874 0.929 . S
H1845 C1877 0.928 . S
O1846 Co1830 2.057 . S
O1846 C1834 1.232 . S
H1847 C1866 0.929 . S
H1848 C1867 0.929 . S
H1849 C1879 0.931 . S
H1850 C1871 0.929 . S
H1851 C1880 0.930 . S
H1852 C1872 0.931 . S
O1853 Co1829 2.097 . S
O1853 C1881 1.214 . S
H1854 C1882 0.929 . S
H1855 C1883 0.929 . S
H1856 C1884 0.930 . S
H1857 C1885 0.929 . S
H1858 C1887 0.930 . S
H1859 C1864 0.930 . S
H1860 C1868 0.930 . S
O1861 Co1830 2.037 . S
O1861 C1881 1.234 . S
C1862 O1836 1.269 . S
C1862 O1837 1.257 . S
C1863 H1838 0.930 . S
C1863 C1866 1.388 . S
C1863 C1868 1.418 . S
C1864 H1859 0.930 . S
C1864 C1867 1.404 . S
C1864 C1868 1.353 . S
N1865 Co1830 2.145 . S
N1865 C1866 1.397 . S
N1865 C1867 1.334 . S
C1866 H1847 0.929 . S
C1866 C1863 1.388 . S
C1866 N1865 1.397 . S
C1867 H1848 0.929 . S
C1867 C1864 1.404 . S
C1867 N1865 1.334 . S
C1868 H1860 0.930 . S
C1868 C1863 1.418 . S
C1868 C1864 1.353 . S
C1869 H1839 0.930 . S
C1869 N1870 1.330 . S
C1869 C1871 1.446 . S
N1870 Co1829 2.151 . S
N1870 C1869 1.330 . S
N1870 C1874 1.418 . S
C1871 H1850 0.929 . S
C1871 C1869 1.446 . S
C1871 C1872 1.332 . S
C1872 H1852 0.931 . S
C1872 C1871 1.332 . S
C1872 C1873 1.267 . S
C1873 H1841 0.929 . S
C1873 C1872 1.267 . S
C1873 C1874 1.251 . S
C1874 H1844 0.929 . S
C1874 N1870 1.418 . S
C1874 C1873 1.251 . S
C1875 H1842 0.930 . S
C1875 C1877 1.406 . S
C1875 C1880 1.261 . S
C1876 H1843 0.930 . S
C1876 N1878 1.325 . S
C1876 C1879 1.357 . S
C1877 H1845 0.928 . S
C1877 C1875 1.406 . S
C1877 N1878 1.261 . S
N1878 Co1829 2.214 . S
N1878 C1876 1.325 . S
N1878 C1877 1.261 . S
C1879 H1849 0.931 . S
C1879 C1876 1.357 . S
C1879 C1880 1.312 . S
C1880 H1851 0.930 . S
C1880 C1875 1.261 . S
C1880 C1879 1.312 . S
C1881 O1853 1.214 . S
C1881 O1861 1.234 . S
C1882 H1854 0.929 . S
C1882 C1885 1.391 . S
C1882 C1887 1.391 . S
C1883 H1855 0.929 . S
C1883 C1884 1.390 . S
C1883 N1886 1.391 . S
C1884 H1856 0.930 . S
C1884 C1883 1.390 . S
C1884 C1885 1.392 . S
C1885 H1857 0.929 . S
C1885 C1882 1.391 . S
C1885 C1884 1.392 . S
N1886 Co1830 2.257 . S
N1886 C1883 1.391 . S
N1886 C1887 1.388 . S
C1887 H1858 0.930 . S
C1887 C1882 1.391 . S
C1887 N1886 1.388 . S
C241 C5 1.725 1_565 S
C300 C64 1.725 . S
C359 C123 1.725 1_545 S
C182 C418 1.725 1_556 S
C477 C713 1.725 1_565 S
C772 C536 1.725 . S
C595 C831 1.725 1_545 S
C890 C654 1.725 1_556 S
C949 C1185 1.725 . S
C1244 C1008 1.725 1_554 S
C1303 C1067 1.725 . S
C1362 C1126 1.725 . S
C1421 C1657 1.725 . S
C1480 C1716 1.725 1_554 S
C1539 C1775 1.725 . S
C1598 C1834 1.725 . S
C3 C416 1.394 . S
C62 C239 1.394 . S
C121 C298 1.394 . S
C357 C180 1.394 . S
C888 C475 1.394 . S
C711 C534 1.394 . S
C770 C593 1.394 . S
C652 C829 1.394 . S
C1360 C947 1.394 . S
C1183 C1006 1.394 . S
C1242 C1065 1.394 . S
C1124 C1301 1.394 . S
C1419 C1832 1.394 . S
C1478 C1655 1.394 . S
C1537 C1714 1.394 . S
C1773 C1596 1.394 . S
C52 C1508 1.661 . S
C111 C623 1.661 . S
C170 C1626 1.661 . S
C505 C229 1.661 . S
C1862 C288 1.661 . S
C347 C741 1.661 . S
C406 C1744 1.661 . S
C465 C859 1.661 . S
C1036 C524 1.661 . S
C151 C583 1.661 . S
C1154 C642 1.661 . S
C701 C33 1.661 . S
C1390 C760 1.661 . S
C269 C819 1.661 . S
C1272 C878 1.661 . S
C387 C937 1.661 . S
C564 C996 1.661 . S
C1055 C1567 1.661 . S
C1114 C682 1.661 . S
C1173 C1449 1.661 . S
C1232 C918 1.661 . S
C1685 C1291 1.661 . S
C1350 C800 1.661 . S
C1409 C1803 1.661 . S
C1468 C92 1.661 . S
C1527 C1095 1.661 . S
C210 C1586 1.661 . S
C977 C1645 1.661 . S
C1704 C446 1.661 . S
C1763 C1213 1.661 . S
C328 C1822 1.661 . S
C1331 C1881 1.661 . S
