# Generated by pormake.
# Topology whm, (6)-cn, num edge types: 1
# Building blocks:
#     Node 0, Type 0, BuildingBlock: OJICUG_clean_sbu_0, # of connection points: 6
#     Node 1, Type 0, BuildingBlock: OJICUG_clean_sbu_0, # of connection points: 6
#     Node 2, Type 0, BuildingBlock: OJICUG_clean_sbu_0, # of connection points: 6
#     Node 3, Type 0, BuildingBlock: OJICUG_clean_sbu_0, # of connection points: 6
#     Node 4, Type 0, BuildingBlock: OJICUG_clean_sbu_0, # of connection points: 6
#     Node 5, Type 0, BuildingBlock: OJICUG_clean_sbu_0, # of connection points: 6
#     Node 6, Type 0, BuildingBlock: OJICUG_clean_sbu_0, # of connection points: 6
#     Node 7, Type 0, BuildingBlock: OJICUG_clean_sbu_0, # of connection points: 6
#     Node 8, Type 0, BuildingBlock: OJICUG_clean_sbu_0, # of connection points: 6
#     Node 9, Type 0, BuildingBlock: OJICUG_clean_sbu_0, # of connection points: 6
#     Node 10, Type 0, BuildingBlock: OJICUG_clean_sbu_0, # of connection points: 6
#     Node 11, Type 0, BuildingBlock: OJICUG_clean_sbu_0, # of connection points: 6
#     Node 12, Type 0, BuildingBlock: OJICUG_clean_sbu_0, # of connection points: 6
#     Node 13, Type 0, BuildingBlock: OJICUG_clean_sbu_0, # of connection points: 6
#     Node 14, Type 0, BuildingBlock: OJICUG_clean_sbu_0, # of connection points: 6
#     Node 15, Type 0, BuildingBlock: OJICUG_clean_sbu_0, # of connection points: 6
#     Edge 16, Type (0, 0), BuildingBlock: TEMPAE_clean_linker_10, # of connection points: 2
#     Edge 17, Type (0, 0), BuildingBlock: TEMPAE_clean_linker_10, # of connection points: 2
#     Edge 18, Type (0, 0), BuildingBlock: TEMPAE_clean_linker_10, # of connection points: 2
#     Edge 19, Type (0, 0), BuildingBlock: TEMPAE_clean_linker_10, # of connection points: 2
#     Edge 20, Type (0, 0), BuildingBlock: TEMPAE_clean_linker_10, # of connection points: 2
#     Edge 21, Type (0, 0), BuildingBlock: TEMPAE_clean_linker_10, # of connection points: 2
#     Edge 22, Type (0, 0), BuildingBlock: TEMPAE_clean_linker_10, # of connection points: 2
#     Edge 23, Type (0, 0), BuildingBlock: TEMPAE_clean_linker_10, # of connection points: 2
#     Edge 24, Type (0, 0), BuildingBlock: TEMPAE_clean_linker_10, # of connection points: 2
#     Edge 25, Type (0, 0), BuildingBlock: TEMPAE_clean_linker_10, # of connection points: 2
#     Edge 26, Type (0, 0), BuildingBlock: TEMPAE_clean_linker_10, # of connection points: 2
#     Edge 27, Type (0, 0), BuildingBlock: TEMPAE_clean_linker_10, # of connection points: 2
#     Edge 28, Type (0, 0), BuildingBlock: TEMPAE_clean_linker_10, # of connection points: 2
#     Edge 29, Type (0, 0), BuildingBlock: TEMPAE_clean_linker_10, # of connection points: 2
#     Edge 30, Type (0, 0), BuildingBlock: TEMPAE_clean_linker_10, # of connection points: 2
#     Edge 31, Type (0, 0), BuildingBlock: TEMPAE_clean_linker_10, # of connection points: 2
#     Edge 32, Type (0, 0), BuildingBlock: TEMPAE_clean_linker_10, # of connection points: 2
#     Edge 33, Type (0, 0), BuildingBlock: TEMPAE_clean_linker_10, # of connection points: 2
#     Edge 34, Type (0, 0), BuildingBlock: TEMPAE_clean_linker_10, # of connection points: 2
#     Edge 35, Type (0, 0), BuildingBlock: TEMPAE_clean_linker_10, # of connection points: 2
#     Edge 36, Type (0, 0), BuildingBlock: TEMPAE_clean_linker_10, # of connection points: 2
#     Edge 37, Type (0, 0), BuildingBlock: TEMPAE_clean_linker_10, # of connection points: 2
#     Edge 38, Type (0, 0), BuildingBlock: TEMPAE_clean_linker_10, # of connection points: 2
#     Edge 39, Type (0, 0), BuildingBlock: TEMPAE_clean_linker_10, # of connection points: 2
#     Edge 40, Type (0, 0), BuildingBlock: TEMPAE_clean_linker_10, # of connection points: 2
#     Edge 41, Type (0, 0), BuildingBlock: TEMPAE_clean_linker_10, # of connection points: 2
#     Edge 42, Type (0, 0), BuildingBlock: TEMPAE_clean_linker_10, # of connection points: 2
#     Edge 43, Type (0, 0), BuildingBlock: TEMPAE_clean_linker_10, # of connection points: 2
#     Edge 44, Type (0, 0), BuildingBlock: TEMPAE_clean_linker_10, # of connection points: 2
#     Edge 45, Type (0, 0), BuildingBlock: TEMPAE_clean_linker_10, # of connection points: 2
#     Edge 46, Type (0, 0), BuildingBlock: TEMPAE_clean_linker_10, # of connection points: 2
#     Edge 47, Type (0, 0), BuildingBlock: TEMPAE_clean_linker_10, # of connection points: 2
#     Edge 48, Type (0, 0), BuildingBlock: TEMPAE_clean_linker_10, # of connection points: 2
#     Edge 49, Type (0, 0), BuildingBlock: TEMPAE_clean_linker_10, # of connection points: 2
#     Edge 50, Type (0, 0), BuildingBlock: TEMPAE_clean_linker_10, # of connection points: 2
#     Edge 51, Type (0, 0), BuildingBlock: TEMPAE_clean_linker_10, # of connection points: 2
#     Edge 52, Type (0, 0), BuildingBlock: TEMPAE_clean_linker_10, # of connection points: 2
#     Edge 53, Type (0, 0), BuildingBlock: TEMPAE_clean_linker_10, # of connection points: 2
#     Edge 54, Type (0, 0), BuildingBlock: TEMPAE_clean_linker_10, # of connection points: 2
#     Edge 55, Type (0, 0), BuildingBlock: TEMPAE_clean_linker_10, # of connection points: 2
#     Edge 56, Type (0, 0), BuildingBlock: TEMPAE_clean_linker_10, # of connection points: 2
#     Edge 57, Type (0, 0), BuildingBlock: TEMPAE_clean_linker_10, # of connection points: 2
#     Edge 58, Type (0, 0), BuildingBlock: TEMPAE_clean_linker_10, # of connection points: 2
#     Edge 59, Type (0, 0), BuildingBlock: TEMPAE_clean_linker_10, # of connection points: 2
#     Edge 60, Type (0, 0), BuildingBlock: TEMPAE_clean_linker_10, # of connection points: 2
#     Edge 61, Type (0, 0), BuildingBlock: TEMPAE_clean_linker_10, # of connection points: 2
#     Edge 62, Type (0, 0), BuildingBlock: TEMPAE_clean_linker_10, # of connection points: 2
#     Edge 63, Type (0, 0), BuildingBlock: TEMPAE_clean_linker_10, # of connection points: 2
# Relax obj value: 0.342
# Max RMSD: 0.245
# Mean RMSD: 0.245
data_MOF--net-whm--node1-OJICUG_clean_sbu_0--edge1-TEMPAE_clean_linker_10
_symmetry_space_group_name_H-M    P1
_symmetry_Int_Tables_number       1
_symmetry_cell_setting            triclinic
loop_
_symmetry_equiv_pos_as_xyz
'x, y, z'
_cell_length_a     51.900063
_cell_length_b     51.911557
_cell_length_c     29.516398
_cell_angle_alpha  90.014594
_cell_angle_beta   90.063701
_cell_angle_gamma 89.918137
loop_
_atom_site_label
_atom_site_type_symbol
_atom_site_fract_x
_atom_site_fract_y
_atom_site_fract_z
_atom_type_partial_charge
Sc0 Sc 0.57928 0.17043 0.13029 0.0
Sc1 Sc 0.52416 0.17046 0.19882 0.0
Sc2 Sc 0.55504 0.1125 0.17297 0.0
O3 O 0.5529 0.15119 0.1672 0.0
C4 C 0.57465 0.11986 0.07142 0.0
C5 C 0.52542 0.19632 0.10218 0.0
C6 C 0.49598 0.11848 0.16802 0.0
C7 C 0.5701 0.21074 0.20855 0.0
C8 C 0.61312 0.12962 0.18513 0.0
C9 C 0.53807 0.12995 0.27266 0.0
O10 O 0.5776 0.14405 0.07449 0.0
O11 O 0.51239 0.18804 0.13572 0.0
O12 O 0.51582 0.10751 0.15176 0.0
O13 O 0.58492 0.19941 0.18085 0.0
O14 O 0.59437 0.1149 0.19513 0.0
O15 O 0.53424 0.15361 0.26343 0.0
O16 O 0.61077 0.14946 0.16009 0.0
O17 O 0.54722 0.20335 0.21598 0.0
O18 O 0.5431 0.11317 0.24258 0.0
O19 O 0.54959 0.19268 0.09799 0.0
O20 O 0.56748 0.10608 0.10454 0.0
O21 O 0.49703 0.14013 0.18792 0.0
Sc22 Sc 0.30522 0.58061 0.62767 0.0
Sc23 Sc 0.31613 0.53734 0.71788 0.0
Sc24 Sc 0.36826 0.56096 0.65483 0.0
O25 O 0.32983 0.55962 0.6667 0.0
C26 C 0.34717 0.56314 0.55413 0.0
C27 C 0.27806 0.52556 0.63608 0.0
C28 C 0.36238 0.50245 0.68201 0.0
C29 C 0.27704 0.58455 0.72299 0.0
C30 C 0.35085 0.61982 0.64368 0.0
C31 C 0.36502 0.56382 0.76308 0.0
O32 O 0.3253 0.57215 0.56537 0.0
O33 O 0.28942 0.51844 0.67228 0.0
O34 O 0.3734 0.52 0.65928 0.0
O35 O 0.28151 0.59279 0.68335 0.0
O36 O 0.36749 0.60214 0.64959 0.0
O37 O 0.3423 0.55466 0.76616 0.0
O38 O 0.32715 0.6153 0.63625 0.0
O39 O 0.28787 0.56473 0.73919 0.0
O40 O 0.37687 0.56585 0.72557 0.0
O41 O 0.2816 0.54732 0.61716 0.0
O42 O 0.36418 0.55688 0.58301 0.0
O43 O 0.34238 0.50654 0.70545 0.0
Sc44 Sc 0.91667 0.32638 0.11159 0.0
Sc45 Sc 0.95271 0.3279 0.21174 0.0
Sc46 Sc 0.93231 0.38561 0.16032 0.0
O47 O 0.93405 0.34666 0.16131 0.0
C48 C 0.93438 0.37651 0.05629 0.0
C49 C 0.97172 0.30094 0.12012 0.0
C50 C 0.989 0.37646 0.19816 0.0
C51 C 0.9089 0.28756 0.19431 0.0
C52 C 0.87467 0.36722 0.13651 0.0
C53 C 0.92278 0.37246 0.26442 0.0
O54 O 0.92345 0.3548 0.0602 0.0
O55 O 0.97323 0.30387 0.16302 0.0
O56 O 0.97239 0.39055 0.17826 0.0
O57 O 0.90611 0.29387 0.15312 0.0
O58 O 0.89167 0.38443 0.14421 0.0
O59 O 0.93367 0.35043 0.26374 0.0
O60 O 0.88024 0.34393 0.12699 0.0
O61 O 0.92345 0.29982 0.22097 0.0
O62 O 0.92134 0.38691 0.22986 0.0
O63 O 0.95299 0.30905 0.09605 0.0
O64 O 0.94251 0.38908 0.0902 0.0
O65 O 0.98436 0.35365 0.21079 0.0
Sc66 Sc 0.17387 0.90862 0.64168 0.0
Sc67 Sc 0.17301 0.96173 0.71518 0.0
Sc68 Sc 0.11493 0.93417 0.67925 0.0
O69 O 0.15395 0.93488 0.67833 0.0
C70 C 0.12525 0.91781 0.5773 0.0
C71 C 0.20146 0.96254 0.62045 0.0
C72 C 0.12293 0.99352 0.68517 0.0
C73 C 0.21226 0.91488 0.72424 0.0
C74 C 0.13038 0.87469 0.6879 0.0
C75 C 0.12991 0.94396 0.78279 0.0
O76 O 0.14844 0.91106 0.58423 0.0
O77 O 0.19317 0.97474 0.65509 0.0
O78 O 0.11098 0.97488 0.66681 0.0
O79 O 0.20218 0.90144 0.69315 0.0
O80 O 0.11487 0.89346 0.69336 0.0
O81 O 0.15353 0.94954 0.77627 0.0
O82 O 0.1523 0.87706 0.66914 0.0
O83 O 0.20445 0.9373 0.73387 0.0
O84 O 0.11394 0.94063 0.75068 0.0
O85 O 0.19683 0.93879 0.61293 0.0
O86 O 0.111 0.92704 0.60819 0.0
O87 O 0.14445 0.99064 0.70477 0.0
Sc88 Sc 0.5638 0.32525 0.86692 0.0
Sc89 Sc 0.52606 0.32943 0.76825 0.0
Sc90 Sc 0.54915 0.38557 0.82149 0.0
O91 O 0.54627 0.34675 0.81875 0.0
C92 C 0.54848 0.37496 0.92559 0.0
C93 C 0.50786 0.30138 0.85914 0.0
C94 C 0.49148 0.37889 0.78761 0.0
C95 C 0.5694 0.28757 0.78168 0.0
C96 C 0.60656 0.36542 0.84244 0.0
C97 C 0.55607 0.37395 0.71599 0.0
O98 O 0.558 0.35263 0.92057 0.0
O99 O 0.5054 0.30551 0.81671 0.0
O100 O 0.50889 0.39174 0.8078 0.0
O101 O 0.57356 0.29372 0.8226 0.0
O102 O 0.58999 0.38298 0.83425 0.0
O103 O 0.54514 0.35196 0.71625 0.0
O104 O 0.6005 0.34233 0.85233 0.0
O105 O 0.55405 0.30004 0.7566 0.0
O106 O 0.55818 0.38784 0.75115 0.0
O107 O 0.52741 0.30819 0.88239 0.0
O108 O 0.54094 0.38844 0.89237 0.0
O109 O 0.49524 0.3565 0.77187 0.0
Sc110 Sc 0.11759 0.5469 0.33893 0.0
Sc111 Sc 0.17072 0.51984 0.28331 0.0
Sc112 Sc 0.18005 0.56725 0.36693 0.0
O113 O 0.15617 0.54465 0.32992 0.0
C114 C 0.13509 0.60568 0.33876 0.0
C115 C 0.12261 0.54174 0.23106 0.0
C116 C 0.20989 0.56665 0.27348 0.0
C117 C 0.1233 0.48775 0.32329 0.0
C118 C 0.13694 0.55574 0.44043 0.0
C119 C 0.20711 0.51179 0.36821 0.0
O120 O 0.11863 0.58801 0.33138 0.0
O121 O 0.14632 0.53536 0.23054 0.0
O122 O 0.20347 0.57735 0.31031 0.0
O123 O 0.1134 0.50597 0.34621 0.0
O124 O 0.15996 0.56112 0.42959 0.0
O125 O 0.19553 0.5025 0.33384 0.0
O126 O 0.11981 0.55027 0.41129 0.0
O127 O 0.14269 0.49094 0.29783 0.0
O128 O 0.20411 0.53479 0.38232 0.0
O129 O 0.10984 0.54429 0.26751 0.0
O130 O 0.15775 0.60124 0.35328 0.0
O131 O 0.20057 0.54534 0.26049 0.0
Sc132 Sc 0.93821 0.10981 0.80208 0.0
Sc133 Sc 0.96562 0.16982 0.77713 0.0
Sc134 Sc 0.91138 0.16617 0.84719 0.0
O135 O 0.93842 0.14859 0.80904 0.0
C136 C 0.87892 0.12416 0.79307 0.0
C137 C 0.95259 0.12934 0.70237 0.0
C138 C 0.91725 0.20747 0.76978 0.0
C139 C -0.00275 0.11887 0.80332 0.0
C140 C 0.92004 0.11554 0.90487 0.0
C141 C 0.96372 0.1951 0.87417 0.0
O142 O 0.89818 0.1102 0.78239 0.0
O143 O 0.95583 0.153 0.71236 0.0
O144 O 0.9034 0.19513 0.79759 0.0
O145 O 0.97837 0.10631 0.81961 0.0
O146 O 0.91534 0.13947 0.90205 0.0
O147 O 0.97711 0.18765 0.84039 0.0
O148 O 0.92771 0.10224 0.87137 0.0
O149 O 0.99462 0.14102 0.7858 0.0
O150 O 0.93991 0.18987 0.87883 0.0
O151 O 0.94841 0.11203 0.73187 0.0
O152 O 0.88076 0.14399 0.81813 0.0
O153 O 0.94047 0.20149 0.76163 0.0
Sc154 Sc 0.38674 0.93136 0.34252 0.0
Sc155 Sc 0.33164 0.9543 0.28599 0.0
Sc156 Sc 0.32573 0.92006 0.38659 0.0
O157 O 0.34815 0.9355 0.33821 0.0
C158 C 0.3638 0.87536 0.36469 0.0
C159 C 0.37657 0.92197 0.23793 0.0
C160 C 0.28927 0.91295 0.30071 0.0
C161 C 0.38123 0.9882 0.30221 0.0
C162 C 0.37532 0.93556 0.44501 0.0
C163 C 0.30311 0.97548 0.37484 0.0
O164 O 0.38268 0.89106 0.36129 0.0
O165 O 0.35575 0.93502 0.23622 0.0
O166 O 0.29332 0.91207 0.34304 0.0
O167 O 0.39444 0.97059 0.32141 0.0
O168 O 0.35366 0.92471 0.43972 0.0
O169 O 0.30602 0.97536 0.33183 0.0
O170 O 0.38859 0.9435 0.41185 0.0
O171 O 0.35792 0.9853 0.29064 0.0
O172 O 0.31105 0.95756 0.40083 0.0
O173 O 0.38923 0.91865 0.27421 0.0
O174 O 0.34068 0.88271 0.37112 0.0
O175 O 0.30389 0.92505 0.27402 0.0
Sc176 Sc 0.4437 0.87113 0.84038 0.0
Sc177 Sc 0.4642 0.81621 0.78192 0.0
Sc178 Sc 0.41783 0.81058 0.86751 0.0
O179 O 0.44192 0.83264 0.83018 0.0
C180 C 0.43615 0.8508 0.94164 0.0
C181 C 0.50134 0.86085 0.81797 0.0
C182 C 0.47055 0.77837 0.86444 0.0
C183 C 0.4451 0.8661 0.73225 0.0
C184 C 0.3835 0.85983 0.84531 0.0
C185 C 0.41337 0.7823 0.77356 0.0
O186 O 0.442 0.86806 0.91293 0.0
O187 O 0.4955 0.84188 0.79302 0.0
O188 O 0.4477 0.78251 0.87847 0.0
O189 O 0.44507 0.87901 0.76889 0.0
O190 O 0.38608 0.83675 0.85906 0.0
O191 O 0.43589 0.78854 0.76129 0.0
O192 O 0.40249 0.87436 0.83609 0.0
O193 O 0.44914 0.84189 0.73104 0.0
O194 O 0.40337 0.79008 0.81017 0.0
O195 O 0.48513 0.87161 0.8441 0.0
O196 O 0.4285 0.82852 0.93018 0.0
O197 O 0.48071 0.79029 0.83129 0.0
Sc198 Sc 0.67236 0.41926 0.34757 0.0
Sc199 Sc 0.6673 0.46796 0.2655 0.0
Sc200 Sc 0.61184 0.44467 0.31836 0.0
O201 O 0.65053 0.44392 0.3107 0.0
C202 C 0.62449 0.38467 0.31891 0.0
C203 C 0.70381 0.4187 0.25622 0.0
C204 C 0.61911 0.44883 0.21092 0.0
C205 C 0.70281 0.47289 0.35182 0.0
C206 C 0.62967 0.43415 0.42015 0.0
C207 C 0.6211 0.50312 0.30202 0.0
O208 O 0.64733 0.38723 0.33394 0.0
O209 O 0.69665 0.44118 0.24508 0.0
O210 O 0.60553 0.44794 0.24671 0.0
O211 O 0.69896 0.4496 0.36366 0.0
O212 O 0.61314 0.44088 0.3907 0.0
O213 O 0.64039 0.49847 0.27704 0.0
O214 O 0.65236 0.42716 0.40978 0.0
O215 O 0.69152 0.48369 0.31845 0.0
O216 O 0.61041 0.48584 0.32595 0.0
O217 O 0.69526 0.40728 0.29098 0.0
O218 O 0.60966 0.4036 0.31046 0.0
O219 O 0.64326 0.45336 0.21145 0.0
Sc220 Sc 0.06502 0.66407 0.88819 0.0
Sc221 Sc 0.03078 0.65977 0.78669 0.0
Sc222 Sc 0.05357 0.60367 0.84074 0.0
O223 O 0.04963 0.64242 0.8384 0.0
C224 C 0.10979 0.62618 0.86438 0.0
C225 C 0.07163 0.70274 0.80495 0.0
C226 C 0.06307 0.61601 0.73617 0.0
C227 C 0.00891 0.68604 0.87703 0.0
C228 C 0.05085 0.61324 0.94463 0.0
C229 C -0.00332 0.60966 0.8017 0.0
O230 O 0.10251 0.64908 0.87327 0.0
O231 O 0.05891 0.68912 0.77742 0.0
O232 O 0.06489 0.60208 0.77133 0.0
O233 O 0.02742 0.67865 0.90234 0.0
O234 O 0.0433 0.6001 0.91095 0.0
O235 O 0.00048 0.63246 0.78808 0.0
O236 O 0.06032 0.63557 0.94019 0.0
O237 O 0.00863 0.68339 0.83398 0.0
O238 O 0.01377 0.5965 0.82243 0.0
O239 O 0.07349 0.69711 0.84659 0.0
O240 O 0.09408 0.60765 0.8573 0.0
O241 O 0.05129 0.63758 0.73585 0.0
Sc242 Sc 0.83191 0.07247 0.36211 0.0
Sc243 Sc 0.82793 0.02421 0.2791 0.0
Sc244 Sc 0.88776 0.05248 0.30539 0.0
O245 O 0.8492 0.04968 0.31565 0.0
C246 C 0.86829 0.11092 0.3084 0.0
C247 C 0.7874 0.06959 0.28803 0.0
C248 C 0.86636 0.04421 0.20463 0.0
C249 C 0.80792 0.01697 0.38049 0.0
C250 C 0.88614 0.06427 0.41069 0.0
C251 C 0.87984 0.99273 0.29786 0.0
O252 O 0.84854 0.10632 0.3326 0.0
O253 O 0.79606 0.04964 0.26862 0.0
O254 O 0.88382 0.04846 0.23376 0.0
O255 O 0.81457 0.03951 0.39293 0.0
O256 O 0.89805 0.05731 0.37532 0.0
O257 O 0.85695 -0.00465 0.28359 0.0
O258 O 0.86236 0.06966 0.4107 0.0
O259 O 0.81071 0.00866 0.34012 0.0
O260 O 0.8934 0.01153 0.31198 0.0
O261 O 0.79834 0.07968 0.32198 0.0
O262 O 0.88445 0.09363 0.29665 0.0
O263 O 0.84358 0.03753 0.21533 0.0
Sc264 Sc 0.43247 0.61544 0.15664 0.0
Sc265 Sc 0.45318 0.66928 0.21867 0.0
Sc266 Sc 0.41056 0.67732 0.12693 0.0
O267 O 0.43215 0.65406 0.16728 0.0
C268 C 0.43032 0.63468 0.0556 0.0
C269 C 0.48997 0.62298 0.18966 0.0
C270 C 0.46516 0.70544 0.13449 0.0
C271 C 0.42597 0.62093 0.26407 0.0
C272 C 0.37301 0.63062 0.14256 0.0
C273 C 0.40555 0.70795 0.21975 0.0
O274 O 0.43863 0.61882 0.08497 0.0
O275 O 0.48469 0.64356 0.21056 0.0
O276 O 0.44361 0.70108 0.11519 0.0
O277 O 0.42527 0.60825 0.22718 0.0
O278 O 0.37646 0.65468 0.13723 0.0
O279 O 0.42524 0.69752 0.23707 0.0
O280 O 0.39146 0.61468 0.14708 0.0
O281 O 0.43511 0.64369 0.26689 0.0
O282 O 0.39765 0.70258 0.18024 0.0
O283 O 0.47345 0.61101 0.16594 0.0
O284 O 0.41938 0.65574 0.06636 0.0
O285 O 0.47217 0.69525 0.17187 0.0
Sc286 Sc 0.8689 0.44022 0.66338 0.0
Sc287 Sc 0.81406 0.46432 0.71683 0.0
Sc288 Sc 0.80819 0.41497 0.63647 0.0
O289 O 0.83037 0.43976 0.67205 0.0
C290 C 0.84974 0.42926 0.56232 0.0
C291 C 0.86024 0.49857 0.67809 0.0
C292 C 0.77765 0.46866 0.63199 0.0
C293 C 0.86258 0.44615 0.77085 0.0
C294 C 0.85644 0.38044 0.66448 0.0
C295 C 0.77809 0.41501 0.72874 0.0
O296 O 0.86684 0.43515 0.5913 0.0
O297 O 0.84139 0.49428 0.70429 0.0
O298 O 0.7808 0.44503 0.62157 0.0
O299 O 0.8759 0.445 0.73475 0.0
O300 O 0.83377 0.38304 0.64866 0.0
O301 O 0.78456 0.43794 0.73818 0.0
O302 O 0.87111 0.39936 0.67352 0.0
O303 O 0.8383 0.45001 0.77073 0.0
O304 O 0.78688 0.40302 0.69472 0.0
O305 O 0.86997 0.48113 0.65324 0.0
O306 O 0.82691 0.42317 0.57331 0.0
O307 O 0.78984 0.47986 0.66388 0.0
Sc308 Sc 0.05848 0.87284 0.17692 0.0
Sc309 Sc 0.03336 0.81397 0.21398 0.0
Sc310 Sc 0.08287 0.81499 0.1326 0.0
O311 O 0.0582 0.83389 0.17421 0.0
C312 C 0.07065 0.86457 0.07267 0.0
C313 C -0.00063 0.8628 0.18658 0.0
C314 C 0.02906 0.78614 0.11847 0.0
C315 C 0.05232 0.85718 0.28096 0.0
C316 C 0.11813 0.85803 0.17709 0.0
C317 C 0.08173 0.77639 0.21577 0.0
O318 O 0.06284 0.878 0.10573 0.0
O319 O 0.00306 0.84126 0.20566 0.0
O320 O 0.05194 0.792 0.10678 0.0
O321 O 0.05478 0.87327 0.24892 0.0
O322 O 0.11519 0.83658 0.15694 0.0
O323 O 0.06004 0.78403 0.22993 0.0
O324 O 0.09955 0.87317 0.18631 0.0
O325 O 0.04654 0.83364 0.27434 0.0
O326 O 0.09271 0.78605 0.18149 0.0
O327 O 0.01745 0.87577 0.16874 0.0
O328 O 0.07763 0.84125 0.07687 0.0
O329 O 0.01878 0.79316 0.15572 0.0
Sc330 Sc 0.60176 0.0532 0.67068 0.0
Sc331 Sc 0.66214 0.02552 0.6951 0.0
Sc332 Sc 0.65736 0.07499 0.61472 0.0
O333 O 0.64039 0.05119 0.66001 0.0
C334 C 0.60321 0.06515 0.56569 0.0
C335 C 0.61012 0.99358 0.68106 0.0
C336 C 0.68122 0.0195 0.59323 0.0
C337 C 0.62484 0.04643 0.77074 0.0
C338 C 0.61959 0.1124 0.66753 0.0
C339 C 0.70289 0.07077 0.68643 0.0
O340 O 0.59147 0.05678 0.60034 0.0
O341 O 0.6333 -0.00332 0.69313 0.0
O342 O 0.67515 0.04253 0.58261 0.0
O343 O 0.60683 0.05041 0.7424 0.0
O344 O 0.64019 0.10841 0.64521 0.0
O345 O 0.69447 0.05024 0.70395 0.0
O346 O 0.60376 0.09456 0.67768 0.0
O347 O 0.6474 0.03928 0.75922 0.0
O348 O 0.69127 0.08225 0.65453 0.0
O349 O 0.59615 0.012 0.6666 0.0
O350 O 0.62658 0.07218 0.56667 0.0
O351 O 0.67803 0.01017 0.63283 0.0
C352 C 0.60096 0.24738 0.21398 0.0
C353 C 0.57928 0.23447 0.23085 0.0
C354 C 0.6084 0.27125 0.23168 0.0
C355 C 0.594 0.28226 0.26745 0.0
C356 C 0.57279 0.26885 0.286 0.0
C357 C 0.56558 0.24513 0.26728 0.0
C358 C 0.63104 0.28515 0.21086 0.0
C359 C 0.55727 0.27992 0.32464 0.0
C360 C 0.62637 0.33705 0.32985 0.0
C361 C 0.61526 0.3585 0.30857 0.0
C362 C 0.61893 0.31201 0.318 0.0
C363 C 0.60032 0.30848 0.28353 0.0
C364 C 0.58867 0.33007 0.26255 0.0
C365 C 0.59613 0.35487 0.27564 0.0
C366 C 0.63144 0.28937 0.34147 0.0
C367 C 0.56902 0.32699 0.22512 0.0
H368 H 0.61163 0.23931 0.18578 0.0
H369 H 0.54894 0.23512 0.28076 0.0
H370 H 0.62437 0.30338 0.19506 0.0
H371 H 0.64527 0.29032 0.2374 0.0
H372 H 0.6409 0.27341 0.18459 0.0
H373 H 0.54273 0.2661 0.33765 0.0
H374 H 0.57018 0.28557 0.35292 0.0
H375 H 0.54713 0.29759 0.31316 0.0
H376 H 0.64102 0.33984 0.3556 0.0
H377 H 0.58764 0.37141 0.25887 0.0
H378 H 0.64322 0.27833 0.31684 0.0
H379 H 0.6165 0.2761 0.35476 0.0
H380 H 0.64406 0.29544 0.36995 0.0
H381 H 0.57796 0.31705 0.19579 0.0
H382 H 0.5612 0.34578 0.21337 0.0
H383 H 0.55277 0.31485 0.23686 0.0
C384 C 0.25599 0.59353 0.79722 0.0
C385 C 0.25659 0.59686 0.75006 0.0
C386 C 0.23446 0.60115 0.82251 0.0
C387 C 0.21296 0.61187 0.79986 0.0
C388 C 0.21418 0.61686 0.75273 0.0
C389 C 0.23614 0.60949 0.72842 0.0
C390 C 0.23406 0.59608 0.87286 0.0
C391 C 0.19151 0.6281 0.72732 0.0
C392 C 0.14561 0.59727 0.8401 0.0
C393 C 0.13751 0.62138 0.85617 0.0
C394 C 0.1706 0.59365 0.82361 0.0
C395 C 0.18804 0.61458 0.82375 0.0
C396 C 0.1807 0.63841 0.84305 0.0
C397 C 0.15543 0.64158 0.85894 0.0
C398 C 0.17775 0.56788 0.80331 0.0
C399 C 0.199 0.66097 0.84447 0.0
H400 H 0.27197 0.58409 0.81416 0.0
H401 H 0.23653 0.6121 0.69198 0.0
H402 H 0.22596 0.61283 0.89138 0.0
H403 H 0.22151 0.57927 0.87997 0.0
H404 H 0.25361 0.59187 0.88636 0.0
H405 H 0.19648 0.63316 0.69182 0.0
H406 H 0.17555 0.6139 0.72666 0.0
H407 H 0.18427 0.64562 0.74467 0.0
H408 H 0.13204 0.58145 0.83811 0.0
H409 H 0.14945 0.66025 0.87165 0.0
H410 H 0.19599 0.5607 0.81829 0.0
H411 H 0.18091 0.57009 0.76633 0.0
H412 H 0.16256 0.55313 0.80861 0.0
H413 H 0.21829 0.65481 0.85655 0.0
H414 H 0.19182 0.67666 0.86676 0.0
H415 H 0.20142 0.66883 0.80979 0.0
C416 C 0.89556 0.14488 0.27259 0.0
C417 C 0.87197 0.13744 0.29152 0.0
C418 C 0.89908 0.16984 0.25575 0.0
C419 C 0.87842 0.18765 0.25754 0.0
C420 C 0.85444 0.18018 0.27594 0.0
C421 C 0.85154 0.15518 0.29298 0.0
C422 C 0.92502 0.17728 0.23666 0.0
C423 C 0.83195 0.19864 0.27788 0.0
C424 C 0.89897 0.2573 0.25738 0.0
C425 C 0.89706 0.26355 0.21123 0.0
C426 C 0.89191 0.23294 0.27321 0.0
C427 C 0.88249 0.21446 0.2422 0.0
C428 C 0.87889 0.22111 0.19613 0.0
C429 C 0.88626 0.24565 0.18111 0.0
C430 C 0.89596 0.22653 0.32265 0.0
C431 C 0.86856 0.20189 0.16229 0.0
H432 H 0.91141 0.13128 0.2713 0.0
H433 H 0.83312 0.14948 0.30702 0.0
H434 H 0.92283 0.18419 0.20131 0.0
H435 H 0.93329 0.19335 0.25673 0.0
H436 H 0.93891 0.16097 0.23691 0.0
H437 H 0.81422 0.18941 0.29125 0.0
H438 H 0.83683 0.21529 0.29983 0.0
H439 H 0.8278 0.20636 0.24358 0.0
H440 H 0.907 0.27111 0.28105 0.0
H441 H 0.88462 0.25034 0.14544 0.0
H442 H 0.91133 0.21176 0.32589 0.0
H443 H 0.87815 0.21827 0.3374 0.0
H444 H 0.90161 0.24366 0.34291 0.0
H445 H 0.88306 0.18648 0.15669 0.0
H446 H 0.86405 0.21097 0.12913 0.0
H447 H 0.85089 0.19255 0.1755 0.0
C448 C 0.33567 0.8563 0.85287 0.0
C449 C 0.35723 0.86933 0.83574 0.0
C450 C 0.31069 0.8633 0.8396 0.0
C451 C 0.30732 0.88354 0.8081 0.0
C452 C 0.32892 0.89736 0.79196 0.0
C453 C 0.35363 0.89019 0.80624 0.0
C454 C 0.288 0.84843 0.85798 0.0
C455 C 0.32606 0.91896 0.75801 0.0
C456 C 0.24951 0.88459 0.73006 0.0
C457 C 0.23499 0.90479 0.74858 0.0
C458 C 0.27275 0.87686 0.75009 0.0
C459 C 0.28142 0.88945 0.78982 0.0
C460 C 0.2662 0.9089 0.81001 0.0
C461 C 0.24319 0.91645 0.78899 0.0
C462 C 0.2886 0.85609 0.72752 0.0
C463 C 0.2747 0.92244 0.85278 0.0
H464 H 0.33833 0.84027 0.87595 0.0
H465 H 0.37019 0.90027 0.79267 0.0
H466 H 0.27318 0.86184 0.87135 0.0
H467 H 0.27891 0.8372 0.83027 0.0
H468 H 0.2937 0.8349 0.88538 0.0
H469 H 0.3447 0.92851 0.75042 0.0
H470 H 0.31798 0.91129 0.7259 0.0
H471 H 0.31238 0.93368 0.77087 0.0
H472 H 0.24329 0.8755 0.69885 0.0
H473 H 0.23188 0.93187 0.80379 0.0
H474 H 0.29359 0.84078 0.75225 0.0
H475 H 0.30696 0.86442 0.71509 0.0
H476 H 0.27838 0.84714 0.69842 0.0
H477 H 0.28014 0.90817 0.8791 0.0
H478 H 0.25944 0.93523 0.86665 0.0
H479 H 0.29201 0.93426 0.84563 0.0
C480 C 0.57671 0.25662 0.71814 0.0
C481 C 0.58119 0.26377 0.76334 0.0
C482 C 0.58488 0.23269 0.70163 0.0
C483 C 0.59795 0.21554 0.73094 0.0
C484 C 0.6037 0.22308 0.7759 0.0
C485 C 0.59524 0.24714 0.79161 0.0
C486 C 0.57845 0.22529 0.65342 0.0
C487 C 0.61778 0.20528 0.80799 0.0
C488 C 0.59081 0.14443 0.7056 0.0
C489 C 0.61408 0.13888 0.68349 0.0
C490 C 0.58547 0.16927 0.72157 0.0
C491 C 0.60388 0.18904 0.71542 0.0
C492 C 0.62747 0.18362 0.69346 0.0
C493 C 0.63228 0.1586 0.67763 0.0
C494 C 0.56003 0.1744 0.74476 0.0
C495 C 0.64757 0.20425 0.68661 0.0
H496 H 0.56606 0.26938 0.69587 0.0
H497 H 0.5989 0.25251 0.82651 0.0
H498 H 0.59599 0.21862 0.63547 0.0
H499 H 0.56456 0.20905 0.65347 0.0
H500 H 0.56985 0.24153 0.63407 0.0
H501 H 0.62293 0.21496 0.84032 0.0
H502 H 0.60546 0.18841 0.81582 0.0
H503 H 0.63565 0.19787 0.792 0.0
H504 H 0.57663 0.12936 0.7104 0.0
H505 H 0.65039 0.15451 0.66087 0.0
H506 H 0.54911 0.18931 0.7258 0.0
H507 H 0.56341 0.18198 0.7794 0.0
H508 H 0.54793 0.15682 0.7473 0.0
H509 H 0.63954 0.22004 0.66554 0.0
H510 H 0.66521 0.19672 0.66987 0.0
H511 H 0.65307 0.21277 0.71971 0.0
C512 C 0.32511 0.63674 0.14115 0.0
C513 C 0.34655 0.62082 0.14871 0.0
C514 C 0.30032 0.62875 0.15376 0.0
C515 C 0.29715 0.60453 0.17497 0.0
C516 C 0.31845 0.58776 0.18001 0.0
C517 C 0.34284 0.59602 0.16645 0.0
C518 C 0.27787 0.64686 0.14703 0.0
C519 C 0.3159 0.56187 0.20301 0.0
C520 C 0.2478 0.59557 0.26707 0.0
C521 C 0.23032 0.57875 0.24624 0.0
C522 C 0.26907 0.60507 0.24342 0.0
C523 C 0.27262 0.59796 0.19756 0.0
C524 C 0.25421 0.58229 0.17546 0.0
C525 C 0.23335 0.57259 0.20029 0.0
C526 C 0.28856 0.6214 0.2684 0.0
C527 C 0.25719 0.57481 0.12633 0.0
H528 H 0.32777 0.6558 0.12692 0.0
H529 H 0.35923 0.58348 0.17227 0.0
H530 H 0.26085 0.63632 0.13387 0.0
H531 H 0.27237 0.65543 0.18008 0.0
H532 H 0.28262 0.66275 0.12328 0.0
H533 H 0.33381 0.55021 0.20046 0.0
H534 H 0.31145 0.56477 0.23944 0.0
H535 H 0.29981 0.55072 0.188 0.0
H536 H 0.24558 0.60037 0.3026 0.0
H537 H 0.21966 0.55985 0.18393 0.0
H538 H 0.29245 0.6394 0.24939 0.0
H539 H 0.30705 0.61074 0.27124 0.0
H540 H 0.28204 0.62657 0.30307 0.0
H541 H 0.26222 0.59187 0.10551 0.0
H542 H 0.23937 0.56596 0.11245 0.0
H543 H 0.27316 0.56072 0.1229 0.0
C544 C 0.88534 0.35064 0.70683 0.0
C545 C 0.86575 0.35424 0.67473 0.0
C546 C 0.89328 0.32586 0.71927 0.0
C547 C 0.8816 0.30425 0.69852 0.0
C548 C 0.86234 0.30773 0.66516 0.0
C549 C 0.85446 0.33275 0.65389 0.0
C550 C 0.91365 0.32284 0.75551 0.0
C551 C 0.84976 0.28505 0.64199 0.0
C552 C 0.91886 0.24201 0.71098 0.0
C553 C 0.90647 0.23076 0.74824 0.0
C554 C 0.91025 0.26547 0.69303 0.0
C555 C 0.88897 0.27802 0.71326 0.0
C556 C 0.87579 0.26633 0.74976 0.0
C557 C 0.88461 0.24272 0.76664 0.0
C558 C 0.92447 0.27726 0.65356 0.0
C559 C 0.85313 0.27932 0.77237 0.0
H560 H 0.89398 0.36719 0.7233 0.0
H561 H 0.83943 0.33549 0.62881 0.0
H562 H 0.90559 0.31214 0.78478 0.0
H563 H 0.93009 0.31142 0.74227 0.0
H564 H 0.92103 0.34167 0.76781 0.0
H565 H 0.83619 0.29111 0.61487 0.0
H566 H 0.86466 0.27232 0.62694 0.0
H567 H 0.83901 0.27343 0.66719 0.0
H568 H 0.9356 0.23271 0.69629 0.0
H569 H 0.87495 0.23415 0.79548 0.0
H570 H 0.93445 0.29503 0.66482 0.0
H571 H 0.91072 0.28287 0.62649 0.0
H572 H 0.93901 0.2639 0.639 0.0
H573 H 0.85957 0.29746 0.7887 0.0
H574 H 0.84407 0.26693 0.79856 0.0
H575 H 0.83831 0.28452 0.74685 0.0
C576 C 0.1637 0.84627 0.19446 0.0
C577 C 0.14417 0.86498 0.19286 0.0
C578 C 0.18803 0.85213 0.21207 0.0
C579 C 0.19293 0.87732 0.22798 0.0
C580 C 0.17348 0.8964 0.2259 0.0
C581 C 0.14925 0.88996 0.20849 0.0
C582 C 0.20838 0.83133 0.21417 0.0
C583 C 0.17823 0.92358 0.24221 0.0
C584 C 0.24696 0.89068 0.31066 0.0
C585 C 0.26569 0.9012 0.28191 0.0
C586 C 0.22338 0.88201 0.29334 0.0
C587 C 0.21856 0.88398 0.24629 0.0
C588 C 0.23772 0.89359 0.21689 0.0
C589 C 0.26111 0.90202 0.23505 0.0
C590 C 0.2033 0.87164 0.32553 0.0
C591 C 0.23315 0.89596 0.16649 0.0
H592 H 0.15985 0.82685 0.1828 0.0
H593 H 0.13427 0.90452 0.20726 0.0
H594 H 0.22564 0.83732 0.19471 0.0
H595 H 0.21459 0.82836 0.24977 0.0
H596 H 0.20141 0.81267 0.20041 0.0
H597 H 0.16109 0.93617 0.23777 0.0
H598 H 0.18355 0.92339 0.27862 0.0
H599 H 0.19462 0.93215 0.22343 0.0
H600 H 0.25038 0.88989 0.34687 0.0
H601 H 0.27555 0.90993 0.2125 0.0
H602 H 0.19628 0.85262 0.31368 0.0
H603 H 0.18647 0.88483 0.32633 0.0
H604 H 0.21082 0.86953 0.36059 0.0
H605 H 0.22694 0.8772 0.15223 0.0
H606 H 0.25061 0.90248 0.14804 0.0
H607 H 0.2174 0.90998 0.16009 0.0
C608 C 0.38323 0.65165 0.67019 0.0
C609 C 0.35919 0.64672 0.65031 0.0
C610 C 0.39007 0.6765 0.68357 0.0
C611 C 0.37263 0.69702 0.67609 0.0
C612 C 0.34916 0.6926 0.65301 0.0
C613 C 0.34257 0.66736 0.6407 0.0
C614 C 0.41526 0.68041 0.70844 0.0
C615 C 0.33046 0.71423 0.64351 0.0
C616 C 0.3809 0.74744 0.76621 0.0
C617 C 0.3991 0.76358 0.74582 0.0
C618 C 0.37047 0.72661 0.74247 0.0
C619 C 0.3781 0.72226 0.69708 0.0
C620 C 0.39452 0.73996 0.675 0.0
C621 C 0.40513 0.76032 0.69988 0.0
C622 C 0.35318 0.70798 0.76732 0.0
C623 C 0.40239 0.73631 0.62621 0.0
H624 H 0.39628 0.63587 0.6776 0.0
H625 H 0.32408 0.66374 0.62482 0.0
H626 H 0.42663 0.69592 0.69215 0.0
H627 H 0.41134 0.68649 0.74383 0.0
H628 H 0.4272 0.66264 0.70937 0.0
H629 H 0.31572 0.7086 0.61805 0.0
H630 H 0.32039 0.71961 0.67527 0.0
H631 H 0.34075 0.73158 0.63118 0.0
H632 H 0.3761 0.75001 0.80167 0.0
H633 H 0.41881 0.77315 0.68379 0.0
H634 H 0.36373 0.68967 0.77325 0.0
H635 H 0.3359 0.7034 0.74675 0.0
H636 H 0.34679 0.71566 0.80061 0.0
H637 H 0.41715 0.72088 0.62406 0.0
H638 H 0.41069 0.7542 0.61163 0.0
H639 H 0.38571 0.73027 0.60524 0.0
C640 C 0.74038 0.38769 0.25031 0.0
C641 C 0.72472 0.40645 0.22999 0.0
C642 C 0.76296 0.37917 0.22909 0.0
C643 C 0.76973 0.38935 0.18625 0.0
C644 C 0.75288 0.40661 0.16389 0.0
C645 C 0.73064 0.41517 0.18624 0.0
C646 C 0.78058 0.3609 0.25423 0.0
C647 C 0.7592 0.4174 0.11774 0.0
C648 C 0.84136 0.39655 0.16845 0.0
C649 C 0.84736 0.37427 0.14371 0.0
C650 C 0.81602 0.40199 0.1813 0.0
C651 C 0.79605 0.38496 0.16839 0.0
C652 C 0.80168 0.36316 0.14137 0.0
C653 C 0.82738 0.35791 0.12965 0.0
C654 C 0.81085 0.42531 0.21063 0.0
C655 C 0.78075 0.34491 0.12632 0.0
H656 H 0.73589 0.38083 0.28407 0.0
H657 H 0.71836 0.42937 0.17007 0.0
H658 H 0.78684 0.34495 0.2318 0.0
H659 H 0.79814 0.37138 0.26522 0.0
H660 H 0.77121 0.35255 0.28469 0.0
H661 H 0.74226 0.42691 0.10184 0.0
H662 H 0.77483 0.43184 0.12101 0.0
H663 H 0.76623 0.40197 0.09484 0.0
H664 H 0.85664 0.40926 0.17972 0.0
H665 H 0.83186 0.34073 0.11031 0.0
H666 H 0.80328 0.41907 0.24402 0.0
H667 H 0.79598 0.43773 0.19471 0.0
H668 H 0.82844 0.43704 0.21643 0.0
H669 H 0.77341 0.33407 0.15599 0.0
H670 H 0.78777 0.33085 0.10075 0.0
H671 H 0.76427 0.35576 0.11176 0.0
C672 C 0.09799 0.84492 0.72223 0.0
C673 C 0.12292 0.84909 0.70543 0.0
C674 C 0.09081 0.82087 0.73954 0.0
C675 C 0.10902 0.80058 0.74025 0.0
C676 C 0.13427 0.80467 0.72386 0.0
C677 C 0.1409 0.82886 0.70647 0.0
C678 C 0.06364 0.81711 0.75661 0.0
C679 C 0.15421 0.78344 0.72448 0.0
C680 C 0.09446 0.74455 0.81834 0.0
C681 C 0.08329 0.7269 0.78815 0.0
C682 C 0.10349 0.76847 0.80308 0.0
C683 C 0.10128 0.77478 0.75661 0.0
C684 C 0.09076 0.75679 0.72578 0.0
C685 C 0.08194 0.73305 0.7419 0.0
C686 C 0.11473 0.78725 0.83681 0.0
C687 C 0.0881 0.76291 0.67594 0.0
H688 H 0.08398 0.86042 0.72167 0.0
H689 H 0.16028 0.83194 0.69396 0.0
H690 H 0.05395 0.80182 0.73661 0.0
H691 H 0.06399 0.81064 0.79242 0.0
H692 H 0.05194 0.835 0.75435 0.0
H693 H 0.17325 0.79004 0.71188 0.0
H694 H 0.15662 0.77598 0.75944 0.0
H695 H 0.14765 0.76713 0.70311 0.0
H696 H 0.09561 0.73998 0.85412 0.0
H697 H 0.07348 0.71951 0.71823 0.0
H698 H 0.1024 0.80469 0.83877 0.0
H699 H 0.13411 0.79359 0.82557 0.0
H700 H 0.11641 0.77883 0.87129 0.0
H701 H 0.07498 0.77962 0.67139 0.0
H702 H 0.08037 0.74641 0.6562 0.0
H703 H 0.10706 0.76839 0.66161 0.0
C704 C 0.64203 0.10376 0.23529 0.0
C705 C 0.639 0.12304 0.20241 0.0
C706 C 0.66656 0.09648 0.25032 0.0
C707 C 0.6885 0.10867 0.23178 0.0
C708 C 0.6856 0.12856 0.19948 0.0
C709 C 0.66084 0.13557 0.18523 0.0
C710 C 0.66901 0.07533 0.28522 0.0
C711 C 0.70867 0.14196 0.17911 0.0
C712 C 0.7514 0.10133 0.29526 0.0
C713 C 0.7629 0.08079 0.27182 0.0
C714 C 0.7273 0.11093 0.28215 0.0
C715 C 0.71453 0.09975 0.24471 0.0
C716 C 0.72628 0.07952 0.22015 0.0
C717 C 0.75036 0.07027 0.23401 0.0
C718 C 0.71525 0.1326 0.30898 0.0
C719 C 0.71318 0.06727 0.17981 0.0
H720 H 0.62523 0.09417 0.24907 0.0
H721 H 0.65869 0.1505 0.15985 0.0
H722 H 0.67901 0.05849 0.2701 0.0
H723 H 0.68084 0.08199 0.31425 0.0
H724 H 0.64998 0.06891 0.29821 0.0
H725 H 0.70304 0.15799 0.15619 0.0
H726 H 0.72121 0.14977 0.20628 0.0
H727 H 0.72034 0.12791 0.15956 0.0
H728 H 0.76096 0.10963 0.32447 0.0
H729 H 0.75914 0.05449 0.21555 0.0
H730 H 0.69713 0.12584 0.32492 0.0
H731 H 0.71013 0.14881 0.28618 0.0
H732 H 0.72823 0.13992 0.336 0.0
H733 H 0.69484 0.05821 0.19063 0.0
H734 H 0.72537 0.05234 0.16342 0.0
H735 H 0.7083 0.08218 0.15426 0.0
C736 C 0.34804 0.83015 0.35408 0.0
C737 C 0.36853 0.84781 0.35452 0.0
C738 C 0.35121 0.80531 0.33618 0.0
C739 C 0.37539 0.79805 0.3182 0.0
C740 C 0.39651 0.8152 0.32093 0.0
C741 C 0.39286 0.83981 0.33926 0.0
C742 C 0.32836 0.78736 0.33436 0.0
C743 C 0.42266 0.8081 0.30221 0.0
C744 C 0.39533 0.72953 0.29288 0.0
C745 C 0.39313 0.72889 0.24552 0.0
C746 C 0.38792 0.75138 0.31752 0.0
C747 C 0.37852 0.77319 0.29406 0.0
C748 C 0.37477 0.77208 0.24653 0.0
C749 C 0.38193 0.74979 0.22281 0.0
C750 C 0.39175 0.75168 0.36823 0.0
C751 C 0.36494 0.79507 0.22029 0.0
H752 H 0.32917 0.83606 0.36595 0.0
H753 H 0.40886 0.85321 0.33951 0.0
H754 H 0.32202 0.78504 0.29869 0.0
H755 H 0.33375 0.76799 0.34712 0.0
H756 H 0.31184 0.7947 0.3545 0.0
H757 H 0.43741 0.82307 0.30929 0.0
H758 H 0.42932 0.78959 0.3169 0.0
H759 H 0.42129 0.80544 0.26497 0.0
H760 H 0.40373 0.71325 0.31059 0.0
H761 H 0.38032 0.74939 0.18619 0.0
H762 H 0.37452 0.7597 0.38544 0.0
H763 H 0.40831 0.76428 0.37679 0.0
H764 H 0.39566 0.73213 0.38194 0.0
H765 H 0.34715 0.80279 0.23609 0.0
H766 H 0.36078 0.79028 0.18433 0.0
H767 H 0.37958 0.81063 0.22109 0.0
C768 C 0.64061 0.39321 0.80946 0.0
C769 C 0.63399 0.37188 0.83612 0.0
C770 C 0.66626 0.39827 0.79844 0.0
C771 C 0.68587 0.38188 0.81523 0.0
C772 C 0.67953 0.36108 0.84409 0.0
C773 C 0.65354 0.35612 0.85382 0.0
C774 C 0.6722 0.42049 0.76702 0.0
C775 C 0.70007 0.34361 0.86334 0.0
C776 C 0.74305 0.38264 0.73708 0.0
C777 C 0.75757 0.40278 0.75575 0.0
C778 C 0.72049 0.37411 0.75818 0.0
C779 C 0.71261 0.38573 0.79927 0.0
C780 C 0.72851 0.40425 0.82053 0.0
C781 C 0.75075 0.41277 0.79824 0.0
C782 C 0.70392 0.35443 0.73426 0.0
C783 C 0.72104 0.41652 0.86498 0.0
H784 H 0.62562 0.4054 0.79542 0.0
H785 H 0.64852 0.33972 0.87474 0.0
H786 H 0.68631 0.43368 0.78303 0.0
H787 H 0.68102 0.41309 0.73533 0.0
H788 H 0.65472 0.43175 0.75793 0.0
H789 H 0.69238 0.33081 0.89028 0.0
H790 H 0.70811 0.33138 0.83595 0.0
H791 H 0.71619 0.35509 0.87752 0.0
H792 H 0.74829 0.3747 0.70438 0.0
H793 H 0.76221 0.428 0.81327 0.0
H794 H 0.68651 0.36407 0.7204 0.0
H795 H 0.69733 0.3394 0.75825 0.0
H796 H 0.71428 0.34495 0.70585 0.0
H797 H 0.70552 0.43085 0.85903 0.0
H798 H 0.73757 0.42654 0.88113 0.0
H799 H 0.71345 0.40187 0.88887 0.0
C800 C 0.08619 0.74789 0.28308 0.0
C801 C 0.09383 0.75438 0.23899 0.0
C802 C 0.09495 0.72524 0.30362 0.0
C803 C 0.11149 0.70865 0.27919 0.0
C804 C 0.12045 0.71579 0.23572 0.0
C805 C 0.1116 0.73874 0.21616 0.0
C806 C 0.08534 0.71837 0.35036 0.0
C807 C 0.13806 0.69845 0.20868 0.0
C808 C 0.14461 0.6529 0.33802 0.0
C809 C 0.12816 0.63241 0.32682 0.0
C810 C 0.13924 0.67803 0.32344 0.0
C811 C 0.11703 0.68261 0.29687 0.0
C812 C 0.10009 0.66215 0.28623 0.0
C813 C 0.1058 0.63732 0.30153 0.0
C814 C 0.15755 0.69953 0.33562 0.0
C815 C 0.07624 0.66637 0.25771 0.0
H816 H 0.07277 0.76018 0.30115 0.0
H817 H 0.1176 0.74373 0.18211 0.0
H818 H 0.07168 0.70201 0.3479 0.0
H819 H 0.10155 0.71213 0.37231 0.0
H820 H 0.07531 0.73477 0.36695 0.0
H821 H 0.14539 0.70802 0.1776 0.0
H822 H 0.15472 0.69223 0.22956 0.0
H823 H 0.12743 0.68083 0.1985 0.0
H824 H 0.16189 0.64929 0.35769 0.0
H825 H 0.09304 0.62161 0.29252 0.0
H826 H 0.14693 0.71548 0.35232 0.0
H827 H 0.16633 0.7075 0.30439 0.0
H828 H 0.17323 0.69298 0.35853 0.0
H829 H 0.06368 0.68109 0.2737 0.0
H830 H 0.0649 0.64842 0.25308 0.0
H831 H 0.08178 0.67374 0.22382 0.0
C832 C 0.85017 0.09806 0.74267 0.0
C833 C 0.85312 0.11735 0.77555 0.0
C834 C 0.8257 0.09151 0.72621 0.0
C835 C 0.80374 0.10445 0.74331 0.0
C836 C 0.8066 0.12418 0.77592 0.0
C837 C 0.83125 0.13041 0.79161 0.0
C838 C 0.82328 0.07044 0.69116 0.0
C839 C 0.78356 0.13834 0.79496 0.0
C840 C 0.74077 0.10029 0.67858 0.0
C841 C 0.72803 0.08065 0.70228 0.0
C842 C 0.7655 0.10829 0.69152 0.0
C843 C 0.77762 0.09642 0.72907 0.0
C844 C 0.76471 0.07696 0.75362 0.0
C845 C 0.74007 0.06933 0.73995 0.0
C846 C 0.7788 0.12917 0.66473 0.0
C847 C 0.77702 0.06402 0.79409 0.0
H848 H 0.86697 0.08804 0.72977 0.0
H849 H 0.83329 0.14537 0.81697 0.0
H850 H 0.8125 0.05395 0.70566 0.0
H851 H 0.81219 0.07748 0.66148 0.0
H852 H 0.84235 0.06342 0.67928 0.0
H853 H 0.78921 0.15402 0.81855 0.0
H854 H 0.77194 0.14676 0.76709 0.0
H855 H 0.77098 0.12465 0.81343 0.0
H856 H 0.73165 0.10908 0.64935 0.0
H857 H 0.73036 0.05422 0.75863 0.0
H858 H 0.797 0.12162 0.65018 0.0
H859 H 0.78396 0.14544 0.68735 0.0
H860 H 0.76659 0.13665 0.6367 0.0
H861 H 0.79526 0.05453 0.78378 0.0
H862 H 0.76426 0.04931 0.80966 0.0
H863 H 0.78192 0.07859 0.82019 0.0
C864 C 0.58612 0.12152 0.98927 0.0
C865 C 0.58177 0.10698 0.02855 0.0
C866 C 0.5944 0.10971 0.94917 0.0
C867 C 0.5986 0.08276 0.94848 0.0
C868 C 0.59434 0.06796 0.98795 0.0
C869 C 0.58583 0.08024 0.0275 0.0
C870 C 0.59842 0.12605 0.9074 0.0
C871 C 0.59871 0.03919 0.98835 0.0
C872 C 0.59308 0.05284 0.83253 0.0
C873 C 0.61893 0.05192 0.81867 0.0
C874 C 0.58631 0.06182 0.8755 0.0
C875 C 0.60589 0.06999 0.9055 0.0
C876 C 0.63213 0.06766 0.8929 0.0
C877 C 0.63838 0.05859 0.84944 0.0
C878 C 0.55812 0.06388 0.88779 0.0
C879 C 0.65348 0.07598 0.92441 0.0
H880 H 0.58305 0.14217 0.98981 0.0
H881 H 0.5828 0.06888 0.05783 0.0
H882 H 0.61838 0.12363 0.89468 0.0
H883 H 0.5852 0.11965 0.88006 0.0
H884 H 0.59495 0.14684 0.91395 0.0
H885 H 0.59549 0.03063 0.02236 0.0
H886 H 0.58554 0.02975 0.96385 0.0
H887 H 0.61869 0.03475 0.97747 0.0
H888 H 0.57795 0.0473 0.80914 0.0
H889 H 0.65837 0.05788 0.83889 0.0
H890 H 0.55267 0.08447 0.89115 0.0
H891 H 0.55443 0.05455 0.92094 0.0
H892 H 0.54542 0.05488 0.86194 0.0
H893 H 0.65298 0.09723 0.9284 0.0
H894 H 0.67279 0.07035 0.91156 0.0
H895 H 0.65072 0.06745 0.95852 0.0
C896 C 0.34018 0.57782 0.47424 0.0
C897 C 0.35488 0.56387 0.5058 0.0
C898 C 0.35033 0.58428 0.43169 0.0
C899 C 0.37568 0.57647 0.4205 0.0
C900 C 0.38959 0.56031 0.45037 0.0
C901 C 0.37901 0.55417 0.49266 0.0
C902 C 0.33472 0.60121 0.40035 0.0
C903 C 0.4165 0.55117 0.43926 0.0
C904 C 0.40039 0.58576 0.30068 0.0
C905 C 0.41406 0.60904 0.30462 0.0
C906 C 0.38769 0.57492 0.33799 0.0
C907 C 0.38876 0.58759 0.38032 0.0
C908 C 0.40264 0.61095 0.3847 0.0
C909 C 0.4151 0.6214 0.3468 0.0
C910 C 0.37297 0.55007 0.33201 0.0
C911 C 0.40419 0.62502 0.42943 0.0
H912 H 0.32141 0.58521 0.48379 0.0
H913 H 0.39038 0.54301 0.51646 0.0
H914 H 0.34288 0.62096 0.4005 0.0
H915 H 0.33563 0.59399 0.36503 0.0
H916 H 0.31419 0.60239 0.41081 0.0
H917 H 0.4233 0.53607 0.46312 0.0
H918 H 0.41733 0.5434 0.40428 0.0
H919 H 0.43 0.5677 0.44102 0.0
H920 H 0.39923 0.57609 0.26819 0.0
H921 H 0.4255 0.63939 0.35021 0.0
H922 H 0.3524 0.55306 0.34077 0.0
H923 H 0.38062 0.53518 0.35542 0.0
H924 H 0.3741 0.54259 0.2968 0.0
H925 H 0.38452 0.62999 0.44133 0.0
H926 H 0.41567 0.64302 0.42711 0.0
H927 H 0.41305 0.61237 0.45544 0.0
C928 C 0.93215 0.41626 0.00889 0.0
C929 C 0.93304 0.38929 0.01164 0.0
C930 C 0.92372 0.42853 0.96919 0.0
C931 C 0.91625 0.41341 0.93153 0.0
C932 C 0.91947 0.38634 0.93272 0.0
C933 C 0.92782 0.3746 0.97283 0.0
C934 C 0.92087 0.45748 0.96888 0.0
C935 C 0.91222 0.36958 0.89284 0.0
C936 C 0.86244 0.43473 0.85328 0.0
C937 C 0.87616 0.44121 0.81408 0.0
C938 C 0.87541 0.42675 0.89258 0.0
C939 C 0.90269 0.42535 0.8926 0.0
C940 C 0.91667 0.43331 0.85407 0.0
C941 C 0.90324 0.44111 0.81524 0.0
C942 C 0.85985 0.41858 0.93333 0.0
C943 C 0.94575 0.43232 0.85297 0.0
H944 H 0.93615 0.42777 0.03873 0.0
H945 H 0.92879 0.35375 0.9746 0.0
H946 H 0.92816 0.46571 0.93669 0.0
H947 H 0.90015 0.46257 0.9715 0.0
H948 H 0.93127 0.46662 -0.0024 0.0
H949 H 0.91837 0.34925 0.89757 0.0
H950 H 0.891 0.36996 0.88818 0.0
H951 H 0.92102 0.37705 0.86125 0.0
H952 H 0.84156 0.43484 0.85272 0.0
H953 H 0.91406 0.44646 0.7853 0.0
H954 H 0.86683 0.42863 0.96416 0.0
H955 H 0.86236 0.39759 0.93904 0.0
H956 H 0.83897 0.42266 0.92909 0.0
H957 H 0.95399 0.44109 0.88404 0.0
H958 H 0.95375 0.44243 0.82294 0.0
H959 H 0.95219 0.41195 0.85193 0.0
C960 C 0.06276 0.89294 0.33406 0.0
C961 C 0.05876 0.86646 0.32698 0.0
C962 C 0.07252 0.90219 0.37507 0.0
C963 C 0.07811 0.88461 0.41021 0.0
C964 C 0.07295 0.85802 0.40433 0.0
C965 C 0.06335 0.84921 0.36261 0.0
C966 C 0.07781 0.93068 0.38007 0.0
C967 C 0.07842 0.83881 0.44152 0.0
C968 C 0.1287 0.9038 0.49641 0.0
C969 C 0.1134 0.91181 0.53296 0.0
C970 C 0.11744 0.89504 0.45608 0.0
C971 C 0.09025 0.89407 0.45247 0.0
C972 C 0.0747 0.90265 0.48874 0.0
C973 C 0.08646 0.91158 0.52846 0.0
C974 C 0.13461 0.8865 0.41758 0.0
C975 C 0.04564 0.90189 0.48595 0.0
H976 H 0.05903 0.90652 0.30694 0.0
H977 H 0.06032 0.82876 0.35744 0.0
H978 H 0.06809 0.93836 0.41069 0.0
H979 H 0.0988 0.93385 0.38454 0.0
H980 H 0.07123 0.94193 0.3502 0.0
H981 H 0.07172 0.81912 0.43269 0.0
H982 H 0.09945 0.83807 0.44821 0.0
H983 H 0.0689 0.84492 0.47341 0.0
H984 H 0.14951 0.90398 0.49955 0.0
H985 H 0.07444 0.91755 0.55658 0.0
H986 H 0.13012 0.89774 0.38659 0.0
H987 H 0.13097 0.86593 0.40964 0.0
H988 H 0.1554 0.88888 0.42556 0.0
H989 H 0.03885 0.91338 0.45659 0.0
H990 H 0.03632 0.90946 0.51711 0.0
H991 H 0.03912 0.88178 0.4805 0.0
C992 C 0.55781 0.37253 0.00844 0.0
C993 C 0.55084 0.38732 0.97057 0.0
C994 C 0.56638 0.38431 0.04842 0.0
C995 C 0.56807 0.41149 0.05042 0.0
C996 C 0.55916 0.42657 0.0137 0.0
C997 C 0.55051 0.41429 0.97421 0.0
C998 C 0.57519 0.36759 0.08739 0.0
C999 C 0.56043 0.45562 0.01486 0.0
C1000 C 0.57905 0.44012 0.16667 0.0
C1001 C 0.60604 0.44243 0.16776 0.0
C1002 C 0.5663 0.43091 0.12813 0.0
C1003 C 0.58086 0.42392 0.08967 0.0
C1004 C 0.60795 0.42737 0.08963 0.0
C1005 C 0.62025 0.43662 0.12874 0.0
C1006 C 0.5374 0.42761 0.12936 0.0
C1007 C 0.62406 0.42028 0.0489 0.0
H1008 H 0.55786 0.35169 0.0061 0.0
H1009 H 0.54513 0.42591 0.94519 0.0
H1010 H 0.59637 0.36934 0.0915 0.0
H1011 H 0.56622 0.37409 0.11952 0.0
H1012 H 0.57041 0.34696 0.08207 0.0
H1013 H 0.54986 0.46453 0.98609 0.0
H1014 H 0.55233 0.46314 0.04703 0.0
H1015 H 0.58086 0.46182 0.01321 0.0
H1016 H 0.5678 0.44483 0.19647 0.0
H1017 H 0.64105 0.43838 0.12924 0.0
H1018 H 0.53261 0.40679 0.12876 0.0
H1019 H 0.52839 0.43647 0.09903 0.0
H1020 H 0.52868 0.4363 0.16015 0.0
H1021 H 0.62294 0.3992 0.04299 0.0
H1022 H 0.64462 0.42567 0.05323 0.0
H1023 H 0.61645 0.42994 0.01813 0.0
C1024 C 0.14496 0.57234 0.51884 0.0
C1025 C 0.12876 0.55956 0.48804 0.0
C1026 C 0.13568 0.58065 0.56103 0.0
C1027 C 0.1097 0.57585 0.57273 0.0
C1028 C 0.09379 0.56147 0.54315 0.0
C1029 C 0.1035 0.55352 0.50114 0.0
C1030 C 0.15329 0.59574 0.59195 0.0
C1031 C 0.06611 0.55551 0.55495 0.0
C1032 C 0.08796 0.58222 0.69458 0.0
C1033 C 0.07545 0.60628 0.69426 0.0
C1034 C 0.09955 0.57228 0.6555 0.0
C1035 C 0.09873 0.58673 0.61501 0.0
C1036 C 0.08658 0.6112 0.61444 0.0
C1037 C 0.07502 0.62068 0.65409 0.0
C1038 C 0.11231 0.54611 0.65739 0.0
C1039 C 0.08555 0.62722 0.57178 0.0
H1040 H 0.16454 0.57704 0.50918 0.0
H1041 H 0.0909 0.54343 0.47783 0.0
H1042 H 0.14653 0.616 0.59394 0.0
H1043 H 0.15279 0.58778 0.62681 0.0
H1044 H 0.17356 0.59569 0.57989 0.0
H1045 H 0.0569 0.54255 0.52976 0.0
H1046 H 0.065 0.54633 0.58883 0.0
H1047 H 0.05486 0.57368 0.55658 0.0
H1048 H 0.08858 0.5709 0.72541 0.0
H1049 H 0.06558 0.63931 0.65352 0.0
H1050 H 0.13258 0.54748 0.64575 0.0
H1051 H 0.10225 0.53264 0.63417 0.0
H1052 H 0.11215 0.53777 0.69204 0.0
H1053 H 0.10531 0.63042 0.55868 0.0
H1054 H 0.07623 0.64623 0.57738 0.0
H1055 H 0.07466 0.61676 0.54516 0.0
C1056 C 0.9101 0.07554 0.94871 0.0
C1057 C 0.91391 0.10231 0.94786 0.0
C1058 C 0.90149 0.06317 0.98812 0.0
C1059 C 0.89688 0.07789 0.0276 0.0
C1060 C 0.90123 0.10481 0.02728 0.0
C1061 C 0.90961 0.11669 0.98737 0.0
C1062 C 0.897 0.03444 0.98736 0.0
C1063 C 0.89693 0.12109 0.06906 0.0
C1064 C 0.85461 0.05538 0.12454 0.0
C1065 C 0.87328 0.04872 0.15679 0.0
C1066 C 0.86195 0.06368 0.08112 0.0
C1067 C 0.88847 0.06523 0.07007 0.0
C1068 C 0.90723 0.05689 0.10152 0.0
C1069 C 0.8994 0.04869 0.14442 0.0
C1070 C 0.84143 0.0722 0.04807 0.0
C1071 C 0.93569 0.05813 0.09098 0.0
H1072 H 0.91312 0.06432 0.91821 0.0
H1073 H 0.91258 0.13736 0.98703 0.0
H1074 H 0.90907 0.02489 0.01348 0.0
H1075 H 0.8766 0.03025 0.99577 0.0
H1076 H 0.90148 0.02578 0.95386 0.0
H1077 H 0.90112 0.14179 0.06305 0.0
H1078 H 0.87666 0.11927 0.08051 0.0
H1079 H 0.90941 0.11416 0.09708 0.0
H1080 H 0.83442 0.05536 0.1339 0.0
H1081 H 0.91393 0.0431 0.16896 0.0
H1082 H 0.84481 0.06347 0.01428 0.0
H1083 H 0.84231 0.09342 0.04388 0.0
H1084 H 0.82177 0.06695 0.05967 0.0
H1085 H 0.9398 0.04892 0.05786 0.0
H1086 H 0.9476 0.04858 0.1174 0.0
H1087 H 0.94176 0.07857 0.08848 0.0
C1088 C 0.43656 0.90698 0.69004 0.0
C1089 C 0.43883 0.87999 0.68989 0.0
C1090 C 0.42823 0.92034 0.65148 0.0
C1091 C 0.42197 0.90637 0.61193 0.0
C1092 C 0.42525 0.87928 0.61087 0.0
C1093 C 0.4337 0.8664 0.64988 0.0
C1094 C 0.42513 0.94925 0.65372 0.0
C1095 C 0.41882 0.86375 0.56907 0.0
C1096 C 0.37178 0.92855 0.52817 0.0
C1097 C 0.38709 0.93468 0.49057 0.0
C1098 C 0.383 0.92099 0.5692 0.0
C1099 C 0.41016 0.91959 0.57258 0.0
C1100 C 0.42572 0.92812 0.53625 0.0
C1101 C 0.41396 0.93566 0.49554 0.0
C1102 C 0.36575 0.91247 0.60757 0.0
C1103 C 0.45475 0.92729 0.539 0.0
H1104 H 0.44074 0.91773 0.72066 0.0
H1105 H 0.43547 0.84559 0.64938 0.0
H1106 H 0.43414 0.95851 0.62381 0.0
H1107 H 0.40435 0.95424 0.65314 0.0
H1108 H 0.4338 0.95751 0.68493 0.0
H1109 H 0.42387 0.84306 0.57294 0.0
H1110 H 0.39789 0.86525 0.5618 0.0
H1111 H 0.42923 0.87153 0.53927 0.0
H1112 H 0.35098 0.92818 0.52477 0.0
H1113 H 0.42594 0.9405 0.46672 0.0
H1114 H 0.37197 0.92133 0.63998 0.0
H1115 H 0.36717 0.89126 0.61161 0.0
H1116 H 0.34524 0.91756 0.60146 0.0
H1117 H 0.46159 0.93502 0.57192 0.0
H1118 H 0.4639 0.9384 0.51118 0.0
H1119 H 0.46135 0.90699 0.53665 0.0
C1120 C 0.44066 0.88335 0.00346 0.0
C1121 C 0.43417 0.85828 0.9899 0.0
C1122 C 0.4334 0.89273 0.04607 0.0
C1123 C 0.41931 0.87665 0.0757 0.0
C1124 C 0.41455 0.85069 0.06382 0.0
C1125 C 0.42216 0.84176 0.02107 0.0
C1126 C 0.43938 0.92036 0.05816 0.0
C1127 C 0.39983 0.83287 0.09486 0.0
C1128 C 0.41138 0.89805 0.19737 0.0
C1129 C 0.38708 0.91008 0.19625 0.0
C1130 C 0.42201 0.88685 0.15853 0.0
C1131 C 0.40799 0.88757 0.11756 0.0
C1132 C 0.38334 0.89932 0.11614 0.0
C1133 C 0.37319 0.91054 0.15554 0.0
C1134 C 0.44838 0.87456 0.16122 0.0
C1135 C 0.36777 0.90018 0.07292 0.0
H1136 H 0.45025 0.89617 0.97992 0.0
H1137 H 0.41728 0.82225 0.01119 0.0
H1138 H 0.42127 0.93173 0.05875 0.0
H1139 H 0.44803 0.92151 0.09249 0.0
H1140 H 0.4528 0.92943 0.03358 0.0
H1141 H 0.40062 0.81253 0.08322 0.0
H1142 H 0.4075 0.83388 0.1299 0.0
H1143 H 0.37934 0.83898 0.09613 0.0
H1144 H 0.42234 0.89753 0.22863 0.0
H1145 H 0.35438 0.91962 0.1544 0.0
H1146 H 0.46187 0.88478 0.13831 0.0
H1147 H 0.44746 0.85425 0.14968 0.0
H1148 H 0.45644 0.87496 0.1961 0.0
H1149 H 0.37843 0.91109 0.04662 0.0
H1150 H 0.34863 0.90937 0.07781 0.0
H1151 H 0.36483 0.88037 0.0598 0.0
C1152 C 0.63698 0.41868 0.49948 0.0
C1153 C 0.62091 0.4307 0.46752 0.0
C1154 C 0.62731 0.41059 0.54147 0.0
C1155 C 0.60102 0.41477 0.55176 0.0
C1156 C 0.58514 0.42839 0.52101 0.0
C1157 C 0.59528 0.43622 0.47927 0.0
C1158 C 0.6449 0.39641 0.57377 0.0
C1159 C 0.5571 0.43361 0.53124 0.0
C1160 C 0.56759 0.36944 0.63369 0.0
C1161 C 0.56737 0.38413 0.67353 0.0
C1162 C 0.57872 0.37911 0.59384 0.0
C1163 C 0.58979 0.40405 0.59391 0.0
C1164 C 0.58969 0.41894 0.63393 0.0
C1165 C 0.57852 0.40882 0.67319 0.0
C1166 C 0.57862 0.36267 0.55162 0.0
C1167 C 0.60126 0.44563 0.63524 0.0
H1168 H 0.65685 0.41446 0.49094 0.0
H1169 H 0.58273 0.4457 0.45507 0.0
H1170 H 0.64374 0.40493 0.60817 0.0
H1171 H 0.63865 0.37603 0.5765 0.0
H1172 H 0.66532 0.39676 0.5625 0.0
H1173 H 0.54789 0.44606 0.50524 0.0
H1174 H 0.54643 0.41513 0.5328 0.0
H1175 H 0.55511 0.44304 0.56479 0.0
H1176 H 0.55916 0.35035 0.63362 0.0
H1177 H 0.57854 0.42042 0.70373 0.0
H1178 H 0.59864 0.35972 0.53951 0.0
H1179 H 0.56791 0.37266 0.5242 0.0
H1180 H 0.56965 0.34354 0.55738 0.0
H1181 H 0.62182 0.44485 0.62512 0.0
H1182 H 0.59996 0.45456 0.66938 0.0
H1183 H 0.59122 0.4583 0.61062 0.0
C1184 C 0.05954 0.61566 0.02762 0.0
C1185 C 0.05312 0.60076 0.98957 0.0
C1186 C 0.06817 0.60409 0.06773 0.0
C1187 C 0.07032 0.57694 0.06993 0.0
C1188 C 0.06184 0.56169 0.03308 0.0
C1189 C 0.05328 0.57379 0.99325 0.0
C1190 C 0.07665 0.62103 0.10661 0.0
C1191 C 0.06348 0.53266 0.0345 0.0
C1192 C 0.12312 0.55324 0.14857 0.0
C1193 C 0.10918 0.54781 0.18805 0.0
C1194 C 0.11054 0.56183 0.10924 0.0
C1195 C 0.08339 0.56486 0.10938 0.0
C1196 C 0.06911 0.55817 0.14834 0.0
C1197 C 0.08217 0.5498 0.18724 0.0
C1198 C 0.12642 0.56877 0.06819 0.0
C1199 C 0.04014 0.56087 0.14963 0.0
H1200 H 0.05917 0.6365 0.02528 0.0
H1201 H 0.04834 0.5621 0.9641 0.0
H1202 H 0.06766 0.61458 0.13872 0.0
H1203 H 0.09784 0.61949 0.11093 0.0
H1204 H 0.07165 0.64161 0.10101 0.0
H1205 H 0.05286 0.52358 0.00598 0.0
H1206 H 0.08397 0.52665 0.03253 0.0
H1207 H 0.05565 0.52519 0.06689 0.0
H1208 H 0.14396 0.55174 0.14889 0.0
H1209 H 0.07116 0.54533 0.21742 0.0
H1210 H 0.12487 0.58977 0.06164 0.0
H1211 H 0.11896 0.55866 0.03778 0.0
H1212 H 0.1471 0.56378 0.07256 0.0
H1213 H 0.03484 0.58158 0.14877 0.0
H1214 H 0.03168 0.55215 0.18059 0.0
H1215 H 0.03132 0.55166 0.11946 0.0
C1216 C 0.8881 0.07106 0.49405 0.0
C1217 C 0.90091 0.06963 0.45236 0.0
C1218 C 0.9006 0.08049 0.53264 0.0
C1219 C 0.92647 0.0889 0.5293 0.0
C1220 C 0.93991 0.08641 0.48788 0.0
C1221 C 0.92697 0.07664 0.44982 0.0
C1222 C 0.88578 0.08232 0.57659 0.0
C1223 C 0.9675 0.09518 0.48319 0.0
C1224 C 0.94177 0.1373 0.62106 0.0
C1225 C 0.95164 0.12104 0.65468 0.0
C1226 C 0.93529 0.12744 0.57826 0.0
C1227 C 0.93892 0.10084 0.56929 0.0
C1228 C 0.95119 0.08501 0.60171 0.0
C1229 C 0.9574 0.09532 0.64407 0.0
C1230 C 0.92259 0.14498 0.5441 0.0
C1231 C 0.95569 0.05665 0.59331 0.0
H1232 H 0.86801 0.06549 0.4962 0.0
H1233 H 0.9369 0.07578 0.41756 0.0
H1234 H 0.89637 0.07222 0.60402 0.0
H1235 H 0.88386 0.10281 0.5868 0.0
H1236 H 0.86618 0.07388 0.57391 0.0
H1237 H 0.97601 0.08942 0.45018 0.0
H1238 H 0.96834 0.11648 0.486 0.0
H1239 H 0.97953 0.08716 0.51089 0.0
H1240 H 0.93742 0.15721 0.62915 0.0
H1241 H 0.96555 0.08282 0.66983 0.0
H1242 H 0.90176 0.14031 0.54189 0.0
H1243 H 0.931 0.14202 0.50995 0.0
H1244 H 0.92456 0.16561 0.55348 0.0
H1245 H 0.93708 0.04625 0.59576 0.0
H1246 H 0.96925 0.04818 0.61839 0.0
H1247 H 0.96343 0.05333 0.55879 0.0
C1248 C 0.36503 0.57466 0.84594 0.0
C1249 C 0.37807 0.57364 0.80439 0.0
C1250 C 0.37679 0.5852 0.88454 0.0
C1251 C 0.40226 0.59489 0.88163 0.0
C1252 C 0.41568 0.59362 0.84006 0.0
C1253 C 0.40344 0.58305 0.80196 0.0
C1254 C 0.36183 0.58627 0.92836 0.0
C1255 C 0.44285 0.60369 0.83571 0.0
C1256 C 0.41824 0.64254 0.9746 0.0
C1257 C 0.42915 0.62631 0.00754 0.0
C1258 C 0.41085 0.63292 0.93211 0.0
C1259 C 0.41456 0.60648 0.9223 0.0
C1260 C 0.42773 0.5906 0.95367 0.0
C1261 C 0.43493 0.60071 0.99589 0.0
C1262 C 0.39727 0.65062 0.89922 0.0
C1263 C 0.43245 0.56241 0.94411 0.0
H1264 H 0.34545 0.56755 0.84823 0.0
H1265 H 0.41377 0.58239 0.77009 0.0
H1266 H 0.37242 0.57577 0.95531 0.0
H1267 H 0.35981 0.60657 0.93962 0.0
H1268 H 0.34228 0.57777 0.92506 0.0
H1269 H 0.4509 0.6006 0.80127 0.0
H1270 H 0.44324 0.62462 0.84327 0.0
H1271 H 0.4556 0.59408 0.86074 0.0
H1272 H 0.41403 0.66245 0.9829 0.0
H1273 H 0.44359 0.58802 0.02079 0.0
H1274 H 0.37648 0.64568 0.8981 0.0
H1275 H 0.40502 0.64815 0.86449 0.0
H1276 H 0.39914 0.67119 0.90907 0.0
H1277 H 0.4139 0.55184 0.94559 0.0
H1278 H 0.44592 0.55361 0.969 0.0
H1279 H 0.44043 0.55973 0.90958 0.0
C1280 C 0.89794 0.40585 0.30695 0.0
C1281 C 0.91077 0.38196 0.30674 0.0
C1282 C 0.88646 0.41544 0.34638 0.0
C1283 C 0.88782 0.40083 0.38664 0.0
C1284 C 0.90039 0.37659 0.38672 0.0
C1285 C 0.91176 0.36743 0.34671 0.0
C1286 C 0.87319 0.44136 0.34507 0.0
C1287 C 0.90202 0.36044 0.42917 0.0
C1288 C 0.88279 0.43296 0.50126 0.0
C1289 C 0.85778 0.42606 0.51457 0.0
C1290 C 0.89246 0.42571 0.45886 0.0
C1291 C 0.87676 0.4112 0.42915 0.0
C1292 C 0.85099 0.40559 0.44109 0.0
C1293 C 0.84175 0.41318 0.48366 0.0
C1294 C 0.91991 0.43248 0.44682 0.0
C1295 C 0.83362 0.39034 0.40998 0.0
H1296 H 0.89686 0.41723 0.27624 0.0
H1297 H 0.92149 0.34894 0.34685 0.0
H1298 H 0.85301 0.43953 0.35698 0.0
H1299 H 0.88308 0.45492 0.36833 0.0
H1300 H 0.87301 0.44987 0.31053 0.0
H1301 H 0.91182 0.34169 0.42324 0.0
H1302 H 0.91273 0.37107 0.4558 0.0
H1303 H 0.8824 0.35666 0.44247 0.0
H1304 H 0.89523 0.44316 0.52467 0.0
H1305 H 0.82236 0.40785 0.4935 0.0
H1306 H 0.92065 0.44185 0.41307 0.0
H1307 H 0.93165 0.41464 0.44479 0.0
H1308 H 0.92887 0.44557 0.47211 0.0
H1309 H 0.83373 0.39868 0.37538 0.0
H1310 H 0.81343 0.38974 0.42237 0.0
H1311 H 0.8409 0.37029 0.40726 0.0
C1312 C 0.13759 0.93183 0.86381 0.0
C1313 C 0.12046 0.93811 0.82881 0.0
C1314 C 0.12845 0.92147 0.90466 0.0
C1315 C 0.10166 0.91727 0.91019 0.0
C1316 C 0.08423 0.92499 0.87606 0.0
C1317 C 0.09382 0.93552 0.83596 0.0
C1318 C 0.1475 0.91388 0.94097 0.0
C1319 C 0.05553 0.92082 0.88077 0.0
C1320 C 0.08209 0.86384 0.99033 0.0
C1321 C 0.07526 0.87784 0.02914 0.0
C1322 C 0.09025 0.8765 0.95095 0.0
C1323 C 0.0919 0.90373 0.95076 0.0
C1324 C 0.08421 0.918 0.98919 0.0
C1325 C 0.07578 0.90489 0.0278 0.0
C1326 C 0.09772 0.86073 0.90997 0.0
C1327 C 0.08579 0.94706 0.99011 0.0
H1328 H 0.15816 0.9338 0.85853 0.0
H1329 H 0.08038 0.94068 0.8093 0.0
H1330 H 0.14166 0.9221 0.97411 0.0
H1331 H 0.1477 0.89261 0.94466 0.0
H1332 H 0.16736 0.92043 0.93306 0.0
H1333 H 0.04448 0.92958 0.85242 0.0
H1334 H 0.0514 0.89986 0.88155 0.0
H1335 H 0.04846 0.9291 0.9131 0.0
H1336 H 0.08163 0.84297 0.99105 0.0
H1337 H 0.07066 0.91592 0.05766 0.0
H1338 H 0.11842 0.8637 0.90221 0.0
H1339 H 0.08657 0.86715 0.87991 0.0
H1340 H 0.09434 0.8398 0.91506 0.0
H1341 H 0.10614 0.95317 0.98613 0.0
H1342 H 0.07819 0.95531 0.02216 0.0
H1343 H 0.0748 0.95539 0.96137 0.0
C1344 C 0.56224 0.07584 0.52515 0.0
C1345 C 0.58863 0.07 0.52356 0.0
C1346 C 0.54935 0.08524 0.48669 0.0
C1347 C 0.56319 0.08859 0.44585 0.0
C1348 C 0.58945 0.08129 0.44345 0.0
C1349 C 0.60187 0.07219 0.4824 0.0
C1350 C 0.52133 0.09278 0.4904 0.0
C1351 C 0.60477 0.08404 0.40018 0.0
C1352 C 0.53389 0.09504 0.32961 0.0
C1353 C 0.53873 0.12108 0.32011 0.0
C1354 C 0.53977 0.08452 0.37201 0.0
C1355 C 0.55082 0.10046 0.40561 0.0
C1356 C 0.5535 0.12726 0.39763 0.0
C1357 C 0.54733 0.13732 0.3548 0.0
C1358 C 0.53625 0.05595 0.3793 0.0
C1359 C 0.56489 0.14491 0.43298 0.0
H1360 H 0.55198 0.07439 0.55702 0.0
H1361 H 0.62222 0.06751 0.48096 0.0
H1362 H 0.51958 0.11406 0.48851 0.0
H1363 H 0.51009 0.08467 0.46177 0.0
H1364 H 0.5126 0.08619 0.52272 0.0
H1365 H 0.62467 0.07634 0.4035 0.0
H1366 H 0.59499 0.07376 0.37208 0.0
H1367 H 0.60596 0.10467 0.39056 0.0
H1368 H 0.52671 0.08251 0.30305 0.0
H1369 H 0.55096 0.15748 0.34761 0.0
H1370 H 0.52827 0.05198 0.41342 0.0
H1371 H 0.55527 0.04622 0.37711 0.0
H1372 H 0.52329 0.04731 0.35346 0.0
H1373 H 0.55601 0.14131 0.46655 0.0
H1374 H 0.56225 0.16555 0.42411 0.0
H1375 H 0.58584 0.14099 0.4362 0.0
C1376 C 0.41908 0.01802 0.29948 0.0
C1377 C 0.39425 0.01145 0.28503 0.0
C1378 C 0.43287 0.03756 0.27749 0.0
C1379 C 0.42168 0.05019 0.23968 0.0
C1380 C 0.39633 0.04432 0.22605 0.0
C1381 C 0.38279 0.02528 0.2493 0.0
C1382 C 0.45971 0.04407 0.29366 0.0
C1383 C 0.38403 0.05708 0.18537 0.0
C1384 C 0.45354 0.11215 0.20496 0.0
C1385 C 0.47249 0.10303 0.17494 0.0
C1386 C 0.43603 0.09527 0.22505 0.0
C1387 C 0.43692 0.06892 0.21346 0.0
C1388 C 0.45375 0.06017 0.17901 0.0
C1389 C 0.47154 0.07737 0.16025 0.0
C1390 C 0.41836 0.10525 0.26175 0.0
C1391 C 0.45434 0.03228 0.16453 0.0
H1392 H 0.42795 0.00748 0.32711 0.0
H1393 H 0.36364 0.02028 0.23756 0.0
H1394 H 0.47396 0.03858 0.26739 0.0
H1395 H 0.46151 0.06515 0.29916 0.0
H1396 H 0.46475 0.03399 0.32567 0.0
H1397 H 0.36345 0.05168 0.18131 0.0
H1398 H 0.38532 0.07835 0.18809 0.0
H1399 H 0.39455 0.05136 0.15424 0.0
H1400 H 0.45379 0.13205 0.21605 0.0
H1401 H 0.48581 0.07027 0.13652 0.0
H1402 H 0.42522 0.09818 0.29515 0.0
H1403 H 0.39847 0.09798 0.25697 0.0
H1404 H 0.41778 0.12664 0.26274 0.0
H1405 H 0.46284 0.02041 0.19201 0.0
H1406 H 0.46594 0.02937 0.13332 0.0
H1407 H 0.43452 0.02509 0.15837 0.0
C1408 C 0.45022 0.38052 0.74435 0.0
C1409 C 0.46686 0.39165 0.77645 0.0
C1410 C 0.42953 0.39446 0.72637 0.0
C1411 C 0.42532 0.41995 0.74123 0.0
C1412 C 0.44069 0.43053 0.77625 0.0
C1413 C 0.46138 0.41625 0.7934 0.0
C1414 C 0.41342 0.38255 0.68924 0.0
C1415 C 0.4363 0.45756 0.79364 0.0
C1416 C 0.39954 0.47309 0.66753 0.0
C1417 C 0.37549 0.47741 0.68765 0.0
C1418 C 0.41525 0.4528 0.68211 0.0
C1419 C 0.4066 0.43665 0.7176 0.0
C1420 C 0.38129 0.43915 0.73445 0.0
C1421 C 0.3659 0.45946 0.71901 0.0
C1422 C 0.44199 0.45015 0.66247 0.0
C1423 C 0.37131 0.42202 0.77185 0.0
H1424 H 0.45417 0.36142 0.73121 0.0
H1425 H 0.47392 0.42482 0.81862 0.0
H1426 H 0.39267 0.38681 0.69421 0.0
H1427 H 0.41914 0.39091 0.65615 0.0
H1428 H 0.41605 0.36133 0.68745 0.0
H1429 H 0.44841 0.46199 0.82371 0.0
H1430 H 0.44092 0.47165 0.76657 0.0
H1431 H 0.41577 0.46034 0.80289 0.0
H1432 H 0.40689 0.48654 0.64262 0.0
H1433 H 0.34709 0.46231 0.73415 0.0
H1434 H 0.4463 0.42971 0.65457 0.0
H1435 H 0.45638 0.45675 0.68777 0.0
H1436 H 0.44441 0.46176 0.63115 0.0
H1437 H 0.37693 0.40166 0.76613 0.0
H1438 H 0.35 0.42313 0.7749 0.0
H1439 H 0.37989 0.42817 0.80456 0.0
C1440 C 0.0206 0.41275 0.20037 0.0
C1441 C 0.01349 0.38788 0.21365 0.0
C1442 C 0.04135 0.42526 0.22126 0.0
C1443 C 0.05492 0.41265 0.2566 0.0
C1444 C 0.04876 0.38709 0.26846 0.0
C1445 C 0.02827 0.37491 0.24652 0.0
C1446 C 0.048 0.45239 0.20697 0.0
C1447 C 0.06267 0.37318 0.30625 0.0
C1448 C 0.11732 0.44518 0.28629 0.0
C1449 C 0.1087 0.46358 0.31779 0.0
C1450 C 0.10035 0.42705 0.26805 0.0
C1451 C 0.07448 0.42697 0.28271 0.0
C1452 C 0.06663 0.44304 0.3189 0.0
C1453 C 0.0839 0.4613 0.33604 0.0
C1454 C 0.10946 0.41 0.22979 0.0
C1455 C 0.03933 0.44268 0.33653 0.0
H1456 H 0.00943 0.42279 0.1748 0.0
H1457 H 0.023 0.35563 0.25711 0.0
H1458 H 0.04365 0.46594 0.23503 0.0
H1459 H 0.0689 0.45391 0.1996 0.0
H1460 H 0.03704 0.45859 0.1765 0.0
H1461 H 0.05797 0.35231 0.30703 0.0
H1462 H 0.08383 0.37537 0.30294 0.0
H1463 H 0.05704 0.38176 0.33923 0.0
H1464 H 0.13668 0.44636 0.27271 0.0
H1465 H 0.07723 0.47508 0.36105 0.0
H1466 H 0.10205 0.41773 0.19722 0.0
H1467 H 0.10196 0.39013 0.23351 0.0
H1468 H 0.13083 0.40919 0.22786 0.0
H1469 H 0.02634 0.45172 0.31122 0.0
H1470 H 0.03744 0.45337 0.36897 0.0
H1471 H 0.03269 0.4226 0.34175 0.0
C1472 C 0.08403 0.02176 0.67731 0.0
C1473 C 0.10915 0.01801 0.69352 0.0
C1474 C 0.06842 0.04132 0.69526 0.0
C1475 C 0.07807 0.05699 0.73071 0.0
C1476 C 0.104 0.05469 0.74452 0.0
C1477 C 0.11937 0.03553 0.72515 0.0
C1478 C 0.04107 0.04409 0.67837 0.0
C1479 C 0.11491 0.07092 0.78246 0.0
C1480 C 0.03867 0.11548 0.76158 0.0
C1481 C 0.02167 0.1052 0.79396 0.0
C1482 C 0.05774 0.10025 0.7416 0.0
C1483 C 0.06047 0.0744 0.7555 0.0
C1484 C 0.04523 0.06465 0.7914 0.0
C1485 C 0.02574 0.08012 0.80995 0.0
C1486 C 0.07341 0.11122 0.70306 0.0
C1487 C 0.04845 0.03737 0.80829 0.0
H1488 H 0.07608 0.00856 0.65252 0.0
H1489 H 0.13886 0.03307 0.73766 0.0
H1490 H 0.02751 0.03738 0.70488 0.0
H1491 H 0.03657 0.06462 0.67139 0.0
H1492 H 0.03759 0.03272 0.64707 0.0
H1493 H 0.13618 0.06902 0.78521 0.0
H1494 H 0.11004 0.09154 0.77765 0.0
H1495 H 0.10624 0.06476 0.81506 0.0
H1496 H 0.03586 0.1349 0.74901 0.0
H1497 H 0.01289 0.07211 0.83521 0.0
H1498 H 0.06689 0.10248 0.67071 0.0
H1499 H 0.09413 0.10651 0.70709 0.0
H1500 H 0.07133 0.13247 0.70037 0.0
H1501 H 0.0419 0.02368 0.78182 0.0
H1502 H 0.0372 0.03375 0.83965 0.0
H1503 H 0.06906 0.03322 0.81519 0.0
C1504 C 0.57198 0.96416 0.6854 0.0
C1505 C 0.59823 0.96863 0.69294 0.0
C1506 C 0.55956 0.94333 0.70625 0.0
C1507 C 0.57369 0.92714 0.73594 0.0
C1508 C 0.60047 0.93047 0.74117 0.0
C1509 C 0.6125 0.9509 0.71894 0.0
C1510 C 0.53104 0.93953 0.69853 0.0
C1511 C 0.61609 0.91381 0.77301 0.0
C1512 C 0.53074 0.89863 0.82577 0.0
C1513 C 0.52553 0.87442 0.80692 0.0
C1514 C 0.54811 0.91542 0.8047 0.0
C1515 C 0.56003 0.90783 0.76367 0.0
C1516 C 0.557 0.88249 0.7473 0.0
C1517 C 0.54018 0.86586 0.76977 0.0
C1518 C 0.55203 0.942 0.82428 0.0
C1519 C 0.56931 0.87371 0.70356 0.0
H1520 H 0.56089 0.97756 0.66504 0.0
H1521 H 0.6329 0.95392 0.72476 0.0
H1522 H 0.52694 0.91909 0.69024 0.0
H1523 H 0.52036 0.94427 0.73 0.0
H1524 H 0.52356 0.95187 0.67072 0.0
H1525 H 0.63715 0.91668 0.7686 0.0
H1526 H 0.611 0.91869 0.8085 0.0
H1527 H 0.61166 0.89312 0.76799 0.0
H1528 H 0.5199 0.90524 0.85492 0.0
H1529 H 0.53674 0.84696 0.75538 0.0
H1530 H 0.54196 0.95639 0.80281 0.0
H1531 H 0.5728 0.94706 0.82455 0.0
H1532 H 0.54443 0.94357 0.85934 0.0
H1533 H 0.55908 0.8828 0.67463 0.0
H1534 H 0.56835 0.85247 0.69936 0.0
H1535 H 0.58976 0.87977 0.70172 0.0
C1536 C 0.61702 0.5453 0.26247 0.0
C1537 C 0.6077 0.52797 0.29516 0.0
C1538 C 0.60119 0.56467 0.24474 0.0
C1539 C 0.57569 0.56701 0.26083 0.0
C1540 C 0.56723 0.55166 0.29755 0.0
C1541 C 0.58336 0.5322 0.31429 0.0
C1542 C 0.61097 0.58086 0.20591 0.0
C1543 C 0.54035 0.55428 0.31657 0.0
C1544 C 0.532 0.62256 0.23064 0.0
C1545 C 0.5151 0.61078 0.19966 0.0
C1546 C 0.55274 0.60898 0.24932 0.0
C1547 C 0.55688 0.58319 0.23612 0.0
C1548 C 0.54145 0.57197 0.20178 0.0
C1549 C 0.52062 0.5859 0.184 0.0
C1550 C 0.56887 0.62162 0.28568 0.0
C1551 C 0.54586 0.54464 0.18597 0.0
H1552 H 0.63601 0.54254 0.24798 0.0
H1553 H 0.57615 0.51921 0.34005 0.0
H1554 H 0.60253 0.57366 0.17376 0.0
H1555 H 0.60503 0.60127 0.20978 0.0
H1556 H 0.6323 0.58 0.20302 0.0
H1557 H 0.53794 0.54332 0.3486 0.0
H1558 H 0.53569 0.57482 0.32302 0.0
H1559 H 0.5262 0.54693 0.29149 0.0
H1560 H 0.52816 0.64194 0.24258 0.0
H1561 H 0.50789 0.57675 0.15974 0.0
H1562 H 0.58964 0.61749 0.28062 0.0
H1563 H 0.56338 0.61368 0.31921 0.0
H1564 H 0.56604 0.64283 0.28655 0.0
H1565 H 0.56644 0.54164 0.17731 0.0
H1566 H 0.53392 0.53973 0.15593 0.0
H1567 H 0.54102 0.53107 0.21372 0.0
C1568 C 0.89899 0.52594 0.66493 0.0
C1569 C 0.87493 0.52254 0.68559 0.0
C1570 C 0.91676 0.54357 0.68257 0.0
C1571 C 0.91022 0.55786 0.72175 0.0
C1572 C 0.88503 0.5566 0.7396 0.0
C1573 C 0.86752 0.53918 0.72082 0.0
C1574 C 0.94325 0.54524 0.66166 0.0
C1575 C 0.87733 0.57169 0.78122 0.0
C1576 C 0.96692 0.57173 0.79852 0.0
C1577 C 0.97237 0.59734 0.78721 0.0
C1578 C 0.94597 0.55893 0.77873 0.0
C1579 C 0.93046 0.57204 0.74655 0.0
C1580 C 0.93507 0.59819 0.73667 0.0
C1581 C 0.95581 0.6106 0.75745 0.0
C1582 C 0.94105 0.5311 0.79085 0.0
C1583 C 0.91903 0.61267 0.7023 0.0
H1584 H 0.90473 0.51351 0.63719 0.0
H1585 H 0.84877 0.53708 0.73654 0.0
H1586 H 0.9492 0.56564 0.65779 0.0
H1587 H 0.95745 0.53574 0.68431 0.0
H1588 H 0.94406 0.53571 0.62798 0.0
H1589 H 0.85614 0.5716 0.78653 0.0
H1590 H 0.88665 0.56301 0.81146 0.0
H1591 H 0.88395 0.59195 0.77892 0.0
H1592 H 0.97947 0.56142 0.82165 0.0
H1593 H 0.95969 0.63047 0.74853 0.0
H1594 H 0.94456 0.51873 0.76081 0.0
H1595 H 0.92064 0.52844 0.80093 0.0
H1596 H 0.95362 0.52434 0.81894 0.0
H1597 H 0.92276 0.60476 0.668 0.0
H1598 H 0.92348 0.6336 0.70192 0.0
H1599 H 0.89819 0.61018 0.70925 0.0
C1600 C 0.91773 0.96322 0.30345 0.0
C1601 C 0.89224 0.96757 0.28995 0.0
C1602 C 0.93148 0.9421 0.28657 0.0
C1603 C 0.91946 0.92539 0.25504 0.0
C1604 C 0.89315 0.92838 0.2444 0.0
C1605 C 0.87972 0.9493 0.26248 0.0
C1606 C 0.95939 0.93875 0.29994 0.0
C1607 C 0.87974 0.91096 0.21083 0.0
C1608 C 0.96889 0.89926 0.17425 0.0
C1609 C 0.97436 0.87546 0.19437 0.0
C1610 C 0.94927 0.91494 0.19143 0.0
C1611 C 0.93528 0.90664 0.22991 0.0
C1612 C 0.93886 0.88158 0.24726 0.0
C1613 C 0.95818 0.86608 0.22878 0.0
C1614 C 0.94506 0.94126 0.17092 0.0
C1615 C 0.92428 0.8721 0.28825 0.0
H1616 H 0.92736 0.97701 0.32522 0.0
H1617 H 0.85989 0.95227 0.25219 0.0
H1618 H 0.96331 0.91843 0.30937 0.0
H1619 H 0.97191 0.94354 0.27069 0.0
H1620 H 0.96483 0.95135 0.32882 0.0
H1621 H 0.85844 0.91283 0.21274 0.0
H1622 H 0.8859 0.91618 0.17603 0.0
H1623 H 0.88505 0.8905 0.21638 0.0
H1624 H 0.981 0.90637 0.14709 0.0
H1625 H 0.96201 0.84753 0.24424 0.0
H1626 H 0.95281 0.9562 0.19412 0.0
H1627 H 0.92418 0.94512 0.16643 0.0
H1628 H 0.95478 0.94327 0.13759 0.0
H1629 H 0.93257 0.88105 0.31915 0.0
H1630 H 0.9256 0.85083 0.2919 0.0
H1631 H 0.90368 0.87768 0.28658 0.0
C1632 C 0.52729 0.22651 0.03743 0.0
C1633 C 0.5124 0.21088 0.06575 0.0
C1634 C 0.51628 0.23974 0.00117 0.0
C1635 C 0.48949 0.23725 0.99255 0.0
C1636 C 0.47418 0.22159 0.02108 0.0
C1637 C 0.48582 0.20874 0.05781 0.0
C1638 C 0.53361 0.25643 0.9722 0.0
C1639 C 0.4456 0.2185 0.01351 0.0
C1640 C 0.47922 0.29526 0.92428 0.0
C1641 C 0.48879 0.28578 0.8832 0.0
C1642 C 0.47362 0.27836 0.95986 0.0
C1643 C 0.47845 0.25177 0.95381 0.0
C1644 C 0.48241 0.24202 0.90954 0.0
C1645 C 0.48776 0.25935 0.8743 0.0
C1646 C 0.4677 0.28937 0.00594 0.0
C1647 C 0.48601 0.2136 0.90126 0.0
H1648 H 0.54778 0.22852 0.04367 0.0
H1649 H 0.4742 0.19665 0.07966 0.0
H1650 H 0.53313 0.24975 0.93652 0.0
H1651 H 0.52684 0.27669 0.97296 0.0
H1652 H 0.55398 0.2561 0.98379 0.0
H1653 H 0.43872 0.19963 0.02646 0.0
H1654 H 0.43525 0.23383 0.03235 0.0
H1655 H 0.44035 0.22016 0.97718 0.0
H1656 H 0.47956 0.31584 0.93067 0.0
H1657 H 0.49482 0.25207 0.84217 0.0
H1658 H 0.4859 0.29138 0.02542 0.0
H1659 H 0.45471 0.27643 0.02514 0.0
H1660 H 0.45862 0.30871 0.00322 0.0
H1661 H 0.5063 0.20826 0.90877 0.0
H1662 H 0.48195 0.20857 0.86536 0.0
H1663 H 0.47332 0.20207 0.92366 0.0
C1664 C 0.21044 0.47493 0.42094 0.0
C1665 C 0.22255 0.49498 0.39745 0.0
C1666 C 0.2197 0.46722 0.4636 0.0
C1667 C 0.24105 0.48029 0.48256 0.0
C1668 C 0.25592 0.49696 0.4549 0.0
C1669 C 0.24633 0.50419 0.41252 0.0
C1670 C 0.20454 0.4478 0.49051 0.0
C1671 C 0.27958 0.51057 0.47274 0.0
C1672 C 0.23939 0.51629 0.591 0.0
C1673 C 0.26211 0.50721 0.61081 0.0
C1674 C 0.22955 0.50472 0.55193 0.0
C1675 C 0.24307 0.48369 0.53237 0.0
C1676 C 0.26324 0.47175 0.55694 0.0
C1677 C 0.27275 0.48384 0.59613 0.0
C1678 C 0.20718 0.51762 0.52811 0.0
C1679 C 0.2769 0.44819 0.53917 0.0
H1680 H 0.19213 0.46757 0.40888 0.0
H1681 H 0.25578 0.51944 0.39372 0.0
H1682 H 0.21657 0.43846 0.51695 0.0
H1683 H 0.18811 0.45756 0.50734 0.0
H1684 H 0.19649 0.43274 0.46783 0.0
H1685 H 0.29043 0.52045 0.44536 0.0
H1686 H 0.27378 0.52524 0.49815 0.0
H1687 H 0.29269 0.49672 0.48966 0.0
H1688 H 0.23099 0.53415 0.60314 0.0
H1689 H 0.2902 0.47662 0.61194 0.0
H1690 H 0.19286 0.50313 0.51699 0.0
H1691 H 0.21422 0.52784 0.49751 0.0
H1692 H 0.19726 0.53187 0.55017 0.0
H1693 H 0.26458 0.437 0.51558 0.0
H1694 H 0.28295 0.43555 0.56763 0.0
H1695 H 0.29458 0.45414 0.52089 0.0
C1696 C 0.99171 0.25883 0.10405 0.0
C1697 C 0.99098 0.28538 0.0963 0.0
C1698 C -0.00144 0.242 0.06883 0.0
C1699 C 0.00443 0.25235 0.02564 0.0
C1700 C 0.00923 0.27903 0.02137 0.0
C1701 C 0.00197 0.29544 0.0568 0.0
C1702 C 0.99463 0.21348 0.0754 0.0
C1703 C 0.01711 0.29068 0.97673 0.0
C1704 C 0.0018 0.2089 0.92132 0.0
C1705 C 0.97558 0.21084 0.91018 0.0
C1706 C 0.01189 0.22229 0.9589 0.0
C1707 C -0.00465 0.23821 0.98494 0.0
C1708 C 0.96907 0.24081 0.97253 0.0
C1709 C 0.95963 0.22712 0.9355 0.0
C1710 C 0.04008 0.21939 0.97028 0.0
C1711 C 0.95053 0.2578 -0.00139 0.0
H1712 H 0.9835 0.25111 0.13497 0.0
H1713 H 0.00183 0.3161 0.05134 0.0
H1714 H 0.97481 0.20829 0.06454 0.0
H1715 H 0.00842 0.2022 0.05461 0.0
H1716 H -0.00311 0.20797 0.11156 0.0
H1717 H 0.02614 0.30988 0.98158 0.0
H1718 H 0.03079 0.2779 0.9586 0.0
H1719 H -0.00022 0.29317 0.95508 0.0
H1720 H 0.01421 0.19639 0.9016 0.0
H1721 H 0.93945 0.22905 0.9265 0.0
H1722 H 0.04353 0.22022 0.00735 0.0
H1723 H 0.05094 0.23541 0.9544 0.0
H1724 H 0.04799 0.201 0.95695 0.0
H1725 H 0.9494 0.25142 0.03441 0.0
H1726 H 0.93074 0.25745 0.98424 0.0
H1727 H 0.95734 0.27803 -0.0017 0.0
C1728 C 0.29706 0.00815 0.43402 0.0
C1729 C 0.28698 -0.00493 0.3965 0.0
C1730 C 0.28109 0.01476 0.47047 0.0
C1731 C 0.25494 0.0072 0.46924 0.0
C1732 C 0.24394 -0.00074 0.42755 0.0
C1733 C 0.26028 0.99321 0.39123 0.0
C1734 C 0.29318 0.025 0.51325 0.0
C1735 C 0.21583 0.99221 0.42409 0.0
C1736 C 0.23562 0.96168 0.56259 0.0
C1737 C 0.21722 0.97595 0.58637 0.0
C1738 C 0.2486 0.97215 0.52563 0.0
C1739 C 0.24298 -0.00227 0.51176 0.0
C1740 C 0.22531 0.0128 0.53701 0.0
C1741 C 0.21271 0.00173 0.57452 0.0
C1742 C 0.26766 0.95524 0.50059 0.0
C1743 C 0.21951 0.04037 0.52445 0.0
H1744 H 0.31778 0.00998 0.43761 0.0
H1745 H 0.2525 0.98333 0.36185 0.0
H1746 H 0.27949 0.03752 0.53195 0.0
H1747 H 0.29848 0.00862 0.53559 0.0
H1748 H 0.31096 0.03609 0.50572 0.0
H1749 H 0.20908 0.99267 0.38836 0.0
H1750 H 0.21308 0.97236 0.43725 0.0
H1751 H 0.20375 0.00543 0.4446 0.0
H1752 H 0.23948 0.9419 0.57235 0.0
H1753 H 0.19858 0.01284 0.59323 0.0
H1754 H 0.28692 0.96445 0.50016 0.0
H1755 H 0.26137 0.95256 0.46498 0.0
H1756 H 0.26975 0.9359 0.51627 0.0
H1757 H 0.23513 0.05289 0.53759 0.0
H1758 H 0.20103 0.04705 0.5394 0.0
H1759 H 0.21868 0.04299 0.48718 0.0
C1760 C 0.47487 0.74457 0.09149 0.0
C1761 C 0.4834 0.72092 0.10836 0.0
C1762 C 0.48458 0.75419 0.05073 0.0
C1763 C 0.503 0.73943 0.02644 0.0
C1764 C 0.51487 0.71802 0.04759 0.0
C1765 C 0.50474 0.70881 0.08861 0.0
C1766 C 0.47202 0.77784 0.03049 0.0
C1767 C 0.53573 0.70276 0.02429 0.0
C1768 C 0.47546 0.73919 0.91032 0.0
C1769 C 0.48647 0.76171 0.89323 0.0
C1770 C 0.4837 0.72898 0.95167 0.0
C1771 C 0.50325 0.74196 0.97637 0.0
C1772 C 0.51734 0.76196 0.95534 0.0
C1773 C 0.50867 0.77178 0.91367 0.0
C1774 C 0.46871 0.7068 0.97179 0.0
C1775 C 0.53935 0.77521 0.97914 0.0
H1776 H 0.45847 0.75394 0.10729 0.0
H1777 H 0.51143 0.69052 0.10199 0.0
H1778 H 0.48672 0.79089 0.01598 0.0
H1779 H 0.45885 0.77198 0.00267 0.0
H1780 H 0.46062 0.78875 0.05595 0.0
H1781 H 0.54911 0.69419 0.04955 0.0
H1782 H 0.52689 0.68672 0.00495 0.0
H1783 H 0.5469 0.71486 0.00036 0.0
H1784 H 0.45852 0.73127 0.89389 0.0
H1785 H 0.51736 0.78913 0.90011 0.0
H1786 H 0.45608 0.71404 -0.00065 0.0
H1787 H 0.48196 0.69232 0.98663 0.0
H1788 H 0.4564 0.69706 0.94618 0.0
H1789 H 0.53195 0.79233 -0.00249 0.0
H1790 H 0.55385 0.78204 0.95423 0.0
H1791 H 0.54892 0.76231 0.00397 0.0
C1792 C 0.77205 0.50601 0.58029 0.0
C1793 C 0.76178 0.4839 0.60062 0.0
C1794 C 0.76233 0.51485 0.53863 0.0
C1795 C 0.74206 0.50113 0.51749 0.0
C1796 C 0.72928 0.48124 0.54152 0.0
C1797 C 0.73946 0.47277 0.58278 0.0
C1798 C 0.77576 0.53683 0.51511 0.0
C1799 C 0.707 0.46652 0.52106 0.0
C1800 C 0.70735 0.50868 0.40667 0.0
C1801 C 0.71863 0.48821 0.3829 0.0
C1802 C 0.71704 0.51605 0.44921 0.0
C1803 C 0.73826 0.50248 0.46769 0.0
C1804 C 0.752 0.48471 0.44031 0.0
C1805 C 0.74184 0.47766 0.39822 0.0
C1806 C 0.70257 0.53593 0.47642 0.0
C1807 C 0.77526 0.47029 0.45795 0.0
H1808 H 0.7893 0.51471 0.59426 0.0
H1809 H 0.73139 0.45586 0.59901 0.0
H1810 H 0.79179 0.5291 0.49428 0.0
H1811 H 0.76245 0.54748 0.49238 0.0
H1812 H 0.78411 0.55046 0.54013 0.0
H1813 H 0.69727 0.45402 0.54633 0.0
H1814 H 0.69254 0.47994 0.50661 0.0
H1815 H 0.71417 0.45412 0.49311 0.0
H1816 H 0.68935 0.51685 0.39467 0.0
H1817 H 0.75057 0.46195 0.37944 0.0
H1818 H 0.71551 0.54627 0.50017 0.0
H1819 H 0.68739 0.52624 0.49661 0.0
H1820 H 0.69299 0.55015 0.45385 0.0
H1821 H 0.78887 0.48365 0.47481 0.0
H1822 H 0.78566 0.45998 0.43049 0.0
H1823 H 0.76901 0.45588 0.48344 0.0
C1824 C 0.97717 0.69069 0.93801 0.0
C1825 C 0.98894 0.70127 0.89961 0.0
C1826 C 0.97123 0.70636 0.97521 0.0
C1827 C 0.97811 0.73267 0.97362 0.0
C1828 C 0.98409 0.74406 0.93131 0.0
C1829 C 0.98956 0.72802 0.89429 0.0
C1830 C 0.9628 0.69387 0.0188 0.0
C1831 C 0.98987 0.77242 0.92753 0.0
C1832 C 0.98797 0.77438 0.07854 0.0
C1833 C 0.0143 0.77025 0.08642 0.0
C1834 C 0.97525 0.76158 0.0429 0.0
C1835 C 0.98936 0.74441 0.01501 0.0
C1836 C 0.01563 0.73915 0.02497 0.0
C1837 C 0.02765 0.75216 0.06042 0.0
C1838 C 0.94724 0.76754 0.03419 0.0
C1839 C 0.0316 0.72051 -0.00278 0.0
H1840 H 0.97616 0.66992 0.94158 0.0
H1841 H -0.00175 0.73619 0.86414 0.0
H1842 H 0.98009 0.68826 0.0387 0.0
H1843 H 0.95117 0.70736 0.0396 0.0
H1844 H 0.95138 0.67619 0.01205 0.0
H1845 H 0.9883 0.77917 0.89191 0.0
H1846 H 0.97656 0.78384 0.94901 0.0
H1847 H 0.00984 0.77604 0.93942 0.0
H1848 H 0.97763 0.78844 0.09875 0.0
H1849 H 0.0479 0.74864 0.06717 0.0
H1850 H 0.93719 0.75149 0.01678 0.0
H1851 H 0.94587 0.78491 0.01243 0.0
H1852 H 0.93705 0.77186 0.0664 0.0
H1853 H 0.02268 0.70112 -0.00236 0.0
H1854 H 0.05163 0.7186 0.01013 0.0
H1855 H 0.03259 0.72709 0.96153 0.0
C1856 C 0.79484 0.00853 0.45977 0.0
C1857 C 0.79409 0.00113 0.41414 0.0
C1858 C 0.77615 -4e-05 0.49015 0.0
C1859 C 0.75662 0.9831 0.47453 0.0
C1860 C 0.75886 0.97173 0.43114 0.0
C1861 C 0.77743 0.98124 0.40084 0.0
C1862 C 0.77538 0.01183 0.53693 0.0
C1863 C 0.74018 0.95151 0.41496 0.0
C1864 C 0.70906 0.98208 0.56977 0.0
C1865 C 0.69474 0.00411 0.5584 0.0
C1866 C 0.72707 0.97182 0.53912 0.0
C1867 C 0.73122 0.9845 0.49733 0.0
C1868 C 0.71409 0.00427 0.4834 0.0
C1869 C 0.69583 0.01355 0.51397 0.0
C1870 C 0.74303 0.94893 0.5534 0.0
C1871 C 0.71705 0.018 0.43849 0.0
H1872 H 0.80861 0.02291 0.47086 0.0
H1873 H 0.77742 0.97456 0.36604 0.0
H1874 H 0.75808 0.02428 0.54027 0.0
H1875 H 0.77413 -0.00344 0.56302 0.0
H1876 H 0.79268 0.02372 0.54419 0.0
H1877 H 0.75045 0.93674 0.39455 0.0
H1878 H 0.73022 0.94188 0.44358 0.0
H1879 H 0.72553 0.96051 0.3926 0.0
H1880 H 0.70759 0.97392 0.60346 0.0
H1881 H 0.68387 0.02976 0.50415 0.0
H1882 H 0.75749 0.95504 0.57892 0.0
H1883 H 0.75314 0.93984 0.52437 0.0
H1884 H 0.73055 0.93431 0.56986 0.0
H1885 H 0.73593 0.02799 0.43721 0.0
H1886 H 0.70165 0.03252 0.43265 0.0
H1887 H 0.71647 0.00395 0.41029 0.0
loop_
_geom_bond_atom_site_label_1
_geom_bond_atom_site_label_2
_geom_bond_distance
_geom_bond_site_symmetry_2
_ccdc_geom_bond_type
Sc0 O3 2.025 . S
Sc0 O10 2.105 . S
Sc0 O13 2.105 . S
Sc0 O16 2.105 . S
Sc0 O19 2.105 . S
Sc1 O3 2.025 . S
Sc1 O11 2.105 . S
Sc1 O15 2.105 . S
Sc1 O17 2.105 . S
Sc1 O21 2.105 . S
Sc2 O3 2.025 . S
Sc2 O12 2.105 . S
Sc2 O14 2.105 . S
Sc2 O18 2.105 . S
Sc2 O20 2.105 . S
O3 Sc0 2.025 . S
O3 Sc1 2.025 . S
O3 Sc2 2.025 . S
C4 O10 1.268 . S
C4 O20 1.268 . S
C5 O11 1.268 . S
C5 O19 1.268 . S
C6 O12 1.268 . S
C6 O21 1.268 . S
C7 O13 1.268 . S
C7 O17 1.268 . S
C8 O14 1.268 . S
C8 O16 1.268 . S
C9 O15 1.268 . S
C9 O18 1.268 . S
O10 Sc0 2.105 . S
O10 C4 1.268 . S
O11 Sc1 2.105 . S
O11 C5 1.268 . S
O12 Sc2 2.105 . S
O12 C6 1.268 . S
O13 Sc0 2.105 . S
O13 C7 1.268 . S
O14 Sc2 2.105 . S
O14 C8 1.268 . S
O15 Sc1 2.105 . S
O15 C9 1.268 . S
O16 Sc0 2.105 . S
O16 C8 1.268 . S
O17 Sc1 2.105 . S
O17 C7 1.268 . S
O18 Sc2 2.105 . S
O18 C9 1.268 . S
O19 Sc0 2.105 . S
O19 C5 1.268 . S
O20 Sc2 2.105 . S
O20 C4 1.268 . S
O21 Sc1 2.105 . S
O21 C6 1.268 . S
Sc22 O25 2.025 . S
Sc22 O32 2.105 . S
Sc22 O35 2.105 . S
Sc22 O38 2.105 . S
Sc22 O41 2.105 . S
Sc23 O25 2.025 . S
Sc23 O33 2.105 . S
Sc23 O37 2.105 . S
Sc23 O39 2.105 . S
Sc23 O43 2.105 . S
Sc24 O25 2.025 . S
Sc24 O34 2.105 . S
Sc24 O36 2.105 . S
Sc24 O40 2.105 . S
Sc24 O42 2.105 . S
O25 Sc22 2.025 . S
O25 Sc23 2.025 . S
O25 Sc24 2.025 . S
C26 O32 1.268 . S
C26 O42 1.268 . S
C27 O33 1.268 . S
C27 O41 1.268 . S
C28 O34 1.268 . S
C28 O43 1.268 . S
C29 O35 1.268 . S
C29 O39 1.268 . S
C30 O36 1.268 . S
C30 O38 1.268 . S
C31 O37 1.268 . S
C31 O40 1.268 . S
O32 Sc22 2.105 . S
O32 C26 1.268 . S
O33 Sc23 2.105 . S
O33 C27 1.268 . S
O34 Sc24 2.105 . S
O34 C28 1.268 . S
O35 Sc22 2.105 . S
O35 C29 1.268 . S
O36 Sc24 2.105 . S
O36 C30 1.268 . S
O37 Sc23 2.105 . S
O37 C31 1.268 . S
O38 Sc22 2.105 . S
O38 C30 1.268 . S
O39 Sc23 2.105 . S
O39 C29 1.268 . S
O40 Sc24 2.105 . S
O40 C31 1.268 . S
O41 Sc22 2.105 . S
O41 C27 1.268 . S
O42 Sc24 2.105 . S
O42 C26 1.268 . S
O43 Sc23 2.105 . S
O43 C28 1.268 . S
Sc44 O47 2.025 . S
Sc44 O54 2.105 . S
Sc44 O57 2.105 . S
Sc44 O60 2.105 . S
Sc44 O63 2.105 . S
Sc45 O47 2.025 . S
Sc45 O55 2.105 . S
Sc45 O59 2.105 . S
Sc45 O61 2.105 . S
Sc45 O65 2.105 . S
Sc46 O47 2.025 . S
Sc46 O56 2.105 . S
Sc46 O58 2.105 . S
Sc46 O62 2.105 . S
Sc46 O64 2.105 . S
O47 Sc44 2.025 . S
O47 Sc45 2.025 . S
O47 Sc46 2.025 . S
C48 O54 1.268 . S
C48 O64 1.268 . S
C49 O55 1.268 . S
C49 O63 1.268 . S
C50 O56 1.268 . S
C50 O65 1.268 . S
C51 O57 1.268 . S
C51 O61 1.268 . S
C52 O58 1.268 . S
C52 O60 1.268 . S
C53 O59 1.268 . S
C53 O62 1.268 . S
O54 Sc44 2.105 . S
O54 C48 1.268 . S
O55 Sc45 2.105 . S
O55 C49 1.268 . S
O56 Sc46 2.105 . S
O56 C50 1.268 . S
O57 Sc44 2.105 . S
O57 C51 1.268 . S
O58 Sc46 2.105 . S
O58 C52 1.268 . S
O59 Sc45 2.105 . S
O59 C53 1.268 . S
O60 Sc44 2.105 . S
O60 C52 1.268 . S
O61 Sc45 2.105 . S
O61 C51 1.268 . S
O62 Sc46 2.105 . S
O62 C53 1.268 . S
O63 Sc44 2.105 . S
O63 C49 1.268 . S
O64 Sc46 2.105 . S
O64 C48 1.268 . S
O65 Sc45 2.105 . S
O65 C50 1.268 . S
Sc66 O69 2.025 . S
Sc66 O76 2.105 . S
Sc66 O79 2.105 . S
Sc66 O82 2.105 . S
Sc66 O85 2.105 . S
Sc67 O69 2.025 . S
Sc67 O77 2.105 . S
Sc67 O81 2.105 . S
Sc67 O83 2.105 . S
Sc67 O87 2.105 . S
Sc68 O69 2.025 . S
Sc68 O78 2.105 . S
Sc68 O80 2.105 . S
Sc68 O84 2.105 . S
Sc68 O86 2.105 . S
O69 Sc66 2.025 . S
O69 Sc67 2.025 . S
O69 Sc68 2.025 . S
C70 O76 1.268 . S
C70 O86 1.268 . S
C71 O77 1.268 . S
C71 O85 1.268 . S
C72 O78 1.268 . S
C72 O87 1.268 . S
C73 O79 1.268 . S
C73 O83 1.268 . S
C74 O80 1.268 . S
C74 O82 1.268 . S
C75 O81 1.268 . S
C75 O84 1.268 . S
O76 Sc66 2.105 . S
O76 C70 1.268 . S
O77 Sc67 2.105 . S
O77 C71 1.268 . S
O78 Sc68 2.105 . S
O78 C72 1.268 . S
O79 Sc66 2.105 . S
O79 C73 1.268 . S
O80 Sc68 2.105 . S
O80 C74 1.268 . S
O81 Sc67 2.105 . S
O81 C75 1.268 . S
O82 Sc66 2.105 . S
O82 C74 1.268 . S
O83 Sc67 2.105 . S
O83 C73 1.268 . S
O84 Sc68 2.105 . S
O84 C75 1.268 . S
O85 Sc66 2.105 . S
O85 C71 1.268 . S
O86 Sc68 2.105 . S
O86 C70 1.268 . S
O87 Sc67 2.105 . S
O87 C72 1.268 . S
Sc88 O91 2.025 . S
Sc88 O98 2.105 . S
Sc88 O101 2.105 . S
Sc88 O104 2.105 . S
Sc88 O107 2.105 . S
Sc89 O91 2.025 . S
Sc89 O99 2.105 . S
Sc89 O103 2.105 . S
Sc89 O105 2.105 . S
Sc89 O109 2.105 . S
Sc90 O91 2.025 . S
Sc90 O100 2.105 . S
Sc90 O102 2.105 . S
Sc90 O106 2.105 . S
Sc90 O108 2.105 . S
O91 Sc88 2.025 . S
O91 Sc89 2.025 . S
O91 Sc90 2.025 . S
C92 O98 1.268 . S
C92 O108 1.268 . S
C93 O99 1.268 . S
C93 O107 1.268 . S
C94 O100 1.268 . S
C94 O109 1.268 . S
C95 O101 1.268 . S
C95 O105 1.268 . S
C96 O102 1.268 . S
C96 O104 1.268 . S
C97 O103 1.268 . S
C97 O106 1.268 . S
O98 Sc88 2.105 . S
O98 C92 1.268 . S
O99 Sc89 2.105 . S
O99 C93 1.268 . S
O100 Sc90 2.105 . S
O100 C94 1.268 . S
O101 Sc88 2.105 . S
O101 C95 1.268 . S
O102 Sc90 2.105 . S
O102 C96 1.268 . S
O103 Sc89 2.105 . S
O103 C97 1.268 . S
O104 Sc88 2.105 . S
O104 C96 1.268 . S
O105 Sc89 2.105 . S
O105 C95 1.268 . S
O106 Sc90 2.105 . S
O106 C97 1.268 . S
O107 Sc88 2.105 . S
O107 C93 1.268 . S
O108 Sc90 2.105 . S
O108 C92 1.268 . S
O109 Sc89 2.105 . S
O109 C94 1.268 . S
Sc110 O113 2.025 . S
Sc110 O120 2.105 . S
Sc110 O123 2.105 . S
Sc110 O126 2.105 . S
Sc110 O129 2.105 . S
Sc111 O113 2.025 . S
Sc111 O121 2.105 . S
Sc111 O125 2.105 . S
Sc111 O127 2.105 . S
Sc111 O131 2.105 . S
Sc112 O113 2.025 . S
Sc112 O122 2.105 . S
Sc112 O124 2.105 . S
Sc112 O128 2.105 . S
Sc112 O130 2.105 . S
O113 Sc110 2.025 . S
O113 Sc111 2.025 . S
O113 Sc112 2.025 . S
C114 O120 1.268 . S
C114 O130 1.268 . S
C115 O121 1.268 . S
C115 O129 1.268 . S
C116 O122 1.268 . S
C116 O131 1.268 . S
C117 O123 1.268 . S
C117 O127 1.268 . S
C118 O124 1.268 . S
C118 O126 1.268 . S
C119 O125 1.268 . S
C119 O128 1.268 . S
O120 Sc110 2.105 . S
O120 C114 1.268 . S
O121 Sc111 2.105 . S
O121 C115 1.268 . S
O122 Sc112 2.105 . S
O122 C116 1.268 . S
O123 Sc110 2.105 . S
O123 C117 1.268 . S
O124 Sc112 2.105 . S
O124 C118 1.268 . S
O125 Sc111 2.105 . S
O125 C119 1.268 . S
O126 Sc110 2.105 . S
O126 C118 1.268 . S
O127 Sc111 2.105 . S
O127 C117 1.268 . S
O128 Sc112 2.105 . S
O128 C119 1.268 . S
O129 Sc110 2.105 . S
O129 C115 1.268 . S
O130 Sc112 2.105 . S
O130 C114 1.268 . S
O131 Sc111 2.105 . S
O131 C116 1.268 . S
Sc132 O135 2.025 . S
Sc132 O142 2.105 . S
Sc132 O145 2.105 . S
Sc132 O148 2.105 . S
Sc132 O151 2.105 . S
Sc133 O135 2.025 . S
Sc133 O143 2.105 . S
Sc133 O147 2.105 . S
Sc133 O149 2.105 . S
Sc133 O153 2.105 . S
Sc134 O135 2.025 . S
Sc134 O144 2.105 . S
Sc134 O146 2.105 . S
Sc134 O150 2.105 . S
Sc134 O152 2.105 . S
O135 Sc132 2.025 . S
O135 Sc133 2.025 . S
O135 Sc134 2.025 . S
C136 O142 1.268 . S
C136 O152 1.268 . S
C137 O143 1.268 . S
C137 O151 1.268 . S
C138 O144 1.268 . S
C138 O153 1.268 . S
C139 O145 1.268 . S
C139 O149 1.268 . S
C140 O146 1.268 . S
C140 O148 1.268 . S
C141 O147 1.268 . S
C141 O150 1.268 . S
O142 Sc132 2.105 . S
O142 C136 1.268 . S
O143 Sc133 2.105 . S
O143 C137 1.268 . S
O144 Sc134 2.105 . S
O144 C138 1.268 . S
O145 Sc132 2.105 . S
O145 C139 1.268 . S
O146 Sc134 2.105 . S
O146 C140 1.268 . S
O147 Sc133 2.105 . S
O147 C141 1.268 . S
O148 Sc132 2.105 . S
O148 C140 1.268 . S
O149 Sc133 2.105 . S
O149 C139 1.268 . S
O150 Sc134 2.105 . S
O150 C141 1.268 . S
O151 Sc132 2.105 . S
O151 C137 1.268 . S
O152 Sc134 2.105 . S
O152 C136 1.268 . S
O153 Sc133 2.105 . S
O153 C138 1.268 . S
Sc154 O157 2.025 . S
Sc154 O164 2.105 . S
Sc154 O167 2.105 . S
Sc154 O170 2.105 . S
Sc154 O173 2.105 . S
Sc155 O157 2.025 . S
Sc155 O165 2.105 . S
Sc155 O169 2.105 . S
Sc155 O171 2.105 . S
Sc155 O175 2.105 . S
Sc156 O157 2.025 . S
Sc156 O166 2.105 . S
Sc156 O168 2.105 . S
Sc156 O172 2.105 . S
Sc156 O174 2.105 . S
O157 Sc154 2.025 . S
O157 Sc155 2.025 . S
O157 Sc156 2.025 . S
C158 O164 1.268 . S
C158 O174 1.268 . S
C159 O165 1.268 . S
C159 O173 1.268 . S
C160 O166 1.268 . S
C160 O175 1.268 . S
C161 O167 1.268 . S
C161 O171 1.268 . S
C162 O168 1.268 . S
C162 O170 1.268 . S
C163 O169 1.268 . S
C163 O172 1.268 . S
O164 Sc154 2.105 . S
O164 C158 1.268 . S
O165 Sc155 2.105 . S
O165 C159 1.268 . S
O166 Sc156 2.105 . S
O166 C160 1.268 . S
O167 Sc154 2.105 . S
O167 C161 1.268 . S
O168 Sc156 2.105 . S
O168 C162 1.268 . S
O169 Sc155 2.105 . S
O169 C163 1.268 . S
O170 Sc154 2.105 . S
O170 C162 1.268 . S
O171 Sc155 2.105 . S
O171 C161 1.268 . S
O172 Sc156 2.105 . S
O172 C163 1.268 . S
O173 Sc154 2.105 . S
O173 C159 1.268 . S
O174 Sc156 2.105 . S
O174 C158 1.268 . S
O175 Sc155 2.105 . S
O175 C160 1.268 . S
Sc176 O179 2.025 . S
Sc176 O186 2.105 . S
Sc176 O189 2.105 . S
Sc176 O192 2.105 . S
Sc176 O195 2.105 . S
Sc177 O179 2.025 . S
Sc177 O187 2.105 . S
Sc177 O191 2.105 . S
Sc177 O193 2.105 . S
Sc177 O197 2.105 . S
Sc178 O179 2.025 . S
Sc178 O188 2.105 . S
Sc178 O190 2.105 . S
Sc178 O194 2.105 . S
Sc178 O196 2.105 . S
O179 Sc176 2.025 . S
O179 Sc177 2.025 . S
O179 Sc178 2.025 . S
C180 O186 1.268 . S
C180 O196 1.268 . S
C181 O187 1.268 . S
C181 O195 1.268 . S
C182 O188 1.268 . S
C182 O197 1.268 . S
C183 O189 1.268 . S
C183 O193 1.268 . S
C184 O190 1.268 . S
C184 O192 1.268 . S
C185 O191 1.268 . S
C185 O194 1.268 . S
O186 Sc176 2.105 . S
O186 C180 1.268 . S
O187 Sc177 2.105 . S
O187 C181 1.268 . S
O188 Sc178 2.105 . S
O188 C182 1.268 . S
O189 Sc176 2.105 . S
O189 C183 1.268 . S
O190 Sc178 2.105 . S
O190 C184 1.268 . S
O191 Sc177 2.105 . S
O191 C185 1.268 . S
O192 Sc176 2.105 . S
O192 C184 1.268 . S
O193 Sc177 2.105 . S
O193 C183 1.268 . S
O194 Sc178 2.105 . S
O194 C185 1.268 . S
O195 Sc176 2.105 . S
O195 C181 1.268 . S
O196 Sc178 2.105 . S
O196 C180 1.268 . S
O197 Sc177 2.105 . S
O197 C182 1.268 . S
Sc198 O201 2.025 . S
Sc198 O208 2.105 . S
Sc198 O211 2.105 . S
Sc198 O214 2.105 . S
Sc198 O217 2.105 . S
Sc199 O201 2.025 . S
Sc199 O209 2.105 . S
Sc199 O213 2.105 . S
Sc199 O215 2.105 . S
Sc199 O219 2.105 . S
Sc200 O201 2.025 . S
Sc200 O210 2.105 . S
Sc200 O212 2.105 . S
Sc200 O216 2.105 . S
Sc200 O218 2.105 . S
O201 Sc198 2.025 . S
O201 Sc199 2.025 . S
O201 Sc200 2.025 . S
C202 O208 1.268 . S
C202 O218 1.268 . S
C203 O209 1.268 . S
C203 O217 1.268 . S
C204 O210 1.268 . S
C204 O219 1.268 . S
C205 O211 1.268 . S
C205 O215 1.268 . S
C206 O212 1.268 . S
C206 O214 1.268 . S
C207 O213 1.268 . S
C207 O216 1.268 . S
O208 Sc198 2.105 . S
O208 C202 1.268 . S
O209 Sc199 2.105 . S
O209 C203 1.268 . S
O210 Sc200 2.105 . S
O210 C204 1.268 . S
O211 Sc198 2.105 . S
O211 C205 1.268 . S
O212 Sc200 2.105 . S
O212 C206 1.268 . S
O213 Sc199 2.105 . S
O213 C207 1.268 . S
O214 Sc198 2.105 . S
O214 C206 1.268 . S
O215 Sc199 2.105 . S
O215 C205 1.268 . S
O216 Sc200 2.105 . S
O216 C207 1.268 . S
O217 Sc198 2.105 . S
O217 C203 1.268 . S
O218 Sc200 2.105 . S
O218 C202 1.268 . S
O219 Sc199 2.105 . S
O219 C204 1.268 . S
Sc220 O223 2.025 . S
Sc220 O230 2.105 . S
Sc220 O233 2.105 . S
Sc220 O236 2.105 . S
Sc220 O239 2.105 . S
Sc221 O223 2.025 . S
Sc221 O231 2.105 . S
Sc221 O235 2.105 . S
Sc221 O237 2.105 . S
Sc221 O241 2.105 . S
Sc222 O223 2.025 . S
Sc222 O232 2.105 . S
Sc222 O234 2.105 . S
Sc222 O238 2.105 . S
Sc222 O240 2.105 . S
O223 Sc220 2.025 . S
O223 Sc221 2.025 . S
O223 Sc222 2.025 . S
C224 O230 1.268 . S
C224 O240 1.268 . S
C225 O231 1.268 . S
C225 O239 1.268 . S
C226 O232 1.268 . S
C226 O241 1.268 . S
C227 O233 1.268 . S
C227 O237 1.268 . S
C228 O234 1.268 . S
C228 O236 1.268 . S
C229 O235 1.268 . S
C229 O238 1.268 . S
O230 Sc220 2.105 . S
O230 C224 1.268 . S
O231 Sc221 2.105 . S
O231 C225 1.268 . S
O232 Sc222 2.105 . S
O232 C226 1.268 . S
O233 Sc220 2.105 . S
O233 C227 1.268 . S
O234 Sc222 2.105 . S
O234 C228 1.268 . S
O235 Sc221 2.105 . S
O235 C229 1.268 . S
O236 Sc220 2.105 . S
O236 C228 1.268 . S
O237 Sc221 2.105 . S
O237 C227 1.268 . S
O238 Sc222 2.105 . S
O238 C229 1.268 . S
O239 Sc220 2.105 . S
O239 C225 1.268 . S
O240 Sc222 2.105 . S
O240 C224 1.268 . S
O241 Sc221 2.105 . S
O241 C226 1.268 . S
Sc242 O245 2.025 . S
Sc242 O252 2.105 . S
Sc242 O255 2.105 . S
Sc242 O258 2.105 . S
Sc242 O261 2.105 . S
Sc243 O245 2.025 . S
Sc243 O253 2.105 . S
Sc243 O257 2.105 . S
Sc243 O259 2.105 . S
Sc243 O263 2.105 . S
Sc244 O245 2.025 . S
Sc244 O254 2.105 . S
Sc244 O256 2.105 . S
Sc244 O260 2.105 . S
Sc244 O262 2.105 . S
O245 Sc242 2.025 . S
O245 Sc243 2.025 . S
O245 Sc244 2.025 . S
C246 O252 1.268 . S
C246 O262 1.268 . S
C247 O253 1.268 . S
C247 O261 1.268 . S
C248 O254 1.268 . S
C248 O263 1.268 . S
C249 O255 1.268 . S
C249 O259 1.268 . S
C250 O256 1.268 . S
C250 O258 1.268 . S
C251 O257 1.268 . S
C251 O260 1.268 . S
O252 Sc242 2.105 . S
O252 C246 1.268 . S
O253 Sc243 2.105 . S
O253 C247 1.268 . S
O254 Sc244 2.105 . S
O254 C248 1.268 . S
O255 Sc242 2.105 . S
O255 C249 1.268 . S
O256 Sc244 2.105 . S
O256 C250 1.268 . S
O257 Sc243 2.105 . S
O257 C251 1.268 . S
O258 Sc242 2.105 . S
O258 C250 1.268 . S
O259 Sc243 2.105 . S
O259 C249 1.268 . S
O260 Sc244 2.105 . S
O260 C251 1.268 . S
O261 Sc242 2.105 . S
O261 C247 1.268 . S
O262 Sc244 2.105 . S
O262 C246 1.268 . S
O263 Sc243 2.105 . S
O263 C248 1.268 . S
Sc264 O267 2.025 . S
Sc264 O274 2.105 . S
Sc264 O277 2.105 . S
Sc264 O280 2.105 . S
Sc264 O283 2.105 . S
Sc265 O267 2.025 . S
Sc265 O275 2.105 . S
Sc265 O279 2.105 . S
Sc265 O281 2.105 . S
Sc265 O285 2.105 . S
Sc266 O267 2.025 . S
Sc266 O276 2.105 . S
Sc266 O278 2.105 . S
Sc266 O282 2.105 . S
Sc266 O284 2.105 . S
O267 Sc264 2.025 . S
O267 Sc265 2.025 . S
O267 Sc266 2.025 . S
C268 O274 1.268 . S
C268 O284 1.268 . S
C269 O275 1.268 . S
C269 O283 1.268 . S
C270 O276 1.268 . S
C270 O285 1.268 . S
C271 O277 1.268 . S
C271 O281 1.268 . S
C272 O278 1.268 . S
C272 O280 1.268 . S
C273 O279 1.268 . S
C273 O282 1.268 . S
O274 Sc264 2.105 . S
O274 C268 1.268 . S
O275 Sc265 2.105 . S
O275 C269 1.268 . S
O276 Sc266 2.105 . S
O276 C270 1.268 . S
O277 Sc264 2.105 . S
O277 C271 1.268 . S
O278 Sc266 2.105 . S
O278 C272 1.268 . S
O279 Sc265 2.105 . S
O279 C273 1.268 . S
O280 Sc264 2.105 . S
O280 C272 1.268 . S
O281 Sc265 2.105 . S
O281 C271 1.268 . S
O282 Sc266 2.105 . S
O282 C273 1.268 . S
O283 Sc264 2.105 . S
O283 C269 1.268 . S
O284 Sc266 2.105 . S
O284 C268 1.268 . S
O285 Sc265 2.105 . S
O285 C270 1.268 . S
Sc286 O289 2.025 . S
Sc286 O296 2.105 . S
Sc286 O299 2.105 . S
Sc286 O302 2.105 . S
Sc286 O305 2.105 . S
Sc287 O289 2.025 . S
Sc287 O297 2.105 . S
Sc287 O301 2.105 . S
Sc287 O303 2.105 . S
Sc287 O307 2.105 . S
Sc288 O289 2.025 . S
Sc288 O298 2.105 . S
Sc288 O300 2.105 . S
Sc288 O304 2.105 . S
Sc288 O306 2.105 . S
O289 Sc286 2.025 . S
O289 Sc287 2.025 . S
O289 Sc288 2.025 . S
C290 O296 1.268 . S
C290 O306 1.268 . S
C291 O297 1.268 . S
C291 O305 1.268 . S
C292 O298 1.268 . S
C292 O307 1.268 . S
C293 O299 1.268 . S
C293 O303 1.268 . S
C294 O300 1.268 . S
C294 O302 1.268 . S
C295 O301 1.268 . S
C295 O304 1.268 . S
O296 Sc286 2.105 . S
O296 C290 1.268 . S
O297 Sc287 2.105 . S
O297 C291 1.268 . S
O298 Sc288 2.105 . S
O298 C292 1.268 . S
O299 Sc286 2.105 . S
O299 C293 1.268 . S
O300 Sc288 2.105 . S
O300 C294 1.268 . S
O301 Sc287 2.105 . S
O301 C295 1.268 . S
O302 Sc286 2.105 . S
O302 C294 1.268 . S
O303 Sc287 2.105 . S
O303 C293 1.268 . S
O304 Sc288 2.105 . S
O304 C295 1.268 . S
O305 Sc286 2.105 . S
O305 C291 1.268 . S
O306 Sc288 2.105 . S
O306 C290 1.268 . S
O307 Sc287 2.105 . S
O307 C292 1.268 . S
Sc308 O311 2.025 . S
Sc308 O318 2.105 . S
Sc308 O321 2.105 . S
Sc308 O324 2.105 . S
Sc308 O327 2.105 . S
Sc309 O311 2.025 . S
Sc309 O319 2.105 . S
Sc309 O323 2.105 . S
Sc309 O325 2.105 . S
Sc309 O329 2.105 . S
Sc310 O311 2.025 . S
Sc310 O320 2.105 . S
Sc310 O322 2.105 . S
Sc310 O326 2.105 . S
Sc310 O328 2.105 . S
O311 Sc308 2.025 . S
O311 Sc309 2.025 . S
O311 Sc310 2.025 . S
C312 O318 1.268 . S
C312 O328 1.268 . S
C313 O319 1.268 . S
C313 O327 1.268 . S
C314 O320 1.268 . S
C314 O329 1.268 . S
C315 O321 1.268 . S
C315 O325 1.268 . S
C316 O322 1.268 . S
C316 O324 1.268 . S
C317 O323 1.268 . S
C317 O326 1.268 . S
O318 Sc308 2.105 . S
O318 C312 1.268 . S
O319 Sc309 2.105 . S
O319 C313 1.268 . S
O320 Sc310 2.105 . S
O320 C314 1.268 . S
O321 Sc308 2.105 . S
O321 C315 1.268 . S
O322 Sc310 2.105 . S
O322 C316 1.268 . S
O323 Sc309 2.105 . S
O323 C317 1.268 . S
O324 Sc308 2.105 . S
O324 C316 1.268 . S
O325 Sc309 2.105 . S
O325 C315 1.268 . S
O326 Sc310 2.105 . S
O326 C317 1.268 . S
O327 Sc308 2.105 . S
O327 C313 1.268 . S
O328 Sc310 2.105 . S
O328 C312 1.268 . S
O329 Sc309 2.105 . S
O329 C314 1.268 . S
Sc330 O333 2.025 . S
Sc330 O340 2.105 . S
Sc330 O343 2.105 . S
Sc330 O346 2.105 . S
Sc330 O349 2.105 . S
Sc331 O333 2.025 . S
Sc331 O341 2.105 . S
Sc331 O345 2.105 . S
Sc331 O347 2.105 . S
Sc331 O351 2.105 . S
Sc332 O333 2.025 . S
Sc332 O342 2.105 . S
Sc332 O344 2.105 . S
Sc332 O348 2.105 . S
Sc332 O350 2.105 . S
O333 Sc330 2.025 . S
O333 Sc331 2.025 . S
O333 Sc332 2.025 . S
C334 O340 1.268 . S
C334 O350 1.268 . S
C335 O341 1.268 . S
C335 O349 1.268 . S
C336 O342 1.268 . S
C336 O351 1.268 . S
C337 O343 1.268 . S
C337 O347 1.268 . S
C338 O344 1.268 . S
C338 O346 1.268 . S
C339 O345 1.268 . S
C339 O348 1.268 . S
O340 Sc330 2.105 . S
O340 C334 1.268 . S
O341 Sc331 2.105 . S
O341 C335 1.268 . S
O342 Sc332 2.105 . S
O342 C336 1.268 . S
O343 Sc330 2.105 . S
O343 C337 1.268 . S
O344 Sc332 2.105 . S
O344 C338 1.268 . S
O345 Sc331 2.105 . S
O345 C339 1.268 . S
O346 Sc330 2.105 . S
O346 C338 1.268 . S
O347 Sc331 2.105 . S
O347 C337 1.268 . S
O348 Sc332 2.105 . S
O348 C339 1.268 . S
O349 Sc330 2.105 . S
O349 C335 1.268 . S
O350 Sc332 2.105 . S
O350 C334 1.268 . S
O351 Sc331 2.105 . S
O351 C336 1.268 . S
C352 C353 1.391 . S
C352 C354 1.394 . S
C352 H368 0.931 . S
C353 C352 1.391 . S
C353 C357 1.376 . S
C354 C352 1.394 . S
C354 C355 1.369 . S
C354 C358 1.531 . S
C355 C354 1.369 . S
C355 C356 1.410 . S
C355 C363 1.503 . S
C356 C355 1.410 . S
C356 C357 1.392 . S
C356 C359 1.511 . S
C357 C353 1.376 . S
C357 C356 1.392 . S
C357 H369 0.929 . S
C358 C354 1.531 . S
C358 H370 0.960 . S
C358 H371 0.962 . S
C358 H372 0.960 . S
C359 C356 1.511 . S
C359 H373 0.961 . S
C359 H374 0.961 . S
C359 H375 0.961 . S
C360 C361 1.370 . S
C360 C362 1.363 . S
C360 H376 0.931 . S
C361 C360 1.370 . S
C361 C365 1.408 . S
C362 C360 1.363 . S
C362 C363 1.370 . S
C362 C366 1.524 . S
C363 C355 1.503 . S
C363 C362 1.370 . S
C363 C364 1.403 . S
C364 C363 1.403 . S
C364 C365 1.404 . S
C364 C367 1.539 . S
C365 C361 1.408 . S
C365 C364 1.404 . S
C365 H377 0.930 . S
C366 C362 1.524 . S
C366 H378 0.956 . S
C366 H379 0.961 . S
C366 H380 0.961 . S
C367 C364 1.539 . S
C367 H381 0.958 . S
C367 H382 0.961 . S
C367 H383 0.960 . S
H368 C352 0.931 . S
H369 C357 0.929 . S
H370 C358 0.960 . S
H371 C358 0.962 . S
H372 C358 0.960 . S
H373 C359 0.961 . S
H374 C359 0.961 . S
H375 C359 0.961 . S
H376 C360 0.931 . S
H377 C365 0.930 . S
H378 C366 0.956 . S
H379 C366 0.961 . S
H380 C366 0.961 . S
H381 C367 0.958 . S
H382 C367 0.961 . S
H383 C367 0.960 . S
C384 C385 1.391 . S
C384 C386 1.394 . S
C384 H400 0.931 . S
C385 C384 1.391 . S
C385 C389 1.376 . S
C386 C384 1.394 . S
C386 C387 1.369 . S
C386 C390 1.531 . S
C387 C386 1.369 . S
C387 C388 1.410 . S
C387 C395 1.503 . S
C388 C387 1.410 . S
C388 C389 1.392 . S
C388 C391 1.511 . S
C389 C385 1.376 . S
C389 C388 1.392 . S
C389 H401 0.929 . S
C390 C386 1.531 . S
C390 H402 0.960 . S
C390 H403 0.962 . S
C390 H404 0.960 . S
C391 C388 1.511 . S
C391 H405 0.961 . S
C391 H406 0.961 . S
C391 H407 0.961 . S
C392 C393 1.370 . S
C392 C394 1.363 . S
C392 H408 0.931 . S
C393 C392 1.370 . S
C393 C397 1.408 . S
C394 C392 1.363 . S
C394 C395 1.370 . S
C394 C398 1.524 . S
C395 C387 1.503 . S
C395 C394 1.370 . S
C395 C396 1.403 . S
C396 C395 1.403 . S
C396 C397 1.404 . S
C396 C399 1.539 . S
C397 C393 1.408 . S
C397 C396 1.404 . S
C397 H409 0.930 . S
C398 C394 1.524 . S
C398 H410 0.956 . S
C398 H411 0.961 . S
C398 H412 0.961 . S
C399 C396 1.539 . S
C399 H413 0.958 . S
C399 H414 0.961 . S
C399 H415 0.960 . S
H400 C384 0.931 . S
H401 C389 0.929 . S
H402 C390 0.960 . S
H403 C390 0.962 . S
H404 C390 0.960 . S
H405 C391 0.961 . S
H406 C391 0.961 . S
H407 C391 0.961 . S
H408 C392 0.931 . S
H409 C397 0.930 . S
H410 C398 0.956 . S
H411 C398 0.961 . S
H412 C398 0.961 . S
H413 C399 0.958 . S
H414 C399 0.961 . S
H415 C399 0.960 . S
C416 C417 1.391 . S
C416 C418 1.394 . S
C416 H432 0.931 . S
C417 C416 1.391 . S
C417 C421 1.376 . S
C418 C416 1.394 . S
C418 C419 1.369 . S
C418 C422 1.531 . S
C419 C418 1.369 . S
C419 C420 1.410 . S
C419 C427 1.503 . S
C420 C419 1.410 . S
C420 C421 1.392 . S
C420 C423 1.511 . S
C421 C417 1.376 . S
C421 C420 1.392 . S
C421 H433 0.929 . S
C422 C418 1.531 . S
C422 H434 0.960 . S
C422 H435 0.962 . S
C422 H436 0.960 . S
C423 C420 1.511 . S
C423 H437 0.961 . S
C423 H438 0.961 . S
C423 H439 0.961 . S
C424 C425 1.370 . S
C424 C426 1.363 . S
C424 H440 0.931 . S
C425 C424 1.370 . S
C425 C429 1.408 . S
C426 C424 1.363 . S
C426 C427 1.370 . S
C426 C430 1.524 . S
C427 C419 1.503 . S
C427 C426 1.370 . S
C427 C428 1.403 . S
C428 C427 1.403 . S
C428 C429 1.404 . S
C428 C431 1.539 . S
C429 C425 1.408 . S
C429 C428 1.404 . S
C429 H441 0.930 . S
C430 C426 1.524 . S
C430 H442 0.956 . S
C430 H443 0.961 . S
C430 H444 0.961 . S
C431 C428 1.539 . S
C431 H445 0.958 . S
C431 H446 0.961 . S
C431 H447 0.960 . S
H432 C416 0.931 . S
H433 C421 0.929 . S
H434 C422 0.960 . S
H435 C422 0.962 . S
H436 C422 0.960 . S
H437 C423 0.961 . S
H438 C423 0.961 . S
H439 C423 0.961 . S
H440 C424 0.931 . S
H441 C429 0.930 . S
H442 C430 0.956 . S
H443 C430 0.961 . S
H444 C430 0.961 . S
H445 C431 0.958 . S
H446 C431 0.961 . S
H447 C431 0.960 . S
C448 C449 1.391 . S
C448 C450 1.394 . S
C448 H464 0.931 . S
C449 C448 1.391 . S
C449 C453 1.376 . S
C450 C448 1.394 . S
C450 C451 1.369 . S
C450 C454 1.531 . S
C451 C450 1.369 . S
C451 C452 1.410 . S
C451 C459 1.503 . S
C452 C451 1.410 . S
C452 C453 1.392 . S
C452 C455 1.511 . S
C453 C449 1.376 . S
C453 C452 1.392 . S
C453 H465 0.929 . S
C454 C450 1.531 . S
C454 H466 0.960 . S
C454 H467 0.962 . S
C454 H468 0.960 . S
C455 C452 1.511 . S
C455 H469 0.961 . S
C455 H470 0.961 . S
C455 H471 0.961 . S
C456 C457 1.370 . S
C456 C458 1.363 . S
C456 H472 0.931 . S
C457 C456 1.370 . S
C457 C461 1.408 . S
C458 C456 1.363 . S
C458 C459 1.370 . S
C458 C462 1.524 . S
C459 C451 1.503 . S
C459 C458 1.370 . S
C459 C460 1.403 . S
C460 C459 1.403 . S
C460 C461 1.404 . S
C460 C463 1.539 . S
C461 C457 1.408 . S
C461 C460 1.404 . S
C461 H473 0.930 . S
C462 C458 1.524 . S
C462 H474 0.956 . S
C462 H475 0.961 . S
C462 H476 0.961 . S
C463 C460 1.539 . S
C463 H477 0.958 . S
C463 H478 0.961 . S
C463 H479 0.960 . S
H464 C448 0.931 . S
H465 C453 0.929 . S
H466 C454 0.960 . S
H467 C454 0.962 . S
H468 C454 0.960 . S
H469 C455 0.961 . S
H470 C455 0.961 . S
H471 C455 0.961 . S
H472 C456 0.931 . S
H473 C461 0.930 . S
H474 C462 0.956 . S
H475 C462 0.961 . S
H476 C462 0.961 . S
H477 C463 0.958 . S
H478 C463 0.961 . S
H479 C463 0.960 . S
C480 C481 1.391 . S
C480 C482 1.394 . S
C480 H496 0.931 . S
C481 C480 1.391 . S
C481 C485 1.376 . S
C482 C480 1.394 . S
C482 C483 1.369 . S
C482 C486 1.531 . S
C483 C482 1.369 . S
C483 C484 1.410 . S
C483 C491 1.503 . S
C484 C483 1.410 . S
C484 C485 1.392 . S
C484 C487 1.511 . S
C485 C481 1.376 . S
C485 C484 1.392 . S
C485 H497 0.929 . S
C486 C482 1.531 . S
C486 H498 0.960 . S
C486 H499 0.962 . S
C486 H500 0.960 . S
C487 C484 1.511 . S
C487 H501 0.961 . S
C487 H502 0.961 . S
C487 H503 0.961 . S
C488 C489 1.370 . S
C488 C490 1.363 . S
C488 H504 0.931 . S
C489 C488 1.370 . S
C489 C493 1.408 . S
C490 C488 1.363 . S
C490 C491 1.370 . S
C490 C494 1.524 . S
C491 C483 1.503 . S
C491 C490 1.370 . S
C491 C492 1.403 . S
C492 C491 1.403 . S
C492 C493 1.404 . S
C492 C495 1.539 . S
C493 C489 1.408 . S
C493 C492 1.404 . S
C493 H505 0.930 . S
C494 C490 1.524 . S
C494 H506 0.956 . S
C494 H507 0.961 . S
C494 H508 0.961 . S
C495 C492 1.539 . S
C495 H509 0.958 . S
C495 H510 0.961 . S
C495 H511 0.960 . S
H496 C480 0.931 . S
H497 C485 0.929 . S
H498 C486 0.960 . S
H499 C486 0.962 . S
H500 C486 0.960 . S
H501 C487 0.961 . S
H502 C487 0.961 . S
H503 C487 0.961 . S
H504 C488 0.931 . S
H505 C493 0.930 . S
H506 C494 0.956 . S
H507 C494 0.961 . S
H508 C494 0.961 . S
H509 C495 0.958 . S
H510 C495 0.961 . S
H511 C495 0.960 . S
C512 C513 1.391 . S
C512 C514 1.394 . S
C512 H528 0.931 . S
C513 C512 1.391 . S
C513 C517 1.376 . S
C514 C512 1.394 . S
C514 C515 1.369 . S
C514 C518 1.531 . S
C515 C514 1.369 . S
C515 C516 1.410 . S
C515 C523 1.503 . S
C516 C515 1.410 . S
C516 C517 1.392 . S
C516 C519 1.511 . S
C517 C513 1.376 . S
C517 C516 1.392 . S
C517 H529 0.929 . S
C518 C514 1.531 . S
C518 H530 0.960 . S
C518 H531 0.962 . S
C518 H532 0.960 . S
C519 C516 1.511 . S
C519 H533 0.961 . S
C519 H534 0.961 . S
C519 H535 0.961 . S
C520 C521 1.370 . S
C520 C522 1.363 . S
C520 H536 0.931 . S
C521 C520 1.370 . S
C521 C525 1.408 . S
C522 C520 1.363 . S
C522 C523 1.370 . S
C522 C526 1.524 . S
C523 C515 1.503 . S
C523 C522 1.370 . S
C523 C524 1.403 . S
C524 C523 1.403 . S
C524 C525 1.404 . S
C524 C527 1.539 . S
C525 C521 1.408 . S
C525 C524 1.404 . S
C525 H537 0.930 . S
C526 C522 1.524 . S
C526 H538 0.956 . S
C526 H539 0.961 . S
C526 H540 0.961 . S
C527 C524 1.539 . S
C527 H541 0.958 . S
C527 H542 0.961 . S
C527 H543 0.960 . S
H528 C512 0.931 . S
H529 C517 0.929 . S
H530 C518 0.960 . S
H531 C518 0.962 . S
H532 C518 0.960 . S
H533 C519 0.961 . S
H534 C519 0.961 . S
H535 C519 0.961 . S
H536 C520 0.931 . S
H537 C525 0.930 . S
H538 C526 0.956 . S
H539 C526 0.961 . S
H540 C526 0.961 . S
H541 C527 0.958 . S
H542 C527 0.961 . S
H543 C527 0.960 . S
C544 C545 1.391 . S
C544 C546 1.394 . S
C544 H560 0.931 . S
C545 C544 1.391 . S
C545 C549 1.376 . S
C546 C544 1.394 . S
C546 C547 1.369 . S
C546 C550 1.531 . S
C547 C546 1.369 . S
C547 C548 1.410 . S
C547 C555 1.503 . S
C548 C547 1.410 . S
C548 C549 1.392 . S
C548 C551 1.511 . S
C549 C545 1.376 . S
C549 C548 1.392 . S
C549 H561 0.929 . S
C550 C546 1.531 . S
C550 H562 0.960 . S
C550 H563 0.962 . S
C550 H564 0.960 . S
C551 C548 1.511 . S
C551 H565 0.961 . S
C551 H566 0.961 . S
C551 H567 0.961 . S
C552 C553 1.370 . S
C552 C554 1.363 . S
C552 H568 0.931 . S
C553 C552 1.370 . S
C553 C557 1.408 . S
C554 C552 1.363 . S
C554 C555 1.370 . S
C554 C558 1.524 . S
C555 C547 1.503 . S
C555 C554 1.370 . S
C555 C556 1.403 . S
C556 C555 1.403 . S
C556 C557 1.404 . S
C556 C559 1.539 . S
C557 C553 1.408 . S
C557 C556 1.404 . S
C557 H569 0.930 . S
C558 C554 1.524 . S
C558 H570 0.956 . S
C558 H571 0.961 . S
C558 H572 0.961 . S
C559 C556 1.539 . S
C559 H573 0.958 . S
C559 H574 0.961 . S
C559 H575 0.960 . S
H560 C544 0.931 . S
H561 C549 0.929 . S
H562 C550 0.960 . S
H563 C550 0.962 . S
H564 C550 0.960 . S
H565 C551 0.961 . S
H566 C551 0.961 . S
H567 C551 0.961 . S
H568 C552 0.931 . S
H569 C557 0.930 . S
H570 C558 0.956 . S
H571 C558 0.961 . S
H572 C558 0.961 . S
H573 C559 0.958 . S
H574 C559 0.961 . S
H575 C559 0.960 . S
C576 C577 1.391 . S
C576 C578 1.394 . S
C576 H592 0.931 . S
C577 C576 1.391 . S
C577 C581 1.376 . S
C578 C576 1.394 . S
C578 C579 1.369 . S
C578 C582 1.531 . S
C579 C578 1.369 . S
C579 C580 1.410 . S
C579 C587 1.503 . S
C580 C579 1.410 . S
C580 C581 1.392 . S
C580 C583 1.511 . S
C581 C577 1.376 . S
C581 C580 1.392 . S
C581 H593 0.929 . S
C582 C578 1.531 . S
C582 H594 0.960 . S
C582 H595 0.962 . S
C582 H596 0.960 . S
C583 C580 1.511 . S
C583 H597 0.961 . S
C583 H598 0.961 . S
C583 H599 0.961 . S
C584 C585 1.370 . S
C584 C586 1.363 . S
C584 H600 0.931 . S
C585 C584 1.370 . S
C585 C589 1.408 . S
C586 C584 1.363 . S
C586 C587 1.370 . S
C586 C590 1.524 . S
C587 C579 1.503 . S
C587 C586 1.370 . S
C587 C588 1.403 . S
C588 C587 1.403 . S
C588 C589 1.404 . S
C588 C591 1.539 . S
C589 C585 1.408 . S
C589 C588 1.404 . S
C589 H601 0.930 . S
C590 C586 1.524 . S
C590 H602 0.956 . S
C590 H603 0.961 . S
C590 H604 0.961 . S
C591 C588 1.539 . S
C591 H605 0.958 . S
C591 H606 0.961 . S
C591 H607 0.960 . S
H592 C576 0.931 . S
H593 C581 0.929 . S
H594 C582 0.960 . S
H595 C582 0.962 . S
H596 C582 0.960 . S
H597 C583 0.961 . S
H598 C583 0.961 . S
H599 C583 0.961 . S
H600 C584 0.931 . S
H601 C589 0.930 . S
H602 C590 0.956 . S
H603 C590 0.961 . S
H604 C590 0.961 . S
H605 C591 0.958 . S
H606 C591 0.961 . S
H607 C591 0.960 . S
C608 C609 1.391 . S
C608 C610 1.394 . S
C608 H624 0.931 . S
C609 C608 1.391 . S
C609 C613 1.376 . S
C610 C608 1.394 . S
C610 C611 1.369 . S
C610 C614 1.531 . S
C611 C610 1.369 . S
C611 C612 1.410 . S
C611 C619 1.503 . S
C612 C611 1.410 . S
C612 C613 1.392 . S
C612 C615 1.511 . S
C613 C609 1.376 . S
C613 C612 1.392 . S
C613 H625 0.929 . S
C614 C610 1.531 . S
C614 H626 0.960 . S
C614 H627 0.962 . S
C614 H628 0.960 . S
C615 C612 1.511 . S
C615 H629 0.961 . S
C615 H630 0.961 . S
C615 H631 0.961 . S
C616 C617 1.370 . S
C616 C618 1.363 . S
C616 H632 0.931 . S
C617 C616 1.370 . S
C617 C621 1.408 . S
C618 C616 1.363 . S
C618 C619 1.370 . S
C618 C622 1.524 . S
C619 C611 1.503 . S
C619 C618 1.370 . S
C619 C620 1.403 . S
C620 C619 1.403 . S
C620 C621 1.404 . S
C620 C623 1.539 . S
C621 C617 1.408 . S
C621 C620 1.404 . S
C621 H633 0.930 . S
C622 C618 1.524 . S
C622 H634 0.956 . S
C622 H635 0.961 . S
C622 H636 0.961 . S
C623 C620 1.539 . S
C623 H637 0.958 . S
C623 H638 0.961 . S
C623 H639 0.960 . S
H624 C608 0.931 . S
H625 C613 0.929 . S
H626 C614 0.960 . S
H627 C614 0.962 . S
H628 C614 0.960 . S
H629 C615 0.961 . S
H630 C615 0.961 . S
H631 C615 0.961 . S
H632 C616 0.931 . S
H633 C621 0.930 . S
H634 C622 0.956 . S
H635 C622 0.961 . S
H636 C622 0.961 . S
H637 C623 0.958 . S
H638 C623 0.961 . S
H639 C623 0.960 . S
C640 C641 1.391 . S
C640 C642 1.394 . S
C640 H656 0.931 . S
C641 C640 1.391 . S
C641 C645 1.376 . S
C642 C640 1.394 . S
C642 C643 1.369 . S
C642 C646 1.531 . S
C643 C642 1.369 . S
C643 C644 1.410 . S
C643 C651 1.503 . S
C644 C643 1.410 . S
C644 C645 1.392 . S
C644 C647 1.511 . S
C645 C641 1.376 . S
C645 C644 1.392 . S
C645 H657 0.929 . S
C646 C642 1.531 . S
C646 H658 0.960 . S
C646 H659 0.962 . S
C646 H660 0.960 . S
C647 C644 1.511 . S
C647 H661 0.961 . S
C647 H662 0.961 . S
C647 H663 0.961 . S
C648 C649 1.370 . S
C648 C650 1.363 . S
C648 H664 0.931 . S
C649 C648 1.370 . S
C649 C653 1.408 . S
C650 C648 1.363 . S
C650 C651 1.370 . S
C650 C654 1.524 . S
C651 C643 1.503 . S
C651 C650 1.370 . S
C651 C652 1.403 . S
C652 C651 1.403 . S
C652 C653 1.404 . S
C652 C655 1.539 . S
C653 C649 1.408 . S
C653 C652 1.404 . S
C653 H665 0.930 . S
C654 C650 1.524 . S
C654 H666 0.956 . S
C654 H667 0.961 . S
C654 H668 0.961 . S
C655 C652 1.539 . S
C655 H669 0.958 . S
C655 H670 0.961 . S
C655 H671 0.960 . S
H656 C640 0.931 . S
H657 C645 0.929 . S
H658 C646 0.960 . S
H659 C646 0.962 . S
H660 C646 0.960 . S
H661 C647 0.961 . S
H662 C647 0.961 . S
H663 C647 0.961 . S
H664 C648 0.931 . S
H665 C653 0.930 . S
H666 C654 0.956 . S
H667 C654 0.961 . S
H668 C654 0.961 . S
H669 C655 0.958 . S
H670 C655 0.961 . S
H671 C655 0.960 . S
C672 C673 1.391 . S
C672 C674 1.394 . S
C672 H688 0.931 . S
C673 C672 1.391 . S
C673 C677 1.376 . S
C674 C672 1.394 . S
C674 C675 1.369 . S
C674 C678 1.531 . S
C675 C674 1.369 . S
C675 C676 1.410 . S
C675 C683 1.503 . S
C676 C675 1.410 . S
C676 C677 1.392 . S
C676 C679 1.511 . S
C677 C673 1.376 . S
C677 C676 1.392 . S
C677 H689 0.929 . S
C678 C674 1.531 . S
C678 H690 0.960 . S
C678 H691 0.962 . S
C678 H692 0.960 . S
C679 C676 1.511 . S
C679 H693 0.961 . S
C679 H694 0.961 . S
C679 H695 0.961 . S
C680 C681 1.370 . S
C680 C682 1.363 . S
C680 H696 0.931 . S
C681 C680 1.370 . S
C681 C685 1.408 . S
C682 C680 1.363 . S
C682 C683 1.370 . S
C682 C686 1.524 . S
C683 C675 1.503 . S
C683 C682 1.370 . S
C683 C684 1.403 . S
C684 C683 1.403 . S
C684 C685 1.404 . S
C684 C687 1.539 . S
C685 C681 1.408 . S
C685 C684 1.404 . S
C685 H697 0.930 . S
C686 C682 1.524 . S
C686 H698 0.956 . S
C686 H699 0.961 . S
C686 H700 0.961 . S
C687 C684 1.539 . S
C687 H701 0.958 . S
C687 H702 0.961 . S
C687 H703 0.960 . S
H688 C672 0.931 . S
H689 C677 0.929 . S
H690 C678 0.960 . S
H691 C678 0.962 . S
H692 C678 0.960 . S
H693 C679 0.961 . S
H694 C679 0.961 . S
H695 C679 0.961 . S
H696 C680 0.931 . S
H697 C685 0.930 . S
H698 C686 0.956 . S
H699 C686 0.961 . S
H700 C686 0.961 . S
H701 C687 0.958 . S
H702 C687 0.961 . S
H703 C687 0.960 . S
C704 C705 1.391 . S
C704 C706 1.394 . S
C704 H720 0.931 . S
C705 C704 1.391 . S
C705 C709 1.376 . S
C706 C704 1.394 . S
C706 C707 1.369 . S
C706 C710 1.531 . S
C707 C706 1.369 . S
C707 C708 1.410 . S
C707 C715 1.503 . S
C708 C707 1.410 . S
C708 C709 1.392 . S
C708 C711 1.511 . S
C709 C705 1.376 . S
C709 C708 1.392 . S
C709 H721 0.929 . S
C710 C706 1.531 . S
C710 H722 0.960 . S
C710 H723 0.962 . S
C710 H724 0.960 . S
C711 C708 1.511 . S
C711 H725 0.961 . S
C711 H726 0.961 . S
C711 H727 0.961 . S
C712 C713 1.370 . S
C712 C714 1.363 . S
C712 H728 0.931 . S
C713 C712 1.370 . S
C713 C717 1.408 . S
C714 C712 1.363 . S
C714 C715 1.370 . S
C714 C718 1.524 . S
C715 C707 1.503 . S
C715 C714 1.370 . S
C715 C716 1.403 . S
C716 C715 1.403 . S
C716 C717 1.404 . S
C716 C719 1.539 . S
C717 C713 1.408 . S
C717 C716 1.404 . S
C717 H729 0.930 . S
C718 C714 1.524 . S
C718 H730 0.956 . S
C718 H731 0.961 . S
C718 H732 0.961 . S
C719 C716 1.539 . S
C719 H733 0.958 . S
C719 H734 0.961 . S
C719 H735 0.960 . S
H720 C704 0.931 . S
H721 C709 0.929 . S
H722 C710 0.960 . S
H723 C710 0.962 . S
H724 C710 0.960 . S
H725 C711 0.961 . S
H726 C711 0.961 . S
H727 C711 0.961 . S
H728 C712 0.931 . S
H729 C717 0.930 . S
H730 C718 0.956 . S
H731 C718 0.961 . S
H732 C718 0.961 . S
H733 C719 0.958 . S
H734 C719 0.961 . S
H735 C719 0.960 . S
C736 C737 1.391 . S
C736 C738 1.394 . S
C736 H752 0.931 . S
C737 C736 1.391 . S
C737 C741 1.376 . S
C738 C736 1.394 . S
C738 C739 1.369 . S
C738 C742 1.531 . S
C739 C738 1.369 . S
C739 C740 1.410 . S
C739 C747 1.503 . S
C740 C739 1.410 . S
C740 C741 1.392 . S
C740 C743 1.511 . S
C741 C737 1.376 . S
C741 C740 1.392 . S
C741 H753 0.929 . S
C742 C738 1.531 . S
C742 H754 0.960 . S
C742 H755 0.962 . S
C742 H756 0.960 . S
C743 C740 1.511 . S
C743 H757 0.961 . S
C743 H758 0.961 . S
C743 H759 0.961 . S
C744 C745 1.370 . S
C744 C746 1.363 . S
C744 H760 0.931 . S
C745 C744 1.370 . S
C745 C749 1.408 . S
C746 C744 1.363 . S
C746 C747 1.370 . S
C746 C750 1.524 . S
C747 C739 1.503 . S
C747 C746 1.370 . S
C747 C748 1.403 . S
C748 C747 1.403 . S
C748 C749 1.404 . S
C748 C751 1.539 . S
C749 C745 1.408 . S
C749 C748 1.404 . S
C749 H761 0.930 . S
C750 C746 1.524 . S
C750 H762 0.956 . S
C750 H763 0.961 . S
C750 H764 0.961 . S
C751 C748 1.539 . S
C751 H765 0.958 . S
C751 H766 0.961 . S
C751 H767 0.960 . S
H752 C736 0.931 . S
H753 C741 0.929 . S
H754 C742 0.960 . S
H755 C742 0.962 . S
H756 C742 0.960 . S
H757 C743 0.961 . S
H758 C743 0.961 . S
H759 C743 0.961 . S
H760 C744 0.931 . S
H761 C749 0.930 . S
H762 C750 0.956 . S
H763 C750 0.961 . S
H764 C750 0.961 . S
H765 C751 0.958 . S
H766 C751 0.961 . S
H767 C751 0.960 . S
C768 C769 1.391 . S
C768 C770 1.394 . S
C768 H784 0.931 . S
C769 C768 1.391 . S
C769 C773 1.376 . S
C770 C768 1.394 . S
C770 C771 1.369 . S
C770 C774 1.531 . S
C771 C770 1.369 . S
C771 C772 1.410 . S
C771 C779 1.503 . S
C772 C771 1.410 . S
C772 C773 1.392 . S
C772 C775 1.511 . S
C773 C769 1.376 . S
C773 C772 1.392 . S
C773 H785 0.929 . S
C774 C770 1.531 . S
C774 H786 0.960 . S
C774 H787 0.962 . S
C774 H788 0.960 . S
C775 C772 1.511 . S
C775 H789 0.961 . S
C775 H790 0.961 . S
C775 H791 0.961 . S
C776 C777 1.370 . S
C776 C778 1.363 . S
C776 H792 0.931 . S
C777 C776 1.370 . S
C777 C781 1.408 . S
C778 C776 1.363 . S
C778 C779 1.370 . S
C778 C782 1.524 . S
C779 C771 1.503 . S
C779 C778 1.370 . S
C779 C780 1.403 . S
C780 C779 1.403 . S
C780 C781 1.404 . S
C780 C783 1.539 . S
C781 C777 1.408 . S
C781 C780 1.404 . S
C781 H793 0.930 . S
C782 C778 1.524 . S
C782 H794 0.956 . S
C782 H795 0.961 . S
C782 H796 0.961 . S
C783 C780 1.539 . S
C783 H797 0.958 . S
C783 H798 0.961 . S
C783 H799 0.960 . S
H784 C768 0.931 . S
H785 C773 0.929 . S
H786 C774 0.960 . S
H787 C774 0.962 . S
H788 C774 0.960 . S
H789 C775 0.961 . S
H790 C775 0.961 . S
H791 C775 0.961 . S
H792 C776 0.931 . S
H793 C781 0.930 . S
H794 C782 0.956 . S
H795 C782 0.961 . S
H796 C782 0.961 . S
H797 C783 0.958 . S
H798 C783 0.961 . S
H799 C783 0.960 . S
C800 C801 1.391 . S
C800 C802 1.394 . S
C800 H816 0.931 . S
C801 C800 1.391 . S
C801 C805 1.376 . S
C802 C800 1.394 . S
C802 C803 1.369 . S
C802 C806 1.531 . S
C803 C802 1.369 . S
C803 C804 1.410 . S
C803 C811 1.503 . S
C804 C803 1.410 . S
C804 C805 1.392 . S
C804 C807 1.511 . S
C805 C801 1.376 . S
C805 C804 1.392 . S
C805 H817 0.929 . S
C806 C802 1.531 . S
C806 H818 0.960 . S
C806 H819 0.962 . S
C806 H820 0.960 . S
C807 C804 1.511 . S
C807 H821 0.961 . S
C807 H822 0.961 . S
C807 H823 0.961 . S
C808 C809 1.370 . S
C808 C810 1.363 . S
C808 H824 0.931 . S
C809 C808 1.370 . S
C809 C813 1.408 . S
C810 C808 1.363 . S
C810 C811 1.370 . S
C810 C814 1.524 . S
C811 C803 1.503 . S
C811 C810 1.370 . S
C811 C812 1.403 . S
C812 C811 1.403 . S
C812 C813 1.404 . S
C812 C815 1.539 . S
C813 C809 1.408 . S
C813 C812 1.404 . S
C813 H825 0.930 . S
C814 C810 1.524 . S
C814 H826 0.956 . S
C814 H827 0.961 . S
C814 H828 0.961 . S
C815 C812 1.539 . S
C815 H829 0.958 . S
C815 H830 0.961 . S
C815 H831 0.960 . S
H816 C800 0.931 . S
H817 C805 0.929 . S
H818 C806 0.960 . S
H819 C806 0.962 . S
H820 C806 0.960 . S
H821 C807 0.961 . S
H822 C807 0.961 . S
H823 C807 0.961 . S
H824 C808 0.931 . S
H825 C813 0.930 . S
H826 C814 0.956 . S
H827 C814 0.961 . S
H828 C814 0.961 . S
H829 C815 0.958 . S
H830 C815 0.961 . S
H831 C815 0.960 . S
C832 C833 1.391 . S
C832 C834 1.394 . S
C832 H848 0.931 . S
C833 C832 1.391 . S
C833 C837 1.376 . S
C834 C832 1.394 . S
C834 C835 1.369 . S
C834 C838 1.531 . S
C835 C834 1.369 . S
C835 C836 1.410 . S
C835 C843 1.503 . S
C836 C835 1.410 . S
C836 C837 1.392 . S
C836 C839 1.511 . S
C837 C833 1.376 . S
C837 C836 1.392 . S
C837 H849 0.929 . S
C838 C834 1.531 . S
C838 H850 0.960 . S
C838 H851 0.962 . S
C838 H852 0.960 . S
C839 C836 1.511 . S
C839 H853 0.961 . S
C839 H854 0.961 . S
C839 H855 0.961 . S
C840 C841 1.370 . S
C840 C842 1.363 . S
C840 H856 0.931 . S
C841 C840 1.370 . S
C841 C845 1.408 . S
C842 C840 1.363 . S
C842 C843 1.370 . S
C842 C846 1.524 . S
C843 C835 1.503 . S
C843 C842 1.370 . S
C843 C844 1.403 . S
C844 C843 1.403 . S
C844 C845 1.404 . S
C844 C847 1.539 . S
C845 C841 1.408 . S
C845 C844 1.404 . S
C845 H857 0.930 . S
C846 C842 1.524 . S
C846 H858 0.956 . S
C846 H859 0.961 . S
C846 H860 0.961 . S
C847 C844 1.539 . S
C847 H861 0.958 . S
C847 H862 0.961 . S
C847 H863 0.960 . S
H848 C832 0.931 . S
H849 C837 0.929 . S
H850 C838 0.960 . S
H851 C838 0.962 . S
H852 C838 0.960 . S
H853 C839 0.961 . S
H854 C839 0.961 . S
H855 C839 0.961 . S
H856 C840 0.931 . S
H857 C845 0.930 . S
H858 C846 0.956 . S
H859 C846 0.961 . S
H860 C846 0.961 . S
H861 C847 0.958 . S
H862 C847 0.961 . S
H863 C847 0.960 . S
C864 C865 1.391 . S
C864 C866 1.394 1_554 S
C864 H880 0.931 . S
C865 C864 1.391 . S
C865 C869 1.376 . S
C866 C864 1.394 1_556 S
C866 C867 1.369 . S
C866 C870 1.531 . S
C867 C866 1.369 . S
C867 C868 1.410 1_556 S
C867 C875 1.503 . S
C868 C867 1.410 1_554 S
C868 C869 1.392 . S
C868 C871 1.511 . S
C869 C865 1.376 . S
C869 C868 1.392 . S
C869 H881 0.929 . S
C870 C866 1.531 . S
C870 H882 0.960 . S
C870 H883 0.962 . S
C870 H884 0.960 . S
C871 C868 1.511 . S
C871 H885 0.961 . S
C871 H886 0.961 1_554 S
C871 H887 0.961 . S
C872 C873 1.370 . S
C872 C874 1.363 . S
C872 H888 0.931 . S
C873 C872 1.370 . S
C873 C877 1.408 . S
C874 C872 1.363 . S
C874 C875 1.370 . S
C874 C878 1.524 . S
C875 C867 1.503 . S
C875 C874 1.370 . S
C875 C876 1.403 . S
C876 C875 1.403 . S
C876 C877 1.404 . S
C876 C879 1.539 . S
C877 C873 1.408 . S
C877 C876 1.404 . S
C877 H889 0.930 . S
C878 C874 1.524 . S
C878 H890 0.956 . S
C878 H891 0.961 . S
C878 H892 0.961 . S
C879 C876 1.539 . S
C879 H893 0.958 . S
C879 H894 0.961 . S
C879 H895 0.960 . S
H880 C864 0.931 . S
H881 C869 0.929 . S
H882 C870 0.960 . S
H883 C870 0.962 . S
H884 C870 0.960 . S
H885 C871 0.961 . S
H886 C871 0.961 1_556 S
H887 C871 0.961 . S
H888 C872 0.931 . S
H889 C877 0.930 . S
H890 C878 0.956 . S
H891 C878 0.961 . S
H892 C878 0.961 . S
H893 C879 0.958 . S
H894 C879 0.961 . S
H895 C879 0.960 . S
C896 C897 1.391 . S
C896 C898 1.394 . S
C896 H912 0.931 . S
C897 C896 1.391 . S
C897 C901 1.376 . S
C898 C896 1.394 . S
C898 C899 1.369 . S
C898 C902 1.531 . S
C899 C898 1.369 . S
C899 C900 1.410 . S
C899 C907 1.503 . S
C900 C899 1.410 . S
C900 C901 1.392 . S
C900 C903 1.511 . S
C901 C897 1.376 . S
C901 C900 1.392 . S
C901 H913 0.929 . S
C902 C898 1.531 . S
C902 H914 0.960 . S
C902 H915 0.962 . S
C902 H916 0.960 . S
C903 C900 1.511 . S
C903 H917 0.961 . S
C903 H918 0.961 . S
C903 H919 0.961 . S
C904 C905 1.370 . S
C904 C906 1.363 . S
C904 H920 0.931 . S
C905 C904 1.370 . S
C905 C909 1.408 . S
C906 C904 1.363 . S
C906 C907 1.370 . S
C906 C910 1.524 . S
C907 C899 1.503 . S
C907 C906 1.370 . S
C907 C908 1.403 . S
C908 C907 1.403 . S
C908 C909 1.404 . S
C908 C911 1.539 . S
C909 C905 1.408 . S
C909 C908 1.404 . S
C909 H921 0.930 . S
C910 C906 1.524 . S
C910 H922 0.956 . S
C910 H923 0.961 . S
C910 H924 0.961 . S
C911 C908 1.539 . S
C911 H925 0.958 . S
C911 H926 0.961 . S
C911 H927 0.960 . S
H912 C896 0.931 . S
H913 C901 0.929 . S
H914 C902 0.960 . S
H915 C902 0.962 . S
H916 C902 0.960 . S
H917 C903 0.961 . S
H918 C903 0.961 . S
H919 C903 0.961 . S
H920 C904 0.931 . S
H921 C909 0.930 . S
H922 C910 0.956 . S
H923 C910 0.961 . S
H924 C910 0.961 . S
H925 C911 0.958 . S
H926 C911 0.961 . S
H927 C911 0.960 . S
C928 C929 1.391 . S
C928 C930 1.394 1_554 S
C928 H944 0.931 . S
C929 C928 1.391 . S
C929 C933 1.376 . S
C930 C928 1.394 1_556 S
C930 C931 1.369 . S
C930 C934 1.531 . S
C931 C930 1.369 . S
C931 C932 1.410 1_556 S
C931 C939 1.503 . S
C932 C931 1.410 1_554 S
C932 C933 1.392 . S
C932 C935 1.511 1_554 S
C933 C929 1.376 . S
C933 C932 1.392 . S
C933 H945 0.929 . S
C934 C930 1.531 . S
C934 H946 0.960 . S
C934 H947 0.962 . S
C934 H948 0.960 . S
C935 C932 1.511 1_556 S
C935 H949 0.961 1_556 S
C935 H950 0.961 . S
C935 H951 0.961 . S
C936 C937 1.370 . S
C936 C938 1.363 . S
C936 H952 0.931 . S
C937 C936 1.370 . S
C937 C941 1.408 . S
C938 C936 1.363 . S
C938 C939 1.370 . S
C938 C942 1.524 . S
C939 C931 1.503 . S
C939 C938 1.370 . S
C939 C940 1.403 . S
C940 C939 1.403 . S
C940 C941 1.404 . S
C940 C943 1.539 . S
C941 C937 1.408 . S
C941 C940 1.404 . S
C941 H953 0.930 . S
C942 C938 1.524 . S
C942 H954 0.956 . S
C942 H955 0.961 . S
C942 H956 0.961 . S
C943 C940 1.539 . S
C943 H957 0.958 . S
C943 H958 0.961 . S
C943 H959 0.960 . S
H944 C928 0.931 . S
H945 C933 0.929 . S
H946 C934 0.960 . S
H947 C934 0.962 . S
H948 C934 0.960 . S
H949 C935 0.961 1_554 S
H950 C935 0.961 . S
H951 C935 0.961 . S
H952 C936 0.931 . S
H953 C941 0.930 . S
H954 C942 0.956 . S
H955 C942 0.961 . S
H956 C942 0.961 . S
H957 C943 0.958 . S
H958 C943 0.961 . S
H959 C943 0.960 . S
C960 C961 1.391 . S
C960 C962 1.394 . S
C960 H976 0.931 . S
C961 C960 1.391 . S
C961 C965 1.376 . S
C962 C960 1.394 . S
C962 C963 1.369 . S
C962 C966 1.531 . S
C963 C962 1.369 . S
C963 C964 1.410 . S
C963 C971 1.503 . S
C964 C963 1.410 . S
C964 C965 1.392 . S
C964 C967 1.511 . S
C965 C961 1.376 . S
C965 C964 1.392 . S
C965 H977 0.929 . S
C966 C962 1.531 . S
C966 H978 0.960 . S
C966 H979 0.962 . S
C966 H980 0.960 . S
C967 C964 1.511 . S
C967 H981 0.961 . S
C967 H982 0.961 . S
C967 H983 0.961 . S
C968 C969 1.370 . S
C968 C970 1.363 . S
C968 H984 0.931 . S
C969 C968 1.370 . S
C969 C973 1.408 . S
C970 C968 1.363 . S
C970 C971 1.370 . S
C970 C974 1.524 . S
C971 C963 1.503 . S
C971 C970 1.370 . S
C971 C972 1.403 . S
C972 C971 1.403 . S
C972 C973 1.404 . S
C972 C975 1.539 . S
C973 C969 1.408 . S
C973 C972 1.404 . S
C973 H985 0.930 . S
C974 C970 1.524 . S
C974 H986 0.956 . S
C974 H987 0.961 . S
C974 H988 0.961 . S
C975 C972 1.539 . S
C975 H989 0.958 . S
C975 H990 0.961 . S
C975 H991 0.960 . S
H976 C960 0.931 . S
H977 C965 0.929 . S
H978 C966 0.960 . S
H979 C966 0.962 . S
H980 C966 0.960 . S
H981 C967 0.961 . S
H982 C967 0.961 . S
H983 C967 0.961 . S
H984 C968 0.931 . S
H985 C973 0.930 . S
H986 C974 0.956 . S
H987 C974 0.961 . S
H988 C974 0.961 . S
H989 C975 0.958 . S
H990 C975 0.961 . S
H991 C975 0.960 . S
C992 C993 1.391 . S
C992 C994 1.394 1_556 S
C992 H1008 0.931 . S
C993 C992 1.391 . S
C993 C997 1.376 . S
C994 C992 1.394 1_554 S
C994 C995 1.369 . S
C994 C998 1.531 . S
C995 C994 1.369 . S
C995 C996 1.410 1_554 S
C995 C1003 1.503 . S
C996 C995 1.410 1_556 S
C996 C997 1.392 . S
C996 C999 1.511 . S
C997 C993 1.376 . S
C997 C996 1.392 . S
C997 H1009 0.929 . S
C998 C994 1.531 . S
C998 H1010 0.960 . S
C998 H1011 0.962 . S
C998 H1012 0.960 . S
C999 C996 1.511 . S
C999 H1013 0.961 . S
C999 H1014 0.961 1_556 S
C999 H1015 0.961 . S
C1000 C1001 1.370 . S
C1000 C1002 1.363 . S
C1000 H1016 0.931 . S
C1001 C1000 1.370 . S
C1001 C1005 1.408 . S
C1002 C1000 1.363 . S
C1002 C1003 1.370 . S
C1002 C1006 1.524 . S
C1003 C995 1.503 . S
C1003 C1002 1.370 . S
C1003 C1004 1.403 . S
C1004 C1003 1.403 . S
C1004 C1005 1.404 . S
C1004 C1007 1.539 . S
C1005 C1001 1.408 . S
C1005 C1004 1.404 . S
C1005 H1017 0.930 . S
C1006 C1002 1.524 . S
C1006 H1018 0.956 . S
C1006 H1019 0.961 . S
C1006 H1020 0.961 . S
C1007 C1004 1.539 . S
C1007 H1021 0.958 . S
C1007 H1022 0.961 . S
C1007 H1023 0.960 . S
H1008 C992 0.931 . S
H1009 C997 0.929 . S
H1010 C998 0.960 . S
H1011 C998 0.962 . S
H1012 C998 0.960 . S
H1013 C999 0.961 . S
H1014 C999 0.961 1_554 S
H1015 C999 0.961 . S
H1016 C1000 0.931 . S
H1017 C1005 0.930 . S
H1018 C1006 0.956 . S
H1019 C1006 0.961 . S
H1020 C1006 0.961 . S
H1021 C1007 0.958 . S
H1022 C1007 0.961 . S
H1023 C1007 0.960 . S
C1024 C1025 1.391 . S
C1024 C1026 1.394 . S
C1024 H1040 0.931 . S
C1025 C1024 1.391 . S
C1025 C1029 1.376 . S
C1026 C1024 1.394 . S
C1026 C1027 1.369 . S
C1026 C1030 1.531 . S
C1027 C1026 1.369 . S
C1027 C1028 1.410 . S
C1027 C1035 1.503 . S
C1028 C1027 1.410 . S
C1028 C1029 1.392 . S
C1028 C1031 1.511 . S
C1029 C1025 1.376 . S
C1029 C1028 1.392 . S
C1029 H1041 0.929 . S
C1030 C1026 1.531 . S
C1030 H1042 0.960 . S
C1030 H1043 0.962 . S
C1030 H1044 0.960 . S
C1031 C1028 1.511 . S
C1031 H1045 0.961 . S
C1031 H1046 0.961 . S
C1031 H1047 0.961 . S
C1032 C1033 1.370 . S
C1032 C1034 1.363 . S
C1032 H1048 0.931 . S
C1033 C1032 1.370 . S
C1033 C1037 1.408 . S
C1034 C1032 1.363 . S
C1034 C1035 1.370 . S
C1034 C1038 1.524 . S
C1035 C1027 1.503 . S
C1035 C1034 1.370 . S
C1035 C1036 1.403 . S
C1036 C1035 1.403 . S
C1036 C1037 1.404 . S
C1036 C1039 1.539 . S
C1037 C1033 1.408 . S
C1037 C1036 1.404 . S
C1037 H1049 0.930 . S
C1038 C1034 1.524 . S
C1038 H1050 0.956 . S
C1038 H1051 0.961 . S
C1038 H1052 0.961 . S
C1039 C1036 1.539 . S
C1039 H1053 0.958 . S
C1039 H1054 0.961 . S
C1039 H1055 0.960 . S
H1040 C1024 0.931 . S
H1041 C1029 0.929 . S
H1042 C1030 0.960 . S
H1043 C1030 0.962 . S
H1044 C1030 0.960 . S
H1045 C1031 0.961 . S
H1046 C1031 0.961 . S
H1047 C1031 0.961 . S
H1048 C1032 0.931 . S
H1049 C1037 0.930 . S
H1050 C1038 0.956 . S
H1051 C1038 0.961 . S
H1052 C1038 0.961 . S
H1053 C1039 0.958 . S
H1054 C1039 0.961 . S
H1055 C1039 0.960 . S
C1056 C1057 1.391 . S
C1056 C1058 1.394 . S
C1056 H1072 0.931 . S
C1057 C1056 1.391 . S
C1057 C1061 1.376 . S
C1058 C1056 1.394 . S
C1058 C1059 1.369 1_556 S
C1058 C1062 1.531 . S
C1059 C1058 1.369 1_554 S
C1059 C1060 1.410 . S
C1059 C1067 1.503 . S
C1060 C1059 1.410 . S
C1060 C1061 1.392 1_554 S
C1060 C1063 1.511 . S
C1061 C1057 1.376 . S
C1061 C1060 1.392 1_556 S
C1061 H1073 0.929 . S
C1062 C1058 1.531 . S
C1062 H1074 0.960 1_556 S
C1062 H1075 0.962 . S
C1062 H1076 0.960 . S
C1063 C1060 1.511 . S
C1063 H1077 0.961 . S
C1063 H1078 0.961 . S
C1063 H1079 0.961 . S
C1064 C1065 1.370 . S
C1064 C1066 1.363 . S
C1064 H1080 0.931 . S
C1065 C1064 1.370 . S
C1065 C1069 1.408 . S
C1066 C1064 1.363 . S
C1066 C1067 1.370 . S
C1066 C1070 1.524 . S
C1067 C1059 1.503 . S
C1067 C1066 1.370 . S
C1067 C1068 1.403 . S
C1068 C1067 1.403 . S
C1068 C1069 1.404 . S
C1068 C1071 1.539 . S
C1069 C1065 1.408 . S
C1069 C1068 1.404 . S
C1069 H1081 0.930 . S
C1070 C1066 1.524 . S
C1070 H1082 0.956 . S
C1070 H1083 0.961 . S
C1070 H1084 0.961 . S
C1071 C1068 1.539 . S
C1071 H1085 0.958 . S
C1071 H1086 0.961 . S
C1071 H1087 0.960 . S
H1072 C1056 0.931 . S
H1073 C1061 0.929 . S
H1074 C1062 0.960 1_554 S
H1075 C1062 0.962 . S
H1076 C1062 0.960 . S
H1077 C1063 0.961 . S
H1078 C1063 0.961 . S
H1079 C1063 0.961 . S
H1080 C1064 0.931 . S
H1081 C1069 0.930 . S
H1082 C1070 0.956 . S
H1083 C1070 0.961 . S
H1084 C1070 0.961 . S
H1085 C1071 0.958 . S
H1086 C1071 0.961 . S
H1087 C1071 0.960 . S
C1088 C1089 1.391 . S
C1088 C1090 1.394 . S
C1088 H1104 0.931 . S
C1089 C1088 1.391 . S
C1089 C1093 1.376 . S
C1090 C1088 1.394 . S
C1090 C1091 1.369 . S
C1090 C1094 1.531 . S
C1091 C1090 1.369 . S
C1091 C1092 1.410 . S
C1091 C1099 1.503 . S
C1092 C1091 1.410 . S
C1092 C1093 1.392 . S
C1092 C1095 1.511 . S
C1093 C1089 1.376 . S
C1093 C1092 1.392 . S
C1093 H1105 0.929 . S
C1094 C1090 1.531 . S
C1094 H1106 0.960 . S
C1094 H1107 0.962 . S
C1094 H1108 0.960 . S
C1095 C1092 1.511 . S
C1095 H1109 0.961 . S
C1095 H1110 0.961 . S
C1095 H1111 0.961 . S
C1096 C1097 1.370 . S
C1096 C1098 1.363 . S
C1096 H1112 0.931 . S
C1097 C1096 1.370 . S
C1097 C1101 1.408 . S
C1098 C1096 1.363 . S
C1098 C1099 1.370 . S
C1098 C1102 1.524 . S
C1099 C1091 1.503 . S
C1099 C1098 1.370 . S
C1099 C1100 1.403 . S
C1100 C1099 1.403 . S
C1100 C1101 1.404 . S
C1100 C1103 1.539 . S
C1101 C1097 1.408 . S
C1101 C1100 1.404 . S
C1101 H1113 0.930 . S
C1102 C1098 1.524 . S
C1102 H1114 0.956 . S
C1102 H1115 0.961 . S
C1102 H1116 0.961 . S
C1103 C1100 1.539 . S
C1103 H1117 0.958 . S
C1103 H1118 0.961 . S
C1103 H1119 0.960 . S
H1104 C1088 0.931 . S
H1105 C1093 0.929 . S
H1106 C1094 0.960 . S
H1107 C1094 0.962 . S
H1108 C1094 0.960 . S
H1109 C1095 0.961 . S
H1110 C1095 0.961 . S
H1111 C1095 0.961 . S
H1112 C1096 0.931 . S
H1113 C1101 0.930 . S
H1114 C1102 0.956 . S
H1115 C1102 0.961 . S
H1116 C1102 0.961 . S
H1117 C1103 0.958 . S
H1118 C1103 0.961 . S
H1119 C1103 0.960 . S
C1120 C1121 1.391 . S
C1120 C1122 1.394 1_556 S
C1120 H1136 0.931 . S
C1121 C1120 1.391 . S
C1121 C1125 1.376 . S
C1122 C1120 1.394 1_554 S
C1122 C1123 1.369 . S
C1122 C1126 1.531 . S
C1123 C1122 1.369 . S
C1123 C1124 1.410 1_554 S
C1123 C1131 1.503 . S
C1124 C1123 1.410 1_556 S
C1124 C1125 1.392 . S
C1124 C1127 1.511 . S
C1125 C1121 1.376 . S
C1125 C1124 1.392 . S
C1125 H1137 0.929 . S
C1126 C1122 1.531 . S
C1126 H1138 0.960 . S
C1126 H1139 0.962 . S
C1126 H1140 0.960 . S
C1127 C1124 1.511 . S
C1127 H1141 0.961 . S
C1127 H1142 0.961 1_556 S
C1127 H1143 0.961 . S
C1128 C1129 1.370 . S
C1128 C1130 1.363 . S
C1128 H1144 0.931 . S
C1129 C1128 1.370 . S
C1129 C1133 1.408 . S
C1130 C1128 1.363 . S
C1130 C1131 1.370 . S
C1130 C1134 1.524 . S
C1131 C1123 1.503 . S
C1131 C1130 1.370 . S
C1131 C1132 1.403 . S
C1132 C1131 1.403 . S
C1132 C1133 1.404 . S
C1132 C1135 1.539 . S
C1133 C1129 1.408 . S
C1133 C1132 1.404 . S
C1133 H1145 0.930 . S
C1134 C1130 1.524 . S
C1134 H1146 0.956 . S
C1134 H1147 0.961 . S
C1134 H1148 0.961 . S
C1135 C1132 1.539 . S
C1135 H1149 0.958 . S
C1135 H1150 0.961 . S
C1135 H1151 0.960 1_554 S
H1136 C1120 0.931 . S
H1137 C1125 0.929 . S
H1138 C1126 0.960 . S
H1139 C1126 0.962 . S
H1140 C1126 0.960 . S
H1141 C1127 0.961 . S
H1142 C1127 0.961 1_554 S
H1143 C1127 0.961 . S
H1144 C1128 0.931 . S
H1145 C1133 0.930 . S
H1146 C1134 0.956 . S
H1147 C1134 0.961 . S
H1148 C1134 0.961 . S
H1149 C1135 0.958 . S
H1150 C1135 0.961 . S
H1151 C1135 0.960 1_556 S
C1152 C1153 1.391 . S
C1152 C1154 1.394 . S
C1152 H1168 0.931 . S
C1153 C1152 1.391 . S
C1153 C1157 1.376 . S
C1154 C1152 1.394 . S
C1154 C1155 1.369 . S
C1154 C1158 1.531 . S
C1155 C1154 1.369 . S
C1155 C1156 1.410 . S
C1155 C1163 1.503 . S
C1156 C1155 1.410 . S
C1156 C1157 1.392 . S
C1156 C1159 1.511 . S
C1157 C1153 1.376 . S
C1157 C1156 1.392 . S
C1157 H1169 0.929 . S
C1158 C1154 1.531 . S
C1158 H1170 0.960 . S
C1158 H1171 0.962 . S
C1158 H1172 0.960 . S
C1159 C1156 1.511 . S
C1159 H1173 0.961 . S
C1159 H1174 0.961 . S
C1159 H1175 0.961 . S
C1160 C1161 1.370 . S
C1160 C1162 1.363 . S
C1160 H1176 0.931 . S
C1161 C1160 1.370 . S
C1161 C1165 1.408 . S
C1162 C1160 1.363 . S
C1162 C1163 1.370 . S
C1162 C1166 1.524 . S
C1163 C1155 1.503 . S
C1163 C1162 1.370 . S
C1163 C1164 1.403 . S
C1164 C1163 1.403 . S
C1164 C1165 1.404 . S
C1164 C1167 1.539 . S
C1165 C1161 1.408 . S
C1165 C1164 1.404 . S
C1165 H1177 0.930 . S
C1166 C1162 1.524 . S
C1166 H1178 0.956 . S
C1166 H1179 0.961 . S
C1166 H1180 0.961 . S
C1167 C1164 1.539 . S
C1167 H1181 0.958 . S
C1167 H1182 0.961 . S
C1167 H1183 0.960 . S
H1168 C1152 0.931 . S
H1169 C1157 0.929 . S
H1170 C1158 0.960 . S
H1171 C1158 0.962 . S
H1172 C1158 0.960 . S
H1173 C1159 0.961 . S
H1174 C1159 0.961 . S
H1175 C1159 0.961 . S
H1176 C1160 0.931 . S
H1177 C1165 0.930 . S
H1178 C1166 0.956 . S
H1179 C1166 0.961 . S
H1180 C1166 0.961 . S
H1181 C1167 0.958 . S
H1182 C1167 0.961 . S
H1183 C1167 0.960 . S
C1184 C1185 1.391 . S
C1184 C1186 1.394 1_556 S
C1184 H1200 0.931 . S
C1185 C1184 1.391 . S
C1185 C1189 1.376 . S
C1186 C1184 1.394 1_554 S
C1186 C1187 1.369 . S
C1186 C1190 1.531 . S
C1187 C1186 1.369 . S
C1187 C1188 1.410 1_554 S
C1187 C1195 1.503 . S
C1188 C1187 1.410 1_556 S
C1188 C1189 1.392 . S
C1188 C1191 1.511 . S
C1189 C1185 1.376 . S
C1189 C1188 1.392 . S
C1189 H1201 0.929 . S
C1190 C1186 1.531 . S
C1190 H1202 0.960 . S
C1190 H1203 0.962 . S
C1190 H1204 0.960 . S
C1191 C1188 1.511 . S
C1191 H1205 0.961 . S
C1191 H1206 0.961 1_556 S
C1191 H1207 0.961 . S
C1192 C1193 1.370 . S
C1192 C1194 1.363 . S
C1192 H1208 0.931 . S
C1193 C1192 1.370 . S
C1193 C1197 1.408 . S
C1194 C1192 1.363 . S
C1194 C1195 1.370 . S
C1194 C1198 1.524 . S
C1195 C1187 1.503 . S
C1195 C1194 1.370 . S
C1195 C1196 1.403 . S
C1196 C1195 1.403 . S
C1196 C1197 1.404 . S
C1196 C1199 1.539 . S
C1197 C1193 1.408 . S
C1197 C1196 1.404 . S
C1197 H1209 0.930 . S
C1198 C1194 1.524 . S
C1198 H1210 0.956 . S
C1198 H1211 0.961 . S
C1198 H1212 0.961 . S
C1199 C1196 1.539 . S
C1199 H1213 0.958 . S
C1199 H1214 0.961 . S
C1199 H1215 0.960 . S
H1200 C1184 0.931 . S
H1201 C1189 0.929 . S
H1202 C1190 0.960 . S
H1203 C1190 0.962 . S
H1204 C1190 0.960 . S
H1205 C1191 0.961 . S
H1206 C1191 0.961 1_554 S
H1207 C1191 0.961 . S
H1208 C1192 0.931 . S
H1209 C1197 0.930 . S
H1210 C1198 0.956 . S
H1211 C1198 0.961 . S
H1212 C1198 0.961 . S
H1213 C1199 0.958 . S
H1214 C1199 0.961 . S
H1215 C1199 0.960 . S
C1216 C1217 1.391 . S
C1216 C1218 1.394 . S
C1216 H1232 0.931 . S
C1217 C1216 1.391 . S
C1217 C1221 1.376 . S
C1218 C1216 1.394 . S
C1218 C1219 1.369 . S
C1218 C1222 1.531 . S
C1219 C1218 1.369 . S
C1219 C1220 1.410 . S
C1219 C1227 1.503 . S
C1220 C1219 1.410 . S
C1220 C1221 1.392 . S
C1220 C1223 1.511 . S
C1221 C1217 1.376 . S
C1221 C1220 1.392 . S
C1221 H1233 0.929 . S
C1222 C1218 1.531 . S
C1222 H1234 0.960 . S
C1222 H1235 0.962 . S
C1222 H1236 0.960 . S
C1223 C1220 1.511 . S
C1223 H1237 0.961 . S
C1223 H1238 0.961 . S
C1223 H1239 0.961 . S
C1224 C1225 1.370 . S
C1224 C1226 1.363 . S
C1224 H1240 0.931 . S
C1225 C1224 1.370 . S
C1225 C1229 1.408 . S
C1226 C1224 1.363 . S
C1226 C1227 1.370 . S
C1226 C1230 1.524 . S
C1227 C1219 1.503 . S
C1227 C1226 1.370 . S
C1227 C1228 1.403 . S
C1228 C1227 1.403 . S
C1228 C1229 1.404 . S
C1228 C1231 1.539 . S
C1229 C1225 1.408 . S
C1229 C1228 1.404 . S
C1229 H1241 0.930 . S
C1230 C1226 1.524 . S
C1230 H1242 0.956 . S
C1230 H1243 0.961 . S
C1230 H1244 0.961 . S
C1231 C1228 1.539 . S
C1231 H1245 0.958 . S
C1231 H1246 0.961 . S
C1231 H1247 0.960 . S
H1232 C1216 0.931 . S
H1233 C1221 0.929 . S
H1234 C1222 0.960 . S
H1235 C1222 0.962 . S
H1236 C1222 0.960 . S
H1237 C1223 0.961 . S
H1238 C1223 0.961 . S
H1239 C1223 0.961 . S
H1240 C1224 0.931 . S
H1241 C1229 0.930 . S
H1242 C1230 0.956 . S
H1243 C1230 0.961 . S
H1244 C1230 0.961 . S
H1245 C1231 0.958 . S
H1246 C1231 0.961 . S
H1247 C1231 0.960 . S
C1248 C1249 1.391 . S
C1248 C1250 1.394 . S
C1248 H1264 0.931 . S
C1249 C1248 1.391 . S
C1249 C1253 1.376 . S
C1250 C1248 1.394 . S
C1250 C1251 1.369 . S
C1250 C1254 1.531 . S
C1251 C1250 1.369 . S
C1251 C1252 1.410 . S
C1251 C1259 1.503 . S
C1252 C1251 1.410 . S
C1252 C1253 1.392 . S
C1252 C1255 1.511 . S
C1253 C1249 1.376 . S
C1253 C1252 1.392 . S
C1253 H1265 0.929 . S
C1254 C1250 1.531 . S
C1254 H1266 0.973 . S
C1254 H1267 0.962 . S
C1254 H1268 0.960 . S
C1255 C1252 1.511 . S
C1255 H1269 0.961 . S
C1255 H1270 0.961 . S
C1255 H1271 0.961 . S
C1256 C1257 1.370 . S
C1256 C1258 1.363 1_554 S
C1256 H1272 0.931 . S
C1257 C1256 1.370 . S
C1257 C1261 1.408 . S
C1258 C1256 1.363 1_556 S
C1258 C1259 1.370 . S
C1258 C1262 1.524 . S
C1259 C1251 1.503 . S
C1259 C1258 1.370 . S
C1259 C1260 1.403 1_556 S
C1260 C1259 1.403 1_554 S
C1260 C1261 1.404 . S
C1260 C1263 1.539 . S
C1261 C1257 1.408 . S
C1261 C1260 1.404 . S
C1261 H1273 0.930 . S
C1262 C1258 1.524 . S
C1262 H1274 0.956 . S
C1262 H1275 0.961 . S
C1262 H1276 0.961 . S
C1263 C1260 1.539 . S
C1263 H1277 0.958 . S
C1263 H1278 0.961 . S
C1263 H1279 0.960 1_554 S
H1264 C1248 0.931 . S
H1265 C1253 0.929 . S
H1266 C1254 0.973 . S
H1267 C1254 0.962 . S
H1268 C1254 0.960 . S
H1269 C1255 0.961 . S
H1270 C1255 0.961 . S
H1271 C1255 0.961 . S
H1272 C1256 0.931 . S
H1273 C1261 0.930 . S
H1274 C1262 0.956 . S
H1275 C1262 0.961 . S
H1276 C1262 0.961 . S
H1277 C1263 0.958 . S
H1278 C1263 0.961 . S
H1279 C1263 0.960 1_556 S
C1280 C1281 1.391 . S
C1280 C1282 1.394 . S
C1280 H1296 0.931 . S
C1281 C1280 1.391 . S
C1281 C1285 1.376 . S
C1282 C1280 1.394 . S
C1282 C1283 1.369 . S
C1282 C1286 1.531 . S
C1283 C1282 1.369 . S
C1283 C1284 1.410 . S
C1283 C1291 1.503 . S
C1284 C1283 1.410 . S
C1284 C1285 1.392 . S
C1284 C1287 1.511 . S
C1285 C1281 1.376 . S
C1285 C1284 1.392 . S
C1285 H1297 0.929 . S
C1286 C1282 1.531 . S
C1286 H1298 0.960 . S
C1286 H1299 0.962 . S
C1286 H1300 0.960 . S
C1287 C1284 1.511 . S
C1287 H1301 0.961 . S
C1287 H1302 0.961 . S
C1287 H1303 0.961 . S
C1288 C1289 1.370 . S
C1288 C1290 1.363 . S
C1288 H1304 0.931 . S
C1289 C1288 1.370 . S
C1289 C1293 1.408 . S
C1290 C1288 1.363 . S
C1290 C1291 1.370 . S
C1290 C1294 1.524 . S
C1291 C1283 1.503 . S
C1291 C1290 1.370 . S
C1291 C1292 1.403 . S
C1292 C1291 1.403 . S
C1292 C1293 1.404 . S
C1292 C1295 1.539 . S
C1293 C1289 1.408 . S
C1293 C1292 1.404 . S
C1293 H1305 0.930 . S
C1294 C1290 1.524 . S
C1294 H1306 0.956 . S
C1294 H1307 0.961 . S
C1294 H1308 0.961 . S
C1295 C1292 1.539 . S
C1295 H1309 0.958 . S
C1295 H1310 0.961 . S
C1295 H1311 0.960 . S
H1296 C1280 0.931 . S
H1297 C1285 0.929 . S
H1298 C1286 0.960 . S
H1299 C1286 0.962 . S
H1300 C1286 0.960 . S
H1301 C1287 0.961 . S
H1302 C1287 0.961 . S
H1303 C1287 0.961 . S
H1304 C1288 0.931 . S
H1305 C1293 0.930 . S
H1306 C1294 0.956 . S
H1307 C1294 0.961 . S
H1308 C1294 0.961 . S
H1309 C1295 0.958 . S
H1310 C1295 0.961 . S
H1311 C1295 0.960 . S
C1312 C1313 1.391 . S
C1312 C1314 1.394 . S
C1312 H1328 0.931 . S
C1313 C1312 1.391 . S
C1313 C1317 1.376 . S
C1314 C1312 1.394 . S
C1314 C1315 1.369 . S
C1314 C1318 1.531 . S
C1315 C1314 1.369 . S
C1315 C1316 1.410 . S
C1315 C1323 1.503 . S
C1316 C1315 1.410 . S
C1316 C1317 1.392 . S
C1316 C1319 1.511 . S
C1317 C1313 1.376 . S
C1317 C1316 1.392 . S
C1317 H1329 0.929 . S
C1318 C1314 1.531 . S
C1318 H1330 0.960 . S
C1318 H1331 0.962 . S
C1318 H1332 0.960 . S
C1319 C1316 1.511 . S
C1319 H1333 0.961 . S
C1319 H1334 0.961 . S
C1319 H1335 0.961 . S
C1320 C1321 1.370 . S
C1320 C1322 1.363 1_554 S
C1320 H1336 0.931 . S
C1321 C1320 1.370 . S
C1321 C1325 1.408 . S
C1322 C1320 1.363 1_556 S
C1322 C1323 1.370 . S
C1322 C1326 1.524 . S
C1323 C1315 1.503 . S
C1323 C1322 1.370 . S
C1323 C1324 1.403 1_556 S
C1324 C1323 1.403 1_554 S
C1324 C1325 1.404 . S
C1324 C1327 1.539 . S
C1325 C1321 1.408 . S
C1325 C1324 1.404 . S
C1325 H1337 0.930 . S
C1326 C1322 1.524 . S
C1326 H1338 0.956 . S
C1326 H1339 0.961 . S
C1326 H1340 0.961 . S
C1327 C1324 1.539 . S
C1327 H1341 0.958 . S
C1327 H1342 0.961 . S
C1327 H1343 0.960 1_554 S
H1328 C1312 0.931 . S
H1329 C1317 0.929 . S
H1330 C1318 0.960 . S
H1331 C1318 0.962 . S
H1332 C1318 0.960 . S
H1333 C1319 0.961 . S
H1334 C1319 0.961 . S
H1335 C1319 0.961 . S
H1336 C1320 0.931 . S
H1337 C1325 0.930 . S
H1338 C1326 0.956 . S
H1339 C1326 0.961 . S
H1340 C1326 0.961 . S
H1341 C1327 0.958 . S
H1342 C1327 0.961 . S
H1343 C1327 0.960 1_556 S
C1344 C1345 1.391 . S
C1344 C1346 1.394 . S
C1344 H1360 0.931 . S
C1345 C1344 1.391 . S
C1345 C1349 1.376 . S
C1346 C1344 1.394 . S
C1346 C1347 1.369 . S
C1346 C1350 1.531 . S
C1347 C1346 1.369 . S
C1347 C1348 1.410 . S
C1347 C1355 1.503 . S
C1348 C1347 1.410 . S
C1348 C1349 1.392 . S
C1348 C1351 1.511 . S
C1349 C1345 1.376 . S
C1349 C1348 1.392 . S
C1349 H1361 0.929 . S
C1350 C1346 1.531 . S
C1350 H1362 0.960 . S
C1350 H1363 0.962 . S
C1350 H1364 0.960 . S
C1351 C1348 1.511 . S
C1351 H1365 0.961 . S
C1351 H1366 0.961 . S
C1351 H1367 0.961 . S
C1352 C1353 1.370 . S
C1352 C1354 1.363 . S
C1352 H1368 0.931 . S
C1353 C1352 1.370 . S
C1353 C1357 1.408 . S
C1354 C1352 1.363 . S
C1354 C1355 1.370 . S
C1354 C1358 1.524 . S
C1355 C1347 1.503 . S
C1355 C1354 1.370 . S
C1355 C1356 1.403 . S
C1356 C1355 1.403 . S
C1356 C1357 1.404 . S
C1356 C1359 1.539 . S
C1357 C1353 1.408 . S
C1357 C1356 1.404 . S
C1357 H1369 0.930 . S
C1358 C1354 1.524 . S
C1358 H1370 0.956 . S
C1358 H1371 0.961 . S
C1358 H1372 0.961 . S
C1359 C1356 1.539 . S
C1359 H1373 0.958 . S
C1359 H1374 0.961 . S
C1359 H1375 0.960 . S
H1360 C1344 0.931 . S
H1361 C1349 0.929 . S
H1362 C1350 0.960 . S
H1363 C1350 0.962 . S
H1364 C1350 0.960 . S
H1365 C1351 0.961 . S
H1366 C1351 0.961 . S
H1367 C1351 0.961 . S
H1368 C1352 0.931 . S
H1369 C1357 0.930 . S
H1370 C1358 0.956 . S
H1371 C1358 0.961 . S
H1372 C1358 0.961 . S
H1373 C1359 0.958 . S
H1374 C1359 0.961 . S
H1375 C1359 0.960 . S
C1376 C1377 1.391 . S
C1376 C1378 1.394 . S
C1376 H1392 0.931 . S
C1377 C1376 1.391 . S
C1377 C1381 1.376 . S
C1378 C1376 1.394 . S
C1378 C1379 1.369 . S
C1378 C1382 1.531 . S
C1379 C1378 1.369 . S
C1379 C1380 1.410 . S
C1379 C1387 1.503 . S
C1380 C1379 1.410 . S
C1380 C1381 1.392 . S
C1380 C1383 1.511 . S
C1381 C1377 1.376 . S
C1381 C1380 1.392 . S
C1381 H1393 0.929 . S
C1382 C1378 1.531 . S
C1382 H1394 0.960 . S
C1382 H1395 0.962 . S
C1382 H1396 0.960 . S
C1383 C1380 1.511 . S
C1383 H1397 0.961 . S
C1383 H1398 0.961 . S
C1383 H1399 0.961 . S
C1384 C1385 1.370 . S
C1384 C1386 1.363 . S
C1384 H1400 0.931 . S
C1385 C1384 1.370 . S
C1385 C1389 1.408 . S
C1386 C1384 1.363 . S
C1386 C1387 1.370 . S
C1386 C1390 1.524 . S
C1387 C1379 1.503 . S
C1387 C1386 1.370 . S
C1387 C1388 1.403 . S
C1388 C1387 1.403 . S
C1388 C1389 1.404 . S
C1388 C1391 1.539 . S
C1389 C1385 1.408 . S
C1389 C1388 1.404 . S
C1389 H1401 0.930 . S
C1390 C1386 1.524 . S
C1390 H1402 0.956 . S
C1390 H1403 0.961 . S
C1390 H1404 0.961 . S
C1391 C1388 1.539 . S
C1391 H1405 0.958 . S
C1391 H1406 0.961 . S
C1391 H1407 0.960 . S
H1392 C1376 0.931 . S
H1393 C1381 0.929 . S
H1394 C1382 0.960 . S
H1395 C1382 0.962 . S
H1396 C1382 0.960 . S
H1397 C1383 0.961 . S
H1398 C1383 0.961 . S
H1399 C1383 0.961 . S
H1400 C1384 0.931 . S
H1401 C1389 0.930 . S
H1402 C1390 0.956 . S
H1403 C1390 0.961 . S
H1404 C1390 0.961 . S
H1405 C1391 0.958 . S
H1406 C1391 0.961 . S
H1407 C1391 0.960 . S
C1408 C1409 1.391 . S
C1408 C1410 1.394 . S
C1408 H1424 0.931 . S
C1409 C1408 1.391 . S
C1409 C1413 1.376 . S
C1410 C1408 1.394 . S
C1410 C1411 1.369 . S
C1410 C1414 1.531 . S
C1411 C1410 1.369 . S
C1411 C1412 1.410 . S
C1411 C1419 1.503 . S
C1412 C1411 1.410 . S
C1412 C1413 1.392 . S
C1412 C1415 1.511 . S
C1413 C1409 1.376 . S
C1413 C1412 1.392 . S
C1413 H1425 0.929 . S
C1414 C1410 1.531 . S
C1414 H1426 0.960 . S
C1414 H1427 0.962 . S
C1414 H1428 0.960 . S
C1415 C1412 1.511 . S
C1415 H1429 0.961 . S
C1415 H1430 0.961 . S
C1415 H1431 0.961 . S
C1416 C1417 1.370 . S
C1416 C1418 1.363 . S
C1416 H1432 0.931 . S
C1417 C1416 1.370 . S
C1417 C1421 1.408 . S
C1418 C1416 1.363 . S
C1418 C1419 1.370 . S
C1418 C1422 1.524 . S
C1419 C1411 1.503 . S
C1419 C1418 1.370 . S
C1419 C1420 1.403 . S
C1420 C1419 1.403 . S
C1420 C1421 1.404 . S
C1420 C1423 1.539 . S
C1421 C1417 1.408 . S
C1421 C1420 1.404 . S
C1421 H1433 0.930 . S
C1422 C1418 1.524 . S
C1422 H1434 0.956 . S
C1422 H1435 0.961 . S
C1422 H1436 0.961 . S
C1423 C1420 1.539 . S
C1423 H1437 0.958 . S
C1423 H1438 0.961 . S
C1423 H1439 0.960 . S
H1424 C1408 0.931 . S
H1425 C1413 0.929 . S
H1426 C1414 0.960 . S
H1427 C1414 0.962 . S
H1428 C1414 0.960 . S
H1429 C1415 0.961 . S
H1430 C1415 0.961 . S
H1431 C1415 0.961 . S
H1432 C1416 0.931 . S
H1433 C1421 0.930 . S
H1434 C1422 0.956 . S
H1435 C1422 0.961 . S
H1436 C1422 0.961 . S
H1437 C1423 0.958 . S
H1438 C1423 0.961 . S
H1439 C1423 0.960 . S
C1440 C1441 1.391 . S
C1440 C1442 1.394 . S
C1440 H1456 0.931 . S
C1441 C1440 1.391 . S
C1441 C1445 1.376 . S
C1442 C1440 1.394 . S
C1442 C1443 1.369 . S
C1442 C1446 1.531 . S
C1443 C1442 1.369 . S
C1443 C1444 1.410 . S
C1443 C1451 1.503 . S
C1444 C1443 1.410 . S
C1444 C1445 1.392 . S
C1444 C1447 1.511 . S
C1445 C1441 1.376 . S
C1445 C1444 1.392 . S
C1445 H1457 0.929 . S
C1446 C1442 1.531 . S
C1446 H1458 0.960 . S
C1446 H1459 0.962 . S
C1446 H1460 0.960 . S
C1447 C1444 1.511 . S
C1447 H1461 0.961 . S
C1447 H1462 0.961 . S
C1447 H1463 0.961 . S
C1448 C1449 1.370 . S
C1448 C1450 1.363 . S
C1448 H1464 0.931 . S
C1449 C1448 1.370 . S
C1449 C1453 1.408 . S
C1450 C1448 1.363 . S
C1450 C1451 1.370 . S
C1450 C1454 1.524 . S
C1451 C1443 1.503 . S
C1451 C1450 1.370 . S
C1451 C1452 1.403 . S
C1452 C1451 1.403 . S
C1452 C1453 1.404 . S
C1452 C1455 1.539 . S
C1453 C1449 1.408 . S
C1453 C1452 1.404 . S
C1453 H1465 0.930 . S
C1454 C1450 1.524 . S
C1454 H1466 0.956 . S
C1454 H1467 0.961 . S
C1454 H1468 0.961 . S
C1455 C1452 1.539 . S
C1455 H1469 0.958 . S
C1455 H1470 0.961 . S
C1455 H1471 0.960 . S
H1456 C1440 0.931 . S
H1457 C1445 0.929 . S
H1458 C1446 0.960 . S
H1459 C1446 0.962 . S
H1460 C1446 0.960 . S
H1461 C1447 0.961 . S
H1462 C1447 0.961 . S
H1463 C1447 0.961 . S
H1464 C1448 0.931 . S
H1465 C1453 0.930 . S
H1466 C1454 0.956 . S
H1467 C1454 0.961 . S
H1468 C1454 0.961 . S
H1469 C1455 0.958 . S
H1470 C1455 0.961 . S
H1471 C1455 0.960 . S
C1472 C1473 1.391 . S
C1472 C1474 1.394 . S
C1472 H1488 0.931 . S
C1473 C1472 1.391 . S
C1473 C1477 1.376 . S
C1474 C1472 1.394 . S
C1474 C1475 1.369 . S
C1474 C1478 1.531 . S
C1475 C1474 1.369 . S
C1475 C1476 1.410 . S
C1475 C1483 1.503 . S
C1476 C1475 1.410 . S
C1476 C1477 1.392 . S
C1476 C1479 1.511 . S
C1477 C1473 1.376 . S
C1477 C1476 1.392 . S
C1477 H1489 0.929 . S
C1478 C1474 1.531 . S
C1478 H1490 0.960 . S
C1478 H1491 0.962 . S
C1478 H1492 0.960 . S
C1479 C1476 1.511 . S
C1479 H1493 0.961 . S
C1479 H1494 0.961 . S
C1479 H1495 0.961 . S
C1480 C1481 1.370 . S
C1480 C1482 1.363 . S
C1480 H1496 0.931 . S
C1481 C1480 1.370 . S
C1481 C1485 1.408 . S
C1482 C1480 1.363 . S
C1482 C1483 1.370 . S
C1482 C1486 1.524 . S
C1483 C1475 1.503 . S
C1483 C1482 1.370 . S
C1483 C1484 1.403 . S
C1484 C1483 1.403 . S
C1484 C1485 1.404 . S
C1484 C1487 1.539 . S
C1485 C1481 1.408 . S
C1485 C1484 1.404 . S
C1485 H1497 0.930 1_455 S
C1486 C1482 1.524 . S
C1486 H1498 0.956 . S
C1486 H1499 0.961 . S
C1486 H1500 0.961 . S
C1487 C1484 1.539 . S
C1487 H1501 0.958 . S
C1487 H1502 0.961 . S
C1487 H1503 0.960 . S
H1488 C1472 0.931 . S
H1489 C1477 0.929 . S
H1490 C1478 0.960 . S
H1491 C1478 0.962 . S
H1492 C1478 0.960 . S
H1493 C1479 0.961 . S
H1494 C1479 0.961 . S
H1495 C1479 0.961 . S
H1496 C1480 0.931 . S
H1497 C1485 0.930 1_655 S
H1498 C1486 0.956 . S
H1499 C1486 0.961 . S
H1500 C1486 0.961 . S
H1501 C1487 0.958 . S
H1502 C1487 0.961 . S
H1503 C1487 0.960 . S
C1504 C1505 1.391 . S
C1504 C1506 1.394 . S
C1504 H1520 0.931 1_565 S
C1505 C1504 1.391 . S
C1505 C1509 1.376 . S
C1506 C1504 1.394 . S
C1506 C1507 1.369 . S
C1506 C1510 1.531 . S
C1507 C1506 1.369 . S
C1507 C1508 1.410 . S
C1507 C1515 1.503 . S
C1508 C1507 1.410 . S
C1508 C1509 1.392 . S
C1508 C1511 1.511 . S
C1509 C1505 1.376 . S
C1509 C1508 1.392 . S
C1509 H1521 0.929 . S
C1510 C1506 1.531 . S
C1510 H1522 0.960 . S
C1510 H1523 0.962 . S
C1510 H1524 0.960 . S
C1511 C1508 1.511 . S
C1511 H1525 0.961 . S
C1511 H1526 0.961 . S
C1511 H1527 0.961 . S
C1512 C1513 1.370 . S
C1512 C1514 1.363 . S
C1512 H1528 0.931 . S
C1513 C1512 1.370 . S
C1513 C1517 1.408 . S
C1514 C1512 1.363 . S
C1514 C1515 1.370 . S
C1514 C1518 1.524 . S
C1515 C1507 1.503 . S
C1515 C1514 1.370 . S
C1515 C1516 1.403 . S
C1516 C1515 1.403 . S
C1516 C1517 1.404 . S
C1516 C1519 1.539 . S
C1517 C1513 1.408 . S
C1517 C1516 1.404 . S
C1517 H1529 0.930 . S
C1518 C1514 1.524 . S
C1518 H1530 0.956 . S
C1518 H1531 0.961 . S
C1518 H1532 0.961 . S
C1519 C1516 1.539 . S
C1519 H1533 0.958 . S
C1519 H1534 0.961 . S
C1519 H1535 0.960 . S
H1520 C1504 0.931 1_545 S
H1521 C1509 0.929 . S
H1522 C1510 0.960 . S
H1523 C1510 0.962 . S
H1524 C1510 0.960 . S
H1525 C1511 0.961 . S
H1526 C1511 0.961 . S
H1527 C1511 0.961 . S
H1528 C1512 0.931 . S
H1529 C1517 0.930 . S
H1530 C1518 0.956 . S
H1531 C1518 0.961 . S
H1532 C1518 0.961 . S
H1533 C1519 0.958 . S
H1534 C1519 0.961 . S
H1535 C1519 0.960 . S
C1536 C1537 1.391 . S
C1536 C1538 1.394 . S
C1536 H1552 0.931 . S
C1537 C1536 1.391 . S
C1537 C1541 1.376 . S
C1538 C1536 1.394 . S
C1538 C1539 1.369 . S
C1538 C1542 1.531 . S
C1539 C1538 1.369 . S
C1539 C1540 1.410 . S
C1539 C1547 1.503 . S
C1540 C1539 1.410 . S
C1540 C1541 1.392 . S
C1540 C1543 1.511 . S
C1541 C1537 1.376 . S
C1541 C1540 1.392 . S
C1541 H1553 0.929 . S
C1542 C1538 1.531 . S
C1542 H1554 0.960 . S
C1542 H1555 0.962 . S
C1542 H1556 0.960 . S
C1543 C1540 1.511 . S
C1543 H1557 0.961 . S
C1543 H1558 0.961 . S
C1543 H1559 0.961 . S
C1544 C1545 1.370 . S
C1544 C1546 1.363 . S
C1544 H1560 0.931 . S
C1545 C1544 1.370 . S
C1545 C1549 1.408 . S
C1546 C1544 1.363 . S
C1546 C1547 1.370 . S
C1546 C1550 1.524 . S
C1547 C1539 1.503 . S
C1547 C1546 1.370 . S
C1547 C1548 1.403 . S
C1548 C1547 1.403 . S
C1548 C1549 1.404 . S
C1548 C1551 1.539 . S
C1549 C1545 1.408 . S
C1549 C1548 1.404 . S
C1549 H1561 0.930 . S
C1550 C1546 1.524 . S
C1550 H1562 0.956 . S
C1550 H1563 0.961 . S
C1550 H1564 0.961 . S
C1551 C1548 1.539 . S
C1551 H1565 0.958 . S
C1551 H1566 0.961 . S
C1551 H1567 0.960 . S
H1552 C1536 0.931 . S
H1553 C1541 0.929 . S
H1554 C1542 0.960 . S
H1555 C1542 0.962 . S
H1556 C1542 0.960 . S
H1557 C1543 0.961 . S
H1558 C1543 0.961 . S
H1559 C1543 0.961 . S
H1560 C1544 0.931 . S
H1561 C1549 0.930 . S
H1562 C1550 0.956 . S
H1563 C1550 0.961 . S
H1564 C1550 0.961 . S
H1565 C1551 0.958 . S
H1566 C1551 0.961 . S
H1567 C1551 0.960 . S
C1568 C1569 1.391 . S
C1568 C1570 1.394 . S
C1568 H1584 0.931 . S
C1569 C1568 1.391 . S
C1569 C1573 1.376 . S
C1570 C1568 1.394 . S
C1570 C1571 1.369 . S
C1570 C1574 1.531 . S
C1571 C1570 1.369 . S
C1571 C1572 1.410 . S
C1571 C1579 1.503 . S
C1572 C1571 1.410 . S
C1572 C1573 1.392 . S
C1572 C1575 1.511 . S
C1573 C1569 1.376 . S
C1573 C1572 1.392 . S
C1573 H1585 0.929 . S
C1574 C1570 1.531 . S
C1574 H1586 0.960 . S
C1574 H1587 0.962 . S
C1574 H1588 0.960 . S
C1575 C1572 1.511 . S
C1575 H1589 0.961 . S
C1575 H1590 0.961 . S
C1575 H1591 0.961 . S
C1576 C1577 1.370 . S
C1576 C1578 1.363 . S
C1576 H1592 0.931 1_655 S
C1577 C1576 1.370 . S
C1577 C1581 1.408 . S
C1578 C1576 1.363 . S
C1578 C1579 1.370 . S
C1578 C1582 1.524 . S
C1579 C1571 1.503 . S
C1579 C1578 1.370 . S
C1579 C1580 1.403 . S
C1580 C1579 1.403 . S
C1580 C1581 1.404 . S
C1580 C1583 1.539 . S
C1581 C1577 1.408 . S
C1581 C1580 1.404 . S
C1581 H1593 0.930 . S
C1582 C1578 1.524 . S
C1582 H1594 0.956 . S
C1582 H1595 0.961 . S
C1582 H1596 0.961 . S
C1583 C1580 1.539 . S
C1583 H1597 0.958 . S
C1583 H1598 0.961 . S
C1583 H1599 0.960 . S
H1584 C1568 0.931 . S
H1585 C1573 0.929 . S
H1586 C1574 0.960 . S
H1587 C1574 0.962 . S
H1588 C1574 0.960 . S
H1589 C1575 0.961 . S
H1590 C1575 0.961 . S
H1591 C1575 0.961 . S
H1592 C1576 0.931 1_455 S
H1593 C1581 0.930 . S
H1594 C1582 0.956 . S
H1595 C1582 0.961 . S
H1596 C1582 0.961 . S
H1597 C1583 0.958 . S
H1598 C1583 0.961 . S
H1599 C1583 0.960 . S
C1600 C1601 1.391 . S
C1600 C1602 1.394 . S
C1600 H1616 0.931 1_565 S
C1601 C1600 1.391 . S
C1601 C1605 1.376 . S
C1602 C1600 1.394 . S
C1602 C1603 1.369 . S
C1602 C1606 1.531 . S
C1603 C1602 1.369 . S
C1603 C1604 1.410 . S
C1603 C1611 1.503 . S
C1604 C1603 1.410 . S
C1604 C1605 1.392 . S
C1604 C1607 1.511 . S
C1605 C1601 1.376 . S
C1605 C1604 1.392 . S
C1605 H1617 0.929 . S
C1606 C1602 1.531 . S
C1606 H1618 0.960 . S
C1606 H1619 0.962 . S
C1606 H1620 0.960 . S
C1607 C1604 1.511 . S
C1607 H1621 0.961 . S
C1607 H1622 0.961 . S
C1607 H1623 0.961 . S
C1608 C1609 1.370 . S
C1608 C1610 1.363 . S
C1608 H1624 0.931 . S
C1609 C1608 1.370 . S
C1609 C1613 1.408 . S
C1610 C1608 1.363 . S
C1610 C1611 1.370 . S
C1610 C1614 1.524 . S
C1611 C1603 1.503 . S
C1611 C1610 1.370 . S
C1611 C1612 1.403 . S
C1612 C1611 1.403 . S
C1612 C1613 1.404 . S
C1612 C1615 1.539 . S
C1613 C1609 1.408 . S
C1613 C1612 1.404 . S
C1613 H1625 0.930 . S
C1614 C1610 1.524 . S
C1614 H1626 0.956 . S
C1614 H1627 0.961 . S
C1614 H1628 0.961 . S
C1615 C1612 1.539 . S
C1615 H1629 0.958 . S
C1615 H1630 0.961 . S
C1615 H1631 0.960 . S
H1616 C1600 0.931 1_545 S
H1617 C1605 0.929 . S
H1618 C1606 0.960 . S
H1619 C1606 0.962 . S
H1620 C1606 0.960 . S
H1621 C1607 0.961 . S
H1622 C1607 0.961 . S
H1623 C1607 0.961 . S
H1624 C1608 0.931 . S
H1625 C1613 0.930 . S
H1626 C1614 0.956 . S
H1627 C1614 0.961 . S
H1628 C1614 0.961 . S
H1629 C1615 0.958 . S
H1630 C1615 0.961 . S
H1631 C1615 0.960 . S
C1632 C1633 1.391 . S
C1632 C1634 1.394 . S
C1632 H1648 0.931 . S
C1633 C1632 1.391 . S
C1633 C1637 1.376 . S
C1634 C1632 1.394 . S
C1634 C1635 1.369 . S
C1634 C1638 1.531 1_554 S
C1635 C1634 1.369 . S
C1635 C1636 1.410 . S
C1635 C1643 1.503 1_554 S
C1636 C1635 1.410 . S
C1636 C1637 1.392 . S
C1636 C1639 1.511 . S
C1637 C1633 1.376 . S
C1637 C1636 1.392 . S
C1637 H1649 0.929 . S
C1638 C1634 1.531 1_556 S
C1638 H1650 0.960 . S
C1638 H1651 0.962 . S
C1638 H1652 0.960 . S
C1639 C1636 1.511 . S
C1639 H1653 0.961 . S
C1639 H1654 0.961 . S
C1639 H1655 0.961 . S
C1640 C1641 1.370 . S
C1640 C1642 1.363 . S
C1640 H1656 0.931 . S
C1641 C1640 1.370 . S
C1641 C1645 1.408 . S
C1642 C1640 1.363 . S
C1642 C1643 1.370 . S
C1642 C1646 1.524 1_556 S
C1643 C1635 1.503 1_556 S
C1643 C1642 1.370 . S
C1643 C1644 1.403 . S
C1644 C1643 1.403 . S
C1644 C1645 1.404 . S
C1644 C1647 1.539 . S
C1645 C1641 1.408 . S
C1645 C1644 1.404 . S
C1645 H1657 0.930 . S
C1646 C1642 1.524 1_554 S
C1646 H1658 0.956 . S
C1646 H1659 0.961 . S
C1646 H1660 0.961 . S
C1647 C1644 1.539 . S
C1647 H1661 0.958 . S
C1647 H1662 0.961 . S
C1647 H1663 0.960 . S
H1648 C1632 0.931 . S
H1649 C1637 0.929 . S
H1650 C1638 0.960 . S
H1651 C1638 0.962 . S
H1652 C1638 0.960 . S
H1653 C1639 0.961 . S
H1654 C1639 0.961 . S
H1655 C1639 0.961 . S
H1656 C1640 0.931 . S
H1657 C1645 0.930 . S
H1658 C1646 0.956 . S
H1659 C1646 0.961 . S
H1660 C1646 0.961 . S
H1661 C1647 0.958 . S
H1662 C1647 0.961 . S
H1663 C1647 0.960 . S
C1664 C1665 1.391 . S
C1664 C1666 1.394 . S
C1664 H1680 0.931 . S
C1665 C1664 1.391 . S
C1665 C1669 1.376 . S
C1666 C1664 1.394 . S
C1666 C1667 1.369 . S
C1666 C1670 1.531 . S
C1667 C1666 1.369 . S
C1667 C1668 1.410 . S
C1667 C1675 1.503 . S
C1668 C1667 1.410 . S
C1668 C1669 1.392 . S
C1668 C1671 1.511 . S
C1669 C1665 1.376 . S
C1669 C1668 1.392 . S
C1669 H1681 0.929 . S
C1670 C1666 1.531 . S
C1670 H1682 0.960 . S
C1670 H1683 0.962 . S
C1670 H1684 0.960 . S
C1671 C1668 1.511 . S
C1671 H1685 0.961 . S
C1671 H1686 0.961 . S
C1671 H1687 0.961 . S
C1672 C1673 1.370 . S
C1672 C1674 1.363 . S
C1672 H1688 0.931 . S
C1673 C1672 1.370 . S
C1673 C1677 1.408 . S
C1674 C1672 1.363 . S
C1674 C1675 1.370 . S
C1674 C1678 1.524 . S
C1675 C1667 1.503 . S
C1675 C1674 1.370 . S
C1675 C1676 1.403 . S
C1676 C1675 1.403 . S
C1676 C1677 1.404 . S
C1676 C1679 1.539 . S
C1677 C1673 1.408 . S
C1677 C1676 1.404 . S
C1677 H1689 0.930 . S
C1678 C1674 1.524 . S
C1678 H1690 0.956 . S
C1678 H1691 0.961 . S
C1678 H1692 0.961 . S
C1679 C1676 1.539 . S
C1679 H1693 0.958 . S
C1679 H1694 0.961 . S
C1679 H1695 0.960 . S
H1680 C1664 0.931 . S
H1681 C1669 0.929 . S
H1682 C1670 0.960 . S
H1683 C1670 0.962 . S
H1684 C1670 0.960 . S
H1685 C1671 0.961 . S
H1686 C1671 0.961 . S
H1687 C1671 0.961 . S
H1688 C1672 0.931 . S
H1689 C1677 0.930 . S
H1690 C1678 0.956 . S
H1691 C1678 0.961 . S
H1692 C1678 0.961 . S
H1693 C1679 0.958 . S
H1694 C1679 0.961 . S
H1695 C1679 0.960 . S
C1696 C1697 1.391 . S
C1696 C1698 1.394 . S
C1696 H1712 0.931 1_655 S
C1697 C1696 1.391 . S
C1697 C1701 1.376 . S
C1698 C1696 1.394 . S
C1698 C1699 1.369 . S
C1698 C1702 1.531 1_655 S
C1699 C1698 1.369 . S
C1699 C1700 1.410 . S
C1699 C1707 1.503 1_554 S
C1700 C1699 1.410 . S
C1700 C1701 1.392 . S
C1700 C1703 1.511 1_554 S
C1701 C1697 1.376 . S
C1701 C1700 1.392 . S
C1701 H1713 0.929 . S
C1702 C1698 1.531 1_455 S
C1702 H1714 0.964 . S
C1702 H1715 0.962 . S
C1702 H1716 0.960 . S
C1703 C1700 1.511 1_556 S
C1703 H1717 0.961 . S
C1703 H1718 0.961 . S
C1703 H1719 0.961 . S
C1704 C1705 1.370 . S
C1704 C1706 1.363 . S
C1704 H1720 0.931 1_655 S
C1705 C1704 1.370 . S
C1705 C1709 1.408 . S
C1706 C1704 1.363 . S
C1706 C1707 1.370 . S
C1706 C1710 1.524 1_655 S
C1707 C1699 1.503 1_556 S
C1707 C1706 1.370 . S
C1707 C1708 1.403 . S
C1708 C1707 1.403 . S
C1708 C1709 1.404 . S
C1708 C1711 1.539 1_556 S
C1709 C1705 1.408 . S
C1709 C1708 1.404 . S
C1709 H1721 0.930 . S
C1710 C1706 1.524 1_455 S
C1710 H1722 0.956 . S
C1710 H1723 0.961 . S
C1710 H1724 0.961 . S
C1711 C1708 1.539 1_554 S
C1711 H1725 0.958 . S
C1711 H1726 0.961 . S
C1711 H1727 0.960 . S
H1712 C1696 0.931 1_455 S
H1713 C1701 0.929 . S
H1714 C1702 0.964 . S
H1715 C1702 0.962 . S
H1716 C1702 0.960 . S
H1717 C1703 0.961 . S
H1718 C1703 0.961 . S
H1719 C1703 0.961 . S
H1720 C1704 0.931 1_455 S
H1721 C1709 0.930 . S
H1722 C1710 0.956 . S
H1723 C1710 0.961 . S
H1724 C1710 0.961 . S
H1725 C1711 0.958 . S
H1726 C1711 0.961 . S
H1727 C1711 0.960 . S
C1728 C1729 1.391 . S
C1728 C1730 1.394 . S
C1728 H1744 0.931 . S
C1729 C1728 1.391 . S
C1729 C1733 1.376 . S
C1730 C1728 1.394 . S
C1730 C1731 1.369 . S
C1730 C1734 1.531 . S
C1731 C1730 1.369 . S
C1731 C1732 1.410 . S
C1731 C1739 1.503 . S
C1732 C1731 1.410 . S
C1732 C1733 1.392 . S
C1732 C1735 1.511 1_565 S
C1733 C1729 1.376 . S
C1733 C1732 1.392 . S
C1733 H1745 0.930 1_565 S
C1734 C1730 1.531 . S
C1734 H1746 0.960 . S
C1734 H1747 0.962 . S
C1734 H1748 0.960 . S
C1735 C1732 1.511 1_545 S
C1735 H1749 0.961 . S
C1735 H1750 0.963 . S
C1735 H1751 0.961 . S
C1736 C1737 1.370 . S
C1736 C1738 1.363 . S
C1736 H1752 0.931 . S
C1737 C1736 1.370 . S
C1737 C1741 1.408 1_565 S
C1738 C1736 1.363 . S
C1738 C1739 1.370 . S
C1738 C1742 1.524 . S
C1739 C1731 1.503 . S
C1739 C1738 1.370 . S
C1739 C1740 1.403 1_565 S
C1740 C1739 1.403 1_545 S
C1740 C1741 1.404 . S
C1740 C1743 1.539 . S
C1741 C1737 1.408 1_545 S
C1741 C1740 1.404 . S
C1741 H1753 0.930 . S
C1742 C1738 1.524 . S
C1742 H1754 0.956 . S
C1742 H1755 0.961 . S
C1742 H1756 0.961 . S
C1743 C1740 1.539 . S
C1743 H1757 0.958 . S
C1743 H1758 0.961 . S
C1743 H1759 0.960 . S
H1744 C1728 0.931 . S
H1745 C1733 0.930 1_545 S
H1746 C1734 0.960 . S
H1747 C1734 0.962 . S
H1748 C1734 0.960 . S
H1749 C1735 0.961 . S
H1750 C1735 0.963 . S
H1751 C1735 0.961 . S
H1752 C1736 0.931 . S
H1753 C1741 0.930 . S
H1754 C1742 0.956 . S
H1755 C1742 0.961 . S
H1756 C1742 0.961 . S
H1757 C1743 0.958 . S
H1758 C1743 0.961 . S
H1759 C1743 0.960 . S
C1760 C1761 1.391 . S
C1760 C1762 1.394 . S
C1760 H1776 0.931 . S
C1761 C1760 1.391 . S
C1761 C1765 1.376 . S
C1762 C1760 1.394 . S
C1762 C1763 1.369 . S
C1762 C1766 1.531 . S
C1763 C1762 1.369 . S
C1763 C1764 1.410 . S
C1763 C1771 1.503 1_554 S
C1764 C1763 1.410 . S
C1764 C1765 1.392 . S
C1764 C1767 1.511 . S
C1765 C1761 1.376 . S
C1765 C1764 1.392 . S
C1765 H1777 0.929 . S
C1766 C1762 1.531 . S
C1766 H1778 0.960 . S
C1766 H1779 0.962 . S
C1766 H1780 0.960 . S
C1767 C1764 1.511 . S
C1767 H1781 0.961 . S
C1767 H1782 0.961 1_554 S
C1767 H1783 0.961 . S
C1768 C1769 1.370 . S
C1768 C1770 1.363 . S
C1768 H1784 0.931 . S
C1769 C1768 1.370 . S
C1769 C1773 1.408 . S
C1770 C1768 1.363 . S
C1770 C1771 1.370 . S
C1770 C1774 1.524 . S
C1771 C1763 1.503 1_556 S
C1771 C1770 1.370 . S
C1771 C1772 1.403 . S
C1772 C1771 1.403 . S
C1772 C1773 1.404 . S
C1772 C1775 1.539 1_556 S
C1773 C1769 1.408 . S
C1773 C1772 1.404 . S
C1773 H1785 0.930 . S
C1774 C1770 1.524 . S
C1774 H1786 0.956 . S
C1774 H1787 0.961 . S
C1774 H1788 0.961 . S
C1775 C1772 1.539 1_554 S
C1775 H1789 0.958 . S
C1775 H1790 0.961 . S
C1775 H1791 0.960 . S
H1776 C1760 0.931 . S
H1777 C1765 0.929 . S
H1778 C1766 0.960 . S
H1779 C1766 0.962 . S
H1780 C1766 0.960 . S
H1781 C1767 0.961 . S
H1782 C1767 0.961 1_556 S
H1783 C1767 0.961 . S
H1784 C1768 0.931 . S
H1785 C1773 0.930 . S
H1786 C1774 0.956 . S
H1787 C1774 0.961 . S
H1788 C1774 0.961 . S
H1789 C1775 0.958 . S
H1790 C1775 0.961 . S
H1791 C1775 0.960 . S
C1792 C1793 1.391 . S
C1792 C1794 1.394 . S
C1792 H1808 0.931 . S
C1793 C1792 1.391 . S
C1793 C1797 1.376 . S
C1794 C1792 1.394 . S
C1794 C1795 1.369 . S
C1794 C1798 1.531 . S
C1795 C1794 1.369 . S
C1795 C1796 1.410 . S
C1795 C1803 1.503 . S
C1796 C1795 1.410 . S
C1796 C1797 1.392 . S
C1796 C1799 1.511 . S
C1797 C1793 1.376 . S
C1797 C1796 1.392 . S
C1797 H1809 0.929 . S
C1798 C1794 1.531 . S
C1798 H1810 0.960 . S
C1798 H1811 0.962 . S
C1798 H1812 0.960 . S
C1799 C1796 1.511 . S
C1799 H1813 0.961 . S
C1799 H1814 0.961 . S
C1799 H1815 0.961 . S
C1800 C1801 1.370 . S
C1800 C1802 1.363 . S
C1800 H1816 0.931 . S
C1801 C1800 1.370 . S
C1801 C1805 1.408 . S
C1802 C1800 1.363 . S
C1802 C1803 1.370 . S
C1802 C1806 1.524 . S
C1803 C1795 1.503 . S
C1803 C1802 1.370 . S
C1803 C1804 1.403 . S
C1804 C1803 1.403 . S
C1804 C1805 1.404 . S
C1804 C1807 1.539 . S
C1805 C1801 1.408 . S
C1805 C1804 1.404 . S
C1805 H1817 0.930 . S
C1806 C1802 1.524 . S
C1806 H1818 0.956 . S
C1806 H1819 0.961 . S
C1806 H1820 0.961 . S
C1807 C1804 1.539 . S
C1807 H1821 0.958 . S
C1807 H1822 0.961 . S
C1807 H1823 0.960 . S
H1808 C1792 0.931 . S
H1809 C1797 0.929 . S
H1810 C1798 0.960 . S
H1811 C1798 0.962 . S
H1812 C1798 0.960 . S
H1813 C1799 0.961 . S
H1814 C1799 0.961 . S
H1815 C1799 0.961 . S
H1816 C1800 0.931 . S
H1817 C1805 0.930 . S
H1818 C1806 0.956 . S
H1819 C1806 0.961 . S
H1820 C1806 0.961 . S
H1821 C1807 0.958 . S
H1822 C1807 0.961 . S
H1823 C1807 0.960 . S
C1824 C1825 1.391 1_655 S
C1824 C1826 1.394 . S
C1824 H1840 0.931 . S
C1825 C1824 1.391 1_455 S
C1825 C1829 1.376 . S
C1826 C1824 1.394 . S
C1826 C1827 1.362 1_655 S
C1826 C1830 1.538 1_556 S
C1827 C1826 1.362 1_455 S
C1827 C1828 1.410 . S
C1827 C1835 1.503 1_556 S
C1828 C1827 1.410 . S
C1828 C1829 1.392 . S
C1828 C1831 1.511 . S
C1829 C1825 1.376 . S
C1829 C1828 1.392 . S
C1829 H1841 0.929 . S
C1830 C1826 1.538 1_554 S
C1830 H1842 0.960 . S
C1830 H1843 0.962 1_554 S
C1830 H1844 0.960 . S
C1831 C1828 1.511 . S
C1831 H1845 0.961 . S
C1831 H1846 0.961 . S
C1831 H1847 0.961 . S
C1832 C1833 1.370 . S
C1832 C1834 1.363 . S
C1832 H1848 0.931 . S
C1833 C1832 1.370 . S
C1833 C1837 1.408 . S
C1834 C1832 1.363 . S
C1834 C1835 1.370 . S
C1834 C1838 1.524 1_554 S
C1835 C1827 1.503 1_554 S
C1835 C1834 1.370 . S
C1835 C1836 1.403 . S
C1836 C1835 1.403 . S
C1836 C1837 1.404 . S
C1836 C1839 1.539 . S
C1837 C1833 1.408 . S
C1837 C1836 1.404 . S
C1837 H1849 0.930 . S
C1838 C1834 1.524 1_556 S
C1838 H1850 0.956 1_455 S
C1838 H1851 0.961 . S
C1838 H1852 0.961 . S
C1839 C1836 1.539 . S
C1839 H1853 0.958 . S
C1839 H1854 0.961 . S
C1839 H1855 0.960 . S
H1840 C1824 0.931 . S
H1841 C1829 0.929 . S
H1842 C1830 0.960 . S
H1843 C1830 0.962 1_556 S
H1844 C1830 0.960 . S
H1845 C1831 0.961 . S
H1846 C1831 0.961 . S
H1847 C1831 0.961 . S
H1848 C1832 0.931 . S
H1849 C1837 0.930 . S
H1850 C1838 0.956 1_655 S
H1851 C1838 0.961 . S
H1852 C1838 0.961 . S
H1853 C1839 0.958 . S
H1854 C1839 0.961 . S
H1855 C1839 0.960 . S
C1856 C1857 1.391 . S
C1856 C1858 1.394 . S
C1856 H1872 0.931 . S
C1857 C1856 1.391 . S
C1857 C1861 1.376 . S
C1858 C1856 1.394 . S
C1858 C1859 1.369 . S
C1858 C1862 1.531 . S
C1859 C1858 1.369 . S
C1859 C1860 1.410 . S
C1859 C1867 1.503 . S
C1860 C1859 1.410 . S
C1860 C1861 1.392 . S
C1860 C1863 1.511 1_545 S
C1861 C1857 1.376 . S
C1861 C1860 1.392 . S
C1861 H1873 0.929 1_545 S
C1862 C1858 1.531 . S
C1862 H1874 0.960 . S
C1862 H1875 0.962 . S
C1862 H1876 0.960 . S
C1863 C1860 1.511 1_565 S
C1863 H1877 0.961 . S
C1863 H1878 0.961 . S
C1863 H1879 0.961 1_565 S
C1864 C1865 1.370 . S
C1864 C1866 1.363 . S
C1864 H1880 0.931 1_545 S
C1865 C1864 1.370 . S
C1865 C1869 1.408 . S
C1866 C1864 1.363 . S
C1866 C1867 1.370 . S
C1866 C1870 1.524 1_545 S
C1867 C1859 1.503 . S
C1867 C1866 1.370 . S
C1867 C1868 1.403 . S
C1868 C1867 1.403 . S
C1868 C1869 1.404 . S
C1868 C1871 1.539 . S
C1869 C1865 1.408 . S
C1869 C1868 1.404 . S
C1869 H1881 0.930 . S
C1870 C1866 1.524 1_565 S
C1870 H1882 0.956 . S
C1870 H1883 0.961 . S
C1870 H1884 0.961 . S
C1871 C1868 1.539 . S
C1871 H1885 0.958 . S
C1871 H1886 0.961 . S
C1871 H1887 0.960 . S
H1872 C1856 0.931 . S
H1873 C1861 0.929 1_565 S
H1874 C1862 0.960 . S
H1875 C1862 0.962 . S
H1876 C1862 0.960 . S
H1877 C1863 0.961 . S
H1878 C1863 0.961 . S
H1879 C1863 0.961 1_545 S
H1880 C1864 0.931 1_565 S
H1881 C1869 0.930 . S
H1882 C1870 0.956 . S
H1883 C1870 0.961 . S
H1884 C1870 0.961 . S
H1885 C1871 0.958 . S
H1886 C1871 0.961 . S
H1887 C1871 0.960 . S
C353 C7 1.096 . S
C361 C202 1.144 . S
C385 C29 1.169 . S
C393 C224 1.139 . S
C417 C246 1.173 . S
C425 C51 1.136 . S
C449 C184 1.120 . S
C457 C73 1.147 . S
C481 C95 1.167 . S
C489 C338 1.138 . S
C513 C272 1.113 . S
C521 C116 1.136 . S
C545 C294 1.144 . S
C553 C138 1.149 . S
C577 C316 1.119 . S
C585 C160 1.128 . S
C609 C30 1.129 . S
C617 C185 1.150 . S
C641 C203 1.146 . S
C649 C52 1.154 . S
C673 C74 1.142 . S
C681 C225 1.147 . S
C705 C8 1.118 . S
C713 C247 1.149 . S
C737 C158 1.148 . S
C745 C273 1.119 . S
C769 C96 1.118 . S
C777 C295 1.149 . S
C801 C317 1.127 . S
C809 C114 1.137 . S
C833 C136 1.121 . S
C841 C339 1.150 . S
C865 C4 1.437 . S
C873 C337 1.508 . S
C897 C26 1.438 . S
C905 C271 1.512 . S
C929 C48 1.465 . S
C937 C293 1.500 . S
C961 C315 1.479 . S
C969 C70 1.482 . S
C993 C92 1.438 . S
C1001 C204 1.508 . S
C1025 C118 1.437 . S
C1033 C226 1.512 . S
C1057 C140 1.493 . S
C1065 C248 1.498 . S
C1089 C183 1.498 . S
C1097 C162 1.475 . S
C1121 C180 1.461 . S
C1129 C159 1.510 . S
C1153 C206 1.497 . S
C1161 C97 1.497 . S
C1185 C228 1.488 . S
C1193 C115 1.502 . S
C1217 C250 1.483 . S
C1225 C137 1.494 . S
C1249 C31 1.508 . S
C1257 C268 1.473 . S
C1281 C53 1.517 . S
C1289 C290 1.455 . S
C1313 C75 1.516 . S
C1321 C312 1.467 . S
C1345 C334 1.439 . S
C1353 C9 1.512 . S
C1377 C161 1.303 1_545 S
C1385 C6 1.346 . S
C1409 C94 1.365 . S
C1417 C28 1.323 . S
C1441 C50 1.320 1_455 S
C1449 C117 1.337 . S
C1473 C72 1.300 1_545 S
C1481 C139 1.347 1_455 S
C1505 C335 1.387 1_565 S
C1513 C181 1.329 . S
C1537 C207 1.322 . S
C1545 C269 1.330 . S
C1569 C291 1.335 . S
C1577 C229 1.359 1_655 S
C1601 C251 1.385 1_565 S
C1609 C313 1.326 1_655 S
C1633 C5 1.322 . S
C1641 C93 1.295 . S
C1665 C119 1.288 . S
C1673 C27 1.298 . S
C1697 C49 1.242 . S
C1705 C141 1.276 . S
C1729 C163 1.328 . S
C1737 C71 1.302 . S
C1761 C270 1.272 . S
C1769 C182 1.298 . S
C1793 C292 1.241 . S
C1801 C205 1.271 . S
C1825 C227 1.286 . S
C1833 C314 1.273 . S
C1857 C249 1.241 . S
C1865 C336 1.280 . S
