# Generated by pormake.
# Topology fnp, (5)-cn, num edge types: 1
# Building blocks:
#     Node 0, Type 0, BuildingBlock: BEQFEK_clean_sbu_0, # of connection points: 5
#     Node 1, Type 0, BuildingBlock: BEQFEK_clean_sbu_0, # of connection points: 5
#     Node 2, Type 0, BuildingBlock: BEQFEK_clean_sbu_0, # of connection points: 5
#     Node 3, Type 0, BuildingBlock: BEQFEK_clean_sbu_0, # of connection points: 5
#     Node 4, Type 0, BuildingBlock: BEQFEK_clean_sbu_0, # of connection points: 5
#     Node 5, Type 0, BuildingBlock: BEQFEK_clean_sbu_0, # of connection points: 5
#     Node 6, Type 0, BuildingBlock: BEQFEK_clean_sbu_0, # of connection points: 5
#     Node 7, Type 0, BuildingBlock: BEQFEK_clean_sbu_0, # of connection points: 5
#     Node 8, Type 0, BuildingBlock: BEQFEK_clean_sbu_0, # of connection points: 5
#     Node 9, Type 0, BuildingBlock: BEQFEK_clean_sbu_0, # of connection points: 5
#     Node 10, Type 0, BuildingBlock: BEQFEK_clean_sbu_0, # of connection points: 5
#     Node 11, Type 0, BuildingBlock: BEQFEK_clean_sbu_0, # of connection points: 5
#     Node 12, Type 0, BuildingBlock: BEQFEK_clean_sbu_0, # of connection points: 5
#     Node 13, Type 0, BuildingBlock: BEQFEK_clean_sbu_0, # of connection points: 5
#     Node 14, Type 0, BuildingBlock: BEQFEK_clean_sbu_0, # of connection points: 5
#     Node 15, Type 0, BuildingBlock: BEQFEK_clean_sbu_0, # of connection points: 5
#     Node 16, Type 0, BuildingBlock: BEQFEK_clean_sbu_0, # of connection points: 5
#     Node 17, Type 0, BuildingBlock: BEQFEK_clean_sbu_0, # of connection points: 5
#     Node 18, Type 0, BuildingBlock: BEQFEK_clean_sbu_0, # of connection points: 5
#     Node 19, Type 0, BuildingBlock: BEQFEK_clean_sbu_0, # of connection points: 5
#     Node 20, Type 0, BuildingBlock: BEQFEK_clean_sbu_0, # of connection points: 5
#     Node 21, Type 0, BuildingBlock: BEQFEK_clean_sbu_0, # of connection points: 5
#     Node 22, Type 0, BuildingBlock: BEQFEK_clean_sbu_0, # of connection points: 5
#     Node 23, Type 0, BuildingBlock: BEQFEK_clean_sbu_0, # of connection points: 5
#     Edge 24, Type (0, 0), BuildingBlock: CIFDUS_clean_linker_0, # of connection points: 2
#     Edge 25, Type (0, 0), BuildingBlock: CIFDUS_clean_linker_0, # of connection points: 2
#     Edge 26, Type (0, 0), BuildingBlock: CIFDUS_clean_linker_0, # of connection points: 2
#     Edge 27, Type (0, 0), BuildingBlock: CIFDUS_clean_linker_0, # of connection points: 2
#     Edge 28, Type (0, 0), BuildingBlock: CIFDUS_clean_linker_0, # of connection points: 2
#     Edge 29, Type (0, 0), BuildingBlock: CIFDUS_clean_linker_0, # of connection points: 2
#     Edge 30, Type (0, 0), BuildingBlock: CIFDUS_clean_linker_0, # of connection points: 2
#     Edge 31, Type (0, 0), BuildingBlock: CIFDUS_clean_linker_0, # of connection points: 2
#     Edge 32, Type (0, 0), BuildingBlock: CIFDUS_clean_linker_0, # of connection points: 2
#     Edge 33, Type (0, 0), BuildingBlock: CIFDUS_clean_linker_0, # of connection points: 2
#     Edge 34, Type (0, 0), BuildingBlock: CIFDUS_clean_linker_0, # of connection points: 2
#     Edge 35, Type (0, 0), BuildingBlock: CIFDUS_clean_linker_0, # of connection points: 2
#     Edge 36, Type (0, 0), BuildingBlock: CIFDUS_clean_linker_0, # of connection points: 2
#     Edge 37, Type (0, 0), BuildingBlock: CIFDUS_clean_linker_0, # of connection points: 2
#     Edge 38, Type (0, 0), BuildingBlock: CIFDUS_clean_linker_0, # of connection points: 2
#     Edge 39, Type (0, 0), BuildingBlock: CIFDUS_clean_linker_0, # of connection points: 2
#     Edge 40, Type (0, 0), BuildingBlock: CIFDUS_clean_linker_0, # of connection points: 2
#     Edge 41, Type (0, 0), BuildingBlock: CIFDUS_clean_linker_0, # of connection points: 2
#     Edge 42, Type (0, 0), BuildingBlock: CIFDUS_clean_linker_0, # of connection points: 2
#     Edge 43, Type (0, 0), BuildingBlock: CIFDUS_clean_linker_0, # of connection points: 2
#     Edge 44, Type (0, 0), BuildingBlock: CIFDUS_clean_linker_0, # of connection points: 2
#     Edge 45, Type (0, 0), BuildingBlock: CIFDUS_clean_linker_0, # of connection points: 2
#     Edge 46, Type (0, 0), BuildingBlock: CIFDUS_clean_linker_0, # of connection points: 2
#     Edge 47, Type (0, 0), BuildingBlock: CIFDUS_clean_linker_0, # of connection points: 2
#     Edge 48, Type (0, 0), BuildingBlock: CIFDUS_clean_linker_0, # of connection points: 2
#     Edge 49, Type (0, 0), BuildingBlock: CIFDUS_clean_linker_0, # of connection points: 2
#     Edge 50, Type (0, 0), BuildingBlock: CIFDUS_clean_linker_0, # of connection points: 2
#     Edge 51, Type (0, 0), BuildingBlock: CIFDUS_clean_linker_0, # of connection points: 2
#     Edge 52, Type (0, 0), BuildingBlock: CIFDUS_clean_linker_0, # of connection points: 2
#     Edge 53, Type (0, 0), BuildingBlock: CIFDUS_clean_linker_0, # of connection points: 2
#     Edge 54, Type (0, 0), BuildingBlock: CIFDUS_clean_linker_0, # of connection points: 2
#     Edge 55, Type (0, 0), BuildingBlock: CIFDUS_clean_linker_0, # of connection points: 2
#     Edge 56, Type (0, 0), BuildingBlock: CIFDUS_clean_linker_0, # of connection points: 2
#     Edge 57, Type (0, 0), BuildingBlock: CIFDUS_clean_linker_0, # of connection points: 2
#     Edge 58, Type (0, 0), BuildingBlock: CIFDUS_clean_linker_0, # of connection points: 2
#     Edge 59, Type (0, 0), BuildingBlock: CIFDUS_clean_linker_0, # of connection points: 2
#     Edge 60, Type (0, 0), BuildingBlock: CIFDUS_clean_linker_0, # of connection points: 2
#     Edge 61, Type (0, 0), BuildingBlock: CIFDUS_clean_linker_0, # of connection points: 2
#     Edge 62, Type (0, 0), BuildingBlock: CIFDUS_clean_linker_0, # of connection points: 2
#     Edge 63, Type (0, 0), BuildingBlock: CIFDUS_clean_linker_0, # of connection points: 2
#     Edge 64, Type (0, 0), BuildingBlock: CIFDUS_clean_linker_0, # of connection points: 2
#     Edge 65, Type (0, 0), BuildingBlock: CIFDUS_clean_linker_0, # of connection points: 2
#     Edge 66, Type (0, 0), BuildingBlock: CIFDUS_clean_linker_0, # of connection points: 2
#     Edge 67, Type (0, 0), BuildingBlock: CIFDUS_clean_linker_0, # of connection points: 2
#     Edge 68, Type (0, 0), BuildingBlock: CIFDUS_clean_linker_0, # of connection points: 2
#     Edge 69, Type (0, 0), BuildingBlock: CIFDUS_clean_linker_0, # of connection points: 2
#     Edge 70, Type (0, 0), BuildingBlock: CIFDUS_clean_linker_0, # of connection points: 2
#     Edge 71, Type (0, 0), BuildingBlock: CIFDUS_clean_linker_0, # of connection points: 2
#     Edge 72, Type (0, 0), BuildingBlock: CIFDUS_clean_linker_0, # of connection points: 2
#     Edge 73, Type (0, 0), BuildingBlock: CIFDUS_clean_linker_0, # of connection points: 2
#     Edge 74, Type (0, 0), BuildingBlock: CIFDUS_clean_linker_0, # of connection points: 2
#     Edge 75, Type (0, 0), BuildingBlock: CIFDUS_clean_linker_0, # of connection points: 2
#     Edge 76, Type (0, 0), BuildingBlock: CIFDUS_clean_linker_0, # of connection points: 2
#     Edge 77, Type (0, 0), BuildingBlock: CIFDUS_clean_linker_0, # of connection points: 2
#     Edge 78, Type (0, 0), BuildingBlock: CIFDUS_clean_linker_0, # of connection points: 2
#     Edge 79, Type (0, 0), BuildingBlock: CIFDUS_clean_linker_0, # of connection points: 2
#     Edge 80, Type (0, 0), BuildingBlock: CIFDUS_clean_linker_0, # of connection points: 2
#     Edge 81, Type (0, 0), BuildingBlock: CIFDUS_clean_linker_0, # of connection points: 2
#     Edge 82, Type (0, 0), BuildingBlock: CIFDUS_clean_linker_0, # of connection points: 2
#     Edge 83, Type (0, 0), BuildingBlock: CIFDUS_clean_linker_0, # of connection points: 2
# Relax obj value: 0.534
# Max RMSD: 0.212
# Mean RMSD: 0.212
data_MOF--net-fnp--node1-BEQFEK_clean_sbu_0--edge1-CIFDUS_clean_linker_0
_symmetry_space_group_name_H-M    P1
_symmetry_Int_Tables_number       1
_symmetry_cell_setting            triclinic
loop_
_symmetry_equiv_pos_as_xyz
'x, y, z'
_cell_length_a     49.793777
_cell_length_b     50.399192
_cell_length_c     50.260296
_cell_angle_alpha  90.026303
_cell_angle_beta   90.170518
_cell_angle_gamma 90.030568
loop_
_atom_site_label
_atom_site_type_symbol
_atom_site_fract_x
_atom_site_fract_y
_atom_site_fract_z
_atom_type_partial_charge
Co0 Co 0.24143 0.17024 0.70032 0.0
Co1 Co 0.18648 0.18908 0.68035 0.0
C2 C 0.21198 0.20927 0.73305 0.0
O3 O 0.23315 0.19486 0.73129 0.0
O4 O 0.19319 0.20748 0.71564 0.0
C5 C 0.28077 0.13746 0.67842 0.0
O6 O 0.26371 0.13662 0.65847 0.0
C7 C 0.12758 0.19064 0.68314 0.0
C8 C 0.11698 0.20188 0.64194 0.0
C9 C 0.10587 0.19462 0.66613 0.0
N10 N 0.15033 0.19487 0.6694 0.0
N11 N 0.14384 0.20177 0.64486 0.0
C12 C 0.12695 0.18388 0.71214 0.0
H13 H 0.14527 0.19124 0.72227 0.0
H14 H 0.12631 0.16204 0.71461 0.0
H15 H 0.10892 0.19255 0.72174 0.0
C16 C 0.21448 0.11749 0.69954 0.0
N17 N 0.21464 0.14388 0.69452 0.0
N18 N 0.19209 0.1507 0.68292 0.0
C19 C 0.17719 0.12826 0.67926 0.0
C20 C 0.19105 0.1062 0.68953 0.0
C21 C 0.23432 0.10379 0.71721 0.0
H22 H 0.24577 0.08917 0.70545 0.0
H23 H 0.24817 0.11814 0.72679 0.0
H24 H 0.2235 0.09256 0.73287 0.0
O25 O 0.24882 0.19527 0.67137 0.0
O26 O 0.21054 0.21027 0.65547 0.0
H27 H 0.14852 0.14401 0.65138 0.0
H28 H 0.14727 0.1083 0.65565 0.0
C29 C 0.15033 0.12758 0.66593 0.0
H30 H 0.13437 0.12969 0.6811 0.0
H31 H 0.15776 0.2058 0.62994 0.0
O32 O 0.27523 0.15064 0.69951 0.0
C33 C 0.23614 0.21069 0.65596 0.0
Co34 Co 0.87725 0.72896 0.19993 0.0
Co35 Co 0.85954 0.67493 0.17903 0.0
C36 C 0.83903 0.6972 0.2327 0.0
O37 O 0.85296 0.71859 0.23115 0.0
O38 O 0.84107 0.67928 0.21477 0.0
C39 C 0.90843 0.77146 0.18154 0.0
O40 O 0.91017 0.75693 0.15993 0.0
C41 C 0.85921 0.61707 0.18116 0.0
C42 C 0.84639 0.60637 0.1404 0.0
C43 C 0.85475 0.59557 0.1644 0.0
N44 N 0.85419 0.63943 0.16749 0.0
N45 N 0.84635 0.63293 0.14321 0.0
C46 C 0.86723 0.61657 0.20992 0.0
H47 H 0.85992 0.63445 0.22035 0.0
H48 H 0.88943 0.61642 0.21156 0.0
H49 H 0.85918 0.59862 0.2199 0.0
C50 C 0.93242 0.70452 0.19476 0.0
N51 N 0.90528 0.70381 0.19192 0.0
N52 N 0.89836 0.68143 0.18053 0.0
C53 C 0.92123 0.66758 0.17498 0.0
C54 C 0.94389 0.68188 0.18363 0.0
C55 C 0.9473 0.72492 0.21055 0.0
H56 H 0.93346 0.7371 0.2227 0.0
H57 H 0.96212 0.71512 0.22385 0.0
H58 H 0.95873 0.73765 0.19671 0.0
O59 O 0.85094 0.73722 0.17147 0.0
O60 O 0.8374 0.69898 0.15504 0.0
H61 H 0.94081 0.63876 0.15005 0.0
H62 H 0.9202 0.62523 0.17597 0.0
C63 C 0.9217 0.64136 0.16106 0.0
H64 H 0.90453 0.63974 0.14707 0.0
H65 H 0.84148 0.64662 0.12843 0.0
O66 O 0.89548 0.76313 0.20185 0.0
C67 C 0.83565 0.72423 0.15602 0.0
Co68 Co 0.32388 0.3838 0.70221 0.0
Co69 Co 0.37402 0.36291 0.67605 0.0
C70 C 0.3606 0.3413 0.7282 0.0
O71 O 0.33965 0.35546 0.72585 0.0
O72 O 0.37896 0.3434 0.71092 0.0
C73 C 0.33038 0.41592 0.74186 0.0
O74 O 0.35417 0.40706 0.73497 0.0
C75 C 0.43092 0.35897 0.67004 0.0
C76 C 0.438 0.35679 0.62683 0.0
C77 C 0.45103 0.35904 0.65116 0.0
N78 N 0.40705 0.35685 0.65769 0.0
N79 N 0.41136 0.35519 0.63179 0.0
C80 C 0.43423 0.36202 0.69956 0.0
H81 H 0.43135 0.34236 0.70905 0.0
H82 H 0.41877 0.37569 0.70751 0.0
H83 H 0.45448 0.36927 0.70517 0.0
C84 C 0.34133 0.4344 0.68173 0.0
N85 N 0.34494 0.40794 0.683 0.0
N86 N 0.36977 0.40179 0.67767 0.0
C87 C 0.38343 0.42505 0.67401 0.0
C88 C 0.36577 0.44684 0.67712 0.0
C89 C 0.31438 0.44741 0.68442 0.0
H90 H 0.29818 0.43306 0.67949 0.0
H91 H 0.3113 0.45429 0.70511 0.0
H92 H 0.31301 0.46493 0.67111 0.0
O93 O 0.30305 0.36301 0.67712 0.0
O94 O 0.33975 0.344 0.65965 0.0
H95 H 0.41854 0.41377 0.65246 0.0
H96 H 0.42004 0.447 0.66615 0.0
C97 C 0.41306 0.42644 0.66964 0.0
H98 H 0.42348 0.41861 0.68749 0.0
H99 H 0.39616 0.35449 0.61748 0.0
O100 O 0.30947 0.4073 0.72969 0.0
C101 C 0.31388 0.34568 0.66192 0.0
Co102 Co 0.66691 0.81914 0.18709 0.0
Co103 Co 0.68496 0.87428 0.17314 0.0
C104 C 0.70376 0.85417 0.22386 0.0
O105 O 0.69199 0.83274 0.21682 0.0
O106 O 0.70054 0.87493 0.20992 0.0
C107 C 0.63016 0.80696 0.2214 0.0
O108 O 0.63498 0.83249 0.22396 0.0
C109 C 0.68635 0.93117 0.17323 0.0
C110 C 0.68579 0.94157 0.13057 0.0
C111 C 0.68338 0.95222 0.15588 0.0
N112 N 0.6897 0.9089 0.15896 0.0
N113 N 0.68977 0.91523 0.13343 0.0
C114 C 0.68559 0.93199 0.20304 0.0
H115 H 0.70541 0.92562 0.21087 0.0
H116 H 0.67028 0.91789 0.21053 0.0
H117 H 0.68149 0.95215 0.21082 0.0
C118 C 0.61415 0.83834 0.16757 0.0
N119 N 0.64079 0.84215 0.17136 0.0
N120 N 0.6462 0.86747 0.17091 0.0
C121 C 0.62241 0.88082 0.16837 0.0
C122 C 0.60094 0.86267 0.16648 0.0
C123 C 0.60121 0.81162 0.16471 0.0
H124 H 0.61648 0.79625 0.16014 0.0
H125 H 0.59058 0.80614 0.18325 0.0
H126 H 0.58596 0.81223 0.14856 0.0
O127 O 0.69195 0.80554 0.16073 0.0
O128 O 0.70934 0.84582 0.1545 0.0
H129 H 0.63231 0.91942 0.15392 0.0
H130 H 0.5987 0.91675 0.16717 0.0
C131 C 0.61986 0.91031 0.16971 0.0
H132 H 0.6274 0.91736 0.18922 0.0
H133 H 0.69076 0.90145 0.11799 0.0
O134 O 0.64436 0.79343 0.20529 0.0
C135 C 0.71039 0.8204 0.15138 0.0
Co136 Co 0.24517 0.36489 0.88274 0.0
Co137 Co 0.18658 0.35722 0.87149 0.0
C138 C 0.21937 0.33549 0.83229 0.0
O139 O 0.23847 0.34181 0.84843 0.0
O140 O 0.19575 0.34458 0.83591 0.0
C141 C 0.28126 0.39493 0.8626 0.0
O142 O 0.25986 0.39538 0.8472 0.0
C143 C 0.12746 0.35619 0.8627 0.0
C144 C 0.11368 0.35884 0.90438 0.0
C145 C 0.10455 0.3583 0.87834 0.0
N146 N 0.14907 0.35598 0.87889 0.0
N147 N 0.14061 0.35732 0.90373 0.0
C148 C 0.12878 0.35312 0.8331 0.0
H149 H 0.14589 0.34027 0.82756 0.0
H150 H 0.13174 0.37282 0.82375 0.0
H151 H 0.10994 0.34429 0.82522 0.0
C152 C 0.22827 0.42159 0.89132 0.0
N153 N 0.22247 0.39568 0.88696 0.0
N154 N 0.19842 0.39371 0.87681 0.0
C155 C 0.18879 0.41865 0.87241 0.0
C156 C 0.20765 0.43773 0.88109 0.0
C157 C 0.25165 0.43042 0.90803 0.0
H158 H 0.25799 0.41417 0.92156 0.0
H159 H 0.26901 0.43564 0.89542 0.0
H160 H 0.24616 0.4482 0.91988 0.0
O161 O 0.24234 0.33998 0.91181 0.0
O162 O 0.20493 0.32678 0.89263 0.0
H163 H 0.14757 0.4301 0.87271 0.0
H164 H 0.16569 0.44034 0.84353 0.0
C165 C 0.16304 0.42401 0.85809 0.0
H166 H 0.15602 0.40593 0.84767 0.0
H167 H 0.15333 0.35787 0.92026 0.0
O168 O 0.28198 0.37869 0.88174 0.0
C169 C 0.22558 0.32165 0.90703 0.0
Co170 Co 0.67485 0.72637 0.37471 0.0
Co171 Co 0.69287 0.66967 0.3805 0.0
C172 C 0.71176 0.69558 0.33357 0.0
O173 O 0.7002 0.71586 0.34381 0.0
O174 O 0.70779 0.67269 0.34365 0.0
C175 C 0.63789 0.74483 0.34374 0.0
O176 O 0.64239 0.72008 0.33676 0.0
C177 C 0.69824 0.6114 0.38212 0.0
C178 C 0.69683 0.60436 0.42546 0.0
C179 C 0.69677 0.59146 0.40112 0.0
N180 N 0.69894 0.635 0.39472 0.0
N181 N 0.69864 0.63056 0.42063 0.0
C182 C 0.69557 0.60821 0.35261 0.0
H183 H 0.68741 0.62649 0.34341 0.0
H184 H 0.68234 0.59117 0.34766 0.0
H185 H 0.71571 0.6043 0.34408 0.0
C186 C 0.62183 0.7046 0.39156 0.0
N187 N 0.64842 0.70148 0.38672 0.0
N188 N 0.65399 0.67637 0.38383 0.0
C189 C 0.63042 0.66256 0.38532 0.0
C190 C 0.60868 0.68009 0.38994 0.0
C191 C 0.60972 0.73052 0.39992 0.0
H192 H 0.62548 0.74388 0.40802 0.0
H193 H 0.60018 0.74047 0.38268 0.0
H194 H 0.59402 0.72719 0.4152 0.0
O195 O 0.69993 0.73669 0.40246 0.0
O196 O 0.71835 0.69675 0.3994 0.0
H197 H 0.63074 0.6229 0.40018 0.0
H198 H 0.60888 0.62787 0.37187 0.0
C199 C 0.62851 0.6333 0.38084 0.0
H200 H 0.64478 0.62666 0.3675 0.0
H201 H 0.6979 0.64551 0.43497 0.0
O202 O 0.65296 0.75539 0.36124 0.0
C203 C 0.71975 0.72126 0.40652 0.0
Co204 Co 0.33496 0.16785 0.83766 0.0
Co205 Co 0.38216 0.18286 0.87222 0.0
C206 C 0.37399 0.21297 0.82346 0.0
O207 O 0.35187 0.20064 0.82229 0.0
O208 O 0.39157 0.20581 0.84031 0.0
C209 C 0.34534 0.14788 0.79153 0.0
O210 O 0.36838 0.15372 0.80285 0.0
C211 C 0.43765 0.18321 0.88527 0.0
C212 C 0.44024 0.1897 0.9286 0.0
C213 C 0.4556 0.18492 0.90613 0.0
N214 N 0.41274 0.18676 0.89468 0.0
N215 N 0.4143 0.1909 0.92062 0.0
C216 C 0.44395 0.17787 0.85662 0.0
H217 H 0.44717 0.19708 0.84634 0.0
H218 H 0.42694 0.16752 0.84678 0.0
H219 H 0.46248 0.1659 0.85443 0.0
C220 C 0.35241 0.11283 0.85083 0.0
N221 N 0.35529 0.13947 0.85306 0.0
N222 N 0.37761 0.14496 0.86569 0.0
C223 C 0.39004 0.12156 0.87152 0.0
C224 C 0.37454 0.10019 0.86211 0.0
C225 C 0.32973 0.09973 0.83626 0.0
H226 H 0.31254 0.11353 0.83404 0.0
H227 H 0.33677 0.09342 0.81632 0.0
H228 H 0.32283 0.0818 0.84697 0.0
O229 O 0.3115 0.18441 0.86452 0.0
O230 O 0.34714 0.19942 0.88736 0.0
H231 H 0.41606 0.13361 0.9034 0.0
H232 H 0.41855 0.09889 0.89463 0.0
C233 C 0.4158 0.11926 0.88669 0.0
H234 H 0.43279 0.12381 0.87324 0.0
H235 H 0.39771 0.19376 0.93294 0.0
O236 O 0.32334 0.15241 0.80384 0.0
C237 C 0.32155 0.19891 0.88304 0.0
Co238 Co 0.87543 0.83009 0.34337 0.0
Co239 Co 0.86029 0.8789 0.37404 0.0
C240 C 0.83024 0.86756 0.32513 0.0
O241 O 0.84254 0.84563 0.32589 0.0
O242 O 0.83772 0.88601 0.34071 0.0
C243 C 0.89623 0.83803 0.29728 0.0
O244 O 0.89139 0.86133 0.30791 0.0
C245 C 0.85859 0.93474 0.38095 0.0
C246 C 0.85297 0.94208 0.42381 0.0
C247 C 0.85626 0.95475 0.39951 0.0
N248 N 0.85633 0.91125 0.3933 0.0
N249 N 0.8529 0.91565 0.41901 0.0
C250 C 0.86577 0.93783 0.35218 0.0
H251 H 0.87672 0.92009 0.34495 0.0
H252 H 0.8784 0.95572 0.3491 0.0
H253 H 0.84709 0.94015 0.34032 0.0
C254 C 0.93127 0.84606 0.35956 0.0
N255 N 0.90441 0.8504 0.35864 0.0
N256 N 0.89892 0.87314 0.36988 0.0
C257 C 0.92255 0.88435 0.37806 0.0
C258 C 0.94421 0.86752 0.37171 0.0
C259 C 0.9446 0.82149 0.34924 0.0
H260 H 0.93075 0.80938 0.33708 0.0
H261 H 0.96263 0.82685 0.33746 0.0
H262 H 0.9512 0.80904 0.3662 0.0
O263 O 0.85748 0.80889 0.37106 0.0
O264 O 0.84186 0.84569 0.39081 0.0
H265 H 0.90981 0.90889 0.41038 0.0
H266 H 0.94482 0.91287 0.40158 0.0
C267 C 0.92427 0.90955 0.39366 0.0
H268 H 0.91863 0.92643 0.38064 0.0
H269 H 0.85109 0.90072 0.43329 0.0
O270 O 0.89089 0.81687 0.3103 0.0
C271 C 0.84205 0.82016 0.38808 0.0
Co272 Co 0.70602 0.23402 0.17146 0.0
Co273 Co 0.68275 0.18176 0.1896 0.0
C274 C 0.73404 0.19845 0.21375 0.0
O275 O 0.73137 0.22016 0.20096 0.0
O276 O 0.71779 0.17949 0.20932 0.0
C277 C 0.74427 0.23833 0.13833 0.0
O278 O 0.74474 0.21415 0.14813 0.0
C279 C 0.67802 0.12502 0.19436 0.0
C280 C 0.63566 0.11767 0.18374 0.0
C281 C 0.66014 0.10511 0.18745 0.0
N282 N 0.66506 0.14839 0.19383 0.0
N283 N 0.63953 0.14383 0.18812 0.0
C284 C 0.70741 0.12206 0.20012 0.0
H285 H 0.71925 0.13255 0.1847 0.0
H286 H 0.71362 0.10096 0.20106 0.0
H287 H 0.71194 0.1312 0.21969 0.0
C288 C 0.68993 0.21426 0.11827 0.0
N289 N 0.69085 0.21126 0.14502 0.0
N290 N 0.68616 0.18659 0.15123 0.0
C291 C 0.68378 0.17256 0.12809 0.0
C292 C 0.68667 0.1897 0.10616 0.0
C293 C 0.68945 0.24061 0.10445 0.0
H294 H 0.68594 0.25691 0.11887 0.0
H295 H 0.70863 0.24406 0.09395 0.0
H296 H 0.67331 0.24073 0.08916 0.0
O297 O 0.67732 0.25096 0.1907 0.0
O298 O 0.66277 0.21305 0.20866 0.0
H299 H 0.66005 0.13773 0.13324 0.0
H300 H 0.68432 0.13532 0.10666 0.0
C301 C 0.68065 0.14316 0.12694 0.0
H302 H 0.69508 0.13405 0.14098 0.0
H303 H 0.62532 0.15869 0.18494 0.0
O304 O 0.72897 0.25561 0.14895 0.0
C305 C 0.66254 0.23864 0.20731 0.0
Co306 Co 0.82237 0.19575 0.67677 0.0
Co307 Co 0.87686 0.17694 0.69431 0.0
C308 C 0.85667 0.22571 0.7194 0.0
O309 O 0.83492 0.2214 0.7066 0.0
O310 O 0.87712 0.21132 0.71464 0.0
C311 C 0.81757 0.23359 0.64434 0.0
O312 O 0.84156 0.23438 0.6553 0.0
C313 C 0.9346 0.17261 0.70101 0.0
C314 C 0.94186 0.12948 0.69816 0.0
C315 C 0.95485 0.15375 0.69989 0.0
N316 N 0.9108 0.16014 0.69949 0.0
N317 N 0.91522 0.13432 0.69808 0.0
C318 C 0.93746 0.20202 0.70445 0.0
H319 H 0.92727 0.20797 0.72308 0.0
H320 H 0.92738 0.21241 0.68773 0.0
H321 H 0.95868 0.20843 0.70602 0.0
C322 C 0.84259 0.18038 0.62394 0.0
N323 N 0.84627 0.18152 0.65054 0.0
N324 N 0.87182 0.18016 0.65606 0.0
C325 C 0.88556 0.18009 0.63256 0.0
C326 C 0.86727 0.1807 0.61104 0.0
C327 C 0.81559 0.17797 0.61085 0.0
H328 H 0.80003 0.17252 0.62565 0.0
H329 H 0.80989 0.19686 0.60119 0.0
H330 H 0.81641 0.16264 0.59501 0.0
O331 O 0.80632 0.16676 0.69582 0.0
O332 O 0.84625 0.15529 0.71251 0.0
H333 H 0.9242 0.16428 0.64213 0.0
H334 H 0.92235 0.18016 0.60979 0.0
C335 C 0.91549 0.18107 0.63076 0.0
H336 H 0.92282 0.1997 0.64003 0.0
H337 H 0.90014 0.12012 0.696 0.0
O338 O 0.79999 0.21784 0.65386 0.0
C339 C 0.82044 0.15299 0.71189 0.0
Co340 Co 0.88283 0.31208 0.17311 0.0
Co341 Co 0.8866 0.36893 0.19161 0.0
C342 C 0.8398 0.34048 0.20969 0.0
O343 O 0.84977 0.32033 0.19751 0.0
O344 O 0.85062 0.36321 0.20706 0.0
C345 C 0.85834 0.2884 0.13352 0.0
O346 O 0.84685 0.31176 0.13599 0.0
C347 C 0.88339 0.42651 0.19929 0.0
C348 C 0.92633 0.43765 0.199 0.0
C349 C 0.90065 0.44817 0.19969 0.0
N350 N 0.89825 0.40432 0.1978 0.0
N351 N 0.92388 0.41108 0.19799 0.0
C352 C 0.85337 0.4266 0.2011 0.0
H353 H 0.84686 0.41208 0.2163 0.0
H354 H 0.84466 0.42047 0.18171 0.0
H355 H 0.84548 0.44636 0.20681 0.0
C356 C 0.89793 0.33645 0.12058 0.0
N357 N 0.89335 0.33836 0.14712 0.0
N358 N 0.88789 0.36296 0.15318 0.0
C359 C 0.88609 0.37708 0.13007 0.0
C360 C 0.89203 0.36058 0.10822 0.0
C361 C 0.90821 0.3119 0.10714 0.0
H362 H 0.91143 0.29559 0.12154 0.0
H363 H 0.89427 0.30576 0.09099 0.0
H364 H 0.92798 0.31608 0.09803 0.0
O365 O 0.9115 0.30396 0.19786 0.0
O366 O 0.90974 0.34419 0.21544 0.0
H367 H 0.89206 0.4171 0.14298 0.0
H368 H 0.88181 0.41398 0.10852 0.0
C369 C 0.87917 0.4059 0.12889 0.0
H370 H 0.858 0.40859 0.13514 0.0
H371 H 0.93969 0.39758 0.19647 0.0
O372 O 0.87451 0.28085 0.15152 0.0
C373 C 0.9177 0.31997 0.2164 0.0
Co374 Co 0.74675 0.36759 0.67172 0.0
Co375 Co 0.68794 0.37052 0.68798 0.0
C376 C 0.71848 0.32482 0.70803 0.0
O377 O 0.73894 0.33429 0.69567 0.0
O378 O 0.69554 0.33568 0.70516 0.0
C379 C 0.77232 0.34547 0.6323 0.0
O380 O 0.74902 0.3333 0.6343 0.0
C381 C 0.62937 0.36311 0.68939 0.0
C382 C 0.61575 0.40427 0.68276 0.0
C383 C 0.60667 0.37827 0.68372 0.0
N384 N 0.65079 0.3794 0.69068 0.0
N385 N 0.64239 0.404 0.68721 0.0
C386 C 0.6309 0.33381 0.6941 0.0
H387 H 0.64566 0.32955 0.71006 0.0
H388 H 0.63768 0.3237 0.67572 0.0
H389 H 0.61114 0.3257 0.7002 0.0
C390 C 0.72352 0.3839 0.61881 0.0
N391 N 0.72088 0.37778 0.64498 0.0
N392 N 0.69582 0.37204 0.64995 0.0
C393 C 0.68219 0.37167 0.62635 0.0
C394 C 0.69948 0.37896 0.60552 0.0
C395 C 0.74848 0.3951 0.60652 0.0
H396 H 0.75592 0.38154 0.59078 0.0
H397 H 0.74379 0.4143 0.59685 0.0
H398 H 0.7642 0.39888 0.62169 0.0
O399 O 0.75238 0.39604 0.69684 0.0
O400 O 0.71047 0.39597 0.71187 0.0
H401 H 0.64116 0.38205 0.63236 0.0
H402 H 0.64698 0.3629 0.60263 0.0
C403 C 0.65295 0.3655 0.62376 0.0
H404 H 0.64822 0.34726 0.63511 0.0
H405 H 0.65509 0.42043 0.68619 0.0
O406 O 0.77935 0.36112 0.65083 0.0
C407 C 0.73506 0.40368 0.7137 0.0
Co408 Co 0.7113 0.30435 0.37776 0.0
Co409 Co 0.68942 0.35954 0.36397 0.0
C410 C 0.74039 0.3389 0.33757 0.0
O411 O 0.73835 0.31667 0.34969 0.0
O412 O 0.72417 0.35783 0.34284 0.0
C413 C 0.70908 0.2526 0.40583 0.0
O414 O 0.68449 0.25736 0.41389 0.0
C415 C 0.69208 0.4171 0.36408 0.0
C416 C 0.64969 0.42924 0.35985 0.0
C417 C 0.67548 0.43914 0.36309 0.0
N418 N 0.67691 0.39522 0.36138 0.0
N419 N 0.65157 0.40257 0.35863 0.0
C420 C 0.72153 0.41656 0.37006 0.0
H421 H 0.72709 0.39754 0.37974 0.0
H422 H 0.72729 0.43342 0.38311 0.0
H423 H 0.73283 0.41826 0.35114 0.0
C424 C 0.70851 0.3257 0.43368 0.0
N425 N 0.70545 0.32826 0.40701 0.0
N426 N 0.69376 0.351 0.40184 0.0
C427 C 0.68815 0.36322 0.4254 0.0
C428 C 0.69714 0.34746 0.44674 0.0
C429 C 0.72381 0.30362 0.44655 0.0
H430 H 0.70974 0.28739 0.45162 0.0
H431 H 0.7394 0.29594 0.43286 0.0
H432 H 0.73357 0.31049 0.46521 0.0
O433 O 0.6786 0.29604 0.35783 0.0
O434 O 0.66436 0.33497 0.34318 0.0
H435 H 0.65698 0.38947 0.41227 0.0
H436 H 0.66416 0.39131 0.44752 0.0
C437 C 0.67311 0.3888 0.42749 0.0
H438 H 0.68712 0.4055 0.42369 0.0
H439 H 0.63554 0.3894 0.35668 0.0
O440 O 0.72188 0.26979 0.3921 0.0
C441 C 0.66303 0.30963 0.34318 0.0
Co442 Co 0.75394 0.18768 0.87201 0.0
Co443 Co 0.69302 0.18562 0.86743 0.0
C444 C 0.71799 0.22744 0.83758 0.0
O445 O 0.74034 0.21644 0.84425 0.0
O446 O 0.69622 0.21991 0.84853 0.0
C447 C 0.80313 0.20993 0.8928 0.0
O448 O 0.78977 0.2135 0.91493 0.0
C449 C 0.63362 0.18915 0.87101 0.0
C450 C 0.6244 0.14907 0.88628 0.0
C451 C 0.6128 0.17347 0.88081 0.0
N452 N 0.65644 0.17482 0.8716 0.0
N453 N 0.65064 0.15079 0.88033 0.0
C454 C 0.63204 0.21697 0.86072 0.0
H455 H 0.61141 0.22186 0.85395 0.0
H456 H 0.64591 0.21948 0.84371 0.0
H457 H 0.63819 0.23097 0.87666 0.0
C458 C 0.74041 0.18176 0.93176 0.0
N459 N 0.73445 0.18526 0.90555 0.0
N460 N 0.70828 0.18732 0.90313 0.0
C461 C 0.69711 0.18782 0.92778 0.0
C462 C 0.71707 0.18433 0.94709 0.0
C463 C 0.76629 0.17021 0.94172 0.0
H464 H 0.77906 0.16363 0.9249 0.0
H465 H 0.77729 0.18493 0.954 0.0
H466 H 0.76201 0.15296 0.95478 0.0
O467 O 0.75236 0.15394 0.85408 0.0
O468 O 0.71066 0.15999 0.84071 0.0
H469 H 0.65691 0.17394 0.93254 0.0
H470 H 0.66504 0.20247 0.95257 0.0
C471 C 0.66801 0.19301 0.93286 0.0
H472 H 0.65973 0.20617 0.91722 0.0
H473 H 0.66488 0.13589 0.88335 0.0
O474 O 0.79317 0.1945 0.87548 0.0
C475 C 0.73355 0.14879 0.83793 0.0
Co476 Co 0.86964 0.24226 0.38174 0.0
Co477 Co 0.88071 0.18345 0.36724 0.0
C478 C 0.83555 0.20803 0.34051 0.0
O479 O 0.84348 0.22927 0.35223 0.0
O480 O 0.8462 0.18584 0.34658 0.0
C481 C 0.83887 0.28271 0.41034 0.0
O482 O 0.8364 0.3053 0.42312 0.0
C483 C 0.88102 0.12497 0.3671 0.0
C484 C 0.9242 0.11692 0.37328 0.0
C485 C 0.89926 0.1047 0.37233 0.0
N486 N 0.8946 0.14805 0.36565 0.0
N487 N 0.92045 0.14297 0.36872 0.0
C488 C 0.85098 0.12313 0.36716 0.0
H489 H 0.8419 0.14256 0.37216 0.0
H490 H 0.84404 0.10806 0.38169 0.0
H491 H 0.84397 0.11717 0.34706 0.0
C492 C 0.87695 0.22146 0.43756 0.0
N493 N 0.87517 0.2181 0.41081 0.0
N494 N 0.87766 0.19282 0.40514 0.0
C495 C 0.87969 0.17915 0.42845 0.0
C496 C 0.8795 0.19681 0.45013 0.0
C497 C 0.87937 0.24803 0.45067 0.0
H498 H 0.8887 0.26251 0.43691 0.0
H499 H 0.85912 0.2552 0.45627 0.0
H500 H 0.89185 0.24677 0.46896 0.0
O501 O 0.90263 0.24834 0.36197 0.0
O502 O 0.90531 0.20785 0.34505 0.0
H503 H 0.90001 0.14199 0.42445 0.0
H504 H 0.87469 0.14234 0.45023 0.0
C505 C 0.87989 0.14953 0.43007 0.0
H506 H 0.86483 0.14142 0.41613 0.0
H507 H 0.93534 0.15752 0.36947 0.0
O508 O 0.86034 0.27773 0.39765 0.0
C509 C 0.91209 0.23242 0.3448 0.0
Co510 Co 0.80491 0.36624 0.8809 0.0
Co511 Co 0.86484 0.37379 0.86901 0.0
C512 C 0.8372 0.32975 0.84195 0.0
O513 O 0.8153 0.3388 0.85178 0.0
O514 O 0.85962 0.33921 0.84968 0.0
C515 C 0.75369 0.34187 0.88788 0.0
O516 O 0.72768 0.34106 0.89201 0.0
C517 C 0.92308 0.36626 0.87232 0.0
C518 C 0.93851 0.40502 0.85863 0.0
C519 C 0.9466 0.38032 0.86773 0.0
N520 N 0.9021 0.38207 0.86651 0.0
N521 N 0.91146 0.40518 0.85826 0.0
C522 C 0.9205 0.33783 0.88066 0.0
H523 H 0.90038 0.32989 0.87582 0.0
H524 H 0.92324 0.33619 0.90247 0.0
H525 H 0.93618 0.32559 0.87091 0.0
C526 C 0.82457 0.36854 0.93837 0.0
N527 N 0.82853 0.36857 0.91162 0.0
N528 N 0.85405 0.37311 0.90677 0.0
C529 C 0.86702 0.37645 0.93049 0.0
C530 C 0.84896 0.3733 0.95172 0.0
C531 C 0.79767 0.36458 0.95107 0.0
H532 H 0.79971 0.35341 0.96999 0.0
H533 H 0.78867 0.38424 0.95538 0.0
H534 H 0.78371 0.35391 0.93778 0.0
O535 O 0.80325 0.39967 0.86152 0.0
O536 O 0.84408 0.39912 0.84472 0.0
H537 H 0.90113 0.39801 0.91572 0.0
H538 H 0.89857 0.39717 0.95143 0.0
C539 C 0.89554 0.38551 0.93293 0.0
H540 H 0.90895 0.368 0.93367 0.0
H541 H 0.89939 0.42104 0.8524 0.0
O542 O 0.76657 0.36317 0.89175 0.0
C543 C 0.8198 0.40737 0.84406 0.0
Co544 Co 0.17449 0.68754 0.22811 0.0
Co545 Co 0.19118 0.67426 0.17244 0.0
C546 C 0.21007 0.72457 0.19262 0.0
O547 O 0.20031 0.71748 0.21504 0.0
O548 O 0.20478 0.71107 0.17195 0.0
C549 C 0.1376 0.71995 0.24371 0.0
O550 O 0.14184 0.72522 0.21845 0.0
C551 C 0.19534 0.67474 0.11465 0.0
C552 C 0.19231 0.63235 0.10408 0.0
C553 C 0.19258 0.65763 0.09322 0.0
N554 N 0.19597 0.66037 0.13721 0.0
N555 N 0.19456 0.63498 0.13072 0.0
C556 C 0.19776 0.70438 0.11375 0.0
H557 H 0.21664 0.71038 0.12385 0.0
H558 H 0.18068 0.71353 0.12449 0.0
H559 H 0.19856 0.71209 0.09313 0.0
C560 C 0.12022 0.66923 0.20835 0.0
N561 N 0.14708 0.67287 0.20503 0.0
N562 N 0.15269 0.67252 0.17969 0.0
C563 C 0.12909 0.67104 0.16593 0.0
C564 C 0.10735 0.66892 0.1837 0.0
C565 C 0.10649 0.66697 0.23472 0.0
H566 H 0.12124 0.66501 0.25116 0.0
H567 H 0.09335 0.68445 0.23792 0.0
H568 H 0.09333 0.6492 0.23475 0.0
O569 O 0.19873 0.66044 0.24096 0.0
O570 O 0.21689 0.65634 0.20078 0.0
H571 H 0.13893 0.656 0.12745 0.0
H572 H 0.10606 0.67108 0.12934 0.0
C573 C 0.12719 0.67247 0.13628 0.0
H574 H 0.13614 0.69138 0.12932 0.0
H575 H 0.19362 0.61956 0.1445 0.0
O576 O 0.15311 0.70381 0.25565 0.0
C577 C 0.21779 0.65243 0.22618 0.0
Co578 Co 0.17077 0.86514 0.32705 0.0
Co579 Co 0.1901 0.87893 0.3822 0.0
C580 C 0.20898 0.82863 0.3607 0.0
O581 O 0.19634 0.83541 0.33958 0.0
O582 O 0.20614 0.84238 0.38173 0.0
C583 C 0.13124 0.8338 0.31248 0.0
O584 O 0.1348 0.82901 0.33796 0.0
C585 C 0.19522 0.8797 0.43986 0.0
C586 C 0.20207 0.92204 0.44899 0.0
C587 C 0.1982 0.89747 0.46079 0.0
N588 N 0.1968 0.8932 0.41685 0.0
N589 N 0.20109 0.91849 0.4224 0.0
C590 C 0.1925 0.85011 0.44128 0.0
H591 H 0.21061 0.84096 0.43238 0.0
H592 H 0.1749 0.84363 0.42934 0.0
H593 H 0.19084 0.84266 0.46191 0.0
C594 C 0.11881 0.88611 0.3471 0.0
N595 N 0.14517 0.88048 0.35074 0.0
N596 N 0.151 0.88086 0.37609 0.0
C597 C 0.12755 0.88472 0.38967 0.0
C598 C 0.10605 0.88789 0.37158 0.0
C599 C 0.10571 0.88979 0.32046 0.0
H600 H 0.1208 0.89032 0.30431 0.0
H601 H 0.09092 0.87367 0.31694 0.0
H602 H 0.09451 0.90878 0.32005 0.0
O603 O 0.19486 0.89196 0.31341 0.0
O604 O 0.21347 0.89823 0.35326 0.0
H605 H 0.14055 0.90069 0.42697 0.0
H606 H 0.10522 0.89193 0.42575 0.0
C607 C 0.1257 0.88614 0.4193 0.0
H608 H 0.13077 0.86648 0.42785 0.0
H609 H 0.20267 0.93337 0.40811 0.0
O610 O 0.14779 0.84882 0.30048 0.0
C611 C 0.21356 0.90162 0.3278 0.0
Co612 Co 0.2144 0.66247 0.80394 0.0
Co613 Co 0.18906 0.68037 0.8568 0.0
C614 C 0.24265 0.70419 0.83626 0.0
O615 O 0.24333 0.68925 0.81562 0.0
O616 O 0.22359 0.70164 0.85305 0.0
C617 C 0.20947 0.63086 0.75403 0.0
O618 O 0.18462 0.6244 0.7598 0.0
C619 C 0.19222 0.67925 0.91458 0.0
C620 C 0.15052 0.68727 0.92698 0.0
C621 C 0.17561 0.68016 0.93672 0.0
N622 N 0.17747 0.68472 0.8928 0.0
N623 N 0.15262 0.68989 0.90036 0.0
C624 C 0.22171 0.67333 0.91394 0.0
H625 H 0.23171 0.68527 0.89843 0.0
H626 H 0.22482 0.65211 0.90899 0.0
H627 H 0.23133 0.67772 0.93339 0.0
C628 C 0.20959 0.60828 0.82941 0.0
N629 N 0.20642 0.63504 0.82946 0.0
N630 N 0.19323 0.64208 0.85089 0.0
C631 C 0.18658 0.61969 0.86459 0.0
C632 C 0.19688 0.59721 0.85158 0.0
C633 C 0.22336 0.59339 0.80764 0.0
H634 H 0.20825 0.58774 0.79244 0.0
H635 H 0.23901 0.60601 0.79845 0.0
H636 H 0.23281 0.57493 0.81494 0.0
O637 O 0.18341 0.68476 0.79426 0.0
O638 O 0.16361 0.69894 0.83092 0.0
H639 H 0.15541 0.63526 0.88951 0.0
H640 H 0.16179 0.60026 0.89419 0.0
C641 C 0.17117 0.61975 0.89012 0.0
H642 H 0.18506 0.62415 0.9068 0.0
H643 H 0.13692 0.69413 0.88732 0.0
O644 O 0.22336 0.64522 0.76998 0.0
C645 C 0.1656 0.69883 0.80555 0.0
Co646 Co 0.37779 0.70045 0.33527 0.0
Co647 Co 0.35977 0.67652 0.38639 0.0
C648 C 0.33618 0.72788 0.37177 0.0
O649 O 0.34874 0.72523 0.34991 0.0
O650 O 0.34095 0.71177 0.39066 0.0
C651 C 0.41262 0.73938 0.33214 0.0
O652 O 0.40573 0.73901 0.35736 0.0
C653 C 0.35631 0.67024 0.44302 0.0
C654 C 0.34555 0.6282 0.44926 0.0
C655 C 0.35169 0.65152 0.46266 0.0
N656 N 0.35338 0.65856 0.41917 0.0
N657 N 0.34686 0.63342 0.42293 0.0
C658 C 0.36144 0.69937 0.44643 0.0
H659 H 0.34212 0.7101 0.44416 0.0
H660 H 0.37523 0.70656 0.4307 0.0
H661 H 0.36969 0.70441 0.46623 0.0
C662 C 0.43137 0.68176 0.35292 0.0
N663 N 0.40458 0.68371 0.35694 0.0
N664 N 0.399 0.67796 0.38161 0.0
C665 C 0.42285 0.67379 0.39465 0.0
C666 C 0.44457 0.67646 0.37677 0.0
C667 C 0.44441 0.68353 0.32615 0.0
H668 H 0.42927 0.6818 0.31 0.0
H669 H 0.45531 0.70256 0.32422 0.0
H670 H 0.4595 0.66745 0.32406 0.0
O671 O 0.35695 0.67397 0.31603 0.0
O672 O 0.33906 0.65928 0.35395 0.0
H673 H 0.4456 0.66171 0.42922 0.0
H674 H 0.42063 0.68698 0.43492 0.0
C675 C 0.4251 0.66849 0.42381 0.0
H676 H 0.41017 0.65328 0.42972 0.0
H677 H 0.34359 0.61981 0.40762 0.0
O678 O 0.40031 0.7245 0.31553 0.0
C679 C 0.33951 0.65996 0.32822 0.0
Co680 Co 0.38476 0.87037 0.8059 0.0
Co681 Co 0.38501 0.85721 0.8658 0.0
C682 C 0.34366 0.83145 0.83353 0.0
O683 O 0.35546 0.84178 0.81336 0.0
O684 O 0.35039 0.83857 0.85699 0.0
C685 C 0.36172 0.89097 0.75492 0.0
O686 O 0.36525 0.89756 0.72988 0.0
C687 C 0.37616 0.85589 0.92422 0.0
C688 C 0.41785 0.85108 0.93859 0.0
C689 C 0.39167 0.85438 0.9472 0.0
N690 N 0.39257 0.85406 0.90302 0.0
N691 N 0.41741 0.85099 0.91183 0.0
C692 C 0.34619 0.85787 0.92252 0.0
H693 H 0.33672 0.84761 0.93963 0.0
H694 H 0.33868 0.84914 0.90374 0.0
H695 H 0.34008 0.87899 0.92307 0.0
C696 C 0.38774 0.92679 0.82671 0.0
N697 N 0.38752 0.90011 0.83035 0.0
N698 N 0.38606 0.89485 0.85588 0.0
C699 C 0.38494 0.9183 0.86926 0.0
C700 C 0.38588 0.93956 0.85129 0.0
C701 C 0.38701 0.93975 0.79994 0.0
H702 H 0.39999 0.9287 0.78589 0.0
H703 H 0.36613 0.93936 0.79222 0.0
H704 H 0.39368 0.96071 0.80094 0.0
O705 O 0.4179 0.85027 0.80627 0.0
O706 O 0.41166 0.83337 0.84629 0.0
H707 H 0.38752 0.94111 0.90561 0.0
H708 H 0.3621 0.91566 0.90493 0.0
C709 C 0.38284 0.92065 0.89883 0.0
H710 H 0.39688 0.90663 0.90855 0.0
H711 H 0.43416 0.84928 0.89952 0.0
O712 O 0.38195 0.88314 0.76832 0.0
C713 C 0.4229 0.83252 0.82344 0.0
Co714 Co 0.37701 0.86283 0.22447 0.0
Co715 Co 0.35368 0.87683 0.17089 0.0
C716 C 0.33634 0.8265 0.19419 0.0
O717 O 0.35108 0.83281 0.21409 0.0
O718 O 0.33696 0.84071 0.17327 0.0
C719 C 0.41809 0.83116 0.23598 0.0
O720 O 0.41281 0.82555 0.21095 0.0
C721 C 0.34312 0.87757 0.11392 0.0
C722 C 0.34575 0.92021 0.10427 0.0
C723 C 0.34374 0.89527 0.0928 0.0
N724 N 0.34532 0.89132 0.13675 0.0
N725 N 0.34642 0.91686 0.13089 0.0
C726 C 0.34052 0.84797 0.11263 0.0
H727 H 0.32283 0.84179 0.12444 0.0
H728 H 0.35853 0.83856 0.12161 0.0
H729 H 0.33763 0.84073 0.09199 0.0
C730 C 0.42732 0.88221 0.20064 0.0
N731 N 0.40058 0.87782 0.1989 0.0
N732 N 0.393 0.87778 0.17406 0.0
C733 C 0.41554 0.8802 0.15879 0.0
C734 C 0.43851 0.88252 0.17528 0.0
C735 C 0.44136 0.88933 0.22615 0.0
H736 H 0.42655 0.89553 0.2414 0.0
H737 H 0.45284 0.87224 0.234 0.0
H738 H 0.45587 0.90567 0.2226 0.0
O739 O 0.35364 0.88963 0.23982 0.0
O740 O 0.33319 0.89703 0.20106 0.0
H741 H 0.4124 0.89963 0.12124 0.0
H742 H 0.43446 0.87126 0.12129 0.0
C743 C 0.41527 0.87925 0.12907 0.0
H744 H 0.39842 0.86677 0.12196 0.0
H745 H 0.34918 0.93186 0.14492 0.0
O746 O 0.40249 0.8467 0.24866 0.0
C747 C 0.33455 0.90007 0.22652 0.0
Co748 Co 0.1846 0.87831 0.74923 0.0
Co749 Co 0.17603 0.86375 0.69062 0.0
C750 C 0.22471 0.8435 0.71602 0.0
O751 O 0.21569 0.85234 0.73829 0.0
O752 O 0.21308 0.84952 0.6942 0.0
C753 C 0.20878 0.90093 0.79813 0.0
O754 O 0.20621 0.90889 0.82289 0.0
C755 C 0.17761 0.86024 0.63179 0.0
C756 C 0.1343 0.86155 0.62218 0.0
C757 C 0.15954 0.8613 0.61064 0.0
N758 N 0.16361 0.86048 0.65468 0.0
N759 N 0.13775 0.86096 0.64873 0.0
C760 C 0.20755 0.85768 0.63048 0.0
H761 H 0.2143 0.84196 0.64437 0.0
H762 H 0.21702 0.87658 0.6368 0.0
H763 H 0.21442 0.85243 0.61019 0.0
C764 C 0.17673 0.93412 0.72831 0.0
N765 N 0.17698 0.90732 0.72534 0.0
N766 N 0.17473 0.90144 0.70002 0.0
C767 C 0.1741 0.92453 0.68599 0.0
C768 C 0.17518 0.94625 0.70343 0.0
C769 C 0.18035 0.94804 0.75439 0.0
H770 H 0.16889 0.93762 0.7701 0.0
H771 H 0.20192 0.94797 0.75993 0.0
H772 H 0.17353 0.96895 0.75324 0.0
O773 O 0.15348 0.85561 0.75341 0.0
O774 O 0.15444 0.83723 0.71363 0.0
H775 H 0.15617 0.9149 0.64853 0.0
H776 H 0.17282 0.94675 0.64915 0.0
C777 C 0.17379 0.92593 0.65628 0.0
H778 H 0.19215 0.91637 0.64839 0.0
H779 H 0.12245 0.86169 0.66286 0.0
O780 O 0.18814 0.89276 0.7858 0.0
C781 C 0.14689 0.83685 0.73795 0.0
Co782 Co 0.35785 0.67443 0.75308 0.0
Co783 Co 0.36828 0.68721 0.69338 0.0
C784 C 0.32441 0.71618 0.71923 0.0
O785 O 0.332 0.70434 0.74051 0.0
O786 O 0.33526 0.71028 0.69701 0.0
C787 C 0.32878 0.64328 0.79257 0.0
O788 O 0.32587 0.63142 0.81563 0.0
C789 C 0.3692 0.6885 0.6341 0.0
C790 C 0.41223 0.68044 0.62718 0.0
C791 C 0.38794 0.68382 0.61414 0.0
N792 N 0.38189 0.6873 0.6578 0.0
N793 N 0.40762 0.68275 0.65341 0.0
C794 C 0.33998 0.69473 0.63079 0.0
H795 H 0.33327 0.70846 0.64663 0.0
H796 H 0.32806 0.67621 0.63238 0.0
H797 H 0.33604 0.70388 0.61108 0.0
C798 C 0.3642 0.61876 0.73323 0.0
N799 N 0.36213 0.6452 0.72906 0.0
N800 N 0.36321 0.64997 0.70344 0.0
C801 C 0.36396 0.62625 0.69039 0.0
C802 C 0.36441 0.60534 0.70888 0.0
C803 C 0.37138 0.60684 0.75964 0.0
H804 H 0.38076 0.62196 0.77275 0.0
H805 H 0.35326 0.59892 0.76949 0.0
H806 H 0.3856 0.59009 0.75695 0.0
O807 O 0.39184 0.69238 0.75789 0.0
O808 O 0.39625 0.70665 0.71643 0.0
H809 H 0.38432 0.62632 0.65309 0.0
H810 H 0.35606 0.60388 0.65452 0.0
C811 C 0.36364 0.62362 0.66078 0.0
H812 H 0.35066 0.63917 0.65204 0.0
H813 H 0.42193 0.68042 0.66843 0.0
O814 O 0.34825 0.65929 0.78903 0.0
C815 C 0.4036 0.70691 0.7409 0.0
H816 H 0.32696 0.29534 0.64465 0.0
H817 H 0.25945 0.34785 0.65538 0.0
H818 H 0.2285 0.3109 0.64929 0.0
H819 H 0.22069 0.26247 0.64894 0.0
H820 H 0.28813 0.20979 0.6394 0.0
H821 H 0.31851 0.24767 0.63628 0.0
C822 C 0.30549 0.2989 0.6448 0.0
C823 C 0.29578 0.32452 0.65084 0.0
C824 C 0.28753 0.27727 0.64174 0.0
C825 C 0.26773 0.32845 0.65107 0.0
C826 C 0.24987 0.30721 0.64767 0.0
C827 C 0.24185 0.25928 0.64503 0.0
C828 C 0.25197 0.23315 0.64444 0.0
C829 C 0.25951 0.28131 0.64411 0.0
C830 C 0.27966 0.22959 0.63988 0.0
C831 C 0.29717 0.25132 0.63838 0.0
H832 H 0.82911 0.77775 0.1485 0.0
H833 H 0.7876 0.70314 0.13933 0.0
H834 H 0.74514 0.72674 0.13333 0.0
H835 H 0.71882 0.76814 0.13786 0.0
H836 H 0.76046 0.84273 0.14701 0.0
H837 H 0.80352 0.81965 0.1454 0.0
C838 C 0.81092 0.7666 0.14444 0.0
C839 C 0.81178 0.73851 0.14462 0.0
C840 C 0.78634 0.78036 0.14136 0.0
C841 C 0.78784 0.72462 0.13922 0.0
C842 C 0.76337 0.73818 0.13606 0.0
C843 C 0.73729 0.77951 0.13878 0.0
C844 C 0.73609 0.80731 0.14281 0.0
C845 C 0.76221 0.76599 0.13814 0.0
C846 C 0.76046 0.82147 0.14384 0.0
C847 C 0.78523 0.80819 0.14316 0.0
H848 H 0.27123 0.30308 0.93144 0.0
H849 H 0.20311 0.27685 0.88507 0.0
H850 H 0.22572 0.2349 0.87598 0.0
H851 H 0.26756 0.20849 0.87538 0.0
H852 H 0.33598 0.23541 0.92096 0.0
H853 H 0.31049 0.27378 0.93616 0.0
C854 C 0.2609 0.28793 0.91998 0.0
C855 C 0.23541 0.29354 0.90884 0.0
C856 C 0.27437 0.26393 0.9142 0.0
C857 C 0.22259 0.27339 0.89406 0.0
C858 C 0.2357 0.24936 0.88855 0.0
C859 C 0.27678 0.22238 0.88912 0.0
C860 C 0.30397 0.21894 0.89666 0.0
C861 C 0.26203 0.24483 0.89762 0.0
C862 C 0.31529 0.23735 0.91458 0.0
C863 C 0.30069 0.25949 0.92326 0.0
H864 H 0.83644 0.76571 0.38939 0.0
H865 H 0.79788 0.83794 0.41517 0.0
H866 H 0.7577 0.81299 0.42699 0.0
H867 H 0.73103 0.7718 0.42391 0.0
H868 H 0.76956 0.69944 0.39854 0.0
H869 H 0.81197 0.72313 0.39335 0.0
C870 C 0.81952 0.77598 0.39817 0.0
C871 C 0.82038 0.80391 0.401 0.0
C872 C 0.79615 0.76144 0.40488 0.0
C873 C 0.79809 0.8166 0.41261 0.0
C874 C 0.77488 0.8023 0.41927 0.0
C875 C 0.74885 0.76096 0.41799 0.0
C876 C 0.74672 0.73373 0.41145 0.0
C877 C 0.77331 0.77486 0.41464 0.0
C878 C 0.77029 0.72026 0.40386 0.0
C879 C 0.79464 0.73392 0.40057 0.0
H880 H 0.65024 0.32685 0.29301 0.0
H881 H 0.64589 0.25829 0.34409 0.0
H882 H 0.64012 0.22952 0.3055 0.0
H883 H 0.64652 0.22304 0.25723 0.0
H884 H 0.6515 0.29167 0.2062 0.0
H885 H 0.64626 0.32085 0.24445 0.0
C886 C 0.64684 0.30578 0.29581 0.0
C887 C 0.64894 0.29482 0.32152 0.0
C888 C 0.64428 0.28909 0.27332 0.0
C889 C 0.64462 0.26734 0.32458 0.0
C890 C 0.64157 0.25076 0.30242 0.0
C891 C 0.64543 0.24433 0.2543 0.0
C892 C 0.65 0.25499 0.22878 0.0
C893 C 0.64292 0.26123 0.27662 0.0
C894 C 0.64847 0.28275 0.22557 0.0
C895 C 0.6456 0.29958 0.24754 0.0
H896 H 0.76626 0.14842 0.7194 0.0
H897 H 0.84234 0.12712 0.75489 0.0
H898 H 0.81978 0.11725 0.79677 0.0
H899 H 0.78058 0.12409 0.82543 0.0
H900 H 0.7054 0.14937 0.7908 0.0
H901 H 0.72528 0.14736 0.74651 0.0
C902 C 0.77792 0.14092 0.73602 0.0
C903 C 0.80618 0.13913 0.73399 0.0
C904 C 0.76493 0.13626 0.76044 0.0
C905 C 0.82069 0.129 0.75578 0.0
C906 C 0.80778 0.12351 0.77989 0.0
C907 C 0.76821 0.12836 0.80816 0.0
C908 C 0.74161 0.13749 0.81168 0.0
C909 C 0.78018 0.12847 0.78282 0.0
C910 C 0.72591 0.14247 0.78891 0.0
C911 C 0.73742 0.14166 0.7635 0.0
H912 H 0.92454 0.28457 0.3356 0.0
H913 H 0.92668 0.20738 0.29837 0.0
H914 H 0.93372 0.22826 0.25511 0.0
H915 H 0.93087 0.26824 0.2271 0.0
H916 H 0.92574 0.34535 0.26421 0.0
H917 H 0.92876 0.32467 0.30804 0.0
C918 C 0.92727 0.27216 0.31819 0.0
C919 C 0.92464 0.24427 0.32046 0.0
C920 C 0.93038 0.28437 0.29311 0.0
C921 C 0.92846 0.22878 0.29748 0.0
C922 C 0.93226 0.24077 0.27258 0.0
C923 C 0.93114 0.2807 0.2447 0.0
C924 C 0.92768 0.30846 0.24209 0.0
C925 C 0.93198 0.26856 0.27 0.0
C926 C 0.92826 0.32403 0.26534 0.0
C927 C 0.92976 0.31215 0.29054 0.0
H928 H 0.76723 0.41889 0.83299 0.0
H929 H 0.84624 0.42026 0.79782 0.0
H930 H 0.82607 0.42473 0.75369 0.0
H931 H 0.78645 0.41942 0.72491 0.0
H932 H 0.70762 0.41398 0.76006 0.0
H933 H 0.72729 0.42044 0.80418 0.0
C934 C 0.7802 0.42092 0.81581 0.0
C935 C 0.8084 0.4188 0.81895 0.0
C936 C 0.7684 0.42232 0.79029 0.0
C937 C 0.82459 0.42168 0.79624 0.0
C938 C 0.813 0.42399 0.77087 0.0
C939 C 0.77336 0.42033 0.74209 0.0
C940 C 0.74546 0.41576 0.73895 0.0
C941 C 0.78496 0.42297 0.76759 0.0
C942 C 0.72905 0.41731 0.76163 0.0
C943 C 0.74038 0.42077 0.787 0.0
H944 H 0.22538 0.63723 0.27811 0.0
H945 H 0.2689 0.65252 0.20561 0.0
H946 H 0.31114 0.65291 0.23055 0.0
H947 H 0.33495 0.65554 0.27377 0.0
H948 H 0.29121 0.64077 0.34629 0.0
H949 H 0.25023 0.63324 0.32053 0.0
C950 C 0.24414 0.63995 0.26755 0.0
C951 C 0.24364 0.64499 0.23982 0.0
C952 C 0.26848 0.64064 0.28218 0.0
C953 C 0.26838 0.64841 0.22675 0.0
C954 C 0.29264 0.64894 0.24113 0.0
C955 C 0.31663 0.65007 0.28401 0.0
C956 C 0.31642 0.64902 0.3122 0.0
C957 C 0.29285 0.64606 0.26899 0.0
C958 C 0.2923 0.64175 0.3248 0.0
C959 C 0.26867 0.63762 0.31001 0.0
H960 H 0.21924 0.91476 0.27518 0.0
H961 H 0.26437 0.9083 0.34832 0.0
H962 H 0.30632 0.91126 0.32337 0.0
H963 H 0.33006 0.90849 0.28037 0.0
H964 H 0.28473 0.91368 0.2072 0.0
H965 H 0.24332 0.91883 0.23257 0.0
C966 C 0.23821 0.91468 0.28583 0.0
C967 C 0.23838 0.91104 0.31377 0.0
C968 C 0.2624 0.91581 0.27123 0.0
C969 C 0.26334 0.91115 0.32699 0.0
C970 C 0.28746 0.91257 0.31262 0.0
C971 C 0.31125 0.91141 0.26986 0.0
C972 C 0.31077 0.91036 0.24168 0.0
C973 C 0.28725 0.91384 0.28466 0.0
C974 C 0.286 0.91434 0.22871 0.0
C975 C 0.26215 0.91708 0.24328 0.0
H976 H 0.13969 0.74491 0.82067 0.0
H977 H 0.16139 0.69906 0.75146 0.0
H978 H 0.15303 0.73715 0.72295 0.0
H979 H 0.14816 0.7857 0.71863 0.0
H980 H 0.12513 0.8314 0.78747 0.0
H981 H 0.12474 0.79137 0.81456 0.0
C982 C 0.14166 0.74292 0.79928 0.0
C983 C 0.15178 0.7191 0.78851 0.0
C984 C 0.13699 0.76519 0.78271 0.0
C985 C 0.15407 0.71714 0.76059 0.0
C986 C 0.14941 0.73905 0.74412 0.0
C987 C 0.14203 0.78683 0.73928 0.0
C988 C 0.13724 0.81184 0.75092 0.0
C989 C 0.14214 0.76357 0.75507 0.0
C990 C 0.12932 0.81261 0.77786 0.0
C991 C 0.12926 0.78965 0.79355 0.0
H992 H 0.42087 0.7143 0.79194 0.0
H993 H 0.42432 0.7496 0.71376 0.0
H994 H 0.43821 0.79172 0.73346 0.0
H995 H 0.43867 0.82046 0.77284 0.0
H996 H 0.43011 0.78593 0.85099 0.0
H997 H 0.4298 0.74165 0.83136 0.0
C998 C 0.42539 0.73095 0.77905 0.0
C999 C 0.42082 0.72881 0.75135 0.0
C1000 C 0.43211 0.75551 0.79062 0.0
C1001 C 0.42731 0.75058 0.73509 0.0
C1002 C 0.43505 0.77483 0.74642 0.0
C1003 C 0.4376 0.80327 0.78578 0.0
C1004 C 0.43365 0.80675 0.81342 0.0
C1005 C 0.43591 0.77789 0.77421 0.0
C1006 C 0.43281 0.78406 0.82969 0.0
C1007 C 0.43232 0.75865 0.8184 0.0
H1008 H 0.18073 0.30712 0.80603 0.0
H1009 H 0.26672 0.31264 0.81498 0.0
H1010 H 0.27223 0.27318 0.7869 0.0
H1011 H 0.25243 0.23663 0.75952 0.0
H1012 H 0.16621 0.23175 0.75191 0.0
H1013 H 0.16118 0.27084 0.77997 0.0
C1014 C 0.20079 0.30004 0.80162 0.0
C1015 C 0.22327 0.31339 0.81249 0.0
C1016 C 0.2038 0.27694 0.78595 0.0
C1017 C 0.24899 0.30322 0.80677 0.0
C1018 C 0.25215 0.28043 0.79082 0.0
C1019 C 0.23253 0.24383 0.76439 0.0
C1020 C 0.20972 0.23086 0.75358 0.0
C1021 C 0.22969 0.26692 0.78041 0.0
C1022 C 0.18416 0.24102 0.75986 0.0
C1023 C 0.18124 0.26359 0.77584 0.0
H1024 H 0.74734 0.65896 0.31247 0.0
H1025 H 0.72615 0.74186 0.3084 0.0
H1026 H 0.76437 0.75025 0.27926 0.0
H1027 H 0.80458 0.7343 0.25457 0.0
H1028 H 0.82449 0.65115 0.25721 0.0
H1029 H 0.78681 0.64292 0.28719 0.0
C1030 C 0.75079 0.67884 0.30498 0.0
C1031 C 0.73335 0.69963 0.31278 0.0
C1032 C 0.77317 0.68368 0.28813 0.0
C1033 C 0.73876 0.72527 0.30284 0.0
C1034 C 0.7609 0.73019 0.2862 0.0
C1035 C 0.80098 0.71446 0.26209 0.0
C1036 C 0.81793 0.69347 0.25386 0.0
C1037 C 0.77847 0.70963 0.27884 0.0
C1038 C 0.8122 0.66778 0.26332 0.0
C1039 C 0.79042 0.663 0.2804 0.0
H1040 H 0.33742 0.25119 0.81321 0.0
H1041 H 0.41879 0.22888 0.79518 0.0
H1042 H 0.42261 0.26688 0.7646 0.0
H1043 H 0.40158 0.30576 0.74129 0.0
H1044 H 0.32101 0.32871 0.7632 0.0
H1045 H 0.31847 0.29181 0.79405 0.0
C1046 C 0.35607 0.25468 0.80267 0.0
C1047 C 0.37768 0.23695 0.80626 0.0
C1048 C 0.35829 0.27691 0.78573 0.0
C1049 C 0.40183 0.24212 0.79278 0.0
C1050 C 0.40396 0.26386 0.77523 0.0
C1051 C 0.38358 0.30286 0.75301 0.0
C1052 C 0.36143 0.32021 0.74943 0.0
C1053 C 0.38219 0.28134 0.77129 0.0
C1054 C 0.3384 0.31594 0.76512 0.0
C1055 C 0.3368 0.29461 0.78282 0.0
H1056 H 0.79697 0.8285 0.30693 0.0
H1057 H 0.80898 0.91306 0.30255 0.0
H1058 H 0.77053 0.91682 0.27198 0.0
H1059 H 0.73409 0.89561 0.24499 0.0
H1060 H 0.72132 0.81117 0.25218 0.0
H1061 H 0.7589 0.80805 0.28314 0.0
C1062 C 0.79126 0.84782 0.2993 0.0
C1063 C 0.80632 0.87044 0.3069 0.0
C1064 C 0.76868 0.84989 0.28221 0.0
C1065 C 0.79805 0.89528 0.29707 0.0
C1066 C 0.77597 0.89742 0.27953 0.0
C1067 C 0.73924 0.87656 0.25358 0.0
C1068 C 0.72452 0.85364 0.24589 0.0
C1069 C 0.76114 0.87482 0.27178 0.0
C1070 C 0.73187 0.82922 0.25748 0.0
C1071 C 0.75362 0.82735 0.2752 0.0
H1072 H 0.75545 0.23775 0.24546 0.0
H1073 H 0.75799 0.1532 0.23287 0.0
H1074 H 0.78868 0.14828 0.27073 0.0
H1075 H 0.81488 0.16799 0.30821 0.0
H1076 H 0.81097 0.25261 0.32089 0.0
H1077 H 0.78023 0.25699 0.28372 0.0
C1078 C 0.76293 0.21824 0.25076 0.0
C1079 C 0.7545 0.19592 0.23582 0.0
C1080 C 0.78017 0.21542 0.27316 0.0
C1081 C 0.76411 0.1708 0.24366 0.0
C1082 C 0.78168 0.16796 0.26549 0.0
C1083 C 0.80733 0.18745 0.30286 0.0
C1084 C 0.8154 0.20988 0.31798 0.0
C1085 C 0.78982 0.19011 0.28056 0.0
C1086 C 0.80524 0.23482 0.31025 0.0
C1087 C 0.78777 0.23749 0.28849 0.0
H1088 H 0.87852 0.29942 0.82106 0.0
H1089 H 0.79459 0.3172 0.80966 0.0
H1090 H 0.79326 0.28809 0.77101 0.0
H1091 H 0.81552 0.2567 0.73989 0.0
H1092 H 0.89979 0.23983 0.7506 0.0
H1093 H 0.90118 0.26908 0.78928 0.0
C1094 C 0.8598 0.29672 0.81032 0.0
C1095 C 0.83647 0.31021 0.8191 0.0
C1096 C 0.85917 0.27994 0.78754 0.0
C1097 C 0.81269 0.30661 0.80428 0.0
C1098 C 0.81192 0.28998 0.78183 0.0
C1099 C 0.83429 0.25951 0.7505 0.0
C1100 C 0.85755 0.24578 0.74187 0.0
C1101 C 0.83498 0.27644 0.77318 0.0
C1102 C 0.88152 0.24992 0.75633 0.0
C1103 C 0.88233 0.26668 0.77872 0.0
H1104 H 0.75427 0.30407 0.29738 0.0
H1105 H 0.7707 0.38272 0.32693 0.0
H1106 H 0.80148 0.39058 0.28986 0.0
H1107 H 0.82428 0.37522 0.24906 0.0
H1108 H 0.80648 0.29743 0.21783 0.0
H1109 H 0.7746 0.29009 0.254 0.0
C1110 C 0.76483 0.32282 0.29586 0.0
C1111 C 0.76051 0.34257 0.31551 0.0
C1112 C 0.78199 0.3276 0.27375 0.0
C1113 C 0.77382 0.36702 0.31254 0.0
C1114 C 0.79139 0.37158 0.29118 0.0
C1115 C 0.81345 0.35658 0.25004 0.0
C1116 C 0.81812 0.33689 0.2304 0.0
C1117 C 0.79567 0.35206 0.27161 0.0
C1118 C 0.80367 0.31296 0.23246 0.0
C1119 C 0.78565 0.30854 0.25356 0.0
H1120 H 0.7505 0.23436 0.79274 0.0
H1121 H 0.68078 0.26655 0.83196 0.0
H1122 H 0.67419 0.29778 0.79549 0.0
H1123 H 0.6875 0.31627 0.75215 0.0
H1124 H 0.75763 0.28578 0.71251 0.0
H1125 H 0.76399 0.25334 0.7485 0.0
C1126 C 0.73403 0.24839 0.79346 0.0
C1127 C 0.71633 0.24801 0.81561 0.0
C1128 C 0.73006 0.26648 0.77191 0.0
C1129 C 0.69489 0.26624 0.81559 0.0
C1130 C 0.69101 0.28417 0.79455 0.0
C1131 C 0.70417 0.30246 0.75116 0.0
C1132 C 0.72185 0.30355 0.72913 0.0
C1133 C 0.7083 0.28444 0.77251 0.0
C1134 C 0.74352 0.28556 0.72886 0.0
C1135 C 0.74726 0.26701 0.74965 0.0
H1136 H 0.2958 0.81233 0.15926 0.0
H1137 H 0.32847 0.79255 0.23634 0.0
H1138 H 0.29161 0.7614 0.24374 0.0
H1139 H 0.24946 0.73938 0.22853 0.0
H1140 H 0.21795 0.75814 0.15082 0.0
H1141 H 0.25432 0.79 0.14385 0.0
C1142 C 0.29514 0.80102 0.17759 0.0
C1143 C 0.31538 0.80496 0.19708 0.0
C1144 C 0.27357 0.78307 0.18189 0.0
C1145 C 0.31359 0.79006 0.22077 0.0
C1146 C 0.29227 0.77226 0.22515 0.0
C1147 C 0.25026 0.75081 0.21027 0.0
C1148 C 0.23046 0.74655 0.19044 0.0
C1149 C 0.27194 0.7687 0.20598 0.0
C1150 C 0.23253 0.76109 0.1666 0.0
C1151 C 0.25353 0.77925 0.1625 0.0
H1152 H 0.24156 0.80876 0.40111 0.0
H1153 H 0.22593 0.80074 0.31697 0.0
H1154 H 0.26414 0.77079 0.31274 0.0
H1155 H 0.3031 0.74722 0.3324 0.0
H1156 H 0.3174 0.75267 0.41682 0.0
H1157 H 0.27926 0.78311 0.42127 0.0
C1158 C 0.24623 0.80024 0.38187 0.0
C1159 C 0.2304 0.80729 0.35941 0.0
C1160 C 0.26851 0.78268 0.37948 0.0
C1161 C 0.23726 0.79585 0.33473 0.0
C1162 C 0.2594 0.77873 0.33221 0.0
C1163 C 0.29809 0.75526 0.35177 0.0
C1164 C 0.31369 0.74785 0.37419 0.0
C1165 C 0.27542 0.77219 0.35434 0.0
C1166 C 0.30616 0.75808 0.39916 0.0
C1167 C 0.28417 0.77548 0.40173 0.0
H1168 H 0.27624 0.72846 0.79951 0.0
H1169 H 0.25327 0.73186 0.882 0.0
H1170 H 0.28108 0.77122 0.88841 0.0
H1171 H 0.31169 0.80581 0.87069 0.0
H1172 H 0.33358 0.80348 0.78775 0.0
H1173 H 0.30745 0.76314 0.78185 0.0
C1174 C 0.27751 0.73764 0.81891 0.0
C1175 C 0.26247 0.72674 0.84016 0.0
C1176 C 0.29329 0.761 0.82243 0.0
C1177 C 0.26442 0.7394 0.86514 0.0
C1178 C 0.28033 0.76217 0.86886 0.0
C1179 C 0.31038 0.79678 0.85115 0.0
C1180 C 0.32464 0.8083 0.82967 0.0
C1181 C 0.29466 0.77343 0.84761 0.0
C1182 C 0.32269 0.79573 0.80468 0.0
C1183 C 0.30757 0.7724 0.80121 0.0
H1184 H 0.31837 0.76146 0.68841 0.0
H1185 H 0.28251 0.71973 0.75406 0.0
H1186 H 0.2505 0.75573 0.76047 0.0
H1187 H 0.23243 0.79987 0.74793 0.0
H1188 H 0.26605 0.84063 0.6805 0.0
H1189 H 0.29917 0.80512 0.67481 0.0
C1190 C 0.30346 0.76014 0.70403 0.0
C1191 C 0.30333 0.73769 0.72098 0.0
C1192 C 0.28487 0.7813 0.7077 0.0
C1193 C 0.28359 0.73662 0.74094 0.0
C1194 C 0.26514 0.75738 0.74464 0.0
C1195 C 0.24734 0.80124 0.73231 0.0
C1196 C 0.24703 0.8234 0.71507 0.0
C1197 C 0.26579 0.78007 0.72845 0.0
C1198 C 0.26601 0.82417 0.69436 0.0
C1199 C 0.28488 0.80367 0.69096 0.0
H1200 H 0.94054 0.81961 0.27278 0.0
H1201 H 0.86356 0.85629 0.25926 0.0
H1202 H 0.86773 0.84908 0.21138 0.0
H1203 H 0.88672 0.82004 0.1775 0.0
H1204 H 0.96222 0.78177 0.1908 0.0
H1205 H 0.96692 0.8037 0.23393 0.0
C1206 C 0.9251 0.8264 0.25912 0.0
C1207 C 0.90128 0.83716 0.26896 0.0
C1208 C 0.92767 0.82224 0.23176 0.0
C1209 C 0.88164 0.84709 0.2516 0.0
C1210 C 0.88412 0.84324 0.22435 0.0
C1211 C 0.905 0.81795 0.18916 0.0
C1212 C 0.92229 0.79689 0.18357 0.0
C1213 C 0.90617 0.82918 0.21453 0.0
C1214 C 0.94709 0.7959 0.1968 0.0
C1215 C 0.94957 0.80808 0.22162 0.0
H1216 H 0.36211 0.4099 0.78409 0.0
H1217 H 0.29437 0.45465 0.75495 0.0
H1218 H 0.28126 0.46505 0.80057 0.0
H1219 H 0.27749 0.44348 0.84305 0.0
H1220 H 0.33532 0.38487 0.86699 0.0
H1221 H 0.36506 0.39859 0.83099 0.0
C1222 C 0.34509 0.42281 0.78783 0.0
C1223 C 0.32828 0.43051 0.76674 0.0
C1224 C 0.33592 0.42568 0.81379 0.0
C1225 C 0.30678 0.44775 0.77127 0.0
C1226 C 0.2994 0.45364 0.79729 0.0
C1227 C 0.29736 0.43494 0.84122 0.0
C1228 C 0.30375 0.4123 0.85606 0.0
C1229 C 0.31193 0.44002 0.81827 0.0
C1230 C 0.3297 0.40173 0.85482 0.0
C1231 C 0.34641 0.40927 0.8339 0.0
H1232 H 0.6063 0.72714 0.30418 0.0
H1233 H 0.62401 0.79713 0.35045 0.0
H1234 H 0.6083 0.82514 0.31405 0.0
H1235 H 0.61011 0.82832 0.26597 0.0
H1236 H 0.60824 0.7572 0.21823 0.0
H1237 H 0.59594 0.73116 0.25727 0.0
C1238 C 0.606 0.74854 0.30654 0.0
C1239 C 0.61815 0.76035 0.3288 0.0
C1240 C 0.6002 0.76427 0.28455 0.0
C1241 C 0.61602 0.78781 0.33268 0.0
C1242 C 0.60715 0.80377 0.31183 0.0
C1243 C 0.60612 0.80723 0.26398 0.0
C1244 C 0.61182 0.79414 0.24002 0.0
C1245 C 0.60247 0.79217 0.28686 0.0
C1246 C 0.60523 0.76727 0.23704 0.0
C1247 C 0.59831 0.75245 0.25935 0.0
H1248 H 0.3234 0.10464 0.76822 0.0
H1249 H 0.36943 0.17545 0.75293 0.0
H1250 H 0.36338 0.16965 0.70506 0.0
H1251 H 0.33244 0.15285 0.67119 0.0
H1252 H 0.28616 0.08313 0.6856 0.0
H1253 H 0.30654 0.07803 0.72974 0.0
C1254 C 0.33258 0.11829 0.75425 0.0
C1255 C 0.34558 0.14107 0.76351 0.0
C1256 C 0.32922 0.11471 0.72688 0.0
C1257 C 0.35853 0.15825 0.74573 0.0
C1258 C 0.35532 0.15483 0.71847 0.0
C1259 C 0.32822 0.13559 0.6834 0.0
C1260 C 0.30492 0.12099 0.67831 0.0
C1261 C 0.33899 0.13428 0.70906 0.0
C1262 C 0.30173 0.09682 0.6917 0.0
C1263 C 0.31303 0.09415 0.71702 0.0
H1264 H 0.2562 0.89654 0.8231 0.0
H1265 H 0.22135 0.90483 0.7452 0.0
H1266 H 0.26519 0.90203 0.7247 0.0
H1267 H 0.31402 0.8967 0.72915 0.0
H1268 H 0.34795 0.89016 0.80746 0.0
H1269 H 0.30458 0.89275 0.82757 0.0
C1270 C 0.2582 0.89789 0.80164 0.0
C1271 C 0.23539 0.90041 0.78563 0.0
C1272 C 0.28359 0.89645 0.79007 0.0
C1273 C 0.23837 0.90228 0.75794 0.0
C1274 C 0.26359 0.90082 0.74617 0.0
C1275 C 0.31194 0.89588 0.75061 0.0
C1276 C 0.33469 0.89278 0.76684 0.0
C1277 C 0.2864 0.89773 0.76209 0.0
C1278 C 0.33134 0.89197 0.79447 0.0
C1279 C 0.30622 0.89364 0.80607 0.0
H1280 H 0.10912 0.76142 0.22569 0.0
H1281 H 0.11773 0.70959 0.29339 0.0
H1282 H 0.09955 0.74384 0.32243 0.0
H1283 H 0.10407 0.79114 0.3296 0.0
H1284 H 0.11169 0.84369 0.26244 0.0
H1285 H 0.0988 0.80792 0.23238 0.0
C1286 C 0.10613 0.75738 0.24669 0.0
C1287 C 0.11665 0.73423 0.25805 0.0
C1288 C 0.09882 0.77809 0.26346 0.0
C1289 C 0.1112 0.72818 0.28472 0.0
C1290 C 0.1008 0.74775 0.30126 0.0
C1291 C 0.10187 0.79493 0.30845 0.0
C1292 C 0.11092 0.81894 0.29768 0.0
C1293 C 0.09814 0.77358 0.29129 0.0
C1294 C 0.10633 0.82458 0.27074 0.0
C1295 C 0.0991 0.80409 0.2536 0.0
H1296 H 0.23536 0.65306 0.71219 0.0
H1297 H 0.21944 0.57667 0.74423 0.0
H1298 H 0.26683 0.57117 0.75635 0.0
H1299 H 0.30488 0.59682 0.77637 0.0
H1300 H 0.30355 0.68079 0.76659 0.0
H1301 H 0.27276 0.67745 0.72893 0.0
C1302 C 0.24288 0.63475 0.72082 0.0
C1303 C 0.22411 0.6176 0.73225 0.0
C1304 C 0.26816 0.63503 0.73312 0.0
C1305 C 0.23352 0.59216 0.73894 0.0
C1306 C 0.26051 0.58934 0.74667 0.0
C1307 C 0.29842 0.61406 0.76517 0.0
C1308 C 0.30906 0.63917 0.77126 0.0
C1309 C 0.27686 0.6121 0.74717 0.0
C1310 C 0.29894 0.66156 0.75853 0.0
C1311 C 0.28047 0.65945 0.73793 0.0
H1312 H 0.43816 0.8417 0.28484 0.0
H1313 H 0.4477 0.78927 0.21781 0.0
H1314 H 0.46024 0.75318 0.24734 0.0
H1315 H 0.44421 0.7345 0.28917 0.0
H1316 H 0.42706 0.78608 0.35538 0.0
H1317 H 0.44242 0.82427 0.32999 0.0
C1318 C 0.44421 0.82265 0.27676 0.0
C1319 C 0.43952 0.81695 0.24988 0.0
C1320 C 0.44917 0.80157 0.29399 0.0
C1321 C 0.44942 0.7933 0.23892 0.0
C1322 C 0.45648 0.77261 0.25582 0.0
C1323 C 0.44513 0.75395 0.29839 0.0
C1324 C 0.43279 0.75821 0.32298 0.0
C1325 C 0.4525 0.7758 0.28319 0.0
C1326 C 0.43529 0.78287 0.33571 0.0
C1327 C 0.44405 0.8047 0.32119 0.0
H1328 H 0.79577 0.23401 0.84556 0.0
H1329 H 0.8415 0.2401 0.91804 0.0
H1330 H 0.83164 0.28751 0.92051 0.0
H1331 H 0.79723 0.32095 0.91124 0.0
H1332 H 0.74267 0.31053 0.8453 0.0
H1333 H 0.76669 0.27012 0.83226 0.0
C1334 C 0.80445 0.24598 0.86137 0.0
C1335 C 0.81723 0.23347 0.88291 0.0
C1336 C 0.79484 0.2717 0.86505 0.0
C1337 C 0.83039 0.24926 0.90192 0.0
C1338 C 0.8239 0.27612 0.90387 0.0
C1339 C 0.79073 0.30998 0.89392 0.0
C1340 C 0.76813 0.31823 0.87941 0.0
C1341 C 0.80386 0.28652 0.88721 0.0
C1342 C 0.75977 0.30399 0.85695 0.0
C1343 C 0.77354 0.28114 0.84942 0.0
H1344 H 0.84989 0.27172 0.62578 0.0
H1345 H 0.77403 0.23313 0.61055 0.0
H1346 H 0.75947 0.27096 0.58393 0.0
H1347 H 0.75973 0.3188 0.58748 0.0
H1348 H 0.82643 0.35716 0.62558 0.0
H1349 H 0.85463 0.31869 0.61696 0.0
C1350 C 0.83041 0.27134 0.61605 0.0
C1351 C 0.81208 0.25094 0.62167 0.0
C1352 C 0.82099 0.29438 0.60411 0.0
C1353 C 0.7877 0.2496 0.60772 0.0
C1354 C 0.77955 0.27114 0.59234 0.0
C1355 C 0.78085 0.3188 0.59296 0.0
C1356 C 0.79035 0.33849 0.61029 0.0
C1357 C 0.79449 0.29471 0.5937 0.0
C1358 C 0.81811 0.34076 0.6143 0.0
C1359 C 0.83403 0.31844 0.60989 0.0
H1360 H 0.82954 0.30171 0.09023 0.0
H1361 H 0.8698 0.23522 0.12591 0.0
H1362 H 0.83265 0.20629 0.11365 0.0
H1363 H 0.78445 0.20831 0.11976 0.0
H1364 H 0.74269 0.28192 0.10561 0.0
H1365 H 0.78174 0.29942 0.08236 0.0
C1366 C 0.83036 0.28057 0.09437 0.0
C1367 C 0.8502 0.27088 0.11162 0.0
C1368 C 0.8069 0.26572 0.09228 0.0
C1369 C 0.85333 0.24339 0.11442 0.0
C1370 C 0.8318 0.22697 0.10777 0.0
C1371 C 0.78368 0.2279 0.11083 0.0
C1372 C 0.76195 0.24478 0.11609 0.0
C1373 C 0.80726 0.23899 0.1011 0.0
C1374 C 0.76014 0.26933 0.10313 0.0
C1375 C 0.78242 0.27922 0.08974 0.0
H1376 H 0.73854 0.21684 0.37954 0.0
H1377 H 0.71771 0.23861 0.45891 0.0
H1378 H 0.76511 0.24614 0.46984 0.0
H1379 H 0.80795 0.26408 0.45114 0.0
H1380 H 0.81624 0.26494 0.36631 0.0
H1381 H 0.7793 0.2335 0.36132 0.0
C1382 C 0.74482 0.22203 0.3996 0.0
C1383 C 0.72513 0.23088 0.41724 0.0
C1384 C 0.7706 0.23235 0.40338 0.0
C1385 C 0.73274 0.23439 0.44396 0.0
C1386 C 0.75978 0.23967 0.44995 0.0
C1387 C 0.80198 0.25658 0.43178 0.0
C1388 C 0.81629 0.26422 0.409 0.0
C1389 C 0.77822 0.24178 0.42891 0.0
C1390 C 0.80735 0.25635 0.3839 0.0
C1391 C 0.78591 0.23897 0.38114 0.0
H1392 H 0.14388 0.99042 0.71425 0.0
H1393 H 0.21884 0.9672 0.67866 0.0
H1394 H 0.23014 1.01386 0.67074 0.0
H1395 H 0.2195 0.06177 0.67504 0.0
H1396 H 0.14387 0.08541 0.70891 0.0
H1397 H 0.13194 0.03867 0.71596 0.0
C1398 C 0.16259 0.99561 0.70458 0.0
C1399 C 0.18051 0.97511 0.69709 0.0
C1400 C 0.16885 1.02277 0.69974 0.0
C1401 C 0.20462 0.98236 0.68453 0.0
C1402 C 0.21113 1.00915 0.68007 0.0
C1403 C 0.20037 0.05672 0.68395 0.0
C1404 C 0.1827 0.07738 0.69155 0.0
C1405 C 0.19355 0.02961 0.68776 0.0
C1406 C 0.15783 0.07018 0.70265 0.0
C1407 C 0.15107 0.04333 0.70685 0.0
H1408 H 0.06391 0.63682 0.19709 0.0
H1409 H 0.08315 0.71162 0.16042 0.0
H1410 H 0.03524 0.72228 0.15699 0.0
H1411 H 0.9873 0.71127 0.1659 0.0
H1412 H 0.96772 0.63565 0.20066 0.0
H1413 H 1.01561 0.62447 0.20318 0.0
C1414 C 0.05763 0.65536 0.18812 0.0
C1415 C 0.07751 0.67333 0.17892 0.0
C1416 C 1.02967 0.66132 0.18596 0.0
C1417 C 0.06863 0.69721 0.16735 0.0
C1418 C 0.04108 0.70342 0.16556 0.0
C1419 C 0.99346 0.6923 0.17399 0.0
C1420 C 0.97351 0.67442 0.1832 0.0
C1421 C 1.02132 0.68579 0.17502 0.0
C1422 C 0.98225 0.6498 0.19324 0.0
C1423 C 1.00982 0.64343 0.1948 0.0
H1424 H 0.38954 0.57227 0.67107 0.0
H1425 H 0.33483 0.57038 0.73751 0.0
H1426 H 0.33345 0.52232 0.73556 0.0
H1427 H 0.34741 0.48038 0.71559 0.0
H1428 H 0.39542 0.48066 0.64448 0.0
H1429 H 0.40036 0.52911 0.64803 0.0
C1430 C 0.37704 0.56142 0.68491 0.0
C1431 C 0.36288 0.57548 0.70499 0.0
C1432 C 0.37537 0.53317 0.68303 0.0
C1433 C 0.34689 0.56057 0.7226 0.0
C1434 C 0.34582 0.53285 0.72133 0.0
C1435 C 0.35852 0.4909 0.70042 0.0
C1436 C 0.37092 0.47641 0.67972 0.0
C1437 C 0.36 0.5189 0.70175 0.0
C1438 C 0.38607 0.49083 0.661 0.0
C1439 C 0.38857 0.51875 0.66284 0.0
H1440 H 0.47851 0.85544 0.20119 0.0
H1441 H 0.46662 0.90758 0.13434 0.0
H1442 H 0.51519 0.90681 0.12551 0.0
H1443 H 0.56209 0.89124 0.13735 0.0
H1444 H 0.57222 0.84282 0.20739 0.0
H1445 H 0.52397 0.84319 0.21491 0.0
C1446 C 0.48637 0.8674 0.18512 0.0
C1447 C 0.46838 0.88192 0.16882 0.0
C1448 C 0.51447 0.8676 0.18075 0.0
C1449 C 0.4795 0.89599 0.14724 0.0
C1450 C 0.50751 0.89575 0.14232 0.0
C1451 C 0.55374 0.88106 0.15442 0.0
C1452 C 0.57116 0.86658 0.17153 0.0
C1453 C 0.52538 0.88168 0.15903 0.0
C1454 C 0.55962 0.8536 0.19351 0.0
C1455 C 0.53186 0.85386 0.19792 0.0
H1456 H 0.16618 0.47614 0.87886 0.0
H1457 H 0.252 0.46826 0.87066 0.0
H1458 H 0.25634 0.51521 0.86312 0.0
H1459 H 0.23652 0.55965 0.85819 0.0
H1460 H 0.1506 0.56842 0.86077 0.0
H1461 H 0.14576 0.52108 0.87121 0.0
C1462 C 0.18586 0.48449 0.87522 0.0
C1463 C 0.20883 0.46771 0.87609 0.0
C1464 C 0.18831 0.51231 0.86989 0.0
C1465 C 0.23392 0.47984 0.87132 0.0
C1466 C 0.23649 0.50711 0.86659 0.0
C1467 C 0.21664 0.55124 0.86064 0.0
C1468 C 0.194 0.56802 0.85867 0.0
C1469 C 0.21392 0.52365 0.8658 0.0
C1470 C 0.16854 0.55642 0.8626 0.0
C1471 C 0.16573 0.52911 0.86835 0.0
H1472 H 0.56721 0.7116 0.37107 0.0
H1473 H 0.5804 0.6367 0.41023 0.0
H1474 H 0.53183 0.62857 0.41038 0.0
H1475 H 0.4844 0.64281 0.39881 0.0
H1476 H 0.47296 0.72053 0.36477 0.0
H1477 H 0.52128 0.72772 0.36433 0.0
C1478 C 0.55979 0.69379 0.38048 0.0
C1479 C 0.57832 0.67495 0.39069 0.0
C1480 C 0.53154 0.6897 0.38153 0.0
C1481 C 0.56732 0.65154 0.40162 0.0
C1482 C 0.53924 0.64697 0.40201 0.0
C1483 C 0.49244 0.6615 0.39176 0.0
C1484 C 0.47452 0.68095 0.38142 0.0
C1485 C 0.52094 0.6659 0.39199 0.0
C1486 C 0.48583 0.70492 0.37235 0.0
C1487 C 0.51369 0.70913 0.37212 0.0
H1488 H 0.34536 0.05669 0.87922 0.0
H1489 H 0.41981 0.07774 0.84128 0.0
H1490 H 0.43028 0.03064 0.83476 0.0
H1491 H 0.41752 0.98288 0.83829 0.0
H1492 H 0.34319 0.96205 0.8766 0.0
H1493 H 0.33342 1.00908 0.88424 0.0
C1494 C 0.3638 0.05101 0.86936 0.0
C1495 C 0.3816 0.07103 0.86047 0.0
C1496 C 0.3697 1.02366 0.86562 0.0
C1497 C 0.40574 0.06299 0.84842 0.0
C1498 C 0.41167 0.03594 0.84454 0.0
C1499 C 0.39916 0.98865 0.84827 0.0
C1500 C 0.38102 0.9687 0.85667 0.0
C1501 C 0.39369 1.01601 0.85277 0.0
C1502 C 0.35756 0.97675 0.86995 0.0
C1503 C 0.35191 1.00376 0.87427 0.0
H1504 H 0.07021 0.85182 0.39314 0.0
H1505 H 0.07358 0.92948 0.35775 0.0
H1506 H 1.02447 0.93098 0.35546 0.0
H1507 H 0.97982 0.9087 0.36027 0.0
H1508 H 0.97664 0.83171 0.39727 0.0
H1509 H 1.02542 0.83152 0.40208 0.0
C1510 C 0.06019 0.86935 0.38553 0.0
C1511 C 0.07596 0.89054 0.37564 0.0
C1512 C 0.03156 0.87003 0.3841 0.0
C1513 C 0.06227 0.91282 0.36545 0.0
C1514 C 0.03401 0.91366 0.36405 0.0
C1515 C 0.98973 0.89205 0.36976 0.0
C1516 C 0.97412 0.86992 0.37777 0.0
C1517 C 1.01829 0.89216 0.3728 0.0
C1518 C 0.98777 0.84865 0.39003 0.0
C1519 C 1.01589 0.84862 0.39304 0.0
H1520 H 0.72561 0.20679 0.07188 0.0
H1521 H 0.65357 0.15954 0.07364 0.0
H1522 H 0.65652 0.15301 1.02522 0.0
H1523 H 0.67911 0.16209 0.98154 0.0
H1524 H 0.74991 0.2114 0.98093 0.0
H1525 H 0.74778 0.21582 0.02913 0.0
C1526 C 0.71031 0.19528 0.06172 0.0
C1527 C 0.68918 0.18393 0.07667 0.0
C1528 C 0.71198 0.19193 0.03375 0.0
C1529 C 0.67014 0.16842 0.06293 0.0
C1530 C 0.67176 0.16483 0.03509 0.0
C1531 C 0.69405 0.17384 0.99192 0.0
C1532 C 0.71497 0.18607 0.97717 0.0
C1533 C 0.69248 0.1767 1.02013 0.0
C1534 C 0.73408 0.20108 0.99139 0.0
C1535 C 0.7327 0.20389 1.01913 0.0
H1536 H 0.85426 0.22179 0.49215 0.0
H1537 H 0.91064 0.15901 0.476 0.0
H1538 H 0.91244 0.14813 0.52341 0.0
H1539 H 0.89697 0.15586 0.57049 0.0
H1540 H 0.84598 0.22313 0.58583 0.0
H1541 H 0.84393 0.23319 0.53858 0.0
C1542 C 0.86743 0.20604 0.49883 0.0
C1543 C 0.88177 0.19097 0.47982 0.0
C1544 C 0.86944 0.20065 0.5265 0.0
C1545 C 0.89841 0.17045 0.48957 0.0
C1546 C 0.89978 0.1644 0.51696 0.0
C1547 C 0.88581 0.17297 0.56353 0.0
C1548 C 0.87102 0.18828 0.58208 0.0
C1549 C 0.88523 0.17923 0.53578 0.0
C1550 C 0.85687 0.21044 0.5723 0.0
C1551 C 0.85576 0.21634 0.54508 0.0
H1552 H 0.89338 0.35647 0.98102 0.0
H1553 H 0.81695 0.39531 0.99109 0.0
H1554 H 0.82306 0.39505 0.03916 0.0
H1555 H 0.84963 0.38254 0.07955 0.0
H1556 H 0.92871 0.34968 0.06883 0.0
H1557 H 0.92229 0.34946 1.02074 0.0
C1558 C 0.87815 0.36533 0.99353 0.0
C1559 C 0.85421 0.37514 0.98169 0.0
C1560 C 0.88231 0.36619 1.02161 0.0
C1561 C 0.83501 0.38638 0.99897 0.0
C1562 C 0.83869 0.38665 0.02679 0.0
C1563 C 0.86569 0.37576 0.06672 0.0
C1564 C 0.88941 0.36533 0.0784 0.0
C1565 C 0.86215 0.37637 0.03851 0.0
C1566 C 0.9098 0.35675 0.06099 0.0
C1567 C 0.90623 0.35687 0.0332 0.0
H1568 H 0.70447 0.39218 0.47896 0.0
H1569 H 0.68066 0.31003 0.48248 0.0
H1570 H 0.67804 0.31245 0.53083 0.0
H1571 H 0.68457 0.33717 0.57319 0.0
H1572 H 0.70601 0.41985 0.57 0.0
H1573 H 0.70705 0.41805 0.52134 0.0
C1574 C 0.69835 0.37488 0.49023 0.0
C1575 C 0.69336 0.35073 0.47661 0.0
C1576 C 0.69645 0.37649 0.51853 0.0
C1577 C 0.68549 0.32868 0.49202 0.0
C1578 C 0.68372 0.3301 0.5199 0.0
C1579 C 0.68895 0.35494 0.56185 0.0
C1580 C 0.69544 0.3786 0.5756 0.0
C1581 C 0.68947 0.35377 0.53353 0.0
C1582 C 0.70137 0.40124 0.56027 0.0
C1583 C 0.7019 0.40024 0.53226 0.0
H1584 H 0.89034 0.98994 0.42259 0.0
H1585 H 0.82782 0.98324 0.36355 0.0
H1586 H 0.83542 0.02914 0.34969 0.0
H1587 H 0.86167 0.07032 0.35264 0.0
H1588 H 0.9248 0.07697 0.41118 0.0
H1589 H 0.91567 0.0319 0.42653 0.0
C1590 C 0.87811 0.99881 0.40706 0.0
C1591 C 0.85852 0.98345 0.39413 0.0
C1592 C 0.88305 0.02502 0.39878 0.0
C1593 C 0.84304 0.99483 0.37372 0.0
C1594 C 0.84745 1.02099 0.36573 0.0
C1595 C 0.87312 0.06207 0.36903 0.0
C1596 C 0.89366 0.0771 0.38093 0.0
C1597 C 0.86769 0.03615 0.37783 0.0
C1598 C 0.90892 0.06577 0.4016 0.0
C1599 C 0.9036 0.04006 0.41053 0.0
H1600 H 0.06089 0.34052 0.9043 0.0
H1601 H 0.08452 0.38587 0.83547 0.0
H1602 H 0.03754 0.39518 0.82528 0.0
H1603 H 0.98974 0.39274 0.83758 0.0
H1604 H 0.96687 0.3502 0.90845 0.0
H1605 H 1.01335 0.33747 0.91614 0.0
C1606 C 0.05572 0.3522 0.88689 0.0
C1607 C 0.07616 0.36193 0.87034 0.0
C1608 C 1.02872 0.35808 0.88158 0.0
C1609 C 0.06921 0.37727 0.84802 0.0
C1610 C 0.04231 0.38296 0.84239 0.0
C1611 C 0.99496 0.38053 0.8546 0.0
C1612 C 0.97473 0.37183 0.87199 0.0
C1613 C 1.02193 0.37376 0.85925 0.0
C1614 C 0.98177 0.35626 0.89411 0.0
C1615 C 1.00848 0.34926 0.89875 0.0
H1616 H 0.6514 0.47473 0.39521 0.0
H1617 H 0.71624 0.46634 0.33927 0.0
H1618 H 0.72864 0.51296 0.34578 0.0
H1619 H 0.72094 0.55626 0.36769 0.0
H1620 H 0.65752 0.56353 0.42542 0.0
H1621 H 0.6447 0.51729 0.41811 0.0
C1622 C 0.66818 0.48321 0.38442 0.0
C1623 C 0.68293 0.46727 0.36685 0.0
C1624 C 0.67547 0.5098 0.38868 0.0
C1625 C 0.70479 0.47827 0.35312 0.0
C1626 C 0.71181 0.5049 0.35677 0.0
C1627 C 0.70431 0.54763 0.37857 0.0
C1628 C 0.69008 0.56319 0.39694 0.0
C1629 C 0.69733 0.52087 0.37455 0.0
C1630 C 0.66882 0.55181 0.41126 0.0
C1631 C 0.66141 0.52544 0.40701 0.0
H1632 H 0.57024 0.14044 0.88109 0.0
H1633 H 0.59216 0.22175 0.89701 0.0
H1634 H 0.54559 0.23232 0.90733 0.0
H1635 H 0.49793 0.21851 0.91092 0.0
H1636 H 0.477 0.13665 0.89755 0.0
H1637 H 0.52391 0.12599 0.88802 0.0
C1638 C 0.56485 0.16051 0.88678 0.0
C1639 C 0.58455 0.1805 0.88701 0.0
C1640 C 0.5382 0.16623 0.89363 0.0
C1641 C 0.57728 0.20625 0.89505 0.0
C1642 C 0.55066 0.21223 0.90152 0.0
C1643 C 0.50389 0.19831 0.90641 0.0
C1644 C 0.48433 0.17833 0.9049 0.0
C1645 C 0.53089 0.19241 0.90072 0.0
C1646 C 0.49195 0.15223 0.89884 0.0
C1647 C 0.51866 0.1462 0.89323 0.0
H1648 H 0.89371 0.57257 0.1951 0.0
H1649 H 0.82673 0.55423 0.14363 0.0
H1650 H 0.83471 0.50683 0.15016 0.0
H1651 H 0.86154 0.47089 0.16947 0.0
H1652 H 0.92671 0.48931 0.22311 0.0
H1653 H 0.91839 0.53677 0.217 0.0
C1654 C 0.88018 0.55836 0.18609 0.0
C1655 C 0.85911 0.567 0.16955 0.0
C1656 C 0.88464 0.53122 0.19024 0.0
C1657 C 0.84293 0.54807 0.15666 0.0
C1658 C 0.84744 0.521 0.16042 0.0
C1659 C 0.8733 0.48523 0.18059 0.0
C1660 C 0.89416 0.47665 0.1974 0.0
C1661 C 0.86825 0.51237 0.17716 0.0
C1662 C 0.9103 0.49552 0.21035 0.0
C1663 C 0.90557 0.5226 0.20685 0.0
H1664 H 0.56115 0.40651 0.68933 0.0
H1665 H 0.59039 0.33206 0.6585 0.0
H1666 H 0.54499 0.31959 0.64535 0.0
H1667 H 0.49628 0.3299 0.64266 0.0
H1668 H 0.46846 0.40602 0.67011 0.0
H1669 H 0.51391 0.41813 0.68365 0.0
C1670 C 0.55762 0.38747 0.67984 0.0
C1671 C 0.57909 0.36978 0.67617 0.0
C1672 C 0.53164 0.38092 0.67123 0.0
C1673 C 0.57417 0.34548 0.66319 0.0
C1674 C 0.54819 0.33853 0.65507 0.0
C1675 C 0.50039 0.34921 0.65129 0.0
C1676 C 0.47918 0.36697 0.65573 0.0
C1677 C 0.52671 0.35606 0.65905 0.0
C1678 C 0.48455 0.392 0.6668 0.0
C1679 C 0.51049 0.39888 0.67462 0.0
H1680 H 0.63427 0.05918 0.19902 0.0
H1681 H 0.70063 0.09076 0.15412 0.0
H1682 H 0.71281 0.04654 0.13929 0.0
H1683 H 0.7059 0.99833 0.14044 0.0
H1684 H 0.63998 0.96618 0.18539 0.0
H1685 H 0.62625 1.01081 0.19872 0.0
C1686 C 0.65136 0.05625 0.186 0.0
C1687 C 0.66691 0.0781 0.17826 0.0
C1688 C 0.6584 0.03058 0.1776 0.0
C1689 C 0.68874 0.07422 0.161 0.0
C1690 C 0.69568 0.0489 0.15234 0.0
C1691 C 0.68848 1.00124 0.15302 0.0
C1692 C 0.6743 0.97922 0.16243 0.0
C1693 C 0.68087 0.02689 0.16076 0.0
C1694 C 0.65155 0.983 0.17847 0.0
C1695 C 0.64365 1.00847 0.18602 0.0
H1696 H 0.97951 0.18962 0.66819 0.0
H1697 H 0.99548 0.1264 0.7237 0.0
H1698 H 0.04394 0.13344 0.71851 0.0
H1699 H 0.08143 0.15742 0.6977 0.0
H1700 H 0.0649 0.22214 0.6439 0.0
H1701 H 1.01675 0.21484 0.64911 0.0
C1702 C 0.99358 0.1779 0.67975 0.0
C1703 C 0.98404 0.15816 0.69703 0.0
C1704 C 1.02121 0.18233 0.67694 0.0
C1705 C 1.00247 0.14201 0.71062 0.0
C1706 C 1.0301 0.14607 0.70769 0.0
C1707 C 0.06739 0.1705 0.68779 0.0
C1708 C 0.07681 0.19079 0.67098 0.0
C1709 C 0.03969 0.16629 0.691 0.0
C1710 C 0.05817 0.20655 0.65714 0.0
C1711 C 1.03064 0.20239 0.66008 0.0
H1712 H 0.37766 0.85911 0.07154 0.0
H1713 H 0.32041 0.91965 0.0503 0.0
H1714 H 0.32919 0.91164 1.00297 0.0
H1715 H 0.35459 0.88852 0.96797 0.0
H1716 H 0.41169 0.8279 0.9897 0.0
H1717 H 0.40131 0.83462 0.0367 0.0
C1718 C 0.36649 0.86999 0.05654 0.0
C1719 C 0.34778 0.88935 0.06428 0.0
C1720 C 0.37172 0.86531 0.02955 0.0
C1721 C 0.33458 0.90435 0.0447 0.0
C1722 C 0.33961 0.89978 1.01771 0.0
C1723 C 0.36416 0.87623 0.9829 0.0
C1724 C 0.38346 0.8573 0.97533 0.0
C1725 C 0.35823 0.88036 1.00991 0.0
C1726 C 0.39663 0.84245 0.99506 0.0
C1727 C 0.39072 0.84629 1.02191 0.0
H1728 H 0.19863 0.8906 0.58626 0.0
H1729 H 0.13068 0.83986 0.57023 0.0
H1730 H 0.13641 0.84671 0.52246 0.0
H1731 H 0.15984 0.86815 0.4854 0.0
H1732 H 0.22892 0.91738 0.50094 0.0
H1733 H 0.2236 0.91024 0.54888 0.0
C1734 C 0.18562 0.88035 0.57231 0.0
C1735 C 0.16471 0.86412 0.58177 0.0
C1736 C 0.18909 0.88433 0.54484 0.0
C1737 C 0.14711 0.85219 0.56342 0.0
C1738 C 0.15035 0.85612 0.53612 0.0
C1739 C 0.17423 0.87665 0.49924 0.0
C1740 C 0.1953 0.89254 0.48967 0.0
C1741 C 0.17121 0.87219 0.52663 0.0
C1742 C 0.21279 0.90475 0.50789 0.0
C1743 C 0.20978 0.90063 0.53525 0.0
H1744 H 0.15496 0.70162 0.98157 0.0
H1745 H 0.20852 0.64013 0.95447 0.0
H1746 H 0.21899 0.62824 1.0003 0.0
H1747 H 0.21294 0.63525 0.04852 0.0
H1748 H 0.15668 0.69434 0.07543 0.0
H1749 H 0.14705 0.707 0.02952 0.0
C1750 C 0.16898 0.68567 0.98573 0.0
C1751 C 0.18179 0.6726 0.9646 0.0
C1752 C 0.1744 0.67845 1.0122 0.0
C1753 C 0.19944 0.65154 0.97029 0.0
C1754 C 0.20514 0.6444 0.99656 0.0
C1755 C 0.19863 0.6509 0.04422 0.0
C1756 C 0.18632 0.66453 0.06527 0.0
C1757 C 0.19286 0.65781 1.0177 0.0
C1758 C 0.1673 0.68435 0.05954 0.0
C1759 C 0.16158 0.69142 0.03329 0.0
H1760 H 0.34554 0.66083 0.5878 0.0
H1761 H 0.42253 0.69807 0.57531 0.0
H1762 H 0.41866 0.69032 0.52753 0.0
H1763 H 0.39381 0.67245 0.4894 0.0
H1764 H 0.31606 0.63689 0.501 0.0
H1765 H 0.31988 0.64412 0.54919 0.0
C1766 C 0.3611 0.66795 0.57459 0.0
C1767 C 0.384 0.68065 0.58507 0.0
C1768 C 0.35874 0.66342 0.54706 0.0
C1769 C 0.40459 0.68851 0.56771 0.0
C1770 C 0.40243 0.68403 0.5404 0.0
C1771 C 0.37746 0.66684 0.50246 0.0
C1772 C 0.35433 0.65493 0.49174 0.0
C1773 C 0.37963 0.67149 0.52988 0.0
C1774 C 0.3339 0.6464 0.5089 0.0
C1775 C 0.33605 0.65064 0.53636 0.0
loop_
_geom_bond_atom_site_label_1
_geom_bond_atom_site_label_2
_geom_bond_distance
_geom_bond_site_symmetry_2
_ccdc_geom_bond_type
Co0 O3 1.970 . S
Co0 N17 1.989 . S
Co0 O25 1.967 . S
Co0 O32 1.920 . S
Co1 O4 1.966 . S
Co1 N10 2.022 . S
Co1 N18 1.993 . S
Co1 O26 1.941 . S
C2 O3 1.258 . S
C2 O4 1.263 . S
O3 Co0 1.970 . S
O3 C2 1.258 . S
O4 Co1 1.966 . S
O4 C2 1.263 . S
C5 O6 1.235 . S
C5 O32 1.289 . S
O6 C5 1.235 . S
C7 C9 1.400 . S
C7 N10 1.351 . S
C7 C12 1.501 . S
C8 C9 1.387 . S
C8 N11 1.341 . S
C9 C7 1.400 . S
C9 C8 1.387 . S
N10 Co1 2.022 . S
N10 C7 1.351 . S
N10 N11 1.365 . S
N11 C8 1.341 . S
N11 N10 1.365 . S
N11 H31 0.862 . S
C12 C7 1.501 . S
C12 H13 0.961 . S
C12 H14 0.961 . S
C12 H15 0.960 . S
H13 C12 0.961 . S
H14 C12 0.961 . S
H15 C12 0.960 . S
C16 N17 1.342 . S
C16 C20 1.401 . S
C16 C21 1.499 . S
N17 Co0 1.989 . S
N17 C16 1.342 . S
N17 N18 1.388 . S
N18 Co1 1.993 . S
N18 N17 1.388 . S
N18 C19 1.346 . S
C19 N18 1.346 . S
C19 C20 1.396 . S
C19 C29 1.510 . S
C20 C16 1.401 . S
C20 C19 1.396 . S
C21 C16 1.499 . S
C21 H22 0.959 . S
C21 H23 0.960 . S
C21 H24 0.961 . S
H22 C21 0.959 . S
H23 C21 0.960 . S
H24 C21 0.961 . S
O25 Co0 1.967 . S
O25 C33 1.258 . S
O26 Co1 1.941 . S
O26 C33 1.266 . S
H27 C29 0.959 . S
H28 C29 0.961 . S
C29 C19 1.510 . S
C29 H27 0.959 . S
C29 H28 0.961 . S
C29 H30 0.960 . S
H30 C29 0.960 . S
H31 N11 0.862 . S
O32 Co0 1.920 . S
O32 C5 1.289 . S
C33 O25 1.258 . S
C33 O26 1.266 . S
Co34 O37 1.970 . S
Co34 N51 1.989 . S
Co34 O59 1.967 . S
Co34 O66 1.920 . S
Co35 O38 1.966 . S
Co35 N44 2.022 . S
Co35 N52 1.993 . S
Co35 O60 1.941 . S
C36 O37 1.258 . S
C36 O38 1.263 . S
O37 Co34 1.970 . S
O37 C36 1.258 . S
O38 Co35 1.966 . S
O38 C36 1.263 . S
C39 O40 1.235 . S
C39 O66 1.289 . S
O40 C39 1.235 . S
C41 C43 1.400 . S
C41 N44 1.351 . S
C41 C46 1.501 . S
C42 C43 1.387 . S
C42 N45 1.341 . S
C43 C41 1.400 . S
C43 C42 1.387 . S
N44 Co35 2.022 . S
N44 C41 1.351 . S
N44 N45 1.365 . S
N45 C42 1.341 . S
N45 N44 1.365 . S
N45 H65 0.862 . S
C46 C41 1.501 . S
C46 H47 0.961 . S
C46 H48 0.961 . S
C46 H49 0.960 . S
H47 C46 0.961 . S
H48 C46 0.961 . S
H49 C46 0.960 . S
C50 N51 1.342 . S
C50 C54 1.401 . S
C50 C55 1.499 . S
N51 Co34 1.989 . S
N51 C50 1.342 . S
N51 N52 1.388 . S
N52 Co35 1.993 . S
N52 N51 1.388 . S
N52 C53 1.346 . S
C53 N52 1.346 . S
C53 C54 1.396 . S
C53 C63 1.510 . S
C54 C50 1.401 . S
C54 C53 1.396 . S
C55 C50 1.499 . S
C55 H56 0.959 . S
C55 H57 0.960 . S
C55 H58 0.961 . S
H56 C55 0.959 . S
H57 C55 0.960 . S
H58 C55 0.961 . S
O59 Co34 1.967 . S
O59 C67 1.258 . S
O60 Co35 1.941 . S
O60 C67 1.266 . S
H61 C63 0.959 . S
H62 C63 0.961 . S
C63 C53 1.510 . S
C63 H61 0.959 . S
C63 H62 0.961 . S
C63 H64 0.960 . S
H64 C63 0.960 . S
H65 N45 0.862 . S
O66 Co34 1.920 . S
O66 C39 1.289 . S
C67 O59 1.258 . S
C67 O60 1.266 . S
Co68 O71 1.970 . S
Co68 N85 1.989 . S
Co68 O93 1.967 . S
Co68 O100 1.920 . S
Co69 O72 1.966 . S
Co69 N78 2.022 . S
Co69 N86 1.993 . S
Co69 O94 1.941 . S
C70 O71 1.258 . S
C70 O72 1.263 . S
O71 Co68 1.970 . S
O71 C70 1.258 . S
O72 Co69 1.966 . S
O72 C70 1.263 . S
C73 O74 1.235 . S
C73 O100 1.289 . S
O74 C73 1.235 . S
C75 C77 1.400 . S
C75 N78 1.351 . S
C75 C80 1.501 . S
C76 C77 1.387 . S
C76 N79 1.341 . S
C77 C75 1.400 . S
C77 C76 1.387 . S
N78 Co69 2.022 . S
N78 C75 1.351 . S
N78 N79 1.365 . S
N79 C76 1.341 . S
N79 N78 1.365 . S
N79 H99 0.862 . S
C80 C75 1.501 . S
C80 H81 0.961 . S
C80 H82 0.961 . S
C80 H83 0.960 . S
H81 C80 0.961 . S
H82 C80 0.961 . S
H83 C80 0.960 . S
C84 N85 1.342 . S
C84 C88 1.401 . S
C84 C89 1.499 . S
N85 Co68 1.989 . S
N85 C84 1.342 . S
N85 N86 1.388 . S
N86 Co69 1.993 . S
N86 N85 1.388 . S
N86 C87 1.346 . S
C87 N86 1.346 . S
C87 C88 1.396 . S
C87 C97 1.510 . S
C88 C84 1.401 . S
C88 C87 1.396 . S
C89 C84 1.499 . S
C89 H90 0.959 . S
C89 H91 0.960 . S
C89 H92 0.961 . S
H90 C89 0.959 . S
H91 C89 0.960 . S
H92 C89 0.961 . S
O93 Co68 1.967 . S
O93 C101 1.258 . S
O94 Co69 1.941 . S
O94 C101 1.266 . S
H95 C97 0.959 . S
H96 C97 0.961 . S
C97 C87 1.510 . S
C97 H95 0.959 . S
C97 H96 0.961 . S
C97 H98 0.960 . S
H98 C97 0.960 . S
H99 N79 0.862 . S
O100 Co68 1.920 . S
O100 C73 1.289 . S
C101 O93 1.258 . S
C101 O94 1.266 . S
Co102 O105 1.970 . S
Co102 N119 1.989 . S
Co102 O127 1.967 . S
Co102 O134 1.920 . S
Co103 O106 1.966 . S
Co103 N112 2.022 . S
Co103 N120 1.993 . S
Co103 O128 1.941 . S
C104 O105 1.258 . S
C104 O106 1.263 . S
O105 Co102 1.970 . S
O105 C104 1.258 . S
O106 Co103 1.966 . S
O106 C104 1.263 . S
C107 O108 1.235 . S
C107 O134 1.289 . S
O108 C107 1.235 . S
C109 C111 1.400 . S
C109 N112 1.351 . S
C109 C114 1.501 . S
C110 C111 1.387 . S
C110 N113 1.341 . S
C111 C109 1.400 . S
C111 C110 1.387 . S
N112 Co103 2.022 . S
N112 C109 1.351 . S
N112 N113 1.365 . S
N113 C110 1.341 . S
N113 N112 1.365 . S
N113 H133 0.862 . S
C114 C109 1.501 . S
C114 H115 0.961 . S
C114 H116 0.961 . S
C114 H117 0.960 . S
H115 C114 0.961 . S
H116 C114 0.961 . S
H117 C114 0.960 . S
C118 N119 1.342 . S
C118 C122 1.401 . S
C118 C123 1.499 . S
N119 Co102 1.989 . S
N119 C118 1.342 . S
N119 N120 1.388 . S
N120 Co103 1.993 . S
N120 N119 1.388 . S
N120 C121 1.346 . S
C121 N120 1.346 . S
C121 C122 1.396 . S
C121 C131 1.510 . S
C122 C118 1.401 . S
C122 C121 1.396 . S
C123 C118 1.499 . S
C123 H124 0.959 . S
C123 H125 0.960 . S
C123 H126 0.961 . S
H124 C123 0.959 . S
H125 C123 0.960 . S
H126 C123 0.961 . S
O127 Co102 1.967 . S
O127 C135 1.258 . S
O128 Co103 1.941 . S
O128 C135 1.266 . S
H129 C131 0.959 . S
H130 C131 0.961 . S
C131 C121 1.510 . S
C131 H129 0.959 . S
C131 H130 0.961 . S
C131 H132 0.960 . S
H132 C131 0.960 . S
H133 N113 0.862 . S
O134 Co102 1.920 . S
O134 C107 1.289 . S
C135 O127 1.258 . S
C135 O128 1.266 . S
Co136 O139 1.970 . S
Co136 N153 1.989 . S
Co136 O161 1.967 . S
Co136 O168 1.920 . S
Co137 O140 1.966 . S
Co137 N146 2.022 . S
Co137 N154 1.993 . S
Co137 O162 1.941 . S
C138 O139 1.258 . S
C138 O140 1.263 . S
O139 Co136 1.970 . S
O139 C138 1.258 . S
O140 Co137 1.966 . S
O140 C138 1.263 . S
C141 O142 1.235 . S
C141 O168 1.289 . S
O142 C141 1.235 . S
C143 C145 1.400 . S
C143 N146 1.351 . S
C143 C148 1.501 . S
C144 C145 1.387 . S
C144 N147 1.341 . S
C145 C143 1.400 . S
C145 C144 1.387 . S
N146 Co137 2.022 . S
N146 C143 1.351 . S
N146 N147 1.365 . S
N147 C144 1.341 . S
N147 N146 1.365 . S
N147 H167 0.862 . S
C148 C143 1.501 . S
C148 H149 0.961 . S
C148 H150 0.961 . S
C148 H151 0.960 . S
H149 C148 0.961 . S
H150 C148 0.961 . S
H151 C148 0.960 . S
C152 N153 1.342 . S
C152 C156 1.401 . S
C152 C157 1.499 . S
N153 Co136 1.989 . S
N153 C152 1.342 . S
N153 N154 1.388 . S
N154 Co137 1.993 . S
N154 N153 1.388 . S
N154 C155 1.346 . S
C155 N154 1.346 . S
C155 C156 1.396 . S
C155 C165 1.510 . S
C156 C152 1.401 . S
C156 C155 1.396 . S
C157 C152 1.499 . S
C157 H158 0.959 . S
C157 H159 0.960 . S
C157 H160 0.961 . S
H158 C157 0.959 . S
H159 C157 0.960 . S
H160 C157 0.961 . S
O161 Co136 1.967 . S
O161 C169 1.258 . S
O162 Co137 1.941 . S
O162 C169 1.266 . S
H163 C165 0.959 . S
H164 C165 0.961 . S
C165 C155 1.510 . S
C165 H163 0.959 . S
C165 H164 0.961 . S
C165 H166 0.960 . S
H166 C165 0.960 . S
H167 N147 0.862 . S
O168 Co136 1.920 . S
O168 C141 1.289 . S
C169 O161 1.258 . S
C169 O162 1.266 . S
Co170 O173 1.970 . S
Co170 N187 1.989 . S
Co170 O195 1.967 . S
Co170 O202 1.920 . S
Co171 O174 1.966 . S
Co171 N180 2.022 . S
Co171 N188 1.993 . S
Co171 O196 1.941 . S
C172 O173 1.258 . S
C172 O174 1.263 . S
O173 Co170 1.970 . S
O173 C172 1.258 . S
O174 Co171 1.966 . S
O174 C172 1.263 . S
C175 O176 1.235 . S
C175 O202 1.289 . S
O176 C175 1.235 . S
C177 C179 1.400 . S
C177 N180 1.351 . S
C177 C182 1.501 . S
C178 C179 1.387 . S
C178 N181 1.341 . S
C179 C177 1.400 . S
C179 C178 1.387 . S
N180 Co171 2.022 . S
N180 C177 1.351 . S
N180 N181 1.365 . S
N181 C178 1.341 . S
N181 N180 1.365 . S
N181 H201 0.862 . S
C182 C177 1.501 . S
C182 H183 0.961 . S
C182 H184 0.961 . S
C182 H185 0.960 . S
H183 C182 0.961 . S
H184 C182 0.961 . S
H185 C182 0.960 . S
C186 N187 1.342 . S
C186 C190 1.401 . S
C186 C191 1.499 . S
N187 Co170 1.989 . S
N187 C186 1.342 . S
N187 N188 1.388 . S
N188 Co171 1.993 . S
N188 N187 1.388 . S
N188 C189 1.346 . S
C189 N188 1.346 . S
C189 C190 1.396 . S
C189 C199 1.510 . S
C190 C186 1.401 . S
C190 C189 1.396 . S
C191 C186 1.499 . S
C191 H192 0.959 . S
C191 H193 0.960 . S
C191 H194 0.961 . S
H192 C191 0.959 . S
H193 C191 0.960 . S
H194 C191 0.961 . S
O195 Co170 1.967 . S
O195 C203 1.258 . S
O196 Co171 1.941 . S
O196 C203 1.266 . S
H197 C199 0.959 . S
H198 C199 0.961 . S
C199 C189 1.510 . S
C199 H197 0.959 . S
C199 H198 0.961 . S
C199 H200 0.960 . S
H200 C199 0.960 . S
H201 N181 0.862 . S
O202 Co170 1.920 . S
O202 C175 1.289 . S
C203 O195 1.258 . S
C203 O196 1.266 . S
Co204 O207 1.970 . S
Co204 N221 1.989 . S
Co204 O229 1.967 . S
Co204 O236 1.920 . S
Co205 O208 1.966 . S
Co205 N214 2.022 . S
Co205 N222 1.993 . S
Co205 O230 1.941 . S
C206 O207 1.258 . S
C206 O208 1.263 . S
O207 Co204 1.970 . S
O207 C206 1.258 . S
O208 Co205 1.966 . S
O208 C206 1.263 . S
C209 O210 1.235 . S
C209 O236 1.289 . S
O210 C209 1.235 . S
C211 C213 1.400 . S
C211 N214 1.351 . S
C211 C216 1.501 . S
C212 C213 1.387 . S
C212 N215 1.341 . S
C213 C211 1.400 . S
C213 C212 1.387 . S
N214 Co205 2.022 . S
N214 C211 1.351 . S
N214 N215 1.365 . S
N215 C212 1.341 . S
N215 N214 1.365 . S
N215 H235 0.862 . S
C216 C211 1.501 . S
C216 H217 0.961 . S
C216 H218 0.961 . S
C216 H219 0.960 . S
H217 C216 0.961 . S
H218 C216 0.961 . S
H219 C216 0.960 . S
C220 N221 1.342 . S
C220 C224 1.401 . S
C220 C225 1.499 . S
N221 Co204 1.989 . S
N221 C220 1.342 . S
N221 N222 1.388 . S
N222 Co205 1.993 . S
N222 N221 1.388 . S
N222 C223 1.346 . S
C223 N222 1.346 . S
C223 C224 1.396 . S
C223 C233 1.510 . S
C224 C220 1.401 . S
C224 C223 1.396 . S
C225 C220 1.499 . S
C225 H226 0.959 . S
C225 H227 0.960 . S
C225 H228 0.961 . S
H226 C225 0.959 . S
H227 C225 0.960 . S
H228 C225 0.961 . S
O229 Co204 1.967 . S
O229 C237 1.258 . S
O230 Co205 1.941 . S
O230 C237 1.266 . S
H231 C233 0.959 . S
H232 C233 0.961 . S
C233 C223 1.510 . S
C233 H231 0.959 . S
C233 H232 0.961 . S
C233 H234 0.960 . S
H234 C233 0.960 . S
H235 N215 0.862 . S
O236 Co204 1.920 . S
O236 C209 1.289 . S
C237 O229 1.258 . S
C237 O230 1.266 . S
Co238 O241 1.970 . S
Co238 N255 1.989 . S
Co238 O263 1.967 . S
Co238 O270 1.920 . S
Co239 O242 1.966 . S
Co239 N248 2.022 . S
Co239 N256 1.993 . S
Co239 O264 1.941 . S
C240 O241 1.258 . S
C240 O242 1.263 . S
O241 Co238 1.970 . S
O241 C240 1.258 . S
O242 Co239 1.966 . S
O242 C240 1.263 . S
C243 O244 1.235 . S
C243 O270 1.289 . S
O244 C243 1.235 . S
C245 C247 1.400 . S
C245 N248 1.351 . S
C245 C250 1.501 . S
C246 C247 1.387 . S
C246 N249 1.341 . S
C247 C245 1.400 . S
C247 C246 1.387 . S
N248 Co239 2.022 . S
N248 C245 1.351 . S
N248 N249 1.365 . S
N249 C246 1.341 . S
N249 N248 1.365 . S
N249 H269 0.862 . S
C250 C245 1.501 . S
C250 H251 0.961 . S
C250 H252 0.961 . S
C250 H253 0.960 . S
H251 C250 0.961 . S
H252 C250 0.961 . S
H253 C250 0.960 . S
C254 N255 1.342 . S
C254 C258 1.401 . S
C254 C259 1.499 . S
N255 Co238 1.989 . S
N255 C254 1.342 . S
N255 N256 1.388 . S
N256 Co239 1.993 . S
N256 N255 1.388 . S
N256 C257 1.346 . S
C257 N256 1.346 . S
C257 C258 1.396 . S
C257 C267 1.510 . S
C258 C254 1.401 . S
C258 C257 1.396 . S
C259 C254 1.499 . S
C259 H260 0.959 . S
C259 H261 0.960 . S
C259 H262 0.961 . S
H260 C259 0.959 . S
H261 C259 0.960 . S
H262 C259 0.961 . S
O263 Co238 1.967 . S
O263 C271 1.258 . S
O264 Co239 1.941 . S
O264 C271 1.266 . S
H265 C267 0.959 . S
H266 C267 0.961 . S
C267 C257 1.510 . S
C267 H265 0.959 . S
C267 H266 0.961 . S
C267 H268 0.960 . S
H268 C267 0.960 . S
H269 N249 0.862 . S
O270 Co238 1.920 . S
O270 C243 1.289 . S
C271 O263 1.258 . S
C271 O264 1.266 . S
Co272 O275 1.970 . S
Co272 N289 1.989 . S
Co272 O297 1.967 . S
Co272 O304 1.920 . S
Co273 O276 1.966 . S
Co273 N282 2.022 . S
Co273 N290 1.993 . S
Co273 O298 1.941 . S
C274 O275 1.258 . S
C274 O276 1.263 . S
O275 Co272 1.970 . S
O275 C274 1.258 . S
O276 Co273 1.966 . S
O276 C274 1.263 . S
C277 O278 1.235 . S
C277 O304 1.289 . S
O278 C277 1.235 . S
C279 C281 1.400 . S
C279 N282 1.351 . S
C279 C284 1.501 . S
C280 C281 1.387 . S
C280 N283 1.341 . S
C281 C279 1.400 . S
C281 C280 1.387 . S
N282 Co273 2.022 . S
N282 C279 1.351 . S
N282 N283 1.365 . S
N283 C280 1.341 . S
N283 N282 1.365 . S
N283 H303 0.862 . S
C284 C279 1.501 . S
C284 H285 0.961 . S
C284 H286 0.961 . S
C284 H287 0.960 . S
H285 C284 0.961 . S
H286 C284 0.961 . S
H287 C284 0.960 . S
C288 N289 1.342 . S
C288 C292 1.401 . S
C288 C293 1.499 . S
N289 Co272 1.989 . S
N289 C288 1.342 . S
N289 N290 1.388 . S
N290 Co273 1.993 . S
N290 N289 1.388 . S
N290 C291 1.346 . S
C291 N290 1.346 . S
C291 C292 1.396 . S
C291 C301 1.510 . S
C292 C288 1.401 . S
C292 C291 1.396 . S
C293 C288 1.499 . S
C293 H294 0.959 . S
C293 H295 0.960 . S
C293 H296 0.961 . S
H294 C293 0.959 . S
H295 C293 0.960 . S
H296 C293 0.961 . S
O297 Co272 1.967 . S
O297 C305 1.258 . S
O298 Co273 1.941 . S
O298 C305 1.266 . S
H299 C301 0.959 . S
H300 C301 0.961 . S
C301 C291 1.510 . S
C301 H299 0.959 . S
C301 H300 0.961 . S
C301 H302 0.960 . S
H302 C301 0.960 . S
H303 N283 0.862 . S
O304 Co272 1.920 . S
O304 C277 1.289 . S
C305 O297 1.258 . S
C305 O298 1.266 . S
Co306 O309 1.970 . S
Co306 N323 1.989 . S
Co306 O331 1.967 . S
Co306 O338 1.920 . S
Co307 O310 1.966 . S
Co307 N316 2.022 . S
Co307 N324 1.993 . S
Co307 O332 1.941 . S
C308 O309 1.258 . S
C308 O310 1.263 . S
O309 Co306 1.970 . S
O309 C308 1.258 . S
O310 Co307 1.966 . S
O310 C308 1.263 . S
C311 O312 1.235 . S
C311 O338 1.289 . S
O312 C311 1.235 . S
C313 C315 1.400 . S
C313 N316 1.351 . S
C313 C318 1.501 . S
C314 C315 1.387 . S
C314 N317 1.341 . S
C315 C313 1.400 . S
C315 C314 1.387 . S
N316 Co307 2.022 . S
N316 C313 1.351 . S
N316 N317 1.365 . S
N317 C314 1.341 . S
N317 N316 1.365 . S
N317 H337 0.862 . S
C318 C313 1.501 . S
C318 H319 0.961 . S
C318 H320 0.961 . S
C318 H321 0.960 . S
H319 C318 0.961 . S
H320 C318 0.961 . S
H321 C318 0.960 . S
C322 N323 1.342 . S
C322 C326 1.401 . S
C322 C327 1.499 . S
N323 Co306 1.989 . S
N323 C322 1.342 . S
N323 N324 1.388 . S
N324 Co307 1.993 . S
N324 N323 1.388 . S
N324 C325 1.346 . S
C325 N324 1.346 . S
C325 C326 1.396 . S
C325 C335 1.510 . S
C326 C322 1.401 . S
C326 C325 1.396 . S
C327 C322 1.499 . S
C327 H328 0.959 . S
C327 H329 0.960 . S
C327 H330 0.961 . S
H328 C327 0.959 . S
H329 C327 0.960 . S
H330 C327 0.961 . S
O331 Co306 1.967 . S
O331 C339 1.258 . S
O332 Co307 1.941 . S
O332 C339 1.266 . S
H333 C335 0.959 . S
H334 C335 0.961 . S
C335 C325 1.510 . S
C335 H333 0.959 . S
C335 H334 0.961 . S
C335 H336 0.960 . S
H336 C335 0.960 . S
H337 N317 0.862 . S
O338 Co306 1.920 . S
O338 C311 1.289 . S
C339 O331 1.258 . S
C339 O332 1.266 . S
Co340 O343 1.970 . S
Co340 N357 1.989 . S
Co340 O365 1.967 . S
Co340 O372 1.920 . S
Co341 O344 1.966 . S
Co341 N350 2.022 . S
Co341 N358 1.993 . S
Co341 O366 1.941 . S
C342 O343 1.258 . S
C342 O344 1.263 . S
O343 Co340 1.970 . S
O343 C342 1.258 . S
O344 Co341 1.966 . S
O344 C342 1.263 . S
C345 O346 1.235 . S
C345 O372 1.289 . S
O346 C345 1.235 . S
C347 C349 1.400 . S
C347 N350 1.351 . S
C347 C352 1.501 . S
C348 C349 1.387 . S
C348 N351 1.341 . S
C349 C347 1.400 . S
C349 C348 1.387 . S
N350 Co341 2.022 . S
N350 C347 1.351 . S
N350 N351 1.365 . S
N351 C348 1.341 . S
N351 N350 1.365 . S
N351 H371 0.862 . S
C352 C347 1.501 . S
C352 H353 0.961 . S
C352 H354 0.961 . S
C352 H355 0.960 . S
H353 C352 0.961 . S
H354 C352 0.961 . S
H355 C352 0.960 . S
C356 N357 1.342 . S
C356 C360 1.401 . S
C356 C361 1.499 . S
N357 Co340 1.989 . S
N357 C356 1.342 . S
N357 N358 1.388 . S
N358 Co341 1.993 . S
N358 N357 1.388 . S
N358 C359 1.346 . S
C359 N358 1.346 . S
C359 C360 1.396 . S
C359 C369 1.510 . S
C360 C356 1.401 . S
C360 C359 1.396 . S
C361 C356 1.499 . S
C361 H362 0.959 . S
C361 H363 0.960 . S
C361 H364 0.961 . S
H362 C361 0.959 . S
H363 C361 0.960 . S
H364 C361 0.961 . S
O365 Co340 1.967 . S
O365 C373 1.258 . S
O366 Co341 1.941 . S
O366 C373 1.266 . S
H367 C369 0.959 . S
H368 C369 0.961 . S
C369 C359 1.510 . S
C369 H367 0.959 . S
C369 H368 0.961 . S
C369 H370 0.960 . S
H370 C369 0.960 . S
H371 N351 0.862 . S
O372 Co340 1.920 . S
O372 C345 1.289 . S
C373 O365 1.258 . S
C373 O366 1.266 . S
Co374 O377 1.970 . S
Co374 N391 1.989 . S
Co374 O399 1.967 . S
Co374 O406 1.920 . S
Co375 O378 1.966 . S
Co375 N384 2.022 . S
Co375 N392 1.993 . S
Co375 O400 1.941 . S
C376 O377 1.258 . S
C376 O378 1.263 . S
O377 Co374 1.970 . S
O377 C376 1.258 . S
O378 Co375 1.966 . S
O378 C376 1.263 . S
C379 O380 1.235 . S
C379 O406 1.289 . S
O380 C379 1.235 . S
C381 C383 1.400 . S
C381 N384 1.351 . S
C381 C386 1.501 . S
C382 C383 1.387 . S
C382 N385 1.341 . S
C383 C381 1.400 . S
C383 C382 1.387 . S
N384 Co375 2.022 . S
N384 C381 1.351 . S
N384 N385 1.365 . S
N385 C382 1.341 . S
N385 N384 1.365 . S
N385 H405 0.862 . S
C386 C381 1.501 . S
C386 H387 0.961 . S
C386 H388 0.961 . S
C386 H389 0.960 . S
H387 C386 0.961 . S
H388 C386 0.961 . S
H389 C386 0.960 . S
C390 N391 1.342 . S
C390 C394 1.401 . S
C390 C395 1.499 . S
N391 Co374 1.989 . S
N391 C390 1.342 . S
N391 N392 1.388 . S
N392 Co375 1.993 . S
N392 N391 1.388 . S
N392 C393 1.346 . S
C393 N392 1.346 . S
C393 C394 1.396 . S
C393 C403 1.510 . S
C394 C390 1.401 . S
C394 C393 1.396 . S
C395 C390 1.499 . S
C395 H396 0.959 . S
C395 H397 0.960 . S
C395 H398 0.961 . S
H396 C395 0.959 . S
H397 C395 0.960 . S
H398 C395 0.961 . S
O399 Co374 1.967 . S
O399 C407 1.258 . S
O400 Co375 1.941 . S
O400 C407 1.266 . S
H401 C403 0.959 . S
H402 C403 0.961 . S
C403 C393 1.510 . S
C403 H401 0.959 . S
C403 H402 0.961 . S
C403 H404 0.960 . S
H404 C403 0.960 . S
H405 N385 0.862 . S
O406 Co374 1.920 . S
O406 C379 1.289 . S
C407 O399 1.258 . S
C407 O400 1.266 . S
Co408 O411 1.970 . S
Co408 N425 1.989 . S
Co408 O433 1.967 . S
Co408 O440 1.920 . S
Co409 O412 1.966 . S
Co409 N418 2.022 . S
Co409 N426 1.993 . S
Co409 O434 1.941 . S
C410 O411 1.258 . S
C410 O412 1.263 . S
O411 Co408 1.970 . S
O411 C410 1.258 . S
O412 Co409 1.966 . S
O412 C410 1.263 . S
C413 O414 1.235 . S
C413 O440 1.289 . S
O414 C413 1.235 . S
C415 C417 1.400 . S
C415 N418 1.351 . S
C415 C420 1.501 . S
C416 C417 1.387 . S
C416 N419 1.341 . S
C417 C415 1.400 . S
C417 C416 1.387 . S
N418 Co409 2.022 . S
N418 C415 1.351 . S
N418 N419 1.365 . S
N419 C416 1.341 . S
N419 N418 1.365 . S
N419 H439 0.862 . S
C420 C415 1.501 . S
C420 H421 0.961 . S
C420 H422 0.961 . S
C420 H423 0.960 . S
H421 C420 0.961 . S
H422 C420 0.961 . S
H423 C420 0.960 . S
C424 N425 1.342 . S
C424 C428 1.401 . S
C424 C429 1.499 . S
N425 Co408 1.989 . S
N425 C424 1.342 . S
N425 N426 1.388 . S
N426 Co409 1.993 . S
N426 N425 1.388 . S
N426 C427 1.346 . S
C427 N426 1.346 . S
C427 C428 1.396 . S
C427 C437 1.510 . S
C428 C424 1.401 . S
C428 C427 1.396 . S
C429 C424 1.499 . S
C429 H430 0.959 . S
C429 H431 0.960 . S
C429 H432 0.961 . S
H430 C429 0.959 . S
H431 C429 0.960 . S
H432 C429 0.961 . S
O433 Co408 1.967 . S
O433 C441 1.258 . S
O434 Co409 1.941 . S
O434 C441 1.266 . S
H435 C437 0.959 . S
H436 C437 0.961 . S
C437 C427 1.510 . S
C437 H435 0.959 . S
C437 H436 0.961 . S
C437 H438 0.960 . S
H438 C437 0.960 . S
H439 N419 0.862 . S
O440 Co408 1.920 . S
O440 C413 1.289 . S
C441 O433 1.258 . S
C441 O434 1.266 . S
Co442 O445 1.970 . S
Co442 N459 1.989 . S
Co442 O467 1.967 . S
Co442 O474 1.920 . S
Co443 O446 1.966 . S
Co443 N452 2.022 . S
Co443 N460 1.993 . S
Co443 O468 1.941 . S
C444 O445 1.258 . S
C444 O446 1.263 . S
O445 Co442 1.970 . S
O445 C444 1.258 . S
O446 Co443 1.966 . S
O446 C444 1.263 . S
C447 O448 1.235 . S
C447 O474 1.289 . S
O448 C447 1.235 . S
C449 C451 1.400 . S
C449 N452 1.351 . S
C449 C454 1.501 . S
C450 C451 1.387 . S
C450 N453 1.341 . S
C451 C449 1.400 . S
C451 C450 1.387 . S
N452 Co443 2.022 . S
N452 C449 1.351 . S
N452 N453 1.365 . S
N453 C450 1.341 . S
N453 N452 1.365 . S
N453 H473 0.862 . S
C454 C449 1.501 . S
C454 H455 0.961 . S
C454 H456 0.961 . S
C454 H457 0.960 . S
H455 C454 0.961 . S
H456 C454 0.961 . S
H457 C454 0.960 . S
C458 N459 1.342 . S
C458 C462 1.401 . S
C458 C463 1.499 . S
N459 Co442 1.989 . S
N459 C458 1.342 . S
N459 N460 1.388 . S
N460 Co443 1.993 . S
N460 N459 1.388 . S
N460 C461 1.346 . S
C461 N460 1.346 . S
C461 C462 1.396 . S
C461 C471 1.510 . S
C462 C458 1.401 . S
C462 C461 1.396 . S
C463 C458 1.499 . S
C463 H464 0.959 . S
C463 H465 0.960 . S
C463 H466 0.961 . S
H464 C463 0.959 . S
H465 C463 0.960 . S
H466 C463 0.961 . S
O467 Co442 1.967 . S
O467 C475 1.258 . S
O468 Co443 1.941 . S
O468 C475 1.266 . S
H469 C471 0.959 . S
H470 C471 0.961 . S
C471 C461 1.510 . S
C471 H469 0.959 . S
C471 H470 0.961 . S
C471 H472 0.960 . S
H472 C471 0.960 . S
H473 N453 0.862 . S
O474 Co442 1.920 . S
O474 C447 1.289 . S
C475 O467 1.258 . S
C475 O468 1.266 . S
Co476 O479 1.970 . S
Co476 N493 1.989 . S
Co476 O501 1.967 . S
Co476 O508 1.920 . S
Co477 O480 1.966 . S
Co477 N486 2.022 . S
Co477 N494 1.993 . S
Co477 O502 1.941 . S
C478 O479 1.258 . S
C478 O480 1.263 . S
O479 Co476 1.970 . S
O479 C478 1.258 . S
O480 Co477 1.966 . S
O480 C478 1.263 . S
C481 O482 1.235 . S
C481 O508 1.289 . S
O482 C481 1.235 . S
C483 C485 1.400 . S
C483 N486 1.351 . S
C483 C488 1.501 . S
C484 C485 1.387 . S
C484 N487 1.341 . S
C485 C483 1.400 . S
C485 C484 1.387 . S
N486 Co477 2.022 . S
N486 C483 1.351 . S
N486 N487 1.365 . S
N487 C484 1.341 . S
N487 N486 1.365 . S
N487 H507 0.862 . S
C488 C483 1.501 . S
C488 H489 0.961 . S
C488 H490 0.961 . S
C488 H491 0.960 . S
H489 C488 0.961 . S
H490 C488 0.961 . S
H491 C488 0.960 . S
C492 N493 1.342 . S
C492 C496 1.401 . S
C492 C497 1.499 . S
N493 Co476 1.989 . S
N493 C492 1.342 . S
N493 N494 1.388 . S
N494 Co477 1.993 . S
N494 N493 1.388 . S
N494 C495 1.346 . S
C495 N494 1.346 . S
C495 C496 1.396 . S
C495 C505 1.510 . S
C496 C492 1.401 . S
C496 C495 1.396 . S
C497 C492 1.499 . S
C497 H498 0.959 . S
C497 H499 0.960 . S
C497 H500 0.961 . S
H498 C497 0.959 . S
H499 C497 0.960 . S
H500 C497 0.961 . S
O501 Co476 1.967 . S
O501 C509 1.258 . S
O502 Co477 1.941 . S
O502 C509 1.266 . S
H503 C505 0.959 . S
H504 C505 0.961 . S
C505 C495 1.510 . S
C505 H503 0.959 . S
C505 H504 0.961 . S
C505 H506 0.960 . S
H506 C505 0.960 . S
H507 N487 0.862 . S
O508 Co476 1.920 . S
O508 C481 1.289 . S
C509 O501 1.258 . S
C509 O502 1.266 . S
Co510 O513 1.970 . S
Co510 N527 1.989 . S
Co510 O535 1.967 . S
Co510 O542 1.920 . S
Co511 O514 1.966 . S
Co511 N520 2.022 . S
Co511 N528 1.993 . S
Co511 O536 1.941 . S
C512 O513 1.258 . S
C512 O514 1.263 . S
O513 Co510 1.970 . S
O513 C512 1.258 . S
O514 Co511 1.966 . S
O514 C512 1.263 . S
C515 O516 1.235 . S
C515 O542 1.289 . S
O516 C515 1.235 . S
C517 C519 1.400 . S
C517 N520 1.351 . S
C517 C522 1.501 . S
C518 C519 1.387 . S
C518 N521 1.341 . S
C519 C517 1.400 . S
C519 C518 1.387 . S
N520 Co511 2.022 . S
N520 C517 1.351 . S
N520 N521 1.365 . S
N521 C518 1.341 . S
N521 N520 1.365 . S
N521 H541 0.862 . S
C522 C517 1.501 . S
C522 H523 0.961 . S
C522 H524 0.961 . S
C522 H525 0.960 . S
H523 C522 0.961 . S
H524 C522 0.961 . S
H525 C522 0.960 . S
C526 N527 1.342 . S
C526 C530 1.401 . S
C526 C531 1.499 . S
N527 Co510 1.989 . S
N527 C526 1.342 . S
N527 N528 1.388 . S
N528 Co511 1.993 . S
N528 N527 1.388 . S
N528 C529 1.346 . S
C529 N528 1.346 . S
C529 C530 1.396 . S
C529 C539 1.510 . S
C530 C526 1.401 . S
C530 C529 1.396 . S
C531 C526 1.499 . S
C531 H532 0.959 . S
C531 H533 0.960 . S
C531 H534 0.961 . S
H532 C531 0.959 . S
H533 C531 0.960 . S
H534 C531 0.961 . S
O535 Co510 1.967 . S
O535 C543 1.258 . S
O536 Co511 1.941 . S
O536 C543 1.266 . S
H537 C539 0.959 . S
H538 C539 0.961 . S
C539 C529 1.510 . S
C539 H537 0.959 . S
C539 H538 0.961 . S
C539 H540 0.960 . S
H540 C539 0.960 . S
H541 N521 0.862 . S
O542 Co510 1.920 . S
O542 C515 1.289 . S
C543 O535 1.258 . S
C543 O536 1.266 . S
Co544 O547 1.970 . S
Co544 N561 1.989 . S
Co544 O569 1.967 . S
Co544 O576 1.920 . S
Co545 O548 1.966 . S
Co545 N554 2.022 . S
Co545 N562 1.993 . S
Co545 O570 1.941 . S
C546 O547 1.258 . S
C546 O548 1.263 . S
O547 Co544 1.970 . S
O547 C546 1.258 . S
O548 Co545 1.966 . S
O548 C546 1.263 . S
C549 O550 1.235 . S
C549 O576 1.289 . S
O550 C549 1.235 . S
C551 C553 1.400 . S
C551 N554 1.351 . S
C551 C556 1.501 . S
C552 C553 1.387 . S
C552 N555 1.341 . S
C553 C551 1.400 . S
C553 C552 1.387 . S
N554 Co545 2.022 . S
N554 C551 1.351 . S
N554 N555 1.365 . S
N555 C552 1.341 . S
N555 N554 1.365 . S
N555 H575 0.862 . S
C556 C551 1.501 . S
C556 H557 0.961 . S
C556 H558 0.961 . S
C556 H559 0.960 . S
H557 C556 0.961 . S
H558 C556 0.961 . S
H559 C556 0.960 . S
C560 N561 1.342 . S
C560 C564 1.401 . S
C560 C565 1.499 . S
N561 Co544 1.989 . S
N561 C560 1.342 . S
N561 N562 1.388 . S
N562 Co545 1.993 . S
N562 N561 1.388 . S
N562 C563 1.346 . S
C563 N562 1.346 . S
C563 C564 1.396 . S
C563 C573 1.510 . S
C564 C560 1.401 . S
C564 C563 1.396 . S
C565 C560 1.499 . S
C565 H566 0.959 . S
C565 H567 0.960 . S
C565 H568 0.961 . S
H566 C565 0.959 . S
H567 C565 0.960 . S
H568 C565 0.961 . S
O569 Co544 1.967 . S
O569 C577 1.258 . S
O570 Co545 1.941 . S
O570 C577 1.266 . S
H571 C573 0.959 . S
H572 C573 0.961 . S
C573 C563 1.510 . S
C573 H571 0.959 . S
C573 H572 0.961 . S
C573 H574 0.960 . S
H574 C573 0.960 . S
H575 N555 0.862 . S
O576 Co544 1.920 . S
O576 C549 1.289 . S
C577 O569 1.258 . S
C577 O570 1.266 . S
Co578 O581 1.970 . S
Co578 N595 1.989 . S
Co578 O603 1.967 . S
Co578 O610 1.920 . S
Co579 O582 1.966 . S
Co579 N588 2.022 . S
Co579 N596 1.993 . S
Co579 O604 1.941 . S
C580 O581 1.258 . S
C580 O582 1.263 . S
O581 Co578 1.970 . S
O581 C580 1.258 . S
O582 Co579 1.966 . S
O582 C580 1.263 . S
C583 O584 1.235 . S
C583 O610 1.289 . S
O584 C583 1.235 . S
C585 C587 1.400 . S
C585 N588 1.351 . S
C585 C590 1.501 . S
C586 C587 1.387 . S
C586 N589 1.341 . S
C587 C585 1.400 . S
C587 C586 1.387 . S
N588 Co579 2.022 . S
N588 C585 1.351 . S
N588 N589 1.365 . S
N589 C586 1.341 . S
N589 N588 1.365 . S
N589 H609 0.862 . S
C590 C585 1.501 . S
C590 H591 0.961 . S
C590 H592 0.961 . S
C590 H593 0.960 . S
H591 C590 0.961 . S
H592 C590 0.961 . S
H593 C590 0.960 . S
C594 N595 1.342 . S
C594 C598 1.401 . S
C594 C599 1.499 . S
N595 Co578 1.989 . S
N595 C594 1.342 . S
N595 N596 1.388 . S
N596 Co579 1.993 . S
N596 N595 1.388 . S
N596 C597 1.346 . S
C597 N596 1.346 . S
C597 C598 1.396 . S
C597 C607 1.510 . S
C598 C594 1.401 . S
C598 C597 1.396 . S
C599 C594 1.499 . S
C599 H600 0.959 . S
C599 H601 0.960 . S
C599 H602 0.961 . S
H600 C599 0.959 . S
H601 C599 0.960 . S
H602 C599 0.961 . S
O603 Co578 1.967 . S
O603 C611 1.258 . S
O604 Co579 1.941 . S
O604 C611 1.266 . S
H605 C607 0.959 . S
H606 C607 0.961 . S
C607 C597 1.510 . S
C607 H605 0.959 . S
C607 H606 0.961 . S
C607 H608 0.960 . S
H608 C607 0.960 . S
H609 N589 0.862 . S
O610 Co578 1.920 . S
O610 C583 1.289 . S
C611 O603 1.258 . S
C611 O604 1.266 . S
Co612 O615 1.970 . S
Co612 N629 1.989 . S
Co612 O637 1.967 . S
Co612 O644 1.920 . S
Co613 O616 1.966 . S
Co613 N622 2.022 . S
Co613 N630 1.993 . S
Co613 O638 1.941 . S
C614 O615 1.258 . S
C614 O616 1.263 . S
O615 Co612 1.970 . S
O615 C614 1.258 . S
O616 Co613 1.966 . S
O616 C614 1.263 . S
C617 O618 1.235 . S
C617 O644 1.289 . S
O618 C617 1.235 . S
C619 C621 1.400 . S
C619 N622 1.351 . S
C619 C624 1.501 . S
C620 C621 1.387 . S
C620 N623 1.341 . S
C621 C619 1.400 . S
C621 C620 1.387 . S
N622 Co613 2.022 . S
N622 C619 1.351 . S
N622 N623 1.365 . S
N623 C620 1.341 . S
N623 N622 1.365 . S
N623 H643 0.862 . S
C624 C619 1.501 . S
C624 H625 0.961 . S
C624 H626 0.961 . S
C624 H627 0.960 . S
H625 C624 0.961 . S
H626 C624 0.961 . S
H627 C624 0.960 . S
C628 N629 1.342 . S
C628 C632 1.401 . S
C628 C633 1.499 . S
N629 Co612 1.989 . S
N629 C628 1.342 . S
N629 N630 1.388 . S
N630 Co613 1.993 . S
N630 N629 1.388 . S
N630 C631 1.346 . S
C631 N630 1.346 . S
C631 C632 1.396 . S
C631 C641 1.510 . S
C632 C628 1.401 . S
C632 C631 1.396 . S
C633 C628 1.499 . S
C633 H634 0.959 . S
C633 H635 0.960 . S
C633 H636 0.961 . S
H634 C633 0.959 . S
H635 C633 0.960 . S
H636 C633 0.961 . S
O637 Co612 1.967 . S
O637 C645 1.258 . S
O638 Co613 1.941 . S
O638 C645 1.266 . S
H639 C641 0.959 . S
H640 C641 0.961 . S
C641 C631 1.510 . S
C641 H639 0.959 . S
C641 H640 0.961 . S
C641 H642 0.960 . S
H642 C641 0.960 . S
H643 N623 0.862 . S
O644 Co612 1.920 . S
O644 C617 1.289 . S
C645 O637 1.258 . S
C645 O638 1.266 . S
Co646 O649 1.970 . S
Co646 N663 1.989 . S
Co646 O671 1.967 . S
Co646 O678 1.920 . S
Co647 O650 1.966 . S
Co647 N656 2.022 . S
Co647 N664 1.993 . S
Co647 O672 1.941 . S
C648 O649 1.258 . S
C648 O650 1.263 . S
O649 Co646 1.970 . S
O649 C648 1.258 . S
O650 Co647 1.966 . S
O650 C648 1.263 . S
C651 O652 1.235 . S
C651 O678 1.289 . S
O652 C651 1.235 . S
C653 C655 1.400 . S
C653 N656 1.351 . S
C653 C658 1.501 . S
C654 C655 1.387 . S
C654 N657 1.341 . S
C655 C653 1.400 . S
C655 C654 1.387 . S
N656 Co647 2.022 . S
N656 C653 1.351 . S
N656 N657 1.365 . S
N657 C654 1.341 . S
N657 N656 1.365 . S
N657 H677 0.862 . S
C658 C653 1.501 . S
C658 H659 0.961 . S
C658 H660 0.961 . S
C658 H661 0.960 . S
H659 C658 0.961 . S
H660 C658 0.961 . S
H661 C658 0.960 . S
C662 N663 1.342 . S
C662 C666 1.401 . S
C662 C667 1.499 . S
N663 Co646 1.989 . S
N663 C662 1.342 . S
N663 N664 1.388 . S
N664 Co647 1.993 . S
N664 N663 1.388 . S
N664 C665 1.346 . S
C665 N664 1.346 . S
C665 C666 1.396 . S
C665 C675 1.510 . S
C666 C662 1.401 . S
C666 C665 1.396 . S
C667 C662 1.499 . S
C667 H668 0.959 . S
C667 H669 0.960 . S
C667 H670 0.961 . S
H668 C667 0.959 . S
H669 C667 0.960 . S
H670 C667 0.961 . S
O671 Co646 1.967 . S
O671 C679 1.258 . S
O672 Co647 1.941 . S
O672 C679 1.266 . S
H673 C675 0.959 . S
H674 C675 0.961 . S
C675 C665 1.510 . S
C675 H673 0.959 . S
C675 H674 0.961 . S
C675 H676 0.960 . S
H676 C675 0.960 . S
H677 N657 0.862 . S
O678 Co646 1.920 . S
O678 C651 1.289 . S
C679 O671 1.258 . S
C679 O672 1.266 . S
Co680 O683 1.970 . S
Co680 N697 1.989 . S
Co680 O705 1.967 . S
Co680 O712 1.920 . S
Co681 O684 1.966 . S
Co681 N690 2.022 . S
Co681 N698 1.993 . S
Co681 O706 1.941 . S
C682 O683 1.258 . S
C682 O684 1.263 . S
O683 Co680 1.970 . S
O683 C682 1.258 . S
O684 Co681 1.966 . S
O684 C682 1.263 . S
C685 O686 1.235 . S
C685 O712 1.289 . S
O686 C685 1.235 . S
C687 C689 1.400 . S
C687 N690 1.351 . S
C687 C692 1.501 . S
C688 C689 1.387 . S
C688 N691 1.341 . S
C689 C687 1.400 . S
C689 C688 1.387 . S
N690 Co681 2.022 . S
N690 C687 1.351 . S
N690 N691 1.365 . S
N691 C688 1.341 . S
N691 N690 1.365 . S
N691 H711 0.862 . S
C692 C687 1.501 . S
C692 H693 0.961 . S
C692 H694 0.961 . S
C692 H695 0.960 . S
H693 C692 0.961 . S
H694 C692 0.961 . S
H695 C692 0.960 . S
C696 N697 1.342 . S
C696 C700 1.401 . S
C696 C701 1.499 . S
N697 Co680 1.989 . S
N697 C696 1.342 . S
N697 N698 1.388 . S
N698 Co681 1.993 . S
N698 N697 1.388 . S
N698 C699 1.346 . S
C699 N698 1.346 . S
C699 C700 1.396 . S
C699 C709 1.510 . S
C700 C696 1.401 . S
C700 C699 1.396 . S
C701 C696 1.499 . S
C701 H702 0.959 . S
C701 H703 0.960 . S
C701 H704 0.961 . S
H702 C701 0.959 . S
H703 C701 0.960 . S
H704 C701 0.961 . S
O705 Co680 1.967 . S
O705 C713 1.258 . S
O706 Co681 1.941 . S
O706 C713 1.266 . S
H707 C709 0.959 . S
H708 C709 0.961 . S
C709 C699 1.510 . S
C709 H707 0.959 . S
C709 H708 0.961 . S
C709 H710 0.960 . S
H710 C709 0.960 . S
H711 N691 0.862 . S
O712 Co680 1.920 . S
O712 C685 1.289 . S
C713 O705 1.258 . S
C713 O706 1.266 . S
Co714 O717 1.970 . S
Co714 N731 1.989 . S
Co714 O739 1.967 . S
Co714 O746 1.920 . S
Co715 O718 1.966 . S
Co715 N724 2.022 . S
Co715 N732 1.993 . S
Co715 O740 1.941 . S
C716 O717 1.258 . S
C716 O718 1.263 . S
O717 Co714 1.970 . S
O717 C716 1.258 . S
O718 Co715 1.966 . S
O718 C716 1.263 . S
C719 O720 1.235 . S
C719 O746 1.289 . S
O720 C719 1.235 . S
C721 C723 1.400 . S
C721 N724 1.351 . S
C721 C726 1.501 . S
C722 C723 1.387 . S
C722 N725 1.341 . S
C723 C721 1.400 . S
C723 C722 1.387 . S
N724 Co715 2.022 . S
N724 C721 1.351 . S
N724 N725 1.365 . S
N725 C722 1.341 . S
N725 N724 1.365 . S
N725 H745 0.862 . S
C726 C721 1.501 . S
C726 H727 0.961 . S
C726 H728 0.961 . S
C726 H729 0.960 . S
H727 C726 0.961 . S
H728 C726 0.961 . S
H729 C726 0.960 . S
C730 N731 1.342 . S
C730 C734 1.401 . S
C730 C735 1.499 . S
N731 Co714 1.989 . S
N731 C730 1.342 . S
N731 N732 1.388 . S
N732 Co715 1.993 . S
N732 N731 1.388 . S
N732 C733 1.346 . S
C733 N732 1.346 . S
C733 C734 1.396 . S
C733 C743 1.510 . S
C734 C730 1.401 . S
C734 C733 1.396 . S
C735 C730 1.499 . S
C735 H736 0.959 . S
C735 H737 0.960 . S
C735 H738 0.961 . S
H736 C735 0.959 . S
H737 C735 0.960 . S
H738 C735 0.961 . S
O739 Co714 1.967 . S
O739 C747 1.258 . S
O740 Co715 1.941 . S
O740 C747 1.266 . S
H741 C743 0.959 . S
H742 C743 0.961 . S
C743 C733 1.510 . S
C743 H741 0.959 . S
C743 H742 0.961 . S
C743 H744 0.960 . S
H744 C743 0.960 . S
H745 N725 0.862 . S
O746 Co714 1.920 . S
O746 C719 1.289 . S
C747 O739 1.258 . S
C747 O740 1.266 . S
Co748 O751 1.970 . S
Co748 N765 1.989 . S
Co748 O773 1.967 . S
Co748 O780 1.920 . S
Co749 O752 1.966 . S
Co749 N758 2.022 . S
Co749 N766 1.993 . S
Co749 O774 1.941 . S
C750 O751 1.258 . S
C750 O752 1.263 . S
O751 Co748 1.970 . S
O751 C750 1.258 . S
O752 Co749 1.966 . S
O752 C750 1.263 . S
C753 O754 1.235 . S
C753 O780 1.289 . S
O754 C753 1.235 . S
C755 C757 1.400 . S
C755 N758 1.351 . S
C755 C760 1.501 . S
C756 C757 1.387 . S
C756 N759 1.341 . S
C757 C755 1.400 . S
C757 C756 1.387 . S
N758 Co749 2.022 . S
N758 C755 1.351 . S
N758 N759 1.365 . S
N759 C756 1.341 . S
N759 N758 1.365 . S
N759 H779 0.862 . S
C760 C755 1.501 . S
C760 H761 0.961 . S
C760 H762 0.961 . S
C760 H763 0.960 . S
H761 C760 0.961 . S
H762 C760 0.961 . S
H763 C760 0.960 . S
C764 N765 1.342 . S
C764 C768 1.401 . S
C764 C769 1.499 . S
N765 Co748 1.989 . S
N765 C764 1.342 . S
N765 N766 1.388 . S
N766 Co749 1.993 . S
N766 N765 1.388 . S
N766 C767 1.346 . S
C767 N766 1.346 . S
C767 C768 1.396 . S
C767 C777 1.510 . S
C768 C764 1.401 . S
C768 C767 1.396 . S
C769 C764 1.499 . S
C769 H770 0.959 . S
C769 H771 0.960 . S
C769 H772 0.961 . S
H770 C769 0.959 . S
H771 C769 0.960 . S
H772 C769 0.961 . S
O773 Co748 1.967 . S
O773 C781 1.258 . S
O774 Co749 1.941 . S
O774 C781 1.266 . S
H775 C777 0.959 . S
H776 C777 0.961 . S
C777 C767 1.510 . S
C777 H775 0.959 . S
C777 H776 0.961 . S
C777 H778 0.960 . S
H778 C777 0.960 . S
H779 N759 0.862 . S
O780 Co748 1.920 . S
O780 C753 1.289 . S
C781 O773 1.258 . S
C781 O774 1.266 . S
Co782 O785 1.970 . S
Co782 N799 1.989 . S
Co782 O807 1.967 . S
Co782 O814 1.920 . S
Co783 O786 1.966 . S
Co783 N792 2.022 . S
Co783 N800 1.993 . S
Co783 O808 1.941 . S
C784 O785 1.258 . S
C784 O786 1.263 . S
O785 Co782 1.970 . S
O785 C784 1.258 . S
O786 Co783 1.966 . S
O786 C784 1.263 . S
C787 O788 1.235 . S
C787 O814 1.289 . S
O788 C787 1.235 . S
C789 C791 1.400 . S
C789 N792 1.351 . S
C789 C794 1.501 . S
C790 C791 1.387 . S
C790 N793 1.341 . S
C791 C789 1.400 . S
C791 C790 1.387 . S
N792 Co783 2.022 . S
N792 C789 1.351 . S
N792 N793 1.365 . S
N793 C790 1.341 . S
N793 N792 1.365 . S
N793 H813 0.862 . S
C794 C789 1.501 . S
C794 H795 0.961 . S
C794 H796 0.961 . S
C794 H797 0.960 . S
H795 C794 0.961 . S
H796 C794 0.961 . S
H797 C794 0.960 . S
C798 N799 1.342 . S
C798 C802 1.401 . S
C798 C803 1.499 . S
N799 Co782 1.989 . S
N799 C798 1.342 . S
N799 N800 1.388 . S
N800 Co783 1.993 . S
N800 N799 1.388 . S
N800 C801 1.346 . S
C801 N800 1.346 . S
C801 C802 1.396 . S
C801 C811 1.510 . S
C802 C798 1.401 . S
C802 C801 1.396 . S
C803 C798 1.499 . S
C803 H804 0.959 . S
C803 H805 0.960 . S
C803 H806 0.961 . S
H804 C803 0.959 . S
H805 C803 0.960 . S
H806 C803 0.961 . S
O807 Co782 1.967 . S
O807 C815 1.258 . S
O808 Co783 1.941 . S
O808 C815 1.266 . S
H809 C811 0.959 . S
H810 C811 0.961 . S
C811 C801 1.510 . S
C811 H809 0.959 . S
C811 H810 0.961 . S
C811 H812 0.960 . S
H812 C811 0.960 . S
H813 N793 0.862 . S
O814 Co782 1.920 . S
O814 C787 1.289 . S
C815 O807 1.258 . S
C815 O808 1.266 . S
H816 C822 0.930 . S
H817 C825 0.930 . S
H818 C826 0.930 . S
H819 C827 0.930 . S
H820 C830 0.930 . S
H821 C831 0.930 . S
C822 H816 0.930 . S
C822 C823 1.355 . S
C822 C824 1.415 . S
C823 C822 1.355 . S
C823 C825 1.419 . S
C824 C822 1.415 . S
C824 C829 1.425 . S
C824 C831 1.409 . S
C825 H817 0.930 . S
C825 C823 1.419 . S
C825 C826 1.362 . S
C826 H818 0.930 . S
C826 C825 1.362 . S
C826 C829 1.409 . S
C827 H819 0.930 . S
C827 C828 1.355 . S
C827 C829 1.415 . S
C828 C827 1.355 . S
C828 C830 1.419 . S
C829 C824 1.425 . S
C829 C826 1.409 . S
C829 C827 1.415 . S
C830 H820 0.930 . S
C830 C828 1.419 . S
C830 C831 1.362 . S
C831 H821 0.930 . S
C831 C824 1.409 . S
C831 C830 1.362 . S
H832 C838 0.930 . S
H833 C841 0.930 . S
H834 C842 0.930 . S
H835 C843 0.930 . S
H836 C846 0.930 . S
H837 C847 0.930 . S
C838 H832 0.930 . S
C838 C839 1.355 . S
C838 C840 1.415 . S
C839 C838 1.355 . S
C839 C841 1.419 . S
C840 C838 1.415 . S
C840 C845 1.425 . S
C840 C847 1.409 . S
C841 H833 0.930 . S
C841 C839 1.419 . S
C841 C842 1.362 . S
C842 H834 0.930 . S
C842 C841 1.362 . S
C842 C845 1.409 . S
C843 H835 0.930 . S
C843 C844 1.355 . S
C843 C845 1.415 . S
C844 C843 1.355 . S
C844 C846 1.419 . S
C845 C840 1.425 . S
C845 C842 1.409 . S
C845 C843 1.415 . S
C846 H836 0.930 . S
C846 C844 1.419 . S
C846 C847 1.362 . S
C847 H837 0.930 . S
C847 C840 1.409 . S
C847 C846 1.362 . S
H848 C854 0.930 . S
H849 C857 0.930 . S
H850 C858 0.930 . S
H851 C859 0.930 . S
H852 C862 0.930 . S
H853 C863 0.930 . S
C854 H848 0.930 . S
C854 C855 1.355 . S
C854 C856 1.415 . S
C855 C854 1.355 . S
C855 C857 1.419 . S
C856 C854 1.415 . S
C856 C861 1.425 . S
C856 C863 1.409 . S
C857 H849 0.930 . S
C857 C855 1.419 . S
C857 C858 1.362 . S
C858 H850 0.930 . S
C858 C857 1.362 . S
C858 C861 1.409 . S
C859 H851 0.930 . S
C859 C860 1.355 . S
C859 C861 1.415 . S
C860 C859 1.355 . S
C860 C862 1.419 . S
C861 C856 1.425 . S
C861 C858 1.409 . S
C861 C859 1.415 . S
C862 H852 0.930 . S
C862 C860 1.419 . S
C862 C863 1.362 . S
C863 H853 0.930 . S
C863 C856 1.409 . S
C863 C862 1.362 . S
H864 C870 0.930 . S
H865 C873 0.930 . S
H866 C874 0.930 . S
H867 C875 0.930 . S
H868 C878 0.930 . S
H869 C879 0.930 . S
C870 H864 0.930 . S
C870 C871 1.355 . S
C870 C872 1.415 . S
C871 C870 1.355 . S
C871 C873 1.419 . S
C872 C870 1.415 . S
C872 C877 1.425 . S
C872 C879 1.409 . S
C873 H865 0.930 . S
C873 C871 1.419 . S
C873 C874 1.362 . S
C874 H866 0.930 . S
C874 C873 1.362 . S
C874 C877 1.409 . S
C875 H867 0.930 . S
C875 C876 1.355 . S
C875 C877 1.415 . S
C876 C875 1.355 . S
C876 C878 1.419 . S
C877 C872 1.425 . S
C877 C874 1.409 . S
C877 C875 1.415 . S
C878 H868 0.930 . S
C878 C876 1.419 . S
C878 C879 1.362 . S
C879 H869 0.930 . S
C879 C872 1.409 . S
C879 C878 1.362 . S
H880 C886 0.930 . S
H881 C889 0.930 . S
H882 C890 0.930 . S
H883 C891 0.930 . S
H884 C894 0.930 . S
H885 C895 0.930 . S
C886 H880 0.930 . S
C886 C887 1.355 . S
C886 C888 1.415 . S
C887 C886 1.355 . S
C887 C889 1.419 . S
C888 C886 1.415 . S
C888 C893 1.425 . S
C888 C895 1.409 . S
C889 H881 0.930 . S
C889 C887 1.419 . S
C889 C890 1.362 . S
C890 H882 0.930 . S
C890 C889 1.362 . S
C890 C893 1.409 . S
C891 H883 0.930 . S
C891 C892 1.355 . S
C891 C893 1.415 . S
C892 C891 1.355 . S
C892 C894 1.419 . S
C893 C888 1.425 . S
C893 C890 1.409 . S
C893 C891 1.415 . S
C894 H884 0.930 . S
C894 C892 1.419 . S
C894 C895 1.362 . S
C895 H885 0.930 . S
C895 C888 1.409 . S
C895 C894 1.362 . S
H896 C902 0.930 . S
H897 C905 0.930 . S
H898 C906 0.930 . S
H899 C907 0.930 . S
H900 C910 0.930 . S
H901 C911 0.930 . S
C902 H896 0.930 . S
C902 C903 1.355 . S
C902 C904 1.415 . S
C903 C902 1.355 . S
C903 C905 1.419 . S
C904 C902 1.415 . S
C904 C909 1.425 . S
C904 C911 1.409 . S
C905 H897 0.930 . S
C905 C903 1.419 . S
C905 C906 1.362 . S
C906 H898 0.930 . S
C906 C905 1.362 . S
C906 C909 1.409 . S
C907 H899 0.930 . S
C907 C908 1.355 . S
C907 C909 1.415 . S
C908 C907 1.355 . S
C908 C910 1.419 . S
C909 C904 1.425 . S
C909 C906 1.409 . S
C909 C907 1.415 . S
C910 H900 0.930 . S
C910 C908 1.419 . S
C910 C911 1.362 . S
C911 H901 0.930 . S
C911 C904 1.409 . S
C911 C910 1.362 . S
H912 C918 0.930 . S
H913 C921 0.930 . S
H914 C922 0.930 . S
H915 C923 0.930 . S
H916 C926 0.930 . S
H917 C927 0.930 . S
C918 H912 0.930 . S
C918 C919 1.355 . S
C918 C920 1.415 . S
C919 C918 1.355 . S
C919 C921 1.419 . S
C920 C918 1.415 . S
C920 C925 1.425 . S
C920 C927 1.409 . S
C921 H913 0.930 . S
C921 C919 1.419 . S
C921 C922 1.362 . S
C922 H914 0.930 . S
C922 C921 1.362 . S
C922 C925 1.409 . S
C923 H915 0.930 . S
C923 C924 1.355 . S
C923 C925 1.415 . S
C924 C923 1.355 . S
C924 C926 1.419 . S
C925 C920 1.425 . S
C925 C922 1.409 . S
C925 C923 1.415 . S
C926 H916 0.930 . S
C926 C924 1.419 . S
C926 C927 1.362 . S
C927 H917 0.930 . S
C927 C920 1.409 . S
C927 C926 1.362 . S
H928 C934 0.930 . S
H929 C937 0.930 . S
H930 C938 0.930 . S
H931 C939 0.930 . S
H932 C942 0.930 . S
H933 C943 0.930 . S
C934 H928 0.930 . S
C934 C935 1.355 . S
C934 C936 1.415 . S
C935 C934 1.355 . S
C935 C937 1.419 . S
C936 C934 1.415 . S
C936 C941 1.425 . S
C936 C943 1.409 . S
C937 H929 0.930 . S
C937 C935 1.419 . S
C937 C938 1.362 . S
C938 H930 0.930 . S
C938 C937 1.362 . S
C938 C941 1.409 . S
C939 H931 0.930 . S
C939 C940 1.355 . S
C939 C941 1.415 . S
C940 C939 1.355 . S
C940 C942 1.419 . S
C941 C936 1.425 . S
C941 C938 1.409 . S
C941 C939 1.415 . S
C942 H932 0.930 . S
C942 C940 1.419 . S
C942 C943 1.362 . S
C943 H933 0.930 . S
C943 C936 1.409 . S
C943 C942 1.362 . S
H944 C950 0.930 . S
H945 C953 0.930 . S
H946 C954 0.930 . S
H947 C955 0.930 . S
H948 C958 0.930 . S
H949 C959 0.930 . S
C950 H944 0.930 . S
C950 C951 1.355 . S
C950 C952 1.415 . S
C951 C950 1.355 . S
C951 C953 1.419 . S
C952 C950 1.415 . S
C952 C957 1.425 . S
C952 C959 1.409 . S
C953 H945 0.930 . S
C953 C951 1.419 . S
C953 C954 1.362 . S
C954 H946 0.930 . S
C954 C953 1.362 . S
C954 C957 1.409 . S
C955 H947 0.930 . S
C955 C956 1.355 . S
C955 C957 1.415 . S
C956 C955 1.355 . S
C956 C958 1.419 . S
C957 C952 1.425 . S
C957 C954 1.409 . S
C957 C955 1.415 . S
C958 H948 0.930 . S
C958 C956 1.419 . S
C958 C959 1.362 . S
C959 H949 0.930 . S
C959 C952 1.409 . S
C959 C958 1.362 . S
H960 C966 0.930 . S
H961 C969 0.930 . S
H962 C970 0.930 . S
H963 C971 0.930 . S
H964 C974 0.930 . S
H965 C975 0.930 . S
C966 H960 0.930 . S
C966 C967 1.355 . S
C966 C968 1.415 . S
C967 C966 1.355 . S
C967 C969 1.419 . S
C968 C966 1.415 . S
C968 C973 1.425 . S
C968 C975 1.409 . S
C969 H961 0.930 . S
C969 C967 1.419 . S
C969 C970 1.362 . S
C970 H962 0.930 . S
C970 C969 1.362 . S
C970 C973 1.409 . S
C971 H963 0.930 . S
C971 C972 1.355 . S
C971 C973 1.415 . S
C972 C971 1.355 . S
C972 C974 1.419 . S
C973 C968 1.425 . S
C973 C970 1.409 . S
C973 C971 1.415 . S
C974 H964 0.930 . S
C974 C972 1.419 . S
C974 C975 1.362 . S
C975 H965 0.930 . S
C975 C968 1.409 . S
C975 C974 1.362 . S
H976 C982 0.930 . S
H977 C985 0.930 . S
H978 C986 0.930 . S
H979 C987 0.930 . S
H980 C990 0.930 . S
H981 C991 0.930 . S
C982 H976 0.930 . S
C982 C983 1.355 . S
C982 C984 1.415 . S
C983 C982 1.355 . S
C983 C985 1.419 . S
C984 C982 1.415 . S
C984 C989 1.425 . S
C984 C991 1.409 . S
C985 H977 0.930 . S
C985 C983 1.419 . S
C985 C986 1.362 . S
C986 H978 0.930 . S
C986 C985 1.362 . S
C986 C989 1.409 . S
C987 H979 0.930 . S
C987 C988 1.355 . S
C987 C989 1.415 . S
C988 C987 1.355 . S
C988 C990 1.419 . S
C989 C984 1.425 . S
C989 C986 1.409 . S
C989 C987 1.415 . S
C990 H980 0.930 . S
C990 C988 1.419 . S
C990 C991 1.362 . S
C991 H981 0.930 . S
C991 C984 1.409 . S
C991 C990 1.362 . S
H992 C998 0.930 . S
H993 C1001 0.930 . S
H994 C1002 0.930 . S
H995 C1003 0.930 . S
H996 C1006 0.930 . S
H997 C1007 0.930 . S
C998 H992 0.930 . S
C998 C999 1.355 . S
C998 C1000 1.415 . S
C999 C998 1.355 . S
C999 C1001 1.419 . S
C1000 C998 1.415 . S
C1000 C1005 1.425 . S
C1000 C1007 1.409 . S
C1001 H993 0.930 . S
C1001 C999 1.419 . S
C1001 C1002 1.362 . S
C1002 H994 0.930 . S
C1002 C1001 1.362 . S
C1002 C1005 1.409 . S
C1003 H995 0.930 . S
C1003 C1004 1.355 . S
C1003 C1005 1.415 . S
C1004 C1003 1.355 . S
C1004 C1006 1.419 . S
C1005 C1000 1.425 . S
C1005 C1002 1.409 . S
C1005 C1003 1.415 . S
C1006 H996 0.930 . S
C1006 C1004 1.419 . S
C1006 C1007 1.362 . S
C1007 H997 0.930 . S
C1007 C1000 1.409 . S
C1007 C1006 1.362 . S
H1008 C1014 0.930 . S
H1009 C1017 0.930 . S
H1010 C1018 0.930 . S
H1011 C1019 0.930 . S
H1012 C1022 0.930 . S
H1013 C1023 0.930 . S
C1014 H1008 0.930 . S
C1014 C1015 1.355 . S
C1014 C1016 1.415 . S
C1015 C1014 1.355 . S
C1015 C1017 1.419 . S
C1016 C1014 1.415 . S
C1016 C1021 1.425 . S
C1016 C1023 1.409 . S
C1017 H1009 0.930 . S
C1017 C1015 1.419 . S
C1017 C1018 1.362 . S
C1018 H1010 0.930 . S
C1018 C1017 1.362 . S
C1018 C1021 1.409 . S
C1019 H1011 0.930 . S
C1019 C1020 1.355 . S
C1019 C1021 1.415 . S
C1020 C1019 1.355 . S
C1020 C1022 1.419 . S
C1021 C1016 1.425 . S
C1021 C1018 1.409 . S
C1021 C1019 1.415 . S
C1022 H1012 0.930 . S
C1022 C1020 1.419 . S
C1022 C1023 1.362 . S
C1023 H1013 0.930 . S
C1023 C1016 1.409 . S
C1023 C1022 1.362 . S
H1024 C1030 0.930 . S
H1025 C1033 0.930 . S
H1026 C1034 0.930 . S
H1027 C1035 0.930 . S
H1028 C1038 0.930 . S
H1029 C1039 0.930 . S
C1030 H1024 0.930 . S
C1030 C1031 1.355 . S
C1030 C1032 1.415 . S
C1031 C1030 1.355 . S
C1031 C1033 1.419 . S
C1032 C1030 1.415 . S
C1032 C1037 1.425 . S
C1032 C1039 1.409 . S
C1033 H1025 0.930 . S
C1033 C1031 1.419 . S
C1033 C1034 1.362 . S
C1034 H1026 0.930 . S
C1034 C1033 1.362 . S
C1034 C1037 1.409 . S
C1035 H1027 0.930 . S
C1035 C1036 1.355 . S
C1035 C1037 1.415 . S
C1036 C1035 1.355 . S
C1036 C1038 1.419 . S
C1037 C1032 1.425 . S
C1037 C1034 1.409 . S
C1037 C1035 1.415 . S
C1038 H1028 0.930 . S
C1038 C1036 1.419 . S
C1038 C1039 1.362 . S
C1039 H1029 0.930 . S
C1039 C1032 1.409 . S
C1039 C1038 1.362 . S
H1040 C1046 0.930 . S
H1041 C1049 0.930 . S
H1042 C1050 0.930 . S
H1043 C1051 0.930 . S
H1044 C1054 0.930 . S
H1045 C1055 0.930 . S
C1046 H1040 0.930 . S
C1046 C1047 1.355 . S
C1046 C1048 1.415 . S
C1047 C1046 1.355 . S
C1047 C1049 1.419 . S
C1048 C1046 1.415 . S
C1048 C1053 1.425 . S
C1048 C1055 1.409 . S
C1049 H1041 0.930 . S
C1049 C1047 1.419 . S
C1049 C1050 1.362 . S
C1050 H1042 0.930 . S
C1050 C1049 1.362 . S
C1050 C1053 1.409 . S
C1051 H1043 0.930 . S
C1051 C1052 1.355 . S
C1051 C1053 1.415 . S
C1052 C1051 1.355 . S
C1052 C1054 1.419 . S
C1053 C1048 1.425 . S
C1053 C1050 1.409 . S
C1053 C1051 1.415 . S
C1054 H1044 0.930 . S
C1054 C1052 1.419 . S
C1054 C1055 1.362 . S
C1055 H1045 0.930 . S
C1055 C1048 1.409 . S
C1055 C1054 1.362 . S
H1056 C1062 0.930 . S
H1057 C1065 0.930 . S
H1058 C1066 0.930 . S
H1059 C1067 0.930 . S
H1060 C1070 0.930 . S
H1061 C1071 0.930 . S
C1062 H1056 0.930 . S
C1062 C1063 1.355 . S
C1062 C1064 1.415 . S
C1063 C1062 1.355 . S
C1063 C1065 1.419 . S
C1064 C1062 1.415 . S
C1064 C1069 1.425 . S
C1064 C1071 1.409 . S
C1065 H1057 0.930 . S
C1065 C1063 1.419 . S
C1065 C1066 1.362 . S
C1066 H1058 0.930 . S
C1066 C1065 1.362 . S
C1066 C1069 1.409 . S
C1067 H1059 0.930 . S
C1067 C1068 1.355 . S
C1067 C1069 1.415 . S
C1068 C1067 1.355 . S
C1068 C1070 1.419 . S
C1069 C1064 1.425 . S
C1069 C1066 1.409 . S
C1069 C1067 1.415 . S
C1070 H1060 0.930 . S
C1070 C1068 1.419 . S
C1070 C1071 1.362 . S
C1071 H1061 0.930 . S
C1071 C1064 1.409 . S
C1071 C1070 1.362 . S
H1072 C1078 0.930 . S
H1073 C1081 0.930 . S
H1074 C1082 0.930 . S
H1075 C1083 0.930 . S
H1076 C1086 0.930 . S
H1077 C1087 0.930 . S
C1078 H1072 0.930 . S
C1078 C1079 1.355 . S
C1078 C1080 1.415 . S
C1079 C1078 1.355 . S
C1079 C1081 1.419 . S
C1080 C1078 1.415 . S
C1080 C1085 1.425 . S
C1080 C1087 1.409 . S
C1081 H1073 0.930 . S
C1081 C1079 1.419 . S
C1081 C1082 1.362 . S
C1082 H1074 0.930 . S
C1082 C1081 1.362 . S
C1082 C1085 1.409 . S
C1083 H1075 0.930 . S
C1083 C1084 1.355 . S
C1083 C1085 1.415 . S
C1084 C1083 1.355 . S
C1084 C1086 1.419 . S
C1085 C1080 1.425 . S
C1085 C1082 1.409 . S
C1085 C1083 1.415 . S
C1086 H1076 0.930 . S
C1086 C1084 1.419 . S
C1086 C1087 1.362 . S
C1087 H1077 0.930 . S
C1087 C1080 1.409 . S
C1087 C1086 1.362 . S
H1088 C1094 0.930 . S
H1089 C1097 0.930 . S
H1090 C1098 0.930 . S
H1091 C1099 0.930 . S
H1092 C1102 0.930 . S
H1093 C1103 0.930 . S
C1094 H1088 0.930 . S
C1094 C1095 1.355 . S
C1094 C1096 1.415 . S
C1095 C1094 1.355 . S
C1095 C1097 1.419 . S
C1096 C1094 1.415 . S
C1096 C1101 1.425 . S
C1096 C1103 1.409 . S
C1097 H1089 0.930 . S
C1097 C1095 1.419 . S
C1097 C1098 1.362 . S
C1098 H1090 0.930 . S
C1098 C1097 1.362 . S
C1098 C1101 1.409 . S
C1099 H1091 0.930 . S
C1099 C1100 1.355 . S
C1099 C1101 1.415 . S
C1100 C1099 1.355 . S
C1100 C1102 1.419 . S
C1101 C1096 1.425 . S
C1101 C1098 1.409 . S
C1101 C1099 1.415 . S
C1102 H1092 0.930 . S
C1102 C1100 1.419 . S
C1102 C1103 1.362 . S
C1103 H1093 0.930 . S
C1103 C1096 1.409 . S
C1103 C1102 1.362 . S
H1104 C1110 0.930 . S
H1105 C1113 0.930 . S
H1106 C1114 0.930 . S
H1107 C1115 0.930 . S
H1108 C1118 0.930 . S
H1109 C1119 0.930 . S
C1110 H1104 0.930 . S
C1110 C1111 1.355 . S
C1110 C1112 1.415 . S
C1111 C1110 1.355 . S
C1111 C1113 1.419 . S
C1112 C1110 1.415 . S
C1112 C1117 1.425 . S
C1112 C1119 1.409 . S
C1113 H1105 0.930 . S
C1113 C1111 1.419 . S
C1113 C1114 1.362 . S
C1114 H1106 0.930 . S
C1114 C1113 1.362 . S
C1114 C1117 1.409 . S
C1115 H1107 0.930 . S
C1115 C1116 1.355 . S
C1115 C1117 1.415 . S
C1116 C1115 1.355 . S
C1116 C1118 1.419 . S
C1117 C1112 1.425 . S
C1117 C1114 1.409 . S
C1117 C1115 1.415 . S
C1118 H1108 0.930 . S
C1118 C1116 1.419 . S
C1118 C1119 1.362 . S
C1119 H1109 0.930 . S
C1119 C1112 1.409 . S
C1119 C1118 1.362 . S
H1120 C1126 0.930 . S
H1121 C1129 0.930 . S
H1122 C1130 0.930 . S
H1123 C1131 0.930 . S
H1124 C1134 0.930 . S
H1125 C1135 0.930 . S
C1126 H1120 0.930 . S
C1126 C1127 1.355 . S
C1126 C1128 1.415 . S
C1127 C1126 1.355 . S
C1127 C1129 1.419 . S
C1128 C1126 1.415 . S
C1128 C1133 1.425 . S
C1128 C1135 1.409 . S
C1129 H1121 0.930 . S
C1129 C1127 1.419 . S
C1129 C1130 1.362 . S
C1130 H1122 0.930 . S
C1130 C1129 1.362 . S
C1130 C1133 1.409 . S
C1131 H1123 0.930 . S
C1131 C1132 1.355 . S
C1131 C1133 1.415 . S
C1132 C1131 1.355 . S
C1132 C1134 1.419 . S
C1133 C1128 1.425 . S
C1133 C1130 1.409 . S
C1133 C1131 1.415 . S
C1134 H1124 0.930 . S
C1134 C1132 1.419 . S
C1134 C1135 1.362 . S
C1135 H1125 0.930 . S
C1135 C1128 1.409 . S
C1135 C1134 1.362 . S
H1136 C1142 0.930 . S
H1137 C1145 0.930 . S
H1138 C1146 0.930 . S
H1139 C1147 0.930 . S
H1140 C1150 0.930 . S
H1141 C1151 0.930 . S
C1142 H1136 0.930 . S
C1142 C1143 1.355 . S
C1142 C1144 1.415 . S
C1143 C1142 1.355 . S
C1143 C1145 1.419 . S
C1144 C1142 1.415 . S
C1144 C1149 1.425 . S
C1144 C1151 1.409 . S
C1145 H1137 0.930 . S
C1145 C1143 1.419 . S
C1145 C1146 1.362 . S
C1146 H1138 0.930 . S
C1146 C1145 1.362 . S
C1146 C1149 1.409 . S
C1147 H1139 0.930 . S
C1147 C1148 1.355 . S
C1147 C1149 1.415 . S
C1148 C1147 1.355 . S
C1148 C1150 1.419 . S
C1149 C1144 1.425 . S
C1149 C1146 1.409 . S
C1149 C1147 1.415 . S
C1150 H1140 0.930 . S
C1150 C1148 1.419 . S
C1150 C1151 1.362 . S
C1151 H1141 0.930 . S
C1151 C1144 1.409 . S
C1151 C1150 1.362 . S
H1152 C1158 0.930 . S
H1153 C1161 0.930 . S
H1154 C1162 0.930 . S
H1155 C1163 0.930 . S
H1156 C1166 0.930 . S
H1157 C1167 0.930 . S
C1158 H1152 0.930 . S
C1158 C1159 1.355 . S
C1158 C1160 1.415 . S
C1159 C1158 1.355 . S
C1159 C1161 1.419 . S
C1160 C1158 1.415 . S
C1160 C1165 1.425 . S
C1160 C1167 1.409 . S
C1161 H1153 0.930 . S
C1161 C1159 1.419 . S
C1161 C1162 1.362 . S
C1162 H1154 0.930 . S
C1162 C1161 1.362 . S
C1162 C1165 1.409 . S
C1163 H1155 0.930 . S
C1163 C1164 1.355 . S
C1163 C1165 1.415 . S
C1164 C1163 1.355 . S
C1164 C1166 1.419 . S
C1165 C1160 1.425 . S
C1165 C1162 1.409 . S
C1165 C1163 1.415 . S
C1166 H1156 0.930 . S
C1166 C1164 1.419 . S
C1166 C1167 1.362 . S
C1167 H1157 0.930 . S
C1167 C1160 1.409 . S
C1167 C1166 1.362 . S
H1168 C1174 0.930 . S
H1169 C1177 0.930 . S
H1170 C1178 0.930 . S
H1171 C1179 0.930 . S
H1172 C1182 0.930 . S
H1173 C1183 0.930 . S
C1174 H1168 0.930 . S
C1174 C1175 1.355 . S
C1174 C1176 1.415 . S
C1175 C1174 1.355 . S
C1175 C1177 1.419 . S
C1176 C1174 1.415 . S
C1176 C1181 1.425 . S
C1176 C1183 1.409 . S
C1177 H1169 0.930 . S
C1177 C1175 1.419 . S
C1177 C1178 1.362 . S
C1178 H1170 0.930 . S
C1178 C1177 1.362 . S
C1178 C1181 1.409 . S
C1179 H1171 0.930 . S
C1179 C1180 1.355 . S
C1179 C1181 1.415 . S
C1180 C1179 1.355 . S
C1180 C1182 1.419 . S
C1181 C1176 1.425 . S
C1181 C1178 1.409 . S
C1181 C1179 1.415 . S
C1182 H1172 0.930 . S
C1182 C1180 1.419 . S
C1182 C1183 1.362 . S
C1183 H1173 0.930 . S
C1183 C1176 1.409 . S
C1183 C1182 1.362 . S
H1184 C1190 0.930 . S
H1185 C1193 0.930 . S
H1186 C1194 0.930 . S
H1187 C1195 0.930 . S
H1188 C1198 0.930 . S
H1189 C1199 0.930 . S
C1190 H1184 0.930 . S
C1190 C1191 1.355 . S
C1190 C1192 1.415 . S
C1191 C1190 1.355 . S
C1191 C1193 1.419 . S
C1192 C1190 1.415 . S
C1192 C1197 1.425 . S
C1192 C1199 1.409 . S
C1193 H1185 0.930 . S
C1193 C1191 1.419 . S
C1193 C1194 1.362 . S
C1194 H1186 0.930 . S
C1194 C1193 1.362 . S
C1194 C1197 1.409 . S
C1195 H1187 0.930 . S
C1195 C1196 1.355 . S
C1195 C1197 1.415 . S
C1196 C1195 1.355 . S
C1196 C1198 1.419 . S
C1197 C1192 1.425 . S
C1197 C1194 1.409 . S
C1197 C1195 1.415 . S
C1198 H1188 0.930 . S
C1198 C1196 1.419 . S
C1198 C1199 1.362 . S
C1199 H1189 0.930 . S
C1199 C1192 1.409 . S
C1199 C1198 1.362 . S
H1200 C1206 0.930 . S
H1201 C1209 0.930 . S
H1202 C1210 0.930 . S
H1203 C1211 0.930 . S
H1204 C1214 0.930 . S
H1205 C1215 0.930 . S
C1206 H1200 0.930 . S
C1206 C1207 1.355 . S
C1206 C1208 1.415 . S
C1207 C1206 1.355 . S
C1207 C1209 1.419 . S
C1208 C1206 1.415 . S
C1208 C1213 1.425 . S
C1208 C1215 1.409 . S
C1209 H1201 0.930 . S
C1209 C1207 1.419 . S
C1209 C1210 1.362 . S
C1210 H1202 0.930 . S
C1210 C1209 1.362 . S
C1210 C1213 1.409 . S
C1211 H1203 0.930 . S
C1211 C1212 1.355 . S
C1211 C1213 1.415 . S
C1212 C1211 1.355 . S
C1212 C1214 1.419 . S
C1213 C1208 1.425 . S
C1213 C1210 1.409 . S
C1213 C1211 1.415 . S
C1214 H1204 0.930 . S
C1214 C1212 1.419 . S
C1214 C1215 1.362 . S
C1215 H1205 0.930 . S
C1215 C1208 1.409 . S
C1215 C1214 1.362 . S
H1216 C1222 0.930 . S
H1217 C1225 0.930 . S
H1218 C1226 0.930 . S
H1219 C1227 0.930 . S
H1220 C1230 0.930 . S
H1221 C1231 0.930 . S
C1222 H1216 0.930 . S
C1222 C1223 1.355 . S
C1222 C1224 1.415 . S
C1223 C1222 1.355 . S
C1223 C1225 1.419 . S
C1224 C1222 1.415 . S
C1224 C1229 1.425 . S
C1224 C1231 1.409 . S
C1225 H1217 0.930 . S
C1225 C1223 1.419 . S
C1225 C1226 1.362 . S
C1226 H1218 0.930 . S
C1226 C1225 1.362 . S
C1226 C1229 1.409 . S
C1227 H1219 0.930 . S
C1227 C1228 1.355 . S
C1227 C1229 1.415 . S
C1228 C1227 1.355 . S
C1228 C1230 1.419 . S
C1229 C1224 1.425 . S
C1229 C1226 1.409 . S
C1229 C1227 1.415 . S
C1230 H1220 0.930 . S
C1230 C1228 1.419 . S
C1230 C1231 1.362 . S
C1231 H1221 0.930 . S
C1231 C1224 1.409 . S
C1231 C1230 1.362 . S
H1232 C1238 0.930 . S
H1233 C1241 0.930 . S
H1234 C1242 0.930 . S
H1235 C1243 0.930 . S
H1236 C1246 0.930 . S
H1237 C1247 0.930 . S
C1238 H1232 0.930 . S
C1238 C1239 1.355 . S
C1238 C1240 1.415 . S
C1239 C1238 1.355 . S
C1239 C1241 1.419 . S
C1240 C1238 1.415 . S
C1240 C1245 1.425 . S
C1240 C1247 1.409 . S
C1241 H1233 0.930 . S
C1241 C1239 1.419 . S
C1241 C1242 1.362 . S
C1242 H1234 0.930 . S
C1242 C1241 1.362 . S
C1242 C1245 1.409 . S
C1243 H1235 0.930 . S
C1243 C1244 1.355 . S
C1243 C1245 1.415 . S
C1244 C1243 1.355 . S
C1244 C1246 1.419 . S
C1245 C1240 1.425 . S
C1245 C1242 1.409 . S
C1245 C1243 1.415 . S
C1246 H1236 0.930 . S
C1246 C1244 1.419 . S
C1246 C1247 1.362 . S
C1247 H1237 0.930 . S
C1247 C1240 1.409 . S
C1247 C1246 1.362 . S
H1248 C1254 0.930 . S
H1249 C1257 0.930 . S
H1250 C1258 0.930 . S
H1251 C1259 0.930 . S
H1252 C1262 0.930 . S
H1253 C1263 0.930 . S
C1254 H1248 0.930 . S
C1254 C1255 1.355 . S
C1254 C1256 1.415 . S
C1255 C1254 1.355 . S
C1255 C1257 1.419 . S
C1256 C1254 1.415 . S
C1256 C1261 1.425 . S
C1256 C1263 1.409 . S
C1257 H1249 0.930 . S
C1257 C1255 1.419 . S
C1257 C1258 1.362 . S
C1258 H1250 0.930 . S
C1258 C1257 1.362 . S
C1258 C1261 1.409 . S
C1259 H1251 0.930 . S
C1259 C1260 1.355 . S
C1259 C1261 1.415 . S
C1260 C1259 1.355 . S
C1260 C1262 1.419 . S
C1261 C1256 1.425 . S
C1261 C1258 1.409 . S
C1261 C1259 1.415 . S
C1262 H1252 0.930 . S
C1262 C1260 1.419 . S
C1262 C1263 1.362 . S
C1263 H1253 0.930 . S
C1263 C1256 1.409 . S
C1263 C1262 1.362 . S
H1264 C1270 0.930 . S
H1265 C1273 0.930 . S
H1266 C1274 0.930 . S
H1267 C1275 0.930 . S
H1268 C1278 0.930 . S
H1269 C1279 0.930 . S
C1270 H1264 0.930 . S
C1270 C1271 1.355 . S
C1270 C1272 1.415 . S
C1271 C1270 1.355 . S
C1271 C1273 1.419 . S
C1272 C1270 1.415 . S
C1272 C1277 1.425 . S
C1272 C1279 1.409 . S
C1273 H1265 0.930 . S
C1273 C1271 1.419 . S
C1273 C1274 1.362 . S
C1274 H1266 0.930 . S
C1274 C1273 1.362 . S
C1274 C1277 1.409 . S
C1275 H1267 0.930 . S
C1275 C1276 1.355 . S
C1275 C1277 1.415 . S
C1276 C1275 1.355 . S
C1276 C1278 1.419 . S
C1277 C1272 1.425 . S
C1277 C1274 1.409 . S
C1277 C1275 1.415 . S
C1278 H1268 0.930 . S
C1278 C1276 1.419 . S
C1278 C1279 1.362 . S
C1279 H1269 0.930 . S
C1279 C1272 1.409 . S
C1279 C1278 1.362 . S
H1280 C1286 0.930 . S
H1281 C1289 0.930 . S
H1282 C1290 0.930 . S
H1283 C1291 0.930 . S
H1284 C1294 0.930 . S
H1285 C1295 0.930 . S
C1286 H1280 0.930 . S
C1286 C1287 1.355 . S
C1286 C1288 1.415 . S
C1287 C1286 1.355 . S
C1287 C1289 1.419 . S
C1288 C1286 1.415 . S
C1288 C1293 1.425 . S
C1288 C1295 1.409 . S
C1289 H1281 0.930 . S
C1289 C1287 1.419 . S
C1289 C1290 1.362 . S
C1290 H1282 0.930 . S
C1290 C1289 1.362 . S
C1290 C1293 1.409 . S
C1291 H1283 0.930 . S
C1291 C1292 1.355 . S
C1291 C1293 1.415 . S
C1292 C1291 1.355 . S
C1292 C1294 1.419 . S
C1293 C1288 1.425 . S
C1293 C1290 1.409 . S
C1293 C1291 1.415 . S
C1294 H1284 0.930 . S
C1294 C1292 1.419 . S
C1294 C1295 1.362 . S
C1295 H1285 0.930 . S
C1295 C1288 1.409 . S
C1295 C1294 1.362 . S
H1296 C1302 0.930 . S
H1297 C1305 0.930 . S
H1298 C1306 0.930 . S
H1299 C1307 0.930 . S
H1300 C1310 0.930 . S
H1301 C1311 0.930 . S
C1302 H1296 0.930 . S
C1302 C1303 1.355 . S
C1302 C1304 1.415 . S
C1303 C1302 1.355 . S
C1303 C1305 1.419 . S
C1304 C1302 1.415 . S
C1304 C1309 1.425 . S
C1304 C1311 1.409 . S
C1305 H1297 0.930 . S
C1305 C1303 1.419 . S
C1305 C1306 1.362 . S
C1306 H1298 0.930 . S
C1306 C1305 1.362 . S
C1306 C1309 1.409 . S
C1307 H1299 0.930 . S
C1307 C1308 1.355 . S
C1307 C1309 1.415 . S
C1308 C1307 1.355 . S
C1308 C1310 1.419 . S
C1309 C1304 1.425 . S
C1309 C1306 1.409 . S
C1309 C1307 1.415 . S
C1310 H1300 0.930 . S
C1310 C1308 1.419 . S
C1310 C1311 1.362 . S
C1311 H1301 0.930 . S
C1311 C1304 1.409 . S
C1311 C1310 1.362 . S
H1312 C1318 0.930 . S
H1313 C1321 0.930 . S
H1314 C1322 0.930 . S
H1315 C1323 0.930 . S
H1316 C1326 0.930 . S
H1317 C1327 0.930 . S
C1318 H1312 0.930 . S
C1318 C1319 1.355 . S
C1318 C1320 1.415 . S
C1319 C1318 1.355 . S
C1319 C1321 1.419 . S
C1320 C1318 1.415 . S
C1320 C1325 1.425 . S
C1320 C1327 1.409 . S
C1321 H1313 0.930 . S
C1321 C1319 1.419 . S
C1321 C1322 1.362 . S
C1322 H1314 0.930 . S
C1322 C1321 1.362 . S
C1322 C1325 1.409 . S
C1323 H1315 0.930 . S
C1323 C1324 1.355 . S
C1323 C1325 1.415 . S
C1324 C1323 1.355 . S
C1324 C1326 1.419 . S
C1325 C1320 1.425 . S
C1325 C1322 1.409 . S
C1325 C1323 1.415 . S
C1326 H1316 0.930 . S
C1326 C1324 1.419 . S
C1326 C1327 1.362 . S
C1327 H1317 0.930 . S
C1327 C1320 1.409 . S
C1327 C1326 1.362 . S
H1328 C1334 0.930 . S
H1329 C1337 0.930 . S
H1330 C1338 0.930 . S
H1331 C1339 0.930 . S
H1332 C1342 0.930 . S
H1333 C1343 0.930 . S
C1334 H1328 0.930 . S
C1334 C1335 1.355 . S
C1334 C1336 1.415 . S
C1335 C1334 1.355 . S
C1335 C1337 1.419 . S
C1336 C1334 1.415 . S
C1336 C1341 1.425 . S
C1336 C1343 1.409 . S
C1337 H1329 0.930 . S
C1337 C1335 1.419 . S
C1337 C1338 1.362 . S
C1338 H1330 0.930 . S
C1338 C1337 1.362 . S
C1338 C1341 1.409 . S
C1339 H1331 0.930 . S
C1339 C1340 1.355 . S
C1339 C1341 1.415 . S
C1340 C1339 1.355 . S
C1340 C1342 1.419 . S
C1341 C1336 1.425 . S
C1341 C1338 1.409 . S
C1341 C1339 1.415 . S
C1342 H1332 0.930 . S
C1342 C1340 1.419 . S
C1342 C1343 1.362 . S
C1343 H1333 0.930 . S
C1343 C1336 1.409 . S
C1343 C1342 1.362 . S
H1344 C1350 0.930 . S
H1345 C1353 0.930 . S
H1346 C1354 0.930 . S
H1347 C1355 0.930 . S
H1348 C1358 0.930 . S
H1349 C1359 0.930 . S
C1350 H1344 0.930 . S
C1350 C1351 1.355 . S
C1350 C1352 1.415 . S
C1351 C1350 1.355 . S
C1351 C1353 1.419 . S
C1352 C1350 1.415 . S
C1352 C1357 1.425 . S
C1352 C1359 1.409 . S
C1353 H1345 0.930 . S
C1353 C1351 1.419 . S
C1353 C1354 1.362 . S
C1354 H1346 0.930 . S
C1354 C1353 1.362 . S
C1354 C1357 1.409 . S
C1355 H1347 0.930 . S
C1355 C1356 1.355 . S
C1355 C1357 1.415 . S
C1356 C1355 1.355 . S
C1356 C1358 1.419 . S
C1357 C1352 1.425 . S
C1357 C1354 1.409 . S
C1357 C1355 1.415 . S
C1358 H1348 0.930 . S
C1358 C1356 1.419 . S
C1358 C1359 1.362 . S
C1359 H1349 0.930 . S
C1359 C1352 1.409 . S
C1359 C1358 1.362 . S
H1360 C1366 0.930 . S
H1361 C1369 0.930 . S
H1362 C1370 0.930 . S
H1363 C1371 0.930 . S
H1364 C1374 0.930 . S
H1365 C1375 0.930 . S
C1366 H1360 0.930 . S
C1366 C1367 1.355 . S
C1366 C1368 1.415 . S
C1367 C1366 1.355 . S
C1367 C1369 1.419 . S
C1368 C1366 1.415 . S
C1368 C1373 1.425 . S
C1368 C1375 1.409 . S
C1369 H1361 0.930 . S
C1369 C1367 1.419 . S
C1369 C1370 1.362 . S
C1370 H1362 0.930 . S
C1370 C1369 1.362 . S
C1370 C1373 1.409 . S
C1371 H1363 0.930 . S
C1371 C1372 1.355 . S
C1371 C1373 1.415 . S
C1372 C1371 1.355 . S
C1372 C1374 1.419 . S
C1373 C1368 1.425 . S
C1373 C1370 1.409 . S
C1373 C1371 1.415 . S
C1374 H1364 0.930 . S
C1374 C1372 1.419 . S
C1374 C1375 1.362 . S
C1375 H1365 0.930 . S
C1375 C1368 1.409 . S
C1375 C1374 1.362 . S
H1376 C1382 0.930 . S
H1377 C1385 0.930 . S
H1378 C1386 0.930 . S
H1379 C1387 0.930 . S
H1380 C1390 0.930 . S
H1381 C1391 0.930 . S
C1382 H1376 0.930 . S
C1382 C1383 1.355 . S
C1382 C1384 1.415 . S
C1383 C1382 1.355 . S
C1383 C1385 1.419 . S
C1384 C1382 1.415 . S
C1384 C1389 1.425 . S
C1384 C1391 1.409 . S
C1385 H1377 0.930 . S
C1385 C1383 1.419 . S
C1385 C1386 1.362 . S
C1386 H1378 0.930 . S
C1386 C1385 1.362 . S
C1386 C1389 1.409 . S
C1387 H1379 0.930 . S
C1387 C1388 1.355 . S
C1387 C1389 1.415 . S
C1388 C1387 1.355 . S
C1388 C1390 1.419 . S
C1389 C1384 1.425 . S
C1389 C1386 1.409 . S
C1389 C1387 1.415 . S
C1390 H1380 0.930 . S
C1390 C1388 1.419 . S
C1390 C1391 1.362 . S
C1391 H1381 0.930 . S
C1391 C1384 1.409 . S
C1391 C1390 1.362 . S
H1392 C1398 0.930 . S
H1393 C1401 0.930 . S
H1394 C1402 0.930 . S
H1395 C1403 0.930 . S
H1396 C1406 0.930 . S
H1397 C1407 0.930 . S
C1398 H1392 0.930 . S
C1398 C1399 1.355 . S
C1398 C1400 1.415 . S
C1399 C1398 1.355 . S
C1399 C1401 1.419 . S
C1400 C1398 1.415 . S
C1400 C1405 1.425 1_565 S
C1400 C1407 1.409 1_565 S
C1401 H1393 0.930 . S
C1401 C1399 1.419 . S
C1401 C1402 1.362 . S
C1402 H1394 0.930 . S
C1402 C1401 1.362 . S
C1402 C1405 1.409 1_565 S
C1403 H1395 0.930 . S
C1403 C1404 1.355 . S
C1403 C1405 1.415 . S
C1404 C1403 1.355 . S
C1404 C1406 1.419 . S
C1405 C1400 1.425 1_545 S
C1405 C1402 1.409 1_545 S
C1405 C1403 1.415 . S
C1406 H1396 0.930 . S
C1406 C1404 1.419 . S
C1406 C1407 1.362 . S
C1407 H1397 0.930 . S
C1407 C1400 1.409 1_545 S
C1407 C1406 1.362 . S
H1408 C1414 0.930 . S
H1409 C1417 0.930 . S
H1410 C1418 0.930 . S
H1411 C1419 0.930 . S
H1412 C1422 0.930 . S
H1413 C1423 0.930 . S
C1414 H1408 0.930 . S
C1414 C1415 1.355 . S
C1414 C1416 1.415 . S
C1415 C1414 1.355 . S
C1415 C1417 1.419 . S
C1416 C1414 1.415 . S
C1416 C1421 1.425 1_455 S
C1416 C1423 1.409 1_455 S
C1417 H1409 0.930 . S
C1417 C1415 1.419 . S
C1417 C1418 1.362 . S
C1418 H1410 0.930 . S
C1418 C1417 1.362 . S
C1418 C1421 1.409 1_455 S
C1419 H1411 0.930 . S
C1419 C1420 1.355 . S
C1419 C1421 1.415 . S
C1420 C1419 1.355 . S
C1420 C1422 1.419 . S
C1421 C1416 1.425 1_655 S
C1421 C1418 1.409 1_655 S
C1421 C1419 1.415 . S
C1422 H1412 0.930 . S
C1422 C1420 1.419 . S
C1422 C1423 1.362 . S
C1423 H1413 0.930 . S
C1423 C1416 1.409 1_655 S
C1423 C1422 1.362 . S
H1424 C1430 0.930 . S
H1425 C1433 0.930 . S
H1426 C1434 0.930 . S
H1427 C1435 0.930 . S
H1428 C1438 0.930 . S
H1429 C1439 0.930 . S
C1430 H1424 0.930 . S
C1430 C1431 1.355 . S
C1430 C1432 1.415 . S
C1431 C1430 1.355 . S
C1431 C1433 1.419 . S
C1432 C1430 1.415 . S
C1432 C1437 1.425 . S
C1432 C1439 1.409 . S
C1433 H1425 0.930 . S
C1433 C1431 1.419 . S
C1433 C1434 1.362 . S
C1434 H1426 0.930 . S
C1434 C1433 1.362 . S
C1434 C1437 1.409 . S
C1435 H1427 0.930 . S
C1435 C1436 1.355 . S
C1435 C1437 1.415 . S
C1436 C1435 1.355 . S
C1436 C1438 1.419 . S
C1437 C1432 1.425 . S
C1437 C1434 1.409 . S
C1437 C1435 1.415 . S
C1438 H1428 0.930 . S
C1438 C1436 1.419 . S
C1438 C1439 1.362 . S
C1439 H1429 0.930 . S
C1439 C1432 1.409 . S
C1439 C1438 1.362 . S
H1440 C1446 0.930 . S
H1441 C1449 0.930 . S
H1442 C1450 0.930 . S
H1443 C1451 0.930 . S
H1444 C1454 0.930 . S
H1445 C1455 0.930 . S
C1446 H1440 0.930 . S
C1446 C1447 1.355 . S
C1446 C1448 1.415 . S
C1447 C1446 1.355 . S
C1447 C1449 1.419 . S
C1448 C1446 1.415 . S
C1448 C1453 1.425 . S
C1448 C1455 1.409 . S
C1449 H1441 0.930 . S
C1449 C1447 1.419 . S
C1449 C1450 1.362 . S
C1450 H1442 0.930 . S
C1450 C1449 1.362 . S
C1450 C1453 1.409 . S
C1451 H1443 0.930 . S
C1451 C1452 1.355 . S
C1451 C1453 1.415 . S
C1452 C1451 1.355 . S
C1452 C1454 1.419 . S
C1453 C1448 1.425 . S
C1453 C1450 1.409 . S
C1453 C1451 1.415 . S
C1454 H1444 0.930 . S
C1454 C1452 1.419 . S
C1454 C1455 1.362 . S
C1455 H1445 0.930 . S
C1455 C1448 1.409 . S
C1455 C1454 1.362 . S
H1456 C1462 0.930 . S
H1457 C1465 0.930 . S
H1458 C1466 0.930 . S
H1459 C1467 0.930 . S
H1460 C1470 0.930 . S
H1461 C1471 0.930 . S
C1462 H1456 0.930 . S
C1462 C1463 1.355 . S
C1462 C1464 1.415 . S
C1463 C1462 1.355 . S
C1463 C1465 1.419 . S
C1464 C1462 1.415 . S
C1464 C1469 1.425 . S
C1464 C1471 1.409 . S
C1465 H1457 0.930 . S
C1465 C1463 1.419 . S
C1465 C1466 1.362 . S
C1466 H1458 0.930 . S
C1466 C1465 1.362 . S
C1466 C1469 1.409 . S
C1467 H1459 0.930 . S
C1467 C1468 1.355 . S
C1467 C1469 1.415 . S
C1468 C1467 1.355 . S
C1468 C1470 1.419 . S
C1469 C1464 1.425 . S
C1469 C1466 1.409 . S
C1469 C1467 1.415 . S
C1470 H1460 0.930 . S
C1470 C1468 1.419 . S
C1470 C1471 1.362 . S
C1471 H1461 0.930 . S
C1471 C1464 1.409 . S
C1471 C1470 1.362 . S
H1472 C1478 0.930 . S
H1473 C1481 0.930 . S
H1474 C1482 0.930 . S
H1475 C1483 0.930 . S
H1476 C1486 0.930 . S
H1477 C1487 0.930 . S
C1478 H1472 0.930 . S
C1478 C1479 1.355 . S
C1478 C1480 1.415 . S
C1479 C1478 1.355 . S
C1479 C1481 1.419 . S
C1480 C1478 1.415 . S
C1480 C1485 1.425 . S
C1480 C1487 1.409 . S
C1481 H1473 0.930 . S
C1481 C1479 1.419 . S
C1481 C1482 1.362 . S
C1482 H1474 0.930 . S
C1482 C1481 1.362 . S
C1482 C1485 1.409 . S
C1483 H1475 0.930 . S
C1483 C1484 1.355 . S
C1483 C1485 1.415 . S
C1484 C1483 1.355 . S
C1484 C1486 1.419 . S
C1485 C1480 1.425 . S
C1485 C1482 1.409 . S
C1485 C1483 1.415 . S
C1486 H1476 0.930 . S
C1486 C1484 1.419 . S
C1486 C1487 1.362 . S
C1487 H1477 0.930 . S
C1487 C1480 1.409 . S
C1487 C1486 1.362 . S
H1488 C1494 0.930 . S
H1489 C1497 0.930 . S
H1490 C1498 0.930 . S
H1491 C1499 0.930 . S
H1492 C1502 0.930 . S
H1493 C1503 0.930 . S
C1494 H1488 0.930 . S
C1494 C1495 1.355 . S
C1494 C1496 1.415 . S
C1495 C1494 1.355 . S
C1495 C1497 1.419 . S
C1496 C1494 1.415 . S
C1496 C1501 1.425 1_545 S
C1496 C1503 1.409 1_545 S
C1497 H1489 0.930 . S
C1497 C1495 1.419 . S
C1497 C1498 1.362 . S
C1498 H1490 0.930 . S
C1498 C1497 1.362 . S
C1498 C1501 1.409 1_545 S
C1499 H1491 0.930 . S
C1499 C1500 1.355 . S
C1499 C1501 1.415 . S
C1500 C1499 1.355 . S
C1500 C1502 1.419 . S
C1501 C1496 1.425 1_565 S
C1501 C1498 1.409 1_565 S
C1501 C1499 1.415 . S
C1502 H1492 0.930 . S
C1502 C1500 1.419 . S
C1502 C1503 1.362 . S
C1503 H1493 0.930 . S
C1503 C1496 1.409 1_565 S
C1503 C1502 1.362 . S
H1504 C1510 0.930 . S
H1505 C1513 0.930 . S
H1506 C1514 0.930 . S
H1507 C1515 0.930 . S
H1508 C1518 0.930 . S
H1509 C1519 0.930 . S
C1510 H1504 0.930 . S
C1510 C1511 1.355 . S
C1510 C1512 1.415 . S
C1511 C1510 1.355 . S
C1511 C1513 1.419 . S
C1512 C1510 1.415 . S
C1512 C1517 1.425 1_455 S
C1512 C1519 1.409 1_455 S
C1513 H1505 0.930 . S
C1513 C1511 1.419 . S
C1513 C1514 1.362 . S
C1514 H1506 0.930 . S
C1514 C1513 1.362 . S
C1514 C1517 1.409 1_455 S
C1515 H1507 0.930 . S
C1515 C1516 1.355 . S
C1515 C1517 1.415 . S
C1516 C1515 1.355 . S
C1516 C1518 1.419 . S
C1517 C1512 1.425 1_655 S
C1517 C1514 1.409 1_655 S
C1517 C1515 1.415 . S
C1518 H1508 0.930 . S
C1518 C1516 1.419 . S
C1518 C1519 1.362 . S
C1519 H1509 0.930 . S
C1519 C1512 1.409 1_655 S
C1519 C1518 1.362 . S
H1520 C1526 0.930 . S
H1521 C1529 0.930 . S
H1522 C1530 0.930 . S
H1523 C1531 0.930 . S
H1524 C1534 0.930 . S
H1525 C1535 0.930 . S
C1526 H1520 0.930 . S
C1526 C1527 1.355 . S
C1526 C1528 1.415 . S
C1527 C1526 1.355 . S
C1527 C1529 1.419 . S
C1528 C1526 1.415 . S
C1528 C1533 1.425 1_554 S
C1528 C1535 1.409 1_554 S
C1529 H1521 0.930 . S
C1529 C1527 1.419 . S
C1529 C1530 1.362 . S
C1530 H1522 0.930 . S
C1530 C1529 1.362 . S
C1530 C1533 1.409 1_554 S
C1531 H1523 0.930 . S
C1531 C1532 1.355 . S
C1531 C1533 1.415 . S
C1532 C1531 1.355 . S
C1532 C1534 1.419 . S
C1533 C1528 1.425 1_556 S
C1533 C1530 1.409 1_556 S
C1533 C1531 1.415 . S
C1534 H1524 0.930 . S
C1534 C1532 1.419 . S
C1534 C1535 1.362 . S
C1535 H1525 0.930 . S
C1535 C1528 1.409 1_556 S
C1535 C1534 1.362 . S
H1536 C1542 0.930 . S
H1537 C1545 0.930 . S
H1538 C1546 0.930 . S
H1539 C1547 0.930 . S
H1540 C1550 0.930 . S
H1541 C1551 0.930 . S
C1542 H1536 0.930 . S
C1542 C1543 1.355 . S
C1542 C1544 1.415 . S
C1543 C1542 1.355 . S
C1543 C1545 1.419 . S
C1544 C1542 1.415 . S
C1544 C1549 1.425 . S
C1544 C1551 1.409 . S
C1545 H1537 0.930 . S
C1545 C1543 1.419 . S
C1545 C1546 1.362 . S
C1546 H1538 0.930 . S
C1546 C1545 1.362 . S
C1546 C1549 1.409 . S
C1547 H1539 0.930 . S
C1547 C1548 1.355 . S
C1547 C1549 1.415 . S
C1548 C1547 1.355 . S
C1548 C1550 1.419 . S
C1549 C1544 1.425 . S
C1549 C1546 1.409 . S
C1549 C1547 1.415 . S
C1550 H1540 0.930 . S
C1550 C1548 1.419 . S
C1550 C1551 1.362 . S
C1551 H1541 0.930 . S
C1551 C1544 1.409 . S
C1551 C1550 1.362 . S
H1552 C1558 0.930 . S
H1553 C1561 0.930 . S
H1554 C1562 0.930 . S
H1555 C1563 0.930 . S
H1556 C1566 0.930 . S
H1557 C1567 0.930 . S
C1558 H1552 0.930 . S
C1558 C1559 1.355 . S
C1558 C1560 1.415 . S
C1559 C1558 1.355 . S
C1559 C1561 1.419 . S
C1560 C1558 1.415 . S
C1560 C1565 1.425 1_556 S
C1560 C1567 1.409 1_556 S
C1561 H1553 0.930 . S
C1561 C1559 1.419 . S
C1561 C1562 1.362 . S
C1562 H1554 0.930 . S
C1562 C1561 1.362 . S
C1562 C1565 1.409 1_556 S
C1563 H1555 0.930 . S
C1563 C1564 1.355 . S
C1563 C1565 1.415 . S
C1564 C1563 1.355 . S
C1564 C1566 1.419 . S
C1565 C1560 1.425 1_554 S
C1565 C1562 1.409 1_554 S
C1565 C1563 1.415 . S
C1566 H1556 0.930 . S
C1566 C1564 1.419 . S
C1566 C1567 1.362 . S
C1567 H1557 0.930 . S
C1567 C1560 1.409 1_554 S
C1567 C1566 1.362 . S
H1568 C1574 0.930 . S
H1569 C1577 0.930 . S
H1570 C1578 0.930 . S
H1571 C1579 0.930 . S
H1572 C1582 0.930 . S
H1573 C1583 0.930 . S
C1574 H1568 0.930 . S
C1574 C1575 1.355 . S
C1574 C1576 1.415 . S
C1575 C1574 1.355 . S
C1575 C1577 1.419 . S
C1576 C1574 1.415 . S
C1576 C1581 1.425 . S
C1576 C1583 1.409 . S
C1577 H1569 0.930 . S
C1577 C1575 1.419 . S
C1577 C1578 1.362 . S
C1578 H1570 0.930 . S
C1578 C1577 1.362 . S
C1578 C1581 1.409 . S
C1579 H1571 0.930 . S
C1579 C1580 1.355 . S
C1579 C1581 1.415 . S
C1580 C1579 1.355 . S
C1580 C1582 1.419 . S
C1581 C1576 1.425 . S
C1581 C1578 1.409 . S
C1581 C1579 1.415 . S
C1582 H1572 0.930 . S
C1582 C1580 1.419 . S
C1582 C1583 1.362 . S
C1583 H1573 0.930 . S
C1583 C1576 1.409 . S
C1583 C1582 1.362 . S
H1584 C1590 0.930 . S
H1585 C1593 0.930 . S
H1586 C1594 0.930 . S
H1587 C1595 0.930 . S
H1588 C1598 0.930 . S
H1589 C1599 0.930 . S
C1590 H1584 0.930 . S
C1590 C1591 1.355 . S
C1590 C1592 1.415 . S
C1591 C1590 1.355 . S
C1591 C1593 1.419 . S
C1592 C1590 1.415 . S
C1592 C1597 1.425 1_565 S
C1592 C1599 1.409 1_565 S
C1593 H1585 0.930 . S
C1593 C1591 1.419 . S
C1593 C1594 1.362 . S
C1594 H1586 0.930 . S
C1594 C1593 1.362 . S
C1594 C1597 1.409 1_565 S
C1595 H1587 0.930 . S
C1595 C1596 1.355 . S
C1595 C1597 1.415 . S
C1596 C1595 1.355 . S
C1596 C1598 1.419 . S
C1597 C1592 1.425 1_545 S
C1597 C1594 1.409 1_545 S
C1597 C1595 1.415 . S
C1598 H1588 0.930 . S
C1598 C1596 1.419 . S
C1598 C1599 1.362 . S
C1599 H1589 0.930 . S
C1599 C1592 1.409 1_545 S
C1599 C1598 1.362 . S
H1600 C1606 0.930 . S
H1601 C1609 0.930 . S
H1602 C1610 0.930 . S
H1603 C1611 0.930 . S
H1604 C1614 0.930 . S
H1605 C1615 0.930 . S
C1606 H1600 0.930 . S
C1606 C1607 1.355 . S
C1606 C1608 1.376 1_455 S
C1607 C1606 1.355 . S
C1607 C1609 1.419 . S
C1608 C1606 1.376 1_655 S
C1608 C1613 1.421 1_655 S
C1608 C1615 1.452 . S
C1609 H1601 0.930 . S
C1609 C1607 1.419 . S
C1609 C1610 1.362 . S
C1610 H1602 0.930 . S
C1610 C1609 1.362 . S
C1610 C1613 1.452 . S
C1611 H1603 0.930 . S
C1611 C1612 1.355 . S
C1611 C1613 1.376 1_655 S
C1612 C1611 1.355 . S
C1612 C1614 1.419 . S
C1613 C1608 1.421 1_455 S
C1613 C1610 1.452 . S
C1613 C1611 1.376 1_455 S
C1614 H1604 0.930 . S
C1614 C1612 1.419 . S
C1614 C1615 1.362 . S
C1615 H1605 0.930 . S
C1615 C1608 1.452 . S
C1615 C1614 1.362 . S
H1616 C1622 0.930 . S
H1617 C1625 0.930 . S
H1618 C1626 0.930 . S
H1619 C1627 0.930 . S
H1620 C1630 0.930 . S
H1621 C1631 0.930 . S
C1622 H1616 0.930 . S
C1622 C1623 1.355 . S
C1622 C1624 1.415 . S
C1623 C1622 1.355 . S
C1623 C1625 1.419 . S
C1624 C1622 1.415 . S
C1624 C1629 1.425 . S
C1624 C1631 1.409 . S
C1625 H1617 0.930 . S
C1625 C1623 1.419 . S
C1625 C1626 1.362 . S
C1626 H1618 0.930 . S
C1626 C1625 1.362 . S
C1626 C1629 1.409 . S
C1627 H1619 0.930 . S
C1627 C1628 1.355 . S
C1627 C1629 1.415 . S
C1628 C1627 1.355 . S
C1628 C1630 1.419 . S
C1629 C1624 1.425 . S
C1629 C1626 1.409 . S
C1629 C1627 1.415 . S
C1630 H1620 0.930 . S
C1630 C1628 1.419 . S
C1630 C1631 1.362 . S
C1631 H1621 0.930 . S
C1631 C1624 1.409 . S
C1631 C1630 1.362 . S
H1632 C1638 0.930 . S
H1633 C1641 0.930 . S
H1634 C1642 0.930 . S
H1635 C1643 0.930 . S
H1636 C1646 0.930 . S
H1637 C1647 0.930 . S
C1638 H1632 0.930 . S
C1638 C1639 1.355 . S
C1638 C1640 1.415 . S
C1639 C1638 1.355 . S
C1639 C1641 1.419 . S
C1640 C1638 1.415 . S
C1640 C1645 1.425 . S
C1640 C1647 1.409 . S
C1641 H1633 0.930 . S
C1641 C1639 1.419 . S
C1641 C1642 1.362 . S
C1642 H1634 0.930 . S
C1642 C1641 1.362 . S
C1642 C1645 1.409 . S
C1643 H1635 0.930 . S
C1643 C1644 1.355 . S
C1643 C1645 1.415 . S
C1644 C1643 1.355 . S
C1644 C1646 1.419 . S
C1645 C1640 1.425 . S
C1645 C1642 1.409 . S
C1645 C1643 1.415 . S
C1646 H1636 0.930 . S
C1646 C1644 1.419 . S
C1646 C1647 1.362 . S
C1647 H1637 0.930 . S
C1647 C1640 1.409 . S
C1647 C1646 1.362 . S
H1648 C1654 0.930 . S
H1649 C1657 0.930 . S
H1650 C1658 0.930 . S
H1651 C1659 0.930 . S
H1652 C1662 0.930 . S
H1653 C1663 0.930 . S
C1654 H1648 0.930 . S
C1654 C1655 1.355 . S
C1654 C1656 1.415 . S
C1655 C1654 1.355 . S
C1655 C1657 1.419 . S
C1656 C1654 1.415 . S
C1656 C1661 1.425 . S
C1656 C1663 1.409 . S
C1657 H1649 0.930 . S
C1657 C1655 1.419 . S
C1657 C1658 1.362 . S
C1658 H1650 0.930 . S
C1658 C1657 1.362 . S
C1658 C1661 1.409 . S
C1659 H1651 0.930 . S
C1659 C1660 1.355 . S
C1659 C1661 1.415 . S
C1660 C1659 1.355 . S
C1660 C1662 1.419 . S
C1661 C1656 1.425 . S
C1661 C1658 1.409 . S
C1661 C1659 1.415 . S
C1662 H1652 0.930 . S
C1662 C1660 1.419 . S
C1662 C1663 1.362 . S
C1663 H1653 0.930 . S
C1663 C1656 1.409 . S
C1663 C1662 1.362 . S
H1664 C1670 0.930 . S
H1665 C1673 0.930 . S
H1666 C1674 0.930 . S
H1667 C1675 0.930 . S
H1668 C1678 0.930 . S
H1669 C1679 0.930 . S
C1670 H1664 0.930 . S
C1670 C1671 1.355 . S
C1670 C1672 1.415 . S
C1671 C1670 1.355 . S
C1671 C1673 1.419 . S
C1672 C1670 1.415 . S
C1672 C1677 1.425 . S
C1672 C1679 1.409 . S
C1673 H1665 0.930 . S
C1673 C1671 1.419 . S
C1673 C1674 1.362 . S
C1674 H1666 0.930 . S
C1674 C1673 1.362 . S
C1674 C1677 1.409 . S
C1675 H1667 0.930 . S
C1675 C1676 1.355 . S
C1675 C1677 1.415 . S
C1676 C1675 1.355 . S
C1676 C1678 1.419 . S
C1677 C1672 1.425 . S
C1677 C1674 1.409 . S
C1677 C1675 1.415 . S
C1678 H1668 0.930 . S
C1678 C1676 1.419 . S
C1678 C1679 1.362 . S
C1679 H1669 0.930 . S
C1679 C1672 1.409 . S
C1679 C1678 1.362 . S
H1680 C1686 0.930 . S
H1681 C1689 0.930 . S
H1682 C1690 0.930 . S
H1683 C1691 0.930 . S
H1684 C1694 0.930 . S
H1685 C1695 0.930 . S
C1686 H1680 0.930 . S
C1686 C1687 1.355 . S
C1686 C1688 1.415 . S
C1687 C1686 1.355 . S
C1687 C1689 1.419 . S
C1688 C1686 1.415 . S
C1688 C1693 1.425 1_545 S
C1688 C1695 1.409 1_545 S
C1689 H1681 0.930 . S
C1689 C1687 1.419 . S
C1689 C1690 1.362 . S
C1690 H1682 0.930 . S
C1690 C1689 1.362 . S
C1690 C1693 1.409 1_545 S
C1691 H1683 0.930 . S
C1691 C1692 1.355 . S
C1691 C1693 1.415 . S
C1692 C1691 1.355 . S
C1692 C1694 1.419 . S
C1693 C1688 1.425 1_565 S
C1693 C1690 1.409 1_565 S
C1693 C1691 1.415 . S
C1694 H1684 0.930 . S
C1694 C1692 1.419 . S
C1694 C1695 1.362 . S
C1695 H1685 0.930 . S
C1695 C1688 1.409 1_565 S
C1695 C1694 1.362 . S
H1696 C1702 0.930 . S
H1697 C1705 0.930 . S
H1698 C1706 0.930 . S
H1699 C1707 0.930 . S
H1700 C1710 0.930 . S
H1701 C1711 0.930 . S
C1702 H1696 0.930 . S
C1702 C1703 1.355 . S
C1702 C1704 1.415 . S
C1703 C1702 1.355 . S
C1703 C1705 1.419 . S
C1704 C1702 1.415 . S
C1704 C1709 1.425 1_655 S
C1704 C1711 1.409 . S
C1705 H1697 0.930 . S
C1705 C1703 1.419 . S
C1705 C1706 1.362 1_655 S
C1706 H1698 0.930 . S
C1706 C1705 1.362 1_455 S
C1706 C1709 1.409 . S
C1707 H1699 0.930 . S
C1707 C1708 1.355 . S
C1707 C1709 1.415 . S
C1708 C1707 1.355 . S
C1708 C1710 1.419 . S
C1709 C1704 1.425 1_455 S
C1709 C1706 1.409 . S
C1709 C1707 1.415 . S
C1710 H1700 0.930 . S
C1710 C1708 1.419 . S
C1710 C1711 1.362 1_455 S
C1711 H1701 0.930 . S
C1711 C1704 1.409 . S
C1711 C1710 1.362 1_655 S
H1712 C1718 0.930 . S
H1713 C1721 0.930 . S
H1714 C1722 0.930 1_556 S
H1715 C1723 0.930 . S
H1716 C1726 0.930 . S
H1717 C1727 0.930 1_554 S
C1718 H1712 0.930 . S
C1718 C1719 1.355 . S
C1718 C1720 1.415 . S
C1719 C1718 1.355 . S
C1719 C1721 1.419 . S
C1720 C1718 1.415 . S
C1720 C1725 1.425 1_554 S
C1720 C1727 1.409 1_554 S
C1721 H1713 0.930 . S
C1721 C1719 1.419 . S
C1721 C1722 1.362 . S
C1722 H1714 0.930 1_554 S
C1722 C1721 1.362 . S
C1722 C1725 1.409 1_554 S
C1723 H1715 0.930 . S
C1723 C1724 1.355 . S
C1723 C1725 1.415 . S
C1724 C1723 1.355 . S
C1724 C1726 1.419 . S
C1725 C1720 1.425 1_556 S
C1725 C1722 1.409 1_556 S
C1725 C1723 1.415 . S
C1726 H1716 0.930 . S
C1726 C1724 1.419 . S
C1726 C1727 1.362 . S
C1727 H1717 0.930 1_556 S
C1727 C1720 1.409 1_556 S
C1727 C1726 1.362 . S
H1728 C1734 0.930 . S
H1729 C1737 0.930 . S
H1730 C1738 0.930 . S
H1731 C1739 0.930 . S
H1732 C1742 0.930 . S
H1733 C1743 0.930 . S
C1734 H1728 0.930 . S
C1734 C1735 1.355 . S
C1734 C1736 1.415 . S
C1735 C1734 1.355 . S
C1735 C1737 1.419 . S
C1736 C1734 1.415 . S
C1736 C1741 1.425 . S
C1736 C1743 1.409 . S
C1737 H1729 0.930 . S
C1737 C1735 1.419 . S
C1737 C1738 1.362 . S
C1738 H1730 0.930 . S
C1738 C1737 1.362 . S
C1738 C1741 1.409 . S
C1739 H1731 0.930 . S
C1739 C1740 1.355 . S
C1739 C1741 1.415 . S
C1740 C1739 1.355 . S
C1740 C1742 1.419 . S
C1741 C1736 1.425 . S
C1741 C1738 1.409 . S
C1741 C1739 1.415 . S
C1742 H1732 0.930 . S
C1742 C1740 1.419 . S
C1742 C1743 1.362 . S
C1743 H1733 0.930 . S
C1743 C1736 1.409 . S
C1743 C1742 1.362 . S
H1744 C1750 0.930 . S
H1745 C1753 0.930 . S
H1746 C1754 0.930 . S
H1747 C1755 0.930 . S
H1748 C1758 0.930 . S
H1749 C1759 0.930 . S
C1750 H1744 0.930 . S
C1750 C1751 1.355 . S
C1750 C1752 1.415 1_556 S
C1751 C1750 1.355 . S
C1751 C1753 1.419 . S
C1752 C1750 1.415 1_554 S
C1752 C1757 1.425 1_554 S
C1752 C1759 1.409 . S
C1753 H1745 0.930 . S
C1753 C1751 1.419 . S
C1753 C1754 1.362 . S
C1754 H1746 0.930 . S
C1754 C1753 1.362 . S
C1754 C1757 1.409 . S
C1755 H1747 0.930 . S
C1755 C1756 1.355 . S
C1755 C1757 1.415 1_554 S
C1756 C1755 1.355 . S
C1756 C1758 1.419 . S
C1757 C1752 1.425 1_556 S
C1757 C1754 1.409 . S
C1757 C1755 1.415 1_556 S
C1758 H1748 0.930 . S
C1758 C1756 1.419 . S
C1758 C1759 1.362 . S
C1759 H1749 0.930 . S
C1759 C1752 1.409 . S
C1759 C1758 1.362 . S
H1760 C1766 0.930 . S
H1761 C1769 0.930 . S
H1762 C1770 0.930 . S
H1763 C1771 0.930 . S
H1764 C1774 0.930 . S
H1765 C1775 0.930 . S
C1766 H1760 0.930 . S
C1766 C1767 1.355 . S
C1766 C1768 1.415 . S
C1767 C1766 1.355 . S
C1767 C1769 1.419 . S
C1768 C1766 1.415 . S
C1768 C1773 1.425 . S
C1768 C1775 1.409 . S
C1769 H1761 0.930 . S
C1769 C1767 1.419 . S
C1769 C1770 1.362 . S
C1770 H1762 0.930 . S
C1770 C1769 1.362 . S
C1770 C1773 1.409 . S
C1771 H1763 0.930 . S
C1771 C1772 1.355 . S
C1771 C1773 1.415 . S
C1772 C1771 1.355 . S
C1772 C1774 1.419 . S
C1773 C1768 1.425 . S
C1773 C1770 1.409 . S
C1773 C1771 1.415 . S
C1774 H1764 0.930 . S
C1774 C1772 1.419 . S
C1774 C1775 1.362 . S
C1775 H1765 0.930 . S
C1775 C1768 1.409 . S
C1775 C1774 1.362 . S
C823 C101 1.938 . S
C828 C33 1.938 . S
C839 C67 1.939 . S
C844 C135 1.926 . S
C855 C169 1.941 . S
C860 C237 1.924 . S
C871 C271 1.908 . S
C876 C203 1.965 . S
C887 C441 1.930 . S
C892 C305 1.946 . S
C903 C339 1.922 . S
C908 C475 1.944 . S
C919 C509 1.918 . S
C924 C373 1.948 . S
C935 C543 1.932 . S
C940 C407 1.934 . S
C951 C577 1.917 . S
C956 C679 1.949 . S
C967 C611 1.925 . S
C972 C747 1.941 . S
C983 C645 1.952 . S
C988 C781 1.924 . S
C999 C815 1.913 . S
C1004 C713 1.954 . S
C1015 C138 1.661 . S
C1020 C2 1.665 . S
C1031 C172 1.648 . S
C1036 C36 1.677 . S
C1047 C206 1.676 . S
C1052 C70 1.649 . S
C1063 C240 1.676 . S
C1068 C104 1.649 . S
C1079 C274 1.675 . S
C1084 C478 1.651 . S
C1095 C512 1.650 . S
C1100 C308 1.675 . S
C1111 C410 1.679 . S
C1116 C342 1.646 . S
C1127 C444 1.681 . S
C1132 C376 1.644 . S
C1143 C716 1.657 . S
C1148 C546 1.668 . S
C1159 C580 1.646 . S
C1164 C648 1.680 . S
C1175 C614 1.681 . S
C1180 C682 1.645 . S
C1191 C784 1.656 . S
C1196 C750 1.669 . S
C1207 C243 0.742 . S
C1212 C39 0.746 . S
C1223 C73 0.949 . S
C1228 C141 0.942 . S
C1239 C175 0.861 . S
C1244 C107 0.885 . S
C1255 C209 0.742 . S
C1260 C5 0.748 . S
C1271 C753 0.756 . S
C1276 C685 0.746 . S
C1287 C549 0.943 . S
C1292 C583 0.931 . S
C1303 C617 0.798 . S
C1308 C787 0.777 . S
C1319 C719 0.821 . S
C1324 C651 0.797 . S
C1335 C447 0.924 . S
C1340 C515 0.906 . S
C1351 C311 0.951 . S
C1356 C379 0.948 . S
C1367 C345 0.890 . S
C1372 C277 0.911 . S
C1383 C413 0.786 . S
C1388 C481 0.767 . S
C1399 C768 2.294 . S
C1404 C20 2.280 . S
C1415 C564 2.282 . S
C1420 C54 2.286 . S
C1431 C802 2.280 . S
C1436 C88 2.295 . S
C1447 C734 2.303 . S
C1452 C122 2.283 . S
C1463 C156 2.284 . S
C1468 C632 2.305 . S
C1479 C190 2.312 . S
C1484 C666 2.298 . S
C1495 C224 2.282 . S
C1500 C700 2.288 . S
C1511 C598 2.310 . S
C1516 C258 2.305 . S
C1527 C292 2.311 . S
C1532 C462 2.295 . S
C1543 C496 2.303 . S
C1548 C326 2.283 . S
C1559 C530 2.295 . S
C1564 C360 2.311 . S
C1575 C428 2.309 . S
C1580 C394 2.306 . S
C1591 C247 1.536 . S
C1596 C485 1.522 . S
C1607 C145 1.511 . S
C1612 C519 1.512 . S
C1623 C417 1.536 . S
C1628 C179 1.522 . S
C1639 C451 1.510 . S
C1644 C213 1.516 . S
C1655 C43 1.545 . S
C1660 C349 1.550 . S
C1671 C383 1.517 . S
C1676 C77 1.511 . S
C1687 C281 1.511 . S
C1692 C111 1.519 . S
C1703 C315 1.546 . S
C1708 C9 1.550 . S
C1719 C723 1.531 . S
C1724 C689 1.544 . S
C1735 C757 1.531 . S
C1740 C587 1.543 . S
C1751 C621 1.515 . S
C1756 C553 1.510 . S
C1767 C791 1.540 . S
C1772 C655 1.548 . S
