# Generated by pormake.
# Topology wgz, (6)-cn, num edge types: 1
# Building blocks:
#     Node 0, Type 0, BuildingBlock: VOLQOD_clean_sbu_1, # of connection points: 6
#     Node 1, Type 0, BuildingBlock: VOLQOD_clean_sbu_1, # of connection points: 6
#     Node 2, Type 0, BuildingBlock: VOLQOD_clean_sbu_1, # of connection points: 6
#     Node 3, Type 0, BuildingBlock: VOLQOD_clean_sbu_1, # of connection points: 6
#     Node 4, Type 0, BuildingBlock: VOLQOD_clean_sbu_1, # of connection points: 6
#     Node 5, Type 0, BuildingBlock: VOLQOD_clean_sbu_1, # of connection points: 6
#     Node 6, Type 0, BuildingBlock: VOLQOD_clean_sbu_1, # of connection points: 6
#     Node 7, Type 0, BuildingBlock: VOLQOD_clean_sbu_1, # of connection points: 6
#     Node 8, Type 0, BuildingBlock: VOLQOD_clean_sbu_1, # of connection points: 6
#     Node 9, Type 0, BuildingBlock: VOLQOD_clean_sbu_1, # of connection points: 6
#     Node 10, Type 0, BuildingBlock: VOLQOD_clean_sbu_1, # of connection points: 6
#     Node 11, Type 0, BuildingBlock: VOLQOD_clean_sbu_1, # of connection points: 6
#     Node 12, Type 0, BuildingBlock: VOLQOD_clean_sbu_1, # of connection points: 6
#     Node 13, Type 0, BuildingBlock: VOLQOD_clean_sbu_1, # of connection points: 6
#     Node 14, Type 0, BuildingBlock: VOLQOD_clean_sbu_1, # of connection points: 6
#     Node 15, Type 0, BuildingBlock: VOLQOD_clean_sbu_1, # of connection points: 6
#     Edge 16, Type (0, 0), BuildingBlock: XIVTED_clean_linker_0, # of connection points: 2
#     Edge 17, Type (0, 0), BuildingBlock: XIVTED_clean_linker_0, # of connection points: 2
#     Edge 18, Type (0, 0), BuildingBlock: XIVTED_clean_linker_0, # of connection points: 2
#     Edge 19, Type (0, 0), BuildingBlock: XIVTED_clean_linker_0, # of connection points: 2
#     Edge 20, Type (0, 0), BuildingBlock: XIVTED_clean_linker_0, # of connection points: 2
#     Edge 21, Type (0, 0), BuildingBlock: XIVTED_clean_linker_0, # of connection points: 2
#     Edge 22, Type (0, 0), BuildingBlock: XIVTED_clean_linker_0, # of connection points: 2
#     Edge 23, Type (0, 0), BuildingBlock: XIVTED_clean_linker_0, # of connection points: 2
#     Edge 24, Type (0, 0), BuildingBlock: XIVTED_clean_linker_0, # of connection points: 2
#     Edge 25, Type (0, 0), BuildingBlock: XIVTED_clean_linker_0, # of connection points: 2
#     Edge 26, Type (0, 0), BuildingBlock: XIVTED_clean_linker_0, # of connection points: 2
#     Edge 27, Type (0, 0), BuildingBlock: XIVTED_clean_linker_0, # of connection points: 2
#     Edge 28, Type (0, 0), BuildingBlock: XIVTED_clean_linker_0, # of connection points: 2
#     Edge 29, Type (0, 0), BuildingBlock: XIVTED_clean_linker_0, # of connection points: 2
#     Edge 30, Type (0, 0), BuildingBlock: XIVTED_clean_linker_0, # of connection points: 2
#     Edge 31, Type (0, 0), BuildingBlock: XIVTED_clean_linker_0, # of connection points: 2
#     Edge 32, Type (0, 0), BuildingBlock: XIVTED_clean_linker_0, # of connection points: 2
#     Edge 33, Type (0, 0), BuildingBlock: XIVTED_clean_linker_0, # of connection points: 2
#     Edge 34, Type (0, 0), BuildingBlock: XIVTED_clean_linker_0, # of connection points: 2
#     Edge 35, Type (0, 0), BuildingBlock: XIVTED_clean_linker_0, # of connection points: 2
#     Edge 36, Type (0, 0), BuildingBlock: XIVTED_clean_linker_0, # of connection points: 2
#     Edge 37, Type (0, 0), BuildingBlock: XIVTED_clean_linker_0, # of connection points: 2
#     Edge 38, Type (0, 0), BuildingBlock: XIVTED_clean_linker_0, # of connection points: 2
#     Edge 39, Type (0, 0), BuildingBlock: XIVTED_clean_linker_0, # of connection points: 2
#     Edge 40, Type (0, 0), BuildingBlock: XIVTED_clean_linker_0, # of connection points: 2
#     Edge 41, Type (0, 0), BuildingBlock: XIVTED_clean_linker_0, # of connection points: 2
#     Edge 42, Type (0, 0), BuildingBlock: XIVTED_clean_linker_0, # of connection points: 2
#     Edge 43, Type (0, 0), BuildingBlock: XIVTED_clean_linker_0, # of connection points: 2
#     Edge 44, Type (0, 0), BuildingBlock: XIVTED_clean_linker_0, # of connection points: 2
#     Edge 45, Type (0, 0), BuildingBlock: XIVTED_clean_linker_0, # of connection points: 2
#     Edge 46, Type (0, 0), BuildingBlock: XIVTED_clean_linker_0, # of connection points: 2
#     Edge 47, Type (0, 0), BuildingBlock: XIVTED_clean_linker_0, # of connection points: 2
#     Edge 48, Type (0, 0), BuildingBlock: XIVTED_clean_linker_0, # of connection points: 2
#     Edge 49, Type (0, 0), BuildingBlock: XIVTED_clean_linker_0, # of connection points: 2
#     Edge 50, Type (0, 0), BuildingBlock: XIVTED_clean_linker_0, # of connection points: 2
#     Edge 51, Type (0, 0), BuildingBlock: XIVTED_clean_linker_0, # of connection points: 2
#     Edge 52, Type (0, 0), BuildingBlock: XIVTED_clean_linker_0, # of connection points: 2
#     Edge 53, Type (0, 0), BuildingBlock: XIVTED_clean_linker_0, # of connection points: 2
#     Edge 54, Type (0, 0), BuildingBlock: XIVTED_clean_linker_0, # of connection points: 2
#     Edge 55, Type (0, 0), BuildingBlock: XIVTED_clean_linker_0, # of connection points: 2
#     Edge 56, Type (0, 0), BuildingBlock: XIVTED_clean_linker_0, # of connection points: 2
#     Edge 57, Type (0, 0), BuildingBlock: XIVTED_clean_linker_0, # of connection points: 2
#     Edge 58, Type (0, 0), BuildingBlock: XIVTED_clean_linker_0, # of connection points: 2
#     Edge 59, Type (0, 0), BuildingBlock: XIVTED_clean_linker_0, # of connection points: 2
#     Edge 60, Type (0, 0), BuildingBlock: XIVTED_clean_linker_0, # of connection points: 2
#     Edge 61, Type (0, 0), BuildingBlock: XIVTED_clean_linker_0, # of connection points: 2
#     Edge 62, Type (0, 0), BuildingBlock: XIVTED_clean_linker_0, # of connection points: 2
#     Edge 63, Type (0, 0), BuildingBlock: XIVTED_clean_linker_0, # of connection points: 2
# Relax obj value: 0.567
# Max RMSD: 0.289
# Mean RMSD: 0.289
data_MOF--net-wgz--node1-VOLQOD_clean_sbu_1--edge1-XIVTED_clean_linker_0
_symmetry_space_group_name_H-M    P1
_symmetry_Int_Tables_number       1
_symmetry_cell_setting            triclinic
loop_
_symmetry_equiv_pos_as_xyz
'x, y, z'
_cell_length_a     35.255752
_cell_length_b     35.219527
_cell_length_c     55.19527
_cell_angle_alpha  89.903842
_cell_angle_beta   89.931381
_cell_angle_gamma 90.737763
loop_
_atom_site_label
_atom_site_type_symbol
_atom_site_fract_x
_atom_site_fract_y
_atom_site_fract_z
_atom_type_partial_charge
O0 O 0.18653 0.37055 0.15287 0.0
Zn1 Zn 0.19005 0.39188 0.11787 0.0
O2 O 0.23109 0.42917 0.11784 0.0
Zn3 Zn 0.26086 0.42437 0.08897 0.0
Zn4 Zn 0.26498 0.42614 0.14501 0.0
Zn5 Zn 0.21121 0.47889 0.12054 0.0
O6 O 0.27408 0.47581 0.07537 0.0
O7 O 0.24106 0.51403 0.0992 0.0
O8 O 0.20306 0.35213 0.09105 0.0
O9 O 0.23455 0.38994 0.06527 0.0
O10 O 0.30998 0.39861 0.09639 0.0
O11 O 0.31391 0.40181 0.1364 0.0
O12 O 0.27388 0.4771 0.16115 0.0
O13 O 0.13934 0.41884 0.11007 0.0
O14 O 0.21669 0.49945 0.15406 0.0
O15 O 0.1567 0.47969 0.11153 0.0
C16 C 0.20932 0.37442 0.17081 0.0
C17 C 0.26496 0.50899 0.08224 0.0
C18 C 0.3275 0.39196 0.11605 0.0
C19 C 0.21801 0.35842 0.07015 0.0
C20 C 0.24777 0.50074 0.1657 0.0
C21 C 0.13137 0.45416 0.1083 0.0
O22 O 0.23971 0.39403 0.16929 0.0
O23 O 0.67684 0.1293 0.15186 0.0
Zn24 Zn 0.67046 0.13567 0.11446 0.0
O25 O 0.65039 0.18552 0.11167 0.0
Zn26 Zn 0.68964 0.22205 0.10626 0.0
Zn27 Zn 0.62288 0.19749 0.14009 0.0
Zn28 Zn 0.61765 0.18724 0.08479 0.0
O29 O 0.67455 0.2556 0.07837 0.0
O30 O 0.64644 0.2098 0.05693 0.0
O31 O 0.71821 0.13602 0.09142 0.0
O32 O 0.736 0.19679 0.0941 0.0
O33 O 0.69993 0.25258 0.13612 0.0
O34 O 0.65074 0.23739 0.15962 0.0
O35 O 0.57233 0.21939 0.13217 0.0
O36 O 0.62865 0.09817 0.10283 0.0
O37 O 0.57433 0.22175 0.09201 0.0
O38 O 0.59407 0.13576 0.07942 0.0
C39 C 0.64887 0.13364 0.16656 0.0
C40 C 0.66327 0.24203 0.0582 0.0
C41 C 0.68128 0.25615 0.15575 0.0
C42 C 0.74133 0.16339 0.08617 0.0
C43 C 0.55841 0.2299 0.11201 0.0
C44 C 0.60015 0.10336 0.08889 0.0
O45 O 0.61898 0.15051 0.15983 0.0
O46 O 0.81055 0.63554 0.1523 0.0
Zn47 Zn 0.80691 0.61449 0.11731 0.0
O48 O 0.76537 0.57788 0.11729 0.0
Zn49 Zn 0.73629 0.58331 0.08829 0.0
Zn50 Zn 0.73109 0.58159 0.14423 0.0
Zn51 Zn 0.78428 0.52777 0.12016 0.0
O52 O 0.72193 0.53228 0.07496 0.0
O53 O 0.7538 0.49318 0.09888 0.0
O54 O 0.79462 0.65457 0.09048 0.0
O55 O 0.76371 0.61687 0.06452 0.0
O56 O 0.68766 0.61001 0.0953 0.0
O57 O 0.68269 0.60665 0.13527 0.0
O58 O 0.72106 0.53075 0.16043 0.0
O59 O 0.85711 0.58664 0.1096 0.0
O60 O 0.77799 0.50743 0.15374 0.0
O61 O 0.83893 0.52601 0.11131 0.0
C62 C 0.78741 0.63219 0.17014 0.0
C63 C 0.73008 0.49887 0.08192 0.0
C64 C 0.66976 0.61679 0.1148 0.0
C65 C 0.78015 0.64837 0.06947 0.0
C66 C 0.74668 0.50666 0.16518 0.0
C67 C 0.86462 0.5512 0.10802 0.0
O68 O 0.75661 0.61328 0.16852 0.0
O69 O 0.31704 0.87486 0.15063 0.0
Zn70 Zn 0.32407 0.86916 0.11318 0.0
O71 O 0.34459 0.81949 0.11042 0.0
Zn72 Zn 0.30598 0.78254 0.10486 0.0
Zn73 Zn 0.37141 0.80826 0.13922 0.0
Zn74 Zn 0.37803 0.8178 0.08387 0.0
O75 O 0.32273 0.74825 0.07776 0.0
O76 O 0.35043 0.79405 0.05597 0.0
O77 O 0.27668 0.86866 0.08988 0.0
O78 O 0.26023 0.8074 0.09149 0.0
O79 O 0.29455 0.75313 0.13511 0.0
O80 O 0.34257 0.76946 0.15921 0.0
O81 O 0.42182 0.78578 0.13201 0.0
O82 O 0.36597 0.90682 0.10176 0.0
O83 O 0.42165 0.78406 0.09182 0.0
O84 O 0.40099 0.86958 0.07837 0.0
C85 C 0.3453 0.87131 0.16514 0.0
C86 C 0.33445 0.76141 0.05752 0.0
C87 C 0.31224 0.75049 0.15516 0.0
C88 C 0.25437 0.84099 0.08397 0.0
C89 C 0.43669 0.77567 0.11206 0.0
C90 C 0.39464 0.90187 0.08786 0.0
O91 O 0.37578 0.85615 0.15788 0.0
O92 O 0.12502 0.68426 0.86616 0.0
Zn93 Zn 0.13207 0.6767 0.90344 0.0
O94 O 0.18191 0.65655 0.9057 0.0
Zn95 Zn 0.21846 0.69584 0.91104 0.0
Zn96 Zn 0.19364 0.62958 0.87701 0.0
Zn97 Zn 0.18407 0.6233 0.93243 0.0
O98 O 0.25299 0.6798 0.93813 0.0
O99 O 0.20798 0.65131 0.96014 0.0
O100 O 0.13261 0.72388 0.92687 0.0
O101 O 0.19336 0.74163 0.92431 0.0
O102 O 0.2483 0.7072 0.88093 0.0
O103 O 0.23378 0.65755 0.85775 0.0
O104 O 0.21488 0.5784 0.88436 0.0
O105 O 0.09478 0.63457 0.91514 0.0
O106 O 0.21783 0.57966 0.92451 0.0
O107 O 0.13255 0.59995 0.93841 0.0
C108 C 0.12955 0.65701 0.85098 0.0
C109 C 0.24025 0.66795 0.95843 0.0
C110 C 0.25214 0.68838 0.8614 0.0
C111 C 0.16 0.74676 0.93238 0.0
C112 C 0.22547 0.56397 0.90436 0.0
C113 C 0.10009 0.60603 0.92912 0.0
O114 O 0.14709 0.62707 0.85695 0.0
O115 O 0.36808 0.19085 0.86297 0.0
Zn116 Zn 0.38871 0.19514 0.89795 0.0
O117 O 0.42556 0.23651 0.89773 0.0
Zn118 Zn 0.42044 0.2664 0.92646 0.0
Zn119 Zn 0.42224 0.27011 0.87036 0.0
Zn120 Zn 0.47541 0.21706 0.89484 0.0
O121 O 0.47164 0.27929 0.94032 0.0
O122 O 0.51016 0.24678 0.91637 0.0
O123 O 0.34856 0.20786 0.92457 0.0
O124 O 0.38573 0.24021 0.95017 0.0
O125 O 0.39468 0.31549 0.91872 0.0
O126 O 0.39608 0.31833 0.87861 0.0
O127 O 0.47353 0.28076 0.85496 0.0
O128 O 0.41604 0.14468 0.90585 0.0
O129 O 0.49604 0.2234 0.86135 0.0
O130 O 0.4767 0.1623 0.90355 0.0
C131 C 0.37282 0.21261 0.84453 0.0
C132 C 0.50487 0.27031 0.93348 0.0
C133 C 0.38686 0.33232 0.89897 0.0
C134 C 0.3545 0.22316 0.94537 0.0
C135 C 0.49747 0.25501 0.85022 0.0
C136 C 0.45139 0.13683 0.90712 0.0
O137 O 0.39215 0.24325 0.84576 0.0
O138 O 0.87242 0.32085 0.86919 0.0
Zn139 Zn 0.86647 0.32921 0.90636 0.0
O140 O 0.81687 0.34994 0.9083 0.0
Zn141 Zn 0.78013 0.3108 0.91327 0.0
Zn142 Zn 0.80654 0.37713 0.8794 0.0
Zn143 Zn 0.8146 0.3833 0.93477 0.0
O144 O 0.74562 0.32662 0.94038 0.0
O145 O 0.79044 0.35517 0.96244 0.0
O146 O 0.86513 0.28214 0.92998 0.0
O147 O 0.80456 0.2644 0.92628 0.0
O148 O 0.75077 0.30038 0.88294 0.0
O149 O 0.76718 0.34928 0.85944 0.0
O150 O 0.78497 0.42825 0.88644 0.0
O151 O 0.90396 0.37132 0.91755 0.0
O152 O 0.78081 0.42685 0.92656 0.0
O153 O 0.86626 0.40655 0.9405 0.0
C154 C 0.86877 0.34826 0.85398 0.0
C155 C 0.7582 0.33845 0.96068 0.0
C156 C 0.74807 0.31889 0.86317 0.0
C157 C 0.83753 0.25915 0.93491 0.0
C158 C 0.77367 0.44256 0.90631 0.0
C159 C 0.89872 0.40018 0.93122 0.0
O160 O 0.85463 0.37956 0.86072 0.0
O161 O 0.63227 0.81501 0.86173 0.0
Zn162 Zn 0.61066 0.81122 0.89661 0.0
O163 O 0.57367 0.76985 0.89653 0.0
Zn164 Zn 0.57836 0.74017 0.9255 0.0
Zn165 Zn 0.57736 0.73592 0.86936 0.0
Zn166 Zn 0.52386 0.7895 0.89372 0.0
O167 O 0.52702 0.72727 0.93928 0.0
O168 O 0.48875 0.76004 0.91534 0.0
O169 O 0.65037 0.79852 0.92347 0.0
O170 O 0.61285 0.76651 0.94915 0.0
O171 O 0.60401 0.69093 0.91822 0.0
O172 O 0.60217 0.6871 0.87816 0.0
O173 O 0.52649 0.7264 0.85321 0.0
O174 O 0.58343 0.86182 0.90432 0.0
O175 O 0.50341 0.78337 0.86024 0.0
O176 O 0.52275 0.84422 0.90237 0.0
C177 C 0.62875 0.79222 0.84376 0.0
C178 C 0.49384 0.73643 0.93248 0.0
C179 C 0.6114 0.67348 0.89864 0.0
C180 C 0.64418 0.7834 0.94434 0.0
C181 C 0.50248 0.75219 0.84867 0.0
C182 C 0.5481 0.86967 0.90578 0.0
O183 O 0.60938 0.76163 0.84511 0.0
O184 O 0.63207 0.81928 0.64854 0.0
Zn185 Zn 0.63996 0.83683 0.61292 0.0
O186 O 0.6874 0.86536 0.61196 0.0
Zn187 Zn 0.7163 0.85139 0.58418 0.0
Zn188 Zn 0.71884 0.85972 0.63995 0.0
Zn189 Zn 0.67857 0.91827 0.61146 0.0
O190 O 0.741 0.89698 0.56858 0.0
O191 O 0.71536 0.94423 0.5892 0.0
O192 O 0.64496 0.79297 0.58766 0.0
O193 O 0.68381 0.82181 0.56129 0.0
O194 O 0.75805 0.81654 0.59393 0.0
O195 O 0.76127 0.82442 0.63372 0.0
O196 O 0.73919 0.91044 0.65176 0.0
O197 O 0.59609 0.87272 0.60336 0.0
O198 O 0.68687 0.94165 0.64385 0.0
O199 O 0.62622 0.92849 0.60117 0.0
C200 C 0.65408 0.82239 0.66694 0.0
C201 C 0.73844 0.93223 0.57331 0.0
C202 C 0.77297 0.80906 0.61433 0.0
C203 C 0.66101 0.79479 0.56677 0.0
C204 C 0.71884 0.93977 0.65433 0.0
C205 C 0.59611 0.90853 0.59916 0.0
O206 O 0.68702 0.83726 0.66552 0.0
O207 O 0.17336 0.64584 0.65618 0.0
Zn208 Zn 0.16306 0.6463 0.61886 0.0
O209 O 0.13056 0.68857 0.61333 0.0
Zn210 Zn 0.1576 0.732 0.60241 0.0
Zn211 Zn 0.10448 0.70252 0.64222 0.0
Zn212 Zn 0.09656 0.67616 0.58765 0.0
O213 O 0.12677 0.75934 0.57727 0.0
O214 O 0.10889 0.70682 0.558 0.0
O215 O 0.20923 0.65344 0.59459 0.0
O216 O 0.20435 0.71523 0.5862 0.0
O217 O 0.17043 0.76599 0.62986 0.0
O218 O 0.12432 0.75234 0.65609 0.0
O219 O 0.04875 0.70553 0.63654 0.0
O220 O 0.13057 0.5986 0.61118 0.0
O221 O 0.04409 0.69054 0.59756 0.0
O222 O 0.09296 0.62002 0.58201 0.0
C223 C 0.14725 0.64953 0.67227 0.0
C224 C 0.11397 0.74271 0.55846 0.0
C225 C 0.15311 0.77211 0.64966 0.0
C226 C 0.22108 0.68373 0.58369 0.0
C227 C 0.02903 0.7005 0.61749 0.0
C228 C 0.10487 0.59297 0.59518 0.0
O229 O 0.11535 0.66402 0.66722 0.0
O230 O 0.34051 0.15205 0.65308 0.0
Zn231 Zn 0.32286 0.13338 0.61924 0.0
O232 O 0.27338 0.10716 0.62326 0.0
Zn233 Zn 0.23404 0.13363 0.60592 0.0
Zn234 Zn 0.25772 0.10378 0.65688 0.0
Zn235 Zn 0.27615 0.05546 0.61254 0.0
O236 O 0.20329 0.09823 0.58448 0.0
O237 O 0.23715 0.04557 0.58736 0.0
O238 O 0.31869 0.17642 0.59323 0.0
O239 O 0.257 0.17318 0.58474 0.0
O240 O 0.20112 0.16208 0.62887 0.0
O241 O 0.21804 0.14136 0.66524 0.0
O242 O 0.23917 0.05231 0.6679 0.0
O243 O 0.36231 0.09478 0.60764 0.0
O244 O 0.26508 0.01809 0.63883 0.0
O245 O 0.32756 0.04293 0.60057 0.0
C246 C 0.33084 0.13865 0.67384 0.0
C247 C 0.20936 0.06383 0.57869 0.0
C248 C 0.1984 0.16281 0.65185 0.0
C249 C 0.28968 0.18787 0.58142 0.0
C250 C 0.24819 0.02044 0.65908 0.0
C251 C 0.35939 0.06027 0.60062 0.0
O252 O 0.30185 0.11733 0.67665 0.0
O253 O 0.83252 0.33953 0.65856 0.0
Zn254 Zn 0.85033 0.33128 0.62276 0.0
O255 O 0.87772 0.28283 0.62139 0.0
Zn256 Zn 0.8532 0.24553 0.60082 0.0
Zn257 Zn 0.88347 0.25796 0.65255 0.0
Zn258 Zn 0.92804 0.29328 0.60949 0.0
O259 O 0.89056 0.22161 0.57776 0.0
O260 O 0.94354 0.25408 0.58563 0.0
O261 O 0.80666 0.32914 0.59648 0.0
O262 O 0.81226 0.27011 0.58223 0.0
O263 O 0.82926 0.20313 0.62004 0.0
O264 O 0.86168 0.20531 0.65438 0.0
O265 O 0.93685 0.25772 0.66481 0.0
O266 O 0.88825 0.37525 0.6148 0.0
O267 O 0.96564 0.29167 0.6363 0.0
O268 O 0.9343 0.34521 0.59548 0.0
C269 C 0.83745 0.31848 0.67728 0.0
C270 C 0.92593 0.22758 0.57457 0.0
C271 C 0.83776 0.18911 0.64054 0.0
C272 C 0.79623 0.30224 0.58209 0.0
C273 C 0.96593 0.27531 0.65682 0.0
C274 C 0.919 0.37581 0.60243 0.0
O275 O 0.85558 0.28769 0.67617 0.0
O276 O 0.64443 0.17095 0.36292 0.0
Zn277 Zn 0.6541 0.15625 0.39915 0.0
O278 O 0.70188 0.12826 0.40002 0.0
Zn279 Zn 0.7422 0.15917 0.41338 0.0
Zn280 Zn 0.71978 0.11188 0.3685 0.0
Zn281 Zn 0.6948 0.08428 0.41998 0.0
O282 O 0.77321 0.13008 0.43776 0.0
O283 O 0.73156 0.08422 0.44714 0.0
O284 O 0.65826 0.20105 0.42451 0.0
O285 O 0.72052 0.20201 0.43144 0.0
O286 O 0.77596 0.17996 0.38744 0.0
O287 O 0.76884 0.13703 0.35837 0.0
O288 O 0.72452 0.05531 0.36492 0.0
O289 O 0.61054 0.11951 0.40923 0.0
O290 O 0.70539 0.03757 0.40147 0.0
O291 O 0.64127 0.07599 0.43039 0.0
C292 C 0.65721 0.15454 0.34385 0.0
C293 C 0.76276 0.10188 0.45068 0.0
C294 C 0.78518 0.16642 0.36696 0.0
C295 C 0.68768 0.2152 0.4351 0.0
C296 C 0.71664 0.02948 0.38028 0.0
C297 C 0.61046 0.08954 0.42238 0.0
O298 O 0.68332 0.1301 0.34467 0.0
O299 O 0.82278 0.62916 0.36525 0.0
Zn300 Zn 0.83945 0.63948 0.40074 0.0
O301 O 0.8695 0.68648 0.40055 0.0
Zn302 Zn 0.85248 0.72176 0.42456 0.0
Zn303 Zn 0.87156 0.71269 0.36998 0.0
Zn304 Zn 0.92131 0.6756 0.40563 0.0
O305 O 0.89628 0.74661 0.44252 0.0
O306 O 0.94445 0.71496 0.42675 0.0
O307 O 0.79489 0.64623 0.42533 0.0
O308 O 0.81624 0.6957 0.44696 0.0
O309 O 0.82293 0.76291 0.40841 0.0
O310 O 0.83884 0.75841 0.36962 0.0
O311 O 0.92474 0.72772 0.36 0.0
O312 O 0.87356 0.59497 0.41202 0.0
O313 O 0.95152 0.67686 0.37518 0.0
O314 O 0.92803 0.62492 0.41973 0.0
C315 C 0.83238 0.64656 0.3457 0.0
C316 C 0.93176 0.74115 0.44021 0.0
C317 C 0.82064 0.77435 0.38658 0.0
C318 C 0.79284 0.66832 0.44376 0.0
C319 C 0.953 0.70577 0.36146 0.0
C320 C 0.90785 0.59482 0.41972 0.0
O321 O 0.85162 0.67728 0.34572 0.0
O322 O 0.35068 0.83352 0.36068 0.0
Zn323 Zn 0.33764 0.85086 0.3961 0.0
O324 O 0.28768 0.87613 0.39492 0.0
Zn325 Zn 0.2501 0.85111 0.41536 0.0
Zn326 Zn 0.26489 0.87866 0.36285 0.0
Zn327 Zn 0.29409 0.92801 0.40486 0.0
O328 O 0.2229 0.88883 0.43661 0.0
O329 O 0.25376 0.94261 0.42815 0.0
O330 O 0.33463 0.8073 0.42249 0.0
O331 O 0.27506 0.81236 0.43585 0.0
O332 O 0.21032 0.8236 0.39585 0.0
O333 O 0.21572 0.85076 0.35976 0.0
O334 O 0.25848 0.93123 0.34939 0.0
O335 O 0.37934 0.89004 0.40647 0.0
O336 O 0.29018 0.96361 0.37718 0.0
O337 O 0.34508 0.93916 0.41819 0.0
C338 C 0.33148 0.83763 0.3411 0.0
C339 C 0.22735 0.92456 0.43908 0.0
C340 C 0.1989 0.82809 0.37419 0.0
C341 C 0.30749 0.79703 0.43676 0.0
C342 C 0.27377 0.96188 0.35678 0.0
C343 C 0.37701 0.92335 0.41561 0.0
O344 O 0.29965 0.8539 0.34084 0.0
O345 O 0.16289 0.3497 0.36502 0.0
Zn346 Zn 0.14192 0.32947 0.39781 0.0
O347 O 0.11606 0.27997 0.39171 0.0
Zn348 Zn 0.14138 0.23925 0.40877 0.0
Zn349 Zn 0.11409 0.26602 0.35752 0.0
Zn350 Zn 0.06409 0.28242 0.40207 0.0
O351 O 0.10524 0.20914 0.43021 0.0
O352 O 0.05197 0.2414 0.42561 0.0
O353 O 0.18361 0.32306 0.42443 0.0
O354 O 0.18152 0.26045 0.43008 0.0
O355 O 0.16763 0.20464 0.38567 0.0
O356 O 0.14613 0.22149 0.3495 0.0
O357 O 0.06201 0.25563 0.344 0.0
O358 O 0.10281 0.36841 0.40983 0.0
O359 O 0.02793 0.27598 0.37491 0.0
O360 O 0.0515 0.33247 0.41589 0.0
C361 C 0.15474 0.33869 0.34351 0.0
C362 C 0.07024 0.21408 0.43483 0.0
C363 C 0.16661 0.20069 0.36278 0.0
C364 C 0.19554 0.29296 0.4349 0.0
C365 C 0.03033 0.26409 0.35331 0.0
C366 C 0.06829 0.36456 0.41667 0.0
O367 O 0.13545 0.30878 0.33931 0.0
H368 H 0.25586 0.3433 0.20405 0.0
H369 H 0.1129 0.38152 0.31355 0.0
H370 H 0.14098 0.38052 0.19394 0.0
H371 H 0.22453 0.33579 0.32305 0.0
H372 H 0.12517 0.38819 0.27011 0.0
H373 H 0.24553 0.34179 0.24776 0.0
C374 C 0.22802 0.35002 0.21107 0.0
C375 C 0.19907 0.36165 0.1954 0.0
C376 C 0.14741 0.3776 0.28173 0.0
C377 C 0.18751 0.36166 0.24551 0.0
C378 C 0.14075 0.3747 0.30659 0.0
C379 C 0.1681 0.35889 0.32187 0.0
C380 C 0.18154 0.36413 0.2721 0.0
C381 C 0.20314 0.34902 0.31191 0.0
C382 C 0.22233 0.34977 0.23604 0.0
C383 C 0.16378 0.37072 0.20539 0.0
N384 N 0.2087 0.3513 0.28756 0.0
N385 N 0.1591 0.37096 0.22989 0.0
H386 H 0.69185 0.20269 0.31272 0.0
H387 H 0.59763 0.10194 0.19738 0.0
H388 H 0.59894 0.12276 0.3186 0.0
H389 H 0.70654 0.15872 0.19566 0.0
H390 H 0.5942 0.11271 0.24113 0.0
H391 H 0.69125 0.19479 0.26866 0.0
C392 C 0.66997 0.185 0.30457 0.0
C393 C 0.64472 0.16413 0.31924 0.0
C394 C 0.61919 0.12222 0.23131 0.0
C395 C 0.64529 0.1531 0.26898 0.0
C396 C 0.62145 0.11552 0.20642 0.0
C397 C 0.6528 0.12873 0.19299 0.0
C398 C 0.64814 0.14307 0.24284 0.0
C399 C 0.68236 0.1472 0.20544 0.0
C400 C 0.67031 0.17969 0.27948 0.0
C401 C 0.61813 0.1402 0.30787 0.0
N402 N 0.6791 0.15425 0.22962 0.0
N403 N 0.61933 0.13502 0.28343 0.0
H404 H 0.74171 0.66463 0.20333 0.0
H405 H 0.87838 0.6126 0.31365 0.0
H406 H 0.85505 0.62292 0.19347 0.0
H407 H 0.76496 0.65412 0.32269 0.0
H408 H 0.86965 0.61313 0.26966 0.0
H409 H 0.7508 0.66315 0.24711 0.0
C410 C 0.76904 0.65639 0.21045 0.0
C411 C 0.79781 0.64418 0.19481 0.0
C412 C 0.84631 0.6213 0.28122 0.0
C413 C 0.80787 0.64071 0.24497 0.0
C414 C 0.851 0.62018 0.3063 0.0
C415 C 0.82193 0.63232 0.32169 0.0
C416 C 0.81246 0.63528 0.27149 0.0
C417 C 0.78759 0.64349 0.31139 0.0
C418 C 0.77399 0.65489 0.23545 0.0
C419 C 0.83241 0.63315 0.20491 0.0
N420 N 0.78391 0.64507 0.28688 0.0
N421 N 0.83633 0.63118 0.22942 0.0
H422 H 0.30114 0.78927 0.30842 0.0
H423 H 0.39557 0.9014 0.19717 0.0
H424 H 0.39147 0.87121 0.31804 0.0
H425 H 0.28813 0.8421 0.19326 0.0
H426 H 0.39886 0.8869 0.24054 0.0
H427 H 0.30382 0.79991 0.26469 0.0
C428 C 0.32295 0.80806 0.30116 0.0
C429 C 0.3465 0.82897 0.31687 0.0
C430 C 0.37424 0.87762 0.23033 0.0
C431 C 0.34831 0.843 0.26689 0.0
C432 C 0.37203 0.88643 0.20568 0.0
C433 C 0.34111 0.87366 0.19173 0.0
C434 C 0.3457 0.85509 0.24106 0.0
C435 C 0.31194 0.85337 0.20346 0.0
C436 C 0.32376 0.81491 0.27625 0.0
C437 C 0.37337 0.85391 0.30655 0.0
N438 N 0.31517 0.84431 0.22739 0.0
N439 N 0.37316 0.86072 0.28222 0.0
H440 H 0.0903 0.60967 0.82144 0.0
H441 H 0.19546 0.68803 0.70224 0.0
H442 H 0.15905 0.7116 0.82104 0.0
H443 H 0.10957 0.60005 0.7013 0.0
H444 H 0.1878 0.69314 0.74641 0.0
H445 H 0.09852 0.60446 0.7776 0.0
C446 C 0.10593 0.63179 0.8119 0.0
C447 C 0.12316 0.66165 0.82475 0.0
C448 C 0.17121 0.67214 0.73661 0.0
C449 C 0.13472 0.65471 0.77469 0.0
C450 C 0.17627 0.66859 0.71151 0.0
C451 C 0.15384 0.64284 0.69826 0.0
C452 C 0.14345 0.6498 0.74845 0.0
C453 C 0.12806 0.61958 0.71097 0.0
C454 C 0.11122 0.62846 0.78693 0.0
C455 C 0.14434 0.68879 0.81167 0.0
N456 N 0.12344 0.62372 0.73527 0.0
N457 N 0.14994 0.68444 0.78738 0.0
H458 H 0.34873 0.21056 0.68908 0.0
H459 H 0.36319 0.14008 0.8271 0.0
H460 H 0.35215 0.09289 0.71038 0.0
H461 H 0.35893 0.25788 0.80575 0.0
H462 H 0.35979 0.12198 0.78428 0.0
H463 H 0.35824 0.22883 0.73157 0.0
C464 C 0.35301 0.18867 0.70258 0.0
C465 C 0.34984 0.15026 0.69635 0.0
C466 C 0.35929 0.1518 0.78901 0.0
C467 C 0.35893 0.1706 0.74487 0.0
C468 C 0.36057 0.16205 0.81347 0.0
C469 C 0.36135 0.20049 0.81998 0.0
C470 C 0.35877 0.18022 0.77103 0.0
C471 C 0.35857 0.22787 0.80151 0.0
C472 C 0.35766 0.19899 0.72688 0.0
C473 C 0.35456 0.12287 0.71456 0.0
N474 N 0.35767 0.21723 0.77791 0.0
N475 N 0.35838 0.13353 0.73804 0.0
H476 H 0.851 0.28336 0.82876 0.0
H477 H 0.8558 0.38599 0.69905 0.0
H478 H 0.88587 0.40019 0.81903 0.0
H479 H 0.80308 0.2769 0.7123 0.0
H480 H 0.86538 0.39348 0.74286 0.0
H481 H 0.83638 0.27973 0.7854 0.0
C482 C 0.8567 0.30786 0.81737 0.0
C483 C 0.86998 0.34201 0.82747 0.0
C484 C 0.85088 0.36829 0.73623 0.0
C485 C 0.85202 0.33861 0.77802 0.0
C486 C 0.84463 0.36447 0.71125 0.0
C487 C 0.82834 0.33094 0.70209 0.0
C488 C 0.84106 0.33819 0.75197 0.0
C489 C 0.81551 0.30333 0.71869 0.0
C490 C 0.84763 0.30607 0.7927 0.0
C491 C 0.87586 0.37323 0.81193 0.0
N492 N 0.82271 0.30724 0.74273 0.0
N493 N 0.86671 0.37086 0.78805 0.0
H494 H 0.60101 0.85597 0.69525 0.0
H495 H 0.67353 0.75054 0.81472 0.0
H496 H 0.68381 0.76718 0.69461 0.0
H497 H 0.60988 0.85402 0.81687 0.0
H498 H 0.67642 0.75513 0.7706 0.0
H499 H 0.59857 0.8519 0.73971 0.0
C500 C 0.61741 0.83452 0.70446 0.0
C501 C 0.64193 0.81119 0.69137 0.0
C502 C 0.66247 0.77734 0.78066 0.0
C503 C 0.64082 0.80761 0.74197 0.0
C504 C 0.66145 0.77506 0.80586 0.0
C505 C 0.64218 0.80239 0.81938 0.0
C506 C 0.64333 0.80676 0.76883 0.0
C507 C 0.62584 0.83293 0.80706 0.0
C508 C 0.61671 0.83279 0.7298 0.0
C509 C 0.6639 0.785 0.70411 0.0
N510 N 0.6263 0.83405 0.78239 0.0
N511 N 0.66297 0.78402 0.72869 0.0
H512 H 0.93091 0.59373 0.1042 0.0
H513 H 0.06515 0.41117 0.10594 0.0
H514 H 0.88868 0.47812 0.10273 0.0
H515 H 0.10702 0.52671 0.10117 0.0
H516 H 0.00019 0.43489 0.10274 0.0
H517 H 0.99571 0.56969 0.10109 0.0
C518 C 0.93515 0.56339 0.103 0.0
C519 C 0.90412 0.53804 0.10389 0.0
C520 C 0.02367 0.45499 0.10222 0.0
C521 C 0.97836 0.51019 0.10053 0.0
C522 C 0.0608 0.44141 0.10399 0.0
C523 C 0.09177 0.46687 0.10401 0.0
C524 C 0.0174 0.49434 0.10055 0.0
C525 C 0.08419 0.50586 0.10145 0.0
C526 C 0.97219 0.54962 0.10128 0.0
C527 C 0.91156 0.4989 0.10228 0.0
N528 N 0.04795 0.51833 0.1 0.0
N529 N 0.94776 0.48626 0.10086 0.0
H530 H 0.46889 0.89334 0.0751 0.0
H531 H 0.52601 0.11229 0.07606 0.0
H532 H 0.38866 0.97938 0.09513 0.0
H533 H 0.60592 0.02572 0.09572 0.0
H534 H 0.47566 0.064 0.07459 0.0
H535 H 0.51921 0.94169 0.07417 0.0
C536 C 0.46163 0.9225 0.07897 0.0
C537 C 0.42422 0.93223 0.08512 0.0
C538 C 0.50424 0.05557 0.07909 0.0
C539 C 0.48215 0.98784 0.08396 0.0
C540 C 0.53319 0.08303 0.07975 0.0
C541 C 0.57052 0.07312 0.08595 0.0
C542 C 0.51257 0.01759 0.08415 0.0
C543 C 0.57769 0.03471 0.09084 0.0
C544 C 0.49056 0.95 0.07862 0.0
C545 C 0.41695 0.97052 0.09026 0.0
N546 N 0.54906 0.00831 0.08967 0.0
N547 N 0.44558 -0.00304 0.08941 0.0
H548 H 0.89003 0.47465 0.9436 0.0
H549 H 0.10894 0.53191 0.94238 0.0
H550 H 0.97626 0.39422 0.92429 0.0
H551 H 0.02247 0.61176 0.92249 0.0
H552 H 0.06066 0.48154 0.94424 0.0
H553 H 0.93832 0.52507 0.94438 0.0
C554 C 0.91921 0.46737 0.93986 0.0
C555 C 0.929 0.42987 0.93394 0.0
C556 C 0.05225 0.51012 0.93961 0.0
C557 C 0.98456 0.48792 0.93494 0.0
C558 C 0.07971 0.53908 0.93872 0.0
C559 C 0.06984 0.5764 0.93233 0.0
C560 C 0.01429 0.51841 0.93459 0.0
C561 C 0.03145 0.58355 0.92751 0.0
C562 C 0.94668 0.49636 0.94012 0.0
C563 C 0.96733 0.42257 0.92897 0.0
N564 N 0.00506 0.5549 0.92889 0.0
N565 N 0.99373 0.45126 0.92973 0.0
H566 H 0.5909 0.93591 0.90916 0.0
H567 H 0.40863 0.07053 0.91021 0.0
H568 H 0.47534 0.89397 0.91185 0.0
H569 H 0.52418 0.11246 0.91294 0.0
H570 H 0.43243 0.00552 0.91293 0.0
H571 H 0.56713 0.00086 0.91262 0.0
C572 C 0.56064 0.94024 0.91069 0.0
C573 C 0.53521 0.90926 0.91004 0.0
C574 C 0.45253 0.02902 0.91311 0.0
C575 C 0.50767 0.98362 0.91382 0.0
C576 C 0.4389 0.06618 0.91162 0.0
C577 C 0.46432 0.09719 0.91117 0.0
C578 C 0.49189 0.02273 0.91409 0.0
C579 C 0.50336 0.0896 0.91303 0.0
C580 C 0.54702 0.97736 0.91262 0.0
C581 C 0.49618 0.9168 0.91208 0.0
N582 N 0.51587 0.05331 0.91423 0.0
N583 N 0.48368 0.95306 0.91371 0.0
H584 H 0.58939 0.98239 0.58517 0.0
H585 H 0.36335 0.98425 0.59088 0.0
H586 H 0.52175 0.88212 0.60067 0.0
H587 H 0.43389 0.08485 0.59767 0.0
H588 H 0.42016 0.94614 0.58641 0.0
H589 H 0.53178 0.01902 0.58145 0.0
C590 C 0.56239 0.96785 0.5876 0.0
C591 C 0.56057 0.92901 0.5936 0.0
C592 C 0.42317 0.97657 0.58868 0.0
C593 C 0.49415 0.97132 0.58929 0.0
C594 C 0.39074 -0.00148 0.59114 0.0
C595 C 0.39373 0.03799 0.59486 0.0
C596 C 0.45901 0.99411 0.5897 0.0
C597 C 0.43012 0.05461 0.59497 0.0
C598 C 0.52946 0.98897 0.58551 0.0
C599 C 0.52459 0.91194 0.59616 0.0
N600 N 0.46132 0.03256 0.59253 0.0
N601 N 0.49275 0.9333 0.59417 0.0
H602 H 0.07305 0.55734 0.55599 0.0
H603 H 0.92809 0.43426 0.63464 0.0
H604 H 0.08354 0.54848 0.6336 0.0
H605 H 0.96335 0.39674 0.5639 0.0
H606 H 0.97605 0.48553 0.63262 0.0
H607 H 0.02578 0.50546 0.55674 0.0
C608 C 0.06598 0.54393 0.57312 0.0
C609 C 0.08272 0.55684 0.59472 0.0
C610 C 0.9729 0.46629 0.61745 0.0
C611 C 0.02732 0.49889 0.59581 0.0
C612 C 0.94516 0.43746 0.61842 0.0
C613 C 0.9415 0.4114 0.59932 0.0
C614 C -0.00342 0.46959 0.59703 0.0
C615 C 0.96508 0.41635 0.57896 0.0
C616 C 0.03882 0.51459 0.57354 0.0
C617 C 0.07193 0.53892 0.61648 0.0
N618 N 0.99148 0.44491 0.57829 0.0
N619 N 0.04449 0.51128 0.61652 0.0
H620 H 0.38024 -0.00085 0.42582 0.0
H621 H 0.6047 0.01584 0.43774 0.0
H622 H 0.4527 0.90234 0.41623 0.0
H623 H 0.53594 0.10909 0.41352 0.0
H624 H 0.54839 0.97486 0.43828 0.0
H625 H 0.43614 0.03986 0.42975 0.0
C626 C 0.40789 0.98618 0.42483 0.0
C627 C 0.41155 0.94695 0.4206 0.0
C628 C 0.54561 0.00434 0.43303 0.0
C629 C 0.47603 0.9941 0.42521 0.0
C630 C 0.57769 0.028 0.43288 0.0
C631 C 0.57522 0.06625 0.42557 0.0
C632 C 0.51044 0.01896 0.42623 0.0
C633 C 0.53931 0.07994 0.41929 0.0
C634 C 0.43982 0.0097 0.42693 0.0
C635 C 0.44838 0.93229 0.41943 0.0
N636 N 0.50833 0.05634 0.41982 0.0
N637 N 0.4792 0.95587 0.42176 0.0
H638 H 0.09132 0.43923 0.42279 0.0
H639 H 0.88297 0.52055 0.41358 0.0
H640 H 0.99174 0.36649 0.4243 0.0
H641 H 0.97818 0.58728 0.43951 0.0
H642 H 0.92172 0.46335 0.41723 0.0
H643 H 0.05028 0.49427 0.42835 0.0
C644 C 0.06099 0.43474 0.42457 0.0
C645 C 0.04511 0.39811 0.42296 0.0
C646 C 0.93384 0.49054 0.42242 0.0
C647 C -0.00209 0.46094 0.4289 0.0
C648 C 0.91165 0.52316 0.42044 0.0
C649 C 0.92735 0.55892 0.42594 0.0
C650 C 0.97203 0.49387 0.42965 0.0
C651 C 0.96486 0.56047 0.4347 0.0
C652 C 0.03755 0.46614 0.42775 0.0
C653 C 0.00544 0.39411 0.42537 0.0
N654 N 0.98601 0.52861 0.43591 0.0
N655 N 0.98325 0.4251 0.42789 0.0
H656 H 0.37158 0.37068 0.15434 0.0
H657 H 0.51958 0.2574 0.07284 0.0
H658 H 0.36447 0.36394 0.07631 0.0
H659 H 0.51929 0.25647 0.15113 0.0
H660 H 0.4643 0.29847 0.07347 0.0
H661 H 0.42803 0.33161 0.15317 0.0
C662 C 0.38199 0.36118 0.13693 0.0
C663 C 0.36316 0.37052 0.11539 0.0
C664 C 0.47633 0.28919 0.0905 0.0
C665 C 0.42773 0.32554 0.11396 0.0
C666 C 0.50784 0.26568 0.09016 0.0
C667 C 0.52408 0.25341 0.11197 0.0
C668 C 0.46106 0.30058 0.11279 0.0
C669 C 0.50771 0.26514 0.13386 0.0
C670 C 0.41419 0.33875 0.13629 0.0
C671 C 0.37803 0.35739 0.09337 0.0
N672 N 0.47715 0.28812 0.1337 0.0
N673 N 0.40941 0.33545 0.09323 0.0
H674 H 0.79666 0.4566 0.18465 0.0
H675 H 0.63525 0.29956 0.18398 0.0
H676 H 0.67691 0.47923 0.17952 0.0
H677 H 0.75254 0.28334 0.16476 0.0
H678 H 0.65219 0.36172 0.20099 0.0
H679 H 0.78165 0.39157 0.19688 0.0
C680 C 0.76716 0.44821 0.18675 0.0
C681 C 0.73796 0.47287 0.18015 0.0
C682 C 0.67436 0.34396 0.19377 0.0
C683 C 0.72074 0.39849 0.19385 0.0
C684 C 0.66478 0.30846 0.18415 0.0
C685 C 0.69247 0.28691 0.1724 0.0
C686 C 0.71185 0.35753 0.19173 0.0
C687 C 0.73025 0.29961 0.17316 0.0
C688 C 0.75865 0.41107 0.19375 0.0
C689 C 0.70031 0.46082 0.18386 0.0
N690 N 0.73876 0.33442 0.18226 0.0
N691 N 0.69272 0.42404 0.18982 0.0
H692 H 0.63337 0.64387 0.0746 0.0
H693 H 0.47484 0.74983 0.15175 0.0
H694 H 0.62529 0.63911 0.15268 0.0
H695 H 0.47711 0.74853 0.07348 0.0
H696 H 0.53072 0.70998 0.15226 0.0
H697 H 0.57634 0.68239 0.07365 0.0
C698 C 0.61953 0.65074 0.09154 0.0
C699 C 0.6342 0.63831 0.11377 0.0
C700 C 0.51902 0.71841 0.13496 0.0
C701 C 0.56911 0.68253 0.11278 0.0
C702 C 0.48715 0.74128 0.13465 0.0
C703 C 0.47128 0.75259 0.11253 0.0
C704 C 0.53524 0.70678 0.11301 0.0
C705 C 0.48843 0.74053 0.09095 0.0
C706 C 0.587 0.67278 0.09097 0.0
C707 C 0.61506 0.64809 0.13512 0.0
N708 N 0.51953 0.71825 0.09174 0.0
N709 N 0.58358 0.66974 0.13409 0.0
H710 H 0.19666 0.55048 0.18427 0.0
H711 H 0.35708 0.70834 0.18494 0.0
H712 H 0.31675 0.52871 0.18099 0.0
H713 H 0.24066 0.72342 0.16344 0.0
H714 H 0.33965 0.64655 0.20244 0.0
H715 H 0.21071 0.61567 0.19645 0.0
C716 C 0.226 0.55909 0.18677 0.0
C717 C 0.25564 0.53463 0.18067 0.0
C718 C 0.31774 0.66401 0.19462 0.0
C719 C 0.27177 0.60917 0.19434 0.0
C720 C 0.32759 0.69931 0.18472 0.0
C721 C 0.30037 0.72036 0.17217 0.0
C722 C 0.28044 0.65016 0.19205 0.0
C723 C 0.26262 0.70751 0.17246 0.0
C724 C 0.23397 0.59631 0.19374 0.0
C725 C 0.29305 0.54696 0.18491 0.0
N726 N 0.25387 0.67288 0.18184 0.0
N727 N 0.30013 0.58381 0.19084 0.0
H728 H 0.29425 0.64256 0.83223 0.0
H729 H 0.45266 0.80268 0.82953 0.0
H730 H 0.2802 0.75965 0.85283 0.0
H731 H 0.47429 0.6826 0.83462 0.0
H732 H 0.38719 0.78826 0.81829 0.0
H733 H 0.3559 0.65924 0.81435 0.0
C734 C 0.30352 0.67201 0.83223 0.0
C735 C 0.28273 0.69967 0.84458 0.0
C736 C 0.40656 0.76506 0.82117 0.0
C737 C 0.35275 0.71875 0.8242 0.0
C738 C 0.44395 0.77323 0.82759 0.0
C739 C 0.46848 0.74377 0.83396 0.0
C740 C 0.39364 0.72724 0.82136 0.0
C741 C 0.45601 0.70619 0.83047 0.0
C742 C 0.33871 0.68143 0.82209 0.0
C743 C 0.29588 0.73735 0.84398 0.0
N744 N 0.41902 0.69894 0.82506 0.0
N745 N 0.33039 0.7457 0.83434 0.0
H746 H 0.25355 0.52466 0.94316 0.0
H747 H 0.36298 0.37511 0.86061 0.0
H748 H 0.25038 0.52448 0.8649 0.0
H749 H 0.36039 0.37006 0.93881 0.0
H750 H 0.32367 0.43146 0.86199 0.0
H751 H 0.29398 0.46895 0.94206 0.0
C752 C 0.2612 0.51284 0.92574 0.0
C753 C 0.24852 0.52928 0.90408 0.0
C754 C 0.33176 0.41808 0.87886 0.0
C755 C 0.29497 0.46569 0.90272 0.0
C756 C 0.35433 0.38594 0.87809 0.0
C757 C 0.36496 0.36775 0.89963 0.0
C758 C 0.31973 0.4322 0.90132 0.0
C759 C 0.35286 0.38312 0.92175 0.0
C760 C 0.28435 0.48107 0.92514 0.0
C761 C 0.25942 0.51277 0.88206 0.0
N762 N 0.33081 0.41443 0.92201 0.0
N763 N 0.28208 0.48193 0.88196 0.0
H764 H 0.70607 0.36523 0.83427 0.0
H765 H 0.54772 0.20495 0.83109 0.0
H766 H 0.72042 0.24776 0.85404 0.0
H767 H 0.52596 0.32492 0.83684 0.0
H768 H 0.61322 0.21965 0.81993 0.0
H769 H 0.64431 0.34883 0.81654 0.0
C770 C 0.69687 0.33576 0.83407 0.0
C771 C 0.71775 0.30788 0.84616 0.0
C772 C 0.59382 0.24278 0.82296 0.0
C773 C 0.64761 0.28912 0.82599 0.0
C774 C 0.55642 0.23445 0.82934 0.0
C775 C 0.5318 0.26377 0.83581 0.0
C776 C 0.6067 0.28061 0.8233 0.0
C777 C 0.54429 0.30142 0.83258 0.0
C778 C 0.6616 0.3265 0.82404 0.0
C779 C 0.70467 0.27019 0.84536 0.0
N780 N 0.58129 0.30881 0.82719 0.0
N781 N 0.6701 0.26199 0.83583 0.0
H782 H 0.74433 0.48179 0.94473 0.0
H783 H 0.63518 0.62981 0.8607 0.0
H784 H 0.74921 0.4816 0.8665 0.0
H785 H 0.6373 0.6362 0.93886 0.0
H786 H 0.67445 0.57344 0.86266 0.0
H787 H 0.70333 0.53706 0.94308 0.0
C788 C 0.73694 0.49343 0.92721 0.0
C789 C 0.7503 0.47704 0.90571 0.0
C790 C 0.66625 0.58712 0.87938 0.0
C791 C 0.70317 0.54011 0.90372 0.0
C792 C 0.6437 0.61926 0.87829 0.0
C793 C 0.633 0.63787 0.89965 0.0
C794 C 0.6782 0.57342 0.90199 0.0
C795 C 0.64492 0.62284 0.92192 0.0
C796 C 0.71346 0.52495 0.92629 0.0
C797 C 0.73968 0.49331 0.88354 0.0
N798 N 0.66697 0.59154 0.9225 0.0
N799 N 0.71669 0.52389 0.88313 0.0
H800 H 0.80684 0.77135 0.5769 0.0
H801 H 0.9857 0.71768 0.65703 0.0
H802 H 0.81394 0.78899 0.65423 0.0
H803 H 0.9788 0.69934 0.57976 0.0
H804 H 0.91908 0.73516 0.65724 0.0
H805 H 0.8658 0.736 0.57853 0.0
C806 C 0.8206 0.76751 0.59426 0.0
C807 C 0.80588 0.78381 0.61539 0.0
C808 C 0.93204 0.72697 0.64027 0.0
C809 C 0.87331 0.74355 0.61735 0.0
C810 C 0.97013 0.71708 0.64013 0.0
C811 C 0.98801 0.70769 0.61827 0.0
C812 C 0.91182 0.72774 0.61839 0.0
C813 C 0.96628 0.70685 0.59699 0.0
C814 C 0.85423 0.74728 0.59517 0.0
C815 C 0.82458 0.77744 0.63742 0.0
N816 N 0.92939 0.71721 0.59754 0.0
N817 N 0.85761 0.75819 0.63777 0.0
H818 H 0.18072 0.00346 0.68146 0.0
H819 H 0.22534 0.7863 0.66311 0.0
H820 H 0.28955 0.95677 0.66339 0.0
H821 H 0.11208 0.82972 0.66951 0.0
H822 H 0.25065 0.8463 0.67846 0.0
H823 H 0.15741 0.93921 0.69144 0.0
C824 C 0.2 0.97981 0.68039 0.0
C825 C 0.23678 0.98496 0.67117 0.0
C826 C 0.22018 0.84262 0.67703 0.0
C827 C 0.21061 0.91209 0.6824 0.0
C828 C 0.20581 0.80836 0.66832 0.0
C829 C 0.16678 0.80366 0.66469 0.0
C830 C 0.19539 0.87279 0.68131 0.0
C831 C 0.14245 0.83266 0.67193 0.0
C832 C 0.1867 0.94323 0.68597 0.0
C833 C 0.26075 0.95368 0.67002 0.0
N834 N 0.15724 0.86659 0.67931 0.0
N835 N 0.2471 0.91851 0.67524 0.0
H836 H 0.02777 0.32189 0.65225 0.0
H837 H 0.15682 0.15266 0.69328 0.0
H838 H 0.98699 0.22248 0.69053 0.0
H839 H 0.18011 0.23292 0.63588 0.0
H840 H 0.10455 0.19275 0.70707 0.0
H841 H 0.09255 0.30531 0.66293 0.0
C842 C 0.03241 0.29708 0.66344 0.0
C843 C 0.00231 0.27252 0.66961 0.0
C844 C 0.12183 0.20199 0.69188 0.0
C845 C 0.07603 0.25319 0.68146 0.0
C846 C 0.15143 0.17915 0.68397 0.0
C847 C 0.17168 0.18911 0.66298 0.0
C848 C 0.11313 0.23498 0.67881 0.0
C849 C 0.16421 0.22379 0.65169 0.0
C850 C 0.06934 0.28769 0.66957 0.0
C851 C 0.00964 0.24151 0.68479 0.0
N852 N 0.13518 0.24529 0.65958 0.0
N853 N 0.04604 0.23197 0.6896 0.0
H854 H 0.76691 0.16431 0.62893 0.0
H855 H 0.79317 0.95505 0.66638 0.0
H856 H 0.86568 0.13401 0.67045 0.0
H857 H 0.68246 0.00599 0.66363 0.0
H858 H 0.82175 0.01861 0.66963 0.0
H859 H 0.73638 0.1047 0.64107 0.0
C860 C 0.7821 0.14506 0.64066 0.0
C861 C 0.81889 0.15379 0.64856 0.0
C862 C 0.79115 0.01566 0.66898 0.0
C863 C 0.78431 0.0856 0.66243 0.0
C864 C 0.77479 0.97943 0.66721 0.0
C865 C 0.73544 0.9753 0.66402 0.0
C866 C 0.76792 0.04761 0.66721 0.0
C867 C 0.71301 0.00788 0.6654 0.0
C868 C 0.76456 0.11128 0.6478 0.0
C869 C 0.83724 0.12813 0.66397 0.0
N870 N 0.72963 0.04274 0.66625 0.0
N871 N 0.81999 0.0947 0.67009 0.0
H872 H 0.80169 0.24164 0.36526 0.0
H873 H 0.01056 0.20166 0.3266 0.0
H874 H 0.83817 0.13364 0.33761 0.0
H875 H 0.96924 0.3094 0.35154 0.0
H876 H 0.9451 0.18149 0.31806 0.0
H877 H 0.85844 0.27154 0.3484 0.0
C878 C 0.82162 0.22433 0.35538 0.0
C879 C 0.81601 0.18507 0.35337 0.0
C880 C 0.95044 0.21001 0.32463 0.0
C881 C 0.8815 0.21877 0.33449 0.0
C882 C 0.98778 0.22157 0.32933 0.0
C883 C 0.99481 0.25677 0.34032 0.0
C884 C 0.92046 0.23396 0.33112 0.0
C885 C 0.96463 0.28164 0.34356 0.0
C886 C 0.85395 0.24138 0.34562 0.0
C887 C 0.842 0.16398 0.33986 0.0
N888 N 0.92865 0.26949 0.33943 0.0
N889 N 0.87428 0.18095 0.33145 0.0
H890 H 0.762 -0.00091 0.34491 0.0
H891 H 0.76198 0.80181 0.41307 0.0
H892 H 0.68461 0.96834 0.40258 0.0
H893 H 0.82603 0.82207 0.34749 0.0
H894 H 0.72774 0.8603 0.40603 0.0
H895 H 0.77989 0.93227 0.34147 0.0
C896 C 0.74824 0.97819 0.35648 0.0
C897 C 0.72257 0.98925 0.37448 0.0
C898 C 0.74896 0.85185 0.39298 0.0
C899 C 0.74291 0.91333 0.37079 0.0
C900 C 0.76865 0.81854 0.39709 0.0
C901 C 0.79729 0.80754 0.38107 0.0
C902 C 0.75849 0.87476 0.37295 0.0
C903 C 0.80434 0.82983 0.36041 0.0
C904 C 0.75848 0.94012 0.35456 0.0
C905 C 0.70532 0.96112 0.38889 0.0
N906 N 0.7855 0.86284 0.35714 0.0
N907 N 0.71621 0.92456 0.38696 0.0
H908 H 0.14935 0.84792 0.33843 0.0
H909 H 0.01859 0.66551 0.36167 0.0
H910 H 0.17277 0.75958 0.3904 0.0
H911 H 0.97301 0.77374 0.34019 0.0
H912 H 0.08245 0.6921 0.35785 0.0
H913 H 0.09134 0.81345 0.32649 0.0
C914 C 0.14251 0.82106 0.34708 0.0
C915 C 0.16543 0.80673 0.36567 0.0
C916 C 0.05843 0.70972 0.35347 0.0
C917 C 0.10019 0.76713 0.35172 0.0
C918 C 0.02196 0.6946 0.35554 0.0
C919 C 0.99039 0.71784 0.35199 0.0
C920 C 0.06331 0.7482 0.34766 0.0
C921 C -0.00344 0.75505 0.34358 0.0
C922 C 0.10958 0.80151 0.34024 0.0
C923 C 0.15548 0.77185 0.37628 0.0
N924 N 0.03246 0.76941 0.34215 0.0
N925 N 0.12351 0.75324 0.36917 0.0
H926 H 0.32088 0.02334 0.3563 0.0
H927 H 0.14879 0.15603 0.32384 0.0
H928 H 0.21448 0.98177 0.32758 0.0
H929 H 0.23673 0.17875 0.3763 0.0
H930 H 0.18408 0.10032 0.30993 0.0
H931 H 0.30245 0.08794 0.3462 0.0
C932 C 0.29406 0.02779 0.34722 0.0
C933 C 0.26849 -0.00242 0.34353 0.0
C934 C 0.19597 0.11815 0.32405 0.0
C935 C 0.24704 0.07109 0.33249 0.0
C936 C 0.17592 0.14972 0.33201 0.0
C937 C 0.18961 0.17111 0.35161 0.0
C938 C 0.23007 0.10873 0.33556 0.0
C939 C 0.22488 0.16224 0.36153 0.0
C940 C 0.28357 0.0646 0.34148 0.0
C941 C 0.23458 0.00456 0.33117 0.0
N942 N 0.24376 0.13148 0.35353 0.0
N943 N 0.22421 0.04094 0.32671 0.0
H944 H 0.24213 0.2859 0.07823 0.0
H945 H 0.28202 0.24701 0.93724 0.0
H946 H 0.20834 0.36185 0.02117 0.0
H947 H 0.35767 0.21316 0.99434 0.0
H948 H 0.2384 0.27223 0.96795 0.0
H949 H 0.26768 0.24254 0.04751 0.0
C950 C 0.2387 0.29272 0.05922 0.0
C951 C 0.2229 0.32744 0.05223 0.0
C952 C 0.26405 0.25828 0.97375 0.0
C953 C 0.25224 0.27818 0.01705 0.0
C954 C 0.28871 0.24349 0.95626 0.0
C955 C 0.32341 0.22777 0.96327 0.0
C956 C 0.27387 0.25673 0.99842 0.0
C957 C 0.33112 0.22489 0.98818 0.0
C958 C 0.25368 0.2682 0.04172 0.0
C959 C 0.22014 0.3353 0.02732 0.0
N960 N 0.30672 0.23938 1.00482 0.0
N961 N 0.23481 0.31103 0.01066 0.0
H962 H 0.79946 0.19143 0.93885 0.0
H963 H 0.8098 0.19996 0.08238 0.0
H964 H 0.87715 0.26425 0.97782 0.0
H965 H 0.73549 0.12378 0.04336 0.0
H966 H 0.844 0.21384 0.04478 0.0
H967 H 0.78545 0.15707 0.97638 0.0
C968 C 0.81464 0.19938 0.95516 0.0
C969 C 0.83965 0.23086 0.95504 0.0
C970 C 0.82089 0.1933 0.04444 0.0
C971 C 0.82261 0.19216 0.99861 0.0
C972 C 0.80153 0.185 0.06604 0.0
C973 C 0.76968 0.16049 0.06617 0.0
C974 C 0.80811 0.17749 0.02252 0.0
C975 C 0.76007 0.14245 0.04429 0.0
C976 C 0.80631 0.1799 0.97671 0.0
C977 C 0.85804 0.23999 0.97689 0.0
N978 N 0.77865 0.15189 0.02333 0.0
N979 N 0.8486 0.22129 0.99781 0.0
H980 H 0.71686 0.75992 0.93638 0.0
H981 H 0.75553 0.72067 0.07749 0.0
H982 H 0.64049 0.7931 0.9933 0.0
H983 H 0.79063 0.64531 0.02054 0.0
H984 H 0.73003 0.76399 0.04668 0.0
H985 H 0.76035 0.73484 0.9672 0.0
C986 C 0.70997 0.76332 0.95538 0.0
C987 C 0.67511 0.77881 0.96231 0.0
C988 C 0.74431 0.73849 0.04094 0.0
C989 C 0.72451 0.75002 0.99758 0.0
C990 C 0.75927 0.714 0.05849 0.0
C991 C 0.77542 0.67944 0.05155 0.0
C992 C 0.74612 0.72865 0.01628 0.0
C993 C 0.77856 0.67175 0.02665 0.0
C994 C 0.73456 0.74861 0.97293 0.0
C995 C 0.66715 0.78154 0.9872 0.0
N996 N 0.76389 0.69599 0.00994 0.0
N997 N 0.6915 0.76714 1.00391 0.0
H998 H 0.11743 0.74108 0.97413 0.0
H999 H 0.25952 0.884 0.04238 0.0
H1000 H 0.19879 0.81385 0.93794 0.0
H1001 H 0.18743 0.80203 0.07857 0.0
H1002 H 0.22576 0.87077 1.00438 0.0
H1003 H 0.13057 0.77482 0.01216 0.0
C1004 C 0.13687 0.76514 0.97391 0.0
C1005 C 0.157 0.77454 0.9527 0.0
C1006 C 0.2166 0.8564 0.02077 0.0
C1007 C 0.17312 0.81276 0.99648 0.0
C1008 C 0.23557 0.86443 0.04261 0.0
C1009 C 0.22638 0.84415 0.06381 0.0
C1010 C 0.18817 0.8279 0.02006 0.0
C1011 C 0.19556 0.81836 0.06271 0.0
C1012 C 0.14484 0.78411 0.99576 0.0
C1013 C 0.18259 0.80553 0.95381 0.0
N1014 N 0.17804 0.8106 0.04125 0.0
N1015 N 0.19029 0.82305 0.97528 0.0
H1016 H 0.7197 0.68723 0.43472 0.0
H1017 H 0.68213 0.72204 0.57588 0.0
H1018 H 0.79404 0.65043 0.49168 0.0
H1019 H 0.64315 0.79532 0.51883 0.0
H1020 H 0.70463 0.67714 0.54516 0.0
H1021 H 0.67378 0.70764 0.46546 0.0
C1022 C 0.72548 0.68171 0.45367 0.0
C1023 C 0.76042 0.66666 0.46072 0.0
C1024 C 0.68991 0.7024 0.5394 0.0
C1025 C 0.7086 0.69068 0.49593 0.0
C1026 C 0.67657 0.72775 0.55693 0.0
C1027 C 0.66048 0.76227 0.54986 0.0
C1028 C 0.68674 0.71153 0.51468 0.0
C1029 C 0.65511 0.76885 0.52501 0.0
C1030 C 0.69953 0.69383 0.4712 0.0
C1031 C 0.76716 0.66141 0.48554 0.0
N1032 N 0.66855 0.74397 0.50832 0.0
N1033 N 0.7417 0.67373 0.50226 0.0
H1034 H 0.28495 0.72752 0.58158 0.0
H1035 H 0.27189 0.72844 0.43896 0.0
H1036 H 0.22175 0.64353 0.54133 0.0
H1037 H 0.34936 0.80039 0.47856 0.0
H1038 H 0.26215 0.68966 0.47535 0.0
H1039 H 0.31803 0.74646 0.54441 0.0
C1040 C 0.27932 0.71183 0.56508 0.0
C1041 C 0.25095 0.68343 0.5647 0.0
C1042 C 0.28218 0.7132 0.47602 0.0
C1043 C 0.28732 0.70648 0.52153 0.0
C1044 C 0.28806 0.73514 0.45512 0.0
C1045 C 0.31206 0.76727 0.45558 0.0
C1046 C 0.29959 0.72399 0.4979 0.0
C1047 C 0.33129 0.77539 0.47725 0.0
C1048 C 0.29786 0.72305 0.54372 0.0
C1049 C 0.24395 0.66496 0.5426 0.0
N1050 N 0.32414 0.75436 0.49762 0.0
N1051 N 0.26134 0.67734 0.52185 0.0
H1052 H 0.19523 0.33578 0.47641 0.0
H1053 H 0.33493 0.18925 0.5409 0.0
H1054 H 0.25853 0.2501 0.43894 0.0
H1055 H 0.24793 0.25163 0.57774 0.0
H1056 H 0.32298 0.22678 0.5041 0.0
H1057 H 0.23013 0.3208 0.51374 0.0
C1058 C 0.21759 0.31499 0.4758 0.0
C1059 C 0.22408 0.29419 0.45459 0.0
C1060 C 0.30729 0.23303 0.52046 0.0
C1061 C 0.26349 0.27627 0.49721 0.0
C1062 C 0.31448 0.21192 0.54153 0.0
C1063 C 0.29247 0.21747 0.56237 0.0
C1064 C 0.27801 0.2599 0.52033 0.0
C1065 C 0.26559 0.24658 0.56203 0.0
C1066 C 0.23718 0.30607 0.49716 0.0
C1067 C 0.25275 0.26683 0.45494 0.0
N1068 N 0.25882 0.26637 0.54132 0.0
N1069 N 0.27103 0.25836 0.47592 0.0
H1070 H 0.79575 0.34925 0.54243 0.0
H1071 H 0.64558 0.21147 0.47682 0.0
H1072 H 0.73038 0.26208 0.57866 0.0
H1073 H 0.72819 0.28097 0.43936 0.0
H1074 H 0.66196 0.24423 0.51475 0.0
H1075 H 0.75741 0.33899 0.50575 0.0
C1076 C 0.7722 0.32922 0.54302 0.0
C1077 C 0.7659 0.30686 0.56373 0.0
C1078 C 0.67565 0.2532 0.49809 0.0
C1079 C 0.72265 0.29396 0.5216 0.0
C1080 C 0.66579 0.2349 0.47633 0.0
C1081 C 0.68528 0.24372 0.45482 0.0
C1082 C 0.70521 0.28054 0.49833 0.0
C1083 C 0.71222 0.27351 0.45549 0.0
C1084 C 0.75064 0.32292 0.52196 0.0
C1085 C 0.73583 0.28027 0.56317 0.0
N1086 N 0.72174 0.29042 0.47686 0.0
N1087 N 0.71568 0.27427 0.54245 0.0
H1088 H 0.3096 0.63595 0.96003 0.0
H1089 H 0.25547 0.58393 0.09351 0.0
H1090 H 0.22673 0.69235 1.00412 0.0
H1091 H 0.31186 0.51067 0.04257 0.0
H1092 H 0.27118 0.6383 0.06782 0.0
H1093 H 0.33633 0.60737 0.99656 0.0
C1094 C 0.29827 0.64375 0.97756 0.0
C1095 C 0.26543 0.66546 0.97931 0.0
C1096 C 0.28086 0.61042 0.06257 0.0
C1097 C 0.29516 0.63283 0.02071 0.0
C1098 C 0.27164 0.5793 0.0771 0.0
C1099 C 0.2808 0.54249 0.06954 0.0
C1100 C 0.29882 0.60453 0.04023 0.0
C1101 C 0.30299 0.5384 0.04863 0.0
C1102 C 0.31327 0.6272 0.99834 0.0
C1103 C 0.25167 0.67495 1.00224 0.0
N1104 N 0.31045 0.56898 0.03435 0.0
N1105 N 0.26614 0.65788 0.02213 0.0
H1106 H 0.68895 0.22615 0.01321 0.0
H1107 H 0.57947 0.26796 0.91978 0.0
H1108 H 0.63131 0.31122 0.05476 0.0
H1109 H 0.50617 0.30886 0.97649 0.0
H1110 H 0.63434 0.28187 0.94528 0.0
H1111 H 0.66217 0.25207 0.97636 0.0
C1112 C 0.67194 0.25151 0.01431 0.0
C1113 C 0.66157 0.26628 0.03681 0.0
C1114 C 0.60629 0.28783 0.95215 0.0
C1115 C 0.62947 0.29541 0.99502 0.0
C1116 C 0.57493 0.28001 0.93758 0.0
C1117 C 0.53813 0.28549 0.94656 0.0
C1118 C 0.60054 0.30015 0.97604 0.0
C1119 C 0.53397 0.30286 0.9692 0.0
C1120 C 0.65648 0.26646 0.99324 0.0
C1121 C 0.63952 0.29896 0.03758 0.0
N1122 N 0.5648 0.30871 0.98343 0.0
N1123 N 0.62291 0.31162 0.01699 0.0
H1124 H 0.68239 0.49893 0.04281 0.0
H1125 H 0.68556 0.36331 0.96133 0.0
H1126 H 0.73822 0.42353 0.09273 0.0
H1127 H 0.77378 0.31996 1.00725 0.0
H1128 H 0.65562 0.39176 0.99675 0.0
H1129 H 0.66659 0.44519 0.01736 0.0
C1130 C 0.69061 0.47086 0.04869 0.0
C1131 C 0.71327 0.46592 0.06928 0.0
C1132 C 0.6812 0.37559 0.99922 0.0
C1133 C 0.69475 0.40368 0.04035 0.0
C1134 C 0.69786 0.35873 0.97906 0.0
C1135 C 0.73282 0.34076 0.98152 0.0
C1136 C 0.70018 0.37448 0.0216 0.0
C1137 C 0.74734 0.33476 1.00473 0.0
C1138 C 0.68107 0.43982 0.03425 0.0
C1139 C 0.72206 0.42883 0.07643 0.0
N1140 N 0.73136 0.35238 0.0239 0.0
N1141 N 0.71364 0.39922 0.06164 0.0
H1142 H 0.3677 0.6926 0.05576 0.0
H1143 H 0.41884 0.74682 0.92186 0.0
H1144 H 0.31037 0.77508 0.01178 0.0
H1145 H 0.49246 0.68991 0.97237 0.0
H1146 H 0.36491 0.73189 0.94806 0.0
H1147 H 0.3968 0.66655 0.01919 0.0
C1148 C 0.35985 0.70398 0.03824 0.0
C1149 C 0.3376 0.73649 0.03654 0.0
C1150 C 0.39277 0.72195 0.95311 0.0
C1151 C 0.37085 0.70755 0.9951 0.0
C1152 C 0.42364 0.7307 0.93828 0.0
C1153 C 0.46045 0.7211 0.94553 0.0
C1154 C 0.3989 0.70397 0.97544 0.0
C1155 C 0.46474 0.69905 0.96651 0.0
C1156 C 0.3767 0.68939 0.01744 0.0
C1157 C 0.3281 0.75036 0.01363 0.0
N1158 N 0.43441 0.69201 0.98107 0.0
N1159 N 0.34545 0.73628 0.99373 0.0
H1160 H 0.77145 0.13081 0.49584 0.0
H1161 H 0.78784 0.91879 0.53594 0.0
H1162 H 0.80537 0.03905 0.44953 0.0
H1163 H 0.7429 0.00914 0.57985 0.0
H1164 H 0.81763 0.96622 0.50959 0.0
H1165 H 0.78636 0.09193 0.53129 0.0
C1166 C 0.78389 0.10314 0.49322 0.0
C1167 C 0.7869 0.08766 0.47001 0.0
C1168 C 0.80184 0.97566 0.52526 0.0
C1169 C 0.80217 0.04262 0.51002 0.0
C1170 C 0.78462 0.94858 0.54024 0.0
C1171 C 0.76157 0.96006 0.55955 0.0
C1172 C 0.79557 0.01442 0.52949 0.0
C1173 C 0.75933 -0.001 0.56465 0.0
C1174 C 0.79199 0.08076 0.5134 0.0
C1175 C 0.80255 0.05163 0.46732 0.0
N1176 N 0.77541 0.02481 0.5494 0.0
N1177 N 0.80874 0.02984 0.48715 0.0
H1178 H 0.92146 0.77733 0.48372 0.0
H1179 H 0.0678 0.80395 0.56163 0.0
H1180 H 0.00514 0.75612 0.42845 0.0
H1181 H 0.12228 0.73015 0.51043 0.0
H1182 H 0.02486 0.82517 0.52951 0.0
H1183 H 0.97202 0.79915 0.51072 0.0
C1184 C 0.95034 0.77854 0.47701 0.0
C1185 C 0.95943 0.7637 0.45423 0.0
C1186 C 0.04674 0.80498 0.52519 0.0
C1187 C 0.0173 0.78899 0.4847 0.0
C1188 C 0.07156 0.79332 0.54339 0.0
C1189 C 0.09786 0.76476 0.53857 0.0
C1190 C 0.04868 0.78781 0.50227 0.0
C1191 C 0.1018 0.75175 0.51481 0.0
C1192 C 0.97928 0.79129 0.49237 0.0
C1193 C -0.00284 0.76614 0.44626 0.0
N1194 N 0.07704 0.763 0.49759 0.0
N1195 N 0.02483 0.77759 0.46169 0.0
H1196 H 0.21408 0.0005 0.43927 0.0
H1197 H 0.1735 0.09675 0.54 0.0
H1198 H 0.18566 0.89694 0.4774 0.0
H1199 H 0.19431 0.9885 0.57378 0.0
H1200 H 0.15501 0.06365 0.5028 0.0
H1201 H 0.18689 0.03687 0.47202 0.0
C1202 C 0.20122 0.98539 0.45436 0.0
C1203 C 0.20322 0.94572 0.45604 0.0
C1204 C 0.16324 0.04709 0.51841 0.0
C1205 C 0.1714 0.98725 0.49374 0.0
C1206 C 0.17325 0.06599 0.53976 0.0
C1207 C 0.18691 0.04526 0.55954 0.0
C1208 C 0.16755 0.00746 0.51703 0.0
C1209 C 0.18528 0.00552 0.55853 0.0
C1210 C 0.1851 0.00624 0.47303 0.0
C1211 C 0.18538 0.92755 0.47566 0.0
N1212 N 0.17668 0.9879 0.53742 0.0
N1213 N 0.17116 0.94854 0.49411 0.0
H1214 H 0.00162 0.21348 0.57408 0.0
H1215 H -0.00358 0.19132 0.4356 0.0
H1216 H 0.89838 0.19034 0.5346 0.0
H1217 H 0.0999 0.18657 0.47694 0.0
H1218 H 0.96051 0.1737 0.47174 0.0
H1219 H 0.0381 0.1879 0.54051 0.0
C1220 C 0.98661 0.20242 0.55844 0.0
C1221 C 0.94705 0.20508 0.55672 0.0
C1222 C 0.99115 0.17536 0.47286 0.0
C1223 C 0.98861 0.17626 0.51806 0.0
C1224 C 0.01164 0.18537 0.4522 0.0
C1225 C 0.05095 0.19131 0.45358 0.0
C1226 C 0.0101 0.17252 0.49514 0.0
C1227 C 0.06949 0.18276 0.47529 0.0
C1228 C 0.00744 0.18756 0.53932 0.0
C1229 C 0.92893 0.18946 0.5364 0.0
N1230 N 0.04875 0.17492 0.4955 0.0
N1231 N 0.94995 0.1766 0.51754 0.0
loop_
_geom_bond_atom_site_label_1
_geom_bond_atom_site_label_2
_geom_bond_distance
_geom_bond_site_symmetry_2
_ccdc_geom_bond_type
O0 Zn1 1.953 . S
O0 C16 1.225 . S
Zn1 O0 1.953 . S
Zn1 O2 1.949 . S
Zn1 O8 1.919 . S
Zn1 O13 1.924 . S
O2 Zn1 1.949 . S
O2 Zn3 1.923 . S
O2 Zn4 1.950 . S
O2 Zn5 1.945 . S
Zn3 O2 1.923 . S
Zn3 O6 1.933 . S
Zn3 O9 1.941 . S
Zn3 O10 1.965 . S
Zn4 O2 1.950 . S
Zn4 O11 1.938 . S
Zn4 O12 1.906 . S
Zn4 O22 1.953 . S
Zn5 O2 1.945 . S
Zn5 O7 1.932 . S
Zn5 O14 1.977 . S
Zn5 O15 1.910 . S
O6 Zn3 1.933 . S
O6 C17 1.226 . S
O7 Zn5 1.932 . S
O7 C17 1.307 . S
O8 Zn1 1.919 . S
O8 C19 1.253 . S
O9 Zn3 1.941 . S
O9 C19 1.283 . S
O10 Zn3 1.965 . S
O10 C18 1.303 . S
O11 Zn4 1.938 . S
O11 C18 1.247 . S
O12 Zn4 1.906 . S
O12 C20 1.304 . S
O13 Zn1 1.924 . S
O13 C21 1.311 . S
O14 Zn5 1.977 . S
O14 C20 1.272 . S
O15 Zn5 1.910 . S
O15 C21 1.231 . S
C16 O0 1.225 . S
C16 O22 1.298 . S
C17 O6 1.226 . S
C17 O7 1.307 . S
C18 O10 1.303 . S
C18 O11 1.247 . S
C19 O8 1.253 . S
C19 O9 1.283 . S
C20 O12 1.304 . S
C20 O14 1.272 . S
C21 O13 1.311 . S
C21 O15 1.231 . S
O22 Zn4 1.953 . S
O22 C16 1.298 . S
O23 Zn24 1.953 . S
O23 C39 1.225 . S
Zn24 O23 1.953 . S
Zn24 O25 1.949 . S
Zn24 O31 1.919 . S
Zn24 O36 1.924 . S
O25 Zn24 1.949 . S
O25 Zn26 1.923 . S
O25 Zn27 1.950 . S
O25 Zn28 1.945 . S
Zn26 O25 1.923 . S
Zn26 O29 1.933 . S
Zn26 O32 1.941 . S
Zn26 O33 1.965 . S
Zn27 O25 1.950 . S
Zn27 O34 1.938 . S
Zn27 O35 1.906 . S
Zn27 O45 1.953 . S
Zn28 O25 1.945 . S
Zn28 O30 1.932 . S
Zn28 O37 1.977 . S
Zn28 O38 1.910 . S
O29 Zn26 1.933 . S
O29 C40 1.226 . S
O30 Zn28 1.932 . S
O30 C40 1.307 . S
O31 Zn24 1.919 . S
O31 C42 1.253 . S
O32 Zn26 1.941 . S
O32 C42 1.283 . S
O33 Zn26 1.965 . S
O33 C41 1.303 . S
O34 Zn27 1.938 . S
O34 C41 1.247 . S
O35 Zn27 1.906 . S
O35 C43 1.304 . S
O36 Zn24 1.924 . S
O36 C44 1.311 . S
O37 Zn28 1.977 . S
O37 C43 1.272 . S
O38 Zn28 1.910 . S
O38 C44 1.231 . S
C39 O23 1.225 . S
C39 O45 1.298 . S
C40 O29 1.226 . S
C40 O30 1.307 . S
C41 O33 1.303 . S
C41 O34 1.247 . S
C42 O31 1.253 . S
C42 O32 1.283 . S
C43 O35 1.304 . S
C43 O37 1.272 . S
C44 O36 1.311 . S
C44 O38 1.231 . S
O45 Zn27 1.953 . S
O45 C39 1.298 . S
O46 Zn47 1.953 . S
O46 C62 1.225 . S
Zn47 O46 1.953 . S
Zn47 O48 1.949 . S
Zn47 O54 1.919 . S
Zn47 O59 1.924 . S
O48 Zn47 1.949 . S
O48 Zn49 1.923 . S
O48 Zn50 1.950 . S
O48 Zn51 1.945 . S
Zn49 O48 1.923 . S
Zn49 O52 1.933 . S
Zn49 O55 1.941 . S
Zn49 O56 1.965 . S
Zn50 O48 1.950 . S
Zn50 O57 1.938 . S
Zn50 O58 1.906 . S
Zn50 O68 1.953 . S
Zn51 O48 1.945 . S
Zn51 O53 1.932 . S
Zn51 O60 1.977 . S
Zn51 O61 1.910 . S
O52 Zn49 1.933 . S
O52 C63 1.226 . S
O53 Zn51 1.932 . S
O53 C63 1.307 . S
O54 Zn47 1.919 . S
O54 C65 1.253 . S
O55 Zn49 1.941 . S
O55 C65 1.283 . S
O56 Zn49 1.965 . S
O56 C64 1.303 . S
O57 Zn50 1.938 . S
O57 C64 1.247 . S
O58 Zn50 1.906 . S
O58 C66 1.304 . S
O59 Zn47 1.924 . S
O59 C67 1.311 . S
O60 Zn51 1.977 . S
O60 C66 1.272 . S
O61 Zn51 1.910 . S
O61 C67 1.231 . S
C62 O46 1.225 . S
C62 O68 1.298 . S
C63 O52 1.226 . S
C63 O53 1.307 . S
C64 O56 1.303 . S
C64 O57 1.247 . S
C65 O54 1.253 . S
C65 O55 1.283 . S
C66 O58 1.304 . S
C66 O60 1.272 . S
C67 O59 1.311 . S
C67 O61 1.231 . S
O68 Zn50 1.953 . S
O68 C62 1.298 . S
O69 Zn70 1.953 . S
O69 C85 1.225 . S
Zn70 O69 1.953 . S
Zn70 O71 1.949 . S
Zn70 O77 1.919 . S
Zn70 O82 1.924 . S
O71 Zn70 1.949 . S
O71 Zn72 1.923 . S
O71 Zn73 1.950 . S
O71 Zn74 1.945 . S
Zn72 O71 1.923 . S
Zn72 O75 1.933 . S
Zn72 O78 1.941 . S
Zn72 O79 1.965 . S
Zn73 O71 1.950 . S
Zn73 O80 1.938 . S
Zn73 O81 1.906 . S
Zn73 O91 1.953 . S
Zn74 O71 1.945 . S
Zn74 O76 1.932 . S
Zn74 O83 1.977 . S
Zn74 O84 1.910 . S
O75 Zn72 1.933 . S
O75 C86 1.226 . S
O76 Zn74 1.932 . S
O76 C86 1.307 . S
O77 Zn70 1.919 . S
O77 C88 1.253 . S
O78 Zn72 1.941 . S
O78 C88 1.283 . S
O79 Zn72 1.965 . S
O79 C87 1.303 . S
O80 Zn73 1.938 . S
O80 C87 1.247 . S
O81 Zn73 1.906 . S
O81 C89 1.304 . S
O82 Zn70 1.924 . S
O82 C90 1.311 . S
O83 Zn74 1.977 . S
O83 C89 1.272 . S
O84 Zn74 1.910 . S
O84 C90 1.231 . S
C85 O69 1.225 . S
C85 O91 1.298 . S
C86 O75 1.226 . S
C86 O76 1.307 . S
C87 O79 1.303 . S
C87 O80 1.247 . S
C88 O77 1.253 . S
C88 O78 1.283 . S
C89 O81 1.304 . S
C89 O83 1.272 . S
C90 O82 1.311 . S
C90 O84 1.231 . S
O91 Zn73 1.953 . S
O91 C85 1.298 . S
O92 Zn93 1.953 . S
O92 C108 1.225 . S
Zn93 O92 1.953 . S
Zn93 O94 1.949 . S
Zn93 O100 1.919 . S
Zn93 O105 1.924 . S
O94 Zn93 1.949 . S
O94 Zn95 1.923 . S
O94 Zn96 1.950 . S
O94 Zn97 1.945 . S
Zn95 O94 1.923 . S
Zn95 O98 1.933 . S
Zn95 O101 1.941 . S
Zn95 O102 1.965 . S
Zn96 O94 1.950 . S
Zn96 O103 1.938 . S
Zn96 O104 1.906 . S
Zn96 O114 1.953 . S
Zn97 O94 1.945 . S
Zn97 O99 1.932 . S
Zn97 O106 1.977 . S
Zn97 O107 1.910 . S
O98 Zn95 1.933 . S
O98 C109 1.226 . S
O99 Zn97 1.932 . S
O99 C109 1.307 . S
O100 Zn93 1.919 . S
O100 C111 1.253 . S
O101 Zn95 1.941 . S
O101 C111 1.283 . S
O102 Zn95 1.965 . S
O102 C110 1.303 . S
O103 Zn96 1.938 . S
O103 C110 1.247 . S
O104 Zn96 1.906 . S
O104 C112 1.304 . S
O105 Zn93 1.924 . S
O105 C113 1.311 . S
O106 Zn97 1.977 . S
O106 C112 1.272 . S
O107 Zn97 1.910 . S
O107 C113 1.231 . S
C108 O92 1.225 . S
C108 O114 1.298 . S
C109 O98 1.226 . S
C109 O99 1.307 . S
C110 O102 1.303 . S
C110 O103 1.247 . S
C111 O100 1.253 . S
C111 O101 1.283 . S
C112 O104 1.304 . S
C112 O106 1.272 . S
C113 O105 1.311 . S
C113 O107 1.231 . S
O114 Zn96 1.953 . S
O114 C108 1.298 . S
O115 Zn116 1.953 . S
O115 C131 1.225 . S
Zn116 O115 1.953 . S
Zn116 O117 1.949 . S
Zn116 O123 1.919 . S
Zn116 O128 1.924 . S
O117 Zn116 1.949 . S
O117 Zn118 1.923 . S
O117 Zn119 1.950 . S
O117 Zn120 1.945 . S
Zn118 O117 1.923 . S
Zn118 O121 1.933 . S
Zn118 O124 1.941 . S
Zn118 O125 1.965 . S
Zn119 O117 1.950 . S
Zn119 O126 1.938 . S
Zn119 O127 1.906 . S
Zn119 O137 1.953 . S
Zn120 O117 1.945 . S
Zn120 O122 1.932 . S
Zn120 O129 1.977 . S
Zn120 O130 1.910 . S
O121 Zn118 1.933 . S
O121 C132 1.226 . S
O122 Zn120 1.932 . S
O122 C132 1.307 . S
O123 Zn116 1.919 . S
O123 C134 1.253 . S
O124 Zn118 1.941 . S
O124 C134 1.283 . S
O125 Zn118 1.965 . S
O125 C133 1.303 . S
O126 Zn119 1.938 . S
O126 C133 1.247 . S
O127 Zn119 1.906 . S
O127 C135 1.304 . S
O128 Zn116 1.924 . S
O128 C136 1.311 . S
O129 Zn120 1.977 . S
O129 C135 1.272 . S
O130 Zn120 1.910 . S
O130 C136 1.231 . S
C131 O115 1.225 . S
C131 O137 1.298 . S
C132 O121 1.226 . S
C132 O122 1.307 . S
C133 O125 1.303 . S
C133 O126 1.247 . S
C134 O123 1.253 . S
C134 O124 1.283 . S
C135 O127 1.304 . S
C135 O129 1.272 . S
C136 O128 1.311 . S
C136 O130 1.231 . S
O137 Zn119 1.953 . S
O137 C131 1.298 . S
O138 Zn139 1.953 . S
O138 C154 1.225 . S
Zn139 O138 1.953 . S
Zn139 O140 1.949 . S
Zn139 O146 1.919 . S
Zn139 O151 1.924 . S
O140 Zn139 1.949 . S
O140 Zn141 1.923 . S
O140 Zn142 1.950 . S
O140 Zn143 1.945 . S
Zn141 O140 1.923 . S
Zn141 O144 1.933 . S
Zn141 O147 1.941 . S
Zn141 O148 1.965 . S
Zn142 O140 1.950 . S
Zn142 O149 1.938 . S
Zn142 O150 1.906 . S
Zn142 O160 1.953 . S
Zn143 O140 1.945 . S
Zn143 O145 1.932 . S
Zn143 O152 1.977 . S
Zn143 O153 1.910 . S
O144 Zn141 1.933 . S
O144 C155 1.226 . S
O145 Zn143 1.932 . S
O145 C155 1.307 . S
O146 Zn139 1.919 . S
O146 C157 1.253 . S
O147 Zn141 1.941 . S
O147 C157 1.283 . S
O148 Zn141 1.965 . S
O148 C156 1.303 . S
O149 Zn142 1.938 . S
O149 C156 1.247 . S
O150 Zn142 1.906 . S
O150 C158 1.304 . S
O151 Zn139 1.924 . S
O151 C159 1.311 . S
O152 Zn143 1.977 . S
O152 C158 1.272 . S
O153 Zn143 1.910 . S
O153 C159 1.231 . S
C154 O138 1.225 . S
C154 O160 1.298 . S
C155 O144 1.226 . S
C155 O145 1.307 . S
C156 O148 1.303 . S
C156 O149 1.247 . S
C157 O146 1.253 . S
C157 O147 1.283 . S
C158 O150 1.304 . S
C158 O152 1.272 . S
C159 O151 1.311 . S
C159 O153 1.231 . S
O160 Zn142 1.953 . S
O160 C154 1.298 . S
O161 Zn162 1.953 . S
O161 C177 1.225 . S
Zn162 O161 1.953 . S
Zn162 O163 1.949 . S
Zn162 O169 1.919 . S
Zn162 O174 1.924 . S
O163 Zn162 1.949 . S
O163 Zn164 1.923 . S
O163 Zn165 1.950 . S
O163 Zn166 1.945 . S
Zn164 O163 1.923 . S
Zn164 O167 1.933 . S
Zn164 O170 1.941 . S
Zn164 O171 1.965 . S
Zn165 O163 1.950 . S
Zn165 O172 1.938 . S
Zn165 O173 1.906 . S
Zn165 O183 1.953 . S
Zn166 O163 1.945 . S
Zn166 O168 1.932 . S
Zn166 O175 1.977 . S
Zn166 O176 1.910 . S
O167 Zn164 1.933 . S
O167 C178 1.226 . S
O168 Zn166 1.932 . S
O168 C178 1.307 . S
O169 Zn162 1.919 . S
O169 C180 1.253 . S
O170 Zn164 1.941 . S
O170 C180 1.283 . S
O171 Zn164 1.965 . S
O171 C179 1.303 . S
O172 Zn165 1.938 . S
O172 C179 1.247 . S
O173 Zn165 1.906 . S
O173 C181 1.304 . S
O174 Zn162 1.924 . S
O174 C182 1.311 . S
O175 Zn166 1.977 . S
O175 C181 1.272 . S
O176 Zn166 1.910 . S
O176 C182 1.231 . S
C177 O161 1.225 . S
C177 O183 1.298 . S
C178 O167 1.226 . S
C178 O168 1.307 . S
C179 O171 1.303 . S
C179 O172 1.247 . S
C180 O169 1.253 . S
C180 O170 1.283 . S
C181 O173 1.304 . S
C181 O175 1.272 . S
C182 O174 1.311 . S
C182 O176 1.231 . S
O183 Zn165 1.953 . S
O183 C177 1.298 . S
O184 Zn185 1.953 . S
O184 C200 1.225 . S
Zn185 O184 1.953 . S
Zn185 O186 1.949 . S
Zn185 O192 1.919 . S
Zn185 O197 1.924 . S
O186 Zn185 1.949 . S
O186 Zn187 1.923 . S
O186 Zn188 1.950 . S
O186 Zn189 1.945 . S
Zn187 O186 1.923 . S
Zn187 O190 1.933 . S
Zn187 O193 1.941 . S
Zn187 O194 1.965 . S
Zn188 O186 1.950 . S
Zn188 O195 1.938 . S
Zn188 O196 1.906 . S
Zn188 O206 1.953 . S
Zn189 O186 1.945 . S
Zn189 O191 1.932 . S
Zn189 O198 1.977 . S
Zn189 O199 1.910 . S
O190 Zn187 1.933 . S
O190 C201 1.226 . S
O191 Zn189 1.932 . S
O191 C201 1.307 . S
O192 Zn185 1.919 . S
O192 C203 1.253 . S
O193 Zn187 1.941 . S
O193 C203 1.283 . S
O194 Zn187 1.965 . S
O194 C202 1.303 . S
O195 Zn188 1.938 . S
O195 C202 1.247 . S
O196 Zn188 1.906 . S
O196 C204 1.304 . S
O197 Zn185 1.924 . S
O197 C205 1.311 . S
O198 Zn189 1.977 . S
O198 C204 1.272 . S
O199 Zn189 1.910 . S
O199 C205 1.231 . S
C200 O184 1.225 . S
C200 O206 1.298 . S
C201 O190 1.226 . S
C201 O191 1.307 . S
C202 O194 1.303 . S
C202 O195 1.247 . S
C203 O192 1.253 . S
C203 O193 1.283 . S
C204 O196 1.304 . S
C204 O198 1.272 . S
C205 O197 1.311 . S
C205 O199 1.231 . S
O206 Zn188 1.953 . S
O206 C200 1.298 . S
O207 Zn208 1.953 . S
O207 C223 1.225 . S
Zn208 O207 1.953 . S
Zn208 O209 1.949 . S
Zn208 O215 1.919 . S
Zn208 O220 1.924 . S
O209 Zn208 1.949 . S
O209 Zn210 1.923 . S
O209 Zn211 1.950 . S
O209 Zn212 1.945 . S
Zn210 O209 1.923 . S
Zn210 O213 1.933 . S
Zn210 O216 1.941 . S
Zn210 O217 1.965 . S
Zn211 O209 1.950 . S
Zn211 O218 1.938 . S
Zn211 O219 1.906 . S
Zn211 O229 1.953 . S
Zn212 O209 1.945 . S
Zn212 O214 1.932 . S
Zn212 O221 1.977 . S
Zn212 O222 1.910 . S
O213 Zn210 1.933 . S
O213 C224 1.226 . S
O214 Zn212 1.932 . S
O214 C224 1.307 . S
O215 Zn208 1.919 . S
O215 C226 1.253 . S
O216 Zn210 1.941 . S
O216 C226 1.283 . S
O217 Zn210 1.965 . S
O217 C225 1.303 . S
O218 Zn211 1.938 . S
O218 C225 1.247 . S
O219 Zn211 1.906 . S
O219 C227 1.304 . S
O220 Zn208 1.924 . S
O220 C228 1.311 . S
O221 Zn212 1.977 . S
O221 C227 1.272 . S
O222 Zn212 1.910 . S
O222 C228 1.231 . S
C223 O207 1.225 . S
C223 O229 1.298 . S
C224 O213 1.226 . S
C224 O214 1.307 . S
C225 O217 1.303 . S
C225 O218 1.247 . S
C226 O215 1.253 . S
C226 O216 1.283 . S
C227 O219 1.304 . S
C227 O221 1.272 . S
C228 O220 1.311 . S
C228 O222 1.231 . S
O229 Zn211 1.953 . S
O229 C223 1.298 . S
O230 Zn231 1.953 . S
O230 C246 1.225 . S
Zn231 O230 1.953 . S
Zn231 O232 1.949 . S
Zn231 O238 1.919 . S
Zn231 O243 1.924 . S
O232 Zn231 1.949 . S
O232 Zn233 1.923 . S
O232 Zn234 1.950 . S
O232 Zn235 1.945 . S
Zn233 O232 1.923 . S
Zn233 O236 1.933 . S
Zn233 O239 1.941 . S
Zn233 O240 1.965 . S
Zn234 O232 1.950 . S
Zn234 O241 1.938 . S
Zn234 O242 1.906 . S
Zn234 O252 1.953 . S
Zn235 O232 1.945 . S
Zn235 O237 1.932 . S
Zn235 O244 1.977 . S
Zn235 O245 1.910 . S
O236 Zn233 1.933 . S
O236 C247 1.226 . S
O237 Zn235 1.932 . S
O237 C247 1.307 . S
O238 Zn231 1.919 . S
O238 C249 1.253 . S
O239 Zn233 1.941 . S
O239 C249 1.283 . S
O240 Zn233 1.965 . S
O240 C248 1.303 . S
O241 Zn234 1.938 . S
O241 C248 1.247 . S
O242 Zn234 1.906 . S
O242 C250 1.304 . S
O243 Zn231 1.924 . S
O243 C251 1.311 . S
O244 Zn235 1.977 . S
O244 C250 1.272 . S
O245 Zn235 1.910 . S
O245 C251 1.231 . S
C246 O230 1.225 . S
C246 O252 1.298 . S
C247 O236 1.226 . S
C247 O237 1.307 . S
C248 O240 1.303 . S
C248 O241 1.247 . S
C249 O238 1.253 . S
C249 O239 1.283 . S
C250 O242 1.304 . S
C250 O244 1.272 . S
C251 O243 1.311 . S
C251 O245 1.231 . S
O252 Zn234 1.953 . S
O252 C246 1.298 . S
O253 Zn254 1.953 . S
O253 C269 1.225 . S
Zn254 O253 1.953 . S
Zn254 O255 1.949 . S
Zn254 O261 1.919 . S
Zn254 O266 1.924 . S
O255 Zn254 1.949 . S
O255 Zn256 1.923 . S
O255 Zn257 1.950 . S
O255 Zn258 1.945 . S
Zn256 O255 1.923 . S
Zn256 O259 1.933 . S
Zn256 O262 1.941 . S
Zn256 O263 1.965 . S
Zn257 O255 1.950 . S
Zn257 O264 1.938 . S
Zn257 O265 1.906 . S
Zn257 O275 1.953 . S
Zn258 O255 1.945 . S
Zn258 O260 1.932 . S
Zn258 O267 1.977 . S
Zn258 O268 1.910 . S
O259 Zn256 1.933 . S
O259 C270 1.226 . S
O260 Zn258 1.932 . S
O260 C270 1.307 . S
O261 Zn254 1.919 . S
O261 C272 1.253 . S
O262 Zn256 1.941 . S
O262 C272 1.283 . S
O263 Zn256 1.965 . S
O263 C271 1.303 . S
O264 Zn257 1.938 . S
O264 C271 1.247 . S
O265 Zn257 1.906 . S
O265 C273 1.304 . S
O266 Zn254 1.924 . S
O266 C274 1.311 . S
O267 Zn258 1.977 . S
O267 C273 1.272 . S
O268 Zn258 1.910 . S
O268 C274 1.231 . S
C269 O253 1.225 . S
C269 O275 1.298 . S
C270 O259 1.226 . S
C270 O260 1.307 . S
C271 O263 1.303 . S
C271 O264 1.247 . S
C272 O261 1.253 . S
C272 O262 1.283 . S
C273 O265 1.304 . S
C273 O267 1.272 . S
C274 O266 1.311 . S
C274 O268 1.231 . S
O275 Zn257 1.953 . S
O275 C269 1.298 . S
O276 Zn277 1.953 . S
O276 C292 1.225 . S
Zn277 O276 1.953 . S
Zn277 O278 1.949 . S
Zn277 O284 1.919 . S
Zn277 O289 1.924 . S
O278 Zn277 1.949 . S
O278 Zn279 1.923 . S
O278 Zn280 1.950 . S
O278 Zn281 1.945 . S
Zn279 O278 1.923 . S
Zn279 O282 1.933 . S
Zn279 O285 1.941 . S
Zn279 O286 1.965 . S
Zn280 O278 1.950 . S
Zn280 O287 1.938 . S
Zn280 O288 1.906 . S
Zn280 O298 1.953 . S
Zn281 O278 1.945 . S
Zn281 O283 1.932 . S
Zn281 O290 1.977 . S
Zn281 O291 1.910 . S
O282 Zn279 1.933 . S
O282 C293 1.226 . S
O283 Zn281 1.932 . S
O283 C293 1.307 . S
O284 Zn277 1.919 . S
O284 C295 1.253 . S
O285 Zn279 1.941 . S
O285 C295 1.283 . S
O286 Zn279 1.965 . S
O286 C294 1.303 . S
O287 Zn280 1.938 . S
O287 C294 1.247 . S
O288 Zn280 1.906 . S
O288 C296 1.304 . S
O289 Zn277 1.924 . S
O289 C297 1.311 . S
O290 Zn281 1.977 . S
O290 C296 1.272 . S
O291 Zn281 1.910 . S
O291 C297 1.231 . S
C292 O276 1.225 . S
C292 O298 1.298 . S
C293 O282 1.226 . S
C293 O283 1.307 . S
C294 O286 1.303 . S
C294 O287 1.247 . S
C295 O284 1.253 . S
C295 O285 1.283 . S
C296 O288 1.304 . S
C296 O290 1.272 . S
C297 O289 1.311 . S
C297 O291 1.231 . S
O298 Zn280 1.953 . S
O298 C292 1.298 . S
O299 Zn300 1.953 . S
O299 C315 1.225 . S
Zn300 O299 1.953 . S
Zn300 O301 1.949 . S
Zn300 O307 1.919 . S
Zn300 O312 1.924 . S
O301 Zn300 1.949 . S
O301 Zn302 1.923 . S
O301 Zn303 1.950 . S
O301 Zn304 1.945 . S
Zn302 O301 1.923 . S
Zn302 O305 1.933 . S
Zn302 O308 1.941 . S
Zn302 O309 1.965 . S
Zn303 O301 1.950 . S
Zn303 O310 1.938 . S
Zn303 O311 1.906 . S
Zn303 O321 1.953 . S
Zn304 O301 1.945 . S
Zn304 O306 1.932 . S
Zn304 O313 1.977 . S
Zn304 O314 1.910 . S
O305 Zn302 1.933 . S
O305 C316 1.226 . S
O306 Zn304 1.932 . S
O306 C316 1.307 . S
O307 Zn300 1.919 . S
O307 C318 1.253 . S
O308 Zn302 1.941 . S
O308 C318 1.283 . S
O309 Zn302 1.965 . S
O309 C317 1.303 . S
O310 Zn303 1.938 . S
O310 C317 1.247 . S
O311 Zn303 1.906 . S
O311 C319 1.304 . S
O312 Zn300 1.924 . S
O312 C320 1.311 . S
O313 Zn304 1.977 . S
O313 C319 1.272 . S
O314 Zn304 1.910 . S
O314 C320 1.231 . S
C315 O299 1.225 . S
C315 O321 1.298 . S
C316 O305 1.226 . S
C316 O306 1.307 . S
C317 O309 1.303 . S
C317 O310 1.247 . S
C318 O307 1.253 . S
C318 O308 1.283 . S
C319 O311 1.304 . S
C319 O313 1.272 . S
C320 O312 1.311 . S
C320 O314 1.231 . S
O321 Zn303 1.953 . S
O321 C315 1.298 . S
O322 Zn323 1.953 . S
O322 C338 1.225 . S
Zn323 O322 1.953 . S
Zn323 O324 1.949 . S
Zn323 O330 1.919 . S
Zn323 O335 1.924 . S
O324 Zn323 1.949 . S
O324 Zn325 1.923 . S
O324 Zn326 1.950 . S
O324 Zn327 1.945 . S
Zn325 O324 1.923 . S
Zn325 O328 1.933 . S
Zn325 O331 1.941 . S
Zn325 O332 1.965 . S
Zn326 O324 1.950 . S
Zn326 O333 1.938 . S
Zn326 O334 1.906 . S
Zn326 O344 1.953 . S
Zn327 O324 1.945 . S
Zn327 O329 1.932 . S
Zn327 O336 1.977 . S
Zn327 O337 1.910 . S
O328 Zn325 1.933 . S
O328 C339 1.226 . S
O329 Zn327 1.932 . S
O329 C339 1.307 . S
O330 Zn323 1.919 . S
O330 C341 1.253 . S
O331 Zn325 1.941 . S
O331 C341 1.283 . S
O332 Zn325 1.965 . S
O332 C340 1.303 . S
O333 Zn326 1.938 . S
O333 C340 1.247 . S
O334 Zn326 1.906 . S
O334 C342 1.304 . S
O335 Zn323 1.924 . S
O335 C343 1.311 . S
O336 Zn327 1.977 . S
O336 C342 1.272 . S
O337 Zn327 1.910 . S
O337 C343 1.231 . S
C338 O322 1.225 . S
C338 O344 1.298 . S
C339 O328 1.226 . S
C339 O329 1.307 . S
C340 O332 1.303 . S
C340 O333 1.247 . S
C341 O330 1.253 . S
C341 O331 1.283 . S
C342 O334 1.304 . S
C342 O336 1.272 . S
C343 O335 1.311 . S
C343 O337 1.231 . S
O344 Zn326 1.953 . S
O344 C338 1.298 . S
O345 Zn346 1.953 . S
O345 C361 1.225 . S
Zn346 O345 1.953 . S
Zn346 O347 1.949 . S
Zn346 O353 1.919 . S
Zn346 O358 1.924 . S
O347 Zn346 1.949 . S
O347 Zn348 1.923 . S
O347 Zn349 1.950 . S
O347 Zn350 1.945 . S
Zn348 O347 1.923 . S
Zn348 O351 1.933 . S
Zn348 O354 1.941 . S
Zn348 O355 1.965 . S
Zn349 O347 1.950 . S
Zn349 O356 1.938 . S
Zn349 O357 1.906 . S
Zn349 O367 1.953 . S
Zn350 O347 1.945 . S
Zn350 O352 1.932 . S
Zn350 O359 1.977 . S
Zn350 O360 1.910 . S
O351 Zn348 1.933 . S
O351 C362 1.226 . S
O352 Zn350 1.932 . S
O352 C362 1.307 . S
O353 Zn346 1.919 . S
O353 C364 1.253 . S
O354 Zn348 1.941 . S
O354 C364 1.283 . S
O355 Zn348 1.965 . S
O355 C363 1.303 . S
O356 Zn349 1.938 . S
O356 C363 1.247 . S
O357 Zn349 1.906 . S
O357 C365 1.304 . S
O358 Zn346 1.924 . S
O358 C366 1.311 . S
O359 Zn350 1.977 . S
O359 C365 1.272 . S
O360 Zn350 1.910 . S
O360 C366 1.231 . S
C361 O345 1.225 . S
C361 O367 1.298 . S
C362 O351 1.226 . S
C362 O352 1.307 . S
C363 O355 1.303 . S
C363 O356 1.247 . S
C364 O353 1.253 . S
C364 O354 1.283 . S
C365 O357 1.304 . S
C365 O359 1.272 . S
C366 O358 1.311 . S
C366 O360 1.231 . S
O367 Zn349 1.953 . S
O367 C361 1.298 . S
H368 C374 0.930 . S
H369 C378 0.930 . S
H370 C383 0.929 . S
H371 C381 0.929 . S
H372 C376 0.929 . S
H373 C382 0.929 . S
C374 H368 0.930 . S
C374 C375 1.367 . S
C374 C382 1.378 . S
C375 C374 1.367 . S
C375 C383 1.433 . S
C376 H372 0.929 . S
C376 C378 1.378 . S
C376 C380 1.350 . S
C377 C380 1.463 . S
C377 C382 1.350 . S
C377 N385 1.427 . S
C378 H369 0.930 . S
C378 C376 1.378 . S
C378 C379 1.367 . S
C379 C378 1.367 . S
C379 C381 1.433 . S
C380 C376 1.350 . S
C380 C377 1.463 . S
C380 N384 1.427 . S
C381 H371 0.929 . S
C381 C379 1.433 . S
C381 N384 1.384 . S
C382 H373 0.929 . S
C382 C374 1.378 . S
C382 C377 1.350 . S
C383 H370 0.929 . S
C383 C375 1.433 . S
C383 N385 1.384 . S
N384 C380 1.427 . S
N384 C381 1.384 . S
N385 C377 1.427 . S
N385 C383 1.384 . S
H386 C392 0.930 . S
H387 C396 0.930 . S
H388 C401 0.929 . S
H389 C399 0.929 . S
H390 C394 0.929 . S
H391 C400 0.929 . S
C392 H386 0.930 . S
C392 C393 1.367 . S
C392 C400 1.378 . S
C393 C392 1.367 . S
C393 C401 1.433 . S
C394 H390 0.929 . S
C394 C396 1.378 . S
C394 C398 1.350 . S
C395 C398 1.463 . S
C395 C400 1.350 . S
C395 N403 1.427 . S
C396 H387 0.930 . S
C396 C394 1.378 . S
C396 C397 1.367 . S
C397 C396 1.367 . S
C397 C399 1.433 . S
C398 C394 1.350 . S
C398 C395 1.463 . S
C398 N402 1.427 . S
C399 H389 0.929 . S
C399 C397 1.433 . S
C399 N402 1.384 . S
C400 H391 0.929 . S
C400 C392 1.378 . S
C400 C395 1.350 . S
C401 H388 0.929 . S
C401 C393 1.433 . S
C401 N403 1.384 . S
N402 C398 1.427 . S
N402 C399 1.384 . S
N403 C395 1.427 . S
N403 C401 1.384 . S
H404 C410 0.930 . S
H405 C414 0.930 . S
H406 C419 0.929 . S
H407 C417 0.929 . S
H408 C412 0.929 . S
H409 C418 0.929 . S
C410 H404 0.930 . S
C410 C411 1.367 . S
C410 C418 1.378 . S
C411 C410 1.367 . S
C411 C419 1.433 . S
C412 H408 0.929 . S
C412 C414 1.378 . S
C412 C416 1.350 . S
C413 C416 1.463 . S
C413 C418 1.350 . S
C413 N421 1.427 . S
C414 H405 0.930 . S
C414 C412 1.378 . S
C414 C415 1.367 . S
C415 C414 1.367 . S
C415 C417 1.433 . S
C416 C412 1.350 . S
C416 C413 1.463 . S
C416 N420 1.427 . S
C417 H407 0.929 . S
C417 C415 1.433 . S
C417 N420 1.384 . S
C418 H409 0.929 . S
C418 C410 1.378 . S
C418 C413 1.350 . S
C419 H406 0.929 . S
C419 C411 1.433 . S
C419 N421 1.384 . S
N420 C416 1.427 . S
N420 C417 1.384 . S
N421 C413 1.427 . S
N421 C419 1.384 . S
H422 C428 0.930 . S
H423 C432 0.930 . S
H424 C437 0.929 . S
H425 C435 0.929 . S
H426 C430 0.929 . S
H427 C436 0.929 . S
C428 H422 0.930 . S
C428 C429 1.367 . S
C428 C436 1.378 . S
C429 C428 1.367 . S
C429 C437 1.433 . S
C430 H426 0.929 . S
C430 C432 1.378 . S
C430 C434 1.350 . S
C431 C434 1.463 . S
C431 C436 1.350 . S
C431 N439 1.427 . S
C432 H423 0.930 . S
C432 C430 1.378 . S
C432 C433 1.367 . S
C433 C432 1.367 . S
C433 C435 1.433 . S
C434 C430 1.350 . S
C434 C431 1.463 . S
C434 N438 1.427 . S
C435 H425 0.929 . S
C435 C433 1.433 . S
C435 N438 1.384 . S
C436 H427 0.929 . S
C436 C428 1.378 . S
C436 C431 1.350 . S
C437 H424 0.929 . S
C437 C429 1.433 . S
C437 N439 1.384 . S
N438 C434 1.427 . S
N438 C435 1.384 . S
N439 C431 1.427 . S
N439 C437 1.384 . S
H440 C446 0.930 . S
H441 C450 0.930 . S
H442 C455 0.929 . S
H443 C453 0.929 . S
H444 C448 0.929 . S
H445 C454 0.929 . S
C446 H440 0.930 . S
C446 C447 1.367 . S
C446 C454 1.378 . S
C447 C446 1.367 . S
C447 C455 1.433 . S
C448 H444 0.929 . S
C448 C450 1.378 . S
C448 C452 1.350 . S
C449 C452 1.463 . S
C449 C454 1.350 . S
C449 N457 1.427 . S
C450 H441 0.930 . S
C450 C448 1.378 . S
C450 C451 1.367 . S
C451 C450 1.367 . S
C451 C453 1.433 . S
C452 C448 1.350 . S
C452 C449 1.463 . S
C452 N456 1.427 . S
C453 H443 0.929 . S
C453 C451 1.433 . S
C453 N456 1.384 . S
C454 H445 0.929 . S
C454 C446 1.378 . S
C454 C449 1.350 . S
C455 H442 0.929 . S
C455 C447 1.433 . S
C455 N457 1.384 . S
N456 C452 1.427 . S
N456 C453 1.384 . S
N457 C449 1.427 . S
N457 C455 1.384 . S
H458 C464 0.930 . S
H459 C468 0.930 . S
H460 C473 0.929 . S
H461 C471 0.929 . S
H462 C466 0.929 . S
H463 C472 0.929 . S
C464 H458 0.930 . S
C464 C465 1.367 . S
C464 C472 1.378 . S
C465 C464 1.367 . S
C465 C473 1.433 . S
C466 H462 0.929 . S
C466 C468 1.378 . S
C466 C470 1.350 . S
C467 C470 1.463 . S
C467 C472 1.350 . S
C467 N475 1.427 . S
C468 H459 0.930 . S
C468 C466 1.378 . S
C468 C469 1.367 . S
C469 C468 1.367 . S
C469 C471 1.433 . S
C470 C466 1.350 . S
C470 C467 1.463 . S
C470 N474 1.427 . S
C471 H461 0.929 . S
C471 C469 1.433 . S
C471 N474 1.384 . S
C472 H463 0.929 . S
C472 C464 1.378 . S
C472 C467 1.350 . S
C473 H460 0.929 . S
C473 C465 1.433 . S
C473 N475 1.384 . S
N474 C470 1.427 . S
N474 C471 1.384 . S
N475 C467 1.427 . S
N475 C473 1.384 . S
H476 C482 0.930 . S
H477 C486 0.930 . S
H478 C491 0.929 . S
H479 C489 0.929 . S
H480 C484 0.929 . S
H481 C490 0.929 . S
C482 H476 0.930 . S
C482 C483 1.367 . S
C482 C490 1.378 . S
C483 C482 1.367 . S
C483 C491 1.433 . S
C484 H480 0.929 . S
C484 C486 1.378 . S
C484 C488 1.350 . S
C485 C488 1.463 . S
C485 C490 1.350 . S
C485 N493 1.427 . S
C486 H477 0.930 . S
C486 C484 1.378 . S
C486 C487 1.367 . S
C487 C486 1.367 . S
C487 C489 1.433 . S
C488 C484 1.350 . S
C488 C485 1.463 . S
C488 N492 1.427 . S
C489 H479 0.929 . S
C489 C487 1.433 . S
C489 N492 1.384 . S
C490 H481 0.929 . S
C490 C482 1.378 . S
C490 C485 1.350 . S
C491 H478 0.929 . S
C491 C483 1.433 . S
C491 N493 1.384 . S
N492 C488 1.427 . S
N492 C489 1.384 . S
N493 C485 1.427 . S
N493 C491 1.384 . S
H494 C500 0.930 . S
H495 C504 0.930 . S
H496 C509 0.929 . S
H497 C507 0.929 . S
H498 C502 0.929 . S
H499 C508 0.929 . S
C500 H494 0.930 . S
C500 C501 1.367 . S
C500 C508 1.378 . S
C501 C500 1.367 . S
C501 C509 1.433 . S
C502 H498 0.929 . S
C502 C504 1.378 . S
C502 C506 1.350 . S
C503 C506 1.463 . S
C503 C508 1.350 . S
C503 N511 1.427 . S
C504 H495 0.930 . S
C504 C502 1.378 . S
C504 C505 1.367 . S
C505 C504 1.367 . S
C505 C507 1.433 . S
C506 C502 1.350 . S
C506 C503 1.463 . S
C506 N510 1.427 . S
C507 H497 0.929 . S
C507 C505 1.433 . S
C507 N510 1.384 . S
C508 H499 0.929 . S
C508 C500 1.378 . S
C508 C503 1.350 . S
C509 H496 0.929 . S
C509 C501 1.433 . S
C509 N511 1.384 . S
N510 C506 1.427 . S
N510 C507 1.384 . S
N511 C503 1.427 . S
N511 C509 1.384 . S
H512 C518 0.930 . S
H513 C522 0.930 . S
H514 C527 0.929 . S
H515 C525 0.929 . S
H516 C520 0.929 . S
H517 C526 0.929 . S
C518 H512 0.930 . S
C518 C519 1.367 . S
C518 C526 1.378 . S
C519 C518 1.367 . S
C519 C527 1.433 . S
C520 H516 0.929 . S
C520 C522 1.378 . S
C520 C524 1.350 . S
C521 C524 1.463 1_655 S
C521 C526 1.350 . S
C521 N529 1.427 . S
C522 H513 0.930 . S
C522 C520 1.378 . S
C522 C523 1.367 . S
C523 C522 1.367 . S
C523 C525 1.433 . S
C524 C520 1.350 . S
C524 C521 1.463 1_455 S
C524 N528 1.427 . S
C525 H515 0.929 . S
C525 C523 1.433 . S
C525 N528 1.384 . S
C526 H517 0.929 . S
C526 C518 1.378 . S
C526 C521 1.350 . S
C527 H514 0.929 . S
C527 C519 1.433 . S
C527 N529 1.384 . S
N528 C524 1.427 . S
N528 C525 1.384 . S
N529 C521 1.427 . S
N529 C527 1.384 . S
H530 C536 0.930 . S
H531 C540 0.930 . S
H532 C545 0.929 . S
H533 C543 0.929 . S
H534 C538 0.929 . S
H535 C544 0.929 . S
C536 H530 0.930 . S
C536 C537 1.367 . S
C536 C544 1.378 . S
C537 C536 1.367 . S
C537 C545 1.433 . S
C538 H534 0.929 . S
C538 C540 1.378 . S
C538 C542 1.350 . S
C539 C542 1.463 1_565 S
C539 C544 1.350 . S
C539 N547 1.427 . S
C540 H531 0.930 . S
C540 C538 1.378 . S
C540 C541 1.367 . S
C541 C540 1.367 . S
C541 C543 1.433 . S
C542 C538 1.350 . S
C542 C539 1.463 1_545 S
C542 N546 1.427 . S
C543 H533 0.929 . S
C543 C541 1.433 . S
C543 N546 1.384 . S
C544 H535 0.929 . S
C544 C536 1.378 . S
C544 C539 1.350 . S
C545 H532 0.929 . S
C545 C537 1.433 . S
C545 N547 1.384 . S
N546 C542 1.427 . S
N546 C543 1.384 . S
N547 C539 1.427 . S
N547 C545 1.384 . S
H548 C554 0.930 . S
H549 C558 0.930 . S
H550 C563 0.929 . S
H551 C561 0.929 . S
H552 C556 0.929 . S
H553 C562 0.929 . S
C554 H548 0.930 . S
C554 C555 1.367 . S
C554 C562 1.378 . S
C555 C554 1.367 . S
C555 C563 1.433 . S
C556 H552 0.929 . S
C556 C558 1.378 . S
C556 C560 1.350 . S
C557 C560 1.463 1_655 S
C557 C562 1.350 . S
C557 N565 1.427 . S
C558 H549 0.930 . S
C558 C556 1.378 . S
C558 C559 1.367 . S
C559 C558 1.367 . S
C559 C561 1.433 . S
C560 C556 1.350 . S
C560 C557 1.463 1_455 S
C560 N564 1.427 . S
C561 H551 0.929 . S
C561 C559 1.433 . S
C561 N564 1.384 . S
C562 H553 0.929 . S
C562 C554 1.378 . S
C562 C557 1.350 . S
C563 H550 0.929 . S
C563 C555 1.433 . S
C563 N565 1.384 . S
N564 C560 1.427 . S
N564 C561 1.384 . S
N565 C557 1.427 . S
N565 C563 1.384 . S
H566 C572 0.930 . S
H567 C576 0.930 . S
H568 C581 0.929 . S
H569 C579 0.929 . S
H570 C574 0.934 . S
H571 C580 0.934 . S
C572 H566 0.930 . S
C572 C573 1.367 . S
C572 C580 1.378 . S
C573 C572 1.367 . S
C573 C581 1.433 . S
C574 H570 0.934 . S
C574 C576 1.378 . S
C574 C578 1.350 . S
C575 C578 1.463 1_565 S
C575 C580 1.350 . S
C575 N583 1.427 . S
C576 H567 0.930 . S
C576 C574 1.378 . S
C576 C577 1.367 . S
C577 C576 1.367 . S
C577 C579 1.433 . S
C578 C574 1.350 . S
C578 C575 1.463 1_545 S
C578 N582 1.427 . S
C579 H569 0.929 . S
C579 C577 1.433 . S
C579 N582 1.384 . S
C580 H571 0.934 . S
C580 C572 1.378 . S
C580 C575 1.350 . S
C581 H568 0.929 . S
C581 C573 1.433 . S
C581 N583 1.384 . S
N582 C578 1.427 . S
N582 C579 1.384 . S
N583 C575 1.427 . S
N583 C581 1.384 . S
H584 C590 0.930 . S
H585 C594 0.930 . S
H586 C599 0.929 . S
H587 C597 0.929 . S
H588 C592 0.929 . S
H589 C598 0.929 . S
C590 H584 0.930 . S
C590 C591 1.367 . S
C590 C598 1.378 . S
C591 C590 1.367 . S
C591 C599 1.433 . S
C592 H588 0.929 . S
C592 C594 1.378 . S
C592 C596 1.350 . S
C593 C596 1.463 1_565 S
C593 C598 1.350 . S
C593 N601 1.427 . S
C594 H585 0.930 . S
C594 C592 1.378 . S
C594 C595 1.367 . S
C595 C594 1.367 . S
C595 C597 1.433 . S
C596 C592 1.350 . S
C596 C593 1.463 1_545 S
C596 N600 1.427 . S
C597 H587 0.929 . S
C597 C595 1.433 . S
C597 N600 1.384 . S
C598 H589 0.929 . S
C598 C590 1.378 . S
C598 C593 1.350 . S
C599 H586 0.929 . S
C599 C591 1.433 . S
C599 N601 1.384 . S
N600 C596 1.427 . S
N600 C597 1.384 . S
N601 C593 1.427 . S
N601 C599 1.384 . S
H602 C608 0.930 . S
H603 C612 0.930 . S
H604 C617 0.929 . S
H605 C615 0.929 . S
H606 C610 0.929 1_455 S
H607 C616 0.929 1_655 S
C608 H602 0.930 . S
C608 C609 1.367 . S
C608 C616 1.378 . S
C609 C608 1.367 . S
C609 C617 1.433 . S
C610 H606 0.929 1_655 S
C610 C612 1.378 . S
C610 C614 1.350 . S
C611 C614 1.463 1_455 S
C611 C616 1.350 . S
C611 N619 1.427 . S
C612 H603 0.930 . S
C612 C610 1.378 . S
C612 C613 1.367 . S
C613 C612 1.367 . S
C613 C615 1.433 . S
C614 C610 1.350 . S
C614 C611 1.463 1_655 S
C614 N618 1.427 . S
C615 H605 0.929 . S
C615 C613 1.433 . S
C615 N618 1.384 . S
C616 H607 0.929 1_455 S
C616 C608 1.378 . S
C616 C611 1.350 . S
C617 H604 0.929 . S
C617 C609 1.433 . S
C617 N619 1.384 . S
N618 C614 1.427 . S
N618 C615 1.384 . S
N619 C611 1.427 . S
N619 C617 1.384 . S
H620 C626 0.930 . S
H621 C630 0.930 . S
H622 C635 0.929 . S
H623 C633 0.929 . S
H624 C628 0.929 1_565 S
H625 C634 0.929 1_545 S
C626 H620 0.930 . S
C626 C627 1.367 . S
C626 C634 1.378 . S
C627 C626 1.367 . S
C627 C635 1.433 . S
C628 H624 0.929 1_545 S
C628 C630 1.378 . S
C628 C632 1.350 . S
C629 C632 1.463 1_565 S
C629 C634 1.350 . S
C629 N637 1.427 . S
C630 H621 0.930 . S
C630 C628 1.378 . S
C630 C631 1.367 . S
C631 C630 1.367 . S
C631 C633 1.433 . S
C632 C628 1.350 . S
C632 C629 1.463 1_545 S
C632 N636 1.427 . S
C633 H623 0.929 . S
C633 C631 1.433 . S
C633 N636 1.384 . S
C634 H625 0.929 1_565 S
C634 C626 1.378 . S
C634 C629 1.350 . S
C635 H622 0.929 . S
C635 C627 1.433 . S
C635 N637 1.384 . S
N636 C632 1.427 . S
N636 C633 1.384 . S
N637 C629 1.427 . S
N637 C635 1.384 . S
H638 C644 0.930 . S
H639 C648 0.930 . S
H640 C653 0.929 . S
H641 C651 0.929 . S
H642 C646 0.929 . S
H643 C652 0.929 . S
C644 H638 0.930 . S
C644 C645 1.367 . S
C644 C652 1.378 . S
C645 C644 1.367 . S
C645 C653 1.433 . S
C646 H642 0.929 . S
C646 C648 1.378 . S
C646 C650 1.350 . S
C647 C650 1.463 1_455 S
C647 C652 1.350 . S
C647 N655 1.427 . S
C648 H639 0.930 . S
C648 C646 1.378 . S
C648 C649 1.367 . S
C649 C648 1.367 . S
C649 C651 1.433 . S
C650 C646 1.350 . S
C650 C647 1.463 1_655 S
C650 N654 1.427 . S
C651 H641 0.929 . S
C651 C649 1.433 . S
C651 N654 1.384 . S
C652 H643 0.929 . S
C652 C644 1.378 . S
C652 C647 1.350 . S
C653 H640 0.929 . S
C653 C645 1.433 . S
C653 N655 1.384 . S
N654 C650 1.427 . S
N654 C651 1.384 . S
N655 C647 1.427 . S
N655 C653 1.384 . S
H656 C662 0.930 . S
H657 C666 0.930 . S
H658 C671 0.929 . S
H659 C669 0.929 . S
H660 C664 0.929 . S
H661 C670 0.929 . S
C662 H656 0.930 . S
C662 C663 1.367 . S
C662 C670 1.378 . S
C663 C662 1.367 . S
C663 C671 1.433 . S
C664 H660 0.929 . S
C664 C666 1.378 . S
C664 C668 1.350 . S
C665 C668 1.463 . S
C665 C670 1.350 . S
C665 N673 1.427 . S
C666 H657 0.930 . S
C666 C664 1.378 . S
C666 C667 1.367 . S
C667 C666 1.367 . S
C667 C669 1.433 . S
C668 C664 1.350 . S
C668 C665 1.463 . S
C668 N672 1.427 . S
C669 H659 0.929 . S
C669 C667 1.433 . S
C669 N672 1.384 . S
C670 H661 0.929 . S
C670 C662 1.378 . S
C670 C665 1.350 . S
C671 H658 0.929 . S
C671 C663 1.433 . S
C671 N673 1.384 . S
N672 C668 1.427 . S
N672 C669 1.384 . S
N673 C665 1.427 . S
N673 C671 1.384 . S
H674 C680 0.930 . S
H675 C684 0.930 . S
H676 C689 0.929 . S
H677 C687 0.929 . S
H678 C682 0.929 . S
H679 C688 0.929 . S
C680 H674 0.930 . S
C680 C681 1.367 . S
C680 C688 1.378 . S
C681 C680 1.367 . S
C681 C689 1.433 . S
C682 H678 0.929 . S
C682 C684 1.378 . S
C682 C686 1.350 . S
C683 C686 1.463 . S
C683 C688 1.350 . S
C683 N691 1.427 . S
C684 H675 0.930 . S
C684 C682 1.378 . S
C684 C685 1.367 . S
C685 C684 1.367 . S
C685 C687 1.433 . S
C686 C682 1.350 . S
C686 C683 1.463 . S
C686 N690 1.427 . S
C687 H677 0.929 . S
C687 C685 1.433 . S
C687 N690 1.384 . S
C688 H679 0.929 . S
C688 C680 1.378 . S
C688 C683 1.350 . S
C689 H676 0.929 . S
C689 C681 1.433 . S
C689 N691 1.384 . S
N690 C686 1.427 . S
N690 C687 1.384 . S
N691 C683 1.427 . S
N691 C689 1.384 . S
H692 C698 0.930 . S
H693 C702 0.930 . S
H694 C707 0.929 . S
H695 C705 0.929 . S
H696 C700 0.929 . S
H697 C706 0.929 . S
C698 H692 0.930 . S
C698 C699 1.367 . S
C698 C706 1.378 . S
C699 C698 1.367 . S
C699 C707 1.433 . S
C700 H696 0.929 . S
C700 C702 1.378 . S
C700 C704 1.350 . S
C701 C704 1.463 . S
C701 C706 1.350 . S
C701 N709 1.427 . S
C702 H693 0.930 . S
C702 C700 1.378 . S
C702 C703 1.367 . S
C703 C702 1.367 . S
C703 C705 1.433 . S
C704 C700 1.350 . S
C704 C701 1.463 . S
C704 N708 1.427 . S
C705 H695 0.929 . S
C705 C703 1.433 . S
C705 N708 1.384 . S
C706 H697 0.929 . S
C706 C698 1.378 . S
C706 C701 1.350 . S
C707 H694 0.929 . S
C707 C699 1.433 . S
C707 N709 1.384 . S
N708 C704 1.427 . S
N708 C705 1.384 . S
N709 C701 1.427 . S
N709 C707 1.384 . S
H710 C716 0.930 . S
H711 C720 0.930 . S
H712 C725 0.929 . S
H713 C723 0.929 . S
H714 C718 0.929 . S
H715 C724 0.929 . S
C716 H710 0.930 . S
C716 C717 1.367 . S
C716 C724 1.378 . S
C717 C716 1.367 . S
C717 C725 1.433 . S
C718 H714 0.929 . S
C718 C720 1.378 . S
C718 C722 1.350 . S
C719 C722 1.463 . S
C719 C724 1.350 . S
C719 N727 1.427 . S
C720 H711 0.930 . S
C720 C718 1.378 . S
C720 C721 1.367 . S
C721 C720 1.367 . S
C721 C723 1.433 . S
C722 C718 1.350 . S
C722 C719 1.463 . S
C722 N726 1.427 . S
C723 H713 0.929 . S
C723 C721 1.433 . S
C723 N726 1.384 . S
C724 H715 0.929 . S
C724 C716 1.378 . S
C724 C719 1.350 . S
C725 H712 0.929 . S
C725 C717 1.433 . S
C725 N727 1.384 . S
N726 C722 1.427 . S
N726 C723 1.384 . S
N727 C719 1.427 . S
N727 C725 1.384 . S
H728 C734 0.930 . S
H729 C738 0.930 . S
H730 C743 0.929 . S
H731 C741 0.929 . S
H732 C736 0.929 . S
H733 C742 0.929 . S
C734 H728 0.930 . S
C734 C735 1.367 . S
C734 C742 1.378 . S
C735 C734 1.367 . S
C735 C743 1.433 . S
C736 H732 0.929 . S
C736 C738 1.378 . S
C736 C740 1.350 . S
C737 C740 1.463 . S
C737 C742 1.350 . S
C737 N745 1.427 . S
C738 H729 0.930 . S
C738 C736 1.378 . S
C738 C739 1.367 . S
C739 C738 1.367 . S
C739 C741 1.433 . S
C740 C736 1.350 . S
C740 C737 1.463 . S
C740 N744 1.427 . S
C741 H731 0.929 . S
C741 C739 1.433 . S
C741 N744 1.384 . S
C742 H733 0.929 . S
C742 C734 1.378 . S
C742 C737 1.350 . S
C743 H730 0.929 . S
C743 C735 1.433 . S
C743 N745 1.384 . S
N744 C740 1.427 . S
N744 C741 1.384 . S
N745 C737 1.427 . S
N745 C743 1.384 . S
H746 C752 0.930 . S
H747 C756 0.930 . S
H748 C761 0.929 . S
H749 C759 0.929 . S
H750 C754 0.929 . S
H751 C760 0.929 . S
C752 H746 0.930 . S
C752 C753 1.367 . S
C752 C760 1.378 . S
C753 C752 1.367 . S
C753 C761 1.433 . S
C754 H750 0.929 . S
C754 C756 1.378 . S
C754 C758 1.350 . S
C755 C758 1.463 . S
C755 C760 1.350 . S
C755 N763 1.427 . S
C756 H747 0.930 . S
C756 C754 1.378 . S
C756 C757 1.367 . S
C757 C756 1.367 . S
C757 C759 1.433 . S
C758 C754 1.350 . S
C758 C755 1.463 . S
C758 N762 1.427 . S
C759 H749 0.929 . S
C759 C757 1.433 . S
C759 N762 1.384 . S
C760 H751 0.929 . S
C760 C752 1.378 . S
C760 C755 1.350 . S
C761 H748 0.929 . S
C761 C753 1.433 . S
C761 N763 1.384 . S
N762 C758 1.427 . S
N762 C759 1.384 . S
N763 C755 1.427 . S
N763 C761 1.384 . S
H764 C770 0.930 . S
H765 C774 0.930 . S
H766 C779 0.929 . S
H767 C777 0.929 . S
H768 C772 0.929 . S
H769 C778 0.929 . S
C770 H764 0.930 . S
C770 C771 1.367 . S
C770 C778 1.378 . S
C771 C770 1.367 . S
C771 C779 1.433 . S
C772 H768 0.929 . S
C772 C774 1.378 . S
C772 C776 1.350 . S
C773 C776 1.463 . S
C773 C778 1.350 . S
C773 N781 1.427 . S
C774 H765 0.930 . S
C774 C772 1.378 . S
C774 C775 1.367 . S
C775 C774 1.367 . S
C775 C777 1.433 . S
C776 C772 1.350 . S
C776 C773 1.463 . S
C776 N780 1.427 . S
C777 H767 0.929 . S
C777 C775 1.433 . S
C777 N780 1.384 . S
C778 H769 0.929 . S
C778 C770 1.378 . S
C778 C773 1.350 . S
C779 H766 0.929 . S
C779 C771 1.433 . S
C779 N781 1.384 . S
N780 C776 1.427 . S
N780 C777 1.384 . S
N781 C773 1.427 . S
N781 C779 1.384 . S
H782 C788 0.930 . S
H783 C792 0.930 . S
H784 C797 0.929 . S
H785 C795 0.929 . S
H786 C790 0.929 . S
H787 C796 0.929 . S
C788 H782 0.930 . S
C788 C789 1.367 . S
C788 C796 1.378 . S
C789 C788 1.367 . S
C789 C797 1.433 . S
C790 H786 0.929 . S
C790 C792 1.378 . S
C790 C794 1.350 . S
C791 C794 1.463 . S
C791 C796 1.350 . S
C791 N799 1.427 . S
C792 H783 0.930 . S
C792 C790 1.378 . S
C792 C793 1.367 . S
C793 C792 1.367 . S
C793 C795 1.433 . S
C794 C790 1.350 . S
C794 C791 1.463 . S
C794 N798 1.427 . S
C795 H785 0.929 . S
C795 C793 1.433 . S
C795 N798 1.384 . S
C796 H787 0.929 . S
C796 C788 1.378 . S
C796 C791 1.350 . S
C797 H784 0.929 . S
C797 C789 1.433 . S
C797 N799 1.384 . S
N798 C794 1.427 . S
N798 C795 1.384 . S
N799 C791 1.427 . S
N799 C797 1.384 . S
H800 C806 0.930 . S
H801 C810 0.930 . S
H802 C815 0.929 . S
H803 C813 0.929 . S
H804 C808 0.929 . S
H805 C814 0.929 . S
C806 H800 0.930 . S
C806 C807 1.367 . S
C806 C814 1.378 . S
C807 C806 1.367 . S
C807 C815 1.433 . S
C808 H804 0.929 . S
C808 C810 1.378 . S
C808 C812 1.350 . S
C809 C812 1.463 . S
C809 C814 1.350 . S
C809 N817 1.427 . S
C810 H801 0.930 . S
C810 C808 1.378 . S
C810 C811 1.367 . S
C811 C810 1.367 . S
C811 C813 1.433 . S
C812 C808 1.350 . S
C812 C809 1.463 . S
C812 N816 1.427 . S
C813 H803 0.929 . S
C813 C811 1.433 . S
C813 N816 1.384 . S
C814 H805 0.929 . S
C814 C806 1.378 . S
C814 C809 1.350 . S
C815 H802 0.929 . S
C815 C807 1.433 . S
C815 N817 1.384 . S
N816 C812 1.427 . S
N816 C813 1.384 . S
N817 C809 1.427 . S
N817 C815 1.384 . S
H818 C824 0.930 1_545 S
H819 C828 0.930 . S
H820 C833 0.929 . S
H821 C831 0.929 . S
H822 C826 0.929 . S
H823 C832 0.929 . S
C824 H818 0.930 1_565 S
C824 C825 1.367 . S
C824 C832 1.378 . S
C825 C824 1.367 . S
C825 C833 1.433 . S
C826 H822 0.929 . S
C826 C828 1.378 . S
C826 C830 1.350 . S
C827 C830 1.463 . S
C827 C832 1.350 . S
C827 N835 1.427 . S
C828 H819 0.930 . S
C828 C826 1.378 . S
C828 C829 1.367 . S
C829 C828 1.367 . S
C829 C831 1.433 . S
C830 C826 1.350 . S
C830 C827 1.463 . S
C830 N834 1.427 . S
C831 H821 0.929 . S
C831 C829 1.433 . S
C831 N834 1.384 . S
C832 H823 0.929 . S
C832 C824 1.378 . S
C832 C827 1.350 . S
C833 H820 0.929 . S
C833 C825 1.433 . S
C833 N835 1.384 . S
N834 C830 1.427 . S
N834 C831 1.384 . S
N835 C827 1.427 . S
N835 C833 1.384 . S
H836 C842 0.930 . S
H837 C846 0.930 . S
H838 C851 0.929 1_655 S
H839 C849 0.929 . S
H840 C844 0.929 . S
H841 C850 0.929 . S
C842 H836 0.930 . S
C842 C843 1.367 . S
C842 C850 1.378 . S
C843 C842 1.367 . S
C843 C851 1.433 . S
C844 H840 0.929 . S
C844 C846 1.378 . S
C844 C848 1.350 . S
C845 C848 1.463 . S
C845 C850 1.350 . S
C845 N853 1.427 . S
C846 H837 0.930 . S
C846 C844 1.378 . S
C846 C847 1.367 . S
C847 C846 1.367 . S
C847 C849 1.433 . S
C848 C844 1.350 . S
C848 C845 1.463 . S
C848 N852 1.427 . S
C849 H839 0.929 . S
C849 C847 1.433 . S
C849 N852 1.384 . S
C850 H841 0.929 . S
C850 C842 1.378 . S
C850 C845 1.350 . S
C851 H838 0.929 1_455 S
C851 C843 1.433 . S
C851 N853 1.384 . S
N852 C848 1.427 . S
N852 C849 1.384 . S
N853 C845 1.427 . S
N853 C851 1.384 . S
H854 C860 0.930 . S
H855 C864 0.930 . S
H856 C869 0.929 . S
H857 C867 0.929 . S
H858 C862 0.929 . S
H859 C868 0.929 . S
C860 H854 0.930 . S
C860 C861 1.367 . S
C860 C868 1.378 . S
C861 C860 1.367 . S
C861 C869 1.433 . S
C862 H858 0.929 . S
C862 C864 1.378 . S
C862 C866 1.350 . S
C863 C866 1.463 . S
C863 C868 1.350 . S
C863 N871 1.427 . S
C864 H855 0.930 . S
C864 C862 1.378 . S
C864 C865 1.367 . S
C865 C864 1.367 . S
C865 C867 1.433 . S
C866 C862 1.350 . S
C866 C863 1.463 . S
C866 N870 1.427 . S
C867 H857 0.929 . S
C867 C865 1.433 . S
C867 N870 1.384 . S
C868 H859 0.929 . S
C868 C860 1.378 . S
C868 C863 1.350 . S
C869 H856 0.929 . S
C869 C861 1.433 . S
C869 N871 1.384 . S
N870 C866 1.427 . S
N870 C867 1.384 . S
N871 C863 1.427 . S
N871 C869 1.384 . S
H872 C878 0.930 . S
H873 C882 0.930 . S
H874 C887 0.929 . S
H875 C885 0.929 1_455 S
H876 C880 0.929 . S
H877 C886 0.929 . S
C878 H872 0.930 . S
C878 C879 1.367 . S
C878 C886 1.378 . S
C879 C878 1.367 . S
C879 C887 1.433 . S
C880 H876 0.929 . S
C880 C882 1.378 . S
C880 C884 1.350 . S
C881 C884 1.463 . S
C881 C886 1.350 . S
C881 N889 1.427 . S
C882 H873 0.930 . S
C882 C880 1.378 . S
C882 C883 1.367 . S
C883 C882 1.367 . S
C883 C885 1.433 . S
C884 C880 1.350 . S
C884 C881 1.463 . S
C884 N888 1.427 . S
C885 H875 0.929 1_655 S
C885 C883 1.433 . S
C885 N888 1.384 . S
C886 H877 0.929 . S
C886 C878 1.378 . S
C886 C881 1.350 . S
C887 H874 0.929 . S
C887 C879 1.433 . S
C887 N889 1.384 . S
N888 C884 1.427 . S
N888 C885 1.384 . S
N889 C881 1.427 . S
N889 C887 1.384 . S
H890 C896 0.943 . S
H891 C900 0.930 . S
H892 C905 0.929 . S
H893 C903 0.929 . S
H894 C898 0.929 . S
H895 C904 0.929 . S
C896 H890 0.943 . S
C896 C897 1.367 . S
C896 C904 1.378 . S
C897 C896 1.367 . S
C897 C905 1.433 . S
C898 H894 0.929 . S
C898 C900 1.378 . S
C898 C902 1.350 . S
C899 C902 1.463 . S
C899 C904 1.350 . S
C899 N907 1.427 . S
C900 H891 0.930 . S
C900 C898 1.378 . S
C900 C901 1.367 . S
C901 C900 1.367 . S
C901 C903 1.433 . S
C902 C898 1.350 . S
C902 C899 1.463 . S
C902 N906 1.427 . S
C903 H893 0.929 . S
C903 C901 1.433 . S
C903 N906 1.384 . S
C904 H895 0.929 . S
C904 C896 1.378 . S
C904 C899 1.350 . S
C905 H892 0.929 . S
C905 C897 1.433 . S
C905 N907 1.384 . S
N906 C902 1.427 . S
N906 C903 1.384 . S
N907 C899 1.427 . S
N907 C905 1.384 . S
H908 C914 0.930 . S
H909 C918 0.930 . S
H910 C923 0.929 . S
H911 C921 0.929 1_655 S
H912 C916 0.929 . S
H913 C922 0.929 . S
C914 H908 0.930 . S
C914 C915 1.367 . S
C914 C922 1.378 . S
C915 C914 1.367 . S
C915 C923 1.433 . S
C916 H912 0.929 . S
C916 C918 1.378 . S
C916 C920 1.350 . S
C917 C920 1.463 . S
C917 C922 1.350 . S
C917 N925 1.427 . S
C918 H909 0.930 . S
C918 C916 1.378 . S
C918 C919 1.367 . S
C919 C918 1.367 . S
C919 C921 1.433 . S
C920 C916 1.350 . S
C920 C917 1.463 . S
C920 N924 1.427 . S
C921 H911 0.929 1_455 S
C921 C919 1.433 . S
C921 N924 1.384 . S
C922 H913 0.929 . S
C922 C914 1.378 . S
C922 C917 1.350 . S
C923 H910 0.929 . S
C923 C915 1.433 . S
C923 N925 1.384 . S
N924 C920 1.427 . S
N924 C921 1.384 . S
N925 C917 1.427 . S
N925 C923 1.384 . S
H926 C932 0.930 . S
H927 C936 0.930 . S
H928 C941 0.928 . S
H929 C939 0.929 . S
H930 C934 0.929 . S
H931 C940 0.929 . S
C932 H926 0.930 . S
C932 C933 1.367 . S
C932 C940 1.378 . S
C933 C932 1.367 . S
C933 C941 1.433 . S
C934 H930 0.929 . S
C934 C936 1.378 . S
C934 C938 1.350 . S
C935 C938 1.463 . S
C935 C940 1.350 . S
C935 N943 1.427 . S
C936 H927 0.930 . S
C936 C934 1.378 . S
C936 C937 1.367 . S
C937 C936 1.367 . S
C937 C939 1.433 . S
C938 C934 1.350 . S
C938 C935 1.463 . S
C938 N942 1.427 . S
C939 H929 0.929 . S
C939 C937 1.433 . S
C939 N942 1.384 . S
C940 H931 0.929 . S
C940 C932 1.378 . S
C940 C935 1.350 . S
C941 H928 0.928 . S
C941 C933 1.433 . S
C941 N943 1.384 . S
N942 C938 1.427 . S
N942 C939 1.384 . S
N943 C935 1.427 . S
N943 C941 1.384 . S
H944 C950 0.930 . S
H945 C954 0.930 . S
H946 C959 0.929 . S
H947 C957 0.929 . S
H948 C952 0.929 . S
H949 C958 0.929 . S
C950 H944 0.930 . S
C950 C951 1.367 . S
C950 C958 1.378 . S
C951 C950 1.367 . S
C951 C959 1.433 . S
C952 H948 0.929 . S
C952 C954 1.378 . S
C952 C956 1.350 . S
C953 C956 1.463 1_554 S
C953 C958 1.350 . S
C953 N961 1.427 . S
C954 H945 0.930 . S
C954 C952 1.378 . S
C954 C955 1.367 . S
C955 C954 1.367 . S
C955 C957 1.433 . S
C956 C952 1.350 . S
C956 C953 1.463 1_556 S
C956 N960 1.427 . S
C957 H947 0.929 . S
C957 C955 1.433 . S
C957 N960 1.384 . S
C958 H949 0.929 . S
C958 C950 1.378 . S
C958 C953 1.350 . S
C959 H946 0.929 . S
C959 C951 1.433 . S
C959 N961 1.384 . S
N960 C956 1.427 . S
N960 C957 1.384 . S
N961 C953 1.427 . S
N961 C959 1.384 . S
H962 C968 0.930 . S
H963 C972 0.930 . S
H964 C977 0.929 . S
H965 C975 0.929 . S
H966 C970 0.929 . S
H967 C976 0.929 . S
C968 H962 0.930 . S
C968 C969 1.367 . S
C968 C976 1.378 . S
C969 C968 1.367 . S
C969 C977 1.433 . S
C970 H966 0.929 . S
C970 C972 1.378 . S
C970 C974 1.350 . S
C971 C974 1.463 1_556 S
C971 C976 1.350 . S
C971 N979 1.427 . S
C972 H963 0.930 . S
C972 C970 1.378 . S
C972 C973 1.367 . S
C973 C972 1.367 . S
C973 C975 1.433 . S
C974 C970 1.350 . S
C974 C971 1.463 1_554 S
C974 N978 1.427 . S
C975 H965 0.929 . S
C975 C973 1.433 . S
C975 N978 1.384 . S
C976 H967 0.929 . S
C976 C968 1.378 . S
C976 C971 1.350 . S
C977 H964 0.929 . S
C977 C969 1.433 . S
C977 N979 1.384 . S
N978 C974 1.427 . S
N978 C975 1.384 . S
N979 C971 1.427 . S
N979 C977 1.384 . S
H980 C986 0.930 . S
H981 C990 0.930 . S
H982 C995 0.929 . S
H983 C993 0.929 . S
H984 C988 0.929 . S
H985 C994 0.929 . S
C986 H980 0.930 . S
C986 C987 1.367 . S
C986 C994 1.378 . S
C987 C986 1.367 . S
C987 C995 1.433 . S
C988 H984 0.929 . S
C988 C990 1.378 . S
C988 C992 1.350 . S
C989 C992 1.463 1_556 S
C989 C994 1.350 . S
C989 N997 1.427 . S
C990 H981 0.930 . S
C990 C988 1.378 . S
C990 C991 1.367 . S
C991 C990 1.367 . S
C991 C993 1.433 . S
C992 C988 1.350 . S
C992 C989 1.463 1_554 S
C992 N996 1.427 . S
C993 H983 0.929 . S
C993 C991 1.433 . S
C993 N996 1.384 . S
C994 H985 0.929 . S
C994 C986 1.378 . S
C994 C989 1.350 . S
C995 H982 0.929 . S
C995 C987 1.433 . S
C995 N997 1.384 . S
N996 C992 1.427 . S
N996 C993 1.384 . S
N997 C989 1.427 . S
N997 C995 1.384 . S
H998 C1004 0.930 . S
H999 C1008 0.930 . S
H1000 C1013 0.929 . S
H1001 C1011 0.929 . S
H1002 C1006 0.929 1_556 S
H1003 C1012 0.929 1_554 S
C1004 H998 0.930 . S
C1004 C1005 1.367 . S
C1004 C1012 1.378 . S
C1005 C1004 1.367 . S
C1005 C1013 1.433 . S
C1006 H1002 0.929 1_554 S
C1006 C1008 1.378 . S
C1006 C1010 1.350 . S
C1007 C1010 1.463 1_556 S
C1007 C1012 1.350 . S
C1007 N1015 1.427 . S
C1008 H999 0.930 . S
C1008 C1006 1.378 . S
C1008 C1009 1.367 . S
C1009 C1008 1.367 . S
C1009 C1011 1.433 . S
C1010 C1006 1.350 . S
C1010 C1007 1.463 1_554 S
C1010 N1014 1.427 . S
C1011 H1001 0.929 . S
C1011 C1009 1.433 . S
C1011 N1014 1.384 . S
C1012 H1003 0.929 1_556 S
C1012 C1004 1.378 . S
C1012 C1007 1.350 . S
C1013 H1000 0.929 . S
C1013 C1005 1.433 . S
C1013 N1015 1.384 . S
N1014 C1010 1.427 . S
N1014 C1011 1.384 . S
N1015 C1007 1.427 . S
N1015 C1013 1.384 . S
H1016 C1022 0.930 . S
H1017 C1026 0.930 . S
H1018 C1031 0.929 . S
H1019 C1029 0.929 . S
H1020 C1024 0.929 . S
H1021 C1030 0.929 . S
C1022 H1016 0.930 . S
C1022 C1023 1.367 . S
C1022 C1030 1.378 . S
C1023 C1022 1.367 . S
C1023 C1031 1.433 . S
C1024 H1020 0.929 . S
C1024 C1026 1.378 . S
C1024 C1028 1.350 . S
C1025 C1028 1.463 . S
C1025 C1030 1.350 . S
C1025 N1033 1.427 . S
C1026 H1017 0.930 . S
C1026 C1024 1.378 . S
C1026 C1027 1.367 . S
C1027 C1026 1.367 . S
C1027 C1029 1.433 . S
C1028 C1024 1.350 . S
C1028 C1025 1.463 . S
C1028 N1032 1.427 . S
C1029 H1019 0.929 . S
C1029 C1027 1.433 . S
C1029 N1032 1.384 . S
C1030 H1021 0.929 . S
C1030 C1022 1.378 . S
C1030 C1025 1.350 . S
C1031 H1018 0.929 . S
C1031 C1023 1.433 . S
C1031 N1033 1.384 . S
N1032 C1028 1.427 . S
N1032 C1029 1.384 . S
N1033 C1025 1.427 . S
N1033 C1031 1.384 . S
H1034 C1040 0.930 . S
H1035 C1044 0.930 . S
H1036 C1049 0.929 . S
H1037 C1047 0.929 . S
H1038 C1042 0.929 . S
H1039 C1048 0.929 . S
C1040 H1034 0.930 . S
C1040 C1041 1.367 . S
C1040 C1048 1.378 . S
C1041 C1040 1.367 . S
C1041 C1049 1.433 . S
C1042 H1038 0.929 . S
C1042 C1044 1.378 . S
C1042 C1046 1.350 . S
C1043 C1046 1.463 . S
C1043 C1048 1.350 . S
C1043 N1051 1.427 . S
C1044 H1035 0.930 . S
C1044 C1042 1.378 . S
C1044 C1045 1.367 . S
C1045 C1044 1.367 . S
C1045 C1047 1.433 . S
C1046 C1042 1.350 . S
C1046 C1043 1.463 . S
C1046 N1050 1.427 . S
C1047 H1037 0.929 . S
C1047 C1045 1.433 . S
C1047 N1050 1.384 . S
C1048 H1039 0.929 . S
C1048 C1040 1.378 . S
C1048 C1043 1.350 . S
C1049 H1036 0.929 . S
C1049 C1041 1.433 . S
C1049 N1051 1.384 . S
N1050 C1046 1.427 . S
N1050 C1047 1.384 . S
N1051 C1043 1.427 . S
N1051 C1049 1.384 . S
H1052 C1058 0.930 . S
H1053 C1062 0.930 . S
H1054 C1067 0.929 . S
H1055 C1065 0.929 . S
H1056 C1060 0.929 . S
H1057 C1066 0.929 . S
C1058 H1052 0.930 . S
C1058 C1059 1.367 . S
C1058 C1066 1.378 . S
C1059 C1058 1.367 . S
C1059 C1067 1.433 . S
C1060 H1056 0.929 . S
C1060 C1062 1.378 . S
C1060 C1064 1.350 . S
C1061 C1064 1.463 . S
C1061 C1066 1.350 . S
C1061 N1069 1.427 . S
C1062 H1053 0.930 . S
C1062 C1060 1.378 . S
C1062 C1063 1.367 . S
C1063 C1062 1.367 . S
C1063 C1065 1.433 . S
C1064 C1060 1.350 . S
C1064 C1061 1.463 . S
C1064 N1068 1.427 . S
C1065 H1055 0.929 . S
C1065 C1063 1.433 . S
C1065 N1068 1.384 . S
C1066 H1057 0.929 . S
C1066 C1058 1.378 . S
C1066 C1061 1.350 . S
C1067 H1054 0.929 . S
C1067 C1059 1.433 . S
C1067 N1069 1.384 . S
N1068 C1064 1.427 . S
N1068 C1065 1.384 . S
N1069 C1061 1.427 . S
N1069 C1067 1.384 . S
H1070 C1076 0.930 . S
H1071 C1080 0.930 . S
H1072 C1085 0.929 . S
H1073 C1083 0.929 . S
H1074 C1078 0.929 . S
H1075 C1084 0.929 . S
C1076 H1070 0.930 . S
C1076 C1077 1.367 . S
C1076 C1084 1.378 . S
C1077 C1076 1.367 . S
C1077 C1085 1.433 . S
C1078 H1074 0.929 . S
C1078 C1080 1.378 . S
C1078 C1082 1.350 . S
C1079 C1082 1.463 . S
C1079 C1084 1.350 . S
C1079 N1087 1.427 . S
C1080 H1071 0.930 . S
C1080 C1078 1.378 . S
C1080 C1081 1.367 . S
C1081 C1080 1.367 . S
C1081 C1083 1.433 . S
C1082 C1078 1.350 . S
C1082 C1079 1.463 . S
C1082 N1086 1.427 . S
C1083 H1073 0.929 . S
C1083 C1081 1.433 . S
C1083 N1086 1.384 . S
C1084 H1075 0.929 . S
C1084 C1076 1.378 . S
C1084 C1079 1.350 . S
C1085 H1072 0.929 . S
C1085 C1077 1.433 . S
C1085 N1087 1.384 . S
N1086 C1082 1.427 . S
N1086 C1083 1.384 . S
N1087 C1079 1.427 . S
N1087 C1085 1.384 . S
H1088 C1094 0.930 . S
H1089 C1098 0.930 . S
H1090 C1103 0.929 . S
H1091 C1101 0.929 . S
H1092 C1096 0.929 . S
H1093 C1102 0.929 . S
C1094 H1088 0.930 . S
C1094 C1095 1.367 . S
C1094 C1102 1.378 . S
C1095 C1094 1.367 . S
C1095 C1103 1.433 . S
C1096 H1092 0.929 . S
C1096 C1098 1.378 . S
C1096 C1100 1.350 . S
C1097 C1100 1.463 1_556 S
C1097 C1102 1.350 . S
C1097 N1105 1.427 . S
C1098 H1089 0.930 . S
C1098 C1096 1.378 . S
C1098 C1099 1.367 . S
C1099 C1098 1.367 . S
C1099 C1101 1.433 . S
C1100 C1096 1.350 . S
C1100 C1097 1.463 1_554 S
C1100 N1104 1.427 . S
C1101 H1091 0.929 . S
C1101 C1099 1.433 . S
C1101 N1104 1.384 . S
C1102 H1093 0.929 . S
C1102 C1094 1.378 . S
C1102 C1097 1.350 . S
C1103 H1090 0.929 . S
C1103 C1095 1.433 . S
C1103 N1105 1.384 . S
N1104 C1100 1.427 . S
N1104 C1101 1.384 . S
N1105 C1097 1.427 . S
N1105 C1103 1.384 . S
H1106 C1112 0.930 . S
H1107 C1116 0.930 . S
H1108 C1121 0.929 . S
H1109 C1119 0.929 . S
H1110 C1114 0.929 1_554 S
H1111 C1120 0.929 1_556 S
C1112 H1106 0.930 . S
C1112 C1113 1.367 . S
C1112 C1120 1.378 . S
C1113 C1112 1.367 . S
C1113 C1121 1.433 . S
C1114 H1110 0.929 1_556 S
C1114 C1116 1.378 . S
C1114 C1118 1.350 . S
C1115 C1118 1.463 1_554 S
C1115 C1120 1.350 . S
C1115 N1123 1.427 . S
C1116 H1107 0.930 . S
C1116 C1114 1.378 . S
C1116 C1117 1.367 . S
C1117 C1116 1.367 . S
C1117 C1119 1.433 . S
C1118 C1114 1.350 . S
C1118 C1115 1.463 1_556 S
C1118 N1122 1.427 . S
C1119 H1109 0.929 . S
C1119 C1117 1.433 . S
C1119 N1122 1.384 . S
C1120 H1111 0.929 1_554 S
C1120 C1112 1.378 . S
C1120 C1115 1.350 . S
C1121 H1108 0.929 . S
C1121 C1113 1.433 . S
C1121 N1123 1.384 . S
N1122 C1118 1.427 . S
N1122 C1119 1.384 . S
N1123 C1115 1.427 . S
N1123 C1121 1.384 . S
H1124 C1130 0.930 . S
H1125 C1134 0.930 . S
H1126 C1139 0.929 . S
H1127 C1137 0.929 . S
H1128 C1132 0.929 . S
H1129 C1138 0.929 . S
C1130 H1124 0.930 . S
C1130 C1131 1.367 . S
C1130 C1138 1.378 . S
C1131 C1130 1.367 . S
C1131 C1139 1.433 . S
C1132 H1128 0.929 . S
C1132 C1134 1.378 . S
C1132 C1136 1.350 . S
C1133 C1136 1.463 1_554 S
C1133 C1138 1.350 . S
C1133 N1141 1.427 . S
C1134 H1125 0.930 . S
C1134 C1132 1.378 . S
C1134 C1135 1.367 . S
C1135 C1134 1.367 . S
C1135 C1137 1.433 . S
C1136 C1132 1.350 . S
C1136 C1133 1.463 1_556 S
C1136 N1140 1.427 . S
C1137 H1127 0.929 . S
C1137 C1135 1.433 . S
C1137 N1140 1.384 . S
C1138 H1129 0.929 . S
C1138 C1130 1.378 . S
C1138 C1133 1.350 . S
C1139 H1126 0.929 . S
C1139 C1131 1.433 . S
C1139 N1141 1.384 . S
N1140 C1136 1.427 . S
N1140 C1137 1.384 . S
N1141 C1133 1.427 . S
N1141 C1139 1.384 . S
H1142 C1148 0.930 . S
H1143 C1152 0.930 . S
H1144 C1157 0.929 . S
H1145 C1155 0.929 . S
H1146 C1150 0.929 . S
H1147 C1156 0.929 . S
C1148 H1142 0.930 . S
C1148 C1149 1.367 . S
C1148 C1156 1.378 . S
C1149 C1148 1.367 . S
C1149 C1157 1.433 . S
C1150 H1146 0.929 . S
C1150 C1152 1.378 . S
C1150 C1154 1.350 . S
C1151 C1154 1.463 1_554 S
C1151 C1156 1.350 . S
C1151 N1159 1.427 . S
C1152 H1143 0.930 . S
C1152 C1150 1.378 . S
C1152 C1153 1.367 . S
C1153 C1152 1.367 . S
C1153 C1155 1.433 . S
C1154 C1150 1.350 . S
C1154 C1151 1.463 1_556 S
C1154 N1158 1.427 . S
C1155 H1145 0.929 . S
C1155 C1153 1.433 . S
C1155 N1158 1.384 . S
C1156 H1147 0.929 . S
C1156 C1148 1.378 . S
C1156 C1151 1.350 . S
C1157 H1144 0.929 . S
C1157 C1149 1.433 . S
C1157 N1159 1.384 . S
N1158 C1154 1.427 . S
N1158 C1155 1.384 . S
N1159 C1151 1.427 . S
N1159 C1157 1.384 . S
H1160 C1166 0.930 . S
H1161 C1170 0.930 . S
H1162 C1175 0.929 . S
H1163 C1173 0.929 . S
H1164 C1168 0.929 . S
H1165 C1174 0.929 . S
C1166 H1160 0.930 . S
C1166 C1167 1.367 . S
C1166 C1174 1.378 . S
C1167 C1166 1.367 . S
C1167 C1175 1.433 . S
C1168 H1164 0.929 . S
C1168 C1170 1.378 . S
C1168 C1172 1.350 . S
C1169 C1172 1.463 1_545 S
C1169 C1174 1.350 . S
C1169 N1177 1.427 . S
C1170 H1161 0.930 . S
C1170 C1168 1.378 . S
C1170 C1171 1.367 . S
C1171 C1170 1.367 . S
C1171 C1173 1.433 . S
C1172 C1168 1.350 . S
C1172 C1169 1.463 1_565 S
C1172 N1176 1.427 . S
C1173 H1163 0.929 . S
C1173 C1171 1.433 . S
C1173 N1176 1.384 . S
C1174 H1165 0.929 . S
C1174 C1166 1.378 . S
C1174 C1169 1.350 . S
C1175 H1162 0.929 . S
C1175 C1167 1.433 . S
C1175 N1177 1.384 . S
N1176 C1172 1.427 . S
N1176 C1173 1.384 . S
N1177 C1169 1.427 . S
N1177 C1175 1.384 . S
H1178 C1184 0.930 . S
H1179 C1188 0.930 . S
H1180 C1193 0.929 . S
H1181 C1191 0.929 . S
H1182 C1186 0.929 . S
H1183 C1192 0.929 . S
C1184 H1178 0.930 . S
C1184 C1185 1.367 . S
C1184 C1192 1.378 . S
C1185 C1184 1.367 . S
C1185 C1193 1.433 . S
C1186 H1182 0.929 . S
C1186 C1188 1.378 . S
C1186 C1190 1.350 . S
C1187 C1190 1.463 1_655 S
C1187 C1192 1.350 . S
C1187 N1195 1.427 . S
C1188 H1179 0.930 . S
C1188 C1186 1.378 . S
C1188 C1189 1.367 . S
C1189 C1188 1.367 . S
C1189 C1191 1.433 . S
C1190 C1186 1.350 . S
C1190 C1187 1.463 1_455 S
C1190 N1194 1.427 . S
C1191 H1181 0.929 . S
C1191 C1189 1.433 . S
C1191 N1194 1.384 . S
C1192 H1183 0.929 . S
C1192 C1184 1.378 . S
C1192 C1187 1.350 . S
C1193 H1180 0.929 . S
C1193 C1185 1.433 . S
C1193 N1195 1.384 . S
N1194 C1190 1.427 . S
N1194 C1191 1.384 . S
N1195 C1187 1.427 . S
N1195 C1193 1.384 . S
H1196 C1202 0.930 . S
H1197 C1206 0.930 . S
H1198 C1211 0.929 . S
H1199 C1209 0.929 . S
H1200 C1204 0.929 . S
H1201 C1210 0.929 . S
C1202 H1196 0.930 . S
C1202 C1203 1.367 . S
C1202 C1210 1.378 . S
C1203 C1202 1.367 . S
C1203 C1211 1.433 . S
C1204 H1200 0.929 . S
C1204 C1206 1.378 . S
C1204 C1208 1.350 . S
C1205 C1208 1.463 1_565 S
C1205 C1210 1.350 . S
C1205 N1213 1.427 . S
C1206 H1197 0.930 . S
C1206 C1204 1.378 . S
C1206 C1207 1.367 . S
C1207 C1206 1.367 . S
C1207 C1209 1.433 . S
C1208 C1204 1.350 . S
C1208 C1205 1.463 1_545 S
C1208 N1212 1.427 . S
C1209 H1199 0.929 . S
C1209 C1207 1.433 . S
C1209 N1212 1.384 . S
C1210 H1201 0.929 . S
C1210 C1202 1.378 . S
C1210 C1205 1.350 . S
C1211 H1198 0.929 . S
C1211 C1203 1.433 . S
C1211 N1213 1.384 . S
N1212 C1208 1.427 . S
N1212 C1209 1.384 . S
N1213 C1205 1.427 . S
N1213 C1211 1.384 . S
H1214 C1220 0.930 . S
H1215 C1224 0.930 . S
H1216 C1229 0.929 . S
H1217 C1227 0.929 . S
H1218 C1222 0.929 . S
H1219 C1228 0.929 . S
C1220 H1214 0.930 . S
C1220 C1221 1.367 . S
C1220 C1228 1.378 . S
C1221 C1220 1.367 . S
C1221 C1229 1.433 . S
C1222 H1218 0.929 . S
C1222 C1224 1.378 . S
C1222 C1226 1.350 . S
C1223 C1226 1.463 1_655 S
C1223 C1228 1.350 . S
C1223 N1231 1.427 . S
C1224 H1215 0.930 . S
C1224 C1222 1.378 . S
C1224 C1225 1.367 . S
C1225 C1224 1.367 . S
C1225 C1227 1.433 . S
C1226 C1222 1.350 . S
C1226 C1223 1.463 1_455 S
C1226 N1230 1.427 . S
C1227 H1217 0.929 . S
C1227 C1225 1.433 . S
C1227 N1230 1.384 . S
C1228 H1219 0.929 . S
C1228 C1220 1.378 . S
C1228 C1223 1.350 . S
C1229 H1216 0.929 . S
C1229 C1221 1.433 . S
C1229 N1231 1.384 . S
N1230 C1226 1.427 . S
N1230 C1227 1.384 . S
N1231 C1223 1.427 . S
N1231 C1229 1.384 . S
C375 C16 1.188 . S
C379 C361 1.182 . S
C393 C292 1.188 . S
C397 C39 1.182 . S
C411 C62 1.180 . S
C415 C315 1.178 . S
C429 C338 1.189 . S
C433 C85 1.189 . S
C447 C108 1.181 . S
C451 C223 1.187 . S
C465 C246 1.186 . S
C469 C131 1.180 . S
C483 C154 1.189 . S
C487 C269 1.184 . S
C501 C200 1.179 . S
C505 C177 1.186 . S
C519 C67 1.634 . S
C523 C21 1.643 . S
C537 C90 1.635 . S
C541 C44 1.637 . S
C555 C159 1.634 . S
C559 C113 1.637 . S
C573 C182 1.640 . S
C577 C136 1.649 . S
C591 C205 1.646 . S
C595 C251 1.636 . S
C609 C228 1.634 . S
C613 C274 1.640 . S
C627 C343 1.634 . S
C631 C297 1.638 . S
C645 C366 1.639 . S
C649 C320 1.649 . S
C663 C18 1.004 . S
C667 C43 1.001 . S
C681 C66 1.003 . S
C685 C41 0.994 . S
C699 C64 0.997 . S
C703 C89 1.008 . S
C717 C20 1.001 . S
C721 C87 0.998 . S
C735 C110 0.994 . S
C739 C181 1.004 . S
C753 C112 1.002 . S
C757 C133 0.996 . S
C771 C156 0.996 . S
C775 C135 1.002 . S
C789 C158 1.000 . S
C793 C179 1.001 . S
C807 C202 0.995 . S
C811 C227 1.008 1_655 S
C825 C250 1.001 1_565 S
C829 C225 1.005 . S
C843 C273 1.003 1_455 S
C847 C248 0.995 . S
C861 C271 0.995 . S
C865 C204 1.008 1_545 S
C879 C294 0.992 . S
C883 C365 1.008 1_655 S
C897 C296 1.007 1_565 S
C901 C317 0.998 . S
C915 C340 0.992 . S
C919 C319 1.005 1_455 S
C933 C342 1.001 1_545 S
C937 C363 0.999 . S
C951 C19 1.809 . S
C955 C134 1.822 . S
C969 C157 1.814 . S
C973 C42 1.811 . S
C987 C180 1.811 . S
C991 C65 1.814 . S
C1005 C111 1.817 . S
C1009 C88 1.821 . S
C1023 C318 1.814 . S
C1027 C203 1.811 . S
C1041 C226 1.811 . S
C1045 C341 1.814 . S
C1059 C364 1.820 . S
C1063 C249 1.818 . S
C1077 C272 1.822 . S
C1081 C295 1.815 . S
C1095 C109 0.589 . S
C1099 C17 0.581 . S
C1113 C40 0.592 . S
C1117 C132 0.597 . S
C1131 C63 0.585 . S
C1135 C155 0.592 . S
C1149 C86 0.585 . S
C1153 C178 0.579 . S
C1167 C293 0.593 . S
C1171 C201 0.597 . S
C1185 C316 0.582 . S
C1189 C224 0.589 . S
C1203 C339 0.593 . S
C1207 C247 0.586 . S
C1221 C270 0.596 . S
C1225 C362 0.590 . S
