# Generated by pormake.
# Topology kag, (6)-cn, num edge types: 1
# Building blocks:
#     Node 0, Type 0, BuildingBlock: NUHQIS_clean_sbu_0, # of connection points: 6
#     Node 1, Type 0, BuildingBlock: NUHQIS_clean_sbu_0, # of connection points: 6
#     Node 2, Type 0, BuildingBlock: NUHQIS_clean_sbu_0, # of connection points: 6
#     Edge 3, Type (0, 0), BuildingBlock: UVAHIK_clean_linker_0, # of connection points: 2
#     Edge 4, Type (0, 0), BuildingBlock: UVAHIK_clean_linker_0, # of connection points: 2
#     Edge 5, Type (0, 0), BuildingBlock: UVAHIK_clean_linker_0, # of connection points: 2
#     Edge 6, Type (0, 0), BuildingBlock: UVAHIK_clean_linker_0, # of connection points: 2
#     Edge 7, Type (0, 0), BuildingBlock: UVAHIK_clean_linker_0, # of connection points: 2
#     Edge 8, Type (0, 0), BuildingBlock: UVAHIK_clean_linker_0, # of connection points: 2
#     Edge 9, Type (0, 0), BuildingBlock: UVAHIK_clean_linker_0, # of connection points: 2
#     Edge 10, Type (0, 0), BuildingBlock: UVAHIK_clean_linker_0, # of connection points: 2
#     Edge 11, Type (0, 0), BuildingBlock: UVAHIK_clean_linker_0, # of connection points: 2
# Relax obj value: 0.055
# Max RMSD: 0.164
# Mean RMSD: 0.096
data_MOF--net-kag--node1-NUHQIS_clean_sbu_0--edge1-UVAHIK_clean_linker_0
_symmetry_space_group_name_H-M    P1
_symmetry_Int_Tables_number       1
_symmetry_cell_setting            triclinic
loop_
_symmetry_equiv_pos_as_xyz
'x, y, z'
_cell_length_a     59.108802
_cell_length_b     39.864065
_cell_length_c     19.735152
_cell_angle_alpha  87.551856
_cell_angle_beta   96.520666
_cell_angle_gamma 121.82942
loop_
_atom_site_label
_atom_site_type_symbol
_atom_site_fract_x
_atom_site_fract_y
_atom_site_fract_z
_atom_type_partial_charge
Tb0 Tb 0.03493 0.50789 0.00285 0.0
Eu1 Eu 1.02006 0.57685 -0.00848 0.0
C2 C 0.02943 0.54318 0.13223 0.0
C3 C 0.97443 0.48471 -0.00597 0.0
C4 C 0.07534 0.4617 0.00195 0.0
C5 C 0.11651 0.4657 0.04984 0.0
C6 C 0.09183 0.46089 0.05832 0.0
C7 C 0.08374 0.4663 0.93644 0.0
C8 C 0.10836 0.47071 0.92788 0.0
C9 C 0.12515 0.47096 0.98463 0.0
C10 C 0.05018 0.45932 0.01319 0.0
O11 O 0.0419 0.53163 0.90105 0.0
O12 O 1.00973 0.54721 0.88856 0.0
O13 O 0.06317 0.60812 0.97146 0.0
O14 O 0.07299 0.56386 0.02338 0.0
C15 C 0.02542 0.53859 0.86192 0.0
O16 O 1.00845 0.61379 0.93111 0.0
O17 O 1.01393 0.61878 0.04115 0.0
O18 O 0.03694 0.57604 0.09924 0.0
O19 O 1.0212 0.51024 0.09904 0.0
O20 O 0.99138 0.4753 0.97693 0.0
O21 O 0.98239 0.52075 0.01349 0.0
C22 C 0.08057 0.59866 -0.00318 0.0
O23 O 0.05199 0.4808 0.06392 0.0
O24 O 0.03562 0.46107 0.95983 0.0
C25 C 0.97883 0.62514 0.98381 0.0
C26 C 0.92881 0.61887 0.98097 0.0
C27 C 0.94207 0.62855 0.92181 0.0
C28 C 0.96689 0.63184 0.92333 0.0
C29 C 0.96556 0.61553 0.043 0.0
C30 C 0.94086 0.61245 0.04155 0.0
C31 C 1.00484 0.62784 0.98458 0.0
H32 H 0.12884 0.46518 0.09441 0.0
H33 H 0.08579 0.45712 0.1093 0.0
H34 H 0.07154 0.46711 0.89187 0.0
H35 H 0.11457 0.47489 0.87706 0.0
H36 H 0.93342 0.6341 0.87456 0.0
H37 H 0.97673 0.63953 0.87708 0.0
H38 H 0.97413 0.61015 0.09056 0.0
H39 H 0.93101 0.60451 0.08779 0.0
Tb40 Tb 0.56117 0.07007 0.009 0.0
Eu41 Eu 0.49429 1.02278 -0.00789 0.0
C42 C 0.52938 0.04871 0.13472 0.0
C43 C 0.52498 0.97554 0.00471 0.0
C44 C 0.63738 0.13984 0.00825 0.0
C45 C 0.679 0.20033 0.04783 0.0
C46 C 0.65277 0.17034 0.05728 0.0
C47 C 0.64857 0.14075 0.94846 0.0
C48 C 0.67483 0.17071 0.93907 0.0
C49 C 0.69059 0.20038 -0.01065 0.0
C50 C 0.61178 0.10445 0.0246 0.0
O51 O 0.54897 0.07478 0.90262 0.0
O52 O 0.50713 1.01822 0.89163 0.0
O53 O 0.5087 0.08599 0.96799 0.0
O54 O 0.55269 0.11702 0.01568 0.0
C55 C 0.52831 0.04649 0.86485 0.0
O56 O 0.45562 1.00374 0.93253 0.0
O57 O 0.45743 0.99168 0.04067 0.0
O58 O 0.51064 0.05092 0.09646 0.0
O59 O 0.54738 0.04564 0.10718 0.0
O60 O 0.54724 1.00812 -0.00873 0.0
O61 O 0.50348 0.97533 0.01667 0.0
C62 C 0.53145 0.11797 -0.01018 0.0
O63 O 0.59787 0.10872 0.06646 0.0
O64 O 0.59643 0.07907 0.97554 0.0
C65 C 0.41582 0.94956 0.97354 0.0
C66 C 0.36208 0.88506 0.96359 0.0
C67 C 0.37107 0.91359 0.91244 0.0
C68 C 0.39758 0.94552 0.91754 0.0
C69 C 0.40726 0.92005 0.02301 0.0
C70 C 0.38071 0.88815 0.01803 0.0
C71 C 0.44204 0.98715 0.98456 0.0
H72 H 0.69062 0.22241 0.088 0.0
H73 H 0.64497 0.17014 0.10449 0.0
H74 H 0.63744 0.1175 0.90994 0.0
H75 H 0.68299 0.17014 0.89299 0.0
H76 H 0.35742 0.9118 0.86917 0.0
H77 H 0.40354 0.96795 0.87895 0.0
H78 H 0.42071 0.92239 0.06721 0.0
H79 H 0.3745 0.867 0.05869 0.0
Tb80 Tb 0.49384 0.51894 -0.0104 0.0
Eu81 Eu 0.56019 0.57286 0.00717 0.0
C82 C 0.5262 0.54511 0.86252 0.0
C83 C 0.52746 0.47751 -0.00126 0.0
C84 C 0.42105 0.48762 0.97239 0.0
C85 C 0.38532 0.48969 0.90117 0.0
C86 C 0.40741 0.48517 0.90782 0.0
C87 C 0.41216 0.49487 0.03003 0.0
C88 C 0.39013 0.49936 0.0234 0.0
C89 C 0.37628 0.49654 0.959 0.0
C90 C 0.44314 0.47986 0.9805 0.0
O91 O 0.5082 0.5149 0.09439 0.0
O92 O 0.54576 0.57637 0.1053 0.0
O93 O 0.54676 0.61551 0.98012 0.0
O94 O 0.50355 0.57887 0.00912 0.0
C95 C 0.5265 0.54537 0.13252 0.0
O96 O 0.59769 0.59338 0.07171 0.0
O97 O 0.59842 0.6144 0.96831 0.0
O98 O 0.5469 0.54802 0.90034 0.0
O99 O 0.50625 0.54302 0.88997 0.0
O100 O 0.50559 0.47664 0.97294 0.0
O101 O 0.54896 0.51 0.02477 0.0
C102 C 0.52454 0.61266 -0.00643 0.0
O103 O 0.4568 0.48656 0.92886 0.0
O104 O 0.45866 0.49161 0.03773 0.0
C105 C 0.63516 0.60816 0.01511 0.0
C106 C 0.68045 0.60292 0.00317 0.0
C107 C 0.67115 0.59973 0.06704 0.0
C108 C 0.6489 0.60253 0.07296 0.0
C109 C 0.64413 0.61073 0.95094 0.0
C110 C 0.66651 0.60805 0.94504 0.0
C111 C 0.61254 0.61326 0.02331 0.0
H112 H 0.37525 0.48766 0.85075 0.0
H113 H 0.41357 0.4792 0.86248 0.0
H114 H 0.42187 0.4963 0.08071 0.0
H115 H 0.38346 0.50382 0.06921 0.0
H116 H 0.68113 0.59515 0.11273 0.0
H117 H 0.6426 0.6007 0.12315 0.0
H118 H 0.63415 0.61542 0.90538 0.0
H119 H 0.67331 0.61107 0.89519 0.0
C120 C 1.00647 0.54253 0.74366 0.0
C121 C 1.0253 0.53814 0.78694 0.0
C122 C 1.00668 0.54272 0.67288 0.0
C123 C 1.02142 0.56543 0.5285 0.0
H124 H 0.03713 0.49545 0.44238 0.0
C125 C 0.03982 0.57814 0.24463 0.0
C126 C 0.02924 0.54282 0.20719 0.0
C127 C 0.03936 0.57759 0.31536 0.0
C128 C 0.03248 0.51496 0.46547 0.0
H129 H 0.05917 0.5306 0.78975 0.0
H130 H 0.05985 0.53168 0.66664 0.0
H131 H 0.03528 0.49331 0.56511 0.0
H132 H 1.00971 0.47916 0.21468 0.0
H133 H 1.00847 0.47816 0.33755 0.0
H134 H 1.01785 0.58627 0.42854 0.0
C135 C 0.04458 0.53424 0.68719 0.0
C136 C 0.03176 0.51409 0.53605 0.0
C137 C 0.04428 0.53384 0.75789 0.0
C138 C 1.01818 0.50696 0.24199 0.0
C139 C 1.0176 0.50639 0.3126 0.0
C140 C 1.02202 0.56618 0.45784 0.0
C141 C 0.0258 0.53871 0.64377 0.0
C142 C 0.02627 0.53936 0.5685 0.0
C143 C 0.0282 0.54169 0.35021 0.0
C144 C 0.02759 0.54098 0.42544 0.0
H145 H 0.99148 0.54572 0.76436 0.0
H146 H 0.99166 0.54561 0.64096 0.0
H147 H 1.01743 0.58563 0.55185 0.0
H148 H 0.04858 0.60629 0.21942 0.0
H149 H 0.04806 0.60538 0.34282 0.0
C150 C 0.50652 1.03869 0.23941 0.0
C151 C 0.52976 0.0488 0.20974 0.0
C152 C 0.50669 1.03846 0.31026 0.0
C153 C 0.54633 1.0386 0.47181 0.0
H154 H 0.50178 0.06747 0.55179 0.0
C155 C 0.55324 0.06759 0.76144 0.0
C156 C 0.52879 0.04689 0.79006 0.0
C157 C 0.5537 0.06777 0.69073 0.0
C158 C 0.51421 0.05917 0.53002 0.0
H159 H 0.57154 0.06715 0.23089 0.0
H160 H 0.57225 0.06843 0.35448 0.0
H161 H 0.50251 0.0691 0.42848 0.0
H162 H 0.48564 1.01052 0.76704 0.0
H163 H 0.48648 1.01172 0.6433 0.0
H164 H 0.55861 1.03003 0.57428 0.0
C165 C 0.55357 0.0594 0.32332 0.0
C166 C 0.51454 0.05984 0.45928 0.0
C167 C 0.55325 0.05893 0.25236 0.0
C168 C 0.5048 1.02662 0.74652 0.0
C169 C 0.50525 1.02745 0.67578 0.0
C170 C 0.54633 1.03862 0.54267 0.0
C171 C 0.53026 0.04906 0.35333 0.0
C172 C 0.53044 0.04925 0.42903 0.0
C173 C 0.5297 0.0479 0.64728 0.0
C174 C 0.53012 0.04862 0.57234 0.0
H175 H 0.48801 1.03032 0.20786 0.0
H176 H 0.48817 1.02944 0.33111 0.0
H177 H 0.55846 1.02956 0.45066 0.0
H178 H 0.57206 0.08334 0.7937 0.0
H179 H 0.5728 0.08391 0.66991 0.0
C180 C 0.50133 0.5298 0.74534 0.0
C181 C 0.5256 0.54481 0.78742 0.0
C182 C 0.5008 0.52876 0.67438 0.0
C183 C 0.54232 0.53615 0.53847 0.0
H184 H 0.49158 0.55214 0.42164 0.0
C185 C 0.54929 0.56856 0.25057 0.0
C186 C 0.52585 0.54431 0.20723 0.0
C187 C 0.54877 0.56746 0.32126 0.0
C188 C 0.50572 0.54739 0.45378 0.0
H189 H 0.56845 0.5714 0.78814 0.0
H190 H 0.56777 0.57121 0.66484 0.0
H191 H 0.4919 0.55347 0.54526 0.0
H192 H 0.48341 0.50035 0.2037 0.0
H193 H 0.4824 0.49928 0.32758 0.0
H194 H 0.55672 0.53162 0.44644 0.0
C195 C 0.54893 0.55886 0.68622 0.0
C196 C 0.50586 0.54792 0.52465 0.0
C197 C 0.54937 0.55927 0.75711 0.0
C198 C 0.50181 0.51923 0.23592 0.0
C199 C 0.50118 0.51874 0.30662 0.0
C200 C 0.54248 0.53633 0.46771 0.0
C201 C 0.52461 0.54332 0.64376 0.0
C202 C 0.52419 0.54234 0.56807 0.0
C203 C 0.52469 0.54269 0.34988 0.0
C204 C 0.5242 0.54195 0.42477 0.0
H205 H 0.48264 0.51816 0.76727 0.0
H206 H 0.48163 0.51593 0.64372 0.0
H207 H 0.55632 0.53079 0.56982 0.0
H208 H 0.56813 0.58809 0.22992 0.0
H209 H 0.56712 0.58637 0.3536 0.0
C210 C 0.17439 0.50334 0.02029 0.0
C211 C 0.15175 0.47714 0.97634 0.0
C212 C 0.19933 0.5084 0.01417 0.0
C213 C 0.23716 0.49048 0.89689 0.0
H214 H 0.2818 0.50029 0.06399 0.0
C215 C 0.3291 0.47329 0.90884 0.0
C216 C 0.35186 0.49903 0.95314 0.0
C217 C 0.30543 0.47343 0.90758 0.0
C218 C 0.26974 0.49808 0.0168 0.0
H219 H 0.13751 0.4359 0.89117 0.0
H220 H 0.18094 0.44404 0.88122 0.0
H221 H 0.23907 0.49472 0.06987 0.0
H222 H 0.36788 0.54652 0.02825 0.0
H223 H 0.32654 0.54644 0.02647 0.0
H224 H 0.26777 0.49295 0.8441 0.0
C225 C 0.17959 0.46133 0.91963 0.0
C226 C 0.24521 0.49495 0.02012 0.0
C227 C 0.15466 0.45653 0.92541 0.0
C228 C 0.35059 0.52575 -0.00547 0.0
C229 C 0.32691 0.52575 -0.00652 0.0
C230 C 0.26166 0.49335 0.89362 0.0
C231 C 0.20222 0.48712 0.96431 0.0
C232 C 0.22856 0.49108 0.96025 0.0
C233 C 0.30394 0.49919 0.95077 0.0
C234 C 0.27822 0.49717 0.95358 0.0
H235 H 0.17285 0.52016 0.05926 0.0
H236 H 0.21637 0.52917 0.0485 0.0
H237 H 0.22508 0.48813 0.84969 0.0
H238 H 0.32923 0.45199 0.8769 0.0
H239 H 0.288 0.45235 0.87457 0.0
C240 C 0.7312 0.26942 0.00371 0.0
C241 C 0.71945 0.2298 0.98296 0.0
C242 C 0.7586 0.29644 0.00103 0.0
C243 C 0.82284 0.30154 -0.00229 0.0
H244 H 0.84847 0.40902 0.94128 0.0
C245 C 0.9351 0.41539 0.9682 0.0
C246 C 0.94537 0.45426 -0.00893 0.0
C247 C 0.90754 0.3873 0.9646 0.0
C248 C 0.8417 0.37922 0.95785 0.0
H249 H 0.7275 0.18766 0.94313 0.0
H250 H 0.77511 0.23488 0.93736 0.0
H251 H 0.80049 0.36184 0.93926 0.0
H252 H 0.9345 0.49375 0.02886 0.0
H253 H 0.88693 0.44499 0.02342 0.0
H254 H 0.86409 0.31907 0.01689 0.0
C255 C 0.76317 0.24501 0.95625 0.0
C256 C 0.81414 0.35215 0.95665 0.0
C257 C 0.73577 0.21803 0.95872 0.0
C258 C 0.92742 0.46421 0.01064 0.0
C259 C 0.89999 0.43624 0.00706 0.0
C260 C 0.85043 0.32867 -0.00099 0.0
C261 C 0.77499 0.28451 0.97776 0.0
C262 C 0.80434 0.31301 0.97701 0.0
C263 C 0.88962 0.39746 0.98368 0.0
C264 C 0.86023 0.36797 0.97963 0.0
H265 H 0.71922 0.27959 0.0222 0.0
H266 H 0.76705 0.32653 0.0186 0.0
H267 H 0.81603 0.27178 0.01458 0.0
H268 H 0.9483 0.40668 0.95259 0.0
H269 H 0.90024 0.3578 0.94581 0.0
C270 C 0.54671 0.93682 -0.00892 0.0
C271 C 0.52408 0.93754 0.00433 0.0
C272 C 0.54587 0.90115 -0.01069 0.0
C273 C 0.50865 0.79756 0.04558 0.0
H274 H 0.54345 0.78116 0.90659 0.0
C275 C 0.50005 0.64765 0.00626 0.0
C276 C 0.52343 0.64908 -0.00708 0.0
C277 C 0.49929 0.68218 0.0066 0.0
C278 C 0.53386 0.78538 0.9462 0.0
H279 H 0.48278 0.90096 0.02649 0.0
H280 H 0.4813 0.8387 0.02294 0.0
H281 H 0.54372 0.84237 0.90974 0.0
H282 H 0.56436 0.68825 0.96944 0.0
H283 H 0.56308 0.74818 0.97074 0.0
H284 H 0.49892 0.74058 0.08223 0.0
C285 C 0.4998 0.86588 0.01456 0.0
C286 C 0.53402 0.82053 0.94801 0.0
C287 C 0.50062 0.90161 0.01627 0.0
C288 C 0.54596 0.68588 0.97965 0.0
C289 C 0.54519 0.72033 0.98001 0.0
C290 C 0.50851 0.76236 0.0438 0.0
C291 C 0.52239 0.86518 0.00073 0.0
C292 C 0.52156 0.82721 -0.00203 0.0
C293 C 0.52187 0.71899 -0.00648 0.0
C294 C 0.52126 0.75592 -0.00567 0.0
H295 H 0.56519 0.96384 0.98192 0.0
H296 H 0.56378 0.90184 0.97961 0.0
H297 H 0.49914 0.80189 0.08526 0.0
H298 H 0.48228 0.61986 0.01649 0.0
H299 H 0.48089 0.67995 0.01638 0.0
C300 C 0.89744 0.63174 0.03391 0.0
C301 C 0.90255 0.61562 0.97998 0.0
C302 C 0.87262 0.62809 0.03406 0.0
C303 C 0.81228 0.6086 0.92182 0.0
H304 H 0.78154 0.58878 0.09336 0.0
C305 C 0.70685 0.58227 0.94345 0.0
C306 C 0.70508 0.60213 -0.00206 0.0
C307 C 0.73012 0.58166 0.93925 0.0
C308 C 0.78994 0.59458 0.04513 0.0
H309 H 0.88558 0.58292 0.88391 0.0
H310 H 0.84208 0.57633 0.88431 0.0
H311 H 0.8236 0.59177 0.08954 0.0
H312 H 0.72675 0.63787 0.08958 0.0
H313 H 0.76704 0.63648 0.08252 0.0
H314 H 0.77852 0.61149 0.8776 0.0
C315 C 0.85742 0.59227 0.92607 0.0
C316 C 0.81408 0.59637 0.04294 0.0
C317 C 0.88233 0.59604 0.92582 0.0
C318 C 0.72716 0.62154 0.04775 0.0
C319 C 0.7503 0.6208 0.04369 0.0
C320 C 0.78804 0.60669 0.92399 0.0
C321 C 0.85224 0.60809 0.98041 0.0
C322 C 0.82576 0.60399 0.9815 0.0
C323 C 0.75204 0.60076 -0.01044 0.0
C324 C 0.77682 0.60024 0.98591 0.0
H325 H 0.91275 0.6476 0.07578 0.0
H326 H 0.86953 0.64138 0.07599 0.0
H327 H 0.82083 0.61485 0.87377 0.0
H328 H 0.69011 0.56669 0.9046 0.0
H329 H 0.73078 0.56569 0.89723 0.0
C330 C 0.11862 0.66603 0.97039 0.0
C331 C 0.10963 0.62782 -0.00517 0.0
C332 C 0.14592 0.69307 0.96651 0.0
C333 C 0.21359 0.71408 0.03264 0.0
H334 H 0.2353 0.78162 0.87569 0.0
C335 C 0.32496 0.81538 0.98439 0.0
C336 C 0.33312 0.85386 0.96265 0.0
C337 C 0.29777 0.7869 0.9868 0.0
C338 C 0.22958 0.76323 0.92016 0.0
H339 H 0.1225 0.58819 0.03447 0.0
H340 H 0.16999 0.63516 0.02703 0.0
H341 H 0.18792 0.73415 0.8839 0.0
H342 H 0.31885 0.89245 0.92709 0.0
H343 H 0.27164 0.84287 0.93077 0.0
H344 H 0.25531 0.74325 0.06883 0.0
C345 C 0.15597 0.64445 0.01175 0.0
C346 C 0.20238 0.73602 0.92495 0.0
C347 C 0.12867 0.61742 0.01576 0.0
C348 C 0.31335 0.86294 0.94271 0.0
C349 C 0.28621 0.83448 0.94498 0.0
C350 C 0.24081 0.74127 0.02778 0.0
C351 C 0.16495 0.68258 0.98679 0.0
C352 C 0.194 0.71122 0.98141 0.0
C353 C 0.27806 0.79616 0.96743 0.0
C354 C 0.24915 0.76632 0.97163 0.0
H355 H 0.10457 0.67516 0.95405 0.0
H356 H 0.15212 0.72236 0.94806 0.0
H357 H 0.20787 0.69586 0.07729 0.0
H358 H 0.33958 0.80718 -0.00065 0.0
H359 H 0.29217 0.75751 0.00345 0.0
C360 C 0.50584 0.40529 0.96985 0.0
C361 C 0.52819 0.4408 -0.00241 0.0
C362 C 0.50671 0.3709 0.96841 0.0
C363 C 0.55401 0.33579 0.97801 0.0
H364 H 0.49183 0.23557 0.01874 0.0
C365 C 0.55542 0.19122 0.01458 0.0
C366 C 0.53252 0.15614 0.98732 0.0
C367 C 0.55556 0.22652 0.01496 0.0
C368 C 0.50929 0.26324 0.00647 0.0
H369 H 0.56904 0.46773 0.04568 0.0
H370 H 0.5704 0.40782 0.04378 0.0
H371 H 0.49056 0.29558 0.0211 0.0
H372 H 0.49204 0.13118 0.93745 0.0
H373 H 0.49247 0.19239 0.93759 0.0
H374 H 0.57272 0.30331 0.96352 0.0
C375 C 0.5523 0.40664 0.02231 0.0
C376 C 0.50855 0.29769 0.00779 0.0
C377 C 0.55142 0.441 0.02381 0.0
C378 C 0.51001 0.15745 0.95935 0.0
C379 C 0.51016 0.1926 0.9598 0.0
C380 C 0.55476 0.30128 0.97672 0.0
C381 C 0.52996 0.37112 -0.00538 0.0
C382 C 0.53086 0.33443 -0.00661 0.0
C383 C 0.5328 0.22752 0.98823 0.0
C384 C 0.53235 0.26452 -0.00934 0.0
H385 H 0.48764 0.40399 0.94894 0.0
H386 H 0.48924 0.34422 0.94588 0.0
H387 H 0.57145 0.36347 0.96576 0.0
H388 H 0.5731 0.19135 0.03661 0.0
H389 H 0.57329 0.25281 0.03768 0.0
loop_
_geom_bond_atom_site_label_1
_geom_bond_atom_site_label_2
_geom_bond_distance
_geom_bond_site_symmetry_2
_ccdc_geom_bond_type
Tb0 C10 2.825 . S
Tb0 O11 2.347 1_554 S
Tb0 O14 2.366 . S
Tb0 O19 2.418 . S
Tb0 O20 2.384 1_455 S
Tb0 O23 2.479 . S
Tb0 O24 2.471 1_554 S
Eu1 O12 2.418 . S
Eu1 O13 2.384 1_655 S
Eu1 O16 2.479 . S
Eu1 O17 2.471 1_556 S
Eu1 O18 2.347 1_556 S
Eu1 O21 2.366 . S
Eu1 C31 2.825 . S
C2 O18 1.259 1_455 S
C2 O19 1.265 . S
C3 O20 1.255 1_556 S
C3 O21 1.265 . S
C4 C6 1.382 . S
C4 C7 1.371 1_554 S
C4 C10 1.507 . S
C5 C6 1.384 . S
C5 C9 1.387 1_554 S
C5 H32 0.930 . S
C6 C4 1.382 . S
C6 C5 1.384 . S
C6 H33 0.931 . S
C7 C4 1.371 1_556 S
C7 C8 1.390 . S
C7 H34 0.930 . S
C8 C7 1.390 . S
C8 C9 1.391 . S
C8 H35 0.930 . S
C9 C5 1.387 1_556 S
C9 C8 1.391 . S
C10 Tb0 2.825 . S
C10 C4 1.507 . S
C10 O23 1.238 . S
C10 O24 1.247 1_554 S
O11 Tb0 2.347 1_556 S
O11 C15 1.259 1_455 S
O12 Eu1 2.418 . S
O12 C15 1.265 . S
O13 Eu1 2.384 1_455 S
O13 C22 1.255 1_556 S
O14 Tb0 2.366 . S
O14 C22 1.265 . S
C15 O11 1.259 1_655 S
C15 O12 1.265 . S
O16 Eu1 2.479 . S
O16 C31 1.238 . S
O17 Eu1 2.471 1_554 S
O17 C31 1.247 1_554 S
O18 Eu1 2.347 1_554 S
O18 C2 1.259 1_655 S
O19 Tb0 2.418 . S
O19 C2 1.265 . S
O20 Tb0 2.384 1_655 S
O20 C3 1.255 1_554 S
O21 Eu1 2.366 . S
O21 C3 1.265 . S
C22 O13 1.255 1_554 S
C22 O14 1.265 . S
O23 Tb0 2.479 . S
O23 C10 1.238 . S
O24 Tb0 2.471 1_556 S
O24 C10 1.247 1_556 S
C25 C28 1.380 1_554 S
C25 C29 1.374 . S
C25 C31 1.507 1_554 S
C26 C27 1.387 1_554 S
C26 C30 1.391 . S
C27 C26 1.387 1_556 S
C27 C28 1.384 . S
C27 H36 0.930 . S
C28 C25 1.380 1_556 S
C28 C27 1.384 . S
C28 H37 0.931 . S
C29 C25 1.374 . S
C29 C30 1.390 . S
C29 H38 0.930 . S
C30 C26 1.391 . S
C30 C29 1.390 . S
C30 H39 0.930 . S
C31 Eu1 2.825 . S
C31 O16 1.238 . S
C31 O17 1.247 1_556 S
C31 C25 1.507 1_556 S
H32 C5 0.930 . S
H33 C6 0.931 . S
H34 C7 0.930 . S
H35 C8 0.930 . S
H36 C27 0.930 . S
H37 C28 0.931 . S
H38 C29 0.930 . S
H39 C30 0.930 . S
Tb40 C50 2.825 . S
Tb40 O51 2.347 1_554 S
Tb40 O54 2.366 . S
Tb40 O59 2.418 . S
Tb40 O60 2.384 1_545 S
Tb40 O63 2.479 . S
Tb40 O64 2.471 1_554 S
Eu41 O52 2.418 . S
Eu41 O53 2.384 1_565 S
Eu41 O56 2.479 . S
Eu41 O57 2.471 1_556 S
Eu41 O58 2.347 1_556 S
Eu41 O61 2.366 . S
Eu41 C71 2.825 . S
C42 O58 1.259 1_545 S
C42 O59 1.265 . S
C43 O60 1.253 1_556 S
C43 O61 1.267 . S
C44 C46 1.380 . S
C44 C47 1.374 1_554 S
C44 C50 1.507 . S
C45 C46 1.384 . S
C45 C49 1.387 1_554 S
C45 H72 0.930 . S
C46 C44 1.380 . S
C46 C45 1.384 . S
C46 H73 0.931 . S
C47 C44 1.374 1_556 S
C47 C48 1.390 . S
C47 H74 0.930 . S
C48 C47 1.390 . S
C48 C49 1.391 . S
C48 H75 0.930 . S
C49 C45 1.387 1_556 S
C49 C48 1.391 . S
C50 Tb40 2.825 . S
C50 C44 1.507 . S
C50 O63 1.238 . S
C50 O64 1.247 1_554 S
O51 Tb40 2.347 1_556 S
O51 C55 1.259 1_545 S
O52 Eu41 2.418 . S
O52 C55 1.265 . S
O53 Eu41 2.384 1_545 S
O53 C62 1.255 1_556 S
O54 Tb40 2.366 . S
O54 C62 1.265 . S
C55 O51 1.259 1_565 S
C55 O52 1.265 . S
O56 Eu41 2.479 . S
O56 C71 1.238 . S
O57 Eu41 2.471 1_554 S
O57 C71 1.247 1_554 S
O58 Eu41 2.347 1_554 S
O58 C42 1.259 1_565 S
O59 Tb40 2.418 . S
O59 C42 1.265 . S
O60 Tb40 2.384 1_565 S
O60 C43 1.253 1_554 S
O61 Eu41 2.366 . S
O61 C43 1.267 . S
C62 O53 1.255 1_554 S
C62 O54 1.265 . S
O63 Tb40 2.479 . S
O63 C50 1.238 . S
O64 Tb40 2.471 1_556 S
O64 C50 1.247 1_556 S
C65 C68 1.380 . S
C65 C69 1.374 1_556 S
C65 C71 1.507 . S
C66 C67 1.387 1_554 S
C66 C70 1.391 . S
C67 C66 1.387 1_556 S
C67 C68 1.384 . S
C67 H76 0.930 . S
C68 C65 1.380 . S
C68 C67 1.384 . S
C68 H77 0.931 . S
C69 C65 1.374 1_554 S
C69 C70 1.390 . S
C69 H78 0.930 . S
C70 C66 1.391 . S
C70 C69 1.390 . S
C70 H79 0.930 . S
C71 Eu41 2.825 . S
C71 O56 1.238 . S
C71 O57 1.247 1_556 S
C71 C65 1.507 . S
H72 C45 0.930 . S
H73 C46 0.931 . S
H74 C47 0.930 . S
H75 C48 0.930 . S
H76 C67 0.930 . S
H77 C68 0.931 . S
H78 C69 0.930 . S
H79 C70 0.930 . S
Tb80 C90 2.825 . S
Tb80 O91 2.347 1_556 S
Tb80 O94 2.366 . S
Tb80 O99 2.418 . S
Tb80 O100 2.384 . S
Tb80 O103 2.479 . S
Tb80 O104 2.471 1_556 S
Eu81 O92 2.418 . S
Eu81 O93 2.384 . S
Eu81 O96 2.479 . S
Eu81 O97 2.471 1_554 S
Eu81 O98 2.347 1_554 S
Eu81 O101 2.366 . S
Eu81 C111 2.825 . S
C82 O98 1.259 . S
C82 O99 1.265 . S
C83 O100 1.255 1_554 S
C83 O101 1.265 . S
C84 C86 1.380 . S
C84 C87 1.374 1_556 S
C84 C90 1.507 . S
C85 C86 1.384 . S
C85 C89 1.387 1_556 S
C85 H112 0.930 . S
C86 C84 1.380 . S
C86 C85 1.384 . S
C86 H113 0.931 . S
C87 C84 1.374 1_554 S
C87 C88 1.390 . S
C87 H114 0.930 . S
C88 C87 1.390 . S
C88 C89 1.391 . S
C88 H115 0.930 . S
C89 C85 1.387 1_554 S
C89 C88 1.391 . S
C90 Tb80 2.825 . S
C90 C84 1.507 . S
C90 O103 1.238 . S
C90 O104 1.247 1_556 S
O91 Tb80 2.347 1_554 S
O91 C95 1.259 . S
O92 Eu81 2.418 . S
O92 C95 1.265 . S
O93 Eu81 2.384 . S
O93 C102 1.255 1_554 S
O94 Tb80 2.366 . S
O94 C102 1.265 . S
C95 O91 1.259 . S
C95 O92 1.265 . S
O96 Eu81 2.479 . S
O96 C111 1.238 . S
O97 Eu81 2.471 1_556 S
O97 C111 1.247 1_556 S
O98 Eu81 2.347 1_556 S
O98 C82 1.259 . S
O99 Tb80 2.418 . S
O99 C82 1.265 . S
O100 Tb80 2.384 . S
O100 C83 1.255 1_556 S
O101 Eu81 2.366 . S
O101 C83 1.265 . S
C102 O93 1.255 1_556 S
C102 O94 1.265 . S
O103 Tb80 2.479 . S
O103 C90 1.238 . S
O104 Tb80 2.471 1_554 S
O104 C90 1.247 1_554 S
C105 C108 1.380 . S
C105 C109 1.374 1_554 S
C105 C111 1.507 . S
C106 C107 1.387 1_556 S
C106 C110 1.391 . S
C107 C106 1.387 1_554 S
C107 C108 1.384 . S
C107 H116 0.930 . S
C108 C105 1.380 . S
C108 C107 1.384 . S
C108 H117 0.931 . S
C109 C105 1.374 1_556 S
C109 C110 1.390 . S
C109 H118 0.930 . S
C110 C106 1.391 . S
C110 C109 1.390 . S
C110 H119 0.930 . S
C111 Eu81 2.825 . S
C111 O96 1.238 . S
C111 O97 1.247 1_554 S
C111 C105 1.507 . S
H112 C85 0.930 . S
H113 C86 0.931 . S
H114 C87 0.930 . S
H115 C88 0.930 . S
H116 C107 0.930 . S
H117 C108 0.931 . S
H118 C109 0.930 . S
H119 C110 0.930 . S
C120 C121 1.354 . S
C120 C122 1.327 . S
C120 H145 0.950 . S
C121 C120 1.354 . S
C121 C137 1.342 1_655 S
C122 C120 1.327 . S
C122 C141 1.408 1_655 S
C122 H146 0.950 . S
C123 C140 1.574 . S
C123 C142 1.368 . S
C123 H147 0.949 . S
H124 C128 0.949 . S
C125 C126 1.349 . S
C125 C127 1.327 . S
C125 H148 0.950 . S
C126 C125 1.349 . S
C126 C138 1.349 1_455 S
C127 C125 1.327 . S
C127 C143 1.429 . S
C127 H149 0.950 . S
C128 H124 0.949 . S
C128 C136 1.574 . S
C128 C144 1.368 1_655 S
H129 C137 0.950 . S
H130 C135 0.950 . S
H131 C136 0.949 . S
H132 C138 0.950 . S
H133 C139 0.950 . S
H134 C140 0.949 . S
C135 H130 0.950 . S
C135 C137 1.327 . S
C135 C141 1.446 . S
C136 C128 1.574 . S
C136 H131 0.949 . S
C136 C142 1.368 1_655 S
C137 C121 1.342 1_455 S
C137 H129 0.950 . S
C137 C135 1.327 . S
C138 C126 1.349 1_655 S
C138 H132 0.950 . S
C138 C139 1.327 . S
C139 H133 0.950 . S
C139 C138 1.327 . S
C139 C143 1.429 1_655 S
C140 C123 1.574 . S
C140 H134 0.949 . S
C140 C144 1.368 . S
C141 C122 1.408 1_455 S
C141 C135 1.446 . S
C141 C142 1.528 . S
C142 C123 1.368 . S
C142 C136 1.368 1_455 S
C142 C141 1.528 . S
C143 C127 1.429 . S
C143 C139 1.429 1_455 S
C143 C144 1.523 . S
C144 C128 1.368 1_455 S
C144 C140 1.368 . S
C144 C143 1.523 . S
H145 C120 0.950 . S
H146 C122 0.950 . S
H147 C123 0.949 . S
H148 C125 0.950 . S
H149 C127 0.950 . S
C150 C151 1.316 1_545 S
C150 C152 1.327 . S
C150 H175 0.950 . S
C151 C150 1.316 1_565 S
C151 C167 1.381 . S
C152 C150 1.327 . S
C152 C171 1.423 1_545 S
C152 H176 0.950 . S
C153 C170 1.574 . S
C153 C172 1.368 1_565 S
C153 H177 0.949 . S
H154 C158 0.949 . S
C155 C156 1.349 1_565 S
C155 C157 1.327 . S
C155 H178 0.950 . S
C156 C155 1.349 1_545 S
C156 C168 1.349 . S
C157 C155 1.327 . S
C157 C173 1.429 1_565 S
C157 H179 0.950 . S
C158 H154 0.949 . S
C158 C166 1.574 . S
C158 C174 1.395 . S
H159 C167 0.950 . S
H160 C165 0.950 . S
H161 C166 0.949 . S
H162 C168 0.950 . S
H163 C169 0.950 . S
H164 C170 0.949 . S
C165 H160 0.950 . S
C165 C167 1.327 . S
C165 C171 1.435 . S
C166 C158 1.574 . S
C166 H161 0.949 . S
C166 C172 1.369 . S
C167 C151 1.381 . S
C167 H159 0.950 . S
C167 C165 1.327 . S
C168 C156 1.349 . S
C168 H162 0.950 . S
C168 C169 1.327 . S
C169 H163 0.950 . S
C169 C168 1.327 . S
C169 C173 1.429 . S
C170 C153 1.574 . S
C170 H164 0.949 . S
C170 C174 1.341 1_565 S
C171 C152 1.423 1_565 S
C171 C165 1.435 . S
C171 C172 1.523 1_565 S
C172 C153 1.368 1_545 S
C172 C166 1.369 . S
C172 C171 1.523 1_545 S
C173 C157 1.429 1_545 S
C173 C169 1.429 . S
C173 C174 1.524 . S
C174 C158 1.395 . S
C174 C170 1.341 1_545 S
C174 C173 1.524 . S
H175 C150 0.950 . S
H176 C152 0.950 . S
H177 C153 0.949 . S
H178 C155 0.950 . S
H179 C157 0.950 . S
C180 C181 1.349 . S
C180 C182 1.327 . S
C180 H205 0.950 . S
C181 C180 1.349 . S
C181 C197 1.349 . S
C182 C180 1.327 . S
C182 C201 1.429 . S
C182 H206 0.950 . S
C183 C200 1.574 . S
C183 C202 1.368 . S
C183 H207 0.949 . S
H184 C188 0.949 . S
C185 C186 1.349 . S
C185 C187 1.327 . S
C185 H208 0.950 . S
C186 C185 1.349 . S
C186 C198 1.349 . S
C187 C185 1.327 . S
C187 C203 1.429 . S
C187 H209 0.950 . S
C188 H184 0.949 . S
C188 C196 1.574 . S
C188 C204 1.368 . S
H189 C197 0.950 . S
H190 C195 0.950 . S
H191 C196 0.949 . S
H192 C198 0.950 . S
H193 C199 0.950 . S
H194 C200 0.949 . S
C195 H190 0.950 . S
C195 C197 1.327 . S
C195 C201 1.429 . S
C196 C188 1.574 . S
C196 H191 0.949 . S
C196 C202 1.368 . S
C197 C181 1.349 . S
C197 H189 0.950 . S
C197 C195 1.327 . S
C198 C186 1.349 . S
C198 H192 0.950 . S
C198 C199 1.327 . S
C199 H193 0.950 . S
C199 C198 1.327 . S
C199 C203 1.429 . S
C200 C183 1.574 . S
C200 H194 0.949 . S
C200 C204 1.368 . S
C201 C182 1.429 . S
C201 C195 1.429 . S
C201 C202 1.523 . S
C202 C183 1.368 . S
C202 C196 1.368 . S
C202 C201 1.523 . S
C203 C187 1.429 . S
C203 C199 1.429 . S
C203 C204 1.523 . S
C204 C188 1.368 . S
C204 C200 1.368 . S
C204 C203 1.523 . S
H205 C180 0.950 . S
H206 C182 0.950 . S
H207 C183 0.949 . S
H208 C185 0.950 . S
H209 C187 0.950 . S
C210 C211 1.349 1_554 S
C210 C212 1.327 . S
C210 H235 0.950 . S
C211 C210 1.349 1_556 S
C211 C227 1.349 . S
C212 C210 1.327 . S
C212 C231 1.429 1_554 S
C212 H236 0.950 . S
C213 C230 1.574 . S
C213 C232 1.368 . S
C213 H237 0.949 . S
H214 C218 0.949 . S
C215 C216 1.349 1_556 S
C215 C217 1.327 . S
C215 H238 0.950 . S
C216 C215 1.349 1_554 S
C216 C228 1.349 . S
C217 C215 1.327 . S
C217 C233 1.429 1_556 S
C217 H239 0.950 . S
C218 H214 0.949 . S
C218 C226 1.574 . S
C218 C234 1.376 . S
H219 C227 0.950 . S
H220 C225 0.950 . S
H221 C226 0.949 . S
H222 C228 0.950 . S
H223 C229 0.950 . S
H224 C230 0.949 . S
C225 H220 0.950 . S
C225 C227 1.327 . S
C225 C231 1.429 . S
C226 C218 1.574 . S
C226 H221 0.949 . S
C226 C232 1.368 1_554 S
C227 C211 1.349 . S
C227 H219 0.950 . S
C227 C225 1.327 . S
C228 C216 1.349 . S
C228 H222 0.950 . S
C228 C229 1.327 . S
C229 H223 0.950 . S
C229 C228 1.327 . S
C229 C233 1.429 . S
C230 C213 1.574 . S
C230 H224 0.949 . S
C230 C234 1.362 1_556 S
C231 C212 1.429 1_556 S
C231 C225 1.429 . S
C231 C232 1.523 . S
C232 C213 1.368 . S
C232 C226 1.368 1_556 S
C232 C231 1.523 . S
C233 C217 1.429 1_554 S
C233 C229 1.429 . S
C233 C234 1.522 . S
C234 C218 1.376 . S
C234 C230 1.362 1_554 S
C234 C233 1.522 . S
H235 C210 0.950 . S
H236 C212 0.950 . S
H237 C213 0.949 . S
H238 C215 0.950 . S
H239 C217 0.950 . S
C240 C241 1.349 1_554 S
C240 C242 1.327 . S
C240 H265 0.950 . S
C241 C240 1.349 1_556 S
C241 C257 1.349 . S
C242 C240 1.327 . S
C242 C261 1.429 1_554 S
C242 H266 0.950 . S
C243 C260 1.574 . S
C243 C262 1.368 . S
C243 H267 0.949 . S
H244 C248 0.949 . S
C245 C246 1.349 . S
C245 C247 1.327 . S
C245 H268 0.950 . S
C246 C245 1.349 . S
C246 C258 1.349 1_556 S
C247 C245 1.327 . S
C247 C263 1.429 . S
C247 H269 0.950 . S
C248 H244 0.949 . S
C248 C256 1.574 . S
C248 C264 1.368 1_554 S
H249 C257 0.950 . S
H250 C255 0.950 . S
H251 C256 0.949 . S
H252 C258 0.950 . S
H253 C259 0.950 . S
H254 C260 0.949 . S
C255 H250 0.950 . S
C255 C257 1.327 . S
C255 C261 1.429 . S
C256 C248 1.574 . S
C256 H251 0.949 . S
C256 C262 1.368 1_554 S
C257 C241 1.349 . S
C257 H249 0.950 . S
C257 C255 1.327 . S
C258 C246 1.349 1_554 S
C258 H252 0.950 . S
C258 C259 1.327 . S
C259 H253 0.950 . S
C259 C258 1.327 . S
C259 C263 1.429 1_554 S
C260 C243 1.574 . S
C260 H254 0.949 . S
C260 C264 1.368 . S
C261 C242 1.429 1_556 S
C261 C255 1.429 . S
C261 C262 1.523 . S
C262 C243 1.368 . S
C262 C256 1.368 1_556 S
C262 C261 1.523 . S
C263 C247 1.429 . S
C263 C259 1.429 1_556 S
C263 C264 1.523 . S
C264 C248 1.368 1_556 S
C264 C260 1.368 . S
C264 C263 1.523 . S
H265 C240 0.950 . S
H266 C242 0.950 . S
H267 C243 0.949 . S
H268 C245 0.950 . S
H269 C247 0.950 . S
C270 C271 1.349 . S
C270 C272 1.327 . S
C270 H295 0.950 . S
C271 C270 1.349 . S
C271 C287 1.349 1_556 S
C272 C270 1.327 . S
C272 C291 1.429 . S
C272 H296 0.950 . S
C273 C290 1.574 . S
C273 C292 1.368 1_554 S
C273 H297 0.949 . S
H274 C278 0.949 . S
C275 C276 1.349 1_554 S
C275 C277 1.327 . S
C275 H298 0.950 . S
C276 C275 1.349 1_556 S
C276 C288 1.349 . S
C277 C275 1.327 . S
C277 C293 1.429 1_554 S
C277 H299 0.950 . S
C278 H274 0.949 . S
C278 C286 1.574 . S
C278 C294 1.368 . S
H279 C287 0.950 . S
H280 C285 0.950 . S
H281 C286 0.949 . S
H282 C288 0.950 . S
H283 C289 0.950 . S
H284 C290 0.949 . S
C285 H280 0.950 . S
C285 C287 1.327 . S
C285 C291 1.429 1_554 S
C286 C278 1.574 . S
C286 H281 0.949 . S
C286 C292 1.368 . S
C287 C271 1.349 1_554 S
C287 H279 0.950 . S
C287 C285 1.327 . S
C288 C276 1.349 . S
C288 H282 0.950 . S
C288 C289 1.327 . S
C289 H283 0.950 . S
C289 C288 1.327 . S
C289 C293 1.429 . S
C290 C273 1.574 . S
C290 H284 0.949 . S
C290 C294 1.368 1_554 S
C291 C272 1.429 . S
C291 C285 1.429 1_556 S
C291 C292 1.523 . S
C292 C273 1.368 1_556 S
C292 C286 1.368 . S
C292 C291 1.523 . S
C293 C277 1.429 1_556 S
C293 C289 1.429 . S
C293 C294 1.523 . S
C294 C278 1.368 . S
C294 C290 1.368 1_556 S
C294 C293 1.523 . S
H295 C270 0.950 . S
H296 C272 0.950 . S
H297 C273 0.949 . S
H298 C275 0.950 . S
H299 C277 0.950 . S
C300 C301 1.349 . S
C300 C302 1.327 . S
C300 H325 0.950 . S
C301 C300 1.349 . S
C301 C317 1.349 1_554 S
C302 C300 1.327 . S
C302 C321 1.429 . S
C302 H326 0.950 . S
C303 C320 1.574 . S
C303 C322 1.368 1_556 S
C303 H327 0.949 . S
H304 C308 0.949 . S
C305 C306 1.349 . S
C305 C307 1.327 . S
C305 H328 0.950 . S
C306 C305 1.349 . S
C306 C318 1.349 1_556 S
C307 C305 1.327 . S
C307 C323 1.429 . S
C307 H329 0.950 . S
C308 H304 0.949 . S
C308 C316 1.574 . S
C308 C324 1.364 1_554 S
H309 C317 0.950 . S
H310 C315 0.950 . S
H311 C316 0.949 . S
H312 C318 0.950 . S
H313 C319 0.950 . S
H314 C320 0.949 . S
C315 H310 0.950 . S
C315 C317 1.327 . S
C315 C321 1.429 1_556 S
C316 C308 1.574 . S
C316 H311 0.949 . S
C316 C322 1.368 . S
C317 C301 1.349 1_556 S
C317 H309 0.950 . S
C317 C315 1.327 . S
C318 C306 1.349 1_554 S
C318 H312 0.950 . S
C318 C319 1.327 . S
C319 H313 0.950 . S
C319 C318 1.327 . S
C319 C323 1.429 1_554 S
C320 C303 1.574 . S
C320 H314 0.949 . S
C320 C324 1.373 . S
C321 C302 1.429 . S
C321 C315 1.429 1_554 S
C321 C322 1.523 . S
C322 C303 1.368 1_554 S
C322 C316 1.368 . S
C322 C321 1.523 . S
C323 C307 1.429 . S
C323 C319 1.429 1_556 S
C323 C324 1.522 . S
C324 C308 1.364 1_556 S
C324 C320 1.373 . S
C324 C323 1.522 . S
H325 C300 0.950 . S
H326 C302 0.950 . S
H327 C303 0.949 . S
H328 C305 0.950 . S
H329 C307 0.950 . S
C330 C331 1.349 1_556 S
C330 C332 1.327 . S
C330 H355 0.950 . S
C331 C330 1.349 1_554 S
C331 C347 1.349 . S
C332 C330 1.327 . S
C332 C351 1.429 1_556 S
C332 H356 0.950 . S
C333 C350 1.574 . S
C333 C352 1.368 . S
C333 H357 0.949 . S
H334 C338 0.949 . S
C335 C336 1.349 . S
C335 C337 1.327 . S
C335 H358 0.950 . S
C336 C335 1.349 . S
C336 C348 1.349 1_554 S
C337 C335 1.327 . S
C337 C353 1.429 . S
C337 H359 0.950 . S
C338 H334 0.949 . S
C338 C346 1.574 . S
C338 C354 1.368 1_556 S
H339 C347 0.950 . S
H340 C345 0.950 . S
H341 C346 0.949 . S
H342 C348 0.950 . S
H343 C349 0.950 . S
H344 C350 0.949 . S
C345 H340 0.950 . S
C345 C347 1.327 . S
C345 C351 1.429 . S
C346 C338 1.574 . S
C346 H341 0.949 . S
C346 C352 1.368 1_556 S
C347 C331 1.349 . S
C347 H339 0.950 . S
C347 C345 1.327 . S
C348 C336 1.349 1_556 S
C348 H342 0.950 . S
C348 C349 1.327 . S
C349 H343 0.950 . S
C349 C348 1.327 . S
C349 C353 1.429 1_556 S
C350 C333 1.574 . S
C350 H344 0.949 . S
C350 C354 1.368 . S
C351 C332 1.429 1_554 S
C351 C345 1.429 . S
C351 C352 1.523 . S
C352 C333 1.368 . S
C352 C346 1.368 1_554 S
C352 C351 1.523 . S
C353 C337 1.429 . S
C353 C349 1.429 1_554 S
C353 C354 1.523 . S
C354 C338 1.368 1_554 S
C354 C350 1.368 . S
C354 C353 1.523 . S
H355 C330 0.950 . S
H356 C332 0.950 . S
H357 C333 0.949 . S
H358 C335 0.950 . S
H359 C337 0.950 . S
C360 C361 1.349 . S
C360 C362 1.327 . S
C360 H385 0.950 . S
C361 C360 1.349 . S
C361 C377 1.349 1_554 S
C362 C360 1.327 . S
C362 C381 1.429 . S
C362 H386 0.950 . S
C363 C380 1.574 . S
C363 C382 1.368 1_556 S
C363 H387 0.949 . S
H364 C368 0.949 . S
C365 C366 1.349 1_556 S
C365 C367 1.327 . S
C365 H388 0.950 . S
C366 C365 1.349 1_554 S
C366 C378 1.349 . S
C367 C365 1.327 . S
C367 C383 1.429 1_556 S
C367 H389 0.950 . S
C368 H364 0.949 . S
C368 C376 1.574 . S
C368 C384 1.368 . S
H369 C377 0.950 . S
H370 C375 0.950 . S
H371 C376 0.949 . S
H372 C378 0.950 . S
H373 C379 0.950 . S
H374 C380 0.949 . S
C375 H370 0.950 . S
C375 C377 1.327 . S
C375 C381 1.429 1_556 S
C376 C368 1.574 . S
C376 H371 0.949 . S
C376 C382 1.368 . S
C377 C361 1.349 1_556 S
C377 H369 0.950 . S
C377 C375 1.327 . S
C378 C366 1.349 . S
C378 H372 0.950 . S
C378 C379 1.327 . S
C379 H373 0.950 . S
C379 C378 1.327 . S
C379 C383 1.429 . S
C380 C363 1.574 . S
C380 H374 0.949 . S
C380 C384 1.368 1_556 S
C381 C362 1.429 . S
C381 C375 1.429 1_554 S
C381 C382 1.523 . S
C382 C363 1.368 1_554 S
C382 C376 1.368 . S
C382 C381 1.523 . S
C383 C367 1.429 1_554 S
C383 C379 1.429 . S
C383 C384 1.523 . S
C384 C368 1.368 . S
C384 C380 1.368 1_554 S
C384 C383 1.523 . S
H385 C360 0.950 . S
H386 C362 0.950 . S
H387 C363 0.949 . S
H388 C365 0.950 . S
H389 C367 0.950 . S
C121 C15 1.473 . S
C126 C2 1.470 . S
C151 C42 1.467 1_565 S
C156 C55 1.465 1_545 S
C181 C82 1.467 . S
C186 C95 1.467 . S
C211 C9 0.869 . S
C216 C89 0.865 . S
C241 C49 1.856 . S
C246 C3 1.911 . S
C271 C43 2.581 . S
C276 C102 2.601 . S
C301 C26 0.870 . S
C306 C106 0.865 . S
C331 C22 1.911 . S
C336 C66 1.856 . S
C361 C83 2.600 . S
C366 C62 2.580 . S
