# Generated by pormake.
# Topology xbj, (5)-cn, num edge types: 1
# Building blocks:
#     Node 0, Type 0, BuildingBlock: BEQFEK_clean_sbu_0, # of connection points: 5
#     Node 1, Type 0, BuildingBlock: BEQFEK_clean_sbu_0, # of connection points: 5
#     Node 2, Type 0, BuildingBlock: BEQFEK_clean_sbu_0, # of connection points: 5
#     Node 3, Type 0, BuildingBlock: BEQFEK_clean_sbu_0, # of connection points: 5
#     Node 4, Type 0, BuildingBlock: BEQFEK_clean_sbu_0, # of connection points: 5
#     Node 5, Type 0, BuildingBlock: BEQFEK_clean_sbu_0, # of connection points: 5
#     Node 6, Type 0, BuildingBlock: BEQFEK_clean_sbu_0, # of connection points: 5
#     Node 7, Type 0, BuildingBlock: BEQFEK_clean_sbu_0, # of connection points: 5
#     Edge 8, Type (0, 0), BuildingBlock: KIFKEQ_clean_linker_1, # of connection points: 2
#     Edge 9, Type (0, 0), BuildingBlock: KIFKEQ_clean_linker_1, # of connection points: 2
#     Edge 10, Type (0, 0), BuildingBlock: KIFKEQ_clean_linker_1, # of connection points: 2
#     Edge 11, Type (0, 0), BuildingBlock: KIFKEQ_clean_linker_1, # of connection points: 2
#     Edge 12, Type (0, 0), BuildingBlock: KIFKEQ_clean_linker_1, # of connection points: 2
#     Edge 13, Type (0, 0), BuildingBlock: KIFKEQ_clean_linker_1, # of connection points: 2
#     Edge 14, Type (0, 0), BuildingBlock: KIFKEQ_clean_linker_1, # of connection points: 2
#     Edge 15, Type (0, 0), BuildingBlock: KIFKEQ_clean_linker_1, # of connection points: 2
#     Edge 16, Type (0, 0), BuildingBlock: KIFKEQ_clean_linker_1, # of connection points: 2
#     Edge 17, Type (0, 0), BuildingBlock: KIFKEQ_clean_linker_1, # of connection points: 2
#     Edge 18, Type (0, 0), BuildingBlock: KIFKEQ_clean_linker_1, # of connection points: 2
#     Edge 19, Type (0, 0), BuildingBlock: KIFKEQ_clean_linker_1, # of connection points: 2
#     Edge 20, Type (0, 0), BuildingBlock: KIFKEQ_clean_linker_1, # of connection points: 2
#     Edge 21, Type (0, 0), BuildingBlock: KIFKEQ_clean_linker_1, # of connection points: 2
#     Edge 22, Type (0, 0), BuildingBlock: KIFKEQ_clean_linker_1, # of connection points: 2
#     Edge 23, Type (0, 0), BuildingBlock: KIFKEQ_clean_linker_1, # of connection points: 2
#     Edge 24, Type (0, 0), BuildingBlock: KIFKEQ_clean_linker_1, # of connection points: 2
#     Edge 25, Type (0, 0), BuildingBlock: KIFKEQ_clean_linker_1, # of connection points: 2
#     Edge 26, Type (0, 0), BuildingBlock: KIFKEQ_clean_linker_1, # of connection points: 2
#     Edge 27, Type (0, 0), BuildingBlock: KIFKEQ_clean_linker_1, # of connection points: 2
# Relax obj value: 0.046
# Max RMSD: 0.114
# Mean RMSD: 0.111
data_MOF--net-xbj--node1-BEQFEK_clean_sbu_0--edge1-KIFKEQ_clean_linker_1
_symmetry_space_group_name_H-M    P1
_symmetry_Int_Tables_number       1
_symmetry_cell_setting            triclinic
loop_
_symmetry_equiv_pos_as_xyz
'x, y, z'
_cell_length_a     19.894437
_cell_length_b     19.878246
_cell_length_c     112.87343
_cell_angle_alpha  91.171104
_cell_angle_beta   91.192225
_cell_angle_gamma 89.976945
loop_
_atom_site_label
_atom_site_type_symbol
_atom_site_fract_x
_atom_site_fract_y
_atom_site_fract_z
_atom_type_partial_charge
Co0 Co 0.25497 0.79395 0.04427 0.0
Co1 Co 0.09682 0.77368 0.04323 0.0
C2 C 0.16407 0.89542 0.03328 0.0
O3 O 0.22275 0.87708 0.03666 0.0
O4 O 0.11212 0.86052 0.03544 0.0
C5 C 0.3926 0.84695 0.04639 0.0
O6 O 0.36743 0.90535 0.04334 0.0
C7 C 0.9482 0.79428 0.04567 0.0
C8 C 0.91516 0.68817 0.04544 0.0
C9 C 0.89128 0.75357 0.04613 0.0
N10 N 0.00284 0.75435 0.04482 0.0
N11 N 0.98241 0.69111 0.04471 0.0
C12 C 0.9504 0.86949 0.04548 0.0
H13 H 0.99695 0.88726 0.04139 0.0
H14 H 0.94948 0.88958 0.05472 0.0
H15 H 0.90621 0.88949 0.04053 0.0
C16 C 0.23145 0.76944 0.06961 0.0
N17 N 0.20876 0.77708 0.05839 0.0
N18 N 0.1431 0.76878 0.058 0.0
C19 C 0.12196 0.7553 0.06896 0.0
C20 C 0.17722 0.75499 0.07664 0.0
C21 C 0.30408 0.77256 0.0733 0.0
H22 H 0.33277 0.73535 0.06796 0.0
H23 H 0.32415 0.82324 0.07143 0.0
H24 H 0.31164 0.76192 0.08284 0.0
O25 O 0.2409 0.72076 0.03236 0.0
O26 O 0.13051 0.70472 0.03209 0.0
H27 H 0.03237 0.6961 0.06815 0.0
H28 H 0.04329 0.74435 0.08179 0.0
C29 C 0.05001 0.74476 0.07206 0.0
H30 H 0.01872 0.78547 0.06826 0.0
H31 H 0.01454 0.64977 0.04403 0.0
O32 O 0.35361 0.79682 0.0474 0.0
C33 C 0.18871 0.69046 0.02832 0.0
Co34 Co 0.58379 0.79444 0.29259 0.0
Co35 Co 0.60388 0.63625 0.29238 0.0
C36 C 0.47585 0.70097 0.28373 0.0
O37 O 0.49664 0.76024 0.28636 0.0
O38 O 0.51198 0.64912 0.28569 0.0
C39 C 0.53115 0.93233 0.29504 0.0
O40 O 0.47087 0.90618 0.29353 0.0
C41 C 0.58202 0.48966 0.29533 0.0
C42 C 0.687 0.45398 0.29681 0.0
C43 C 0.6209 0.43205 0.29677 0.0
N44 N 0.62348 0.54285 0.29452 0.0
N45 N 0.68609 0.52097 0.29537 0.0
C46 C 0.50707 0.49517 0.29547 0.0
H47 H 0.49211 0.54429 0.29945 0.0
H48 H 0.48488 0.45372 0.30054 0.0
H49 H 0.48704 0.49242 0.28622 0.0
C50 C 0.61351 0.77553 0.31799 0.0
N51 N 0.60793 0.75126 0.3068 0.0
N52 N 0.61593 0.68552 0.30681 0.0
C53 C 0.62704 0.6659 0.31805 0.0
C54 C 0.62592 0.72232 0.32547 0.0
C55 C 0.60507 0.84811 0.32142 0.0
H56 H 0.63896 0.87919 0.31608 0.0
H57 H 0.55261 0.86375 0.31938 0.0
H58 H 0.6166 0.85751 0.33096 0.0
O59 O 0.64919 0.77745 0.27998 0.0
O60 O 0.66571 0.6671 0.28016 0.0
H61 H 0.67892 0.57188 0.31835 0.0
H62 H 0.631 0.58929 0.33147 0.0
C63 C 0.63165 0.59405 0.3217 0.0
H64 H 0.58889 0.56523 0.3177 0.0
H65 H 0.72829 0.55198 0.29502 0.0
O66 O 0.58228 0.8939 0.29506 0.0
C67 C 0.67702 0.72457 0.27586 0.0
Co68 Co 0.75833 0.29743 0.54205 0.0
Co69 Co 0.59874 0.29455 0.54294 0.0
C70 C 0.66919 0.4158 0.53526 0.0
O71 O 0.72563 0.38607 0.53661 0.0
O72 O 0.61413 0.38761 0.53793 0.0
C73 C 0.89334 0.34299 0.54934 0.0
O74 O 0.86265 0.38889 0.55578 0.0
C75 C 0.45086 0.31647 0.54526 0.0
C76 C 0.41806 0.21332 0.54925 0.0
C77 C 0.39457 0.27817 0.54775 0.0
N78 N 0.50518 0.27592 0.54536 0.0
N79 N 0.48485 0.21429 0.54763 0.0
C80 C 0.45375 0.39062 0.54336 0.0
H81 H 0.46179 0.39966 0.53382 0.0
H82 H 0.49703 0.41258 0.54844 0.0
H83 H 0.40667 0.41589 0.54611 0.0
C84 C 0.74235 0.25484 0.56697 0.0
N85 N 0.71706 0.273 0.55632 0.0
N86 N 0.65088 0.27422 0.55676 0.0
C87 C 0.63233 0.25835 0.56778 0.0
C88 C 0.68946 0.24483 0.57452 0.0
C89 C 0.81544 0.24502 0.56977 0.0
H90 H 0.8415 0.22488 0.56187 0.0
H91 H 0.83812 0.2942 0.57239 0.0
H92 H 0.82268 0.2101 0.57724 0.0
O93 O 0.73567 0.23255 0.52919 0.0
O94 O 0.62409 0.23701 0.52923 0.0
H95 H 0.53662 0.21244 0.57013 0.0
H96 H 0.56106 0.27038 0.58185 0.0
C97 C 0.56177 0.26126 0.57212 0.0
H98 H 0.53342 0.30195 0.56768 0.0
H99 H 0.51689 0.17283 0.54819 0.0
O100 O 0.85867 0.30025 0.5433 0.0
C101 C 0.67861 0.21616 0.52474 0.0
Co102 Co 0.09705 0.30199 0.79036 0.0
Co103 Co 0.10988 0.14332 0.79065 0.0
C104 C 0.98629 0.21085 0.78126 0.0
O105 O 0.01065 0.26899 0.78369 0.0
O106 O 0.0185 0.15717 0.7837 0.0
C107 C 0.04365 0.43896 0.79252 0.0
O108 O 0.98391 0.4117 0.79095 0.0
C109 C 0.0871 0.99671 0.79354 0.0
C110 C 0.19175 0.9618 0.79613 0.0
C111 C 0.12582 0.93945 0.79544 0.0
N112 N 0.12854 0.05012 0.79311 0.0
N113 N 0.19094 0.0287 0.79462 0.0
C114 C 0.01211 0.00169 0.79289 0.0
H115 H 0.99551 0.05061 0.79673 0.0
H116 H 0.98843 0.95998 0.79768 0.0
H117 H 0.99528 0.99902 0.78346 0.0
C118 C 0.125 0.28488 0.81588 0.0
N119 N 0.11786 0.25955 0.80477 0.0
N120 N 0.12217 0.19352 0.80502 0.0
C121 C 0.13204 0.17473 0.81633 0.0
C122 C 0.13429 0.23201 0.82356 0.0
C123 C 0.12243 0.35837 0.81899 0.0
H124 H 0.15639 0.38623 0.81316 0.0
H125 H 0.07055 0.37715 0.81741 0.0
H126 H 0.13759 0.36846 0.82837 0.0
O127 O 0.16393 0.28283 0.77813 0.0
O128 O 0.17334 0.17164 0.77842 0.0
H129 H 0.18135 0.07971 0.8177 0.0
H130 H 0.12767 0.09968 0.82997 0.0
C131 C 0.13305 0.10323 0.82024 0.0
H132 H 0.09158 0.07485 0.81573 0.0
H133 H 0.23307 0.05998 0.79467 0.0
O134 O 0.09545 0.40145 0.79264 0.0
C135 C 0.1887 0.22815 0.77412 0.0
Co136 Co 0.09071 0.28427 0.94615 0.0
Co137 Co 0.24875 0.26316 0.9459 0.0
C138 C 0.18526 0.38697 0.9566 0.0
O139 O 0.12578 0.36811 0.95367 0.0
O140 O 0.23664 0.35153 0.95403 0.0
C141 C 0.9526 0.33802 0.94493 0.0
O142 O 0.97863 0.39718 0.94767 0.0
C143 C 0.39534 0.28656 0.94337 0.0
C144 C 0.43087 0.1827 0.94005 0.0
C145 C 0.4529 0.24863 0.94128 0.0
N146 N 0.3421 0.24471 0.9434 0.0
N147 N 0.36389 0.18275 0.94145 0.0
C148 C 0.38999 0.36142 0.94457 0.0
H149 H 0.3413 0.3787 0.94075 0.0
H150 H 0.43191 0.38652 0.94007 0.0
H151 H 0.39188 0.37596 0.95412 0.0
C152 C 0.1081 0.26376 0.92044 0.0
N153 N 0.1332 0.26654 0.93161 0.0
N154 N 0.19884 0.25829 0.9314 0.0
C155 C 0.21756 0.24998 0.92005 0.0
C156 C 0.16068 0.25306 0.91276 0.0
C157 C 0.03501 0.27076 0.9173 0.0
H158 H 0.0056 0.23467 0.92248 0.0
H159 H 0.01807 0.32228 0.91976 0.0
H160 H 0.02481 0.26113 0.90772 0.0
O161 O 0.10786 0.21282 0.95771 0.0
O162 O 0.21795 0.19549 0.95717 0.0
H163 H 0.30912 0.19455 0.91871 0.0
H164 H 0.29331 0.25009 0.90651 0.0
C165 C 0.28895 0.24443 0.91622 0.0
H166 H 0.31975 0.28379 0.92083 0.0
H167 H 0.33286 0.14042 0.94103 0.0
O168 O 0.99113 0.2873 0.94382 0.0
C169 C 0.16052 0.18264 0.96135 0.0
Co170 Co 0.07201 0.62823 0.19637 0.0
Co171 Co 0.0904 0.78749 0.19633 0.0
C172 C 0.96441 0.72297 0.20468 0.0
O173 O 0.98549 0.6638 0.2022 0.0
O174 O 0.99962 0.77498 0.20269 0.0
C175 C 0.02478 0.49159 0.18926 0.0
O176 O 0.97725 0.52058 0.18293 0.0
C177 C 0.06841 0.93525 0.19396 0.0
C178 C 0.17169 0.96935 0.19048 0.0
C179 C 0.10637 0.9921 0.19168 0.0
N180 N 0.10954 0.88134 0.19406 0.0
N181 N 0.17125 0.90243 0.19208 0.0
C182 C 0.99396 0.93149 0.19537 0.0
H183 H 0.98293 0.92761 0.20493 0.0
H184 H 0.97389 0.88581 0.19073 0.0
H185 H 0.96855 0.97679 0.19183 0.0
C186 C 0.11082 0.64547 0.17123 0.0
N187 N 0.09714 0.67022 0.18213 0.0
N188 N 0.10203 0.7364 0.18207 0.0
C189 C 0.11747 0.75562 0.17107 0.0
C190 C 0.1242 0.69876 0.16391 0.0
C191 C 0.11402 0.57226 0.16797 0.0
H192 H 0.13472 0.54342 0.17551 0.0
H193 H 0.06256 0.55381 0.16579 0.0
H194 H 0.1457 0.56358 0.1601 0.0
O195 O 0.1385 0.64695 0.20917 0.0
O196 O 0.15363 0.75755 0.2089 0.0
H197 H 0.17109 0.8481 0.16973 0.0
H198 H 0.11387 0.83091 0.1575 0.0
C199 C 0.12101 0.82716 0.16724 0.0
H200 H 0.08169 0.85751 0.17164 0.0
H201 H 0.21311 0.87086 0.1917 0.0
O202 O 0.06754 0.5277 0.19501 0.0
C203 C 0.16617 0.70034 0.21331 0.0
Co204 Co 0.56769 0.78603 0.44755 0.0
Co205 Co 0.72657 0.78274 0.44695 0.0
C206 C 0.65554 0.9054 0.45482 0.0
O207 O 0.59911 0.87552 0.45337 0.0
O208 O 0.71076 0.87668 0.45218 0.0
C209 C 0.43149 0.83817 0.44442 0.0
O210 O 0.45965 0.89796 0.44477 0.0
C211 C 0.87348 0.80375 0.44381 0.0
C212 C 0.90712 0.69802 0.44224 0.0
C213 C 0.93024 0.76373 0.44227 0.0
N214 N 0.81965 0.76319 0.44466 0.0
N215 N 0.84033 0.70017 0.44375 0.0
C216 C 0.86934 0.87886 0.44373 0.0
H217 H 0.82053 0.89483 0.43978 0.0
H218 H 0.9111 0.90046 0.43867 0.0
H219 H 0.87247 0.8986 0.45299 0.0
C220 C 0.58464 0.75017 0.4223 0.0
N221 N 0.61 0.76193 0.43329 0.0
N222 N 0.67608 0.76134 0.43296 0.0
C223 C 0.69488 0.7495 0.42171 0.0
C224 C 0.63755 0.74181 0.41461 0.0
C225 C 0.51111 0.74909 0.41923 0.0
H226 H 0.48441 0.71728 0.42558 0.0
H227 H 0.4908 0.80095 0.42002 0.0
H228 H 0.50147 0.72933 0.41009 0.0
O229 O 0.58886 0.7224 0.46027 0.0
O230 O 0.70033 0.72732 0.46043 0.0
H231 H 0.79305 0.70701 0.42033 0.0
H232 H 0.76846 0.75762 0.4079 0.0
C233 C 0.76594 0.7532 0.41766 0.0
H234 H 0.79151 0.79714 0.42195 0.0
H235 H 0.8086 0.65851 0.44412 0.0
O236 O 0.46823 0.78608 0.44533 0.0
C237 C 0.64571 0.70696 0.4648 0.0
Co238 Co 0.58355 0.11849 0.69399 0.0
Co239 Co 0.59629 0.2773 0.69368 0.0
C240 C 0.47303 0.21109 0.7023 0.0
O241 O 0.49716 0.15243 0.70037 0.0
O242 O 0.505 0.26407 0.69962 0.0
C243 C 0.52961 0.98156 0.69096 0.0
O244 O 0.46963 0.00881 0.69167 0.0
C245 C 0.57423 0.4237 0.69035 0.0
C246 C 0.67925 0.45935 0.6897 0.0
C247 C 0.61317 0.48124 0.68916 0.0
N248 N 0.61566 0.37057 0.69155 0.0
N249 N 0.67828 0.39243 0.6912 0.0
C250 C 0.49928 0.41822 0.68965 0.0
H251 H 0.48433 0.36897 0.68561 0.0
H252 H 0.47716 0.45953 0.68437 0.0
H253 H 0.4792 0.42126 0.69874 0.0
C254 C 0.61754 0.13531 0.66882 0.0
N255 N 0.60531 0.16079 0.67972 0.0
N256 N 0.61099 0.22675 0.67958 0.0
C257 C 0.62722 0.24527 0.66858 0.0
C258 C 0.63229 0.18799 0.66146 0.0
C259 C 0.61646 0.06187 0.66566 0.0
H260 H 0.65093 0.03467 0.67176 0.0
H261 H 0.565 0.04196 0.66687 0.0
H262 H 0.63175 0.05227 0.65638 0.0
O263 O 0.65263 0.13667 0.70652 0.0
O264 O 0.65638 0.24839 0.70667 0.0
H265 H 0.68214 0.3375 0.66858 0.0
H266 H 0.63518 0.32027 0.65502 0.0
C267 C 0.63447 0.31659 0.66481 0.0
H268 H 0.59223 0.34715 0.66824 0.0
H269 H 0.72046 0.36146 0.69195 0.0
O270 O 0.5814 0.01905 0.69162 0.0
C271 C 0.6743 0.19221 0.7109 0.0
H272 H 0.1369 0.64054 0.08702 0.0
H273 H 0.21792 0.83799 0.09474 0.0
H274 H 0.13195 0.61866 0.10822 0.0
H275 H 0.21034 0.81821 0.11594 0.0
H276 H 0.23257 0.75251 0.15345 0.0
H277 H 0.25325 0.75926 0.13226 0.0
H278 H 0.06829 0.65057 0.12473 0.0
H279 H 0.04999 0.64154 0.14595 0.0
C280 C 0.15363 0.67912 0.09333 0.0
C281 C 0.17775 0.7408 0.08939 0.0
C282 C 0.15044 0.66695 0.10545 0.0
C283 C 0.17042 0.71673 0.11384 0.0
C284 C 0.19564 0.77817 0.10978 0.0
C285 C 0.19964 0.78986 0.09766 0.0
C286 C 0.19711 0.72935 0.1472 0.0
C287 C 0.13973 0.6967 0.15121 0.0
C288 C 0.2085 0.73361 0.13508 0.0
C289 C 0.16208 0.70616 0.12674 0.0
C290 C 0.10566 0.67153 0.13086 0.0
C291 C 0.09488 0.66648 0.143 0.0
H292 H 0.57731 0.82879 0.3996 0.0
H293 H 0.69109 0.64431 0.4005 0.0
H294 H 0.5753 0.82387 0.378 0.0
H295 H 0.68701 0.63711 0.37883 0.0
H296 H 0.72794 0.68341 0.34013 0.0
H297 H 0.73077 0.68745 0.36181 0.0
H298 H 0.52765 0.76552 0.36155 0.0
H299 H 0.5268 0.76403 0.33993 0.0
C300 C 0.60096 0.78662 0.3951 0.0
C301 C 0.634 0.73671 0.40159 0.0
C302 C 0.59966 0.78352 0.38274 0.0
C303 C 0.63078 0.72991 0.37663 0.0
C304 C 0.66342 0.67963 0.38322 0.0
C305 C 0.66538 0.6833 0.39559 0.0
C306 C 0.68427 0.70157 0.3448 0.0
C307 C 0.62744 0.724 0.3385 0.0
C308 C 0.6855 0.70343 0.35718 0.0
C309 C 0.62945 0.72696 0.36346 0.0
C310 C 0.57222 0.74844 0.35704 0.0
C311 C 0.57144 0.74734 0.34468 0.0
H312 H 0.75225 0.31291 0.59263 0.0
H313 H 0.63149 0.13737 0.58454 0.0
H314 H 0.74364 0.29201 0.61376 0.0
H315 H 0.62577 0.11329 0.60562 0.0
H316 H 0.55005 0.14673 0.64335 0.0
H317 H 0.57053 0.15401 0.62219 0.0
H318 H 0.77157 0.22779 0.63011 0.0
H319 H 0.74854 0.22404 0.65127 0.0
C320 C 0.72536 0.26881 0.59544 0.0
C321 C 0.69223 0.22685 0.5871 0.0
C322 C 0.72058 0.25644 0.60753 0.0
C323 C 0.6835 0.20109 0.61148 0.0
C324 C 0.65331 0.15728 0.60297 0.0
C325 C 0.65703 0.17052 0.59091 0.0
C326 C 0.59869 0.16377 0.64047 0.0
C327 C 0.64776 0.18497 0.64879 0.0
C328 C 0.61083 0.1676 0.62837 0.0
C329 C 0.67282 0.19171 0.62436 0.0
C330 C 0.72281 0.21033 0.63282 0.0
C331 C 0.71006 0.20765 0.64492 0.0
H332 H 0.20228 0.15113 0.89833 0.0
H333 H 0.11245 0.34844 0.89801 0.0
H334 H 0.19556 0.14517 0.87668 0.0
H335 H 0.10794 0.34442 0.87637 0.0
H336 H 0.04447 0.28787 0.83858 0.0
H337 H 0.0505 0.29194 0.8602 0.0
H338 H 0.24218 0.18917 0.85936 0.0
H339 H 0.23407 0.18307 0.83772 0.0
C340 C 0.18157 0.19336 0.89355 0.0
C341 C 0.15746 0.25 0.89971 0.0
C342 C 0.17807 0.1903 0.88118 0.0
C343 C 0.15112 0.24431 0.87474 0.0
C344 C 0.12775 0.30134 0.88101 0.0
C345 C 0.13059 0.30395 0.89338 0.0
C346 C 0.08782 0.26643 0.84309 0.0
C347 C 0.13895 0.23542 0.8366 0.0
C348 C 0.09158 0.26897 0.85545 0.0
C349 C 0.14701 0.24113 0.86156 0.0
C350 C 0.19828 0.21021 0.85498 0.0
C351 C 0.19403 0.20704 0.84261 0.0
H352 H 0.29654 0.6727 0.01393 0.0
H353 H 0.09301 0.60489 0.01914 0.0
H354 H 0.29973 0.60869 -0.0047 0.0
H355 H 0.09698 0.53944 0.00075 0.0
H356 H 0.09149 0.48129 0.96272 0.0
H357 H 0.09681 0.55808 0.97978 0.0
H358 H 0.30159 0.49638 0.98709 0.0
H359 H 0.29714 0.42135 0.96982 0.0
C360 C 0.25293 0.64315 0.01122 0.0
C361 C 0.1944 0.64406 0.018 0.0
C362 C 0.25473 0.60662 0.00052 0.0
C363 C 0.1982 0.56994 -0.00357 0.0
C364 C 0.14072 0.56877 0.00346 0.0
C365 C 0.13873 0.60559 0.01409 0.0
C366 C 0.13819 0.4853 0.96779 0.0
C367 C 0.19353 0.44448 0.965 0.0
C368 C 0.14099 0.52873 0.97766 0.0
C369 C 0.19898 0.5319 0.98498 0.0
C370 C 0.2561 0.49508 0.98165 0.0
C371 C 0.25351 0.45204 0.97172 0.0
H372 H 0.68498 0.83026 0.26085 0.0
H373 H 0.75738 0.62774 0.2661 0.0
H374 H 0.74066 0.83283 0.24187 0.0
H375 H 0.81502 0.6312 0.24734 0.0
H376 H 0.87171 0.62685 0.20989 0.0
H377 H 0.79477 0.63046 0.22638 0.0
H378 H 0.84953 0.8378 0.23371 0.0
H379 H 0.92421 0.83501 0.21702 0.0
C380 C 0.71367 0.78665 0.25804 0.0
C381 C 0.71693 0.72882 0.26501 0.0
C382 C 0.74543 0.78809 0.24713 0.0
C383 C 0.78165 0.73196 0.24299 0.0
C384 C 0.78605 0.6747 0.25009 0.0
C385 C 0.7538 0.67302 0.26094 0.0
C386 C 0.86585 0.67377 0.21481 0.0
C387 C 0.90503 0.73025 0.21226 0.0
C388 C 0.82236 0.67561 0.22436 0.0
C389 C 0.81756 0.73377 0.2316 0.0
C390 C 0.85202 0.79208 0.22836 0.0
C391 C 0.89498 0.79046 0.21874 0.0
H392 H 0.55193 0.622 0.47367 0.0
H393 H 0.745 0.7133 0.48163 0.0
H394 H 0.55697 0.56486 0.49257 0.0
H395 H 0.74844 0.65992 0.50078 0.0
H396 H 0.77395 0.47761 0.52474 0.0
H397 H 0.76669 0.55499 0.50859 0.0
H398 H 0.55223 0.57332 0.51337 0.0
H399 H 0.55911 0.4923 0.52926 0.0
C400 C 0.59519 0.63013 0.47951 0.0
C401 C 0.64861 0.67096 0.47609 0.0
C402 C 0.59775 0.59823 0.49043 0.0
C403 C 0.65317 0.60769 0.49827 0.0
C404 C 0.70565 0.65017 0.49491 0.0
C405 C 0.70374 0.68078 0.48391 0.0
C406 C 0.72532 0.49915 0.52257 0.0
C407 C 0.66688 0.47746 0.52814 0.0
C408 C 0.72115 0.54403 0.51327 0.0
C409 C 0.65856 0.56943 0.50944 0.0
C410 C 0.60097 0.55304 0.51582 0.0
C411 C 0.60503 0.50726 0.52505 0.0
H412 H 0.91966 0.31419 0.77081 0.0
H413 H 0.91662 0.09772 0.77385 0.0
H414 H 0.83961 0.30671 0.75455 0.0
H415 H 0.83245 0.09035 0.75784 0.0
H416 H 0.76414 0.09735 0.71857 0.0
H417 H 0.82955 0.09949 0.73714 0.0
H418 H 0.73308 0.28657 0.7473 0.0
H419 H 0.6721 0.28639 0.72848 0.0
C420 C 0.90025 0.26496 0.76827 0.0
C421 C 0.92544 0.20645 0.77354 0.0
C422 C 0.85374 0.26064 0.7589 0.0
C423 C 0.82992 0.19776 0.75471 0.0
C424 C 0.85106 0.13949 0.76061 0.0
C425 C 0.89866 0.14375 0.7699 0.0
C426 C 0.75765 0.13901 0.72478 0.0
C427 C 0.71442 0.19242 0.72201 0.0
C428 C 0.79431 0.13992 0.7355 0.0
C429 C 0.78705 0.19347 0.74375 0.0
C430 C 0.74162 0.24546 0.74107 0.0
C431 C 0.70654 0.2454 0.73027 0.0
H432 H 0.19559 0.32865 0.75811 0.0
H433 H 0.27067 0.12942 0.76541 0.0
H434 H 0.25072 0.32567 0.73909 0.0
H435 H 0.32861 0.12757 0.74663 0.0
H436 H 0.38665 0.11254 0.70915 0.0
H437 H 0.31132 0.11884 0.72587 0.0
H438 H 0.35637 0.33067 0.73048 0.0
H439 H 0.42864 0.32509 0.71351 0.0
C440 C 0.22503 0.2847 0.75575 0.0
C441 C 0.22906 0.22936 0.76329 0.0
C442 C 0.25655 0.28292 0.74482 0.0
C443 C 0.29369 0.22613 0.74123 0.0
C444 C 0.29897 0.17144 0.74893 0.0
C445 C 0.26661 0.17283 0.75979 0.0
C446 C 0.37887 0.16085 0.71352 0.0
C447 C 0.41448 0.21804 0.71009 0.0
C448 C 0.33642 0.16429 0.72322 0.0
C449 C 0.32926 0.22481 0.72976 0.0
C450 C 0.36047 0.28316 0.72569 0.0
C451 C 0.40213 0.27993 0.71591 0.0
H452 H 0.17958 0.5943 0.22819 0.0
H453 H 0.24663 0.79849 0.22325 0.0
H454 H 0.24131 0.59128 0.24701 0.0
H455 H 0.31027 0.79461 0.24185 0.0
H456 H 0.38003 0.79606 0.27909 0.0
H457 H 0.29737 0.79282 0.26288 0.0
H458 H 0.35365 0.58738 0.25459 0.0
H459 H 0.43424 0.58974 0.27102 0.0
C460 C 0.20824 0.63826 0.23104 0.0
C461 C 0.20843 0.6966 0.22419 0.0
C462 C 0.24351 0.63652 0.24185 0.0
C463 C 0.28022 0.69288 0.24601 0.0
C464 C 0.28114 0.75086 0.23906 0.0
C465 C 0.24539 0.75281 0.22831 0.0
C466 C 0.37344 0.74961 0.27401 0.0
C467 C 0.41457 0.69358 0.27621 0.0
C468 C 0.3266 0.748 0.26463 0.0
C469 C 0.32033 0.69052 0.25722 0.0
C470 C 0.35718 0.63254 0.2601 0.0
C471 C 0.40354 0.63392 0.26955 0.0
H472 H 0.55053 0.96906 0.46537 0.0
H473 H 0.76504 0.98443 0.46058 0.0
H474 H 0.55744 0.05167 0.4813 0.0
H475 H 0.77148 0.07062 0.47622 0.0
H476 H 0.77255 0.12969 0.51584 0.0
H477 H 0.76738 0.0676 0.49702 0.0
H478 H 0.575 0.15926 0.48888 0.0
H479 H 0.57866 0.21786 0.50799 0.0
C480 C 0.59898 0.99176 0.46744 0.0
C481 C 0.6575 0.9689 0.46187 0.0
C482 C 0.60293 0.03967 0.4766 0.0
C483 C 0.66534 0.06689 0.48028 0.0
C484 C 0.72291 0.04906 0.47388 0.0
C485 C 0.7191 1.00026 0.4648 0.0
C486 C 0.72909 0.1361 0.51003 0.0
C487 C 0.6755 0.17753 0.51346 0.0
C488 C 0.72645 0.10133 0.49915 0.0
C489 C 0.67075 0.10838 0.49137 0.0
C490 C 0.61805 0.15144 0.49472 0.0
C491 C 0.62007 0.185 0.50569 0.0
H492 H 0.26114 0.98418 0.02675 0.0
H493 H 0.05286 0.93044 0.02021 0.0
H494 H 0.25719 0.05679 0.00964 0.0
H495 H 0.04978 1.00072 0.0029 0.0
H496 H 0.05479 0.16892 0.97616 0.0
H497 H 0.05321 0.10947 -0.00524 0.0
H498 H 0.25486 0.03736 0.98867 0.0
H499 H 0.25738 0.09896 0.97027 0.0
C500 C 0.21422 0.98864 0.02179 0.0
C501 C 0.1576 0.95082 0.02478 0.0
C502 C 0.2122 0.02958 0.01188 0.0
C503 C 0.15369 0.03324 0.00471 0.0
C504 C 0.09569 0.99922 0.00821 0.0
C505 C 0.0975 0.9588 0.01817 0.0
C506 C 0.09856 0.13976 0.97871 0.0
C507 C 0.15627 0.13872 0.97172 0.0
C508 C 0.09766 0.10574 0.98941 0.0
C509 C 0.15421 0.06933 0.99331 0.0
C510 C 0.21106 0.06641 0.9861 0.0
C511 C 0.21221 0.10096 0.97546 0.0
H512 H 0.83146 0.86299 0.05731 0.0
H513 H 0.78669 0.68401 0.03625 0.0
H514 H 0.71153 0.88911 0.05796 0.0
H515 H 0.66733 0.70935 0.03714 0.0
H516 H 0.45953 0.7316 0.05193 0.0
H517 H 0.5803 0.71255 0.05248 0.0
H518 H 0.61421 0.92088 0.0443 0.0
H519 H 0.49269 0.94041 0.04381 0.0
C520 C 0.79645 0.82996 0.05261 0.0
C521 C 0.81899 0.77206 0.04651 0.0
C522 C 0.72761 0.84466 0.05308 0.0
C523 C 0.67999 0.80118 0.04764 0.0
C524 C 0.70266 0.74339 0.04157 0.0
C525 C 0.77116 0.729 0.04103 0.0
C526 C 0.49254 0.77361 0.05032 0.0
C527 C 0.4663 0.83743 0.0477 0.0
C528 C 0.56182 0.76254 0.05058 0.0
C529 C 0.60673 0.815 0.04829 0.0
C530 C 0.58081 0.87952 0.04614 0.0
C531 C 0.51123 0.8906 0.04581 0.0
H532 H 0.67886 0.33765 0.31062 0.0
H533 H 0.51786 0.36513 0.28496 0.0
H534 H 0.65301 0.21805 0.31125 0.0
H535 H 0.49241 0.24507 0.28541 0.0
H536 H 0.43422 0.03081 0.29541 0.0
H537 H 0.45092 0.15256 0.29688 0.0
H538 H 0.66599 0.12227 0.29849 0.0
H539 H 0.64935 1.00136 0.29736 0.0
C540 C 0.63752 0.31811 0.30518 0.0
C541 C 0.59995 0.36094 0.29785 0.0
C542 C 0.62292 0.24946 0.30548 0.0
C543 C 0.57092 0.22161 0.29831 0.0
C544 C 0.53217 0.26485 0.29118 0.0
C545 C 0.54658 0.33381 0.29095 0.0
C546 C 0.48502 0.05022 0.29616 0.0
C547 C 0.54041 0.00624 0.29627 0.0
C548 C 0.4946 0.12005 0.29693 0.0
C549 C 0.5598 0.14741 0.29784 0.0
C550 C 0.61501 0.10318 0.29803 0.0
C551 C 0.60545 0.03362 0.29729 0.0
H552 H 0.31974 0.34984 0.5318 0.0
H553 H 0.30849 0.24967 0.56525 0.0
H554 H 0.19816 0.37153 0.53221 0.0
H555 H 0.18759 0.27276 0.5658 0.0
H556 H 0.98287 0.3898 0.56629 0.0
H557 H 0.10591 0.38149 0.56617 0.0
H558 H 0.09464 0.28319 0.53176 0.0
H559 H 0.97182 0.28976 0.53197 0.0
C560 C 0.29149 0.33393 0.53935 0.0
C561 C 0.32332 0.29866 0.54855 0.0
C562 C 0.22208 0.34586 0.53955 0.0
C563 C 0.18372 0.32392 0.54906 0.0
C564 C 0.21611 0.29068 0.55843 0.0
C565 C 0.28508 0.27737 0.5581 0.0
C566 C 0.00671 0.36668 0.55868 0.0
C567 C 0.96773 0.3402 0.54916 0.0
C568 C 0.07698 0.36185 0.55863 0.0
C569 C 0.10958 0.33202 0.54893 0.0
C570 C 0.07071 0.30696 0.5393 0.0
C571 C 1.00049 0.31032 0.53947 0.0
H572 H 0.17992 0.84571 0.80987 0.0
H573 H 0.02725 0.87164 0.78261 0.0
H574 H 0.15545 0.72572 0.81013 0.0
H575 H 0.00313 0.75121 0.78274 0.0
H576 H 0.94501 0.53564 0.79219 0.0
H577 H 0.95928 0.65763 0.7939 0.0
H578 H 0.1744 0.63112 0.79717 0.0
H579 H 0.16014 0.50993 0.79575 0.0
C580 C 0.14063 0.82576 0.804 0.0
C581 C 0.10504 0.86822 0.79631 0.0
C582 C 0.12685 0.75692 0.8041 0.0
C583 C 0.07768 0.72859 0.79639 0.0
C584 C 0.04068 0.77144 0.78891 0.0
C585 C 0.05431 0.84058 0.78887 0.0
C586 C 0.99529 0.55593 0.79334 0.0
C587 C 0.05142 0.51295 0.79383 0.0
C588 C 0.00348 0.62587 0.79426 0.0
C589 C 0.06796 0.65429 0.79571 0.0
C590 C 0.1239 0.61109 0.79627 0.0
C591 C 0.11574 0.54142 0.79537 0.0
H592 H 0.88366 0.22147 0.94026 0.0
H593 H 0.85401 0.43445 0.94656 0.0
H594 H 0.76286 0.2052 0.93881 0.0
H595 H 0.73239 0.41837 0.94476 0.0
H596 H 0.51965 0.34407 0.95502 0.0
H597 H 0.63969 0.36977 0.95517 0.0
H598 H 0.66711 0.2257 0.92648 0.0
H599 H 0.54755 0.19942 0.92652 0.0
C600 C 0.85138 0.26505 0.94122 0.0
C601 C 0.8787 0.32929 0.94355 0.0
C602 C 0.78187 0.25577 0.9403 0.0
C603 C 0.73759 0.3105 0.94161 0.0
C604 C 0.7649 0.37496 0.94383 0.0
C605 C 0.83467 0.38425 0.94479 0.0
C606 C 0.55108 0.31913 0.94857 0.0
C607 C 0.52406 0.27018 0.94067 0.0
C608 C 0.62003 0.33368 0.94867 0.0
C609 C 0.6634 0.29951 0.94089 0.0
C610 C 0.63564 0.25208 0.93276 0.0
C611 C 0.567 0.23727 0.93272 0.0
H612 H 0.13731 0.07955 0.17447 0.0
H613 H 0.02938 0.06509 0.20708 0.0
H614 H 0.11031 0.19977 0.17367 0.0
H615 H 0.00392 0.18597 0.20644 0.0
H616 H 0.07957 0.41574 0.20684 0.0
H617 H 0.091 0.29317 0.20723 0.0
H618 H 0.99552 0.27685 0.17263 0.0
H619 H 0.98211 0.39962 0.17236 0.0
C620 C 0.10723 0.10209 0.1814 0.0
C621 C 0.0848 0.06311 0.19077 0.0
C622 C 0.09168 0.17065 0.18091 0.0
C623 C 0.05499 0.20192 0.18998 0.0
C624 C 0.03217 0.16289 0.19934 0.0
C625 C 0.04633 0.09386 0.19966 0.0
C626 C 0.06058 0.386 0.19935 0.0
C627 C 0.02996 0.41726 0.18956 0.0
C628 C 0.06679 0.31592 0.19961 0.0
C629 C 0.04399 0.27575 0.18998 0.0
C630 C 0.01343 0.30684 0.18017 0.0
C631 C 0.00565 0.37692 0.18004 0.0
H632 H 0.02327 0.70242 0.42861 0.0
H633 H 0.9994 0.86624 0.45387 0.0
H634 H 0.1436 0.72438 0.42817 0.0
H635 H 0.12013 0.8881 0.45351 0.0
H636 H 0.33656 0.93815 0.44317 0.0
H637 H 0.21446 0.92533 0.44161 0.0
H638 H 0.23732 0.7092 0.4417 0.0
H639 H 0.35871 0.72185 0.44301 0.0
C640 C 0.04372 0.74363 0.43398 0.0
C641 C 0.00172 0.78303 0.44117 0.0
C642 C 0.11274 0.756 0.43378 0.0
C643 C 0.14169 0.80767 0.44088 0.0
C644 C 0.09937 0.84847 0.44782 0.0
C645 C 0.03006 0.83616 0.44799 0.0
C646 C 0.31546 0.88792 0.44279 0.0
C647 C 0.35746 0.83104 0.44322 0.0
C648 C 0.24548 0.88061 0.44196 0.0
C649 C 0.21604 0.81626 0.44149 0.0
C650 C 0.25823 0.75951 0.44184 0.0
C651 C 0.32797 0.76679 0.44268 0.0
H652 H 0.64669 0.91069 0.68952 0.0
H653 H 0.43105 0.88475 0.68962 0.0
H654 H 0.66133 0.78959 0.68824 0.0
H655 H 0.44577 0.76278 0.68803 0.0
H656 H 0.51031 0.54845 0.70021 0.0
H657 H 0.48598 0.66881 0.69971 0.0
H658 H 0.6466 0.69518 0.67503 0.0
H659 H 0.67132 0.57529 0.67571 0.0
C660 C 0.60226 0.87917 0.68917 0.0
C661 C 0.53766 0.90757 0.6897 0.0
C662 C 0.61067 0.80952 0.68834 0.0
C663 C 0.55472 0.76623 0.68797 0.0
C664 C 0.48997 0.79459 0.68841 0.0
C665 C 0.48153 0.86452 0.68925 0.0
C666 C 0.53923 0.5797 0.69446 0.0
C667 C 0.59237 0.55235 0.68792 0.0
C668 C 0.52547 0.64881 0.6942 0.0
C669 C 0.56467 0.69192 0.68741 0.0
C670 C 0.61623 0.66381 0.68055 0.0
C671 C 0.63018 0.59503 0.68087 0.0
loop_
_geom_bond_atom_site_label_1
_geom_bond_atom_site_label_2
_geom_bond_distance
_geom_bond_site_symmetry_2
_ccdc_geom_bond_type
Co0 O3 1.970 . S
Co0 N17 1.989 . S
Co0 O25 1.967 . S
Co0 O32 1.920 . S
Co1 O4 1.966 . S
Co1 N10 2.022 1_455 S
Co1 N18 1.993 . S
Co1 O26 1.941 . S
C2 O3 1.258 . S
C2 O4 1.263 . S
O3 Co0 1.970 . S
O3 C2 1.258 . S
O4 Co1 1.966 . S
O4 C2 1.263 . S
C5 O6 1.235 . S
C5 O32 1.289 . S
O6 C5 1.235 . S
C7 C9 1.400 . S
C7 N10 1.351 . S
C7 C12 1.501 . S
C8 C9 1.387 . S
C8 N11 1.341 . S
C9 C7 1.400 . S
C9 C8 1.387 . S
N10 Co1 2.022 1_655 S
N10 C7 1.351 . S
N10 N11 1.365 . S
N11 C8 1.341 . S
N11 N10 1.365 . S
N11 H31 0.862 . S
C12 C7 1.501 . S
C12 H13 0.961 . S
C12 H14 0.961 . S
C12 H15 0.960 . S
H13 C12 0.961 . S
H14 C12 0.961 . S
H15 C12 0.960 . S
C16 N17 1.342 . S
C16 C20 1.401 . S
C16 C21 1.499 . S
N17 Co0 1.989 . S
N17 C16 1.342 . S
N17 N18 1.388 . S
N18 Co1 1.993 . S
N18 N17 1.388 . S
N18 C19 1.346 . S
C19 N18 1.346 . S
C19 C20 1.396 . S
C19 C29 1.510 1_455 S
C20 C16 1.401 . S
C20 C19 1.396 . S
C21 C16 1.499 . S
C21 H22 0.959 . S
C21 H23 0.960 . S
C21 H24 0.961 . S
H22 C21 0.959 . S
H23 C21 0.960 . S
H24 C21 0.961 . S
O25 Co0 1.967 . S
O25 C33 1.258 . S
O26 Co1 1.941 . S
O26 C33 1.266 . S
H27 C29 0.959 . S
H28 C29 0.961 . S
C29 C19 1.510 1_655 S
C29 H27 0.959 . S
C29 H28 0.961 . S
C29 H30 0.960 . S
H30 C29 0.960 . S
H31 N11 0.862 . S
O32 Co0 1.920 . S
O32 C5 1.289 . S
C33 O25 1.258 . S
C33 O26 1.266 . S
Co34 O37 1.970 . S
Co34 N51 1.989 . S
Co34 O59 1.967 . S
Co34 O66 1.920 . S
Co35 O38 1.966 . S
Co35 N44 2.022 . S
Co35 N52 1.993 . S
Co35 O60 1.941 . S
C36 O37 1.258 . S
C36 O38 1.263 . S
O37 Co34 1.970 . S
O37 C36 1.258 . S
O38 Co35 1.966 . S
O38 C36 1.263 . S
C39 O40 1.235 . S
C39 O66 1.289 . S
O40 C39 1.235 . S
C41 C43 1.400 . S
C41 N44 1.351 . S
C41 C46 1.501 . S
C42 C43 1.387 . S
C42 N45 1.341 . S
C43 C41 1.400 . S
C43 C42 1.387 . S
N44 Co35 2.022 . S
N44 C41 1.351 . S
N44 N45 1.365 . S
N45 C42 1.341 . S
N45 N44 1.365 . S
N45 H65 0.862 . S
C46 C41 1.501 . S
C46 H47 0.961 . S
C46 H48 0.961 . S
C46 H49 0.960 . S
H47 C46 0.961 . S
H48 C46 0.961 . S
H49 C46 0.960 . S
C50 N51 1.342 . S
C50 C54 1.401 . S
C50 C55 1.499 . S
N51 Co34 1.989 . S
N51 C50 1.342 . S
N51 N52 1.388 . S
N52 Co35 1.993 . S
N52 N51 1.388 . S
N52 C53 1.346 . S
C53 N52 1.346 . S
C53 C54 1.396 . S
C53 C63 1.510 . S
C54 C50 1.401 . S
C54 C53 1.396 . S
C55 C50 1.499 . S
C55 H56 0.959 . S
C55 H57 0.960 . S
C55 H58 0.961 . S
H56 C55 0.959 . S
H57 C55 0.960 . S
H58 C55 0.961 . S
O59 Co34 1.967 . S
O59 C67 1.258 . S
O60 Co35 1.941 . S
O60 C67 1.266 . S
H61 C63 0.959 . S
H62 C63 0.961 . S
C63 C53 1.510 . S
C63 H61 0.959 . S
C63 H62 0.961 . S
C63 H64 0.960 . S
H64 C63 0.960 . S
H65 N45 0.862 . S
O66 Co34 1.920 . S
O66 C39 1.289 . S
C67 O59 1.258 . S
C67 O60 1.266 . S
Co68 O71 1.970 . S
Co68 N85 1.989 . S
Co68 O93 1.967 . S
Co68 O100 1.920 . S
Co69 O72 1.966 . S
Co69 N78 2.022 . S
Co69 N86 1.993 . S
Co69 O94 1.941 . S
C70 O71 1.258 . S
C70 O72 1.263 . S
O71 Co68 1.970 . S
O71 C70 1.258 . S
O72 Co69 1.966 . S
O72 C70 1.263 . S
C73 O74 1.235 . S
C73 O100 1.289 . S
O74 C73 1.235 . S
C75 C77 1.400 . S
C75 N78 1.351 . S
C75 C80 1.501 . S
C76 C77 1.387 . S
C76 N79 1.341 . S
C77 C75 1.400 . S
C77 C76 1.387 . S
N78 Co69 2.022 . S
N78 C75 1.351 . S
N78 N79 1.365 . S
N79 C76 1.341 . S
N79 N78 1.365 . S
N79 H99 0.862 . S
C80 C75 1.501 . S
C80 H81 0.961 . S
C80 H82 0.961 . S
C80 H83 0.960 . S
H81 C80 0.961 . S
H82 C80 0.961 . S
H83 C80 0.960 . S
C84 N85 1.342 . S
C84 C88 1.401 . S
C84 C89 1.499 . S
N85 Co68 1.989 . S
N85 C84 1.342 . S
N85 N86 1.388 . S
N86 Co69 1.993 . S
N86 N85 1.388 . S
N86 C87 1.346 . S
C87 N86 1.346 . S
C87 C88 1.396 . S
C87 C97 1.510 . S
C88 C84 1.401 . S
C88 C87 1.396 . S
C89 C84 1.499 . S
C89 H90 0.959 . S
C89 H91 0.960 . S
C89 H92 0.961 . S
H90 C89 0.959 . S
H91 C89 0.960 . S
H92 C89 0.961 . S
O93 Co68 1.967 . S
O93 C101 1.258 . S
O94 Co69 1.941 . S
O94 C101 1.266 . S
H95 C97 0.959 . S
H96 C97 0.961 . S
C97 C87 1.510 . S
C97 H95 0.959 . S
C97 H96 0.961 . S
C97 H98 0.960 . S
H98 C97 0.960 . S
H99 N79 0.862 . S
O100 Co68 1.920 . S
O100 C73 1.289 . S
C101 O93 1.258 . S
C101 O94 1.266 . S
Co102 O105 1.970 . S
Co102 N119 1.989 . S
Co102 O127 1.967 . S
Co102 O134 1.920 . S
Co103 O106 1.966 . S
Co103 N112 2.022 . S
Co103 N120 1.993 . S
Co103 O128 1.941 . S
C104 O105 1.258 . S
C104 O106 1.263 . S
O105 Co102 1.970 . S
O105 C104 1.258 . S
O106 Co103 1.966 . S
O106 C104 1.263 . S
C107 O108 1.235 . S
C107 O134 1.289 . S
O108 C107 1.235 . S
C109 C111 1.400 . S
C109 N112 1.351 1_565 S
C109 C114 1.501 1_565 S
C110 C111 1.387 . S
C110 N113 1.341 . S
C111 C109 1.400 . S
C111 C110 1.387 . S
N112 Co103 2.022 . S
N112 C109 1.351 1_545 S
N112 N113 1.365 1_545 S
N113 C110 1.341 . S
N113 N112 1.365 1_565 S
N113 H133 0.862 1_565 S
C114 C109 1.501 1_545 S
C114 H115 0.961 . S
C114 H116 0.962 1_445 S
C114 H117 0.960 1_445 S
H115 C114 0.961 . S
H116 C114 0.962 1_665 S
H117 C114 0.960 1_665 S
C118 N119 1.342 . S
C118 C122 1.401 . S
C118 C123 1.499 . S
N119 Co102 1.989 . S
N119 C118 1.342 . S
N119 N120 1.388 . S
N120 Co103 1.993 . S
N120 N119 1.388 . S
N120 C121 1.346 . S
C121 N120 1.346 . S
C121 C122 1.396 . S
C121 C131 1.510 . S
C122 C118 1.401 . S
C122 C121 1.396 . S
C123 C118 1.499 . S
C123 H124 0.959 . S
C123 H125 0.960 . S
C123 H126 0.961 . S
H124 C123 0.959 . S
H125 C123 0.960 . S
H126 C123 0.961 . S
O127 Co102 1.967 . S
O127 C135 1.258 . S
O128 Co103 1.941 . S
O128 C135 1.266 . S
H129 C131 0.959 . S
H130 C131 0.961 . S
C131 C121 1.510 . S
C131 H129 0.959 . S
C131 H130 0.961 . S
C131 H132 0.960 . S
H132 C131 0.960 . S
H133 N113 0.862 1_545 S
O134 Co102 1.920 . S
O134 C107 1.289 . S
C135 O127 1.258 . S
C135 O128 1.266 . S
Co136 O139 1.970 . S
Co136 N153 1.989 . S
Co136 O161 1.967 . S
Co136 O168 1.920 1_455 S
Co137 O140 1.966 . S
Co137 N146 2.022 . S
Co137 N154 1.993 . S
Co137 O162 1.941 . S
C138 O139 1.258 . S
C138 O140 1.263 . S
O139 Co136 1.970 . S
O139 C138 1.258 . S
O140 Co137 1.966 . S
O140 C138 1.263 . S
C141 O142 1.235 . S
C141 O168 1.289 . S
O142 C141 1.235 . S
C143 C145 1.400 . S
C143 N146 1.351 . S
C143 C148 1.501 . S
C144 C145 1.387 . S
C144 N147 1.341 . S
C145 C143 1.400 . S
C145 C144 1.387 . S
N146 Co137 2.022 . S
N146 C143 1.351 . S
N146 N147 1.365 . S
N147 C144 1.341 . S
N147 N146 1.365 . S
N147 H167 0.862 . S
C148 C143 1.501 . S
C148 H149 0.961 . S
C148 H150 0.961 . S
C148 H151 0.960 . S
H149 C148 0.961 . S
H150 C148 0.961 . S
H151 C148 0.960 . S
C152 N153 1.342 . S
C152 C156 1.401 . S
C152 C157 1.499 . S
N153 Co136 1.989 . S
N153 C152 1.342 . S
N153 N154 1.388 . S
N154 Co137 1.993 . S
N154 N153 1.388 . S
N154 C155 1.346 . S
C155 N154 1.346 . S
C155 C156 1.396 . S
C155 C165 1.510 . S
C156 C152 1.401 . S
C156 C155 1.396 . S
C157 C152 1.499 . S
C157 H158 0.959 . S
C157 H159 0.960 . S
C157 H160 0.961 . S
H158 C157 0.959 . S
H159 C157 0.960 . S
H160 C157 0.961 . S
O161 Co136 1.967 . S
O161 C169 1.258 . S
O162 Co137 1.941 . S
O162 C169 1.266 . S
H163 C165 0.959 . S
H164 C165 0.961 . S
C165 C155 1.510 . S
C165 H163 0.959 . S
C165 H164 0.961 . S
C165 H166 0.960 . S
H166 C165 0.960 . S
H167 N147 0.862 . S
O168 Co136 1.920 1_655 S
O168 C141 1.289 . S
C169 O161 1.258 . S
C169 O162 1.266 . S
Co170 O173 1.970 . S
Co170 N187 1.989 . S
Co170 O195 1.967 . S
Co170 O202 1.920 . S
Co171 O174 1.966 . S
Co171 N180 2.022 . S
Co171 N188 1.993 . S
Co171 O196 1.941 . S
C172 O173 1.258 . S
C172 O174 1.263 . S
O173 Co170 1.970 . S
O173 C172 1.258 . S
O174 Co171 1.966 . S
O174 C172 1.263 . S
C175 O176 1.235 . S
C175 O202 1.289 . S
O176 C175 1.235 . S
C177 C179 1.400 1_565 S
C177 N180 1.351 . S
C177 C182 1.501 1_455 S
C178 C179 1.387 . S
C178 N181 1.341 1_545 S
C179 C177 1.400 1_545 S
C179 C178 1.387 . S
N180 Co171 2.022 . S
N180 C177 1.351 . S
N180 N181 1.365 . S
N181 C178 1.341 1_565 S
N181 N180 1.365 . S
N181 H201 0.862 . S
C182 C177 1.501 1_655 S
C182 H183 0.961 . S
C182 H184 0.961 . S
C182 H185 0.960 . S
H183 C182 0.961 . S
H184 C182 0.961 . S
H185 C182 0.960 . S
C186 N187 1.342 . S
C186 C190 1.401 . S
C186 C191 1.499 . S
N187 Co170 1.989 . S
N187 C186 1.342 . S
N187 N188 1.388 . S
N188 Co171 1.993 . S
N188 N187 1.388 . S
N188 C189 1.346 . S
C189 N188 1.346 . S
C189 C190 1.396 . S
C189 C199 1.510 . S
C190 C186 1.401 . S
C190 C189 1.396 . S
C191 C186 1.499 . S
C191 H192 0.959 . S
C191 H193 0.960 . S
C191 H194 0.961 . S
H192 C191 0.959 . S
H193 C191 0.960 . S
H194 C191 0.961 . S
O195 Co170 1.967 . S
O195 C203 1.258 . S
O196 Co171 1.941 . S
O196 C203 1.266 . S
H197 C199 0.959 . S
H198 C199 0.961 . S
C199 C189 1.510 . S
C199 H197 0.959 . S
C199 H198 0.961 . S
C199 H200 0.960 . S
H200 C199 0.960 . S
H201 N181 0.862 . S
O202 Co170 1.920 . S
O202 C175 1.289 . S
C203 O195 1.258 . S
C203 O196 1.266 . S
Co204 O207 1.970 . S
Co204 N221 1.989 . S
Co204 O229 1.967 . S
Co204 O236 1.920 . S
Co205 O208 1.966 . S
Co205 N214 2.022 . S
Co205 N222 1.993 . S
Co205 O230 1.941 . S
C206 O207 1.258 . S
C206 O208 1.263 . S
O207 Co204 1.970 . S
O207 C206 1.258 . S
O208 Co205 1.966 . S
O208 C206 1.263 . S
C209 O210 1.235 . S
C209 O236 1.289 . S
O210 C209 1.235 . S
C211 C213 1.400 . S
C211 N214 1.351 . S
C211 C216 1.501 . S
C212 C213 1.387 . S
C212 N215 1.341 . S
C213 C211 1.400 . S
C213 C212 1.387 . S
N214 Co205 2.022 . S
N214 C211 1.351 . S
N214 N215 1.365 . S
N215 C212 1.341 . S
N215 N214 1.365 . S
N215 H235 0.862 . S
C216 C211 1.501 . S
C216 H217 0.961 . S
C216 H218 0.961 . S
C216 H219 0.960 . S
H217 C216 0.961 . S
H218 C216 0.961 . S
H219 C216 0.960 . S
C220 N221 1.342 . S
C220 C224 1.401 . S
C220 C225 1.499 . S
N221 Co204 1.989 . S
N221 C220 1.342 . S
N221 N222 1.388 . S
N222 Co205 1.993 . S
N222 N221 1.388 . S
N222 C223 1.346 . S
C223 N222 1.346 . S
C223 C224 1.396 . S
C223 C233 1.510 . S
C224 C220 1.401 . S
C224 C223 1.396 . S
C225 C220 1.499 . S
C225 H226 0.959 . S
C225 H227 0.960 . S
C225 H228 0.961 . S
H226 C225 0.959 . S
H227 C225 0.960 . S
H228 C225 0.961 . S
O229 Co204 1.967 . S
O229 C237 1.258 . S
O230 Co205 1.941 . S
O230 C237 1.266 . S
H231 C233 0.959 . S
H232 C233 0.961 . S
C233 C223 1.510 . S
C233 H231 0.959 . S
C233 H232 0.961 . S
C233 H234 0.960 . S
H234 C233 0.960 . S
H235 N215 0.862 . S
O236 Co204 1.920 . S
O236 C209 1.289 . S
C237 O229 1.258 . S
C237 O230 1.266 . S
Co238 O241 1.970 . S
Co238 N255 1.989 . S
Co238 O263 1.967 . S
Co238 O270 1.920 . S
Co239 O242 1.966 . S
Co239 N248 2.022 . S
Co239 N256 1.993 . S
Co239 O264 1.941 . S
C240 O241 1.258 . S
C240 O242 1.263 . S
O241 Co238 1.970 . S
O241 C240 1.258 . S
O242 Co239 1.966 . S
O242 C240 1.263 . S
C243 O244 1.235 . S
C243 O270 1.289 . S
O244 C243 1.235 . S
C245 C247 1.400 . S
C245 N248 1.351 . S
C245 C250 1.501 . S
C246 C247 1.387 . S
C246 N249 1.341 . S
C247 C245 1.400 . S
C247 C246 1.387 . S
N248 Co239 2.022 . S
N248 C245 1.351 . S
N248 N249 1.365 . S
N249 C246 1.341 . S
N249 N248 1.365 . S
N249 H269 0.862 . S
C250 C245 1.501 . S
C250 H251 0.961 . S
C250 H252 0.961 . S
C250 H253 0.960 . S
H251 C250 0.961 . S
H252 C250 0.961 . S
H253 C250 0.960 . S
C254 N255 1.342 . S
C254 C258 1.401 . S
C254 C259 1.499 . S
N255 Co238 1.989 . S
N255 C254 1.342 . S
N255 N256 1.388 . S
N256 Co239 1.993 . S
N256 N255 1.388 . S
N256 C257 1.346 . S
C257 N256 1.346 . S
C257 C258 1.396 . S
C257 C267 1.510 . S
C258 C254 1.401 . S
C258 C257 1.396 . S
C259 C254 1.499 . S
C259 H260 0.959 . S
C259 H261 0.960 . S
C259 H262 0.961 . S
H260 C259 0.959 . S
H261 C259 0.960 . S
H262 C259 0.961 . S
O263 Co238 1.967 . S
O263 C271 1.258 . S
O264 Co239 1.941 . S
O264 C271 1.266 . S
H265 C267 0.959 . S
H266 C267 0.961 . S
C267 C257 1.510 . S
C267 H265 0.959 . S
C267 H266 0.961 . S
C267 H268 0.960 . S
H268 C267 0.960 . S
H269 N249 0.862 . S
O270 Co238 1.920 . S
O270 C243 1.289 . S
C271 O263 1.258 . S
C271 O264 1.266 . S
H272 C280 0.950 . S
H273 C285 0.950 . S
H274 C282 0.950 . S
H275 C284 0.950 . S
H276 C286 0.950 . S
H277 C288 0.950 . S
H278 C290 0.950 . S
H279 C291 0.950 . S
C280 H272 0.950 . S
C280 C281 1.386 . S
C280 C282 1.391 . S
C281 C280 1.386 . S
C281 C285 1.393 . S
C282 H274 0.950 . S
C282 C280 1.391 . S
C282 C283 1.400 . S
C283 C282 1.400 . S
C283 C284 1.398 . S
C283 C289 1.491 . S
C284 H275 0.950 . S
C284 C283 1.398 . S
C284 C285 1.391 . S
C285 H273 0.950 . S
C285 C281 1.393 . S
C285 C284 1.391 . S
C286 H276 0.950 . S
C286 C287 1.386 . S
C286 C288 1.391 . S
C287 C286 1.386 . S
C287 C291 1.393 . S
C288 H277 0.950 . S
C288 C286 1.391 . S
C288 C289 1.400 . S
C289 C283 1.491 . S
C289 C288 1.400 . S
C289 C290 1.398 . S
C290 H278 0.950 . S
C290 C289 1.398 . S
C290 C291 1.391 . S
C291 H279 0.950 . S
C291 C287 1.393 . S
C291 C290 1.391 . S
H292 C300 0.950 . S
H293 C305 0.950 . S
H294 C302 0.950 . S
H295 C304 0.950 . S
H296 C306 0.950 . S
H297 C308 0.950 . S
H298 C310 0.950 . S
H299 C311 0.950 . S
C300 H292 0.950 . S
C300 C301 1.386 . S
C300 C302 1.391 . S
C301 C300 1.386 . S
C301 C305 1.393 . S
C302 H294 0.950 . S
C302 C300 1.391 . S
C302 C303 1.400 . S
C303 C302 1.400 . S
C303 C304 1.398 . S
C303 C309 1.491 . S
C304 H295 0.950 . S
C304 C303 1.398 . S
C304 C305 1.391 . S
C305 H293 0.950 . S
C305 C301 1.393 . S
C305 C304 1.391 . S
C306 H296 0.950 . S
C306 C307 1.386 . S
C306 C308 1.391 . S
C307 C306 1.386 . S
C307 C311 1.393 . S
C308 H297 0.950 . S
C308 C306 1.391 . S
C308 C309 1.400 . S
C309 C303 1.491 . S
C309 C308 1.400 . S
C309 C310 1.398 . S
C310 H298 0.950 . S
C310 C309 1.398 . S
C310 C311 1.391 . S
C311 H299 0.950 . S
C311 C307 1.393 . S
C311 C310 1.391 . S
H312 C320 0.950 . S
H313 C325 0.950 . S
H314 C322 0.950 . S
H315 C324 0.950 . S
H316 C326 0.950 . S
H317 C328 0.950 . S
H318 C330 0.950 . S
H319 C331 0.950 . S
C320 H312 0.950 . S
C320 C321 1.386 . S
C320 C322 1.391 . S
C321 C320 1.386 . S
C321 C325 1.393 . S
C322 H314 0.950 . S
C322 C320 1.391 . S
C322 C323 1.400 . S
C323 C322 1.400 . S
C323 C324 1.398 . S
C323 C329 1.491 . S
C324 H315 0.950 . S
C324 C323 1.398 . S
C324 C325 1.391 . S
C325 H313 0.950 . S
C325 C321 1.393 . S
C325 C324 1.391 . S
C326 H316 0.950 . S
C326 C327 1.386 . S
C326 C328 1.391 . S
C327 C326 1.386 . S
C327 C331 1.393 . S
C328 H317 0.950 . S
C328 C326 1.391 . S
C328 C329 1.400 . S
C329 C323 1.491 . S
C329 C328 1.400 . S
C329 C330 1.398 . S
C330 H318 0.950 . S
C330 C329 1.398 . S
C330 C331 1.391 . S
C331 H319 0.950 . S
C331 C327 1.393 . S
C331 C330 1.391 . S
H332 C340 0.950 . S
H333 C345 0.950 . S
H334 C342 0.950 . S
H335 C344 0.950 . S
H336 C346 0.950 . S
H337 C348 0.950 . S
H338 C350 0.950 . S
H339 C351 0.950 . S
C340 H332 0.950 . S
C340 C341 1.386 . S
C340 C342 1.391 . S
C341 C340 1.386 . S
C341 C345 1.393 . S
C342 H334 0.950 . S
C342 C340 1.391 . S
C342 C343 1.400 . S
C343 C342 1.400 . S
C343 C344 1.398 . S
C343 C349 1.491 . S
C344 H335 0.950 . S
C344 C343 1.398 . S
C344 C345 1.391 . S
C345 H333 0.950 . S
C345 C341 1.393 . S
C345 C344 1.391 . S
C346 H336 0.950 . S
C346 C347 1.386 . S
C346 C348 1.391 . S
C347 C346 1.386 . S
C347 C351 1.393 . S
C348 H337 0.950 . S
C348 C346 1.391 . S
C348 C349 1.400 . S
C349 C343 1.491 . S
C349 C348 1.400 . S
C349 C350 1.398 . S
C350 H338 0.950 . S
C350 C349 1.398 . S
C350 C351 1.391 . S
C351 H339 0.950 . S
C351 C347 1.393 . S
C351 C350 1.391 . S
H352 C360 0.950 . S
H353 C365 0.950 . S
H354 C362 0.950 . S
H355 C364 0.950 1_556 S
H356 C366 0.950 . S
H357 C368 0.950 . S
H358 C370 0.950 1_554 S
H359 C371 0.950 . S
C360 H352 0.950 . S
C360 C361 1.386 . S
C360 C362 1.391 . S
C361 C360 1.386 . S
C361 C365 1.393 . S
C362 H354 0.950 . S
C362 C360 1.391 . S
C362 C363 1.400 . S
C363 C362 1.400 . S
C363 C364 1.398 . S
C363 C369 1.491 1_554 S
C364 H355 0.950 1_554 S
C364 C363 1.398 . S
C364 C365 1.391 . S
C365 H353 0.950 . S
C365 C361 1.393 . S
C365 C364 1.391 . S
C366 H356 0.950 . S
C366 C367 1.386 . S
C366 C368 1.391 . S
C367 C366 1.386 . S
C367 C371 1.393 . S
C368 H357 0.950 . S
C368 C366 1.391 . S
C368 C369 1.400 . S
C369 C363 1.491 1_556 S
C369 C368 1.400 . S
C369 C370 1.398 . S
C370 H358 0.950 1_556 S
C370 C369 1.398 . S
C370 C371 1.391 . S
C371 H359 0.950 . S
C371 C367 1.393 . S
C371 C370 1.391 . S
H372 C380 0.950 . S
H373 C385 0.950 . S
H374 C382 0.950 . S
H375 C384 0.950 . S
H376 C386 0.950 1_455 S
H377 C388 0.950 . S
H378 C390 0.950 . S
H379 C391 0.950 . S
C380 H372 0.950 . S
C380 C381 1.386 . S
C380 C382 1.391 . S
C381 C380 1.386 . S
C381 C385 1.393 . S
C382 H374 0.950 . S
C382 C380 1.391 . S
C382 C383 1.400 . S
C383 C382 1.400 . S
C383 C384 1.398 . S
C383 C389 1.491 . S
C384 H375 0.950 . S
C384 C383 1.398 . S
C384 C385 1.391 . S
C385 H373 0.950 . S
C385 C381 1.393 . S
C385 C384 1.391 . S
C386 H376 0.950 1_655 S
C386 C387 1.386 . S
C386 C388 1.391 . S
C387 C386 1.386 . S
C387 C391 1.393 . S
C388 H377 0.950 . S
C388 C386 1.391 . S
C388 C389 1.400 . S
C389 C383 1.491 . S
C389 C388 1.400 . S
C389 C390 1.398 . S
C390 H378 0.950 . S
C390 C389 1.398 . S
C390 C391 1.391 . S
C391 H379 0.950 . S
C391 C387 1.393 . S
C391 C390 1.391 . S
H392 C400 0.950 . S
H393 C405 0.950 . S
H394 C402 0.950 . S
H395 C404 0.950 . S
H396 C406 0.950 . S
H397 C408 0.950 . S
H398 C410 0.950 . S
H399 C411 0.950 . S
C400 H392 0.950 . S
C400 C401 1.386 . S
C400 C402 1.391 . S
C401 C400 1.386 . S
C401 C405 1.393 . S
C402 H394 0.950 . S
C402 C400 1.391 . S
C402 C403 1.400 . S
C403 C402 1.400 . S
C403 C404 1.398 . S
C403 C409 1.491 . S
C404 H395 0.950 . S
C404 C403 1.398 . S
C404 C405 1.391 . S
C405 H393 0.950 . S
C405 C401 1.393 . S
C405 C404 1.391 . S
C406 H396 0.950 . S
C406 C407 1.386 . S
C406 C408 1.391 . S
C407 C406 1.386 . S
C407 C411 1.393 . S
C408 H397 0.950 . S
C408 C406 1.391 . S
C408 C409 1.400 . S
C409 C403 1.491 . S
C409 C408 1.400 . S
C409 C410 1.398 . S
C410 H398 0.950 . S
C410 C409 1.398 . S
C410 C411 1.391 . S
C411 H399 0.950 . S
C411 C407 1.393 . S
C411 C410 1.391 . S
H412 C420 0.950 . S
H413 C425 0.950 . S
H414 C422 0.950 . S
H415 C424 0.950 . S
H416 C426 0.950 . S
H417 C428 0.950 . S
H418 C430 0.950 . S
H419 C431 0.950 . S
C420 H412 0.950 . S
C420 C421 1.386 . S
C420 C422 1.391 . S
C421 C420 1.386 . S
C421 C425 1.393 . S
C422 H414 0.950 . S
C422 C420 1.391 . S
C422 C423 1.400 . S
C423 C422 1.400 . S
C423 C424 1.398 . S
C423 C429 1.491 . S
C424 H415 0.950 . S
C424 C423 1.398 . S
C424 C425 1.391 . S
C425 H413 0.950 . S
C425 C421 1.393 . S
C425 C424 1.391 . S
C426 H416 0.950 . S
C426 C427 1.386 . S
C426 C428 1.391 . S
C427 C426 1.386 . S
C427 C431 1.393 . S
C428 H417 0.950 . S
C428 C426 1.391 . S
C428 C429 1.400 . S
C429 C423 1.491 . S
C429 C428 1.400 . S
C429 C430 1.398 . S
C430 H418 0.950 . S
C430 C429 1.398 . S
C430 C431 1.391 . S
C431 H419 0.950 . S
C431 C427 1.393 . S
C431 C430 1.391 . S
H432 C440 0.950 . S
H433 C445 0.950 . S
H434 C442 0.950 . S
H435 C444 0.950 . S
H436 C446 0.950 . S
H437 C448 0.950 . S
H438 C450 0.950 . S
H439 C451 0.950 . S
C440 H432 0.950 . S
C440 C441 1.386 . S
C440 C442 1.391 . S
C441 C440 1.386 . S
C441 C445 1.393 . S
C442 H434 0.950 . S
C442 C440 1.391 . S
C442 C443 1.400 . S
C443 C442 1.400 . S
C443 C444 1.398 . S
C443 C449 1.491 . S
C444 H435 0.950 . S
C444 C443 1.398 . S
C444 C445 1.391 . S
C445 H433 0.950 . S
C445 C441 1.393 . S
C445 C444 1.391 . S
C446 H436 0.950 . S
C446 C447 1.386 . S
C446 C448 1.391 . S
C447 C446 1.386 . S
C447 C451 1.393 . S
C448 H437 0.950 . S
C448 C446 1.391 . S
C448 C449 1.400 . S
C449 C443 1.491 . S
C449 C448 1.400 . S
C449 C450 1.398 . S
C450 H438 0.950 . S
C450 C449 1.398 . S
C450 C451 1.391 . S
C451 H439 0.950 . S
C451 C447 1.393 . S
C451 C450 1.391 . S
H452 C460 0.950 . S
H453 C465 0.950 . S
H454 C462 0.950 . S
H455 C464 0.950 . S
H456 C466 0.950 . S
H457 C468 0.950 . S
H458 C470 0.950 . S
H459 C471 0.950 . S
C460 H452 0.950 . S
C460 C461 1.386 . S
C460 C462 1.391 . S
C461 C460 1.386 . S
C461 C465 1.393 . S
C462 H454 0.950 . S
C462 C460 1.391 . S
C462 C463 1.400 . S
C463 C462 1.400 . S
C463 C464 1.398 . S
C463 C469 1.491 . S
C464 H455 0.950 . S
C464 C463 1.398 . S
C464 C465 1.391 . S
C465 H453 0.950 . S
C465 C461 1.393 . S
C465 C464 1.391 . S
C466 H456 0.950 . S
C466 C467 1.386 . S
C466 C468 1.391 . S
C467 C466 1.386 . S
C467 C471 1.393 . S
C468 H457 0.950 . S
C468 C466 1.391 . S
C468 C469 1.400 . S
C469 C463 1.491 . S
C469 C468 1.400 . S
C469 C470 1.398 . S
C470 H458 0.950 . S
C470 C469 1.398 . S
C470 C471 1.391 . S
C471 H459 0.950 . S
C471 C467 1.393 . S
C471 C470 1.391 . S
H472 C480 0.950 . S
H473 C485 0.950 . S
H474 C482 0.950 . S
H475 C484 0.950 . S
H476 C486 0.950 . S
H477 C488 0.950 . S
H478 C490 0.950 . S
H479 C491 0.950 . S
C480 H472 0.950 . S
C480 C481 1.386 . S
C480 C482 1.391 . S
C481 C480 1.386 . S
C481 C485 1.393 . S
C482 H474 0.950 . S
C482 C480 1.391 . S
C482 C483 1.400 . S
C483 C482 1.400 . S
C483 C484 1.398 . S
C483 C489 1.491 1_565 S
C484 H475 0.950 . S
C484 C483 1.398 . S
C484 C485 1.391 . S
C485 H473 0.950 . S
C485 C481 1.393 . S
C485 C484 1.391 . S
C486 H476 0.950 . S
C486 C487 1.386 . S
C486 C488 1.391 . S
C487 C486 1.386 . S
C487 C491 1.393 . S
C488 H477 0.950 . S
C488 C486 1.391 . S
C488 C489 1.400 . S
C489 C483 1.491 1_545 S
C489 C488 1.400 . S
C489 C490 1.398 . S
C490 H478 0.950 . S
C490 C489 1.398 . S
C490 C491 1.391 . S
C491 H479 0.950 . S
C491 C487 1.393 . S
C491 C490 1.391 . S
H492 C500 0.950 . S
H493 C505 0.950 . S
H494 C502 0.950 1_556 S
H495 C504 0.950 . S
H496 C506 0.950 . S
H497 C508 0.950 1_554 S
H498 C510 0.950 1_565 S
H499 C511 0.950 . S
C500 H492 0.950 . S
C500 C501 1.386 . S
C500 C502 1.391 . S
C501 C500 1.386 . S
C501 C505 1.393 . S
C502 H494 0.950 1_554 S
C502 C500 1.391 . S
C502 C503 1.400 . S
C503 C502 1.400 . S
C503 C504 1.398 1_565 S
C503 C509 1.491 1_564 S
C504 H495 0.950 . S
C504 C503 1.398 1_545 S
C504 C505 1.391 1_545 S
C505 H493 0.950 . S
C505 C501 1.393 . S
C505 C504 1.391 1_565 S
C506 H496 0.950 . S
C506 C507 1.386 . S
C506 C508 1.391 . S
C507 C506 1.386 . S
C507 C511 1.393 . S
C508 H497 0.950 1_556 S
C508 C506 1.391 . S
C508 C509 1.400 . S
C509 C503 1.491 1_546 S
C509 C508 1.400 . S
C509 C510 1.398 . S
C510 H498 0.950 1_545 S
C510 C509 1.398 . S
C510 C511 1.391 . S
C511 H499 0.950 . S
C511 C507 1.393 . S
C511 C510 1.391 . S
H512 C520 0.950 . S
H513 C525 0.950 . S
H514 C522 0.950 . S
H515 C524 0.950 . S
H516 C526 0.950 . S
H517 C528 0.950 . S
H518 C530 0.950 . S
H519 C531 0.950 . S
C520 H512 0.950 . S
C520 C521 1.386 . S
C520 C522 1.391 . S
C521 C520 1.386 . S
C521 C525 1.393 . S
C522 H514 0.950 . S
C522 C520 1.391 . S
C522 C523 1.400 . S
C523 C522 1.400 . S
C523 C524 1.398 . S
C523 C529 1.491 . S
C524 H515 0.950 . S
C524 C523 1.398 . S
C524 C525 1.391 . S
C525 H513 0.950 . S
C525 C521 1.393 . S
C525 C524 1.391 . S
C526 H516 0.950 . S
C526 C527 1.386 . S
C526 C528 1.391 . S
C527 C526 1.386 . S
C527 C531 1.393 . S
C528 H517 0.950 . S
C528 C526 1.391 . S
C528 C529 1.400 . S
C529 C523 1.491 . S
C529 C528 1.400 . S
C529 C530 1.398 . S
C530 H518 0.950 . S
C530 C529 1.398 . S
C530 C531 1.391 . S
C531 H519 0.950 . S
C531 C527 1.393 . S
C531 C530 1.391 . S
H532 C540 0.950 . S
H533 C545 0.950 . S
H534 C542 0.950 . S
H535 C544 0.950 . S
H536 C546 0.950 . S
H537 C548 0.950 . S
H538 C550 0.950 . S
H539 C551 0.950 . S
C540 H532 0.950 . S
C540 C541 1.386 . S
C540 C542 1.391 . S
C541 C540 1.386 . S
C541 C545 1.393 . S
C542 H534 0.950 . S
C542 C540 1.391 . S
C542 C543 1.400 . S
C543 C542 1.400 . S
C543 C544 1.398 . S
C543 C549 1.491 . S
C544 H535 0.950 . S
C544 C543 1.398 . S
C544 C545 1.391 . S
C545 H533 0.950 . S
C545 C541 1.393 . S
C545 C544 1.391 . S
C546 H536 0.950 . S
C546 C547 1.386 1_545 S
C546 C548 1.391 . S
C547 C546 1.386 1_565 S
C547 C551 1.393 1_565 S
C548 H537 0.950 . S
C548 C546 1.391 . S
C548 C549 1.400 . S
C549 C543 1.491 . S
C549 C548 1.400 . S
C549 C550 1.398 . S
C550 H538 0.950 . S
C550 C549 1.398 . S
C550 C551 1.391 . S
C551 H539 0.950 . S
C551 C547 1.393 1_545 S
C551 C550 1.391 . S
H552 C560 0.950 . S
H553 C565 0.950 . S
H554 C562 0.950 . S
H555 C564 0.950 . S
H556 C566 0.950 . S
H557 C568 0.950 . S
H558 C570 0.950 . S
H559 C571 0.950 . S
C560 H552 0.950 . S
C560 C561 1.386 . S
C560 C562 1.391 . S
C561 C560 1.386 . S
C561 C565 1.393 . S
C562 H554 0.950 . S
C562 C560 1.391 . S
C562 C563 1.400 . S
C563 C562 1.400 . S
C563 C564 1.398 . S
C563 C569 1.491 . S
C564 H555 0.950 . S
C564 C563 1.398 . S
C564 C565 1.391 . S
C565 H553 0.950 . S
C565 C561 1.393 . S
C565 C564 1.391 . S
C566 H556 0.950 . S
C566 C567 1.386 . S
C566 C568 1.391 1_655 S
C567 C566 1.386 . S
C567 C571 1.393 . S
C568 H557 0.950 . S
C568 C566 1.391 1_455 S
C568 C569 1.400 . S
C569 C563 1.491 . S
C569 C568 1.400 . S
C569 C570 1.398 . S
C570 H558 0.950 . S
C570 C569 1.398 . S
C570 C571 1.391 1_455 S
C571 H559 0.950 . S
C571 C567 1.393 . S
C571 C570 1.391 1_655 S
H572 C580 0.950 . S
H573 C585 0.950 1_655 S
H574 C582 0.950 . S
H575 C584 0.950 1_655 S
H576 C586 0.950 1_655 S
H577 C588 0.950 1_655 S
H578 C590 0.950 . S
H579 C591 0.950 . S
C580 H572 0.950 . S
C580 C581 1.386 . S
C580 C582 1.391 . S
C581 C580 1.386 . S
C581 C585 1.393 . S
C582 H574 0.950 . S
C582 C580 1.391 . S
C582 C583 1.400 . S
C583 C582 1.400 . S
C583 C584 1.398 . S
C583 C589 1.491 . S
C584 H575 0.950 1_455 S
C584 C583 1.398 . S
C584 C585 1.391 . S
C585 H573 0.950 1_455 S
C585 C581 1.393 . S
C585 C584 1.391 . S
C586 H576 0.950 1_455 S
C586 C587 1.386 . S
C586 C588 1.391 . S
C587 C586 1.386 . S
C587 C591 1.393 . S
C588 H577 0.950 1_455 S
C588 C586 1.391 . S
C588 C589 1.400 . S
C589 C583 1.491 . S
C589 C588 1.400 . S
C589 C590 1.398 . S
C590 H578 0.950 . S
C590 C589 1.398 . S
C590 C591 1.391 . S
C591 H579 0.950 . S
C591 C587 1.393 . S
C591 C590 1.391 . S
H592 C600 0.950 . S
H593 C605 0.950 . S
H594 C602 0.950 . S
H595 C604 0.950 . S
H596 C606 0.950 . S
H597 C608 0.950 . S
H598 C610 0.950 . S
H599 C611 0.950 . S
C600 H592 0.950 . S
C600 C601 1.386 . S
C600 C602 1.391 . S
C601 C600 1.386 . S
C601 C605 1.393 . S
C602 H594 0.950 . S
C602 C600 1.391 . S
C602 C603 1.400 . S
C603 C602 1.400 . S
C603 C604 1.398 . S
C603 C609 1.491 . S
C604 H595 0.950 . S
C604 C603 1.398 . S
C604 C605 1.391 . S
C605 H593 0.950 . S
C605 C601 1.393 . S
C605 C604 1.391 . S
C606 H596 0.950 . S
C606 C607 1.386 . S
C606 C608 1.391 . S
C607 C606 1.386 . S
C607 C611 1.393 . S
C608 H597 0.950 . S
C608 C606 1.391 . S
C608 C609 1.400 . S
C609 C603 1.491 . S
C609 C608 1.400 . S
C609 C610 1.398 . S
C610 H598 0.950 . S
C610 C609 1.398 . S
C610 C611 1.391 . S
C611 H599 0.950 . S
C611 C607 1.393 . S
C611 C610 1.391 . S
H612 C620 0.950 . S
H613 C625 0.950 . S
H614 C622 0.950 . S
H615 C624 0.950 . S
H616 C626 0.950 . S
H617 C628 0.950 . S
H618 C630 0.950 . S
H619 C631 0.950 . S
C620 H612 0.950 . S
C620 C621 1.386 . S
C620 C622 1.391 . S
C621 C620 1.386 . S
C621 C625 1.393 . S
C622 H614 0.950 . S
C622 C620 1.391 . S
C622 C623 1.400 . S
C623 C622 1.400 . S
C623 C624 1.398 . S
C623 C629 1.491 . S
C624 H615 0.950 . S
C624 C623 1.398 . S
C624 C625 1.391 . S
C625 H613 0.950 . S
C625 C621 1.393 . S
C625 C624 1.391 . S
C626 H616 0.950 . S
C626 C627 1.386 . S
C626 C628 1.391 . S
C627 C626 1.386 . S
C627 C631 1.393 . S
C628 H617 0.950 . S
C628 C626 1.391 . S
C628 C629 1.400 . S
C629 C623 1.491 . S
C629 C628 1.400 . S
C629 C630 1.398 . S
C630 H618 0.950 . S
C630 C629 1.398 . S
C630 C631 1.391 . S
C631 H619 0.950 . S
C631 C627 1.393 . S
C631 C630 1.391 . S
H632 C640 0.950 . S
H633 C645 0.950 . S
H634 C642 0.950 . S
H635 C644 0.950 . S
H636 C646 0.950 . S
H637 C648 0.950 . S
H638 C650 0.950 . S
H639 C651 0.950 . S
C640 H632 0.950 . S
C640 C641 1.386 . S
C640 C642 1.391 . S
C641 C640 1.386 . S
C641 C645 1.393 . S
C642 H634 0.950 . S
C642 C640 1.391 . S
C642 C643 1.400 . S
C643 C642 1.400 . S
C643 C644 1.398 . S
C643 C649 1.491 . S
C644 H635 0.950 . S
C644 C643 1.398 . S
C644 C645 1.391 . S
C645 H633 0.950 . S
C645 C641 1.393 . S
C645 C644 1.391 . S
C646 H636 0.950 . S
C646 C647 1.386 . S
C646 C648 1.391 . S
C647 C646 1.386 . S
C647 C651 1.393 . S
C648 H637 0.950 . S
C648 C646 1.391 . S
C648 C649 1.400 . S
C649 C643 1.491 . S
C649 C648 1.400 . S
C649 C650 1.398 . S
C650 H638 0.950 . S
C650 C649 1.398 . S
C650 C651 1.391 . S
C651 H639 0.950 . S
C651 C647 1.393 . S
C651 C650 1.391 . S
H652 C660 0.950 . S
H653 C665 0.950 . S
H654 C662 0.950 . S
H655 C664 0.950 . S
H656 C666 0.950 . S
H657 C668 0.950 . S
H658 C670 0.950 . S
H659 C671 0.950 . S
C660 H652 0.950 . S
C660 C661 1.386 . S
C660 C662 1.391 . S
C661 C660 1.386 . S
C661 C665 1.393 . S
C662 H654 0.950 . S
C662 C660 1.391 . S
C662 C663 1.400 . S
C663 C662 1.400 . S
C663 C664 1.398 . S
C663 C669 1.491 . S
C664 H655 0.950 . S
C664 C663 1.398 . S
C664 C665 1.391 . S
C665 H653 0.950 . S
C665 C661 1.393 . S
C665 C664 1.391 . S
C666 H656 0.950 . S
C666 C667 1.386 . S
C666 C668 1.391 . S
C667 C666 1.386 . S
C667 C671 1.393 . S
C668 H657 0.950 . S
C668 C666 1.391 . S
C668 C669 1.400 . S
C669 C663 1.491 . S
C669 C668 1.400 . S
C669 C670 1.398 . S
C670 H658 0.950 . S
C670 C669 1.398 . S
C670 C671 1.391 . S
C671 H659 0.950 . S
C671 C667 1.393 . S
C671 C670 1.391 . S
C281 C20 1.461 . S
C287 C190 1.456 . S
C301 C224 1.472 . S
C307 C54 1.478 . S
C321 C88 1.459 . S
C327 C258 1.462 . S
C341 C156 1.479 . S
C347 C122 1.480 . S
C361 C33 1.152 . S
C367 C138 1.162 . S
C381 C67 1.155 . S
C387 C172 1.152 1_655 S
C401 C237 1.144 . S
C407 C70 1.154 . S
C421 C104 1.152 1_655 S
C427 C271 1.144 . S
C441 C135 1.149 . S
C447 C240 1.157 . S
C461 C203 1.161 . S
C467 C36 1.159 . S
C481 C206 1.152 . S
C487 C101 1.144 . S
C501 C2 1.155 . S
C507 C169 1.146 . S
C521 C9 1.470 . S
C527 C5 1.570 . S
C541 C43 1.491 . S
C547 C39 1.576 . S
C561 C77 1.462 . S
C567 C73 1.566 . S
C581 C111 1.484 . S
C587 C107 1.574 . S
C601 C141 1.575 . S
C607 C145 1.488 . S
C621 C179 1.489 . S
C627 C175 1.574 . S
C641 C213 1.488 1_455 S
C647 C209 1.575 . S
C661 C243 1.573 1_565 S
C667 C247 1.490 . S
