# Generated by pormake.
# Topology vbv, (6)-cn, num edge types: 1
# Building blocks:
#     Node 0, Type 0, BuildingBlock: IZENUY_clean_sbu_0, # of connection points: 6
#     Node 1, Type 0, BuildingBlock: IZENUY_clean_sbu_0, # of connection points: 6
#     Node 2, Type 0, BuildingBlock: IZENUY_clean_sbu_0, # of connection points: 6
#     Node 3, Type 0, BuildingBlock: IZENUY_clean_sbu_0, # of connection points: 6
#     Node 4, Type 0, BuildingBlock: IZENUY_clean_sbu_0, # of connection points: 6
#     Node 5, Type 0, BuildingBlock: IZENUY_clean_sbu_0, # of connection points: 6
#     Node 6, Type 0, BuildingBlock: IZENUY_clean_sbu_0, # of connection points: 6
#     Node 7, Type 0, BuildingBlock: IZENUY_clean_sbu_0, # of connection points: 6
#     Node 8, Type 0, BuildingBlock: IZENUY_clean_sbu_0, # of connection points: 6
#     Node 9, Type 0, BuildingBlock: IZENUY_clean_sbu_0, # of connection points: 6
#     Node 10, Type 0, BuildingBlock: IZENUY_clean_sbu_0, # of connection points: 6
#     Node 11, Type 0, BuildingBlock: IZENUY_clean_sbu_0, # of connection points: 6
#     Node 12, Type 0, BuildingBlock: IZENUY_clean_sbu_0, # of connection points: 6
#     Node 13, Type 0, BuildingBlock: IZENUY_clean_sbu_0, # of connection points: 6
#     Node 14, Type 0, BuildingBlock: IZENUY_clean_sbu_0, # of connection points: 6
#     Node 15, Type 0, BuildingBlock: IZENUY_clean_sbu_0, # of connection points: 6
#     Edge 16, Type (0, 0), BuildingBlock: XIVTED_clean_linker_0, # of connection points: 2
#     Edge 17, Type (0, 0), BuildingBlock: XIVTED_clean_linker_0, # of connection points: 2
#     Edge 18, Type (0, 0), BuildingBlock: XIVTED_clean_linker_0, # of connection points: 2
#     Edge 19, Type (0, 0), BuildingBlock: XIVTED_clean_linker_0, # of connection points: 2
#     Edge 20, Type (0, 0), BuildingBlock: XIVTED_clean_linker_0, # of connection points: 2
#     Edge 21, Type (0, 0), BuildingBlock: XIVTED_clean_linker_0, # of connection points: 2
#     Edge 22, Type (0, 0), BuildingBlock: XIVTED_clean_linker_0, # of connection points: 2
#     Edge 23, Type (0, 0), BuildingBlock: XIVTED_clean_linker_0, # of connection points: 2
#     Edge 24, Type (0, 0), BuildingBlock: XIVTED_clean_linker_0, # of connection points: 2
#     Edge 25, Type (0, 0), BuildingBlock: XIVTED_clean_linker_0, # of connection points: 2
#     Edge 26, Type (0, 0), BuildingBlock: XIVTED_clean_linker_0, # of connection points: 2
#     Edge 27, Type (0, 0), BuildingBlock: XIVTED_clean_linker_0, # of connection points: 2
#     Edge 28, Type (0, 0), BuildingBlock: XIVTED_clean_linker_0, # of connection points: 2
#     Edge 29, Type (0, 0), BuildingBlock: XIVTED_clean_linker_0, # of connection points: 2
#     Edge 30, Type (0, 0), BuildingBlock: XIVTED_clean_linker_0, # of connection points: 2
#     Edge 31, Type (0, 0), BuildingBlock: XIVTED_clean_linker_0, # of connection points: 2
#     Edge 32, Type (0, 0), BuildingBlock: XIVTED_clean_linker_0, # of connection points: 2
#     Edge 33, Type (0, 0), BuildingBlock: XIVTED_clean_linker_0, # of connection points: 2
#     Edge 34, Type (0, 0), BuildingBlock: XIVTED_clean_linker_0, # of connection points: 2
#     Edge 35, Type (0, 0), BuildingBlock: XIVTED_clean_linker_0, # of connection points: 2
#     Edge 36, Type (0, 0), BuildingBlock: XIVTED_clean_linker_0, # of connection points: 2
#     Edge 37, Type (0, 0), BuildingBlock: XIVTED_clean_linker_0, # of connection points: 2
#     Edge 38, Type (0, 0), BuildingBlock: XIVTED_clean_linker_0, # of connection points: 2
#     Edge 39, Type (0, 0), BuildingBlock: XIVTED_clean_linker_0, # of connection points: 2
#     Edge 40, Type (0, 0), BuildingBlock: XIVTED_clean_linker_0, # of connection points: 2
#     Edge 41, Type (0, 0), BuildingBlock: XIVTED_clean_linker_0, # of connection points: 2
#     Edge 42, Type (0, 0), BuildingBlock: XIVTED_clean_linker_0, # of connection points: 2
#     Edge 43, Type (0, 0), BuildingBlock: XIVTED_clean_linker_0, # of connection points: 2
#     Edge 44, Type (0, 0), BuildingBlock: XIVTED_clean_linker_0, # of connection points: 2
#     Edge 45, Type (0, 0), BuildingBlock: XIVTED_clean_linker_0, # of connection points: 2
#     Edge 46, Type (0, 0), BuildingBlock: XIVTED_clean_linker_0, # of connection points: 2
#     Edge 47, Type (0, 0), BuildingBlock: XIVTED_clean_linker_0, # of connection points: 2
#     Edge 48, Type (0, 0), BuildingBlock: XIVTED_clean_linker_0, # of connection points: 2
#     Edge 49, Type (0, 0), BuildingBlock: XIVTED_clean_linker_0, # of connection points: 2
#     Edge 50, Type (0, 0), BuildingBlock: XIVTED_clean_linker_0, # of connection points: 2
#     Edge 51, Type (0, 0), BuildingBlock: XIVTED_clean_linker_0, # of connection points: 2
#     Edge 52, Type (0, 0), BuildingBlock: XIVTED_clean_linker_0, # of connection points: 2
#     Edge 53, Type (0, 0), BuildingBlock: XIVTED_clean_linker_0, # of connection points: 2
#     Edge 54, Type (0, 0), BuildingBlock: XIVTED_clean_linker_0, # of connection points: 2
#     Edge 55, Type (0, 0), BuildingBlock: XIVTED_clean_linker_0, # of connection points: 2
#     Edge 56, Type (0, 0), BuildingBlock: XIVTED_clean_linker_0, # of connection points: 2
#     Edge 57, Type (0, 0), BuildingBlock: XIVTED_clean_linker_0, # of connection points: 2
#     Edge 58, Type (0, 0), BuildingBlock: XIVTED_clean_linker_0, # of connection points: 2
#     Edge 59, Type (0, 0), BuildingBlock: XIVTED_clean_linker_0, # of connection points: 2
#     Edge 60, Type (0, 0), BuildingBlock: XIVTED_clean_linker_0, # of connection points: 2
#     Edge 61, Type (0, 0), BuildingBlock: XIVTED_clean_linker_0, # of connection points: 2
#     Edge 62, Type (0, 0), BuildingBlock: XIVTED_clean_linker_0, # of connection points: 2
#     Edge 63, Type (0, 0), BuildingBlock: XIVTED_clean_linker_0, # of connection points: 2
# Relax obj value: 0.263
# Max RMSD: 0.241
# Mean RMSD: 0.241
data_MOF--net-vbv--node1-IZENUY_clean_sbu_0--edge1-XIVTED_clean_linker_0
_symmetry_space_group_name_H-M    P1
_symmetry_Int_Tables_number       1
_symmetry_cell_setting            triclinic
loop_
_symmetry_equiv_pos_as_xyz
'x, y, z'
_cell_length_a     53.791617
_cell_length_b     26.915821
_cell_length_c     46.808912
_cell_angle_alpha  90.026571
_cell_angle_beta   90.004753
_cell_angle_gamma 89.976584
loop_
_atom_site_label
_atom_site_type_symbol
_atom_site_fract_x
_atom_site_fract_y
_atom_site_fract_z
_atom_type_partial_charge
Fe0 Fe 0.12539 0.40206 0.11882 0.0
Fe1 Fe 0.16198 0.31561 0.11293 0.0
O2 O 0.13846 0.35334 0.09832 0.0
Fe3 Fe 0.12789 0.34245 0.06323 0.0
O4 O 0.13718 0.40372 0.0523 0.0
O5 O 0.11865 0.44263 0.08758 0.0
O6 O 0.15546 0.4331 0.12118 0.0
C7 C 0.17519 0.41262 0.13009 0.0
C8 C 0.08441 0.35866 0.09452 0.0
O9 O 0.17566 0.36605 0.13467 0.0
C10 C 0.13303 0.24703 0.07986 0.0
O11 O 0.12987 0.37045 0.15361 0.0
O12 O 0.14171 0.29531 0.14138 0.0
O13 O 0.09581 0.36197 0.07089 0.0
O14 O 0.095 0.3722 0.11734 0.0
C15 C 0.17989 0.32724 0.05934 0.0
O16 O 0.15292 0.2587 0.09294 0.0
O17 O 0.11812 0.28033 0.07205 0.0
C18 C 0.13198 0.32443 0.15925 0.0
O19 O 0.18345 0.33403 0.08556 0.0
O20 O 0.15814 0.32064 0.04962 0.0
C21 C 0.12901 0.44321 0.06314 0.0
Fe22 Fe 0.38153 0.68092 0.06321 0.0
Fe23 Fe 0.38425 0.62106 0.11866 0.0
O24 O 0.37111 0.6699 0.09834 0.0
Fe25 Fe 0.34767 0.7076 0.11316 0.0
O26 O 0.32608 0.68936 0.08588 0.0
O27 O 0.35123 0.70286 0.04983 0.0
O28 O 0.37217 0.61969 0.0522 0.0
C29 C 0.38041 0.58017 0.0629 0.0
C30 C 0.37652 0.77629 0.0801 0.0
O31 O 0.39084 0.58063 0.08731 0.0
C32 C 0.3779 0.69852 0.15928 0.0
O33 O 0.41364 0.66133 0.07065 0.0
O34 O 0.41465 0.65084 0.11707 0.0
O35 O 0.35667 0.76461 0.09326 0.0
O36 O 0.39136 0.743 0.07211 0.0
C37 C 0.33449 0.61054 0.13017 0.0
O38 O 0.37994 0.65251 0.15355 0.0
O39 O 0.36808 0.72773 0.14154 0.0
C40 C 0.42515 0.66444 0.09422 0.0
O41 O 0.35417 0.59007 0.12112 0.0
O42 O 0.33406 0.65708 0.13487 0.0
C43 C 0.32952 0.69633 0.05966 0.0
Fe44 Fe 0.62633 0.62061 0.40067 0.0
Fe45 Fe 0.66264 0.70767 0.40581 0.0
O46 O 0.63943 0.66969 0.42084 0.0
Fe47 Fe 0.62911 0.68062 0.45604 0.0
O48 O 0.63883 0.61954 0.46699 0.0
O49 O 0.61993 0.58038 0.4321 0.0
O50 O 0.65647 0.58988 0.39813 0.0
C51 C 0.6761 0.61047 0.38904 0.0
C52 C 0.58543 0.66355 0.42536 0.0
O53 O 0.67646 0.65702 0.38432 0.0
C54 C 0.63355 0.77602 0.43897 0.0
O55 O 0.63048 0.6516 0.3657 0.0
O56 O 0.64212 0.72709 0.37733 0.0
O57 O 0.5971 0.66036 0.44881 0.0
O58 O 0.59585 0.65028 0.40237 0.0
C59 C 0.68103 0.69754 0.45934 0.0
O60 O 0.65333 0.76469 0.42556 0.0
O61 O 0.61894 0.74249 0.44718 0.0
C62 C 0.63247 0.69745 0.35968 0.0
O63 O 0.68443 0.69033 0.43312 0.0
O64 O 0.6593 0.70324 0.46926 0.0
C65 C 0.63053 0.57997 0.4564 0.0
Fe66 Fe 0.88217 0.34225 0.45628 0.0
Fe67 Fe 0.88526 0.40218 0.40091 0.0
O68 O 0.87199 0.35329 0.42105 0.0
Fe69 Fe 0.84866 0.31564 0.40596 0.0
O70 O 0.82687 0.33358 0.43313 0.0
O71 O 0.85182 0.3203 0.4694 0.0
O72 O 0.87273 0.40352 0.46722 0.0
C73 C 0.88116 0.44298 0.45665 0.0
C74 C 0.87728 0.24684 0.43932 0.0
O75 O 0.89174 0.44244 0.43234 0.0
C76 C 0.87899 0.32518 0.35996 0.0
O77 O 0.91431 0.36185 0.44912 0.0
O78 O 0.91564 0.37219 0.40269 0.0
O79 O 0.85761 0.25853 0.4258 0.0
O80 O 0.89205 0.28012 0.4475 0.0
C81 C 0.83556 0.41289 0.3891 0.0
O82 O 0.88109 0.37106 0.36593 0.0
O83 O 0.86921 0.29575 0.37762 0.0
C84 C 0.92599 0.35869 0.42567 0.0
O85 O 0.85521 0.43328 0.3983 0.0
O86 O 0.83514 0.36636 0.38431 0.0
C87 C 0.83017 0.3266 0.45937 0.0
Fe88 Fe 0.88144 0.67956 0.95616 0.0
Fe89 Fe 0.84807 0.70605 0.9057 0.0
O90 O 0.87139 0.66848 0.92089 0.0
Fe91 Fe 0.88479 0.61963 0.90078 0.0
O92 O 0.89122 0.57938 0.93222 0.0
O93 O 0.87207 0.61825 0.96704 0.0
O94 O 0.85101 0.70137 0.96915 0.0
C95 C 0.8294 0.69503 0.95902 0.0
C96 C 0.92539 0.66328 0.92573 0.0
O97 O 0.8262 0.68803 0.93276 0.0
C98 C 0.87857 0.69664 0.85985 0.0
O99 O 0.89126 0.74172 0.94745 0.0
O100 O 0.85686 0.76318 0.92562 0.0
O101 O 0.91513 0.64971 0.90271 0.0
O102 O 0.91364 0.66011 0.94914 0.0
C103 C 0.83513 0.60879 0.88878 0.0
O104 O 0.8687 0.72602 0.87749 0.0
O105 O 0.88069 0.65075 0.8658 0.0
C106 C 0.87648 0.77494 0.93921 0.0
O107 O 0.8347 0.6553 0.88396 0.0
O108 O 0.85477 0.58844 0.89803 0.0
C109 C 0.88059 0.57881 0.9565 0.0
Fe110 Fe 0.62882 0.3407 0.95568 0.0
Fe111 Fe 0.66251 0.31438 0.90552 0.0
O112 O 0.63912 0.352 0.92054 0.0
Fe113 Fe 0.62593 0.40102 0.9004 0.0
O114 O 0.6195 0.4413 0.93189 0.0
O115 O 0.63825 0.40181 0.96679 0.0
O116 O 0.65915 0.31867 0.96887 0.0
C117 C 0.68084 0.32523 0.95898 0.0
C118 C 0.58508 0.3576 0.92496 0.0
O119 O 0.68422 0.3324 0.93276 0.0
C120 C 0.63209 0.32374 0.85959 0.0
O121 O 0.61897 0.27867 0.94669 0.0
O122 O 0.65359 0.25728 0.92534 0.0
O123 O 0.59551 0.37132 0.90208 0.0
O124 O 0.59669 0.3604 0.94847 0.0
C125 C 0.67565 0.4115 0.88866 0.0
O126 O 0.64198 0.29445 0.87723 0.0
O127 O 0.63007 0.36973 0.86541 0.0
C128 C 0.63382 0.24546 0.9386 0.0
O129 O 0.67603 0.365 0.88384 0.0
O130 O 0.65602 0.43195 0.89784 0.0
C131 C 0.63005 0.44148 0.95624 0.0
Fe132 Fe 0.3845 0.40114 0.61862 0.0
Fe133 Fe 0.38191 0.34049 0.56342 0.0
O134 O 0.37162 0.35165 0.59859 0.0
Fe135 Fe 0.34857 0.31346 0.61376 0.0
O136 O 0.33473 0.36391 0.63537 0.0
O137 O 0.3542 0.43134 0.62113 0.0
O138 O 0.3907 0.44131 0.58707 0.0
C139 C 0.38013 0.4412 0.56275 0.0
C140 C 0.37887 0.32417 0.65968 0.0
O141 O 0.37206 0.40135 0.55228 0.0
C142 C 0.37764 0.24517 0.58055 0.0
O143 O 0.41509 0.37209 0.61696 0.0
O144 O 0.41392 0.361 0.57057 0.0
O145 O 0.3693 0.29433 0.64208 0.0
O146 O 0.38056 0.37011 0.65366 0.0
C147 C 0.33 0.32365 0.56036 0.0
O148 O 0.39222 0.27876 0.57241 0.0
O149 O 0.35785 0.25647 0.59396 0.0
C150 C 0.42556 0.35842 0.59408 0.0
O151 O 0.35169 0.31765 0.55034 0.0
O152 O 0.32666 0.33069 0.58659 0.0
C153 C 0.33473 0.41039 0.63042 0.0
Fe154 Fe 0.12637 0.62066 0.61915 0.0
Fe155 Fe 0.12938 0.6797 0.56343 0.0
O156 O 0.13954 0.66932 0.59872 0.0
Fe157 Fe 0.16278 0.70739 0.61363 0.0
O158 O 0.17627 0.65726 0.6357 0.0
O159 O 0.15652 0.58988 0.62194 0.0
O160 O 0.11999 0.57977 0.58795 0.0
C161 C 0.13053 0.57895 0.56362 0.0
C162 C 0.13229 0.69867 0.6595 0.0
O163 O 0.13888 0.6183 0.55285 0.0
C164 C 0.13417 0.77542 0.5798 0.0
O165 O 0.09593 0.65032 0.61717 0.0
O166 O 0.09725 0.66013 0.57069 0.0
O167 O 0.14208 0.72776 0.64168 0.0
O168 O 0.13043 0.65257 0.65393 0.0
C169 C 0.18139 0.69534 0.56037 0.0
O170 O 0.11943 0.74196 0.57181 0.0
O171 O 0.15385 0.76402 0.59336 0.0
C172 C 0.08557 0.66352 0.59414 0.0
O173 O 0.15975 0.70146 0.55024 0.0
O174 O 0.18465 0.68895 0.58667 0.0
C175 C 0.1761 0.61071 0.63103 0.0
Fe176 Fe 0.62588 0.90131 0.11829 0.0
Fe177 Fe 0.66185 0.81372 0.11313 0.0
O178 O 0.63881 0.8521 0.09807 0.0
Fe179 Fe 0.62856 0.84149 0.06282 0.0
O180 O 0.6384 0.90254 0.05199 0.0
O181 O 0.61961 0.9418 0.08693 0.0
O182 O 0.65617 0.93155 0.12089 0.0
C183 C 0.67567 0.91049 0.13005 0.0
C184 C 0.58488 0.85892 0.0935 0.0
O185 O 0.67569 0.86397 0.13486 0.0
C186 C 0.63279 0.7459 0.07961 0.0
O187 O 0.62989 0.87004 0.15321 0.0
O188 O 0.64113 0.79435 0.14143 0.0
O189 O 0.59656 0.86193 0.07004 0.0
O190 O 0.59531 0.87214 0.1165 0.0
C191 C 0.68046 0.82447 0.05975 0.0
O192 O 0.65254 0.75696 0.09316 0.0
O193 O 0.61826 0.77962 0.07148 0.0
C194 C 0.63165 0.82409 0.15915 0.0
O195 O 0.68378 0.83112 0.08602 0.0
O196 O 0.65879 0.81877 0.04967 0.0
C197 C 0.63018 0.94216 0.06261 0.0
Fe198 Fe 0.88134 0.17952 0.06344 0.0
Fe199 Fe 0.88429 0.11962 0.11884 0.0
O200 O 0.87119 0.16872 0.0987 0.0
Fe201 Fe 0.84806 0.2068 0.11386 0.0
O202 O 0.82612 0.18919 0.08678 0.0
O203 O 0.85103 0.20181 0.05039 0.0
O204 O 0.8717 0.11833 0.05255 0.0
C205 C 0.88004 0.07878 0.06313 0.0
C206 C 0.87679 0.27506 0.08033 0.0
O207 O 0.89063 0.07923 0.08743 0.0
C208 C 0.87844 0.19677 0.15976 0.0
O209 O 0.91343 0.15951 0.07058 0.0
O210 O 0.91478 0.14913 0.11702 0.0
O211 O 0.85713 0.26369 0.09395 0.0
O212 O 0.89143 0.24155 0.07211 0.0
C213 C 0.83454 0.10987 0.13067 0.0
O214 O 0.88027 0.15083 0.15382 0.0
O215 O 0.86879 0.22638 0.1421 0.0
C216 C 0.92514 0.16257 0.09403 0.0
O217 O 0.85409 0.08903 0.12146 0.0
O218 O 0.83443 0.15636 0.13558 0.0
C219 C 0.82938 0.19594 0.06051 0.0
Fe220 Fe 0.16282 0.20713 0.40585 0.0
Fe221 Fe 0.12913 0.1798 0.45583 0.0
O222 O 0.1395 0.16915 0.42064 0.0
Fe223 Fe 0.12647 0.12035 0.40017 0.0
O224 O 0.15664 0.0896 0.39765 0.0
O225 O 0.17641 0.15693 0.38389 0.0
O226 O 0.18455 0.18876 0.43297 0.0
C227 C 0.18115 0.1952 0.45925 0.0
C228 C 0.13256 0.19819 0.35979 0.0
O229 O 0.15946 0.20149 0.46922 0.0
C230 C 0.08551 0.16341 0.42474 0.0
O231 O 0.15385 0.26386 0.42601 0.0
O232 O 0.11928 0.24204 0.44728 0.0
O233 O 0.1307 0.15211 0.36538 0.0
O234 O 0.14226 0.22739 0.37765 0.0
C235 C 0.13029 0.079 0.45579 0.0
O236 O 0.09702 0.16032 0.44832 0.0
O237 O 0.09602 0.14991 0.40186 0.0
C238 C 0.13412 0.2754 0.43942 0.0
O239 O 0.13851 0.11845 0.4666 0.0
O240 O 0.11992 0.07962 0.43136 0.0
C241 C 0.17623 0.1104 0.3886 0.0
Fe242 Fe 0.38459 0.90087 0.40089 0.0
Fe243 Fe 0.34861 0.81337 0.40614 0.0
O244 O 0.37176 0.85157 0.4211 0.0
Fe245 Fe 0.38219 0.84058 0.45623 0.0
O246 O 0.37244 0.90152 0.46731 0.0
O247 O 0.39089 0.94132 0.43235 0.0
O248 O 0.3543 0.93111 0.39844 0.0
C249 C 0.33481 0.91013 0.38925 0.0
C250 C 0.42572 0.8582 0.42529 0.0
O251 O 0.33477 0.86363 0.38442 0.0
C252 C 0.3777 0.74517 0.43928 0.0
O253 O 0.38053 0.86946 0.36594 0.0
O254 O 0.36924 0.79386 0.37784 0.0
O255 O 0.41418 0.8609 0.44887 0.0
O256 O 0.41517 0.87183 0.40247 0.0
C257 C 0.33026 0.82415 0.45959 0.0
O258 O 0.35785 0.75653 0.42603 0.0
O259 O 0.39238 0.77872 0.44728 0.0
C260 C 0.37881 0.82342 0.36012 0.0
O261 O 0.32683 0.83103 0.43335 0.0
O262 O 0.35198 0.81799 0.46949 0.0
C263 C 0.38042 0.94133 0.45673 0.0
Fe264 Fe 0.34783 0.20757 0.9056 0.0
Fe265 Fe 0.38435 0.12068 0.90132 0.0
O266 O 0.371 0.17001 0.92109 0.0
Fe267 Fe 0.38096 0.18161 0.95634 0.0
O268 O 0.35055 0.20412 0.96904 0.0
O269 O 0.32583 0.19022 0.93265 0.0
O270 O 0.33439 0.15661 0.88406 0.0
C271 C 0.33473 0.11016 0.88907 0.0
C272 C 0.37638 0.27669 0.93883 0.0
O273 O 0.35429 0.08979 0.89855 0.0
C274 C 0.42498 0.16424 0.92625 0.0
O275 O 0.36862 0.22687 0.8774 0.0
O276 O 0.38052 0.15131 0.86615 0.0
O277 O 0.39104 0.24342 0.94726 0.0
O278 O 0.35673 0.26494 0.92527 0.0
C279 C 0.37964 0.08091 0.95721 0.0
O280 O 0.41476 0.15041 0.90326 0.0
O281 O 0.41312 0.16157 0.94961 0.0
C282 C 0.37852 0.19714 0.85998 0.0
O283 O 0.39049 0.08088 0.93304 0.0
O284 O 0.37129 0.12068 0.96751 0.0
C285 C 0.32895 0.19778 0.95887 0.0
Fe286 Fe 0.1257 0.90213 0.90082 0.0
Fe287 Fe 0.12853 0.84188 0.95614 0.0
O288 O 0.13885 0.8531 0.92099 0.0
Fe289 Fe 0.16221 0.8154 0.90601 0.0
O290 O 0.17579 0.86598 0.88432 0.0
O291 O 0.15579 0.933 0.89828 0.0
O292 O 0.11928 0.94243 0.9323 0.0
C293 C 0.12988 0.94263 0.95661 0.0
C294 C 0.13186 0.82483 0.86004 0.0
O295 O 0.13802 0.90296 0.9672 0.0
C296 C 0.13345 0.74662 0.93914 0.0
O297 O 0.09528 0.87247 0.90248 0.0
O298 O 0.09642 0.86167 0.94888 0.0
O299 O 0.14169 0.7955 0.87771 0.0
O300 O 0.12986 0.87082 0.86585 0.0
C301 C 0.18054 0.8263 0.95945 0.0
O302 O 0.11862 0.7799 0.94717 0.0
O303 O 0.15324 0.75834 0.92587 0.0
C304 C 0.08484 0.85875 0.92534 0.0
O305 O 0.15886 0.81976 0.96935 0.0
O306 O 0.18392 0.83344 0.93323 0.0
C307 C 0.17542 0.91251 0.88909 0.0
Fe308 Fe 0.88501 0.90235 0.61883 0.0
Fe309 Fe 0.88247 0.84202 0.5635 0.0
O310 O 0.87195 0.85328 0.59859 0.0
Fe311 Fe 0.84854 0.81562 0.61349 0.0
O312 O 0.83479 0.86637 0.63493 0.0
O313 O 0.8549 0.93331 0.6211 0.0
O314 O 0.89168 0.94248 0.58741 0.0
C315 C 0.88132 0.9428 0.56297 0.0
C316 C 0.87854 0.82549 0.65977 0.0
O317 O 0.87309 0.9032 0.55233 0.0
C318 C 0.87747 0.74672 0.58056 0.0
O319 O 0.91543 0.87254 0.61743 0.0
O320 O 0.91453 0.86171 0.57102 0.0
O321 O 0.86889 0.79597 0.64207 0.0
O322 O 0.88061 0.87138 0.65379 0.0
C323 C 0.83048 0.82598 0.55983 0.0
O324 O 0.8923 0.77996 0.57249 0.0
O325 O 0.85769 0.75846 0.59383 0.0
C326 C 0.92599 0.85877 0.59463 0.0
O327 O 0.85224 0.81994 0.55006 0.0
O328 O 0.82695 0.83324 0.58603 0.0
C329 C 0.83522 0.91288 0.63015 0.0
Fe330 Fe 0.62609 0.12082 0.6181 0.0
Fe331 Fe 0.62936 0.18102 0.56282 0.0
O332 O 0.63943 0.1698 0.59806 0.0
Fe333 Fe 0.66269 0.20742 0.61328 0.0
O334 O 0.67611 0.15678 0.63504 0.0
O335 O 0.65615 0.08984 0.62092 0.0
O336 O 0.61988 0.08055 0.58655 0.0
C337 C 0.63064 0.08029 0.56233 0.0
C338 C 0.63203 0.19804 0.65898 0.0
O339 O 0.63894 0.11992 0.55185 0.0
C340 C 0.63412 0.27627 0.57999 0.0
O341 O 0.59569 0.15062 0.61613 0.0
O342 O 0.59722 0.1612 0.56974 0.0
O343 O 0.64199 0.22733 0.64141 0.0
O344 O 0.63002 0.15207 0.65313 0.0
C345 C 0.68137 0.19668 0.55998 0.0
O346 O 0.61937 0.24303 0.57171 0.0
O347 O 0.65383 0.26451 0.59341 0.0
C348 C 0.58543 0.16419 0.59312 0.0
O349 O 0.65975 0.20316 0.54991 0.0
O350 O 0.68459 0.18945 0.58622 0.0
C351 C 0.67575 0.11027 0.63022 0.0
H352 H 0.09357 0.21181 0.049 0.0
H353 H 0.16117 0.96129 1.00092 0.0
H354 H 0.16645 0.1694 0.07908 0.0
H355 H 0.10011 0.02616 0.95417 0.0
H356 H 0.16078 0.03212 0.03342 0.0
H357 H 0.09254 0.13758 0.01912 0.0
C358 C 0.10924 0.18653 0.04971 0.0
C359 C 0.13027 0.19727 0.06651 0.0
C360 C 0.1475 0.031 0.01604 0.0
C361 C 0.12916 0.11215 0.03198 0.0
C362 C 0.14768 0.99057 0.99743 0.0
C363 C 0.13059 0.98772 0.97477 0.0
C364 C 0.12991 0.06885 0.01229 0.0
C365 C 0.11368 0.02693 0.97125 0.0
C366 C 0.10867 0.14433 0.03241 0.0
C367 C 0.14987 0.1628 0.06655 0.0
N368 N 0.11365 0.06576 0.98995 0.0
N369 N 0.1489 0.12196 0.04941 0.0
H370 H 0.34867 0.06291 1.00198 0.0
H371 H 0.41596 0.81164 0.04929 0.0
H372 H 0.40923 0.99721 0.95472 0.0
H373 H 0.34318 0.85411 0.07969 0.0
H374 H 0.41702 0.88612 0.01969 0.0
H375 H 0.3491 0.99212 0.03451 0.0
C376 C 0.36206 0.03348 0.99839 0.0
C377 C 0.37899 0.03606 0.97556 0.0
C378 C 0.40091 0.87934 0.03299 0.0
C379 C 0.37972 0.955 0.0131 0.0
C380 C 0.40032 0.83698 0.05014 0.0
C381 C 0.3793 0.82618 0.06692 0.0
C382 C 0.38045 0.91162 0.03271 0.0
C383 C 0.35975 0.86075 0.06714 0.0
C384 C 0.36227 0.99307 0.01701 0.0
C385 C 0.39579 0.99667 0.97192 0.0
N386 N 0.36074 0.90176 0.05014 0.0
N387 N 0.39583 0.95788 0.99063 0.0
H388 H 0.66172 0.06178 0.51777 0.0
H389 H 0.59419 0.81091 0.47016 0.0
H390 H 0.60086 0.99682 0.56477 0.0
H391 H 0.66665 0.85416 0.4392 0.0
H392 H 0.59316 0.8852 0.49999 0.0
H393 H 0.66117 0.99111 0.48516 0.0
C394 C 0.64824 0.03251 0.5213 0.0
C395 C 0.63126 0.03529 0.54407 0.0
C396 C 0.60919 0.87864 0.48651 0.0
C397 C 0.63039 0.95432 0.50642 0.0
C398 C 0.60975 0.8364 0.46923 0.0
C399 C 0.63068 0.82586 0.45222 0.0
C400 C 0.62958 0.91105 0.4867 0.0
C401 C 0.65015 0.86059 0.45191 0.0
C402 C 0.64797 0.99217 0.50262 0.0
C403 C 0.61435 0.9961 0.54762 0.0
N404 N 0.64919 0.90145 0.46905 0.0
N405 N 0.61424 0.95735 0.52886 0.0
H406 H 0.90979 0.02759 0.56794 0.0
H407 H 0.84473 0.16783 0.43724 0.0
H408 H 0.85241 0.96055 0.51627 0.0
H409 H 0.91533 0.21267 0.47282 0.0
H410 H 0.84609 0.0929 0.4669 0.0
H411 H 0.91024 0.09896 0.53529 0.0
C412 C 0.89721 0.028 0.54988 0.0
C413 C 0.88112 0.98795 0.54481 0.0
C414 C 0.8614 0.11896 0.46795 0.0
C415 C 0.88154 0.06927 0.50736 0.0
C416 C 0.86071 0.16159 0.45085 0.0
C417 C 0.87985 0.19693 0.45258 0.0
C418 C 0.8812 0.11185 0.48714 0.0
C419 C 0.90003 0.18678 0.47083 0.0
C420 C 0.89759 0.06852 0.53112 0.0
C421 C 0.86526 0.99043 0.52094 0.0
N422 N 0.90002 0.1456 0.48761 0.0
N423 N 0.86582 0.03035 0.50321 0.0
H424 H 0.90876 0.99429 0.06786 0.0
H425 H 0.84372 0.85366 0.93726 0.0
H426 H 0.8509 0.06074 0.01664 0.0
H427 H 0.91452 0.80944 0.9726 0.0
H428 H 0.84493 0.92855 0.96699 0.0
H429 H 0.9093 0.92302 0.03513 0.0
C430 C 0.89609 0.99376 0.04988 0.0
C431 C 0.87984 0.03362 0.04496 0.0
C432 C 0.86031 0.90264 0.96797 0.0
C433 C 0.88038 0.95241 1.00741 0.0
C434 C 0.85971 0.86003 0.95083 0.0
C435 C 0.87895 0.82487 0.95248 0.0
C436 C 0.88013 0.9099 0.98713 0.0
C437 C 0.89914 0.83519 0.97068 0.0
C438 C 0.89653 0.9533 0.03107 0.0
C439 C 0.86387 0.031 0.02119 0.0
N440 N 0.89905 0.87633 0.9875 0.0
N441 N 0.86449 0.99113 1.0034 0.0
H442 H 0.66655 0.16675 0.9367 0.0
H443 H 0.60146 0.02663 0.0673 0.0
H444 H 0.5957 0.21106 0.97188 0.0
H445 H 0.65937 0.96007 0.0162 0.0
H446 H 0.6009 0.09777 0.03451 0.0
H447 H 0.66532 0.09198 0.96647 0.0
C448 C 0.65054 0.16041 0.95024 0.0
C449 C 0.6313 0.19557 0.95185 0.0
C450 C 0.61369 0.06749 0.0305 0.0
C451 C 0.63009 0.11068 0.98653 0.0
C452 C 0.61414 0.02712 0.04934 0.0
C453 C 0.63041 0.98727 0.04446 0.0
C454 C 0.62985 0.06828 1.00684 0.0
C455 C 0.64639 0.98981 0.02071 0.0
C456 C 0.64993 0.11787 0.9674 0.0
C457 C 0.61108 0.1853 0.97 0.0
N458 N 0.64576 0.02959 1.00288 0.0
N459 N 0.61116 0.14422 0.98685 0.0
H460 H 0.34963 0.95932 0.50163 0.0
H461 H 0.41684 0.21068 0.54895 0.0
H462 H 0.40984 0.02528 0.454 0.0
H463 H 0.34462 0.16687 0.58037 0.0
H464 H 0.41779 0.13658 0.51896 0.0
H465 H 0.35018 0.02995 0.53427 0.0
C466 C 0.36296 0.9888 0.49797 0.0
C467 C 0.37977 0.98631 0.47501 0.0
C468 C 0.40183 0.14298 0.53257 0.0
C469 C 0.38065 0.06723 0.51271 0.0
C470 C 0.40131 0.18511 0.54994 0.0
C471 C 0.38048 0.19543 0.56715 0.0
C472 C 0.38148 0.11045 0.53248 0.0
C473 C 0.36105 0.1606 0.56751 0.0
C474 C 0.36324 0.02912 0.51667 0.0
C475 C 0.39649 0.02576 0.4713 0.0
N476 N 0.36197 0.11984 0.5503 0.0
N477 N 0.39662 0.06448 0.49009 0.0
H478 H 0.16648 0.85473 0.58196 0.0
H479 H 0.10171 0.99432 0.45073 0.0
H480 H 0.09633 0.80875 0.54567 0.0
H481 H 0.15933 0.06083 0.50226 0.0
H482 H 0.10121 0.92289 0.48336 0.0
H483 H 0.16518 0.92935 0.55209 0.0
C484 C 0.15061 0.86065 0.56814 0.0
C485 C 0.13159 0.8251 0.56629 0.0
C486 C 0.11392 0.95322 0.48749 0.0
C487 C 0.13029 0.90986 0.53148 0.0
C488 C 0.11434 0.99376 0.46875 0.0
C489 C 0.1305 0.03369 0.4738 0.0
C490 C 0.13001 0.95236 0.51122 0.0
C491 C 0.14642 0.03106 0.49761 0.0
C492 C 0.14996 0.90312 0.55092 0.0
C493 C 0.11154 0.83484 0.54777 0.0
N494 N 0.14581 0.99115 0.51534 0.0
N495 N 0.11157 0.8759 0.53088 0.0
H496 H 0.66071 0.45963 1.00123 0.0
H497 H 0.5937 0.71185 0.04767 0.0
H498 H 0.60057 0.52541 0.95333 0.0
H499 H 0.66558 0.66717 0.07979 0.0
H500 H 0.5927 0.63759 0.01781 0.0
H501 H 0.66008 0.53041 0.03374 0.0
C502 C 0.64737 0.48909 0.99749 0.0
C503 C 0.6306 0.4865 0.97449 0.0
C504 C 0.6086 0.64384 0.03155 0.0
C505 C 0.62967 0.56765 0.01203 0.0
C506 C 0.60914 0.68607 0.04884 0.0
C507 C 0.6299 0.69618 0.06621 0.0
C508 C 0.62884 0.61101 0.0317 0.0
C509 C 0.64921 0.66108 0.0668 0.0
C510 C 0.64705 0.52951 0.01611 0.0
C511 C 0.61388 0.52596 0.97067 0.0
N512 N 0.64828 0.62024 0.04966 0.0
N513 N 0.61373 0.56479 0.98938 0.0
H514 H 0.8445 0.35447 0.08268 0.0
H515 H 0.90935 0.49433 0.95169 0.0
H516 H 0.91473 0.30868 0.04649 0.0
H517 H 0.85157 0.56077 1.00305 0.0
H518 H 0.90994 0.42304 0.98439 0.0
H519 H 0.84585 0.4293 0.05298 0.0
C520 C 0.86041 0.36049 0.06893 0.0
C521 C 0.87943 0.3249 0.06703 0.0
C522 C 0.89717 0.45333 0.98848 0.0
C523 C 0.88078 0.40992 0.03242 0.0
C524 C 0.89671 0.49381 0.96969 0.0
C525 C 0.88046 0.53366 0.97466 0.0
C526 C 0.88105 0.45245 0.01217 0.0
C527 C 0.86454 0.53105 0.99846 0.0
C528 C 0.86108 0.40307 0.0518 0.0
C529 C 0.89952 0.33478 0.04861 0.0
N530 N 0.86519 0.49119 0.01623 0.0
N531 N 0.89951 0.37594 0.03181 0.0
H532 H 0.10172 0.49457 0.56851 0.0
H533 H 0.16657 0.35449 0.43741 0.0
H534 H 0.15979 0.56038 0.51737 0.0
H535 H 0.09628 0.30896 0.47349 0.0
H536 H 0.16536 0.42906 0.46736 0.0
H537 H 0.10116 0.42314 0.53584 0.0
C538 C 0.11444 0.49385 0.55058 0.0
C539 C 0.13074 0.53359 0.54563 0.0
C540 C 0.15009 0.40294 0.46847 0.0
C541 C 0.13017 0.45227 0.50817 0.0
C542 C 0.15068 0.36051 0.4512 0.0
C543 C 0.13159 0.32509 0.45297 0.0
C544 C 0.1304 0.4098 0.48787 0.0
C545 C 0.11153 0.33495 0.47145 0.0
C546 C 0.11399 0.45331 0.53181 0.0
C547 C 0.14677 0.53076 0.52193 0.0
N548 N 0.11162 0.37597 0.48839 0.0
N549 N 0.14611 0.49086 0.50418 0.0
H550 H 0.34965 0.45888 0.51749 0.0
H551 H 0.4168 0.71076 0.47108 0.0
H552 H 0.40946 0.52519 0.56569 0.0
H553 H 0.34478 0.66675 0.4391 0.0
H554 H 0.4177 0.63648 0.50089 0.0
H555 H 0.35035 0.52952 0.48488 0.0
C556 C 0.36293 0.48842 0.52127 0.0
C557 C 0.37957 0.48605 0.54439 0.0
C558 C 0.40179 0.64288 0.48719 0.0
C559 C 0.38061 0.56696 0.50675 0.0
C560 C 0.4013 0.68512 0.46993 0.0
C561 C 0.38053 0.69543 0.45263 0.0
C562 C 0.38149 0.61024 0.48707 0.0
C563 C 0.36115 0.6605 0.45205 0.0
C564 C 0.36329 0.52875 0.5026 0.0
C565 C 0.39623 0.52558 0.54826 0.0
N566 N 0.36204 0.61964 0.46916 0.0
N567 N 0.39644 0.56429 0.5295 0.0
H568 H 0.34353 0.35528 0.93721 0.0
H569 H 0.4093 0.49579 0.06739 0.0
H570 H 0.4147 0.31137 0.97171 0.0
H571 H 0.35098 0.56196 0.01675 0.0
H572 H 0.40974 0.42459 0.03456 0.0
H573 H 0.34487 0.43004 0.96703 0.0
C574 C 0.35964 0.36171 0.9506 0.0
C575 C 0.37893 0.32666 0.95201 0.0
C576 C 0.39688 0.4548 0.03066 0.0
C577 C 0.38026 0.41151 0.98677 0.0
C578 C 0.3965 0.4952 0.04953 0.0
C579 C 0.38016 0.53497 0.04477 0.0
C580 C 0.38058 0.45391 1.00713 0.0
C581 C 0.36403 0.53231 0.02116 0.0
C582 C 0.3603 0.40424 0.9678 0.0
C583 C 0.39927 0.33704 0.96999 0.0
N584 N 0.3646 0.49252 1.00331 0.0
N585 N 0.39924 0.37809 0.98689 0.0
H586 H 0.10023 0.52775 0.06781 0.0
H587 H 0.16618 0.66787 0.93764 0.0
H588 H 0.15851 0.4615 0.01711 0.0
H589 H 0.09518 0.71251 0.9723 0.0
H590 H 0.16477 0.59328 0.96754 0.0
H591 H 0.09992 0.59911 0.03511 0.0
C592 C 0.11305 0.52835 0.04997 0.0
C593 C 0.12933 0.48852 0.04514 0.0
C594 C 0.14939 0.61921 0.96834 0.0
C595 C 0.12906 0.56974 1.00766 0.0
C596 C 0.1501 0.66164 0.9511 0.0
C597 C 0.13087 0.69683 0.9525 0.0
C598 C 0.12944 0.61215 0.98735 0.0
C599 C 0.11056 0.68672 0.97057 0.0
C600 C 0.11274 0.56885 0.03118 0.0
C601 C 0.14549 0.4912 0.02156 0.0
N602 N 0.11053 0.64573 0.9875 0.0
N603 N 0.14498 0.53106 1.0038 0.0
H604 H 0.84491 0.66779 0.5826 0.0
H605 H 0.91001 0.52728 0.45197 0.0
H606 H 0.91558 0.71245 0.54714 0.0
H607 H 0.85203 0.46116 0.50309 0.0
H608 H 0.91061 0.59854 0.48473 0.0
H609 H 0.84622 0.59294 0.55288 0.0
C610 C 0.8609 0.66152 0.56901 0.0
C611 C 0.88006 0.6968 0.56731 0.0
C612 C 0.8978 0.56833 0.48876 0.0
C613 C 0.88136 0.61178 0.53268 0.0
C614 C 0.89733 0.52788 0.46993 0.0
C615 C 0.88103 0.48813 0.47482 0.0
C616 C 0.88163 0.56928 0.5124 0.0
C617 C 0.86505 0.49081 0.49857 0.0
C618 C 0.86155 0.61892 0.55187 0.0
C619 C 0.90026 0.6866 0.54909 0.0
N620 N 0.8657 0.53065 0.51637 0.0
N621 N 0.90022 0.64545 0.53227 0.0
H622 H 0.60182 0.49557 0.45158 0.0
H623 H 0.66673 0.35509 0.58219 0.0
H624 H 0.65957 0.56203 0.50295 0.0
H625 H 0.59602 0.31073 0.54668 0.0
H626 H 0.66547 0.43003 0.55257 0.0
H627 H 0.60121 0.42436 0.48431 0.0
C628 C 0.61446 0.49505 0.46959 0.0
C629 C 0.63069 0.53488 0.47457 0.0
C630 C 0.65011 0.40409 0.55153 0.0
C631 C 0.63007 0.45379 0.51211 0.0
C632 C 0.65074 0.36145 0.56861 0.0
C633 C 0.63156 0.32622 0.56685 0.0
C634 C 0.63031 0.41131 0.53235 0.0
C635 C 0.61136 0.33653 0.54867 0.0
C636 C 0.61398 0.45464 0.4884 0.0
C637 C 0.64661 0.53231 0.49837 0.0
N638 N 0.61142 0.37771 0.5319 0.0
N639 N 0.64595 0.49249 0.51616 0.0
H640 H 0.12917 0.295 0.34246 0.0
H641 H 0.12895 0.22763 0.17664 0.0
H642 H 0.12393 0.14482 0.31063 0.0
H643 H 0.12341 0.37779 0.20845 0.0
H644 H 0.12481 0.19667 0.22539 0.0
H645 H 0.12475 0.32596 0.29373 0.0
C646 C 0.1269 0.26847 0.32524 0.0
C647 C 0.12719 0.21713 0.33067 0.0
C648 C 0.12427 0.23638 0.22173 0.0
C649 C 0.12226 0.25252 0.27463 0.0
C650 C 0.12667 0.25415 0.19386 0.0
C651 C 0.1268 0.30549 0.18841 0.0
C652 C 0.12218 0.27009 0.24449 0.0
C653 C 0.12353 0.33795 0.2116 0.0
C654 C 0.12433 0.28625 0.29739 0.0
C655 C 0.12392 0.18466 0.30749 0.0
N656 N 0.12163 0.31973 0.23864 0.0
N657 N 0.12187 0.20288 0.28047 0.0
H658 H 0.38087 0.79527 0.17685 0.0
H659 H 0.38282 0.72689 0.34249 0.0
H660 H 0.3871 0.64502 0.20826 0.0
H661 H 0.38667 0.8774 0.31101 0.0
H662 H 0.38692 0.69635 0.29364 0.0
H663 H 0.38547 0.82605 0.2256 0.0
C664 C 0.38338 0.76869 0.19398 0.0
C665 C 0.38332 0.71737 0.18842 0.0
C666 C 0.38711 0.73605 0.29739 0.0
C667 C 0.38848 0.75256 0.24451 0.0
C668 C 0.38473 0.75358 0.32532 0.0
C669 C 0.38413 0.80488 0.3309 0.0
C670 C 0.38868 0.76996 0.27469 0.0
C671 C 0.38693 0.83758 0.30776 0.0
C672 C 0.38606 0.78636 0.22185 0.0
C673 C 0.38692 0.68484 0.2115 0.0
N674 N 0.3888 0.81958 0.28066 0.0
N675 N 0.38908 0.70296 0.23854 0.0
H676 H 0.62248 0.87921 0.20749 0.0
H677 H 0.62273 0.6424 0.31146 0.0
H678 H 0.62929 0.72785 0.17794 0.0
H679 H 0.63034 0.79368 0.34085 0.0
H680 H 0.6183 0.67319 0.26251 0.0
H681 H 0.6185 0.84843 0.25648 0.0
C682 C 0.62287 0.83951 0.21122 0.0
C683 C 0.62651 0.80613 0.18854 0.0
C684 C 0.62077 0.69964 0.27972 0.0
C685 C 0.62199 0.77065 0.24462 0.0
C686 C 0.62321 0.68209 0.3077 0.0
C687 C 0.6272 0.71543 0.33032 0.0
C688 C 0.62215 0.75094 0.2743 0.0
C689 C 0.62759 0.76652 0.32409 0.0
C690 C 0.62068 0.82196 0.23923 0.0
C691 C 0.6268 0.75503 0.19475 0.0
N692 N 0.62524 0.78265 0.2967 0.0
N693 N 0.62472 0.73891 0.22217 0.0
H694 H 0.88789 0.14201 0.20815 0.0
H695 H 0.88853 0.3798 0.31154 0.0
H696 H 0.88097 0.29313 0.17832 0.0
H697 H 0.88109 0.22879 0.34138 0.0
H698 H 0.89264 0.34853 0.26264 0.0
H699 H 0.89228 0.17322 0.25703 0.0
C700 C 0.88756 0.18175 0.2118 0.0
C701 C 0.88377 0.21493 0.18908 0.0
C702 C 0.89029 0.32225 0.27994 0.0
C703 C 0.88876 0.25091 0.24503 0.0
C704 C 0.88803 0.34007 0.30789 0.0
C705 C 0.88417 0.30695 0.33063 0.0
C706 C 0.88885 0.2709 0.27465 0.0
C707 C 0.88374 0.2558 0.32453 0.0
C708 C 0.88998 0.19954 0.23974 0.0
C709 C 0.88356 0.26609 0.19517 0.0
N710 N 0.8859 0.23941 0.29716 0.0
N711 N 0.88587 0.28245 0.22253 0.0
H712 H 0.88785 0.88016 0.70827 0.0
H713 H 0.8882 0.64212 0.81138 0.0
H714 H 0.88089 0.72913 0.67826 0.0
H715 H 0.88071 0.79306 0.84141 0.0
H716 H 0.89239 0.67351 0.76252 0.0
H717 H 0.89208 0.84885 0.75714 0.0
C718 C 0.88747 0.84043 0.71188 0.0
C719 C 0.88372 0.8073 0.68911 0.0
C720 C 0.89001 0.69975 0.77985 0.0
C721 C 0.88855 0.77119 0.74504 0.0
C722 C 0.88771 0.68186 0.80778 0.0
C723 C 0.88382 0.71493 0.83055 0.0
C724 C 0.88858 0.75112 0.77464 0.0
C725 C 0.8834 0.76609 0.82452 0.0
C726 C 0.8898 0.82257 0.73981 0.0
C727 C 0.88345 0.75613 0.69515 0.0
N728 N 0.8856 0.78256 0.79718 0.0
N729 N 0.88569 0.73971 0.72249 0.0
H730 H 0.62855 0.22705 0.84214 0.0
H731 H 0.62831 0.29471 0.67642 0.0
H732 H 0.62338 0.3773 0.8105 0.0
H733 H 0.62342 0.14444 0.70807 0.0
H734 H 0.6239 0.32556 0.72517 0.0
H735 H 0.62408 0.19617 0.7934 0.0
C736 C 0.62628 0.25362 0.82496 0.0
C737 C 0.62662 0.30495 0.83045 0.0
C738 C 0.62355 0.28585 0.72148 0.0
C739 C 0.62162 0.26964 0.77437 0.0
C740 C 0.62611 0.26813 0.69361 0.0
C741 C 0.62652 0.2168 0.68812 0.0
C742 C 0.62159 0.25209 0.74421 0.0
C743 C 0.62332 0.18427 0.71127 0.0
C744 C 0.62368 0.23588 0.79709 0.0
C745 C 0.62334 0.33747 0.80731 0.0
N746 N 0.62128 0.20244 0.73832 0.0
N747 N 0.62126 0.31928 0.78026 0.0
H748 H 0.38817 0.37925 0.70802 0.0
H749 H 0.38819 0.14201 0.81173 0.0
H750 H 0.38162 0.22794 0.67834 0.0
H751 H 0.38115 0.29332 0.84129 0.0
H752 H 0.39267 0.17293 0.76279 0.0
H753 H 0.39248 0.34831 0.75695 0.0
C754 C 0.38791 0.33953 0.71172 0.0
C755 C 0.38423 0.30622 0.68902 0.0
C756 C 0.39033 0.19935 0.78004 0.0
C757 C 0.38913 0.27053 0.74502 0.0
C758 C 0.38787 0.18172 0.80801 0.0
C759 C 0.384 0.21504 0.83066 0.0
C760 C 0.38908 0.2507 0.77467 0.0
C761 C 0.3838 0.26616 0.82449 0.0
C762 C 0.39029 0.32189 0.73969 0.0
C763 C 0.38412 0.25509 0.69517 0.0
N764 N 0.38614 0.28236 0.79712 0.0
N765 N 0.38637 0.23887 0.72255 0.0
H766 H 0.12811 0.72819 0.84259 0.0
H767 H 0.12913 0.79556 0.67682 0.0
H768 H 0.12358 0.87849 0.81089 0.0
H769 H 0.12325 0.6455 0.7086 0.0
H770 H 0.12463 0.82665 0.72553 0.0
H771 H 0.12385 0.69736 0.79382 0.0
C772 C 0.12603 0.75478 0.82538 0.0
C773 C 0.12648 0.8061 0.83087 0.0
C774 C 0.12409 0.78694 0.72187 0.0
C775 C 0.12173 0.77085 0.77476 0.0
C776 C 0.1267 0.76909 0.69402 0.0
C777 C 0.12685 0.71773 0.68859 0.0
C778 C 0.12181 0.75327 0.74461 0.0
C779 C 0.12337 0.68534 0.71175 0.0
C780 C 0.12355 0.73708 0.7975 0.0
C781 C 0.12344 0.83866 0.8077 0.0
N782 N 0.12128 0.70363 0.73876 0.0
N783 N 0.12148 0.8205 0.78064 0.0
H784 H 0.18038 0.51455 0.12977 0.0
H785 H 0.32928 0.50862 0.12973 0.0
H786 H 0.22284 0.37957 0.13946 0.0
H787 H 0.28685 0.64361 0.13962 0.0
H788 H 0.29062 0.46074 0.13262 0.0
H789 H 0.21904 0.56245 0.1327 0.0
C790 C 0.19777 0.49493 0.13281 0.0
C791 C 0.1982 0.44278 0.13451 0.0
C792 C 0.28978 0.50081 0.13443 0.0
C793 C 0.24279 0.49765 0.13743 0.0
C794 C 0.3119 0.52825 0.13281 0.0
C795 C 0.31148 0.58039 0.13458 0.0
C796 C 0.26688 0.52554 0.13744 0.0
C797 C 0.28823 0.60355 0.13837 0.0
C798 C 0.21988 0.52238 0.13446 0.0
C799 C 0.22145 0.41963 0.13826 0.0
N800 N 0.26695 0.5761 0.13944 0.0
N801 N 0.24272 0.44709 0.13936 0.0
H802 H 0.68143 0.50858 0.38928 0.0
H803 H 0.83029 0.51482 0.38972 0.0
H804 H 0.72371 0.64373 0.37964 0.0
H805 H 0.78798 0.37985 0.37932 0.0
H806 H 0.7916 0.56268 0.38673 0.0
H807 H 0.72014 0.46082 0.38634 0.0
C808 C 0.69879 0.52827 0.38625 0.0
C809 C 0.69916 0.58042 0.38458 0.0
C810 C 0.7908 0.52262 0.38483 0.0
C811 C 0.74381 0.52571 0.38165 0.0
C812 C 0.81294 0.4952 0.38651 0.0
C813 C 0.81255 0.44307 0.38463 0.0
C814 C 0.76793 0.49788 0.38166 0.0
C815 C 0.78934 0.41991 0.38066 0.0
C816 C 0.72094 0.50091 0.3846 0.0
C817 C 0.72237 0.60365 0.38083 0.0
N818 N 0.76805 0.44734 0.37955 0.0
N819 N 0.74369 0.57627 0.37973 0.0
H820 H 0.82984 0.50687 0.88944 0.0
H821 H 0.68098 0.5134 0.88914 0.0
H822 H 0.78756 0.64191 0.879 0.0
H823 H 0.72325 0.37822 0.87917 0.0
H824 H 0.7197 0.5611 0.88624 0.0
H825 H 0.79114 0.4591 0.88649 0.0
C826 C 0.81249 0.52652 0.88623 0.0
C827 C 0.81212 0.57864 0.88432 0.0
C828 C 0.72049 0.52102 0.88442 0.0
C829 C 0.76748 0.52395 0.88139 0.0
C830 C 0.69833 0.4937 0.88604 0.0
C831 C 0.6987 0.44156 0.88425 0.0
C832 C 0.74335 0.49618 0.88138 0.0
C833 C 0.72191 0.41829 0.88043 0.0
C834 C 0.79035 0.49915 0.88457 0.0
C835 C 0.78891 0.60185 0.88035 0.0
N836 N 0.74322 0.44563 0.87936 0.0
N837 N 0.76761 0.57448 0.87926 0.0
H838 H 0.22339 0.64516 0.64075 0.0
H839 H 0.28749 0.37571 0.64028 0.0
H840 H 0.18219 0.50883 0.63031 0.0
H841 H 0.32853 0.51219 0.62982 0.0
H842 H 0.24894 0.42377 0.64315 0.0
H843 H 0.2619 0.597 0.6433 0.0
C844 C 0.22233 0.60504 0.63939 0.0
C845 C 0.19933 0.58116 0.63541 0.0
C846 C 0.26639 0.44325 0.64043 0.0
C847 C 0.24371 0.52555 0.63818 0.0
C848 C 0.2885 0.41583 0.63897 0.0
C849 C 0.31147 0.43979 0.6349 0.0
C850 C 0.26707 0.49528 0.63805 0.0
C851 C 0.31137 0.49196 0.63301 0.0
C852 C 0.24443 0.57756 0.64066 0.0
C853 C 0.19938 0.529 0.63345 0.0
N854 N 0.2896 0.51784 0.63461 0.0
N855 N 0.22115 0.50305 0.63485 0.0
H856 H 0.78731 0.14455 0.14057 0.0
H857 H 0.7229 0.87553 0.13969 0.0
H858 H 0.82831 1.00804 0.12959 0.0
H859 H 0.68196 0.01229 0.12959 0.0
H860 H 0.7615 0.92335 0.1425 0.0
H861 H 0.74874 0.09663 0.14308 0.0
C862 C 0.78831 0.10444 0.13908 0.0
C863 C 0.81128 0.08044 0.13497 0.0
C864 C 0.74406 0.94295 0.13987 0.0
C865 C 0.76683 0.02511 0.13769 0.0
C866 C 0.72192 0.91567 0.13845 0.0
C867 C 0.69896 0.93978 0.1345 0.0
C868 C 0.74343 0.99499 0.13758 0.0
C869 C 0.69911 0.99195 0.1327 0.0
C870 C 0.76618 0.0771 0.14033 0.0
C871 C 0.81115 0.02829 0.13284 0.0
N872 N 0.72092 0.0177 0.13426 0.0
N873 N 0.78935 1.00249 0.13423 0.0
H874 H 0.22351 0.14484 0.37887 0.0
H875 H 0.28757 0.87541 0.37947 0.0
H876 H 0.18231 1.00855 0.3894 0.0
H877 H 0.32864 0.01193 0.38976 0.0
H878 H 0.24903 0.92347 0.37659 0.0
H879 H 0.26202 0.09668 0.37632 0.0
C880 C 0.22245 0.10473 0.38026 0.0
C881 C 0.19945 0.08086 0.38426 0.0
C882 C 0.26648 0.94296 0.37927 0.0
C883 C 0.24382 0.02525 0.38149 0.0
C884 C 0.28859 0.91554 0.38074 0.0
C885 C 0.31156 0.93952 0.38477 0.0
C886 C 0.26718 0.99499 0.38161 0.0
C887 C 0.31147 0.99169 0.3866 0.0
C888 C 0.24455 0.07725 0.37898 0.0
C889 C 0.1995 0.0287 0.38625 0.0
N890 N 0.2897 0.01757 0.385 0.0
N891 N 0.22127 1.00275 0.38484 0.0
H892 H 0.18065 0.01441 0.88936 0.0
H893 H 0.32948 1.00828 0.88981 0.0
H894 H 0.22303 0.87931 0.87965 0.0
H895 H 0.28716 0.14321 0.87913 0.0
H896 H 0.29082 0.96042 0.88685 0.0
H897 H 0.21932 0.06222 0.88637 0.0
C898 C 0.19802 0.99475 0.8863 0.0
C899 C 0.19843 0.9426 0.88462 0.0
C900 C 0.29001 1.00047 0.88487 0.0
C901 C 0.24303 0.99736 0.88164 0.0
C902 C 0.31213 0.02789 0.88654 0.0
C903 C 0.31173 0.08001 0.88457 0.0
C904 C 0.26714 0.0252 0.88163 0.0
C905 C 0.28852 0.10315 0.88053 0.0
C906 C 0.22015 0.02214 0.88462 0.0
C907 C 0.22166 0.91939 0.88084 0.0
N908 N 0.26724 0.07573 0.87943 0.0
N909 N 0.24295 0.9468 0.87972 0.0
H910 H 0.82991 0.0148 0.62957 0.0
H911 H 0.68107 1.00839 0.62973 0.0
H912 H 0.78765 0.87975 0.63979 0.0
H913 H 0.72331 0.14349 0.63988 0.0
H914 H 0.71979 0.96064 0.63264 0.0
H915 H 0.7912 0.06259 0.63256 0.0
C916 C 0.81256 0.99515 0.63273 0.0
C917 C 0.81219 0.94301 0.63456 0.0
C918 C 0.72057 1.00071 0.63451 0.0
C919 C 0.76755 0.99773 0.63755 0.0
C920 C 0.69842 0.02806 0.63287 0.0
C921 C 0.69878 0.08019 0.6347 0.0
C922 C 0.74343 0.02552 0.63759 0.0
C923 C 0.72198 0.10343 0.63858 0.0
C924 C 0.79041 0.02252 0.63442 0.0
C925 C 0.78899 0.91981 0.63848 0.0
N926 N 0.74329 0.07606 0.63965 0.0
N927 N 0.76768 0.9472 0.6396 0.0
H928 H 0.28071 0.17556 0.94698 0.0
H929 H 0.22802 0.3518 0.06994 0.0
H930 H 0.32708 0.25138 1.00845 0.0
H931 H 0.1814 0.27373 0.00968 0.0
H932 H 0.26464 0.31798 0.04632 0.0
H933 H 0.24403 0.21042 0.97 0.0
C934 C 0.28313 0.19906 0.96559 0.0
C935 C 0.30693 0.21094 0.97576 0.0
C936 C 0.24642 0.30851 0.03812 0.0
C937 C 0.26513 0.25152 1.00183 0.0
C938 C 0.22553 0.32805 0.05145 0.0
C939 C 0.20169 0.31513 0.04184 0.0
C940 C 0.24343 0.2757 0.0151 0.0
C941 C 0.19946 0.28462 0.01772 0.0
C942 C 0.2622 0.21918 0.97858 0.0
C943 C 0.30905 0.24122 0.99998 0.0
N944 N 0.22014 0.26548 1.00531 0.0
N945 N 0.28836 0.26088 0.01208 0.0
H946 H 0.28138 0.67216 0.07047 0.0
H947 H 0.2287 0.85018 0.94846 0.0
H948 H 0.32791 0.75046 0.01028 0.0
H949 H 0.18221 0.7722 1.00883 0.0
H950 H 0.26537 0.81563 0.97164 0.0
H951 H 0.24473 0.70663 0.04722 0.0
C952 C 0.28384 0.69609 0.05207 0.0
C953 C 0.30767 0.70886 0.04236 0.0
C954 C 0.24717 0.80633 0.97996 0.0
C955 C 0.2659 0.74903 0.01605 0.0
C956 C 0.22625 0.8263 0.96688 0.0
C957 C 0.20243 0.81366 0.97666 0.0
C958 C 0.24421 0.77339 1.0029 0.0
C959 C 0.20026 0.78292 1.00067 0.0
C960 C 0.26293 0.71601 0.03895 0.0
C961 C 0.30986 0.73965 0.01838 0.0
N962 N 0.22095 0.76339 0.01284 0.0
N963 N 0.28918 0.75914 1.00617 0.0
H964 H 0.68188 0.74667 0.51051 0.0
H965 H 0.82972 0.77677 0.50868 0.0
H966 H 0.7297 0.68008 0.44697 0.0
H967 H 0.78181 0.84421 0.57184 0.0
H968 H 0.7931 0.74277 0.4849 0.0
H969 H 0.71851 0.78092 0.53415 0.0
C970 C 0.7001 0.73855 0.50182 0.0
C971 C 0.70279 0.71087 0.47665 0.0
C972 C 0.79061 0.7653 0.50385 0.0
C973 C 0.7446 0.75063 0.50316 0.0
C974 C 0.81148 0.78514 0.51724 0.0
C975 C 0.80877 0.81295 0.54236 0.0
C976 C 0.76696 0.77348 0.51571 0.0
C977 C 0.78473 0.82248 0.55265 0.0
C978 C 0.72098 0.75854 0.51513 0.0
C979 C 0.72681 0.70168 0.46621 0.0
N980 N 0.76474 0.80244 0.53937 0.0
N981 N 0.7468 0.72184 0.47942 0.0
H982 H 0.7819 0.34895 0.44779 0.0
H983 H 0.72966 0.17473 0.57181 0.0
H984 H 0.82858 0.27415 0.50935 0.0
H985 H 0.68305 0.24908 0.51 0.0
H986 H 0.76624 0.20927 0.54847 0.0
H987 H 0.74534 0.31455 0.47123 0.0
C988 C 0.78442 0.32579 0.46651 0.0
C989 C 0.80827 0.31399 0.47656 0.0
C990 C 0.74803 0.21778 0.53988 0.0
C991 C 0.76661 0.27392 0.50311 0.0
C992 C 0.72716 0.19783 0.55307 0.0
C993 C 0.70332 0.20945 0.54291 0.0
C994 C 0.745 0.24966 0.51646 0.0
C995 C 0.70111 0.23918 0.51848 0.0
C996 C 0.76356 0.30591 0.47974 0.0
C997 C 0.81051 0.28419 0.50095 0.0
N998 N 0.72174 0.2587 0.50621 0.0
N999 N 0.78989 0.26474 0.51328 0.0
H1000 H 0.78114 0.67297 0.9471 0.0
H1001 H 0.7287 0.84688 0.07128 0.0
H1002 H 0.82762 0.74711 1.00914 0.0
H1003 H 0.68204 0.77182 0.0098 0.0
H1004 H 0.76527 0.81252 0.04783 0.0
H1005 H 0.74451 0.7073 0.97048 0.0
C1006 C 0.7836 0.69597 0.9659 0.0
C1007 C 0.80742 0.7076 0.97612 0.0
C1008 C 0.74706 0.8038 0.03933 0.0
C1009 C 0.76567 0.74757 1.0026 0.0
C1010 C 0.72619 0.82365 0.05258 0.0
C1011 C 0.70235 0.81179 0.04255 0.0
C1012 C 0.74403 0.77176 0.01597 0.0
C1013 C 0.70011 0.78191 0.01817 0.0
C1014 C 0.7627 0.7158 0.9791 0.0
C1015 C 0.80958 0.7372 1.00061 0.0
N1016 N 0.72075 0.76248 1.00583 0.0
N1017 N 0.78892 0.7566 0.0129 0.0
H1018 H 0.72915 0.34746 0.94755 0.0
H1019 H 0.78106 0.17442 0.07233 0.0
H1020 H 0.68229 0.27302 1.00904 0.0
H1021 H 0.82783 0.24775 0.01032 0.0
H1022 H 0.74455 0.20879 0.04875 0.0
H1023 H 0.76564 0.31323 0.97123 0.0
C1024 C 0.72658 0.3244 0.96629 0.0
C1025 C 0.7027 0.31265 0.97626 0.0
C1026 C 0.76277 0.21711 0.04017 0.0
C1027 C 0.74429 0.2728 1.0031 0.0
C1028 C 0.78361 0.19726 0.05349 0.0
C1029 C 0.80747 0.20864 0.04334 0.0
C1030 C 0.76586 0.24866 0.01661 0.0
C1031 C 0.80975 0.23803 0.01879 0.0
C1032 C 0.7474 0.30463 0.97967 0.0
C1033 C 0.70039 0.28301 1.0007 0.0
N1034 N 0.78915 0.25747 1.00638 0.0
N1035 N 0.72098 0.26365 0.01317 0.0
H1036 H 0.28178 0.3465 0.5717 0.0
H1037 H 0.22933 0.17172 0.44799 0.0
H1038 H 0.32842 0.2702 0.5107 0.0
H1039 H 0.18277 0.24752 0.50929 0.0
H1040 H 0.26596 0.20549 0.4716 0.0
H1041 H 0.24519 0.31204 0.54834 0.0
C1042 C 0.28428 0.32298 0.55312 0.0
C1043 C 0.30812 0.31081 0.54319 0.0
C1044 C 0.24776 0.21446 0.48002 0.0
C1045 C 0.26643 0.27068 0.51673 0.0
C1046 C 0.22686 0.19495 0.46669 0.0
C1047 C 0.20303 0.20725 0.47661 0.0
C1048 C 0.24477 0.24661 0.50335 0.0
C1049 C 0.20083 0.23711 0.501 0.0
C1050 C 0.26341 0.30307 0.53994 0.0
C1051 C 0.31035 0.28054 0.51898 0.0
N1052 N 0.2215 0.25623 0.51341 0.0
N1053 N 0.28971 0.26108 0.50668 0.0
H1054 H 0.28206 0.84748 0.44851 0.0
H1055 H 0.22959 0.67261 0.57207 0.0
H1056 H 0.32876 0.77072 0.50923 0.0
H1057 H 0.18314 0.74738 0.51028 0.0
H1058 H 0.26625 0.70672 0.54868 0.0
H1059 H 0.24549 0.81312 0.47192 0.0
C1060 C 0.28457 0.82388 0.46704 0.0
C1061 C 0.30842 0.81153 0.47687 0.0
C1062 C 0.24807 0.71539 0.5401 0.0
C1063 C 0.26675 0.7715 0.50338 0.0
C1064 C 0.22715 0.69568 0.55331 0.0
C1065 C 0.20334 0.70759 0.54318 0.0
C1066 C 0.2451 0.74733 0.51669 0.0
C1067 C 0.20118 0.73727 0.51873 0.0
C1068 C 0.26371 0.80402 0.48026 0.0
C1069 C 0.31068 0.78119 0.50103 0.0
N1070 N 0.22186 0.75658 0.50645 0.0
N1071 N 0.29004 0.76177 0.51335 0.0
H1072 H 0.05652 0.33248 0.14153 0.0
H1073 H 0.9537 0.18983 0.04827 0.0
H1074 H 0.05611 0.32718 0.04936 0.0
H1075 H 0.95301 0.19189 0.14048 0.0
H1076 H 0.99166 0.23917 0.04876 0.0
H1077 H 0.01843 0.2825 0.14203 0.0
C1078 C 0.04826 0.32152 0.12139 0.0
C1079 C 0.05957 0.33438 0.09535 0.0
C1080 C 0.98335 0.22861 0.06894 0.0
C1081 C 0.01616 0.27627 0.09582 0.0
C1082 C 0.96169 0.20007 0.06869 0.0
C1083 C 0.95009 0.18638 0.09439 0.0
C1084 C 0.99361 0.24405 0.09508 0.0
C1085 C 0.96136 0.20119 0.12013 0.0
C1086 C 0.0266 0.29259 0.12171 0.0
C1087 C 0.04811 0.31845 0.06996 0.0
N1088 N 0.9824 0.22941 0.11982 0.0
N1089 N 0.02717 0.29021 0.07086 0.0
H1090 H 0.45329 0.69004 0.14114 0.0
H1091 H 0.55619 0.83196 0.04777 0.0
H1092 H 0.45332 0.69593 0.04898 0.0
H1093 H 0.557 0.82987 0.13997 0.0
H1094 H 0.51812 0.78299 0.04828 0.0
H1095 H 0.49151 0.73963 0.14157 0.0
C1096 C 0.4615 0.70106 0.12098 0.0
C1097 C 0.45004 0.68848 0.09497 0.0
C1098 C 0.52648 0.79346 0.06845 0.0
C1099 C 0.49359 0.74613 0.09536 0.0
C1100 C 0.5482 0.8218 0.06818 0.0
C1101 C 0.55987 0.83536 0.09388 0.0
C1102 C 0.51622 0.77813 0.09459 0.0
C1103 C 0.5486 0.82066 0.11963 0.0
C1104 C 0.48322 0.72976 0.12126 0.0
C1105 C 0.46143 0.70446 0.06957 0.0
N1106 N 0.52749 0.79264 0.11933 0.0
N1107 N 0.48244 0.73247 0.07042 0.0
H1108 H 0.45388 0.83327 0.37828 0.0
H1109 H 0.55676 0.69015 0.47115 0.0
H1110 H 0.45399 0.82653 0.47043 0.0
H1111 H 0.55763 0.69333 0.37895 0.0
H1112 H 0.51874 0.73933 0.47079 0.0
H1113 H 0.49213 0.78375 0.37766 0.0
C1114 C 0.46212 0.8221 0.3984 0.0
C1115 C 0.45066 0.83439 0.42446 0.0
C1116 C 0.5271 0.72906 0.45059 0.0
C1117 C 0.49426 0.77681 0.42385 0.0
C1118 C 0.5488 0.70061 0.45076 0.0
C1119 C 0.56046 0.68728 0.42502 0.0
C1120 C 0.51687 0.74475 0.4245 0.0
C1121 C 0.54923 0.70235 0.39932 0.0
C1122 C 0.48386 0.79343 0.39801 0.0
C1123 C 0.4621 0.81822 0.4498 0.0
N1124 N 0.52814 0.73047 0.39971 0.0
N1125 N 0.48312 0.79023 0.44884 0.0
H1126 H 0.05741 0.18925 0.37785 0.0
H1127 H 0.95451 0.33108 0.4714 0.0
H1128 H 0.05724 0.19445 0.47003 0.0
H1129 H 0.95386 0.3296 0.37919 0.0
H1130 H 0.99249 0.28175 0.47084 0.0
H1131 H 0.0192 0.2389 0.37748 0.0
C1132 C 0.04917 0.20012 0.39802 0.0
C1133 C 0.0606 0.18736 0.42402 0.0
C1134 C 0.98419 0.29243 0.45068 0.0
C1135 C 0.01705 0.24507 0.42371 0.0
C1136 C 0.96251 0.32096 0.45097 0.0
C1137 C 0.95092 0.33481 0.42529 0.0
C1138 C 0.99446 0.27719 0.42451 0.0
C1139 C 0.9622 0.32017 0.39952 0.0
C1140 C 0.02745 0.22885 0.39778 0.0
C1141 C 0.04915 0.20313 0.44945 0.0
N1142 N 0.98326 0.29197 0.39979 0.0
N1143 N 0.02815 0.2312 0.44863 0.0
H1144 H 0.95378 0.69092 0.97159 0.0
H1145 H 0.05665 0.83335 0.87844 0.0
H1146 H 0.95337 0.69247 0.87938 0.0
H1147 H 0.05671 0.82704 0.97059 0.0
H1148 H 0.01848 0.78367 0.87796 0.0
H1149 H 0.99175 0.74024 0.97119 0.0
C1150 C 0.96183 0.70105 0.9512 0.0
C1151 C 0.95031 0.68721 0.92546 0.0
C1152 C 0.02677 0.79347 0.89828 0.0
C1153 C 0.99384 0.74484 0.92488 0.0
C1154 C 0.04847 0.82223 0.89859 0.0
C1155 C 0.05995 0.83471 0.92461 0.0
C1156 C 0.01643 0.77695 0.92417 0.0
C1157 C 0.04858 0.81859 0.95 0.0
C1158 C 0.9835 0.72958 0.951 0.0
C1159 C 0.96165 0.70188 0.89975 0.0
N1160 N 0.02758 0.79053 0.94911 0.0
N1161 N 0.98269 0.73009 0.90011 0.0
H1162 H 0.55687 0.33168 0.87815 0.0
H1163 H 0.45323 0.1929 0.97204 0.0
H1164 H 0.55678 0.32715 0.97034 0.0
H1165 H 0.45324 0.19185 0.87982 0.0
H1166 H 0.49136 0.24174 0.97141 0.0
H1167 H 0.51851 0.28255 0.87794 0.0
C1168 C 0.54863 0.32107 0.89836 0.0
C1169 C 0.56011 0.33387 0.92432 0.0
C1170 C 0.48316 0.2306 0.95127 0.0
C1171 C 0.51638 0.27675 0.92418 0.0
C1172 C 0.4614 0.20235 0.95161 0.0
C1173 C 0.44995 0.18792 0.92594 0.0
C1174 C 0.49367 0.24499 0.92507 0.0
C1175 C 0.46146 0.20174 0.90016 0.0
C1176 C 0.52682 0.29262 0.8982 0.0
C1177 C 0.54865 0.31841 0.94979 0.0
N1178 N 0.48258 0.22969 0.90038 0.0
N1179 N 0.52755 0.29065 0.94905 0.0
H1180 H 0.55705 0.19217 0.54732 0.0
H1181 H 0.45383 0.33304 0.64092 0.0
H1182 H 0.55735 0.19274 0.63953 0.0
H1183 H 0.45379 0.32743 0.54875 0.0
H1184 H 0.49214 0.2837 0.64123 0.0
H1185 H 0.51899 0.2413 0.54786 0.0
C1186 C 0.54895 0.20204 0.56773 0.0
C1187 C 0.56047 0.18798 0.59343 0.0
C1188 C 0.48382 0.29359 0.62095 0.0
C1189 C 0.51684 0.24538 0.59419 0.0
C1190 C 0.46204 0.32216 0.62074 0.0
C1191 C 0.45053 0.33471 0.59476 0.0
C1192 C 0.4942 0.27733 0.59501 0.0
C1193 C 0.46194 0.3189 0.56931 0.0
C1194 C 0.52724 0.23045 0.56802 0.0
C1195 C 0.54908 0.20233 0.61919 0.0
N1196 N 0.48301 0.29101 0.57011 0.0
N1197 N 0.52799 0.23043 0.61891 0.0
H1198 H 0.05705 0.69094 0.54834 0.0
H1199 H 0.95397 0.83288 0.64163 0.0
H1200 H 0.05764 0.69273 0.64056 0.0
H1201 H 0.95436 0.82764 0.54946 0.0
H1202 H 0.99218 0.78321 0.64212 0.0
H1203 H 0.01905 0.74021 0.54883 0.0
C1204 C 0.04903 0.70111 0.56875 0.0
C1205 C 0.06062 0.68736 0.59446 0.0
C1206 C 0.98398 0.79325 0.6218 0.0
C1207 C 0.01704 0.74492 0.59515 0.0
C1208 C 0.96225 0.822 0.62149 0.0
C1209 C 0.95089 0.83476 0.59545 0.0
C1210 C 0.99444 0.77702 0.5959 0.0
C1211 C 0.96239 0.81896 0.57006 0.0
C1212 C 0.02735 0.72961 0.569 0.0
C1213 C 0.04931 0.70208 0.6202 0.0
N1214 N 0.9834 0.79089 0.57095 0.0
N1215 N 0.02824 0.73024 0.61989 0.0
loop_
_geom_bond_atom_site_label_1
_geom_bond_atom_site_label_2
_geom_bond_distance
_geom_bond_site_symmetry_2
_ccdc_geom_bond_type
Fe0 O2 1.918 . S
Fe0 O5 1.997 . S
Fe0 O6 2.002 . S
Fe0 O11 1.976 . S
Fe0 O14 1.996 . S
Fe1 O2 1.918 . S
Fe1 O9 1.997 . S
Fe1 O12 1.996 . S
Fe1 O16 1.976 . S
Fe1 O19 2.002 . S
O2 Fe0 1.918 . S
O2 Fe1 1.918 . S
O2 Fe3 1.918 . S
Fe3 O2 1.918 . S
Fe3 O4 2.002 . S
Fe3 O13 1.976 . S
Fe3 O17 1.996 . S
Fe3 O20 1.997 . S
O4 Fe3 2.002 . S
O4 C21 1.295 . S
O5 Fe0 1.997 . S
O5 C21 1.235 . S
O6 Fe0 2.002 . S
O6 C7 1.295 . S
C7 O6 1.295 . S
C7 O9 1.235 . S
C8 O13 1.287 . S
C8 O14 1.255 . S
O9 Fe1 1.997 . S
O9 C7 1.235 . S
C10 O16 1.287 . S
C10 O17 1.255 . S
O11 Fe0 1.976 . S
O11 C18 1.287 . S
O12 Fe1 1.996 . S
O12 C18 1.255 . S
O13 Fe3 1.976 . S
O13 C8 1.287 . S
O14 Fe0 1.996 . S
O14 C8 1.255 . S
C15 O19 1.295 . S
C15 O20 1.235 . S
O16 Fe1 1.976 . S
O16 C10 1.287 . S
O17 Fe3 1.996 . S
O17 C10 1.255 . S
C18 O11 1.287 . S
C18 O12 1.255 . S
O19 Fe1 2.002 . S
O19 C15 1.295 . S
O20 Fe3 1.997 . S
O20 C15 1.235 . S
C21 O4 1.295 . S
C21 O5 1.235 . S
Fe22 O24 1.918 . S
Fe22 O27 1.997 . S
Fe22 O28 2.002 . S
Fe22 O33 1.976 . S
Fe22 O36 1.996 . S
Fe23 O24 1.918 . S
Fe23 O31 1.997 . S
Fe23 O34 1.996 . S
Fe23 O38 1.976 . S
Fe23 O41 2.002 . S
O24 Fe22 1.918 . S
O24 Fe23 1.918 . S
O24 Fe25 1.918 . S
Fe25 O24 1.918 . S
Fe25 O26 2.002 . S
Fe25 O35 1.976 . S
Fe25 O39 1.996 . S
Fe25 O42 1.997 . S
O26 Fe25 2.002 . S
O26 C43 1.295 . S
O27 Fe22 1.997 . S
O27 C43 1.235 . S
O28 Fe22 2.002 . S
O28 C29 1.295 . S
C29 O28 1.295 . S
C29 O31 1.235 . S
C30 O35 1.287 . S
C30 O36 1.255 . S
O31 Fe23 1.997 . S
O31 C29 1.235 . S
C32 O38 1.287 . S
C32 O39 1.255 . S
O33 Fe22 1.976 . S
O33 C40 1.287 . S
O34 Fe23 1.996 . S
O34 C40 1.255 . S
O35 Fe25 1.976 . S
O35 C30 1.287 . S
O36 Fe22 1.996 . S
O36 C30 1.255 . S
C37 O41 1.295 . S
C37 O42 1.235 . S
O38 Fe23 1.976 . S
O38 C32 1.287 . S
O39 Fe25 1.996 . S
O39 C32 1.255 . S
C40 O33 1.287 . S
C40 O34 1.255 . S
O41 Fe23 2.002 . S
O41 C37 1.295 . S
O42 Fe25 1.997 . S
O42 C37 1.235 . S
C43 O26 1.295 . S
C43 O27 1.235 . S
Fe44 O46 1.918 . S
Fe44 O49 1.997 . S
Fe44 O50 2.002 . S
Fe44 O55 1.976 . S
Fe44 O58 1.996 . S
Fe45 O46 1.918 . S
Fe45 O53 1.997 . S
Fe45 O56 1.996 . S
Fe45 O60 1.976 . S
Fe45 O63 2.002 . S
O46 Fe44 1.918 . S
O46 Fe45 1.918 . S
O46 Fe47 1.918 . S
Fe47 O46 1.918 . S
Fe47 O48 2.002 . S
Fe47 O57 1.976 . S
Fe47 O61 1.996 . S
Fe47 O64 1.997 . S
O48 Fe47 2.002 . S
O48 C65 1.295 . S
O49 Fe44 1.997 . S
O49 C65 1.235 . S
O50 Fe44 2.002 . S
O50 C51 1.295 . S
C51 O50 1.295 . S
C51 O53 1.235 . S
C52 O57 1.287 . S
C52 O58 1.255 . S
O53 Fe45 1.997 . S
O53 C51 1.235 . S
C54 O60 1.287 . S
C54 O61 1.255 . S
O55 Fe44 1.976 . S
O55 C62 1.287 . S
O56 Fe45 1.996 . S
O56 C62 1.255 . S
O57 Fe47 1.976 . S
O57 C52 1.287 . S
O58 Fe44 1.996 . S
O58 C52 1.255 . S
C59 O63 1.295 . S
C59 O64 1.235 . S
O60 Fe45 1.976 . S
O60 C54 1.287 . S
O61 Fe47 1.996 . S
O61 C54 1.255 . S
C62 O55 1.287 . S
C62 O56 1.255 . S
O63 Fe45 2.002 . S
O63 C59 1.295 . S
O64 Fe47 1.997 . S
O64 C59 1.235 . S
C65 O48 1.295 . S
C65 O49 1.235 . S
Fe66 O68 1.918 . S
Fe66 O71 1.997 . S
Fe66 O72 2.002 . S
Fe66 O77 1.976 . S
Fe66 O80 1.996 . S
Fe67 O68 1.918 . S
Fe67 O75 1.997 . S
Fe67 O78 1.996 . S
Fe67 O82 1.976 . S
Fe67 O85 2.002 . S
O68 Fe66 1.918 . S
O68 Fe67 1.918 . S
O68 Fe69 1.918 . S
Fe69 O68 1.918 . S
Fe69 O70 2.002 . S
Fe69 O79 1.976 . S
Fe69 O83 1.996 . S
Fe69 O86 1.997 . S
O70 Fe69 2.002 . S
O70 C87 1.295 . S
O71 Fe66 1.997 . S
O71 C87 1.235 . S
O72 Fe66 2.002 . S
O72 C73 1.295 . S
C73 O72 1.295 . S
C73 O75 1.235 . S
C74 O79 1.287 . S
C74 O80 1.255 . S
O75 Fe67 1.997 . S
O75 C73 1.235 . S
C76 O82 1.287 . S
C76 O83 1.255 . S
O77 Fe66 1.976 . S
O77 C84 1.287 . S
O78 Fe67 1.996 . S
O78 C84 1.255 . S
O79 Fe69 1.976 . S
O79 C74 1.287 . S
O80 Fe66 1.996 . S
O80 C74 1.255 . S
C81 O85 1.295 . S
C81 O86 1.235 . S
O82 Fe67 1.976 . S
O82 C76 1.287 . S
O83 Fe69 1.996 . S
O83 C76 1.255 . S
C84 O77 1.287 . S
C84 O78 1.255 . S
O85 Fe67 2.002 . S
O85 C81 1.295 . S
O86 Fe69 1.997 . S
O86 C81 1.235 . S
C87 O70 1.295 . S
C87 O71 1.235 . S
Fe88 O90 1.918 . S
Fe88 O93 1.997 . S
Fe88 O94 2.002 . S
Fe88 O99 1.976 . S
Fe88 O102 1.996 . S
Fe89 O90 1.918 . S
Fe89 O97 1.997 . S
Fe89 O100 1.996 . S
Fe89 O104 1.976 . S
Fe89 O107 2.002 . S
O90 Fe88 1.918 . S
O90 Fe89 1.918 . S
O90 Fe91 1.918 . S
Fe91 O90 1.918 . S
Fe91 O92 2.002 . S
Fe91 O101 1.976 . S
Fe91 O105 1.996 . S
Fe91 O108 1.997 . S
O92 Fe91 2.002 . S
O92 C109 1.295 . S
O93 Fe88 1.997 . S
O93 C109 1.235 . S
O94 Fe88 2.002 . S
O94 C95 1.295 . S
C95 O94 1.295 . S
C95 O97 1.235 . S
C96 O101 1.287 . S
C96 O102 1.255 . S
O97 Fe89 1.997 . S
O97 C95 1.235 . S
C98 O104 1.287 . S
C98 O105 1.255 . S
O99 Fe88 1.976 . S
O99 C106 1.287 . S
O100 Fe89 1.996 . S
O100 C106 1.255 . S
O101 Fe91 1.976 . S
O101 C96 1.287 . S
O102 Fe88 1.996 . S
O102 C96 1.255 . S
C103 O107 1.295 . S
C103 O108 1.235 . S
O104 Fe89 1.976 . S
O104 C98 1.287 . S
O105 Fe91 1.996 . S
O105 C98 1.255 . S
C106 O99 1.287 . S
C106 O100 1.255 . S
O107 Fe89 2.002 . S
O107 C103 1.295 . S
O108 Fe91 1.997 . S
O108 C103 1.235 . S
C109 O92 1.295 . S
C109 O93 1.235 . S
Fe110 O112 1.918 . S
Fe110 O115 1.997 . S
Fe110 O116 2.002 . S
Fe110 O121 1.976 . S
Fe110 O124 1.996 . S
Fe111 O112 1.918 . S
Fe111 O119 1.997 . S
Fe111 O122 1.996 . S
Fe111 O126 1.976 . S
Fe111 O129 2.002 . S
O112 Fe110 1.918 . S
O112 Fe111 1.918 . S
O112 Fe113 1.918 . S
Fe113 O112 1.918 . S
Fe113 O114 2.002 . S
Fe113 O123 1.976 . S
Fe113 O127 1.996 . S
Fe113 O130 1.997 . S
O114 Fe113 2.002 . S
O114 C131 1.295 . S
O115 Fe110 1.997 . S
O115 C131 1.235 . S
O116 Fe110 2.002 . S
O116 C117 1.295 . S
C117 O116 1.295 . S
C117 O119 1.235 . S
C118 O123 1.287 . S
C118 O124 1.255 . S
O119 Fe111 1.997 . S
O119 C117 1.235 . S
C120 O126 1.287 . S
C120 O127 1.255 . S
O121 Fe110 1.976 . S
O121 C128 1.287 . S
O122 Fe111 1.996 . S
O122 C128 1.255 . S
O123 Fe113 1.976 . S
O123 C118 1.287 . S
O124 Fe110 1.996 . S
O124 C118 1.255 . S
C125 O129 1.295 . S
C125 O130 1.235 . S
O126 Fe111 1.976 . S
O126 C120 1.287 . S
O127 Fe113 1.996 . S
O127 C120 1.255 . S
C128 O121 1.287 . S
C128 O122 1.255 . S
O129 Fe111 2.002 . S
O129 C125 1.295 . S
O130 Fe113 1.997 . S
O130 C125 1.235 . S
C131 O114 1.295 . S
C131 O115 1.235 . S
Fe132 O134 1.918 . S
Fe132 O137 1.997 . S
Fe132 O138 2.002 . S
Fe132 O143 1.976 . S
Fe132 O146 1.996 . S
Fe133 O134 1.918 . S
Fe133 O141 1.997 . S
Fe133 O144 1.996 . S
Fe133 O148 1.976 . S
Fe133 O151 2.002 . S
O134 Fe132 1.918 . S
O134 Fe133 1.918 . S
O134 Fe135 1.918 . S
Fe135 O134 1.918 . S
Fe135 O136 2.002 . S
Fe135 O145 1.976 . S
Fe135 O149 1.996 . S
Fe135 O152 1.997 . S
O136 Fe135 2.002 . S
O136 C153 1.295 . S
O137 Fe132 1.997 . S
O137 C153 1.235 . S
O138 Fe132 2.002 . S
O138 C139 1.295 . S
C139 O138 1.295 . S
C139 O141 1.235 . S
C140 O145 1.287 . S
C140 O146 1.255 . S
O141 Fe133 1.997 . S
O141 C139 1.235 . S
C142 O148 1.287 . S
C142 O149 1.255 . S
O143 Fe132 1.976 . S
O143 C150 1.287 . S
O144 Fe133 1.996 . S
O144 C150 1.255 . S
O145 Fe135 1.976 . S
O145 C140 1.287 . S
O146 Fe132 1.996 . S
O146 C140 1.255 . S
C147 O151 1.295 . S
C147 O152 1.235 . S
O148 Fe133 1.976 . S
O148 C142 1.287 . S
O149 Fe135 1.996 . S
O149 C142 1.255 . S
C150 O143 1.287 . S
C150 O144 1.255 . S
O151 Fe133 2.002 . S
O151 C147 1.295 . S
O152 Fe135 1.997 . S
O152 C147 1.235 . S
C153 O136 1.295 . S
C153 O137 1.235 . S
Fe154 O156 1.918 . S
Fe154 O159 1.997 . S
Fe154 O160 2.002 . S
Fe154 O165 1.976 . S
Fe154 O168 1.996 . S
Fe155 O156 1.918 . S
Fe155 O163 1.997 . S
Fe155 O166 1.996 . S
Fe155 O170 1.976 . S
Fe155 O173 2.002 . S
O156 Fe154 1.918 . S
O156 Fe155 1.918 . S
O156 Fe157 1.918 . S
Fe157 O156 1.918 . S
Fe157 O158 2.002 . S
Fe157 O167 1.976 . S
Fe157 O171 1.996 . S
Fe157 O174 1.997 . S
O158 Fe157 2.002 . S
O158 C175 1.295 . S
O159 Fe154 1.997 . S
O159 C175 1.235 . S
O160 Fe154 2.002 . S
O160 C161 1.295 . S
C161 O160 1.295 . S
C161 O163 1.235 . S
C162 O167 1.287 . S
C162 O168 1.255 . S
O163 Fe155 1.997 . S
O163 C161 1.235 . S
C164 O170 1.287 . S
C164 O171 1.255 . S
O165 Fe154 1.976 . S
O165 C172 1.287 . S
O166 Fe155 1.996 . S
O166 C172 1.255 . S
O167 Fe157 1.976 . S
O167 C162 1.287 . S
O168 Fe154 1.996 . S
O168 C162 1.255 . S
C169 O173 1.295 . S
C169 O174 1.235 . S
O170 Fe155 1.976 . S
O170 C164 1.287 . S
O171 Fe157 1.996 . S
O171 C164 1.255 . S
C172 O165 1.287 . S
C172 O166 1.255 . S
O173 Fe155 2.002 . S
O173 C169 1.295 . S
O174 Fe157 1.997 . S
O174 C169 1.235 . S
C175 O158 1.295 . S
C175 O159 1.235 . S
Fe176 O178 1.918 . S
Fe176 O181 1.997 . S
Fe176 O182 2.002 . S
Fe176 O187 1.976 . S
Fe176 O190 1.996 . S
Fe177 O178 1.918 . S
Fe177 O185 1.997 . S
Fe177 O188 1.996 . S
Fe177 O192 1.976 . S
Fe177 O195 2.002 . S
O178 Fe176 1.918 . S
O178 Fe177 1.918 . S
O178 Fe179 1.918 . S
Fe179 O178 1.918 . S
Fe179 O180 2.002 . S
Fe179 O189 1.976 . S
Fe179 O193 1.996 . S
Fe179 O196 1.997 . S
O180 Fe179 2.002 . S
O180 C197 1.295 . S
O181 Fe176 1.997 . S
O181 C197 1.235 . S
O182 Fe176 2.002 . S
O182 C183 1.295 . S
C183 O182 1.295 . S
C183 O185 1.235 . S
C184 O189 1.287 . S
C184 O190 1.255 . S
O185 Fe177 1.997 . S
O185 C183 1.235 . S
C186 O192 1.287 . S
C186 O193 1.255 . S
O187 Fe176 1.976 . S
O187 C194 1.287 . S
O188 Fe177 1.996 . S
O188 C194 1.255 . S
O189 Fe179 1.976 . S
O189 C184 1.287 . S
O190 Fe176 1.996 . S
O190 C184 1.255 . S
C191 O195 1.295 . S
C191 O196 1.235 . S
O192 Fe177 1.976 . S
O192 C186 1.287 . S
O193 Fe179 1.996 . S
O193 C186 1.255 . S
C194 O187 1.287 . S
C194 O188 1.255 . S
O195 Fe177 2.002 . S
O195 C191 1.295 . S
O196 Fe179 1.997 . S
O196 C191 1.235 . S
C197 O180 1.295 . S
C197 O181 1.235 . S
Fe198 O200 1.918 . S
Fe198 O203 1.997 . S
Fe198 O204 2.002 . S
Fe198 O209 1.976 . S
Fe198 O212 1.996 . S
Fe199 O200 1.918 . S
Fe199 O207 1.997 . S
Fe199 O210 1.996 . S
Fe199 O214 1.976 . S
Fe199 O217 2.002 . S
O200 Fe198 1.918 . S
O200 Fe199 1.918 . S
O200 Fe201 1.918 . S
Fe201 O200 1.918 . S
Fe201 O202 2.002 . S
Fe201 O211 1.976 . S
Fe201 O215 1.996 . S
Fe201 O218 1.997 . S
O202 Fe201 2.002 . S
O202 C219 1.295 . S
O203 Fe198 1.997 . S
O203 C219 1.235 . S
O204 Fe198 2.002 . S
O204 C205 1.295 . S
C205 O204 1.295 . S
C205 O207 1.235 . S
C206 O211 1.287 . S
C206 O212 1.255 . S
O207 Fe199 1.997 . S
O207 C205 1.235 . S
C208 O214 1.287 . S
C208 O215 1.255 . S
O209 Fe198 1.976 . S
O209 C216 1.287 . S
O210 Fe199 1.996 . S
O210 C216 1.255 . S
O211 Fe201 1.976 . S
O211 C206 1.287 . S
O212 Fe198 1.996 . S
O212 C206 1.255 . S
C213 O217 1.295 . S
C213 O218 1.235 . S
O214 Fe199 1.976 . S
O214 C208 1.287 . S
O215 Fe201 1.996 . S
O215 C208 1.255 . S
C216 O209 1.287 . S
C216 O210 1.255 . S
O217 Fe199 2.002 . S
O217 C213 1.295 . S
O218 Fe201 1.997 . S
O218 C213 1.235 . S
C219 O202 1.295 . S
C219 O203 1.235 . S
Fe220 O222 1.918 . S
Fe220 O225 1.997 . S
Fe220 O226 2.002 . S
Fe220 O231 1.976 . S
Fe220 O234 1.996 . S
Fe221 O222 1.918 . S
Fe221 O229 1.997 . S
Fe221 O232 1.996 . S
Fe221 O236 1.976 . S
Fe221 O239 2.002 . S
O222 Fe220 1.918 . S
O222 Fe221 1.918 . S
O222 Fe223 1.918 . S
Fe223 O222 1.918 . S
Fe223 O224 2.002 . S
Fe223 O233 1.976 . S
Fe223 O237 1.996 . S
Fe223 O240 1.997 . S
O224 Fe223 2.002 . S
O224 C241 1.295 . S
O225 Fe220 1.997 . S
O225 C241 1.235 . S
O226 Fe220 2.002 . S
O226 C227 1.295 . S
C227 O226 1.295 . S
C227 O229 1.235 . S
C228 O233 1.287 . S
C228 O234 1.255 . S
O229 Fe221 1.997 . S
O229 C227 1.235 . S
C230 O236 1.287 . S
C230 O237 1.255 . S
O231 Fe220 1.976 . S
O231 C238 1.287 . S
O232 Fe221 1.996 . S
O232 C238 1.255 . S
O233 Fe223 1.976 . S
O233 C228 1.287 . S
O234 Fe220 1.996 . S
O234 C228 1.255 . S
C235 O239 1.295 . S
C235 O240 1.235 . S
O236 Fe221 1.976 . S
O236 C230 1.287 . S
O237 Fe223 1.996 . S
O237 C230 1.255 . S
C238 O231 1.287 . S
C238 O232 1.255 . S
O239 Fe221 2.002 . S
O239 C235 1.295 . S
O240 Fe223 1.997 . S
O240 C235 1.235 . S
C241 O224 1.295 . S
C241 O225 1.235 . S
Fe242 O244 1.918 . S
Fe242 O247 1.997 . S
Fe242 O248 2.002 . S
Fe242 O253 1.976 . S
Fe242 O256 1.996 . S
Fe243 O244 1.918 . S
Fe243 O251 1.997 . S
Fe243 O254 1.996 . S
Fe243 O258 1.976 . S
Fe243 O261 2.002 . S
O244 Fe242 1.918 . S
O244 Fe243 1.918 . S
O244 Fe245 1.918 . S
Fe245 O244 1.918 . S
Fe245 O246 2.002 . S
Fe245 O255 1.976 . S
Fe245 O259 1.996 . S
Fe245 O262 1.997 . S
O246 Fe245 2.002 . S
O246 C263 1.295 . S
O247 Fe242 1.997 . S
O247 C263 1.235 . S
O248 Fe242 2.002 . S
O248 C249 1.295 . S
C249 O248 1.295 . S
C249 O251 1.235 . S
C250 O255 1.287 . S
C250 O256 1.255 . S
O251 Fe243 1.997 . S
O251 C249 1.235 . S
C252 O258 1.287 . S
C252 O259 1.255 . S
O253 Fe242 1.976 . S
O253 C260 1.287 . S
O254 Fe243 1.996 . S
O254 C260 1.255 . S
O255 Fe245 1.976 . S
O255 C250 1.287 . S
O256 Fe242 1.996 . S
O256 C250 1.255 . S
C257 O261 1.295 . S
C257 O262 1.235 . S
O258 Fe243 1.976 . S
O258 C252 1.287 . S
O259 Fe245 1.996 . S
O259 C252 1.255 . S
C260 O253 1.287 . S
C260 O254 1.255 . S
O261 Fe243 2.002 . S
O261 C257 1.295 . S
O262 Fe245 1.997 . S
O262 C257 1.235 . S
C263 O246 1.295 . S
C263 O247 1.235 . S
Fe264 O266 1.918 . S
Fe264 O269 1.997 . S
Fe264 O270 2.002 . S
Fe264 O275 1.976 . S
Fe264 O278 1.996 . S
Fe265 O266 1.918 . S
Fe265 O273 1.997 . S
Fe265 O276 1.996 . S
Fe265 O280 1.976 . S
Fe265 O283 2.002 . S
O266 Fe264 1.918 . S
O266 Fe265 1.918 . S
O266 Fe267 1.918 . S
Fe267 O266 1.918 . S
Fe267 O268 2.002 . S
Fe267 O277 1.976 . S
Fe267 O281 1.996 . S
Fe267 O284 1.997 . S
O268 Fe267 2.002 . S
O268 C285 1.295 . S
O269 Fe264 1.997 . S
O269 C285 1.235 . S
O270 Fe264 2.002 . S
O270 C271 1.295 . S
C271 O270 1.295 . S
C271 O273 1.235 . S
C272 O277 1.287 . S
C272 O278 1.255 . S
O273 Fe265 1.997 . S
O273 C271 1.235 . S
C274 O280 1.287 . S
C274 O281 1.255 . S
O275 Fe264 1.976 . S
O275 C282 1.287 . S
O276 Fe265 1.996 . S
O276 C282 1.255 . S
O277 Fe267 1.976 . S
O277 C272 1.287 . S
O278 Fe264 1.996 . S
O278 C272 1.255 . S
C279 O283 1.295 . S
C279 O284 1.235 . S
O280 Fe265 1.976 . S
O280 C274 1.287 . S
O281 Fe267 1.996 . S
O281 C274 1.255 . S
C282 O275 1.287 . S
C282 O276 1.255 . S
O283 Fe265 2.002 . S
O283 C279 1.295 . S
O284 Fe267 1.997 . S
O284 C279 1.235 . S
C285 O268 1.295 . S
C285 O269 1.235 . S
Fe286 O288 1.918 . S
Fe286 O291 1.997 . S
Fe286 O292 2.002 . S
Fe286 O297 1.976 . S
Fe286 O300 1.996 . S
Fe287 O288 1.918 . S
Fe287 O295 1.997 . S
Fe287 O298 1.996 . S
Fe287 O302 1.976 . S
Fe287 O305 2.002 . S
O288 Fe286 1.918 . S
O288 Fe287 1.918 . S
O288 Fe289 1.918 . S
Fe289 O288 1.918 . S
Fe289 O290 2.002 . S
Fe289 O299 1.976 . S
Fe289 O303 1.996 . S
Fe289 O306 1.997 . S
O290 Fe289 2.002 . S
O290 C307 1.295 . S
O291 Fe286 1.997 . S
O291 C307 1.235 . S
O292 Fe286 2.002 . S
O292 C293 1.295 . S
C293 O292 1.295 . S
C293 O295 1.235 . S
C294 O299 1.287 . S
C294 O300 1.255 . S
O295 Fe287 1.997 . S
O295 C293 1.235 . S
C296 O302 1.287 . S
C296 O303 1.255 . S
O297 Fe286 1.976 . S
O297 C304 1.287 . S
O298 Fe287 1.996 . S
O298 C304 1.255 . S
O299 Fe289 1.976 . S
O299 C294 1.287 . S
O300 Fe286 1.996 . S
O300 C294 1.255 . S
C301 O305 1.295 . S
C301 O306 1.235 . S
O302 Fe287 1.976 . S
O302 C296 1.287 . S
O303 Fe289 1.996 . S
O303 C296 1.255 . S
C304 O297 1.287 . S
C304 O298 1.255 . S
O305 Fe287 2.002 . S
O305 C301 1.295 . S
O306 Fe289 1.997 . S
O306 C301 1.235 . S
C307 O290 1.295 . S
C307 O291 1.235 . S
Fe308 O310 1.918 . S
Fe308 O313 1.997 . S
Fe308 O314 2.002 . S
Fe308 O319 1.976 . S
Fe308 O322 1.996 . S
Fe309 O310 1.918 . S
Fe309 O317 1.997 . S
Fe309 O320 1.996 . S
Fe309 O324 1.976 . S
Fe309 O327 2.002 . S
O310 Fe308 1.918 . S
O310 Fe309 1.918 . S
O310 Fe311 1.918 . S
Fe311 O310 1.918 . S
Fe311 O312 2.002 . S
Fe311 O321 1.976 . S
Fe311 O325 1.996 . S
Fe311 O328 1.997 . S
O312 Fe311 2.002 . S
O312 C329 1.295 . S
O313 Fe308 1.997 . S
O313 C329 1.235 . S
O314 Fe308 2.002 . S
O314 C315 1.295 . S
C315 O314 1.295 . S
C315 O317 1.235 . S
C316 O321 1.287 . S
C316 O322 1.255 . S
O317 Fe309 1.997 . S
O317 C315 1.235 . S
C318 O324 1.287 . S
C318 O325 1.255 . S
O319 Fe308 1.976 . S
O319 C326 1.287 . S
O320 Fe309 1.996 . S
O320 C326 1.255 . S
O321 Fe311 1.976 . S
O321 C316 1.287 . S
O322 Fe308 1.996 . S
O322 C316 1.255 . S
C323 O327 1.295 . S
C323 O328 1.235 . S
O324 Fe309 1.976 . S
O324 C318 1.287 . S
O325 Fe311 1.996 . S
O325 C318 1.255 . S
C326 O319 1.287 . S
C326 O320 1.255 . S
O327 Fe309 2.002 . S
O327 C323 1.295 . S
O328 Fe311 1.997 . S
O328 C323 1.235 . S
C329 O312 1.295 . S
C329 O313 1.235 . S
Fe330 O332 1.918 . S
Fe330 O335 1.997 . S
Fe330 O336 2.002 . S
Fe330 O341 1.976 . S
Fe330 O344 1.996 . S
Fe331 O332 1.918 . S
Fe331 O339 1.997 . S
Fe331 O342 1.996 . S
Fe331 O346 1.976 . S
Fe331 O349 2.002 . S
O332 Fe330 1.918 . S
O332 Fe331 1.918 . S
O332 Fe333 1.918 . S
Fe333 O332 1.918 . S
Fe333 O334 2.002 . S
Fe333 O343 1.976 . S
Fe333 O347 1.996 . S
Fe333 O350 1.997 . S
O334 Fe333 2.002 . S
O334 C351 1.295 . S
O335 Fe330 1.997 . S
O335 C351 1.235 . S
O336 Fe330 2.002 . S
O336 C337 1.295 . S
C337 O336 1.295 . S
C337 O339 1.235 . S
C338 O343 1.287 . S
C338 O344 1.255 . S
O339 Fe331 1.997 . S
O339 C337 1.235 . S
C340 O346 1.287 . S
C340 O347 1.255 . S
O341 Fe330 1.976 . S
O341 C348 1.287 . S
O342 Fe331 1.996 . S
O342 C348 1.255 . S
O343 Fe333 1.976 . S
O343 C338 1.287 . S
O344 Fe330 1.996 . S
O344 C338 1.255 . S
C345 O349 1.295 . S
C345 O350 1.235 . S
O346 Fe331 1.976 . S
O346 C340 1.287 . S
O347 Fe333 1.996 . S
O347 C340 1.255 . S
C348 O341 1.287 . S
C348 O342 1.255 . S
O349 Fe331 2.002 . S
O349 C345 1.295 . S
O350 Fe333 1.997 . S
O350 C345 1.235 . S
C351 O334 1.295 . S
C351 O335 1.235 . S
H352 C358 0.930 . S
H353 C362 0.930 . S
H354 C367 0.929 . S
H355 C365 0.929 1_554 S
H356 C360 0.929 . S
H357 C366 0.929 . S
C358 H352 0.930 . S
C358 C359 1.367 . S
C358 C366 1.378 . S
C359 C358 1.367 . S
C359 C367 1.433 . S
C360 H356 0.929 . S
C360 C362 1.378 1_545 S
C360 C364 1.350 1_556 S
C361 C364 1.463 . S
C361 C366 1.350 . S
C361 N369 1.427 . S
C362 H353 0.930 . S
C362 C360 1.378 1_565 S
C362 C363 1.367 . S
C363 C362 1.367 . S
C363 C365 1.433 . S
C364 C360 1.350 1_554 S
C364 C361 1.463 . S
C364 N368 1.427 1_545 S
C365 H355 0.929 1_556 S
C365 C363 1.433 . S
C365 N368 1.384 1_556 S
C366 H357 0.929 . S
C366 C358 1.378 . S
C366 C361 1.350 . S
C367 H354 0.929 . S
C367 C359 1.433 . S
C367 N369 1.384 . S
N368 C364 1.427 1_565 S
N368 C365 1.384 1_554 S
N369 C361 1.427 . S
N369 C367 1.384 . S
H370 C376 0.936 . S
H371 C380 0.930 . S
H372 C385 0.929 . S
H373 C383 0.929 . S
H374 C378 0.929 1_556 S
H375 C384 0.929 . S
C376 H370 0.936 . S
C376 C377 1.352 1_554 S
C376 C384 1.387 . S
C377 C376 1.352 1_556 S
C377 C385 1.433 . S
C378 H374 0.929 1_554 S
C378 C380 1.378 . S
C378 C382 1.350 . S
C379 C382 1.463 . S
C379 C384 1.350 1_565 S
C379 N387 1.427 1_554 S
C380 H371 0.930 . S
C380 C378 1.378 . S
C380 C381 1.367 . S
C381 C380 1.367 . S
C381 C383 1.433 . S
C382 C378 1.350 . S
C382 C379 1.463 . S
C382 N386 1.427 . S
C383 H373 0.929 . S
C383 C381 1.433 . S
C383 N386 1.384 . S
C384 H375 0.929 . S
C384 C376 1.387 . S
C384 C379 1.350 1_545 S
C385 H372 0.929 . S
C385 C377 1.433 . S
C385 N387 1.384 1_545 S
N386 C382 1.427 . S
N386 C383 1.384 . S
N387 C379 1.427 1_556 S
N387 C385 1.384 1_565 S
H388 C394 0.930 . S
H389 C398 0.930 . S
H390 C403 0.929 . S
H391 C401 0.929 . S
H392 C396 0.929 . S
H393 C402 0.929 . S
C394 H388 0.930 . S
C394 C395 1.367 . S
C394 C402 1.378 . S
C395 C394 1.367 . S
C395 C403 1.433 . S
C396 H392 0.929 . S
C396 C398 1.378 . S
C396 C400 1.350 . S
C397 C400 1.463 . S
C397 C402 1.350 1_565 S
C397 N405 1.427 . S
C398 H389 0.930 . S
C398 C396 1.378 . S
C398 C399 1.367 . S
C399 C398 1.367 . S
C399 C401 1.433 . S
C400 C396 1.350 . S
C400 C397 1.463 . S
C400 N404 1.427 . S
C401 H391 0.929 . S
C401 C399 1.433 . S
C401 N404 1.384 . S
C402 H393 0.929 . S
C402 C394 1.378 . S
C402 C397 1.350 1_545 S
C403 H390 0.929 . S
C403 C395 1.433 . S
C403 N405 1.384 1_545 S
N404 C400 1.427 . S
N404 C401 1.384 . S
N405 C397 1.427 . S
N405 C403 1.384 1_565 S
H406 C412 0.930 . S
H407 C416 0.930 . S
H408 C421 0.929 . S
H409 C419 0.929 . S
H410 C414 0.929 . S
H411 C420 0.929 . S
C412 H406 0.930 . S
C412 C413 1.367 . S
C412 C420 1.378 1_565 S
C413 C412 1.367 . S
C413 C421 1.433 . S
C414 H410 0.929 . S
C414 C416 1.378 . S
C414 C418 1.350 . S
C415 C418 1.463 . S
C415 C420 1.350 . S
C415 N423 1.427 1_545 S
C416 H407 0.930 . S
C416 C414 1.378 . S
C416 C417 1.367 . S
C417 C416 1.367 . S
C417 C419 1.433 . S
C418 C414 1.350 . S
C418 C415 1.463 . S
C418 N422 1.427 . S
C419 H409 0.929 . S
C419 C417 1.433 . S
C419 N422 1.384 . S
C420 H411 0.929 . S
C420 C412 1.378 1_545 S
C420 C415 1.350 . S
C421 H408 0.929 . S
C421 C413 1.433 . S
C421 N423 1.384 . S
N422 C418 1.427 . S
N422 C419 1.384 . S
N423 C415 1.427 1_565 S
N423 C421 1.384 . S
H424 C430 0.930 . S
H425 C434 0.930 . S
H426 C439 0.931 . S
H427 C437 0.929 . S
H428 C432 0.929 . S
H429 C438 0.929 . S
C430 H424 0.930 . S
C430 C431 1.367 . S
C430 C438 1.378 1_545 S
C431 C430 1.367 . S
C431 C439 1.433 . S
C432 H428 0.929 . S
C432 C434 1.378 . S
C432 C436 1.350 . S
C433 C436 1.463 . S
C433 C438 1.350 1_556 S
C433 N441 1.427 1_565 S
C434 H425 0.930 . S
C434 C432 1.378 . S
C434 C435 1.367 . S
C435 C434 1.367 . S
C435 C437 1.433 . S
C436 C432 1.350 . S
C436 C433 1.463 . S
C436 N440 1.427 . S
C437 H427 0.929 . S
C437 C435 1.433 . S
C437 N440 1.384 . S
C438 H429 0.929 . S
C438 C430 1.378 1_565 S
C438 C433 1.350 1_554 S
C439 H426 0.931 . S
C439 C431 1.433 . S
C439 N441 1.384 1_554 S
N440 C436 1.427 . S
N440 C437 1.384 . S
N441 C433 1.427 1_545 S
N441 C439 1.384 1_556 S
H442 C448 0.930 . S
H443 C452 0.922 1_556 S
H444 C457 0.929 . S
H445 C455 0.929 . S
H446 C450 0.929 . S
H447 C456 0.929 1_554 S
C448 H442 0.930 . S
C448 C449 1.367 . S
C448 C456 1.378 . S
C449 C448 1.367 . S
C449 C457 1.433 . S
C450 H446 0.929 . S
C450 C452 1.363 1_556 S
C450 C454 1.350 1_565 S
C451 C454 1.463 . S
C451 C456 1.350 . S
C451 N459 1.427 . S
C452 H443 0.922 1_554 S
C452 C450 1.363 1_554 S
C452 C453 1.390 . S
C453 C452 1.390 . S
C453 C455 1.433 . S
C454 C450 1.350 1_545 S
C454 C451 1.463 . S
C454 N458 1.427 1_556 S
C455 H445 0.929 . S
C455 C453 1.433 . S
C455 N458 1.384 1_565 S
C456 H447 0.929 1_556 S
C456 C448 1.378 . S
C456 C451 1.350 . S
C457 H444 0.929 . S
C457 C449 1.433 . S
C457 N459 1.384 . S
N458 C454 1.427 1_554 S
N458 C455 1.384 1_545 S
N459 C451 1.427 . S
N459 C457 1.384 . S
H460 C466 0.930 . S
H461 C470 0.930 . S
H462 C475 0.929 . S
H463 C473 0.929 . S
H464 C468 0.929 . S
H465 C474 0.929 . S
C466 H460 0.930 . S
C466 C467 1.367 . S
C466 C474 1.378 . S
C467 C466 1.367 . S
C467 C475 1.433 . S
C468 H464 0.929 . S
C468 C470 1.378 . S
C468 C472 1.350 . S
C469 C472 1.463 . S
C469 C474 1.350 1_545 S
C469 N477 1.427 . S
C470 H461 0.930 . S
C470 C468 1.378 . S
C470 C471 1.367 . S
C471 C470 1.367 . S
C471 C473 1.433 . S
C472 C468 1.350 . S
C472 C469 1.463 . S
C472 N476 1.427 . S
C473 H463 0.929 . S
C473 C471 1.433 . S
C473 N476 1.384 . S
C474 H465 0.929 . S
C474 C466 1.378 . S
C474 C469 1.350 1_565 S
C475 H462 0.929 . S
C475 C467 1.433 . S
C475 N477 1.384 1_565 S
N476 C472 1.427 . S
N476 C473 1.384 . S
N477 C469 1.427 . S
N477 C475 1.384 1_545 S
H478 C484 0.930 . S
H479 C488 0.930 . S
H480 C493 0.929 . S
H481 C491 0.929 . S
H482 C486 0.929 . S
H483 C492 0.929 . S
C484 H478 0.930 . S
C484 C485 1.367 . S
C484 C492 1.378 . S
C485 C484 1.367 . S
C485 C493 1.433 . S
C486 H482 0.929 . S
C486 C488 1.378 1_565 S
C486 C490 1.350 . S
C487 C490 1.463 . S
C487 C492 1.350 . S
C487 N495 1.427 . S
C488 H479 0.930 . S
C488 C486 1.378 1_545 S
C488 C489 1.367 . S
C489 C488 1.367 . S
C489 C491 1.433 . S
C490 C486 1.350 . S
C490 C487 1.463 . S
C490 N494 1.427 1_565 S
C491 H481 0.929 . S
C491 C489 1.433 . S
C491 N494 1.384 . S
C492 H483 0.929 . S
C492 C484 1.378 . S
C492 C487 1.350 . S
C493 H480 0.929 . S
C493 C485 1.433 . S
C493 N495 1.384 . S
N494 C490 1.427 1_545 S
N494 C491 1.384 . S
N495 C487 1.427 . S
N495 C493 1.384 . S
H496 C502 0.936 . S
H497 C506 0.930 . S
H498 C511 0.929 . S
H499 C509 0.929 . S
H500 C504 0.929 1_556 S
H501 C510 0.929 . S
C502 H496 0.936 . S
C502 C503 1.353 1_554 S
C502 C510 1.386 . S
C503 C502 1.353 1_556 S
C503 C511 1.433 . S
C504 H500 0.929 1_554 S
C504 C506 1.378 . S
C504 C508 1.350 . S
C505 C508 1.463 . S
C505 C510 1.350 . S
C505 N513 1.427 1_554 S
C506 H497 0.930 . S
C506 C504 1.378 . S
C506 C507 1.367 . S
C507 C506 1.367 . S
C507 C509 1.433 . S
C508 C504 1.350 . S
C508 C505 1.463 . S
C508 N512 1.427 . S
C509 H499 0.929 . S
C509 C507 1.433 . S
C509 N512 1.384 . S
C510 H501 0.929 . S
C510 C502 1.386 . S
C510 C505 1.350 . S
C511 H498 0.929 . S
C511 C503 1.433 . S
C511 N513 1.384 . S
N512 C508 1.427 . S
N512 C509 1.384 . S
N513 C505 1.427 1_556 S
N513 C511 1.384 . S
H514 C520 0.930 . S
H515 C524 0.924 1_554 S
H516 C529 0.929 . S
H517 C527 0.929 . S
H518 C522 0.929 . S
H519 C528 0.914 1_556 S
C520 H514 0.930 . S
C520 C521 1.367 . S
C520 C528 1.378 . S
C521 C520 1.367 . S
C521 C529 1.433 . S
C522 H518 0.929 . S
C522 C524 1.378 1_554 S
C522 C526 1.350 . S
C523 C526 1.463 . S
C523 C528 1.350 . S
C523 N531 1.427 . S
C524 H515 0.924 1_556 S
C524 C522 1.378 1_556 S
C524 C525 1.367 . S
C525 C524 1.367 . S
C525 C527 1.433 . S
C526 C522 1.350 . S
C526 C523 1.463 . S
C526 N530 1.427 1_554 S
C527 H517 0.929 . S
C527 C525 1.433 . S
C527 N530 1.384 . S
C528 H519 0.914 1_554 S
C528 C520 1.378 . S
C528 C523 1.350 . S
C529 H516 0.929 . S
C529 C521 1.433 . S
C529 N531 1.384 . S
N530 C526 1.427 1_556 S
N530 C527 1.384 . S
N531 C523 1.427 . S
N531 C529 1.384 . S
H532 C538 0.930 . S
H533 C542 0.930 . S
H534 C547 0.929 . S
H535 C545 0.929 . S
H536 C540 0.929 . S
H537 C546 0.929 . S
C538 H532 0.930 . S
C538 C539 1.367 . S
C538 C546 1.378 . S
C539 C538 1.367 . S
C539 C547 1.433 . S
C540 H536 0.929 . S
C540 C542 1.378 . S
C540 C544 1.350 . S
C541 C544 1.463 . S
C541 C546 1.350 . S
C541 N549 1.427 . S
C542 H533 0.930 . S
C542 C540 1.378 . S
C542 C543 1.367 . S
C543 C542 1.367 . S
C543 C545 1.433 . S
C544 C540 1.350 . S
C544 C541 1.463 . S
C544 N548 1.427 . S
C545 H535 0.929 . S
C545 C543 1.433 . S
C545 N548 1.384 . S
C546 H537 0.929 . S
C546 C538 1.378 . S
C546 C541 1.350 . S
C547 H534 0.929 . S
C547 C539 1.433 . S
C547 N549 1.384 . S
N548 C544 1.427 . S
N548 C545 1.384 . S
N549 C541 1.427 . S
N549 C547 1.384 . S
H550 C556 0.930 . S
H551 C560 0.930 . S
H552 C565 0.929 . S
H553 C563 0.929 . S
H554 C558 0.929 . S
H555 C564 0.929 . S
C556 H550 0.930 . S
C556 C557 1.367 . S
C556 C564 1.378 . S
C557 C556 1.367 . S
C557 C565 1.433 . S
C558 H554 0.929 . S
C558 C560 1.378 . S
C558 C562 1.350 . S
C559 C562 1.463 . S
C559 C564 1.350 . S
C559 N567 1.427 . S
C560 H551 0.930 . S
C560 C558 1.378 . S
C560 C561 1.367 . S
C561 C560 1.367 . S
C561 C563 1.433 . S
C562 C558 1.350 . S
C562 C559 1.463 . S
C562 N566 1.427 . S
C563 H553 0.929 . S
C563 C561 1.433 . S
C563 N566 1.384 . S
C564 H555 0.929 . S
C564 C556 1.378 . S
C564 C559 1.350 . S
C565 H552 0.929 . S
C565 C557 1.433 . S
C565 N567 1.384 . S
N566 C562 1.427 . S
N566 C563 1.384 . S
N567 C559 1.427 . S
N567 C565 1.384 . S
H568 C574 0.930 . S
H569 C578 0.930 . S
H570 C583 0.929 . S
H571 C581 0.929 1_556 S
H572 C576 0.929 . S
H573 C582 0.929 . S
C574 H568 0.930 . S
C574 C575 1.367 . S
C574 C582 1.378 . S
C575 C574 1.367 . S
C575 C583 1.433 . S
C576 H572 0.929 . S
C576 C578 1.378 . S
C576 C580 1.350 1_554 S
C577 C580 1.463 . S
C577 C582 1.350 . S
C577 N585 1.427 . S
C578 H569 0.930 . S
C578 C576 1.378 . S
C578 C579 1.367 . S
C579 C578 1.367 . S
C579 C581 1.433 . S
C580 C576 1.350 1_556 S
C580 C577 1.463 . S
C580 N584 1.427 . S
C581 H571 0.929 1_554 S
C581 C579 1.433 . S
C581 N584 1.384 1_554 S
C582 H573 0.929 . S
C582 C574 1.378 . S
C582 C577 1.350 . S
C583 H570 0.929 . S
C583 C575 1.433 . S
C583 N585 1.384 . S
N584 C580 1.427 . S
N584 C581 1.384 1_556 S
N585 C577 1.427 . S
N585 C583 1.384 . S
H586 C592 0.930 . S
H587 C596 0.930 . S
H588 C601 0.942 . S
H589 C599 0.929 . S
H590 C594 0.929 . S
H591 C600 0.929 . S
C592 H586 0.930 . S
C592 C593 1.367 . S
C592 C600 1.378 . S
C593 C592 1.367 . S
C593 C601 1.402 1_554 S
C594 H590 0.929 . S
C594 C596 1.378 . S
C594 C598 1.350 . S
C595 C598 1.463 . S
C595 C600 1.350 1_556 S
C595 N603 1.427 . S
C596 H587 0.930 . S
C596 C594 1.378 . S
C596 C597 1.367 . S
C597 C596 1.367 . S
C597 C599 1.433 . S
C598 C594 1.350 . S
C598 C595 1.463 . S
C598 N602 1.427 . S
C599 H589 0.929 . S
C599 C597 1.433 . S
C599 N602 1.384 . S
C600 H591 0.929 . S
C600 C592 1.378 . S
C600 C595 1.350 1_554 S
C601 H588 0.942 . S
C601 C593 1.402 1_556 S
C601 N603 1.403 . S
N602 C598 1.427 . S
N602 C599 1.384 . S
N603 C595 1.427 . S
N603 C601 1.403 . S
H604 C610 0.930 . S
H605 C614 0.930 . S
H606 C619 0.929 . S
H607 C617 0.929 . S
H608 C612 0.929 . S
H609 C618 0.929 . S
C610 H604 0.930 . S
C610 C611 1.367 . S
C610 C618 1.378 . S
C611 C610 1.367 . S
C611 C619 1.433 . S
C612 H608 0.929 . S
C612 C614 1.378 . S
C612 C616 1.350 . S
C613 C616 1.463 . S
C613 C618 1.350 . S
C613 N621 1.427 . S
C614 H605 0.930 . S
C614 C612 1.378 . S
C614 C615 1.367 . S
C615 C614 1.367 . S
C615 C617 1.433 . S
C616 C612 1.350 . S
C616 C613 1.463 . S
C616 N620 1.427 . S
C617 H607 0.929 . S
C617 C615 1.433 . S
C617 N620 1.384 . S
C618 H609 0.929 . S
C618 C610 1.378 . S
C618 C613 1.350 . S
C619 H606 0.929 . S
C619 C611 1.433 . S
C619 N621 1.384 . S
N620 C616 1.427 . S
N620 C617 1.384 . S
N621 C613 1.427 . S
N621 C619 1.384 . S
H622 C628 0.930 . S
H623 C632 0.930 . S
H624 C637 0.929 . S
H625 C635 0.929 . S
H626 C630 0.929 . S
H627 C636 0.929 . S
C628 H622 0.930 . S
C628 C629 1.367 . S
C628 C636 1.378 . S
C629 C628 1.367 . S
C629 C637 1.433 . S
C630 H626 0.929 . S
C630 C632 1.378 . S
C630 C634 1.350 . S
C631 C634 1.463 . S
C631 C636 1.350 . S
C631 N639 1.427 . S
C632 H623 0.930 . S
C632 C630 1.378 . S
C632 C633 1.367 . S
C633 C632 1.367 . S
C633 C635 1.433 . S
C634 C630 1.350 . S
C634 C631 1.463 . S
C634 N638 1.427 . S
C635 H625 0.929 . S
C635 C633 1.433 . S
C635 N638 1.384 . S
C636 H627 0.929 . S
C636 C628 1.378 . S
C636 C631 1.350 . S
C637 H624 0.929 . S
C637 C629 1.433 . S
C637 N639 1.384 . S
N638 C634 1.427 . S
N638 C635 1.384 . S
N639 C631 1.427 . S
N639 C637 1.384 . S
H640 C646 0.930 . S
H641 C650 0.930 . S
H642 C655 0.929 . S
H643 C653 0.929 . S
H644 C648 0.929 . S
H645 C654 0.929 . S
C646 H640 0.930 . S
C646 C647 1.367 . S
C646 C654 1.378 . S
C647 C646 1.367 . S
C647 C655 1.433 . S
C648 H644 0.929 . S
C648 C650 1.378 . S
C648 C652 1.350 . S
C649 C652 1.463 . S
C649 C654 1.350 . S
C649 N657 1.427 . S
C650 H641 0.930 . S
C650 C648 1.378 . S
C650 C651 1.367 . S
C651 C650 1.367 . S
C651 C653 1.433 . S
C652 C648 1.350 . S
C652 C649 1.463 . S
C652 N656 1.427 . S
C653 H643 0.929 . S
C653 C651 1.433 . S
C653 N656 1.384 . S
C654 H645 0.929 . S
C654 C646 1.378 . S
C654 C649 1.350 . S
C655 H642 0.929 . S
C655 C647 1.433 . S
C655 N657 1.384 . S
N656 C652 1.427 . S
N656 C653 1.384 . S
N657 C649 1.427 . S
N657 C655 1.384 . S
H658 C664 0.930 . S
H659 C668 0.930 . S
H660 C673 0.929 . S
H661 C671 0.929 . S
H662 C666 0.929 . S
H663 C672 0.929 . S
C664 H658 0.930 . S
C664 C665 1.367 . S
C664 C672 1.378 . S
C665 C664 1.367 . S
C665 C673 1.433 . S
C666 H662 0.929 . S
C666 C668 1.378 . S
C666 C670 1.350 . S
C667 C670 1.463 . S
C667 C672 1.350 . S
C667 N675 1.427 . S
C668 H659 0.930 . S
C668 C666 1.378 . S
C668 C669 1.367 . S
C669 C668 1.367 . S
C669 C671 1.433 . S
C670 C666 1.350 . S
C670 C667 1.463 . S
C670 N674 1.427 . S
C671 H661 0.929 . S
C671 C669 1.433 . S
C671 N674 1.384 . S
C672 H663 0.929 . S
C672 C664 1.378 . S
C672 C667 1.350 . S
C673 H660 0.929 . S
C673 C665 1.433 . S
C673 N675 1.384 . S
N674 C670 1.427 . S
N674 C671 1.384 . S
N675 C667 1.427 . S
N675 C673 1.384 . S
H676 C682 0.930 . S
H677 C686 0.930 . S
H678 C691 0.929 . S
H679 C689 0.929 . S
H680 C684 0.929 . S
H681 C690 0.929 . S
C682 H676 0.930 . S
C682 C683 1.367 . S
C682 C690 1.378 . S
C683 C682 1.367 . S
C683 C691 1.433 . S
C684 H680 0.929 . S
C684 C686 1.378 . S
C684 C688 1.350 . S
C685 C688 1.463 . S
C685 C690 1.350 . S
C685 N693 1.427 . S
C686 H677 0.930 . S
C686 C684 1.378 . S
C686 C687 1.367 . S
C687 C686 1.367 . S
C687 C689 1.433 . S
C688 C684 1.350 . S
C688 C685 1.463 . S
C688 N692 1.427 . S
C689 H679 0.929 . S
C689 C687 1.433 . S
C689 N692 1.384 . S
C690 H681 0.929 . S
C690 C682 1.378 . S
C690 C685 1.350 . S
C691 H678 0.929 . S
C691 C683 1.433 . S
C691 N693 1.384 . S
N692 C688 1.427 . S
N692 C689 1.384 . S
N693 C685 1.427 . S
N693 C691 1.384 . S
H694 C700 0.930 . S
H695 C704 0.930 . S
H696 C709 0.929 . S
H697 C707 0.929 . S
H698 C702 0.929 . S
H699 C708 0.929 . S
C700 H694 0.930 . S
C700 C701 1.367 . S
C700 C708 1.378 . S
C701 C700 1.367 . S
C701 C709 1.433 . S
C702 H698 0.929 . S
C702 C704 1.378 . S
C702 C706 1.350 . S
C703 C706 1.463 . S
C703 C708 1.350 . S
C703 N711 1.427 . S
C704 H695 0.930 . S
C704 C702 1.378 . S
C704 C705 1.367 . S
C705 C704 1.367 . S
C705 C707 1.433 . S
C706 C702 1.350 . S
C706 C703 1.463 . S
C706 N710 1.427 . S
C707 H697 0.929 . S
C707 C705 1.433 . S
C707 N710 1.384 . S
C708 H699 0.929 . S
C708 C700 1.378 . S
C708 C703 1.350 . S
C709 H696 0.929 . S
C709 C701 1.433 . S
C709 N711 1.384 . S
N710 C706 1.427 . S
N710 C707 1.384 . S
N711 C703 1.427 . S
N711 C709 1.384 . S
H712 C718 0.930 . S
H713 C722 0.930 . S
H714 C727 0.929 . S
H715 C725 0.929 . S
H716 C720 0.929 . S
H717 C726 0.929 . S
C718 H712 0.930 . S
C718 C719 1.367 . S
C718 C726 1.378 . S
C719 C718 1.367 . S
C719 C727 1.433 . S
C720 H716 0.929 . S
C720 C722 1.378 . S
C720 C724 1.350 . S
C721 C724 1.463 . S
C721 C726 1.350 . S
C721 N729 1.427 . S
C722 H713 0.930 . S
C722 C720 1.378 . S
C722 C723 1.367 . S
C723 C722 1.367 . S
C723 C725 1.433 . S
C724 C720 1.350 . S
C724 C721 1.463 . S
C724 N728 1.427 . S
C725 H715 0.929 . S
C725 C723 1.433 . S
C725 N728 1.384 . S
C726 H717 0.929 . S
C726 C718 1.378 . S
C726 C721 1.350 . S
C727 H714 0.929 . S
C727 C719 1.433 . S
C727 N729 1.384 . S
N728 C724 1.427 . S
N728 C725 1.384 . S
N729 C721 1.427 . S
N729 C727 1.384 . S
H730 C736 0.930 . S
H731 C740 0.930 . S
H732 C745 0.929 . S
H733 C743 0.929 . S
H734 C738 0.929 . S
H735 C744 0.929 . S
C736 H730 0.930 . S
C736 C737 1.367 . S
C736 C744 1.378 . S
C737 C736 1.367 . S
C737 C745 1.433 . S
C738 H734 0.929 . S
C738 C740 1.378 . S
C738 C742 1.350 . S
C739 C742 1.463 . S
C739 C744 1.350 . S
C739 N747 1.427 . S
C740 H731 0.930 . S
C740 C738 1.378 . S
C740 C741 1.367 . S
C741 C740 1.367 . S
C741 C743 1.433 . S
C742 C738 1.350 . S
C742 C739 1.463 . S
C742 N746 1.427 . S
C743 H733 0.929 . S
C743 C741 1.433 . S
C743 N746 1.384 . S
C744 H735 0.929 . S
C744 C736 1.378 . S
C744 C739 1.350 . S
C745 H732 0.929 . S
C745 C737 1.433 . S
C745 N747 1.384 . S
N746 C742 1.427 . S
N746 C743 1.384 . S
N747 C739 1.427 . S
N747 C745 1.384 . S
H748 C754 0.930 . S
H749 C758 0.930 . S
H750 C763 0.929 . S
H751 C761 0.929 . S
H752 C756 0.929 . S
H753 C762 0.929 . S
C754 H748 0.930 . S
C754 C755 1.367 . S
C754 C762 1.378 . S
C755 C754 1.367 . S
C755 C763 1.433 . S
C756 H752 0.929 . S
C756 C758 1.378 . S
C756 C760 1.350 . S
C757 C760 1.463 . S
C757 C762 1.350 . S
C757 N765 1.427 . S
C758 H749 0.930 . S
C758 C756 1.378 . S
C758 C759 1.367 . S
C759 C758 1.367 . S
C759 C761 1.433 . S
C760 C756 1.350 . S
C760 C757 1.463 . S
C760 N764 1.427 . S
C761 H751 0.929 . S
C761 C759 1.433 . S
C761 N764 1.384 . S
C762 H753 0.929 . S
C762 C754 1.378 . S
C762 C757 1.350 . S
C763 H750 0.929 . S
C763 C755 1.433 . S
C763 N765 1.384 . S
N764 C760 1.427 . S
N764 C761 1.384 . S
N765 C757 1.427 . S
N765 C763 1.384 . S
H766 C772 0.930 . S
H767 C776 0.930 . S
H768 C781 0.929 . S
H769 C779 0.929 . S
H770 C774 0.929 . S
H771 C780 0.929 . S
C772 H766 0.930 . S
C772 C773 1.367 . S
C772 C780 1.378 . S
C773 C772 1.367 . S
C773 C781 1.433 . S
C774 H770 0.929 . S
C774 C776 1.378 . S
C774 C778 1.350 . S
C775 C778 1.463 . S
C775 C780 1.350 . S
C775 N783 1.427 . S
C776 H767 0.930 . S
C776 C774 1.378 . S
C776 C777 1.367 . S
C777 C776 1.367 . S
C777 C779 1.433 . S
C778 C774 1.350 . S
C778 C775 1.463 . S
C778 N782 1.427 . S
C779 H769 0.929 . S
C779 C777 1.433 . S
C779 N782 1.384 . S
C780 H771 0.929 . S
C780 C772 1.378 . S
C780 C775 1.350 . S
C781 H768 0.929 . S
C781 C773 1.433 . S
C781 N783 1.384 . S
N782 C778 1.427 . S
N782 C779 1.384 . S
N783 C775 1.427 . S
N783 C781 1.384 . S
H784 C790 0.930 . S
H785 C794 0.930 . S
H786 C799 0.929 . S
H787 C797 0.929 . S
H788 C792 0.929 . S
H789 C798 0.929 . S
C790 H784 0.930 . S
C790 C791 1.367 . S
C790 C798 1.378 . S
C791 C790 1.367 . S
C791 C799 1.433 . S
C792 H788 0.929 . S
C792 C794 1.378 . S
C792 C796 1.350 . S
C793 C796 1.463 . S
C793 C798 1.350 . S
C793 N801 1.427 . S
C794 H785 0.930 . S
C794 C792 1.378 . S
C794 C795 1.367 . S
C795 C794 1.367 . S
C795 C797 1.433 . S
C796 C792 1.350 . S
C796 C793 1.463 . S
C796 N800 1.427 . S
C797 H787 0.929 . S
C797 C795 1.433 . S
C797 N800 1.384 . S
C798 H789 0.929 . S
C798 C790 1.378 . S
C798 C793 1.350 . S
C799 H786 0.929 . S
C799 C791 1.433 . S
C799 N801 1.384 . S
N800 C796 1.427 . S
N800 C797 1.384 . S
N801 C793 1.427 . S
N801 C799 1.384 . S
H802 C808 0.930 . S
H803 C812 0.930 . S
H804 C817 0.929 . S
H805 C815 0.929 . S
H806 C810 0.929 . S
H807 C816 0.929 . S
C808 H802 0.930 . S
C808 C809 1.367 . S
C808 C816 1.378 . S
C809 C808 1.367 . S
C809 C817 1.433 . S
C810 H806 0.929 . S
C810 C812 1.378 . S
C810 C814 1.350 . S
C811 C814 1.463 . S
C811 C816 1.350 . S
C811 N819 1.427 . S
C812 H803 0.930 . S
C812 C810 1.378 . S
C812 C813 1.367 . S
C813 C812 1.367 . S
C813 C815 1.433 . S
C814 C810 1.350 . S
C814 C811 1.463 . S
C814 N818 1.427 . S
C815 H805 0.929 . S
C815 C813 1.433 . S
C815 N818 1.384 . S
C816 H807 0.929 . S
C816 C808 1.378 . S
C816 C811 1.350 . S
C817 H804 0.929 . S
C817 C809 1.433 . S
C817 N819 1.384 . S
N818 C814 1.427 . S
N818 C815 1.384 . S
N819 C811 1.427 . S
N819 C817 1.384 . S
H820 C826 0.930 . S
H821 C830 0.930 . S
H822 C835 0.929 . S
H823 C833 0.929 . S
H824 C828 0.929 . S
H825 C834 0.929 . S
C826 H820 0.930 . S
C826 C827 1.367 . S
C826 C834 1.378 . S
C827 C826 1.367 . S
C827 C835 1.433 . S
C828 H824 0.929 . S
C828 C830 1.378 . S
C828 C832 1.350 . S
C829 C832 1.463 . S
C829 C834 1.350 . S
C829 N837 1.427 . S
C830 H821 0.930 . S
C830 C828 1.378 . S
C830 C831 1.367 . S
C831 C830 1.367 . S
C831 C833 1.433 . S
C832 C828 1.350 . S
C832 C829 1.463 . S
C832 N836 1.427 . S
C833 H823 0.929 . S
C833 C831 1.433 . S
C833 N836 1.384 . S
C834 H825 0.929 . S
C834 C826 1.378 . S
C834 C829 1.350 . S
C835 H822 0.929 . S
C835 C827 1.433 . S
C835 N837 1.384 . S
N836 C832 1.427 . S
N836 C833 1.384 . S
N837 C829 1.427 . S
N837 C835 1.384 . S
H838 C844 0.930 . S
H839 C848 0.930 . S
H840 C853 0.929 . S
H841 C851 0.929 . S
H842 C846 0.929 . S
H843 C852 0.929 . S
C844 H838 0.930 . S
C844 C845 1.367 . S
C844 C852 1.378 . S
C845 C844 1.367 . S
C845 C853 1.433 . S
C846 H842 0.929 . S
C846 C848 1.378 . S
C846 C850 1.350 . S
C847 C850 1.463 . S
C847 C852 1.350 . S
C847 N855 1.427 . S
C848 H839 0.930 . S
C848 C846 1.378 . S
C848 C849 1.367 . S
C849 C848 1.367 . S
C849 C851 1.433 . S
C850 C846 1.350 . S
C850 C847 1.463 . S
C850 N854 1.427 . S
C851 H841 0.929 . S
C851 C849 1.433 . S
C851 N854 1.384 . S
C852 H843 0.929 . S
C852 C844 1.378 . S
C852 C847 1.350 . S
C853 H840 0.929 . S
C853 C845 1.433 . S
C853 N855 1.384 . S
N854 C850 1.427 . S
N854 C851 1.384 . S
N855 C847 1.427 . S
N855 C853 1.384 . S
H856 C862 0.930 . S
H857 C866 0.930 . S
H858 C871 0.929 . S
H859 C869 0.929 . S
H860 C864 0.929 . S
H861 C870 0.929 . S
C862 H856 0.930 . S
C862 C863 1.367 . S
C862 C870 1.378 . S
C863 C862 1.367 . S
C863 C871 1.433 . S
C864 H860 0.929 . S
C864 C866 1.378 . S
C864 C868 1.350 . S
C865 C868 1.463 1_545 S
C865 C870 1.350 . S
C865 N873 1.427 . S
C866 H857 0.930 . S
C866 C864 1.378 . S
C866 C867 1.367 . S
C867 C866 1.367 . S
C867 C869 1.433 . S
C868 C864 1.350 . S
C868 C865 1.463 1_565 S
C868 N872 1.427 . S
C869 H859 0.929 . S
C869 C867 1.433 . S
C869 N872 1.384 . S
C870 H861 0.929 . S
C870 C862 1.378 . S
C870 C865 1.350 . S
C871 H858 0.929 . S
C871 C863 1.433 . S
C871 N873 1.384 . S
N872 C868 1.427 . S
N872 C869 1.384 . S
N873 C865 1.427 . S
N873 C871 1.384 . S
H874 C880 0.930 . S
H875 C884 0.930 . S
H876 C889 0.929 . S
H877 C887 0.929 . S
H878 C882 0.929 . S
H879 C888 0.929 . S
C880 H874 0.930 . S
C880 C881 1.367 . S
C880 C888 1.378 . S
C881 C880 1.367 . S
C881 C889 1.433 . S
C882 H878 0.929 . S
C882 C884 1.378 . S
C882 C886 1.350 . S
C883 C886 1.463 1_545 S
C883 C888 1.350 . S
C883 N891 1.427 . S
C884 H875 0.930 . S
C884 C882 1.378 . S
C884 C885 1.367 . S
C885 C884 1.367 . S
C885 C887 1.433 . S
C886 C882 1.350 . S
C886 C883 1.463 1_565 S
C886 N890 1.427 . S
C887 H877 0.929 . S
C887 C885 1.433 . S
C887 N890 1.384 . S
C888 H879 0.929 . S
C888 C880 1.378 . S
C888 C883 1.350 . S
C889 H876 0.929 . S
C889 C881 1.433 . S
C889 N891 1.384 . S
N890 C886 1.427 . S
N890 C887 1.384 . S
N891 C883 1.427 . S
N891 C889 1.384 . S
H892 C898 0.930 . S
H893 C902 0.930 . S
H894 C907 0.929 . S
H895 C905 0.929 . S
H896 C900 0.929 . S
H897 C906 0.929 . S
C898 H892 0.930 . S
C898 C899 1.367 . S
C898 C906 1.378 . S
C899 C898 1.367 . S
C899 C907 1.433 . S
C900 H896 0.929 . S
C900 C902 1.378 . S
C900 C904 1.350 . S
C901 C904 1.463 1_565 S
C901 C906 1.350 . S
C901 N909 1.427 . S
C902 H893 0.930 . S
C902 C900 1.378 . S
C902 C903 1.367 . S
C903 C902 1.367 . S
C903 C905 1.433 . S
C904 C900 1.350 . S
C904 C901 1.463 1_545 S
C904 N908 1.427 . S
C905 H895 0.929 . S
C905 C903 1.433 . S
C905 N908 1.384 . S
C906 H897 0.929 . S
C906 C898 1.378 . S
C906 C901 1.350 . S
C907 H894 0.929 . S
C907 C899 1.433 . S
C907 N909 1.384 . S
N908 C904 1.427 . S
N908 C905 1.384 . S
N909 C901 1.427 . S
N909 C907 1.384 . S
H910 C916 0.930 . S
H911 C920 0.930 . S
H912 C925 0.929 . S
H913 C923 0.929 . S
H914 C918 0.929 1_565 S
H915 C924 0.929 1_545 S
C916 H910 0.930 . S
C916 C917 1.367 . S
C916 C924 1.378 . S
C917 C916 1.367 . S
C917 C925 1.433 . S
C918 H914 0.929 1_545 S
C918 C920 1.378 . S
C918 C922 1.350 . S
C919 C922 1.463 1_565 S
C919 C924 1.350 . S
C919 N927 1.427 . S
C920 H911 0.930 . S
C920 C918 1.378 . S
C920 C921 1.367 . S
C921 C920 1.367 . S
C921 C923 1.433 . S
C922 C918 1.350 . S
C922 C919 1.463 1_545 S
C922 N926 1.427 . S
C923 H913 0.929 . S
C923 C921 1.433 . S
C923 N926 1.384 . S
C924 H915 0.929 1_565 S
C924 C916 1.378 . S
C924 C919 1.350 . S
C925 H912 0.929 . S
C925 C917 1.433 . S
C925 N927 1.384 . S
N926 C922 1.427 . S
N926 C923 1.384 . S
N927 C919 1.427 . S
N927 C925 1.384 . S
H928 C934 0.930 . S
H929 C938 0.930 . S
H930 C943 0.929 . S
H931 C941 0.929 . S
H932 C936 0.929 . S
H933 C942 0.929 . S
C934 H928 0.930 . S
C934 C935 1.367 . S
C934 C942 1.378 . S
C935 C934 1.367 . S
C935 C943 1.433 1_556 S
C936 H932 0.929 . S
C936 C938 1.378 . S
C936 C940 1.350 . S
C937 C940 1.463 1_556 S
C937 C942 1.350 . S
C937 N945 1.427 1_556 S
C938 H929 0.930 . S
C938 C936 1.378 . S
C938 C939 1.367 . S
C939 C938 1.367 . S
C939 C941 1.433 1_554 S
C940 C936 1.350 . S
C940 C937 1.463 1_554 S
C940 N944 1.427 1_554 S
C941 H931 0.929 . S
C941 C939 1.433 1_556 S
C941 N944 1.384 . S
C942 H933 0.929 . S
C942 C934 1.378 . S
C942 C937 1.350 . S
C943 H930 0.929 . S
C943 C935 1.433 1_554 S
C943 N945 1.384 . S
N944 C940 1.427 1_556 S
N944 C941 1.384 . S
N945 C937 1.427 1_554 S
N945 C943 1.384 . S
H946 C952 0.930 . S
H947 C956 0.942 . S
H948 C961 0.929 . S
H949 C959 0.929 . S
H950 C954 0.929 . S
H951 C960 0.929 . S
C952 H946 0.930 . S
C952 C953 1.367 . S
C952 C960 1.378 1_554 S
C953 C952 1.367 . S
C953 C961 1.433 . S
C954 H950 0.929 . S
C954 C956 1.378 1_554 S
C954 C958 1.350 1_554 S
C955 C958 1.463 1_554 S
C955 C960 1.350 1_554 S
C955 N963 1.427 . S
C956 H947 0.942 . S
C956 C954 1.378 1_556 S
C956 C957 1.367 . S
C957 C956 1.367 . S
C957 C959 1.433 . S
C958 C954 1.350 1_556 S
C958 C955 1.463 1_556 S
C958 N962 1.427 . S
C959 H949 0.929 . S
C959 C957 1.433 . S
C959 N962 1.384 . S
C960 H951 0.929 . S
C960 C952 1.378 1_556 S
C960 C955 1.350 1_556 S
C961 H948 0.929 . S
C961 C953 1.433 . S
C961 N963 1.384 . S
N962 C958 1.427 . S
N962 C959 1.384 . S
N963 C955 1.427 . S
N963 C961 1.384 . S
H964 C970 0.930 . S
H965 C974 0.930 . S
H966 C979 0.929 . S
H967 C977 0.929 . S
H968 C972 0.929 . S
H969 C978 0.929 . S
C970 H964 0.930 . S
C970 C971 1.367 . S
C970 C978 1.378 . S
C971 C970 1.367 . S
C971 C979 1.433 . S
C972 H968 0.929 . S
C972 C974 1.378 . S
C972 C976 1.350 . S
C973 C976 1.463 . S
C973 C978 1.350 . S
C973 N981 1.427 . S
C974 H965 0.930 . S
C974 C972 1.378 . S
C974 C975 1.367 . S
C975 C974 1.367 . S
C975 C977 1.433 . S
C976 C972 1.350 . S
C976 C973 1.463 . S
C976 N980 1.427 . S
C977 H967 0.929 . S
C977 C975 1.433 . S
C977 N980 1.384 . S
C978 H969 0.929 . S
C978 C970 1.378 . S
C978 C973 1.350 . S
C979 H966 0.929 . S
C979 C971 1.433 . S
C979 N981 1.384 . S
N980 C976 1.427 . S
N980 C977 1.384 . S
N981 C973 1.427 . S
N981 C979 1.384 . S
H982 C988 0.930 . S
H983 C992 0.930 . S
H984 C997 0.929 . S
H985 C995 0.929 . S
H986 C990 0.929 . S
H987 C996 0.929 . S
C988 H982 0.930 . S
C988 C989 1.367 . S
C988 C996 1.378 . S
C989 C988 1.367 . S
C989 C997 1.433 . S
C990 H986 0.929 . S
C990 C992 1.378 . S
C990 C994 1.350 . S
C991 C994 1.463 . S
C991 C996 1.350 . S
C991 N999 1.427 . S
C992 H983 0.930 . S
C992 C990 1.378 . S
C992 C993 1.367 . S
C993 C992 1.367 . S
C993 C995 1.433 . S
C994 C990 1.350 . S
C994 C991 1.463 . S
C994 N998 1.427 . S
C995 H985 0.929 . S
C995 C993 1.433 . S
C995 N998 1.384 . S
C996 H987 0.929 . S
C996 C988 1.378 . S
C996 C991 1.350 . S
C997 H984 0.929 . S
C997 C989 1.433 . S
C997 N999 1.384 . S
N998 C994 1.427 . S
N998 C995 1.384 . S
N999 C991 1.427 . S
N999 C997 1.384 . S
H1000 C1006 0.930 . S
H1001 C1010 0.930 . S
H1002 C1015 0.929 . S
H1003 C1013 0.929 . S
H1004 C1008 0.925 1_556 S
H1005 C1014 0.918 1_554 S
C1006 H1000 0.930 . S
C1006 C1007 1.367 . S
C1006 C1014 1.378 . S
C1007 C1006 1.367 . S
C1007 C1015 1.433 . S
C1008 H1004 0.925 1_554 S
C1008 C1010 1.378 . S
C1008 C1012 1.350 . S
C1009 C1012 1.463 1_556 S
C1009 C1014 1.350 . S
C1009 N1017 1.427 . S
C1010 H1001 0.930 . S
C1010 C1008 1.378 . S
C1010 C1011 1.367 . S
C1011 C1010 1.367 . S
C1011 C1013 1.433 . S
C1012 C1008 1.350 . S
C1012 C1009 1.463 1_554 S
C1012 N1016 1.427 . S
C1013 H1003 0.929 . S
C1013 C1011 1.433 . S
C1013 N1016 1.384 . S
C1014 H1005 0.918 1_556 S
C1014 C1006 1.378 . S
C1014 C1009 1.350 . S
C1015 H1002 0.929 . S
C1015 C1007 1.433 . S
C1015 N1017 1.384 . S
N1016 C1012 1.427 . S
N1016 C1013 1.384 . S
N1017 C1009 1.427 . S
N1017 C1015 1.384 . S
H1018 C1024 0.930 . S
H1019 C1028 0.930 . S
H1020 C1033 0.929 . S
H1021 C1031 0.929 . S
H1022 C1026 0.929 . S
H1023 C1032 0.929 . S
C1024 H1018 0.930 . S
C1024 C1025 1.367 . S
C1024 C1032 1.378 . S
C1025 C1024 1.367 . S
C1025 C1033 1.433 1_556 S
C1026 H1022 0.929 . S
C1026 C1028 1.378 . S
C1026 C1030 1.350 . S
C1027 C1030 1.463 1_556 S
C1027 C1032 1.350 . S
C1027 N1035 1.427 1_556 S
C1028 H1019 0.930 . S
C1028 C1026 1.378 . S
C1028 C1029 1.367 . S
C1029 C1028 1.367 . S
C1029 C1031 1.433 1_554 S
C1030 C1026 1.350 . S
C1030 C1027 1.463 1_554 S
C1030 N1034 1.427 1_554 S
C1031 H1021 0.929 . S
C1031 C1029 1.433 1_556 S
C1031 N1034 1.384 . S
C1032 H1023 0.929 . S
C1032 C1024 1.378 . S
C1032 C1027 1.350 . S
C1033 H1020 0.929 . S
C1033 C1025 1.433 1_554 S
C1033 N1035 1.384 . S
N1034 C1030 1.427 1_556 S
N1034 C1031 1.384 . S
N1035 C1027 1.427 1_554 S
N1035 C1033 1.384 . S
H1036 C1042 0.930 . S
H1037 C1046 0.930 . S
H1038 C1051 0.929 . S
H1039 C1049 0.929 . S
H1040 C1044 0.929 . S
H1041 C1050 0.929 . S
C1042 H1036 0.930 . S
C1042 C1043 1.367 . S
C1042 C1050 1.378 . S
C1043 C1042 1.367 . S
C1043 C1051 1.433 . S
C1044 H1040 0.929 . S
C1044 C1046 1.378 . S
C1044 C1048 1.350 . S
C1045 C1048 1.463 . S
C1045 C1050 1.350 . S
C1045 N1053 1.427 . S
C1046 H1037 0.930 . S
C1046 C1044 1.378 . S
C1046 C1047 1.367 . S
C1047 C1046 1.367 . S
C1047 C1049 1.433 . S
C1048 C1044 1.350 . S
C1048 C1045 1.463 . S
C1048 N1052 1.427 . S
C1049 H1039 0.929 . S
C1049 C1047 1.433 . S
C1049 N1052 1.384 . S
C1050 H1041 0.929 . S
C1050 C1042 1.378 . S
C1050 C1045 1.350 . S
C1051 H1038 0.929 . S
C1051 C1043 1.433 . S
C1051 N1053 1.384 . S
N1052 C1048 1.427 . S
N1052 C1049 1.384 . S
N1053 C1045 1.427 . S
N1053 C1051 1.384 . S
H1054 C1060 0.930 . S
H1055 C1064 0.930 . S
H1056 C1069 0.929 . S
H1057 C1067 0.929 . S
H1058 C1062 0.929 . S
H1059 C1068 0.929 . S
C1060 H1054 0.930 . S
C1060 C1061 1.367 . S
C1060 C1068 1.378 . S
C1061 C1060 1.367 . S
C1061 C1069 1.433 . S
C1062 H1058 0.929 . S
C1062 C1064 1.378 . S
C1062 C1066 1.350 . S
C1063 C1066 1.463 . S
C1063 C1068 1.350 . S
C1063 N1071 1.427 . S
C1064 H1055 0.930 . S
C1064 C1062 1.378 . S
C1064 C1065 1.367 . S
C1065 C1064 1.367 . S
C1065 C1067 1.433 . S
C1066 C1062 1.350 . S
C1066 C1063 1.463 . S
C1066 N1070 1.427 . S
C1067 H1057 0.929 . S
C1067 C1065 1.433 . S
C1067 N1070 1.384 . S
C1068 H1059 0.929 . S
C1068 C1060 1.378 . S
C1068 C1063 1.350 . S
C1069 H1056 0.929 . S
C1069 C1061 1.433 . S
C1069 N1071 1.384 . S
N1070 C1066 1.427 . S
N1070 C1067 1.384 . S
N1071 C1063 1.427 . S
N1071 C1069 1.384 . S
H1072 C1078 0.930 . S
H1073 C1082 0.930 . S
H1074 C1087 0.929 . S
H1075 C1085 0.929 . S
H1076 C1080 0.929 . S
H1077 C1086 0.929 . S
C1078 H1072 0.930 . S
C1078 C1079 1.367 . S
C1078 C1086 1.378 . S
C1079 C1078 1.367 . S
C1079 C1087 1.433 . S
C1080 H1076 0.929 . S
C1080 C1082 1.378 . S
C1080 C1084 1.350 . S
C1081 C1084 1.463 1_455 S
C1081 C1086 1.350 . S
C1081 N1089 1.427 . S
C1082 H1073 0.930 . S
C1082 C1080 1.378 . S
C1082 C1083 1.367 . S
C1083 C1082 1.367 . S
C1083 C1085 1.433 . S
C1084 C1080 1.350 . S
C1084 C1081 1.463 1_655 S
C1084 N1088 1.427 . S
C1085 H1075 0.929 . S
C1085 C1083 1.433 . S
C1085 N1088 1.384 . S
C1086 H1077 0.929 . S
C1086 C1078 1.378 . S
C1086 C1081 1.350 . S
C1087 H1074 0.929 . S
C1087 C1079 1.433 . S
C1087 N1089 1.384 . S
N1088 C1084 1.427 . S
N1088 C1085 1.384 . S
N1089 C1081 1.427 . S
N1089 C1087 1.384 . S
H1090 C1096 0.930 . S
H1091 C1100 0.930 . S
H1092 C1105 0.929 . S
H1093 C1103 0.929 . S
H1094 C1098 0.929 . S
H1095 C1104 0.929 . S
C1096 H1090 0.930 . S
C1096 C1097 1.367 . S
C1096 C1104 1.378 . S
C1097 C1096 1.367 . S
C1097 C1105 1.433 . S
C1098 H1094 0.929 . S
C1098 C1100 1.378 . S
C1098 C1102 1.350 . S
C1099 C1102 1.463 . S
C1099 C1104 1.350 . S
C1099 N1107 1.427 . S
C1100 H1091 0.930 . S
C1100 C1098 1.378 . S
C1100 C1101 1.367 . S
C1101 C1100 1.367 . S
C1101 C1103 1.433 . S
C1102 C1098 1.350 . S
C1102 C1099 1.463 . S
C1102 N1106 1.427 . S
C1103 H1093 0.929 . S
C1103 C1101 1.433 . S
C1103 N1106 1.384 . S
C1104 H1095 0.929 . S
C1104 C1096 1.378 . S
C1104 C1099 1.350 . S
C1105 H1092 0.929 . S
C1105 C1097 1.433 . S
C1105 N1107 1.384 . S
N1106 C1102 1.427 . S
N1106 C1103 1.384 . S
N1107 C1099 1.427 . S
N1107 C1105 1.384 . S
H1108 C1114 0.930 . S
H1109 C1118 0.930 . S
H1110 C1123 0.929 . S
H1111 C1121 0.929 . S
H1112 C1116 0.929 . S
H1113 C1122 0.929 . S
C1114 H1108 0.930 . S
C1114 C1115 1.367 . S
C1114 C1122 1.378 . S
C1115 C1114 1.367 . S
C1115 C1123 1.433 . S
C1116 H1112 0.929 . S
C1116 C1118 1.378 . S
C1116 C1120 1.350 . S
C1117 C1120 1.463 . S
C1117 C1122 1.350 . S
C1117 N1125 1.427 . S
C1118 H1109 0.930 . S
C1118 C1116 1.378 . S
C1118 C1119 1.367 . S
C1119 C1118 1.367 . S
C1119 C1121 1.433 . S
C1120 C1116 1.350 . S
C1120 C1117 1.463 . S
C1120 N1124 1.427 . S
C1121 H1111 0.929 . S
C1121 C1119 1.433 . S
C1121 N1124 1.384 . S
C1122 H1113 0.929 . S
C1122 C1114 1.378 . S
C1122 C1117 1.350 . S
C1123 H1110 0.929 . S
C1123 C1115 1.433 . S
C1123 N1125 1.384 . S
N1124 C1120 1.427 . S
N1124 C1121 1.384 . S
N1125 C1117 1.427 . S
N1125 C1123 1.384 . S
H1126 C1132 0.930 . S
H1127 C1136 0.930 . S
H1128 C1141 0.929 . S
H1129 C1139 0.929 . S
H1130 C1134 0.929 . S
H1131 C1140 0.929 . S
C1132 H1126 0.930 . S
C1132 C1133 1.367 . S
C1132 C1140 1.378 . S
C1133 C1132 1.367 . S
C1133 C1141 1.433 . S
C1134 H1130 0.929 . S
C1134 C1136 1.378 . S
C1134 C1138 1.350 . S
C1135 C1138 1.463 1_455 S
C1135 C1140 1.350 . S
C1135 N1143 1.427 . S
C1136 H1127 0.930 . S
C1136 C1134 1.378 . S
C1136 C1137 1.367 . S
C1137 C1136 1.367 . S
C1137 C1139 1.433 . S
C1138 C1134 1.350 . S
C1138 C1135 1.463 1_655 S
C1138 N1142 1.427 . S
C1139 H1129 0.929 . S
C1139 C1137 1.433 . S
C1139 N1142 1.384 . S
C1140 H1131 0.929 . S
C1140 C1132 1.378 . S
C1140 C1135 1.350 . S
C1141 H1128 0.929 . S
C1141 C1133 1.433 . S
C1141 N1143 1.384 . S
N1142 C1138 1.427 . S
N1142 C1139 1.384 . S
N1143 C1135 1.427 . S
N1143 C1141 1.384 . S
H1144 C1150 0.930 . S
H1145 C1154 0.930 . S
H1146 C1159 0.929 . S
H1147 C1157 0.929 . S
H1148 C1152 0.929 . S
H1149 C1158 0.929 . S
C1150 H1144 0.930 . S
C1150 C1151 1.367 . S
C1150 C1158 1.378 . S
C1151 C1150 1.367 . S
C1151 C1159 1.433 . S
C1152 H1148 0.929 . S
C1152 C1154 1.378 . S
C1152 C1156 1.350 . S
C1153 C1156 1.463 1_655 S
C1153 C1158 1.350 . S
C1153 N1161 1.427 . S
C1154 H1145 0.930 . S
C1154 C1152 1.378 . S
C1154 C1155 1.367 . S
C1155 C1154 1.367 . S
C1155 C1157 1.433 . S
C1156 C1152 1.350 . S
C1156 C1153 1.463 1_455 S
C1156 N1160 1.427 . S
C1157 H1147 0.929 . S
C1157 C1155 1.433 . S
C1157 N1160 1.384 . S
C1158 H1149 0.929 . S
C1158 C1150 1.378 . S
C1158 C1153 1.350 . S
C1159 H1146 0.929 . S
C1159 C1151 1.433 . S
C1159 N1161 1.384 . S
N1160 C1156 1.427 . S
N1160 C1157 1.384 . S
N1161 C1153 1.427 . S
N1161 C1159 1.384 . S
H1162 C1168 0.930 . S
H1163 C1172 0.930 . S
H1164 C1177 0.929 . S
H1165 C1175 0.929 . S
H1166 C1170 0.929 . S
H1167 C1176 0.929 . S
C1168 H1162 0.930 . S
C1168 C1169 1.367 . S
C1168 C1176 1.378 . S
C1169 C1168 1.367 . S
C1169 C1177 1.433 . S
C1170 H1166 0.929 . S
C1170 C1172 1.378 . S
C1170 C1174 1.350 . S
C1171 C1174 1.463 . S
C1171 C1176 1.350 . S
C1171 N1179 1.427 . S
C1172 H1163 0.930 . S
C1172 C1170 1.378 . S
C1172 C1173 1.367 . S
C1173 C1172 1.367 . S
C1173 C1175 1.433 . S
C1174 C1170 1.350 . S
C1174 C1171 1.463 . S
C1174 N1178 1.427 . S
C1175 H1165 0.929 . S
C1175 C1173 1.433 . S
C1175 N1178 1.384 . S
C1176 H1167 0.929 . S
C1176 C1168 1.378 . S
C1176 C1171 1.350 . S
C1177 H1164 0.929 . S
C1177 C1169 1.433 . S
C1177 N1179 1.384 . S
N1178 C1174 1.427 . S
N1178 C1175 1.384 . S
N1179 C1171 1.427 . S
N1179 C1177 1.384 . S
H1180 C1186 0.930 . S
H1181 C1190 0.930 . S
H1182 C1195 0.929 . S
H1183 C1193 0.929 . S
H1184 C1188 0.929 . S
H1185 C1194 0.929 . S
C1186 H1180 0.930 . S
C1186 C1187 1.367 . S
C1186 C1194 1.378 . S
C1187 C1186 1.367 . S
C1187 C1195 1.433 . S
C1188 H1184 0.929 . S
C1188 C1190 1.378 . S
C1188 C1192 1.350 . S
C1189 C1192 1.463 . S
C1189 C1194 1.350 . S
C1189 N1197 1.427 . S
C1190 H1181 0.930 . S
C1190 C1188 1.378 . S
C1190 C1191 1.367 . S
C1191 C1190 1.367 . S
C1191 C1193 1.433 . S
C1192 C1188 1.350 . S
C1192 C1189 1.463 . S
C1192 N1196 1.427 . S
C1193 H1183 0.929 . S
C1193 C1191 1.433 . S
C1193 N1196 1.384 . S
C1194 H1185 0.929 . S
C1194 C1186 1.378 . S
C1194 C1189 1.350 . S
C1195 H1182 0.929 . S
C1195 C1187 1.433 . S
C1195 N1197 1.384 . S
N1196 C1192 1.427 . S
N1196 C1193 1.384 . S
N1197 C1189 1.427 . S
N1197 C1195 1.384 . S
H1198 C1204 0.930 . S
H1199 C1208 0.930 . S
H1200 C1213 0.929 . S
H1201 C1211 0.929 . S
H1202 C1206 0.929 . S
H1203 C1212 0.929 . S
C1204 H1198 0.930 . S
C1204 C1205 1.367 . S
C1204 C1212 1.378 . S
C1205 C1204 1.367 . S
C1205 C1213 1.433 . S
C1206 H1202 0.929 . S
C1206 C1208 1.378 . S
C1206 C1210 1.350 . S
C1207 C1210 1.463 1_455 S
C1207 C1212 1.350 . S
C1207 N1215 1.427 . S
C1208 H1199 0.930 . S
C1208 C1206 1.378 . S
C1208 C1209 1.367 . S
C1209 C1208 1.367 . S
C1209 C1211 1.433 . S
C1210 C1206 1.350 . S
C1210 C1207 1.463 1_655 S
C1210 N1214 1.427 . S
C1211 H1201 0.929 . S
C1211 C1209 1.433 . S
C1211 N1214 1.384 . S
C1212 H1203 0.929 . S
C1212 C1204 1.378 . S
C1212 C1207 1.350 . S
C1213 H1200 0.929 . S
C1213 C1205 1.433 . S
C1213 N1215 1.384 . S
N1214 C1210 1.427 . S
N1214 C1211 1.384 . S
N1215 C1207 1.427 . S
N1215 C1213 1.384 . S
C359 C10 1.436 . S
C363 C293 1.484 . S
C377 C279 1.485 . S
C381 C30 1.422 . S
C395 C337 1.486 . S
C399 C54 1.422 . S
C413 C315 1.484 . S
C417 C74 1.435 . S
C431 C205 1.489 . S
C435 C106 1.450 . S
C449 C128 1.437 . S
C453 C197 1.489 . S
C467 C263 1.489 . S
C471 C142 1.437 . S
C485 C164 1.450 . S
C489 C235 1.491 . S
C503 C131 1.485 . S
C507 C186 1.422 . S
C521 C206 1.424 . S
C525 C109 1.486 . S
C539 C161 1.487 . S
C543 C238 1.431 . S
C557 C139 1.486 . S
C561 C252 1.422 . S
C575 C272 1.450 . S
C579 C29 1.491 . S
C593 C21 1.491 . S
C597 C296 1.451 . S
C611 C318 1.441 . S
C615 C73 1.491 . S
C629 C65 1.489 . S
C633 C340 1.450 . S
C647 C228 1.457 . S
C651 C18 1.459 . S
C665 C32 1.455 . S
C669 C260 1.459 . S
C683 C194 1.457 . S
C687 C62 1.454 . S
C701 C208 1.456 . S
C705 C76 1.454 . S
C719 C316 1.452 . S
C723 C98 1.455 . S
C737 C120 1.458 . S
C741 C338 1.457 . S
C755 C140 1.454 . S
C759 C282 1.452 . S
C773 C294 1.458 . S
C777 C162 1.456 . S
C791 C7 1.591 . S
C795 C37 1.596 . S
C809 C51 1.596 . S
C813 C81 1.591 . S
C827 C103 1.603 . S
C831 C125 1.598 . S
C845 C175 1.601 . S
C849 C153 1.601 . S
C863 C213 1.596 . S
C867 C183 1.591 . S
C881 C241 1.596 . S
C885 C249 1.592 . S
C899 C307 1.603 . S
C903 C271 1.598 . S
C917 C329 1.602 . S
C921 C351 1.598 . S
C935 C285 0.537 . S
C939 C15 0.543 . S
C953 C43 0.579 . S
C957 C301 0.571 . S
C971 C59 0.544 . S
C975 C323 0.538 . S
C989 C87 0.578 . S
C993 C345 0.570 . S
C1007 C95 0.567 . S
C1011 C191 0.574 . S
C1025 C117 0.537 . S
C1029 C219 0.543 . S
C1043 C147 0.569 . S
C1047 C227 0.577 . S
C1061 C257 0.575 . S
C1065 C169 0.567 . S
C1079 C8 1.526 . S
C1083 C216 1.525 . S
C1097 C40 1.525 . S
C1101 C184 1.524 . S
C1115 C250 1.522 . S
C1119 C52 1.521 . S
C1133 C230 1.520 . S
C1137 C84 1.520 . S
C1151 C96 1.504 . S
C1155 C304 1.506 . S
C1169 C118 1.501 . S
C1173 C274 1.500 . S
C1187 C348 1.500 . S
C1191 C150 1.500 . S
C1205 C172 1.500 . S
C1209 C326 1.502 . S
