# Generated by pormake.
# Topology ofo, (3)-cn, num edge types: 1
# Building blocks:
#     Node 0, Type 0, BuildingBlock: WUSLED_clean_sbu_0, # of connection points: 3
#     Node 1, Type 0, BuildingBlock: WUSLED_clean_sbu_0, # of connection points: 3
#     Node 2, Type 0, BuildingBlock: WUSLED_clean_sbu_0, # of connection points: 3
#     Node 3, Type 0, BuildingBlock: WUSLED_clean_sbu_0, # of connection points: 3
#     Node 4, Type 0, BuildingBlock: WUSLED_clean_sbu_0, # of connection points: 3
#     Node 5, Type 0, BuildingBlock: WUSLED_clean_sbu_0, # of connection points: 3
#     Node 6, Type 0, BuildingBlock: WUSLED_clean_sbu_0, # of connection points: 3
#     Node 7, Type 0, BuildingBlock: WUSLED_clean_sbu_0, # of connection points: 3
#     Node 8, Type 0, BuildingBlock: WUSLED_clean_sbu_0, # of connection points: 3
#     Node 9, Type 0, BuildingBlock: WUSLED_clean_sbu_0, # of connection points: 3
#     Node 10, Type 0, BuildingBlock: WUSLED_clean_sbu_0, # of connection points: 3
#     Node 11, Type 0, BuildingBlock: WUSLED_clean_sbu_0, # of connection points: 3
#     Edge 12, Type (0, 0), BuildingBlock: UVAHIK_clean_linker_0, # of connection points: 2
#     Edge 13, Type (0, 0), BuildingBlock: UVAHIK_clean_linker_0, # of connection points: 2
#     Edge 14, Type (0, 0), BuildingBlock: UVAHIK_clean_linker_0, # of connection points: 2
#     Edge 15, Type (0, 0), BuildingBlock: UVAHIK_clean_linker_0, # of connection points: 2
#     Edge 16, Type (0, 0), BuildingBlock: UVAHIK_clean_linker_0, # of connection points: 2
#     Edge 17, Type (0, 0), BuildingBlock: UVAHIK_clean_linker_0, # of connection points: 2
#     Edge 18, Type (0, 0), BuildingBlock: UVAHIK_clean_linker_0, # of connection points: 2
#     Edge 19, Type (0, 0), BuildingBlock: UVAHIK_clean_linker_0, # of connection points: 2
#     Edge 20, Type (0, 0), BuildingBlock: UVAHIK_clean_linker_0, # of connection points: 2
#     Edge 21, Type (0, 0), BuildingBlock: UVAHIK_clean_linker_0, # of connection points: 2
#     Edge 22, Type (0, 0), BuildingBlock: UVAHIK_clean_linker_0, # of connection points: 2
#     Edge 23, Type (0, 0), BuildingBlock: UVAHIK_clean_linker_0, # of connection points: 2
#     Edge 24, Type (0, 0), BuildingBlock: UVAHIK_clean_linker_0, # of connection points: 2
#     Edge 25, Type (0, 0), BuildingBlock: UVAHIK_clean_linker_0, # of connection points: 2
#     Edge 26, Type (0, 0), BuildingBlock: UVAHIK_clean_linker_0, # of connection points: 2
#     Edge 27, Type (0, 0), BuildingBlock: UVAHIK_clean_linker_0, # of connection points: 2
#     Edge 28, Type (0, 0), BuildingBlock: UVAHIK_clean_linker_0, # of connection points: 2
#     Edge 29, Type (0, 0), BuildingBlock: UVAHIK_clean_linker_0, # of connection points: 2
# Relax obj value: 0.053
# Max RMSD: 0.062
# Mean RMSD: 0.062
data_MOF--net-ofo--node1-WUSLED_clean_sbu_0--edge1-UVAHIK_clean_linker_0
_symmetry_space_group_name_H-M    P1
_symmetry_Int_Tables_number       1
_symmetry_cell_setting            triclinic
loop_
_symmetry_equiv_pos_as_xyz
'x, y, z'
_cell_length_a     43.241574
_cell_length_b     43.2822
_cell_length_c     108.6527
_cell_angle_alpha  89.99504
_cell_angle_beta   89.998602
_cell_angle_gamma 119.98821
loop_
_atom_site_label
_atom_site_type_symbol
_atom_site_fract_x
_atom_site_fract_y
_atom_site_fract_z
_atom_type_partial_charge
C0 C 0.40232 0.3196 0.0974 0.0
C1 C 0.42713 0.31452 0.10412 0.0
C2 C 0.43857 0.36421 0.11762 0.0
C3 C 0.44508 0.33661 0.11414 0.0
C4 C 0.41382 0.36926 0.11077 0.0
C5 C 0.39586 0.34712 0.10076 0.0
U6 U 0.38239 0.24202 0.07589 0.0
O7 O 0.33106 0.19937 0.06875 0.0
O8 O 0.37207 0.23643 0.05593 0.0
C9 C 0.33906 0.21022 0.05729 0.0
C10 C 0.38278 0.29619 0.08698 0.0
C11 C 0.31162 0.21382 0.05044 0.0
C12 C 0.27433 0.24065 0.04749 0.0
C13 C 0.30105 0.23831 0.05404 0.0
C14 C 0.26883 0.1943 0.03365 0.0
C15 C 0.2577 0.21848 0.03725 0.0
C16 C 0.29547 0.19201 0.04018 0.0
C17 C 0.43474 0.1921 0.08082 0.0
C18 C 0.41913 0.13315 0.07322 0.0
C19 C 0.47728 0.17107 0.0823 0.0
C20 C 0.46835 0.19759 0.08426 0.0
C21 C 0.4527 0.13836 0.07685 0.0
C22 C 0.41025 0.15983 0.07516 0.0
C23 C 0.42564 0.21992 0.08368 0.0
O24 O 0.40205 0.29967 0.07717 0.0
O25 O 0.36053 0.26273 0.08984 0.0
O26 O 0.39372 0.20883 0.08833 0.0
O27 O 0.43492 0.24526 0.07543 0.0
H28 H 0.43254 0.29344 0.10162 0.0
H29 H 0.4643 0.33226 0.1191 0.0
H30 H 0.40782 0.38992 0.11327 0.0
H31 H 0.37672 0.35136 0.09569 0.0
H32 H 0.26624 0.25934 0.05059 0.0
H33 H 0.31325 0.25537 0.06195 0.0
H34 H 0.25713 0.17726 0.0257 0.0
H35 H 0.30342 0.17307 0.03724 0.0
H36 H 0.39972 0.10846 0.06887 0.0
H37 H 0.50314 0.17586 0.08537 0.0
H38 H 0.48756 0.22226 0.08868 0.0
H39 H 0.38419 0.15511 0.07237 0.0
C40 C 0.08384 0.39635 0.76584 0.0
C41 C 0.11132 0.4151 0.77438 0.0
C42 C 0.07295 0.43074 0.78611 0.0
C43 C 0.1059 0.43206 0.78444 0.0
C44 C 0.04567 0.41222 0.77742 0.0
C45 C 0.05108 0.39515 0.7674 0.0
U46 U 0.14299 0.37816 0.74423 0.0
O47 O 0.13495 0.3272 0.73697 0.0
O48 O 0.1383 0.36816 0.72427 0.0
C49 C 0.13184 0.33525 0.72554 0.0
C50 C 0.0887 0.3776 0.75536 0.0
C51 C 0.10077 0.30774 0.71874 0.0
C52 C 0.03674 0.27321 0.71506 0.0
C53 C 0.06592 0.29999 0.72153 0.0
C54 C 0.07705 0.26186 0.70295 0.0
C55 C 0.04194 0.25364 0.70573 0.0
C56 C 0.10611 0.28861 0.70939 0.0
C57 C 0.24527 0.43113 0.74912 0.0
C58 C 0.28888 0.41629 0.74116 0.0
C59 C 0.30878 0.47379 0.75069 0.0
C60 C 0.27326 0.46456 0.75275 0.0
C61 C 0.31712 0.44969 0.74496 0.0
C62 C 0.25325 0.40712 0.7432 0.0
C63 C 0.20824 0.4217 0.75204 0.0
O64 O 0.10449 0.3973 0.74563 0.0
O65 O 0.10034 0.35562 0.75813 0.0
O66 O 0.18766 0.38969 0.75664 0.0
O67 O 0.19196 0.4309 0.74385 0.0
H68 H 0.13691 0.41651 0.77328 0.0
H69 H 0.12765 0.44652 0.79085 0.0
H70 H 0.01989 0.41037 0.77848 0.0
H71 H 0.02955 0.38078 0.76089 0.0
H72 H 0.01009 0.26738 0.71752 0.0
H73 H 0.06129 0.31447 0.72875 0.0
H74 H 0.08214 0.24778 0.69571 0.0
H75 H 0.13284 0.29431 0.70709 0.0
H76 H 0.2943 0.39726 0.7366 0.0
H77 H 0.32975 0.4995 0.75389 0.0
H78 H 0.26766 0.48341 0.75737 0.0
H79 H 0.232 0.3812 0.74027 0.0
C80 C 0.6929 0.08602 0.43279 0.0
C81 C 0.69302 0.11541 0.43828 0.0
C82 C 0.64607 0.07586 0.45251 0.0
C83 C 0.66977 0.11038 0.44804 0.0
C84 C 0.64632 0.04658 0.44699 0.0
C85 C 0.66948 0.05165 0.43722 0.0
U86 U 0.77081 0.14347 0.41093 0.0
O87 O 0.81246 0.13351 0.40364 0.0
O88 O 0.77494 0.13721 0.39095 0.0
C89 C 0.80048 0.1294 0.39228 0.0
C90 C 0.71668 0.09053 0.42241 0.0
C91 C 0.79542 0.09735 0.38563 0.0
C92 C 0.78725 0.03743 0.38535 0.0
C93 C 0.79049 0.06679 0.3919 0.0
C94 C 0.79286 0.06827 0.36617 0.0
C95 C 0.78854 0.03787 0.3724 0.0
C96 C 0.79638 0.09771 0.37272 0.0
C97 C 0.82297 0.24656 0.41488 0.0
C98 C 0.88476 0.29517 0.41579 0.0
C99 C 0.8388 0.30644 0.40814 0.0
C100 C 0.8132 0.27055 0.41002 0.0
C101 C 0.87487 0.3194 0.41118 0.0
C102 C 0.85916 0.25923 0.41764 0.0
C103 C 0.79478 0.20968 0.41809 0.0
O104 O 0.71308 0.10619 0.41259 0.0
O105 O 0.75021 0.10188 0.42526 0.0
O106 O 0.80521 0.18859 0.42297 0.0
O107 O 0.76852 0.19321 0.41016 0.0
H108 H 0.71105 0.14219 0.43501 0.0
H109 H 0.67064 0.13356 0.45218 0.0
H110 H 0.62818 0.01964 0.45008 0.0
H111 H 0.66898 0.02863 0.43307 0.0
H112 H 0.78352 0.01427 0.39042 0.0
H113 H 0.78936 0.06564 0.40186 0.0
H114 H 0.79433 0.06965 0.35621 0.0
H115 H 0.80023 0.12099 0.36768 0.0
H116 H 0.91214 0.30417 0.41839 0.0
H117 H 0.8302 0.3241 0.40439 0.0
H118 H 0.78553 0.26172 0.4079 0.0
H119 H 0.86767 0.24166 0.42153 0.0
C120 C 0.60911 0.68902 0.10023 0.0
C121 C 0.60305 0.70342 0.11095 0.0
C122 C 0.57415 0.64482 0.12071 0.0
C123 C 0.58591 0.68156 0.1211 0.0
C124 C 0.57974 0.63042 0.1099 0.0
C125 C 0.59718 0.65235 0.09979 0.0
U126 U 0.62994 0.76544 0.07772 0.0
O127 O 0.68155 0.80692 0.07033 0.0
O128 O 0.64023 0.76905 0.05778 0.0
C129 C 0.67337 0.79514 0.05897 0.0
C130 C 0.62838 0.71173 0.08956 0.0
C131 C 0.70065 0.7908 0.05232 0.0
C132 C 0.73316 0.75929 0.0485 0.0
C133 C 0.70652 0.76232 0.05484 0.0
C134 C 0.74813 0.81307 0.03709 0.0
C135 C 0.75447 0.7848 0.0396 0.0
C136 C 0.72152 0.816 0.04339 0.0
C137 C 0.57922 0.81788 0.08151 0.0
C138 C 0.59233 0.87961 0.08224 0.0
C139 C 0.53525 0.83358 0.07452 0.0
C140 C 0.54554 0.80804 0.07654 0.0
C141 C 0.55827 0.86964 0.07752 0.0
C142 C 0.60266 0.85406 0.08423 0.0
C143 C 0.58792 0.78978 0.08482 0.0
O144 O 0.60899 0.70759 0.07972 0.0
O145 O 0.65148 0.74534 0.09197 0.0
O146 O 0.61952 0.80026 0.08966 0.0
O147 O 0.57796 0.76331 0.07698 0.0
H148 H 0.61169 0.73158 0.1115 0.0
H149 H 0.58154 0.69337 0.12923 0.0
H150 H 0.57121 0.60229 0.10933 0.0
H151 H 0.60161 0.64069 0.09163 0.0
H152 H 0.73752 0.73738 0.05075 0.0
H153 H 0.6907 0.74265 0.06174 0.0
H154 H 0.7636 0.83286 0.03018 0.0
H155 H 0.71729 0.8381 0.0413 0.0
H156 H 0.61063 0.90701 0.08481 0.0
H157 H 0.50905 0.82494 0.0707 0.0
H158 H 0.52676 0.78037 0.07444 0.0
H159 H 0.62869 0.86262 0.08819 0.0
C160 C 0.92548 0.60987 0.76643 0.0
C161 C 0.89815 0.59225 0.77513 0.0
C162 C 0.93533 0.57467 0.78668 0.0
C163 C 0.90307 0.57488 0.78518 0.0
C164 C 0.96246 0.59216 0.77786 0.0
C165 C 0.95755 0.6096 0.76785 0.0
U166 U 0.86855 0.63009 0.74427 0.0
O167 O 0.87861 0.68151 0.7368 0.0
O168 O 0.87509 0.64011 0.72427 0.0
C169 C 0.88281 0.67343 0.72549 0.0
C170 C 0.92127 0.62892 0.75591 0.0
C171 C 0.91504 0.7003 0.71892 0.0
C172 C 0.97678 0.74879 0.71879 0.0
C173 C 0.94704 0.72262 0.72519 0.0
C174 C 0.94333 0.73004 0.69974 0.0
C175 C 0.97523 0.75292 0.70599 0.0
C176 C 0.91355 0.70409 0.70615 0.0
C177 C 0.76531 0.57923 0.74814 0.0
C178 C 0.71618 0.59161 0.7493 0.0
C179 C 0.70581 0.5354 0.74097 0.0
C180 C 0.74174 0.54588 0.74291 0.0
C181 C 0.69238 0.55787 0.74431 0.0
C182 C 0.75217 0.60213 0.75121 0.0
C183 C 0.80223 0.58805 0.7514 0.0
O184 O 0.90568 0.60941 0.74613 0.0
O185 O 0.91014 0.65138 0.75855 0.0
O186 O 0.8233 0.61966 0.75622 0.0
O187 O 0.81877 0.57811 0.74356 0.0
H188 H 0.87308 0.59198 0.77415 0.0
H189 H 0.88145 0.56127 0.7917 0.0
H190 H 0.98774 0.59286 0.77879 0.0
H191 H 0.97896 0.6231 0.76123 0.0
H192 H 1.00107 0.76567 0.72386 0.0
H193 H 0.94898 0.72002 0.73503 0.0
H194 H 0.9411 0.73272 0.68992 0.0
H195 H 0.88914 0.68717 0.70114 0.0
H196 H 0.70678 0.60947 0.75214 0.0
H197 H 0.68847 0.50946 0.73694 0.0
H198 H 0.75092 0.52748 0.74055 0.0
H199 H 0.76939 0.62786 0.7554 0.0
C200 C 0.32534 0.92716 0.43281 0.0
C201 C 0.32054 0.8983 0.44008 0.0
C202 C 0.37033 0.93855 0.45323 0.0
C203 C 0.34282 0.90394 0.4502 0.0
C204 C 0.3751 0.9673 0.44583 0.0
C205 C 0.35278 0.96162 0.43573 0.0
U206 U 0.24806 0.86757 0.41118 0.0
O207 O 0.20582 0.87616 0.40356 0.0
O208 O 0.24346 0.87182 0.39114 0.0
C209 C 0.21737 0.87892 0.39219 0.0
C210 C 0.30181 0.9219 0.42227 0.0
C211 C 0.22193 0.91019 0.38526 0.0
C212 C 0.24809 0.97436 0.38285 0.0
C213 C 0.24461 0.94503 0.3895 0.0
C214 C 0.20656 0.93431 0.3676 0.0
C215 C 0.22906 0.96936 0.37181 0.0
C216 C 0.20305 0.90506 0.37426 0.0
C217 C 0.19762 0.76544 0.41628 0.0
C218 C 0.1388 0.72212 0.40851 0.0
C219 C 0.17661 0.70189 0.41768 0.0
C220 C 0.20307 0.73732 0.41973 0.0
C221 C 0.14398 0.69376 0.41214 0.0
C222 C 0.16542 0.75765 0.41053 0.0
C223 C 0.22541 0.80237 0.4192 0.0
O224 O 0.30572 0.90561 0.41269 0.0
O225 O 0.26819 0.91049 0.42499 0.0
O226 O 0.21416 0.82332 0.42361 0.0
O227 O 0.25127 0.81828 0.41111 0.0
H228 H 0.29953 0.87146 0.43793 0.0
H229 H 0.33868 0.88112 0.45558 0.0
H230 H 0.39569 0.99431 0.44797 0.0
H231 H 0.35681 0.98423 0.43023 0.0
H232 H 0.26595 1.00096 0.38629 0.0
H233 H 0.25954 0.94951 0.39796 0.0
H234 H 0.19113 0.92939 0.35924 0.0
H235 H 0.18535 0.87836 0.37086 0.0
H236 H 0.11419 0.71686 0.4041 0.0
H237 H 0.1814 0.68083 0.42075 0.0
H238 H 0.22768 0.74276 0.42421 0.0
H239 H 0.16072 0.77898 0.40774 0.0
C240 C 0.6902 0.60981 0.24133 0.0
C241 C 0.69166 0.58137 0.23573 0.0
C242 C 0.64447 0.57281 0.22141 0.0
C243 C 0.66898 0.56301 0.22587 0.0
C244 C 0.64339 0.60154 0.22704 0.0
C245 C 0.66602 0.61982 0.23691 0.0
U246 U 0.76655 0.62875 0.2635 0.0
O247 O 0.80884 0.67967 0.27099 0.0
O248 O 0.77039 0.63862 0.2835 0.0
C249 C 0.79655 0.6717 0.28231 0.0
C250 C 0.71345 0.62909 0.25182 0.0
C251 C 0.79213 0.69899 0.28901 0.0
C252 C 0.78328 0.75032 0.28938 0.0
C253 C 0.78603 0.72395 0.2828 0.0
C254 C 0.79173 0.72664 0.30847 0.0
C255 C 0.78622 0.75206 0.3023 0.0
C256 C 0.79475 0.70048 0.30189 0.0
C257 C 0.81594 0.57549 0.25938 0.0
C258 C 0.87377 0.5899 0.26783 0.0
C259 C 0.83684 0.53287 0.25792 0.0
C260 C 0.81073 0.54222 0.25567 0.0
C261 C 0.86887 0.55668 0.26394 0.0
C262 C 0.8475 0.5992 0.2656 0.0
C263 C 0.78867 0.58513 0.25618 0.0
O264 O 0.70913 0.60977 0.26169 0.0
O265 O 0.74719 0.65085 0.24913 0.0
O266 O 0.80054 0.61717 0.25155 0.0
O267 O 0.76269 0.57601 0.26417 0.0
H268 H 0.71029 0.57337 0.23899 0.0
H269 H 0.6709 0.54135 0.22165 0.0
H270 H 0.62461 0.60955 0.22395 0.0
H271 H 0.66449 0.64168 0.24114 0.0
H272 H 0.77861 0.76923 0.28436 0.0
H273 H 0.7836 0.72324 0.27287 0.0
H274 H 0.79448 0.72742 0.31839 0.0
H275 H 0.7995 0.68154 0.30687 0.0
H276 H 0.89791 0.60871 0.27261 0.0
H277 H 0.8323 0.50732 0.25463 0.0
H278 H 0.78662 0.52361 0.25081 0.0
H279 H 0.85199 0.62501 0.26858 0.0
C280 C 0.08515 0.68338 0.91002 0.0
C281 C 0.09159 0.69606 0.89783 0.0
C282 C 0.07292 0.63635 0.89009 0.0
C283 C 0.0855 0.6728 0.88799 0.0
C284 C 0.06662 0.62374 0.90229 0.0
C285 C 0.07249 0.64695 0.91212 0.0
U286 U 0.14263 0.76137 0.93202 0.0
O287 O 0.13278 0.80293 0.93948 0.0
O288 O 0.13726 0.76563 0.95202 0.0
C289 C 0.13004 0.7916 0.95087 0.0
C290 C 0.08982 0.70716 0.92057 0.0
C291 C 0.09896 0.78744 0.95784 0.0
C292 C 0.03487 0.76202 0.96049 0.0
C293 C 0.06387 0.76459 0.95383 0.0
C294 C 0.07581 0.80473 0.97529 0.0
C295 C 0.04051 0.78232 0.97126 0.0
C296 C 0.10467 0.80725 0.96864 0.0
C297 C 0.24559 0.81371 0.92765 0.0
C298 C 0.29404 0.87553 0.92687 0.0
C299 C 0.30561 0.82959 0.93429 0.0
C300 C 0.26973 0.80396 0.9324 0.0
C301 C 0.31841 0.86567 0.93137 0.0
C302 C 0.2581 0.84989 0.92501 0.0
C303 C 0.20864 0.78551 0.92452 0.0
O304 O 0.10549 0.70352 0.93039 0.0
O305 O 0.10023 0.74067 0.91801 0.0
O306 O 0.1873 0.79589 0.9198 0.0
O307 O 0.19248 0.7592 0.93244 0.0
H308 H 0.10122 0.72393 0.89584 0.0
H309 H 0.09102 0.68346 0.87872 0.0
H310 H 0.05655 0.59576 0.90422 0.0
H311 H 0.06683 0.63631 0.92139 0.0
H312 H 0.00811 0.74471 0.95706 0.0
H313 H 0.05896 0.74905 0.94549 0.0
H314 H 0.0812 0.82025 0.98364 0.0
H315 H 0.13157 0.82489 0.97191 0.0
H316 H 0.30294 0.90294 0.92436 0.0
H317 H 0.3234 0.82102 0.93795 0.0
H318 H 0.26101 0.77629 0.93444 0.0
H319 H 0.24039 0.85838 0.92122 0.0
C320 C 0.40454 0.08707 0.57633 0.0
C321 C 0.42855 0.11629 0.56919 0.0
C322 C 0.43917 0.07688 0.55597 0.0
C323 C 0.4457 0.11125 0.55909 0.0
C324 C 0.4152 0.04778 0.56324 0.0
C325 C 0.39806 0.05286 0.57331 0.0
U326 U 0.38492 0.14464 0.59838 0.0
O327 O 0.33359 0.13473 0.60594 0.0
O328 O 0.37533 0.13863 0.61841 0.0
C329 C 0.34189 0.1307 0.61724 0.0
C330 C 0.38582 0.09161 0.58688 0.0
C331 C 0.31513 0.09873 0.62402 0.0
C332 C 0.26138 0.04019 0.62463 0.0
C333 C 0.28733 0.06928 0.61792 0.0
C334 C 0.29102 0.06902 0.64361 0.0
C335 C 0.2627 0.03974 0.63758 0.0
C336 C 0.31681 0.09817 0.63691 0.0
C337 C 0.43522 0.24765 0.59418 0.0
C338 C 0.4224 0.29643 0.59287 0.0
C339 C 0.47879 0.30734 0.60126 0.0
C340 C 0.46855 0.27147 0.59939 0.0
C341 C 0.45608 0.32047 0.59785 0.0
C342 C 0.41212 0.26051 0.59103 0.0
C343 C 0.4266 0.21076 0.59101 0.0
O344 O 0.40566 0.10761 0.59656 0.0
O345 O 0.36332 0.1027 0.58422 0.0
O346 O 0.3949 0.18944 0.58628 0.0
O347 O 0.43685 0.19455 0.59888 0.0
H348 H 0.43397 0.14295 0.57142 0.0
H349 H 0.46434 0.13433 0.5538 0.0
H350 H 0.40918 0.02094 0.56103 0.0
H351 H 0.37953 0.02998 0.57872 0.0
H352 H 0.23982 0.01841 0.61965 0.0
H353 H 0.28532 0.06887 0.60798 0.0
H354 H 0.2934 0.06944 0.65354 0.0
H355 H 0.33802 0.1205 0.64182 0.0
H356 H 0.40437 0.30558 0.58997 0.0
H357 H 0.5047 0.32487 0.60528 0.0
H358 H 0.48711 0.26252 0.60181 0.0
H359 H 0.38641 0.24311 0.58685 0.0
C360 C 0.3206 0.40156 0.24452 0.0
C361 C 0.30784 0.41146 0.23424 0.0
C362 C 0.36673 0.4385 0.22467 0.0
C363 C 0.33065 0.42962 0.22438 0.0
C364 C 0.37944 0.42888 0.23507 0.0
C365 C 0.35655 0.41052 0.24487 0.0
U366 U 0.24176 0.37853 0.2662 0.0
O367 O 0.2007 0.3264 0.27334 0.0
O368 O 0.23706 0.3679 0.28614 0.0
C369 C 0.21181 0.33449 0.28478 0.0
C370 C 0.29694 0.38157 0.25489 0.0
C371 C 0.21723 0.3079 0.29143 0.0
C372 C 0.24534 0.27151 0.29349 0.0
C373 C 0.24109 0.29729 0.28709 0.0
C374 C 0.20223 0.26702 0.30865 0.0
C375 C 0.22591 0.25601 0.30435 0.0
C376 C 0.19796 0.29268 0.30225 0.0
C377 C 0.18831 0.42822 0.26203 0.0
C378 C 0.12687 0.41576 0.2602 0.0
C379 C 0.17158 0.47103 0.26945 0.0
C380 C 0.19734 0.46091 0.26765 0.0
C381 C 0.1361 0.44886 0.26558 0.0
C382 C 0.15265 0.40559 0.25842 0.0
C383 C 0.21687 0.41994 0.25893 0.0
O384 O 0.2999 0.40039 0.26477 0.0
O385 O 0.26363 0.35842 0.25208 0.0
O386 O 0.20697 0.38852 0.25405 0.0
O387 O 0.24302 0.43002 0.26692 0.0
H388 H 0.28024 0.40509 0.2338 0.0
H389 H 0.32015 0.43707 0.2166 0.0
H390 H 0.40696 0.43503 0.23554 0.0
H391 H 0.36692 0.40311 0.25271 0.0
H392 H 0.26409 0.26397 0.28998 0.0
H393 H 0.25632 0.30888 0.27876 0.0
H394 H 0.18646 0.25534 0.31687 0.0
H395 H 0.17935 0.30048 0.30571 0.0
H396 H 0.09997 0.39817 0.25695 0.0
H397 H 0.1796 0.49647 0.27379 0.0
H398 H 0.22461 0.47912 0.27043 0.0
H399 H 0.14475 0.38041 0.25391 0.0
C400 C 0.92418 0.31933 0.90972 0.0
C401 C 0.91611 0.30671 0.89754 0.0
C402 C 0.93616 0.36688 0.89 0.0
C403 C 0.92211 0.33023 0.8878 0.0
C404 C 0.94404 0.37944 0.90218 0.0
C405 C 0.9383 0.35595 0.91191 0.0
U406 U 0.86639 0.24078 0.93141 0.0
O407 O 0.87561 0.19844 0.9385 0.0
O408 O 0.87175 0.23546 0.95134 0.0
C409 C 0.8787 0.20937 0.94995 0.0
C410 C 0.91949 0.29519 0.92015 0.0
C411 C 0.91001 0.21321 0.95668 0.0
C412 C 0.97415 0.24284 0.96015 0.0
C413 C 0.94476 0.24029 0.95377 0.0
C414 C 0.93427 0.19142 0.97242 0.0
C415 C 0.96927 0.21824 0.96951 0.0
C416 C 0.905 0.18896 0.96607 0.0
C417 C 0.76392 0.18992 0.9268 0.0
C418 C 0.7211 0.13077 0.93441 0.0
C419 C 0.70021 0.16851 0.92566 0.0
C420 C 0.73553 0.19522 0.92358 0.0
C421 C 0.69246 0.13579 0.93101 0.0
C422 C 0.75653 0.15763 0.93236 0.0
C423 C 0.8007 0.21798 0.92383 0.0
O424 O 0.90395 0.29862 0.93005 0.0
O425 O 0.90883 0.26172 0.91743 0.0
O426 O 0.82167 0.20717 0.9191 0.0
O427 O 0.81678 0.24343 0.93204 0.0
H428 H 0.90525 0.27867 0.89549 0.0
H429 H 0.91534 0.31964 0.87854 0.0
H430 H 0.95523 0.40755 0.90417 0.0
H431 H 0.94515 0.3665 0.92117 0.0
H432 H 1.00071 0.26361 0.95759 0.0
H433 H 0.94913 0.25923 0.94652 0.0
H434 H 0.92943 0.1724 0.97969 0.0
H435 H 0.87836 0.16796 0.96847 0.0
H436 H 0.71612 0.10608 0.93868 0.0
H437 H 0.67893 0.17319 0.92277 0.0
H438 H 0.74068 0.2199 0.91925 0.0
H439 H 0.77809 0.15305 0.93497 0.0
C440 C 0.61287 0.92829 0.57658 0.0
C441 C 0.58351 0.89933 0.57094 0.0
C442 C 0.57675 0.93984 0.557 0.0
C443 C 0.56557 0.90505 0.56125 0.0
C444 C 0.60635 0.9687 0.56267 0.0
C445 C 0.62418 0.96294 0.57237 0.0
U446 U 0.63152 0.86828 0.59762 0.0
O447 O 0.6827 0.87638 0.60473 0.0
O448 O 0.64169 0.87226 0.61758 0.0
C449 C 0.67466 0.87892 0.61622 0.0
C450 C 0.63193 0.92289 0.58684 0.0
C451 C 0.70209 0.90966 0.62317 0.0
C452 C 0.7394 0.97362 0.62637 0.0
C453 C 0.71283 0.94484 0.61969 0.0
C454 C 0.74444 0.93226 0.6401 0.0
C455 C 0.75571 0.96768 0.63663 0.0
C456 C 0.71795 0.9036 0.63343 0.0
C457 C 0.57881 0.76626 0.59256 0.0
C458 C 0.59406 0.72301 0.60057 0.0
C459 C 0.53667 0.70269 0.59086 0.0
C460 C 0.54559 0.73811 0.58882 0.0
C461 C 0.56086 0.69461 0.59667 0.0
C462 C 0.60292 0.75853 0.59856 0.0
C463 C 0.58794 0.80321 0.5897 0.0
O464 O 0.61252 0.90684 0.5966 0.0
O465 O 0.65363 0.91115 0.58376 0.0
O466 O 0.61988 0.82395 0.58506 0.0
O467 O 0.57878 0.81929 0.59799 0.0
H468 H 0.57449 0.87233 0.57403 0.0
H469 H 0.5432 0.88217 0.55699 0.0
H470 H 0.61544 0.99582 0.55974 0.0
H471 H 0.64678 0.98563 0.57663 0.0
H472 H 0.7476 1.00049 0.62337 0.0
H473 H 0.70084 0.95001 0.61178 0.0
H474 H 0.7559 0.92661 0.64805 0.0
H475 H 0.70986 0.87662 0.63628 0.0
H476 H 0.61316 0.7178 0.6052 0.0
H477 H 0.51111 0.6816 0.58758 0.0
H478 H 0.52666 0.74351 0.58414 0.0
H479 H 0.62868 0.77991 0.60157 0.0
C480 C 0.46244 0.37258 0.13923 0.0
C481 C 0.45718 0.38733 0.12844 0.0
C482 C 0.47992 0.39415 0.14938 0.0
C483 C 0.54255 0.48773 0.15815 0.0
H484 H 0.51127 0.45164 0.19118 0.0
C485 C 0.61294 0.57116 0.20167 0.0
C486 C 0.62002 0.55298 0.21101 0.0
C487 C 0.59044 0.55247 0.19181 0.0
C488 C 0.52048 0.46203 0.18202 0.0
H489 H 0.46649 0.43657 0.11991 0.0
H490 H 0.49664 0.47415 0.13768 0.0
H491 H 0.47704 0.41629 0.17354 0.0
H492 H 0.60806 0.5007 0.21741 0.0
H493 H 0.56946 0.46826 0.20015 0.0
H494 H 0.58612 0.5334 0.16666 0.0
C495 C 0.48737 0.44587 0.13826 0.0
C496 C 0.5009 0.44173 0.17189 0.0
C497 C 0.46978 0.42425 0.1281 0.0
C498 C 0.60361 0.51562 0.21032 0.0
C499 C 0.58107 0.49696 0.20049 0.0
C500 C 0.56209 0.5081 0.16829 0.0
C501 C 0.49266 0.43109 0.14904 0.0
C502 C 0.51204 0.45398 0.15982 0.0
C503 C 0.57436 0.51514 0.19107 0.0
C504 C 0.5517 0.49515 0.18034 0.0
H505 H 0.45275 0.34423 0.13988 0.0
H506 H 0.48394 0.38188 0.15745 0.0
H507 H 0.55206 0.49797 0.149 0.0
H508 H 0.62529 0.59995 0.20187 0.0
H509 H 0.5856 0.56726 0.18476 0.0
C510 C 0.04892 0.46771 0.79554 0.0
C511 C 0.06704 0.44848 0.79689 0.0
C512 C 0.04409 0.485 0.80563 0.0
C513 C 0.0465 0.48848 0.83986 0.0
H514 H 0.06607 0.58534 0.83501 0.0
C515 C 0.07768 0.58617 0.88034 0.0
C516 C 0.06667 0.61167 0.87962 0.0
C517 C 0.07299 0.56382 0.87036 0.0
C518 C 0.05993 0.55813 0.83654 0.0
H519 H 0.09336 0.43157 0.81003 0.0
H520 H 0.08545 0.4621 0.82755 0.0
H521 H 0.06579 0.55051 0.81741 0.0
H522 H 0.04076 0.63264 0.86797 0.0
H523 H 0.03215 0.5934 0.8506 0.0
H524 H 0.04093 0.49621 0.85902 0.0
C525 C 0.07469 0.46362 0.81871 0.0
C526 C 0.05977 0.53811 0.82641 0.0
C527 C 0.07967 0.44649 0.80862 0.0
C528 C 0.05012 0.61372 0.86875 0.0
C529 C 0.0452 0.59121 0.85879 0.0
C530 C 0.04663 0.50849 0.85 0.0
C531 C 0.05707 0.48332 0.81734 0.0
C532 C 0.05377 0.50328 0.82797 0.0
C533 C 0.05696 0.56623 0.85939 0.0
C534 C 0.05399 0.54384 0.84851 0.0
H535 H 0.03906 0.47002 0.78663 0.0
H536 H 0.03028 0.49978 0.80424 0.0
H537 H 0.04089 0.46143 0.84137 0.0
H538 H 0.09086 0.58414 0.88852 0.0
H539 H 0.08292 0.54537 0.87113 0.0
C540 C 0.60335 0.09012 0.4634 0.0
C541 C 0.62109 0.07039 0.46284 0.0
C542 C 0.58026 0.08538 0.47315 0.0
C543 C 0.56184 0.05542 0.50538 0.0
H544 H 0.47485 0.05858 0.49997 0.0
C545 C 0.46987 0.04726 0.54563 0.0
C546 C 0.45699 0.07136 0.54511 0.0
C547 C 0.48688 0.04242 0.53545 0.0
C548 C 0.4992 0.05793 0.50165 0.0
H549 H 0.6282 0.02999 0.47212 0.0
H550 H 0.58764 0.02154 0.48909 0.0
H551 H 0.50995 0.0587 0.48239 0.0
H552 H 0.45125 0.1086 0.53332 0.0
H553 H 0.48145 0.10076 0.51571 0.0
H554 H 0.55151 0.05535 0.52465 0.0
C555 C 0.5918 0.04084 0.48201 0.0
C556 C 0.5193 0.05795 0.49157 0.0
C557 C 0.61481 0.04548 0.47222 0.0
C558 C 0.46121 0.09017 0.53411 0.0
C559 C 0.4781 0.08526 0.52394 0.0
C560 C 0.54179 0.05551 0.51548 0.0
C561 C 0.57437 0.06087 0.48262 0.0
C562 C 0.55125 0.05743 0.49331 0.0
C563 C 0.49127 0.06142 0.52448 0.0
C564 C 0.51064 0.0576 0.51375 0.0
H565 H 0.60717 0.10918 0.45627 0.0
H566 H 0.56759 0.10155 0.4734 0.0
H567 H 0.58639 0.05516 0.50707 0.0
H568 H 0.46735 0.03253 0.55399 0.0
H569 H 0.49654 0.02373 0.53619 0.0
C570 C 0.42592 0.48598 0.21631 0.0
C571 C 0.39102 0.45778 0.21419 0.0
C572 C 0.44843 0.50463 0.20646 0.0
C573 C 0.46181 0.49948 0.17299 0.0
H574 H 0.51258 0.60273 0.1748 0.0
C575 C 0.52509 0.58831 0.13008 0.0
C576 C 0.55613 0.62168 0.13155 0.0
C577 C 0.50748 0.56714 0.14032 0.0
C578 C 0.49922 0.57393 0.17418 0.0
H579 H 0.35288 0.42643 0.2 0.0
H580 H 0.39204 0.45918 0.18282 0.0
H581 H 0.47784 0.56785 0.19235 0.0
H582 H 0.5939 0.65828 0.1449 0.0
H583 H 0.56379 0.62116 0.16273 0.0
H584 H 0.48292 0.50552 0.15479 0.0
C585 C 0.40204 0.46678 0.19211 0.0
C586 C 0.47918 0.5539 0.18428 0.0
C587 C 0.37944 0.44828 0.20196 0.0
C588 C 0.56967 0.63299 0.14348 0.0
C589 C 0.5523 0.61168 0.15371 0.0
C590 C 0.48203 0.51953 0.16291 0.0
C591 C 0.43669 0.4954 0.19424 0.0
C592 C 0.45988 0.51645 0.18376 0.0
C593 C 0.52065 0.57866 0.15231 0.0
C594 C 0.50074 0.55707 0.1633 0.0
H595 H 0.43562 0.49412 0.22561 0.0
H596 H 0.47507 0.52634 0.20842 0.0
H597 H 0.44765 0.47065 0.17236 0.0
H598 H 0.51383 0.57896 0.12102 0.0
H599 H 0.48295 0.5422 0.13884 0.0
C600 C 0.95759 0.53597 0.7959 0.0
C601 C 0.94072 0.55635 0.7974 0.0
C602 C 0.96213 0.51831 0.80593 0.0
C603 C 0.96153 0.51542 0.84016 0.0
H604 H 0.93961 0.41785 0.83521 0.0
C605 C 0.93221 0.41798 0.88065 0.0
C606 C 0.94226 0.39181 0.87962 0.0
C607 C 0.93652 0.4404 0.87073 0.0
C608 C 0.94643 0.44525 0.83676 0.0
H609 H 0.91624 0.5748 0.81073 0.0
H610 H 0.92361 0.54357 0.82815 0.0
H611 H 0.93939 0.45276 0.81773 0.0
H612 H 0.96619 0.36977 0.86752 0.0
H613 H 0.97428 0.40924 0.85027 0.0
H614 H 0.9683 0.50779 0.85923 0.0
C615 C 0.93364 0.54147 0.81924 0.0
C616 C 0.94629 0.46532 0.8267 0.0
C617 C 0.92896 0.559 0.80921 0.0
C618 C 0.95758 0.38923 0.86853 0.0
C619 C 0.96217 0.41185 0.85864 0.0
C620 C 0.9617 0.49535 0.85024 0.0
C621 C 0.95008 0.5207 0.81772 0.0
C622 C 0.95321 0.50046 0.8283 0.0
C623 C 0.95123 0.43743 0.85953 0.0
C624 C 0.95361 0.45978 0.84871 0.0
H625 H 0.96673 0.5331 0.78692 0.0
H626 H 0.97505 0.50272 0.80442 0.0
H627 H 0.96782 0.54268 0.84169 0.0
H628 H 0.92002 0.42044 0.88902 0.0
H629 H 0.92727 0.45935 0.87173 0.0
C630 C 0.52008 0.92645 0.54607 0.0
C631 C 0.55756 0.94596 0.54672 0.0
C632 C 0.50202 0.93158 0.53631 0.0
C633 C 0.5144 0.9621 0.50414 0.0
H634 H 0.42397 0.95853 0.50934 0.0
C635 C 0.43058 0.96911 0.46365 0.0
C636 C 0.39366 0.94468 0.46415 0.0
C637 C 0.45243 0.97439 0.47387 0.0
C638 C 0.44906 0.95932 0.50771 0.0
H639 H 0.60538 0.98647 0.53761 0.0
H640 H 0.57378 0.9956 0.52061 0.0
H641 H 0.45872 0.95851 0.527 0.0
H642 H 0.35076 0.90738 0.47596 0.0
H643 H 0.38877 0.91597 0.49364 0.0
H644 H 0.50442 0.96215 0.48485 0.0
C645 C 0.55841 0.97616 0.52764 0.0
C646 C 0.46901 0.95936 0.51785 0.0
C647 C 0.57649 0.97113 0.53744 0.0
C648 C 0.37911 0.92604 0.47518 0.0
C649 C 0.40089 0.93139 0.4854 0.0
C650 C 0.49438 0.96196 0.49399 0.0
C651 C 0.52094 0.95627 0.52692 0.0
C652 C 0.50155 0.95996 0.51619 0.0
C653 C 0.43786 0.95551 0.48488 0.0
C654 C 0.46103 0.95968 0.49565 0.0
H655 H 0.50461 0.9072 0.55313 0.0
H656 H 0.47318 0.91551 0.53598 0.0
H657 H 0.53927 0.96244 0.50252 0.0
H658 H 0.44276 0.98373 0.45527 0.0
H659 H 0.48074 0.99329 0.47315 0.0
C660 C 0.43659 0.07386 0.07806 0.0
C661 C 0.46184 0.10956 0.07537 0.0
C662 C 0.44587 0.0472 0.07744 0.0
C663 C 0.51329 0.02649 0.06475 0.0
H664 H 0.48115 0.95718 0.09121 0.0
C665 C 0.56998 0.93146 0.0723 0.0
C666 C 0.54626 0.89641 0.07624 0.0
C667 C 0.55891 0.9568 0.07156 0.0
C668 C 0.48998 0.97598 0.08364 0.0
H669 H 0.51637 0.14486 0.06947 0.0
H670 H 0.53268 0.0985 0.06855 0.0
H671 H 0.4629 1.00204 0.09087 0.0
H672 H 0.49213 0.86077 0.08249 0.0
H673 H 0.47268 0.90453 0.0809 0.0
H674 H 0.5405 1.00046 0.05755 0.0
C675 C 0.50561 0.09106 0.07109 0.0
C676 C 0.47948 1.00176 0.08345 0.0
C677 C 0.49636 0.11773 0.07174 0.0
C678 C 0.51107 0.88732 0.07927 0.0
C679 C 0.50001 0.91262 0.07852 0.0
C680 C 0.52374 1.00064 0.06492 0.0
C681 C 0.48062 0.0555 0.07407 0.0
C682 C 0.49107 0.02744 0.07403 0.0
C683 C 0.52384 0.9478 0.07475 0.0
C684 C 0.51231 0.97507 0.0744 0.0
H685 H 0.40985 0.06662 0.08098 0.0
H686 H 0.42581 0.02004 0.07965 0.0
H687 H 0.52234 0.04555 0.05726 0.0
H688 H 0.59716 0.93936 0.06976 0.0
H689 H 0.57812 0.98369 0.06872 0.0
C690 C 0.3813 0.49393 0.73991 0.0
C691 C 0.35515 0.45916 0.74333 0.0
C692 C 0.41731 0.50344 0.73911 0.0
C693 C 0.48114 0.47704 0.75071 0.0
H694 H 0.54293 0.5401 0.72511 0.0
C695 C 0.62764 0.51013 0.74589 0.0
C696 C 0.65349 0.5456 0.74312 0.0
C697 C 0.59118 0.49882 0.74525 0.0
C698 C 0.52615 0.52276 0.7324 0.0
H699 H 0.34656 0.40701 0.74843 0.0
H700 H 0.40923 0.42341 0.74685 0.0
H701 H 0.47954 0.52154 0.72506 0.0
H702 H 0.66085 0.59671 0.7372 0.0
H703 H 0.59733 0.57721 0.73635 0.0
H704 H 0.52767 0.47851 0.75814 0.0
C705 C 0.40192 0.44348 0.74492 0.0
C706 C 0.48975 0.51208 0.73236 0.0
C707 C 0.36588 0.43394 0.74568 0.0
C708 C 0.64178 0.56932 0.73954 0.0
C709 C 0.60528 0.558 0.73891 0.0
C710 C 0.5175 0.48776 0.75076 0.0
C711 C 0.42816 0.47846 0.74174 0.0
C712 C 0.46677 0.48913 0.74154 0.0
C713 C 0.57947 0.52265 0.74185 0.0
C714 C 0.54055 0.51083 0.74163 0.0
H715 H 0.37397 0.51395 0.7379 0.0
H716 H 0.43675 0.53068 0.73673 0.0
H717 H 0.46443 0.45988 0.75805 0.0
H718 H 0.63553 0.49116 0.74883 0.0
H719 H 0.57215 0.4713 0.74743 0.0
C720 C 0.12357 0.62961 0.40692 0.0
C721 C 0.11524 0.65583 0.41054 0.0
C722 C 0.09691 0.5937 0.40612 0.0
C723 C 0.00699 0.53008 0.41802 0.0
H724 H 0.00673 0.46868 0.39199 0.0
C725 C 0.89255 0.38422 0.41315 0.0
C726 C 0.90171 0.35822 0.41005 0.0
C727 C 0.91792 0.42059 0.41257 0.0
C728 C 0.0066 0.48534 0.3994 0.0
H729 H 0.07202 0.66462 0.41601 0.0
H730 H 0.02548 0.60213 0.41444 0.0
H731 H 0.05191 0.53188 0.39202 0.0
H732 H 0.94488 0.35054 0.40362 0.0
H733 H 0.9893 0.41388 0.40288 0.0
H734 H 0.96203 0.48362 0.42551 0.0
C735 C 0.05275 0.60931 0.41234 0.0
C736 C 0.03252 0.52164 0.39941 0.0
C737 C 0.0794 0.64525 0.4131 0.0
C738 C 0.9369 0.36971 0.40621 0.0
C739 C 0.96232 0.40612 0.40565 0.0
C740 C 0.98115 0.49382 0.41804 0.0
C741 C 0.0612 0.583 0.40896 0.0
C742 C 0.0331 0.54449 0.40873 0.0
C743 C 0.95325 0.43208 0.40891 0.0
C744 C 0.9806 0.47089 0.40874 0.0
H745 H 0.1508 0.63681 0.40475 0.0
H746 H 0.10448 0.57419 0.40357 0.0
H747 H 0.00696 0.54669 0.42547 0.0
H748 H 0.86589 0.37651 0.4163 0.0
H749 H 0.90976 0.43973 0.415 0.0
C750 C 0.93344 0.57251 0.26372 0.0
C751 C 0.89731 0.54714 0.26573 0.0
C752 C 0.95987 0.56291 0.26459 0.0
C753 C 0.97811 0.4933 0.27682 0.0
H754 H 0.05159 0.52898 0.2517 0.0
C755 C 0.07353 0.43675 0.26975 0.0
C756 C 0.10928 0.46089 0.26664 0.0
C757 C 0.04823 0.44794 0.2703 0.0
C758 C 0.03159 0.51912 0.25889 0.0
H759 H 0.86097 0.49202 0.2707 0.0
H760 H 0.9069 0.47519 0.27203 0.0
H761 H 0.00698 0.5476 0.25166 0.0
H762 H 0.14622 0.51587 0.26165 0.0
H763 H 0.10247 0.53547 0.26288 0.0
H764 H 1.00268 0.46464 0.284 0.0
C765 C 0.91488 0.50259 0.26984 0.0
C766 C 1.00596 0.52984 0.25888 0.0
C767 C 0.88845 0.51215 0.26894 0.0
C768 C 0.11909 0.49658 0.26422 0.0
C769 C 0.09383 0.50775 0.26477 0.0
C770 C 1.0038 0.48259 0.27685 0.0
C771 C 0.9509 0.52772 0.26753 0.0
C772 C 0.9788 0.51701 0.26781 0.0
C773 C 0.05799 0.48355 0.26772 0.0
C774 C 0.03085 0.49529 0.26786 0.0
H775 H 0.94126 0.59961 0.26114 0.0
H776 H 0.98738 0.5831 0.26292 0.0
H777 H 0.95789 0.48324 0.28394 0.0
H778 H 0.06505 0.40915 0.27179 0.0
H779 H 0.02084 0.42846 0.2725 0.0
C780 C 0.64426 0.07119 0.92984 0.0
C781 C 0.65463 0.10681 0.93262 0.0
C782 C 0.60837 0.04437 0.93056 0.0
C783 C 0.52046 0.02303 0.94368 0.0
H784 H 0.48276 0.95401 0.91714 0.0
C785 C 0.36854 0.92753 0.93657 0.0
C786 C 0.35722 0.89256 0.93254 0.0
C787 C 0.40495 0.95299 0.93721 0.0
C788 C 0.49288 0.97271 0.92473 0.0
H789 H 0.63531 0.14179 0.9388 0.0
H790 H 0.57276 0.09517 0.93991 0.0
H791 H 0.54583 0.99907 0.91732 0.0
H792 H 0.37574 0.8572 0.92603 0.0
H793 H 0.43896 0.90115 0.92745 0.0
H794 H 0.4674 0.99671 0.95106 0.0
C795 C 0.5924 0.0879 0.93721 0.0
C796 C 0.52913 0.99862 0.92483 0.0
C797 C 0.62826 0.11473 0.93645 0.0
C798 C 0.38334 0.88368 0.92932 0.0
C799 C 0.4197 0.90909 0.92997 0.0
C800 C 0.48416 0.99705 0.94359 0.0
C801 C 0.5819 0.05243 0.93413 0.0
C802 C 0.54341 0.02421 0.93428 0.0
C803 C 0.43104 0.94419 0.93384 0.0
C804 C 0.46984 0.97158 0.9341 0.0
H805 H 0.66375 0.06413 0.92677 0.0
H806 H 0.60133 0.01728 0.92828 0.0
H807 H 0.53061 0.04201 0.95119 0.0
H808 H 0.34926 0.93528 0.93925 0.0
H809 H 0.41261 0.9798 0.94013 0.0
C810 C 0.51693 0.63032 0.60163 0.0
C811 C 0.55171 0.65671 0.5983 0.0
C812 C 0.50776 0.59445 0.60248 0.0
C813 C 0.53539 0.53128 0.59118 0.0
H814 H 0.47208 0.46938 0.61671 0.0
C815 C 0.5035 0.38531 0.59625 0.0
C816 C 0.46805 0.35928 0.59899 0.0
C817 C 0.51451 0.42168 0.59683 0.0
C818 C 0.48949 0.48618 0.60943 0.0
H819 H 0.60424 0.66584 0.59339 0.0
H820 H 0.58842 0.60341 0.59504 0.0
H821 H 0.49 0.53254 0.61664 0.0
H822 H 0.41665 0.35152 0.60479 0.0
H823 H 0.4356 0.41485 0.60554 0.0
H824 H 0.53461 0.48499 0.58388 0.0
C825 C 0.56809 0.61043 0.59688 0.0
C826 C 0.49981 0.52246 0.6094 0.0
C827 C 0.57728 0.64633 0.59607 0.0
C828 C 0.44404 0.37072 0.60248 0.0
C829 C 0.45505 0.40713 0.60305 0.0
C830 C 0.52503 0.49504 0.59119 0.0
C831 C 0.53311 0.58395 0.59998 0.0
C832 C 0.52283 0.54548 0.60025 0.0
C833 C 0.49038 0.43312 0.60014 0.0
C834 C 0.50186 0.47193 0.6003 0.0
H835 H 0.49664 0.63736 0.60356 0.0
H836 H 0.48052 0.57482 0.6048 0.0
H837 H 0.55263 0.54803 0.58386 0.0
H838 H 0.5227 0.37763 0.59338 0.0
H839 H 0.54203 0.44085 0.59468 0.0
C840 C 1.00096 0.18862 0.97895 0.0
C841 C 1.0004 0.22005 0.97611 0.0
C842 C 0.02977 0.19 0.98529 0.0
C843 C 0.10529 0.24741 0.00582 0.0
H844 H 0.13927 0.18311 0.99644 0.0
C845 C 0.2306 0.25294 0.02788 0.0
C846 C 0.22864 0.22011 0.03038 0.0
C847 C 0.20359 0.25425 0.02116 0.0
C848 C 0.1299 0.20101 0.99928 0.0
H849 H 0.02993 0.27768 0.9778 0.0
H850 H 0.08053 0.28013 0.98873 0.0
H851 H 0.0912 0.18319 0.98481 0.0
H852 H 0.19594 0.16281 0.0281 0.0
H853 H 0.14908 0.16509 0.01644 0.0
H854 H 0.14398 0.26508 0.02035 0.0
C855 C 0.05843 0.25435 0.98613 0.0
C856 C 0.10229 0.20106 0.99259 0.0
C857 C 0.02959 0.25297 0.97974 0.0
C858 C 0.19876 0.18863 0.02613 0.0
C859 C 0.17184 0.18994 0.01943 0.0
C860 C 0.13296 0.24735 0.01253 0.0
C861 C 0.05888 0.22286 0.98898 0.0
C862 C 0.08937 0.22401 0.99583 0.0
C863 C 0.17397 0.22276 0.01677 0.0
C864 C 0.1454 0.2239 0.00941 0.0
H865 H 0.97919 0.16282 0.97618 0.0
H866 H 0.02896 0.16518 0.98744 0.0
H867 H 0.09577 0.26517 0.00867 0.0
H868 H 0.25338 0.27774 0.03089 0.0
H869 H 0.20631 0.28002 0.01919 0.0
C870 C 0.78253 0.0289 0.64622 0.0
C871 C 0.78455 0.99808 0.64366 0.0
C872 C 0.80932 0.05695 0.65308 0.0
C873 C 0.88232 0.07665 0.67521 0.0
H874 H 0.91678 0.17516 0.66607 0.0
C875 C 0.01057 0.19255 0.69614 0.0
C876 C 0.01104 0.22448 0.699 0.0
C877 C 0.98197 0.1653 0.68968 0.0
C878 C 0.90715 0.14781 0.66885 0.0
H879 H 0.81713 0.97333 0.64599 0.0
H880 H 0.86361 0.02201 0.65789 0.0
H881 H 0.86893 0.12724 0.65418 0.0
H882 H 0.98156 0.25265 0.69722 0.0
H883 H 0.93134 0.20482 0.68608 0.0
H884 H 0.92055 0.0971 0.68983 0.0
C885 C 0.84097 0.02426 0.65484 0.0
C886 C 0.8797 0.12031 0.66202 0.0
C887 C 0.81427 0.99628 0.64799 0.0
C888 C 0.98197 0.22832 0.69527 0.0
C889 C 0.95334 0.20104 0.68876 0.0
C890 C 0.90971 0.1041 0.68202 0.0
C891 C 0.83879 0.05489 0.65755 0.0
C892 C 0.86715 0.08435 0.66504 0.0
C893 C 0.95299 0.16916 0.68588 0.0
C894 C 0.92274 0.14005 0.67888 0.0
H895 H 0.75986 0.03106 0.64316 0.0
H896 H 0.80656 0.07996 0.6551 0.0
H897 H 0.87285 0.04932 0.67797 0.0
H898 H 0.03225 0.18844 0.69898 0.0
H899 H 0.98286 0.14133 0.68751 0.0
C900 C 0.76534 0.99469 0.35465 0.0
C901 C 0.78609 0.00709 0.36541 0.0
C902 C 0.76376 0.96634 0.34792 0.0
C903 C 0.78261 0.89132 0.35022 0.0
H904 H 0.77984 0.89412 0.3146 0.0
C905 C 0.76484 0.77276 0.32038 0.0
C906 C 0.78421 0.78061 0.30931 0.0
C907 C 0.7637 0.79974 0.32712 0.0
C908 C 0.78092 0.89299 0.32454 0.0
H909 H 0.82174 0.99953 0.37744 0.0
H910 H 0.8195 0.95057 0.36564 0.0
H911 H 0.78133 0.94235 0.32656 0.0
H912 H 0.81786 0.82316 0.29674 0.0
H913 H 0.8164 0.87027 0.30855 0.0
H914 H 0.78354 0.84262 0.34819 0.0
C915 C 0.80373 0.96214 0.36253 0.0
C916 C 0.78125 0.92049 0.33142 0.0
C917 C 0.80509 0.99031 0.3693 0.0
C918 C 0.80227 0.8161 0.30513 0.0
C919 C 0.80136 0.84314 0.31191 0.0
C920 C 0.78248 0.86391 0.34333 0.0
C921 C 0.78311 0.94979 0.35172 0.0
C922 C 0.78218 0.92011 0.34437 0.0
C923 C 0.78214 0.83538 0.32303 0.0
C924 C 0.78171 0.86437 0.33038 0.0
H925 H 0.74999 0.00669 0.35149 0.0
H926 H 0.74706 0.95721 0.3398 0.0
H927 H 0.78286 0.88976 0.36017 0.0
H928 H 0.75022 0.74562 0.32377 0.0
H929 H 0.74806 0.79254 0.3355 0.0
C930 C 0.81656 0.81335 0.03083 0.0
C931 C 0.78352 0.78242 0.03304 0.0
C932 C 0.8437 0.81151 0.02447 0.0
C933 C 0.85993 0.75534 1.00273 0.0
H934 H 0.95816 0.81442 0.01326 0.0
C935 C 0.97814 0.74815 0.98004 0.0
C936 C 0.00997 0.7807 0.97822 0.0
C937 C 0.94996 0.74682 0.98686 0.0
C938 C 0.93092 0.798 0.01011 0.0
H939 H 0.75329 0.72518 0.03024 0.0
H940 H 0.80092 0.72189 0.01926 0.0
H941 H 0.91036 0.81466 0.02503 0.0
H942 H 0.03643 0.83758 0.98181 0.0
H943 H 0.98756 0.83528 0.99363 0.0
H944 H 0.88064 0.73888 0.98775 0.0
C945 C 0.80565 0.74766 0.02238 0.0
C946 C 0.90347 0.79813 0.01687 0.0
C947 C 0.77847 0.74949 0.02879 0.0
C948 C 0.01267 0.81192 0.98324 0.0
C949 C 0.98458 0.8106 0.99004 0.0
C950 C 0.88745 0.75522 0.99595 0.0
C951 C 0.83863 0.77868 0.02013 0.0
C952 C 0.86763 0.7771 0.01321 0.0
C953 C 0.95293 0.77803 0.99202 0.0
C954 C 0.92335 0.77686 0.99948 0.0
H955 H 0.82158 0.8391 0.03409 0.0
H956 H 0.86856 0.836 0.0228 0.0
H957 H 0.83269 0.7391 0.99956 0.0
H958 H 0.97525 0.72353 0.97643 0.0
H959 H 0.92613 0.72122 0.9883 0.0
C960 C 0.22211 0.0153 0.65604 0.0
C961 C 0.23436 0.00929 0.64478 0.0
C962 C 0.19529 0.98692 0.66273 0.0
C963 C 0.12032 0.89503 0.65929 0.0
H964 H 0.12802 0.89103 0.69473 0.0
C965 C 0.01641 0.77443 0.68767 0.0
C966 C 1.00646 0.7814 0.69921 0.0
C967 C 0.04512 0.80146 0.68114 0.0
C968 C 0.12516 0.89191 0.68486 0.0
H969 H 0.22803 0.96818 0.6319 0.0
H970 H 0.18086 0.91882 0.64349 0.0
H971 H 0.17607 0.93954 0.68316 0.0
H972 H 0.01882 0.82243 0.71287 0.0
H973 H 0.06845 0.86966 0.70145 0.0
H974 H 0.06918 0.84787 0.66096 0.0
C975 C 0.19193 0.94565 0.64708 0.0
C976 C 0.15281 0.91973 0.67822 0.0
C977 C 0.21895 0.97401 0.64041 0.0
C978 C 0.02609 0.81602 0.70409 0.0
C979 C 0.05464 0.84312 0.69753 0.0
C980 C 0.09255 0.86735 0.66593 0.0
C981 C 0.17976 0.95176 0.65832 0.0
C982 C 0.15069 0.9217 0.66535 0.0
C983 C 0.06451 0.83628 0.68594 0.0
C984 C 0.09451 0.86543 0.67882 0.0
H985 H 0.23274 0.04208 0.6596 0.0
H986 H 0.18618 0.99264 0.67126 0.0
H987 H 0.11761 0.89601 0.6494 0.0
H988 H 1.00217 0.74793 0.68372 0.0
H989 H 0.05227 0.79492 0.67237 0.0
C990 C 0.23306 0.02946 0.37088 0.0
C991 C 0.23218 1.0004 0.36476 0.0
C992 C 0.23462 0.05794 0.36423 0.0
C993 C 0.21561 0.08093 0.33333 0.0
H994 H 0.27207 0.17825 0.34499 0.0
C995 C 0.23213 0.20111 0.30472 0.0
C996 C 0.22983 0.22814 0.31112 0.0
C997 C 0.23432 0.17414 0.3111 0.0
C998 C 0.2559 0.15119 0.34166 0.0
H999 H 0.2335 0.97923 0.3468 0.0
H1000 H 0.23634 0.02883 0.33522 0.0
H1001 H 0.27248 0.12991 0.35641 0.0
H1002 H 0.2291 0.24843 0.32931 0.0
H1003 H 0.23234 0.2012 0.34041 0.0
H1004 H 0.1989 0.10216 0.31862 0.0
C1005 C 0.23509 0.02931 0.34517 0.0
C1006 C 0.25612 0.12344 0.34822 0.0
C1007 C 0.23348 1.00084 0.35182 0.0
C1008 C 0.23039 0.22782 0.32407 0.0
C1009 C 0.23267 0.20093 0.33044 0.0
C1010 C 0.21543 0.10867 0.32677 0.0
C1011 C 0.2354 0.05814 0.35128 0.0
C1012 C 0.23586 0.0879 0.34417 0.0
C1013 C 0.23439 0.17356 0.32405 0.0
C1014 C 0.23545 0.14417 0.33087 0.0
H1015 H 0.23161 0.02982 0.38083 0.0
H1016 H 0.23432 0.07939 0.36925 0.0
H1017 H 0.19921 0.05387 0.33003 0.0
H1018 H 0.23148 0.20033 0.29475 0.0
H1019 H 0.23601 0.15375 0.30587 0.0
loop_
_geom_bond_atom_site_label_1
_geom_bond_atom_site_label_2
_geom_bond_distance
_geom_bond_site_symmetry_2
_ccdc_geom_bond_type
C0 C1 1.264 . S
C0 C5 1.479 . S
C0 C10 1.465 . S
C1 C0 1.264 . S
C1 C3 1.339 . S
C1 H28 0.931 . S
C2 C3 1.395 . S
C2 C4 1.320 . S
C3 C1 1.339 . S
C3 C2 1.395 . S
C3 H29 0.929 . S
C4 C2 1.320 . S
C4 C5 1.405 . S
C4 H30 0.930 . S
C5 C0 1.479 . S
C5 C4 1.405 . S
C5 H31 0.931 . S
U6 O7 2.454 . S
U6 O8 2.458 . S
U6 C9 2.984 . S
U6 C10 2.847 . S
U6 C23 2.882 . S
U6 O24 2.441 . S
U6 O25 2.420 . S
U6 O26 2.455 . S
U6 O27 2.449 . S
O7 U6 2.454 . S
O7 C9 1.353 . S
O8 U6 2.458 . S
O8 C9 1.286 . S
C9 U6 2.984 . S
C9 O7 1.353 . S
C9 O8 1.286 . S
C9 C11 1.363 . S
C10 C0 1.465 . S
C10 U6 2.847 . S
C10 O24 1.249 . S
C10 O25 1.202 . S
C11 C9 1.363 . S
C11 C13 1.408 . S
C11 C16 1.342 . S
C12 C13 1.310 . S
C12 C15 1.461 . S
C12 H32 0.932 . S
C13 C11 1.408 . S
C13 C12 1.310 . S
C13 H33 0.930 . S
C14 C15 1.474 . S
C14 C16 1.285 . S
C14 H34 0.929 . S
C15 C12 1.461 . S
C15 C14 1.474 . S
C16 C11 1.342 . S
C16 C14 1.285 . S
C16 H35 0.930 . S
C17 C20 1.424 . S
C17 C22 1.245 . S
C17 C23 1.428 . S
C18 C21 1.260 . S
C18 C22 1.477 . S
C18 H36 0.932 . S
C19 C20 1.384 . S
C19 C21 1.479 . S
C19 H37 0.929 . S
C20 C17 1.424 . S
C20 C19 1.384 . S
C20 H38 0.928 . S
C21 C18 1.260 . S
C21 C19 1.479 . S
C22 C17 1.245 . S
C22 C18 1.477 . S
C22 H39 0.932 . S
C23 U6 2.882 . S
C23 C17 1.428 . S
C23 O26 1.301 . S
C23 O27 1.282 . S
O24 U6 2.441 . S
O24 C10 1.249 . S
O25 U6 2.420 . S
O25 C10 1.202 . S
O26 U6 2.455 . S
O26 C23 1.301 . S
O27 U6 2.449 . S
O27 C23 1.282 . S
H28 C1 0.931 . S
H29 C3 0.929 . S
H30 C4 0.930 . S
H31 C5 0.931 . S
H32 C12 0.932 . S
H33 C13 0.930 . S
H34 C14 0.929 . S
H35 C16 0.930 . S
H36 C18 0.932 . S
H37 C19 0.929 . S
H38 C20 0.928 . S
H39 C22 0.932 . S
C40 C41 1.264 . S
C40 C45 1.479 . S
C40 C50 1.465 . S
C41 C40 1.264 . S
C41 C43 1.339 . S
C41 H68 0.931 . S
C42 C43 1.395 . S
C42 C44 1.320 . S
C43 C41 1.339 . S
C43 C42 1.395 . S
C43 H69 0.929 . S
C44 C42 1.320 . S
C44 C45 1.405 . S
C44 H70 0.930 . S
C45 C40 1.479 . S
C45 C44 1.405 . S
C45 H71 0.931 . S
U46 O47 2.454 . S
U46 O48 2.458 . S
U46 C49 2.984 . S
U46 C50 2.847 . S
U46 C63 2.882 . S
U46 O64 2.441 . S
U46 O65 2.420 . S
U46 O66 2.455 . S
U46 O67 2.449 . S
O47 U46 2.454 . S
O47 C49 1.353 . S
O48 U46 2.458 . S
O48 C49 1.286 . S
C49 U46 2.984 . S
C49 O47 1.353 . S
C49 O48 1.286 . S
C49 C51 1.363 . S
C50 C40 1.465 . S
C50 U46 2.847 . S
C50 O64 1.249 . S
C50 O65 1.202 . S
C51 C49 1.363 . S
C51 C53 1.408 . S
C51 C56 1.342 . S
C52 C53 1.310 . S
C52 C55 1.461 . S
C52 H72 0.932 1_455 S
C53 C51 1.408 . S
C53 C52 1.310 . S
C53 H73 0.930 . S
C54 C55 1.474 . S
C54 C56 1.285 . S
C54 H74 0.929 . S
C55 C52 1.461 . S
C55 C54 1.474 . S
C56 C51 1.342 . S
C56 C54 1.285 . S
C56 H75 0.930 . S
C57 C60 1.424 . S
C57 C62 1.245 . S
C57 C63 1.428 . S
C58 C61 1.260 . S
C58 C62 1.477 . S
C58 H76 0.932 . S
C59 C60 1.384 . S
C59 C61 1.479 . S
C59 H77 0.929 . S
C60 C57 1.424 . S
C60 C59 1.384 . S
C60 H78 0.928 . S
C61 C58 1.260 . S
C61 C59 1.479 . S
C62 C57 1.245 . S
C62 C58 1.477 . S
C62 H79 0.932 . S
C63 U46 2.882 . S
C63 C57 1.428 . S
C63 O66 1.301 . S
C63 O67 1.282 . S
O64 U46 2.441 . S
O64 C50 1.249 . S
O65 U46 2.420 . S
O65 C50 1.202 . S
O66 U46 2.455 . S
O66 C63 1.301 . S
O67 U46 2.449 . S
O67 C63 1.282 . S
H68 C41 0.931 . S
H69 C43 0.929 . S
H70 C44 0.930 . S
H71 C45 0.931 . S
H72 C52 0.932 1_655 S
H73 C53 0.930 . S
H74 C54 0.929 . S
H75 C56 0.930 . S
H76 C58 0.932 . S
H77 C59 0.929 . S
H78 C60 0.928 . S
H79 C62 0.932 . S
C80 C81 1.264 . S
C80 C85 1.479 . S
C80 C90 1.465 . S
C81 C80 1.264 . S
C81 C83 1.339 . S
C81 H108 0.931 . S
C82 C83 1.395 . S
C82 C84 1.320 . S
C83 C81 1.339 . S
C83 C82 1.395 . S
C83 H109 0.929 . S
C84 C82 1.320 . S
C84 C85 1.405 . S
C84 H110 0.930 . S
C85 C80 1.479 . S
C85 C84 1.405 . S
C85 H111 0.931 . S
U86 O87 2.454 . S
U86 O88 2.458 . S
U86 C89 2.984 . S
U86 C90 2.847 . S
U86 C103 2.882 . S
U86 O104 2.441 . S
U86 O105 2.420 . S
U86 O106 2.455 . S
U86 O107 2.449 . S
O87 U86 2.454 . S
O87 C89 1.353 . S
O88 U86 2.458 . S
O88 C89 1.286 . S
C89 U86 2.984 . S
C89 O87 1.353 . S
C89 O88 1.286 . S
C89 C91 1.363 . S
C90 C80 1.465 . S
C90 U86 2.847 . S
C90 O104 1.249 . S
C90 O105 1.202 . S
C91 C89 1.363 . S
C91 C93 1.408 . S
C91 C96 1.342 . S
C92 C93 1.310 . S
C92 C95 1.461 . S
C92 H112 0.932 1_545 S
C93 C91 1.408 . S
C93 C92 1.310 . S
C93 H113 0.930 . S
C94 C95 1.474 . S
C94 C96 1.285 . S
C94 H114 0.929 . S
C95 C92 1.461 . S
C95 C94 1.474 . S
C96 C91 1.342 . S
C96 C94 1.285 . S
C96 H115 0.930 . S
C97 C100 1.424 . S
C97 C102 1.245 . S
C97 C103 1.428 . S
C98 C101 1.260 . S
C98 C102 1.477 . S
C98 H116 0.932 . S
C99 C100 1.384 . S
C99 C101 1.479 . S
C99 H117 0.929 . S
C100 C97 1.424 . S
C100 C99 1.384 . S
C100 H118 0.928 . S
C101 C98 1.260 . S
C101 C99 1.479 . S
C102 C97 1.245 . S
C102 C98 1.477 . S
C102 H119 0.932 . S
C103 U86 2.882 . S
C103 C97 1.428 . S
C103 O106 1.301 . S
C103 O107 1.282 . S
O104 U86 2.441 . S
O104 C90 1.249 . S
O105 U86 2.420 . S
O105 C90 1.202 . S
O106 U86 2.455 . S
O106 C103 1.301 . S
O107 U86 2.449 . S
O107 C103 1.282 . S
H108 C81 0.931 . S
H109 C83 0.929 . S
H110 C84 0.930 . S
H111 C85 0.931 . S
H112 C92 0.932 1_565 S
H113 C93 0.930 . S
H114 C94 0.929 . S
H115 C96 0.930 . S
H116 C98 0.932 . S
H117 C99 0.929 . S
H118 C100 0.928 . S
H119 C102 0.932 . S
C120 C121 1.264 . S
C120 C125 1.479 . S
C120 C130 1.465 . S
C121 C120 1.264 . S
C121 C123 1.339 . S
C121 H148 0.931 . S
C122 C123 1.395 . S
C122 C124 1.320 . S
C123 C121 1.339 . S
C123 C122 1.395 . S
C123 H149 0.929 . S
C124 C122 1.320 . S
C124 C125 1.405 . S
C124 H150 0.930 . S
C125 C120 1.479 . S
C125 C124 1.405 . S
C125 H151 0.931 . S
U126 O127 2.454 . S
U126 O128 2.458 . S
U126 C129 2.984 . S
U126 C130 2.847 . S
U126 C143 2.882 . S
U126 O144 2.441 . S
U126 O145 2.420 . S
U126 O146 2.455 . S
U126 O147 2.449 . S
O127 U126 2.454 . S
O127 C129 1.353 . S
O128 U126 2.458 . S
O128 C129 1.286 . S
C129 U126 2.984 . S
C129 O127 1.353 . S
C129 O128 1.286 . S
C129 C131 1.363 . S
C130 C120 1.465 . S
C130 U126 2.847 . S
C130 O144 1.249 . S
C130 O145 1.202 . S
C131 C129 1.363 . S
C131 C133 1.408 . S
C131 C136 1.342 . S
C132 C133 1.310 . S
C132 C135 1.461 . S
C132 H152 0.932 . S
C133 C131 1.408 . S
C133 C132 1.310 . S
C133 H153 0.930 . S
C134 C135 1.474 . S
C134 C136 1.285 . S
C134 H154 0.929 . S
C135 C132 1.461 . S
C135 C134 1.474 . S
C136 C131 1.342 . S
C136 C134 1.285 . S
C136 H155 0.930 . S
C137 C140 1.424 . S
C137 C142 1.245 . S
C137 C143 1.428 . S
C138 C141 1.260 . S
C138 C142 1.477 . S
C138 H156 0.932 . S
C139 C140 1.384 . S
C139 C141 1.479 . S
C139 H157 0.929 . S
C140 C137 1.424 . S
C140 C139 1.384 . S
C140 H158 0.928 . S
C141 C138 1.260 . S
C141 C139 1.479 . S
C142 C137 1.245 . S
C142 C138 1.477 . S
C142 H159 0.932 . S
C143 U126 2.882 . S
C143 C137 1.428 . S
C143 O146 1.301 . S
C143 O147 1.282 . S
O144 U126 2.441 . S
O144 C130 1.249 . S
O145 U126 2.420 . S
O145 C130 1.202 . S
O146 U126 2.455 . S
O146 C143 1.301 . S
O147 U126 2.449 . S
O147 C143 1.282 . S
H148 C121 0.931 . S
H149 C123 0.929 . S
H150 C124 0.930 . S
H151 C125 0.931 . S
H152 C132 0.932 . S
H153 C133 0.930 . S
H154 C134 0.929 . S
H155 C136 0.930 . S
H156 C138 0.932 . S
H157 C139 0.929 . S
H158 C140 0.928 . S
H159 C142 0.932 . S
C160 C161 1.264 . S
C160 C165 1.479 . S
C160 C170 1.465 . S
C161 C160 1.264 . S
C161 C163 1.339 . S
C161 H188 0.931 . S
C162 C163 1.395 . S
C162 C164 1.320 . S
C163 C161 1.339 . S
C163 C162 1.395 . S
C163 H189 0.929 . S
C164 C162 1.320 . S
C164 C165 1.405 . S
C164 H190 0.930 . S
C165 C160 1.479 . S
C165 C164 1.405 . S
C165 H191 0.931 . S
U166 O167 2.454 . S
U166 O168 2.458 . S
U166 C169 2.984 . S
U166 C170 2.847 . S
U166 C183 2.882 . S
U166 O184 2.441 . S
U166 O185 2.420 . S
U166 O186 2.455 . S
U166 O187 2.449 . S
O167 U166 2.454 . S
O167 C169 1.353 . S
O168 U166 2.458 . S
O168 C169 1.286 . S
C169 U166 2.984 . S
C169 O167 1.353 . S
C169 O168 1.286 . S
C169 C171 1.363 . S
C170 C160 1.465 . S
C170 U166 2.847 . S
C170 O184 1.249 . S
C170 O185 1.202 . S
C171 C169 1.363 . S
C171 C173 1.408 . S
C171 C176 1.342 . S
C172 C173 1.310 . S
C172 C175 1.461 . S
C172 H192 0.932 1_655 S
C173 C171 1.408 . S
C173 C172 1.310 . S
C173 H193 0.930 . S
C174 C175 1.474 . S
C174 C176 1.285 . S
C174 H194 0.929 . S
C175 C172 1.461 . S
C175 C174 1.474 . S
C176 C171 1.342 . S
C176 C174 1.285 . S
C176 H195 0.930 . S
C177 C180 1.424 . S
C177 C182 1.245 . S
C177 C183 1.428 . S
C178 C181 1.260 . S
C178 C182 1.477 . S
C178 H196 0.932 . S
C179 C180 1.384 . S
C179 C181 1.479 . S
C179 H197 0.929 . S
C180 C177 1.424 . S
C180 C179 1.384 . S
C180 H198 0.928 . S
C181 C178 1.260 . S
C181 C179 1.479 . S
C182 C177 1.245 . S
C182 C178 1.477 . S
C182 H199 0.932 . S
C183 U166 2.882 . S
C183 C177 1.428 . S
C183 O186 1.301 . S
C183 O187 1.282 . S
O184 U166 2.441 . S
O184 C170 1.249 . S
O185 U166 2.420 . S
O185 C170 1.202 . S
O186 U166 2.455 . S
O186 C183 1.301 . S
O187 U166 2.449 . S
O187 C183 1.282 . S
H188 C161 0.931 . S
H189 C163 0.929 . S
H190 C164 0.930 . S
H191 C165 0.931 . S
H192 C172 0.932 1_455 S
H193 C173 0.930 . S
H194 C174 0.929 . S
H195 C176 0.930 . S
H196 C178 0.932 . S
H197 C179 0.929 . S
H198 C180 0.928 . S
H199 C182 0.932 . S
C200 C201 1.264 . S
C200 C205 1.479 . S
C200 C210 1.465 . S
C201 C200 1.264 . S
C201 C203 1.339 . S
C201 H228 0.931 . S
C202 C203 1.395 . S
C202 C204 1.320 . S
C203 C201 1.339 . S
C203 C202 1.395 . S
C203 H229 0.929 . S
C204 C202 1.320 . S
C204 C205 1.405 . S
C204 H230 0.930 . S
C205 C200 1.479 . S
C205 C204 1.405 . S
C205 H231 0.931 . S
U206 O207 2.454 . S
U206 O208 2.458 . S
U206 C209 2.984 . S
U206 C210 2.847 . S
U206 C223 2.882 . S
U206 O224 2.441 . S
U206 O225 2.420 . S
U206 O226 2.455 . S
U206 O227 2.449 . S
O207 U206 2.454 . S
O207 C209 1.353 . S
O208 U206 2.458 . S
O208 C209 1.286 . S
C209 U206 2.984 . S
C209 O207 1.353 . S
C209 O208 1.286 . S
C209 C211 1.363 . S
C210 C200 1.465 . S
C210 U206 2.847 . S
C210 O224 1.249 . S
C210 O225 1.202 . S
C211 C209 1.363 . S
C211 C213 1.408 . S
C211 C216 1.342 . S
C212 C213 1.310 . S
C212 C215 1.461 . S
C212 H232 0.932 1_565 S
C213 C211 1.408 . S
C213 C212 1.310 . S
C213 H233 0.930 . S
C214 C215 1.474 . S
C214 C216 1.285 . S
C214 H234 0.929 . S
C215 C212 1.461 . S
C215 C214 1.474 . S
C216 C211 1.342 . S
C216 C214 1.285 . S
C216 H235 0.930 . S
C217 C220 1.424 . S
C217 C222 1.245 . S
C217 C223 1.428 . S
C218 C221 1.260 . S
C218 C222 1.477 . S
C218 H236 0.932 . S
C219 C220 1.384 . S
C219 C221 1.479 . S
C219 H237 0.929 . S
C220 C217 1.424 . S
C220 C219 1.384 . S
C220 H238 0.928 . S
C221 C218 1.260 . S
C221 C219 1.479 . S
C222 C217 1.245 . S
C222 C218 1.477 . S
C222 H239 0.932 . S
C223 U206 2.882 . S
C223 C217 1.428 . S
C223 O226 1.301 . S
C223 O227 1.282 . S
O224 U206 2.441 . S
O224 C210 1.249 . S
O225 U206 2.420 . S
O225 C210 1.202 . S
O226 U206 2.455 . S
O226 C223 1.301 . S
O227 U206 2.449 . S
O227 C223 1.282 . S
H228 C201 0.931 . S
H229 C203 0.929 . S
H230 C204 0.930 . S
H231 C205 0.931 . S
H232 C212 0.932 1_545 S
H233 C213 0.930 . S
H234 C214 0.929 . S
H235 C216 0.930 . S
H236 C218 0.932 . S
H237 C219 0.929 . S
H238 C220 0.928 . S
H239 C222 0.932 . S
C240 C241 1.264 . S
C240 C245 1.479 . S
C240 C250 1.465 . S
C241 C240 1.264 . S
C241 C243 1.339 . S
C241 H268 0.931 . S
C242 C243 1.395 . S
C242 C244 1.320 . S
C243 C241 1.339 . S
C243 C242 1.395 . S
C243 H269 0.929 . S
C244 C242 1.320 . S
C244 C245 1.405 . S
C244 H270 0.930 . S
C245 C240 1.479 . S
C245 C244 1.405 . S
C245 H271 0.931 . S
U246 O247 2.454 . S
U246 O248 2.458 . S
U246 C249 2.984 . S
U246 C250 2.847 . S
U246 C263 2.882 . S
U246 O264 2.441 . S
U246 O265 2.420 . S
U246 O266 2.455 . S
U246 O267 2.449 . S
O247 U246 2.454 . S
O247 C249 1.353 . S
O248 U246 2.458 . S
O248 C249 1.286 . S
C249 U246 2.984 . S
C249 O247 1.353 . S
C249 O248 1.286 . S
C249 C251 1.363 . S
C250 C240 1.465 . S
C250 U246 2.847 . S
C250 O264 1.249 . S
C250 O265 1.202 . S
C251 C249 1.363 . S
C251 C253 1.408 . S
C251 C256 1.342 . S
C252 C253 1.310 . S
C252 C255 1.461 . S
C252 H272 0.932 . S
C253 C251 1.408 . S
C253 C252 1.310 . S
C253 H273 0.930 . S
C254 C255 1.474 . S
C254 C256 1.285 . S
C254 H274 0.929 . S
C255 C252 1.461 . S
C255 C254 1.474 . S
C256 C251 1.342 . S
C256 C254 1.285 . S
C256 H275 0.930 . S
C257 C260 1.424 . S
C257 C262 1.245 . S
C257 C263 1.428 . S
C258 C261 1.260 . S
C258 C262 1.477 . S
C258 H276 0.932 . S
C259 C260 1.384 . S
C259 C261 1.479 . S
C259 H277 0.929 . S
C260 C257 1.424 . S
C260 C259 1.384 . S
C260 H278 0.928 . S
C261 C258 1.260 . S
C261 C259 1.479 . S
C262 C257 1.245 . S
C262 C258 1.477 . S
C262 H279 0.932 . S
C263 U246 2.882 . S
C263 C257 1.428 . S
C263 O266 1.301 . S
C263 O267 1.282 . S
O264 U246 2.441 . S
O264 C250 1.249 . S
O265 U246 2.420 . S
O265 C250 1.202 . S
O266 U246 2.455 . S
O266 C263 1.301 . S
O267 U246 2.449 . S
O267 C263 1.282 . S
H268 C241 0.931 . S
H269 C243 0.929 . S
H270 C244 0.930 . S
H271 C245 0.931 . S
H272 C252 0.932 . S
H273 C253 0.930 . S
H274 C254 0.929 . S
H275 C256 0.930 . S
H276 C258 0.932 . S
H277 C259 0.929 . S
H278 C260 0.928 . S
H279 C262 0.932 . S
C280 C281 1.264 . S
C280 C285 1.479 . S
C280 C290 1.465 . S
C281 C280 1.264 . S
C281 C283 1.339 . S
C281 H308 0.931 . S
C282 C283 1.395 . S
C282 C284 1.320 . S
C283 C281 1.339 . S
C283 C282 1.395 . S
C283 H309 0.929 . S
C284 C282 1.320 . S
C284 C285 1.405 . S
C284 H310 0.930 . S
C285 C280 1.479 . S
C285 C284 1.405 . S
C285 H311 0.931 . S
U286 O287 2.454 . S
U286 O288 2.458 . S
U286 C289 2.984 . S
U286 C290 2.847 . S
U286 C303 2.882 . S
U286 O304 2.441 . S
U286 O305 2.420 . S
U286 O306 2.455 . S
U286 O307 2.449 . S
O287 U286 2.454 . S
O287 C289 1.353 . S
O288 U286 2.458 . S
O288 C289 1.286 . S
C289 U286 2.984 . S
C289 O287 1.353 . S
C289 O288 1.286 . S
C289 C291 1.363 . S
C290 C280 1.465 . S
C290 U286 2.847 . S
C290 O304 1.249 . S
C290 O305 1.202 . S
C291 C289 1.363 . S
C291 C293 1.408 . S
C291 C296 1.342 . S
C292 C293 1.310 . S
C292 C295 1.461 . S
C292 H312 0.932 1_455 S
C293 C291 1.408 . S
C293 C292 1.310 . S
C293 H313 0.930 . S
C294 C295 1.474 . S
C294 C296 1.285 . S
C294 H314 0.929 . S
C295 C292 1.461 . S
C295 C294 1.474 . S
C296 C291 1.342 . S
C296 C294 1.285 . S
C296 H315 0.930 . S
C297 C300 1.424 . S
C297 C302 1.245 . S
C297 C303 1.428 . S
C298 C301 1.260 . S
C298 C302 1.477 . S
C298 H316 0.932 . S
C299 C300 1.384 . S
C299 C301 1.479 . S
C299 H317 0.929 . S
C300 C297 1.424 . S
C300 C299 1.384 . S
C300 H318 0.928 . S
C301 C298 1.260 . S
C301 C299 1.479 . S
C302 C297 1.245 . S
C302 C298 1.477 . S
C302 H319 0.932 . S
C303 U286 2.882 . S
C303 C297 1.428 . S
C303 O306 1.301 . S
C303 O307 1.282 . S
O304 U286 2.441 . S
O304 C290 1.249 . S
O305 U286 2.420 . S
O305 C290 1.202 . S
O306 U286 2.455 . S
O306 C303 1.301 . S
O307 U286 2.449 . S
O307 C303 1.282 . S
H308 C281 0.931 . S
H309 C283 0.929 . S
H310 C284 0.930 . S
H311 C285 0.931 . S
H312 C292 0.932 1_655 S
H313 C293 0.930 . S
H314 C294 0.929 . S
H315 C296 0.930 . S
H316 C298 0.932 . S
H317 C299 0.929 . S
H318 C300 0.928 . S
H319 C302 0.932 . S
C320 C321 1.264 . S
C320 C325 1.479 . S
C320 C330 1.465 . S
C321 C320 1.264 . S
C321 C323 1.339 . S
C321 H348 0.931 . S
C322 C323 1.395 . S
C322 C324 1.320 . S
C323 C321 1.339 . S
C323 C322 1.395 . S
C323 H349 0.929 . S
C324 C322 1.320 . S
C324 C325 1.405 . S
C324 H350 0.930 . S
C325 C320 1.479 . S
C325 C324 1.405 . S
C325 H351 0.931 . S
U326 O327 2.454 . S
U326 O328 2.458 . S
U326 C329 2.984 . S
U326 C330 2.847 . S
U326 C343 2.882 . S
U326 O344 2.441 . S
U326 O345 2.420 . S
U326 O346 2.455 . S
U326 O347 2.449 . S
O327 U326 2.454 . S
O327 C329 1.353 . S
O328 U326 2.458 . S
O328 C329 1.286 . S
C329 U326 2.984 . S
C329 O327 1.353 . S
C329 O328 1.286 . S
C329 C331 1.363 . S
C330 C320 1.465 . S
C330 U326 2.847 . S
C330 O344 1.249 . S
C330 O345 1.202 . S
C331 C329 1.363 . S
C331 C333 1.408 . S
C331 C336 1.342 . S
C332 C333 1.310 . S
C332 C335 1.461 . S
C332 H352 0.932 1_545 S
C333 C331 1.408 . S
C333 C332 1.310 . S
C333 H353 0.930 . S
C334 C335 1.474 . S
C334 C336 1.285 . S
C334 H354 0.929 . S
C335 C332 1.461 . S
C335 C334 1.474 . S
C336 C331 1.342 . S
C336 C334 1.285 . S
C336 H355 0.930 . S
C337 C340 1.424 . S
C337 C342 1.245 . S
C337 C343 1.428 . S
C338 C341 1.260 . S
C338 C342 1.477 . S
C338 H356 0.932 . S
C339 C340 1.384 . S
C339 C341 1.479 . S
C339 H357 0.929 . S
C340 C337 1.424 . S
C340 C339 1.384 . S
C340 H358 0.928 . S
C341 C338 1.260 . S
C341 C339 1.479 . S
C342 C337 1.245 . S
C342 C338 1.477 . S
C342 H359 0.932 . S
C343 U326 2.882 . S
C343 C337 1.428 . S
C343 O346 1.301 . S
C343 O347 1.282 . S
O344 U326 2.441 . S
O344 C330 1.249 . S
O345 U326 2.420 . S
O345 C330 1.202 . S
O346 U326 2.455 . S
O346 C343 1.301 . S
O347 U326 2.449 . S
O347 C343 1.282 . S
H348 C321 0.931 . S
H349 C323 0.929 . S
H350 C324 0.930 . S
H351 C325 0.931 . S
H352 C332 0.932 1_565 S
H353 C333 0.930 . S
H354 C334 0.929 . S
H355 C336 0.930 . S
H356 C338 0.932 . S
H357 C339 0.929 . S
H358 C340 0.928 . S
H359 C342 0.932 . S
C360 C361 1.264 . S
C360 C365 1.479 . S
C360 C370 1.465 . S
C361 C360 1.264 . S
C361 C363 1.339 . S
C361 H388 0.931 . S
C362 C363 1.395 . S
C362 C364 1.320 . S
C363 C361 1.339 . S
C363 C362 1.395 . S
C363 H389 0.929 . S
C364 C362 1.320 . S
C364 C365 1.405 . S
C364 H390 0.930 . S
C365 C360 1.479 . S
C365 C364 1.405 . S
C365 H391 0.931 . S
U366 O367 2.454 . S
U366 O368 2.458 . S
U366 C369 2.984 . S
U366 C370 2.847 . S
U366 C383 2.882 . S
U366 O384 2.441 . S
U366 O385 2.420 . S
U366 O386 2.455 . S
U366 O387 2.449 . S
O367 U366 2.454 . S
O367 C369 1.353 . S
O368 U366 2.458 . S
O368 C369 1.286 . S
C369 U366 2.984 . S
C369 O367 1.353 . S
C369 O368 1.286 . S
C369 C371 1.363 . S
C370 C360 1.465 . S
C370 U366 2.847 . S
C370 O384 1.249 . S
C370 O385 1.202 . S
C371 C369 1.363 . S
C371 C373 1.408 . S
C371 C376 1.342 . S
C372 C373 1.310 . S
C372 C375 1.461 . S
C372 H392 0.932 . S
C373 C371 1.408 . S
C373 C372 1.310 . S
C373 H393 0.930 . S
C374 C375 1.474 . S
C374 C376 1.285 . S
C374 H394 0.929 . S
C375 C372 1.461 . S
C375 C374 1.474 . S
C376 C371 1.342 . S
C376 C374 1.285 . S
C376 H395 0.930 . S
C377 C380 1.424 . S
C377 C382 1.245 . S
C377 C383 1.428 . S
C378 C381 1.260 . S
C378 C382 1.477 . S
C378 H396 0.932 . S
C379 C380 1.384 . S
C379 C381 1.479 . S
C379 H397 0.929 . S
C380 C377 1.424 . S
C380 C379 1.384 . S
C380 H398 0.928 . S
C381 C378 1.260 . S
C381 C379 1.479 . S
C382 C377 1.245 . S
C382 C378 1.477 . S
C382 H399 0.932 . S
C383 U366 2.882 . S
C383 C377 1.428 . S
C383 O386 1.301 . S
C383 O387 1.282 . S
O384 U366 2.441 . S
O384 C370 1.249 . S
O385 U366 2.420 . S
O385 C370 1.202 . S
O386 U366 2.455 . S
O386 C383 1.301 . S
O387 U366 2.449 . S
O387 C383 1.282 . S
H388 C361 0.931 . S
H389 C363 0.929 . S
H390 C364 0.930 . S
H391 C365 0.931 . S
H392 C372 0.932 . S
H393 C373 0.930 . S
H394 C374 0.929 . S
H395 C376 0.930 . S
H396 C378 0.932 . S
H397 C379 0.929 . S
H398 C380 0.928 . S
H399 C382 0.932 . S
C400 C401 1.264 . S
C400 C405 1.479 . S
C400 C410 1.465 . S
C401 C400 1.264 . S
C401 C403 1.339 . S
C401 H428 0.931 . S
C402 C403 1.395 . S
C402 C404 1.320 . S
C403 C401 1.339 . S
C403 C402 1.395 . S
C403 H429 0.929 . S
C404 C402 1.320 . S
C404 C405 1.405 . S
C404 H430 0.930 . S
C405 C400 1.479 . S
C405 C404 1.405 . S
C405 H431 0.931 . S
U406 O407 2.454 . S
U406 O408 2.458 . S
U406 C409 2.984 . S
U406 C410 2.847 . S
U406 C423 2.882 . S
U406 O424 2.441 . S
U406 O425 2.420 . S
U406 O426 2.455 . S
U406 O427 2.449 . S
O407 U406 2.454 . S
O407 C409 1.353 . S
O408 U406 2.458 . S
O408 C409 1.286 . S
C409 U406 2.984 . S
C409 O407 1.353 . S
C409 O408 1.286 . S
C409 C411 1.363 . S
C410 C400 1.465 . S
C410 U406 2.847 . S
C410 O424 1.249 . S
C410 O425 1.202 . S
C411 C409 1.363 . S
C411 C413 1.408 . S
C411 C416 1.342 . S
C412 C413 1.310 . S
C412 C415 1.461 . S
C412 H432 0.932 1_655 S
C413 C411 1.408 . S
C413 C412 1.310 . S
C413 H433 0.930 . S
C414 C415 1.474 . S
C414 C416 1.285 . S
C414 H434 0.929 . S
C415 C412 1.461 . S
C415 C414 1.474 . S
C416 C411 1.342 . S
C416 C414 1.285 . S
C416 H435 0.930 . S
C417 C420 1.424 . S
C417 C422 1.245 . S
C417 C423 1.428 . S
C418 C421 1.260 . S
C418 C422 1.477 . S
C418 H436 0.932 . S
C419 C420 1.384 . S
C419 C421 1.479 . S
C419 H437 0.929 . S
C420 C417 1.424 . S
C420 C419 1.384 . S
C420 H438 0.928 . S
C421 C418 1.260 . S
C421 C419 1.479 . S
C422 C417 1.245 . S
C422 C418 1.477 . S
C422 H439 0.932 . S
C423 U406 2.882 . S
C423 C417 1.428 . S
C423 O426 1.301 . S
C423 O427 1.282 . S
O424 U406 2.441 . S
O424 C410 1.249 . S
O425 U406 2.420 . S
O425 C410 1.202 . S
O426 U406 2.455 . S
O426 C423 1.301 . S
O427 U406 2.449 . S
O427 C423 1.282 . S
H428 C401 0.931 . S
H429 C403 0.929 . S
H430 C404 0.930 . S
H431 C405 0.931 . S
H432 C412 0.932 1_455 S
H433 C413 0.930 . S
H434 C414 0.929 . S
H435 C416 0.930 . S
H436 C418 0.932 . S
H437 C419 0.929 . S
H438 C420 0.928 . S
H439 C422 0.932 . S
C440 C441 1.264 . S
C440 C445 1.479 . S
C440 C450 1.465 . S
C441 C440 1.264 . S
C441 C443 1.339 . S
C441 H468 0.931 . S
C442 C443 1.395 . S
C442 C444 1.320 . S
C443 C441 1.339 . S
C443 C442 1.395 . S
C443 H469 0.929 . S
C444 C442 1.320 . S
C444 C445 1.405 . S
C444 H470 0.930 . S
C445 C440 1.479 . S
C445 C444 1.405 . S
C445 H471 0.931 . S
U446 O447 2.454 . S
U446 O448 2.458 . S
U446 C449 2.984 . S
U446 C450 2.847 . S
U446 C463 2.882 . S
U446 O464 2.441 . S
U446 O465 2.420 . S
U446 O466 2.455 . S
U446 O467 2.449 . S
O447 U446 2.454 . S
O447 C449 1.353 . S
O448 U446 2.458 . S
O448 C449 1.286 . S
C449 U446 2.984 . S
C449 O447 1.353 . S
C449 O448 1.286 . S
C449 C451 1.363 . S
C450 C440 1.465 . S
C450 U446 2.847 . S
C450 O464 1.249 . S
C450 O465 1.202 . S
C451 C449 1.363 . S
C451 C453 1.408 . S
C451 C456 1.342 . S
C452 C453 1.310 . S
C452 C455 1.461 . S
C452 H472 0.932 1_565 S
C453 C451 1.408 . S
C453 C452 1.310 . S
C453 H473 0.930 . S
C454 C455 1.474 . S
C454 C456 1.285 . S
C454 H474 0.929 . S
C455 C452 1.461 . S
C455 C454 1.474 . S
C456 C451 1.342 . S
C456 C454 1.285 . S
C456 H475 0.930 . S
C457 C460 1.424 . S
C457 C462 1.245 . S
C457 C463 1.428 . S
C458 C461 1.260 . S
C458 C462 1.477 . S
C458 H476 0.932 . S
C459 C460 1.384 . S
C459 C461 1.479 . S
C459 H477 0.929 . S
C460 C457 1.424 . S
C460 C459 1.384 . S
C460 H478 0.928 . S
C461 C458 1.260 . S
C461 C459 1.479 . S
C462 C457 1.245 . S
C462 C458 1.477 . S
C462 H479 0.932 . S
C463 U446 2.882 . S
C463 C457 1.428 . S
C463 O466 1.301 . S
C463 O467 1.282 . S
O464 U446 2.441 . S
O464 C450 1.249 . S
O465 U446 2.420 . S
O465 C450 1.202 . S
O466 U446 2.455 . S
O466 C463 1.301 . S
O467 U446 2.449 . S
O467 C463 1.282 . S
H468 C441 0.931 . S
H469 C443 0.929 . S
H470 C444 0.930 . S
H471 C445 0.931 . S
H472 C452 0.932 1_545 S
H473 C453 0.930 . S
H474 C454 0.929 . S
H475 C456 0.930 . S
H476 C458 0.932 . S
H477 C459 0.929 . S
H478 C460 0.928 . S
H479 C462 0.932 . S
C480 C481 1.349 . S
C480 C482 1.327 . S
C480 H505 0.950 . S
C481 C480 1.349 . S
C481 C497 1.349 . S
C482 C480 1.327 . S
C482 C501 1.429 . S
C482 H506 0.950 . S
C483 C500 1.574 . S
C483 C502 1.368 . S
C483 H507 0.949 . S
H484 C488 0.949 . S
C485 C486 1.349 . S
C485 C487 1.327 . S
C485 H508 0.950 . S
C486 C485 1.349 . S
C486 C498 1.349 . S
C487 C485 1.327 . S
C487 C503 1.429 . S
C487 H509 0.950 . S
C488 H484 0.949 . S
C488 C496 1.574 . S
C488 C504 1.368 . S
H489 C497 0.950 . S
H490 C495 0.950 . S
H491 C496 0.949 . S
H492 C498 0.950 . S
H493 C499 0.950 . S
H494 C500 0.949 . S
C495 H490 0.950 . S
C495 C497 1.327 . S
C495 C501 1.429 . S
C496 C488 1.574 . S
C496 H491 0.949 . S
C496 C502 1.368 . S
C497 C481 1.349 . S
C497 H489 0.950 . S
C497 C495 1.327 . S
C498 C486 1.349 . S
C498 H492 0.950 . S
C498 C499 1.327 . S
C499 H493 0.950 . S
C499 C498 1.327 . S
C499 C503 1.429 . S
C500 C483 1.574 . S
C500 H494 0.949 . S
C500 C504 1.368 . S
C501 C482 1.429 . S
C501 C495 1.429 . S
C501 C502 1.523 . S
C502 C483 1.368 . S
C502 C496 1.368 . S
C502 C501 1.523 . S
C503 C487 1.429 . S
C503 C499 1.429 . S
C503 C504 1.523 . S
C504 C488 1.368 . S
C504 C500 1.368 . S
C504 C503 1.523 . S
H505 C480 0.950 . S
H506 C482 0.950 . S
H507 C483 0.949 . S
H508 C485 0.950 . S
H509 C487 0.950 . S
C510 C511 1.349 . S
C510 C512 1.327 . S
C510 H535 0.950 . S
C511 C510 1.349 . S
C511 C527 1.349 . S
C512 C510 1.327 . S
C512 C531 1.429 . S
C512 H536 0.950 . S
C513 C530 1.574 . S
C513 C532 1.368 . S
C513 H537 0.949 . S
H514 C518 0.949 . S
C515 C516 1.349 . S
C515 C517 1.327 . S
C515 H538 0.950 . S
C516 C515 1.349 . S
C516 C528 1.349 . S
C517 C515 1.327 . S
C517 C533 1.429 . S
C517 H539 0.950 . S
C518 H514 0.949 . S
C518 C526 1.574 . S
C518 C534 1.368 . S
H519 C527 0.950 . S
H520 C525 0.950 . S
H521 C526 0.949 . S
H522 C528 0.950 . S
H523 C529 0.950 . S
H524 C530 0.949 . S
C525 H520 0.950 . S
C525 C527 1.327 . S
C525 C531 1.429 . S
C526 C518 1.574 . S
C526 H521 0.949 . S
C526 C532 1.368 . S
C527 C511 1.349 . S
C527 H519 0.950 . S
C527 C525 1.327 . S
C528 C516 1.349 . S
C528 H522 0.950 . S
C528 C529 1.327 . S
C529 H523 0.950 . S
C529 C528 1.327 . S
C529 C533 1.429 . S
C530 C513 1.574 . S
C530 H524 0.949 . S
C530 C534 1.368 . S
C531 C512 1.429 . S
C531 C525 1.429 . S
C531 C532 1.523 . S
C532 C513 1.368 . S
C532 C526 1.368 . S
C532 C531 1.523 . S
C533 C517 1.429 . S
C533 C529 1.429 . S
C533 C534 1.523 . S
C534 C518 1.368 . S
C534 C530 1.368 . S
C534 C533 1.523 . S
H535 C510 0.950 . S
H536 C512 0.950 . S
H537 C513 0.949 . S
H538 C515 0.950 . S
H539 C517 0.950 . S
C540 C541 1.349 . S
C540 C542 1.327 . S
C540 H565 0.950 . S
C541 C540 1.349 . S
C541 C557 1.349 . S
C542 C540 1.327 . S
C542 C561 1.429 . S
C542 H566 0.950 . S
C543 C560 1.574 . S
C543 C562 1.368 . S
C543 H567 0.949 . S
H544 C548 0.949 . S
C545 C546 1.349 . S
C545 C547 1.327 . S
C545 H568 0.950 . S
C546 C545 1.349 . S
C546 C558 1.349 . S
C547 C545 1.327 . S
C547 C563 1.429 . S
C547 H569 0.950 . S
C548 H544 0.949 . S
C548 C556 1.574 . S
C548 C564 1.368 . S
H549 C557 0.950 . S
H550 C555 0.950 . S
H551 C556 0.949 . S
H552 C558 0.950 . S
H553 C559 0.950 . S
H554 C560 0.949 . S
C555 H550 0.950 . S
C555 C557 1.327 . S
C555 C561 1.429 . S
C556 C548 1.574 . S
C556 H551 0.949 . S
C556 C562 1.368 . S
C557 C541 1.349 . S
C557 H549 0.950 . S
C557 C555 1.327 . S
C558 C546 1.349 . S
C558 H552 0.950 . S
C558 C559 1.327 . S
C559 H553 0.950 . S
C559 C558 1.327 . S
C559 C563 1.429 . S
C560 C543 1.574 . S
C560 H554 0.949 . S
C560 C564 1.368 . S
C561 C542 1.429 . S
C561 C555 1.429 . S
C561 C562 1.523 . S
C562 C543 1.368 . S
C562 C556 1.368 . S
C562 C561 1.523 . S
C563 C547 1.429 . S
C563 C559 1.429 . S
C563 C564 1.523 . S
C564 C548 1.368 . S
C564 C560 1.368 . S
C564 C563 1.523 . S
H565 C540 0.950 . S
H566 C542 0.950 . S
H567 C543 0.949 . S
H568 C545 0.950 . S
H569 C547 0.950 . S
C570 C571 1.349 . S
C570 C572 1.327 . S
C570 H595 0.950 . S
C571 C570 1.349 . S
C571 C587 1.349 . S
C572 C570 1.327 . S
C572 C591 1.429 . S
C572 H596 0.950 . S
C573 C590 1.574 . S
C573 C592 1.368 . S
C573 H597 0.949 . S
H574 C578 0.949 . S
C575 C576 1.349 . S
C575 C577 1.327 . S
C575 H598 0.950 . S
C576 C575 1.349 . S
C576 C588 1.349 . S
C577 C575 1.327 . S
C577 C593 1.429 . S
C577 H599 0.950 . S
C578 H574 0.949 . S
C578 C586 1.574 . S
C578 C594 1.368 . S
H579 C587 0.950 . S
H580 C585 0.950 . S
H581 C586 0.949 . S
H582 C588 0.950 . S
H583 C589 0.950 . S
H584 C590 0.949 . S
C585 H580 0.950 . S
C585 C587 1.327 . S
C585 C591 1.429 . S
C586 C578 1.574 . S
C586 H581 0.949 . S
C586 C592 1.368 . S
C587 C571 1.349 . S
C587 H579 0.950 . S
C587 C585 1.327 . S
C588 C576 1.349 . S
C588 H582 0.950 . S
C588 C589 1.327 . S
C589 H583 0.950 . S
C589 C588 1.327 . S
C589 C593 1.429 . S
C590 C573 1.574 . S
C590 H584 0.949 . S
C590 C594 1.368 . S
C591 C572 1.429 . S
C591 C585 1.429 . S
C591 C592 1.523 . S
C592 C573 1.368 . S
C592 C586 1.368 . S
C592 C591 1.523 . S
C593 C577 1.429 . S
C593 C589 1.429 . S
C593 C594 1.523 . S
C594 C578 1.368 . S
C594 C590 1.368 . S
C594 C593 1.523 . S
H595 C570 0.950 . S
H596 C572 0.950 . S
H597 C573 0.949 . S
H598 C575 0.950 . S
H599 C577 0.950 . S
C600 C601 1.349 . S
C600 C602 1.327 . S
C600 H625 0.950 . S
C601 C600 1.349 . S
C601 C617 1.349 . S
C602 C600 1.327 . S
C602 C621 1.429 . S
C602 H626 0.950 . S
C603 C620 1.574 . S
C603 C622 1.368 . S
C603 H627 0.949 . S
H604 C608 0.949 . S
C605 C606 1.349 . S
C605 C607 1.327 . S
C605 H628 0.950 . S
C606 C605 1.349 . S
C606 C618 1.349 . S
C607 C605 1.327 . S
C607 C623 1.429 . S
C607 H629 0.950 . S
C608 H604 0.949 . S
C608 C616 1.574 . S
C608 C624 1.368 . S
H609 C617 0.950 . S
H610 C615 0.950 . S
H611 C616 0.949 . S
H612 C618 0.950 . S
H613 C619 0.950 . S
H614 C620 0.949 . S
C615 H610 0.950 . S
C615 C617 1.327 . S
C615 C621 1.429 . S
C616 C608 1.574 . S
C616 H611 0.949 . S
C616 C622 1.368 . S
C617 C601 1.349 . S
C617 H609 0.950 . S
C617 C615 1.327 . S
C618 C606 1.349 . S
C618 H612 0.950 . S
C618 C619 1.327 . S
C619 H613 0.950 . S
C619 C618 1.327 . S
C619 C623 1.429 . S
C620 C603 1.574 . S
C620 H614 0.949 . S
C620 C624 1.368 . S
C621 C602 1.429 . S
C621 C615 1.429 . S
C621 C622 1.523 . S
C622 C603 1.368 . S
C622 C616 1.368 . S
C622 C621 1.523 . S
C623 C607 1.429 . S
C623 C619 1.429 . S
C623 C624 1.523 . S
C624 C608 1.368 . S
C624 C620 1.368 . S
C624 C623 1.523 . S
H625 C600 0.950 . S
H626 C602 0.950 . S
H627 C603 0.949 . S
H628 C605 0.950 . S
H629 C607 0.950 . S
C630 C631 1.349 . S
C630 C632 1.327 . S
C630 H655 0.950 . S
C631 C630 1.349 . S
C631 C647 1.349 . S
C632 C630 1.327 . S
C632 C651 1.429 . S
C632 H656 0.950 . S
C633 C650 1.574 . S
C633 C652 1.368 . S
C633 H657 0.949 . S
H634 C638 0.949 . S
C635 C636 1.349 . S
C635 C637 1.327 . S
C635 H658 0.950 . S
C636 C635 1.349 . S
C636 C648 1.349 . S
C637 C635 1.327 . S
C637 C653 1.429 . S
C637 H659 0.950 . S
C638 H634 0.949 . S
C638 C646 1.574 . S
C638 C654 1.368 . S
H639 C647 0.950 . S
H640 C645 0.950 . S
H641 C646 0.949 . S
H642 C648 0.950 . S
H643 C649 0.950 . S
H644 C650 0.949 . S
C645 H640 0.950 . S
C645 C647 1.327 . S
C645 C651 1.429 . S
C646 C638 1.574 . S
C646 H641 0.949 . S
C646 C652 1.368 . S
C647 C631 1.349 . S
C647 H639 0.950 . S
C647 C645 1.327 . S
C648 C636 1.349 . S
C648 H642 0.950 . S
C648 C649 1.327 . S
C649 H643 0.950 . S
C649 C648 1.327 . S
C649 C653 1.429 . S
C650 C633 1.574 . S
C650 H644 0.949 . S
C650 C654 1.368 . S
C651 C632 1.429 . S
C651 C645 1.429 . S
C651 C652 1.523 . S
C652 C633 1.368 . S
C652 C646 1.368 . S
C652 C651 1.523 . S
C653 C637 1.429 . S
C653 C649 1.429 . S
C653 C654 1.523 . S
C654 C638 1.368 . S
C654 C650 1.368 . S
C654 C653 1.523 . S
H655 C630 0.950 . S
H656 C632 0.950 . S
H657 C633 0.949 . S
H658 C635 0.950 . S
H659 C637 0.950 . S
C660 C661 1.349 . S
C660 C662 1.327 . S
C660 H685 0.950 . S
C661 C660 1.349 . S
C661 C677 1.349 . S
C662 C660 1.327 . S
C662 C681 1.429 . S
C662 H686 0.950 . S
C663 C680 1.574 1_545 S
C663 C682 1.368 . S
C663 H687 0.949 . S
H664 C668 0.949 . S
C665 C666 1.349 . S
C665 C667 1.327 . S
C665 H688 0.950 . S
C666 C665 1.349 . S
C666 C678 1.349 . S
C667 C665 1.327 . S
C667 C683 1.429 . S
C667 H689 0.950 . S
C668 H664 0.949 . S
C668 C676 1.574 1_565 S
C668 C684 1.368 . S
H669 C677 0.950 . S
H670 C675 0.950 . S
H671 C676 0.949 . S
H672 C678 0.950 . S
H673 C679 0.950 . S
H674 C680 0.949 . S
C675 H670 0.950 . S
C675 C677 1.327 . S
C675 C681 1.429 . S
C676 C668 1.574 1_545 S
C676 H671 0.949 . S
C676 C682 1.368 . S
C677 C661 1.349 . S
C677 H669 0.950 . S
C677 C675 1.327 . S
C678 C666 1.349 . S
C678 H672 0.950 . S
C678 C679 1.327 . S
C679 H673 0.950 . S
C679 C678 1.327 . S
C679 C683 1.429 . S
C680 C663 1.574 1_565 S
C680 H674 0.949 . S
C680 C684 1.368 . S
C681 C662 1.429 . S
C681 C675 1.429 . S
C681 C682 1.523 . S
C682 C663 1.368 . S
C682 C676 1.368 . S
C682 C681 1.523 . S
C683 C667 1.429 . S
C683 C679 1.429 . S
C683 C684 1.523 . S
C684 C668 1.368 . S
C684 C680 1.368 . S
C684 C683 1.523 . S
H685 C660 0.950 . S
H686 C662 0.950 . S
H687 C663 0.949 . S
H688 C665 0.950 . S
H689 C667 0.950 . S
C690 C691 1.349 . S
C690 C692 1.327 . S
C690 H715 0.950 . S
C691 C690 1.349 . S
C691 C707 1.349 . S
C692 C690 1.327 . S
C692 C711 1.429 . S
C692 H716 0.950 . S
C693 C710 1.574 . S
C693 C712 1.368 . S
C693 H717 0.949 . S
H694 C698 0.949 . S
C695 C696 1.349 . S
C695 C697 1.327 . S
C695 H718 0.950 . S
C696 C695 1.349 . S
C696 C708 1.349 . S
C697 C695 1.327 . S
C697 C713 1.429 . S
C697 H719 0.950 . S
C698 H694 0.949 . S
C698 C706 1.574 . S
C698 C714 1.368 . S
H699 C707 0.950 . S
H700 C705 0.950 . S
H701 C706 0.949 . S
H702 C708 0.950 . S
H703 C709 0.950 . S
H704 C710 0.949 . S
C705 H700 0.950 . S
C705 C707 1.327 . S
C705 C711 1.429 . S
C706 C698 1.574 . S
C706 H701 0.949 . S
C706 C712 1.368 . S
C707 C691 1.349 . S
C707 H699 0.950 . S
C707 C705 1.327 . S
C708 C696 1.349 . S
C708 H702 0.950 . S
C708 C709 1.327 . S
C709 H703 0.950 . S
C709 C708 1.327 . S
C709 C713 1.429 . S
C710 C693 1.574 . S
C710 H704 0.949 . S
C710 C714 1.368 . S
C711 C692 1.429 . S
C711 C705 1.429 . S
C711 C712 1.523 . S
C712 C693 1.368 . S
C712 C706 1.368 . S
C712 C711 1.523 . S
C713 C697 1.429 . S
C713 C709 1.429 . S
C713 C714 1.523 . S
C714 C698 1.368 . S
C714 C710 1.368 . S
C714 C713 1.523 . S
H715 C690 0.950 . S
H716 C692 0.950 . S
H717 C693 0.949 . S
H718 C695 0.950 . S
H719 C697 0.950 . S
C720 C721 1.349 . S
C720 C722 1.327 . S
C720 H745 0.950 . S
C721 C720 1.349 . S
C721 C737 1.349 . S
C722 C720 1.327 . S
C722 C741 1.429 . S
C722 H746 0.950 . S
C723 C740 1.574 1_455 S
C723 C742 1.368 . S
C723 H747 0.949 . S
H724 C728 0.949 . S
C725 C726 1.349 . S
C725 C727 1.327 . S
C725 H748 0.950 . S
C726 C725 1.349 . S
C726 C738 1.349 . S
C727 C725 1.327 . S
C727 C743 1.429 . S
C727 H749 0.950 . S
C728 H724 0.949 . S
C728 C736 1.574 1_655 S
C728 C744 1.368 . S
H729 C737 0.950 . S
H730 C735 0.950 . S
H731 C736 0.949 . S
H732 C738 0.950 . S
H733 C739 0.950 . S
H734 C740 0.949 . S
C735 H730 0.950 . S
C735 C737 1.327 . S
C735 C741 1.429 . S
C736 C728 1.574 1_455 S
C736 H731 0.949 . S
C736 C742 1.368 . S
C737 C721 1.349 . S
C737 H729 0.950 . S
C737 C735 1.327 . S
C738 C726 1.349 . S
C738 H732 0.950 . S
C738 C739 1.327 . S
C739 H733 0.950 . S
C739 C738 1.327 . S
C739 C743 1.429 . S
C740 C723 1.574 1_655 S
C740 H734 0.949 . S
C740 C744 1.368 . S
C741 C722 1.429 . S
C741 C735 1.429 . S
C741 C742 1.523 . S
C742 C723 1.368 . S
C742 C736 1.368 . S
C742 C741 1.523 . S
C743 C727 1.429 . S
C743 C739 1.429 . S
C743 C744 1.523 . S
C744 C728 1.368 . S
C744 C740 1.368 . S
C744 C743 1.523 . S
H745 C720 0.950 . S
H746 C722 0.950 . S
H747 C723 0.949 . S
H748 C725 0.950 . S
H749 C727 0.950 . S
C750 C751 1.349 . S
C750 C752 1.327 . S
C750 H775 0.950 . S
C751 C750 1.349 . S
C751 C767 1.349 . S
C752 C750 1.327 . S
C752 C771 1.429 . S
C752 H776 0.950 . S
C753 C770 1.574 1_655 S
C753 C772 1.368 . S
C753 H777 0.949 . S
H754 C758 0.949 . S
C755 C756 1.349 . S
C755 C757 1.327 . S
C755 H778 0.950 . S
C756 C755 1.349 . S
C756 C768 1.349 . S
C757 C755 1.327 . S
C757 C773 1.429 . S
C757 H779 0.950 . S
C758 H754 0.949 . S
C758 C766 1.574 1_455 S
C758 C774 1.368 . S
H759 C767 0.950 . S
H760 C765 0.950 . S
H761 C766 0.949 . S
H762 C768 0.950 . S
H763 C769 0.950 . S
H764 C770 0.949 . S
C765 H760 0.950 . S
C765 C767 1.327 . S
C765 C771 1.429 . S
C766 C758 1.574 1_655 S
C766 H761 0.949 . S
C766 C772 1.368 . S
C767 C751 1.349 . S
C767 H759 0.950 . S
C767 C765 1.327 . S
C768 C756 1.349 . S
C768 H762 0.950 . S
C768 C769 1.327 . S
C769 H763 0.950 . S
C769 C768 1.327 . S
C769 C773 1.429 . S
C770 C753 1.574 1_455 S
C770 H764 0.949 . S
C770 C774 1.368 . S
C771 C752 1.429 . S
C771 C765 1.429 . S
C771 C772 1.523 . S
C772 C753 1.368 . S
C772 C766 1.368 . S
C772 C771 1.523 . S
C773 C757 1.429 . S
C773 C769 1.429 . S
C773 C774 1.523 . S
C774 C758 1.368 . S
C774 C770 1.368 . S
C774 C773 1.523 . S
H775 C750 0.950 . S
H776 C752 0.950 . S
H777 C753 0.949 . S
H778 C755 0.950 . S
H779 C757 0.950 . S
C780 C781 1.349 . S
C780 C782 1.327 . S
C780 H805 0.950 . S
C781 C780 1.349 . S
C781 C797 1.349 . S
C782 C780 1.327 . S
C782 C801 1.429 . S
C782 H806 0.950 . S
C783 C800 1.574 1_545 S
C783 C802 1.368 . S
C783 H807 0.949 . S
H784 C788 0.949 . S
C785 C786 1.349 . S
C785 C787 1.327 . S
C785 H808 0.950 . S
C786 C785 1.349 . S
C786 C798 1.349 . S
C787 C785 1.327 . S
C787 C803 1.429 . S
C787 H809 0.950 . S
C788 H784 0.949 . S
C788 C796 1.574 1_565 S
C788 C804 1.368 . S
H789 C797 0.950 . S
H790 C795 0.950 . S
H791 C796 0.949 . S
H792 C798 0.950 . S
H793 C799 0.950 . S
H794 C800 0.949 . S
C795 H790 0.950 . S
C795 C797 1.327 . S
C795 C801 1.429 . S
C796 C788 1.574 1_545 S
C796 H791 0.949 . S
C796 C802 1.368 . S
C797 C781 1.349 . S
C797 H789 0.950 . S
C797 C795 1.327 . S
C798 C786 1.349 . S
C798 H792 0.950 . S
C798 C799 1.327 . S
C799 H793 0.950 . S
C799 C798 1.327 . S
C799 C803 1.429 . S
C800 C783 1.574 1_565 S
C800 H794 0.949 . S
C800 C804 1.368 . S
C801 C782 1.429 . S
C801 C795 1.429 . S
C801 C802 1.523 . S
C802 C783 1.368 . S
C802 C796 1.368 . S
C802 C801 1.523 . S
C803 C787 1.429 . S
C803 C799 1.429 . S
C803 C804 1.523 . S
C804 C788 1.368 . S
C804 C800 1.368 . S
C804 C803 1.523 . S
H805 C780 0.950 . S
H806 C782 0.950 . S
H807 C783 0.949 . S
H808 C785 0.950 . S
H809 C787 0.950 . S
C810 C811 1.349 . S
C810 C812 1.327 . S
C810 H835 0.950 . S
C811 C810 1.349 . S
C811 C827 1.349 . S
C812 C810 1.327 . S
C812 C831 1.429 . S
C812 H836 0.950 . S
C813 C830 1.574 . S
C813 C832 1.368 . S
C813 H837 0.949 . S
H814 C818 0.949 . S
C815 C816 1.349 . S
C815 C817 1.327 . S
C815 H838 0.950 . S
C816 C815 1.349 . S
C816 C828 1.349 . S
C817 C815 1.327 . S
C817 C833 1.429 . S
C817 H839 0.950 . S
C818 H814 0.949 . S
C818 C826 1.574 . S
C818 C834 1.368 . S
H819 C827 0.950 . S
H820 C825 0.950 . S
H821 C826 0.949 . S
H822 C828 0.950 . S
H823 C829 0.950 . S
H824 C830 0.949 . S
C825 H820 0.950 . S
C825 C827 1.327 . S
C825 C831 1.429 . S
C826 C818 1.574 . S
C826 H821 0.949 . S
C826 C832 1.368 . S
C827 C811 1.349 . S
C827 H819 0.950 . S
C827 C825 1.327 . S
C828 C816 1.349 . S
C828 H822 0.950 . S
C828 C829 1.327 . S
C829 H823 0.950 . S
C829 C828 1.327 . S
C829 C833 1.429 . S
C830 C813 1.574 . S
C830 H824 0.949 . S
C830 C834 1.368 . S
C831 C812 1.429 . S
C831 C825 1.429 . S
C831 C832 1.523 . S
C832 C813 1.368 . S
C832 C826 1.368 . S
C832 C831 1.523 . S
C833 C817 1.429 . S
C833 C829 1.429 . S
C833 C834 1.523 . S
C834 C818 1.368 . S
C834 C830 1.368 . S
C834 C833 1.523 . S
H835 C810 0.950 . S
H836 C812 0.950 . S
H837 C813 0.949 . S
H838 C815 0.950 . S
H839 C817 0.950 . S
C840 C841 1.349 . S
C840 C842 1.327 . S
C840 H865 0.950 . S
C841 C840 1.349 . S
C841 C857 1.383 . S
C842 C840 1.327 . S
C842 C861 1.429 . S
C842 H866 0.950 . S
C843 C860 1.574 . S
C843 C862 1.368 1_554 S
C843 H867 0.949 . S
H844 C848 0.949 . S
C845 C846 1.349 . S
C845 C847 1.327 . S
C845 H868 0.950 . S
C846 C845 1.349 . S
C846 C858 1.383 . S
C847 C845 1.327 . S
C847 C863 1.429 . S
C847 H869 0.950 . S
C848 H844 0.949 . S
C848 C856 1.574 . S
C848 C864 1.368 1_556 S
H849 C857 0.927 1_554 S
H850 C855 0.950 . S
H851 C856 0.949 . S
H852 C858 0.927 1_556 S
H853 C859 0.950 . S
H854 C860 0.949 . S
C855 H850 0.950 . S
C855 C857 1.319 1_554 S
C855 C861 1.429 1_554 S
C856 C848 1.574 . S
C856 H851 0.949 . S
C856 C862 1.368 . S
C857 C841 1.383 . S
C857 H849 0.927 1_556 S
C857 C855 1.319 1_556 S
C858 C846 1.383 . S
C858 H852 0.927 1_554 S
C858 C859 1.319 1_554 S
C859 H853 0.950 . S
C859 C858 1.319 1_556 S
C859 C863 1.429 1_556 S
C860 C843 1.574 . S
C860 H854 0.949 . S
C860 C864 1.368 . S
C861 C842 1.429 . S
C861 C855 1.429 1_556 S
C861 C862 1.523 . S
C862 C843 1.368 1_556 S
C862 C856 1.368 . S
C862 C861 1.523 . S
C863 C847 1.429 . S
C863 C859 1.429 1_554 S
C863 C864 1.523 . S
C864 C848 1.368 1_554 S
C864 C860 1.368 . S
C864 C863 1.523 . S
H865 C840 0.950 . S
H866 C842 0.950 . S
H867 C843 0.949 . S
H868 C845 0.950 . S
H869 C847 0.950 . S
C870 C871 1.349 . S
C870 C872 1.327 . S
C870 H895 0.950 . S
C871 C870 1.349 . S
C871 C887 1.349 . S
C872 C870 1.327 . S
C872 C891 1.429 . S
C872 H896 0.950 . S
C873 C890 1.574 . S
C873 C892 1.368 . S
C873 H897 0.949 . S
H874 C878 0.949 . S
C875 C876 1.349 . S
C875 C877 1.327 . S
C875 H898 0.950 . S
C876 C875 1.349 . S
C876 C888 1.349 . S
C877 C875 1.327 . S
C877 C893 1.429 . S
C877 H899 0.950 . S
C878 H874 0.949 . S
C878 C886 1.574 . S
C878 C894 1.368 . S
H879 C887 0.950 . S
H880 C885 0.950 . S
H881 C886 0.949 . S
H882 C888 0.950 . S
H883 C889 0.950 . S
H884 C890 0.949 . S
C885 H880 0.950 . S
C885 C887 1.327 . S
C885 C891 1.429 . S
C886 C878 1.574 . S
C886 H881 0.949 . S
C886 C892 1.368 . S
C887 C871 1.349 . S
C887 H879 0.950 . S
C887 C885 1.327 . S
C888 C876 1.349 . S
C888 H882 0.950 . S
C888 C889 1.327 . S
C889 H883 0.950 . S
C889 C888 1.327 . S
C889 C893 1.429 . S
C890 C873 1.574 . S
C890 H884 0.949 . S
C890 C894 1.368 . S
C891 C872 1.429 . S
C891 C885 1.429 . S
C891 C892 1.523 . S
C892 C873 1.368 . S
C892 C886 1.368 . S
C892 C891 1.523 . S
C893 C877 1.429 . S
C893 C889 1.429 . S
C893 C894 1.523 . S
C894 C878 1.368 . S
C894 C890 1.368 . S
C894 C893 1.523 . S
H895 C870 0.950 . S
H896 C872 0.950 . S
H897 C873 0.949 . S
H898 C875 0.950 . S
H899 C877 0.950 . S
C900 C901 1.349 . S
C900 C902 1.327 . S
C900 H925 0.950 . S
C901 C900 1.349 . S
C901 C917 1.349 . S
C902 C900 1.327 . S
C902 C921 1.429 . S
C902 H926 0.950 . S
C903 C920 1.574 . S
C903 C922 1.368 . S
C903 H927 0.949 . S
H904 C908 0.949 . S
C905 C906 1.349 . S
C905 C907 1.327 . S
C905 H928 0.950 . S
C906 C905 1.349 . S
C906 C918 1.349 . S
C907 C905 1.327 . S
C907 C923 1.429 . S
C907 H929 0.950 . S
C908 H904 0.949 . S
C908 C916 1.574 . S
C908 C924 1.368 . S
H909 C917 0.950 . S
H910 C915 0.950 . S
H911 C916 0.949 . S
H912 C918 0.950 . S
H913 C919 0.950 . S
H914 C920 0.949 . S
C915 H910 0.950 . S
C915 C917 1.327 . S
C915 C921 1.429 . S
C916 C908 1.574 . S
C916 H911 0.949 . S
C916 C922 1.368 . S
C917 C901 1.349 . S
C917 H909 0.950 . S
C917 C915 1.327 . S
C918 C906 1.349 . S
C918 H912 0.950 . S
C918 C919 1.327 . S
C919 H913 0.950 . S
C919 C918 1.327 . S
C919 C923 1.429 . S
C920 C903 1.574 . S
C920 H914 0.949 . S
C920 C924 1.368 . S
C921 C902 1.429 . S
C921 C915 1.429 . S
C921 C922 1.523 . S
C922 C903 1.368 . S
C922 C916 1.368 . S
C922 C921 1.523 . S
C923 C907 1.429 . S
C923 C919 1.429 . S
C923 C924 1.523 . S
C924 C908 1.368 . S
C924 C920 1.368 . S
C924 C923 1.523 . S
H925 C900 0.950 . S
H926 C902 0.950 . S
H927 C903 0.949 . S
H928 C905 0.950 . S
H929 C907 0.950 . S
C930 C931 1.349 . S
C930 C932 1.327 . S
C930 H955 0.950 . S
C931 C930 1.349 . S
C931 C947 1.382 . S
C932 C930 1.327 . S
C932 C951 1.429 . S
C932 H956 0.950 . S
C933 C950 1.574 . S
C933 C952 1.368 1_556 S
C933 H957 0.949 . S
H934 C938 0.949 . S
C935 C936 1.349 . S
C935 C937 1.327 . S
C935 H958 0.950 . S
C936 C935 1.349 . S
C936 C948 1.382 . S
C937 C935 1.327 . S
C937 C953 1.429 . S
C937 H959 0.950 . S
C938 H934 0.949 . S
C938 C946 1.574 . S
C938 C954 1.368 1_554 S
H939 C947 0.928 1_556 S
H940 C945 0.950 . S
H941 C946 0.949 . S
H942 C948 0.928 1_554 S
H943 C949 0.950 . S
H944 C950 0.949 . S
C945 H940 0.950 . S
C945 C947 1.319 1_556 S
C945 C951 1.429 1_556 S
C946 C938 1.574 . S
C946 H941 0.949 . S
C946 C952 1.368 . S
C947 C931 1.382 . S
C947 H939 0.928 1_554 S
C947 C945 1.319 1_554 S
C948 C936 1.382 . S
C948 H942 0.928 1_556 S
C948 C949 1.319 1_556 S
C949 H943 0.950 . S
C949 C948 1.319 1_554 S
C949 C953 1.429 1_554 S
C950 C933 1.574 . S
C950 H944 0.949 . S
C950 C954 1.368 . S
C951 C932 1.429 . S
C951 C945 1.429 1_554 S
C951 C952 1.523 . S
C952 C933 1.368 1_554 S
C952 C946 1.368 . S
C952 C951 1.523 . S
C953 C937 1.429 . S
C953 C949 1.429 1_556 S
C953 C954 1.523 . S
C954 C938 1.368 1_556 S
C954 C950 1.368 . S
C954 C953 1.523 . S
H955 C930 0.950 . S
H956 C932 0.950 . S
H957 C933 0.949 . S
H958 C935 0.950 . S
H959 C937 0.950 . S
C960 C961 1.349 . S
C960 C962 1.327 . S
C960 H985 0.950 . S
C961 C960 1.349 . S
C961 C977 1.349 . S
C962 C960 1.327 . S
C962 C981 1.429 . S
C962 H986 0.950 . S
C963 C980 1.574 . S
C963 C982 1.368 . S
C963 H987 0.949 . S
H964 C968 0.949 . S
C965 C966 1.349 . S
C965 C967 1.327 . S
C965 H988 0.950 . S
C966 C965 1.349 . S
C966 C978 1.349 . S
C967 C965 1.327 . S
C967 C983 1.429 . S
C967 H989 0.950 . S
C968 H964 0.949 . S
C968 C976 1.574 . S
C968 C984 1.368 . S
H969 C977 0.950 . S
H970 C975 0.950 . S
H971 C976 0.949 . S
H972 C978 0.950 . S
H973 C979 0.950 . S
H974 C980 0.949 . S
C975 H970 0.950 . S
C975 C977 1.327 . S
C975 C981 1.429 . S
C976 C968 1.574 . S
C976 H971 0.949 . S
C976 C982 1.368 . S
C977 C961 1.349 . S
C977 H969 0.950 . S
C977 C975 1.327 . S
C978 C966 1.349 . S
C978 H972 0.950 . S
C978 C979 1.327 . S
C979 H973 0.950 . S
C979 C978 1.327 . S
C979 C983 1.429 . S
C980 C963 1.574 . S
C980 H974 0.949 . S
C980 C984 1.368 . S
C981 C962 1.429 . S
C981 C975 1.429 . S
C981 C982 1.523 . S
C982 C963 1.368 . S
C982 C976 1.368 . S
C982 C981 1.523 . S
C983 C967 1.429 . S
C983 C979 1.429 . S
C983 C984 1.523 . S
C984 C968 1.368 . S
C984 C980 1.368 . S
C984 C983 1.523 . S
H985 C960 0.950 . S
H986 C962 0.950 . S
H987 C963 0.949 . S
H988 C965 0.950 . S
H989 C967 0.950 . S
C990 C991 1.349 . S
C990 C992 1.327 . S
C990 H1015 0.950 . S
C991 C990 1.349 . S
C991 C1007 1.349 . S
C992 C990 1.327 . S
C992 C1011 1.429 . S
C992 H1016 0.950 . S
C993 C1010 1.574 . S
C993 C1012 1.368 . S
C993 H1017 0.949 . S
H994 C998 0.949 . S
C995 C996 1.349 . S
C995 C997 1.327 . S
C995 H1018 0.950 . S
C996 C995 1.349 . S
C996 C1008 1.349 . S
C997 C995 1.327 . S
C997 C1013 1.429 . S
C997 H1019 0.950 . S
C998 H994 0.949 . S
C998 C1006 1.574 . S
C998 C1014 1.368 . S
H999 C1007 0.950 . S
H1000 C1005 0.950 . S
H1001 C1006 0.949 . S
H1002 C1008 0.950 . S
H1003 C1009 0.950 . S
H1004 C1010 0.949 . S
C1005 H1000 0.950 . S
C1005 C1007 1.327 . S
C1005 C1011 1.429 . S
C1006 C998 1.574 . S
C1006 H1001 0.949 . S
C1006 C1012 1.368 . S
C1007 C991 1.349 . S
C1007 H999 0.950 . S
C1007 C1005 1.327 . S
C1008 C996 1.349 . S
C1008 H1002 0.950 . S
C1008 C1009 1.327 . S
C1009 H1003 0.950 . S
C1009 C1008 1.327 . S
C1009 C1013 1.429 . S
C1010 C993 1.574 . S
C1010 H1004 0.949 . S
C1010 C1014 1.368 . S
C1011 C992 1.429 . S
C1011 C1005 1.429 . S
C1011 C1012 1.523 . S
C1012 C993 1.368 . S
C1012 C1006 1.368 . S
C1012 C1011 1.523 . S
C1013 C997 1.429 . S
C1013 C1009 1.429 . S
C1013 C1014 1.523 . S
C1014 C998 1.368 . S
C1014 C1010 1.368 . S
C1014 C1013 1.523 . S
H1015 C990 0.950 . S
H1016 C992 0.950 . S
H1017 C993 0.949 . S
H1018 C995 0.950 . S
H1019 C997 0.950 . S
C481 C2 1.908 . S
C486 C242 1.908 . S
C511 C42 1.909 . S
C516 C282 1.909 . S
C541 C82 1.909 . S
C546 C322 1.909 . S
C571 C362 1.908 . S
C576 C122 1.908 . S
C601 C162 1.908 . S
C606 C402 1.909 . S
C631 C442 1.909 . S
C636 C202 1.909 . S
C661 C21 1.757 . S
C666 C141 1.757 . S
C691 C61 1.757 . S
C696 C181 1.757 . S
C721 C221 1.756 . S
C726 C101 1.756 . S
C751 C261 1.757 . S
C756 C381 1.757 . S
C781 C421 1.756 . S
C786 C301 1.756 . S
C811 C461 1.757 . S
C816 C341 1.757 . S
C841 C415 1.921 1_455 S
C846 C15 1.921 . S
C871 C455 1.922 1_545 S
C876 C55 1.922 1_655 S
C901 C95 1.921 1_565 S
C906 C255 1.921 . S
C931 C135 1.921 . S
C936 C295 1.921 1_655 S
C961 C335 1.922 1_565 S
C966 C175 1.922 1_455 S
C991 C215 1.921 1_545 S
C996 C375 1.921 . S
