# Generated by pormake.
# Topology ukd, (4)-cn, num edge types: 1
# Building blocks:
#     Node 0, Type 0, BuildingBlock: AZAVOO_clean_sbu_0, # of connection points: 4
#     Node 1, Type 0, BuildingBlock: AZAVOO_clean_sbu_0, # of connection points: 4
#     Node 2, Type 0, BuildingBlock: AZAVOO_clean_sbu_0, # of connection points: 4
#     Node 3, Type 0, BuildingBlock: AZAVOO_clean_sbu_0, # of connection points: 4
#     Node 4, Type 0, BuildingBlock: AZAVOO_clean_sbu_0, # of connection points: 4
#     Node 5, Type 0, BuildingBlock: AZAVOO_clean_sbu_0, # of connection points: 4
#     Node 6, Type 0, BuildingBlock: AZAVOO_clean_sbu_0, # of connection points: 4
#     Node 7, Type 0, BuildingBlock: AZAVOO_clean_sbu_0, # of connection points: 4
#     Node 8, Type 0, BuildingBlock: AZAVOO_clean_sbu_0, # of connection points: 4
#     Node 9, Type 0, BuildingBlock: AZAVOO_clean_sbu_0, # of connection points: 4
#     Node 10, Type 0, BuildingBlock: AZAVOO_clean_sbu_0, # of connection points: 4
#     Node 11, Type 0, BuildingBlock: AZAVOO_clean_sbu_0, # of connection points: 4
#     Node 12, Type 0, BuildingBlock: AZAVOO_clean_sbu_0, # of connection points: 4
#     Node 13, Type 0, BuildingBlock: AZAVOO_clean_sbu_0, # of connection points: 4
#     Node 14, Type 0, BuildingBlock: AZAVOO_clean_sbu_0, # of connection points: 4
#     Node 15, Type 0, BuildingBlock: AZAVOO_clean_sbu_0, # of connection points: 4
#     Node 16, Type 0, BuildingBlock: AZAVOO_clean_sbu_0, # of connection points: 4
#     Node 17, Type 0, BuildingBlock: AZAVOO_clean_sbu_0, # of connection points: 4
#     Node 18, Type 0, BuildingBlock: AZAVOO_clean_sbu_0, # of connection points: 4
#     Node 19, Type 0, BuildingBlock: AZAVOO_clean_sbu_0, # of connection points: 4
#     Node 20, Type 0, BuildingBlock: AZAVOO_clean_sbu_0, # of connection points: 4
#     Node 21, Type 0, BuildingBlock: AZAVOO_clean_sbu_0, # of connection points: 4
#     Node 22, Type 0, BuildingBlock: AZAVOO_clean_sbu_0, # of connection points: 4
#     Node 23, Type 0, BuildingBlock: AZAVOO_clean_sbu_0, # of connection points: 4
#     Node 24, Type 0, BuildingBlock: AZAVOO_clean_sbu_0, # of connection points: 4
#     Node 25, Type 0, BuildingBlock: AZAVOO_clean_sbu_0, # of connection points: 4
#     Node 26, Type 0, BuildingBlock: AZAVOO_clean_sbu_0, # of connection points: 4
#     Node 27, Type 0, BuildingBlock: AZAVOO_clean_sbu_0, # of connection points: 4
#     Node 28, Type 0, BuildingBlock: AZAVOO_clean_sbu_0, # of connection points: 4
#     Node 29, Type 0, BuildingBlock: AZAVOO_clean_sbu_0, # of connection points: 4
#     Node 30, Type 0, BuildingBlock: AZAVOO_clean_sbu_0, # of connection points: 4
#     Node 31, Type 0, BuildingBlock: AZAVOO_clean_sbu_0, # of connection points: 4
#     Edge 32, Type (0, 0), BuildingBlock: TEMPAE_clean_linker_10, # of connection points: 2
#     Edge 33, Type (0, 0), BuildingBlock: TEMPAE_clean_linker_10, # of connection points: 2
#     Edge 34, Type (0, 0), BuildingBlock: TEMPAE_clean_linker_10, # of connection points: 2
#     Edge 35, Type (0, 0), BuildingBlock: TEMPAE_clean_linker_10, # of connection points: 2
#     Edge 36, Type (0, 0), BuildingBlock: TEMPAE_clean_linker_10, # of connection points: 2
#     Edge 37, Type (0, 0), BuildingBlock: TEMPAE_clean_linker_10, # of connection points: 2
#     Edge 38, Type (0, 0), BuildingBlock: TEMPAE_clean_linker_10, # of connection points: 2
#     Edge 39, Type (0, 0), BuildingBlock: TEMPAE_clean_linker_10, # of connection points: 2
#     Edge 40, Type (0, 0), BuildingBlock: TEMPAE_clean_linker_10, # of connection points: 2
#     Edge 41, Type (0, 0), BuildingBlock: TEMPAE_clean_linker_10, # of connection points: 2
#     Edge 42, Type (0, 0), BuildingBlock: TEMPAE_clean_linker_10, # of connection points: 2
#     Edge 43, Type (0, 0), BuildingBlock: TEMPAE_clean_linker_10, # of connection points: 2
#     Edge 44, Type (0, 0), BuildingBlock: TEMPAE_clean_linker_10, # of connection points: 2
#     Edge 45, Type (0, 0), BuildingBlock: TEMPAE_clean_linker_10, # of connection points: 2
#     Edge 46, Type (0, 0), BuildingBlock: TEMPAE_clean_linker_10, # of connection points: 2
#     Edge 47, Type (0, 0), BuildingBlock: TEMPAE_clean_linker_10, # of connection points: 2
#     Edge 48, Type (0, 0), BuildingBlock: TEMPAE_clean_linker_10, # of connection points: 2
#     Edge 49, Type (0, 0), BuildingBlock: TEMPAE_clean_linker_10, # of connection points: 2
#     Edge 50, Type (0, 0), BuildingBlock: TEMPAE_clean_linker_10, # of connection points: 2
#     Edge 51, Type (0, 0), BuildingBlock: TEMPAE_clean_linker_10, # of connection points: 2
#     Edge 52, Type (0, 0), BuildingBlock: TEMPAE_clean_linker_10, # of connection points: 2
#     Edge 53, Type (0, 0), BuildingBlock: TEMPAE_clean_linker_10, # of connection points: 2
#     Edge 54, Type (0, 0), BuildingBlock: TEMPAE_clean_linker_10, # of connection points: 2
#     Edge 55, Type (0, 0), BuildingBlock: TEMPAE_clean_linker_10, # of connection points: 2
#     Edge 56, Type (0, 0), BuildingBlock: TEMPAE_clean_linker_10, # of connection points: 2
#     Edge 57, Type (0, 0), BuildingBlock: TEMPAE_clean_linker_10, # of connection points: 2
#     Edge 58, Type (0, 0), BuildingBlock: TEMPAE_clean_linker_10, # of connection points: 2
#     Edge 59, Type (0, 0), BuildingBlock: TEMPAE_clean_linker_10, # of connection points: 2
#     Edge 60, Type (0, 0), BuildingBlock: TEMPAE_clean_linker_10, # of connection points: 2
#     Edge 61, Type (0, 0), BuildingBlock: TEMPAE_clean_linker_10, # of connection points: 2
#     Edge 62, Type (0, 0), BuildingBlock: TEMPAE_clean_linker_10, # of connection points: 2
#     Edge 63, Type (0, 0), BuildingBlock: TEMPAE_clean_linker_10, # of connection points: 2
#     Edge 64, Type (0, 0), BuildingBlock: TEMPAE_clean_linker_10, # of connection points: 2
#     Edge 65, Type (0, 0), BuildingBlock: TEMPAE_clean_linker_10, # of connection points: 2
#     Edge 66, Type (0, 0), BuildingBlock: TEMPAE_clean_linker_10, # of connection points: 2
#     Edge 67, Type (0, 0), BuildingBlock: TEMPAE_clean_linker_10, # of connection points: 2
#     Edge 68, Type (0, 0), BuildingBlock: TEMPAE_clean_linker_10, # of connection points: 2
#     Edge 69, Type (0, 0), BuildingBlock: TEMPAE_clean_linker_10, # of connection points: 2
#     Edge 70, Type (0, 0), BuildingBlock: TEMPAE_clean_linker_10, # of connection points: 2
#     Edge 71, Type (0, 0), BuildingBlock: TEMPAE_clean_linker_10, # of connection points: 2
#     Edge 72, Type (0, 0), BuildingBlock: TEMPAE_clean_linker_10, # of connection points: 2
#     Edge 73, Type (0, 0), BuildingBlock: TEMPAE_clean_linker_10, # of connection points: 2
#     Edge 74, Type (0, 0), BuildingBlock: TEMPAE_clean_linker_10, # of connection points: 2
#     Edge 75, Type (0, 0), BuildingBlock: TEMPAE_clean_linker_10, # of connection points: 2
#     Edge 76, Type (0, 0), BuildingBlock: TEMPAE_clean_linker_10, # of connection points: 2
#     Edge 77, Type (0, 0), BuildingBlock: TEMPAE_clean_linker_10, # of connection points: 2
#     Edge 78, Type (0, 0), BuildingBlock: TEMPAE_clean_linker_10, # of connection points: 2
#     Edge 79, Type (0, 0), BuildingBlock: TEMPAE_clean_linker_10, # of connection points: 2
#     Edge 80, Type (0, 0), BuildingBlock: TEMPAE_clean_linker_10, # of connection points: 2
#     Edge 81, Type (0, 0), BuildingBlock: TEMPAE_clean_linker_10, # of connection points: 2
#     Edge 82, Type (0, 0), BuildingBlock: TEMPAE_clean_linker_10, # of connection points: 2
#     Edge 83, Type (0, 0), BuildingBlock: TEMPAE_clean_linker_10, # of connection points: 2
#     Edge 84, Type (0, 0), BuildingBlock: TEMPAE_clean_linker_10, # of connection points: 2
#     Edge 85, Type (0, 0), BuildingBlock: TEMPAE_clean_linker_10, # of connection points: 2
#     Edge 86, Type (0, 0), BuildingBlock: TEMPAE_clean_linker_10, # of connection points: 2
#     Edge 87, Type (0, 0), BuildingBlock: TEMPAE_clean_linker_10, # of connection points: 2
#     Edge 88, Type (0, 0), BuildingBlock: TEMPAE_clean_linker_10, # of connection points: 2
#     Edge 89, Type (0, 0), BuildingBlock: TEMPAE_clean_linker_10, # of connection points: 2
#     Edge 90, Type (0, 0), BuildingBlock: TEMPAE_clean_linker_10, # of connection points: 2
#     Edge 91, Type (0, 0), BuildingBlock: TEMPAE_clean_linker_10, # of connection points: 2
#     Edge 92, Type (0, 0), BuildingBlock: TEMPAE_clean_linker_10, # of connection points: 2
#     Edge 93, Type (0, 0), BuildingBlock: TEMPAE_clean_linker_10, # of connection points: 2
#     Edge 94, Type (0, 0), BuildingBlock: TEMPAE_clean_linker_10, # of connection points: 2
#     Edge 95, Type (0, 0), BuildingBlock: TEMPAE_clean_linker_10, # of connection points: 2
# Relax obj value: 0.164
# Max RMSD: 0.196
# Mean RMSD: 0.196
data_MOF--net-ukd--node1-AZAVOO_clean_sbu_0--edge1-TEMPAE_clean_linker_10
_symmetry_space_group_name_H-M    P1
_symmetry_Int_Tables_number       1
_symmetry_cell_setting            triclinic
loop_
_symmetry_equiv_pos_as_xyz
'x, y, z'
_cell_length_a     41.65628
_cell_length_b     41.660954
_cell_length_c     80.636821
_cell_angle_alpha  89.998561
_cell_angle_beta   90.006304
_cell_angle_gamma 89.997736
loop_
_atom_site_label
_atom_site_type_symbol
_atom_site_fract_x
_atom_site_fract_y
_atom_site_fract_z
_atom_type_partial_charge
Mg0 Mg 0.24772 0.25987 0.35653 0.0
O1 O 0.20678 0.22406 0.35232 0.0
O2 O 0.16577 0.25025 0.34054 0.0
Mg3 Mg 0.17931 0.30353 0.33848 0.0
C4 C 0.17855 0.22451 0.34609 0.0
C5 C 0.27883 0.19584 0.37037 0.0
O6 O 0.25209 0.19532 0.379 0.0
O7 O 0.25709 0.25975 0.3286 0.0
O8 O 0.21668 0.29013 0.31912 0.0
O9 O 0.22787 0.27192 0.38187 0.0
O10 O 0.21384 0.29602 0.35857 0.0
C11 C 0.24244 0.27419 0.31684 0.0
C12 C 0.20929 0.29189 0.37418 0.0
O13 O 0.2837 0.21887 0.36031 0.0
Mg14 Mg 0.99237 0.99012 0.59902 0.0
O15 O 0.02832 0.94917 0.59499 0.0
O16 O 0.00131 0.90626 0.58564 0.0
Mg17 Mg 0.94818 0.9199 0.58323 0.0
C18 C 0.02737 0.92004 0.59003 0.0
C19 C 0.05097 0.02555 0.61494 0.0
O20 O 0.04631 0.00262 0.62587 0.0
O21 O 0.99106 0.99744 0.57095 0.0
O22 O 0.96107 0.95564 0.56284 0.0
O23 O 0.98173 0.97248 0.62489 0.0
O24 O 0.95644 0.9562 0.60234 0.0
C25 C 0.97649 0.98141 0.55973 0.0
C26 C 0.96143 0.95316 0.61798 0.0
O27 O 0.03317 0.02657 0.60213 0.0
Mg28 Mg 0.25704 0.73757 0.84678 0.0
O29 O 0.29926 0.77322 0.84748 0.0
O30 O 0.34316 0.74831 0.83801 0.0
Mg31 Mg 0.32929 0.69756 0.83047 0.0
C32 C 0.32912 0.77315 0.84378 0.0
C33 C 0.2212 0.7945 0.8651 0.0
O34 O 0.24316 0.78827 0.87635 0.0
O35 O 0.25369 0.74488 0.8187 0.0
O36 O 0.29874 0.72035 0.81027 0.0
O37 O 0.2717 0.71822 0.87182 0.0
O38 O 0.28896 0.69941 0.84788 0.0
C39 C 0.27318 0.7362 0.8073 0.0
C40 C 0.29037 0.69884 0.86378 0.0
O41 O 0.22112 0.77836 0.8517 0.0
Mg42 Mg 0.51711 0.01638 0.09442 0.0
O43 O 0.47863 0.05543 0.09669 0.0
O44 O 0.4998 0.10309 0.09005 0.0
Mg45 Mg 0.55103 0.09397 0.08126 0.0
C46 C 0.4763 0.08578 0.09485 0.0
C47 C 0.46404 0.97556 0.1122 0.0
O48 O 0.47114 0.9961 0.12401 0.0
O49 O 0.50972 0.01677 0.06631 0.0
O50 O 0.53043 0.06484 0.05982 0.0
O51 O 0.53599 0.02897 0.11991 0.0
O52 O 0.55299 0.05057 0.09656 0.0
C53 C 0.51671 0.0386 0.05575 0.0
C54 C 0.55399 0.04979 0.11245 0.0
O55 O 0.47854 0.97774 0.09835 0.0
Mg56 Mg 0.2549 0.74429 0.13525 0.0
O57 O 0.2099 0.77374 0.14098 0.0
O58 O 0.17039 0.74069 0.1489 0.0
Mg59 Mg 0.19119 0.68976 0.14954 0.0
C60 C 0.18105 0.76878 0.1457 0.0
C61 C 0.31531 0.78827 0.13426 0.0
O62 O 0.32832 0.76001 0.13697 0.0
O63 O 0.26338 0.74037 0.16315 0.0
O64 O 0.22478 0.70564 0.17044 0.0
O65 O 0.23605 0.73604 0.10949 0.0
O66 O 0.22644 0.70419 0.13086 0.0
C67 C 0.24876 0.72345 0.17401 0.0
C68 C 0.22089 0.71173 0.11569 0.0
O69 O 0.2849 0.79029 0.1333 0.0
Mg70 Mg 0.50454 0.98298 0.39852 0.0
O71 O 0.46507 0.94439 0.39811 0.0
O72 O 0.48636 0.89746 0.40604 0.0
Mg73 Mg 0.53868 0.90644 0.41307 0.0
C74 C 0.46268 0.91432 0.40101 0.0
C75 C 0.44519 0.02059 0.38413 0.0
O76 O 0.44503 0.99556 0.37422 0.0
O77 O 0.50051 0.98552 0.42671 0.0
O78 O 0.52138 0.93821 0.43429 0.0
O79 O 0.51991 0.96898 0.37268 0.0
O80 O 0.53859 0.94705 0.39571 0.0
C81 C 0.50852 0.96515 0.43781 0.0
C82 C 0.53721 0.94713 0.37978 0.0
O83 O 0.46665 0.02247 0.39532 0.0
Mg84 Mg 0.25919 0.25669 0.63869 0.0
O85 O 0.30426 0.22759 0.64483 0.0
O86 O 0.34371 0.26106 0.6524 0.0
Mg87 Mg 0.32256 0.31185 0.65267 0.0
C88 C 0.33309 0.23284 0.6495 0.0
C89 C 0.19961 0.21129 0.63965 0.0
O90 O 0.18649 0.23851 0.64432 0.0
O91 O 0.25025 0.26154 0.66646 0.0
O92 O 0.28868 0.29657 0.67361 0.0
O93 O 0.27805 0.26427 0.61293 0.0
O94 O 0.28738 0.2968 0.63408 0.0
C95 C 0.26466 0.27885 0.67723 0.0
C96 C 0.29293 0.2889 0.61896 0.0
O97 O 0.22965 0.2105 0.63688 0.0
Mg98 Mg 0.99415 0.00759 0.89183 0.0
O99 O 0.0267 0.05162 0.89322 0.0
O100 O 0.99854 0.09382 0.9023 0.0
Mg101 Mg 0.94766 0.07611 0.90794 0.0
C102 C 0.02466 0.08121 0.89719 0.0
C103 C 0.03747 0.94593 0.89046 0.0
O104 O 0.01101 0.93371 0.89669 0.0
O105 O 0.99826 0.00256 0.92005 0.0
O106 O 0.96716 0.04354 0.92825 0.0
O107 O 0.97681 0.02344 0.86649 0.0
O108 O 0.95394 0.03698 0.8901 0.0
C109 C 0.98461 0.01911 0.93141 0.0
C110 C 0.9552 0.03993 0.87429 0.0
O111 O 0.03836 0.97582 0.88726 0.0
Mg112 Mg 0.75516 0.73707 0.65057 0.0
O113 O 0.79822 0.77102 0.65163 0.0
O114 O 0.83997 0.74483 0.6626 0.0
Mg115 Mg 0.82403 0.69335 0.66814 0.0
C116 C 0.82737 0.77019 0.65653 0.0
C117 C 0.71019 0.78378 0.6309 0.0
O118 O 0.71859 0.76384 0.61905 0.0
O119 O 0.74948 0.74286 0.67866 0.0
O120 O 0.79025 0.71264 0.68796 0.0
O121 O 0.77174 0.71921 0.6256 0.0
O122 O 0.78601 0.69792 0.6495 0.0
C123 C 0.76553 0.73007 0.69045 0.0
C124 C 0.78913 0.69873 0.63367 0.0
O125 O 0.72151 0.77956 0.6454 0.0
Mg126 Mg 0.99779 0.01424 0.39918 0.0
O127 O 0.96071 0.05501 0.39857 0.0
O128 O 0.98381 0.10065 0.40712 0.0
Mg129 Mg 0.035 0.0883 0.415 0.0
C130 C 0.95961 0.08506 0.40168 0.0
C131 C 0.96292 0.94785 0.39419 0.0
O132 O 0.99235 0.93749 0.3966 0.0
O133 O 0.99143 0.01097 0.42725 0.0
O134 O 0.014 0.05704 0.43553 0.0
O135 O 0.01551 0.028 0.37379 0.0
O136 O 0.03415 0.04825 0.39723 0.0
C137 C 0.99944 0.03078 0.43861 0.0
C138 C 0.03372 0.04859 0.38127 0.0
O139 O 0.95752 0.97787 0.39465 0.0
Mg140 Mg 0.75556 0.26314 0.13954 0.0
O141 O 0.71106 0.2327 0.14479 0.0
O142 O 0.67025 0.26451 0.15227 0.0
Mg143 Mg 0.68979 0.31597 0.15305 0.0
C144 C 0.68191 0.23676 0.14923 0.0
C145 C 0.8164 0.22008 0.13615 0.0
O146 O 0.82936 0.24883 0.13629 0.0
O147 O 0.7627 0.26717 0.16752 0.0
O148 O 0.7229 0.30094 0.1743 0.0
O149 O 0.73778 0.27123 0.11358 0.0
O150 O 0.7265 0.30266 0.13491 0.0
C151 C 0.74716 0.28376 0.17817 0.0
C152 C 0.72194 0.29523 0.11964 0.0
O153 O 0.78613 0.21758 0.13776 0.0
Mg154 Mg 0.49695 0.99959 0.89487 0.0
O155 O 0.53078 0.95734 0.89945 0.0
O156 O 0.50379 0.91777 0.91198 0.0
Mg157 Mg 0.45126 0.93399 0.91439 0.0
C158 C 0.52971 0.92944 0.906 0.0
C159 C 0.53874 0.0623 0.89165 0.0
O160 O 0.51197 0.07497 0.89726 0.0
O161 O 0.49868 0.01088 0.92265 0.0
O162 O 0.46707 0.97207 0.93282 0.0
O163 O 0.483 0.97888 0.87006 0.0
O164 O 0.45897 0.96734 0.89375 0.0
C165 C 0.48395 0.99735 0.93467 0.0
C166 C 0.46236 0.96176 0.87817 0.0
O167 O 0.54014 0.03209 0.88953 0.0
Mg168 Mg 0.75895 0.26787 0.84629 0.0
O169 O 0.80135 0.23289 0.84474 0.0
O170 O 0.84462 0.25969 0.83577 0.0
Mg171 Mg 0.82944 0.31147 0.83037 0.0
C172 C 0.83098 0.23395 0.84069 0.0
C173 C 0.72307 0.21139 0.86436 0.0
O174 O 0.74379 0.21932 0.87595 0.0
O175 O 0.7542 0.26399 0.81814 0.0
O176 O 0.79634 0.29342 0.80984 0.0
O177 O 0.77486 0.28435 0.87173 0.0
O178 O 0.79033 0.30638 0.84823 0.0
C179 C 0.77126 0.27684 0.80675 0.0
C180 C 0.79257 0.30515 0.86408 0.0
O181 O 0.72383 0.22622 0.85057 0.0
Mg182 Mg 0.49971 0.00965 0.59833 0.0
O183 O 0.53452 0.05151 0.59492 0.0
O184 O 0.50777 0.09427 0.58537 0.0
Mg185 Mg 0.45551 0.07885 0.58148 0.0
C186 C 0.53365 0.08071 0.59015 0.0
C187 C 0.53648 0.94768 0.60828 0.0
O188 O 0.5066 0.93939 0.61128 0.0
O189 O 0.50099 0.00175 0.5703 0.0
O190 O 0.4713 0.04332 0.56152 0.0
O191 O 0.48581 0.02832 0.62365 0.0
O192 O 0.46155 0.04147 0.60034 0.0
C193 C 0.48726 0.01771 0.55876 0.0
C194 C 0.46441 0.04541 0.61605 0.0
O195 O 0.54208 0.9756 0.60261 0.0
Mg196 Mg 0.74846 0.73284 0.35218 0.0
O197 O 0.70589 0.76742 0.35034 0.0
O198 O 0.66447 0.74109 0.33908 0.0
Mg199 Mg 0.67971 0.689 0.33464 0.0
C200 C 0.67703 0.76662 0.34498 0.0
C201 C 0.78697 0.78632 0.37133 0.0
O202 O 0.77033 0.77432 0.3837 0.0
O203 O 0.75486 0.73715 0.32409 0.0
O204 O 0.71422 0.70676 0.31481 0.0
O205 O 0.73106 0.71641 0.3773 0.0
O206 O 0.71705 0.69428 0.35357 0.0
C207 C 0.73915 0.72388 0.31233 0.0
C208 C 0.71356 0.69584 0.36936 0.0
O209 O 0.78287 0.77489 0.35685 0.0
Mg210 Mg 0.00977 0.98763 0.09227 0.0
O211 O 0.97062 0.94878 0.09271 0.0
O212 O 0.9914 0.90305 0.08295 0.0
Mg213 Mg 0.04369 0.91219 0.07615 0.0
C214 C 0.9679 0.91921 0.08873 0.0
C215 C 0.96061 0.03048 0.11173 0.0
O216 O 0.9707 0.01169 0.12374 0.0
O217 O 0.00392 0.99181 0.06409 0.0
O218 O 0.02546 0.9452 0.05576 0.0
O219 O 0.02747 0.97151 0.1174 0.0
O220 O 0.04508 0.95262 0.09356 0.0
C221 C 0.01197 0.97205 0.05269 0.0
C222 C 0.04553 0.95144 0.10946 0.0
O223 O 0.97177 0.02641 0.09719 0.0
Mg224 Mg 0.7436 0.75837 0.85088 0.0
O225 O 0.70243 0.72174 0.84877 0.0
O226 O 0.65752 0.74767 0.84126 0.0
Mg227 Mg 0.6704 0.80025 0.83696 0.0
C228 C 0.6725 0.72205 0.84523 0.0
C229 C 0.80247 0.72184 0.86462 0.0
O230 O 0.80327 0.74901 0.87288 0.0
O231 O 0.74734 0.75767 0.82252 0.0
O232 O 0.70173 0.78289 0.8157 0.0
O233 O 0.72898 0.77044 0.87708 0.0
O234 O 0.70969 0.79417 0.85469 0.0
C235 C 0.72761 0.76846 0.81172 0.0
C236 C 0.70863 0.79013 0.87049 0.0
O237 O 0.78043 0.71776 0.85389 0.0
Mg238 Mg 0.48885 0.49209 0.10007 0.0
O239 O 0.52397 0.44938 0.10036 0.0
O240 O 0.49936 0.40673 0.08917 0.0
Mg241 Mg 0.44833 0.42123 0.08238 0.0
C242 C 0.5239 0.42008 0.09565 0.0
C243 C 0.53012 0.54298 0.11927 0.0
O244 O 0.50644 0.53866 0.1298 0.0
O245 O 0.49648 0.49703 0.072 0.0
O246 O 0.47094 0.45313 0.06277 0.0
O247 O 0.46873 0.47631 0.12474 0.0
O248 O 0.45032 0.46057 0.10043 0.0
C249 C 0.48721 0.47859 0.06026 0.0
C250 C 0.44925 0.45841 0.1163 0.0
O251 O 0.53019 0.527 0.10581 0.0
Mg252 Mg 0.74297 0.24553 0.33871 0.0
O253 O 0.78665 0.27863 0.34202 0.0
O254 O 0.83144 0.25181 0.33543 0.0
Mg255 Mg 0.81605 0.20324 0.32527 0.0
C256 C 0.81715 0.27703 0.34054 0.0
C257 C 0.68779 0.28446 0.35468 0.0
O258 O 0.68596 0.25682 0.36247 0.0
O259 O 0.74508 0.25549 0.31084 0.0
O260 O 0.79084 0.23011 0.30431 0.0
O261 O 0.75208 0.22396 0.36384 0.0
O262 O 0.7725 0.20544 0.34048 0.0
C263 C 0.76666 0.24732 0.30038 0.0
C264 C 0.77114 0.20411 0.35639 0.0
O265 O 0.70922 0.28803 0.34358 0.0
Mg266 Mg 0.01885 0.50714 0.59615 0.0
O267 O 0.98425 0.5498 0.59748 0.0
O268 O 0.00965 0.59523 0.59065 0.0
Mg269 Mg 0.05987 0.58066 0.58222 0.0
C270 C 0.98459 0.58016 0.59535 0.0
C271 C 0.98075 0.44321 0.60249 0.0
O272 O 0.01006 0.43175 0.60137 0.0
O273 O 0.01189 0.5066 0.56801 0.0
O274 O 0.03654 0.55258 0.56115 0.0
O275 O 0.03797 0.51948 0.62156 0.0
O276 O 0.0578 0.53794 0.59806 0.0
C277 C 0.02067 0.52746 0.55728 0.0
C278 C 0.05803 0.53815 0.61397 0.0
O279 O 0.97636 0.47321 0.60063 0.0
Mg280 Mg 0.75946 0.23656 0.64647 0.0
O281 O 0.71787 0.27274 0.64503 0.0
O282 O 0.67213 0.24806 0.65212 0.0
Mg283 Mg 0.68497 0.19756 0.66061 0.0
C284 C 0.6875 0.27284 0.64727 0.0
C285 C 0.79938 0.28909 0.62778 0.0
O286 O 0.78136 0.2783 0.61563 0.0
O287 O 0.76023 0.24364 0.67458 0.0
O288 O 0.71366 0.22035 0.68162 0.0
O289 O 0.74669 0.21777 0.62105 0.0
O290 O 0.72725 0.1987 0.64448 0.0
C291 C 0.73923 0.23559 0.68537 0.0
C292 C 0.72712 0.19852 0.62857 0.0
O293 O 0.79581 0.27723 0.64221 0.0
Mg294 Mg 0.0155 0.50304 0.90507 0.0
O295 O 0.98111 0.46002 0.90329 0.0
O296 O 0.00782 0.41489 0.90933 0.0
Mg297 Mg 0.05825 0.42934 0.91735 0.0
C298 C 0.98226 0.42955 0.90501 0.0
C299 C 0.97406 0.55622 0.88888 0.0
O300 O 0.99926 0.55495 0.8791 0.0
O301 O 0.00984 0.50181 0.93333 0.0
O302 O 0.03595 0.45611 0.93915 0.0
O303 O 0.03364 0.4928 0.87927 0.0
O304 O 0.05474 0.47271 0.9021 0.0
C305 C 0.01982 0.48067 0.94364 0.0
C306 C 0.05422 0.47375 0.88619 0.0
O307 O 0.97303 0.53761 0.9014 0.0
Mg308 Mg 0.75073 0.75963 0.15209 0.0
O309 O 0.79385 0.72509 0.15277 0.0
O310 O 0.8378 0.75264 0.16023 0.0
Mg311 Mg 0.82259 0.80422 0.16567 0.0
C312 C 0.82391 0.72663 0.15591 0.0
C313 C 0.69085 0.72065 0.14052 0.0
O314 O 0.68518 0.74886 0.13384 0.0
O315 O 0.74898 0.75669 0.18043 0.0
O316 O 0.79374 0.78359 0.18704 0.0
O317 O 0.7631 0.77432 0.12593 0.0
O318 O 0.78251 0.79751 0.14843 0.0
C319 C 0.76891 0.76754 0.19111 0.0
C320 C 0.78285 0.79456 0.13256 0.0
O321 O 0.71612 0.71703 0.14919 0.0
Mg322 Mg 0.48164 0.50711 0.39821 0.0
O323 O 0.51657 0.54929 0.40008 0.0
O324 O 0.49011 0.59296 0.40875 0.0
Mg325 Mg 0.43812 0.57796 0.41378 0.0
C326 C 0.51581 0.57894 0.40406 0.0
C327 C 0.52182 0.45408 0.3813 0.0
O328 O 0.49614 0.45568 0.37187 0.0
O329 O 0.48471 0.50222 0.42641 0.0
O330 O 0.4555 0.54475 0.43441 0.0
O331 O 0.46628 0.52328 0.37271 0.0
O332 O 0.44327 0.53866 0.396 0.0
C333 C 0.47172 0.51952 0.43767 0.0
C334 C 0.44528 0.54107 0.38017 0.0
O335 O 0.5237 0.47258 0.39382 0.0
Mg336 Mg 0.25079 0.23325 0.15736 0.0
O337 O 0.29309 0.26816 0.15439 0.0
O338 O 0.33893 0.2431 0.16088 0.0
Mg339 Mg 0.32548 0.19355 0.17055 0.0
C340 C 0.32362 0.26785 0.15593 0.0
C341 C 0.21755 0.2912 0.13974 0.0
O342 O 0.24076 0.28486 0.12921 0.0
O343 O 0.25248 0.24228 0.18528 0.0
O344 O 0.29907 0.21843 0.19176 0.0
O345 O 0.26084 0.21274 0.13209 0.0
O346 O 0.28183 0.19449 0.15538 0.0
C347 C 0.27417 0.23452 0.19576 0.0
C348 C 0.28061 0.19347 0.13948 0.0
O349 O 0.21539 0.27453 0.15292 0.0
Mg350 Mg 0.51239 0.49904 0.89946 0.0
O351 O 0.47879 0.54252 0.89935 0.0
O352 O 0.5062 0.5861 0.90724 0.0
Mg353 Mg 0.55741 0.57014 0.91348 0.0
C354 C 0.48031 0.57252 0.90248 0.0
C355 C 0.47149 0.44625 0.8831 0.0
O356 O 0.49771 0.44652 0.87404 0.0
O357 O 0.5077 0.49743 0.92778 0.0
O358 O 0.53807 0.53981 0.93474 0.0
O359 O 0.53013 0.51181 0.87378 0.0
O360 O 0.55201 0.52874 0.89706 0.0
C361 C 0.5209 0.51557 0.93863 0.0
C362 C 0.55136 0.52941 0.88117 0.0
O363 O 0.46948 0.46557 0.89528 0.0
Mg364 Mg 0.25239 0.76379 0.64661 0.0
O365 O 0.20984 0.72911 0.64786 0.0
O366 O 0.16611 0.75607 0.65603 0.0
Mg367 Mg 0.18109 0.80801 0.66111 0.0
C368 C 0.18003 0.7302 0.65151 0.0
C369 C 0.29414 0.71143 0.62882 0.0
O370 O 0.28022 0.72498 0.61599 0.0
O371 O 0.25553 0.76096 0.67487 0.0
O372 O 0.21294 0.79063 0.68229 0.0
O373 O 0.23777 0.7794 0.62079 0.0
O374 O 0.22122 0.80237 0.64384 0.0
C375 C 0.23782 0.77415 0.68589 0.0
C376 C 0.21971 0.80049 0.62798 0.0
O377 O 0.28727 0.72149 0.64329 0.0
Mg378 Mg 0.98739 0.49898 0.39623 0.0
O379 O 0.02184 0.45625 0.39829 0.0
O380 O 0.99568 0.41563 0.41036 0.0
Mg381 Mg 0.94385 0.43133 0.41518 0.0
C382 C 0.02109 0.42766 0.40403 0.0
C383 C 0.03704 0.53791 0.3751 0.0
O384 O 0.02159 0.52237 0.36339 0.0
O385 O 0.9929 0.50704 0.42421 0.0
O386 O 0.96232 0.46715 0.4342 0.0
O387 O 0.96908 0.48065 0.37162 0.0
O388 O 0.9484 0.46787 0.39586 0.0
C389 C 0.97962 0.49211 0.43626 0.0
C390 C 0.94861 0.46398 0.38008 0.0
O391 O 0.02929 0.53296 0.39015 0.0
Mg392 Mg 0.24688 0.75953 0.33452 0.0
O393 O 0.29102 0.72717 0.33762 0.0
O394 O 0.33576 0.75443 0.33151 0.0
Mg395 Mg 0.31959 0.80317 0.32179 0.0
C396 C 0.32151 0.72894 0.33628 0.0
C397 C 0.1857 0.71988 0.34358 0.0
O398 O 0.17464 0.74929 0.34502 0.0
O399 O 0.24947 0.75071 0.30657 0.0
O400 O 0.29495 0.77689 0.30039 0.0
O401 O 0.25511 0.78021 0.35987 0.0
O402 O 0.27573 0.8001 0.33685 0.0
C403 C 0.27098 0.75957 0.29622 0.0
C404 C 0.27399 0.80072 0.35277 0.0
O405 O 0.2146 0.71582 0.33895 0.0
Mg406 Mg 0.99704 0.50623 0.1056 0.0
O407 O 0.02851 0.5512 0.10366 0.0
O408 O 1.00007 0.58975 0.09106 0.0
Mg409 Mg 0.94889 0.57103 0.08715 0.0
C410 C 0.02601 0.57941 0.09759 0.0
C411 C 0.04057 0.44563 0.10804 0.0
O412 O 0.01473 0.43362 0.10104 0.0
O413 O 0.00213 0.4987 0.07749 0.0
O414 O 0.96827 0.53624 0.0679 0.0
O415 O 0.97847 0.52293 0.13043 0.0
O416 O 0.95627 0.53458 0.10636 0.0
C417 C 0.98712 0.51252 0.06563 0.0
C418 C 0.95672 0.53832 0.12215 0.0
O419 O 0.0413 0.4755 0.1113 0.0
Mg420 Mg 0.2423 0.24904 0.83789 0.0
O421 O 0.20136 0.28572 0.84002 0.0
O422 O 0.15522 0.26274 0.83217 0.0
Mg423 Mg 0.16744 0.21282 0.82256 0.0
C424 C 0.17104 0.28669 0.83769 0.0
C425 C 0.29931 0.28404 0.85479 0.0
O426 O 0.29898 0.25645 0.86269 0.0
O427 O 0.24398 0.25822 0.80999 0.0
O428 O 0.19725 0.23636 0.80209 0.0
O429 O 0.22913 0.22876 0.86281 0.0
O430 O 0.20938 0.21159 0.83902 0.0
C431 C 0.22325 0.25132 0.79885 0.0
C432 C 0.20928 0.21031 0.85494 0.0
O433 O 0.27878 0.28881 0.84338 0.0
Mg434 Mg 0.51559 0.49531 0.59806 0.0
O435 O 0.48416 0.44991 0.59887 0.0
O436 O 0.51113 0.40926 0.58717 0.0
Mg437 Mg 0.56009 0.42812 0.57927 0.0
C438 C 0.48614 0.42069 0.59416 0.0
C439 C 0.47607 0.55603 0.60763 0.0
O440 O 0.50526 0.56786 0.60673 0.0
O441 O 0.50517 0.49983 0.57027 0.0
O442 O 0.53299 0.45797 0.56028 0.0
O443 O 0.5385 0.48097 0.62224 0.0
O444 O 0.5565 0.46706 0.59753 0.0
C445 C 0.51456 0.48211 0.55827 0.0
C446 C 0.55866 0.46466 0.61337 0.0
O447 O 0.47194 0.52629 0.60476 0.0
C448 C 0.07704 0.41802 0.39383 0.0
C449 C 0.05043 0.40757 0.40302 0.0
C450 C 0.10399 0.39827 0.39169 0.0
C451 C 0.10449 0.36739 0.39902 0.0
C452 C 0.07849 0.35734 0.40904 0.0
C453 C 0.05168 0.37747 0.41085 0.0
C454 C 0.13119 0.40983 0.38084 0.0
C455 C 0.07831 0.32473 0.41721 0.0
C456 C 0.15185 0.30687 0.3742 0.0
C457 C 0.18153 0.30709 0.3823 0.0
C458 C 0.12615 0.32531 0.37999 0.0
C459 C 0.13021 0.34434 0.39436 0.0
C460 C 0.15952 0.34301 0.40328 0.0
C461 C 0.18499 0.32424 0.39712 0.0
C462 C 0.09523 0.32565 0.37018 0.0
C463 C 0.16453 0.36264 0.41878 0.0
H464 H 0.07645 0.44128 0.38781 0.0
H465 H 0.03145 0.3693 0.41817 0.0
H466 H 0.1545 0.40682 0.3873 0.0
H467 H 0.13212 0.39515 0.36936 0.0
H468 H 0.12845 0.43544 0.37727 0.0
H469 H 0.05862 0.32234 0.42641 0.0
H470 H 0.07519 0.30587 0.40763 0.0
H471 H 0.10154 0.32012 0.42351 0.0
H472 H 0.14883 0.29269 0.36309 0.0
H473 H 0.20799 0.32425 0.40341 0.0
H474 H 0.0913 0.34992 0.36488 0.0
H475 H 0.07456 0.32028 0.37839 0.0
H476 H 0.09539 0.30798 0.35986 0.0
H477 H 0.16629 0.38842 0.41544 0.0
H478 H 0.18679 0.35564 0.42546 0.0
H479 H 0.14379 0.35999 0.4273 0.0
C480 C 0.94522 0.89612 0.61983 0.0
C481 C 0.94656 0.92651 0.62716 0.0
C482 C 0.92735 0.87131 0.62696 0.0
C483 C 0.91051 0.87703 0.64191 0.0
C484 C 0.91349 0.9071 0.64999 0.0
C485 C 0.93166 0.93162 0.6425 0.0
C486 C 0.92522 0.8395 0.61801 0.0
C487 C 0.89622 0.91388 0.66606 0.0
C488 C 0.83619 0.82538 0.64521 0.0
C489 C 0.84752 0.79926 0.65451 0.0
C490 C 0.85596 0.8518 0.64185 0.0
C491 C 0.88776 0.85228 0.64803 0.0
C492 C 0.89875 0.82693 0.65824 0.0
C493 C 0.87855 0.8006 0.66128 0.0
C494 C 0.84339 0.8783 0.63083 0.0
C495 C 0.93235 0.82682 0.66524 0.0
H496 H 0.95782 0.89178 0.60834 0.0
H497 H 0.93294 0.95514 0.64821 0.0
H498 H 0.93146 0.81955 0.62653 0.0
H499 H 0.90021 0.83549 0.61374 0.0
H500 H 0.94138 0.83839 0.60707 0.0
H501 H 0.90453 0.93656 0.6719 0.0
H502 H 0.87007 0.91586 0.66366 0.0
H503 H 0.89974 0.89387 0.67495 0.0
H504 H 0.81221 0.82472 0.64001 0.0
H505 H 0.88739 0.78075 0.66867 0.0
H506 H 0.8564 0.87792 0.61881 0.0
H507 H 0.84775 0.90207 0.6366 0.0
H508 H 0.81729 0.87583 0.6283 0.0
H509 H 0.94982 0.82222 0.65513 0.0
H510 H 0.93554 0.80807 0.6749 0.0
H511 H 0.93828 0.85055 0.67069 0.0
C512 C 0.4537 0.62444 0.89537 0.0
C513 C 0.45117 0.59222 0.90018 0.0
C514 C 0.42621 0.6425 0.89159 0.0
C515 C 0.3955 0.62818 0.89306 0.0
C516 C 0.39277 0.59628 0.89894 0.0
C517 C 0.42068 0.57851 0.9022 0.0
C518 C 0.43019 0.67619 0.88499 0.0
C519 C 0.36044 0.58043 0.90108 0.0
C520 C 0.32309 0.68354 0.88883 0.0
C521 C 0.31522 0.67914 0.87207 0.0
C522 C 0.34863 0.6664 0.89609 0.0
C523 C 0.36685 0.64489 0.88624 0.0
C524 C 0.35834 0.63977 0.86948 0.0
C525 C 0.33239 0.65654 0.86271 0.0
C526 C 0.35652 0.67175 0.91414 0.0
C527 C 0.37721 0.61723 0.85848 0.0
H528 H 0.47725 0.63509 0.89379 0.0
H529 H 0.41864 0.55373 0.90617 0.0
H530 H 0.42284 0.6769 0.87176 0.0
H531 H 0.41445 0.69309 0.89183 0.0
H532 H 0.45538 0.68476 0.88592 0.0
H533 H 0.36219 0.55757 0.90812 0.0
H534 H 0.34361 0.59672 0.90763 0.0
H535 H 0.34996 0.57515 0.88873 0.0
H536 H 0.30975 0.70077 0.89617 0.0
H537 H 0.32589 0.65221 0.84991 0.0
H538 H 0.38025 0.68363 0.91524 0.0
H539 H 0.3582 0.64841 0.92071 0.0
H540 H 0.3383 0.68692 0.92045 0.0
H541 H 0.40269 0.62496 0.85795 0.0
H542 H 0.36765 0.61632 0.84563 0.0
H543 H 0.37678 0.5926 0.8637 0.0
C544 C 0.59515 0.09272 0.11251 0.0
C545 C 0.5728 0.0744 0.12141 0.0
C546 C 0.6114 0.11833 0.11988 0.0
C547 C 0.60582 0.12549 0.13678 0.0
C548 C 0.58432 0.10629 0.14612 0.0
C549 C 0.56784 0.08095 0.13828 0.0
C550 C 0.6341 0.13814 0.1094 0.0
C551 C 0.57832 0.1129 0.16425 0.0
C552 C 0.6733 0.17779 0.15219 0.0
C553 C 0.66054 0.20849 0.1495 0.0
C554 C 0.6545 0.15026 0.14982 0.0
C555 C 0.62247 0.15356 0.14422 0.0
C556 C 0.60879 0.18456 0.14268 0.0
C557 C 0.62796 0.21172 0.14552 0.0
C558 C 0.66976 0.11767 0.15199 0.0
C559 C 0.57488 0.18917 0.13651 0.0
H560 H 0.59976 0.08734 0.09958 0.0
H561 H 0.55069 0.06676 0.14523 0.0
H562 H 0.62635 0.16362 0.10937 0.0
H563 H 0.65864 0.13727 0.11472 0.0
H564 H 0.63526 0.12964 0.09636 0.0
H565 H 0.56335 0.09399 0.17012 0.0
H566 H 0.60142 0.11467 0.17104 0.0
H567 H 0.56589 0.13629 0.16564 0.0
H568 H 0.69838 0.17524 0.15555 0.0
H569 H 0.61799 0.23543 0.14347 0.0
H570 H 0.6758 0.10759 0.13964 0.0
H571 H 0.65291 0.10078 0.15811 0.0
H572 H 0.69217 0.119 0.15944 0.0
H573 H 0.57389 0.18352 0.12307 0.0
H574 H 0.56637 0.2142 0.13832 0.0
H575 H 0.55817 0.1726 0.14293 0.0
C576 C 0.16276 0.71096 0.11002 0.0
C577 C 0.19306 0.69748 0.10737 0.0
C578 C 0.13477 0.6935 0.10655 0.0
C579 C 0.13739 0.66216 0.09987 0.0
C580 C 0.16806 0.64968 0.0958 0.0
C581 C 0.19567 0.6673 0.09994 0.0
C582 C 0.10273 0.70752 0.11147 0.0
C583 C 0.17182 0.61685 0.08814 0.0
C584 C 0.07474 0.60027 0.11186 0.0
C585 C 0.05423 0.60078 0.09811 0.0
C586 C 0.10154 0.62057 0.11266 0.0
C587 C 0.10863 0.64103 0.09911 0.0
C588 C 0.08826 0.64126 0.08506 0.0
C589 C 0.06093 0.62149 0.08485 0.0
C590 C 0.12212 0.62028 0.12809 0.0
C591 C 0.09558 0.66204 0.07019 0.0
H592 H 0.16095 0.7343 0.11587 0.0
H593 H 0.21925 0.65686 0.09809 0.0
H594 H 0.08457 0.70366 0.10162 0.0
H595 H 0.09399 0.6952 0.12281 0.0
H596 H 0.10436 0.73364 0.11411 0.0
H597 H 0.19644 0.61299 0.08323 0.0
H598 H 0.16689 0.59818 0.09761 0.0
H599 H 0.15433 0.61346 0.07791 0.0
H600 H 0.06941 0.58441 0.12217 0.0
H601 H 0.0452 0.62164 0.07414 0.0
H602 H 0.12399 0.6449 0.13326 0.0
H603 H 0.14678 0.61227 0.12497 0.0
H604 H 0.11239 0.60414 0.13784 0.0
H605 H 0.09596 0.68769 0.07387 0.0
H606 H 0.07773 0.65888 0.06009 0.0
H607 H 0.11977 0.65613 0.06531 0.0
C608 C 0.57226 0.92846 0.3565 0.0
C609 C 0.55311 0.92144 0.3703 0.0
C610 C 0.59181 0.9046 0.34936 0.0
C611 C 0.59203 0.87333 0.3563 0.0
C612 C 0.57093 0.86579 0.36948 0.0
C613 C 0.55157 0.88991 0.37619 0.0
C614 C 0.61342 0.91328 0.33504 0.0
C615 C 0.57011 0.83273 0.37719 0.0
C616 C 0.62836 0.79864 0.33722 0.0
C617 C 0.65708 0.79594 0.34622 0.0
C618 C 0.60793 0.82512 0.33939 0.0
C619 C 0.61615 0.84907 0.35108 0.0
C620 C 0.64584 0.84725 0.35959 0.0
C621 C 0.66605 0.82084 0.35696 0.0
C622 C 0.57684 0.82659 0.32981 0.0
C623 C 0.65537 0.87215 0.37229 0.0
H624 H 0.57322 0.95287 0.35186 0.0
H625 H 0.5357 0.88414 0.38635 0.0
H626 H 0.63856 0.91508 0.33948 0.0
H627 H 0.61273 0.89437 0.32536 0.0
H628 H 0.60661 0.93661 0.32936 0.0
H629 H 0.5511 0.83045 0.38678 0.0
H630 H 0.56593 0.81423 0.36754 0.0
H631 H 0.59364 0.82745 0.38305 0.0
H632 H 0.62149 0.77975 0.32868 0.0
H633 H 0.68826 0.81903 0.36392 0.0
H634 H 0.57268 0.85116 0.32494 0.0
H635 H 0.55654 0.8207 0.33817 0.0
H636 H 0.57657 0.8094 0.31928 0.0
H637 H 0.65307 0.89663 0.36703 0.0
H638 H 0.68039 0.8688 0.37674 0.0
H639 H 0.63897 0.87065 0.38312 0.0
C640 C 0.31695 0.33312 0.60261 0.0
C641 C 0.32033 0.3034 0.61044 0.0
C642 C 0.34409 0.35087 0.59789 0.0
C643 C 0.3751 0.33896 0.60171 0.0
C644 C 0.37848 0.30813 0.60891 0.0
C645 C 0.35092 0.29056 0.61304 0.0
C646 C 0.33955 0.38315 0.58972 0.0
C647 C 0.41097 0.29475 0.61352 0.0
C648 C 0.44986 0.37774 0.58367 0.0
C649 C 0.45802 0.39962 0.59619 0.0
C650 C 0.42255 0.35822 0.58512 0.0
C651 C 0.40368 0.35994 0.59968 0.0
C652 C 0.4122 0.38165 0.61249 0.0
C653 C 0.43898 0.40168 0.61044 0.0
C654 C 0.41368 0.33607 0.57103 0.0
C655 C 0.3932 0.38351 0.62841 0.0
H656 H 0.29313 0.34306 0.60083 0.0
H657 H 0.35331 0.2676 0.61923 0.0
H658 H 0.34551 0.40249 0.59866 0.0
H659 H 0.35596 0.38572 0.57896 0.0
H660 H 0.31446 0.38675 0.58543 0.0
H661 H 0.40978 0.26881 0.61665 0.0
H662 H 0.42844 0.29808 0.60329 0.0
H663 H 0.42032 0.30792 0.62447 0.0
H664 H 0.46443 0.37646 0.57255 0.0
H665 H 0.44543 0.41853 0.62013 0.0
H666 H 0.38895 0.34144 0.56672 0.0
H667 H 0.41385 0.31079 0.57535 0.0
H668 H 0.43035 0.33831 0.56034 0.0
H669 H 0.36822 0.39112 0.62574 0.0
H670 H 0.40385 0.40065 0.63742 0.0
H671 H 0.39198 0.35945 0.63429 0.0
C672 C 0.91045 0.07924 0.87517 0.0
C673 C 0.93521 0.06468 0.86609 0.0
C674 C 0.89391 0.10587 0.869 0.0
C675 C 0.90129 0.11756 0.85299 0.0
C676 C 0.92466 0.10161 0.84321 0.0
C677 C 0.94169 0.07548 0.84996 0.0
C678 C 0.86947 0.12229 0.87997 0.0
C679 C 0.93228 0.1127 0.82584 0.0
C680 C 0.83676 0.17458 0.83802 0.0
C681 C 0.85027 0.20439 0.84202 0.0
C682 C 0.85424 0.14609 0.84017 0.0
C683 C 0.88543 0.14745 0.84712 0.0
C684 C 0.89953 0.17763 0.85068 0.0
C685 C 0.88193 0.20581 0.84781 0.0
C686 C 0.83881 0.11448 0.83567 0.0
C687 C 0.93233 0.18011 0.85855 0.0
H688 H 0.90447 0.07038 0.88741 0.0
H689 H 0.96055 0.06411 0.84281 0.0
H690 H 0.87663 0.14763 0.88208 0.0
H691 H 0.84567 0.12258 0.87382 0.0
H692 H 0.8669 0.11034 0.89221 0.0
H693 H 0.94758 0.09521 0.81909 0.0
H694 H 0.90982 0.11653 0.8187 0.0
H695 H 0.94508 0.13602 0.82634 0.0
H696 H 0.81241 0.17356 0.83328 0.0
H697 H 0.89233 0.2289 0.85093 0.0
H698 H 0.83154 0.10168 0.84713 0.0
H699 H 0.8561 0.09888 0.82899 0.0
H700 H 0.81715 0.11782 0.82781 0.0
H701 H 0.9315 0.16979 0.87124 0.0
H702 H 0.9408 0.20534 0.85944 0.0
H703 H 0.95015 0.16607 0.85137 0.0
C704 C 0.95612 0.62992 0.60431 0.0
C705 C 0.95478 0.59837 0.59835 0.0
C706 C 0.92792 0.64669 0.60825 0.0
C707 C 0.89774 0.63179 0.60572 0.0
C708 C 0.89627 0.60057 0.59884 0.0
C709 C 0.92486 0.58402 0.59548 0.0
C710 C 0.9305 0.67964 0.61595 0.0
C711 C 0.86455 0.58423 0.59556 0.0
C712 C 0.83104 0.65632 0.63486 0.0
C713 C 0.81472 0.67969 0.62561 0.0
C714 C 0.85789 0.64048 0.62844 0.0
C715 C 0.86811 0.6473 0.6121 0.0
C716 C 0.85067 0.66948 0.60229 0.0
C717 C 0.82425 0.6857 0.60922 0.0
C718 C 0.87594 0.6172 0.6394 0.0
C719 C 0.86036 0.67659 0.58463 0.0
H720 H 0.97926 0.64102 0.60655 0.0
H721 H 0.9238 0.55978 0.59061 0.0
H722 H 0.91541 0.69704 0.60906 0.0
H723 H 0.92142 0.67882 0.62888 0.0
H724 H 0.95561 0.68862 0.61615 0.0
H725 H 0.86745 0.56193 0.58815 0.0
H726 H 0.85294 0.57789 0.60749 0.0
H727 H 0.84806 0.60067 0.58887 0.0
H728 H 0.82323 0.65074 0.64734 0.0
H729 H 0.81156 0.70352 0.60195 0.0
H730 H 0.90114 0.62532 0.64092 0.0
H731 H 0.87663 0.59312 0.63355 0.0
H732 H 0.86495 0.61485 0.6519 0.0
H733 H 0.88391 0.689 0.58451 0.0
H734 H 0.84253 0.69197 0.57817 0.0
H735 H 0.86323 0.6539 0.57757 0.0
C736 C 0.16864 0.1688 0.35645 0.0
C737 C 0.159 0.19479 0.34657 0.0
C738 C 0.14816 0.14262 0.35915 0.0
C739 C 0.11745 0.14221 0.35161 0.0
C740 C 0.10869 0.16702 0.34051 0.0
C741 C 0.12947 0.19317 0.33822 0.0
C742 C 0.1584 0.11671 0.37113 0.0
C743 C 0.07648 0.16708 0.33194 0.0
C744 C 0.06915 0.06551 0.35776 0.0
C745 C 0.05179 0.07328 0.37208 0.0
C746 C 0.08977 0.08817 0.35037 0.0
C747 C 0.09291 0.11904 0.35758 0.0
C748 C 0.07389 0.1274 0.37146 0.0
C749 C 0.0534 0.1045 0.3784 0.0
C750 C 0.10914 0.07865 0.33535 0.0
C751 C 0.07615 0.16014 0.37946 0.0
H752 H 0.19151 0.16965 0.36286 0.0
H753 H 0.12203 0.21287 0.33033 0.0
H754 H 0.14411 0.11876 0.3827 0.0
H755 H 0.15376 0.0926 0.36583 0.0
H756 H 0.18425 0.11849 0.3744 0.0
H757 H 0.07578 0.18439 0.32147 0.0
H758 H 0.07055 0.1428 0.32718 0.0
H759 H 0.05754 0.17388 0.34095 0.0
H760 H 0.06766 0.04139 0.35276 0.0
H761 H 0.0388 0.11108 0.38892 0.0
H762 H 0.13464 0.07548 0.33896 0.0
H763 H 0.10828 0.09779 0.32579 0.0
H764 H 0.10045 0.05584 0.3298 0.0
H765 H 0.10082 0.16399 0.38427 0.0
H766 H 0.05897 0.16304 0.3899 0.0
H767 H 0.07134 0.17918 0.37018 0.0
C768 C 0.57275 0.40384 0.11141 0.0
C769 C 0.55356 0.40106 0.09725 0.0
C770 C 0.60049 0.38506 0.11324 0.0
C771 C 0.6098 0.36396 0.10031 0.0
C772 C 0.59092 0.3618 0.08576 0.0
C773 C 0.56266 0.37999 0.08454 0.0
C774 C 0.6195 0.38736 0.12915 0.0
C775 C 0.60063 0.3404 0.07151 0.0
C776 C 0.69717 0.33914 0.10332 0.0
C777 C 0.6944 0.30916 0.11096 0.0
C778 C 0.66965 0.35636 0.09862 0.0
C779 C 0.63889 0.34367 0.1023 0.0
C780 C 0.63617 0.31261 0.10932 0.0
C781 C 0.66409 0.29556 0.11337 0.0
C782 C 0.67352 0.38889 0.09063 0.0
C783 C 0.60395 0.29843 0.11379 0.0
H784 H 0.56556 0.42005 0.12125 0.0
H785 H 0.54794 0.37818 0.07348 0.0
H786 H 0.62136 0.36331 0.135 0.0
H787 H 0.64427 0.39561 0.12647 0.0
H788 H 0.60845 0.40417 0.13819 0.0
H789 H 0.58419 0.34274 0.06072 0.0
H790 H 0.62536 0.3464 0.06744 0.0
H791 H 0.6008 0.31497 0.07556 0.0
H792 H 0.72076 0.34968 0.10169 0.0
H793 H 0.66218 0.27239 0.11939 0.0
H794 H 0.66722 0.40791 0.09969 0.0
H795 H 0.65701 0.39136 0.0799 0.0
H796 H 0.69851 0.39306 0.08633 0.0
H797 H 0.59347 0.31216 0.12427 0.0
H798 H 0.60584 0.27282 0.11752 0.0
H799 H 0.58701 0.30029 0.10324 0.0
C800 C 0.44386 0.90529 0.87903 0.0
C801 C 0.44561 0.93445 0.87048 0.0
C802 C 0.42517 0.8799 0.87311 0.0
C803 C 0.40796 0.88367 0.85812 0.0
C804 C 0.41083 0.91257 0.84895 0.0
C805 C 0.42982 0.93772 0.85524 0.0
C806 C 0.42321 0.84934 0.88316 0.0
C807 C 0.39307 0.91724 0.83282 0.0
C808 C 0.37966 0.80479 0.83997 0.0
C809 C 0.34829 0.80273 0.84626 0.0
C810 C 0.3988 0.83188 0.84292 0.0
C811 C 0.38638 0.85744 0.85251 0.0
C812 C 0.35435 0.8561 0.85836 0.0
C813 C 0.33564 0.8288 0.85512 0.0
C814 C 0.43276 0.83251 0.83637 0.0
C815 C 0.34034 0.88285 0.86872 0.0
H816 H 0.45714 0.90226 0.89043 0.0
H817 H 0.43136 0.96029 0.8486 0.0
H818 H 0.39806 0.84519 0.88717 0.0
H819 H 0.43047 0.8285 0.87547 0.0
H820 H 0.43873 0.85007 0.89436 0.0
H821 H 0.39975 0.94007 0.82659 0.0
H822 H 0.39804 0.897 0.82426 0.0
H823 H 0.36684 0.91743 0.83519 0.0
H824 H 0.38955 0.78498 0.83291 0.0
H825 H 0.3114 0.82753 0.85996 0.0
H826 H 0.44989 0.8304 0.84685 0.0
H827 H 0.43773 0.85566 0.83007 0.0
H828 H 0.43749 0.81262 0.82753 0.0
H829 H 0.35289 0.88388 0.88085 0.0
H830 H 0.31426 0.8795 0.87104 0.0
H831 H 0.344 0.90632 0.86251 0.0
C832 C 0.92256 0.42384 0.90448 0.0
C833 C 0.95302 0.41052 0.90178 0.0
C834 C 0.89462 0.40635 0.90088 0.0
C835 C 0.8973 0.37525 0.89394 0.0
C836 C 0.92802 0.36139 0.8916 0.0
C837 C 0.95552 0.37907 0.89576 0.0
C838 C 0.86228 0.4216 0.90394 0.0
C839 C 0.93193 0.32863 0.88384 0.0
C840 C 0.82599 0.31875 0.88914 0.0
C841 C 0.81718 0.3247 0.87264 0.0
C842 C 0.85136 0.33587 0.89655 0.0
C843 C 0.86846 0.35892 0.88712 0.0
C844 C 0.85892 0.36564 0.87066 0.0
C845 C 0.83313 0.34886 0.86375 0.0
C846 C 0.86035 0.32877 0.9143 0.0
C847 C 0.87664 0.38982 0.86008 0.0
H848 H 0.92057 0.44799 0.90939 0.0
H849 H 0.97906 0.36874 0.89365 0.0
H850 H 0.85095 0.4279 0.89193 0.0
H851 H 0.84606 0.40447 0.91034 0.0
H852 H 0.86421 0.44377 0.91154 0.0
H853 H 0.95731 0.32041 0.8839 0.0
H854 H 0.9171 0.31068 0.89049 0.0
H855 H 0.9234 0.32934 0.8708 0.0
H856 H 0.81355 0.30034 0.89613 0.0
H857 H 0.82585 0.35438 0.85118 0.0
H858 H 0.86219 0.35141 0.92149 0.0
H859 H 0.88425 0.31705 0.91471 0.0
H860 H 0.84267 0.31276 0.92046 0.0
H861 H 0.87622 0.41375 0.86609 0.0
H862 H 0.86616 0.39211 0.84747 0.0
H863 H 0.90217 0.3826 0.85883 0.0
C864 C 0.38738 0.20938 0.64494 0.0
C865 C 0.3555 0.20546 0.65007 0.0
C866 C 0.40726 0.18265 0.64235 0.0
C867 C 0.39514 0.15143 0.64544 0.0
C868 C 0.36398 0.14769 0.65218 0.0
C869 C 0.34429 0.17474 0.65414 0.0
C870 C 0.44005 0.1877 0.63481 0.0
C871 C 0.35049 0.11494 0.65612 0.0
C872 C 0.42126 0.08654 0.61563 0.0
C873 C 0.44579 0.07098 0.62443 0.0
C874 C 0.40485 0.1127 0.62238 0.0
C875 C 0.41225 0.12302 0.63865 0.0
C876 C 0.43591 0.10655 0.64798 0.0
C877 C 0.4527 0.0808 0.64068 0.0
C878 C 0.37995 0.12965 0.6119 0.0
C879 C 0.44371 0.11635 0.66553 0.0
H880 H 0.39607 0.23314 0.64179 0.0
H881 H 0.31975 0.17175 0.65835 0.0
H882 H 0.45834 0.17302 0.64131 0.0
H883 H 0.43963 0.17985 0.62166 0.0
H884 H 0.44753 0.21329 0.63522 0.0
H885 H 0.32903 0.11649 0.66426 0.0
H886 H 0.34338 0.1028 0.64444 0.0
H887 H 0.36883 0.09971 0.66227 0.0
H888 H 0.41497 0.07852 0.60329 0.0
H889 H 0.47141 0.06868 0.64761 0.0
H890 H 0.38611 0.15547 0.61071 0.0
H891 H 0.3561 0.12815 0.61795 0.0
H892 H 0.37796 0.11925 0.59925 0.0
H893 H 0.45467 0.14061 0.66557 0.0
H894 H 0.46059 0.09938 0.6716 0.0
H895 H 0.42141 0.11773 0.67303 0.0
C896 C 0.67118 0.65393 0.36833 0.0
C897 C 0.68754 0.67743 0.37746 0.0
C898 C 0.64393 0.63872 0.37469 0.0
C899 C 0.63337 0.64623 0.39089 0.0
C900 C 0.65087 0.66848 0.40064 0.0
C901 C 0.67767 0.68415 0.39372 0.0
C902 C 0.62585 0.61535 0.36379 0.0
C903 C 0.64089 0.67623 0.41817 0.0
C904 C 0.54488 0.62952 0.39721 0.0
C905 C 0.54569 0.59771 0.40279 0.0
C906 C 0.57342 0.64638 0.39411 0.0
C907 C 0.60334 0.63129 0.39715 0.0
C908 C 0.60414 0.59998 0.40395 0.0
C909 C 0.57528 0.58332 0.40641 0.0
C910 C 0.57153 0.67942 0.38646 0.0
C911 C 0.63551 0.58347 0.40786 0.0
H912 H 0.67927 0.64774 0.35598 0.0
H913 H 0.69041 0.70206 0.40092 0.0
H914 H 0.625 0.59138 0.36975 0.0
H915 H 0.6007 0.62357 0.36216 0.0
H916 H 0.63694 0.61271 0.35133 0.0
H917 H 0.659 0.69121 0.42469 0.0
H918 H 0.61774 0.68937 0.41804 0.0
H919 H 0.63712 0.6538 0.42533 0.0
H920 H 0.52197 0.64061 0.3944 0.0
H921 H 0.57586 0.55884 0.41098 0.0
H922 H 0.58065 0.67843 0.37354 0.0
H923 H 0.58689 0.69653 0.39337 0.0
H924 H 0.54659 0.68885 0.38622 0.0
H925 H 0.64739 0.57608 0.39615 0.0
H926 H 0.63196 0.56174 0.41564 0.0
H927 H 0.65203 0.60009 0.4144 0.0
C928 C 0.12589 0.7915 0.14276 0.0
C929 C 0.15864 0.79625 0.14593 0.0
C930 C 0.10544 0.81766 0.13984 0.0
C931 C 0.118 0.84923 0.14041 0.0
C932 C 0.15034 0.85419 0.14516 0.0
C933 C 0.17039 0.8276 0.14768 0.0
C934 C 0.07123 0.81129 0.13461 0.0
C935 C 0.1645 0.88748 0.14626 0.0
C936 C 0.08595 0.90765 0.10864 0.0
C937 C 0.06443 0.92623 0.11794 0.0
C938 C 0.1032 0.88252 0.11585 0.0
C939 C 0.09952 0.87613 0.13297 0.0
C940 C 0.07853 0.89529 0.14263 0.0
C941 C 0.06103 0.92012 0.13496 0.0
C942 C 0.12527 0.86267 0.10505 0.0
C943 C 0.0745 0.88944 0.16097 0.0
H944 H 0.11667 0.7673 0.14143 0.0
H945 H 0.1956 0.83137 0.1504 0.0
H946 H 0.05447 0.82784 0.14101 0.0
H947 H 0.06887 0.81563 0.12108 0.0
H948 H 0.06383 0.78617 0.13721 0.0
H949 H 0.18771 0.88757 0.15305 0.0
H950 H 0.16877 0.89684 0.13357 0.0
H951 H 0.14767 0.90415 0.15254 0.0
H952 H 0.08941 0.91268 0.09558 0.0
H953 H 0.04459 0.93454 0.14224 0.0
H954 H 0.11842 0.83696 0.10574 0.0
H955 H 0.15034 0.86471 0.10956 0.0
H956 H 0.12462 0.87024 0.09185 0.0
H957 H 0.0646 0.86506 0.16308 0.0
H958 H 0.05826 0.90726 0.16685 0.0
H959 H 0.09819 0.89043 0.16725 0.0
C960 C 0.65173 0.80584 0.87391 0.0
C961 C 0.68294 0.80535 0.88027 0.0
C962 C 0.62779 0.82462 0.8812 0.0
C963 C 0.63518 0.84308 0.89542 0.0
C964 C 0.666 0.84057 0.90277 0.0
C965 C 0.6897 0.82165 0.89505 0.0
C966 C 0.59519 0.82623 0.87299 0.0
C967 C 0.67449 0.85926 0.91818 0.0
C968 C 0.58552 0.91879 0.89609 0.0
C969 C 0.55901 0.90924 0.90562 0.0
C970 C 0.6117 0.89822 0.89367 0.0
C971 C 0.61161 0.86746 0.90113 0.0
C972 C 0.58618 0.85865 0.91184 0.0
C973 C 0.56 0.87955 0.91385 0.0
C974 C 0.63826 0.90851 0.88207 0.0
C975 C 0.58562 0.82639 0.92035 0.0
H976 H 0.64607 0.79207 0.86296 0.0
H977 H 0.71383 0.82096 0.90007 0.0
H978 H 0.57598 0.82127 0.88215 0.0
H979 H 0.59112 0.85077 0.86806 0.0
H980 H 0.59284 0.80888 0.8626 0.0
H981 H 0.69682 0.85013 0.92406 0.0
H982 H 0.67819 0.88485 0.91489 0.0
H983 H 0.65467 0.8582 0.92736 0.0
H984 H 0.5852 0.94177 0.88979 0.0
H985 H 0.53988 0.87215 0.92147 0.0
H986 H 0.63716 0.89395 0.87056 0.0
H987 H 0.66206 0.90427 0.88783 0.0
H988 H 0.63643 0.93426 0.87863 0.0
H989 H 0.57886 0.80758 0.91125 0.0
H990 H 0.56802 0.8258 0.93069 0.0
H991 H 0.60972 0.8202 0.92526 0.0
C992 C 0.40631 0.41713 0.11438 0.0
C993 C 0.42877 0.43367 0.12413 0.0
C994 C 0.38887 0.39125 0.12076 0.0
C995 C 0.39319 0.38221 0.1375 0.0
C996 C 0.41448 0.39988 0.14774 0.0
C997 C 0.43228 0.42534 0.14088 0.0
C998 C 0.36665 0.37289 0.10936 0.0
C999 C 0.41901 0.39138 0.16578 0.0
C1000 C 0.32745 0.32752 0.15359 0.0
C1001 C 0.34188 0.29726 0.15202 0.0
C1002 C 0.34451 0.35562 0.1498 0.0
C1003 C 0.37641 0.35327 0.14387 0.0
C1004 C 0.39121 0.32279 0.14248 0.0
C1005 C 0.37387 0.29516 0.14677 0.0
C1006 C 0.32817 0.38774 0.15178 0.0
C1007 C 0.4249 0.31923 0.1358 0.0
H1008 H 0.40267 0.42401 0.10157 0.0
H1009 H 0.44936 0.43823 0.14853 0.0
H1010 H 0.37461 0.34753 0.10847 0.0
H1011 H 0.34193 0.37279 0.11445 0.0
H1012 H 0.36591 0.3832 0.09666 0.0
H1013 H 0.43401 0.40929 0.17242 0.0
H1014 H 0.39538 0.38962 0.17207 0.0
H1015 H 0.43072 0.36755 0.1668 0.0
H1016 H 0.30283 0.32924 0.15787 0.0
H1017 H 0.38507 0.27179 0.1455 0.0
H1018 H 0.32395 0.3986 0.13941 0.0
H1019 H 0.34377 0.40446 0.15884 0.0
H1020 H 0.30473 0.38568 0.15827 0.0
H1021 H 0.42571 0.32768 0.12275 0.0
H1022 H 0.43343 0.29398 0.13619 0.0
H1023 H 0.44179 0.33435 0.143 0.0
C1024 C 0.93067 0.13483 0.39329 0.0
C1025 C 0.92957 0.10264 0.39827 0.0
C1026 C 0.90268 0.15101 0.38846 0.0
C1027 C 0.87281 0.13482 0.38907 0.0
C1028 C 0.87133 0.10292 0.39507 0.0
C1029 C 0.89984 0.08701 0.39936 0.0
C1030 C 0.90538 0.18477 0.38176 0.0
C1031 C 0.83982 0.08519 0.39635 0.0
C1032 C 0.79958 0.18791 0.38258 0.0
C1033 C 0.79414 0.18369 0.36555 0.0
C1034 C 0.82421 0.17096 0.3907 0.0
C1035 C 0.84404 0.14989 0.38146 0.0
C1036 C 0.83767 0.14457 0.36446 0.0
C1037 C 0.81249 0.16111 0.35682 0.0
C1038 C 0.82973 0.17644 0.40897 0.0
C1039 C 0.85838 0.12253 0.3541 0.0
H1040 H 0.95366 0.14693 0.3924 0.0
H1041 H 0.8989 0.06223 0.40344 0.0
H1042 H 0.89887 0.18493 0.36841 0.0
H1043 H 0.88836 0.20093 0.38825 0.0
H1044 H 0.93001 0.19467 0.3831 0.0
H1045 H 0.84215 0.06256 0.40354 0.0
H1046 H 0.82138 0.10054 0.40232 0.0
H1047 H 0.83101 0.07916 0.38375 0.0
H1048 H 0.78527 0.20509 0.38945 0.0
H1049 H 0.80779 0.15692 0.34379 0.0
H1050 H 0.85232 0.19009 0.41079 0.0
H1051 H 0.83246 0.15317 0.41553 0.0
H1052 H 0.80978 0.1901 0.41478 0.0
H1053 H 0.88348 0.13147 0.35401 0.0
H1054 H 0.84989 0.12074 0.34107 0.0
H1055 H 0.85874 0.0981 0.35954 0.0
C1056 C 0.17503 0.67061 0.6531 0.0
C1057 C 0.16088 0.70055 0.65003 0.0
C1058 C 0.15789 0.64208 0.65043 0.0
C1059 C 0.12631 0.64362 0.644 0.0
C1060 C 0.11146 0.67386 0.64158 0.0
C1061 C 0.12882 0.70201 0.64485 0.0
C1062 C 0.17419 0.61033 0.65367 0.0
C1063 C 0.0781 0.67656 0.63437 0.0
C1064 C 0.10137 0.57896 0.61382 0.0
C1065 C 0.07775 0.56231 0.62274 0.0
C1066 C 0.11759 0.60506 0.62074 0.0
C1067 C 0.11089 0.61421 0.63727 0.0
C1068 C 0.08862 0.59624 0.64678 0.0
C1069 C 0.07201 0.57056 0.63934 0.0
C1070 C 0.14097 0.62364 0.61008 0.0
C1071 C 0.08165 0.60474 0.66461 0.0
H1072 H 0.19968 0.66948 0.65739 0.0
H1073 H 0.11787 0.72517 0.64249 0.0
H1074 H 0.15758 0.59354 0.66003 0.0
H1075 H 0.18115 0.59917 0.64171 0.0
H1076 H 0.19616 0.61317 0.66135 0.0
H1077 H 0.06892 0.70159 0.63467 0.0
H1078 H 0.0784 0.66826 0.62129 0.0
H1079 H 0.06114 0.66093 0.64123 0.0
H1080 H 0.10666 0.57214 0.60115 0.0
H1081 H 0.05398 0.5576 0.64634 0.0
H1082 H 0.16505 0.62389 0.61594 0.0
H1083 H 0.13294 0.64895 0.60894 0.0
H1084 H 0.1433 0.61338 0.59742 0.0
H1085 H 0.10436 0.60836 0.67156 0.0
H1086 H 0.06728 0.5859 0.67093 0.0
H1087 H 0.0681 0.62764 0.66512 0.0
C1088 C 0.56235 0.13213 0.59565 0.0
C1089 C 0.56346 0.09973 0.59106 0.0
C1090 C 0.59067 0.14916 0.59903 0.0
C1091 C 0.62073 0.13356 0.59731 0.0
C1092 C 0.62197 0.10167 0.59128 0.0
C1093 C 0.59326 0.08493 0.5885 0.0
C1094 C 0.58826 0.18289 0.60576 0.0
C1095 C 0.65353 0.08454 0.58878 0.0
C1096 C 0.69527 0.18548 0.6029 0.0
C1097 C 0.70232 0.17984 0.61965 0.0
C1098 C 0.66939 0.16973 0.59515 0.0
C1099 C 0.64998 0.14847 0.60451 0.0
C1100 C 0.65777 0.14198 0.62125 0.0
C1101 C 0.68412 0.15728 0.62848 0.0
C1102 C 0.66235 0.17641 0.57712 0.0
C1103 C 0.63763 0.11964 0.63176 0.0
H1104 H 0.53929 0.14359 0.59764 0.0
H1105 H 0.59412 0.05999 0.58468 0.0
H1106 H 0.5951 0.1829 0.61907 0.0
H1107 H 0.60511 0.19909 0.59919 0.0
H1108 H 0.56358 0.19277 0.60463 0.0
H1109 H 0.6507 0.06248 0.58118 0.0
H1110 H 0.67122 0.10057 0.58267 0.0
H1111 H 0.66358 0.07757 0.601 0.0
H1112 H 0.70943 0.20269 0.59596 0.0
H1113 H 0.69001 0.15199 0.64127 0.0
H1114 H 0.63973 0.1903 0.57606 0.0
H1115 H 0.65887 0.15358 0.57026 0.0
H1116 H 0.68189 0.19029 0.57109 0.0
H1117 H 0.61247 0.12836 0.63219 0.0
H1118 H 0.64671 0.11767 0.64467 0.0
H1119 H 0.63728 0.0953 0.6262 0.0
C1120 C 0.16859 0.34633 0.84047 0.0
C1121 C 0.15353 0.31637 0.84187 0.0
C1122 C 0.15263 0.37456 0.84517 0.0
C1123 C 0.12133 0.37255 0.85192 0.0
C1124 C 0.10571 0.34241 0.85292 0.0
C1125 C 0.12187 0.31471 0.84766 0.0
C1126 C 0.16969 0.40636 0.84348 0.0
C1127 C 0.07265 0.33914 0.86044 0.0
C1128 C 0.09727 0.43258 0.88474 0.0
C1129 C 0.0737 0.45067 0.87656 0.0
C1130 C 0.11332 0.40754 0.87673 0.0
C1131 C 0.10649 0.40105 0.85989 0.0
C1132 C 0.0843 0.42056 0.85118 0.0
C1133 C 0.06787 0.44506 0.85968 0.0
C1134 C 0.13656 0.38715 0.88655 0.0
C1135 C 0.0772 0.4149 0.83306 0.0
H1136 H 0.19293 0.34768 0.83575 0.0
H1137 H 0.11022 0.29154 0.84877 0.0
H1138 H 0.15353 0.4245 0.83782 0.0
H1139 H 0.17658 0.41535 0.85593 0.0
H1140 H 0.19175 0.4044 0.8358 0.0
H1141 H 0.06308 0.31434 0.85937 0.0
H1142 H 0.0736 0.3457 0.87377 0.0
H1143 H 0.05562 0.35585 0.85434 0.0
H1144 H 0.10269 0.43743 0.89764 0.0
H1145 H 0.04993 0.45918 0.85323 0.0
H1146 H 0.16051 0.38722 0.88055 0.0
H1147 H 0.12805 0.36191 0.88681 0.0
H1148 H 0.13934 0.39562 0.89953 0.0
H1149 H 0.09987 0.41265 0.82593 0.0
H1150 H 0.06259 0.43455 0.8276 0.0
H1151 H 0.06387 0.39203 0.83159 0.0
C1152 C 0.93114 0.87248 0.08423 0.0
C1153 C 0.93679 0.90272 0.09134 0.0
C1154 C 0.90322 0.85509 0.08793 0.0
C1155 C 0.88063 0.86806 0.09918 0.0
C1156 C 0.8852 0.8994 0.10557 0.0
C1157 C 0.91317 0.91644 0.1015 0.0
C1158 C 0.899 0.82196 0.08066 0.0
C1159 C 0.86174 0.91403 0.11768 0.0
C1160 C 0.80047 0.82736 0.10811 0.0
C1161 C 0.8079 0.81077 0.12273 0.0
C1162 C 0.8241 0.84563 0.09991 0.0
C1163 C 0.8556 0.84702 0.10653 0.0
C1164 C 0.86335 0.82896 0.12083 0.0
C1165 C 0.83944 0.81099 0.12864 0.0
C1166 C 0.81514 0.86422 0.08454 0.0
C1167 C 0.89672 0.82929 0.12822 0.0
H1168 H 0.94898 0.86192 0.0761 0.0
H1169 H 0.91718 0.93989 0.10695 0.0
H1170 H 0.90407 0.80369 0.09033 0.0
H1171 H 0.87392 0.8183 0.07644 0.0
H1172 H 0.91545 0.81768 0.07005 0.0
H1173 H 0.8665 0.93994 0.11981 0.0
H1174 H 0.83676 0.91119 0.11315 0.0
H1175 H 0.86351 0.90131 0.12974 0.0
H1176 H 0.77605 0.82698 0.10347 0.0
H1177 H 0.8456 0.79711 0.13946 0.0
H1178 H 0.83286 0.85982 0.07452 0.0
H1179 H 0.81559 0.8903 0.0873 0.0
H1180 H 0.79084 0.8578 0.07994 0.0
H1181 H 0.91456 0.82149 0.11885 0.0
H1182 H 0.89882 0.81335 0.13922 0.0
H1183 H 0.90313 0.85407 0.13203 0.0
C1184 C 0.43321 0.57464 0.35499 0.0
C1185 C 0.42647 0.56599 0.37143 0.0
C1186 C 0.41662 0.60007 0.34733 0.0
C1187 C 0.39326 0.61738 0.35646 0.0
C1188 C 0.38592 0.60816 0.3729 0.0
C1189 C 0.40221 0.58231 0.38005 0.0
C1190 C 0.42441 0.60877 0.32962 0.0
C1191 C 0.36138 0.62612 0.38314 0.0
C1192 C 0.37204 0.70372 0.34661 0.0
C1193 C 0.34093 0.70034 0.34024 0.0
C1194 C 0.38998 0.67673 0.35133 0.0
C1195 C 0.37675 0.64567 0.34921 0.0
C1196 C 0.34602 0.64211 0.34195 0.0
C1197 C 0.32826 0.66954 0.33778 0.0
C1198 C 0.42234 0.68154 0.35941 0.0
C1199 C 0.33143 0.60939 0.33914 0.0
H1200 H 0.45174 0.56194 0.34822 0.0
H1201 H 0.39611 0.57519 0.39257 0.0
H1202 H 0.40209 0.60968 0.32211 0.0
H1203 H 0.43538 0.63301 0.32918 0.0
H1204 H 0.44127 0.59141 0.32383 0.0
H1205 H 0.35891 0.61615 0.39586 0.0
H1206 H 0.36831 0.65177 0.38414 0.0
H1207 H 0.33757 0.62521 0.377 0.0
H1208 H 0.38185 0.72754 0.34853 0.0
H1209 H 0.30439 0.66688 0.33259 0.0
H1210 H 0.4408 0.66667 0.35316 0.0
H1211 H 0.4212 0.67363 0.37254 0.0
H1212 H 0.43016 0.70703 0.3591 0.0
H1213 H 0.34899 0.59325 0.33301 0.0
H1214 H 0.30939 0.61059 0.3314 0.0
H1215 H 0.32508 0.59841 0.35123 0.0
C1216 C 0.41648 0.08452 0.09666 0.0
C1217 C 0.44535 0.10143 0.09856 0.0
C1218 C 0.387 0.09871 0.10081 0.0
C1219 C 0.3866 0.13013 0.10748 0.0
C1220 C 0.41564 0.14759 0.109 0.0
C1221 C 0.44464 0.13315 0.1043 0.0
C1222 C 0.35645 0.07969 0.09858 0.0
C1223 C 0.4163 0.18088 0.11642 0.0
C1224 C 0.31088 0.17976 0.11347 0.0
C1225 C 0.30456 0.17424 0.1303 0.0
C1226 C 0.33664 0.16427 0.10552 0.0
C1227 C 0.35665 0.14335 0.11475 0.0
C1228 C 0.34933 0.13659 0.13151 0.0
C1229 C 0.32311 0.15171 0.13897 0.0
C1230 C 0.3432 0.17124 0.08747 0.0
C1231 C 0.37017 0.11464 0.14186 0.0
H1232 H 0.41694 0.06013 0.09198 0.0
H1233 H 0.46695 0.14624 0.10579 0.0
H1234 H 0.34695 0.0725 0.11088 0.0
H1235 H 0.33781 0.0946 0.09247 0.0
H1236 H 0.36034 0.05766 0.09109 0.0
H1237 H 0.44057 0.19188 0.11588 0.0
H1238 H 0.39919 0.19681 0.10984 0.0
H1239 H 0.40861 0.17975 0.12959 0.0
H1240 H 0.29643 0.19692 0.10666 0.0
H1241 H 0.31778 0.14658 0.15185 0.0
H1242 H 0.34756 0.14861 0.08057 0.0
H1243 H 0.36519 0.1861 0.08636 0.0
H1244 H 0.32303 0.18432 0.08151 0.0
H1245 H 0.37214 0.09073 0.13591 0.0
H1246 H 0.36069 0.11137 0.15462 0.0
H1247 H 0.39479 0.1247 0.14272 0.0
C1248 C 0.56555 0.56172 0.85582 0.0
C1249 C 0.57172 0.55282 0.87228 0.0
C1250 C 0.58267 0.58707 0.8484 0.0
C1251 C 0.60581 0.60408 0.85783 0.0
C1252 C 0.61315 0.594 0.87414 0.0
C1253 C 0.59646 0.56816 0.88101 0.0
C1254 C 0.5751 0.59645 0.83076 0.0
C1255 C 0.6374 0.6116 0.88474 0.0
C1256 C 0.66866 0.66245 0.84255 0.0
C1257 C 0.65417 0.69188 0.84638 0.0
C1258 C 0.65199 0.63349 0.84474 0.0
C1259 C 0.62064 0.63408 0.85151 0.0
C1260 C 0.60547 0.66386 0.85473 0.0
C1261 C 0.6223 0.69245 0.85188 0.0
C1262 C 0.66849 0.60226 0.84058 0.0
C1263 C 0.57238 0.66555 0.86235 0.0
H1264 H 0.54672 0.54967 0.84895 0.0
H1265 H 0.60215 0.5607 0.89354 0.0
H1266 H 0.56075 0.61887 0.83071 0.0
H1267 H 0.5975 0.60122 0.82373 0.0
H1268 H 0.56118 0.57754 0.82423 0.0
H1269 H 0.64049 0.60037 0.89713 0.0
H1270 H 0.66107 0.61216 0.87847 0.0
H1271 H 0.62961 0.63684 0.88653 0.0
H1272 H 0.69315 0.66206 0.83799 0.0
H1273 H 0.61108 0.71524 0.85484 0.0
H1274 H 0.65168 0.58568 0.8342 0.0
H1275 H 0.67647 0.59034 0.85217 0.0
H1276 H 0.68985 0.60603 0.83257 0.0
H1277 H 0.55524 0.65062 0.85521 0.0
H1278 H 0.56304 0.69051 0.86289 0.0
H1279 H 0.57322 0.65582 0.87516 0.0
C1280 C 0.17845 0.84349 0.62741 0.0
C1281 C 0.19528 0.81942 0.61892 0.0
C1282 C 0.15241 0.85925 0.62015 0.0
C1283 C 0.14367 0.85179 0.60364 0.0
C1284 C 0.1619 0.82914 0.59453 0.0
C1285 C 0.18737 0.81285 0.60236 0.0
C1286 C 0.13347 0.88299 0.63043 0.0
C1287 C 0.15399 0.8215 0.5767 0.0
C1288 C 0.05589 0.86878 0.59576 0.0
C1289 C 0.0571 0.9009 0.59067 0.0
C1290 C 0.08416 0.85161 0.599 0.0
C1291 C 0.11428 0.8667 0.59659 0.0
C1292 C 0.11556 0.89823 0.59005 0.0
C1293 C 0.08689 0.91523 0.58749 0.0
C1294 C 0.08167 0.81838 0.60637 0.0
C1295 C 0.14717 0.91471 0.58673 0.0
H1296 H 0.18512 0.84962 0.64 0.0
H1297 H 0.20055 0.79457 0.59565 0.0
H1298 H 0.13363 0.90691 0.62442 0.0
H1299 H 0.10807 0.87513 0.63133 0.0
H1300 H 0.14318 0.8856 0.6432 0.0
H1301 H 0.17321 0.8072 0.57065 0.0
H1302 H 0.13131 0.80761 0.57613 0.0
H1303 H 0.15026 0.84393 0.56953 0.0
H1304 H 0.03283 0.85773 0.59827 0.0
H1305 H 0.0878 0.93996 0.58333 0.0
H1306 H 0.08957 0.81908 0.61952 0.0
H1307 H 0.09769 0.80144 0.59974 0.0
H1308 H 0.05676 0.80889 0.60594 0.0
H1309 H 0.15789 0.92271 0.59862 0.0
H1310 H 0.14417 0.93608 0.57863 0.0
H1311 H 0.16438 0.89793 0.58079 0.0
C1312 C 0.90493 0.42346 0.38212 0.0
C1313 C 0.92817 0.439 0.37242 0.0
C1314 C 0.887 0.39784 0.37583 0.0
C1315 C 0.89161 0.38808 0.35922 0.0
C1316 C 0.91391 0.40459 0.34905 0.0
C1317 C 0.93218 0.42978 0.35583 0.0
C1318 C 0.86371 0.38068 0.38715 0.0
C1319 C 0.91881 0.39528 0.33115 0.0
C1320 C 0.8683 0.30192 0.3502 0.0
C1321 C 0.83665 0.30554 0.3446 0.0
C1322 C 0.88684 0.32872 0.35454 0.0
C1323 C 0.87365 0.35987 0.35285 0.0
C1324 C 0.84213 0.36371 0.34658 0.0
C1325 C 0.82382 0.33643 0.34275 0.0
C1326 C 0.92006 0.32361 0.36158 0.0
C1327 C 0.82752 0.39657 0.34427 0.0
H1328 H 0.9009 0.43104 0.39479 0.0
H1329 H 0.94988 0.4419 0.34822 0.0
H1330 H 0.83912 0.38174 0.38192 0.0
H1331 H 0.87039 0.35497 0.38816 0.0
H1332 H 0.8632 0.39116 0.39982 0.0
H1333 H 0.93517 0.41207 0.32457 0.0
H1334 H 0.9291 0.37076 0.33044 0.0
H1335 H 0.89543 0.39476 0.32456 0.0
H1336 H 0.87824 0.27803 0.35166 0.0
H1337 H 0.79951 0.3393 0.33818 0.0
H1338 H 0.92079 0.3322 0.3746 0.0
H1339 H 0.93794 0.33777 0.3545 0.0
H1340 H 0.92735 0.29796 0.36136 0.0
H1341 H 0.82353 0.40794 0.35654 0.0
H1342 H 0.80419 0.39556 0.33761 0.0
H1343 H 0.84416 0.41229 0.33724 0.0
C1344 C 0.3008 0.81663 0.37946 0.0
C1345 C 0.29646 0.82104 0.36236 0.0
C1346 C 0.32501 0.83333 0.38803 0.0
C1347 C 0.3456 0.8543 0.37919 0.0
C1348 C 0.34022 0.85996 0.36213 0.0
C1349 C 0.31538 0.84372 0.35402 0.0
C1350 C 0.32937 0.82756 0.40637 0.0
C1351 C 0.36181 0.88185 0.35216 0.0
C1352 C 0.40287 0.91479 0.39814 0.0
C1353 C 0.43202 0.89802 0.39736 0.0
C1354 C 0.37397 0.90006 0.3934 0.0
C1355 C 0.37452 0.86826 0.38721 0.0
C1356 C 0.40378 0.85094 0.38688 0.0
C1357 C 0.4321 0.86591 0.39218 0.0
C1358 C 0.3431 0.91893 0.39442 0.0
C1359 C 0.40556 0.81727 0.37997 0.0
H1360 H 0.28599 0.79945 0.38604 0.0
H1361 H 0.31149 0.84812 0.34094 0.0
H1362 H 0.35134 0.81308 0.40846 0.0
H1363 H 0.33258 0.85067 0.41302 0.0
H1364 H 0.30864 0.81458 0.41186 0.0
H1365 H 0.35381 0.88428 0.33908 0.0
H1366 H 0.36259 0.90608 0.35783 0.0
H1367 H 0.38667 0.87227 0.35222 0.0
H1368 H 0.40271 0.93953 0.40231 0.0
H1369 H 0.45462 0.85294 0.39147 0.0
H1370 H 0.32372 0.90403 0.39989 0.0
H1371 H 0.33532 0.92592 0.38177 0.0
H1372 H 0.34587 0.94109 0.40194 0.0
H1373 H 0.38789 0.80152 0.38625 0.0
H1374 H 0.42982 0.80654 0.38139 0.0
H1375 H 0.39937 0.81763 0.36658 0.0
C1376 C 0.91069 0.57605 0.1204 0.0
C1377 C 0.93518 0.56218 0.12994 0.0
C1378 C 0.8923 0.60149 0.12648 0.0
C1379 C 0.89768 0.61269 0.14279 0.0
C1380 C 0.92086 0.59742 0.15295 0.0
C1381 C 0.93966 0.57244 0.14633 0.0
C1382 C 0.86809 0.6173 0.11514 0.0
C1383 C 0.92647 0.6081 0.1706 0.0
C1384 C 0.87544 0.69997 0.14862 0.0
C1385 C 0.84361 0.69747 0.15406 0.0
C1386 C 0.89387 0.67246 0.14559 0.0
C1387 C 0.88039 0.64178 0.14855 0.0
C1388 C 0.84888 0.63921 0.155 0.0
C1389 C 0.83061 0.66714 0.15741 0.0
C1390 C 0.92706 0.67621 0.13829 0.0
C1391 C 0.83406 0.60696 0.15877 0.0
H1392 H 0.90627 0.56754 0.10792 0.0
H1393 H 0.95828 0.56154 0.15384 0.0
H1394 H 0.8439 0.61679 0.12086 0.0
H1395 H 0.87462 0.64287 0.11325 0.0
H1396 H 0.86672 0.60546 0.10282 0.0
H1397 H 0.9421 0.59112 0.1775 0.0
H1398 H 0.93806 0.63207 0.17064 0.0
H1399 H 0.90328 0.61044 0.17727 0.0
H1400 H 0.88547 0.72345 0.146 0.0
H1401 H 0.80614 0.66524 0.16187 0.0
H1402 H 0.9274 0.66617 0.12554 0.0
H1403 H 0.94486 0.6626 0.14571 0.0
H1404 H 0.93475 0.70172 0.1377 0.0
H1405 H 0.8284 0.59436 0.14701 0.0
H1406 H 0.81156 0.60927 0.16607 0.0
H1407 H 0.85119 0.59169 0.16576 0.0
C1408 C 0.16561 0.16963 0.85448 0.0
C1409 C 0.1848 0.19085 0.86364 0.0
C1410 C 0.14048 0.15269 0.86193 0.0
C1411 C 0.13485 0.15631 0.87912 0.0
C1412 C 0.1549 0.17667 0.88864 0.0
C1413 C 0.1796 0.19393 0.88075 0.0
C1414 C 0.11959 0.13135 0.85127 0.0
C1415 C 0.14998 0.18049 0.90708 0.0
C1416 C 0.04985 0.13438 0.89126 0.0
C1417 C 0.05328 0.10171 0.89499 0.0
C1418 C 0.07661 0.15311 0.88698 0.0
C1419 C 0.1075 0.1389 0.8868 0.0
C1420 C 0.11131 0.10653 0.89174 0.0
C1421 C 0.08408 0.08819 0.89557 0.0
C1422 C 0.07148 0.18739 0.88151 0.0
C1423 C 0.14392 0.09072 0.89207 0.0
H1424 H 0.16998 0.16638 0.84135 0.0
H1425 H 0.19449 0.21011 0.88793 0.0
H1426 H 0.12078 0.10623 0.85579 0.0
H1427 H 0.09417 0.13916 0.85214 0.0
H1428 H 0.12685 0.13171 0.83802 0.0
H1429 H 0.1689 0.19555 0.91288 0.0
H1430 H 0.1263 0.19171 0.90949 0.0
H1431 H 0.14987 0.15662 0.91319 0.0
H1432 H 0.02606 0.14491 0.89078 0.0
H1433 H 0.08686 0.06303 0.8987 0.0
H1434 H 0.07605 0.18932 0.86799 0.0
H1435 H 0.08862 0.20364 0.88785 0.0
H1436 H 0.04665 0.19583 0.88403 0.0
H1437 H 0.15225 0.08651 0.87919 0.0
H1438 H 0.14343 0.0673 0.89866 0.0
H1439 H 0.16178 0.10655 0.89818 0.0
C1440 C 0.57783 0.43088 0.63723 0.0
C1441 C 0.58076 0.44075 0.62068 0.0
C1442 C 0.59654 0.40542 0.6434 0.0
C1443 C 0.61814 0.38933 0.63266 0.0
C1444 C 0.62215 0.40022 0.61619 0.0
C1445 C 0.60381 0.42608 0.61051 0.0
C1446 C 0.59235 0.39499 0.66119 0.0
C1447 C 0.64467 0.38358 0.60427 0.0
C1448 C 0.68396 0.3327 0.64682 0.0
C1449 C 0.66941 0.30274 0.64431 0.0
C1450 C 0.66692 0.36125 0.644 0.0
C1451 C 0.63498 0.3597 0.63806 0.0
C1452 C 0.62008 0.32947 0.63572 0.0
C1453 C 0.63736 0.30136 0.63909 0.0
C1454 C 0.68329 0.39304 0.64705 0.0
C1455 C 0.58634 0.32679 0.62899 0.0
H1456 H 0.5603 0.44233 0.6452 0.0
H1457 H 0.60696 0.43422 0.59786 0.0
H1458 H 0.58011 0.37136 0.66157 0.0
H1459 H 0.61608 0.39203 0.66726 0.0
H1460 H 0.57789 0.41243 0.66846 0.0
H1461 H 0.64557 0.39561 0.59198 0.0
H1462 H 0.66931 0.38284 0.60945 0.0
H1463 H 0.6368 0.35838 0.60241 0.0
H1464 H 0.7086 0.3338 0.65111 0.0
H1465 H 0.6261 0.2782 0.63712 0.0
H1466 H 0.66769 0.40885 0.65465 0.0
H1467 H 0.6875 0.40543 0.63508 0.0
H1468 H 0.70672 0.39014 0.65346 0.0
H1469 H 0.56949 0.34082 0.63679 0.0
H1470 H 0.57784 0.30153 0.62846 0.0
H1471 H 0.58538 0.33703 0.61629 0.0
C1472 C 0.24087 0.24342 0.22104 0.0
C1473 C 0.27085 0.24395 0.21325 0.0
C1474 C 0.23826 0.24912 0.23813 0.0
C1475 C 0.26623 0.2564 0.24742 0.0
C1476 C 0.29636 0.25824 0.23943 0.0
C1477 C 0.29837 0.25154 0.22246 0.0
C1478 C 0.20579 0.24644 0.24633 0.0
C1479 C 0.3265 0.26695 0.24883 0.0
C1480 C 0.2507 0.29656 0.28869 0.0
C1481 C 0.25361 0.27066 0.29967 0.0
C1482 C 0.25625 0.29258 0.2717 0.0
C1483 C 0.26392 0.26174 0.26555 0.0
C1484 C 0.26797 0.23571 0.27667 0.0
C1485 C 0.26317 0.24061 0.2937 0.0
C1486 C 0.25276 0.32111 0.26028 0.0
C1487 C 0.27564 0.20236 0.2705 0.0
H1488 H 0.21967 0.23728 0.2139 0.0
H1489 H 0.32156 0.25222 0.21635 0.0
H1490 H 0.20653 0.22769 0.2561 0.0
H1491 H 0.1995 0.26941 0.25248 0.0
H1492 H 0.18649 0.24029 0.23737 0.0
H1493 H 0.3477 0.26917 0.24056 0.0
H1494 H 0.32306 0.29003 0.25547 0.0
H1495 H 0.33167 0.24838 0.25832 0.0
H1496 H 0.24338 0.31983 0.29339 0.0
H1497 H 0.26499 0.22054 0.30222 0.0
H1498 H 0.23142 0.31782 0.25222 0.0
H1499 H 0.274 0.32311 0.25205 0.0
H1500 H 0.24995 0.34397 0.26722 0.0
H1501 H 0.25572 0.1936 0.26256 0.0
H1502 H 0.27923 0.18504 0.28081 0.0
H1503 H 0.29762 0.20274 0.26275 0.0
C1504 C 0.00666 0.00406 0.53574 0.0
C1505 C 0.97808 0.99188 0.54233 0.0
C1506 C 0.00933 0.01046 0.5187 0.0
C1507 C 0.98245 0.00541 0.50824 0.0
C1508 C 0.95316 0.99437 0.51502 0.0
C1509 C 0.95148 0.98727 0.53196 0.0
C1510 C 0.04114 0.02162 0.51183 0.0
C1511 C 0.92372 0.98972 0.50435 0.0
C1512 C 0.98385 0.0483 0.46687 0.0
C1513 C 0.99242 0.0234 0.45606 0.0
C1514 C 0.97961 0.04257 0.48384 0.0
C1515 C 0.98506 0.01139 0.49017 0.0
C1516 C 0.99336 0.98603 0.47926 0.0
C1517 C 0.99647 0.99227 0.46223 0.0
C1518 C 0.96969 0.06995 0.495 0.0
C1519 C 0.99996 0.95261 0.48565 0.0
H1520 H 0.0273 0.00725 0.54376 0.0
H1521 H 0.92931 0.978 0.53714 0.0
H1522 H 0.04989 0.0042 0.50244 0.0
H1523 H 0.03821 0.04504 0.50547 0.0
H1524 H 0.05971 0.02422 0.52162 0.0
H1525 H 0.90229 0.98286 0.51175 0.0
H1526 H 0.91825 0.01212 0.49746 0.0
H1527 H 0.92825 0.97069 0.49502 0.0
H1528 H 0.9805 0.07235 0.46203 0.0
H1529 H 0.0034 0.97314 0.45385 0.0
H1530 H 0.98906 0.07514 0.50404 0.0
H1531 H 0.94802 0.0632 0.50221 0.0
H1532 H 0.96444 0.09223 0.48793 0.0
H1533 H 0.02007 0.95329 0.49467 0.0
H1534 H 0.00623 0.93562 0.47553 0.0
H1535 H 0.97864 0.94323 0.4923 0.0
C1536 C 0.23926 0.79507 0.71466 0.0
C1537 C 0.24528 0.76989 0.70357 0.0
C1538 C 0.24373 0.79102 0.73174 0.0
C1539 C 0.25357 0.76077 0.73784 0.0
C1540 C 0.25981 0.73525 0.72668 0.0
C1541 C 0.25603 0.74028 0.70958 0.0
C1542 C 0.23787 0.81907 0.74322 0.0
C1543 C 0.26978 0.7025 0.73282 0.0
C1544 C 0.29282 0.75464 0.77998 0.0
C1545 C 0.26703 0.74505 0.78997 0.0
C1546 C 0.28855 0.76066 0.76307 0.0
C1547 C 0.25791 0.75603 0.75591 0.0
C1548 C 0.23163 0.74672 0.76599 0.0
C1549 C 0.23642 0.74178 0.78304 0.0
C1550 C 0.31689 0.77158 0.75283 0.0
C1551 C 0.19876 0.74102 0.75867 0.0
H1552 H 0.23107 0.81804 0.70995 0.0
H1553 H 0.26028 0.72074 0.70097 0.0
H1554 H 0.21818 0.81328 0.75198 0.0
H1555 H 0.25967 0.82385 0.75074 0.0
H1556 H 0.23141 0.8413 0.73638 0.0
H1557 H 0.2729 0.68502 0.72254 0.0
H1558 H 0.29271 0.70425 0.73975 0.0
H1559 H 0.25145 0.69305 0.74153 0.0
H1560 H 0.31645 0.75737 0.78545 0.0
H1561 H 0.21662 0.73406 0.7908 0.0
H1562 H 0.3109 0.7941 0.74617 0.0
H1563 H 0.3227 0.75323 0.74333 0.0
H1564 H 0.33862 0.77581 0.76052 0.0
H1565 H 0.19007 0.76304 0.75238 0.0
H1566 H 0.18089 0.73386 0.76821 0.0
H1567 H 0.20014 0.72184 0.74915 0.0
C1568 C 0.50292 0.0605 0.02801 0.0
C1569 C 0.50942 0.03379 0.03805 0.0
C1570 C 0.49801 0.05707 0.01093 0.0
C1571 C 0.50037 0.02626 0.0037 0.0
C1572 C 0.50672 0.99913 0.0138 0.0
C1573 C 0.51077 0.00319 0.03095 0.0
C1574 C 0.49035 0.08637 0.00063 0.0
C1575 C 0.5098 0.96594 0.00643 0.0
C1576 C 0.46128 0.00794 0.96249 0.0
C1577 C 0.4875 0.00959 0.95165 0.0
C1578 C 0.4649 0.01461 0.97939 0.0
C1579 C 0.49569 0.02229 0.9856 0.0
C1580 C 0.52209 0.02506 0.97461 0.0
C1581 C 0.51757 0.01903 0.95764 0.0
C1582 C 0.43601 0.01235 0.99065 0.0
C1583 C 0.55535 0.0328 0.98088 0.0
H1584 H 0.50159 0.08419 0.03354 0.0
H1585 H 0.51607 0.98259 0.0387 0.0
H1586 H 0.50924 0.09005 0.99113 0.0
H1587 H 0.46733 0.08282 0.99395 0.0
H1588 H 0.48848 0.10849 0.00827 0.0
H1589 H 0.51556 0.94751 0.01593 0.0
H1590 H 0.48708 0.95908 0.0002 0.0
H1591 H 0.52895 0.9658 0.99687 0.0
H1592 H 0.43797 1.00075 0.95778 0.0
H1593 H 0.53787 0.0199 0.94923 0.0
H1594 H 0.43381 0.03443 -0.00174 0.0
H1595 H 0.439 0.99189 -0.00068 0.0
H1596 H 0.41334 0.00886 0.98362 0.0
H1597 H 0.55502 0.05536 0.98817 0.0
H1598 H 0.573 0.03537 0.97064 0.0
H1599 H 0.56363 0.01341 0.9893 0.0
C1600 C 0.29657 0.74318 0.26976 0.0
C1601 C 0.26854 0.75006 0.2787 0.0
C1602 C 0.2954 0.73673 0.25273 0.0
C1603 C 0.26559 0.73816 0.24439 0.0
C1604 C 0.23709 0.74459 0.25341 0.0
C1605 C 0.23887 0.75 0.27057 0.0
C1606 C 0.32612 0.72893 0.24363 0.0
C1607 C 0.20494 0.74687 0.24485 0.0
C1608 C 0.26564 0.75633 0.19827 0.0
C1609 C 0.25748 0.72638 0.19163 0.0
C1610 C 0.26866 0.76047 0.21547 0.0
C1611 C 0.26429 0.73378 0.22614 0.0
C1612 C 0.2578 0.70313 0.21938 0.0
C1613 C 0.25399 0.6999 0.2022 0.0
C1614 C 0.27507 0.79363 0.22227 0.0
C1615 C 0.25403 0.67395 0.23032 0.0
H1616 H 0.31951 0.74296 0.27612 0.0
H1617 H 0.21727 0.75559 0.2775 0.0
H1618 H 0.32334 0.70625 0.23656 0.0
H1619 H 0.33158 0.74816 0.23455 0.0
H1620 H 0.3469 0.72643 0.25218 0.0
H1621 H 0.18508 0.75189 0.25367 0.0
H1622 H 0.2056 0.76629 0.23543 0.0
H1623 H 0.19959 0.72417 0.23822 0.0
H1624 H 0.26792 0.77687 0.1901 0.0
H1625 H 0.24777 0.6767 0.19702 0.0
H1626 H 0.29683 0.79341 0.23019 0.0
H1627 H 0.25467 0.80127 0.23019 0.0
H1628 H 0.27844 0.81171 0.21229 0.0
H1629 H 0.27491 0.6717 0.23878 0.0
H1630 H 0.2518 0.65145 0.22301 0.0
H1631 H 0.23231 0.67657 0.23815 0.0
C1632 C 0.49603 0.94794 0.46656 0.0
C1633 C 0.50347 0.97269 0.45544 0.0
C1634 C 0.49287 0.95403 0.48355 0.0
C1635 C 0.49818 0.98546 0.48957 0.0
C1636 C 0.50572 0.01058 0.47839 0.0
C1637 C 0.50781 0.00396 0.46136 0.0
C1638 C 0.48377 0.92687 0.49504 0.0
C1639 C 0.51214 0.04428 0.48444 0.0
C1640 C 0.46332 0.01062 0.53088 0.0
C1641 C 0.48974 0.0069 0.54146 0.0
C1642 C 0.46554 0.00292 0.51403 0.0
C1643 C 0.49519 0.99217 0.50756 0.0
C1644 C 0.52193 0.98808 0.51823 0.0
C1645 C 0.51873 0.99507 0.53518 0.0
C1646 C 0.43625 0.00661 0.50314 0.0
C1647 C 0.55409 0.97728 0.51165 0.0
H1648 H 0.49247 0.92376 0.46193 0.0
H1649 H 0.5139 0.023 0.45275 0.0
H1650 H 0.50306 0.92293 0.5043 0.0
H1651 H 0.46166 0.93317 0.50199 0.0
H1652 H 0.47956 0.90402 0.48828 0.0
H1653 H 0.51871 0.06082 0.47418 0.0
H1654 H 0.49058 0.05391 0.49079 0.0
H1655 H 0.53195 0.04404 0.49365 0.0
H1656 H 0.44083 0.01959 0.53582 0.0
H1657 H 0.5392 0.99256 0.54338 0.0
H1658 H 0.43127 0.98379 0.49653 0.0
H1659 H 0.44068 0.02524 0.49359 0.0
H1660 H 0.41457 0.01348 0.51033 0.0
H1661 H 0.55174 0.95361 0.50547 0.0
H1662 H 0.57246 0.97531 0.52159 0.0
H1663 H 0.56275 0.99456 0.50218 0.0
C1664 C 0.20352 0.26819 0.77115 0.0
C1665 C 0.22934 0.25986 0.78143 0.0
C1666 C 0.20803 0.27343 0.75416 0.0
C1667 C 0.23895 0.26934 0.74725 0.0
C1668 C 0.26527 0.26153 0.75763 0.0
C1669 C 0.26021 0.25732 0.77471 0.0
C1670 C 0.1796 0.28271 0.74356 0.0
C1671 C 0.29849 0.25643 0.75062 0.0
C1672 C 0.24422 0.24814 0.70157 0.0
C1673 C 0.25496 0.27713 0.69477 0.0
C1674 C 0.23887 0.24527 0.71868 0.0
C1675 C 0.24357 0.27229 0.72907 0.0
C1676 C 0.25306 0.30198 0.72213 0.0
C1677 C 0.25908 0.30393 0.70507 0.0
C1678 C 0.22927 0.21307 0.72571 0.0
C1679 C 0.25735 0.33154 0.73275 0.0
H1680 H 0.17967 0.2704 0.77641 0.0
H1681 H 0.28009 0.2506 0.78266 0.0
H1682 H 0.1852 0.30459 0.73627 0.0
H1683 H 0.17426 0.26324 0.73459 0.0
H1684 H 0.15772 0.28729 0.75107 0.0
H1685 H 0.31644 0.25091 0.76041 0.0
H1686 H 0.29805 0.23629 0.74161 0.0
H1687 H 0.30646 0.27813 0.7438 0.0
H1688 H 0.24138 0.22734 0.69362 0.0
H1689 H 0.26723 0.32642 0.69977 0.0
H1690 H 0.20622 0.21519 0.73251 0.0
H1691 H 0.24762 0.20486 0.73474 0.0
H1692 H 0.22659 0.19447 0.71594 0.0
H1693 H 0.23527 0.3361 0.74008 0.0
H1694 H 0.26282 0.35323 0.72526 0.0
H1695 H 0.27721 0.32771 0.74169 0.0
C1696 C 0.01782 0.99912 0.95506 0.0
C1697 C 0.98841 0.01019 0.94894 0.0
C1698 C 0.02197 0.99356 0.97211 0.0
C1699 C 0.99579 0.99839 0.98306 0.0
C1700 C 0.9658 0.00863 0.97681 0.0
C1701 C 0.96261 0.01481 0.95984 0.0
C1702 C 0.05444 0.98315 0.97845 0.0
C1703 C 0.93707 0.01306 0.98802 0.0
C1704 C 0.99768 0.95493 0.02422 0.0
C1705 C 0.00579 0.97975 0.03518 0.0
C1706 C 0.99401 0.96078 0.00724 0.0
C1707 C 0.9994 0.99206 0.00105 0.0
C1708 C 0.00745 0.01731 0.01208 0.0
C1709 C 0.01012 0.01092 0.02912 0.0
C1710 C 0.9844 0.93347 0.99595 0.0
C1711 C 0.01385 0.05086 0.00582 0.0
H1712 H 0.03782 0.99588 0.94662 0.0
H1713 H 0.93976 0.02316 0.95505 0.0
H1714 H 0.06327 1.0006 0.9878 0.0
H1715 H 0.05246 0.95954 0.98471 0.0
H1716 H 0.07249 0.98121 0.96836 0.0
H1717 H 0.9152 0.02026 0.98106 0.0
H1718 H 0.93194 0.99041 0.99475 0.0
H1719 H 0.94226 0.0317 -0.00254 0.0
H1720 H 0.99412 0.93083 0.02896 0.0
H1721 H 0.01673 0.02998 0.03761 0.0
H1722 H 0.0034 0.92922 0.98658 0.0
H1723 H 0.96214 0.93979 0.98913 0.0
H1724 H 0.98021 0.91078 0.00286 0.0
H1725 H 0.03353 0.05037 0.99654 0.0
H1726 H 0.0206 0.06759 0.01596 0.0
H1727 H 0.99223 0.06041 -0.00051 0.0
C1728 C 0.75839 0.71077 0.71922 0.0
C1729 C 0.75643 0.73596 0.70777 0.0
C1730 C 0.75324 0.71617 0.73613 0.0
C1731 C 0.74696 0.74772 0.74173 0.0
C1732 C 0.74468 0.77326 0.73018 0.0
C1733 C 0.749 0.76696 0.71322 0.0
C1734 C 0.75477 0.68815 0.748 0.0
C1735 C 0.73862 0.8073 0.73579 0.0
C1736 C 0.7069 0.75761 0.78348 0.0
C1737 C 0.73328 0.76283 0.79394 0.0
C1738 C 0.71105 0.75264 0.76647 0.0
C1739 C 0.74231 0.75372 0.75969 0.0
C1740 C 0.76909 0.75931 0.77016 0.0
C1741 C 0.76428 0.76333 0.78728 0.0
C1742 C 0.68203 0.74573 0.7558 0.0
C1743 C 0.80271 0.76121 0.76325 0.0
H1744 H 0.76411 0.68678 0.71491 0.0
H1745 H 0.74799 0.78645 0.70432 0.0
H1746 H 0.77474 0.69165 0.75692 0.0
H1747 H 0.73224 0.6867 0.75531 0.0
H1748 H 0.75843 0.66492 0.74151 0.0
H1749 H 0.73782 0.82444 0.72524 0.0
H1750 H 0.71555 0.80873 0.74262 0.0
H1751 H 0.75783 0.81492 0.74448 0.0
H1752 H 0.6829 0.75688 0.78868 0.0
H1753 H 0.78462 0.76759 0.79537 0.0
H1754 H 0.68484 0.72207 0.74965 0.0
H1755 H 0.67988 0.76403 0.74588 0.0
H1756 H 0.65937 0.74551 0.76307 0.0
H1757 H 0.80946 0.73789 0.7576 0.0
H1758 H 0.82071 0.76734 0.77291 0.0
H1759 H 0.80379 0.77958 0.75329 0.0
C1760 C 0.76405 0.25157 0.20268 0.0
C1761 C 0.75517 0.28119 0.1959 0.0
C1762 C 0.76649 0.24763 0.21991 0.0
C1763 C 0.76075 0.2742 0.23047 0.0
C1764 C 0.75347 0.30457 0.2236 0.0
C1765 C 0.7503 0.30759 0.20637 0.0
C1766 C 0.77382 0.21475 0.22683 0.0
C1767 C 0.74822 0.33366 0.23444 0.0
C1768 C 0.73469 0.25673 0.27467 0.0
C1769 C 0.76415 0.25757 0.28298 0.0
C1770 C 0.73315 0.26241 0.25753 0.0
C1771 C 0.76163 0.26998 0.24873 0.0
C1772 C 0.79114 0.27246 0.25729 0.0
C1773 C 0.79211 0.26575 0.27429 0.0
C1774 C 0.70134 0.25904 0.24873 0.0
C1775 C 0.8218 0.28148 0.24843 0.0
H1776 H 0.7674 0.23108 0.19457 0.0
H1777 H 0.74353 0.33054 0.20108 0.0
H1778 H 0.79537 0.21578 0.23489 0.0
H1779 H 0.75349 0.2065 0.23464 0.0
H1780 H 0.77805 0.19671 0.21692 0.0
H1781 H 0.74535 0.35601 0.22707 0.0
H1782 H 0.72638 0.33024 0.24211 0.0
H1783 H 0.76873 0.33676 0.24308 0.0
H1784 H 0.71317 0.25014 0.28142 0.0
H1785 H 0.81488 0.26665 0.2808 0.0
H1786 H 0.70288 0.2395 0.2394 0.0
H1787 H 0.6955 0.28146 0.24195 0.0
H1788 H 0.68138 0.25355 0.25741 0.0
H1789 H 0.82838 0.26238 0.23947 0.0
H1790 H 0.84216 0.28495 0.25715 0.0
H1791 H 0.8183 0.30393 0.24125 0.0
C1792 C 0.75313 0.24175 0.78355 0.0
C1793 C 0.76288 0.27194 0.78924 0.0
C1794 C 0.74916 0.23603 0.76652 0.0
C1795 C 0.75418 0.26142 0.75511 0.0
C1796 C 0.76269 0.29229 0.76092 0.0
C1797 C 0.76741 0.29704 0.77792 0.0
C1798 C 0.74064 0.20266 0.7607 0.0
C1799 C 0.7672 0.32018 0.74918 0.0
C1800 C 0.7742 0.24224 0.71027 0.0
C1801 C 0.74386 0.24412 0.7029 0.0
C1802 C 0.7779 0.24749 0.72736 0.0
C1803 C 0.75073 0.25572 0.73706 0.0
C1804 C 0.72026 0.25871 0.72951 0.0
C1805 C 0.71713 0.25242 0.71254 0.0
C1806 C 0.81066 0.24353 0.73511 0.0
C1807 C 0.69096 0.26844 0.73934 0.0
H1808 H 0.75003 0.2223 0.79234 0.0
H1809 H 0.77482 0.32045 0.78241 0.0
H1810 H 0.71808 0.20322 0.75341 0.0
H1811 H 0.75979 0.19345 0.7524 0.0
H1812 H 0.73759 0.1856 0.77118 0.0
H1813 H 0.77194 0.34305 0.75582 0.0
H1814 H 0.78763 0.3153 0.74072 0.0
H1815 H 0.7455 0.32325 0.74136 0.0
H1816 H 0.79477 0.23552 0.7028 0.0
H1817 H 0.69368 0.25413 0.70676 0.0
H1818 H 0.80966 0.22496 0.74496 0.0
H1819 H 0.81824 0.26629 0.74106 0.0
H1820 H 0.82917 0.23645 0.72589 0.0
H1821 H 0.68592 0.2503 0.74906 0.0
H1822 H 0.6693 0.27099 0.73141 0.0
H1823 H 0.69542 0.29162 0.74573 0.0
C1824 C 0.74581 0.7046 0.28351 0.0
C1825 C 0.74829 0.72966 0.29501 0.0
C1826 C 0.75012 0.71021 0.26655 0.0
C1827 C 0.75608 0.74185 0.26099 0.0
C1828 C 0.7592 0.76719 0.2726 0.0
C1829 C 0.7557 0.76067 0.28958 0.0
C1830 C 0.74771 0.68242 0.25458 0.0
C1831 C 0.76501 0.80131 0.26704 0.0
C1832 C 0.79218 0.75399 0.21846 0.0
C1833 C 0.76485 0.76002 0.20879 0.0
C1834 C 0.78961 0.7477 0.23543 0.0
C1835 C 0.75902 0.74831 0.24299 0.0
C1836 C 0.73127 0.75446 0.2333 0.0
C1837 C 0.73449 0.75978 0.21619 0.0
C1838 C 0.81959 0.7402 0.24524 0.0
C1839 C 0.69832 0.75585 0.24107 0.0
H1840 H 0.7401 0.6806 0.2878 0.0
H1841 H 0.7571 0.78007 0.29851 0.0
H1842 H 0.72681 0.68588 0.24625 0.0
H1843 H 0.76946 0.68136 0.24666 0.0
H1844 H 0.74496 0.65903 0.26105 0.0
H1845 H 0.76703 0.81819 0.27765 0.0
H1846 H 0.78735 0.80272 0.2596 0.0
H1847 H 0.74499 0.8093 0.25894 0.0
H1848 H 0.81567 0.75382 0.21266 0.0
H1849 H 0.71344 0.76465 0.20868 0.0
H1850 H 0.81715 0.71644 0.25134 0.0
H1851 H 0.82295 0.75826 0.2552 0.0
H1852 H 0.84146 0.73991 0.23736 0.0
H1853 H 0.69236 0.73236 0.24676 0.0
H1854 H 0.67937 0.762 0.23191 0.0
H1855 H 0.69803 0.77401 0.25113 0.0
C1856 C 0.49088 0.5163 0.03631 0.0
C1857 C 0.49583 0.48574 0.04301 0.0
C1858 C 0.49486 0.52164 0.01923 0.0
C1859 C 0.50483 0.49598 0.00889 0.0
C1860 C 0.5112 0.46547 0.01582 0.0
C1861 C 0.50617 0.46062 0.03278 0.0
C1862 C 0.48738 0.55435 0.01216 0.0
C1863 C 0.52286 0.43781 0.00531 0.0
C1864 C 0.48768 0.49729 0.96265 0.0
C1865 C 0.5168 0.50889 0.95642 0.0
C1866 C 0.48317 0.49359 0.9798 0.0
C1867 C 0.50872 0.50086 0.9908 0.0
C1868 C 0.5384 0.5118 0.98448 0.0
C1869 C 0.54194 0.51606 0.96737 0.0
C1870 C 0.45101 0.48233 0.98618 0.0
C1871 C 0.56649 0.51883 0.99577 0.0
H1872 H 0.48251 0.53553 0.04426 0.0
H1873 H 0.51009 0.43701 0.03808 0.0
H1874 H 0.50865 0.56405 0.00558 0.0
H1875 H 0.46773 0.55232 0.00292 0.0
H1876 H 0.48004 0.57175 0.02189 0.0
H1877 H 0.52837 0.41614 0.01282 0.0
H1878 H 0.50435 0.4314 0.996 0.0
H1879 H 0.5448 0.44488 -0.00159 0.0
H1880 H 0.46817 0.49209 0.95416 0.0
H1881 H 0.56458 0.52483 0.96252 0.0
H1882 H 0.44125 0.50007 0.99512 0.0
H1883 H 0.45384 0.4593 0.99291 0.0
H1884 H 0.43328 0.47887 0.97604 0.0
H1885 H 0.55996 0.53788 0.00477 0.0
H1886 H 0.58811 0.5267 0.98881 0.0
H1887 H 0.5727 0.49708 0.00304 0.0
C1888 C 0.01572 0.51037 0.45901 0.0
C1889 C 0.9849 0.50264 0.45341 0.0
C1890 C 0.02158 0.51513 0.47598 0.0
C1891 C 0.99578 0.51288 0.48739 0.0
C1892 C 0.96434 0.50672 0.48161 0.0
C1893 C 0.95937 0.50122 0.46469 0.0
C1894 C 0.05551 0.52117 0.48178 0.0
C1895 C 0.93609 0.50513 0.49332 0.0
C1896 C 0.01231 0.49255 0.53247 0.0
C1897 C 0.01253 0.5231 0.53967 0.0
C1898 C 0.00735 0.48888 0.51536 0.0
C1899 C 0.00164 0.51637 0.50543 0.0
C1900 C 0.00089 0.54716 0.51277 0.0
C1901 C 0.00674 0.55018 0.52978 0.0
C1902 C 0.00878 0.4557 0.50785 0.0
C1903 C 0.99389 0.57689 0.50267 0.0
H1904 H 0.03547 0.511 0.45026 0.0
H1905 H 0.9355 0.4953 0.46027 0.0
H1906 H 0.05665 0.54369 0.48909 0.0
H1907 H 0.06328 0.50137 0.49007 0.0
H1908 H 0.07271 0.52295 0.4713 0.0
H1909 H 0.9129 0.50242 0.48666 0.0
H1910 H 0.93898 0.48448 0.50188 0.0
H1911 H 0.93501 0.52716 0.50103 0.0
H1912 H 0.01708 0.47168 0.54012 0.0
H1913 H 0.00664 0.57383 0.5354 0.0
H1914 H 0.02739 0.45497 0.49801 0.0
H1915 H 0.9855 0.44978 0.50193 0.0
H1916 H 0.01435 0.43695 0.51722 0.0
H1917 H 0.01239 0.57992 0.49291 0.0
H1918 H 0.99334 0.59896 0.5104 0.0
H1919 H 0.97039 0.57436 0.49632 0.0
C1920 C 0.02263 0.49641 0.04216 0.0
C1921 C 0.99182 0.50204 0.04841 0.0
C1922 C 0.02744 0.49198 0.02507 0.0
C1923 C 1.00067 0.49245 0.01421 0.0
C1924 C 0.96936 0.49638 0.02067 0.0
C1925 C 0.96538 0.50155 0.03768 0.0
C1926 C 0.0612 0.48825 0.01855 0.0
C1927 C 0.94015 0.49608 0.00956 0.0
C1928 C 0.01172 0.51454 0.96889 0.0
C1929 C 0.01314 0.48419 0.96148 0.0
C1930 C 0.00821 0.51758 0.98613 0.0
C1931 C 0.00528 0.48962 0.99604 0.0
C1932 C 0.00583 0.45897 0.98853 0.0
C1933 C 0.01011 0.45663 0.97136 0.0
C1934 C 0.00811 0.55066 0.99379 0.0
C1935 C 0.00183 0.42868 -0.00138 0.0
H1936 H 0.04305 0.49722 0.05049 0.0
H1937 H 0.94152 0.50582 0.0426 0.0
H1938 H 0.06322 0.46605 0.01104 0.0
H1939 H 0.06705 0.50873 0.01028 0.0
H1940 H 0.07927 0.48731 0.02867 0.0
H1941 H 0.91739 0.49704 0.01672 0.0
H1942 H 0.94088 0.51697 0.00104 0.0
H1943 H 0.94003 0.47411 0.00178 0.0
H1944 H 0.01436 0.53582 0.96127 0.0
H1945 H 0.01095 0.43311 0.96561 0.0
H1946 H 0.02742 0.55245 0.00323 0.0
H1947 H 0.98499 0.55495 0.00023 0.0
H1948 H 0.01169 0.56989 0.98443 0.0
H1949 H 0.02124 0.4269 0.00799 0.0
H1950 H 0.0023 0.40673 0.9908 0.0
H1951 H 0.97872 0.4294 0.00545 0.0
C1952 C 0.50558 0.50023 0.46113 0.0
C1953 C 0.47597 0.51124 0.45525 0.0
C1954 C 0.51074 0.49604 0.47819 0.0
C1955 C 0.48534 0.50217 0.48946 0.0
C1956 C 0.45504 0.51213 0.48347 0.0
C1957 C 0.45087 0.51699 0.46644 0.0
C1958 C 0.54354 0.4859 0.4842 0.0
C1959 C 0.42713 0.51786 0.49506 0.0
C1960 C 0.49326 0.46284 0.53149 0.0
C1961 C 0.50355 0.48856 0.54132 0.0
C1962 C 0.48614 0.46721 0.5147 0.0
C1963 C 0.4904 0.49787 0.50751 0.0
C1964 C 0.50016 0.52414 0.51749 0.0
C1965 C 0.5062 0.51923 0.53444 0.0
C1966 C 0.47476 0.43889 0.50458 0.0
C1967 C 0.50547 0.55704 0.51014 0.0
H1968 H 0.52506 0.49618 0.45246 0.0
H1969 H 0.42789 0.52538 0.46183 0.0
H1970 H 0.55322 0.5042 0.49286 0.0
H1971 H 0.54178 0.463 0.49115 0.0
H1972 H 0.56084 0.48268 0.47385 0.0
H1973 H 0.40476 0.52415 0.4883 0.0
H1974 H 0.4226 0.49609 0.50264 0.0
H1975 H 0.43294 0.53765 0.50376 0.0
H1976 H 0.49112 0.43914 0.53695 0.0
H1977 H 0.51452 0.53895 0.54209 0.0
H1978 H 0.493 0.43273 0.49508 0.0
H1979 H 0.45228 0.44505 0.49792 0.0
H1980 H 0.47033 0.41733 0.51236 0.0
H1981 H 0.52463 0.5558 0.50059 0.0
H1982 H 0.51253 0.575 0.51965 0.0
H1983 H 0.48334 0.5655 0.50387 0.0
C1984 C 0.29757 0.14435 0.38329 0.0
C1985 C 0.30314 0.17003 0.3724 0.0
C1986 C 0.32042 0.11984 0.38539 0.0
C1987 C 0.34958 0.121 0.37639 0.0
C1988 C 0.35535 0.14682 0.36536 0.0
C1989 C 0.33208 0.17098 0.36349 0.0
C1990 C 0.31333 0.0927 0.39725 0.0
C1991 C 0.38612 0.14892 0.35552 0.0
C1992 C 0.42124 0.07351 0.39247 0.0
C1993 C 0.42068 0.04625 0.38224 0.0
C1994 C 0.39824 0.09798 0.39072 0.0
C1995 C 0.37404 0.09515 0.37846 0.0
C1996 C 0.37328 0.06766 0.36814 0.0
C1997 C 0.39659 0.04358 0.37015 0.0
C1998 C 0.39989 0.12691 0.40196 0.0
C1999 C 0.34786 0.0637 0.35495 0.0
H2000 H 0.2753 0.14333 0.39022 0.0
H2001 H 0.33665 0.19068 0.35503 0.0
H2002 H 0.31393 0.06945 0.39054 0.0
H2003 H 0.33207 0.09166 0.40701 0.0
H2004 H 0.28953 0.09529 0.40331 0.0
H2005 H 0.38697 0.17057 0.34749 0.0
H2006 H 0.407 0.1495 0.36406 0.0
H2007 H 0.3888 0.12732 0.34759 0.0
H2008 H 0.43973 0.07582 0.40185 0.0
H2009 H 0.39588 0.02262 0.3622 0.0
H2010 H 0.37716 0.1293 0.40902 0.0
H2011 H 0.40272 0.14904 0.39445 0.0
H2012 H 0.42013 0.12545 0.4109 0.0
H2013 H 0.32366 0.06433 0.36068 0.0
H2014 H 0.35047 0.04082 0.348 0.0
H2015 H 0.34915 0.08392 0.34602 0.0
C2016 C 0.09197 0.05174 0.63322 0.0
C2017 C 0.07513 0.05103 0.61814 0.0
C2018 C 0.11345 0.07673 0.63691 0.0
C2019 C 0.1184 0.10157 0.62521 0.0
C2020 C 0.10214 0.10058 0.60979 0.0
C2021 C 0.08065 0.07538 0.60646 0.0
C2022 C 0.13024 0.07696 0.65351 0.0
C2023 C 0.10695 0.12649 0.59694 0.0
C2024 C 0.14647 0.18322 0.64053 0.0
C2025 C 0.17929 0.18259 0.63663 0.0
C2026 C 0.12652 0.15691 0.63704 0.0
C2027 C 0.13961 0.12927 0.62937 0.0
C2028 C 0.17279 0.12829 0.62557 0.0
C2029 C 0.19225 0.15491 0.62929 0.0
C2030 C 0.09132 0.15881 0.64142 0.0
C2031 C 0.18763 0.09931 0.61735 0.0
H2032 H 0.08792 0.03306 0.64234 0.0
H2033 H 0.06787 0.07499 0.59475 0.0
H2034 H 0.1566 0.0785 0.65174 0.0
H2035 H 0.12282 0.09845 0.66067 0.0
H2036 H 0.12477 0.05523 0.66098 0.0
H2037 H 0.09371 0.12143 0.58527 0.0
H2038 H 0.09862 0.14988 0.60192 0.0
H2039 H 0.13285 0.12905 0.59401 0.0
H2040 H 0.13623 0.20443 0.64624 0.0
H2041 H 0.21756 0.1542 0.62619 0.0
H2042 H 0.08471 0.13862 0.64971 0.0
H2043 H 0.07656 0.15654 0.63002 0.0
H2044 H 0.08502 0.18172 0.64767 0.0
H2045 H 0.18336 0.07758 0.625 0.0
H2046 H 0.21389 0.1021 0.61545 0.0
H2047 H 0.17611 0.09511 0.60513 0.0
C2048 C 0.19473 0.83503 0.88364 0.0
C2049 C 0.19582 0.8188 0.86839 0.0
C2050 C 0.16995 0.85684 0.88727 0.0
C2051 C 0.14565 0.8627 0.87537 0.0
C2052 C 0.14698 0.84695 0.85982 0.0
C2053 C 0.172 0.8252 0.85652 0.0
C2054 C 0.16942 0.87312 0.904 0.0
C2055 C 0.12162 0.8526 0.84676 0.0
C2056 C 0.06413 0.89197 0.89042 0.0
C2057 C 0.06548 0.92492 0.88685 0.0
C2058 C 0.09006 0.87156 0.88682 0.0
C2059 C 0.11814 0.88432 0.87943 0.0
C2060 C 0.11978 0.91758 0.87587 0.0
C2061 C 0.09347 0.93747 0.87963 0.0
C2062 C 0.08733 0.83627 0.89085 0.0
C2063 C 0.14928 0.93212 0.868 0.0
H2064 H 0.213 0.83034 0.89289 0.0
H2065 H 0.17264 0.81289 0.84468 0.0
H2066 H 0.16847 0.89956 0.90243 0.0
H2067 H 0.14751 0.86592 0.91089 0.0
H2068 H 0.19076 0.86699 0.91164 0.0
H2069 H 0.12681 0.83955 0.83505 0.0
H2070 H 0.0979 0.84464 0.85147 0.0
H2071 H 0.1197 0.87861 0.84398 0.0
H2072 H 0.04268 0.88198 0.89601 0.0
H2073 H 0.09479 0.96288 0.87681 0.0
H2074 H 0.10696 0.82906 0.89938 0.0
H2075 H 0.09 0.82184 0.87937 0.0
H2076 H 0.06399 0.83016 0.89672 0.0
H2077 H 0.17062 0.92747 0.87587 0.0
H2078 H 0.14691 0.95844 0.86615 0.0
H2079 H 0.15383 0.92069 0.8558 0.0
C2080 C 0.32263 0.84645 0.12688 0.0
C2081 C 0.33599 0.81687 0.13156 0.0
C2082 C 0.34222 0.87324 0.12365 0.0
C2083 C 0.37598 0.87045 0.12521 0.0
C2084 C 0.38956 0.84078 0.13014 0.0
C2085 C 0.36944 0.81439 0.13322 0.0
C2086 C 0.32684 0.90444 0.1184 0.0
C2087 C 0.42541 0.83683 0.13206 0.0
C2088 C 0.4314 0.92842 0.10253 0.0
C2089 C 0.44039 0.94951 0.11528 0.0
C2090 C 0.40993 0.90301 0.1055 0.0
C2091 C 0.39726 0.89843 0.12163 0.0
C2092 C 0.40587 0.91991 0.13449 0.0
C2093 C 0.42723 0.94521 0.13115 0.0
C2094 C 0.40119 0.88076 0.09143 0.0
C2095 C 0.39303 0.91579 0.15187 0.0
H2096 H 0.29683 0.84862 0.12554 0.0
H2097 H 0.38003 0.7917 0.13686 0.0
H2098 H 0.33358 0.92386 0.12714 0.0
H2099 H 0.33578 0.9115 0.10596 0.0
H2100 H 0.30023 0.90279 0.11792 0.0
H2101 H 0.43214 0.81232 0.13623 0.0
H2102 H 0.43751 0.84173 0.12007 0.0
H2103 H 0.43472 0.85445 0.14118 0.0
H2104 H 0.44131 0.9316 0.09021 0.0
H2105 H 0.43398 0.96134 0.1411 0.0
H2106 H 0.37472 0.87976 0.08995 0.0
H2107 H 0.40948 0.85607 0.09429 0.0
H2108 H 0.41199 0.88837 0.07946 0.0
H2109 H 0.3664 0.91556 0.15171 0.0
H2110 H 0.4012 0.93515 0.16035 0.0
H2111 H 0.401 0.89237 0.15698 0.0
C2112 C 0.67673 0.83068 0.64015 0.0
C2113 C 0.68673 0.80983 0.62749 0.0
C2114 C 0.65341 0.85441 0.63717 0.0
C2115 C 0.63973 0.85735 0.62116 0.0
C2116 C 0.65022 0.83684 0.60825 0.0
C2117 C 0.67357 0.81339 0.61157 0.0
C2118 C 0.64294 0.87589 0.65124 0.0
C2119 C 0.63625 0.83919 0.59101 0.0
C2120 C 0.55631 0.89362 0.61719 0.0
C2121 C 0.56307 0.9248 0.61161 0.0
C2122 C 0.58103 0.87157 0.62042 0.0
C2123 C 0.6134 0.88087 0.61805 0.0
C2124 C 0.62045 0.91234 0.61248 0.0
C2125 C 0.59521 0.93391 0.6093 0.0
C2126 C 0.57246 0.83821 0.62627 0.0
C2127 C 0.65465 0.92317 0.60984 0.0
H2128 H 0.6868 0.82821 0.65248 0.0
H2129 H 0.68117 0.7975 0.60168 0.0
H2130 H 0.64555 0.90146 0.64764 0.0
H2131 H 0.61717 0.87174 0.65399 0.0
H2132 H 0.657 0.8716 0.66274 0.0
H2133 H 0.64794 0.82238 0.58218 0.0
H2134 H 0.61019 0.83373 0.5914 0.0
H2135 H 0.63886 0.86399 0.5862 0.0
H2136 H 0.5316 0.8863 0.61901 0.0
H2137 H 0.6007 0.95795 0.60502 0.0
H2138 H 0.58409 0.8333 0.63839 0.0
H2139 H 0.58161 0.82014 0.61734 0.0
H2140 H 0.54614 0.83484 0.62765 0.0
H2141 H 0.66854 0.92044 0.6215 0.0
H2142 H 0.65615 0.94859 0.60574 0.0
H2143 H 0.66635 0.90783 0.60036 0.0
C2144 C 0.90531 0.93594 0.38739 0.0
C2145 C 0.93647 0.92486 0.39074 0.0
C2146 C 0.88017 0.91441 0.38399 0.0
C2147 C 0.88627 0.88098 0.38398 0.0
C2148 C 0.91765 0.86964 0.38737 0.0
C2149 C 0.94235 0.89169 0.39068 0.0
C2150 C 0.84706 0.92745 0.38041 0.0
C2151 C 0.92514 0.83417 0.38753 0.0
C2152 C 0.81718 0.82264 0.39058 0.0
C2153 C 0.81137 0.81164 0.3744 0.0
C2154 C 0.84118 0.84548 0.39383 0.0
C2155 C 0.85982 0.85775 0.38059 0.0
C2156 C 0.85372 0.84721 0.3642 0.0
C2157 C 0.8296 0.82427 0.36129 0.0
C2158 C 0.84693 0.85609 0.4115 0.0
C2159 C 0.87299 0.85981 0.34974 0.0
H2160 H 0.9005 0.96151 0.38738 0.0
H2161 H 0.96631 0.88287 0.39326 0.0
H2162 H 0.83893 0.9193 0.36801 0.0
H2163 H 0.82968 0.91802 0.38962 0.0
H2164 H 0.84632 0.9541 0.38075 0.0
H2165 H 0.95078 0.82926 0.39032 0.0
H2166 H 0.9101 0.8219 0.39695 0.0
H2167 H 0.91922 0.82343 0.37531 0.0
H2168 H 0.80324 0.81309 0.4008 0.0
H2169 H 0.82528 0.81601 0.34875 0.0
H2170 H 0.84476 0.88256 0.41245 0.0
H2171 H 0.8717 0.84965 0.41531 0.0
H2172 H 0.82979 0.84492 0.42033 0.0
H2173 H 0.87151 0.88638 0.34928 0.0
H2174 H 0.86457 0.85001 0.33768 0.0
H2175 H 0.89866 0.85342 0.35135 0.0
C2176 C 0.82265 0.16101 0.13075 0.0
C2177 C 0.83666 0.19127 0.13325 0.0
C2178 C 0.84163 0.13392 0.12725 0.0
C2179 C 0.87544 0.1371 0.12634 0.0
C2180 C 0.88972 0.16749 0.12908 0.0
C2181 C 0.87018 0.19417 0.13245 0.0
C2182 C 0.82549 0.10196 0.12436 0.0
C2183 C 0.92569 0.17186 0.12836 0.0
C2184 C 0.9286 0.06357 0.13173 0.0
C2185 C 0.93766 0.05688 0.11532 0.0
C2186 C 0.90803 0.0893 0.13547 0.0
C2187 C 0.896 0.10874 0.12249 0.0
C2188 C 0.9045 0.10174 0.10586 0.0
C2189 C 0.9253 0.07597 0.10249 0.0
C2190 C 0.89969 0.09605 0.15336 0.0
C2191 C 0.89199 0.12176 0.09166 0.0
H2192 H 0.79677 0.15852 0.13129 0.0
H2193 H 0.88126 0.21741 0.1344 0.0
H2194 H 0.83131 0.09306 0.11174 0.0
H2195 H 0.83466 0.08395 0.13332 0.0
H2196 H 0.79897 0.10343 0.12562 0.0
H2197 H 0.93307 0.19695 0.13104 0.0
H2198 H 0.93751 0.15571 0.13744 0.0
H2199 H 0.93469 0.1652 0.11588 0.0
H2200 H 0.938 0.049 0.14176 0.0
H2201 H 0.93204 0.07093 0.08977 0.0
H2202 H 0.87325 0.09614 0.15501 0.0
H2203 H 0.90854 0.12022 0.1569 0.0
H2204 H 0.91024 0.0781 0.16197 0.0
H2205 H 0.86537 0.12248 0.09196 0.0
H2206 H 0.89976 0.11238 0.0794 0.0
H2207 H 0.90062 0.14683 0.09292 0.0
C2208 C 0.56502 0.11635 0.89007 0.0
C2209 C 0.56667 0.08306 0.88757 0.0
C2210 C 0.59103 0.1364 0.8861 0.0
C2211 C 0.61945 0.1229 0.87944 0.0
C2212 C 0.62133 0.08931 0.87692 0.0
C2213 C 0.59495 0.0698 0.88103 0.0
C2214 C 0.58807 0.17208 0.88903 0.0
C2215 C 0.65119 0.07399 0.86986 0.0
C2216 C 0.67467 0.17949 0.85575 0.0
C2217 C 0.69773 0.18716 0.86781 0.0
C2218 C 0.64946 0.1581 0.85925 0.0
C2219 C 0.64718 0.14403 0.8752 0.0
C2220 C 0.67078 0.15109 0.8873 0.0
C2221 C 0.69576 0.17251 0.88346 0.0
C2222 C 0.62485 0.15109 0.84599 0.0
C2223 C 0.66926 0.13658 0.90444 0.0
H2224 H 0.54333 0.12686 0.89512 0.0
H2225 H 0.59649 0.04411 0.87904 0.0
H2226 H 0.60714 0.18023 0.89766 0.0
H2227 H 0.59149 0.18522 0.87719 0.0
H2228 H 0.56437 0.17881 0.8943 0.0
H2229 H 0.64884 0.04753 0.86864 0.0
H2230 H 0.65647 0.08425 0.85746 0.0
H2231 H 0.6721 0.07932 0.87792 0.0
H2232 H 0.676 0.19059 0.84361 0.0
H2233 H 0.71345 0.17819 0.89286 0.0
H2234 H 0.6009 0.15962 0.85008 0.0
H2235 H 0.62297 0.12483 0.84394 0.0
H2236 H 0.63079 0.16282 0.834 0.0
H2237 H 0.64699 0.14453 0.91078 0.0
H2238 H 0.69017 0.14347 0.91222 0.0
H2239 H 0.66832 0.11002 0.90359 0.0
C2240 C 0.82424 0.66598 0.86072 0.0
C2241 C 0.82664 0.69644 0.86805 0.0
C2242 C 0.84699 0.64187 0.86411 0.0
C2243 C 0.87287 0.64841 0.875 0.0
C2244 C 0.87535 0.67908 0.88246 0.0
C2245 C 0.85222 0.70263 0.87893 0.0
C2246 C 0.84344 0.60944 0.85596 0.0
C2247 C 0.90268 0.68716 0.89404 0.0
C2248 C 0.92002 0.58037 0.89521 0.0
C2249 C 0.9476 0.57912 0.88524 0.0
C2250 C 0.89519 0.60236 0.89185 0.0
C2251 C 0.89804 0.62367 0.87823 0.0
C2252 C 0.92564 0.62224 0.86802 0.0
C2253 C 0.95 0.60002 0.87163 0.0
C2254 C 0.86609 0.60306 0.90299 0.0
C2255 C 0.92971 0.64458 0.85341 0.0
H2256 H 0.80451 0.66091 0.85236 0.0
H2257 H 0.85435 0.72606 0.88467 0.0
H2258 H 0.8646 0.60451 0.84801 0.0
H2259 H 0.84255 0.59034 0.86554 0.0
H2260 H 0.82144 0.60783 0.84821 0.0
H2261 H 0.90086 0.71193 0.89906 0.0
H2262 H 0.90311 0.67004 0.90458 0.0
H2263 H 0.9259 0.68476 0.88742 0.0
H2264 H 0.91787 0.56426 0.90571 0.0
H2265 H 0.97114 0.59925 0.8638 0.0
H2266 H 0.84393 0.59994 0.89553 0.0
H2267 H 0.86438 0.62675 0.90922 0.0
H2268 H 0.86688 0.58405 0.91265 0.0
H2269 H 0.90904 0.64216 0.84483 0.0
H2270 H 0.95216 0.63977 0.8464 0.0
H2271 H 0.93016 0.66983 0.85778 0.0
C2272 C 0.6394 0.69865 0.12912 0.0
C2273 C 0.66827 0.69353 0.1377 0.0
C2274 C 0.61777 0.67341 0.12619 0.0
C2275 C 0.62515 0.64213 0.13191 0.0
C2276 C 0.65429 0.63672 0.14054 0.0
C2277 C 0.67546 0.66249 0.14337 0.0
C2278 C 0.5869 0.68028 0.11703 0.0
C2279 C 0.66309 0.60372 0.14679 0.0
C2280 C 0.55459 0.58511 0.13753 0.0
C2281 C 0.55551 0.56715 0.1228 0.0
C2282 C 0.57748 0.60907 0.14079 0.0
C2283 C 0.602 0.61531 0.12907 0.0
C2284 C 0.6035 0.59683 0.11434 0.0
C2285 C 0.58025 0.57301 0.11137 0.0
C2286 C 0.57499 0.62819 0.15665 0.0
C2287 C 0.6293 0.60267 0.10154 0.0
H2288 H 0.63356 0.72251 0.12469 0.0
H2289 H 0.69773 0.65824 0.14997 0.0
H2290 H 0.58538 0.66512 0.10574 0.0
H2291 H 0.56605 0.67409 0.12497 0.0
H2292 H 0.58481 0.70586 0.11329 0.0
H2293 H 0.68686 0.60336 0.15304 0.0
H2294 H 0.64466 0.59517 0.15568 0.0
H2295 H 0.66357 0.58644 0.13632 0.0
H2296 H 0.53567 0.58077 0.14647 0.0
H2297 H 0.58124 0.55924 0.09998 0.0
H2298 H 0.5706 0.65383 0.15371 0.0
H2299 H 0.59792 0.6269 0.16362 0.0
H2300 H 0.55532 0.61952 0.16481 0.0
H2301 H 0.62686 0.62728 0.09643 0.0
H2302 H 0.62811 0.58526 0.09113 0.0
H2303 H 0.65337 0.60104 0.10737 0.0
C2304 C 0.6677 0.34105 0.35133 0.0
C2305 C 0.66503 0.31074 0.35881 0.0
C2306 C 0.64588 0.36579 0.35509 0.0
C2307 C 0.62071 0.36006 0.36654 0.0
C2308 C 0.61814 0.32964 0.37425 0.0
C2309 C 0.64032 0.30543 0.37033 0.0
C2310 C 0.64951 0.39795 0.34667 0.0
C2311 C 0.59159 0.32246 0.38646 0.0
C2312 C 0.57591 0.42945 0.38689 0.0
C2313 C 0.54774 0.43078 0.37737 0.0
C2314 C 0.6002 0.40701 0.38332 0.0
C2315 C 0.59616 0.38529 0.36996 0.0
C2316 C 0.56796 0.38679 0.36019 0.0
C2317 C 0.54418 0.4095 0.36399 0.0
C2318 C 0.62999 0.40624 0.39398 0.0
C2319 C 0.56263 0.36401 0.34588 0.0
H2320 H 0.68678 0.34544 0.34248 0.0
H2321 H 0.63804 0.28215 0.3762 0.0
H2322 H 0.62807 0.40291 0.33892 0.0
H2323 H 0.65106 0.41731 0.35608 0.0
H2324 H 0.67118 0.39904 0.33865 0.0
H2325 H 0.59348 0.29791 0.39175 0.0
H2326 H 0.59211 0.34006 0.39677 0.0
H2327 H 0.56794 0.32483 0.38025 0.0
H2328 H 0.57896 0.44586 0.3972 0.0
H2329 H 0.52256 0.41032 0.35652 0.0
H2330 H 0.65171 0.40869 0.38611 0.0
H2331 H 0.6317 0.38278 0.40042 0.0
H2332 H 0.63012 0.42563 0.40343 0.0
H2333 H 0.58277 0.36581 0.33693 0.0
H2334 H 0.53982 0.36891 0.3392 0.0
H2335 H 0.56209 0.33893 0.3505 0.0
C2336 C 0.95808 0.38819 0.60711 0.0
C2337 C 0.95339 0.42151 0.60628 0.0
C2338 C 0.9326 0.36731 0.61083 0.0
C2339 C 0.90163 0.37999 0.61391 0.0
C2340 C 0.89671 0.4136 0.61315 0.0
C2341 C 0.9226 0.43394 0.60929 0.0
C2342 C 0.93883 0.33161 0.6114 0.0
C2343 C 0.86409 0.42807 0.61642 0.0
C2344 C 0.83073 0.32352 0.60811 0.0
C2345 C 0.82456 0.31353 0.62443 0.0
C2346 C 0.8554 0.34545 0.60455 0.0
C2347 C 0.87433 0.35793 0.61763 0.0
C2348 C 0.86781 0.3485 0.63418 0.0
C2349 C 0.84309 0.32635 0.63738 0.0
C2350 C 0.86163 0.35475 0.58674 0.0
C2351 C 0.88728 0.36145 0.64848 0.0
H2352 H 0.98173 0.37832 0.60479 0.0
H2353 H 0.91873 0.45965 0.60874 0.0
H2354 H 0.93247 0.322 0.6238 0.0
H2355 H 0.92342 0.31918 0.60219 0.0
H2356 H 0.9643 0.32558 0.60877 0.0
H2357 H 0.86434 0.45469 0.61562 0.0
H2358 H 0.84643 0.41869 0.60733 0.0
H2359 H 0.85558 0.42102 0.62894 0.0
H2360 H 0.81659 0.3138 0.59801 0.0
H2361 H 0.83845 0.31889 0.65003 0.0
H2362 H 0.8862 0.34725 0.5831 0.0
H2363 H 0.86036 0.38121 0.58534 0.0
H2364 H 0.8442 0.34361 0.57805 0.0
H2365 H 0.91273 0.35403 0.64713 0.0
H2366 H 0.87831 0.35285 0.66067 0.0
H2367 H 0.88677 0.38808 0.64841 0.0
C2368 C 0.0943 0.43635 0.12139 0.0
C2369 C 0.06779 0.42435 0.11261 0.0
C2370 C 0.11966 0.41608 0.12619 0.0
C2371 C 0.11855 0.38305 0.12207 0.0
C2372 C 0.09201 0.37089 0.11308 0.0
C2373 C 0.06698 0.39164 0.10848 0.0
C2374 C 0.14753 0.42996 0.13578 0.0
C2375 C 0.08997 0.33586 0.10836 0.0
C2376 C 0.19516 0.33341 0.12085 0.0
C2377 C 0.19323 0.31614 0.13577 0.0
C2378 C 0.17141 0.35576 0.11641 0.0
C2379 C 0.14505 0.36106 0.12715 0.0
C2380 C 0.14334 0.3443 0.14241 0.0
C2381 C 0.16742 0.32204 0.14653 0.0
C2382 C 0.17414 0.37314 0.10004 0.0
C2383 C 0.11568 0.34935 0.15422 0.0
H2384 H 0.09515 0.46157 0.12466 0.0
H2385 H 0.04667 0.38211 0.10168 0.0
H2386 H 0.14965 0.41779 0.14797 0.0
H2387 H 0.17028 0.42564 0.12898 0.0
H2388 H 0.14491 0.45617 0.13791 0.0
H2389 H 0.06786 0.33024 0.10123 0.0
H2390 H 0.11112 0.32904 0.10077 0.0
H2391 H 0.09037 0.32074 0.11969 0.0
H2392 H 0.21502 0.32913 0.11246 0.0
H2393 H 0.16574 0.3089 0.1581 0.0
H2394 H 0.17292 0.39947 0.10202 0.0
H2395 H 0.15368 0.36648 0.09193 0.0
H2396 H 0.19685 0.36743 0.09344 0.0
H2397 H 0.11328 0.37521 0.15728 0.0
H2398 H 0.11865 0.33564 0.16594 0.0
H2399 H 0.09293 0.34175 0.14823 0.0
C2400 C 0.44836 0.40206 0.86582 0.0
C2401 C 0.44502 0.42368 0.87906 0.0
C2402 C 0.42391 0.38021 0.86183 0.0
C2403 C 0.39527 0.37992 0.87128 0.0
C2404 C 0.39154 0.40189 0.88455 0.0
C2405 C 0.41648 0.42349 0.8883 0.0
C2406 C 0.4289 0.35714 0.84761 0.0
C2407 C 0.36133 0.40236 0.89489 0.0
C2408 C 0.32254 0.3394 0.85174 0.0
C2409 C 0.32331 0.30898 0.85921 0.0
C2410 C 0.34541 0.36297 0.85578 0.0
C2411 C 0.36973 0.35592 0.86751 0.0
C2412 C 0.37044 0.32537 0.87519 0.0
C2413 C 0.34722 0.30235 0.87098 0.0
C2414 C 0.34378 0.3953 0.84736 0.0
C2415 C 0.39606 0.31682 0.88769 0.0
H2416 H 0.47026 0.402 0.85857 0.0
H2417 H 0.41362 0.44015 0.89852 0.0
H2418 H 0.42795 0.33207 0.85222 0.0
H2419 H 0.40936 0.35991 0.83837 0.0
H2420 H 0.45227 0.3609 0.84126 0.0
H2421 H 0.36173 0.42158 0.90444 0.0
H2422 H 0.34009 0.40601 0.8868 0.0
H2423 H 0.35821 0.3789 0.90118 0.0
H2424 H 0.30408 0.34482 0.84268 0.0
H2425 H 0.34804 0.27895 0.87685 0.0
H2426 H 0.36584 0.39927 0.83994 0.0
H2427 H 0.34265 0.41468 0.85679 0.0
H2428 H 0.32262 0.39748 0.83905 0.0
H2429 H 0.42007 0.31806 0.88177 0.0
H2430 H 0.39273 0.29236 0.8929 0.0
H2431 H 0.39594 0.33436 0.89804 0.0
C2432 C 0.41721 0.56495 0.61288 0.0
C2433 C 0.44847 0.57731 0.61162 0.0
C2434 C 0.39095 0.58515 0.61628 0.0
C2435 C 0.39603 0.61852 0.61842 0.0
C2436 C 0.42756 0.63104 0.61735 0.0
C2437 C 0.45335 0.61032 0.614 0.0
C2438 C 0.35771 0.57086 0.61738 0.0
C2439 C 0.43403 0.66648 0.6195 0.0
C2440 C 0.32821 0.6775 0.61018 0.0
C2441 C 0.31883 0.68614 0.62629 0.0
C2442 C 0.35279 0.65503 0.60746 0.0
C2443 C 0.36837 0.64065 0.62118 0.0
C2444 C 0.35847 0.64859 0.63748 0.0
C2445 C 0.33388 0.67129 0.63985 0.0
C2446 C 0.36265 0.64732 0.58988 0.0
C2447 C 0.37433 0.63363 0.65244 0.0
H2448 H 0.41318 0.53948 0.61111 0.0
H2449 H 0.47737 0.62015 0.61308 0.0
H2450 H 0.34654 0.57715 0.62944 0.0
H2451 H 0.34227 0.58107 0.60749 0.0
H2452 H 0.35793 0.54431 0.61609 0.0
H2453 H 0.46002 0.6723 0.61872 0.0
H2454 H 0.42116 0.68026 0.60978 0.0
H2455 H 0.42482 0.67475 0.63168 0.0
H2456 H 0.31675 0.68875 0.5996 0.0
H2457 H 0.32673 0.67769 0.65234 0.0
H2458 H 0.36142 0.62105 0.58772 0.0
H2459 H 0.38791 0.65478 0.58784 0.0
H2460 H 0.34728 0.65955 0.58056 0.0
H2461 H 0.37363 0.60707 0.65148 0.0
H2462 H 0.36264 0.64092 0.66423 0.0
H2463 H 0.39996 0.64081 0.65291 0.0
C2464 C 0.06752 0.56959 0.35391 0.0
C2465 C 0.06147 0.56244 0.37064 0.0
C2466 C 0.08892 0.59412 0.34938 0.0
C2467 C 0.10487 0.61191 0.36186 0.0
C2468 C 0.09961 0.60424 0.37876 0.0
C2469 C 0.07792 0.57965 0.38295 0.0
C2470 C 0.09378 0.60157 0.33122 0.0
C2471 C 0.11634 0.62248 0.39243 0.0
C2472 C 0.17814 0.66108 0.34936 0.0
C2473 C 0.16509 0.69204 0.34796 0.0
C2474 C 0.15894 0.63481 0.35402 0.0
C2475 C 0.12584 0.63953 0.35721 0.0
C2476 C 0.11251 0.67066 0.3557 0.0
C2477 C 0.13229 0.69652 0.35118 0.0
C2478 C 0.1741 0.60204 0.3556 0.0
C2479 C 0.07727 0.67668 0.35883 0.0
H2480 H 0.05503 0.55643 0.34428 0.0
H2481 H 0.07352 0.57425 0.3959 0.0
H2482 H 0.08535 0.6263 0.32854 0.0
H2483 H 0.11968 0.6006 0.32807 0.0
H2484 H 0.08065 0.58463 0.32302 0.0
H2485 H 0.11113 0.61237 0.40489 0.0
H2486 H 0.14269 0.62218 0.39043 0.0
H2487 H 0.10859 0.64796 0.39224 0.0
H2488 H 0.20349 0.6574 0.34699 0.0
H2489 H 0.12195 0.7203 0.3501 0.0
H2490 H 0.16237 0.58501 0.34693 0.0
H2491 H 0.17043 0.59261 0.36833 0.0
H2492 H 0.20026 0.60245 0.35293 0.0
H2493 H 0.06257 0.66188 0.35028 0.0
H2494 H 0.07062 0.70229 0.35711 0.0
H2495 H 0.07094 0.66942 0.37166 0.0
loop_
_geom_bond_atom_site_label_1
_geom_bond_atom_site_label_2
_geom_bond_distance
_geom_bond_site_symmetry_2
_ccdc_geom_bond_type
Mg0 O1 2.028 . S
Mg0 O7 1.986 . S
Mg0 O9 2.114 . S
Mg0 O10 2.251 . S
Mg0 O13 2.010 . S
O1 Mg0 2.028 . S
O1 C4 1.250 . S
O2 Mg3 2.028 . S
O2 C4 1.248 . S
Mg3 O2 2.028 . S
Mg3 O8 2.032 . S
Mg3 O10 2.079 . S
C4 O1 1.250 . S
C4 O2 1.248 . S
C5 O6 1.264 . S
C5 O13 1.249 . S
O6 C5 1.264 . S
O7 Mg0 1.986 . S
O7 C11 1.246 . S
O8 Mg3 2.032 . S
O8 C11 1.259 . S
O9 Mg0 2.114 . S
O9 C12 1.252 . S
O10 Mg0 2.251 . S
O10 Mg3 2.079 . S
O10 C12 1.273 . S
C11 O7 1.246 . S
C11 O8 1.259 . S
C12 O9 1.252 . S
C12 O10 1.273 . S
O13 Mg0 2.010 . S
O13 C5 1.249 . S
Mg14 O15 2.028 . S
Mg14 O21 1.986 . S
Mg14 O23 2.114 1_455 S
Mg14 O24 2.251 1_455 S
Mg14 O27 2.010 1_565 S
O15 Mg14 2.028 . S
O15 C18 1.250 . S
O16 Mg17 2.028 . S
O16 C18 1.248 . S
Mg17 O16 2.028 . S
Mg17 O22 2.032 . S
Mg17 O24 2.079 1_455 S
C18 O15 1.250 . S
C18 O16 1.248 . S
C19 O20 1.264 . S
C19 O27 1.249 . S
O20 C19 1.264 . S
O21 Mg14 1.986 . S
O21 C25 1.246 . S
O22 Mg17 2.032 . S
O22 C25 1.259 . S
O23 Mg14 2.114 1_655 S
O23 C26 1.252 . S
O24 Mg14 2.251 1_655 S
O24 Mg17 2.079 1_655 S
O24 C26 1.273 . S
C25 O21 1.246 . S
C25 O22 1.259 . S
C26 O23 1.252 . S
C26 O24 1.273 . S
O27 Mg14 2.010 1_545 S
O27 C19 1.249 . S
Mg28 O29 2.028 . S
Mg28 O35 1.986 . S
Mg28 O37 2.114 . S
Mg28 O38 2.251 . S
Mg28 O41 2.010 . S
O29 Mg28 2.028 . S
O29 C32 1.250 . S
O30 Mg31 2.028 . S
O30 C32 1.248 . S
Mg31 O30 2.028 . S
Mg31 O36 2.032 . S
Mg31 O38 2.079 . S
C32 O29 1.250 . S
C32 O30 1.248 . S
C33 O34 1.264 . S
C33 O41 1.249 . S
O34 C33 1.264 . S
O35 Mg28 1.986 . S
O35 C39 1.246 . S
O36 Mg31 2.032 . S
O36 C39 1.259 . S
O37 Mg28 2.114 . S
O37 C40 1.252 . S
O38 Mg28 2.251 . S
O38 Mg31 2.079 . S
O38 C40 1.273 . S
C39 O35 1.246 . S
C39 O36 1.259 . S
C40 O37 1.252 . S
C40 O38 1.273 . S
O41 Mg28 2.010 . S
O41 C33 1.249 . S
Mg42 O43 2.028 . S
Mg42 O49 1.986 . S
Mg42 O51 2.114 . S
Mg42 O52 2.251 . S
Mg42 O55 2.010 1_545 S
O43 Mg42 2.028 . S
O43 C46 1.250 . S
O44 Mg45 2.028 . S
O44 C46 1.248 . S
Mg45 O44 2.028 . S
Mg45 O50 2.032 . S
Mg45 O52 2.079 . S
C46 O43 1.250 . S
C46 O44 1.248 . S
C47 O48 1.264 . S
C47 O55 1.249 . S
O48 C47 1.264 . S
O49 Mg42 1.986 . S
O49 C53 1.246 . S
O50 Mg45 2.032 . S
O50 C53 1.259 . S
O51 Mg42 2.114 . S
O51 C54 1.252 . S
O52 Mg42 2.251 . S
O52 Mg45 2.079 . S
O52 C54 1.273 . S
C53 O49 1.246 . S
C53 O50 1.259 . S
C54 O51 1.252 . S
C54 O52 1.273 . S
O55 Mg42 2.010 1_565 S
O55 C47 1.249 . S
Mg56 O57 2.028 . S
Mg56 O63 1.986 . S
Mg56 O65 2.114 . S
Mg56 O66 2.251 . S
Mg56 O69 2.010 . S
O57 Mg56 2.028 . S
O57 C60 1.250 . S
O58 Mg59 2.028 . S
O58 C60 1.248 . S
Mg59 O58 2.028 . S
Mg59 O64 2.032 . S
Mg59 O66 2.079 . S
C60 O57 1.250 . S
C60 O58 1.248 . S
C61 O62 1.264 . S
C61 O69 1.249 . S
O62 C61 1.264 . S
O63 Mg56 1.986 . S
O63 C67 1.246 . S
O64 Mg59 2.032 . S
O64 C67 1.259 . S
O65 Mg56 2.114 . S
O65 C68 1.252 . S
O66 Mg56 2.251 . S
O66 Mg59 2.079 . S
O66 C68 1.273 . S
C67 O63 1.246 . S
C67 O64 1.259 . S
C68 O65 1.252 . S
C68 O66 1.273 . S
O69 Mg56 2.010 . S
O69 C61 1.249 . S
Mg70 O71 2.028 . S
Mg70 O77 1.986 . S
Mg70 O79 2.114 . S
Mg70 O80 2.251 . S
Mg70 O83 2.010 1_565 S
O71 Mg70 2.028 . S
O71 C74 1.250 . S
O72 Mg73 2.028 . S
O72 C74 1.248 . S
Mg73 O72 2.028 . S
Mg73 O78 2.032 . S
Mg73 O80 2.079 . S
C74 O71 1.250 . S
C74 O72 1.248 . S
C75 O76 1.264 . S
C75 O83 1.249 . S
O76 C75 1.264 . S
O77 Mg70 1.986 . S
O77 C81 1.246 . S
O78 Mg73 2.032 . S
O78 C81 1.259 . S
O79 Mg70 2.114 . S
O79 C82 1.252 . S
O80 Mg70 2.251 . S
O80 Mg73 2.079 . S
O80 C82 1.273 . S
C81 O77 1.246 . S
C81 O78 1.259 . S
C82 O79 1.252 . S
C82 O80 1.273 . S
O83 Mg70 2.010 1_545 S
O83 C75 1.249 . S
Mg84 O85 2.028 . S
Mg84 O91 1.986 . S
Mg84 O93 2.114 . S
Mg84 O94 2.251 . S
Mg84 O97 2.010 . S
O85 Mg84 2.028 . S
O85 C88 1.250 . S
O86 Mg87 2.028 . S
O86 C88 1.248 . S
Mg87 O86 2.028 . S
Mg87 O92 2.032 . S
Mg87 O94 2.079 . S
C88 O85 1.250 . S
C88 O86 1.248 . S
C89 O90 1.264 . S
C89 O97 1.249 . S
O90 C89 1.264 . S
O91 Mg84 1.986 . S
O91 C95 1.246 . S
O92 Mg87 2.032 . S
O92 C95 1.259 . S
O93 Mg84 2.114 . S
O93 C96 1.252 . S
O94 Mg84 2.251 . S
O94 Mg87 2.079 . S
O94 C96 1.273 . S
C95 O91 1.246 . S
C95 O92 1.259 . S
C96 O93 1.252 . S
C96 O94 1.273 . S
O97 Mg84 2.010 . S
O97 C89 1.249 . S
Mg98 O99 2.028 . S
Mg98 O105 1.986 . S
Mg98 O107 2.114 1_455 S
Mg98 O108 2.251 1_455 S
Mg98 O111 2.010 1_545 S
O99 Mg98 2.028 . S
O99 C102 1.250 . S
O100 Mg101 2.028 . S
O100 C102 1.248 . S
Mg101 O100 2.028 . S
Mg101 O106 2.032 . S
Mg101 O108 2.079 1_455 S
C102 O99 1.250 . S
C102 O100 1.248 . S
C103 O104 1.264 . S
C103 O111 1.249 . S
O104 C103 1.264 . S
O105 Mg98 1.986 . S
O105 C109 1.246 . S
O106 Mg101 2.032 . S
O106 C109 1.259 . S
O107 Mg98 2.114 1_655 S
O107 C110 1.252 . S
O108 Mg98 2.251 1_655 S
O108 Mg101 2.079 1_655 S
O108 C110 1.273 . S
C109 O105 1.246 . S
C109 O106 1.259 . S
C110 O107 1.252 . S
C110 O108 1.273 . S
O111 Mg98 2.010 1_565 S
O111 C103 1.249 . S
Mg112 O113 2.028 . S
Mg112 O119 1.986 . S
Mg112 O121 2.114 . S
Mg112 O122 2.251 . S
Mg112 O125 2.010 . S
O113 Mg112 2.028 . S
O113 C116 1.250 . S
O114 Mg115 2.028 . S
O114 C116 1.248 . S
Mg115 O114 2.028 . S
Mg115 O120 2.032 . S
Mg115 O122 2.079 . S
C116 O113 1.250 . S
C116 O114 1.248 . S
C117 O118 1.264 . S
C117 O125 1.249 . S
O118 C117 1.264 . S
O119 Mg112 1.986 . S
O119 C123 1.246 . S
O120 Mg115 2.032 . S
O120 C123 1.259 . S
O121 Mg112 2.114 . S
O121 C124 1.252 . S
O122 Mg112 2.251 . S
O122 Mg115 2.079 . S
O122 C124 1.273 . S
C123 O119 1.246 . S
C123 O120 1.259 . S
C124 O121 1.252 . S
C124 O122 1.273 . S
O125 Mg112 2.010 . S
O125 C117 1.249 . S
Mg126 O127 2.028 . S
Mg126 O133 1.986 . S
Mg126 O135 2.114 1_655 S
Mg126 O136 2.251 1_655 S
Mg126 O139 2.010 1_545 S
O127 Mg126 2.028 . S
O127 C130 1.250 . S
O128 Mg129 2.028 . S
O128 C130 1.248 . S
Mg129 O128 2.028 . S
Mg129 O134 2.032 . S
Mg129 O136 2.079 1_655 S
C130 O127 1.250 . S
C130 O128 1.248 . S
C131 O132 1.264 . S
C131 O139 1.249 . S
O132 C131 1.264 . S
O133 Mg126 1.986 . S
O133 C137 1.246 . S
O134 Mg129 2.032 . S
O134 C137 1.259 . S
O135 Mg126 2.114 1_455 S
O135 C138 1.252 . S
O136 Mg126 2.251 1_455 S
O136 Mg129 2.079 1_455 S
O136 C138 1.273 . S
C137 O133 1.246 . S
C137 O134 1.259 . S
C138 O135 1.252 . S
C138 O136 1.273 . S
O139 Mg126 2.010 1_565 S
O139 C131 1.249 . S
Mg140 O141 2.028 . S
Mg140 O147 1.986 . S
Mg140 O149 2.114 . S
Mg140 O150 2.251 . S
Mg140 O153 2.010 . S
O141 Mg140 2.028 . S
O141 C144 1.250 . S
O142 Mg143 2.028 . S
O142 C144 1.248 . S
Mg143 O142 2.028 . S
Mg143 O148 2.032 . S
Mg143 O150 2.079 . S
C144 O141 1.250 . S
C144 O142 1.248 . S
C145 O146 1.264 . S
C145 O153 1.249 . S
O146 C145 1.264 . S
O147 Mg140 1.986 . S
O147 C151 1.246 . S
O148 Mg143 2.032 . S
O148 C151 1.259 . S
O149 Mg140 2.114 . S
O149 C152 1.252 . S
O150 Mg140 2.251 . S
O150 Mg143 2.079 . S
O150 C152 1.273 . S
C151 O147 1.246 . S
C151 O148 1.259 . S
C152 O149 1.252 . S
C152 O150 1.273 . S
O153 Mg140 2.010 . S
O153 C145 1.249 . S
Mg154 O155 2.028 . S
Mg154 O161 1.986 . S
Mg154 O163 2.114 . S
Mg154 O164 2.251 . S
Mg154 O167 2.010 1_565 S
O155 Mg154 2.028 . S
O155 C158 1.250 . S
O156 Mg157 2.028 . S
O156 C158 1.248 . S
Mg157 O156 2.028 . S
Mg157 O162 2.032 . S
Mg157 O164 2.079 . S
C158 O155 1.250 . S
C158 O156 1.248 . S
C159 O160 1.264 . S
C159 O167 1.249 . S
O160 C159 1.264 . S
O161 Mg154 1.986 . S
O161 C165 1.246 . S
O162 Mg157 2.032 . S
O162 C165 1.259 . S
O163 Mg154 2.114 . S
O163 C166 1.252 . S
O164 Mg154 2.251 . S
O164 Mg157 2.079 . S
O164 C166 1.273 . S
C165 O161 1.246 . S
C165 O162 1.259 . S
C166 O163 1.252 . S
C166 O164 1.273 . S
O167 Mg154 2.010 1_545 S
O167 C159 1.249 . S
Mg168 O169 2.028 . S
Mg168 O175 1.986 . S
Mg168 O177 2.114 . S
Mg168 O178 2.251 . S
Mg168 O181 2.010 . S
O169 Mg168 2.028 . S
O169 C172 1.250 . S
O170 Mg171 2.028 . S
O170 C172 1.248 . S
Mg171 O170 2.028 . S
Mg171 O176 2.032 . S
Mg171 O178 2.079 . S
C172 O169 1.250 . S
C172 O170 1.248 . S
C173 O174 1.264 . S
C173 O181 1.249 . S
O174 C173 1.264 . S
O175 Mg168 1.986 . S
O175 C179 1.246 . S
O176 Mg171 2.032 . S
O176 C179 1.259 . S
O177 Mg168 2.114 . S
O177 C180 1.252 . S
O178 Mg168 2.251 . S
O178 Mg171 2.079 . S
O178 C180 1.273 . S
C179 O175 1.246 . S
C179 O176 1.259 . S
C180 O177 1.252 . S
C180 O178 1.273 . S
O181 Mg168 2.010 . S
O181 C173 1.249 . S
Mg182 O183 2.028 . S
Mg182 O189 1.986 . S
Mg182 O191 2.114 . S
Mg182 O192 2.251 . S
Mg182 O195 2.010 1_545 S
O183 Mg182 2.028 . S
O183 C186 1.250 . S
O184 Mg185 2.028 . S
O184 C186 1.248 . S
Mg185 O184 2.028 . S
Mg185 O190 2.032 . S
Mg185 O192 2.079 . S
C186 O183 1.250 . S
C186 O184 1.248 . S
C187 O188 1.264 . S
C187 O195 1.249 . S
O188 C187 1.264 . S
O189 Mg182 1.986 . S
O189 C193 1.246 . S
O190 Mg185 2.032 . S
O190 C193 1.259 . S
O191 Mg182 2.114 . S
O191 C194 1.252 . S
O192 Mg182 2.251 . S
O192 Mg185 2.079 . S
O192 C194 1.273 . S
C193 O189 1.246 . S
C193 O190 1.259 . S
C194 O191 1.252 . S
C194 O192 1.273 . S
O195 Mg182 2.010 1_565 S
O195 C187 1.249 . S
Mg196 O197 2.028 . S
Mg196 O203 1.986 . S
Mg196 O205 2.114 . S
Mg196 O206 2.251 . S
Mg196 O209 2.010 . S
O197 Mg196 2.028 . S
O197 C200 1.250 . S
O198 Mg199 2.028 . S
O198 C200 1.248 . S
Mg199 O198 2.028 . S
Mg199 O204 2.032 . S
Mg199 O206 2.079 . S
C200 O197 1.250 . S
C200 O198 1.248 . S
C201 O202 1.264 . S
C201 O209 1.249 . S
O202 C201 1.264 . S
O203 Mg196 1.986 . S
O203 C207 1.246 . S
O204 Mg199 2.032 . S
O204 C207 1.259 . S
O205 Mg196 2.114 . S
O205 C208 1.252 . S
O206 Mg196 2.251 . S
O206 Mg199 2.079 . S
O206 C208 1.273 . S
C207 O203 1.246 . S
C207 O204 1.259 . S
C208 O205 1.252 . S
C208 O206 1.273 . S
O209 Mg196 2.010 . S
O209 C201 1.249 . S
Mg210 O211 2.028 . S
Mg210 O217 1.986 . S
Mg210 O219 2.114 1_655 S
Mg210 O220 2.251 1_655 S
Mg210 O223 2.010 1_565 S
O211 Mg210 2.028 . S
O211 C214 1.250 . S
O212 Mg213 2.028 . S
O212 C214 1.248 . S
Mg213 O212 2.028 . S
Mg213 O218 2.032 . S
Mg213 O220 2.079 1_655 S
C214 O211 1.250 . S
C214 O212 1.248 . S
C215 O216 1.264 . S
C215 O223 1.249 . S
O216 C215 1.264 . S
O217 Mg210 1.986 . S
O217 C221 1.246 . S
O218 Mg213 2.032 . S
O218 C221 1.259 . S
O219 Mg210 2.114 1_455 S
O219 C222 1.252 . S
O220 Mg210 2.251 1_455 S
O220 Mg213 2.079 1_455 S
O220 C222 1.273 . S
C221 O217 1.246 . S
C221 O218 1.259 . S
C222 O219 1.252 . S
C222 O220 1.273 . S
O223 Mg210 2.010 1_545 S
O223 C215 1.249 . S
Mg224 O225 2.028 . S
Mg224 O231 1.986 . S
Mg224 O233 2.114 . S
Mg224 O234 2.251 . S
Mg224 O237 2.010 . S
O225 Mg224 2.028 . S
O225 C228 1.250 . S
O226 Mg227 2.028 . S
O226 C228 1.248 . S
Mg227 O226 2.028 . S
Mg227 O232 2.032 . S
Mg227 O234 2.079 . S
C228 O225 1.250 . S
C228 O226 1.248 . S
C229 O230 1.264 . S
C229 O237 1.249 . S
O230 C229 1.264 . S
O231 Mg224 1.986 . S
O231 C235 1.246 . S
O232 Mg227 2.032 . S
O232 C235 1.259 . S
O233 Mg224 2.114 . S
O233 C236 1.252 . S
O234 Mg224 2.251 . S
O234 Mg227 2.079 . S
O234 C236 1.273 . S
C235 O231 1.246 . S
C235 O232 1.259 . S
C236 O233 1.252 . S
C236 O234 1.273 . S
O237 Mg224 2.010 . S
O237 C229 1.249 . S
Mg238 O239 2.028 . S
Mg238 O245 1.986 . S
Mg238 O247 2.114 . S
Mg238 O248 2.251 . S
Mg238 O251 2.010 . S
O239 Mg238 2.028 . S
O239 C242 1.250 . S
O240 Mg241 2.028 . S
O240 C242 1.248 . S
Mg241 O240 2.028 . S
Mg241 O246 2.032 . S
Mg241 O248 2.079 . S
C242 O239 1.250 . S
C242 O240 1.248 . S
C243 O244 1.264 . S
C243 O251 1.249 . S
O244 C243 1.264 . S
O245 Mg238 1.986 . S
O245 C249 1.246 . S
O246 Mg241 2.032 . S
O246 C249 1.259 . S
O247 Mg238 2.114 . S
O247 C250 1.252 . S
O248 Mg238 2.251 . S
O248 Mg241 2.079 . S
O248 C250 1.273 . S
C249 O245 1.246 . S
C249 O246 1.259 . S
C250 O247 1.252 . S
C250 O248 1.273 . S
O251 Mg238 2.010 . S
O251 C243 1.249 . S
Mg252 O253 2.028 . S
Mg252 O259 1.986 . S
Mg252 O261 2.114 . S
Mg252 O262 2.251 . S
Mg252 O265 2.010 . S
O253 Mg252 2.028 . S
O253 C256 1.250 . S
O254 Mg255 2.028 . S
O254 C256 1.248 . S
Mg255 O254 2.028 . S
Mg255 O260 2.032 . S
Mg255 O262 2.079 . S
C256 O253 1.250 . S
C256 O254 1.248 . S
C257 O258 1.264 . S
C257 O265 1.249 . S
O258 C257 1.264 . S
O259 Mg252 1.986 . S
O259 C263 1.246 . S
O260 Mg255 2.032 . S
O260 C263 1.259 . S
O261 Mg252 2.114 . S
O261 C264 1.252 . S
O262 Mg252 2.251 . S
O262 Mg255 2.079 . S
O262 C264 1.273 . S
C263 O259 1.246 . S
C263 O260 1.259 . S
C264 O261 1.252 . S
C264 O262 1.273 . S
O265 Mg252 2.010 . S
O265 C257 1.249 . S
Mg266 O267 2.028 . S
Mg266 O273 1.986 . S
Mg266 O275 2.114 1_655 S
Mg266 O276 2.251 1_655 S
Mg266 O279 2.010 . S
O267 Mg266 2.028 . S
O267 C270 1.250 . S
O268 Mg269 2.028 . S
O268 C270 1.248 . S
Mg269 O268 2.028 . S
Mg269 O274 2.032 . S
Mg269 O276 2.079 1_655 S
C270 O267 1.250 . S
C270 O268 1.248 . S
C271 O272 1.264 . S
C271 O279 1.249 . S
O272 C271 1.264 . S
O273 Mg266 1.986 . S
O273 C277 1.246 . S
O274 Mg269 2.032 . S
O274 C277 1.259 . S
O275 Mg266 2.114 1_455 S
O275 C278 1.252 . S
O276 Mg266 2.251 1_455 S
O276 Mg269 2.079 1_455 S
O276 C278 1.273 . S
C277 O273 1.246 . S
C277 O274 1.259 . S
C278 O275 1.252 . S
C278 O276 1.273 . S
O279 Mg266 2.010 . S
O279 C271 1.249 . S
Mg280 O281 2.028 . S
Mg280 O287 1.986 . S
Mg280 O289 2.114 . S
Mg280 O290 2.251 . S
Mg280 O293 2.010 . S
O281 Mg280 2.028 . S
O281 C284 1.250 . S
O282 Mg283 2.028 . S
O282 C284 1.248 . S
Mg283 O282 2.028 . S
Mg283 O288 2.032 . S
Mg283 O290 2.079 . S
C284 O281 1.250 . S
C284 O282 1.248 . S
C285 O286 1.264 . S
C285 O293 1.249 . S
O286 C285 1.264 . S
O287 Mg280 1.986 . S
O287 C291 1.246 . S
O288 Mg283 2.032 . S
O288 C291 1.259 . S
O289 Mg280 2.114 . S
O289 C292 1.252 . S
O290 Mg280 2.251 . S
O290 Mg283 2.079 . S
O290 C292 1.273 . S
C291 O287 1.246 . S
C291 O288 1.259 . S
C292 O289 1.252 . S
C292 O290 1.273 . S
O293 Mg280 2.010 . S
O293 C285 1.249 . S
Mg294 O295 2.028 . S
Mg294 O301 1.986 . S
Mg294 O303 2.114 1_655 S
Mg294 O304 2.251 1_655 S
Mg294 O307 2.010 . S
O295 Mg294 2.028 . S
O295 C298 1.250 . S
O296 Mg297 2.028 . S
O296 C298 1.248 . S
Mg297 O296 2.028 . S
Mg297 O302 2.032 . S
Mg297 O304 2.079 1_655 S
C298 O295 1.250 . S
C298 O296 1.248 . S
C299 O300 1.264 . S
C299 O307 1.249 . S
O300 C299 1.264 . S
O301 Mg294 1.986 . S
O301 C305 1.246 . S
O302 Mg297 2.032 . S
O302 C305 1.259 . S
O303 Mg294 2.114 1_455 S
O303 C306 1.252 . S
O304 Mg294 2.251 1_455 S
O304 Mg297 2.079 1_455 S
O304 C306 1.273 . S
C305 O301 1.246 . S
C305 O302 1.259 . S
C306 O303 1.252 . S
C306 O304 1.273 . S
O307 Mg294 2.010 . S
O307 C299 1.249 . S
Mg308 O309 2.028 . S
Mg308 O315 1.986 . S
Mg308 O317 2.114 . S
Mg308 O318 2.251 . S
Mg308 O321 2.010 . S
O309 Mg308 2.028 . S
O309 C312 1.250 . S
O310 Mg311 2.028 . S
O310 C312 1.248 . S
Mg311 O310 2.028 . S
Mg311 O316 2.032 . S
Mg311 O318 2.079 . S
C312 O309 1.250 . S
C312 O310 1.248 . S
C313 O314 1.264 . S
C313 O321 1.249 . S
O314 C313 1.264 . S
O315 Mg308 1.986 . S
O315 C319 1.246 . S
O316 Mg311 2.032 . S
O316 C319 1.259 . S
O317 Mg308 2.114 . S
O317 C320 1.252 . S
O318 Mg308 2.251 . S
O318 Mg311 2.079 . S
O318 C320 1.273 . S
C319 O315 1.246 . S
C319 O316 1.259 . S
C320 O317 1.252 . S
C320 O318 1.273 . S
O321 Mg308 2.010 . S
O321 C313 1.249 . S
Mg322 O323 2.028 . S
Mg322 O329 1.986 . S
Mg322 O331 2.114 . S
Mg322 O332 2.251 . S
Mg322 O335 2.010 . S
O323 Mg322 2.028 . S
O323 C326 1.250 . S
O324 Mg325 2.028 . S
O324 C326 1.248 . S
Mg325 O324 2.028 . S
Mg325 O330 2.032 . S
Mg325 O332 2.079 . S
C326 O323 1.250 . S
C326 O324 1.248 . S
C327 O328 1.264 . S
C327 O335 1.249 . S
O328 C327 1.264 . S
O329 Mg322 1.986 . S
O329 C333 1.246 . S
O330 Mg325 2.032 . S
O330 C333 1.259 . S
O331 Mg322 2.114 . S
O331 C334 1.252 . S
O332 Mg322 2.251 . S
O332 Mg325 2.079 . S
O332 C334 1.273 . S
C333 O329 1.246 . S
C333 O330 1.259 . S
C334 O331 1.252 . S
C334 O332 1.273 . S
O335 Mg322 2.010 . S
O335 C327 1.249 . S
Mg336 O337 2.028 . S
Mg336 O343 1.986 . S
Mg336 O345 2.114 . S
Mg336 O346 2.251 . S
Mg336 O349 2.010 . S
O337 Mg336 2.028 . S
O337 C340 1.250 . S
O338 Mg339 2.028 . S
O338 C340 1.248 . S
Mg339 O338 2.028 . S
Mg339 O344 2.032 . S
Mg339 O346 2.079 . S
C340 O337 1.250 . S
C340 O338 1.248 . S
C341 O342 1.264 . S
C341 O349 1.249 . S
O342 C341 1.264 . S
O343 Mg336 1.986 . S
O343 C347 1.246 . S
O344 Mg339 2.032 . S
O344 C347 1.259 . S
O345 Mg336 2.114 . S
O345 C348 1.252 . S
O346 Mg336 2.251 . S
O346 Mg339 2.079 . S
O346 C348 1.273 . S
C347 O343 1.246 . S
C347 O344 1.259 . S
C348 O345 1.252 . S
C348 O346 1.273 . S
O349 Mg336 2.010 . S
O349 C341 1.249 . S
Mg350 O351 2.028 . S
Mg350 O357 1.986 . S
Mg350 O359 2.114 . S
Mg350 O360 2.251 . S
Mg350 O363 2.010 . S
O351 Mg350 2.028 . S
O351 C354 1.250 . S
O352 Mg353 2.028 . S
O352 C354 1.248 . S
Mg353 O352 2.028 . S
Mg353 O358 2.032 . S
Mg353 O360 2.079 . S
C354 O351 1.250 . S
C354 O352 1.248 . S
C355 O356 1.264 . S
C355 O363 1.249 . S
O356 C355 1.264 . S
O357 Mg350 1.986 . S
O357 C361 1.246 . S
O358 Mg353 2.032 . S
O358 C361 1.259 . S
O359 Mg350 2.114 . S
O359 C362 1.252 . S
O360 Mg350 2.251 . S
O360 Mg353 2.079 . S
O360 C362 1.273 . S
C361 O357 1.246 . S
C361 O358 1.259 . S
C362 O359 1.252 . S
C362 O360 1.273 . S
O363 Mg350 2.010 . S
O363 C355 1.249 . S
Mg364 O365 2.028 . S
Mg364 O371 1.986 . S
Mg364 O373 2.114 . S
Mg364 O374 2.251 . S
Mg364 O377 2.010 . S
O365 Mg364 2.028 . S
O365 C368 1.250 . S
O366 Mg367 2.028 . S
O366 C368 1.248 . S
Mg367 O366 2.028 . S
Mg367 O372 2.032 . S
Mg367 O374 2.079 . S
C368 O365 1.250 . S
C368 O366 1.248 . S
C369 O370 1.264 . S
C369 O377 1.249 . S
O370 C369 1.264 . S
O371 Mg364 1.986 . S
O371 C375 1.246 . S
O372 Mg367 2.032 . S
O372 C375 1.259 . S
O373 Mg364 2.114 . S
O373 C376 1.252 . S
O374 Mg364 2.251 . S
O374 Mg367 2.079 . S
O374 C376 1.273 . S
C375 O371 1.246 . S
C375 O372 1.259 . S
C376 O373 1.252 . S
C376 O374 1.273 . S
O377 Mg364 2.010 . S
O377 C369 1.249 . S
Mg378 O379 2.028 . S
Mg378 O385 1.986 . S
Mg378 O387 2.114 1_455 S
Mg378 O388 2.251 1_455 S
Mg378 O391 2.010 . S
O379 Mg378 2.028 . S
O379 C382 1.250 . S
O380 Mg381 2.028 . S
O380 C382 1.248 . S
Mg381 O380 2.028 . S
Mg381 O386 2.032 . S
Mg381 O388 2.079 1_455 S
C382 O379 1.250 . S
C382 O380 1.248 . S
C383 O384 1.264 . S
C383 O391 1.249 . S
O384 C383 1.264 . S
O385 Mg378 1.986 . S
O385 C389 1.246 . S
O386 Mg381 2.032 . S
O386 C389 1.259 . S
O387 Mg378 2.114 1_655 S
O387 C390 1.252 . S
O388 Mg378 2.251 1_655 S
O388 Mg381 2.079 1_655 S
O388 C390 1.273 . S
C389 O385 1.246 . S
C389 O386 1.259 . S
C390 O387 1.252 . S
C390 O388 1.273 . S
O391 Mg378 2.010 . S
O391 C383 1.249 . S
Mg392 O393 2.028 . S
Mg392 O399 1.986 . S
Mg392 O401 2.114 . S
Mg392 O402 2.251 . S
Mg392 O405 2.010 . S
O393 Mg392 2.028 . S
O393 C396 1.250 . S
O394 Mg395 2.028 . S
O394 C396 1.248 . S
Mg395 O394 2.028 . S
Mg395 O400 2.032 . S
Mg395 O402 2.079 . S
C396 O393 1.250 . S
C396 O394 1.248 . S
C397 O398 1.264 . S
C397 O405 1.249 . S
O398 C397 1.264 . S
O399 Mg392 1.986 . S
O399 C403 1.246 . S
O400 Mg395 2.032 . S
O400 C403 1.259 . S
O401 Mg392 2.114 . S
O401 C404 1.252 . S
O402 Mg392 2.251 . S
O402 Mg395 2.079 . S
O402 C404 1.273 . S
C403 O399 1.246 . S
C403 O400 1.259 . S
C404 O401 1.252 . S
C404 O402 1.273 . S
O405 Mg392 2.010 . S
O405 C397 1.249 . S
Mg406 O407 2.028 . S
Mg406 O413 1.986 . S
Mg406 O415 2.114 1_455 S
Mg406 O416 2.251 1_455 S
Mg406 O419 2.010 . S
O407 Mg406 2.028 . S
O407 C410 1.250 . S
O408 Mg409 2.028 . S
O408 C410 1.248 . S
Mg409 O408 2.028 . S
Mg409 O414 2.032 . S
Mg409 O416 2.079 1_455 S
C410 O407 1.250 . S
C410 O408 1.248 . S
C411 O412 1.264 . S
C411 O419 1.249 . S
O412 C411 1.264 . S
O413 Mg406 1.986 . S
O413 C417 1.246 . S
O414 Mg409 2.032 . S
O414 C417 1.259 . S
O415 Mg406 2.114 1_655 S
O415 C418 1.252 . S
O416 Mg406 2.251 1_655 S
O416 Mg409 2.079 1_655 S
O416 C418 1.273 . S
C417 O413 1.246 . S
C417 O414 1.259 . S
C418 O415 1.252 . S
C418 O416 1.273 . S
O419 Mg406 2.010 . S
O419 C411 1.249 . S
Mg420 O421 2.028 . S
Mg420 O427 1.986 . S
Mg420 O429 2.114 . S
Mg420 O430 2.251 . S
Mg420 O433 2.010 . S
O421 Mg420 2.028 . S
O421 C424 1.250 . S
O422 Mg423 2.028 . S
O422 C424 1.248 . S
Mg423 O422 2.028 . S
Mg423 O428 2.032 . S
Mg423 O430 2.079 . S
C424 O421 1.250 . S
C424 O422 1.248 . S
C425 O426 1.264 . S
C425 O433 1.249 . S
O426 C425 1.264 . S
O427 Mg420 1.986 . S
O427 C431 1.246 . S
O428 Mg423 2.032 . S
O428 C431 1.259 . S
O429 Mg420 2.114 . S
O429 C432 1.252 . S
O430 Mg420 2.251 . S
O430 Mg423 2.079 . S
O430 C432 1.273 . S
C431 O427 1.246 . S
C431 O428 1.259 . S
C432 O429 1.252 . S
C432 O430 1.273 . S
O433 Mg420 2.010 . S
O433 C425 1.249 . S
Mg434 O435 2.028 . S
Mg434 O441 1.986 . S
Mg434 O443 2.114 . S
Mg434 O444 2.251 . S
Mg434 O447 2.010 . S
O435 Mg434 2.028 . S
O435 C438 1.250 . S
O436 Mg437 2.028 . S
O436 C438 1.248 . S
Mg437 O436 2.028 . S
Mg437 O442 2.032 . S
Mg437 O444 2.079 . S
C438 O435 1.250 . S
C438 O436 1.248 . S
C439 O440 1.264 . S
C439 O447 1.249 . S
O440 C439 1.264 . S
O441 Mg434 1.986 . S
O441 C445 1.246 . S
O442 Mg437 2.032 . S
O442 C445 1.259 . S
O443 Mg434 2.114 . S
O443 C446 1.252 . S
O444 Mg434 2.251 . S
O444 Mg437 2.079 . S
O444 C446 1.273 . S
C445 O441 1.246 . S
C445 O442 1.259 . S
C446 O443 1.252 . S
C446 O444 1.273 . S
O447 Mg434 2.010 . S
O447 C439 1.249 . S
C448 C449 1.391 . S
C448 C450 1.394 . S
C448 H464 0.931 . S
C449 C448 1.391 . S
C449 C453 1.376 . S
C450 C448 1.394 . S
C450 C451 1.369 . S
C450 C454 1.531 . S
C451 C450 1.369 . S
C451 C452 1.410 . S
C451 C459 1.503 . S
C452 C451 1.410 . S
C452 C453 1.392 . S
C452 C455 1.511 . S
C453 C449 1.376 . S
C453 C452 1.392 . S
C453 H465 0.929 . S
C454 C450 1.531 . S
C454 H466 0.960 . S
C454 H467 0.962 . S
C454 H468 0.960 . S
C455 C452 1.511 . S
C455 H469 0.961 . S
C455 H470 0.961 . S
C455 H471 0.961 . S
C456 C457 1.370 . S
C456 C458 1.363 . S
C456 H472 0.931 . S
C457 C456 1.370 . S
C457 C461 1.408 . S
C458 C456 1.363 . S
C458 C459 1.370 . S
C458 C462 1.524 . S
C459 C451 1.503 . S
C459 C458 1.370 . S
C459 C460 1.403 . S
C460 C459 1.403 . S
C460 C461 1.404 . S
C460 C463 1.539 . S
C461 C457 1.408 . S
C461 C460 1.404 . S
C461 H473 0.930 . S
C462 C458 1.524 . S
C462 H474 0.956 . S
C462 H475 0.961 . S
C462 H476 0.961 . S
C463 C460 1.539 . S
C463 H477 0.958 . S
C463 H478 0.961 . S
C463 H479 0.960 . S
H464 C448 0.931 . S
H465 C453 0.929 . S
H466 C454 0.960 . S
H467 C454 0.962 . S
H468 C454 0.960 . S
H469 C455 0.961 . S
H470 C455 0.961 . S
H471 C455 0.961 . S
H472 C456 0.931 . S
H473 C461 0.930 . S
H474 C462 0.956 . S
H475 C462 0.961 . S
H476 C462 0.961 . S
H477 C463 0.958 . S
H478 C463 0.961 . S
H479 C463 0.960 . S
C480 C481 1.391 . S
C480 C482 1.394 . S
C480 H496 0.931 . S
C481 C480 1.391 . S
C481 C485 1.376 . S
C482 C480 1.394 . S
C482 C483 1.369 . S
C482 C486 1.531 . S
C483 C482 1.369 . S
C483 C484 1.410 . S
C483 C491 1.503 . S
C484 C483 1.410 . S
C484 C485 1.392 . S
C484 C487 1.511 . S
C485 C481 1.376 . S
C485 C484 1.392 . S
C485 H497 0.929 . S
C486 C482 1.531 . S
C486 H498 0.960 . S
C486 H499 0.962 . S
C486 H500 0.960 . S
C487 C484 1.511 . S
C487 H501 0.961 . S
C487 H502 0.961 . S
C487 H503 0.961 . S
C488 C489 1.370 . S
C488 C490 1.363 . S
C488 H504 0.931 . S
C489 C488 1.370 . S
C489 C493 1.408 . S
C490 C488 1.363 . S
C490 C491 1.370 . S
C490 C494 1.524 . S
C491 C483 1.503 . S
C491 C490 1.370 . S
C491 C492 1.403 . S
C492 C491 1.403 . S
C492 C493 1.404 . S
C492 C495 1.539 . S
C493 C489 1.408 . S
C493 C492 1.404 . S
C493 H505 0.930 . S
C494 C490 1.524 . S
C494 H506 0.956 . S
C494 H507 0.961 . S
C494 H508 0.961 . S
C495 C492 1.539 . S
C495 H509 0.958 . S
C495 H510 0.961 . S
C495 H511 0.960 . S
H496 C480 0.931 . S
H497 C485 0.929 . S
H498 C486 0.960 . S
H499 C486 0.962 . S
H500 C486 0.960 . S
H501 C487 0.961 . S
H502 C487 0.961 . S
H503 C487 0.961 . S
H504 C488 0.931 . S
H505 C493 0.930 . S
H506 C494 0.956 . S
H507 C494 0.961 . S
H508 C494 0.961 . S
H509 C495 0.958 . S
H510 C495 0.961 . S
H511 C495 0.960 . S
C512 C513 1.391 . S
C512 C514 1.394 . S
C512 H528 0.931 . S
C513 C512 1.391 . S
C513 C517 1.376 . S
C514 C512 1.394 . S
C514 C515 1.369 . S
C514 C518 1.531 . S
C515 C514 1.369 . S
C515 C516 1.410 . S
C515 C523 1.503 . S
C516 C515 1.410 . S
C516 C517 1.392 . S
C516 C519 1.511 . S
C517 C513 1.376 . S
C517 C516 1.392 . S
C517 H529 0.929 . S
C518 C514 1.531 . S
C518 H530 0.960 . S
C518 H531 0.962 . S
C518 H532 0.960 . S
C519 C516 1.511 . S
C519 H533 0.961 . S
C519 H534 0.961 . S
C519 H535 0.961 . S
C520 C521 1.370 . S
C520 C522 1.363 . S
C520 H536 0.931 . S
C521 C520 1.370 . S
C521 C525 1.408 . S
C522 C520 1.363 . S
C522 C523 1.370 . S
C522 C526 1.524 . S
C523 C515 1.503 . S
C523 C522 1.370 . S
C523 C524 1.403 . S
C524 C523 1.403 . S
C524 C525 1.404 . S
C524 C527 1.539 . S
C525 C521 1.408 . S
C525 C524 1.404 . S
C525 H537 0.930 . S
C526 C522 1.524 . S
C526 H538 0.956 . S
C526 H539 0.961 . S
C526 H540 0.961 . S
C527 C524 1.539 . S
C527 H541 0.958 . S
C527 H542 0.961 . S
C527 H543 0.960 . S
H528 C512 0.931 . S
H529 C517 0.929 . S
H530 C518 0.960 . S
H531 C518 0.962 . S
H532 C518 0.960 . S
H533 C519 0.961 . S
H534 C519 0.961 . S
H535 C519 0.961 . S
H536 C520 0.931 . S
H537 C525 0.930 . S
H538 C526 0.956 . S
H539 C526 0.961 . S
H540 C526 0.961 . S
H541 C527 0.958 . S
H542 C527 0.961 . S
H543 C527 0.960 . S
C544 C545 1.391 . S
C544 C546 1.394 . S
C544 H560 0.931 . S
C545 C544 1.391 . S
C545 C549 1.376 . S
C546 C544 1.394 . S
C546 C547 1.369 . S
C546 C550 1.531 . S
C547 C546 1.369 . S
C547 C548 1.410 . S
C547 C555 1.503 . S
C548 C547 1.410 . S
C548 C549 1.392 . S
C548 C551 1.511 . S
C549 C545 1.376 . S
C549 C548 1.392 . S
C549 H561 0.929 . S
C550 C546 1.531 . S
C550 H562 0.960 . S
C550 H563 0.962 . S
C550 H564 0.960 . S
C551 C548 1.511 . S
C551 H565 0.961 . S
C551 H566 0.961 . S
C551 H567 0.961 . S
C552 C553 1.370 . S
C552 C554 1.363 . S
C552 H568 0.931 . S
C553 C552 1.370 . S
C553 C557 1.408 . S
C554 C552 1.363 . S
C554 C555 1.370 . S
C554 C558 1.524 . S
C555 C547 1.503 . S
C555 C554 1.370 . S
C555 C556 1.403 . S
C556 C555 1.403 . S
C556 C557 1.404 . S
C556 C559 1.539 . S
C557 C553 1.408 . S
C557 C556 1.404 . S
C557 H569 0.930 . S
C558 C554 1.524 . S
C558 H570 0.956 . S
C558 H571 0.961 . S
C558 H572 0.961 . S
C559 C556 1.539 . S
C559 H573 0.958 . S
C559 H574 0.961 . S
C559 H575 0.960 . S
H560 C544 0.931 . S
H561 C549 0.929 . S
H562 C550 0.960 . S
H563 C550 0.962 . S
H564 C550 0.960 . S
H565 C551 0.961 . S
H566 C551 0.961 . S
H567 C551 0.961 . S
H568 C552 0.931 . S
H569 C557 0.930 . S
H570 C558 0.956 . S
H571 C558 0.961 . S
H572 C558 0.961 . S
H573 C559 0.958 . S
H574 C559 0.961 . S
H575 C559 0.960 . S
C576 C577 1.391 . S
C576 C578 1.394 . S
C576 H592 0.931 . S
C577 C576 1.391 . S
C577 C581 1.376 . S
C578 C576 1.394 . S
C578 C579 1.369 . S
C578 C582 1.531 . S
C579 C578 1.369 . S
C579 C580 1.410 . S
C579 C587 1.503 . S
C580 C579 1.410 . S
C580 C581 1.392 . S
C580 C583 1.511 . S
C581 C577 1.376 . S
C581 C580 1.392 . S
C581 H593 0.929 . S
C582 C578 1.531 . S
C582 H594 0.960 . S
C582 H595 0.962 . S
C582 H596 0.960 . S
C583 C580 1.511 . S
C583 H597 0.961 . S
C583 H598 0.961 . S
C583 H599 0.961 . S
C584 C585 1.370 . S
C584 C586 1.363 . S
C584 H600 0.931 . S
C585 C584 1.370 . S
C585 C589 1.408 . S
C586 C584 1.363 . S
C586 C587 1.370 . S
C586 C590 1.524 . S
C587 C579 1.503 . S
C587 C586 1.370 . S
C587 C588 1.403 . S
C588 C587 1.403 . S
C588 C589 1.404 . S
C588 C591 1.539 . S
C589 C585 1.408 . S
C589 C588 1.404 . S
C589 H601 0.930 . S
C590 C586 1.524 . S
C590 H602 0.956 . S
C590 H603 0.961 . S
C590 H604 0.961 . S
C591 C588 1.539 . S
C591 H605 0.958 . S
C591 H606 0.961 . S
C591 H607 0.960 . S
H592 C576 0.931 . S
H593 C581 0.929 . S
H594 C582 0.960 . S
H595 C582 0.962 . S
H596 C582 0.960 . S
H597 C583 0.961 . S
H598 C583 0.961 . S
H599 C583 0.961 . S
H600 C584 0.931 . S
H601 C589 0.930 . S
H602 C590 0.956 . S
H603 C590 0.961 . S
H604 C590 0.961 . S
H605 C591 0.958 . S
H606 C591 0.961 . S
H607 C591 0.960 . S
C608 C609 1.391 . S
C608 C610 1.394 . S
C608 H624 0.931 . S
C609 C608 1.391 . S
C609 C613 1.376 . S
C610 C608 1.394 . S
C610 C611 1.369 . S
C610 C614 1.531 . S
C611 C610 1.369 . S
C611 C612 1.410 . S
C611 C619 1.503 . S
C612 C611 1.410 . S
C612 C613 1.392 . S
C612 C615 1.511 . S
C613 C609 1.376 . S
C613 C612 1.392 . S
C613 H625 0.929 . S
C614 C610 1.531 . S
C614 H626 0.960 . S
C614 H627 0.962 . S
C614 H628 0.960 . S
C615 C612 1.511 . S
C615 H629 0.961 . S
C615 H630 0.961 . S
C615 H631 0.961 . S
C616 C617 1.370 . S
C616 C618 1.363 . S
C616 H632 0.931 . S
C617 C616 1.370 . S
C617 C621 1.408 . S
C618 C616 1.363 . S
C618 C619 1.370 . S
C618 C622 1.524 . S
C619 C611 1.503 . S
C619 C618 1.370 . S
C619 C620 1.403 . S
C620 C619 1.403 . S
C620 C621 1.404 . S
C620 C623 1.539 . S
C621 C617 1.408 . S
C621 C620 1.404 . S
C621 H633 0.930 . S
C622 C618 1.524 . S
C622 H634 0.956 . S
C622 H635 0.961 . S
C622 H636 0.961 . S
C623 C620 1.539 . S
C623 H637 0.958 . S
C623 H638 0.961 . S
C623 H639 0.960 . S
H624 C608 0.931 . S
H625 C613 0.929 . S
H626 C614 0.960 . S
H627 C614 0.962 . S
H628 C614 0.960 . S
H629 C615 0.961 . S
H630 C615 0.961 . S
H631 C615 0.961 . S
H632 C616 0.931 . S
H633 C621 0.930 . S
H634 C622 0.956 . S
H635 C622 0.961 . S
H636 C622 0.961 . S
H637 C623 0.958 . S
H638 C623 0.961 . S
H639 C623 0.960 . S
C640 C641 1.391 . S
C640 C642 1.394 . S
C640 H656 0.931 . S
C641 C640 1.391 . S
C641 C645 1.376 . S
C642 C640 1.394 . S
C642 C643 1.369 . S
C642 C646 1.531 . S
C643 C642 1.369 . S
C643 C644 1.410 . S
C643 C651 1.503 . S
C644 C643 1.410 . S
C644 C645 1.392 . S
C644 C647 1.511 . S
C645 C641 1.376 . S
C645 C644 1.392 . S
C645 H657 0.929 . S
C646 C642 1.531 . S
C646 H658 0.960 . S
C646 H659 0.962 . S
C646 H660 0.960 . S
C647 C644 1.511 . S
C647 H661 0.961 . S
C647 H662 0.961 . S
C647 H663 0.961 . S
C648 C649 1.370 . S
C648 C650 1.363 . S
C648 H664 0.931 . S
C649 C648 1.370 . S
C649 C653 1.408 . S
C650 C648 1.363 . S
C650 C651 1.370 . S
C650 C654 1.524 . S
C651 C643 1.503 . S
C651 C650 1.370 . S
C651 C652 1.403 . S
C652 C651 1.403 . S
C652 C653 1.404 . S
C652 C655 1.539 . S
C653 C649 1.408 . S
C653 C652 1.404 . S
C653 H665 0.930 . S
C654 C650 1.524 . S
C654 H666 0.956 . S
C654 H667 0.961 . S
C654 H668 0.961 . S
C655 C652 1.539 . S
C655 H669 0.958 . S
C655 H670 0.961 . S
C655 H671 0.960 . S
H656 C640 0.931 . S
H657 C645 0.929 . S
H658 C646 0.960 . S
H659 C646 0.962 . S
H660 C646 0.960 . S
H661 C647 0.961 . S
H662 C647 0.961 . S
H663 C647 0.961 . S
H664 C648 0.931 . S
H665 C653 0.930 . S
H666 C654 0.956 . S
H667 C654 0.961 . S
H668 C654 0.961 . S
H669 C655 0.958 . S
H670 C655 0.961 . S
H671 C655 0.960 . S
C672 C673 1.391 . S
C672 C674 1.394 . S
C672 H688 0.931 . S
C673 C672 1.391 . S
C673 C677 1.376 . S
C674 C672 1.394 . S
C674 C675 1.369 . S
C674 C678 1.531 . S
C675 C674 1.369 . S
C675 C676 1.410 . S
C675 C683 1.503 . S
C676 C675 1.410 . S
C676 C677 1.392 . S
C676 C679 1.511 . S
C677 C673 1.376 . S
C677 C676 1.392 . S
C677 H689 0.929 . S
C678 C674 1.531 . S
C678 H690 0.960 . S
C678 H691 0.962 . S
C678 H692 0.960 . S
C679 C676 1.511 . S
C679 H693 0.961 . S
C679 H694 0.961 . S
C679 H695 0.961 . S
C680 C681 1.370 . S
C680 C682 1.363 . S
C680 H696 0.931 . S
C681 C680 1.370 . S
C681 C685 1.408 . S
C682 C680 1.363 . S
C682 C683 1.370 . S
C682 C686 1.524 . S
C683 C675 1.503 . S
C683 C682 1.370 . S
C683 C684 1.403 . S
C684 C683 1.403 . S
C684 C685 1.404 . S
C684 C687 1.539 . S
C685 C681 1.408 . S
C685 C684 1.404 . S
C685 H697 0.930 . S
C686 C682 1.524 . S
C686 H698 0.956 . S
C686 H699 0.961 . S
C686 H700 0.961 . S
C687 C684 1.539 . S
C687 H701 0.958 . S
C687 H702 0.961 . S
C687 H703 0.960 . S
H688 C672 0.931 . S
H689 C677 0.929 . S
H690 C678 0.960 . S
H691 C678 0.962 . S
H692 C678 0.960 . S
H693 C679 0.961 . S
H694 C679 0.961 . S
H695 C679 0.961 . S
H696 C680 0.931 . S
H697 C685 0.930 . S
H698 C686 0.956 . S
H699 C686 0.961 . S
H700 C686 0.961 . S
H701 C687 0.958 . S
H702 C687 0.961 . S
H703 C687 0.960 . S
C704 C705 1.391 . S
C704 C706 1.394 . S
C704 H720 0.931 . S
C705 C704 1.391 . S
C705 C709 1.376 . S
C706 C704 1.394 . S
C706 C707 1.369 . S
C706 C710 1.531 . S
C707 C706 1.369 . S
C707 C708 1.410 . S
C707 C715 1.503 . S
C708 C707 1.410 . S
C708 C709 1.392 . S
C708 C711 1.511 . S
C709 C705 1.376 . S
C709 C708 1.392 . S
C709 H721 0.929 . S
C710 C706 1.531 . S
C710 H722 0.960 . S
C710 H723 0.962 . S
C710 H724 0.960 . S
C711 C708 1.511 . S
C711 H725 0.961 . S
C711 H726 0.961 . S
C711 H727 0.961 . S
C712 C713 1.370 . S
C712 C714 1.363 . S
C712 H728 0.931 . S
C713 C712 1.370 . S
C713 C717 1.408 . S
C714 C712 1.363 . S
C714 C715 1.370 . S
C714 C718 1.524 . S
C715 C707 1.503 . S
C715 C714 1.370 . S
C715 C716 1.403 . S
C716 C715 1.403 . S
C716 C717 1.404 . S
C716 C719 1.539 . S
C717 C713 1.408 . S
C717 C716 1.404 . S
C717 H729 0.930 . S
C718 C714 1.524 . S
C718 H730 0.956 . S
C718 H731 0.961 . S
C718 H732 0.961 . S
C719 C716 1.539 . S
C719 H733 0.958 . S
C719 H734 0.961 . S
C719 H735 0.960 . S
H720 C704 0.931 . S
H721 C709 0.929 . S
H722 C710 0.960 . S
H723 C710 0.962 . S
H724 C710 0.960 . S
H725 C711 0.961 . S
H726 C711 0.961 . S
H727 C711 0.961 . S
H728 C712 0.931 . S
H729 C717 0.930 . S
H730 C718 0.956 . S
H731 C718 0.961 . S
H732 C718 0.961 . S
H733 C719 0.958 . S
H734 C719 0.961 . S
H735 C719 0.960 . S
C736 C737 1.391 . S
C736 C738 1.394 . S
C736 H752 0.931 . S
C737 C736 1.391 . S
C737 C741 1.376 . S
C738 C736 1.394 . S
C738 C739 1.369 . S
C738 C742 1.531 . S
C739 C738 1.369 . S
C739 C740 1.410 . S
C739 C747 1.503 . S
C740 C739 1.410 . S
C740 C741 1.392 . S
C740 C743 1.511 . S
C741 C737 1.376 . S
C741 C740 1.392 . S
C741 H753 0.929 . S
C742 C738 1.531 . S
C742 H754 0.960 . S
C742 H755 0.962 . S
C742 H756 0.960 . S
C743 C740 1.511 . S
C743 H757 0.961 . S
C743 H758 0.961 . S
C743 H759 0.961 . S
C744 C745 1.370 . S
C744 C746 1.363 . S
C744 H760 0.931 . S
C745 C744 1.370 . S
C745 C749 1.408 . S
C746 C744 1.363 . S
C746 C747 1.370 . S
C746 C750 1.524 . S
C747 C739 1.503 . S
C747 C746 1.370 . S
C747 C748 1.403 . S
C748 C747 1.403 . S
C748 C749 1.404 . S
C748 C751 1.539 . S
C749 C745 1.408 . S
C749 C748 1.404 . S
C749 H761 0.930 . S
C750 C746 1.524 . S
C750 H762 0.956 . S
C750 H763 0.961 . S
C750 H764 0.961 . S
C751 C748 1.539 . S
C751 H765 0.958 . S
C751 H766 0.961 . S
C751 H767 0.960 . S
H752 C736 0.931 . S
H753 C741 0.929 . S
H754 C742 0.960 . S
H755 C742 0.962 . S
H756 C742 0.960 . S
H757 C743 0.961 . S
H758 C743 0.961 . S
H759 C743 0.961 . S
H760 C744 0.931 . S
H761 C749 0.930 . S
H762 C750 0.956 . S
H763 C750 0.961 . S
H764 C750 0.961 . S
H765 C751 0.958 . S
H766 C751 0.961 . S
H767 C751 0.960 . S
C768 C769 1.391 . S
C768 C770 1.394 . S
C768 H784 0.931 . S
C769 C768 1.391 . S
C769 C773 1.376 . S
C770 C768 1.394 . S
C770 C771 1.369 . S
C770 C774 1.531 . S
C771 C770 1.369 . S
C771 C772 1.410 . S
C771 C779 1.503 . S
C772 C771 1.410 . S
C772 C773 1.392 . S
C772 C775 1.511 . S
C773 C769 1.376 . S
C773 C772 1.392 . S
C773 H785 0.929 . S
C774 C770 1.531 . S
C774 H786 0.960 . S
C774 H787 0.962 . S
C774 H788 0.960 . S
C775 C772 1.511 . S
C775 H789 0.961 . S
C775 H790 0.961 . S
C775 H791 0.961 . S
C776 C777 1.370 . S
C776 C778 1.363 . S
C776 H792 0.931 . S
C777 C776 1.370 . S
C777 C781 1.408 . S
C778 C776 1.363 . S
C778 C779 1.370 . S
C778 C782 1.524 . S
C779 C771 1.503 . S
C779 C778 1.370 . S
C779 C780 1.403 . S
C780 C779 1.403 . S
C780 C781 1.404 . S
C780 C783 1.539 . S
C781 C777 1.408 . S
C781 C780 1.404 . S
C781 H793 0.930 . S
C782 C778 1.524 . S
C782 H794 0.956 . S
C782 H795 0.961 . S
C782 H796 0.961 . S
C783 C780 1.539 . S
C783 H797 0.958 . S
C783 H798 0.961 . S
C783 H799 0.960 . S
H784 C768 0.931 . S
H785 C773 0.929 . S
H786 C774 0.960 . S
H787 C774 0.962 . S
H788 C774 0.960 . S
H789 C775 0.961 . S
H790 C775 0.961 . S
H791 C775 0.961 . S
H792 C776 0.931 . S
H793 C781 0.930 . S
H794 C782 0.956 . S
H795 C782 0.961 . S
H796 C782 0.961 . S
H797 C783 0.958 . S
H798 C783 0.961 . S
H799 C783 0.960 . S
C800 C801 1.391 . S
C800 C802 1.394 . S
C800 H816 0.931 . S
C801 C800 1.391 . S
C801 C805 1.376 . S
C802 C800 1.394 . S
C802 C803 1.369 . S
C802 C806 1.531 . S
C803 C802 1.369 . S
C803 C804 1.410 . S
C803 C811 1.503 . S
C804 C803 1.410 . S
C804 C805 1.392 . S
C804 C807 1.511 . S
C805 C801 1.376 . S
C805 C804 1.392 . S
C805 H817 0.929 . S
C806 C802 1.531 . S
C806 H818 0.960 . S
C806 H819 0.962 . S
C806 H820 0.960 . S
C807 C804 1.511 . S
C807 H821 0.961 . S
C807 H822 0.961 . S
C807 H823 0.961 . S
C808 C809 1.370 . S
C808 C810 1.363 . S
C808 H824 0.931 . S
C809 C808 1.370 . S
C809 C813 1.408 . S
C810 C808 1.363 . S
C810 C811 1.370 . S
C810 C814 1.524 . S
C811 C803 1.503 . S
C811 C810 1.370 . S
C811 C812 1.403 . S
C812 C811 1.403 . S
C812 C813 1.404 . S
C812 C815 1.539 . S
C813 C809 1.408 . S
C813 C812 1.404 . S
C813 H825 0.930 . S
C814 C810 1.524 . S
C814 H826 0.956 . S
C814 H827 0.961 . S
C814 H828 0.961 . S
C815 C812 1.539 . S
C815 H829 0.958 . S
C815 H830 0.961 . S
C815 H831 0.960 . S
H816 C800 0.931 . S
H817 C805 0.929 . S
H818 C806 0.960 . S
H819 C806 0.962 . S
H820 C806 0.960 . S
H821 C807 0.961 . S
H822 C807 0.961 . S
H823 C807 0.961 . S
H824 C808 0.931 . S
H825 C813 0.930 . S
H826 C814 0.956 . S
H827 C814 0.961 . S
H828 C814 0.961 . S
H829 C815 0.958 . S
H830 C815 0.961 . S
H831 C815 0.960 . S
C832 C833 1.391 . S
C832 C834 1.394 . S
C832 H848 0.931 . S
C833 C832 1.391 . S
C833 C837 1.376 . S
C834 C832 1.394 . S
C834 C835 1.369 . S
C834 C838 1.531 . S
C835 C834 1.369 . S
C835 C836 1.410 . S
C835 C843 1.503 . S
C836 C835 1.410 . S
C836 C837 1.392 . S
C836 C839 1.511 . S
C837 C833 1.376 . S
C837 C836 1.392 . S
C837 H849 0.929 . S
C838 C834 1.531 . S
C838 H850 0.960 . S
C838 H851 0.962 . S
C838 H852 0.960 . S
C839 C836 1.511 . S
C839 H853 0.961 . S
C839 H854 0.961 . S
C839 H855 0.961 . S
C840 C841 1.370 . S
C840 C842 1.363 . S
C840 H856 0.931 . S
C841 C840 1.370 . S
C841 C845 1.408 . S
C842 C840 1.363 . S
C842 C843 1.370 . S
C842 C846 1.524 . S
C843 C835 1.503 . S
C843 C842 1.370 . S
C843 C844 1.403 . S
C844 C843 1.403 . S
C844 C845 1.404 . S
C844 C847 1.539 . S
C845 C841 1.408 . S
C845 C844 1.404 . S
C845 H857 0.930 . S
C846 C842 1.524 . S
C846 H858 0.956 . S
C846 H859 0.961 . S
C846 H860 0.961 . S
C847 C844 1.539 . S
C847 H861 0.958 . S
C847 H862 0.961 . S
C847 H863 0.960 . S
H848 C832 0.931 . S
H849 C837 0.929 . S
H850 C838 0.960 . S
H851 C838 0.962 . S
H852 C838 0.960 . S
H853 C839 0.961 . S
H854 C839 0.961 . S
H855 C839 0.961 . S
H856 C840 0.931 . S
H857 C845 0.930 . S
H858 C846 0.956 . S
H859 C846 0.961 . S
H860 C846 0.961 . S
H861 C847 0.958 . S
H862 C847 0.961 . S
H863 C847 0.960 . S
C864 C865 1.391 . S
C864 C866 1.394 . S
C864 H880 0.931 . S
C865 C864 1.391 . S
C865 C869 1.376 . S
C866 C864 1.394 . S
C866 C867 1.369 . S
C866 C870 1.531 . S
C867 C866 1.369 . S
C867 C868 1.410 . S
C867 C875 1.503 . S
C868 C867 1.410 . S
C868 C869 1.392 . S
C868 C871 1.511 . S
C869 C865 1.376 . S
C869 C868 1.392 . S
C869 H881 0.929 . S
C870 C866 1.531 . S
C870 H882 0.960 . S
C870 H883 0.962 . S
C870 H884 0.960 . S
C871 C868 1.511 . S
C871 H885 0.961 . S
C871 H886 0.961 . S
C871 H887 0.961 . S
C872 C873 1.370 . S
C872 C874 1.363 . S
C872 H888 0.931 . S
C873 C872 1.370 . S
C873 C877 1.408 . S
C874 C872 1.363 . S
C874 C875 1.370 . S
C874 C878 1.524 . S
C875 C867 1.503 . S
C875 C874 1.370 . S
C875 C876 1.403 . S
C876 C875 1.403 . S
C876 C877 1.404 . S
C876 C879 1.539 . S
C877 C873 1.408 . S
C877 C876 1.404 . S
C877 H889 0.930 . S
C878 C874 1.524 . S
C878 H890 0.956 . S
C878 H891 0.961 . S
C878 H892 0.961 . S
C879 C876 1.539 . S
C879 H893 0.958 . S
C879 H894 0.961 . S
C879 H895 0.960 . S
H880 C864 0.931 . S
H881 C869 0.929 . S
H882 C870 0.960 . S
H883 C870 0.962 . S
H884 C870 0.960 . S
H885 C871 0.961 . S
H886 C871 0.961 . S
H887 C871 0.961 . S
H888 C872 0.931 . S
H889 C877 0.930 . S
H890 C878 0.956 . S
H891 C878 0.961 . S
H892 C878 0.961 . S
H893 C879 0.958 . S
H894 C879 0.961 . S
H895 C879 0.960 . S
C896 C897 1.391 . S
C896 C898 1.394 . S
C896 H912 0.931 . S
C897 C896 1.391 . S
C897 C901 1.376 . S
C898 C896 1.394 . S
C898 C899 1.369 . S
C898 C902 1.531 . S
C899 C898 1.369 . S
C899 C900 1.410 . S
C899 C907 1.503 . S
C900 C899 1.410 . S
C900 C901 1.392 . S
C900 C903 1.511 . S
C901 C897 1.376 . S
C901 C900 1.392 . S
C901 H913 0.929 . S
C902 C898 1.531 . S
C902 H914 0.960 . S
C902 H915 0.962 . S
C902 H916 0.960 . S
C903 C900 1.511 . S
C903 H917 0.961 . S
C903 H918 0.961 . S
C903 H919 0.961 . S
C904 C905 1.370 . S
C904 C906 1.363 . S
C904 H920 0.931 . S
C905 C904 1.370 . S
C905 C909 1.408 . S
C906 C904 1.363 . S
C906 C907 1.370 . S
C906 C910 1.524 . S
C907 C899 1.503 . S
C907 C906 1.370 . S
C907 C908 1.403 . S
C908 C907 1.403 . S
C908 C909 1.404 . S
C908 C911 1.539 . S
C909 C905 1.408 . S
C909 C908 1.404 . S
C909 H921 0.930 . S
C910 C906 1.524 . S
C910 H922 0.956 . S
C910 H923 0.961 . S
C910 H924 0.961 . S
C911 C908 1.539 . S
C911 H925 0.958 . S
C911 H926 0.961 . S
C911 H927 0.960 . S
H912 C896 0.931 . S
H913 C901 0.929 . S
H914 C902 0.960 . S
H915 C902 0.962 . S
H916 C902 0.960 . S
H917 C903 0.961 . S
H918 C903 0.961 . S
H919 C903 0.961 . S
H920 C904 0.931 . S
H921 C909 0.930 . S
H922 C910 0.956 . S
H923 C910 0.961 . S
H924 C910 0.961 . S
H925 C911 0.958 . S
H926 C911 0.961 . S
H927 C911 0.960 . S
C928 C929 1.391 . S
C928 C930 1.394 . S
C928 H944 0.931 . S
C929 C928 1.391 . S
C929 C933 1.376 . S
C930 C928 1.394 . S
C930 C931 1.369 . S
C930 C934 1.531 . S
C931 C930 1.369 . S
C931 C932 1.410 . S
C931 C939 1.503 . S
C932 C931 1.410 . S
C932 C933 1.392 . S
C932 C935 1.511 . S
C933 C929 1.376 . S
C933 C932 1.392 . S
C933 H945 0.929 . S
C934 C930 1.531 . S
C934 H946 0.960 . S
C934 H947 0.962 . S
C934 H948 0.960 . S
C935 C932 1.511 . S
C935 H949 0.961 . S
C935 H950 0.961 . S
C935 H951 0.961 . S
C936 C937 1.370 . S
C936 C938 1.363 . S
C936 H952 0.931 . S
C937 C936 1.370 . S
C937 C941 1.408 . S
C938 C936 1.363 . S
C938 C939 1.370 . S
C938 C942 1.524 . S
C939 C931 1.503 . S
C939 C938 1.370 . S
C939 C940 1.403 . S
C940 C939 1.403 . S
C940 C941 1.404 . S
C940 C943 1.539 . S
C941 C937 1.408 . S
C941 C940 1.404 . S
C941 H953 0.930 . S
C942 C938 1.524 . S
C942 H954 0.956 . S
C942 H955 0.961 . S
C942 H956 0.961 . S
C943 C940 1.539 . S
C943 H957 0.958 . S
C943 H958 0.961 . S
C943 H959 0.960 . S
H944 C928 0.931 . S
H945 C933 0.929 . S
H946 C934 0.960 . S
H947 C934 0.962 . S
H948 C934 0.960 . S
H949 C935 0.961 . S
H950 C935 0.961 . S
H951 C935 0.961 . S
H952 C936 0.931 . S
H953 C941 0.930 . S
H954 C942 0.956 . S
H955 C942 0.961 . S
H956 C942 0.961 . S
H957 C943 0.958 . S
H958 C943 0.961 . S
H959 C943 0.960 . S
C960 C961 1.391 . S
C960 C962 1.394 . S
C960 H976 0.931 . S
C961 C960 1.391 . S
C961 C965 1.376 . S
C962 C960 1.394 . S
C962 C963 1.369 . S
C962 C966 1.531 . S
C963 C962 1.369 . S
C963 C964 1.410 . S
C963 C971 1.503 . S
C964 C963 1.410 . S
C964 C965 1.392 . S
C964 C967 1.511 . S
C965 C961 1.376 . S
C965 C964 1.392 . S
C965 H977 0.929 . S
C966 C962 1.531 . S
C966 H978 0.960 . S
C966 H979 0.962 . S
C966 H980 0.960 . S
C967 C964 1.511 . S
C967 H981 0.961 . S
C967 H982 0.961 . S
C967 H983 0.961 . S
C968 C969 1.370 . S
C968 C970 1.363 . S
C968 H984 0.931 . S
C969 C968 1.370 . S
C969 C973 1.408 . S
C970 C968 1.363 . S
C970 C971 1.370 . S
C970 C974 1.524 . S
C971 C963 1.503 . S
C971 C970 1.370 . S
C971 C972 1.403 . S
C972 C971 1.403 . S
C972 C973 1.404 . S
C972 C975 1.539 . S
C973 C969 1.408 . S
C973 C972 1.404 . S
C973 H985 0.930 . S
C974 C970 1.524 . S
C974 H986 0.956 . S
C974 H987 0.961 . S
C974 H988 0.961 . S
C975 C972 1.539 . S
C975 H989 0.958 . S
C975 H990 0.961 . S
C975 H991 0.960 . S
H976 C960 0.931 . S
H977 C965 0.929 . S
H978 C966 0.960 . S
H979 C966 0.962 . S
H980 C966 0.960 . S
H981 C967 0.961 . S
H982 C967 0.961 . S
H983 C967 0.961 . S
H984 C968 0.931 . S
H985 C973 0.930 . S
H986 C974 0.956 . S
H987 C974 0.961 . S
H988 C974 0.961 . S
H989 C975 0.958 . S
H990 C975 0.961 . S
H991 C975 0.960 . S
C992 C993 1.391 . S
C992 C994 1.394 . S
C992 H1008 0.931 . S
C993 C992 1.391 . S
C993 C997 1.376 . S
C994 C992 1.394 . S
C994 C995 1.369 . S
C994 C998 1.531 . S
C995 C994 1.369 . S
C995 C996 1.410 . S
C995 C1003 1.503 . S
C996 C995 1.410 . S
C996 C997 1.392 . S
C996 C999 1.511 . S
C997 C993 1.376 . S
C997 C996 1.392 . S
C997 H1009 0.929 . S
C998 C994 1.531 . S
C998 H1010 0.960 . S
C998 H1011 0.962 . S
C998 H1012 0.960 . S
C999 C996 1.511 . S
C999 H1013 0.961 . S
C999 H1014 0.961 . S
C999 H1015 0.961 . S
C1000 C1001 1.370 . S
C1000 C1002 1.363 . S
C1000 H1016 0.931 . S
C1001 C1000 1.370 . S
C1001 C1005 1.408 . S
C1002 C1000 1.363 . S
C1002 C1003 1.370 . S
C1002 C1006 1.524 . S
C1003 C995 1.503 . S
C1003 C1002 1.370 . S
C1003 C1004 1.403 . S
C1004 C1003 1.403 . S
C1004 C1005 1.404 . S
C1004 C1007 1.539 . S
C1005 C1001 1.408 . S
C1005 C1004 1.404 . S
C1005 H1017 0.930 . S
C1006 C1002 1.524 . S
C1006 H1018 0.956 . S
C1006 H1019 0.961 . S
C1006 H1020 0.961 . S
C1007 C1004 1.539 . S
C1007 H1021 0.958 . S
C1007 H1022 0.961 . S
C1007 H1023 0.960 . S
H1008 C992 0.931 . S
H1009 C997 0.929 . S
H1010 C998 0.960 . S
H1011 C998 0.962 . S
H1012 C998 0.960 . S
H1013 C999 0.961 . S
H1014 C999 0.961 . S
H1015 C999 0.961 . S
H1016 C1000 0.931 . S
H1017 C1005 0.930 . S
H1018 C1006 0.956 . S
H1019 C1006 0.961 . S
H1020 C1006 0.961 . S
H1021 C1007 0.958 . S
H1022 C1007 0.961 . S
H1023 C1007 0.960 . S
C1024 C1025 1.391 . S
C1024 C1026 1.394 . S
C1024 H1040 0.931 . S
C1025 C1024 1.391 . S
C1025 C1029 1.376 . S
C1026 C1024 1.394 . S
C1026 C1027 1.369 . S
C1026 C1030 1.531 . S
C1027 C1026 1.369 . S
C1027 C1028 1.410 . S
C1027 C1035 1.503 . S
C1028 C1027 1.410 . S
C1028 C1029 1.392 . S
C1028 C1031 1.511 . S
C1029 C1025 1.376 . S
C1029 C1028 1.392 . S
C1029 H1041 0.929 . S
C1030 C1026 1.531 . S
C1030 H1042 0.960 . S
C1030 H1043 0.962 . S
C1030 H1044 0.960 . S
C1031 C1028 1.511 . S
C1031 H1045 0.961 . S
C1031 H1046 0.961 . S
C1031 H1047 0.961 . S
C1032 C1033 1.370 . S
C1032 C1034 1.363 . S
C1032 H1048 0.931 . S
C1033 C1032 1.370 . S
C1033 C1037 1.408 . S
C1034 C1032 1.363 . S
C1034 C1035 1.370 . S
C1034 C1038 1.524 . S
C1035 C1027 1.503 . S
C1035 C1034 1.370 . S
C1035 C1036 1.403 . S
C1036 C1035 1.403 . S
C1036 C1037 1.404 . S
C1036 C1039 1.539 . S
C1037 C1033 1.408 . S
C1037 C1036 1.404 . S
C1037 H1049 0.930 . S
C1038 C1034 1.524 . S
C1038 H1050 0.956 . S
C1038 H1051 0.961 . S
C1038 H1052 0.961 . S
C1039 C1036 1.539 . S
C1039 H1053 0.958 . S
C1039 H1054 0.961 . S
C1039 H1055 0.960 . S
H1040 C1024 0.931 . S
H1041 C1029 0.929 . S
H1042 C1030 0.960 . S
H1043 C1030 0.962 . S
H1044 C1030 0.960 . S
H1045 C1031 0.961 . S
H1046 C1031 0.961 . S
H1047 C1031 0.961 . S
H1048 C1032 0.931 . S
H1049 C1037 0.930 . S
H1050 C1038 0.956 . S
H1051 C1038 0.961 . S
H1052 C1038 0.961 . S
H1053 C1039 0.958 . S
H1054 C1039 0.961 . S
H1055 C1039 0.960 . S
C1056 C1057 1.391 . S
C1056 C1058 1.394 . S
C1056 H1072 0.931 . S
C1057 C1056 1.391 . S
C1057 C1061 1.376 . S
C1058 C1056 1.394 . S
C1058 C1059 1.369 . S
C1058 C1062 1.531 . S
C1059 C1058 1.369 . S
C1059 C1060 1.410 . S
C1059 C1067 1.503 . S
C1060 C1059 1.410 . S
C1060 C1061 1.392 . S
C1060 C1063 1.511 . S
C1061 C1057 1.376 . S
C1061 C1060 1.392 . S
C1061 H1073 0.929 . S
C1062 C1058 1.531 . S
C1062 H1074 0.960 . S
C1062 H1075 0.962 . S
C1062 H1076 0.960 . S
C1063 C1060 1.511 . S
C1063 H1077 0.961 . S
C1063 H1078 0.961 . S
C1063 H1079 0.961 . S
C1064 C1065 1.370 . S
C1064 C1066 1.363 . S
C1064 H1080 0.931 . S
C1065 C1064 1.370 . S
C1065 C1069 1.408 . S
C1066 C1064 1.363 . S
C1066 C1067 1.370 . S
C1066 C1070 1.524 . S
C1067 C1059 1.503 . S
C1067 C1066 1.370 . S
C1067 C1068 1.403 . S
C1068 C1067 1.403 . S
C1068 C1069 1.404 . S
C1068 C1071 1.539 . S
C1069 C1065 1.408 . S
C1069 C1068 1.404 . S
C1069 H1081 0.930 . S
C1070 C1066 1.524 . S
C1070 H1082 0.956 . S
C1070 H1083 0.961 . S
C1070 H1084 0.961 . S
C1071 C1068 1.539 . S
C1071 H1085 0.958 . S
C1071 H1086 0.961 . S
C1071 H1087 0.960 . S
H1072 C1056 0.931 . S
H1073 C1061 0.929 . S
H1074 C1062 0.960 . S
H1075 C1062 0.962 . S
H1076 C1062 0.960 . S
H1077 C1063 0.961 . S
H1078 C1063 0.961 . S
H1079 C1063 0.961 . S
H1080 C1064 0.931 . S
H1081 C1069 0.930 . S
H1082 C1070 0.956 . S
H1083 C1070 0.961 . S
H1084 C1070 0.961 . S
H1085 C1071 0.958 . S
H1086 C1071 0.961 . S
H1087 C1071 0.960 . S
C1088 C1089 1.391 . S
C1088 C1090 1.394 . S
C1088 H1104 0.931 . S
C1089 C1088 1.391 . S
C1089 C1093 1.376 . S
C1090 C1088 1.394 . S
C1090 C1091 1.369 . S
C1090 C1094 1.531 . S
C1091 C1090 1.369 . S
C1091 C1092 1.410 . S
C1091 C1099 1.503 . S
C1092 C1091 1.410 . S
C1092 C1093 1.392 . S
C1092 C1095 1.511 . S
C1093 C1089 1.376 . S
C1093 C1092 1.392 . S
C1093 H1105 0.929 . S
C1094 C1090 1.531 . S
C1094 H1106 0.960 . S
C1094 H1107 0.962 . S
C1094 H1108 0.960 . S
C1095 C1092 1.511 . S
C1095 H1109 0.961 . S
C1095 H1110 0.961 . S
C1095 H1111 0.961 . S
C1096 C1097 1.370 . S
C1096 C1098 1.363 . S
C1096 H1112 0.931 . S
C1097 C1096 1.370 . S
C1097 C1101 1.408 . S
C1098 C1096 1.363 . S
C1098 C1099 1.370 . S
C1098 C1102 1.524 . S
C1099 C1091 1.503 . S
C1099 C1098 1.370 . S
C1099 C1100 1.403 . S
C1100 C1099 1.403 . S
C1100 C1101 1.404 . S
C1100 C1103 1.539 . S
C1101 C1097 1.408 . S
C1101 C1100 1.404 . S
C1101 H1113 0.930 . S
C1102 C1098 1.524 . S
C1102 H1114 0.956 . S
C1102 H1115 0.961 . S
C1102 H1116 0.961 . S
C1103 C1100 1.539 . S
C1103 H1117 0.958 . S
C1103 H1118 0.961 . S
C1103 H1119 0.960 . S
H1104 C1088 0.931 . S
H1105 C1093 0.929 . S
H1106 C1094 0.960 . S
H1107 C1094 0.962 . S
H1108 C1094 0.960 . S
H1109 C1095 0.961 . S
H1110 C1095 0.961 . S
H1111 C1095 0.961 . S
H1112 C1096 0.931 . S
H1113 C1101 0.930 . S
H1114 C1102 0.956 . S
H1115 C1102 0.961 . S
H1116 C1102 0.961 . S
H1117 C1103 0.958 . S
H1118 C1103 0.961 . S
H1119 C1103 0.960 . S
C1120 C1121 1.391 . S
C1120 C1122 1.394 . S
C1120 H1136 0.931 . S
C1121 C1120 1.391 . S
C1121 C1125 1.376 . S
C1122 C1120 1.394 . S
C1122 C1123 1.369 . S
C1122 C1126 1.531 . S
C1123 C1122 1.369 . S
C1123 C1124 1.410 . S
C1123 C1131 1.503 . S
C1124 C1123 1.410 . S
C1124 C1125 1.392 . S
C1124 C1127 1.511 . S
C1125 C1121 1.376 . S
C1125 C1124 1.392 . S
C1125 H1137 0.929 . S
C1126 C1122 1.531 . S
C1126 H1138 0.960 . S
C1126 H1139 0.962 . S
C1126 H1140 0.960 . S
C1127 C1124 1.511 . S
C1127 H1141 0.961 . S
C1127 H1142 0.961 . S
C1127 H1143 0.961 . S
C1128 C1129 1.370 . S
C1128 C1130 1.363 . S
C1128 H1144 0.931 . S
C1129 C1128 1.370 . S
C1129 C1133 1.408 . S
C1130 C1128 1.363 . S
C1130 C1131 1.370 . S
C1130 C1134 1.524 . S
C1131 C1123 1.503 . S
C1131 C1130 1.370 . S
C1131 C1132 1.403 . S
C1132 C1131 1.403 . S
C1132 C1133 1.404 . S
C1132 C1135 1.539 . S
C1133 C1129 1.408 . S
C1133 C1132 1.404 . S
C1133 H1145 0.930 . S
C1134 C1130 1.524 . S
C1134 H1146 0.956 . S
C1134 H1147 0.961 . S
C1134 H1148 0.961 . S
C1135 C1132 1.539 . S
C1135 H1149 0.958 . S
C1135 H1150 0.961 . S
C1135 H1151 0.960 . S
H1136 C1120 0.931 . S
H1137 C1125 0.929 . S
H1138 C1126 0.960 . S
H1139 C1126 0.962 . S
H1140 C1126 0.960 . S
H1141 C1127 0.961 . S
H1142 C1127 0.961 . S
H1143 C1127 0.961 . S
H1144 C1128 0.931 . S
H1145 C1133 0.930 . S
H1146 C1134 0.956 . S
H1147 C1134 0.961 . S
H1148 C1134 0.961 . S
H1149 C1135 0.958 . S
H1150 C1135 0.961 . S
H1151 C1135 0.960 . S
C1152 C1153 1.391 . S
C1152 C1154 1.394 . S
C1152 H1168 0.931 . S
C1153 C1152 1.391 . S
C1153 C1157 1.376 . S
C1154 C1152 1.394 . S
C1154 C1155 1.369 . S
C1154 C1158 1.531 . S
C1155 C1154 1.369 . S
C1155 C1156 1.410 . S
C1155 C1163 1.503 . S
C1156 C1155 1.410 . S
C1156 C1157 1.392 . S
C1156 C1159 1.511 . S
C1157 C1153 1.376 . S
C1157 C1156 1.392 . S
C1157 H1169 0.929 . S
C1158 C1154 1.531 . S
C1158 H1170 0.960 . S
C1158 H1171 0.962 . S
C1158 H1172 0.960 . S
C1159 C1156 1.511 . S
C1159 H1173 0.961 . S
C1159 H1174 0.961 . S
C1159 H1175 0.961 . S
C1160 C1161 1.370 . S
C1160 C1162 1.363 . S
C1160 H1176 0.931 . S
C1161 C1160 1.370 . S
C1161 C1165 1.408 . S
C1162 C1160 1.363 . S
C1162 C1163 1.370 . S
C1162 C1166 1.524 . S
C1163 C1155 1.503 . S
C1163 C1162 1.370 . S
C1163 C1164 1.403 . S
C1164 C1163 1.403 . S
C1164 C1165 1.404 . S
C1164 C1167 1.539 . S
C1165 C1161 1.408 . S
C1165 C1164 1.404 . S
C1165 H1177 0.930 . S
C1166 C1162 1.524 . S
C1166 H1178 0.956 . S
C1166 H1179 0.961 . S
C1166 H1180 0.961 . S
C1167 C1164 1.539 . S
C1167 H1181 0.958 . S
C1167 H1182 0.961 . S
C1167 H1183 0.960 . S
H1168 C1152 0.931 . S
H1169 C1157 0.929 . S
H1170 C1158 0.960 . S
H1171 C1158 0.962 . S
H1172 C1158 0.960 . S
H1173 C1159 0.961 . S
H1174 C1159 0.961 . S
H1175 C1159 0.961 . S
H1176 C1160 0.931 . S
H1177 C1165 0.930 . S
H1178 C1166 0.956 . S
H1179 C1166 0.961 . S
H1180 C1166 0.961 . S
H1181 C1167 0.958 . S
H1182 C1167 0.961 . S
H1183 C1167 0.960 . S
C1184 C1185 1.391 . S
C1184 C1186 1.394 . S
C1184 H1200 0.931 . S
C1185 C1184 1.391 . S
C1185 C1189 1.376 . S
C1186 C1184 1.394 . S
C1186 C1187 1.369 . S
C1186 C1190 1.531 . S
C1187 C1186 1.369 . S
C1187 C1188 1.410 . S
C1187 C1195 1.503 . S
C1188 C1187 1.410 . S
C1188 C1189 1.392 . S
C1188 C1191 1.511 . S
C1189 C1185 1.376 . S
C1189 C1188 1.392 . S
C1189 H1201 0.929 . S
C1190 C1186 1.531 . S
C1190 H1202 0.960 . S
C1190 H1203 0.962 . S
C1190 H1204 0.960 . S
C1191 C1188 1.511 . S
C1191 H1205 0.961 . S
C1191 H1206 0.961 . S
C1191 H1207 0.961 . S
C1192 C1193 1.370 . S
C1192 C1194 1.363 . S
C1192 H1208 0.931 . S
C1193 C1192 1.370 . S
C1193 C1197 1.408 . S
C1194 C1192 1.363 . S
C1194 C1195 1.370 . S
C1194 C1198 1.524 . S
C1195 C1187 1.503 . S
C1195 C1194 1.370 . S
C1195 C1196 1.403 . S
C1196 C1195 1.403 . S
C1196 C1197 1.404 . S
C1196 C1199 1.539 . S
C1197 C1193 1.408 . S
C1197 C1196 1.404 . S
C1197 H1209 0.930 . S
C1198 C1194 1.524 . S
C1198 H1210 0.956 . S
C1198 H1211 0.961 . S
C1198 H1212 0.961 . S
C1199 C1196 1.539 . S
C1199 H1213 0.958 . S
C1199 H1214 0.961 . S
C1199 H1215 0.960 . S
H1200 C1184 0.931 . S
H1201 C1189 0.929 . S
H1202 C1190 0.960 . S
H1203 C1190 0.962 . S
H1204 C1190 0.960 . S
H1205 C1191 0.961 . S
H1206 C1191 0.961 . S
H1207 C1191 0.961 . S
H1208 C1192 0.931 . S
H1209 C1197 0.930 . S
H1210 C1198 0.956 . S
H1211 C1198 0.961 . S
H1212 C1198 0.961 . S
H1213 C1199 0.958 . S
H1214 C1199 0.961 . S
H1215 C1199 0.960 . S
C1216 C1217 1.391 . S
C1216 C1218 1.394 . S
C1216 H1232 0.931 . S
C1217 C1216 1.391 . S
C1217 C1221 1.376 . S
C1218 C1216 1.394 . S
C1218 C1219 1.369 . S
C1218 C1222 1.531 . S
C1219 C1218 1.369 . S
C1219 C1220 1.410 . S
C1219 C1227 1.503 . S
C1220 C1219 1.410 . S
C1220 C1221 1.392 . S
C1220 C1223 1.511 . S
C1221 C1217 1.376 . S
C1221 C1220 1.392 . S
C1221 H1233 0.929 . S
C1222 C1218 1.531 . S
C1222 H1234 0.960 . S
C1222 H1235 0.962 . S
C1222 H1236 0.960 . S
C1223 C1220 1.511 . S
C1223 H1237 0.961 . S
C1223 H1238 0.961 . S
C1223 H1239 0.961 . S
C1224 C1225 1.370 . S
C1224 C1226 1.363 . S
C1224 H1240 0.931 . S
C1225 C1224 1.370 . S
C1225 C1229 1.408 . S
C1226 C1224 1.363 . S
C1226 C1227 1.370 . S
C1226 C1230 1.524 . S
C1227 C1219 1.503 . S
C1227 C1226 1.370 . S
C1227 C1228 1.403 . S
C1228 C1227 1.403 . S
C1228 C1229 1.404 . S
C1228 C1231 1.539 . S
C1229 C1225 1.408 . S
C1229 C1228 1.404 . S
C1229 H1241 0.930 . S
C1230 C1226 1.524 . S
C1230 H1242 0.956 . S
C1230 H1243 0.961 . S
C1230 H1244 0.961 . S
C1231 C1228 1.539 . S
C1231 H1245 0.958 . S
C1231 H1246 0.961 . S
C1231 H1247 0.960 . S
H1232 C1216 0.931 . S
H1233 C1221 0.929 . S
H1234 C1222 0.960 . S
H1235 C1222 0.962 . S
H1236 C1222 0.960 . S
H1237 C1223 0.961 . S
H1238 C1223 0.961 . S
H1239 C1223 0.961 . S
H1240 C1224 0.931 . S
H1241 C1229 0.930 . S
H1242 C1230 0.956 . S
H1243 C1230 0.961 . S
H1244 C1230 0.961 . S
H1245 C1231 0.958 . S
H1246 C1231 0.961 . S
H1247 C1231 0.960 . S
C1248 C1249 1.391 . S
C1248 C1250 1.394 . S
C1248 H1264 0.931 . S
C1249 C1248 1.391 . S
C1249 C1253 1.376 . S
C1250 C1248 1.394 . S
C1250 C1251 1.369 . S
C1250 C1254 1.531 . S
C1251 C1250 1.369 . S
C1251 C1252 1.410 . S
C1251 C1259 1.503 . S
C1252 C1251 1.410 . S
C1252 C1253 1.392 . S
C1252 C1255 1.511 . S
C1253 C1249 1.376 . S
C1253 C1252 1.392 . S
C1253 H1265 0.929 . S
C1254 C1250 1.531 . S
C1254 H1266 0.960 . S
C1254 H1267 0.962 . S
C1254 H1268 0.960 . S
C1255 C1252 1.511 . S
C1255 H1269 0.961 . S
C1255 H1270 0.961 . S
C1255 H1271 0.961 . S
C1256 C1257 1.370 . S
C1256 C1258 1.363 . S
C1256 H1272 0.931 . S
C1257 C1256 1.370 . S
C1257 C1261 1.408 . S
C1258 C1256 1.363 . S
C1258 C1259 1.370 . S
C1258 C1262 1.524 . S
C1259 C1251 1.503 . S
C1259 C1258 1.370 . S
C1259 C1260 1.403 . S
C1260 C1259 1.403 . S
C1260 C1261 1.404 . S
C1260 C1263 1.539 . S
C1261 C1257 1.408 . S
C1261 C1260 1.404 . S
C1261 H1273 0.930 . S
C1262 C1258 1.524 . S
C1262 H1274 0.956 . S
C1262 H1275 0.961 . S
C1262 H1276 0.961 . S
C1263 C1260 1.539 . S
C1263 H1277 0.958 . S
C1263 H1278 0.961 . S
C1263 H1279 0.960 . S
H1264 C1248 0.931 . S
H1265 C1253 0.929 . S
H1266 C1254 0.960 . S
H1267 C1254 0.962 . S
H1268 C1254 0.960 . S
H1269 C1255 0.961 . S
H1270 C1255 0.961 . S
H1271 C1255 0.961 . S
H1272 C1256 0.931 . S
H1273 C1261 0.930 . S
H1274 C1262 0.956 . S
H1275 C1262 0.961 . S
H1276 C1262 0.961 . S
H1277 C1263 0.958 . S
H1278 C1263 0.961 . S
H1279 C1263 0.960 . S
C1280 C1281 1.391 . S
C1280 C1282 1.394 . S
C1280 H1296 0.931 . S
C1281 C1280 1.391 . S
C1281 C1285 1.376 . S
C1282 C1280 1.394 . S
C1282 C1283 1.369 . S
C1282 C1286 1.531 . S
C1283 C1282 1.369 . S
C1283 C1284 1.410 . S
C1283 C1291 1.503 . S
C1284 C1283 1.410 . S
C1284 C1285 1.392 . S
C1284 C1287 1.511 . S
C1285 C1281 1.376 . S
C1285 C1284 1.392 . S
C1285 H1297 0.929 . S
C1286 C1282 1.531 . S
C1286 H1298 0.960 . S
C1286 H1299 0.962 . S
C1286 H1300 0.960 . S
C1287 C1284 1.511 . S
C1287 H1301 0.961 . S
C1287 H1302 0.961 . S
C1287 H1303 0.961 . S
C1288 C1289 1.370 . S
C1288 C1290 1.363 . S
C1288 H1304 0.931 . S
C1289 C1288 1.370 . S
C1289 C1293 1.408 . S
C1290 C1288 1.363 . S
C1290 C1291 1.370 . S
C1290 C1294 1.524 . S
C1291 C1283 1.503 . S
C1291 C1290 1.370 . S
C1291 C1292 1.403 . S
C1292 C1291 1.403 . S
C1292 C1293 1.404 . S
C1292 C1295 1.539 . S
C1293 C1289 1.408 . S
C1293 C1292 1.404 . S
C1293 H1305 0.930 . S
C1294 C1290 1.524 . S
C1294 H1306 0.956 . S
C1294 H1307 0.961 . S
C1294 H1308 0.961 . S
C1295 C1292 1.539 . S
C1295 H1309 0.958 . S
C1295 H1310 0.961 . S
C1295 H1311 0.960 . S
H1296 C1280 0.931 . S
H1297 C1285 0.929 . S
H1298 C1286 0.960 . S
H1299 C1286 0.962 . S
H1300 C1286 0.960 . S
H1301 C1287 0.961 . S
H1302 C1287 0.961 . S
H1303 C1287 0.961 . S
H1304 C1288 0.931 . S
H1305 C1293 0.930 . S
H1306 C1294 0.956 . S
H1307 C1294 0.961 . S
H1308 C1294 0.961 . S
H1309 C1295 0.958 . S
H1310 C1295 0.961 . S
H1311 C1295 0.960 . S
C1312 C1313 1.391 . S
C1312 C1314 1.394 . S
C1312 H1328 0.931 . S
C1313 C1312 1.391 . S
C1313 C1317 1.376 . S
C1314 C1312 1.394 . S
C1314 C1315 1.369 . S
C1314 C1318 1.531 . S
C1315 C1314 1.369 . S
C1315 C1316 1.410 . S
C1315 C1323 1.503 . S
C1316 C1315 1.410 . S
C1316 C1317 1.392 . S
C1316 C1319 1.511 . S
C1317 C1313 1.376 . S
C1317 C1316 1.392 . S
C1317 H1329 0.929 . S
C1318 C1314 1.531 . S
C1318 H1330 0.960 . S
C1318 H1331 0.962 . S
C1318 H1332 0.960 . S
C1319 C1316 1.511 . S
C1319 H1333 0.961 . S
C1319 H1334 0.961 . S
C1319 H1335 0.961 . S
C1320 C1321 1.370 . S
C1320 C1322 1.363 . S
C1320 H1336 0.931 . S
C1321 C1320 1.370 . S
C1321 C1325 1.408 . S
C1322 C1320 1.363 . S
C1322 C1323 1.370 . S
C1322 C1326 1.524 . S
C1323 C1315 1.503 . S
C1323 C1322 1.370 . S
C1323 C1324 1.403 . S
C1324 C1323 1.403 . S
C1324 C1325 1.404 . S
C1324 C1327 1.539 . S
C1325 C1321 1.408 . S
C1325 C1324 1.404 . S
C1325 H1337 0.930 . S
C1326 C1322 1.524 . S
C1326 H1338 0.956 . S
C1326 H1339 0.961 . S
C1326 H1340 0.961 . S
C1327 C1324 1.539 . S
C1327 H1341 0.958 . S
C1327 H1342 0.961 . S
C1327 H1343 0.960 . S
H1328 C1312 0.931 . S
H1329 C1317 0.929 . S
H1330 C1318 0.960 . S
H1331 C1318 0.962 . S
H1332 C1318 0.960 . S
H1333 C1319 0.961 . S
H1334 C1319 0.961 . S
H1335 C1319 0.961 . S
H1336 C1320 0.931 . S
H1337 C1325 0.930 . S
H1338 C1326 0.956 . S
H1339 C1326 0.961 . S
H1340 C1326 0.961 . S
H1341 C1327 0.958 . S
H1342 C1327 0.961 . S
H1343 C1327 0.960 . S
C1344 C1345 1.391 . S
C1344 C1346 1.394 . S
C1344 H1360 0.931 . S
C1345 C1344 1.391 . S
C1345 C1349 1.376 . S
C1346 C1344 1.394 . S
C1346 C1347 1.369 . S
C1346 C1350 1.531 . S
C1347 C1346 1.369 . S
C1347 C1348 1.410 . S
C1347 C1355 1.503 . S
C1348 C1347 1.410 . S
C1348 C1349 1.392 . S
C1348 C1351 1.511 . S
C1349 C1345 1.376 . S
C1349 C1348 1.392 . S
C1349 H1361 0.929 . S
C1350 C1346 1.531 . S
C1350 H1362 0.960 . S
C1350 H1363 0.962 . S
C1350 H1364 0.960 . S
C1351 C1348 1.511 . S
C1351 H1365 0.961 . S
C1351 H1366 0.961 . S
C1351 H1367 0.961 . S
C1352 C1353 1.370 . S
C1352 C1354 1.363 . S
C1352 H1368 0.931 . S
C1353 C1352 1.370 . S
C1353 C1357 1.408 . S
C1354 C1352 1.363 . S
C1354 C1355 1.370 . S
C1354 C1358 1.524 . S
C1355 C1347 1.503 . S
C1355 C1354 1.370 . S
C1355 C1356 1.403 . S
C1356 C1355 1.403 . S
C1356 C1357 1.404 . S
C1356 C1359 1.539 . S
C1357 C1353 1.408 . S
C1357 C1356 1.404 . S
C1357 H1369 0.930 . S
C1358 C1354 1.524 . S
C1358 H1370 0.956 . S
C1358 H1371 0.961 . S
C1358 H1372 0.961 . S
C1359 C1356 1.539 . S
C1359 H1373 0.958 . S
C1359 H1374 0.961 . S
C1359 H1375 0.960 . S
H1360 C1344 0.931 . S
H1361 C1349 0.929 . S
H1362 C1350 0.960 . S
H1363 C1350 0.962 . S
H1364 C1350 0.960 . S
H1365 C1351 0.961 . S
H1366 C1351 0.961 . S
H1367 C1351 0.961 . S
H1368 C1352 0.931 . S
H1369 C1357 0.930 . S
H1370 C1358 0.956 . S
H1371 C1358 0.961 . S
H1372 C1358 0.961 . S
H1373 C1359 0.958 . S
H1374 C1359 0.961 . S
H1375 C1359 0.960 . S
C1376 C1377 1.391 . S
C1376 C1378 1.394 . S
C1376 H1392 0.931 . S
C1377 C1376 1.391 . S
C1377 C1381 1.376 . S
C1378 C1376 1.394 . S
C1378 C1379 1.369 . S
C1378 C1382 1.531 . S
C1379 C1378 1.369 . S
C1379 C1380 1.410 . S
C1379 C1387 1.503 . S
C1380 C1379 1.410 . S
C1380 C1381 1.392 . S
C1380 C1383 1.511 . S
C1381 C1377 1.376 . S
C1381 C1380 1.392 . S
C1381 H1393 0.929 . S
C1382 C1378 1.531 . S
C1382 H1394 0.960 . S
C1382 H1395 0.962 . S
C1382 H1396 0.960 . S
C1383 C1380 1.511 . S
C1383 H1397 0.961 . S
C1383 H1398 0.961 . S
C1383 H1399 0.961 . S
C1384 C1385 1.370 . S
C1384 C1386 1.363 . S
C1384 H1400 0.931 . S
C1385 C1384 1.370 . S
C1385 C1389 1.408 . S
C1386 C1384 1.363 . S
C1386 C1387 1.370 . S
C1386 C1390 1.524 . S
C1387 C1379 1.503 . S
C1387 C1386 1.370 . S
C1387 C1388 1.403 . S
C1388 C1387 1.403 . S
C1388 C1389 1.404 . S
C1388 C1391 1.539 . S
C1389 C1385 1.408 . S
C1389 C1388 1.404 . S
C1389 H1401 0.930 . S
C1390 C1386 1.524 . S
C1390 H1402 0.956 . S
C1390 H1403 0.961 . S
C1390 H1404 0.961 . S
C1391 C1388 1.539 . S
C1391 H1405 0.958 . S
C1391 H1406 0.961 . S
C1391 H1407 0.960 . S
H1392 C1376 0.931 . S
H1393 C1381 0.929 . S
H1394 C1382 0.960 . S
H1395 C1382 0.962 . S
H1396 C1382 0.960 . S
H1397 C1383 0.961 . S
H1398 C1383 0.961 . S
H1399 C1383 0.961 . S
H1400 C1384 0.931 . S
H1401 C1389 0.930 . S
H1402 C1390 0.956 . S
H1403 C1390 0.961 . S
H1404 C1390 0.961 . S
H1405 C1391 0.958 . S
H1406 C1391 0.961 . S
H1407 C1391 0.960 . S
C1408 C1409 1.391 . S
C1408 C1410 1.394 . S
C1408 H1424 0.931 . S
C1409 C1408 1.391 . S
C1409 C1413 1.376 . S
C1410 C1408 1.394 . S
C1410 C1411 1.369 . S
C1410 C1414 1.531 . S
C1411 C1410 1.369 . S
C1411 C1412 1.410 . S
C1411 C1419 1.503 . S
C1412 C1411 1.410 . S
C1412 C1413 1.392 . S
C1412 C1415 1.511 . S
C1413 C1409 1.376 . S
C1413 C1412 1.392 . S
C1413 H1425 0.929 . S
C1414 C1410 1.531 . S
C1414 H1426 0.960 . S
C1414 H1427 0.962 . S
C1414 H1428 0.960 . S
C1415 C1412 1.511 . S
C1415 H1429 0.961 . S
C1415 H1430 0.961 . S
C1415 H1431 0.961 . S
C1416 C1417 1.370 . S
C1416 C1418 1.363 . S
C1416 H1432 0.931 . S
C1417 C1416 1.370 . S
C1417 C1421 1.408 . S
C1418 C1416 1.363 . S
C1418 C1419 1.370 . S
C1418 C1422 1.524 . S
C1419 C1411 1.503 . S
C1419 C1418 1.370 . S
C1419 C1420 1.403 . S
C1420 C1419 1.403 . S
C1420 C1421 1.404 . S
C1420 C1423 1.539 . S
C1421 C1417 1.408 . S
C1421 C1420 1.404 . S
C1421 H1433 0.930 . S
C1422 C1418 1.524 . S
C1422 H1434 0.956 . S
C1422 H1435 0.961 . S
C1422 H1436 0.961 . S
C1423 C1420 1.539 . S
C1423 H1437 0.958 . S
C1423 H1438 0.961 . S
C1423 H1439 0.960 . S
H1424 C1408 0.931 . S
H1425 C1413 0.929 . S
H1426 C1414 0.960 . S
H1427 C1414 0.962 . S
H1428 C1414 0.960 . S
H1429 C1415 0.961 . S
H1430 C1415 0.961 . S
H1431 C1415 0.961 . S
H1432 C1416 0.931 . S
H1433 C1421 0.930 . S
H1434 C1422 0.956 . S
H1435 C1422 0.961 . S
H1436 C1422 0.961 . S
H1437 C1423 0.958 . S
H1438 C1423 0.961 . S
H1439 C1423 0.960 . S
C1440 C1441 1.391 . S
C1440 C1442 1.394 . S
C1440 H1456 0.931 . S
C1441 C1440 1.391 . S
C1441 C1445 1.376 . S
C1442 C1440 1.394 . S
C1442 C1443 1.369 . S
C1442 C1446 1.531 . S
C1443 C1442 1.369 . S
C1443 C1444 1.410 . S
C1443 C1451 1.503 . S
C1444 C1443 1.410 . S
C1444 C1445 1.392 . S
C1444 C1447 1.511 . S
C1445 C1441 1.376 . S
C1445 C1444 1.392 . S
C1445 H1457 0.929 . S
C1446 C1442 1.531 . S
C1446 H1458 0.960 . S
C1446 H1459 0.962 . S
C1446 H1460 0.960 . S
C1447 C1444 1.511 . S
C1447 H1461 0.961 . S
C1447 H1462 0.961 . S
C1447 H1463 0.961 . S
C1448 C1449 1.370 . S
C1448 C1450 1.363 . S
C1448 H1464 0.931 . S
C1449 C1448 1.370 . S
C1449 C1453 1.408 . S
C1450 C1448 1.363 . S
C1450 C1451 1.370 . S
C1450 C1454 1.524 . S
C1451 C1443 1.503 . S
C1451 C1450 1.370 . S
C1451 C1452 1.403 . S
C1452 C1451 1.403 . S
C1452 C1453 1.404 . S
C1452 C1455 1.539 . S
C1453 C1449 1.408 . S
C1453 C1452 1.404 . S
C1453 H1465 0.930 . S
C1454 C1450 1.524 . S
C1454 H1466 0.956 . S
C1454 H1467 0.961 . S
C1454 H1468 0.961 . S
C1455 C1452 1.539 . S
C1455 H1469 0.958 . S
C1455 H1470 0.961 . S
C1455 H1471 0.960 . S
H1456 C1440 0.931 . S
H1457 C1445 0.929 . S
H1458 C1446 0.960 . S
H1459 C1446 0.962 . S
H1460 C1446 0.960 . S
H1461 C1447 0.961 . S
H1462 C1447 0.961 . S
H1463 C1447 0.961 . S
H1464 C1448 0.931 . S
H1465 C1453 0.930 . S
H1466 C1454 0.956 . S
H1467 C1454 0.961 . S
H1468 C1454 0.961 . S
H1469 C1455 0.958 . S
H1470 C1455 0.961 . S
H1471 C1455 0.960 . S
C1472 C1473 1.391 . S
C1472 C1474 1.394 . S
C1472 H1488 0.931 . S
C1473 C1472 1.391 . S
C1473 C1477 1.376 . S
C1474 C1472 1.394 . S
C1474 C1475 1.369 . S
C1474 C1478 1.531 . S
C1475 C1474 1.369 . S
C1475 C1476 1.410 . S
C1475 C1483 1.503 . S
C1476 C1475 1.410 . S
C1476 C1477 1.392 . S
C1476 C1479 1.511 . S
C1477 C1473 1.376 . S
C1477 C1476 1.392 . S
C1477 H1489 0.929 . S
C1478 C1474 1.531 . S
C1478 H1490 0.960 . S
C1478 H1491 0.962 . S
C1478 H1492 0.960 . S
C1479 C1476 1.511 . S
C1479 H1493 0.961 . S
C1479 H1494 0.961 . S
C1479 H1495 0.961 . S
C1480 C1481 1.370 . S
C1480 C1482 1.363 . S
C1480 H1496 0.931 . S
C1481 C1480 1.370 . S
C1481 C1485 1.408 . S
C1482 C1480 1.363 . S
C1482 C1483 1.370 . S
C1482 C1486 1.524 . S
C1483 C1475 1.503 . S
C1483 C1482 1.370 . S
C1483 C1484 1.403 . S
C1484 C1483 1.403 . S
C1484 C1485 1.404 . S
C1484 C1487 1.539 . S
C1485 C1481 1.408 . S
C1485 C1484 1.404 . S
C1485 H1497 0.930 . S
C1486 C1482 1.524 . S
C1486 H1498 0.956 . S
C1486 H1499 0.961 . S
C1486 H1500 0.961 . S
C1487 C1484 1.539 . S
C1487 H1501 0.958 . S
C1487 H1502 0.961 . S
C1487 H1503 0.960 . S
H1488 C1472 0.931 . S
H1489 C1477 0.929 . S
H1490 C1478 0.960 . S
H1491 C1478 0.962 . S
H1492 C1478 0.960 . S
H1493 C1479 0.961 . S
H1494 C1479 0.961 . S
H1495 C1479 0.961 . S
H1496 C1480 0.931 . S
H1497 C1485 0.930 . S
H1498 C1486 0.956 . S
H1499 C1486 0.961 . S
H1500 C1486 0.961 . S
H1501 C1487 0.958 . S
H1502 C1487 0.961 . S
H1503 C1487 0.960 . S
C1504 C1505 1.391 . S
C1504 C1506 1.394 . S
C1504 H1520 0.931 . S
C1505 C1504 1.391 . S
C1505 C1509 1.376 1_455 S
C1506 C1504 1.394 . S
C1506 C1507 1.369 . S
C1506 C1510 1.531 . S
C1507 C1506 1.369 . S
C1507 C1508 1.410 1_455 S
C1507 C1515 1.503 1_455 S
C1508 C1507 1.410 1_655 S
C1508 C1509 1.392 . S
C1508 C1511 1.511 . S
C1509 C1505 1.376 1_655 S
C1509 C1508 1.392 . S
C1509 H1521 0.929 . S
C1510 C1506 1.531 . S
C1510 H1522 0.960 . S
C1510 H1523 0.962 1_565 S
C1510 H1524 0.960 . S
C1511 C1508 1.511 . S
C1511 H1525 0.961 1_565 S
C1511 H1526 0.961 1_565 S
C1511 H1527 0.961 . S
C1512 C1513 1.370 . S
C1512 C1514 1.363 . S
C1512 H1528 0.931 . S
C1513 C1512 1.370 . S
C1513 C1517 1.408 1_545 S
C1514 C1512 1.363 . S
C1514 C1515 1.370 1_545 S
C1514 C1518 1.524 1_655 S
C1515 C1507 1.503 1_655 S
C1515 C1514 1.370 1_565 S
C1515 C1516 1.403 . S
C1516 C1515 1.403 . S
C1516 C1517 1.404 . S
C1516 C1519 1.539 . S
C1517 C1513 1.408 1_565 S
C1517 C1516 1.404 . S
C1517 H1529 0.930 . S
C1518 C1514 1.524 1_455 S
C1518 H1530 0.956 . S
C1518 H1531 0.961 1_455 S
C1518 H1532 0.961 . S
C1519 C1516 1.539 . S
C1519 H1533 0.958 1_655 S
C1519 H1534 0.961 . S
C1519 H1535 0.960 . S
H1520 C1504 0.931 . S
H1521 C1509 0.929 . S
H1522 C1510 0.960 . S
H1523 C1510 0.962 1_545 S
H1524 C1510 0.960 . S
H1525 C1511 0.961 1_545 S
H1526 C1511 0.961 1_545 S
H1527 C1511 0.961 . S
H1528 C1512 0.931 . S
H1529 C1517 0.930 . S
H1530 C1518 0.956 . S
H1531 C1518 0.961 1_655 S
H1532 C1518 0.961 . S
H1533 C1519 0.958 1_455 S
H1534 C1519 0.961 . S
H1535 C1519 0.960 . S
C1536 C1537 1.391 . S
C1536 C1538 1.394 . S
C1536 H1552 0.931 . S
C1537 C1536 1.391 . S
C1537 C1541 1.376 . S
C1538 C1536 1.394 . S
C1538 C1539 1.369 . S
C1538 C1542 1.531 . S
C1539 C1538 1.369 . S
C1539 C1540 1.410 . S
C1539 C1547 1.503 . S
C1540 C1539 1.410 . S
C1540 C1541 1.392 . S
C1540 C1543 1.511 . S
C1541 C1537 1.376 . S
C1541 C1540 1.392 . S
C1541 H1553 0.929 . S
C1542 C1538 1.531 . S
C1542 H1554 0.960 . S
C1542 H1555 0.962 . S
C1542 H1556 0.960 . S
C1543 C1540 1.511 . S
C1543 H1557 0.961 . S
C1543 H1558 0.961 . S
C1543 H1559 0.961 . S
C1544 C1545 1.370 . S
C1544 C1546 1.363 . S
C1544 H1560 0.931 . S
C1545 C1544 1.370 . S
C1545 C1549 1.408 . S
C1546 C1544 1.363 . S
C1546 C1547 1.370 . S
C1546 C1550 1.524 . S
C1547 C1539 1.503 . S
C1547 C1546 1.370 . S
C1547 C1548 1.403 . S
C1548 C1547 1.403 . S
C1548 C1549 1.404 . S
C1548 C1551 1.539 . S
C1549 C1545 1.408 . S
C1549 C1548 1.404 . S
C1549 H1561 0.930 . S
C1550 C1546 1.524 . S
C1550 H1562 0.956 . S
C1550 H1563 0.961 . S
C1550 H1564 0.961 . S
C1551 C1548 1.539 . S
C1551 H1565 0.958 . S
C1551 H1566 0.961 . S
C1551 H1567 0.960 . S
H1552 C1536 0.931 . S
H1553 C1541 0.929 . S
H1554 C1542 0.960 . S
H1555 C1542 0.962 . S
H1556 C1542 0.960 . S
H1557 C1543 0.961 . S
H1558 C1543 0.961 . S
H1559 C1543 0.961 . S
H1560 C1544 0.931 . S
H1561 C1549 0.930 . S
H1562 C1550 0.956 . S
H1563 C1550 0.961 . S
H1564 C1550 0.961 . S
H1565 C1551 0.958 . S
H1566 C1551 0.961 . S
H1567 C1551 0.960 . S
C1568 C1569 1.391 . S
C1568 C1570 1.394 . S
C1568 H1584 0.931 . S
C1569 C1568 1.391 . S
C1569 C1573 1.376 1_545 S
C1570 C1568 1.394 . S
C1570 C1571 1.369 . S
C1570 C1574 1.531 . S
C1571 C1570 1.369 . S
C1571 C1572 1.410 1_545 S
C1571 C1579 1.508 1_554 S
C1572 C1571 1.410 1_565 S
C1572 C1573 1.392 . S
C1572 C1575 1.511 . S
C1573 C1569 1.376 1_565 S
C1573 C1572 1.392 . S
C1573 H1585 0.929 . S
C1574 C1570 1.531 . S
C1574 H1586 0.960 1_554 S
C1574 H1587 0.962 1_554 S
C1574 H1588 0.960 . S
C1575 C1572 1.511 . S
C1575 H1589 0.961 . S
C1575 H1590 0.961 . S
C1575 H1591 0.961 . S
C1576 C1577 1.370 . S
C1576 C1578 1.363 . S
C1576 H1592 0.931 . S
C1577 C1576 1.370 . S
C1577 C1581 1.408 1_565 S
C1578 C1576 1.363 . S
C1578 C1579 1.355 1_565 S
C1578 C1582 1.524 . S
C1579 C1571 1.508 1_556 S
C1579 C1578 1.355 1_545 S
C1579 C1580 1.414 . S
C1580 C1579 1.414 . S
C1580 C1581 1.404 . S
C1580 C1583 1.539 . S
C1581 C1577 1.408 1_545 S
C1581 C1580 1.404 . S
C1581 H1593 0.930 . S
C1582 C1578 1.524 . S
C1582 H1594 0.956 . S
C1582 H1595 0.942 1_556 S
C1582 H1596 0.961 . S
C1583 C1580 1.539 . S
C1583 H1597 0.958 . S
C1583 H1598 0.961 . S
C1583 H1599 0.960 1_556 S
H1584 C1568 0.931 . S
H1585 C1573 0.929 . S
H1586 C1574 0.960 1_556 S
H1587 C1574 0.962 1_556 S
H1588 C1574 0.960 . S
H1589 C1575 0.961 . S
H1590 C1575 0.961 . S
H1591 C1575 0.961 . S
H1592 C1576 0.931 . S
H1593 C1581 0.930 . S
H1594 C1582 0.956 . S
H1595 C1582 0.942 1_554 S
H1596 C1582 0.961 . S
H1597 C1583 0.958 . S
H1598 C1583 0.961 . S
H1599 C1583 0.960 1_554 S
C1600 C1601 1.391 . S
C1600 C1602 1.394 . S
C1600 H1616 0.931 . S
C1601 C1600 1.391 . S
C1601 C1605 1.376 . S
C1602 C1600 1.394 . S
C1602 C1603 1.369 . S
C1602 C1606 1.531 . S
C1603 C1602 1.369 . S
C1603 C1604 1.410 . S
C1603 C1611 1.503 . S
C1604 C1603 1.410 . S
C1604 C1605 1.392 . S
C1604 C1607 1.511 . S
C1605 C1601 1.376 . S
C1605 C1604 1.392 . S
C1605 H1617 0.929 . S
C1606 C1602 1.531 . S
C1606 H1618 0.960 . S
C1606 H1619 0.962 . S
C1606 H1620 0.960 . S
C1607 C1604 1.511 . S
C1607 H1621 0.961 . S
C1607 H1622 0.961 . S
C1607 H1623 0.961 . S
C1608 C1609 1.370 . S
C1608 C1610 1.363 . S
C1608 H1624 0.931 . S
C1609 C1608 1.370 . S
C1609 C1613 1.408 . S
C1610 C1608 1.363 . S
C1610 C1611 1.370 . S
C1610 C1614 1.524 . S
C1611 C1603 1.503 . S
C1611 C1610 1.370 . S
C1611 C1612 1.403 . S
C1612 C1611 1.403 . S
C1612 C1613 1.404 . S
C1612 C1615 1.539 . S
C1613 C1609 1.408 . S
C1613 C1612 1.404 . S
C1613 H1625 0.930 . S
C1614 C1610 1.524 . S
C1614 H1626 0.956 . S
C1614 H1627 0.961 . S
C1614 H1628 0.961 . S
C1615 C1612 1.539 . S
C1615 H1629 0.958 . S
C1615 H1630 0.961 . S
C1615 H1631 0.960 . S
H1616 C1600 0.931 . S
H1617 C1605 0.929 . S
H1618 C1606 0.960 . S
H1619 C1606 0.962 . S
H1620 C1606 0.960 . S
H1621 C1607 0.961 . S
H1622 C1607 0.961 . S
H1623 C1607 0.961 . S
H1624 C1608 0.931 . S
H1625 C1613 0.930 . S
H1626 C1614 0.956 . S
H1627 C1614 0.961 . S
H1628 C1614 0.961 . S
H1629 C1615 0.958 . S
H1630 C1615 0.961 . S
H1631 C1615 0.960 . S
C1632 C1633 1.391 . S
C1632 C1634 1.394 . S
C1632 H1648 0.931 . S
C1633 C1632 1.391 . S
C1633 C1637 1.376 1_565 S
C1634 C1632 1.394 . S
C1634 C1635 1.369 . S
C1634 C1638 1.531 . S
C1635 C1634 1.369 . S
C1635 C1636 1.410 1_565 S
C1635 C1643 1.503 . S
C1636 C1635 1.410 1_545 S
C1636 C1637 1.392 . S
C1636 C1639 1.511 . S
C1637 C1633 1.376 1_545 S
C1637 C1636 1.392 . S
C1637 H1649 0.929 . S
C1638 C1634 1.531 . S
C1638 H1650 0.960 . S
C1638 H1651 0.962 . S
C1638 H1652 0.960 . S
C1639 C1636 1.511 . S
C1639 H1653 0.961 . S
C1639 H1654 0.961 . S
C1639 H1655 0.961 . S
C1640 C1641 1.370 . S
C1640 C1642 1.363 . S
C1640 H1656 0.931 . S
C1641 C1640 1.370 . S
C1641 C1645 1.408 1_545 S
C1642 C1640 1.363 . S
C1642 C1643 1.370 1_545 S
C1642 C1646 1.524 . S
C1643 C1635 1.503 . S
C1643 C1642 1.370 1_565 S
C1643 C1644 1.403 . S
C1644 C1643 1.403 . S
C1644 C1645 1.404 . S
C1644 C1647 1.539 . S
C1645 C1641 1.408 1_565 S
C1645 C1644 1.404 . S
C1645 H1657 0.930 . S
C1646 C1642 1.524 . S
C1646 H1658 0.956 . S
C1646 H1659 0.961 . S
C1646 H1660 0.961 . S
C1647 C1644 1.539 . S
C1647 H1661 0.958 . S
C1647 H1662 0.961 . S
C1647 H1663 0.960 . S
H1648 C1632 0.931 . S
H1649 C1637 0.929 . S
H1650 C1638 0.960 . S
H1651 C1638 0.962 . S
H1652 C1638 0.960 . S
H1653 C1639 0.961 . S
H1654 C1639 0.961 . S
H1655 C1639 0.961 . S
H1656 C1640 0.931 . S
H1657 C1645 0.930 . S
H1658 C1646 0.956 . S
H1659 C1646 0.961 . S
H1660 C1646 0.961 . S
H1661 C1647 0.958 . S
H1662 C1647 0.961 . S
H1663 C1647 0.960 . S
C1664 C1665 1.391 . S
C1664 C1666 1.394 . S
C1664 H1680 0.931 . S
C1665 C1664 1.391 . S
C1665 C1669 1.376 . S
C1666 C1664 1.394 . S
C1666 C1667 1.369 . S
C1666 C1670 1.531 . S
C1667 C1666 1.369 . S
C1667 C1668 1.410 . S
C1667 C1675 1.503 . S
C1668 C1667 1.410 . S
C1668 C1669 1.392 . S
C1668 C1671 1.511 . S
C1669 C1665 1.376 . S
C1669 C1668 1.392 . S
C1669 H1681 0.929 . S
C1670 C1666 1.531 . S
C1670 H1682 0.960 . S
C1670 H1683 0.962 . S
C1670 H1684 0.960 . S
C1671 C1668 1.511 . S
C1671 H1685 0.961 . S
C1671 H1686 0.961 . S
C1671 H1687 0.961 . S
C1672 C1673 1.370 . S
C1672 C1674 1.363 . S
C1672 H1688 0.931 . S
C1673 C1672 1.370 . S
C1673 C1677 1.408 . S
C1674 C1672 1.363 . S
C1674 C1675 1.370 . S
C1674 C1678 1.524 . S
C1675 C1667 1.503 . S
C1675 C1674 1.370 . S
C1675 C1676 1.403 . S
C1676 C1675 1.403 . S
C1676 C1677 1.404 . S
C1676 C1679 1.539 . S
C1677 C1673 1.408 . S
C1677 C1676 1.404 . S
C1677 H1689 0.930 . S
C1678 C1674 1.524 . S
C1678 H1690 0.956 . S
C1678 H1691 0.961 . S
C1678 H1692 0.961 . S
C1679 C1676 1.539 . S
C1679 H1693 0.958 . S
C1679 H1694 0.961 . S
C1679 H1695 0.960 . S
H1680 C1664 0.931 . S
H1681 C1669 0.929 . S
H1682 C1670 0.960 . S
H1683 C1670 0.962 . S
H1684 C1670 0.960 . S
H1685 C1671 0.961 . S
H1686 C1671 0.961 . S
H1687 C1671 0.961 . S
H1688 C1672 0.931 . S
H1689 C1677 0.930 . S
H1690 C1678 0.956 . S
H1691 C1678 0.961 . S
H1692 C1678 0.961 . S
H1693 C1679 0.958 . S
H1694 C1679 0.961 . S
H1695 C1679 0.960 . S
C1696 C1697 1.391 . S
C1696 C1698 1.394 . S
C1696 H1712 0.931 . S
C1697 C1696 1.391 . S
C1697 C1701 1.376 1_455 S
C1698 C1696 1.394 . S
C1698 C1699 1.369 . S
C1698 C1702 1.533 . S
C1699 C1698 1.369 . S
C1699 C1700 1.410 1_455 S
C1699 C1707 1.503 1_456 S
C1700 C1699 1.410 1_655 S
C1700 C1701 1.392 . S
C1700 C1703 1.511 . S
C1701 C1697 1.376 1_655 S
C1701 C1700 1.392 . S
C1701 H1713 0.929 . S
C1702 C1698 1.533 . S
C1702 H1714 0.964 1_556 S
C1702 H1715 0.952 1_545 S
C1702 H1716 0.965 . S
C1703 C1700 1.511 . S
C1703 H1717 0.961 . S
C1703 H1718 0.961 . S
C1703 H1719 0.961 . S
C1704 C1705 1.370 . S
C1704 C1706 1.363 . S
C1704 H1720 0.931 . S
C1705 C1704 1.370 . S
C1705 C1709 1.408 1_565 S
C1706 C1704 1.363 . S
C1706 C1707 1.370 1_565 S
C1706 C1710 1.524 . S
C1707 C1699 1.503 1_654 S
C1707 C1706 1.370 1_545 S
C1707 C1708 1.403 . S
C1708 C1707 1.403 . S
C1708 C1709 1.404 . S
C1708 C1711 1.539 1_655 S
C1709 C1705 1.408 1_545 S
C1709 C1708 1.404 . S
C1709 H1721 0.930 . S
C1710 C1706 1.524 . S
C1710 H1722 0.956 1_654 S
C1710 H1723 0.961 1_554 S
C1710 H1724 0.961 . S
C1711 C1708 1.539 1_455 S
C1711 H1725 0.958 . S
C1711 H1726 0.961 1_455 S
C1711 H1727 0.960 1_455 S
H1712 C1696 0.931 . S
H1713 C1701 0.929 . S
H1714 C1702 0.964 1_554 S
H1715 C1702 0.952 1_565 S
H1716 C1702 0.965 . S
H1717 C1703 0.961 . S
H1718 C1703 0.961 . S
H1719 C1703 0.961 . S
H1720 C1704 0.931 . S
H1721 C1709 0.930 . S
H1722 C1710 0.956 1_456 S
H1723 C1710 0.961 1_556 S
H1724 C1710 0.961 . S
H1725 C1711 0.958 . S
H1726 C1711 0.961 1_655 S
H1727 C1711 0.960 1_655 S
C1728 C1729 1.391 . S
C1728 C1730 1.394 . S
C1728 H1744 0.931 . S
C1729 C1728 1.391 . S
C1729 C1733 1.376 . S
C1730 C1728 1.394 . S
C1730 C1731 1.369 . S
C1730 C1734 1.531 . S
C1731 C1730 1.369 . S
C1731 C1732 1.410 . S
C1731 C1739 1.503 . S
C1732 C1731 1.410 . S
C1732 C1733 1.392 . S
C1732 C1735 1.511 . S
C1733 C1729 1.376 . S
C1733 C1732 1.392 . S
C1733 H1745 0.929 . S
C1734 C1730 1.531 . S
C1734 H1746 0.960 . S
C1734 H1747 0.962 . S
C1734 H1748 0.960 . S
C1735 C1732 1.511 . S
C1735 H1749 0.961 . S
C1735 H1750 0.961 . S
C1735 H1751 0.961 . S
C1736 C1737 1.370 . S
C1736 C1738 1.363 . S
C1736 H1752 0.931 . S
C1737 C1736 1.370 . S
C1737 C1741 1.408 . S
C1738 C1736 1.363 . S
C1738 C1739 1.370 . S
C1738 C1742 1.524 . S
C1739 C1731 1.503 . S
C1739 C1738 1.370 . S
C1739 C1740 1.403 . S
C1740 C1739 1.403 . S
C1740 C1741 1.404 . S
C1740 C1743 1.539 . S
C1741 C1737 1.408 . S
C1741 C1740 1.404 . S
C1741 H1753 0.930 . S
C1742 C1738 1.524 . S
C1742 H1754 0.956 . S
C1742 H1755 0.961 . S
C1742 H1756 0.961 . S
C1743 C1740 1.539 . S
C1743 H1757 0.958 . S
C1743 H1758 0.961 . S
C1743 H1759 0.960 . S
H1744 C1728 0.931 . S
H1745 C1733 0.929 . S
H1746 C1734 0.960 . S
H1747 C1734 0.962 . S
H1748 C1734 0.960 . S
H1749 C1735 0.961 . S
H1750 C1735 0.961 . S
H1751 C1735 0.961 . S
H1752 C1736 0.931 . S
H1753 C1741 0.930 . S
H1754 C1742 0.956 . S
H1755 C1742 0.961 . S
H1756 C1742 0.961 . S
H1757 C1743 0.958 . S
H1758 C1743 0.961 . S
H1759 C1743 0.960 . S
C1760 C1761 1.391 . S
C1760 C1762 1.394 . S
C1760 H1776 0.931 . S
C1761 C1760 1.391 . S
C1761 C1765 1.376 . S
C1762 C1760 1.394 . S
C1762 C1763 1.369 . S
C1762 C1766 1.531 . S
C1763 C1762 1.369 . S
C1763 C1764 1.410 . S
C1763 C1771 1.503 . S
C1764 C1763 1.410 . S
C1764 C1765 1.392 . S
C1764 C1767 1.511 . S
C1765 C1761 1.376 . S
C1765 C1764 1.392 . S
C1765 H1777 0.929 . S
C1766 C1762 1.531 . S
C1766 H1778 0.960 . S
C1766 H1779 0.962 . S
C1766 H1780 0.960 . S
C1767 C1764 1.511 . S
C1767 H1781 0.961 . S
C1767 H1782 0.961 . S
C1767 H1783 0.961 . S
C1768 C1769 1.370 . S
C1768 C1770 1.363 . S
C1768 H1784 0.931 . S
C1769 C1768 1.370 . S
C1769 C1773 1.408 . S
C1770 C1768 1.363 . S
C1770 C1771 1.370 . S
C1770 C1774 1.524 . S
C1771 C1763 1.503 . S
C1771 C1770 1.370 . S
C1771 C1772 1.403 . S
C1772 C1771 1.403 . S
C1772 C1773 1.404 . S
C1772 C1775 1.539 . S
C1773 C1769 1.408 . S
C1773 C1772 1.404 . S
C1773 H1785 0.930 . S
C1774 C1770 1.524 . S
C1774 H1786 0.956 . S
C1774 H1787 0.961 . S
C1774 H1788 0.961 . S
C1775 C1772 1.539 . S
C1775 H1789 0.958 . S
C1775 H1790 0.961 . S
C1775 H1791 0.960 . S
H1776 C1760 0.931 . S
H1777 C1765 0.929 . S
H1778 C1766 0.960 . S
H1779 C1766 0.962 . S
H1780 C1766 0.960 . S
H1781 C1767 0.961 . S
H1782 C1767 0.961 . S
H1783 C1767 0.961 . S
H1784 C1768 0.931 . S
H1785 C1773 0.930 . S
H1786 C1774 0.956 . S
H1787 C1774 0.961 . S
H1788 C1774 0.961 . S
H1789 C1775 0.958 . S
H1790 C1775 0.961 . S
H1791 C1775 0.960 . S
C1792 C1793 1.391 . S
C1792 C1794 1.394 . S
C1792 H1808 0.931 . S
C1793 C1792 1.391 . S
C1793 C1797 1.376 . S
C1794 C1792 1.394 . S
C1794 C1795 1.369 . S
C1794 C1798 1.531 . S
C1795 C1794 1.369 . S
C1795 C1796 1.410 . S
C1795 C1803 1.503 . S
C1796 C1795 1.410 . S
C1796 C1797 1.392 . S
C1796 C1799 1.511 . S
C1797 C1793 1.376 . S
C1797 C1796 1.392 . S
C1797 H1809 0.929 . S
C1798 C1794 1.531 . S
C1798 H1810 0.960 . S
C1798 H1811 0.962 . S
C1798 H1812 0.960 . S
C1799 C1796 1.511 . S
C1799 H1813 0.961 . S
C1799 H1814 0.961 . S
C1799 H1815 0.961 . S
C1800 C1801 1.370 . S
C1800 C1802 1.363 . S
C1800 H1816 0.931 . S
C1801 C1800 1.370 . S
C1801 C1805 1.408 . S
C1802 C1800 1.363 . S
C1802 C1803 1.370 . S
C1802 C1806 1.524 . S
C1803 C1795 1.503 . S
C1803 C1802 1.370 . S
C1803 C1804 1.403 . S
C1804 C1803 1.403 . S
C1804 C1805 1.404 . S
C1804 C1807 1.539 . S
C1805 C1801 1.408 . S
C1805 C1804 1.404 . S
C1805 H1817 0.930 . S
C1806 C1802 1.524 . S
C1806 H1818 0.956 . S
C1806 H1819 0.961 . S
C1806 H1820 0.961 . S
C1807 C1804 1.539 . S
C1807 H1821 0.958 . S
C1807 H1822 0.961 . S
C1807 H1823 0.960 . S
H1808 C1792 0.931 . S
H1809 C1797 0.929 . S
H1810 C1798 0.960 . S
H1811 C1798 0.962 . S
H1812 C1798 0.960 . S
H1813 C1799 0.961 . S
H1814 C1799 0.961 . S
H1815 C1799 0.961 . S
H1816 C1800 0.931 . S
H1817 C1805 0.930 . S
H1818 C1806 0.956 . S
H1819 C1806 0.961 . S
H1820 C1806 0.961 . S
H1821 C1807 0.958 . S
H1822 C1807 0.961 . S
H1823 C1807 0.960 . S
C1824 C1825 1.391 . S
C1824 C1826 1.394 . S
C1824 H1840 0.931 . S
C1825 C1824 1.391 . S
C1825 C1829 1.376 . S
C1826 C1824 1.394 . S
C1826 C1827 1.369 . S
C1826 C1830 1.531 . S
C1827 C1826 1.369 . S
C1827 C1828 1.410 . S
C1827 C1835 1.503 . S
C1828 C1827 1.410 . S
C1828 C1829 1.392 . S
C1828 C1831 1.511 . S
C1829 C1825 1.376 . S
C1829 C1828 1.392 . S
C1829 H1841 0.929 . S
C1830 C1826 1.531 . S
C1830 H1842 0.960 . S
C1830 H1843 0.962 . S
C1830 H1844 0.960 . S
C1831 C1828 1.511 . S
C1831 H1845 0.961 . S
C1831 H1846 0.961 . S
C1831 H1847 0.961 . S
C1832 C1833 1.370 . S
C1832 C1834 1.363 . S
C1832 H1848 0.931 . S
C1833 C1832 1.370 . S
C1833 C1837 1.408 . S
C1834 C1832 1.363 . S
C1834 C1835 1.370 . S
C1834 C1838 1.524 . S
C1835 C1827 1.503 . S
C1835 C1834 1.370 . S
C1835 C1836 1.403 . S
C1836 C1835 1.403 . S
C1836 C1837 1.404 . S
C1836 C1839 1.539 . S
C1837 C1833 1.408 . S
C1837 C1836 1.404 . S
C1837 H1849 0.930 . S
C1838 C1834 1.524 . S
C1838 H1850 0.956 . S
C1838 H1851 0.961 . S
C1838 H1852 0.961 . S
C1839 C1836 1.539 . S
C1839 H1853 0.958 . S
C1839 H1854 0.961 . S
C1839 H1855 0.960 . S
H1840 C1824 0.931 . S
H1841 C1829 0.929 . S
H1842 C1830 0.960 . S
H1843 C1830 0.962 . S
H1844 C1830 0.960 . S
H1845 C1831 0.961 . S
H1846 C1831 0.961 . S
H1847 C1831 0.961 . S
H1848 C1832 0.931 . S
H1849 C1837 0.930 . S
H1850 C1838 0.956 . S
H1851 C1838 0.961 . S
H1852 C1838 0.961 . S
H1853 C1839 0.958 . S
H1854 C1839 0.961 . S
H1855 C1839 0.960 . S
C1856 C1857 1.391 . S
C1856 C1858 1.394 . S
C1856 H1872 0.931 . S
C1857 C1856 1.391 . S
C1857 C1861 1.376 . S
C1858 C1856 1.394 . S
C1858 C1859 1.369 . S
C1858 C1862 1.531 . S
C1859 C1858 1.369 . S
C1859 C1860 1.410 . S
C1859 C1867 1.503 1_554 S
C1860 C1859 1.410 . S
C1860 C1861 1.392 . S
C1860 C1863 1.518 . S
C1861 C1857 1.376 . S
C1861 C1860 1.392 . S
C1861 H1873 0.929 . S
C1862 C1858 1.531 . S
C1862 H1874 0.960 . S
C1862 H1875 0.962 . S
C1862 H1876 0.960 . S
C1863 C1860 1.518 . S
C1863 H1877 0.964 . S
C1863 H1878 0.954 1_554 S
C1863 H1879 0.958 1_554 S
C1864 C1865 1.370 . S
C1864 C1866 1.363 . S
C1864 H1880 0.931 . S
C1865 C1864 1.370 . S
C1865 C1869 1.408 . S
C1866 C1864 1.363 . S
C1866 C1867 1.370 . S
C1866 C1870 1.524 . S
C1867 C1859 1.503 1_556 S
C1867 C1866 1.370 . S
C1867 C1868 1.403 . S
C1868 C1867 1.403 . S
C1868 C1869 1.404 . S
C1868 C1871 1.539 . S
C1869 C1865 1.408 . S
C1869 C1868 1.404 . S
C1869 H1881 0.930 . S
C1870 C1866 1.524 . S
C1870 H1882 0.956 1_556 S
C1870 H1883 0.952 1_556 S
C1870 H1884 0.961 . S
C1871 C1868 1.539 . S
C1871 H1885 0.958 . S
C1871 H1886 0.961 . S
C1871 H1887 0.960 . S
H1872 C1856 0.931 . S
H1873 C1861 0.929 . S
H1874 C1862 0.960 . S
H1875 C1862 0.962 . S
H1876 C1862 0.960 . S
H1877 C1863 0.964 . S
H1878 C1863 0.954 1_556 S
H1879 C1863 0.958 1_556 S
H1880 C1864 0.931 . S
H1881 C1869 0.930 . S
H1882 C1870 0.956 1_554 S
H1883 C1870 0.952 1_554 S
H1884 C1870 0.961 . S
H1885 C1871 0.958 . S
H1886 C1871 0.961 . S
H1887 C1871 0.960 . S
C1888 C1889 1.391 . S
C1888 C1890 1.394 . S
C1888 H1904 0.931 . S
C1889 C1888 1.391 . S
C1889 C1893 1.376 1_455 S
C1890 C1888 1.394 . S
C1890 C1891 1.369 . S
C1890 C1894 1.531 . S
C1891 C1890 1.369 . S
C1891 C1892 1.410 1_455 S
C1891 C1899 1.503 1_455 S
C1892 C1891 1.410 1_655 S
C1892 C1893 1.392 . S
C1892 C1895 1.511 . S
C1893 C1889 1.376 1_655 S
C1893 C1892 1.392 . S
C1893 H1905 0.929 . S
C1894 C1890 1.531 . S
C1894 H1906 0.960 . S
C1894 H1907 0.962 . S
C1894 H1908 0.960 . S
C1895 C1892 1.511 . S
C1895 H1909 0.961 . S
C1895 H1910 0.961 . S
C1895 H1911 0.961 . S
C1896 C1897 1.370 . S
C1896 C1898 1.363 . S
C1896 H1912 0.931 . S
C1897 C1896 1.370 . S
C1897 C1901 1.408 . S
C1898 C1896 1.363 . S
C1898 C1899 1.370 . S
C1898 C1902 1.524 1_655 S
C1899 C1891 1.503 1_655 S
C1899 C1898 1.370 . S
C1899 C1900 1.403 . S
C1900 C1899 1.403 . S
C1900 C1901 1.404 . S
C1900 C1903 1.539 . S
C1901 C1897 1.408 . S
C1901 C1900 1.404 . S
C1901 H1913 0.930 . S
C1902 C1898 1.524 1_455 S
C1902 H1914 0.956 . S
C1902 H1915 0.961 1_455 S
C1902 H1916 0.960 . S
C1903 C1900 1.539 . S
C1903 H1917 0.958 1_655 S
C1903 H1918 0.961 . S
C1903 H1919 0.960 . S
H1904 C1888 0.931 . S
H1905 C1893 0.929 . S
H1906 C1894 0.960 . S
H1907 C1894 0.962 . S
H1908 C1894 0.960 . S
H1909 C1895 0.961 . S
H1910 C1895 0.961 . S
H1911 C1895 0.961 . S
H1912 C1896 0.931 . S
H1913 C1901 0.930 . S
H1914 C1902 0.956 . S
H1915 C1902 0.961 1_655 S
H1916 C1902 0.960 . S
H1917 C1903 0.958 1_455 S
H1918 C1903 0.961 . S
H1919 C1903 0.960 . S
C1920 C1921 1.391 . S
C1920 C1922 1.394 . S
C1920 H1936 0.931 . S
C1921 C1920 1.391 . S
C1921 C1925 1.376 1_455 S
C1922 C1920 1.394 . S
C1922 C1923 1.369 . S
C1922 C1926 1.537 . S
C1923 C1922 1.369 . S
C1923 C1924 1.410 1_455 S
C1923 C1931 1.503 1_454 S
C1924 C1923 1.410 1_655 S
C1924 C1925 1.392 . S
C1924 C1927 1.511 . S
C1925 C1921 1.376 1_655 S
C1925 C1924 1.392 . S
C1925 H1937 0.929 . S
C1926 C1922 1.537 . S
C1926 H1938 0.953 1_554 S
C1926 H1939 0.959 1_554 S
C1926 H1940 0.964 . S
C1927 C1924 1.511 . S
C1927 H1941 0.961 . S
C1927 H1942 0.961 . S
C1927 H1943 0.961 . S
C1928 C1929 1.370 . S
C1928 C1930 1.363 . S
C1928 H1944 0.931 . S
C1929 C1928 1.370 . S
C1929 C1933 1.421 . S
C1930 C1928 1.363 . S
C1930 C1931 1.370 . S
C1930 C1934 1.524 . S
C1931 C1923 1.503 1_656 S
C1931 C1930 1.370 . S
C1931 C1932 1.403 1_655 S
C1932 C1931 1.403 1_455 S
C1932 C1933 1.398 1_455 S
C1932 C1935 1.539 . S
C1933 C1929 1.421 . S
C1933 C1932 1.398 1_655 S
C1933 H1945 0.924 1_655 S
C1934 C1930 1.524 . S
C1934 H1946 0.956 . S
C1934 H1947 0.961 1_556 S
C1934 H1948 0.961 . S
C1935 C1932 1.539 . S
C1935 H1949 0.958 . S
C1935 H1950 0.961 . S
C1935 H1951 0.960 1_556 S
H1936 C1920 0.931 . S
H1937 C1925 0.929 . S
H1938 C1926 0.953 1_556 S
H1939 C1926 0.959 1_556 S
H1940 C1926 0.964 . S
H1941 C1927 0.961 . S
H1942 C1927 0.961 . S
H1943 C1927 0.961 . S
H1944 C1928 0.931 . S
H1945 C1933 0.924 1_455 S
H1946 C1934 0.956 . S
H1947 C1934 0.961 1_554 S
H1948 C1934 0.961 . S
H1949 C1935 0.958 . S
H1950 C1935 0.961 . S
H1951 C1935 0.960 1_554 S
C1952 C1953 1.391 . S
C1952 C1954 1.394 . S
C1952 H1968 0.931 . S
C1953 C1952 1.391 . S
C1953 C1957 1.376 . S
C1954 C1952 1.394 . S
C1954 C1955 1.369 . S
C1954 C1958 1.531 . S
C1955 C1954 1.369 . S
C1955 C1956 1.410 . S
C1955 C1963 1.503 . S
C1956 C1955 1.410 . S
C1956 C1957 1.392 . S
C1956 C1959 1.511 . S
C1957 C1953 1.376 . S
C1957 C1956 1.392 . S
C1957 H1969 0.929 . S
C1958 C1954 1.531 . S
C1958 H1970 0.960 . S
C1958 H1971 0.962 . S
C1958 H1972 0.960 . S
C1959 C1956 1.511 . S
C1959 H1973 0.961 . S
C1959 H1974 0.961 . S
C1959 H1975 0.961 . S
C1960 C1961 1.370 . S
C1960 C1962 1.363 . S
C1960 H1976 0.931 . S
C1961 C1960 1.370 . S
C1961 C1965 1.408 . S
C1962 C1960 1.363 . S
C1962 C1963 1.370 . S
C1962 C1966 1.524 . S
C1963 C1955 1.503 . S
C1963 C1962 1.370 . S
C1963 C1964 1.403 . S
C1964 C1963 1.403 . S
C1964 C1965 1.404 . S
C1964 C1967 1.539 . S
C1965 C1961 1.408 . S
C1965 C1964 1.404 . S
C1965 H1977 0.930 . S
C1966 C1962 1.524 . S
C1966 H1978 0.956 . S
C1966 H1979 0.961 . S
C1966 H1980 0.961 . S
C1967 C1964 1.539 . S
C1967 H1981 0.958 . S
C1967 H1982 0.961 . S
C1967 H1983 0.960 . S
H1968 C1952 0.931 . S
H1969 C1957 0.929 . S
H1970 C1958 0.960 . S
H1971 C1958 0.962 . S
H1972 C1958 0.960 . S
H1973 C1959 0.961 . S
H1974 C1959 0.961 . S
H1975 C1959 0.961 . S
H1976 C1960 0.931 . S
H1977 C1965 0.930 . S
H1978 C1966 0.956 . S
H1979 C1966 0.961 . S
H1980 C1966 0.961 . S
H1981 C1967 0.958 . S
H1982 C1967 0.961 . S
H1983 C1967 0.960 . S
C1984 C1985 1.391 . S
C1984 C1986 1.394 . S
C1984 H2000 0.931 . S
C1985 C1984 1.391 . S
C1985 C1989 1.376 . S
C1986 C1984 1.394 . S
C1986 C1987 1.369 . S
C1986 C1990 1.531 . S
C1987 C1986 1.369 . S
C1987 C1988 1.410 . S
C1987 C1995 1.503 . S
C1988 C1987 1.410 . S
C1988 C1989 1.392 . S
C1988 C1991 1.511 . S
C1989 C1985 1.376 . S
C1989 C1988 1.392 . S
C1989 H2001 0.929 . S
C1990 C1986 1.531 . S
C1990 H2002 0.960 . S
C1990 H2003 0.962 . S
C1990 H2004 0.960 . S
C1991 C1988 1.511 . S
C1991 H2005 0.961 . S
C1991 H2006 0.961 . S
C1991 H2007 0.961 . S
C1992 C1993 1.370 . S
C1992 C1994 1.363 . S
C1992 H2008 0.931 . S
C1993 C1992 1.370 . S
C1993 C1997 1.408 . S
C1994 C1992 1.363 . S
C1994 C1995 1.370 . S
C1994 C1998 1.524 . S
C1995 C1987 1.503 . S
C1995 C1994 1.370 . S
C1995 C1996 1.403 . S
C1996 C1995 1.403 . S
C1996 C1997 1.404 . S
C1996 C1999 1.539 . S
C1997 C1993 1.408 . S
C1997 C1996 1.404 . S
C1997 H2009 0.930 . S
C1998 C1994 1.524 . S
C1998 H2010 0.956 . S
C1998 H2011 0.961 . S
C1998 H2012 0.961 . S
C1999 C1996 1.539 . S
C1999 H2013 0.958 . S
C1999 H2014 0.961 . S
C1999 H2015 0.960 . S
H2000 C1984 0.931 . S
H2001 C1989 0.929 . S
H2002 C1990 0.960 . S
H2003 C1990 0.962 . S
H2004 C1990 0.960 . S
H2005 C1991 0.961 . S
H2006 C1991 0.961 . S
H2007 C1991 0.961 . S
H2008 C1992 0.931 . S
H2009 C1997 0.930 . S
H2010 C1998 0.956 . S
H2011 C1998 0.961 . S
H2012 C1998 0.961 . S
H2013 C1999 0.958 . S
H2014 C1999 0.961 . S
H2015 C1999 0.960 . S
C2016 C2017 1.391 . S
C2016 C2018 1.394 . S
C2016 H2032 0.931 . S
C2017 C2016 1.391 . S
C2017 C2021 1.376 . S
C2018 C2016 1.394 . S
C2018 C2019 1.369 . S
C2018 C2022 1.531 . S
C2019 C2018 1.369 . S
C2019 C2020 1.410 . S
C2019 C2027 1.503 . S
C2020 C2019 1.410 . S
C2020 C2021 1.392 . S
C2020 C2023 1.511 . S
C2021 C2017 1.376 . S
C2021 C2020 1.392 . S
C2021 H2033 0.929 . S
C2022 C2018 1.531 . S
C2022 H2034 0.960 . S
C2022 H2035 0.962 . S
C2022 H2036 0.960 . S
C2023 C2020 1.511 . S
C2023 H2037 0.961 . S
C2023 H2038 0.961 . S
C2023 H2039 0.961 . S
C2024 C2025 1.370 . S
C2024 C2026 1.363 . S
C2024 H2040 0.931 . S
C2025 C2024 1.370 . S
C2025 C2029 1.408 . S
C2026 C2024 1.363 . S
C2026 C2027 1.370 . S
C2026 C2030 1.524 . S
C2027 C2019 1.503 . S
C2027 C2026 1.370 . S
C2027 C2028 1.403 . S
C2028 C2027 1.403 . S
C2028 C2029 1.404 . S
C2028 C2031 1.539 . S
C2029 C2025 1.408 . S
C2029 C2028 1.404 . S
C2029 H2041 0.930 . S
C2030 C2026 1.524 . S
C2030 H2042 0.956 . S
C2030 H2043 0.961 . S
C2030 H2044 0.961 . S
C2031 C2028 1.539 . S
C2031 H2045 0.958 . S
C2031 H2046 0.961 . S
C2031 H2047 0.960 . S
H2032 C2016 0.931 . S
H2033 C2021 0.929 . S
H2034 C2022 0.960 . S
H2035 C2022 0.962 . S
H2036 C2022 0.960 . S
H2037 C2023 0.961 . S
H2038 C2023 0.961 . S
H2039 C2023 0.961 . S
H2040 C2024 0.931 . S
H2041 C2029 0.930 . S
H2042 C2030 0.956 . S
H2043 C2030 0.961 . S
H2044 C2030 0.961 . S
H2045 C2031 0.958 . S
H2046 C2031 0.961 . S
H2047 C2031 0.960 . S
C2048 C2049 1.391 . S
C2048 C2050 1.394 . S
C2048 H2064 0.931 . S
C2049 C2048 1.391 . S
C2049 C2053 1.376 . S
C2050 C2048 1.394 . S
C2050 C2051 1.369 . S
C2050 C2054 1.531 . S
C2051 C2050 1.369 . S
C2051 C2052 1.410 . S
C2051 C2059 1.503 . S
C2052 C2051 1.410 . S
C2052 C2053 1.392 . S
C2052 C2055 1.511 . S
C2053 C2049 1.376 . S
C2053 C2052 1.392 . S
C2053 H2065 0.929 . S
C2054 C2050 1.531 . S
C2054 H2066 0.960 . S
C2054 H2067 0.962 . S
C2054 H2068 0.960 . S
C2055 C2052 1.511 . S
C2055 H2069 0.961 . S
C2055 H2070 0.961 . S
C2055 H2071 0.961 . S
C2056 C2057 1.370 . S
C2056 C2058 1.363 . S
C2056 H2072 0.931 . S
C2057 C2056 1.370 . S
C2057 C2061 1.408 . S
C2058 C2056 1.363 . S
C2058 C2059 1.370 . S
C2058 C2062 1.524 . S
C2059 C2051 1.503 . S
C2059 C2058 1.370 . S
C2059 C2060 1.403 . S
C2060 C2059 1.403 . S
C2060 C2061 1.404 . S
C2060 C2063 1.539 . S
C2061 C2057 1.408 . S
C2061 C2060 1.404 . S
C2061 H2073 0.930 . S
C2062 C2058 1.524 . S
C2062 H2074 0.956 . S
C2062 H2075 0.961 . S
C2062 H2076 0.961 . S
C2063 C2060 1.539 . S
C2063 H2077 0.958 . S
C2063 H2078 0.961 . S
C2063 H2079 0.960 . S
H2064 C2048 0.931 . S
H2065 C2053 0.929 . S
H2066 C2054 0.960 . S
H2067 C2054 0.962 . S
H2068 C2054 0.960 . S
H2069 C2055 0.961 . S
H2070 C2055 0.961 . S
H2071 C2055 0.961 . S
H2072 C2056 0.931 . S
H2073 C2061 0.930 . S
H2074 C2062 0.956 . S
H2075 C2062 0.961 . S
H2076 C2062 0.961 . S
H2077 C2063 0.958 . S
H2078 C2063 0.961 . S
H2079 C2063 0.960 . S
C2080 C2081 1.391 . S
C2080 C2082 1.394 . S
C2080 H2096 0.931 . S
C2081 C2080 1.391 . S
C2081 C2085 1.376 . S
C2082 C2080 1.394 . S
C2082 C2083 1.369 . S
C2082 C2086 1.531 . S
C2083 C2082 1.369 . S
C2083 C2084 1.410 . S
C2083 C2091 1.503 . S
C2084 C2083 1.410 . S
C2084 C2085 1.392 . S
C2084 C2087 1.511 . S
C2085 C2081 1.376 . S
C2085 C2084 1.392 . S
C2085 H2097 0.929 . S
C2086 C2082 1.531 . S
C2086 H2098 0.960 . S
C2086 H2099 0.962 . S
C2086 H2100 0.960 . S
C2087 C2084 1.511 . S
C2087 H2101 0.961 . S
C2087 H2102 0.961 . S
C2087 H2103 0.961 . S
C2088 C2089 1.370 . S
C2088 C2090 1.363 . S
C2088 H2104 0.931 . S
C2089 C2088 1.370 . S
C2089 C2093 1.408 . S
C2090 C2088 1.363 . S
C2090 C2091 1.370 . S
C2090 C2094 1.524 . S
C2091 C2083 1.503 . S
C2091 C2090 1.370 . S
C2091 C2092 1.403 . S
C2092 C2091 1.403 . S
C2092 C2093 1.404 . S
C2092 C2095 1.539 . S
C2093 C2089 1.408 . S
C2093 C2092 1.404 . S
C2093 H2105 0.930 . S
C2094 C2090 1.524 . S
C2094 H2106 0.956 . S
C2094 H2107 0.961 . S
C2094 H2108 0.961 . S
C2095 C2092 1.539 . S
C2095 H2109 0.958 . S
C2095 H2110 0.961 . S
C2095 H2111 0.960 . S
H2096 C2080 0.931 . S
H2097 C2085 0.929 . S
H2098 C2086 0.960 . S
H2099 C2086 0.962 . S
H2100 C2086 0.960 . S
H2101 C2087 0.961 . S
H2102 C2087 0.961 . S
H2103 C2087 0.961 . S
H2104 C2088 0.931 . S
H2105 C2093 0.930 . S
H2106 C2094 0.956 . S
H2107 C2094 0.961 . S
H2108 C2094 0.961 . S
H2109 C2095 0.958 . S
H2110 C2095 0.961 . S
H2111 C2095 0.960 . S
C2112 C2113 1.391 . S
C2112 C2114 1.394 . S
C2112 H2128 0.931 . S
C2113 C2112 1.391 . S
C2113 C2117 1.376 . S
C2114 C2112 1.394 . S
C2114 C2115 1.369 . S
C2114 C2118 1.531 . S
C2115 C2114 1.369 . S
C2115 C2116 1.410 . S
C2115 C2123 1.503 . S
C2116 C2115 1.410 . S
C2116 C2117 1.392 . S
C2116 C2119 1.511 . S
C2117 C2113 1.376 . S
C2117 C2116 1.392 . S
C2117 H2129 0.929 . S
C2118 C2114 1.531 . S
C2118 H2130 0.960 . S
C2118 H2131 0.962 . S
C2118 H2132 0.960 . S
C2119 C2116 1.511 . S
C2119 H2133 0.961 . S
C2119 H2134 0.961 . S
C2119 H2135 0.961 . S
C2120 C2121 1.370 . S
C2120 C2122 1.363 . S
C2120 H2136 0.931 . S
C2121 C2120 1.370 . S
C2121 C2125 1.408 . S
C2122 C2120 1.363 . S
C2122 C2123 1.370 . S
C2122 C2126 1.524 . S
C2123 C2115 1.503 . S
C2123 C2122 1.370 . S
C2123 C2124 1.403 . S
C2124 C2123 1.403 . S
C2124 C2125 1.404 . S
C2124 C2127 1.539 . S
C2125 C2121 1.408 . S
C2125 C2124 1.404 . S
C2125 H2137 0.930 . S
C2126 C2122 1.524 . S
C2126 H2138 0.956 . S
C2126 H2139 0.961 . S
C2126 H2140 0.961 . S
C2127 C2124 1.539 . S
C2127 H2141 0.958 . S
C2127 H2142 0.961 . S
C2127 H2143 0.960 . S
H2128 C2112 0.931 . S
H2129 C2117 0.929 . S
H2130 C2118 0.960 . S
H2131 C2118 0.962 . S
H2132 C2118 0.960 . S
H2133 C2119 0.961 . S
H2134 C2119 0.961 . S
H2135 C2119 0.961 . S
H2136 C2120 0.931 . S
H2137 C2125 0.930 . S
H2138 C2126 0.956 . S
H2139 C2126 0.961 . S
H2140 C2126 0.961 . S
H2141 C2127 0.958 . S
H2142 C2127 0.961 . S
H2143 C2127 0.960 . S
C2144 C2145 1.391 . S
C2144 C2146 1.394 . S
C2144 H2160 0.931 . S
C2145 C2144 1.391 . S
C2145 C2149 1.376 . S
C2146 C2144 1.394 . S
C2146 C2147 1.369 . S
C2146 C2150 1.531 . S
C2147 C2146 1.369 . S
C2147 C2148 1.410 . S
C2147 C2155 1.503 . S
C2148 C2147 1.410 . S
C2148 C2149 1.392 . S
C2148 C2151 1.511 . S
C2149 C2145 1.376 . S
C2149 C2148 1.392 . S
C2149 H2161 0.929 . S
C2150 C2146 1.531 . S
C2150 H2162 0.960 . S
C2150 H2163 0.962 . S
C2150 H2164 0.960 . S
C2151 C2148 1.511 . S
C2151 H2165 0.961 . S
C2151 H2166 0.961 . S
C2151 H2167 0.961 . S
C2152 C2153 1.370 . S
C2152 C2154 1.363 . S
C2152 H2168 0.931 . S
C2153 C2152 1.370 . S
C2153 C2157 1.408 . S
C2154 C2152 1.363 . S
C2154 C2155 1.370 . S
C2154 C2158 1.524 . S
C2155 C2147 1.503 . S
C2155 C2154 1.370 . S
C2155 C2156 1.403 . S
C2156 C2155 1.403 . S
C2156 C2157 1.404 . S
C2156 C2159 1.539 . S
C2157 C2153 1.408 . S
C2157 C2156 1.404 . S
C2157 H2169 0.930 . S
C2158 C2154 1.524 . S
C2158 H2170 0.956 . S
C2158 H2171 0.961 . S
C2158 H2172 0.961 . S
C2159 C2156 1.539 . S
C2159 H2173 0.958 . S
C2159 H2174 0.961 . S
C2159 H2175 0.960 . S
H2160 C2144 0.931 . S
H2161 C2149 0.929 . S
H2162 C2150 0.960 . S
H2163 C2150 0.962 . S
H2164 C2150 0.960 . S
H2165 C2151 0.961 . S
H2166 C2151 0.961 . S
H2167 C2151 0.961 . S
H2168 C2152 0.931 . S
H2169 C2157 0.930 . S
H2170 C2158 0.956 . S
H2171 C2158 0.961 . S
H2172 C2158 0.961 . S
H2173 C2159 0.958 . S
H2174 C2159 0.961 . S
H2175 C2159 0.960 . S
C2176 C2177 1.391 . S
C2176 C2178 1.394 . S
C2176 H2192 0.931 . S
C2177 C2176 1.391 . S
C2177 C2181 1.376 . S
C2178 C2176 1.394 . S
C2178 C2179 1.369 . S
C2178 C2182 1.531 . S
C2179 C2178 1.369 . S
C2179 C2180 1.410 . S
C2179 C2187 1.503 . S
C2180 C2179 1.410 . S
C2180 C2181 1.392 . S
C2180 C2183 1.511 . S
C2181 C2177 1.376 . S
C2181 C2180 1.392 . S
C2181 H2193 0.929 . S
C2182 C2178 1.531 . S
C2182 H2194 0.960 . S
C2182 H2195 0.962 . S
C2182 H2196 0.960 . S
C2183 C2180 1.511 . S
C2183 H2197 0.961 . S
C2183 H2198 0.961 . S
C2183 H2199 0.961 . S
C2184 C2185 1.370 . S
C2184 C2186 1.363 . S
C2184 H2200 0.931 . S
C2185 C2184 1.370 . S
C2185 C2189 1.408 . S
C2186 C2184 1.363 . S
C2186 C2187 1.370 . S
C2186 C2190 1.524 . S
C2187 C2179 1.503 . S
C2187 C2186 1.370 . S
C2187 C2188 1.403 . S
C2188 C2187 1.403 . S
C2188 C2189 1.404 . S
C2188 C2191 1.539 . S
C2189 C2185 1.408 . S
C2189 C2188 1.404 . S
C2189 H2201 0.930 . S
C2190 C2186 1.524 . S
C2190 H2202 0.956 . S
C2190 H2203 0.961 . S
C2190 H2204 0.961 . S
C2191 C2188 1.539 . S
C2191 H2205 0.958 . S
C2191 H2206 0.961 . S
C2191 H2207 0.960 . S
H2192 C2176 0.931 . S
H2193 C2181 0.929 . S
H2194 C2182 0.960 . S
H2195 C2182 0.962 . S
H2196 C2182 0.960 . S
H2197 C2183 0.961 . S
H2198 C2183 0.961 . S
H2199 C2183 0.961 . S
H2200 C2184 0.931 . S
H2201 C2189 0.930 . S
H2202 C2190 0.956 . S
H2203 C2190 0.961 . S
H2204 C2190 0.961 . S
H2205 C2191 0.958 . S
H2206 C2191 0.961 . S
H2207 C2191 0.960 . S
C2208 C2209 1.391 . S
C2208 C2210 1.394 . S
C2208 H2224 0.931 . S
C2209 C2208 1.391 . S
C2209 C2213 1.376 . S
C2210 C2208 1.394 . S
C2210 C2211 1.369 . S
C2210 C2214 1.531 . S
C2211 C2210 1.369 . S
C2211 C2212 1.410 . S
C2211 C2219 1.503 . S
C2212 C2211 1.410 . S
C2212 C2213 1.392 . S
C2212 C2215 1.511 . S
C2213 C2209 1.376 . S
C2213 C2212 1.392 . S
C2213 H2225 0.929 . S
C2214 C2210 1.531 . S
C2214 H2226 0.960 . S
C2214 H2227 0.962 . S
C2214 H2228 0.960 . S
C2215 C2212 1.511 . S
C2215 H2229 0.961 . S
C2215 H2230 0.961 . S
C2215 H2231 0.961 . S
C2216 C2217 1.370 . S
C2216 C2218 1.363 . S
C2216 H2232 0.931 . S
C2217 C2216 1.370 . S
C2217 C2221 1.408 . S
C2218 C2216 1.363 . S
C2218 C2219 1.370 . S
C2218 C2222 1.524 . S
C2219 C2211 1.503 . S
C2219 C2218 1.370 . S
C2219 C2220 1.403 . S
C2220 C2219 1.403 . S
C2220 C2221 1.404 . S
C2220 C2223 1.539 . S
C2221 C2217 1.408 . S
C2221 C2220 1.404 . S
C2221 H2233 0.930 . S
C2222 C2218 1.524 . S
C2222 H2234 0.956 . S
C2222 H2235 0.961 . S
C2222 H2236 0.961 . S
C2223 C2220 1.539 . S
C2223 H2237 0.958 . S
C2223 H2238 0.961 . S
C2223 H2239 0.960 . S
H2224 C2208 0.931 . S
H2225 C2213 0.929 . S
H2226 C2214 0.960 . S
H2227 C2214 0.962 . S
H2228 C2214 0.960 . S
H2229 C2215 0.961 . S
H2230 C2215 0.961 . S
H2231 C2215 0.961 . S
H2232 C2216 0.931 . S
H2233 C2221 0.930 . S
H2234 C2222 0.956 . S
H2235 C2222 0.961 . S
H2236 C2222 0.961 . S
H2237 C2223 0.958 . S
H2238 C2223 0.961 . S
H2239 C2223 0.960 . S
C2240 C2241 1.391 . S
C2240 C2242 1.394 . S
C2240 H2256 0.931 . S
C2241 C2240 1.391 . S
C2241 C2245 1.376 . S
C2242 C2240 1.394 . S
C2242 C2243 1.369 . S
C2242 C2246 1.531 . S
C2243 C2242 1.369 . S
C2243 C2244 1.410 . S
C2243 C2251 1.503 . S
C2244 C2243 1.410 . S
C2244 C2245 1.392 . S
C2244 C2247 1.511 . S
C2245 C2241 1.376 . S
C2245 C2244 1.392 . S
C2245 H2257 0.929 . S
C2246 C2242 1.531 . S
C2246 H2258 0.960 . S
C2246 H2259 0.962 . S
C2246 H2260 0.960 . S
C2247 C2244 1.511 . S
C2247 H2261 0.961 . S
C2247 H2262 0.961 . S
C2247 H2263 0.961 . S
C2248 C2249 1.370 . S
C2248 C2250 1.363 . S
C2248 H2264 0.931 . S
C2249 C2248 1.370 . S
C2249 C2253 1.408 . S
C2250 C2248 1.363 . S
C2250 C2251 1.370 . S
C2250 C2254 1.524 . S
C2251 C2243 1.503 . S
C2251 C2250 1.370 . S
C2251 C2252 1.403 . S
C2252 C2251 1.403 . S
C2252 C2253 1.404 . S
C2252 C2255 1.539 . S
C2253 C2249 1.408 . S
C2253 C2252 1.404 . S
C2253 H2265 0.930 . S
C2254 C2250 1.524 . S
C2254 H2266 0.956 . S
C2254 H2267 0.961 . S
C2254 H2268 0.961 . S
C2255 C2252 1.539 . S
C2255 H2269 0.958 . S
C2255 H2270 0.961 . S
C2255 H2271 0.960 . S
H2256 C2240 0.931 . S
H2257 C2245 0.929 . S
H2258 C2246 0.960 . S
H2259 C2246 0.962 . S
H2260 C2246 0.960 . S
H2261 C2247 0.961 . S
H2262 C2247 0.961 . S
H2263 C2247 0.961 . S
H2264 C2248 0.931 . S
H2265 C2253 0.930 . S
H2266 C2254 0.956 . S
H2267 C2254 0.961 . S
H2268 C2254 0.961 . S
H2269 C2255 0.958 . S
H2270 C2255 0.961 . S
H2271 C2255 0.960 . S
C2272 C2273 1.391 . S
C2272 C2274 1.394 . S
C2272 H2288 0.931 . S
C2273 C2272 1.391 . S
C2273 C2277 1.376 . S
C2274 C2272 1.394 . S
C2274 C2275 1.369 . S
C2274 C2278 1.531 . S
C2275 C2274 1.369 . S
C2275 C2276 1.410 . S
C2275 C2283 1.503 . S
C2276 C2275 1.410 . S
C2276 C2277 1.392 . S
C2276 C2279 1.511 . S
C2277 C2273 1.376 . S
C2277 C2276 1.392 . S
C2277 H2289 0.929 . S
C2278 C2274 1.531 . S
C2278 H2290 0.960 . S
C2278 H2291 0.962 . S
C2278 H2292 0.960 . S
C2279 C2276 1.511 . S
C2279 H2293 0.961 . S
C2279 H2294 0.961 . S
C2279 H2295 0.961 . S
C2280 C2281 1.370 . S
C2280 C2282 1.363 . S
C2280 H2296 0.931 . S
C2281 C2280 1.370 . S
C2281 C2285 1.408 . S
C2282 C2280 1.363 . S
C2282 C2283 1.370 . S
C2282 C2286 1.524 . S
C2283 C2275 1.503 . S
C2283 C2282 1.370 . S
C2283 C2284 1.403 . S
C2284 C2283 1.403 . S
C2284 C2285 1.404 . S
C2284 C2287 1.539 . S
C2285 C2281 1.408 . S
C2285 C2284 1.404 . S
C2285 H2297 0.930 . S
C2286 C2282 1.524 . S
C2286 H2298 0.956 . S
C2286 H2299 0.961 . S
C2286 H2300 0.961 . S
C2287 C2284 1.539 . S
C2287 H2301 0.958 . S
C2287 H2302 0.961 . S
C2287 H2303 0.960 . S
H2288 C2272 0.931 . S
H2289 C2277 0.929 . S
H2290 C2278 0.960 . S
H2291 C2278 0.962 . S
H2292 C2278 0.960 . S
H2293 C2279 0.961 . S
H2294 C2279 0.961 . S
H2295 C2279 0.961 . S
H2296 C2280 0.931 . S
H2297 C2285 0.930 . S
H2298 C2286 0.956 . S
H2299 C2286 0.961 . S
H2300 C2286 0.961 . S
H2301 C2287 0.958 . S
H2302 C2287 0.961 . S
H2303 C2287 0.960 . S
C2304 C2305 1.391 . S
C2304 C2306 1.394 . S
C2304 H2320 0.931 . S
C2305 C2304 1.391 . S
C2305 C2309 1.376 . S
C2306 C2304 1.394 . S
C2306 C2307 1.369 . S
C2306 C2310 1.531 . S
C2307 C2306 1.369 . S
C2307 C2308 1.410 . S
C2307 C2315 1.503 . S
C2308 C2307 1.410 . S
C2308 C2309 1.392 . S
C2308 C2311 1.511 . S
C2309 C2305 1.376 . S
C2309 C2308 1.392 . S
C2309 H2321 0.929 . S
C2310 C2306 1.531 . S
C2310 H2322 0.960 . S
C2310 H2323 0.962 . S
C2310 H2324 0.960 . S
C2311 C2308 1.511 . S
C2311 H2325 0.961 . S
C2311 H2326 0.961 . S
C2311 H2327 0.961 . S
C2312 C2313 1.370 . S
C2312 C2314 1.363 . S
C2312 H2328 0.931 . S
C2313 C2312 1.370 . S
C2313 C2317 1.408 . S
C2314 C2312 1.363 . S
C2314 C2315 1.370 . S
C2314 C2318 1.524 . S
C2315 C2307 1.503 . S
C2315 C2314 1.370 . S
C2315 C2316 1.403 . S
C2316 C2315 1.403 . S
C2316 C2317 1.404 . S
C2316 C2319 1.539 . S
C2317 C2313 1.408 . S
C2317 C2316 1.404 . S
C2317 H2329 0.930 . S
C2318 C2314 1.524 . S
C2318 H2330 0.956 . S
C2318 H2331 0.961 . S
C2318 H2332 0.961 . S
C2319 C2316 1.539 . S
C2319 H2333 0.958 . S
C2319 H2334 0.961 . S
C2319 H2335 0.960 . S
H2320 C2304 0.931 . S
H2321 C2309 0.929 . S
H2322 C2310 0.960 . S
H2323 C2310 0.962 . S
H2324 C2310 0.960 . S
H2325 C2311 0.961 . S
H2326 C2311 0.961 . S
H2327 C2311 0.961 . S
H2328 C2312 0.931 . S
H2329 C2317 0.930 . S
H2330 C2318 0.956 . S
H2331 C2318 0.961 . S
H2332 C2318 0.961 . S
H2333 C2319 0.958 . S
H2334 C2319 0.961 . S
H2335 C2319 0.960 . S
C2336 C2337 1.391 . S
C2336 C2338 1.394 . S
C2336 H2352 0.931 . S
C2337 C2336 1.391 . S
C2337 C2341 1.376 . S
C2338 C2336 1.394 . S
C2338 C2339 1.369 . S
C2338 C2342 1.531 . S
C2339 C2338 1.369 . S
C2339 C2340 1.410 . S
C2339 C2347 1.503 . S
C2340 C2339 1.410 . S
C2340 C2341 1.392 . S
C2340 C2343 1.511 . S
C2341 C2337 1.376 . S
C2341 C2340 1.392 . S
C2341 H2353 0.929 . S
C2342 C2338 1.531 . S
C2342 H2354 0.960 . S
C2342 H2355 0.962 . S
C2342 H2356 0.960 . S
C2343 C2340 1.511 . S
C2343 H2357 0.961 . S
C2343 H2358 0.961 . S
C2343 H2359 0.961 . S
C2344 C2345 1.370 . S
C2344 C2346 1.363 . S
C2344 H2360 0.931 . S
C2345 C2344 1.370 . S
C2345 C2349 1.408 . S
C2346 C2344 1.363 . S
C2346 C2347 1.370 . S
C2346 C2350 1.524 . S
C2347 C2339 1.503 . S
C2347 C2346 1.370 . S
C2347 C2348 1.403 . S
C2348 C2347 1.403 . S
C2348 C2349 1.404 . S
C2348 C2351 1.539 . S
C2349 C2345 1.408 . S
C2349 C2348 1.404 . S
C2349 H2361 0.930 . S
C2350 C2346 1.524 . S
C2350 H2362 0.956 . S
C2350 H2363 0.961 . S
C2350 H2364 0.961 . S
C2351 C2348 1.539 . S
C2351 H2365 0.958 . S
C2351 H2366 0.961 . S
C2351 H2367 0.960 . S
H2352 C2336 0.931 . S
H2353 C2341 0.929 . S
H2354 C2342 0.960 . S
H2355 C2342 0.962 . S
H2356 C2342 0.960 . S
H2357 C2343 0.961 . S
H2358 C2343 0.961 . S
H2359 C2343 0.961 . S
H2360 C2344 0.931 . S
H2361 C2349 0.930 . S
H2362 C2350 0.956 . S
H2363 C2350 0.961 . S
H2364 C2350 0.961 . S
H2365 C2351 0.958 . S
H2366 C2351 0.961 . S
H2367 C2351 0.960 . S
C2368 C2369 1.391 . S
C2368 C2370 1.394 . S
C2368 H2384 0.931 . S
C2369 C2368 1.391 . S
C2369 C2373 1.376 . S
C2370 C2368 1.394 . S
C2370 C2371 1.369 . S
C2370 C2374 1.531 . S
C2371 C2370 1.369 . S
C2371 C2372 1.410 . S
C2371 C2379 1.503 . S
C2372 C2371 1.410 . S
C2372 C2373 1.392 . S
C2372 C2375 1.511 . S
C2373 C2369 1.376 . S
C2373 C2372 1.392 . S
C2373 H2385 0.929 . S
C2374 C2370 1.531 . S
C2374 H2386 0.960 . S
C2374 H2387 0.962 . S
C2374 H2388 0.960 . S
C2375 C2372 1.511 . S
C2375 H2389 0.961 . S
C2375 H2390 0.961 . S
C2375 H2391 0.961 . S
C2376 C2377 1.370 . S
C2376 C2378 1.363 . S
C2376 H2392 0.931 . S
C2377 C2376 1.370 . S
C2377 C2381 1.408 . S
C2378 C2376 1.363 . S
C2378 C2379 1.370 . S
C2378 C2382 1.524 . S
C2379 C2371 1.503 . S
C2379 C2378 1.370 . S
C2379 C2380 1.403 . S
C2380 C2379 1.403 . S
C2380 C2381 1.404 . S
C2380 C2383 1.539 . S
C2381 C2377 1.408 . S
C2381 C2380 1.404 . S
C2381 H2393 0.930 . S
C2382 C2378 1.524 . S
C2382 H2394 0.956 . S
C2382 H2395 0.961 . S
C2382 H2396 0.961 . S
C2383 C2380 1.539 . S
C2383 H2397 0.958 . S
C2383 H2398 0.961 . S
C2383 H2399 0.960 . S
H2384 C2368 0.931 . S
H2385 C2373 0.929 . S
H2386 C2374 0.960 . S
H2387 C2374 0.962 . S
H2388 C2374 0.960 . S
H2389 C2375 0.961 . S
H2390 C2375 0.961 . S
H2391 C2375 0.961 . S
H2392 C2376 0.931 . S
H2393 C2381 0.930 . S
H2394 C2382 0.956 . S
H2395 C2382 0.961 . S
H2396 C2382 0.961 . S
H2397 C2383 0.958 . S
H2398 C2383 0.961 . S
H2399 C2383 0.960 . S
C2400 C2401 1.391 . S
C2400 C2402 1.394 . S
C2400 H2416 0.931 . S
C2401 C2400 1.391 . S
C2401 C2405 1.376 . S
C2402 C2400 1.394 . S
C2402 C2403 1.369 . S
C2402 C2406 1.531 . S
C2403 C2402 1.369 . S
C2403 C2404 1.410 . S
C2403 C2411 1.503 . S
C2404 C2403 1.410 . S
C2404 C2405 1.392 . S
C2404 C2407 1.511 . S
C2405 C2401 1.376 . S
C2405 C2404 1.392 . S
C2405 H2417 0.929 . S
C2406 C2402 1.531 . S
C2406 H2418 0.960 . S
C2406 H2419 0.962 . S
C2406 H2420 0.960 . S
C2407 C2404 1.511 . S
C2407 H2421 0.961 . S
C2407 H2422 0.961 . S
C2407 H2423 0.961 . S
C2408 C2409 1.370 . S
C2408 C2410 1.363 . S
C2408 H2424 0.931 . S
C2409 C2408 1.370 . S
C2409 C2413 1.408 . S
C2410 C2408 1.363 . S
C2410 C2411 1.370 . S
C2410 C2414 1.524 . S
C2411 C2403 1.503 . S
C2411 C2410 1.370 . S
C2411 C2412 1.403 . S
C2412 C2411 1.403 . S
C2412 C2413 1.404 . S
C2412 C2415 1.539 . S
C2413 C2409 1.408 . S
C2413 C2412 1.404 . S
C2413 H2425 0.930 . S
C2414 C2410 1.524 . S
C2414 H2426 0.956 . S
C2414 H2427 0.961 . S
C2414 H2428 0.961 . S
C2415 C2412 1.539 . S
C2415 H2429 0.958 . S
C2415 H2430 0.961 . S
C2415 H2431 0.960 . S
H2416 C2400 0.931 . S
H2417 C2405 0.929 . S
H2418 C2406 0.960 . S
H2419 C2406 0.962 . S
H2420 C2406 0.960 . S
H2421 C2407 0.961 . S
H2422 C2407 0.961 . S
H2423 C2407 0.961 . S
H2424 C2408 0.931 . S
H2425 C2413 0.930 . S
H2426 C2414 0.956 . S
H2427 C2414 0.961 . S
H2428 C2414 0.961 . S
H2429 C2415 0.958 . S
H2430 C2415 0.961 . S
H2431 C2415 0.960 . S
C2432 C2433 1.391 . S
C2432 C2434 1.394 . S
C2432 H2448 0.931 . S
C2433 C2432 1.391 . S
C2433 C2437 1.376 . S
C2434 C2432 1.394 . S
C2434 C2435 1.369 . S
C2434 C2438 1.531 . S
C2435 C2434 1.369 . S
C2435 C2436 1.410 . S
C2435 C2443 1.503 . S
C2436 C2435 1.410 . S
C2436 C2437 1.392 . S
C2436 C2439 1.511 . S
C2437 C2433 1.376 . S
C2437 C2436 1.392 . S
C2437 H2449 0.929 . S
C2438 C2434 1.531 . S
C2438 H2450 0.960 . S
C2438 H2451 0.962 . S
C2438 H2452 0.960 . S
C2439 C2436 1.511 . S
C2439 H2453 0.961 . S
C2439 H2454 0.961 . S
C2439 H2455 0.961 . S
C2440 C2441 1.370 . S
C2440 C2442 1.363 . S
C2440 H2456 0.931 . S
C2441 C2440 1.370 . S
C2441 C2445 1.408 . S
C2442 C2440 1.363 . S
C2442 C2443 1.370 . S
C2442 C2446 1.524 . S
C2443 C2435 1.503 . S
C2443 C2442 1.370 . S
C2443 C2444 1.403 . S
C2444 C2443 1.403 . S
C2444 C2445 1.404 . S
C2444 C2447 1.539 . S
C2445 C2441 1.408 . S
C2445 C2444 1.404 . S
C2445 H2457 0.930 . S
C2446 C2442 1.524 . S
C2446 H2458 0.956 . S
C2446 H2459 0.961 . S
C2446 H2460 0.961 . S
C2447 C2444 1.539 . S
C2447 H2461 0.958 . S
C2447 H2462 0.961 . S
C2447 H2463 0.960 . S
H2448 C2432 0.931 . S
H2449 C2437 0.929 . S
H2450 C2438 0.960 . S
H2451 C2438 0.962 . S
H2452 C2438 0.960 . S
H2453 C2439 0.961 . S
H2454 C2439 0.961 . S
H2455 C2439 0.961 . S
H2456 C2440 0.931 . S
H2457 C2445 0.930 . S
H2458 C2446 0.956 . S
H2459 C2446 0.961 . S
H2460 C2446 0.961 . S
H2461 C2447 0.958 . S
H2462 C2447 0.961 . S
H2463 C2447 0.960 . S
C2464 C2465 1.391 . S
C2464 C2466 1.394 . S
C2464 H2480 0.931 . S
C2465 C2464 1.391 . S
C2465 C2469 1.376 . S
C2466 C2464 1.394 . S
C2466 C2467 1.369 . S
C2466 C2470 1.531 . S
C2467 C2466 1.369 . S
C2467 C2468 1.410 . S
C2467 C2475 1.503 . S
C2468 C2467 1.410 . S
C2468 C2469 1.392 . S
C2468 C2471 1.511 . S
C2469 C2465 1.376 . S
C2469 C2468 1.392 . S
C2469 H2481 0.929 . S
C2470 C2466 1.531 . S
C2470 H2482 0.960 . S
C2470 H2483 0.962 . S
C2470 H2484 0.960 . S
C2471 C2468 1.511 . S
C2471 H2485 0.961 . S
C2471 H2486 0.961 . S
C2471 H2487 0.961 . S
C2472 C2473 1.370 . S
C2472 C2474 1.363 . S
C2472 H2488 0.931 . S
C2473 C2472 1.370 . S
C2473 C2477 1.408 . S
C2474 C2472 1.363 . S
C2474 C2475 1.370 . S
C2474 C2478 1.524 . S
C2475 C2467 1.503 . S
C2475 C2474 1.370 . S
C2475 C2476 1.403 . S
C2476 C2475 1.403 . S
C2476 C2477 1.404 . S
C2476 C2479 1.539 . S
C2477 C2473 1.408 . S
C2477 C2476 1.404 . S
C2477 H2489 0.930 . S
C2478 C2474 1.524 . S
C2478 H2490 0.956 . S
C2478 H2491 0.961 . S
C2478 H2492 0.961 . S
C2479 C2476 1.539 . S
C2479 H2493 0.958 . S
C2479 H2494 0.961 . S
C2479 H2495 0.960 . S
H2480 C2464 0.931 . S
H2481 C2469 0.929 . S
H2482 C2470 0.960 . S
H2483 C2470 0.962 . S
H2484 C2470 0.960 . S
H2485 C2471 0.961 . S
H2486 C2471 0.961 . S
H2487 C2471 0.961 . S
H2488 C2472 0.931 . S
H2489 C2477 0.930 . S
H2490 C2478 0.956 . S
H2491 C2478 0.961 . S
H2492 C2478 0.961 . S
H2493 C2479 0.958 . S
H2494 C2479 0.961 . S
H2495 C2479 0.960 . S
C449 C382 1.405 . S
C457 C12 1.393 . S
C481 C26 1.394 . S
C489 C116 1.393 . S
C513 C354 1.394 . S
C521 C40 1.384 . S
C545 C54 1.362 . S
C553 C144 1.383 . S
C577 C68 1.389 . S
C585 C410 1.391 . S
C609 C82 1.376 . S
C617 C200 1.392 . S
C641 C96 1.367 . S
C649 C438 1.388 . S
C673 C110 1.363 . S
C681 C172 1.387 . S
C705 C270 1.391 . S
C713 C124 1.391 . S
C737 C4 1.371 . S
C745 C138 1.373 . S
C769 C242 1.366 . S
C777 C152 1.376 . S
C801 C166 1.378 . S
C809 C32 1.395 . S
C833 C298 1.392 . S
C841 C180 1.380 . S
C865 C88 1.387 . S
C873 C194 1.390 . S
C897 C208 1.396 . S
C905 C326 1.392 . S
C929 C60 1.381 . S
C937 C222 1.387 . S
C961 C236 1.367 . S
C969 C158 1.384 . S
C993 C250 1.357 . S
C1001 C340 1.384 . S
C1025 C130 1.394 . S
C1033 C264 1.384 . S
C1057 C368 1.391 . S
C1065 C278 1.388 . S
C1089 C186 1.390 . S
C1097 C292 1.382 . S
C1121 C424 1.395 . S
C1129 C306 1.390 . S
C1153 C214 1.370 . S
C1161 C320 1.374 . S
C1185 C334 1.398 . S
C1193 C396 1.395 . S
C1217 C46 1.393 . S
C1225 C348 1.380 . S
C1249 C362 1.357 . S
C1257 C228 1.382 . S
C1281 C376 1.403 . S
C1289 C18 1.396 . S
C1313 C390 1.396 . S
C1321 C256 1.399 . S
C1345 C404 1.364 . S
C1353 C74 1.390 . S
C1377 C418 1.402 . S
C1385 C312 1.395 . S
C1409 C432 1.396 . S
C1417 C102 1.399 . S
C1441 C446 1.356 . S
C1449 C284 1.382 . S
C1473 C347 1.471 . S
C1481 C11 1.499 . S
C1505 C25 1.470 . S
C1513 C137 1.499 . S
C1537 C375 1.469 . S
C1545 C39 1.498 . S
C1569 C53 1.468 . S
C1577 C165 1.498 . S
C1601 C403 1.504 . S
C1609 C67 1.484 . S
C1633 C81 1.467 . S
C1641 C193 1.499 . S
C1665 C431 1.505 . S
C1673 C95 1.483 . S
C1697 C109 1.473 . S
C1705 C221 1.498 . S
C1729 C123 1.469 . S
C1737 C235 1.498 . S
C1761 C151 1.505 . S
C1769 C263 1.484 . S
C1793 C179 1.498 . S
C1801 C291 1.488 . S
C1825 C207 1.475 . S
C1833 C319 1.495 . S
C1857 C249 1.507 . S
C1865 C361 1.483 . S
C1889 C389 1.501 . S
C1897 C277 1.486 . S
C1921 C417 1.507 . S
C1929 C305 1.483 . S
C1953 C333 1.480 . S
C1961 C445 1.495 . S
C1985 C5 0.946 . S
C1993 C75 0.946 . S
C2017 C19 0.971 . S
C2025 C89 0.953 . S
C2049 C33 0.983 . S
C2057 C103 0.954 . S
C2081 C61 0.893 . S
C2089 C47 0.927 . S
C2113 C117 0.997 . S
C2121 C187 0.948 . S
C2145 C131 0.938 . S
C2153 C201 0.902 . S
C2177 C145 0.952 . S
C2185 C215 0.907 . S
C2209 C159 0.926 . S
C2217 C173 0.948 . S
C2241 C229 0.870 . S
C2249 C299 0.916 . S
C2273 C313 0.955 . S
C2281 C243 0.919 . S
C2305 C257 0.870 . S
C2313 C327 0.916 . S
C2337 C271 0.946 . S
C2345 C285 0.915 . S
C2369 C411 0.890 . S
C2377 C341 0.890 . S
C2401 C355 0.841 . S
C2409 C425 0.900 . S
C2433 C439 0.952 . S
C2441 C369 0.907 . S
C2465 C383 0.850 . S
C2473 C397 0.891 . S
