# Generated by pormake.
# Topology smm, (6)-cn, num edge types: 1
# Building blocks:
#     Node 0, Type 0, BuildingBlock: BETDEL_clean_sbu_0, # of connection points: 6
#     Node 1, Type 0, BuildingBlock: BETDEL_clean_sbu_0, # of connection points: 6
#     Node 2, Type 0, BuildingBlock: BETDEL_clean_sbu_0, # of connection points: 6
#     Node 3, Type 0, BuildingBlock: BETDEL_clean_sbu_0, # of connection points: 6
#     Node 4, Type 0, BuildingBlock: BETDEL_clean_sbu_0, # of connection points: 6
#     Node 5, Type 0, BuildingBlock: BETDEL_clean_sbu_0, # of connection points: 6
#     Node 6, Type 0, BuildingBlock: BETDEL_clean_sbu_0, # of connection points: 6
#     Node 7, Type 0, BuildingBlock: BETDEL_clean_sbu_0, # of connection points: 6
#     Node 8, Type 0, BuildingBlock: BETDEL_clean_sbu_0, # of connection points: 6
#     Edge 9, Type (0, 0), BuildingBlock: CIFDUS_clean_linker_0, # of connection points: 2
#     Edge 10, Type (0, 0), BuildingBlock: CIFDUS_clean_linker_0, # of connection points: 2
#     Edge 11, Type (0, 0), BuildingBlock: CIFDUS_clean_linker_0, # of connection points: 2
#     Edge 12, Type (0, 0), BuildingBlock: CIFDUS_clean_linker_0, # of connection points: 2
#     Edge 13, Type (0, 0), BuildingBlock: CIFDUS_clean_linker_0, # of connection points: 2
#     Edge 14, Type (0, 0), BuildingBlock: CIFDUS_clean_linker_0, # of connection points: 2
#     Edge 15, Type (0, 0), BuildingBlock: CIFDUS_clean_linker_0, # of connection points: 2
#     Edge 16, Type (0, 0), BuildingBlock: CIFDUS_clean_linker_0, # of connection points: 2
#     Edge 17, Type (0, 0), BuildingBlock: CIFDUS_clean_linker_0, # of connection points: 2
#     Edge 18, Type (0, 0), BuildingBlock: CIFDUS_clean_linker_0, # of connection points: 2
#     Edge 19, Type (0, 0), BuildingBlock: CIFDUS_clean_linker_0, # of connection points: 2
#     Edge 20, Type (0, 0), BuildingBlock: CIFDUS_clean_linker_0, # of connection points: 2
#     Edge 21, Type (0, 0), BuildingBlock: CIFDUS_clean_linker_0, # of connection points: 2
#     Edge 22, Type (0, 0), BuildingBlock: CIFDUS_clean_linker_0, # of connection points: 2
#     Edge 23, Type (0, 0), BuildingBlock: CIFDUS_clean_linker_0, # of connection points: 2
#     Edge 24, Type (0, 0), BuildingBlock: CIFDUS_clean_linker_0, # of connection points: 2
#     Edge 25, Type (0, 0), BuildingBlock: CIFDUS_clean_linker_0, # of connection points: 2
#     Edge 26, Type (0, 0), BuildingBlock: CIFDUS_clean_linker_0, # of connection points: 2
#     Edge 27, Type (0, 0), BuildingBlock: CIFDUS_clean_linker_0, # of connection points: 2
#     Edge 28, Type (0, 0), BuildingBlock: CIFDUS_clean_linker_0, # of connection points: 2
#     Edge 29, Type (0, 0), BuildingBlock: CIFDUS_clean_linker_0, # of connection points: 2
#     Edge 30, Type (0, 0), BuildingBlock: CIFDUS_clean_linker_0, # of connection points: 2
#     Edge 31, Type (0, 0), BuildingBlock: CIFDUS_clean_linker_0, # of connection points: 2
#     Edge 32, Type (0, 0), BuildingBlock: CIFDUS_clean_linker_0, # of connection points: 2
#     Edge 33, Type (0, 0), BuildingBlock: CIFDUS_clean_linker_0, # of connection points: 2
#     Edge 34, Type (0, 0), BuildingBlock: CIFDUS_clean_linker_0, # of connection points: 2
#     Edge 35, Type (0, 0), BuildingBlock: CIFDUS_clean_linker_0, # of connection points: 2
# Relax obj value: 0.065
# Max RMSD: 0.138
# Mean RMSD: 0.138
data_MOF--net-smm--node1-BETDEL_clean_sbu_0--edge1-CIFDUS_clean_linker_0
_symmetry_space_group_name_H-M    P1
_symmetry_Int_Tables_number       1
_symmetry_cell_setting            triclinic
loop_
_symmetry_equiv_pos_as_xyz
'x, y, z'
_cell_length_a     50.06798
_cell_length_b     50.104318
_cell_length_c     12.36837
_cell_angle_alpha  89.948867
_cell_angle_beta   90.244765
_cell_angle_gamma 120.11234
loop_
_atom_site_label
_atom_site_type_symbol
_atom_site_fract_x
_atom_site_fract_y
_atom_site_fract_z
_atom_type_partial_charge
Dy0 Dy 0.05114 0.22165 0.96313 0.0
C1 C 0.96965 0.09355 0.04967 0.0
C2 C 0.08156 0.27859 0.86765 0.0
Dy3 Dy 1.00373 0.15565 0.00714 0.0
O4 O 0.09054 0.27084 0.95488 0.0
O5 O 0.05609 0.25521 0.83249 0.0
O6 O 0.07386 0.22729 0.12433 0.0
O7 O 1.02608 0.19689 0.10904 0.0
C8 C 0.04905 0.20626 0.17175 0.0
C9 C 1.00846 0.17307 0.79864 0.0
O10 O 0.97705 0.17706 0.07015 0.0
O11 O 1.00684 0.2233 0.9807 0.0
O12 O 0.99557 0.11275 0.09659 0.0
O13 O 0.96185 0.10861 0.98386 0.0
O14 O 0.98273 0.15448 0.84561 0.0
O15 O 0.03055 0.18037 0.86327 0.0
O16 O 0.08043 0.20035 0.93199 0.0
O17 O 0.04821 0.15551 0.02519 0.0
C18 C 0.98146 0.20397 0.03473 0.0
C19 C 0.07525 0.17474 0.98144 0.0
Dy20 Dy 0.83283 0.84396 0.90709 0.0
C21 C 0.95607 0.87013 0.00131 0.0
C22 C 0.77713 0.82417 0.80591 0.0
Dy23 Dy 0.89569 0.85275 0.95516 0.0
O24 O 0.78565 0.83954 0.89621 0.0
O25 O 0.79915 0.82001 0.77075 0.0
O26 O 0.83 0.86238 0.06869 0.0
O27 O 0.85463 0.83871 0.05406 0.0
C28 C 0.84822 0.85459 0.11686 0.0
C29 C 0.87835 0.8427 0.74569 0.0
O30 O 0.8675 0.80394 0.01297 0.0
O31 O 0.82347 0.79492 0.92039 0.0
O32 O 0.93917 0.85099 0.92644 0.0
O33 O 0.9396 0.87913 0.05433 0.0
O34 O 0.89358 0.83156 0.79361 0.0
O35 O 0.87415 0.85968 0.8102 0.0
O36 O 0.86064 0.89488 0.88024 0.0
O37 O 0.90396 0.90112 0.97132 0.0
C38 C 0.83951 0.78465 0.97433 0.0
C39 C 0.88755 0.91268 0.92877 0.0
Dy40 Dy 0.20924 1.00514 -0.00802 0.0
C41 C 0.17824 0.09877 0.09063 0.0
C42 C 0.22399 0.96646 0.88479 0.0
Dy43 Dy 0.19233 0.05414 0.03995 0.0
O44 O 0.22443 0.9905 0.84384 0.0
O45 O 0.21449 0.96286 0.98436 0.0
O46 O 0.23072 1.0103 0.15553 0.0
O47 O 0.19342 1.01818 0.13708 0.0
C48 C 0.21375 0.01981 0.20221 0.0
C49 C 0.18743 0.03691 0.83096 0.0
O50 O 0.24254 0.07994 0.08303 0.0
O51 O 0.25633 0.04755 -0.0032 0.0
O52 O 0.19385 0.09905 0.0068 0.0
O53 O 0.17159 0.07474 0.1495 0.0
O54 O 0.16828 0.04317 0.8787 0.0
O55 O 0.20872 0.0412 0.89577 0.0
O56 O 0.15652 0.97688 -0.01183 0.0
O57 O 0.14759 1.01243 0.07694 0.0
C58 C 0.26375 0.07353 0.04886 0.0
C59 C 0.13762 0.98444 0.0378 0.0
Dy60 Dy 0.72522 0.55932 0.32227 0.0
C61 C 0.63387 0.43391 0.41001 0.0
C62 C 0.76268 0.61683 0.2376 0.0
Dy63 Dy 0.67258 0.49503 0.36228 0.0
O64 O 0.7676 0.60666 0.3277 0.0
O65 O 0.73731 0.59551 0.19333 0.0
O66 O 0.74653 0.56031 0.48225 0.0
O67 O 0.69814 0.53546 0.46599 0.0
C68 C 0.7205 0.54168 0.52886 0.0
C69 C 0.67904 0.51398 0.15594 0.0
O70 O 0.64815 0.51994 0.41361 0.0
O71 O 0.68457 0.56705 0.34067 0.0
O72 O 0.63163 0.44824 0.32641 0.0
O73 O 0.65679 0.45329 0.47018 0.0
O74 O 0.65268 0.4971 0.20241 0.0
O75 O 0.70066 0.51875 0.21992 0.0
O76 O 0.74982 0.53349 0.28602 0.0
O77 O 0.71408 0.48886 0.37282 0.0
C78 C 0.65708 0.5487 0.38461 0.0
C79 C 0.74173 0.50635 0.3298 0.0
Dy80 Dy 0.4979 0.18098 0.31779 0.0
C81 C 0.62342 0.21967 0.42562 0.0
C82 C 0.44192 0.1569 0.21507 0.0
Dy83 Dy 0.56263 0.19546 0.36732 0.0
O84 O 0.44942 0.17306 0.3037 0.0
O85 O 0.46506 0.15422 0.18248 0.0
O86 O 0.49304 0.19838 0.47923 0.0
O87 O 0.52103 0.17834 0.46533 0.0
C88 C 0.5128 0.19279 0.52791 0.0
C89 C 0.54626 0.1845 0.15687 0.0
O90 O 0.53803 0.14666 0.4257 0.0
O91 O 0.4925 0.13339 0.33507 0.0
O92 O 0.60881 0.19815 0.35438 0.0
O93 O 0.60446 0.22723 0.46812 0.0
O94 O 0.56393 0.17621 0.20486 0.0
O95 O 0.53969 0.19974 0.22148 0.0
O96 O 0.52231 0.23196 0.28751 0.0
O97 O 0.56663 0.24202 0.38051 0.0
C98 C 0.51049 0.12546 0.38911 0.0
C99 C 0.54878 0.25147 0.33552 0.0
Dy100 Dy 0.87564 0.33014 0.30659 0.0
C101 C 0.84001 0.42213 0.40104 0.0
C102 C 0.89648 0.29593 0.20359 0.0
Dy103 Dy 0.8622 0.38397 0.34601 0.0
O104 O 0.88329 0.28942 0.29801 0.0
O105 O 0.89787 0.32077 0.16574 0.0
O106 O 0.86711 0.31612 0.48158 0.0
O107 O 0.88314 0.3621 0.43598 0.0
C108 C 0.87266 0.34328 0.51269 0.0
C109 C 0.86396 0.36859 0.14042 0.0
O110 O 0.91344 0.40929 0.37808 0.0
O111 O 0.92285 0.37323 0.29437 0.0
O112 O 0.85803 0.42617 0.32002 0.0
O113 O 0.83517 0.39784 0.45522 0.0
O114 O 0.87234 0.39648 0.17032 0.0
O115 O 0.85303 0.35057 0.21884 0.0
O116 O 0.82393 0.30354 0.29985 0.0
O117 O 0.81651 0.34121 0.38161 0.0
C118 C 0.93284 0.40107 0.33713 0.0
C119 C 0.80593 0.31236 0.34821 0.0
Dy120 Dy 0.37953 0.89092 0.64859 0.0
C121 C 0.29573 0.76429 0.74527 0.0
C122 C 0.41142 0.94762 0.552 0.0
Dy123 Dy 0.33075 0.82551 0.69332 0.0
O124 O 0.4197 0.93972 0.64056 0.0
O125 O 0.38583 0.92452 0.51623 0.0
O126 O 0.40219 0.89571 0.80961 0.0
O127 O 0.3542 0.86673 0.79455 0.0
C128 C 0.37705 0.87533 0.85726 0.0
C129 C 0.33562 0.84275 0.48454 0.0
O130 O 0.30512 0.84805 0.75515 0.0
O131 O 0.33605 0.89433 0.66732 0.0
O132 O 0.28875 0.77845 0.67262 0.0
O133 O 0.32137 0.7839 0.7927 0.0
O134 O 0.30974 0.82457 0.53179 0.0
O135 O 0.35766 0.84959 0.54904 0.0
O136 O 0.40747 0.86801 0.61642 0.0
O137 O 0.37403 0.82289 0.70583 0.0
C138 C 0.31036 0.87532 0.72075 0.0
C139 C 0.40124 0.84156 0.66218 0.0
Dy140 Dy 0.16209 0.512 0.65523 0.0
C141 C 0.29195 0.55197 0.73422 0.0
C142 C 0.10324 0.49177 0.58125 0.0
Dy143 Dy 0.23061 0.52723 0.68251 0.0
O144 O 0.11416 0.50504 0.67392 0.0
O145 O 0.12446 0.48949 0.52919 0.0
O146 O 0.16198 0.52933 0.82202 0.0
O147 O 0.19079 0.5113 0.78675 0.0
C148 C 0.18488 0.52614 0.85514 0.0
C149 C 0.20744 0.51409 0.48217 0.0
O150 O 0.20566 0.47796 0.73808 0.0
O151 O 0.15752 0.46472 0.66503 0.0
O152 O 0.27261 0.55776 0.78383 0.0
O153 O 0.27751 0.53187 0.65827 0.0
O154 O 0.2295 0.50964 0.51489 0.0
O155 O 0.20222 0.52911 0.55183 0.0
O156 O 0.18674 0.56283 0.62276 0.0
O157 O 0.23427 0.5737 0.69427 0.0
C158 C 0.17698 0.45696 0.70941 0.0
C159 C 0.21476 0.58258 0.66019 0.0
Dy160 Dy 0.54709 0.67391 0.64638 0.0
C161 C 0.50171 0.75953 0.72698 0.0
C162 C 0.57693 0.64338 0.58252 0.0
Dy163 Dy 0.52686 0.72362 0.67653 0.0
O164 O 0.5863 0.66444 0.65673 0.0
O165 O 0.55066 0.63836 0.54307 0.0
O166 O 0.53494 0.6588 0.81835 0.0
O167 O 0.54942 0.70459 0.7731 0.0
C168 C 0.5383 0.68525 0.84794 0.0
C169 C 0.53392 0.71036 0.47393 0.0
O170 O 0.57732 0.75131 0.71369 0.0
O171 O 0.58947 0.7203 0.61071 0.0
O172 O 0.52051 0.76444 0.64771 0.0
O173 O 0.4974 0.73544 0.78139 0.0
O174 O 0.53814 0.73708 0.5025 0.0
O175 O 0.52342 0.6919 0.55105 0.0
O176 O 0.49556 0.64251 0.64234 0.0
O177 O 0.48259 0.67877 0.70329 0.0
C178 C 0.59801 0.74641 0.66445 0.0
C179 C 0.4751 0.64999 0.67826 0.0
H180 H 0.13773 0.32739 0.91923 0.0
H181 H 0.05927 0.29964 0.70856 0.0
H182 H 0.08245 0.35209 0.63704 0.0
H183 H 0.12385 0.40641 0.64081 0.0
H184 H 0.20297 0.43393 0.84866 0.0
H185 H 0.1809 0.38105 0.91365 0.0
C186 C 0.12584 0.33284 0.85719 0.0
C187 C 0.09676 0.3098 0.81977 0.0
C188 C 0.13942 0.36302 0.81589 0.0
C189 C 0.08167 0.31704 0.7388 0.0
C190 C 0.09489 0.34703 0.69799 0.0
C191 C 0.13639 0.40083 0.69978 0.0
C192 C 0.16495 0.42425 0.74021 0.0
C193 C 0.12358 0.37031 0.73689 0.0
C194 C 0.18098 0.41645 0.81586 0.0
C195 C 0.16831 0.38619 0.85358 0.0
H196 H 0.73043 0.83447 0.86061 0.0
H197 H 0.75402 0.78281 0.64087 0.0
H198 H 0.7012 0.75585 0.57052 0.0
H199 H 0.64733 0.74411 0.58129 0.0
H200 H 0.62388 0.79639 0.79954 0.0
H201 H 0.67752 0.82617 0.85883 0.0
C202 C 0.72403 0.81755 0.79652 0.0
C203 C 0.74599 0.81043 0.75667 0.0
C204 C 0.69358 0.80219 0.75606 0.0
C205 C 0.7375 0.78863 0.67312 0.0
C206 C 0.70726 0.77315 0.63295 0.0
C207 C 0.65398 0.76233 0.64059 0.0
C208 C 0.63139 0.76773 0.68625 0.0
C209 C 0.68496 0.77934 0.67514 0.0
C210 C 0.64063 0.79159 0.76279 0.0
C211 C 0.67135 0.80859 0.79739 0.0
H212 H 0.22411 0.91513 0.9568 0.0
H213 H 0.2551 0.98065 0.69483 0.0
H214 H 0.28384 0.95771 0.61804 0.0
H215 H 0.30315 0.92123 0.63213 0.0
H216 H 0.27062 0.8545 0.89073 0.0
H217 H 0.23951 0.87548 0.9612 0.0
C218 C 0.23682 0.92406 0.88216 0.0
C219 C 0.23767 0.94965 0.83206 0.0
C220 C 0.25325 0.91067 0.83807 0.0
C221 C 0.25412 0.96096 0.73508 0.0
C222 C 0.27068 0.94794 0.69129 0.0
C223 C 0.28905 0.91115 0.70337 0.0
C224 C 0.28941 0.88648 0.75632 0.0
C225 C 0.27092 0.92316 0.74319 0.0
C226 C 0.27075 0.87345 0.848 0.0
C227 C 0.253 0.88551 0.88879 0.0
H228 H 0.39282 0.16363 0.26572 0.0
H229 H 0.42168 0.11538 0.05021 0.0
H230 H 0.36949 0.0864 0.97495 0.0
H231 H 0.3149 0.0726 0.97786 0.0
H232 H 0.28631 0.12164 0.19158 0.0
H233 H 0.33902 0.15258 0.25877 0.0
C234 C 0.38768 0.14695 0.20168 0.0
C235 C 0.41096 0.14146 0.16415 0.0
C236 C 0.35762 0.13044 0.15844 0.0
C237 C 0.4041 0.11994 0.08066 0.0
C238 C 0.37425 0.10332 0.03771 0.0
C239 C 0.32022 0.09025 0.03837 0.0
C240 C 0.2965 0.09457 0.0798 0.0
C241 C 0.35069 0.10804 0.07705 0.0
C242 C 0.30399 0.11774 0.15782 0.0
C243 C 0.33418 0.13542 0.19686 0.0
H244 H 0.89415 0.24282 0.26823 0.0
H245 H 0.93142 0.31322 0.02228 0.0
H246 H 0.95976 0.29003 0.94429 0.0
H247 H 0.97658 0.25173 0.95277 0.0
H248 H 0.93873 0.18061 0.19647 0.0
H249 H 0.90781 0.20182 0.2675 0.0
C250 C 0.90825 0.25285 0.19696 0.0
C251 C 0.91093 0.27981 0.1516 0.0
C252 C 0.92446 0.23932 0.15221 0.0
C253 C 0.92909 0.29251 0.05889 0.0
C254 C 0.94536 0.27931 0.01433 0.0
C255 C 0.96136 0.2407 0.02083 0.0
C256 C 0.96017 0.21475 0.06956 0.0
C257 C 0.94363 0.25302 0.06137 0.0
C258 C 0.94008 0.20057 0.1571 0.0
C259 C 0.92248 0.21278 0.19824 0.0
H260 H 0.8549 0.75725 0.13459 0.0
H261 H 0.78863 0.73741 0.87857 0.0
H262 H 0.75987 0.68344 0.93395 0.0
H263 H 0.75187 0.64229 0.061 0.0
H264 H 0.81693 0.66236 0.32097 0.0
H265 H 0.84781 0.71564 0.25814 0.0
C266 C 0.8344 0.74104 0.09002 0.0
C267 C 0.82397 0.75142 0.00253 0.0
C268 C 0.81759 0.71005 0.12355 0.0
C269 C 0.79714 0.73012 0.94646 0.0
C270 C 0.78063 0.69921 0.97812 0.0
C271 C 0.77294 0.6583 0.10332 0.0
C272 C 0.7821 0.64848 0.19552 0.0
C273 C 0.79037 0.689 0.06749 0.0
C274 C 0.80938 0.66943 0.24982 0.0
C275 C 0.82704 0.6999 0.21396 0.0
H276 H 0.07658 0.45915 0.39797 0.0
H277 H 0.05798 0.49783 0.67942 0.0
H278 H 1.00417 0.47603 0.62224 0.0
H279 H 0.9615 0.44292 0.49878 0.0
H280 H 0.97961 0.40198 0.22254 0.0
H281 H 0.03441 0.42798 0.27004 0.0
C282 C 0.06077 0.46298 0.44625 0.0
C283 C 0.07117 0.47994 0.543 0.0
C284 C 0.02973 0.44999 0.41362 0.0
C285 C 0.05047 0.48473 0.60483 0.0
C286 C 1.0197 0.47229 0.57212 0.0
C287 C 0.97755 0.44021 0.44773 0.0
C288 C 0.96648 0.42063 0.35695 0.0
C289 C 1.00894 0.45452 0.47741 0.0
C290 C 0.98753 0.41693 0.29281 0.0
C291 C 1.01887 0.4317 0.32017 0.0
H292 H 0.55651 0.58583 0.49744 0.0
H293 H 0.63891 0.67075 0.58269 0.0
H294 H 0.67097 0.6497 0.5225 0.0
H295 H 0.67581 0.60686 0.45021 0.0
H296 H 0.59402 0.51976 0.38242 0.0
H297 H 0.5615 0.54169 0.431 0.0
C298 C 0.58148 0.59964 0.50215 0.0
C299 C 0.5954 0.62981 0.54377 0.0
C300 C 0.59985 0.58694 0.47078 0.0
C301 C 0.62772 0.64742 0.5511 0.0
C302 C 0.64607 0.63543 0.51657 0.0
C303 C 0.65086 0.59276 0.44526 0.0
C304 C 0.63729 0.56188 0.41171 0.0
C305 C 0.63242 0.6052 0.47686 0.0
C306 C 0.60495 0.54365 0.40789 0.0
C307 C 0.58638 0.55619 0.43557 0.0
H308 H 0.45804 0.07499 0.31541 0.0
H309 H 0.53406 0.10245 0.53831 0.0
H310 H 0.51067 0.04972 0.60594 0.0
H311 H 0.46714 0.99624 0.60917 0.0
H312 H 0.3916 0.96858 0.38466 0.0
H313 H 0.41625 0.02082 0.3104 0.0
C314 C 0.46963 0.06942 0.37822 0.0
C315 C 0.49771 0.09279 0.422 0.0
C316 C 0.45602 0.03898 0.41705 0.0
C317 C 0.51247 0.08501 0.50283 0.0
C318 C 0.49904 0.05484 0.54204 0.0
C319 C 0.45621 1.00166 0.54356 0.0
C320 C 0.42751 0.97871 0.50298 0.0
C321 C 0.4706 0.03173 0.50092 0.0
C322 C 0.41367 0.98591 0.41746 0.0
C323 C 0.42774 1.01578 0.37505 0.0
H324 H 0.18144 0.14217 0.95085 0.0
H325 H 0.13895 0.09513 0.24812 0.0
H326 H 0.10427 0.11613 0.24263 0.0
H327 H 0.08242 0.14305 0.14367 0.0
H328 H 0.12433 0.19045 0.84659 0.0
H329 H 0.16298 0.17415 0.86149 0.0
C330 C 0.16504 0.13711 0.01562 0.0
C331 C 0.16257 0.11696 0.09944 0.0
C332 C 0.14477 0.14885 0.01084 0.0
C333 C 0.14126 0.11056 0.18281 0.0
C334 C 0.12126 0.12236 0.17925 0.0
C335 C 0.10008 0.1499 0.08223 0.0
C336 C 0.10022 0.16736 -0.00707 0.0
C337 C 0.12216 0.14066 0.09188 0.0
C338 C 0.12366 0.17678 0.91552 0.0
C339 C 0.14569 0.16745 0.92407 0.0
H340 H 0.9333 0.95348 0.06227 0.0
H341 H 0.86713 0.94727 0.82398 0.0
H342 H 0.88514 1.00216 0.84686 0.0
H343 H 0.9207 0.05231 0.93048 0.0
H344 H 0.98694 0.05868 0.16813 0.0
H345 H 0.96751 1.00323 0.15097 0.0
C346 C 0.92289 0.96412 0.01481 0.0
C347 C 0.89907 0.94624 0.94054 0.0
C348 C 0.93316 0.99568 0.02916 0.0
C349 C 0.88558 0.96042 0.88122 0.0
C350 C 0.89582 0.99183 0.89448 0.0
C351 C 0.9306 0.04147 0.9796 0.0
C352 C 0.95517 0.05953 0.05072 0.0
C353 C 0.91964 1.0097 0.96795 0.0
C354 C 0.9679 0.04523 0.1133 0.0
C355 C 0.95693 1.01357 0.10291 0.0
H356 H 0.99537 0.91414 0.14172 0.0
H357 H 0.99303 0.85793 0.87432 0.0
H358 H 0.04946 0.88641 0.8662 0.0
H359 H 0.09964 0.93098 0.92435 0.0
H360 H 0.10069 0.98687 0.19172 0.0
H361 H 0.04519 0.9549 0.21076 0.0
C362 C 1.00725 0.9078 0.08294 0.0
C363 C 0.99005 0.88411 0.0085 0.0
C364 C 0.0397 0.92451 0.07783 0.0
C365 C 1.00577 0.87614 0.93266 0.0
C366 C 0.03808 0.89252 0.92758 0.0
C367 C 0.08775 0.9358 -0.01231 0.0
C368 C 0.10441 0.96166 0.05506 0.0
C369 C 0.05535 0.91732 -0.00191 0.0
C370 C 0.08853 0.96751 0.13705 0.0
C371 C 0.05666 0.94917 0.14847 0.0
H372 H 0.74139 0.46352 0.4653 0.0
H373 H 0.793 0.5249 0.20446 0.0
H374 H 0.82953 0.50597 0.20952 0.0
H375 H 0.8453 0.47011 0.28233 0.0
H376 H 0.79401 0.40934 0.54466 0.0
H377 H 0.75914 0.43027 0.54603 0.0
C378 C 0.76059 0.47273 0.40932 0.0
C379 C 0.76421 0.49531 0.33356 0.0
C380 C 0.78169 0.46202 0.41362 0.0
C381 C 0.78957 0.50741 0.26315 0.0
C382 C 0.81049 0.49661 0.26609 0.0
C383 C 0.82677 0.4618 0.34088 0.0
C384 C 0.82219 0.43819 0.41324 0.0
C385 C 0.80663 0.47374 0.34038 0.0
C386 C 0.79807 0.42759 0.48849 0.0
C387 C 0.778 0.43939 0.48874 0.0
H388 H 0.58714 0.39182 0.28415 0.0
H389 H 0.64381 0.39994 0.55986 0.0
H390 H 0.62169 0.34394 0.56248 0.0
H391 H 0.58898 0.29326 0.47898 0.0
H392 H 0.53161 0.28458 0.20467 0.0
H393 H 0.55123 0.34027 0.20891 0.0
C394 C 0.59429 0.38125 0.34576 0.0
C395 C 0.61715 0.39996 0.42156 0.0
C396 C 0.58162 0.34904 0.34616 0.0
C397 C 0.62621 0.38602 0.50092 0.0
C398 C 0.6137 0.35402 0.50198 0.0
C399 C 0.58072 0.30351 0.42005 0.0
C400 C 0.55918 0.28484 0.34057 0.0
C401 C 0.59189 0.33541 0.42364 0.0
C402 C 0.54827 0.29843 0.26631 0.0
C403 C 0.55951 0.33028 0.26869 0.0
H404 H 0.66522 0.20863 0.32708 0.0
H405 H 0.65772 0.27075 0.54956 0.0
H406 H 0.71385 0.30438 0.5487 0.0
H407 H 0.76455 0.318 0.47424 0.0
H408 H 0.77208 0.25593 0.25096 0.0
H409 H 0.7165 0.2204 0.26289 0.0
C410 C 0.67595 0.22929 0.37667 0.0
C411 C 0.65739 0.23726 0.43809 0.0
C412 C 0.7082 0.24869 0.37468 0.0
C413 C 0.67153 0.26409 0.50183 0.0
C414 C 0.70361 0.28342 0.50083 0.0
C415 C 0.7541 0.29666 0.42839 0.0
C416 C 0.7725 0.28986 0.36081 0.0
C417 C 0.7221 0.27629 0.43572 0.0
C418 C 0.75854 0.26185 0.30331 0.0
C419 C 0.7267 0.24151 0.30997 0.0
H420 H 0.5063 0.80746 0.60899 0.0
H421 H 0.45579 0.7461 0.87114 0.0
H422 H 0.42087 0.76691 0.87578 0.0
H423 H 0.40275 0.79997 0.79802 0.0
H424 H 0.45303 0.86186 0.53667 0.0
H425 H 0.49011 0.84348 0.53916 0.0
C426 C 0.4879 0.79898 0.66811 0.0
C427 C 0.48354 0.77521 0.7395 0.0
C428 C 0.46773 0.8109 0.66963 0.0
C429 C 0.45964 0.76441 0.81558 0.0
C430 C 0.43957 0.77619 0.81783 0.0
C431 C 0.42183 0.80951 0.74147 0.0
C432 C 0.42487 0.83198 0.66618 0.0
C433 C 0.44305 0.79897 0.74388 0.0
C434 C 0.45007 0.84447 0.59507 0.0
C435 C 0.47125 0.83393 0.59644 0.0
H436 H 0.25956 0.62522 0.7895 0.0
H437 H 0.19191 0.61436 0.54982 0.0
H438 H 0.20943 0.66953 0.56161 0.0
H439 H 0.24581 0.72127 0.63388 0.0
H440 H 0.31299 0.73155 0.87444 0.0
H441 H 0.29347 0.676 0.8697 0.0
C442 C 0.24867 0.6349 0.73946 0.0
C443 C 0.22476 0.61579 0.66762 0.0
C444 C 0.25863 0.66646 0.74755 0.0
C445 C 0.21048 0.6286 0.60524 0.0
C446 C 0.22048 0.66012 0.61205 0.0
C447 C 0.25583 0.71124 0.68641 0.0
C448 C 0.28082 0.73042 0.75435 0.0
C449 C 0.24471 0.67932 0.68227 0.0
C450 C 0.29367 0.71722 0.82179 0.0
C451 C 0.28266 0.6855 0.81855 0.0
H452 H 0.43192 0.65087 0.80705 0.0
H453 H 0.44392 0.59499 0.5688 0.0
H454 H 0.38826 0.55824 0.57031 0.0
H455 H 0.33556 0.54423 0.62967 0.0
H456 H 0.32451 0.60024 0.87012 0.0
H457 H 0.38037 0.63453 0.87801 0.0
C458 C 0.42242 0.63055 0.75584 0.0
C459 C 0.44203 0.62589 0.68693 0.0
C460 C 0.3905 0.60956 0.75743 0.0
C461 C 0.42937 0.59916 0.62254 0.0
C462 C 0.39751 0.5782 0.62307 0.0
C463 C 0.34547 0.5637 0.68488 0.0
C464 C 0.32591 0.5698 0.7488 0.0
C465 C 0.37776 0.58346 0.6888 0.0
C466 C 0.33904 0.59505 0.82008 0.0
C467 C 0.37099 0.61475 0.82431 0.0
H468 H 0.06124 0.20231 0.67961 0.0
H469 H 0.96192 0.15448 0.65293 0.0
H470 H 0.96556 0.15966 0.45656 0.0
H471 H 0.99683 0.17729 0.29185 0.0
H472 H 0.09615 0.22562 0.31685 0.0
H473 H 0.0927 0.22047 0.51381 0.0
C474 C 0.04046 0.19315 0.63061 0.0
C475 C 1.01137 0.17797 0.68051 0.0
C476 C 0.0427 0.19608 0.51735 0.0
C477 C 0.98459 0.16621 0.6163 0.0
C478 C 0.98663 0.16909 0.50396 0.0
C479 C 1.0177 0.18656 0.34043 0.0
C480 C 0.04669 0.20177 0.2901 0.0
C481 C 1.01553 0.18381 0.45353 0.0
C482 C 0.07355 0.21382 0.35398 0.0
C483 C 0.0716 0.21094 0.46655 0.0
H484 H 0.85543 0.87239 0.62461 0.0
H485 H 0.89049 0.8096 0.60135 0.0
H486 H 0.88511 0.80825 0.40497 0.0
H487 H 0.87092 0.82521 0.23893 0.0
H488 H 0.83527 0.8875 0.26071 0.0
H489 H 0.84064 0.88899 0.45764 0.0
C490 C 0.86177 0.85837 0.57637 0.0
C491 C 0.87342 0.8412 0.62734 0.0
C492 C 0.85872 0.85777 0.46298 0.0
C493 C 0.88152 0.82309 0.56399 0.0
C494 C 0.87852 0.82234 0.45158 0.0
C495 C 0.86446 0.8392 0.28682 0.0
C496 C 0.85276 0.85624 0.23544 0.0
C497 C 0.86732 0.8397 0.40007 0.0
C498 C 0.84433 0.87414 0.29852 0.0
C499 C 0.84734 0.87498 0.41115 0.0
H500 H 0.23244 0.03602 0.7091 0.0
H501 H 0.14318 0.02904 0.68612 0.0
H502 H 0.14369 0.02427 0.48969 0.0
H503 H 0.16947 0.022 0.32337 0.0
H504 H 0.25798 0.02734 0.34664 0.0
H505 H 0.25778 0.03271 0.5431 0.0
C506 C 0.21297 0.03309 0.66118 0.0
C507 C 0.18774 0.0327 0.71235 0.0
C508 C 0.21335 0.03023 0.54791 0.0
C509 C 0.16289 0.02937 0.64881 0.0
C510 C 0.16316 0.02668 0.53634 0.0
C511 C 0.18875 0.02449 0.37153 0.0
C512 C 0.21371 0.02431 0.32058 0.0
C513 C 0.1883 0.02717 0.48483 0.0
C514 C 0.23846 0.02737 0.38404 0.0
C515 C 0.23836 0.03042 0.49643 0.0
H516 H 0.66837 0.51918 0.64913 0.0
H517 H 0.76645 0.55458 0.67327 0.0
H518 H 0.76272 0.55017 0.87025 0.0
H519 H 0.7315 0.53653 0.03625 0.0
H520 H 0.63348 0.50151 0.0111 0.0
H521 H 0.6373 0.50587 0.81449 0.0
C522 C 0.68886 0.52575 0.69759 0.0
C523 C 0.71761 0.53715 0.64703 0.0
C524 C 0.68661 0.5235 0.81077 0.0
C525 C 0.74404 0.54574 0.71062 0.0
C526 C 0.74195 0.54331 0.8232 0.0
C527 C 0.71106 0.53002 -0.01244 0.0
C528 C 0.68227 0.51868 0.03786 0.0
C529 C 0.71338 0.53238 0.87428 0.0
C530 C 0.65592 0.51027 0.97406 0.0
C531 C 0.65805 0.51267 0.86162 0.0
H532 H 0.54099 0.16859 0.64907 0.0
H533 H 0.49444 0.22106 0.67327 0.0
H534 H 0.49995 0.22276 0.87022 0.0
H535 H 0.51794 0.2091 0.03658 0.0
H536 H 0.56402 0.15617 0.01089 0.0
H537 H 0.55853 0.15465 0.81445 0.0
C538 C 0.53216 0.18049 0.69747 0.0
C539 C 0.51734 0.19469 0.64668 0.0
C540 C 0.53517 0.18114 0.81077 0.0
C541 C 0.50592 0.20993 0.71051 0.0
C542 C 0.50902 0.21087 0.82318 0.0
C543 C 0.52667 0.19718 -0.01218 0.0
C544 C 0.54143 0.18283 0.03824 0.0
C545 C 0.52352 0.19646 0.87438 0.0
C546 C 0.55261 0.16744 0.97409 0.0
C547 C 0.54954 0.1666 0.86163 0.0
H548 H 0.85341 0.30649 0.68892 0.0
H549 H 0.89045 0.4008 0.58536 0.0
H550 H 0.89144 0.41706 0.77158 0.0
H551 H 0.88243 0.40463 0.9638 0.0
H552 H 0.84371 0.31024 0.06831 0.0
H553 H 0.84296 0.29379 0.88183 0.0
C554 C 0.86162 0.33054 0.70752 0.0
C555 C 0.87201 0.35245 0.62445 0.0
C556 C 0.86201 0.33971 0.81465 0.0
C557 C 0.88245 0.38355 0.64857 0.0
C558 C 0.88306 0.39289 0.75486 0.0
C559 C 0.87386 0.38049 0.94549 0.0
C560 C 0.86349 0.3587 0.02883 0.0
C561 C 0.87305 0.3712 0.83847 0.0
C562 C 0.85216 0.32744 0.00484 0.0
C563 C 0.85161 0.31801 0.89846 0.0
H564 H 0.38852 0.87112 0.36567 0.0
H565 H 0.28928 0.82476 0.33797 0.0
H566 H 0.29316 0.82989 0.14152 0.0
H567 H 0.32465 0.84712 0.97699 0.0
H568 H 0.4239 0.89396 0.00324 0.0
H569 H 0.42017 0.88882 0.20019 0.0
C570 C 0.3678 0.86226 0.31647 0.0
C571 C 0.33866 0.84752 0.36619 0.0
C572 C 0.37019 0.86517 0.20316 0.0
C573 C 0.31198 0.83616 0.30159 0.0
C574 C 0.31417 0.83901 0.18918 0.0
C575 C 0.34544 0.85607 0.02584 0.0
C576 C 0.3745 0.87086 0.97576 0.0
C577 C 0.34312 0.85331 0.139 0.0
C578 C 0.40125 0.88248 0.04006 0.0
C579 C 0.39914 0.8796 0.15266 0.0
H580 H 0.14848 0.49344 0.01915 0.0
H581 H 0.24127 0.56373 0.94137 0.0
H582 H 0.25694 0.56602 0.13086 0.0
H583 H 0.24376 0.54771 0.31873 0.0
H584 H 0.15171 0.47528 0.39368 0.0
H585 H 0.13572 0.47405 0.20554 0.0
C586 C 0.17203 0.50931 0.04457 0.0
C587 C 0.19386 0.5284 0.96834 0.0
C588 C 0.18076 0.51011 0.15265 0.0
C589 C 0.22439 0.54871 -0.0001 0.0
C590 C 0.23323 0.55005 0.10779 0.0
C591 C 0.22027 0.53171 0.29307 0.0
C592 C 0.1985 0.51226 0.36893 0.0
C593 C 0.21162 0.53076 0.18471 0.0
C594 C 0.16826 0.49128 0.33642 0.0
C595 C 0.15931 0.49035 0.22897 0.0
H596 H 0.54589 0.7454 0.29711 0.0
H597 H 0.52044 0.65371 0.40402 0.0
H598 H 0.51843 0.63721 0.21709 0.0
H599 H 0.52421 0.64922 0.02387 0.0
H600 H 0.54838 0.74069 0.91768 0.0
H601 H 0.54988 0.75688 0.10436 0.0
C602 C 0.54003 0.72187 0.27916 0.0
C603 C 0.53375 0.70085 0.36289 0.0
C604 C 0.53831 0.71249 0.17219 0.0
C605 C 0.52586 0.67033 0.33986 0.0
C606 C 0.52446 0.66084 0.23337 0.0
C607 C 0.52958 0.67258 0.04199 0.0
C608 C 0.53638 0.69383 0.95858 0.0
C609 C 0.53063 0.68176 0.14903 0.0
C610 C 0.54321 0.72404 0.98166 0.0
C611 C 0.54418 0.73334 0.08801 0.0
loop_
_geom_bond_atom_site_label_1
_geom_bond_atom_site_label_2
_geom_bond_distance
_geom_bond_site_symmetry_2
_ccdc_geom_bond_type
Dy0 O4 2.398 . S
Dy0 O5 2.491 1_554 S
Dy0 O6 2.403 . S
Dy0 O7 2.664 . S
Dy0 O11 2.330 . S
Dy0 O15 2.310 1_554 S
Dy0 O16 2.351 . S
C1 O12 1.185 1_554 S
C1 O13 1.355 . S
C2 O4 1.185 1_556 S
C2 O5 1.355 . S
Dy3 O7 2.310 1_655 S
Dy3 O10 2.351 . S
Dy3 O12 2.398 1_554 S
Dy3 O13 2.491 . S
Dy3 O14 2.403 1_554 S
Dy3 O15 2.664 1_654 S
Dy3 O17 2.326 1_654 S
O4 Dy0 2.398 . S
O4 C2 1.185 1_554 S
O5 Dy0 2.491 1_556 S
O5 C2 1.355 . S
O6 Dy0 2.403 . S
O6 C8 1.254 . S
O7 Dy0 2.664 . S
O7 Dy3 2.310 1_455 S
O7 C8 1.268 . S
C8 O6 1.254 . S
C8 O7 1.268 . S
C9 O14 1.254 . S
C9 O15 1.268 1_655 S
O10 Dy3 2.351 . S
O10 C18 1.249 . S
O11 Dy0 2.330 . S
O11 C18 1.264 1_455 S
O12 C1 1.185 1_556 S
O12 Dy3 2.398 1_556 S
O13 C1 1.355 . S
O13 Dy3 2.491 . S
O14 Dy3 2.403 1_556 S
O14 C9 1.254 . S
O15 Dy0 2.310 1_556 S
O15 Dy3 2.664 1_456 S
O15 C9 1.268 1_455 S
O16 Dy0 2.351 . S
O16 C19 1.249 1_554 S
O17 Dy3 2.326 1_456 S
O17 C19 1.267 . S
C18 O10 1.249 . S
C18 O11 1.264 1_655 S
C19 O16 1.249 1_556 S
C19 O17 1.267 . S
Dy20 O24 2.398 . S
Dy20 O25 2.491 1_554 S
Dy20 O26 2.403 . S
Dy20 O27 2.664 . S
Dy20 O31 2.326 . S
Dy20 O35 2.310 1_554 S
Dy20 O36 2.351 . S
C21 O32 1.185 1_554 S
C21 O33 1.355 . S
C22 O24 1.185 1_556 S
C22 O25 1.355 . S
Dy23 O27 2.310 . S
Dy23 O30 2.351 . S
Dy23 O32 2.398 1_554 S
Dy23 O33 2.491 . S
Dy23 O34 2.403 1_554 S
Dy23 O35 2.664 1_554 S
Dy23 O37 2.326 1_554 S
O24 Dy20 2.398 . S
O24 C22 1.185 1_554 S
O25 Dy20 2.491 1_556 S
O25 C22 1.355 . S
O26 Dy20 2.403 . S
O26 C28 1.254 . S
O27 Dy20 2.664 . S
O27 Dy23 2.310 . S
O27 C28 1.268 . S
C28 O26 1.254 . S
C28 O27 1.268 . S
C29 O34 1.254 . S
C29 O35 1.268 . S
O30 Dy23 2.351 . S
O30 C38 1.249 . S
O31 Dy20 2.326 . S
O31 C38 1.267 . S
O32 C21 1.185 1_556 S
O32 Dy23 2.398 1_556 S
O33 C21 1.355 . S
O33 Dy23 2.491 . S
O34 Dy23 2.403 1_556 S
O34 C29 1.254 . S
O35 Dy20 2.310 1_556 S
O35 Dy23 2.664 1_556 S
O35 C29 1.268 . S
O36 Dy20 2.351 . S
O36 C39 1.249 1_554 S
O37 Dy23 2.326 1_556 S
O37 C39 1.267 . S
C38 O30 1.249 . S
C38 O31 1.267 . S
C39 O36 1.249 1_556 S
C39 O37 1.267 . S
Dy40 O44 2.398 . S
Dy40 O45 2.491 1_554 S
Dy40 O46 2.403 . S
Dy40 O47 2.664 1_565 S
Dy40 O51 2.326 1_565 S
Dy40 O55 2.310 1_564 S
Dy40 O56 2.351 . S
C41 O52 1.185 1_554 S
C41 O53 1.355 . S
C42 O44 1.185 1_556 S
C42 O45 1.355 . S
Dy43 O47 2.310 . S
Dy43 O50 2.351 . S
Dy43 O52 2.398 1_554 S
Dy43 O53 2.491 . S
Dy43 O54 2.403 1_554 S
Dy43 O55 2.664 1_554 S
Dy43 O57 2.326 1_554 S
O44 Dy40 2.398 . S
O44 C42 1.185 1_554 S
O45 Dy40 2.491 1_556 S
O45 C42 1.355 . S
O46 Dy40 2.403 . S
O46 C48 1.254 . S
O47 Dy40 2.664 1_545 S
O47 Dy43 2.310 . S
O47 C48 1.268 1_545 S
C48 O46 1.254 . S
C48 O47 1.268 1_565 S
C49 O54 1.254 . S
C49 O55 1.268 . S
O50 Dy43 2.351 . S
O50 C58 1.249 . S
O51 Dy40 2.326 1_545 S
O51 C58 1.267 . S
O52 C41 1.185 1_556 S
O52 Dy43 2.398 1_556 S
O53 C41 1.355 . S
O53 Dy43 2.491 . S
O54 Dy43 2.403 1_556 S
O54 C49 1.254 . S
O55 Dy40 2.310 1_546 S
O55 Dy43 2.664 1_556 S
O55 C49 1.268 . S
O56 Dy40 2.351 . S
O56 C59 1.249 1_554 S
O57 Dy43 2.326 1_556 S
O57 C59 1.267 1_545 S
C58 O50 1.249 . S
C58 O51 1.267 . S
C59 O56 1.249 1_556 S
C59 O57 1.267 1_565 S
Dy60 O64 2.398 . S
Dy60 O65 2.491 . S
Dy60 O66 2.403 . S
Dy60 O67 2.664 . S
Dy60 O71 2.326 . S
Dy60 O75 2.310 . S
Dy60 O76 2.351 . S
C61 O72 1.185 . S
C61 O73 1.355 . S
C62 O64 1.185 . S
C62 O65 1.355 . S
Dy63 O67 2.310 . S
Dy63 O70 2.351 . S
Dy63 O72 2.398 . S
Dy63 O73 2.491 . S
Dy63 O74 2.403 . S
Dy63 O75 2.664 . S
Dy63 O77 2.326 . S
O64 Dy60 2.398 . S
O64 C62 1.185 . S
O65 Dy60 2.491 . S
O65 C62 1.355 . S
O66 Dy60 2.403 . S
O66 C68 1.254 . S
O67 Dy60 2.664 . S
O67 Dy63 2.310 . S
O67 C68 1.268 . S
C68 O66 1.254 . S
C68 O67 1.268 . S
C69 O74 1.254 . S
C69 O75 1.268 . S
O70 Dy63 2.351 . S
O70 C78 1.249 . S
O71 Dy60 2.326 . S
O71 C78 1.267 . S
O72 C61 1.185 . S
O72 Dy63 2.398 . S
O73 C61 1.355 . S
O73 Dy63 2.491 . S
O74 Dy63 2.403 . S
O74 C69 1.254 . S
O75 Dy60 2.310 . S
O75 Dy63 2.664 . S
O75 C69 1.268 . S
O76 Dy60 2.351 . S
O76 C79 1.249 . S
O77 Dy63 2.326 . S
O77 C79 1.267 . S
C78 O70 1.249 . S
C78 O71 1.267 . S
C79 O76 1.249 . S
C79 O77 1.267 . S
Dy80 O84 2.398 . S
Dy80 O85 2.491 . S
Dy80 O86 2.403 . S
Dy80 O87 2.664 . S
Dy80 O91 2.326 . S
Dy80 O95 2.310 . S
Dy80 O96 2.351 . S
C81 O92 1.185 . S
C81 O93 1.355 . S
C82 O84 1.185 . S
C82 O85 1.355 . S
Dy83 O87 2.310 . S
Dy83 O90 2.351 . S
Dy83 O92 2.398 . S
Dy83 O93 2.491 . S
Dy83 O94 2.403 . S
Dy83 O95 2.664 . S
Dy83 O97 2.326 . S
O84 Dy80 2.398 . S
O84 C82 1.185 . S
O85 Dy80 2.491 . S
O85 C82 1.355 . S
O86 Dy80 2.403 . S
O86 C88 1.254 . S
O87 Dy80 2.664 . S
O87 Dy83 2.310 . S
O87 C88 1.268 . S
C88 O86 1.254 . S
C88 O87 1.268 . S
C89 O94 1.254 . S
C89 O95 1.268 . S
O90 Dy83 2.351 . S
O90 C98 1.249 . S
O91 Dy80 2.326 . S
O91 C98 1.267 . S
O92 C81 1.185 . S
O92 Dy83 2.398 . S
O93 C81 1.355 . S
O93 Dy83 2.491 . S
O94 Dy83 2.403 . S
O94 C89 1.254 . S
O95 Dy80 2.310 . S
O95 Dy83 2.664 . S
O95 C89 1.268 . S
O96 Dy80 2.351 . S
O96 C99 1.249 . S
O97 Dy83 2.326 . S
O97 C99 1.267 . S
C98 O90 1.249 . S
C98 O91 1.267 . S
C99 O96 1.249 . S
C99 O97 1.267 . S
Dy100 O104 2.398 . S
Dy100 O105 2.491 . S
Dy100 O106 2.403 . S
Dy100 O107 2.664 . S
Dy100 O111 2.326 . S
Dy100 O115 2.310 . S
Dy100 O116 2.351 . S
C101 O112 1.185 . S
C101 O113 1.355 . S
C102 O104 1.185 . S
C102 O105 1.355 . S
Dy103 O107 2.310 . S
Dy103 O110 2.351 . S
Dy103 O112 2.398 . S
Dy103 O113 2.491 . S
Dy103 O114 2.403 . S
Dy103 O115 2.664 . S
Dy103 O117 2.326 . S
O104 Dy100 2.398 . S
O104 C102 1.185 . S
O105 Dy100 2.491 . S
O105 C102 1.355 . S
O106 Dy100 2.403 . S
O106 C108 1.254 . S
O107 Dy100 2.664 . S
O107 Dy103 2.310 . S
O107 C108 1.268 . S
C108 O106 1.254 . S
C108 O107 1.268 . S
C109 O114 1.254 . S
C109 O115 1.268 . S
O110 Dy103 2.351 . S
O110 C118 1.249 . S
O111 Dy100 2.326 . S
O111 C118 1.267 . S
O112 C101 1.185 . S
O112 Dy103 2.398 . S
O113 C101 1.355 . S
O113 Dy103 2.491 . S
O114 Dy103 2.403 . S
O114 C109 1.254 . S
O115 Dy100 2.310 . S
O115 Dy103 2.664 . S
O115 C109 1.268 . S
O116 Dy100 2.351 . S
O116 C119 1.249 . S
O117 Dy103 2.326 . S
O117 C119 1.267 . S
C118 O110 1.249 . S
C118 O111 1.267 . S
C119 O116 1.249 . S
C119 O117 1.267 . S
Dy120 O124 2.398 . S
Dy120 O125 2.491 . S
Dy120 O126 2.403 . S
Dy120 O127 2.664 . S
Dy120 O131 2.326 . S
Dy120 O135 2.310 . S
Dy120 O136 2.351 . S
C121 O132 1.185 . S
C121 O133 1.355 . S
C122 O124 1.185 . S
C122 O125 1.355 . S
Dy123 O127 2.310 . S
Dy123 O130 2.351 . S
Dy123 O132 2.398 . S
Dy123 O133 2.491 . S
Dy123 O134 2.403 . S
Dy123 O135 2.664 . S
Dy123 O137 2.326 . S
O124 Dy120 2.398 . S
O124 C122 1.185 . S
O125 Dy120 2.491 . S
O125 C122 1.355 . S
O126 Dy120 2.403 . S
O126 C128 1.254 . S
O127 Dy120 2.664 . S
O127 Dy123 2.310 . S
O127 C128 1.268 . S
C128 O126 1.254 . S
C128 O127 1.268 . S
C129 O134 1.254 . S
C129 O135 1.268 . S
O130 Dy123 2.351 . S
O130 C138 1.249 . S
O131 Dy120 2.326 . S
O131 C138 1.267 . S
O132 C121 1.185 . S
O132 Dy123 2.398 . S
O133 C121 1.355 . S
O133 Dy123 2.491 . S
O134 Dy123 2.403 . S
O134 C129 1.254 . S
O135 Dy120 2.310 . S
O135 Dy123 2.664 . S
O135 C129 1.268 . S
O136 Dy120 2.351 . S
O136 C139 1.249 . S
O137 Dy123 2.326 . S
O137 C139 1.267 . S
C138 O130 1.249 . S
C138 O131 1.267 . S
C139 O136 1.249 . S
C139 O137 1.267 . S
Dy140 O144 2.398 . S
Dy140 O145 2.491 . S
Dy140 O146 2.403 . S
Dy140 O147 2.664 . S
Dy140 O151 2.326 . S
Dy140 O155 2.310 . S
Dy140 O156 2.351 . S
C141 O152 1.185 . S
C141 O153 1.355 . S
C142 O144 1.185 . S
C142 O145 1.355 . S
Dy143 O147 2.310 . S
Dy143 O150 2.351 . S
Dy143 O152 2.398 . S
Dy143 O153 2.491 . S
Dy143 O154 2.403 . S
Dy143 O155 2.664 . S
Dy143 O157 2.326 . S
O144 Dy140 2.398 . S
O144 C142 1.185 . S
O145 Dy140 2.491 . S
O145 C142 1.355 . S
O146 Dy140 2.403 . S
O146 C148 1.254 . S
O147 Dy140 2.664 . S
O147 Dy143 2.310 . S
O147 C148 1.268 . S
C148 O146 1.254 . S
C148 O147 1.268 . S
C149 O154 1.254 . S
C149 O155 1.268 . S
O150 Dy143 2.351 . S
O150 C158 1.249 . S
O151 Dy140 2.326 . S
O151 C158 1.267 . S
O152 C141 1.185 . S
O152 Dy143 2.398 . S
O153 C141 1.355 . S
O153 Dy143 2.491 . S
O154 Dy143 2.403 . S
O154 C149 1.254 . S
O155 Dy140 2.310 . S
O155 Dy143 2.664 . S
O155 C149 1.268 . S
O156 Dy140 2.351 . S
O156 C159 1.249 . S
O157 Dy143 2.326 . S
O157 C159 1.267 . S
C158 O150 1.249 . S
C158 O151 1.267 . S
C159 O156 1.249 . S
C159 O157 1.267 . S
Dy160 O164 2.398 . S
Dy160 O165 2.491 . S
Dy160 O166 2.403 . S
Dy160 O167 2.664 . S
Dy160 O171 2.326 . S
Dy160 O175 2.310 . S
Dy160 O176 2.351 . S
C161 O172 1.185 . S
C161 O173 1.355 . S
C162 O164 1.185 . S
C162 O165 1.355 . S
Dy163 O167 2.310 . S
Dy163 O170 2.351 . S
Dy163 O172 2.398 . S
Dy163 O173 2.491 . S
Dy163 O174 2.403 . S
Dy163 O175 2.664 . S
Dy163 O177 2.326 . S
O164 Dy160 2.398 . S
O164 C162 1.185 . S
O165 Dy160 2.491 . S
O165 C162 1.355 . S
O166 Dy160 2.403 . S
O166 C168 1.254 . S
O167 Dy160 2.664 . S
O167 Dy163 2.310 . S
O167 C168 1.268 . S
C168 O166 1.254 . S
C168 O167 1.268 . S
C169 O174 1.254 . S
C169 O175 1.268 . S
O170 Dy163 2.351 . S
O170 C178 1.249 . S
O171 Dy160 2.326 . S
O171 C178 1.267 . S
O172 C161 1.185 . S
O172 Dy163 2.398 . S
O173 C161 1.355 . S
O173 Dy163 2.491 . S
O174 Dy163 2.403 . S
O174 C169 1.254 . S
O175 Dy160 2.310 . S
O175 Dy163 2.664 . S
O175 C169 1.268 . S
O176 Dy160 2.351 . S
O176 C179 1.249 . S
O177 Dy163 2.326 . S
O177 C179 1.267 . S
C178 O170 1.249 . S
C178 O171 1.267 . S
C179 O176 1.249 . S
C179 O177 1.267 . S
H180 C186 0.930 1_554 S
H181 C189 0.930 . S
H182 C190 0.930 . S
H183 C191 0.930 . S
H184 C194 0.930 . S
H185 C195 0.939 . S
C186 H180 0.930 1_556 S
C186 C187 1.355 . S
C186 C188 1.415 . S
C187 C186 1.355 . S
C187 C189 1.419 . S
C188 C186 1.415 . S
C188 C193 1.425 . S
C188 C195 1.409 . S
C189 H181 0.930 . S
C189 C187 1.419 . S
C189 C190 1.362 . S
C190 H182 0.930 . S
C190 C189 1.362 . S
C190 C193 1.409 . S
C191 H183 0.930 . S
C191 C192 1.355 . S
C191 C193 1.415 . S
C192 C191 1.355 . S
C192 C194 1.419 . S
C193 C188 1.425 . S
C193 C190 1.409 . S
C193 C191 1.415 . S
C194 H184 0.930 . S
C194 C192 1.419 . S
C194 C195 1.362 . S
C195 H185 0.939 . S
C195 C188 1.409 . S
C195 C194 1.362 . S
H196 C202 0.930 1_554 S
H197 C205 0.930 . S
H198 C206 0.930 . S
H199 C207 0.930 . S
H200 C210 0.930 . S
H201 C211 0.930 . S
C202 H196 0.930 1_556 S
C202 C203 1.355 . S
C202 C204 1.415 . S
C203 C202 1.355 . S
C203 C205 1.419 . S
C204 C202 1.415 . S
C204 C209 1.425 . S
C204 C211 1.409 . S
C205 H197 0.930 . S
C205 C203 1.419 . S
C205 C206 1.362 . S
C206 H198 0.930 . S
C206 C205 1.362 . S
C206 C209 1.409 . S
C207 H199 0.930 . S
C207 C208 1.355 . S
C207 C209 1.415 . S
C208 C207 1.355 . S
C208 C210 1.419 . S
C209 C204 1.425 . S
C209 C206 1.409 . S
C209 C207 1.415 . S
C210 H200 0.930 . S
C210 C208 1.419 . S
C210 C211 1.362 . S
C211 H201 0.930 . S
C211 C204 1.409 . S
C211 C210 1.362 . S
H212 C218 0.930 . S
H213 C221 0.930 1_554 S
H214 C222 0.930 . S
H215 C223 0.930 . S
H216 C226 0.930 . S
H217 C227 0.930 . S
C218 H212 0.930 . S
C218 C219 1.355 . S
C218 C220 1.415 . S
C219 C218 1.355 . S
C219 C221 1.419 . S
C220 C218 1.415 . S
C220 C225 1.425 . S
C220 C227 1.409 . S
C221 H213 0.930 1_556 S
C221 C219 1.419 . S
C221 C222 1.362 . S
C222 H214 0.930 . S
C222 C221 1.362 . S
C222 C225 1.409 . S
C223 H215 0.930 . S
C223 C224 1.355 . S
C223 C225 1.415 . S
C224 C223 1.355 . S
C224 C226 1.419 . S
C225 C220 1.425 . S
C225 C222 1.409 . S
C225 C223 1.415 . S
C226 H216 0.930 . S
C226 C224 1.419 . S
C226 C227 1.362 . S
C227 H217 0.930 . S
C227 C220 1.409 . S
C227 C226 1.362 . S
H228 C234 0.930 . S
H229 C237 0.930 . S
H230 C238 0.930 1_556 S
H231 C239 0.930 1_556 S
H232 C242 0.930 . S
H233 C243 0.930 . S
C234 H228 0.930 . S
C234 C235 1.355 . S
C234 C236 1.415 . S
C235 C234 1.355 . S
C235 C237 1.419 . S
C236 C234 1.415 . S
C236 C241 1.425 . S
C236 C243 1.409 . S
C237 H229 0.930 . S
C237 C235 1.419 . S
C237 C238 1.362 . S
C238 H230 0.930 1_554 S
C238 C237 1.362 . S
C238 C241 1.409 . S
C239 H231 0.930 1_554 S
C239 C240 1.355 . S
C239 C241 1.415 . S
C240 C239 1.355 . S
C240 C242 1.419 . S
C241 C236 1.425 . S
C241 C238 1.409 . S
C241 C239 1.415 . S
C242 H232 0.930 . S
C242 C240 1.419 . S
C242 C243 1.362 . S
C243 H233 0.930 . S
C243 C236 1.409 . S
C243 C242 1.362 . S
H244 C250 0.930 . S
H245 C253 0.930 . S
H246 C254 0.930 . S
H247 C255 0.930 . S
H248 C258 0.930 . S
H249 C259 0.930 . S
C250 H244 0.930 . S
C250 C251 1.355 . S
C250 C252 1.415 . S
C251 C250 1.355 . S
C251 C253 1.419 . S
C252 C250 1.415 . S
C252 C257 1.425 . S
C252 C259 1.409 . S
C253 H245 0.930 . S
C253 C251 1.419 . S
C253 C254 1.362 . S
C254 H246 0.930 . S
C254 C253 1.362 . S
C254 C257 1.409 . S
C255 H247 0.930 . S
C255 C256 1.355 . S
C255 C257 1.415 . S
C256 C255 1.355 . S
C256 C258 1.419 . S
C257 C252 1.425 . S
C257 C254 1.409 . S
C257 C255 1.415 . S
C258 H248 0.930 . S
C258 C256 1.419 . S
C258 C259 1.362 . S
C259 H249 0.930 . S
C259 C252 1.409 . S
C259 C258 1.362 . S
H260 C266 0.930 . S
H261 C269 0.930 1_556 S
H262 C270 0.930 . S
H263 C271 0.930 . S
H264 C274 0.930 . S
H265 C275 0.930 . S
C266 H260 0.930 . S
C266 C267 1.355 . S
C266 C268 1.415 . S
C267 C266 1.355 . S
C267 C269 1.419 . S
C268 C266 1.415 . S
C268 C273 1.425 . S
C268 C275 1.409 . S
C269 H261 0.930 1_554 S
C269 C267 1.419 . S
C269 C270 1.362 . S
C270 H262 0.930 . S
C270 C269 1.362 . S
C270 C273 1.409 . S
C271 H263 0.930 . S
C271 C272 1.355 . S
C271 C273 1.415 . S
C272 C271 1.355 . S
C272 C274 1.419 . S
C273 C268 1.425 . S
C273 C270 1.409 . S
C273 C271 1.415 . S
C274 H264 0.930 . S
C274 C272 1.419 . S
C274 C275 1.362 . S
C275 H265 0.930 . S
C275 C268 1.409 . S
C275 C274 1.362 . S
H276 C282 0.930 . S
H277 C285 0.930 . S
H278 C286 0.930 . S
H279 C287 0.930 . S
H280 C290 0.930 . S
H281 C291 0.930 . S
C282 H276 0.930 . S
C282 C283 1.355 . S
C282 C284 1.415 1_455 S
C283 C282 1.355 . S
C283 C285 1.419 . S
C284 C282 1.415 1_655 S
C284 C289 1.425 . S
C284 C291 1.409 . S
C285 H277 0.930 . S
C285 C283 1.419 . S
C285 C286 1.362 1_455 S
C286 H278 0.930 . S
C286 C285 1.362 1_655 S
C286 C289 1.409 . S
C287 H279 0.930 . S
C287 C288 1.355 . S
C287 C289 1.415 . S
C288 C287 1.355 . S
C288 C290 1.419 . S
C289 C284 1.425 . S
C289 C286 1.409 . S
C289 C287 1.415 . S
C290 H280 0.930 . S
C290 C288 1.419 . S
C290 C291 1.362 . S
C291 H281 0.930 . S
C291 C284 1.409 . S
C291 C290 1.362 . S
H292 C298 0.930 . S
H293 C301 0.930 . S
H294 C302 0.930 . S
H295 C303 0.930 . S
H296 C306 0.930 . S
H297 C307 0.930 . S
C298 H292 0.930 . S
C298 C299 1.355 . S
C298 C300 1.415 . S
C299 C298 1.355 . S
C299 C301 1.419 . S
C300 C298 1.415 . S
C300 C305 1.425 . S
C300 C307 1.409 . S
C301 H293 0.930 . S
C301 C299 1.419 . S
C301 C302 1.362 . S
C302 H294 0.930 . S
C302 C301 1.362 . S
C302 C305 1.409 . S
C303 H295 0.930 . S
C303 C304 1.355 . S
C303 C305 1.415 . S
C304 C303 1.355 . S
C304 C306 1.419 . S
C305 C300 1.425 . S
C305 C302 1.409 . S
C305 C303 1.415 . S
C306 H296 0.930 . S
C306 C304 1.419 . S
C306 C307 1.362 . S
C307 H297 0.930 . S
C307 C300 1.409 . S
C307 C306 1.362 . S
H308 C314 0.930 . S
H309 C317 0.930 . S
H310 C318 0.930 . S
H311 C319 0.930 . S
H312 C322 0.930 . S
H313 C323 0.930 . S
C314 H308 0.930 . S
C314 C315 1.355 . S
C314 C316 1.415 . S
C315 C314 1.355 . S
C315 C317 1.419 . S
C316 C314 1.415 . S
C316 C321 1.425 . S
C316 C323 1.409 1_545 S
C317 H309 0.930 . S
C317 C315 1.419 . S
C317 C318 1.362 . S
C318 H310 0.930 . S
C318 C317 1.362 . S
C318 C321 1.409 . S
C319 H311 0.930 . S
C319 C320 1.355 1_545 S
C319 C321 1.415 . S
C320 C319 1.355 1_565 S
C320 C322 1.419 . S
C321 C316 1.425 . S
C321 C318 1.409 . S
C321 C319 1.415 . S
C322 H312 0.930 . S
C322 C320 1.419 . S
C322 C323 1.362 . S
C323 H313 0.930 . S
C323 C316 1.409 1_565 S
C323 C322 1.362 . S
H324 C330 0.930 . S
H325 C333 0.930 1_556 S
H326 C334 0.930 . S
H327 C335 0.930 . S
H328 C338 0.930 . S
H329 C339 0.930 . S
C330 H324 0.930 . S
C330 C331 1.355 . S
C330 C332 1.415 . S
C331 C330 1.355 . S
C331 C333 1.419 . S
C332 C330 1.415 . S
C332 C337 1.425 . S
C332 C339 1.409 . S
C333 H325 0.930 1_554 S
C333 C331 1.419 . S
C333 C334 1.362 1_554 S
C334 H326 0.930 . S
C334 C333 1.362 1_556 S
C334 C337 1.409 1_556 S
C335 H327 0.930 . S
C335 C336 1.355 1_556 S
C335 C337 1.415 1_556 S
C336 C335 1.355 1_554 S
C336 C338 1.419 . S
C337 C332 1.425 . S
C337 C334 1.409 1_554 S
C337 C335 1.415 1_554 S
C338 H328 0.930 . S
C338 C336 1.419 . S
C338 C339 1.362 . S
C339 H329 0.930 . S
C339 C332 1.409 . S
C339 C338 1.362 . S
H340 C346 0.930 . S
H341 C349 0.930 . S
H342 C350 0.930 . S
H343 C351 0.930 . S
H344 C354 0.930 . S
H345 C355 0.930 1_565 S
C346 H340 0.930 . S
C346 C347 1.355 1_556 S
C346 C348 1.415 . S
C347 C346 1.355 1_554 S
C347 C349 1.419 . S
C348 C346 1.415 . S
C348 C353 1.425 1_556 S
C348 C355 1.409 1_565 S
C349 H341 0.930 . S
C349 C347 1.419 . S
C349 C350 1.362 . S
C350 H342 0.930 . S
C350 C349 1.362 . S
C350 C353 1.409 . S
C351 H343 0.930 . S
C351 C352 1.355 . S
C351 C353 1.415 1_545 S
C352 C351 1.355 . S
C352 C354 1.419 1_554 S
C353 C348 1.425 1_554 S
C353 C350 1.409 . S
C353 C351 1.415 1_565 S
C354 H344 0.930 . S
C354 C352 1.419 1_556 S
C354 C355 1.362 . S
C355 H345 0.930 1_545 S
C355 C348 1.409 1_545 S
C355 C354 1.362 . S
H356 C362 0.930 . S
H357 C365 0.930 . S
H358 C366 0.930 . S
H359 C367 0.930 . S
H360 C370 0.930 . S
H361 C371 0.930 . S
C362 H356 0.930 . S
C362 C363 1.355 . S
C362 C364 1.415 1_655 S
C363 C362 1.355 . S
C363 C365 1.419 1_554 S
C364 C362 1.415 1_455 S
C364 C369 1.425 1_554 S
C364 C371 1.409 . S
C365 H357 0.930 . S
C365 C363 1.419 1_556 S
C365 C366 1.362 1_655 S
C366 H358 0.930 . S
C366 C365 1.362 1_455 S
C366 C369 1.409 . S
C367 H359 0.930 . S
C367 C368 1.355 1_556 S
C367 C369 1.415 . S
C368 C367 1.355 1_554 S
C368 C370 1.419 . S
C369 C364 1.425 1_556 S
C369 C366 1.409 . S
C369 C367 1.415 . S
C370 H360 0.930 . S
C370 C368 1.419 . S
C370 C371 1.362 . S
C371 H361 0.930 . S
C371 C364 1.409 . S
C371 C370 1.362 . S
H372 C378 0.930 . S
H373 C381 0.930 . S
H374 C382 0.930 . S
H375 C383 0.930 . S
H376 C386 0.930 . S
H377 C387 0.930 . S
C378 H372 0.930 . S
C378 C379 1.355 . S
C378 C380 1.415 . S
C379 C378 1.355 . S
C379 C381 1.419 . S
C380 C378 1.415 . S
C380 C385 1.425 . S
C380 C387 1.409 . S
C381 H373 0.930 . S
C381 C379 1.419 . S
C381 C382 1.362 . S
C382 H374 0.930 . S
C382 C381 1.362 . S
C382 C385 1.409 . S
C383 H375 0.930 . S
C383 C384 1.355 . S
C383 C385 1.415 . S
C384 C383 1.355 . S
C384 C386 1.419 . S
C385 C380 1.425 . S
C385 C382 1.409 . S
C385 C383 1.415 . S
C386 H376 0.930 . S
C386 C384 1.419 . S
C386 C387 1.362 . S
C387 H377 0.930 . S
C387 C380 1.409 . S
C387 C386 1.362 . S
H388 C394 0.930 . S
H389 C397 0.930 . S
H390 C398 0.930 . S
H391 C399 0.930 . S
H392 C402 0.930 . S
H393 C403 0.930 . S
C394 H388 0.930 . S
C394 C395 1.355 . S
C394 C396 1.415 . S
C395 C394 1.355 . S
C395 C397 1.419 . S
C396 C394 1.415 . S
C396 C401 1.425 . S
C396 C403 1.409 . S
C397 H389 0.930 . S
C397 C395 1.419 . S
C397 C398 1.362 . S
C398 H390 0.930 . S
C398 C397 1.362 . S
C398 C401 1.409 . S
C399 H391 0.930 . S
C399 C400 1.355 . S
C399 C401 1.415 . S
C400 C399 1.355 . S
C400 C402 1.419 . S
C401 C396 1.425 . S
C401 C398 1.409 . S
C401 C399 1.415 . S
C402 H392 0.930 . S
C402 C400 1.419 . S
C402 C403 1.362 . S
C403 H393 0.930 . S
C403 C396 1.409 . S
C403 C402 1.362 . S
H404 C410 0.930 . S
H405 C413 0.930 . S
H406 C414 0.930 . S
H407 C415 0.930 . S
H408 C418 0.930 . S
H409 C419 0.930 . S
C410 H404 0.930 . S
C410 C411 1.355 . S
C410 C412 1.415 . S
C411 C410 1.355 . S
C411 C413 1.419 . S
C412 C410 1.415 . S
C412 C417 1.425 . S
C412 C419 1.409 . S
C413 H405 0.930 . S
C413 C411 1.419 . S
C413 C414 1.362 . S
C414 H406 0.930 . S
C414 C413 1.362 . S
C414 C417 1.409 . S
C415 H407 0.930 . S
C415 C416 1.355 . S
C415 C417 1.415 . S
C416 C415 1.355 . S
C416 C418 1.419 . S
C417 C412 1.425 . S
C417 C414 1.409 . S
C417 C415 1.415 . S
C418 H408 0.930 . S
C418 C416 1.419 . S
C418 C419 1.362 . S
C419 H409 0.930 . S
C419 C412 1.409 . S
C419 C418 1.362 . S
H420 C426 0.930 . S
H421 C429 0.930 . S
H422 C430 0.930 . S
H423 C431 0.930 . S
H424 C434 0.930 . S
H425 C435 0.930 . S
C426 H420 0.930 . S
C426 C427 1.355 . S
C426 C428 1.415 . S
C427 C426 1.355 . S
C427 C429 1.419 . S
C428 C426 1.415 . S
C428 C433 1.425 . S
C428 C435 1.409 . S
C429 H421 0.930 . S
C429 C427 1.419 . S
C429 C430 1.362 . S
C430 H422 0.930 . S
C430 C429 1.362 . S
C430 C433 1.409 . S
C431 H423 0.930 . S
C431 C432 1.355 . S
C431 C433 1.415 . S
C432 C431 1.355 . S
C432 C434 1.419 . S
C433 C428 1.425 . S
C433 C430 1.409 . S
C433 C431 1.415 . S
C434 H424 0.930 . S
C434 C432 1.419 . S
C434 C435 1.362 . S
C435 H425 0.930 . S
C435 C428 1.409 . S
C435 C434 1.362 . S
H436 C442 0.930 . S
H437 C445 0.930 . S
H438 C446 0.930 . S
H439 C447 0.930 . S
H440 C450 0.930 . S
H441 C451 0.930 . S
C442 H436 0.930 . S
C442 C443 1.355 . S
C442 C444 1.415 . S
C443 C442 1.355 . S
C443 C445 1.419 . S
C444 C442 1.415 . S
C444 C449 1.425 . S
C444 C451 1.409 . S
C445 H437 0.930 . S
C445 C443 1.419 . S
C445 C446 1.362 . S
C446 H438 0.930 . S
C446 C445 1.362 . S
C446 C449 1.409 . S
C447 H439 0.930 . S
C447 C448 1.355 . S
C447 C449 1.415 . S
C448 C447 1.355 . S
C448 C450 1.419 . S
C449 C444 1.425 . S
C449 C446 1.409 . S
C449 C447 1.415 . S
C450 H440 0.930 . S
C450 C448 1.419 . S
C450 C451 1.362 . S
C451 H441 0.930 . S
C451 C444 1.409 . S
C451 C450 1.362 . S
H452 C458 0.930 . S
H453 C461 0.930 . S
H454 C462 0.930 . S
H455 C463 0.930 . S
H456 C466 0.930 . S
H457 C467 0.930 . S
C458 H452 0.930 . S
C458 C459 1.355 . S
C458 C460 1.415 . S
C459 C458 1.355 . S
C459 C461 1.419 . S
C460 C458 1.415 . S
C460 C465 1.425 . S
C460 C467 1.409 . S
C461 H453 0.930 . S
C461 C459 1.419 . S
C461 C462 1.362 . S
C462 H454 0.930 . S
C462 C461 1.362 . S
C462 C465 1.409 . S
C463 H455 0.930 . S
C463 C464 1.355 . S
C463 C465 1.415 . S
C464 C463 1.355 . S
C464 C466 1.419 . S
C465 C460 1.425 . S
C465 C462 1.409 . S
C465 C463 1.415 . S
C466 H456 0.930 . S
C466 C464 1.419 . S
C466 C467 1.362 . S
C467 H457 0.930 . S
C467 C460 1.409 . S
C467 C466 1.362 . S
H468 C474 0.930 . S
H469 C477 0.930 . S
H470 C478 0.930 . S
H471 C479 0.930 . S
H472 C482 0.930 . S
H473 C483 0.930 . S
C474 H468 0.930 . S
C474 C475 1.355 1_455 S
C474 C476 1.415 . S
C475 C474 1.355 1_655 S
C475 C477 1.419 . S
C476 C474 1.415 . S
C476 C481 1.425 1_455 S
C476 C483 1.409 . S
C477 H469 0.930 . S
C477 C475 1.419 . S
C477 C478 1.362 . S
C478 H470 0.930 . S
C478 C477 1.362 . S
C478 C481 1.409 . S
C479 H471 0.930 . S
C479 C480 1.355 1_655 S
C479 C481 1.415 . S
C480 C479 1.355 1_455 S
C480 C482 1.419 . S
C481 C476 1.425 1_655 S
C481 C478 1.409 . S
C481 C479 1.415 . S
C482 H472 0.930 . S
C482 C480 1.419 . S
C482 C483 1.362 . S
C483 H473 0.930 . S
C483 C476 1.409 . S
C483 C482 1.362 . S
H484 C490 0.930 . S
H485 C493 0.930 . S
H486 C494 0.930 . S
H487 C495 0.930 . S
H488 C498 0.930 . S
H489 C499 0.930 . S
C490 H484 0.930 . S
C490 C491 1.355 . S
C490 C492 1.415 . S
C491 C490 1.355 . S
C491 C493 1.419 . S
C492 C490 1.415 . S
C492 C497 1.425 . S
C492 C499 1.409 . S
C493 H485 0.930 . S
C493 C491 1.419 . S
C493 C494 1.362 . S
C494 H486 0.930 . S
C494 C493 1.362 . S
C494 C497 1.409 . S
C495 H487 0.930 . S
C495 C496 1.355 . S
C495 C497 1.415 . S
C496 C495 1.355 . S
C496 C498 1.419 . S
C497 C492 1.425 . S
C497 C494 1.409 . S
C497 C495 1.415 . S
C498 H488 0.930 . S
C498 C496 1.419 . S
C498 C499 1.362 . S
C499 H489 0.930 . S
C499 C492 1.409 . S
C499 C498 1.362 . S
H500 C506 0.930 . S
H501 C509 0.930 . S
H502 C510 0.930 . S
H503 C511 0.930 . S
H504 C514 0.930 . S
H505 C515 0.930 . S
C506 H500 0.930 . S
C506 C507 1.355 1_565 S
C506 C508 1.415 . S
C507 C506 1.355 1_545 S
C507 C509 1.419 . S
C508 C506 1.415 . S
C508 C513 1.425 1_565 S
C508 C515 1.409 . S
C509 H501 0.930 . S
C509 C507 1.419 . S
C509 C510 1.362 . S
C510 H502 0.930 . S
C510 C509 1.362 . S
C510 C513 1.409 . S
C511 H503 0.930 . S
C511 C512 1.355 1_545 S
C511 C513 1.415 . S
C512 C511 1.355 1_565 S
C512 C514 1.419 . S
C513 C508 1.425 1_545 S
C513 C510 1.409 . S
C513 C511 1.415 . S
C514 H504 0.930 . S
C514 C512 1.419 . S
C514 C515 1.362 . S
C515 H505 0.930 . S
C515 C508 1.409 . S
C515 C514 1.362 . S
H516 C522 0.930 . S
H517 C525 0.930 . S
H518 C526 0.930 . S
H519 C527 0.930 1_554 S
H520 C530 0.930 . S
H521 C531 0.930 . S
C522 H516 0.930 . S
C522 C523 1.355 . S
C522 C524 1.415 . S
C523 C522 1.355 . S
C523 C525 1.419 . S
C524 C522 1.415 . S
C524 C529 1.425 . S
C524 C531 1.409 . S
C525 H517 0.930 . S
C525 C523 1.419 . S
C525 C526 1.362 . S
C526 H518 0.930 . S
C526 C525 1.362 . S
C526 C529 1.409 . S
C527 H519 0.930 1_556 S
C527 C528 1.355 1_556 S
C527 C529 1.415 . S
C528 C527 1.355 1_554 S
C528 C530 1.419 . S
C529 C524 1.425 . S
C529 C526 1.409 . S
C529 C527 1.415 . S
C530 H520 0.930 . S
C530 C528 1.419 . S
C530 C531 1.362 1_554 S
C531 H521 0.930 . S
C531 C524 1.409 . S
C531 C530 1.362 1_556 S
H532 C538 0.930 . S
H533 C541 0.930 . S
H534 C542 0.930 . S
H535 C543 0.930 1_554 S
H536 C546 0.930 1_554 S
H537 C547 0.930 . S
C538 H532 0.930 . S
C538 C539 1.355 . S
C538 C540 1.415 . S
C539 C538 1.355 . S
C539 C541 1.419 . S
C540 C538 1.415 . S
C540 C545 1.425 . S
C540 C547 1.409 . S
C541 H533 0.930 . S
C541 C539 1.419 . S
C541 C542 1.362 . S
C542 H534 0.930 . S
C542 C541 1.362 . S
C542 C545 1.409 . S
C543 H535 0.930 1_556 S
C543 C544 1.355 1_556 S
C543 C545 1.415 . S
C544 C543 1.355 1_554 S
C544 C546 1.419 1_554 S
C545 C540 1.425 . S
C545 C542 1.409 . S
C545 C543 1.415 . S
C546 H536 0.930 1_556 S
C546 C544 1.419 1_556 S
C546 C547 1.362 . S
C547 H537 0.930 . S
C547 C540 1.409 . S
C547 C546 1.362 . S
H548 C554 0.930 . S
H549 C557 0.930 . S
H550 C558 0.930 . S
H551 C559 0.930 . S
H552 C562 0.930 . S
H553 C563 0.930 . S
C554 H548 0.930 . S
C554 C555 1.355 . S
C554 C556 1.415 . S
C555 C554 1.355 . S
C555 C557 1.419 . S
C556 C554 1.415 . S
C556 C561 1.425 . S
C556 C563 1.409 . S
C557 H549 0.930 . S
C557 C555 1.419 . S
C557 C558 1.362 . S
C558 H550 0.930 . S
C558 C557 1.362 . S
C558 C561 1.409 . S
C559 H551 0.930 . S
C559 C560 1.355 1_556 S
C559 C561 1.415 . S
C560 C559 1.355 1_554 S
C560 C562 1.419 . S
C561 C556 1.425 . S
C561 C558 1.409 . S
C561 C559 1.415 . S
C562 H552 0.930 . S
C562 C560 1.419 . S
C562 C563 1.362 1_554 S
C563 H553 0.930 . S
C563 C556 1.409 . S
C563 C562 1.362 1_556 S
H564 C570 0.930 . S
H565 C573 0.930 . S
H566 C574 0.930 . S
H567 C575 0.930 . S
H568 C578 0.930 1_556 S
H569 C579 0.930 . S
C570 H564 0.930 . S
C570 C571 1.355 . S
C570 C572 1.415 . S
C571 C570 1.355 . S
C571 C573 1.419 . S
C572 C570 1.415 . S
C572 C577 1.425 . S
C572 C579 1.409 . S
C573 H565 0.930 . S
C573 C571 1.419 . S
C573 C574 1.362 . S
C574 H566 0.930 . S
C574 C573 1.362 . S
C574 C577 1.409 . S
C575 H567 0.930 . S
C575 C576 1.355 1_554 S
C575 C577 1.415 . S
C576 C575 1.355 1_556 S
C576 C578 1.419 1_556 S
C577 C572 1.425 . S
C577 C574 1.409 . S
C577 C575 1.415 . S
C578 H568 0.930 1_554 S
C578 C576 1.419 1_554 S
C578 C579 1.362 . S
C579 H569 0.930 . S
C579 C572 1.409 . S
C579 C578 1.362 . S
H580 C586 0.930 . S
H581 C589 0.930 1_556 S
H582 C590 0.930 . S
H583 C591 0.930 . S
H584 C594 0.930 . S
H585 C595 0.930 . S
C586 H580 0.930 . S
C586 C587 1.355 1_554 S
C586 C588 1.415 . S
C587 C586 1.355 1_556 S
C587 C589 1.419 1_556 S
C588 C586 1.415 . S
C588 C593 1.425 . S
C588 C595 1.409 . S
C589 H581 0.930 1_554 S
C589 C587 1.419 1_554 S
C589 C590 1.362 . S
C590 H582 0.930 . S
C590 C589 1.362 . S
C590 C593 1.409 . S
C591 H583 0.930 . S
C591 C592 1.355 . S
C591 C593 1.415 . S
C592 C591 1.355 . S
C592 C594 1.419 . S
C593 C588 1.425 . S
C593 C590 1.409 . S
C593 C591 1.415 . S
C594 H584 0.930 . S
C594 C592 1.419 . S
C594 C595 1.362 . S
C595 H585 0.930 . S
C595 C588 1.409 . S
C595 C594 1.362 . S
H596 C602 0.930 . S
H597 C605 0.930 . S
H598 C606 0.930 . S
H599 C607 0.930 . S
H600 C610 0.930 . S
H601 C611 0.930 . S
C602 H596 0.930 . S
C602 C603 1.355 . S
C602 C604 1.415 . S
C603 C602 1.355 . S
C603 C605 1.419 . S
C604 C602 1.415 . S
C604 C609 1.425 . S
C604 C611 1.409 . S
C605 H597 0.930 . S
C605 C603 1.419 . S
C605 C606 1.362 . S
C606 H598 0.930 . S
C606 C605 1.362 . S
C606 C609 1.409 . S
C607 H599 0.930 . S
C607 C608 1.355 1_554 S
C607 C609 1.415 . S
C608 C607 1.355 1_556 S
C608 C610 1.419 . S
C609 C604 1.425 . S
C609 C606 1.409 . S
C609 C607 1.415 . S
C610 H600 0.930 . S
C610 C608 1.419 . S
C610 C611 1.362 1_556 S
C611 H601 0.930 . S
C611 C604 1.409 . S
C611 C610 1.362 1_554 S
C187 C2 1.755 . S
C192 C158 1.675 . S
C203 C22 1.763 . S
C208 C178 1.679 . S
C219 C42 1.796 . S
C224 C138 1.743 . S
C235 C82 1.763 . S
C240 C58 1.679 . S
C251 C102 1.791 . S
C256 C18 1.719 . S
C267 C38 1.742 . S
C272 C62 1.771 . S
C283 C142 1.755 . S
C288 C118 1.723 . S
C299 C162 1.795 . S
C304 C78 1.745 . S
C315 C98 1.696 . S
C320 C122 1.744 . S
C331 C41 1.537 . S
C336 C19 1.534 1_554 S
C347 C39 1.547 1_554 S
C352 C1 1.501 . S
C363 C21 1.496 . S
C368 C59 1.548 1_554 S
C379 C79 1.535 . S
C384 C101 1.519 . S
C395 C61 1.508 . S
C400 C99 1.538 . S
C411 C81 1.515 . S
C416 C119 1.536 . S
C427 C161 1.540 . S
C432 C139 1.531 . S
C443 C159 1.535 . S
C448 C121 1.517 . S
C459 C179 1.541 . S
C464 C141 1.500 . S
C475 C9 1.034 . S
C480 C8 1.034 . S
C491 C29 1.104 . S
C496 C28 1.104 . S
C507 C49 1.050 . S
C512 C48 1.050 . S
C523 C68 1.081 . S
C528 C69 1.081 . S
C539 C88 1.060 . S
C544 C89 1.060 . S
C555 C108 1.093 . S
C560 C109 1.093 . S
C571 C129 1.037 . S
C576 C128 1.037 . S
C587 C148 1.100 . S
C592 C149 1.100 . S
C603 C169 1.095 . S
C608 C168 1.095 . S
