# Generated by pormake.
# Topology rob, (6)-cn, num edge types: 1
# Building blocks:
#     Node 0, Type 0, BuildingBlock: BETDEL_clean_sbu_0, # of connection points: 6
#     Node 1, Type 0, BuildingBlock: BETDEL_clean_sbu_0, # of connection points: 6
#     Node 2, Type 0, BuildingBlock: BETDEL_clean_sbu_0, # of connection points: 6
#     Node 3, Type 0, BuildingBlock: BETDEL_clean_sbu_0, # of connection points: 6
#     Edge 4, Type (0, 0), BuildingBlock: EZIPEK_clean_linker_0, # of connection points: 2
#     Edge 5, Type (0, 0), BuildingBlock: EZIPEK_clean_linker_0, # of connection points: 2
#     Edge 6, Type (0, 0), BuildingBlock: EZIPEK_clean_linker_0, # of connection points: 2
#     Edge 7, Type (0, 0), BuildingBlock: EZIPEK_clean_linker_0, # of connection points: 2
#     Edge 8, Type (0, 0), BuildingBlock: EZIPEK_clean_linker_0, # of connection points: 2
#     Edge 9, Type (0, 0), BuildingBlock: EZIPEK_clean_linker_0, # of connection points: 2
#     Edge 10, Type (0, 0), BuildingBlock: EZIPEK_clean_linker_0, # of connection points: 2
#     Edge 11, Type (0, 0), BuildingBlock: EZIPEK_clean_linker_0, # of connection points: 2
#     Edge 12, Type (0, 0), BuildingBlock: EZIPEK_clean_linker_0, # of connection points: 2
#     Edge 13, Type (0, 0), BuildingBlock: EZIPEK_clean_linker_0, # of connection points: 2
#     Edge 14, Type (0, 0), BuildingBlock: EZIPEK_clean_linker_0, # of connection points: 2
#     Edge 15, Type (0, 0), BuildingBlock: EZIPEK_clean_linker_0, # of connection points: 2
# Relax obj value: 0.090
# Max RMSD: 0.172
# Mean RMSD: 0.172
data_MOF--net-rob--node1-BETDEL_clean_sbu_0--edge1-EZIPEK_clean_linker_0
_symmetry_space_group_name_H-M    P1
_symmetry_Int_Tables_number       1
_symmetry_cell_setting            triclinic
loop_
_symmetry_equiv_pos_as_xyz
'x, y, z'
_cell_length_a     11.358348
_cell_length_b     17.503439
_cell_length_c     21.703634
_cell_angle_alpha  88.409892
_cell_angle_beta   103.58163
_cell_angle_gamma 89.188824
loop_
_atom_site_label
_atom_site_type_symbol
_atom_site_fract_x
_atom_site_fract_y
_atom_site_fract_z
_atom_type_partial_charge
Dy0 Dy 0.10706 0.32776 0.05079 0.0
C1 C 0.40447 0.2539 0.88885 0.0
C2 C -0.00489 0.34327 0.14843 0.0
Dy3 Dy 0.28915 0.25725 0.98495 0.0
O4 O 0.07454 0.38914 0.13492 0.0
O5 O -0.03187 0.29248 0.10497 0.0
O6 O 0.15294 0.44574 0.02144 0.0
O7 O 0.28529 0.35975 0.03803 0.0
C8 C 0.26164 0.42737 0.01621 0.0
C9 C 0.13234 0.15679 0.01335 0.0
O10 O 0.40658 0.25892 0.08349 0.0
O11 O 0.23561 0.25444 0.12238 0.0
O12 O 0.40626 0.19742 0.92965 0.0
O13 O 0.34773 0.31256 0.90365 0.0
O14 O 0.24196 0.13821 0.01004 0.0
O15 O 0.10931 0.22572 0.99497 0.0
O16 O -0.01038 0.34607 0.95342 0.0
O17 O 0.14378 0.30757 0.9062 0.0
C18 C 0.35402 0.25061 0.13141 0.0
C19 C 0.03454 0.33674 0.90282 0.0
Dy20 Dy 0.602 0.82865 0.02746 0.0
C21 C 0.9013 0.73789 0.8708 0.0
C22 C 0.4821 0.83788 0.12164 0.0
Dy23 Dy 0.78243 0.75824 0.96509 0.0
O24 O 0.48557 0.89325 0.08066 0.0
O25 O 0.53602 0.77742 0.10801 0.0
O26 O 0.65122 0.94686 1.00234 0.0
O27 O 0.78599 0.86002 0.02174 0.0
C28 C 0.76262 0.92872 1.00256 0.0
C29 C 0.62013 0.6584 0.99285 0.0
O30 O 0.90073 0.74942 0.06279 0.0
O31 O 0.73749 0.7712 0.10711 0.0
O32 O 0.89433 0.68627 0.91398 0.0
O33 O 0.85422 0.80152 0.88356 0.0
O34 O 0.72809 0.64031 0.98732 0.0
O35 O 0.59916 0.72667 0.97276 0.0
O36 O 0.48678 0.82689 0.9279 0.0
O37 O 0.65771 0.82663 0.88858 0.0
C38 C 0.85122 0.7499 0.11231 0.0
C39 C 0.53964 0.83365 0.87976 0.0
Dy40 Dy 0.28612 0.82659 0.46597 0.0
C41 C -0.03482 0.72557 0.61507 0.0
C42 C 0.41349 0.84974 0.3757 0.0
Dy43 Dy 0.09392 0.75273 0.5254 0.0
O44 O 0.32232 0.89099 0.38239 0.0
O45 O 0.44293 0.79928 0.42227 0.0
O46 O 0.23416 0.94464 0.48727 0.0
O47 O 0.10423 0.8596 0.47319 0.0
C48 C 0.12484 0.92769 0.49071 0.0
C49 C 0.25774 0.65454 0.49951 0.0
O50 O -0.00959 0.75163 0.42408 0.0
O51 O 0.1696 0.75852 0.39127 0.0
O52 O 0.05695 0.68528 0.60765 0.0
O53 O 0.93571 0.77676 0.56908 0.0
O54 O 0.14551 0.63701 0.49661 0.0
O55 O 0.27782 0.72104 0.52049 0.0
O56 O 0.3869 0.83808 0.56608 0.0
O57 O 0.21505 0.81416 0.60383 0.0
C58 C 0.05165 0.74964 0.37906 0.0
C59 C 0.32951 0.83394 0.61269 0.0
Dy60 Dy 0.80037 0.31997 0.49252 0.0
C61 C 0.46869 0.23733 0.63372 0.0
C62 C 0.94088 0.32837 0.40689 0.0
Dy63 Dy 0.59979 0.25669 0.54484 0.0
O64 O 0.91927 0.38509 0.44055 0.0
O65 O 0.89703 0.26634 0.4256 0.0
O66 O 0.7532 0.4401 0.51423 0.0
O67 O 0.61571 0.35983 0.48939 0.0
C68 C 0.63897 0.42654 0.50874 0.0
C69 C 0.75835 0.14871 0.52764 0.0
O70 O 0.49996 0.24544 0.44451 0.0
O71 O 0.67027 0.27628 0.40788 0.0
O72 O 0.55592 0.19288 0.62655 0.0
O73 O 0.44308 0.28806 0.58728 0.0
O74 O 0.64246 0.13926 0.51829 0.0
O75 O 0.78372 0.21553 0.54728 0.0
O76 O 0.89894 0.31513 0.59441 0.0
O77 O 0.71531 0.32352 0.62152 0.0
C78 C 0.55759 0.25315 0.39829 0.0
C79 C 0.83439 0.32578 0.63703 0.0
C80 C 0.40224 0.61954 0.99141 0.0
C81 C 0.52838 0.60081 1.00415 0.0
C82 C 0.47951 0.46503 0.01801 0.0
C83 C 0.35318 0.4839 1.00286 0.0
N84 N 0.1983 0.57691 0.95192 0.0
N85 N 0.68717 0.5048 0.03855 0.0
C86 C 0.31576 0.56035 0.98272 0.0
C87 C 0.56654 0.52339 0.02054 0.0
N88 N 0.36316 0.69357 0.99165 0.0
N89 N 0.51773 0.39083 0.03012 0.0
H90 H 0.75168 0.54318 0.06054 0.0
H91 H 0.72298 0.4506 0.0345 0.0
H92 H 0.46598 0.34628 0.00889 0.0
H93 H 0.60336 0.37365 0.05643 0.0
H94 H 0.27317 0.70911 0.98905 0.0
H95 H 0.4211 0.7385 1.00432 0.0
H96 H 0.17009 0.62993 0.92994 0.0
H97 H 0.13209 0.53596 0.9403 0.0
C98 C 0.36522 0.55963 0.44556 0.0
C99 C 0.35479 0.59574 0.50187 0.0
C100 C 0.53356 0.52292 0.56244 0.0
C101 C 0.54465 0.48738 0.50601 0.0
N102 N 0.49017 0.48494 0.39192 0.0
N103 N 0.40999 0.59907 0.61601 0.0
C104 C 0.46517 0.50891 0.44702 0.0
C105 C 0.43448 0.57443 0.56092 0.0
N106 N 0.27692 0.57146 0.39111 0.0
N107 N 0.61979 0.5089 0.61728 0.0
H108 H 0.33655 0.63497 0.61713 0.0
H109 H 0.45531 0.57904 0.66102 0.0
H110 H 0.69309 0.47145 0.6203 0.0
H111 H 0.62432 0.53832 0.65871 0.0
H112 H 0.27137 0.54022 0.35043 0.0
H113 H 0.20274 0.60827 0.38803 0.0
H114 H 0.44479 0.50564 0.34708 0.0
H115 H 0.56384 0.44916 0.39092 0.0
C116 C 0.02926 0.05755 0.06656 0.0
C117 C 0.03731 0.09862 0.01045 0.0
C118 C 0.86468 1.02839 0.94906 0.0
C119 C 0.85673 0.98747 1.0053 0.0
N120 N 0.91015 0.97605 0.11951 0.0
N121 N -0.02057 0.11381 0.8964 0.0
C122 C 0.93375 1.00517 0.0646 0.0
C123 C -0.04121 0.08204 0.95116 0.0
N124 N 0.11553 0.06673 0.12143 0.0
N125 N 0.77973 1.01753 0.89397 0.0
H126 H 0.04872 0.15198 0.89564 0.0
H127 H 0.93479 0.09816 0.85115 0.0
H128 H 0.71162 0.97743 0.89024 0.0
H129 H 0.77058 0.05169 0.85305 0.0
H130 H 0.1236 1.03202 0.16201 0.0
H131 H 0.18579 0.10526 0.12504 0.0
H132 H -0.04698 0.9939 0.16442 0.0
H133 H 0.83998 0.93857 0.12038 0.0
C134 C -0.0265 0.09527 0.55688 0.0
C135 C 0.84985 0.08564 0.52688 0.0
C136 C 0.9065 0.97424 0.47299 0.0
C137 C 0.03141 0.9848 0.50106 0.0
N138 N 0.18275 0.0697 0.56007 0.0
N139 N 0.7028 0.98959 0.48498 0.0
C140 C 0.06471 0.04929 0.54003 0.0
C141 C 0.81686 1.01759 0.4933 0.0
N142 N 0.00367 0.14101 0.60804 0.0
N143 N 0.87188 0.9282 0.42236 0.0
H144 H 0.63711 1.01198 0.50592 0.0
H145 H 0.68055 0.93574 0.46686 0.0
H146 H 0.93271 0.90387 0.39915 0.0
H147 H 0.7821 0.9242 0.39711 0.0
H148 H 0.0914 0.14478 0.63605 0.0
H149 H 0.93913 0.16497 0.62913 0.0
H150 H 0.20605 0.12477 0.57487 0.0
H151 H 0.25735 1.03519 0.55945 0.0
C152 C 0.55015 0.19457 0.29398 0.0
C153 C 0.4963 0.24398 0.33132 0.0
C154 C 0.38493 0.31078 0.23509 0.0
C155 C 0.42172 0.25373 0.19806 0.0
N156 N 0.53528 0.13866 0.19134 0.0
N157 N 0.35015 0.34418 0.33637 0.0
C158 C 0.50406 0.19501 0.22709 0.0
C159 C 0.40878 0.29995 0.30157 0.0
N160 N 0.64721 0.1487 0.3223 0.0
N161 N 0.33276 0.37755 0.20663 0.0
H162 H 0.36662 0.34023 0.38559 0.0
H163 H 0.27706 0.38044 0.31582 0.0
H164 H 0.32171 0.38935 0.15824 0.0
H165 H 0.31431 0.42437 0.23173 0.0
H166 H 0.70177 0.12113 0.29695 0.0
H167 H 0.6761 0.14055 0.37138 0.0
H168 H 0.58725 0.09074 0.21079 0.0
H169 H 0.50407 0.13807 0.14217 0.0
C170 C 0.38495 0.79103 0.20648 0.0
C171 C 0.45786 0.84592 0.18502 0.0
C172 C 0.50485 0.90205 0.28976 0.0
C173 C 0.44176 0.84311 0.31298 0.0
N174 N 0.34001 0.72225 0.29613 0.0
N175 N 0.61833 0.93736 0.21281 0.0
C176 C 0.38758 0.78452 0.27221 0.0
C177 C 0.52638 0.89726 0.22825 0.0
N178 N 0.31157 0.74606 0.16373 0.0
N179 N 0.54317 0.9634 0.32594 0.0
H180 H 0.64044 0.93491 0.16897 0.0
H181 H 0.68094 0.96692 0.24619 0.0
H182 H 0.52995 0.9692 0.37152 0.0
H183 H 0.57938 1.01099 0.30822 0.0
H184 H 0.24758 0.70986 0.17539 0.0
H185 H 0.30617 0.7505 0.11509 0.0
H186 H 0.30931 0.67467 0.26975 0.0
H187 H 0.34237 0.71418 0.34402 0.0
C188 C 0.38821 0.89066 0.78504 0.0
C189 C 0.47177 0.832 0.81295 0.0
C190 C 0.48309 0.78809 0.70846 0.0
C191 C 0.39322 0.84329 0.67962 0.0
N192 N 0.2465 0.94033 0.69023 0.0
N193 N 0.5632 0.7094 0.80217 0.0
C194 C 0.34128 0.8925 0.71801 0.0
C195 C 0.5088 0.77622 0.77486 0.0
N196 N 0.35601 0.94506 0.82226 0.0
N197 N 0.5434 0.74584 0.67308 0.0
H198 H 0.57833 0.69675 0.85065 0.0
H199 H 0.57874 0.66297 0.7759 0.0
H200 H 0.52663 0.74997 0.62392 0.0
H201 H 0.61839 0.71093 0.69331 0.0
H202 H 0.30031 0.99199 0.80472 0.0
H203 H 0.3888 0.94486 0.87133 0.0
H204 H 0.19616 0.97171 0.71541 0.0
H205 H 0.21552 0.94719 0.64127 0.0
C206 C 0.48569 0.30926 0.73437 0.0
C207 C 0.44223 0.24536 0.69681 0.0
C208 C 0.36737 0.19035 0.78437 0.0
C209 C 0.426 0.24747 0.82477 0.0
N210 N 0.55469 0.35682 0.84061 0.0
N211 N 0.37302 0.11556 0.69405 0.0
C212 C 0.4888 0.30595 0.80036 0.0
C213 C 0.39285 0.18305 0.72419 0.0
N214 N 0.52496 0.37276 0.70779 0.0
N215 N 0.27995 0.14666 0.80058 0.0
H216 H 0.39103 0.10642 0.6499 0.0
H217 H 0.35101 0.06672 0.71686 0.0
H218 H 0.25293 0.15144 0.843 0.0
H219 H 0.22401 0.11246 0.76787 0.0
H220 H 0.54483 0.42361 0.7315 0.0
H221 H 0.52849 0.37765 0.6605 0.0
H222 H 0.61313 0.39572 0.82704 0.0
H223 H 0.5605 0.35502 0.88934 0.0
C224 C 0.87561 0.6847 0.21826 0.0
C225 C 0.92191 0.73601 0.17798 0.0
C226 C 0.0266 0.80407 0.27033 0.0
C227 C -0.00775 0.74787 0.31096 0.0
N228 N 0.90139 0.6265 0.32329 0.0
N229 N 0.06536 0.8334 0.16778 0.0
C230 C 0.92154 0.68569 0.285 0.0
C231 C 0.00643 0.79139 0.20474 0.0
N232 N 0.784 0.63706 0.19295 0.0
N233 N 0.07313 0.87167 0.29409 0.0
H234 H 0.05386 0.82605 0.11935 0.0
H235 H 0.13536 0.87008 0.18649 0.0
H236 H 0.08259 0.88524 0.34143 0.0
H237 H 0.08916 0.91749 0.26568 0.0
H238 H 0.73299 0.6091 0.22048 0.0
H239 H 0.75415 0.62982 0.14427 0.0
H240 H 0.86071 0.57607 0.30562 0.0
H241 H 0.93331 0.62553 0.37245 0.0
C242 C 0.87531 0.38147 0.29476 0.0
C243 C -0.04104 0.33656 0.34159 0.0
C244 C 0.04351 0.2824 0.25799 0.0
C245 C -0.02685 0.33583 0.21312 0.0
N246 N 0.83047 0.4412 0.18956 0.0
N247 N 0.13031 0.24935 0.36895 0.0
C248 C 0.89218 0.38722 0.23195 0.0
C249 C 0.04545 0.28852 0.32345 0.0
N250 N 0.77503 0.41433 0.30871 0.0
N251 N 0.10542 0.22432 0.23797 0.0
H252 H 0.13459 0.25316 0.41732 0.0
H253 H 0.20283 0.21863 0.35941 0.0
H254 H 0.10035 0.2153 0.19032 0.0
H255 H 0.15044 0.18003 0.26766 0.0
H256 H 0.7045 0.43996 0.27458 0.0
H257 H 0.75462 0.40935 0.3529 0.0
H258 H 0.77569 0.48362 0.20146 0.0
H259 H 0.83989 0.4461 0.14307 0.0
C260 C 0.84661 0.28249 0.74815 0.0
C261 C 0.89026 0.33134 0.70542 0.0
C262 C 0.01547 0.39584 0.79525 0.0
C263 C -0.03733 0.3512 0.83741 0.0
N264 N 0.80827 0.26412 0.85235 0.0
N265 N 0.00774 0.43956 0.68712 0.0
C266 C 0.87028 0.29944 0.81315 0.0
C267 C -0.02778 0.38974 0.72855 0.0
N268 N 0.79011 0.21642 0.72723 0.0
N269 N 0.11065 0.44163 0.81938 0.0
H270 H -0.02229 0.43675 0.63806 0.0
H271 H 0.05962 0.48736 0.70107 0.0
H272 H 0.14174 0.44927 0.86782 0.0
H273 H 0.16337 0.46825 0.79217 0.0
H274 H 0.76588 0.17503 0.75712 0.0
H275 H 0.78126 0.19841 0.68103 0.0
H276 H 0.73379 0.22994 0.83593 0.0
H277 H 0.82284 0.27497 0.90043 0.0
C278 C -0.02536 0.79366 0.71628 0.0
C279 C 0.936 0.72986 0.67814 0.0
C280 C 0.88109 0.66465 0.76909 0.0
C281 C 0.93053 0.72598 0.80836 0.0
N282 N 0.05475 0.83733 0.82231 0.0
N283 N 0.86539 0.60089 0.66967 0.0
C284 C -0.01383 0.78697 0.78267 0.0
C285 C 0.89392 0.66407 0.70522 0.0
N286 N -0.00062 0.86146 0.6898 0.0
N287 N 0.81631 0.6091 0.79094 0.0
H288 H 0.86474 0.60001 0.62153 0.0
H289 H 0.84837 0.54826 0.6888 0.0
H290 H 0.80492 0.60511 0.83696 0.0
H291 H 0.7654 0.56918 0.76197 0.0
H292 H 0.00935 0.9119 0.71474 0.0
H293 H -0.00204 0.87007 0.64208 0.0
H294 H 0.10745 0.87859 0.8068 0.0
H295 H 0.07003 0.83202 0.8716 0.0
loop_
_geom_bond_atom_site_label_1
_geom_bond_atom_site_label_2
_geom_bond_distance
_geom_bond_site_symmetry_2
_ccdc_geom_bond_type
Dy0 O4 2.398 . S
Dy0 O5 2.491 . S
Dy0 O6 2.403 . S
Dy0 O7 2.664 1_554 S
Dy0 O11 2.326 . S
Dy0 O15 2.310 . S
Dy0 O16 2.351 1_554 S
C1 O12 1.185 . S
C1 O13 1.355 . S
C2 O4 1.185 . S
C2 O5 1.355 . S
Dy3 O7 2.310 . S
Dy3 O10 2.351 1_556 S
Dy3 O12 2.398 . S
Dy3 O13 2.491 . S
Dy3 O14 2.403 . S
Dy3 O15 2.664 1_556 S
Dy3 O17 2.326 . S
O4 Dy0 2.398 . S
O4 C2 1.185 . S
O5 Dy0 2.491 . S
O5 C2 1.355 . S
O6 Dy0 2.403 . S
O6 C8 1.254 . S
O7 Dy0 2.664 1_556 S
O7 Dy3 2.310 . S
O7 C8 1.268 1_556 S
C8 O6 1.254 . S
C8 O7 1.268 1_554 S
C9 O14 1.254 . S
C9 O15 1.268 1_556 S
O10 Dy3 2.351 1_554 S
O10 C18 1.249 . S
O11 Dy0 2.326 . S
O11 C18 1.267 . S
O12 C1 1.185 . S
O12 Dy3 2.398 . S
O13 C1 1.355 . S
O13 Dy3 2.491 . S
O14 Dy3 2.403 . S
O14 C9 1.254 . S
O15 Dy0 2.310 . S
O15 Dy3 2.664 1_554 S
O15 C9 1.268 1_554 S
O16 Dy0 2.351 1_556 S
O16 C19 1.249 . S
O17 Dy3 2.326 . S
O17 C19 1.267 . S
C18 O10 1.249 . S
C18 O11 1.267 . S
C19 O16 1.249 . S
C19 O17 1.267 . S
Dy20 O24 2.398 . S
Dy20 O25 2.491 . S
Dy20 O26 2.403 . S
Dy20 O27 2.664 1_554 S
Dy20 O31 2.326 . S
Dy20 O35 2.310 . S
Dy20 O36 2.351 1_554 S
C21 O32 1.185 . S
C21 O33 1.355 . S
C22 O24 1.185 . S
C22 O25 1.355 . S
Dy23 O27 2.310 . S
Dy23 O30 2.351 1_556 S
Dy23 O32 2.398 . S
Dy23 O33 2.491 . S
Dy23 O34 2.403 . S
Dy23 O35 2.664 1_556 S
Dy23 O37 2.326 . S
O24 Dy20 2.398 . S
O24 C22 1.185 . S
O25 Dy20 2.491 . S
O25 C22 1.355 . S
O26 Dy20 2.403 . S
O26 C28 1.254 . S
O27 Dy20 2.664 1_556 S
O27 Dy23 2.310 . S
O27 C28 1.268 1_556 S
C28 O26 1.254 . S
C28 O27 1.268 1_554 S
C29 O34 1.254 . S
C29 O35 1.268 1_556 S
O30 Dy23 2.351 1_554 S
O30 C38 1.249 . S
O31 Dy20 2.326 . S
O31 C38 1.267 . S
O32 C21 1.185 . S
O32 Dy23 2.398 . S
O33 C21 1.355 . S
O33 Dy23 2.491 . S
O34 Dy23 2.403 . S
O34 C29 1.254 . S
O35 Dy20 2.310 . S
O35 Dy23 2.664 1_554 S
O35 C29 1.268 1_554 S
O36 Dy20 2.351 1_556 S
O36 C39 1.249 . S
O37 Dy23 2.326 . S
O37 C39 1.267 . S
C38 O30 1.249 . S
C38 O31 1.267 . S
C39 O36 1.249 . S
C39 O37 1.267 . S
Dy40 O44 2.398 . S
Dy40 O45 2.491 . S
Dy40 O46 2.403 . S
Dy40 O47 2.664 . S
Dy40 O51 2.326 . S
Dy40 O55 2.310 . S
Dy40 O56 2.351 . S
C41 O52 1.185 . S
C41 O53 1.355 . S
C42 O44 1.185 . S
C42 O45 1.355 . S
Dy43 O47 2.310 . S
Dy43 O50 2.351 . S
Dy43 O52 2.398 . S
Dy43 O53 2.491 . S
Dy43 O54 2.403 . S
Dy43 O55 2.664 . S
Dy43 O57 2.326 . S
O44 Dy40 2.398 . S
O44 C42 1.185 . S
O45 Dy40 2.491 . S
O45 C42 1.355 . S
O46 Dy40 2.403 . S
O46 C48 1.254 . S
O47 Dy40 2.664 . S
O47 Dy43 2.310 . S
O47 C48 1.268 . S
C48 O46 1.254 . S
C48 O47 1.268 . S
C49 O54 1.254 . S
C49 O55 1.268 . S
O50 Dy43 2.351 . S
O50 C58 1.249 . S
O51 Dy40 2.326 . S
O51 C58 1.267 . S
O52 C41 1.185 . S
O52 Dy43 2.398 . S
O53 C41 1.355 . S
O53 Dy43 2.491 . S
O54 Dy43 2.403 . S
O54 C49 1.254 . S
O55 Dy40 2.310 . S
O55 Dy43 2.664 . S
O55 C49 1.268 . S
O56 Dy40 2.351 . S
O56 C59 1.249 . S
O57 Dy43 2.326 . S
O57 C59 1.267 . S
C58 O50 1.249 . S
C58 O51 1.267 . S
C59 O56 1.249 . S
C59 O57 1.267 . S
Dy60 O64 2.398 . S
Dy60 O65 2.491 . S
Dy60 O66 2.403 . S
Dy60 O67 2.664 . S
Dy60 O71 2.326 . S
Dy60 O75 2.310 . S
Dy60 O76 2.351 . S
C61 O72 1.185 . S
C61 O73 1.355 . S
C62 O64 1.185 . S
C62 O65 1.355 . S
Dy63 O67 2.310 . S
Dy63 O70 2.351 . S
Dy63 O72 2.398 . S
Dy63 O73 2.491 . S
Dy63 O74 2.403 . S
Dy63 O75 2.664 . S
Dy63 O77 2.326 . S
O64 Dy60 2.398 . S
O64 C62 1.185 . S
O65 Dy60 2.491 . S
O65 C62 1.355 . S
O66 Dy60 2.403 . S
O66 C68 1.254 . S
O67 Dy60 2.664 . S
O67 Dy63 2.310 . S
O67 C68 1.268 . S
C68 O66 1.254 . S
C68 O67 1.268 . S
C69 O74 1.254 . S
C69 O75 1.268 . S
O70 Dy63 2.351 . S
O70 C78 1.249 . S
O71 Dy60 2.326 . S
O71 C78 1.267 . S
O72 C61 1.185 . S
O72 Dy63 2.398 . S
O73 C61 1.355 . S
O73 Dy63 2.491 . S
O74 Dy63 2.403 . S
O74 C69 1.254 . S
O75 Dy60 2.310 . S
O75 Dy63 2.664 . S
O75 C69 1.268 . S
O76 Dy60 2.351 . S
O76 C79 1.249 . S
O77 Dy63 2.326 . S
O77 C79 1.267 . S
C78 O70 1.249 . S
C78 O71 1.267 . S
C79 O76 1.249 . S
C79 O77 1.267 . S
C80 C81 1.362 1_554 S
C80 C86 1.379 . S
C80 N88 1.356 . S
C81 C80 1.362 1_556 S
C81 C87 1.364 . S
C82 C83 1.359 1_556 S
C82 C87 1.379 . S
C82 N89 1.356 . S
C83 C82 1.359 1_554 S
C83 C86 1.365 . S
N84 C86 1.356 . S
N84 H96 0.984 . S
N84 H97 0.985 . S
N85 C87 1.356 . S
N85 H90 0.984 . S
N85 H91 0.985 . S
C86 C80 1.379 . S
C86 C83 1.365 . S
C86 N84 1.356 . S
C87 C81 1.364 . S
C87 C82 1.379 . S
C87 N85 1.356 . S
N88 C80 1.356 . S
N88 H94 0.984 . S
N88 H95 0.984 . S
N89 C82 1.356 . S
N89 H92 0.984 . S
N89 H93 0.985 . S
H90 N85 0.984 . S
H91 N85 0.985 . S
H92 N89 0.984 . S
H93 N89 0.985 . S
H94 N88 0.984 . S
H95 N88 0.984 . S
H96 N84 0.984 . S
H97 N84 0.985 . S
C98 C99 1.363 . S
C98 C104 1.379 . S
C98 N106 1.356 . S
C99 C98 1.363 . S
C99 C105 1.363 . S
C100 C101 1.363 . S
C100 C105 1.379 . S
C100 N107 1.356 . S
C101 C100 1.363 . S
C101 C104 1.363 . S
N102 C104 1.356 . S
N102 H114 0.984 . S
N102 H115 0.985 . S
N103 C105 1.356 . S
N103 H108 0.984 . S
N103 H109 0.985 . S
C104 C98 1.379 . S
C104 C101 1.363 . S
C104 N102 1.356 . S
C105 C99 1.363 . S
C105 C100 1.379 . S
C105 N103 1.356 . S
N106 C98 1.356 . S
N106 H112 0.984 . S
N106 H113 0.984 . S
N107 C100 1.356 . S
N107 H110 0.984 . S
N107 H111 0.985 . S
H108 N103 0.984 . S
H109 N103 0.985 . S
H110 N107 0.984 . S
H111 N107 0.985 . S
H112 N106 0.984 . S
H113 N106 0.984 . S
H114 N102 0.984 . S
H115 N102 0.985 . S
C116 C117 1.361 1_554 S
C116 C122 1.379 1_545 S
C116 N124 1.356 . S
C117 C116 1.361 1_556 S
C117 C123 1.364 1_455 S
C118 C119 1.356 1_556 S
C118 C123 1.379 1_565 S
C118 N125 1.356 . S
C119 C118 1.356 1_554 S
C119 C122 1.368 1_655 S
N120 C122 1.356 1_655 S
N120 H132 0.984 1_655 S
N120 H133 0.985 . S
N121 C123 1.356 1_455 S
N121 H126 0.984 . S
N121 H127 0.985 1_455 S
C122 C116 1.379 1_565 S
C122 C119 1.368 1_455 S
C122 N120 1.356 1_455 S
C123 C117 1.364 1_655 S
C123 C118 1.379 1_545 S
C123 N121 1.356 1_655 S
N124 C116 1.356 . S
N124 H130 0.984 . S
N124 H131 0.984 . S
N125 C118 1.356 . S
N125 H128 0.984 . S
N125 H129 0.985 . S
H126 N121 0.984 . S
H127 N121 0.985 1_655 S
H128 N125 0.984 . S
H129 N125 0.985 . S
H130 N124 0.984 . S
H131 N124 0.984 . S
H132 N120 0.984 1_455 S
H133 N120 0.985 . S
C134 C135 1.363 1_455 S
C134 C140 1.373 1_545 S
C134 N142 1.356 . S
C135 C134 1.363 1_655 S
C135 C141 1.369 . S
C136 C137 1.363 1_655 S
C136 C141 1.373 1_565 S
C136 N143 1.356 . S
C137 C136 1.363 1_455 S
C137 C140 1.369 . S
N138 C140 1.358 . S
N138 H150 0.984 1_565 S
N138 H151 0.985 . S
N139 C141 1.358 . S
N139 H144 0.984 . S
N139 H145 0.985 1_545 S
C140 C134 1.373 1_565 S
C140 C137 1.369 . S
C140 N138 1.358 . S
C141 C135 1.369 . S
C141 C136 1.373 1_545 S
C141 N139 1.358 . S
N142 C134 1.356 . S
N142 H148 0.984 . S
N142 H149 0.984 1_455 S
N143 C136 1.356 . S
N143 H146 0.984 1_655 S
N143 H147 0.985 . S
H144 N139 0.984 . S
H145 N139 0.985 1_565 S
H146 N143 0.984 1_455 S
H147 N143 0.985 . S
H148 N142 0.984 . S
H149 N142 0.984 1_655 S
H150 N138 0.984 1_545 S
H151 N138 0.985 . S
C152 C153 1.363 . S
C152 C158 1.379 . S
C152 N160 1.356 . S
C153 C152 1.363 . S
C153 C159 1.363 . S
C154 C155 1.363 . S
C154 C159 1.379 . S
C154 N161 1.356 . S
C155 C154 1.363 . S
C155 C158 1.363 . S
N156 C158 1.356 . S
N156 H168 0.984 . S
N156 H169 0.985 . S
N157 C159 1.356 . S
N157 H162 0.984 . S
N157 H163 0.985 . S
C158 C152 1.379 . S
C158 C155 1.363 . S
C158 N156 1.356 . S
C159 C153 1.363 . S
C159 C154 1.379 . S
C159 N157 1.356 . S
N160 C152 1.356 . S
N160 H166 0.984 . S
N160 H167 0.984 . S
N161 C154 1.356 . S
N161 H164 0.984 . S
N161 H165 0.985 . S
H162 N157 0.984 . S
H163 N157 0.985 . S
H164 N161 0.984 . S
H165 N161 0.985 . S
H166 N160 0.984 . S
H167 N160 0.984 . S
H168 N156 0.984 . S
H169 N156 0.985 . S
C170 C171 1.363 . S
C170 C176 1.379 . S
C170 N178 1.356 . S
C171 C170 1.363 . S
C171 C177 1.363 . S
C172 C173 1.363 . S
C172 C177 1.379 . S
C172 N179 1.356 . S
C173 C172 1.363 . S
C173 C176 1.363 . S
N174 C176 1.356 . S
N174 H186 0.984 . S
N174 H187 0.985 . S
N175 C177 1.356 . S
N175 H180 0.984 . S
N175 H181 0.985 . S
C176 C170 1.379 . S
C176 C173 1.363 . S
C176 N174 1.356 . S
C177 C171 1.363 . S
C177 C172 1.379 . S
C177 N175 1.356 . S
N178 C170 1.356 . S
N178 H184 0.984 . S
N178 H185 0.984 . S
N179 C172 1.356 . S
N179 H182 0.984 . S
N179 H183 0.985 . S
H180 N175 0.984 . S
H181 N175 0.985 . S
H182 N179 0.984 . S
H183 N179 0.985 . S
H184 N178 0.984 . S
H185 N178 0.984 . S
H186 N174 0.984 . S
H187 N174 0.985 . S
C188 C189 1.363 . S
C188 C194 1.379 . S
C188 N196 1.356 . S
C189 C188 1.363 . S
C189 C195 1.363 . S
C190 C191 1.363 . S
C190 C195 1.379 . S
C190 N197 1.356 . S
C191 C190 1.363 . S
C191 C194 1.363 . S
N192 C194 1.356 . S
N192 H204 0.984 . S
N192 H205 0.985 . S
N193 C195 1.356 . S
N193 H198 0.984 . S
N193 H199 0.985 . S
C194 C188 1.379 . S
C194 C191 1.363 . S
C194 N192 1.356 . S
C195 C189 1.363 . S
C195 C190 1.379 . S
C195 N193 1.356 . S
N196 C188 1.356 . S
N196 H202 0.984 . S
N196 H203 0.984 . S
N197 C190 1.356 . S
N197 H200 0.984 . S
N197 H201 0.985 . S
H198 N193 0.984 . S
H199 N193 0.985 . S
H200 N197 0.984 . S
H201 N197 0.985 . S
H202 N196 0.984 . S
H203 N196 0.984 . S
H204 N192 0.984 . S
H205 N192 0.985 . S
C206 C207 1.363 . S
C206 C212 1.379 . S
C206 N214 1.356 . S
C207 C206 1.363 . S
C207 C213 1.363 . S
C208 C209 1.363 . S
C208 C213 1.379 . S
C208 N215 1.356 . S
C209 C208 1.363 . S
C209 C212 1.363 . S
N210 C212 1.356 . S
N210 H222 0.984 . S
N210 H223 0.985 . S
N211 C213 1.356 . S
N211 H216 0.984 . S
N211 H217 0.985 . S
C212 C206 1.379 . S
C212 C209 1.363 . S
C212 N210 1.356 . S
C213 C207 1.363 . S
C213 C208 1.379 . S
C213 N211 1.356 . S
N214 C206 1.356 . S
N214 H220 0.984 . S
N214 H221 0.984 . S
N215 C208 1.356 . S
N215 H218 0.984 . S
N215 H219 0.985 . S
H216 N211 0.984 . S
H217 N211 0.985 . S
H218 N215 0.984 . S
H219 N215 0.985 . S
H220 N214 0.984 . S
H221 N214 0.984 . S
H222 N210 0.984 . S
H223 N210 0.985 . S
C224 C225 1.363 . S
C224 C230 1.379 . S
C224 N232 1.356 . S
C225 C224 1.363 . S
C225 C231 1.363 1_655 S
C226 C227 1.363 . S
C226 C231 1.379 . S
C226 N233 1.356 . S
C227 C226 1.363 . S
C227 C230 1.363 1_455 S
N228 C230 1.356 . S
N228 H240 0.984 . S
N228 H241 0.985 . S
N229 C231 1.356 . S
N229 H234 0.984 . S
N229 H235 0.985 . S
C230 C224 1.379 . S
C230 C227 1.363 1_655 S
C230 N228 1.356 . S
C231 C225 1.363 1_455 S
C231 C226 1.379 . S
C231 N229 1.356 . S
N232 C224 1.356 . S
N232 H238 0.984 . S
N232 H239 0.984 . S
N233 C226 1.356 . S
N233 H236 0.984 . S
N233 H237 0.985 . S
H234 N229 0.984 . S
H235 N229 0.985 . S
H236 N233 0.984 . S
H237 N233 0.985 . S
H238 N232 0.984 . S
H239 N232 0.984 . S
H240 N228 0.984 . S
H241 N228 0.985 . S
C242 C243 1.363 . S
C242 C248 1.379 . S
C242 N250 1.356 . S
C243 C242 1.363 . S
C243 C249 1.363 1_655 S
C244 C245 1.363 . S
C244 C249 1.379 . S
C244 N251 1.356 . S
C245 C244 1.363 . S
C245 C248 1.363 1_455 S
N246 C248 1.356 . S
N246 H258 0.984 . S
N246 H259 0.985 . S
N247 C249 1.356 . S
N247 H252 0.984 . S
N247 H253 0.985 . S
C248 C242 1.379 . S
C248 C245 1.363 1_655 S
C248 N246 1.356 . S
C249 C243 1.363 1_455 S
C249 C244 1.379 . S
C249 N247 1.356 . S
N250 C242 1.356 . S
N250 H256 0.984 . S
N250 H257 0.984 . S
N251 C244 1.356 . S
N251 H254 0.984 . S
N251 H255 0.985 . S
H252 N247 0.984 . S
H253 N247 0.985 . S
H254 N251 0.984 . S
H255 N251 0.985 . S
H256 N250 0.984 . S
H257 N250 0.984 . S
H258 N246 0.984 . S
H259 N246 0.985 . S
C260 C261 1.363 . S
C260 C266 1.379 . S
C260 N268 1.356 . S
C261 C260 1.363 . S
C261 C267 1.363 1_655 S
C262 C263 1.363 . S
C262 C267 1.379 . S
C262 N269 1.356 . S
C263 C262 1.363 . S
C263 C266 1.363 1_455 S
N264 C266 1.356 . S
N264 H276 0.984 . S
N264 H277 0.985 . S
N265 C267 1.356 . S
N265 H270 0.984 . S
N265 H271 0.985 . S
C266 C260 1.379 . S
C266 C263 1.363 1_655 S
C266 N264 1.356 . S
C267 C261 1.363 1_455 S
C267 C262 1.379 . S
C267 N265 1.356 . S
N268 C260 1.356 . S
N268 H274 0.984 . S
N268 H275 0.984 . S
N269 C262 1.356 . S
N269 H272 0.984 . S
N269 H273 0.985 . S
H270 N265 0.984 . S
H271 N265 0.985 . S
H272 N269 0.984 . S
H273 N269 0.985 . S
H274 N268 0.984 . S
H275 N268 0.984 . S
H276 N264 0.984 . S
H277 N264 0.985 . S
C278 C279 1.363 . S
C278 C284 1.379 . S
C278 N286 1.356 . S
C279 C278 1.363 . S
C279 C285 1.363 1_455 S
C280 C281 1.363 . S
C280 C285 1.379 . S
C280 N287 1.356 . S
C281 C280 1.363 . S
C281 C284 1.363 1_655 S
N282 C284 1.356 . S
N282 H294 0.984 . S
N282 H295 0.985 . S
N283 C285 1.356 . S
N283 H288 0.984 . S
N283 H289 0.985 . S
C284 C278 1.379 . S
C284 C281 1.363 1_455 S
C284 N282 1.356 . S
C285 C279 1.363 1_655 S
C285 C280 1.379 . S
C285 N283 1.356 . S
N286 C278 1.356 . S
N286 H292 0.984 . S
N286 H293 0.984 . S
N287 C280 1.356 . S
N287 H290 0.984 . S
N287 H291 0.985 . S
H288 N283 0.984 . S
H289 N283 0.985 . S
H290 N287 0.984 . S
H291 N287 0.985 . S
H292 N286 0.984 . S
H293 N286 0.984 . S
H294 N282 0.984 . S
H295 N282 0.985 . S
C81 C29 1.561 . S
C83 C8 1.563 . S
C99 C49 1.561 . S
C101 C68 1.561 . S
C117 C9 1.561 . S
C119 C28 1.563 . S
C135 C69 1.561 . S
C137 C48 1.561 . S
C153 C78 1.376 . S
C155 C18 1.376 . S
C171 C22 1.292 . S
C173 C42 1.292 . S
C189 C39 1.376 . S
C191 C59 1.376 . S
C207 C61 1.292 . S
C209 C1 1.292 . S
C225 C38 1.376 . S
C227 C58 1.376 . S
C243 C62 1.292 . S
C245 C2 1.292 . S
C261 C79 1.376 . S
C263 C19 1.376 . S
C279 C41 1.292 . S
C281 C21 1.292 . S
