# Generated by pormake.
# Topology zfu, (5)-cn, num edge types: 1
# Building blocks:
#     Node 0, Type 0, BuildingBlock: XOMCOT_clean_sbu_0, # of connection points: 5
#     Node 1, Type 0, BuildingBlock: XOMCOT_clean_sbu_0, # of connection points: 5
#     Node 2, Type 0, BuildingBlock: XOMCOT_clean_sbu_0, # of connection points: 5
#     Node 3, Type 0, BuildingBlock: XOMCOT_clean_sbu_0, # of connection points: 5
#     Node 4, Type 0, BuildingBlock: XOMCOT_clean_sbu_0, # of connection points: 5
#     Node 5, Type 0, BuildingBlock: XOMCOT_clean_sbu_0, # of connection points: 5
#     Node 6, Type 0, BuildingBlock: XOMCOT_clean_sbu_0, # of connection points: 5
#     Node 7, Type 0, BuildingBlock: XOMCOT_clean_sbu_0, # of connection points: 5
#     Edge 8, Type (0, 0), BuildingBlock: UVAHIK_clean_linker_0, # of connection points: 2
#     Edge 9, Type (0, 0), BuildingBlock: UVAHIK_clean_linker_0, # of connection points: 2
#     Edge 10, Type (0, 0), BuildingBlock: UVAHIK_clean_linker_0, # of connection points: 2
#     Edge 11, Type (0, 0), BuildingBlock: UVAHIK_clean_linker_0, # of connection points: 2
#     Edge 12, Type (0, 0), BuildingBlock: UVAHIK_clean_linker_0, # of connection points: 2
#     Edge 13, Type (0, 0), BuildingBlock: UVAHIK_clean_linker_0, # of connection points: 2
#     Edge 14, Type (0, 0), BuildingBlock: UVAHIK_clean_linker_0, # of connection points: 2
#     Edge 15, Type (0, 0), BuildingBlock: UVAHIK_clean_linker_0, # of connection points: 2
#     Edge 16, Type (0, 0), BuildingBlock: UVAHIK_clean_linker_0, # of connection points: 2
#     Edge 17, Type (0, 0), BuildingBlock: UVAHIK_clean_linker_0, # of connection points: 2
#     Edge 18, Type (0, 0), BuildingBlock: UVAHIK_clean_linker_0, # of connection points: 2
#     Edge 19, Type (0, 0), BuildingBlock: UVAHIK_clean_linker_0, # of connection points: 2
#     Edge 20, Type (0, 0), BuildingBlock: UVAHIK_clean_linker_0, # of connection points: 2
#     Edge 21, Type (0, 0), BuildingBlock: UVAHIK_clean_linker_0, # of connection points: 2
#     Edge 22, Type (0, 0), BuildingBlock: UVAHIK_clean_linker_0, # of connection points: 2
#     Edge 23, Type (0, 0), BuildingBlock: UVAHIK_clean_linker_0, # of connection points: 2
#     Edge 24, Type (0, 0), BuildingBlock: UVAHIK_clean_linker_0, # of connection points: 2
#     Edge 25, Type (0, 0), BuildingBlock: UVAHIK_clean_linker_0, # of connection points: 2
#     Edge 26, Type (0, 0), BuildingBlock: UVAHIK_clean_linker_0, # of connection points: 2
#     Edge 27, Type (0, 0), BuildingBlock: UVAHIK_clean_linker_0, # of connection points: 2
# Relax obj value: 0.170
# Max RMSD: 0.196
# Mean RMSD: 0.196
data_MOF--net-zfu--node1-XOMCOT_clean_sbu_0--edge1-UVAHIK_clean_linker_0
_symmetry_space_group_name_H-M    P1
_symmetry_Int_Tables_number       1
_symmetry_cell_setting            triclinic
loop_
_symmetry_equiv_pos_as_xyz
'x, y, z'
_cell_length_a     51.387838
_cell_length_b     51.325961
_cell_length_c     31.951906
_cell_angle_alpha  90.203267
_cell_angle_beta   90.29148
_cell_angle_gamma 90.096682
loop_
_atom_site_label
_atom_site_type_symbol
_atom_site_fract_x
_atom_site_fract_y
_atom_site_fract_z
_atom_type_partial_charge
Co0 Co 0.44918 0.75128 0.98305 0.0
C1 C 0.48086 0.70471 1.00592 0.0
C2 C 0.46595 0.7031 0.94306 0.0
C3 C 0.48072 0.68132 0.94984 0.0
N4 N 0.4657 0.71762 0.97825 0.0
N5 N 0.49017 0.68233 0.98922 0.0
H6 H 0.48545 0.71178 0.03705 0.0
H7 H 0.45708 0.70847 0.91364 0.0
C8 C 0.39981 0.7446 0.93351 0.0
O9 O 0.38757 0.75805 0.96239 0.0
N10 N 0.43295 0.78548 0.98472 0.0
C11 C 0.42741 0.80184 0.01664 0.0
C12 C 0.41719 0.82456 1.00043 0.0
C13 C 0.42677 0.79891 0.94978 0.0
N14 N 0.41664 0.82253 0.95835 0.0
C15 C 0.42987 0.74621 0.06617 0.0
C16 C 0.39671 0.70469 0.05233 0.0
C17 C 0.3993 0.71466 0.09318 0.0
C18 C 0.41637 0.73557 0.09966 0.0
C19 C 0.41079 0.71595 0.01945 0.0
N20 N 0.4264 0.7372 0.02628 0.0
H21 H 0.4441 0.76102 0.07306 0.0
H22 H 0.40974 0.70693 0.98892 0.0
H23 H 0.43083 0.79827 0.04936 0.0
H24 H 0.42994 0.79151 0.91847 0.0
O25 O 0.47651 0.76296 0.01954 0.0
O26 O 0.47751 0.76678 0.95058 0.0
O27 O 0.42431 0.7406 0.93666 0.0
C28 C 0.48896 0.77052 0.9867 0.0
H29 H 0.4854 0.66659 0.92675 0.0
H30 H 0.41053 0.84118 0.01831 0.0
H31 H 0.38421 0.68815 0.04581 0.0
H32 H 0.42021 0.74312 0.13078 0.0
Co33 Co 0.7468 0.95114 0.23607 0.0
C34 C 0.78987 0.98774 0.26059 0.0
C35 C 0.78868 0.97852 0.19487 0.0
C36 C 0.8094 0.99474 0.20211 0.0
N37 N 0.77663 0.9738 0.23141 0.0
N38 N 0.81016 1.00053 0.24323 0.0
H39 H 0.78509 0.98817 0.29354 0.0
H40 H 0.78274 0.97074 0.16482 0.0
C41 C 0.76126 0.9039 0.18652 0.0
O42 O 0.74981 0.88973 0.21524 0.0
N43 N 0.71624 0.9286 0.2374 0.0
C44 C 0.70467 0.91541 0.26873 0.0
C45 C 0.68432 0.901 0.25231 0.0
C46 C 0.70227 0.92245 0.20276 0.0
N47 N 0.68293 0.90541 0.21079 0.0
C48 C 0.75597 0.93381 0.3196 0.0
C49 C 0.80198 0.90759 0.3057 0.0
C50 C 0.79211 0.90874 0.34661 0.0
C51 C 0.76892 0.92238 0.35315 0.0
C52 C 0.78833 0.91949 0.27277 0.0
N53 N 0.76496 0.93148 0.27962 0.0
H54 H 0.73875 0.94499 0.32626 0.0
H55 H 0.79709 0.9197 0.24215 0.0
H56 H 0.71035 0.91552 0.30116 0.0
H57 H 0.70706 0.92944 0.17181 0.0
O58 O 0.72986 0.97556 0.27219 0.0
O59 O 0.72655 0.97605 0.20302 0.0
O60 O 0.76183 0.92873 0.18989 0.0
C61 C 0.72003 0.98612 0.23903 0.0
H62 H 0.8228 1.00204 0.17887 0.0
H63 H 0.67165 0.88814 0.26964 0.0
H64 H 0.82018 0.89782 0.29917 0.0
H65 H 0.76108 0.92498 0.38429 0.0
Co66 Co 0.56077 0.25645 0.48467 0.0
C67 C 0.52457 0.30061 0.5033 0.0
C68 C 0.53684 0.29886 0.43916 0.0
C69 C 0.51812 0.31766 0.44257 0.0
N70 N 0.54103 0.28816 0.47706 0.0
N71 N 0.51034 0.31868 0.48266 0.0
H72 H 0.52174 0.29536 0.53574 0.0
H73 H 0.54536 0.29219 0.41023 0.0
C74 C 0.60873 0.26933 0.43636 0.0
O75 O 0.62254 0.26013 0.46772 0.0
N76 N 0.57989 0.22368 0.48862 0.0
C77 C 0.57845 0.20492 0.51814 0.0
C78 C 0.58988 0.18248 0.50316 0.0
C79 C 0.59104 0.21168 0.4555 0.0
N80 N 0.59781 0.18683 0.46367 0.0
C81 C 0.58572 0.2627 0.56424 0.0
C82 C 0.6066 0.31156 0.55089 0.0
C83 C 0.61024 0.29967 0.59 0.0
C84 C 0.59955 0.27493 0.5963 0.0
C85 C 0.59278 0.29838 0.51923 0.0
N86 N 0.58304 0.2739 0.52583 0.0
H87 H 0.57612 0.24472 0.57131 0.0
H88 H 0.5895 0.30806 0.48968 0.0
H89 H 0.56776 0.20624 0.54705 0.0
H90 H 0.59205 0.2201 0.42461 0.0
O91 O 0.53529 0.24412 0.52315 0.0
O92 O 0.53343 0.2375 0.45452 0.0
O93 O 0.58388 0.26797 0.43717 0.0
C94 C 0.52285 0.2345 0.49131 0.0
H95 H 0.50988 0.3289 0.41714 0.0
H96 H 0.59102 0.16405 0.5194 0.0
H97 H 0.61416 0.3309 0.54493 0.0
H98 H 0.60085 0.26548 0.6265 0.0
Co99 Co 0.26209 0.05665 0.7293 0.0
C100 C 0.21604 0.02242 0.74741 0.0
C101 C 0.22261 0.02942 0.68201 0.0
C102 C 0.20106 0.01395 0.68568 0.0
N103 N 0.23188 0.03499 0.72049 0.0
N104 N 0.19683 0.00956 0.72665 0.0
H105 H 0.2184 0.02279 0.78109 0.0
H106 H 0.2312 0.03594 0.65304 0.0
C107 C 0.25054 0.10408 0.67899 0.0
O108 O 0.2611 0.11778 0.70948 0.0
N109 N 0.29323 0.07815 0.73425 0.0
C110 C 0.30522 0.0899 0.76701 0.0
C111 C 0.32649 0.10352 0.75246 0.0
C112 C 0.30796 0.08417 0.70075 0.0
N113 N 0.32809 0.09989 0.71076 0.0
C114 C 0.25111 0.07641 0.81087 0.0
C115 C 0.20733 0.10502 0.79114 0.0
C116 C 0.21744 0.10626 0.83196 0.0
C117 C 0.2392 0.09119 0.84182 0.0
C118 C 0.22025 0.09014 0.76069 0.0
N119 N 0.2429 0.07739 0.77022 0.0
H120 H 0.2672 0.06421 0.81994 0.0
H121 H 0.2119 0.0888 0.72967 0.0
H122 H 0.29946 0.08911 0.79927 0.0
H123 H 0.30328 0.07796 0.66919 0.0
O124 O 0.2765 0.0321 0.7678 0.0
O125 O 0.28313 0.03082 0.6994 0.0
O126 O 0.24972 0.07922 0.68135 0.0
C127 C 0.28785 0.02109 0.73638 0.0
H128 H 0.18975 0.0059 0.66004 0.0
H129 H 0.33973 0.1152 0.77116 0.0
H130 H 0.1899 0.11565 0.78276 0.0
H131 H 0.24683 0.0906 0.87348 0.0
Co132 Co 0.95569 0.75547 0.8218 0.0
C133 C 0.99459 0.79809 0.80798 0.0
C134 C 0.98521 0.79145 0.87258 0.0
C135 C 1.00435 0.80998 0.87094 0.0
N136 N 0.97906 0.78398 0.83333 0.0
N137 N 0.01035 0.81409 0.8305 0.0
H138 H 0.9951 0.79598 0.77427 0.0
H139 H 0.97694 0.78328 0.90068 0.0
C140 C 0.90792 0.76841 0.87037 0.0
O141 O 0.89422 0.75916 0.83881 0.0
N142 N 0.93257 0.72584 0.81397 0.0
C143 C 0.92451 0.71267 0.7796 0.0
C144 C 0.91163 0.69036 0.7922 0.0
C145 C 0.92498 0.71106 0.84653 0.0
N146 N 0.91192 0.68955 0.83439 0.0
C147 C 0.93976 0.76957 0.73935 0.0
C148 C 0.91368 0.81495 0.75901 0.0
C149 C 0.91546 0.80722 0.717 0.0
C150 C 0.92888 0.78437 0.70741 0.0
C151 C 0.92542 0.7997 0.79024 0.0
N152 N 0.93731 0.77664 0.7804 0.0
H153 H 0.95082 0.75266 0.73051 0.0
H154 H 0.92544 0.80688 0.82203 0.0
H155 H 0.92843 0.71783 0.74762 0.0
H156 H 0.93006 0.71551 0.87869 0.0
O157 O 0.98024 0.74007 0.78434 0.0
O158 O 0.97924 0.7322 0.8524 0.0
O159 O 0.93281 0.76842 0.86893 0.0
C160 C 0.98956 0.72743 0.81592 0.0
H161 H 0.01344 0.81952 0.89753 0.0
H162 H 0.90319 0.67568 0.77185 0.0
H163 H 0.90405 0.83296 0.76744 0.0
H164 H 0.93103 0.77796 0.67526 0.0
Co165 Co 0.76146 0.45856 0.07218 0.0
C166 C 0.7192 0.49968 0.05726 0.0
C167 C 0.74105 0.50384 0.11417 0.0
C168 C 0.72303 0.52337 0.11268 0.0
N169 N 0.73909 0.48896 0.07938 0.0
N170 N 0.70927 0.52082 0.07699 0.0
H171 H 0.71152 0.49225 0.02818 0.0
H172 H 0.75433 0.50027 0.13986 0.0
C173 C 0.72025 0.44098 0.13008 0.0
O174 O 0.70367 0.45208 0.10434 0.0
N175 N 0.78453 0.4291 0.0691 0.0
C176 C 0.79358 0.41584 0.03581 0.0
C177 C 0.81184 0.39805 0.04989 0.0
C178 C 0.79734 0.41955 0.1025 0.0
N179 N 0.81426 0.40063 0.09186 0.0
C180 C 0.73395 0.45276 0.99527 0.0
C181 C 0.71476 0.40318 1.00825 0.0
C182 C 0.7102 0.41529 0.96954 0.0
C183 C 0.71999 0.44043 0.96348 0.0
C184 C 0.72868 0.41646 0.03968 0.0
N185 N 0.73753 0.4413 0.03334 0.0
H186 H 0.74237 0.47159 0.9888 0.0
H187 H 0.73324 0.40635 0.06839 0.0
H188 H 0.78789 0.41933 1.00367 0.0
H189 H 0.79457 0.42678 0.13401 0.0
O190 O 0.78158 0.47626 0.03075 0.0
O191 O 0.78961 0.47855 0.09879 0.0
O192 O 0.74463 0.44206 0.12254 0.0
C193 C 0.79576 0.48552 0.06087 0.0
H194 H 0.71962 0.53776 0.13688 0.0
H195 H 0.82315 0.38498 0.03055 0.0
H196 H 0.70802 0.38351 0.01395 0.0
H197 H 0.71785 0.45019 0.93366 0.0
Co198 Co 0.05605 0.25198 0.31304 0.0
C199 C 0.01585 0.20904 0.31143 0.0
C200 C 0.05492 0.19547 0.32084 0.0
C201 C 0.03863 0.17429 0.31978 0.0
N202 N 0.04079 0.21733 0.31549 0.0
N203 N 0.0141 0.18277 0.31376 0.0
H204 H 0.99941 0.22163 0.30578 0.0
H205 H 0.07584 0.19492 0.32452 0.0
C206 C 0.10056 0.24945 0.37778 0.0
O207 O 0.11174 0.27062 0.3636 0.0
N208 N 0.07133 0.28656 0.31142 0.0
C209 C 0.08382 0.29802 0.27942 0.0
C210 C 0.09415 0.3213 0.29339 0.0
C211 C 0.07289 0.30369 0.34358 0.0
N212 N 0.08763 0.32465 0.33396 0.0
C213 C 0.06779 0.23006 0.23454 0.0
C214 C 0.12145 0.23055 0.23868 0.0
C215 C 0.10915 0.22246 0.20156 0.0
C216 C 0.08201 0.22197 0.20003 0.0
C217 C 0.10634 0.23895 0.27266 0.0
N218 N 0.07976 0.23899 0.27009 0.0
H219 H 0.04683 0.22917 0.23253 0.0
H220 H 0.11624 0.24587 0.30007 0.0
H221 H 0.08625 0.28962 0.24862 0.0
H222 H 0.06574 0.29951 0.37467 0.0
O223 O 0.02959 0.26369 0.27525 0.0
O224 O 0.0266 0.26651 0.34423 0.0
O225 O 0.07959 0.24064 0.36106 0.0
C226 C 0.01619 0.27076 0.30747 0.0
H227 H 0.04444 0.15414 0.32309 0.0
H228 H 0.10652 0.33419 0.27555 0.0
H229 H 0.14248 0.23106 0.24097 0.0
H230 H 0.07177 0.21529 0.17225 0.0
Co231 Co 0.2487 0.55108 0.57149 0.0
C232 C 0.29648 0.51929 0.55436 0.0
C233 C 0.29222 0.53075 0.61871 0.0
C234 C 0.31433 0.51613 0.61531 0.0
N235 N 0.28116 0.53308 0.58062 0.0
N236 N 0.3171 0.5089 0.575 0.0
H237 H 0.29252 0.51671 0.52131 0.0
H238 H 0.28428 0.53843 0.64747 0.0
C239 C 0.25622 0.60063 0.62024 0.0
O240 O 0.24466 0.61324 0.58964 0.0
N241 N 0.21547 0.56891 0.56632 0.0
C242 C 0.20015 0.57503 0.53331 0.0
C243 C 0.17776 0.58678 0.54799 0.0
C244 C 0.20169 0.57618 0.60024 0.0
N245 N 0.17901 0.58768 0.59013 0.0
C246 C 0.25694 0.57002 0.48893 0.0
C247 C 0.29889 0.60213 0.50553 0.0
C248 C 0.28926 0.60056 0.46434 0.0
C249 C 0.26828 0.5838 0.45638 0.0
C250 C 0.28689 0.58777 0.53747 0.0
N251 N 0.2653 0.5729 0.52927 0.0
H252 H 0.24183 0.55631 0.48104 0.0
H253 H 0.29532 0.58828 0.56848 0.0
H254 H 0.20423 0.57107 0.5009 0.0
H255 H 0.20821 0.57288 0.63204 0.0
O256 O 0.23724 0.52398 0.53437 0.0
O257 O 0.23052 0.52372 0.60272 0.0
O258 O 0.25887 0.57587 0.61828 0.0
C259 C 0.22759 0.51222 0.56645 0.0
H260 H 0.32683 0.51028 0.64097 0.0
H261 H 0.16196 0.59431 0.52908 0.0
H262 H 0.31553 0.61427 0.51307 0.0
H263 H 0.26103 0.58068 0.42487 0.0
C264 C 0.66604 0.52608 0.04335 0.0
C265 C 0.6874 0.53674 0.06507 0.0
C266 C 0.64374 0.54111 0.03606 0.0
C267 C 0.60961 0.59914 0.07724 0.0
H268 H 0.57232 0.59687 0.97161 0.0
C269 C 0.52998 0.67374 0.03067 0.0
C270 C 0.50904 0.66459 1.00631 0.0
C271 C 0.55059 0.65709 0.04097 0.0
C272 C 0.58228 0.59745 1.00155 0.0
H273 H 0.70278 0.57187 0.09384 0.0
H274 H 0.66417 0.59803 0.08095 0.0
H275 H 0.61086 0.56992 0.98124 0.0
H276 H 0.4922 0.63057 0.97642 0.0
H277 H 0.52781 0.60142 0.9949 0.0
H278 H 0.58112 0.62681 0.09745 0.0
C279 C 0.66425 0.57792 0.07055 0.0
C280 C 0.6044 0.58201 1.00701 0.0
C281 C 0.68642 0.56295 0.07781 0.0
C282 C 0.50833 0.63818 0.99466 0.0
C283 C 0.52878 0.62156 1.00505 0.0
C284 C 0.58747 0.61457 0.0718 0.0
C285 C 0.64245 0.56707 0.05031 0.0
C286 C 0.61844 0.58282 0.0448 0.0
C287 C 0.55054 0.63098 0.02722 0.0
C288 C 0.57359 0.61399 0.03382 0.0
H289 H 0.66616 0.50588 0.03348 0.0
H290 H 0.62722 0.53215 0.0205 0.0
H291 H 0.61974 0.59987 0.10703 0.0
H292 H 0.53111 0.69407 0.0397 0.0
H293 H 0.56712 0.66501 0.05793 0.0
C294 C 0.9667 0.175 0.3222 0.0
C295 C 0.99132 0.16661 0.30866 0.0
C296 C 0.94493 0.15857 0.31833 0.0
C297 C 0.92123 0.10234 0.25732 0.0
H298 H 0.87547 0.08808 0.35072 0.0
C299 C 0.85555 0.01372 0.25234 0.0
C300 C 0.82928 0.01715 0.26252 0.0
C301 C 0.8739 0.03272 0.26258 0.0
C302 C 0.88792 0.0921 0.32427 0.0
H303 H 0.01222 0.13477 0.27948 0.0
H304 H 0.9746 0.10636 0.27278 0.0
H305 H 0.90969 0.12135 0.35781 0.0
H306 H 0.80163 0.04225 0.2935 0.0
H307 H 0.83396 0.07605 0.31154 0.0
H308 H 0.89993 0.07322 0.22375 0.0
C309 C 0.97199 0.12551 0.28647 0.0
C310 C 0.90743 0.11115 0.32828 0.0
C311 C 0.99363 0.14171 0.29068 0.0
C312 C 0.82189 0.03918 0.28574 0.0
C313 C 0.84034 0.05848 0.29582 0.0
C314 C 0.90185 0.08346 0.25331 0.0
C315 C 0.94739 0.13368 0.30022 0.0
C316 C 0.92468 0.11596 0.2951 0.0
C317 C 0.86636 0.05585 0.28282 0.0
C318 C 0.88541 0.07758 0.28703 0.0
H319 H 0.96439 0.19403 0.3364 0.0
H320 H 0.92617 0.16541 0.32904 0.0
H321 H 0.93382 0.10601 0.23088 0.0
H322 H 0.86164 0.99677 0.23467 0.0
H323 H 0.8939 0.02974 0.25317 0.0
C324 C 0.46546 0.33386 0.47416 0.0
C325 C 0.48869 0.33367 0.49741 0.0
C326 C 0.44573 0.35148 0.48363 0.0
C327 C 0.42288 0.39909 0.56331 0.0
H328 H 0.38955 0.43104 0.46705 0.0
C329 C 0.36167 0.49174 0.5791 0.0
C330 C 0.33702 0.49163 0.55982 0.0
C331 C 0.37985 0.47246 0.56998 0.0
C332 C 0.3985 0.42212 0.49421 0.0
H333 H 0.50932 0.35081 0.54972 0.0
H334 H 0.47496 0.38233 0.56617 0.0
H335 H 0.42138 0.39649 0.45663 0.0
H336 H 0.31263 0.47206 0.51406 0.0
H337 H 0.34477 0.43828 0.49742 0.0
H338 H 0.40034 0.42523 0.60076 0.0
C339 C 0.47174 0.36854 0.54095 0.0
C340 C 0.41668 0.40223 0.48835 0.0
C341 C 0.49141 0.35055 0.5317 0.0
C342 C 0.33152 0.47269 0.52918 0.0
C343 C 0.34985 0.45333 0.51987 0.0
C344 C 0.40484 0.41912 0.56914 0.0
C345 C 0.44893 0.36967 0.51624 0.0
C346 C 0.42914 0.39046 0.52283 0.0
C347 C 0.37392 0.45263 0.54113 0.0
C348 C 0.39256 0.43094 0.53464 0.0
H349 H 0.46293 0.32075 0.44781 0.0
H350 H 0.42818 0.35121 0.46472 0.0
H351 H 0.43174 0.39024 0.59059 0.0
H352 H 0.36665 0.50643 0.60219 0.0
H353 H 0.39846 0.47285 0.58605 0.0
C354 C 0.02639 0.84735 0.78107 0.0
C355 C 0.03037 0.83144 0.81613 0.0
C356 C 0.04455 0.86676 0.77111 0.0
C357 C 0.09684 0.9061 0.82129 0.0
H358 H 0.11431 0.92425 0.70726 0.0
C359 C 0.18116 0.97645 0.77679 0.0
C360 C 0.17654 0.99312 0.74282 0.0
C361 C 0.16269 0.95752 0.78762 0.0
C362 C 0.10942 0.91959 0.73931 0.0
H363 H 0.05712 0.8219 0.86632 0.0
H364 H 0.08898 0.8551 0.84854 0.0
H365 H 0.08394 0.88868 0.72016 0.0
H366 H 0.14828 1.00457 0.69586 0.0
H367 H 0.11612 0.97187 0.71481 0.0
H368 H 0.12254 0.9369 0.84036 0.0
C369 C 0.07154 0.85342 0.82954 0.0
C370 C 0.09199 0.8992 0.74667 0.0
C371 C 0.05338 0.83428 0.8396 0.0
C372 C 0.15256 0.99159 0.72162 0.0
C373 C 0.1342 0.9728 0.73236 0.0
C374 C 0.11436 0.92641 0.81392 0.0
C375 C 0.06706 0.87038 0.79589 0.0
C376 C 0.0855 0.89216 0.78776 0.0
C377 C 0.13933 0.95505 0.76465 0.0
C378 C 0.12079 0.93343 0.77284 0.0
H379 H 0.00871 0.84559 0.7627 0.0
H380 H 0.04044 0.87955 0.74503 0.0
H381 H 0.09191 0.90154 0.85336 0.0
H382 H 0.19954 0.97714 0.79347 0.0
H383 H 0.1672 0.94409 0.81268 0.0
C384 C 0.32837 0.61782 0.42549 0.0
C385 C 0.30121 0.61513 0.42898 0.0
C386 C 0.33934 0.62911 0.38974 0.0
C387 C 0.32544 0.63926 0.27834 0.0
H388 H 0.37924 0.69223 0.28324 0.0
C389 C 0.38276 0.67558 0.13296 0.0
C390 C 0.38573 0.70276 0.12962 0.0
C391 C 0.37225 0.66453 0.1692 0.0
C392 C 0.3642 0.67745 0.28143 0.0
H393 H 0.26433 0.62387 0.39872 0.0
H394 H 0.28346 0.64293 0.33639 0.0
H395 H 0.36186 0.6742 0.34826 0.0
H396 H 0.37854 0.73959 0.16113 0.0
H397 H 0.36083 0.72026 0.22438 0.0
H398 H 0.32778 0.64245 0.21156 0.0
C399 C 0.29626 0.63593 0.36093 0.0
C400 C 0.35441 0.66702 0.3186 0.0
C401 C 0.28533 0.62497 0.39668 0.0
C402 C 0.37716 0.71857 0.1629 0.0
C403 C 0.36698 0.70753 0.1992 0.0
C404 C 0.33548 0.6494 0.24119 0.0
C405 C 0.32336 0.63772 0.35671 0.0
C406 C 0.33471 0.64804 0.31743 0.0
C407 C 0.36472 0.68039 0.20299 0.0
C408 C 0.35476 0.66881 0.24235 0.0
H409 H 0.34121 0.61031 0.44955 0.0
H410 H 0.36032 0.63025 0.38727 0.0
H411 H 0.31042 0.62445 0.27651 0.0
H412 H 0.3894 0.66275 0.10827 0.0
H413 H 0.37077 0.64352 0.17134 0.0
C414 C 0.8334 0.89827 0.38635 0.0
C415 C 0.80611 0.89704 0.38297 0.0
C416 C 0.84609 0.88938 0.4225 0.0
C417 C 0.83493 0.87892 0.53453 0.0
H418 H 0.89541 0.83409 0.52951 0.0
C419 C 0.87717 0.82775 0.68125 0.0
C420 C 0.90397 0.8227 0.68255 0.0
C421 C 0.86582 0.83871 0.64545 0.0
C422 C 0.87884 0.84702 0.53163 0.0
H423 H 0.771 0.88403 0.41421 0.0
H424 H 0.79307 0.86913 0.47729 0.0
H425 H 0.87496 0.84881 0.46484 0.0
H426 H 0.94022 0.82646 0.64889 0.0
H427 H 0.92078 0.8466 0.58728 0.0
H428 H 0.83891 0.87758 0.60117 0.0
C429 C 0.80459 0.87733 0.45225 0.0
C430 C 0.86706 0.85532 0.49445 0.0
C431 C 0.79196 0.88591 0.41606 0.0
C432 C 0.91944 0.83001 0.64844 0.0
C433 C 0.90821 0.84129 0.61299 0.0
C434 C 0.84688 0.87089 0.57173 0.0
C435 C 0.83173 0.87929 0.45613 0.0
C436 C 0.84484 0.87116 0.49551 0.0
C437 C 0.88114 0.84513 0.61045 0.0
C438 C 0.86892 0.85466 0.57085 0.0
H439 H 0.84492 0.90695 0.36176 0.0
H440 H 0.86705 0.89118 0.4247 0.0
H441 H 0.81801 0.89143 0.53628 0.0
H442 H 0.86483 0.82202 0.70703 0.0
H443 H 0.8449 0.8411 0.64464 0.0
C444 C 0.70361 0.37588 0.92358 0.0
C445 C 0.69699 0.40161 0.9342 0.0
C446 C 0.69382 0.36441 0.88688 0.0
C447 C 0.64283 0.37129 0.80455 0.0
H448 H 0.69167 0.33254 0.7364 0.0
C449 C 0.61737 0.33905 0.63575 0.0
C450 C 0.62353 0.31316 0.62541 0.0
C451 C 0.62717 0.3504 0.67254 0.0
C452 C 0.67772 0.34314 0.75519 0.0
H453 H 0.67375 0.43494 0.91588 0.0
H454 H 0.65694 0.41513 0.85189 0.0
H455 H 0.70558 0.34979 0.80413 0.0
H456 H 0.64594 0.2794 0.64427 0.0
H457 H 0.66291 0.29908 0.70831 0.0
H458 H 0.61501 0.36468 0.75553 0.0
C459 C 0.66963 0.40371 0.87179 0.0
C460 C 0.68566 0.35293 0.79414 0.0
C461 C 0.67943 0.41516 0.90835 0.0
C462 C 0.64066 0.29932 0.65158 0.0
C463 C 0.65053 0.31068 0.68817 0.0
C464 C 0.63491 0.36152 0.76557 0.0
C465 C 0.6771 0.37838 0.86011 0.0
C466 C 0.66832 0.36714 0.81933 0.0
C467 C 0.64348 0.33617 0.69958 0.0
C468 C 0.65225 0.34733 0.7404 0.0
H469 H 0.71722 0.36498 0.94267 0.0
H470 H 0.69965 0.34471 0.87916 0.0
H471 H 0.62886 0.38185 0.82333 0.0
H472 H 0.60409 0.35016 0.61638 0.0
H473 H 0.62167 0.37022 0.68012 0.0
C474 C 0.17925 0.11996 0.8755 0.0
C475 C 0.2056 0.1226 0.86504 0.0
C476 C 0.16927 0.13285 0.91065 0.0
C477 C 0.19157 0.16305 0.01066 0.0
H478 H 0.1206 0.18815 0.01516 0.0
C479 C 0.14245 0.19458 0.16578 0.0
C480 C 0.12396 0.21462 0.16394 0.0
C481 C 0.15356 0.18485 0.12895 0.0
C482 C 0.1406 0.18158 0.01437 0.0
H483 H 0.24181 0.14185 0.88126 0.0
H484 H 0.22431 0.16508 0.94144 0.0
H485 H 0.13703 0.1696 0.9504 0.0
H486 H 0.10369 0.24131 0.12287 0.0
H487 H 0.12368 0.22514 0.05891 0.0
H488 H 0.19538 0.17572 0.07425 0.0
C489 C 0.21146 0.1524 0.9237 0.0
C490 C 0.14991 0.17055 0.97729 0.0
C491 C 0.22146 0.1393 0.889 0.0
C492 C 0.11773 0.22563 0.12501 0.0
C493 C 0.12901 0.21618 0.08836 0.0
C494 C 0.18233 0.17428 0.04763 0.0
C495 C 0.18541 0.14885 0.93569 0.0
C496 C 0.17551 0.16108 0.97492 0.0
C497 C 0.14656 0.1952 0.08965 0.0
C498 C 0.1567 0.18366 0.05005 0.0
H499 H 0.16671 0.107 0.8577 0.0
H500 H 0.14917 0.12945 0.91906 0.0
H501 H 0.21126 0.15558 0.01036 0.0
H502 H 0.14739 0.18564 0.19543 0.0
H503 H 0.16683 0.16855 0.13121 0.0
C504 C 0.28933 0.6045 0.67764 0.0
C505 C 0.26862 0.61541 0.65488 0.0
C506 C 0.30233 0.61902 0.70839 0.0
C507 C 0.31278 0.68745 0.74491 0.0
H508 H 0.34294 0.65277 0.8412 0.0
C509 C 0.3601 0.74092 0.88781 0.0
C510 C 0.38472 0.73157 0.89982 0.0
C511 C 0.34528 0.72765 0.85758 0.0
C512 C 0.3347 0.66268 0.81435 0.0
H513 H 0.24478 0.64985 0.64735 0.0
H514 H 0.26669 0.6749 0.70221 0.0
H515 H 0.31722 0.62774 0.79099 0.0
H516 H 0.41303 0.70094 0.8896 0.0
H517 H 0.38701 0.67763 0.83747 0.0
H518 H 0.32987 0.72257 0.7694 0.0
C519 C 0.27353 0.6554 0.69548 0.0
C520 C 0.32005 0.64833 0.78537 0.0
C521 C 0.26079 0.64098 0.66421 0.0
C522 C 0.39427 0.70881 0.88079 0.0
C523 C 0.37929 0.69532 0.8512 0.0
C524 C 0.32709 0.70188 0.77436 0.0
C525 C 0.2947 0.64473 0.71773 0.0
C526 C 0.30915 0.6604 0.74987 0.0
C527 C 0.35459 0.70451 0.83947 0.0
C528 C 0.33847 0.68956 0.80906 0.0
H529 H 0.29608 0.58497 0.67083 0.0
H530 H 0.31883 0.61022 0.72404 0.0
H531 H 0.30512 0.69746 0.71776 0.0
H532 H 0.35225 0.75843 0.90191 0.0
H533 H 0.32625 0.7351 0.84917 0.0
C534 C 0.76885 0.8655 0.13987 0.0
C535 C 0.77576 0.89078 0.15263 0.0
C536 C 0.78333 0.85244 0.10942 0.0
C537 C 0.83438 0.86283 0.02778 0.0
H538 H 0.84081 0.78774 0.03603 0.0
C539 C 0.90627 0.80125 0.92854 0.0
C540 C 0.89432 0.78103 0.90566 0.0
C541 C 0.89249 0.81455 0.95966 0.0
C542 C 0.83912 0.80871 0.03338 0.0
H543 H 0.8033 0.92224 0.14369 0.0
H544 H 0.82928 0.89916 0.09197 0.0
H545 H 0.81558 0.81144 0.08806 0.0
H546 H 0.85901 0.75829 0.89829 0.0
H547 H 0.83526 0.781 0.95366 0.0
H548 H 0.85883 0.85986 0.97372 0.0
C549 C 0.81219 0.88959 0.10426 0.0
C550 C 0.82446 0.82235 0.06296 0.0
C551 C 0.79735 0.90285 0.13411 0.0
C552 C 0.86866 0.77384 0.91536 0.0
C553 C 0.85511 0.78675 0.94707 0.0
C554 C 0.84948 0.8492 0.99871 0.0
C555 C 0.80549 0.8641 0.09159 0.0
C556 C 0.82163 0.84962 0.0604 0.0
C557 C 0.86676 0.80747 0.96908 0.0
C558 C 0.85179 0.82201 1.00104 0.0
H559 H 0.75214 0.85581 0.15336 0.0
H560 H 0.77703 0.83317 0.09987 0.0
H561 H 0.83238 0.88369 0.0241 0.0
H562 H 0.92598 0.8073 0.92154 0.0
H563 H 0.90192 0.83039 0.97637 0.0
C564 C 0.68337 0.42151 0.17004 0.0
C565 C 0.71031 0.42454 0.16454 0.0
C566 C 0.67368 0.40467 0.20043 0.0
C567 C 0.69187 0.3477 0.26493 0.0
H568 H 0.62885 0.36584 0.3245 0.0
C569 C 0.64889 0.28723 0.40231 0.0
C570 C 0.6217 0.28401 0.40244 0.0
C571 C 0.6608 0.30348 0.37293 0.0
C572 C 0.64634 0.36039 0.30784 0.0
H573 H 0.74826 0.41253 0.18734 0.0
H574 H 0.73129 0.38347 0.24117 0.0
H575 H 0.64794 0.39696 0.27621 0.0
H576 H 0.58587 0.29445 0.37042 0.0
H577 H 0.6066 0.32274 0.31949 0.0
H578 H 0.69025 0.31114 0.2972 0.0
C579 C 0.71765 0.39383 0.22138 0.0
C580 C 0.6573 0.37823 0.28012 0.0
C581 C 0.72738 0.41066 0.19076 0.0
C582 C 0.60681 0.29662 0.37156 0.0
C583 C 0.61867 0.31297 0.34245 0.0
C584 C 0.68097 0.32989 0.29298 0.0
C585 C 0.69065 0.3905 0.22639 0.0
C586 C 0.68002 0.37202 0.25787 0.0
C587 C 0.64573 0.31697 0.34329 0.0
C588 C 0.6579 0.33594 0.31432 0.0
H589 H 0.66962 0.43176 0.15028 0.0
H590 H 0.65279 0.40231 0.20283 0.0
H591 H 0.7092 0.34212 0.24799 0.0
H592 H 0.66096 0.27778 0.42561 0.0
H593 H 0.68169 0.30622 0.37439 0.0
C594 C 0.10683 0.20837 0.41925 0.0
C595 C 0.11396 0.23429 0.41084 0.0
C596 C 0.12081 0.19365 0.4485 0.0
C597 C 0.1649 0.19958 0.53931 0.0
H598 H 0.1877 0.13018 0.50837 0.0
C599 C 0.2401 0.14459 0.63908 0.0
C600 C 0.23643 0.11774 0.64504 0.0
C601 C 0.22515 0.15814 0.60974 0.0
C602 C 0.18122 0.14938 0.51779 0.0
H603 H 0.14092 0.26527 0.42751 0.0
H604 H 0.16504 0.23971 0.47869 0.0
H605 H 0.16036 0.15503 0.46025 0.0
H606 H 0.21449 0.08391 0.62426 0.0
H607 H 0.18804 0.10762 0.57359 0.0
H608 H 0.18537 0.19399 0.59694 0.0
C609 C 0.1487 0.23074 0.46262 0.0
C610 C 0.16556 0.16361 0.49017 0.0
C611 C 0.13493 0.24534 0.43312 0.0
C612 C 0.21793 0.10458 0.62022 0.0
C613 C 0.20278 0.11819 0.59108 0.0
C614 C 0.18036 0.1853 0.56704 0.0
C615 C 0.14198 0.20465 0.47033 0.0
C616 C 0.15745 0.18896 0.50048 0.0
C617 C 0.20595 0.14524 0.58588 0.0
C618 C 0.18897 0.16011 0.5565 0.0
H619 H 0.09077 0.19925 0.40268 0.0
H620 H 0.11504 0.17366 0.4541 0.0
H621 H 0.15863 0.21892 0.54839 0.0
H622 H 0.25435 0.15527 0.65746 0.0
H623 H 0.2286 0.17881 0.60593 0.0
C624 C 0.40749 0.86803 0.93758 0.0
C625 C 0.40684 0.84123 0.92856 0.0
C626 C 0.39787 0.8861 0.90874 0.0
C627 C 0.35217 0.89274 0.82038 0.0
H628 H 0.38792 0.95856 0.80502 0.0
C629 C 0.3075 0.97695 0.72207 0.0
C630 C 0.30705 1.00044 0.74467 0.0
C631 C 0.32304 0.95615 0.73609 0.0
C632 C 0.37773 0.94023 0.80883 0.0
H633 H 0.39515 0.8124 0.88233 0.0
H634 H 0.37843 0.84397 0.83194 0.0
H635 H 0.40807 0.92463 0.84739 0.0
H636 H 0.32328 0.02132 0.79775 0.0
H637 H 0.35039 0.98568 0.82157 0.0
H638 H 0.32137 0.9088 0.78303 0.0
C639 C 0.38646 0.85099 0.8613 0.0
C640 C 0.38922 0.92084 0.83327 0.0
C641 C 0.39626 0.83293 0.89003 0.0
C642 C 0.32331 1.00336 0.77978 0.0
C643 C 0.33898 0.98295 0.79329 0.0
C644 C 0.3406 0.91222 0.79596 0.0
C645 C 0.38718 0.87781 0.87028 0.0
C646 C 0.37626 0.89715 0.84035 0.0
C647 C 0.33864 0.95887 0.77231 0.0
C648 C 0.35291 0.93649 0.79098 0.0
H649 H 0.41564 0.87506 0.96681 0.0
H650 H 0.39839 0.90659 0.91692 0.0
H651 H 0.34162 0.87474 0.82533 0.0
H652 H 0.29491 0.97423 0.69512 0.0
H653 H 0.32243 0.93782 0.71922 0.0
C654 C 0.53136 0.77218 0.02312 0.0
C655 C 0.51488 0.78245 0.9922 0.0
C656 C 0.55335 0.78584 0.03648 0.0
C657 C 0.57661 0.85289 0.04813 0.0
H658 H 0.63815 0.81802 0.09064 0.0
C659 C 0.65827 0.90578 0.14386 0.0
C660 C 0.66592 0.89289 0.18071 0.0
C661 C 0.64213 0.89336 0.11439 0.0
C662 C 0.62108 0.82806 0.07896 0.0
H663 H 0.50891 0.81455 0.94957 0.0
H664 H 0.5478 0.83879 0.97295 0.0
H665 H 0.60732 0.79406 0.04681 0.0
H666 H 0.66293 0.85671 0.21507 0.0
H667 H 0.63488 0.83508 0.16387 0.0
H668 H 0.59029 0.88678 0.08113 0.0
C669 C 0.5436 0.82005 0.98687 0.0
C670 C 0.60342 0.81435 0.05377 0.0
C671 C 0.52156 0.80609 0.97308 0.0
C672 C 0.65717 0.86729 0.1873 0.0
C673 C 0.64135 0.85478 0.15768 0.0
C674 C 0.59444 0.86669 0.07315 0.0
C675 C 0.55937 0.81034 0.01953 0.0
C676 C 0.58049 0.8263 0.03918 0.0
C677 C 0.63365 0.86764 0.12085 0.0
C678 C 0.61645 0.85417 0.08994 0.0
H679 H 0.52652 0.75403 0.03852 0.0
H680 H 0.5647 0.77783 0.062 0.0
H681 H 0.55907 0.86268 0.03782 0.0
H682 H 0.66456 0.92557 0.13802 0.0
H683 H 0.63656 0.90376 0.08631 0.0
C684 C 0.7058 0.03217 0.22679 0.0
C685 C 0.70131 0.0075 0.24408 0.0
C686 C 0.69151 0.05378 0.2409 0.0
C687 C 0.63364 0.07282 0.30434 0.0
H688 H 0.67698 0.13046 0.34125 0.0
C689 C 0.60295 0.14153 0.43789 0.0
C690 C 0.60839 0.16827 0.43426 0.0
C691 C 0.6126 0.12373 0.40858 0.0
C692 C 0.66448 0.11475 0.33059 0.0
H693 H 0.67779 0.98552 0.28747 0.0
H694 H 0.65264 0.0227 0.31131 0.0
H695 H 0.69548 0.09646 0.29694 0.0
H696 H 0.6287 0.19715 0.39728 0.0
H697 H 0.64541 0.1661 0.346 0.0
H698 H 0.60289 0.09063 0.3391 0.0
C699 C 0.66692 0.02571 0.28698 0.0
C700 C 0.67506 0.09531 0.305 0.0
C701 C 0.68135 1.00437 0.27339 0.0
C702 C 0.62392 0.17672 0.40077 0.0
C703 C 0.63367 0.15891 0.37155 0.0
C704 C 0.62309 0.09221 0.32994 0.0
C705 C 0.67237 0.05084 0.27203 0.0
C706 C 0.65996 0.07374 0.29251 0.0
C707 C 0.62802 0.1322 0.37498 0.0
C708 C 0.63855 0.11306 0.34429 0.0
H709 H 0.72144 0.03504 0.20466 0.0
H710 H 0.69606 0.07288 0.22862 0.0
H711 H 0.62136 0.05668 0.29474 0.0
H712 H 0.59089 0.13433 0.46299 0.0
H713 H 0.60819 0.10325 0.41255 0.0
C714 C 0.49033 0.1986 0.47784 0.0
C715 C 0.49755 0.22175 0.49835 0.0
C716 C 0.4684 0.18457 0.49131 0.0
C717 C 0.4094 0.19017 0.55864 0.0
H718 H 0.42157 0.11729 0.58337 0.0
C719 C 0.35576 0.13707 0.69022 0.0
C720 C 0.34598 0.11198 0.68209 0.0
C721 C 0.37193 0.14942 0.66137 0.0
C722 C 0.41771 0.13752 0.57612 0.0
H723 H 0.48696 0.24928 0.54687 0.0
H724 H 0.44906 0.22531 0.56989 0.0
H725 H 0.45286 0.1413 0.54076 0.0
H726 H 0.34605 0.07991 0.6378 0.0
H727 H 0.37465 0.10144 0.58745 0.0
H728 H 0.37493 0.18674 0.59557 0.0
C729 C 0.45993 0.21774 0.54357 0.0
C730 C 0.43555 0.15125 0.55151 0.0
C731 C 0.4818 0.23143 0.53056 0.0
C732 C 0.35313 0.09933 0.64475 0.0
C733 C 0.36959 0.11157 0.61606 0.0
C734 C 0.39174 0.17655 0.58342 0.0
C735 C 0.45326 0.19381 0.52493 0.0
C736 C 0.43201 0.17796 0.54361 0.0
C737 C 0.37892 0.13688 0.62388 0.0
C738 C 0.39609 0.15029 0.59347 0.0
H739 H 0.50235 0.19067 0.45314 0.0
H740 H 0.46366 0.16624 0.47619 0.0
H741 H 0.40581 0.21059 0.55245 0.0
H742 H 0.35042 0.14742 0.71846 0.0
H743 H 0.37911 0.16879 0.66853 0.0
C744 C 0.90111 0.64331 0.8481 0.0
C745 C 0.90219 0.66939 0.86152 0.0
C746 C 0.8931 0.62368 0.8755 0.0
C747 C 0.85582 0.61247 0.97227 0.0
H748 H 0.89177 0.54611 0.97182 0.0
C749 C 0.8202 0.52707 0.07419 0.0
C750 C 0.8166 0.50414 0.05083 0.0
C751 C 0.83525 0.5475 0.05795 0.0
C752 C 0.88154 0.56455 0.97239 0.0
H753 H 0.89484 0.69537 0.91379 0.0
H754 H 0.88107 0.66117 0.96157 0.0
H755 H 0.90751 0.58153 0.92789 0.0
H756 H 0.82724 0.48361 0.99414 0.0
H757 H 0.85357 0.51872 0.96626 0.0
H758 H 0.82938 0.59525 0.01578 0.0
C759 C 0.88645 0.65585 0.92994 0.0
C760 C 0.89048 0.58479 0.94704 0.0
C761 C 0.89456 0.67543 0.90265 0.0
C762 C 0.8298 0.50112 0.0128 0.0
C763 C 0.84498 0.52125 0.99689 0.0
C764 C 0.84684 0.59219 0.99757 0.0
C765 C 0.88583 0.62971 0.91684 0.0
C766 C 0.8774 0.60881 0.946 0.0
C767 C 0.84713 0.54506 0.01845 0.0
C768 C 0.85924 0.56779 0.99721 0.0
H769 H 0.90701 0.63799 0.81676 0.0
H770 H 0.89246 0.60377 0.86421 0.0
H771 H 0.84519 0.63067 0.97203 0.0
H772 H 0.80994 0.52992 0.10339 0.0
H773 H 0.83674 0.56554 0.07549 0.0
C774 C 0.98099 0.30374 0.32143 0.0
C775 C 0.98987 0.28137 0.30062 0.0
C776 C 0.95833 0.31641 0.30739 0.0
C777 C 0.90045 0.30822 0.23705 0.0
H778 H 0.90918 0.38196 0.21551 0.0
C779 C 0.84095 0.36213 0.11045 0.0
C780 C 0.8321 0.38739 0.11963 0.0
C781 C 0.85793 0.34927 0.13788 0.0
C782 C 0.90622 0.36146 0.2218 0.0
H783 H 0.9815 0.25378 0.25084 0.0
H784 H 0.94224 0.27529 0.22709 0.0
H785 H 0.94141 0.35901 0.25784 0.0
H786 H 0.83477 0.41912 0.16456 0.0
H787 H 0.86404 0.39666 0.21235 0.0
H788 H 0.86572 0.31047 0.19992 0.0
C789 C 0.95238 0.28328 0.25405 0.0
C790 C 0.92464 0.34832 0.24629 0.0
C791 C 0.975 0.27097 0.26758 0.0
C792 C 0.84083 0.39953 0.15672 0.0
C793 C 0.85787 0.38676 0.18398 0.0
C794 C 0.88209 0.32131 0.21251 0.0
C795 C 0.94412 0.30658 0.27286 0.0
C796 C 0.92232 0.3214 0.25335 0.0
C797 C 0.8666 0.36145 0.175 0.0
C798 C 0.88505 0.34797 0.20379 0.0
H799 H 0.99233 0.31227 0.34667 0.0
H800 H 0.95236 0.33428 0.32268 0.0
H801 H 0.89786 0.28755 0.24241 0.0
H802 H 0.83452 0.35218 0.08232 0.0
H803 H 0.86456 0.3299 0.1297 0.0
C804 C 0.22356 0.47013 0.52944 0.0
C805 C 0.21382 0.48728 0.55981 0.0
C806 C 0.20856 0.44937 0.51471 0.0
C807 C 0.14028 0.43101 0.49812 0.0
H808 H 0.17188 0.36724 0.45756 0.0
C809 C 0.08568 0.35089 0.39935 0.0
C810 C 0.09913 0.34289 0.36327 0.0
C811 C 0.09777 0.36706 0.42923 0.0
C812 C 0.16275 0.38494 0.46872 0.0
H813 H 0.18109 0.49571 0.59991 0.0
H814 H 0.15451 0.45895 0.57418 0.0
H815 H 0.1967 0.39627 0.50323 0.0
H816 H 0.13593 0.34554 0.33063 0.0
H817 H 0.15688 0.37351 0.38243 0.0
H818 H 0.10638 0.4196 0.46285 0.0
C819 C 0.17388 0.46168 0.56176 0.0
C820 C 0.17696 0.4016 0.49493 0.0
C821 C 0.18917 0.48248 0.57692 0.0
C822 C 0.12483 0.35161 0.35764 0.0
C823 C 0.13698 0.36738 0.38765 0.0
C824 C 0.12593 0.41414 0.47211 0.0
C825 C 0.18321 0.44524 0.52968 0.0
C826 C 0.16629 0.42532 0.5088 0.0
C827 C 0.12372 0.37511 0.42398 0.0
C828 C 0.13735 0.39135 0.45603 0.0
H829 H 0.24245 0.47354 0.51549 0.0
H830 H 0.21636 0.4375 0.48967 0.0
H831 H 0.13148 0.44918 0.5079 0.0
H832 H 0.06586 0.34452 0.40451 0.0
H833 H 0.08706 0.37273 0.45691 0.0
C834 C 0.16945 0.60997 0.65702 0.0
C835 C 0.16073 0.5992 0.61887 0.0
C836 C 0.15188 0.621 0.68523 0.0
C837 C 0.08241 0.62123 0.71407 0.0
H838 H 0.09785 0.68869 0.76343 0.0
C839 C 1.00354 0.68964 0.77433 0.0
C840 C 0.00853 0.70659 0.80795 0.0
C841 C 0.02279 0.67297 0.7596 0.0
C842 C 0.09346 0.66957 0.75076 0.0
H843 H 0.12669 0.59156 0.58054 0.0
H844 H 0.0959 0.61093 0.62975 0.0
H845 H 0.13023 0.66723 0.71964 0.0
H846 H 0.03712 0.7189 0.85382 0.0
H847 H 0.07134 0.68944 0.8279 0.0
H848 H 0.04549 0.62374 0.74446 0.0
C849 C 0.11637 0.61063 0.63795 0.0
C850 C 0.11198 0.65733 0.72544 0.0
C851 C 0.134 0.59979 0.60954 0.0
C852 C 0.0328 0.70572 0.82814 0.0
C853 C 0.05237 0.68911 0.81299 0.0
C854 C 0.06398 0.63338 0.73953 0.0
C855 C 0.12512 0.62137 0.67614 0.0
C856 C 0.1064 0.63332 0.70595 0.0
C857 C 0.04771 0.67298 0.77786 0.0
C858 C 0.06897 0.65804 0.75726 0.0
H859 H 0.18997 0.61019 0.66488 0.0
H860 H 0.15925 0.62902 0.71438 0.0
H861 H 0.07774 0.60248 0.70028 0.0
H862 H 0.98495 0.6901 0.75814 0.0
H863 H 0.01851 0.66119 0.73222 0.0
loop_
_geom_bond_atom_site_label_1
_geom_bond_atom_site_label_2
_geom_bond_distance
_geom_bond_site_symmetry_2
_ccdc_geom_bond_type
Co0 N4 2.148 . S
Co0 N10 2.128 . S
Co0 N20 2.194 1_556 S
Co0 O25 2.351 1_556 S
Co0 O26 2.155 . S
Co0 O27 2.096 . S
C1 N4 1.301 1_554 S
C1 N5 1.328 . S
C1 H6 0.930 . S
C2 C3 1.333 . S
C2 N4 1.317 . S
C2 H7 0.930 . S
C3 C2 1.333 . S
C3 N5 1.350 1_556 S
C3 H29 0.931 . S
N4 Co0 2.148 . S
N4 C1 1.301 1_556 S
N4 C2 1.317 . S
N5 C1 1.328 . S
N5 C3 1.350 1_554 S
H6 C1 0.930 . S
H7 C2 0.930 . S
C8 O9 1.224 . S
C8 O27 1.247 . S
O9 C8 1.224 . S
N10 Co0 2.128 . S
N10 C11 1.355 1_556 S
N10 C13 1.311 . S
C11 N10 1.355 1_554 S
C11 C12 1.363 . S
C11 H23 0.929 . S
C12 C11 1.363 . S
C12 N14 1.375 1_554 S
C12 H30 0.931 . S
C13 N10 1.311 . S
C13 N14 1.347 . S
C13 H24 0.929 . S
N14 C12 1.375 1_556 S
N14 C13 1.347 . S
C15 C18 1.365 . S
C15 N20 1.328 . S
C15 H21 0.929 . S
C16 C17 1.362 . S
C16 C19 1.378 . S
C16 H31 0.929 . S
C17 C16 1.362 . S
C17 C18 1.366 . S
C18 C15 1.365 . S
C18 C17 1.366 . S
C18 H32 0.930 . S
C19 C16 1.378 . S
C19 N20 1.315 . S
C19 H22 0.930 . S
N20 Co0 2.194 1_554 S
N20 C15 1.328 . S
N20 C19 1.315 . S
H21 C15 0.929 . S
H22 C19 0.930 . S
H23 C11 0.929 . S
H24 C13 0.929 . S
O25 Co0 2.351 1_554 S
O25 C28 1.244 . S
O26 Co0 2.155 . S
O26 C28 1.240 1_556 S
O27 Co0 2.096 . S
O27 C8 1.247 . S
C28 O25 1.244 . S
C28 O26 1.240 1_554 S
H29 C3 0.931 . S
H30 C12 0.931 . S
H31 C16 0.929 . S
H32 C18 0.930 . S
Co33 N37 2.148 . S
Co33 N43 2.128 . S
Co33 N53 2.194 . S
Co33 O58 2.351 . S
Co33 O59 2.155 . S
Co33 O60 2.096 . S
C34 N37 1.301 . S
C34 N38 1.328 . S
C34 H39 0.930 . S
C35 C36 1.333 . S
C35 N37 1.317 . S
C35 H40 0.930 . S
C36 C35 1.333 . S
C36 N38 1.350 . S
C36 H62 0.931 . S
N37 Co33 2.148 . S
N37 C34 1.301 . S
N37 C35 1.317 . S
N38 C34 1.328 . S
N38 C36 1.350 . S
H39 C34 0.930 . S
H40 C35 0.930 . S
C41 O42 1.224 . S
C41 O60 1.247 . S
O42 C41 1.224 . S
N43 Co33 2.128 . S
N43 C44 1.355 . S
N43 C46 1.311 . S
C44 N43 1.355 . S
C44 C45 1.363 . S
C44 H56 0.929 . S
C45 C44 1.363 . S
C45 N47 1.375 . S
C45 H63 0.931 . S
C46 N43 1.311 . S
C46 N47 1.347 . S
C46 H57 0.929 . S
N47 C45 1.375 . S
N47 C46 1.347 . S
C48 C51 1.365 . S
C48 N53 1.328 . S
C48 H54 0.929 . S
C49 C50 1.362 . S
C49 C52 1.378 . S
C49 H64 0.929 . S
C50 C49 1.362 . S
C50 C51 1.366 . S
C51 C48 1.365 . S
C51 C50 1.366 . S
C51 H65 0.930 . S
C52 C49 1.378 . S
C52 N53 1.315 . S
C52 H55 0.930 . S
N53 Co33 2.194 . S
N53 C48 1.328 . S
N53 C52 1.315 . S
H54 C48 0.929 . S
H55 C52 0.930 . S
H56 C44 0.929 . S
H57 C46 0.929 . S
O58 Co33 2.351 . S
O58 C61 1.244 . S
O59 Co33 2.155 . S
O59 C61 1.240 . S
O60 Co33 2.096 . S
O60 C41 1.247 . S
C61 O58 1.244 . S
C61 O59 1.240 . S
H62 C36 0.931 . S
H63 C45 0.931 . S
H64 C49 0.929 . S
H65 C51 0.930 . S
Co66 N70 2.148 . S
Co66 N76 2.128 . S
Co66 N86 2.194 . S
Co66 O91 2.351 . S
Co66 O92 2.155 . S
Co66 O93 2.096 . S
C67 N70 1.301 . S
C67 N71 1.328 . S
C67 H72 0.930 . S
C68 C69 1.333 . S
C68 N70 1.317 . S
C68 H73 0.930 . S
C69 C68 1.333 . S
C69 N71 1.350 . S
C69 H95 0.931 . S
N70 Co66 2.148 . S
N70 C67 1.301 . S
N70 C68 1.317 . S
N71 C67 1.328 . S
N71 C69 1.350 . S
H72 C67 0.930 . S
H73 C68 0.930 . S
C74 O75 1.224 . S
C74 O93 1.247 . S
O75 C74 1.224 . S
N76 Co66 2.128 . S
N76 C77 1.355 . S
N76 C79 1.311 . S
C77 N76 1.355 . S
C77 C78 1.363 . S
C77 H89 0.929 . S
C78 C77 1.363 . S
C78 N80 1.375 . S
C78 H96 0.931 . S
C79 N76 1.311 . S
C79 N80 1.347 . S
C79 H90 0.929 . S
N80 C78 1.375 . S
N80 C79 1.347 . S
C81 C84 1.365 . S
C81 N86 1.328 . S
C81 H87 0.929 . S
C82 C83 1.362 . S
C82 C85 1.378 . S
C82 H97 0.929 . S
C83 C82 1.362 . S
C83 C84 1.366 . S
C84 C81 1.365 . S
C84 C83 1.366 . S
C84 H98 0.930 . S
C85 C82 1.378 . S
C85 N86 1.315 . S
C85 H88 0.930 . S
N86 Co66 2.194 . S
N86 C81 1.328 . S
N86 C85 1.315 . S
H87 C81 0.929 . S
H88 C85 0.930 . S
H89 C77 0.929 . S
H90 C79 0.929 . S
O91 Co66 2.351 . S
O91 C94 1.244 . S
O92 Co66 2.155 . S
O92 C94 1.240 . S
O93 Co66 2.096 . S
O93 C74 1.247 . S
C94 O91 1.244 . S
C94 O92 1.240 . S
H95 C69 0.931 . S
H96 C78 0.931 . S
H97 C82 0.929 . S
H98 C84 0.930 . S
Co99 N103 2.148 . S
Co99 N109 2.128 . S
Co99 N119 2.194 . S
Co99 O124 2.351 . S
Co99 O125 2.155 . S
Co99 O126 2.096 . S
C100 N103 1.301 . S
C100 N104 1.328 . S
C100 H105 0.930 . S
C101 C102 1.333 . S
C101 N103 1.317 . S
C101 H106 0.930 . S
C102 C101 1.333 . S
C102 N104 1.350 . S
C102 H128 0.931 . S
N103 Co99 2.148 . S
N103 C100 1.301 . S
N103 C101 1.317 . S
N104 C100 1.328 . S
N104 C102 1.350 . S
H105 C100 0.930 . S
H106 C101 0.930 . S
C107 O108 1.224 . S
C107 O126 1.247 . S
O108 C107 1.224 . S
N109 Co99 2.128 . S
N109 C110 1.355 . S
N109 C112 1.311 . S
C110 N109 1.355 . S
C110 C111 1.363 . S
C110 H122 0.929 . S
C111 C110 1.363 . S
C111 N113 1.375 . S
C111 H129 0.931 . S
C112 N109 1.311 . S
C112 N113 1.347 . S
C112 H123 0.929 . S
N113 C111 1.375 . S
N113 C112 1.347 . S
C114 C117 1.365 . S
C114 N119 1.328 . S
C114 H120 0.929 . S
C115 C116 1.362 . S
C115 C118 1.378 . S
C115 H130 0.929 . S
C116 C115 1.362 . S
C116 C117 1.366 . S
C117 C114 1.365 . S
C117 C116 1.366 . S
C117 H131 0.930 . S
C118 C115 1.378 . S
C118 N119 1.315 . S
C118 H121 0.930 . S
N119 Co99 2.194 . S
N119 C114 1.328 . S
N119 C118 1.315 . S
H120 C114 0.929 . S
H121 C118 0.930 . S
H122 C110 0.929 . S
H123 C112 0.929 . S
O124 Co99 2.351 . S
O124 C127 1.244 . S
O125 Co99 2.155 . S
O125 C127 1.240 . S
O126 Co99 2.096 . S
O126 C107 1.247 . S
C127 O124 1.244 . S
C127 O125 1.240 . S
H128 C102 0.931 . S
H129 C111 0.931 . S
H130 C115 0.929 . S
H131 C117 0.930 . S
Co132 N136 2.148 . S
Co132 N142 2.128 . S
Co132 N152 2.194 . S
Co132 O157 2.351 . S
Co132 O158 2.155 . S
Co132 O159 2.096 . S
C133 N136 1.301 . S
C133 N137 1.328 . S
C133 H138 0.930 . S
C134 C135 1.333 . S
C134 N136 1.317 . S
C134 H139 0.930 . S
C135 C134 1.333 . S
C135 N137 1.350 . S
C135 H161 0.931 . S
N136 Co132 2.148 . S
N136 C133 1.301 . S
N136 C134 1.317 . S
N137 C133 1.328 . S
N137 C135 1.350 . S
H138 C133 0.930 . S
H139 C134 0.930 . S
C140 O141 1.224 . S
C140 O159 1.247 . S
O141 C140 1.224 . S
N142 Co132 2.128 . S
N142 C143 1.355 . S
N142 C145 1.311 . S
C143 N142 1.355 . S
C143 C144 1.363 . S
C143 H155 0.929 . S
C144 C143 1.363 . S
C144 N146 1.375 . S
C144 H162 0.931 . S
C145 N142 1.311 . S
C145 N146 1.347 . S
C145 H156 0.929 . S
N146 C144 1.375 . S
N146 C145 1.347 . S
C147 C150 1.365 . S
C147 N152 1.328 . S
C147 H153 0.929 . S
C148 C149 1.362 . S
C148 C151 1.378 . S
C148 H163 0.929 . S
C149 C148 1.362 . S
C149 C150 1.366 . S
C150 C147 1.365 . S
C150 C149 1.366 . S
C150 H164 0.930 . S
C151 C148 1.378 . S
C151 N152 1.315 . S
C151 H154 0.930 . S
N152 Co132 2.194 . S
N152 C147 1.328 . S
N152 C151 1.315 . S
H153 C147 0.929 . S
H154 C151 0.930 . S
H155 C143 0.929 . S
H156 C145 0.929 . S
O157 Co132 2.351 . S
O157 C160 1.244 . S
O158 Co132 2.155 . S
O158 C160 1.240 . S
O159 Co132 2.096 . S
O159 C140 1.247 . S
C160 O157 1.244 . S
C160 O158 1.240 . S
H161 C135 0.931 . S
H162 C144 0.931 . S
H163 C148 0.929 . S
H164 C150 0.930 . S
Co165 N169 2.148 . S
Co165 N175 2.128 . S
Co165 N185 2.194 1_554 S
Co165 O190 2.351 1_554 S
Co165 O191 2.155 . S
Co165 O192 2.096 . S
C166 N169 1.301 . S
C166 N170 1.328 . S
C166 H171 0.930 1_554 S
C167 C168 1.333 . S
C167 N169 1.317 . S
C167 H172 0.930 . S
C168 C167 1.333 . S
C168 N170 1.350 . S
C168 H194 0.931 . S
N169 Co165 2.148 . S
N169 C166 1.301 . S
N169 C167 1.317 . S
N170 C166 1.328 . S
N170 C168 1.350 . S
H171 C166 0.930 1_556 S
H172 C167 0.930 . S
C173 O174 1.224 . S
C173 O192 1.247 . S
O174 C173 1.224 . S
N175 Co165 2.128 . S
N175 C176 1.355 . S
N175 C178 1.311 . S
C176 N175 1.355 . S
C176 C177 1.363 . S
C176 H188 0.929 1_554 S
C177 C176 1.363 . S
C177 N179 1.375 . S
C177 H195 0.931 . S
C178 N175 1.311 . S
C178 N179 1.347 . S
C178 H189 0.929 . S
N179 C177 1.375 . S
N179 C178 1.347 . S
C180 C183 1.365 . S
C180 N185 1.328 . S
C180 H186 0.929 . S
C181 C182 1.362 . S
C181 C184 1.378 . S
C181 H196 0.929 . S
C182 C181 1.362 . S
C182 C183 1.366 . S
C183 C180 1.365 . S
C183 C182 1.366 . S
C183 H197 0.930 . S
C184 C181 1.378 . S
C184 N185 1.315 . S
C184 H187 0.930 1_556 S
N185 Co165 2.194 1_556 S
N185 C180 1.328 . S
N185 C184 1.315 . S
H186 C180 0.929 . S
H187 C184 0.930 1_554 S
H188 C176 0.929 1_556 S
H189 C178 0.929 . S
O190 Co165 2.351 1_556 S
O190 C193 1.244 1_556 S
O191 Co165 2.155 . S
O191 C193 1.240 . S
O192 Co165 2.096 . S
O192 C173 1.247 . S
C193 O190 1.244 1_554 S
C193 O191 1.240 . S
H194 C168 0.931 . S
H195 C177 0.931 . S
H196 C181 0.929 . S
H197 C183 0.930 . S
Co198 N202 2.148 . S
Co198 N208 2.128 . S
Co198 N218 2.194 . S
Co198 O223 2.351 . S
Co198 O224 2.155 . S
Co198 O225 2.096 . S
C199 N202 1.301 . S
C199 N203 1.328 . S
C199 H204 0.930 . S
C200 C201 1.333 . S
C200 N202 1.317 . S
C200 H205 0.930 . S
C201 C200 1.333 . S
C201 N203 1.350 . S
C201 H227 0.931 . S
N202 Co198 2.148 . S
N202 C199 1.301 . S
N202 C200 1.317 . S
N203 C199 1.328 . S
N203 C201 1.350 . S
H204 C199 0.930 . S
H205 C200 0.930 . S
C206 O207 1.224 . S
C206 O225 1.247 . S
O207 C206 1.224 . S
N208 Co198 2.128 . S
N208 C209 1.355 . S
N208 C211 1.311 . S
C209 N208 1.355 . S
C209 C210 1.363 . S
C209 H221 0.929 . S
C210 C209 1.363 . S
C210 N212 1.375 . S
C210 H228 0.931 . S
C211 N208 1.311 . S
C211 N212 1.347 . S
C211 H222 0.929 . S
N212 C210 1.375 . S
N212 C211 1.347 . S
C213 C216 1.365 . S
C213 N218 1.328 . S
C213 H219 0.929 . S
C214 C215 1.362 . S
C214 C217 1.378 . S
C214 H229 0.929 . S
C215 C214 1.362 . S
C215 C216 1.366 . S
C216 C213 1.365 . S
C216 C215 1.366 . S
C216 H230 0.930 . S
C217 C214 1.378 . S
C217 N218 1.315 . S
C217 H220 0.930 . S
N218 Co198 2.194 . S
N218 C213 1.328 . S
N218 C217 1.315 . S
H219 C213 0.929 . S
H220 C217 0.930 . S
H221 C209 0.929 . S
H222 C211 0.929 . S
O223 Co198 2.351 . S
O223 C226 1.244 . S
O224 Co198 2.155 . S
O224 C226 1.240 . S
O225 Co198 2.096 . S
O225 C206 1.247 . S
C226 O223 1.244 . S
C226 O224 1.240 . S
H227 C201 0.931 . S
H228 C210 0.931 . S
H229 C214 0.929 . S
H230 C216 0.930 . S
Co231 N235 2.148 . S
Co231 N241 2.128 . S
Co231 N251 2.194 . S
Co231 O256 2.351 . S
Co231 O257 2.155 . S
Co231 O258 2.096 . S
C232 N235 1.301 . S
C232 N236 1.328 . S
C232 H237 0.930 . S
C233 C234 1.333 . S
C233 N235 1.317 . S
C233 H238 0.930 . S
C234 C233 1.333 . S
C234 N236 1.350 . S
C234 H260 0.931 . S
N235 Co231 2.148 . S
N235 C232 1.301 . S
N235 C233 1.317 . S
N236 C232 1.328 . S
N236 C234 1.350 . S
H237 C232 0.930 . S
H238 C233 0.930 . S
C239 O240 1.224 . S
C239 O258 1.247 . S
O240 C239 1.224 . S
N241 Co231 2.128 . S
N241 C242 1.355 . S
N241 C244 1.311 . S
C242 N241 1.355 . S
C242 C243 1.363 . S
C242 H254 0.929 . S
C243 C242 1.363 . S
C243 N245 1.375 . S
C243 H261 0.931 . S
C244 N241 1.311 . S
C244 N245 1.347 . S
C244 H255 0.929 . S
N245 C243 1.375 . S
N245 C244 1.347 . S
C246 C249 1.365 . S
C246 N251 1.328 . S
C246 H252 0.929 . S
C247 C248 1.362 . S
C247 C250 1.378 . S
C247 H262 0.929 . S
C248 C247 1.362 . S
C248 C249 1.366 . S
C249 C246 1.365 . S
C249 C248 1.366 . S
C249 H263 0.930 . S
C250 C247 1.378 . S
C250 N251 1.315 . S
C250 H253 0.930 . S
N251 Co231 2.194 . S
N251 C246 1.328 . S
N251 C250 1.315 . S
H252 C246 0.929 . S
H253 C250 0.930 . S
H254 C242 0.929 . S
H255 C244 0.929 . S
O256 Co231 2.351 . S
O256 C259 1.244 . S
O257 Co231 2.155 . S
O257 C259 1.240 . S
O258 Co231 2.096 . S
O258 C239 1.247 . S
C259 O256 1.244 . S
C259 O257 1.240 . S
H260 C234 0.931 . S
H261 C243 0.931 . S
H262 C247 0.929 . S
H263 C249 0.930 . S
C264 C265 1.349 1_556 S
C264 C266 1.327 . S
C264 H289 0.950 . S
C265 C264 1.349 1_554 S
C265 C281 1.349 . S
C266 C264 1.327 . S
C266 C285 1.429 1_556 S
C266 H290 0.950 . S
C267 C284 1.574 . S
C267 C286 1.368 . S
C267 H291 0.949 . S
H268 C272 0.949 . S
C269 C270 1.349 . S
C269 C271 1.327 . S
C269 H292 0.950 . S
C270 C269 1.349 . S
C270 C282 1.349 1_554 S
C271 C269 1.327 . S
C271 C287 1.429 . S
C271 H293 0.950 . S
C272 H268 0.949 . S
C272 C280 1.574 . S
C272 C288 1.368 1_556 S
H273 C281 0.950 . S
H274 C279 0.950 . S
H275 C280 0.949 . S
H276 C282 0.950 . S
H277 C283 0.950 . S
H278 C284 0.949 . S
C279 H274 0.950 . S
C279 C281 1.327 . S
C279 C285 1.429 . S
C280 C272 1.574 . S
C280 H275 0.949 . S
C280 C286 1.368 1_556 S
C281 C265 1.349 . S
C281 H273 0.950 . S
C281 C279 1.327 . S
C282 C270 1.349 1_556 S
C282 H276 0.950 . S
C282 C283 1.327 . S
C283 H277 0.950 . S
C283 C282 1.327 . S
C283 C287 1.429 1_556 S
C284 C267 1.574 . S
C284 H278 0.949 . S
C284 C288 1.368 . S
C285 C266 1.429 1_554 S
C285 C279 1.429 . S
C285 C286 1.523 . S
C286 C267 1.368 . S
C286 C280 1.368 1_554 S
C286 C285 1.523 . S
C287 C271 1.429 . S
C287 C283 1.429 1_554 S
C287 C288 1.523 . S
C288 C272 1.368 1_554 S
C288 C284 1.368 . S
C288 C287 1.523 . S
H289 C264 0.950 . S
H290 C266 0.950 . S
H291 C267 0.949 . S
H292 C269 0.950 . S
H293 C271 0.950 . S
C294 C295 1.349 . S
C294 C296 1.327 . S
C294 H319 0.950 . S
C295 C294 1.349 . S
C295 C311 1.349 . S
C296 C294 1.327 . S
C296 C315 1.429 . S
C296 H320 0.950 . S
C297 C314 1.574 . S
C297 C316 1.368 . S
C297 H321 0.949 . S
H298 C302 0.949 . S
C299 C300 1.349 . S
C299 C301 1.327 . S
C299 H322 0.950 1_545 S
C300 C299 1.349 . S
C300 C312 1.349 . S
C301 C299 1.327 . S
C301 C317 1.429 . S
C301 H323 0.950 . S
C302 H298 0.949 . S
C302 C310 1.574 . S
C302 C318 1.368 . S
H303 C311 0.950 1_455 S
H304 C309 0.950 . S
H305 C310 0.949 . S
H306 C312 0.950 . S
H307 C313 0.950 . S
H308 C314 0.949 . S
C309 H304 0.950 . S
C309 C311 1.327 . S
C309 C315 1.429 . S
C310 C302 1.574 . S
C310 H305 0.949 . S
C310 C316 1.368 . S
C311 C295 1.349 . S
C311 H303 0.950 1_655 S
C311 C309 1.327 . S
C312 C300 1.349 . S
C312 H306 0.950 . S
C312 C313 1.327 . S
C313 H307 0.950 . S
C313 C312 1.327 . S
C313 C317 1.429 . S
C314 C297 1.574 . S
C314 H308 0.949 . S
C314 C318 1.368 . S
C315 C296 1.429 . S
C315 C309 1.429 . S
C315 C316 1.523 . S
C316 C297 1.368 . S
C316 C310 1.368 . S
C316 C315 1.523 . S
C317 C301 1.429 . S
C317 C313 1.429 . S
C317 C318 1.523 . S
C318 C302 1.368 . S
C318 C314 1.368 . S
C318 C317 1.523 . S
H319 C294 0.950 . S
H320 C296 0.950 . S
H321 C297 0.949 . S
H322 C299 0.950 1_565 S
H323 C301 0.950 . S
C324 C325 1.349 . S
C324 C326 1.327 . S
C324 H349 0.950 . S
C325 C324 1.349 . S
C325 C341 1.349 . S
C326 C324 1.327 . S
C326 C345 1.429 . S
C326 H350 0.950 . S
C327 C344 1.574 . S
C327 C346 1.368 . S
C327 H351 0.949 . S
H328 C332 0.949 . S
C329 C330 1.349 . S
C329 C331 1.327 . S
C329 H352 0.950 . S
C330 C329 1.349 . S
C330 C342 1.349 . S
C331 C329 1.327 . S
C331 C347 1.429 . S
C331 H353 0.950 . S
C332 H328 0.949 . S
C332 C340 1.574 . S
C332 C348 1.368 . S
H333 C341 0.950 . S
H334 C339 0.950 . S
H335 C340 0.949 . S
H336 C342 0.950 . S
H337 C343 0.950 . S
H338 C344 0.949 . S
C339 H334 0.950 . S
C339 C341 1.327 . S
C339 C345 1.429 . S
C340 C332 1.574 . S
C340 H335 0.949 . S
C340 C346 1.368 . S
C341 C325 1.349 . S
C341 H333 0.950 . S
C341 C339 1.327 . S
C342 C330 1.349 . S
C342 H336 0.950 . S
C342 C343 1.327 . S
C343 H337 0.950 . S
C343 C342 1.327 . S
C343 C347 1.429 . S
C344 C327 1.574 . S
C344 H338 0.949 . S
C344 C348 1.368 . S
C345 C326 1.429 . S
C345 C339 1.429 . S
C345 C346 1.523 . S
C346 C327 1.368 . S
C346 C340 1.368 . S
C346 C345 1.523 . S
C347 C331 1.429 . S
C347 C343 1.429 . S
C347 C348 1.523 . S
C348 C332 1.368 . S
C348 C344 1.368 . S
C348 C347 1.523 . S
H349 C324 0.950 . S
H350 C326 0.950 . S
H351 C327 0.949 . S
H352 C329 0.950 . S
H353 C331 0.950 . S
C354 C355 1.349 . S
C354 C356 1.327 . S
C354 H379 0.950 1_455 S
C355 C354 1.349 . S
C355 C371 1.349 . S
C356 C354 1.327 . S
C356 C375 1.429 . S
C356 H380 0.950 . S
C357 C374 1.574 . S
C357 C376 1.368 . S
C357 H381 0.949 . S
H358 C362 0.949 . S
C359 C360 1.349 . S
C359 C361 1.327 . S
C359 H382 0.950 . S
C360 C359 1.349 . S
C360 C372 1.349 . S
C361 C359 1.327 . S
C361 C377 1.429 . S
C361 H383 0.950 . S
C362 H358 0.949 . S
C362 C370 1.574 . S
C362 C378 1.368 . S
H363 C371 0.950 . S
H364 C369 0.950 . S
H365 C370 0.949 . S
H366 C372 0.950 1_545 S
H367 C373 0.950 . S
H368 C374 0.949 . S
C369 H364 0.950 . S
C369 C371 1.327 . S
C369 C375 1.429 . S
C370 C362 1.574 . S
C370 H365 0.949 . S
C370 C376 1.368 . S
C371 C355 1.349 . S
C371 H363 0.950 . S
C371 C369 1.327 . S
C372 C360 1.349 . S
C372 H366 0.950 1_565 S
C372 C373 1.327 . S
C373 H367 0.950 . S
C373 C372 1.327 . S
C373 C377 1.429 . S
C374 C357 1.574 . S
C374 H368 0.949 . S
C374 C378 1.368 . S
C375 C356 1.429 . S
C375 C369 1.429 . S
C375 C376 1.523 . S
C376 C357 1.368 . S
C376 C370 1.368 . S
C376 C375 1.523 . S
C377 C361 1.429 . S
C377 C373 1.429 . S
C377 C378 1.523 . S
C378 C362 1.368 . S
C378 C374 1.368 . S
C378 C377 1.523 . S
H379 C354 0.950 1_655 S
H380 C356 0.950 . S
H381 C357 0.949 . S
H382 C359 0.950 . S
H383 C361 0.950 . S
C384 C385 1.349 . S
C384 C386 1.327 . S
C384 H409 0.950 . S
C385 C384 1.349 . S
C385 C401 1.349 . S
C386 C384 1.327 . S
C386 C405 1.429 . S
C386 H410 0.950 . S
C387 C404 1.574 . S
C387 C406 1.368 . S
C387 H411 0.949 . S
H388 C392 0.949 . S
C389 C390 1.349 . S
C389 C391 1.327 . S
C389 H412 0.950 . S
C390 C389 1.349 . S
C390 C402 1.349 . S
C391 C389 1.327 . S
C391 C407 1.429 . S
C391 H413 0.950 . S
C392 H388 0.949 . S
C392 C400 1.574 . S
C392 C408 1.368 . S
H393 C401 0.950 . S
H394 C399 0.950 . S
H395 C400 0.949 . S
H396 C402 0.950 . S
H397 C403 0.950 . S
H398 C404 0.949 . S
C399 H394 0.950 . S
C399 C401 1.327 . S
C399 C405 1.429 . S
C400 C392 1.574 . S
C400 H395 0.949 . S
C400 C406 1.368 . S
C401 C385 1.349 . S
C401 H393 0.950 . S
C401 C399 1.327 . S
C402 C390 1.349 . S
C402 H396 0.950 . S
C402 C403 1.327 . S
C403 H397 0.950 . S
C403 C402 1.327 . S
C403 C407 1.429 . S
C404 C387 1.574 . S
C404 H398 0.949 . S
C404 C408 1.368 . S
C405 C386 1.429 . S
C405 C399 1.429 . S
C405 C406 1.523 . S
C406 C387 1.368 . S
C406 C400 1.368 . S
C406 C405 1.523 . S
C407 C391 1.429 . S
C407 C403 1.429 . S
C407 C408 1.523 . S
C408 C392 1.368 . S
C408 C404 1.368 . S
C408 C407 1.523 . S
H409 C384 0.950 . S
H410 C386 0.950 . S
H411 C387 0.949 . S
H412 C389 0.950 . S
H413 C391 0.950 . S
C414 C415 1.349 . S
C414 C416 1.327 . S
C414 H439 0.950 . S
C415 C414 1.349 . S
C415 C431 1.349 . S
C416 C414 1.327 . S
C416 C435 1.429 . S
C416 H440 0.950 . S
C417 C434 1.574 . S
C417 C436 1.368 . S
C417 H441 0.949 . S
H418 C422 0.949 . S
C419 C420 1.349 . S
C419 C421 1.327 . S
C419 H442 0.950 . S
C420 C419 1.349 . S
C420 C432 1.349 . S
C421 C419 1.327 . S
C421 C437 1.429 . S
C421 H443 0.950 . S
C422 H418 0.949 . S
C422 C430 1.574 . S
C422 C438 1.368 . S
H423 C431 0.950 . S
H424 C429 0.950 . S
H425 C430 0.949 . S
H426 C432 0.950 . S
H427 C433 0.950 . S
H428 C434 0.949 . S
C429 H424 0.950 . S
C429 C431 1.327 . S
C429 C435 1.429 . S
C430 C422 1.574 . S
C430 H425 0.949 . S
C430 C436 1.368 . S
C431 C415 1.349 . S
C431 H423 0.950 . S
C431 C429 1.327 . S
C432 C420 1.349 . S
C432 H426 0.950 . S
C432 C433 1.327 . S
C433 H427 0.950 . S
C433 C432 1.327 . S
C433 C437 1.429 . S
C434 C417 1.574 . S
C434 H428 0.949 . S
C434 C438 1.368 . S
C435 C416 1.429 . S
C435 C429 1.429 . S
C435 C436 1.523 . S
C436 C417 1.368 . S
C436 C430 1.368 . S
C436 C435 1.523 . S
C437 C421 1.429 . S
C437 C433 1.429 . S
C437 C438 1.523 . S
C438 C422 1.368 . S
C438 C434 1.368 . S
C438 C437 1.523 . S
H439 C414 0.950 . S
H440 C416 0.950 . S
H441 C417 0.949 . S
H442 C419 0.950 . S
H443 C421 0.950 . S
C444 C445 1.349 . S
C444 C446 1.327 . S
C444 H469 0.950 . S
C445 C444 1.349 . S
C445 C461 1.349 . S
C446 C444 1.327 . S
C446 C465 1.429 . S
C446 H470 0.950 . S
C447 C464 1.574 . S
C447 C466 1.368 . S
C447 H471 0.949 . S
H448 C452 0.949 . S
C449 C450 1.349 . S
C449 C451 1.327 . S
C449 H472 0.950 . S
C450 C449 1.349 . S
C450 C462 1.349 . S
C451 C449 1.327 . S
C451 C467 1.429 . S
C451 H473 0.950 . S
C452 H448 0.949 . S
C452 C460 1.574 . S
C452 C468 1.368 . S
H453 C461 0.950 . S
H454 C459 0.950 . S
H455 C460 0.949 . S
H456 C462 0.950 . S
H457 C463 0.950 . S
H458 C464 0.949 . S
C459 H454 0.950 . S
C459 C461 1.327 . S
C459 C465 1.429 . S
C460 C452 1.574 . S
C460 H455 0.949 . S
C460 C466 1.368 . S
C461 C445 1.349 . S
C461 H453 0.950 . S
C461 C459 1.327 . S
C462 C450 1.349 . S
C462 H456 0.950 . S
C462 C463 1.327 . S
C463 H457 0.950 . S
C463 C462 1.327 . S
C463 C467 1.429 . S
C464 C447 1.574 . S
C464 H458 0.949 . S
C464 C468 1.368 . S
C465 C446 1.429 . S
C465 C459 1.429 . S
C465 C466 1.523 . S
C466 C447 1.368 . S
C466 C460 1.368 . S
C466 C465 1.523 . S
C467 C451 1.429 . S
C467 C463 1.429 . S
C467 C468 1.523 . S
C468 C452 1.368 . S
C468 C464 1.368 . S
C468 C467 1.523 . S
H469 C444 0.950 . S
H470 C446 0.950 . S
H471 C447 0.949 . S
H472 C449 0.950 . S
H473 C451 0.950 . S
C474 C475 1.349 . S
C474 C476 1.327 . S
C474 H499 0.950 . S
C475 C474 1.349 . S
C475 C491 1.349 . S
C476 C474 1.327 . S
C476 C495 1.429 . S
C476 H500 0.950 . S
C477 C494 1.574 . S
C477 C496 1.368 1_554 S
C477 H501 0.949 . S
H478 C482 0.949 . S
C479 C480 1.349 . S
C479 C481 1.327 . S
C479 H502 0.950 . S
C480 C479 1.349 . S
C480 C492 1.349 . S
C481 C479 1.327 . S
C481 C497 1.429 . S
C481 H503 0.950 . S
C482 H478 0.949 . S
C482 C490 1.574 1_554 S
C482 C498 1.368 . S
H483 C491 0.950 . S
H484 C489 0.950 . S
H485 C490 0.949 . S
H486 C492 0.950 . S
H487 C493 0.950 . S
H488 C494 0.949 . S
C489 H484 0.950 . S
C489 C491 1.327 . S
C489 C495 1.429 . S
C490 C482 1.574 1_556 S
C490 H485 0.949 . S
C490 C496 1.368 . S
C491 C475 1.349 . S
C491 H483 0.950 . S
C491 C489 1.327 . S
C492 C480 1.349 . S
C492 H486 0.950 . S
C492 C493 1.327 . S
C493 H487 0.950 . S
C493 C492 1.327 . S
C493 C497 1.429 . S
C494 C477 1.574 . S
C494 H488 0.949 . S
C494 C498 1.368 . S
C495 C476 1.429 . S
C495 C489 1.429 . S
C495 C496 1.523 . S
C496 C477 1.368 1_556 S
C496 C490 1.368 . S
C496 C495 1.523 . S
C497 C481 1.429 . S
C497 C493 1.429 . S
C497 C498 1.523 . S
C498 C482 1.368 . S
C498 C494 1.368 . S
C498 C497 1.523 . S
H499 C474 0.950 . S
H500 C476 0.950 . S
H501 C477 0.949 . S
H502 C479 0.950 . S
H503 C481 0.950 . S
C504 C505 1.349 . S
C504 C506 1.327 . S
C504 H529 0.950 . S
C505 C504 1.349 . S
C505 C521 1.349 . S
C506 C504 1.327 . S
C506 C525 1.429 . S
C506 H530 0.950 . S
C507 C524 1.574 . S
C507 C526 1.368 . S
C507 H531 0.949 . S
H508 C512 0.949 . S
C509 C510 1.349 . S
C509 C511 1.327 . S
C509 H532 0.950 . S
C510 C509 1.349 . S
C510 C522 1.349 . S
C511 C509 1.327 . S
C511 C527 1.429 . S
C511 H533 0.950 . S
C512 H508 0.949 . S
C512 C520 1.574 . S
C512 C528 1.368 . S
H513 C521 0.950 . S
H514 C519 0.950 . S
H515 C520 0.949 . S
H516 C522 0.950 . S
H517 C523 0.950 . S
H518 C524 0.949 . S
C519 H514 0.950 . S
C519 C521 1.327 . S
C519 C525 1.429 . S
C520 C512 1.574 . S
C520 H515 0.949 . S
C520 C526 1.368 . S
C521 C505 1.349 . S
C521 H513 0.950 . S
C521 C519 1.327 . S
C522 C510 1.349 . S
C522 H516 0.950 . S
C522 C523 1.327 . S
C523 H517 0.950 . S
C523 C522 1.327 . S
C523 C527 1.429 . S
C524 C507 1.574 . S
C524 H518 0.949 . S
C524 C528 1.368 . S
C525 C506 1.429 . S
C525 C519 1.429 . S
C525 C526 1.523 . S
C526 C507 1.368 . S
C526 C520 1.368 . S
C526 C525 1.523 . S
C527 C511 1.429 . S
C527 C523 1.429 . S
C527 C528 1.523 . S
C528 C512 1.368 . S
C528 C524 1.368 . S
C528 C527 1.523 . S
H529 C504 0.950 . S
H530 C506 0.950 . S
H531 C507 0.949 . S
H532 C509 0.950 . S
H533 C511 0.950 . S
C534 C535 1.349 . S
C534 C536 1.327 . S
C534 H559 0.950 . S
C535 C534 1.349 . S
C535 C551 1.349 . S
C536 C534 1.327 . S
C536 C555 1.429 . S
C536 H560 0.950 . S
C537 C554 1.574 1_554 S
C537 C556 1.368 . S
C537 H561 0.949 . S
H538 C542 0.949 . S
C539 C540 1.349 . S
C539 C541 1.327 . S
C539 H562 0.950 . S
C540 C539 1.349 . S
C540 C552 1.349 . S
C541 C539 1.327 . S
C541 C557 1.429 . S
C541 H563 0.950 . S
C542 H538 0.949 . S
C542 C550 1.574 . S
C542 C558 1.368 1_554 S
H543 C551 0.950 . S
H544 C549 0.950 . S
H545 C550 0.949 . S
H546 C552 0.950 . S
H547 C553 0.950 . S
H548 C554 0.949 . S
C549 H544 0.950 . S
C549 C551 1.327 . S
C549 C555 1.429 . S
C550 C542 1.574 . S
C550 H545 0.949 . S
C550 C556 1.368 . S
C551 C535 1.349 . S
C551 H543 0.950 . S
C551 C549 1.327 . S
C552 C540 1.349 . S
C552 H546 0.950 . S
C552 C553 1.327 . S
C553 H547 0.950 . S
C553 C552 1.327 . S
C553 C557 1.429 . S
C554 C537 1.574 1_556 S
C554 H548 0.949 . S
C554 C558 1.368 . S
C555 C536 1.429 . S
C555 C549 1.429 . S
C555 C556 1.523 . S
C556 C537 1.368 . S
C556 C550 1.368 . S
C556 C555 1.523 . S
C557 C541 1.429 . S
C557 C553 1.429 . S
C557 C558 1.523 . S
C558 C542 1.368 1_556 S
C558 C554 1.368 . S
C558 C557 1.523 . S
H559 C534 0.950 . S
H560 C536 0.950 . S
H561 C537 0.949 . S
H562 C539 0.950 . S
H563 C541 0.950 . S
C564 C565 1.349 . S
C564 C566 1.327 . S
C564 H589 0.950 . S
C565 C564 1.349 . S
C565 C581 1.349 . S
C566 C564 1.327 . S
C566 C585 1.429 . S
C566 H590 0.950 . S
C567 C584 1.574 . S
C567 C586 1.368 . S
C567 H591 0.949 . S
H568 C572 0.949 . S
C569 C570 1.349 . S
C569 C571 1.327 . S
C569 H592 0.950 . S
C570 C569 1.349 . S
C570 C582 1.349 . S
C571 C569 1.327 . S
C571 C587 1.429 . S
C571 H593 0.950 . S
C572 H568 0.949 . S
C572 C580 1.574 . S
C572 C588 1.368 . S
H573 C581 0.950 . S
H574 C579 0.950 . S
H575 C580 0.949 . S
H576 C582 0.950 . S
H577 C583 0.950 . S
H578 C584 0.949 . S
C579 H574 0.950 . S
C579 C581 1.327 . S
C579 C585 1.429 . S
C580 C572 1.574 . S
C580 H575 0.949 . S
C580 C586 1.368 . S
C581 C565 1.349 . S
C581 H573 0.950 . S
C581 C579 1.327 . S
C582 C570 1.349 . S
C582 H576 0.950 . S
C582 C583 1.327 . S
C583 H577 0.950 . S
C583 C582 1.327 . S
C583 C587 1.429 . S
C584 C567 1.574 . S
C584 H578 0.949 . S
C584 C588 1.368 . S
C585 C566 1.429 . S
C585 C579 1.429 . S
C585 C586 1.523 . S
C586 C567 1.368 . S
C586 C580 1.368 . S
C586 C585 1.523 . S
C587 C571 1.429 . S
C587 C583 1.429 . S
C587 C588 1.523 . S
C588 C572 1.368 . S
C588 C584 1.368 . S
C588 C587 1.523 . S
H589 C564 0.950 . S
H590 C566 0.950 . S
H591 C567 0.949 . S
H592 C569 0.950 . S
H593 C571 0.950 . S
C594 C595 1.349 . S
C594 C596 1.327 . S
C594 H619 0.950 . S
C595 C594 1.349 . S
C595 C611 1.349 . S
C596 C594 1.327 . S
C596 C615 1.429 . S
C596 H620 0.950 . S
C597 C614 1.574 . S
C597 C616 1.368 . S
C597 H621 0.949 . S
H598 C602 0.949 . S
C599 C600 1.349 . S
C599 C601 1.327 . S
C599 H622 0.950 . S
C600 C599 1.349 . S
C600 C612 1.349 . S
C601 C599 1.327 . S
C601 C617 1.429 . S
C601 H623 0.950 . S
C602 H598 0.949 . S
C602 C610 1.574 . S
C602 C618 1.368 . S
H603 C611 0.950 . S
H604 C609 0.950 . S
H605 C610 0.949 . S
H606 C612 0.950 . S
H607 C613 0.950 . S
H608 C614 0.949 . S
C609 H604 0.950 . S
C609 C611 1.327 . S
C609 C615 1.429 . S
C610 C602 1.574 . S
C610 H605 0.949 . S
C610 C616 1.368 . S
C611 C595 1.349 . S
C611 H603 0.950 . S
C611 C609 1.327 . S
C612 C600 1.349 . S
C612 H606 0.950 . S
C612 C613 1.327 . S
C613 H607 0.950 . S
C613 C612 1.327 . S
C613 C617 1.429 . S
C614 C597 1.574 . S
C614 H608 0.949 . S
C614 C618 1.368 . S
C615 C596 1.429 . S
C615 C609 1.429 . S
C615 C616 1.523 . S
C616 C597 1.368 . S
C616 C610 1.368 . S
C616 C615 1.523 . S
C617 C601 1.429 . S
C617 C613 1.429 . S
C617 C618 1.523 . S
C618 C602 1.368 . S
C618 C614 1.368 . S
C618 C617 1.523 . S
H619 C594 0.950 . S
H620 C596 0.950 . S
H621 C597 0.949 . S
H622 C599 0.950 . S
H623 C601 0.950 . S
C624 C625 1.349 . S
C624 C626 1.327 . S
C624 H649 0.950 . S
C625 C624 1.349 . S
C625 C641 1.349 . S
C626 C624 1.327 . S
C626 C645 1.429 . S
C626 H650 0.950 . S
C627 C644 1.574 . S
C627 C646 1.368 . S
C627 H651 0.949 . S
H628 C632 0.949 . S
C629 C630 1.349 . S
C629 C631 1.327 . S
C629 H652 0.950 . S
C630 C629 1.349 . S
C630 C642 1.349 . S
C631 C629 1.327 . S
C631 C647 1.429 . S
C631 H653 0.950 . S
C632 H628 0.949 . S
C632 C640 1.574 . S
C632 C648 1.368 . S
H633 C641 0.950 . S
H634 C639 0.950 . S
H635 C640 0.949 . S
H636 C642 0.950 1_545 S
H637 C643 0.950 . S
H638 C644 0.949 . S
C639 H634 0.950 . S
C639 C641 1.327 . S
C639 C645 1.429 . S
C640 C632 1.574 . S
C640 H635 0.949 . S
C640 C646 1.368 . S
C641 C625 1.349 . S
C641 H633 0.950 . S
C641 C639 1.327 . S
C642 C630 1.349 . S
C642 H636 0.950 1_565 S
C642 C643 1.327 . S
C643 H637 0.950 . S
C643 C642 1.327 . S
C643 C647 1.429 . S
C644 C627 1.574 . S
C644 H638 0.949 . S
C644 C648 1.368 . S
C645 C626 1.429 . S
C645 C639 1.429 . S
C645 C646 1.523 . S
C646 C627 1.368 . S
C646 C640 1.368 . S
C646 C645 1.523 . S
C647 C631 1.429 . S
C647 C643 1.429 . S
C647 C648 1.523 . S
C648 C632 1.368 . S
C648 C644 1.368 . S
C648 C647 1.523 . S
H649 C624 0.950 . S
H650 C626 0.950 . S
H651 C627 0.949 . S
H652 C629 0.950 . S
H653 C631 0.950 . S
C654 C655 1.349 . S
C654 C656 1.327 . S
C654 H679 0.950 . S
C655 C654 1.349 . S
C655 C671 1.349 . S
C656 C654 1.327 . S
C656 C675 1.429 . S
C656 H680 0.950 . S
C657 C674 1.574 . S
C657 C676 1.368 . S
C657 H681 0.949 . S
H658 C662 0.949 . S
C659 C660 1.349 . S
C659 C661 1.327 . S
C659 H682 0.950 . S
C660 C659 1.349 . S
C660 C672 1.349 . S
C661 C659 1.327 . S
C661 C677 1.429 . S
C661 H683 0.950 . S
C662 H658 0.949 . S
C662 C670 1.574 . S
C662 C678 1.368 . S
H663 C671 0.950 . S
H664 C669 0.950 . S
H665 C670 0.949 . S
H666 C672 0.950 . S
H667 C673 0.950 . S
H668 C674 0.949 . S
C669 H664 0.950 . S
C669 C671 1.327 . S
C669 C675 1.429 . S
C670 C662 1.574 . S
C670 H665 0.949 . S
C670 C676 1.368 . S
C671 C655 1.349 . S
C671 H663 0.950 . S
C671 C669 1.327 . S
C672 C660 1.349 . S
C672 H666 0.950 . S
C672 C673 1.327 . S
C673 H667 0.950 . S
C673 C672 1.327 . S
C673 C677 1.429 . S
C674 C657 1.574 . S
C674 H668 0.949 . S
C674 C678 1.368 . S
C675 C656 1.429 . S
C675 C669 1.429 . S
C675 C676 1.523 . S
C676 C657 1.368 . S
C676 C670 1.368 . S
C676 C675 1.523 . S
C677 C661 1.429 . S
C677 C673 1.429 . S
C677 C678 1.523 . S
C678 C662 1.368 . S
C678 C674 1.368 . S
C678 C677 1.523 . S
H679 C654 0.950 . S
H680 C656 0.950 . S
H681 C657 0.949 . S
H682 C659 0.950 . S
H683 C661 0.950 . S
C684 C685 1.349 . S
C684 C686 1.327 . S
C684 H709 0.950 . S
C685 C684 1.349 . S
C685 C701 1.349 . S
C686 C684 1.327 . S
C686 C705 1.429 . S
C686 H710 0.950 . S
C687 C704 1.574 . S
C687 C706 1.368 . S
C687 H711 0.949 . S
H688 C692 0.949 . S
C689 C690 1.349 . S
C689 C691 1.327 . S
C689 H712 0.950 . S
C690 C689 1.349 . S
C690 C702 1.349 . S
C691 C689 1.327 . S
C691 C707 1.429 . S
C691 H713 0.950 . S
C692 H688 0.949 . S
C692 C700 1.574 . S
C692 C708 1.368 . S
H693 C701 0.950 1_565 S
H694 C699 0.950 . S
H695 C700 0.949 . S
H696 C702 0.950 . S
H697 C703 0.950 . S
H698 C704 0.949 . S
C699 H694 0.950 . S
C699 C701 1.327 . S
C699 C705 1.429 . S
C700 C692 1.574 . S
C700 H695 0.949 . S
C700 C706 1.368 . S
C701 C685 1.349 . S
C701 H693 0.950 1_545 S
C701 C699 1.327 . S
C702 C690 1.349 . S
C702 H696 0.950 . S
C702 C703 1.327 . S
C703 H697 0.950 . S
C703 C702 1.327 . S
C703 C707 1.429 . S
C704 C687 1.574 . S
C704 H698 0.949 . S
C704 C708 1.368 . S
C705 C686 1.429 . S
C705 C699 1.429 . S
C705 C706 1.523 . S
C706 C687 1.368 . S
C706 C700 1.368 . S
C706 C705 1.523 . S
C707 C691 1.429 . S
C707 C703 1.429 . S
C707 C708 1.523 . S
C708 C692 1.368 . S
C708 C704 1.368 . S
C708 C707 1.523 . S
H709 C684 0.950 . S
H710 C686 0.950 . S
H711 C687 0.949 . S
H712 C689 0.950 . S
H713 C691 0.950 . S
C714 C715 1.349 . S
C714 C716 1.327 . S
C714 H739 0.950 . S
C715 C714 1.349 . S
C715 C731 1.349 . S
C716 C714 1.327 . S
C716 C735 1.429 . S
C716 H740 0.950 . S
C717 C734 1.574 . S
C717 C736 1.368 . S
C717 H741 0.949 . S
H718 C722 0.949 . S
C719 C720 1.349 . S
C719 C721 1.327 . S
C719 H742 0.950 . S
C720 C719 1.349 . S
C720 C732 1.349 . S
C721 C719 1.327 . S
C721 C737 1.429 . S
C721 H743 0.950 . S
C722 H718 0.949 . S
C722 C730 1.574 . S
C722 C738 1.368 . S
H723 C731 0.950 . S
H724 C729 0.950 . S
H725 C730 0.949 . S
H726 C732 0.950 . S
H727 C733 0.950 . S
H728 C734 0.949 . S
C729 H724 0.950 . S
C729 C731 1.327 . S
C729 C735 1.429 . S
C730 C722 1.574 . S
C730 H725 0.949 . S
C730 C736 1.368 . S
C731 C715 1.349 . S
C731 H723 0.950 . S
C731 C729 1.327 . S
C732 C720 1.349 . S
C732 H726 0.950 . S
C732 C733 1.327 . S
C733 H727 0.950 . S
C733 C732 1.327 . S
C733 C737 1.429 . S
C734 C717 1.574 . S
C734 H728 0.949 . S
C734 C738 1.368 . S
C735 C716 1.429 . S
C735 C729 1.429 . S
C735 C736 1.523 . S
C736 C717 1.368 . S
C736 C730 1.368 . S
C736 C735 1.523 . S
C737 C721 1.429 . S
C737 C733 1.429 . S
C737 C738 1.523 . S
C738 C722 1.368 . S
C738 C734 1.368 . S
C738 C737 1.523 . S
H739 C714 0.950 . S
H740 C716 0.950 . S
H741 C717 0.949 . S
H742 C719 0.950 . S
H743 C721 0.950 . S
C744 C745 1.349 . S
C744 C746 1.327 . S
C744 H769 0.950 . S
C745 C744 1.349 . S
C745 C761 1.349 . S
C746 C744 1.327 . S
C746 C765 1.429 . S
C746 H770 0.950 . S
C747 C764 1.574 . S
C747 C766 1.368 . S
C747 H771 0.949 . S
H748 C752 0.949 . S
C749 C750 1.349 . S
C749 C751 1.327 . S
C749 H772 0.950 . S
C750 C749 1.349 . S
C750 C762 1.349 1_554 S
C751 C749 1.327 . S
C751 C767 1.429 1_554 S
C751 H773 0.950 . S
C752 H748 0.949 . S
C752 C760 1.574 . S
C752 C768 1.368 . S
H753 C761 0.950 . S
H754 C759 0.950 . S
H755 C760 0.949 . S
H756 C762 0.950 . S
H757 C763 0.950 . S
H758 C764 0.949 . S
C759 H754 0.950 . S
C759 C761 1.327 . S
C759 C765 1.429 . S
C760 C752 1.574 . S
C760 H755 0.949 . S
C760 C766 1.368 . S
C761 C745 1.349 . S
C761 H753 0.950 . S
C761 C759 1.327 . S
C762 C750 1.349 1_556 S
C762 H756 0.950 . S
C762 C763 1.327 . S
C763 H757 0.950 . S
C763 C762 1.327 . S
C763 C767 1.429 . S
C764 C747 1.574 . S
C764 H758 0.949 . S
C764 C768 1.368 . S
C765 C746 1.429 . S
C765 C759 1.429 . S
C765 C766 1.523 . S
C766 C747 1.368 . S
C766 C760 1.368 . S
C766 C765 1.523 . S
C767 C751 1.429 1_556 S
C767 C763 1.429 . S
C767 C768 1.523 . S
C768 C752 1.368 . S
C768 C764 1.368 . S
C768 C767 1.523 . S
H769 C744 0.950 . S
H770 C746 0.950 . S
H771 C747 0.949 . S
H772 C749 0.950 . S
H773 C751 0.950 . S
C774 C775 1.349 . S
C774 C776 1.327 . S
C774 H799 0.950 1_655 S
C775 C774 1.349 . S
C775 C791 1.349 . S
C776 C774 1.327 . S
C776 C795 1.429 . S
C776 H800 0.950 . S
C777 C794 1.574 . S
C777 C796 1.368 . S
C777 H801 0.949 . S
H778 C782 0.949 . S
C779 C780 1.349 . S
C779 C781 1.327 . S
C779 H802 0.950 . S
C780 C779 1.349 . S
C780 C792 1.349 . S
C781 C779 1.327 . S
C781 C797 1.429 . S
C781 H803 0.950 . S
C782 H778 0.949 . S
C782 C790 1.574 . S
C782 C798 1.368 . S
H783 C791 0.950 . S
H784 C789 0.950 . S
H785 C790 0.949 . S
H786 C792 0.950 . S
H787 C793 0.950 . S
H788 C794 0.949 . S
C789 H784 0.950 . S
C789 C791 1.327 . S
C789 C795 1.429 . S
C790 C782 1.574 . S
C790 H785 0.949 . S
C790 C796 1.368 . S
C791 C775 1.349 . S
C791 H783 0.950 . S
C791 C789 1.327 . S
C792 C780 1.349 . S
C792 H786 0.950 . S
C792 C793 1.327 . S
C793 H787 0.950 . S
C793 C792 1.327 . S
C793 C797 1.429 . S
C794 C777 1.574 . S
C794 H788 0.949 . S
C794 C798 1.368 . S
C795 C776 1.429 . S
C795 C789 1.429 . S
C795 C796 1.523 . S
C796 C777 1.368 . S
C796 C790 1.368 . S
C796 C795 1.523 . S
C797 C781 1.429 . S
C797 C793 1.429 . S
C797 C798 1.523 . S
C798 C782 1.368 . S
C798 C794 1.368 . S
C798 C797 1.523 . S
H799 C774 0.950 1_455 S
H800 C776 0.950 . S
H801 C777 0.949 . S
H802 C779 0.950 . S
H803 C781 0.950 . S
C804 C805 1.349 . S
C804 C806 1.327 . S
C804 H829 0.950 . S
C805 C804 1.349 . S
C805 C821 1.349 . S
C806 C804 1.327 . S
C806 C825 1.429 . S
C806 H830 0.950 . S
C807 C824 1.574 . S
C807 C826 1.368 . S
C807 H831 0.949 . S
H808 C812 0.949 . S
C809 C810 1.349 . S
C809 C811 1.327 . S
C809 H832 0.950 . S
C810 C809 1.349 . S
C810 C822 1.349 . S
C811 C809 1.327 . S
C811 C827 1.429 . S
C811 H833 0.950 . S
C812 H808 0.949 . S
C812 C820 1.574 . S
C812 C828 1.368 . S
H813 C821 0.950 . S
H814 C819 0.950 . S
H815 C820 0.949 . S
H816 C822 0.950 . S
H817 C823 0.950 . S
H818 C824 0.949 . S
C819 H814 0.950 . S
C819 C821 1.327 . S
C819 C825 1.429 . S
C820 C812 1.574 . S
C820 H815 0.949 . S
C820 C826 1.368 . S
C821 C805 1.349 . S
C821 H813 0.950 . S
C821 C819 1.327 . S
C822 C810 1.349 . S
C822 H816 0.950 . S
C822 C823 1.327 . S
C823 H817 0.950 . S
C823 C822 1.327 . S
C823 C827 1.429 . S
C824 C807 1.574 . S
C824 H818 0.949 . S
C824 C828 1.368 . S
C825 C806 1.429 . S
C825 C819 1.429 . S
C825 C826 1.523 . S
C826 C807 1.368 . S
C826 C820 1.368 . S
C826 C825 1.523 . S
C827 C811 1.429 . S
C827 C823 1.429 . S
C827 C828 1.523 . S
C828 C812 1.368 . S
C828 C824 1.368 . S
C828 C827 1.523 . S
H829 C804 0.950 . S
H830 C806 0.950 . S
H831 C807 0.949 . S
H832 C809 0.950 . S
H833 C811 0.950 . S
C834 C835 1.349 . S
C834 C836 1.327 . S
C834 H859 0.950 . S
C835 C834 1.349 . S
C835 C851 1.349 . S
C836 C834 1.327 . S
C836 C855 1.429 . S
C836 H860 0.950 . S
C837 C854 1.574 . S
C837 C856 1.368 . S
C837 H861 0.949 . S
H838 C842 0.949 . S
C839 C840 1.349 . S
C839 C841 1.327 . S
C839 H862 0.950 1_455 S
C840 C839 1.349 . S
C840 C852 1.349 . S
C841 C839 1.327 . S
C841 C857 1.429 . S
C841 H863 0.950 . S
C842 H838 0.949 . S
C842 C850 1.574 . S
C842 C858 1.368 . S
H843 C851 0.950 . S
H844 C849 0.950 . S
H845 C850 0.949 . S
H846 C852 0.950 . S
H847 C853 0.950 . S
H848 C854 0.949 . S
C849 H844 0.950 . S
C849 C851 1.327 . S
C849 C855 1.429 . S
C850 C842 1.574 . S
C850 H845 0.949 . S
C850 C856 1.368 . S
C851 C835 1.349 . S
C851 H843 0.950 . S
C851 C849 1.327 . S
C852 C840 1.349 . S
C852 H846 0.950 . S
C852 C853 1.327 . S
C853 H847 0.950 . S
C853 C852 1.327 . S
C853 C857 1.429 . S
C854 C837 1.574 . S
C854 H848 0.949 . S
C854 C858 1.368 . S
C855 C836 1.429 . S
C855 C849 1.429 . S
C855 C856 1.523 . S
C856 C837 1.368 . S
C856 C850 1.368 . S
C856 C855 1.523 . S
C857 C841 1.429 . S
C857 C853 1.429 . S
C857 C858 1.523 . S
C858 C842 1.368 . S
C858 C854 1.368 . S
C858 C857 1.523 . S
H859 C834 0.950 . S
H860 C836 0.950 . S
H861 C837 0.949 . S
H862 C839 0.950 1_655 S
H863 C841 0.950 . S
C265 N170 1.267 . S
C270 N5 1.267 . S
C295 N203 1.267 1_655 S
C300 N38 1.267 1_545 S
C325 N71 1.267 . S
C330 N236 1.267 . S
C355 N137 1.267 1_455 S
C360 N104 1.267 1_565 S
C385 C248 0.712 . S
C390 C17 0.712 . S
C415 C50 0.712 . S
C420 C149 0.712 . S
C445 C182 0.712 . S
C450 C83 0.712 . S
C475 C116 0.712 . S
C480 C215 0.712 . S
C505 C239 1.424 . S
C510 C8 1.424 . S
C535 C41 1.424 . S
C540 C140 1.424 . S
C565 C173 1.424 . S
C570 C74 1.424 . S
C595 C206 1.424 . S
C600 C107 1.424 . S
C625 N14 1.760 . S
C630 C127 1.769 1_565 S
C655 C28 1.770 . S
C660 N47 1.760 . S
C685 C61 1.769 1_545 S
C690 N80 1.760 . S
C715 C94 1.770 . S
C720 N113 1.760 . S
C745 N146 1.760 . S
C750 C193 1.769 . S
C775 C226 1.769 1_655 S
C780 N179 1.760 . S
C805 C259 1.770 . S
C810 N212 1.760 . S
C835 N245 1.760 . S
C840 C160 1.770 1_455 S
