# Generated by pormake.
# Topology uov, (4)-cn, num edge types: 1
# Building blocks:
#     Node 0, Type 0, BuildingBlock: KUFVIS_clean_sbu_0, # of connection points: 4
#     Node 1, Type 0, BuildingBlock: KUFVIS_clean_sbu_0, # of connection points: 4
#     Node 2, Type 0, BuildingBlock: KUFVIS_clean_sbu_0, # of connection points: 4
#     Node 3, Type 0, BuildingBlock: KUFVIS_clean_sbu_0, # of connection points: 4
#     Node 4, Type 0, BuildingBlock: KUFVIS_clean_sbu_0, # of connection points: 4
#     Node 5, Type 0, BuildingBlock: KUFVIS_clean_sbu_0, # of connection points: 4
#     Node 6, Type 0, BuildingBlock: KUFVIS_clean_sbu_0, # of connection points: 4
#     Node 7, Type 0, BuildingBlock: KUFVIS_clean_sbu_0, # of connection points: 4
#     Edge 8, Type (0, 0), BuildingBlock: CIFDUS_clean_linker_0, # of connection points: 2
#     Edge 9, Type (0, 0), BuildingBlock: CIFDUS_clean_linker_0, # of connection points: 2
#     Edge 10, Type (0, 0), BuildingBlock: CIFDUS_clean_linker_0, # of connection points: 2
#     Edge 11, Type (0, 0), BuildingBlock: CIFDUS_clean_linker_0, # of connection points: 2
#     Edge 12, Type (0, 0), BuildingBlock: CIFDUS_clean_linker_0, # of connection points: 2
#     Edge 13, Type (0, 0), BuildingBlock: CIFDUS_clean_linker_0, # of connection points: 2
#     Edge 14, Type (0, 0), BuildingBlock: CIFDUS_clean_linker_0, # of connection points: 2
#     Edge 15, Type (0, 0), BuildingBlock: CIFDUS_clean_linker_0, # of connection points: 2
#     Edge 16, Type (0, 0), BuildingBlock: CIFDUS_clean_linker_0, # of connection points: 2
#     Edge 17, Type (0, 0), BuildingBlock: CIFDUS_clean_linker_0, # of connection points: 2
#     Edge 18, Type (0, 0), BuildingBlock: CIFDUS_clean_linker_0, # of connection points: 2
#     Edge 19, Type (0, 0), BuildingBlock: CIFDUS_clean_linker_0, # of connection points: 2
#     Edge 20, Type (0, 0), BuildingBlock: CIFDUS_clean_linker_0, # of connection points: 2
#     Edge 21, Type (0, 0), BuildingBlock: CIFDUS_clean_linker_0, # of connection points: 2
#     Edge 22, Type (0, 0), BuildingBlock: CIFDUS_clean_linker_0, # of connection points: 2
#     Edge 23, Type (0, 0), BuildingBlock: CIFDUS_clean_linker_0, # of connection points: 2
# Relax obj value: 0.168
# Max RMSD: 0.186
# Mean RMSD: 0.181
data_MOF--net-uov--node1-KUFVIS_clean_sbu_0--edge1-CIFDUS_clean_linker_0
_symmetry_space_group_name_H-M    P1
_symmetry_Int_Tables_number       1
_symmetry_cell_setting            triclinic
loop_
_symmetry_equiv_pos_as_xyz
'x, y, z'
_cell_length_a     25.486588
_cell_length_b     26.437844
_cell_length_c     36.978067
_cell_angle_alpha  90.039418
_cell_angle_beta   90.05837
_cell_angle_gamma 91.540681
loop_
_atom_site_label
_atom_site_type_symbol
_atom_site_fract_x
_atom_site_fract_y
_atom_site_fract_z
_atom_type_partial_charge
Mn0 Mn 0.07464 0.26518 0.60147 0.0
Mn1 Mn 0.96825 0.2549 0.65527 0.0
C2 C 0.99257 0.26419 0.57543 0.0
C3 C 0.14037 0.22653 0.56899 0.0
C4 C 0.02827 0.35406 0.64307 0.0
O5 O 0.10486 0.23986 0.64799 0.0
O6 O 0.03287 0.23502 0.68296 0.0
C7 C 0.96642 0.14375 0.66617 0.0
N8 N 0.94176 0.1865 0.65585 0.0
C9 C 0.86074 0.13976 0.64562 0.0
C10 C 0.88516 0.09536 0.65647 0.0
C11 C 0.93829 0.09735 0.66665 0.0
C12 C 0.89063 0.185 0.64602 0.0
H13 H 0.00723 0.14496 0.67403 0.0
C14 C 0.08209 0.2288 0.67756 0.0
O15 O 0.14665 0.27294 0.58011 0.0
O16 O 0.0967 0.20299 0.57675 0.0
N17 N 0.90296 0.27053 0.63271 0.0
C18 C 0.88768 0.31487 0.6178 0.0
C19 C 0.83662 0.31847 0.60391 0.0
C20 C 0.80189 0.27639 0.60538 0.0
C21 C 0.81882 0.2308 0.62009 0.0
C22 C 0.87005 0.22956 0.63374 0.0
H23 H 0.91467 0.34677 0.61572 0.0
O24 O 0.03317 0.28379 0.55895 0.0
O25 O 0.00115 0.24481 0.60746 0.0
O26 O 0.0643 0.33593 0.62326 0.0
O27 O 0.99058 0.32716 0.65624 0.0
C28 C 0.78746 0.1861 0.62058 0.0
C29 C 0.80836 0.14064 0.63345 0.0
H30 H 0.86372 0.05942 0.65661 0.0
H31 H 0.95752 0.06318 0.67482 0.0
H32 H 0.82418 0.35348 0.59187 0.0
H33 H 0.76264 0.27917 0.59455 0.0
H34 H 0.74765 0.18599 0.61029 0.0
H35 H 0.78426 0.10626 0.63293 0.0
Mn36 Mn 0.25093 0.95538 0.40484 0.0
Mn37 Mn 0.29519 0.83626 0.40056 0.0
C38 C 0.20801 0.89231 0.43678 0.0
C39 C 0.25204 0.0358 0.43073 0.0
C40 C 0.23119 0.88389 0.34097 0.0
O41 O 0.32422 0.96495 0.38456 0.0
O42 O 0.35319 0.88535 0.38776 0.0
C43 C 0.37223 0.84068 0.46057 0.0
N44 N 0.32901 0.81868 0.4448 0.0
C45 C 0.3209 0.7573 0.49265 0.0
C46 C 0.36557 0.77906 0.50925 0.0
C47 C 0.39128 0.82096 0.49315 0.0
C48 C 0.30409 0.77818 0.45996 0.0
H49 H 0.39193 0.87311 0.44845 0.0
C50 C 0.36046 0.93286 0.38183 0.0
O51 O 0.23583 0.02822 0.39781 0.0
O52 O 0.26994 0.99707 0.44788 0.0
N53 N 0.2436 0.78528 0.41316 0.0
C54 C 0.19824 0.77187 0.39563 0.0
C55 C 0.16638 0.73219 0.4093 0.0
C56 C 0.18158 0.7065 0.44068 0.0
C57 C 0.22855 0.72074 0.45814 0.0
C58 C 0.25894 0.76036 0.44312 0.0
H59 H 0.18613 0.7916 0.37162 0.0
O60 O 0.18466 0.93385 0.42879 0.0
O61 O 0.25664 0.889 0.42627 0.0
O62 O 0.22368 0.92569 0.35712 0.0
O63 O 0.25974 0.84926 0.35387 0.0
C64 C 0.24543 0.69838 0.49056 0.0
C65 C 0.29154 0.71668 0.50782 0.0
H66 H 0.38007 0.76431 0.53458 0.0
H67 H 0.42557 0.83817 0.50592 0.0
H68 H 0.13004 0.72159 0.39578 0.0
H69 H 0.15654 0.67634 0.45139 0.0
H70 H 0.22262 0.66785 0.50289 0.0
H71 H 0.30351 0.69987 0.53313 0.0
Mn72 Mn 0.92787 0.73144 0.58699 0.0
Mn73 Mn 0.02813 0.75038 0.64416 0.0
C74 C 0.01261 0.73372 0.56379 0.0
C75 C 0.86741 0.76396 0.54638 0.0
C76 C 0.97239 0.64877 0.63555 0.0
O77 O 0.89163 0.76384 0.62931 0.0
O78 O 0.95987 0.76774 0.66772 0.0
C79 C 0.02046 0.86205 0.64833 0.0
N80 N 0.04939 0.82035 0.64197 0.0
C81 C 0.12714 0.8719 0.6314 0.0
C82 C 0.09825 0.9153 0.6381 0.0
C83 C 0.04462 0.91034 0.64643 0.0
C84 C 0.10083 0.82479 0.63341 0.0
H85 H 0.97927 0.85863 0.65481 0.0
C86 C 0.91146 0.77438 0.66003 0.0
O87 O 0.85904 0.71971 0.56094 0.0
O88 O 0.90917 0.78905 0.55606 0.0
N89 N 0.09714 0.73722 0.62671 0.0
C90 C 0.11914 0.69189 0.61956 0.0
C91 C 0.1728 0.69021 0.61113 0.0
C92 C 0.20341 0.73516 0.61019 0.0
C93 C 0.17998 0.78145 0.61756 0.0
C94 C 0.1264 0.7807 0.62616 0.0
H95 H 0.0958 0.65744 0.61972 0.0
O96 O 0.97522 0.70645 0.54918 0.0
O97 O 1.00012 0.75528 0.59441 0.0
O98 O 0.93613 0.66471 0.61492 0.0
O99 O 0.01006 0.67718 0.64722 0.0
C100 C 0.20744 0.82836 0.61598 0.0
C101 C 0.18096 0.87357 0.62268 0.0
H102 H 0.11679 0.95261 0.63678 0.0
H103 H 0.02198 0.94367 0.6515 0.0
H104 H 0.19045 0.65438 0.60514 0.0
H105 H 0.24464 0.73379 0.60326 0.0
H106 H 0.24877 0.83012 0.60916 0.0
H107 H 0.20236 0.90946 0.62099 0.0
Mn108 Mn 0.74665 0.06498 0.41245 0.0
Mn109 Mn 0.69618 0.18117 0.41246 0.0
C110 C 0.79047 0.12935 0.44389 0.0
C111 C 0.74653 0.98506 0.43972 0.0
C112 C 0.75582 0.13788 0.34878 0.0
O113 O 0.67251 0.05268 0.39366 0.0
O114 O 0.63976 0.1298 0.40196 0.0
C115 C 0.62952 0.1688 0.47754 0.0
N116 N 0.66872 0.19414 0.45955 0.0
C117 C 0.68245 0.25152 0.50939 0.0
C118 C 0.64203 0.22624 0.52839 0.0
C119 C 0.61561 0.18456 0.51244 0.0
C120 C 0.69514 0.23358 0.47496 0.0
H121 H 0.60915 0.13671 0.46539 0.0
C122 C 0.63449 0.08295 0.39357 0.0
O123 O 0.76271 0.99133 0.40661 0.0
O124 O 0.7298 0.02465 0.45617 0.0
N125 N 0.74516 0.23554 0.42231 0.0
C126 C 0.77949 0.25876 0.39898 0.0
C127 C 0.80743 0.30264 0.41003 0.0
C128 C 0.79903 0.32277 0.44465 0.0
C129 C 0.76198 0.29942 0.46763 0.0
C130 C 0.7349 0.25612 0.45496 0.0
H131 H 0.78553 0.24402 0.37212 0.0
O132 O 0.81395 0.08839 0.43479 0.0
O133 O 0.7412 0.13081 0.43462 0.0
O134 O 0.76916 0.09672 0.36404 0.0
O135 O 0.72607 0.17028 0.36355 0.0
C136 C 0.74997 0.31811 0.50225 0.0
C137 C 0.71032 0.29408 0.52316 0.0
H138 H 0.63094 0.23851 0.5552 0.0
H139 H 0.58448 0.16474 0.52696 0.0
H140 H 0.8353 0.32094 0.3919 0.0
H141 H 0.82075 0.35652 0.45312 0.0
H142 H 0.77057 0.35127 0.5129 0.0
H143 H 0.70095 0.30916 0.54953 0.0
Mn144 Mn 0.93858 0.2524 0.10344 0.0
Mn145 Mn 0.04756 0.25511 0.15511 0.0
C146 C 0.02101 0.25604 0.0772 0.0
C147 C 0.87656 0.20648 0.06944 0.0
C148 C 0.98237 0.3475 0.14178 0.0
O149 O 0.91003 0.2278 0.15199 0.0
O150 O 0.98509 0.23302 0.18432 0.0
C151 C 0.05174 0.14463 0.16792 0.0
N152 N 0.07515 0.18848 0.15606 0.0
C153 C 0.1531 0.14488 0.13908 0.0
C154 C 0.13014 0.09948 0.15171 0.0
C155 C 0.07917 0.09935 0.1661 0.0
C156 C 0.12413 0.18899 0.14203 0.0
H157 H 0.01227 0.14403 0.17842 0.0
C158 C 0.9357 0.22282 0.18142 0.0
O159 O 0.8667 0.25182 0.08077 0.0
O160 O 0.92012 0.18724 0.07992 0.0
N161 N 0.11086 0.27411 0.13002 0.0
C162 C 0.12509 0.31964 0.11528 0.0
C163 C 0.174 0.32555 0.09814 0.0
C164 C 0.20765 0.28448 0.09607 0.0
C165 C 0.19203 0.23781 0.1111 0.0
C166 C 0.14312 0.23438 0.12834 0.0
H167 H 0.09881 0.3508 0.1158 0.0
O168 O 0.98054 0.27175 0.05965 0.0
O169 O 0.01198 0.23935 0.10969 0.0
O170 O 0.94636 0.3248 0.12335 0.0
O171 O 0.02253 0.32543 0.15444 0.0
C172 C 0.22237 0.19419 0.10865 0.0
C173 C 0.20294 0.14777 0.12265 0.0
H174 H 0.15092 0.06436 0.14994 0.0
H175 H 0.0609 0.06435 0.17549 0.0
H176 H 0.18542 0.3615 0.08614 0.0
H177 H 0.24501 0.28897 0.08233 0.0
H178 H 0.26027 0.1957 0.0954 0.0
H179 H 0.22618 0.11427 0.11995 0.0
Mn180 Mn 0.26043 0.05897 0.91356 0.0
Mn181 Mn 0.25231 0.96926 0.84946 0.0
C182 C 0.26575 0.97479 0.92914 0.0
C183 C 0.21868 0.10793 0.9564 0.0
C184 C 0.35222 0.03021 0.86453 0.0
O185 O 0.22734 0.09642 0.87195 0.0
O186 O 0.22825 0.03536 0.82941 0.0
C187 C 0.13638 0.96526 0.84248 0.0
N188 N 0.18208 0.94163 0.84974 0.0
C189 C 0.13544 0.86343 0.86289 0.0
C190 C 0.08799 0.88687 0.8553 0.0
C191 C 0.08849 0.938 0.84504 0.0
C192 C 0.18206 0.89231 0.85939 0.0
H193 H 0.1363 0.00468 0.83496 0.0
C194 C 0.21806 0.08035 0.84004 0.0
O195 O 0.26446 0.12213 0.94393 0.0
O196 O 0.1971 0.0673 0.94303 0.0
N197 N 0.27251 0.90373 0.8657 0.0
C198 C 0.32105 0.88786 0.87519 0.0
C199 C 0.32706 0.83802 0.88726 0.0
C200 C 0.28307 0.80509 0.88975 0.0
C201 C 0.23343 0.82233 0.88013 0.0
C202 C 0.22994 0.87221 0.86777 0.0
H203 H 0.35474 0.91332 0.87432 0.0
O204 O 0.28629 0.00972 0.94979 0.0
O205 O 0.24379 0.99056 0.89956 0.0
O206 O 0.33227 0.05965 0.88801 0.0
O207 O 0.32603 0.99465 0.84868 0.0
C208 C 0.18711 0.79238 0.88329 0.0
C209 C 0.13816 0.8129 0.87466 0.0
H210 H 0.05091 0.86614 0.85765 0.0
H211 H 0.052 0.95647 0.83937 0.0
H212 H 0.36542 0.82521 0.89506 0.0
H213 H 0.28776 0.76689 0.89957 0.0
H214 H 0.18861 0.75373 0.89287 0.0
H215 H 0.10275 0.78973 0.87771 0.0
Mn216 Mn 0.05397 0.74088 0.09343 0.0
Mn217 Mn 0.95899 0.74321 0.15642 0.0
C218 C 0.96658 0.74568 0.07676 0.0
C219 C 0.10966 0.78477 0.05386 0.0
C220 C 0.01516 0.64765 0.13552 0.0
O221 O 0.09505 0.7609 0.13871 0.0
O222 O 0.02815 0.76309 0.17884 0.0
C223 C 0.96125 0.85377 0.16979 0.0
N224 N 0.93413 0.81068 0.16031 0.0
C225 C 0.85537 0.85703 0.15039 0.0
C226 C 0.88216 0.9016 0.16103 0.0
C227 C 0.9354 0.89997 0.17063 0.0
C228 C 0.88294 0.81188 0.15075 0.0
H229 H 0.00249 0.85306 0.17609 0.0
C230 C 0.07694 0.76864 0.17043 0.0
O231 O 0.11898 0.73823 0.06263 0.0
O232 O 0.07109 0.80611 0.06994 0.0
N233 N 0.89075 0.72641 0.13732 0.0
C234 C 0.87267 0.68172 0.12307 0.0
C235 C 0.82109 0.67771 0.10982 0.0
C236 C 0.78879 0.71985 0.11095 0.0
C237 C 0.80849 0.76573 0.12516 0.0
C238 C 0.86 0.76727 0.13847 0.0
H239 H 0.89775 0.64973 0.1211 0.0
O240 O 1.00048 0.72714 0.05463 0.0
O241 O 0.98488 0.7586 0.10826 0.0
O242 O 0.04601 0.66828 0.11231 0.0
O243 O 0.98091 0.67186 0.15336 0.0
C244 C 0.77958 0.8104 0.12551 0.0
C245 C 0.80298 0.856 0.13817 0.0
H246 H 0.86256 0.93746 0.16117 0.0
H247 H 0.95664 0.93437 0.17821 0.0
H248 H 0.8065 0.64239 0.09833 0.0
H249 H 0.74927 0.71682 0.10022 0.0
H250 H 0.73967 0.81033 0.11541 0.0
H251 H 0.78072 0.89032 0.13759 0.0
Mn252 Mn 0.74454 0.93463 0.90251 0.0
Mn253 Mn 0.7673 0.0301 0.84424 0.0
C254 C 0.75663 0.01638 0.92359 0.0
C255 C 0.77541 0.8727 0.94092 0.0
C256 C 0.65896 0.98467 0.85754 0.0
O257 O 0.76926 0.89782 0.85796 0.0
O258 O 0.77737 0.96339 0.81919 0.0
C259 C 0.88106 0.01464 0.83326 0.0
N260 N 0.84135 0.04475 0.84399 0.0
C261 C 0.90276 0.11177 0.86025 0.0
C262 C 0.94417 0.08155 0.84918 0.0
C263 C 0.93324 0.03279 0.83562 0.0
C264 C 0.85146 0.09191 0.85683 0.0
H265 H 0.87317 0.97698 0.82303 0.0
C266 C 0.78004 0.91607 0.82686 0.0
O267 O 0.72794 0.86919 0.92811 0.0
O268 O 0.80474 0.9106 0.93047 0.0
N269 N 0.76117 0.09598 0.86533 0.0
C270 C 0.71726 0.11929 0.87694 0.0
C271 C 0.72166 0.16774 0.89239 0.0
C272 C 0.77121 0.19177 0.89578 0.0
C273 C 0.8159 0.16716 0.88359 0.0
C274 C 0.80903 0.11903 0.86813 0.0
H275 H 0.6793 0.10076 0.87491 0.0
O276 O 0.7297 0.98329 0.94231 0.0
O277 O 0.77378 1.00075 0.89249 0.0
O278 O 0.67412 0.94925 0.8782 0.0
O279 O 0.68996 0.01848 0.84403 0.0
C280 C 0.86711 0.18807 0.88691 0.0
C281 C 0.91049 0.16043 0.8752 0.0
H282 H 0.98451 0.09523 0.85126 0.0
H283 H 0.96499 0.00913 0.82716 0.0
H284 H 0.68699 0.18633 0.90193 0.0
H285 H 0.77452 0.22893 0.90807 0.0
H286 H 0.87361 0.22515 0.89882 0.0
H287 H 0.94972 0.1767 0.87823 0.0
H288 H 0.05812 0.59156 0.64738 0.0
H289 H 0.88916 0.58168 0.64147 0.0
H290 H 0.8918 0.48968 0.64851 0.0
H291 H 0.94243 0.41206 0.65149 0.0
H292 H 0.11146 0.42157 0.64589 0.0
H293 H 0.10875 0.51403 0.64842 0.0
C294 C 0.02181 0.56955 0.64759 0.0
C295 C 0.9735 0.59372 0.64361 0.0
C296 C 0.02382 0.51653 0.64944 0.0
C297 C 0.92687 0.56414 0.64431 0.0
C298 C 0.9284 0.51152 0.64827 0.0
C299 C 0.97875 0.43417 0.65078 0.0
C300 C 0.02713 0.40975 0.64822 0.0
C301 C 0.97671 0.48725 0.65004 0.0
C302 C 0.07374 0.43933 0.64768 0.0
C303 C 0.07216 0.49219 0.64906 0.0
H304 H 0.60322 0.98422 0.38325 0.0
H305 H 0.54479 0.13614 0.38542 0.0
H306 H 0.45549 0.103 0.37763 0.0
H307 H 0.3934 0.03125 0.3756 0.0
H308 H 0.45065 0.87891 0.37589 0.0
H309 H 0.54092 0.91215 0.37661 0.0
C310 C 0.57108 0.01019 0.38161 0.0
C311 C 0.58094 0.06265 0.3853 0.0
C312 C 0.51947 0.99087 0.3776 0.0
C313 C 0.53859 0.09559 0.383 0.0
C314 C 0.48736 0.07669 0.37852 0.0
C315 C 0.42547 0.00511 0.37525 0.0
C316 C 0.41493 0.95255 0.37599 0.0
C317 C 0.47726 0.02439 0.37657 0.0
C318 C 0.45735 0.91954 0.37544 0.0
C319 C 0.5091 0.93851 0.37604 0.0
H320 H 0.06366 0.41582 0.14637 0.0
H321 H 0.89456 0.40415 0.14708 0.0
H322 H 0.89004 0.49651 0.14935 0.0
H323 H 0.93428 0.58029 0.14699 0.0
H324 H 0.10268 0.59102 0.13623 0.0
H325 H 0.10762 0.49906 0.14193 0.0
C326 C 0.02579 0.43329 0.14701 0.0
C327 C 0.97951 0.40304 0.14634 0.0
C328 C 0.02351 0.48627 0.14629 0.0
C329 C 0.93076 0.42658 0.14739 0.0
C330 C 0.92818 0.47935 0.14864 0.0
C331 C 0.97204 0.56258 0.14595 0.0
C332 C 0.01806 0.59241 0.14109 0.0
C333 C 0.9743 0.50957 0.14741 0.0
C334 C 0.06672 0.56879 0.13977 0.0
C335 C 0.06953 0.51628 0.14305 0.0
H336 H 0.41471 0.95727 0.83753 0.0
H337 H 0.41986 0.11053 0.87798 0.0
H338 H 0.51578 0.1117 0.87516 0.0
H339 H 0.59796 0.06627 0.8669 0.0
H340 H 0.59216 0.9097 0.83448 0.0
H341 H 0.49647 0.91236 0.82877 0.0
C342 C 0.43658 0.99112 0.84559 0.0
C343 C 0.40984 0.03363 0.85828 0.0
C344 C 0.49168 0.99065 0.84561 0.0
C345 C 0.43926 0.07718 0.8683 0.0
C346 C 0.49416 0.07782 0.86679 0.0
C347 C 0.57588 0.03308 0.85796 0.0
C348 C 0.60203 0.988 0.85071 0.0
C349 C 0.52079 0.03436 0.85633 0.0
C350 C 0.57274 0.94482 0.84004 0.0
C351 C 0.51813 0.94637 0.83683 0.0
H352 H 0.27367 0.0584 0.50089 0.0
H353 H 0.20893 0.12124 0.40338 0.0
H354 H 0.17612 0.19266 0.43774 0.0
H355 H 0.15289 0.22898 0.49688 0.0
H356 H 0.21251 0.16281 0.59445 0.0
H357 H 0.26092 0.10135 0.55887 0.0
C358 C 0.25345 0.0883 0.48699 0.0
C359 C 0.24303 0.08407 0.44973 0.0
C360 C 0.23346 0.12852 0.50708 0.0
C361 C 0.21708 0.12332 0.4321 0.0
C362 C 0.19808 0.1641 0.45177 0.0
C363 C 0.17813 0.2022 0.51008 0.0
C364 C 0.18009 0.20047 0.54796 0.0
C365 C 0.20417 0.16597 0.48946 0.0
C366 C 0.21146 0.16503 0.56519 0.0
C367 C 0.23862 0.12969 0.54488 0.0
H368 H 0.10712 0.86239 0.43483 0.0
H369 H 0.24861 0.84891 0.49714 0.0
H370 H 0.20274 0.79251 0.53989 0.0
H371 H 0.12059 0.7478 0.55902 0.0
H372 H 0.97636 0.7797 0.50427 0.0
H373 H 0.02457 0.82648 0.45816 0.0
C374 C 0.12786 0.84665 0.45768 0.0
C375 C 0.1818 0.85656 0.46167 0.0
C376 C 0.1003 0.81799 0.48357 0.0
C377 C 0.20785 0.83849 0.49227 0.0
C378 C 0.18131 0.8073 0.51713 0.0
C379 C 0.09944 0.76747 0.53868 0.0
C380 C 0.04465 0.76234 0.53683 0.0
C381 C 0.12729 0.79705 0.51318 0.0
C382 C 0.0185 0.78386 0.5072 0.0
C383 C 0.046 0.81067 0.48063 0.0
H384 H 0.79919 0.90046 0.41985 0.0
H385 H 0.70455 0.96178 0.50521 0.0
H386 H 0.7255 0.89112 0.54428 0.0
H387 H 0.78285 0.82034 0.55788 0.0
H388 H 0.88077 0.76089 0.47416 0.0
H389 H 0.84581 0.82115 0.43066 0.0
C390 C 0.78217 0.89764 0.44666 0.0
C391 C 0.75116 0.93685 0.45976 0.0
C392 C 0.79515 0.8571 0.46942 0.0
C393 C 0.72922 0.93255 0.49457 0.0
C394 C 0.74117 0.89209 0.51704 0.0
C395 C 0.79455 0.81922 0.52968 0.0
C396 C 0.83334 0.78586 0.51887 0.0
C397 C 0.77573 0.85525 0.50529 0.0
C398 C 0.8499 0.78564 0.48268 0.0
C399 C 0.83048 0.82057 0.45799 0.0
H400 H 0.84697 0.21811 0.44393 0.0
H401 H 0.79107 0.09711 0.5124 0.0
H402 H 0.84945 0.12718 0.56081 0.0
H403 H 0.92503 0.18237 0.5791 0.0
H404 H 0.9594 0.31788 0.51817 0.0
H405 H 0.8995 0.28883 0.47069 0.0
C406 C 0.84358 0.20117 0.47037 0.0
C407 C 0.8125 0.15721 0.47509 0.0
C408 C 0.87374 0.22106 0.49909 0.0
C409 C 0.81334 0.13221 0.5086 0.0
C410 C 0.84684 0.14921 0.53623 0.0
C411 C 0.91593 0.20787 0.55732 0.0
C412 C 0.94537 0.25311 0.55315 0.0
C413 C 0.87802 0.19317 0.53148 0.0
C414 C 0.93673 0.28313 0.5224 0.0
C415 C 0.90245 0.2666 0.49517 0.0
H416 H 0.71482 0.08544 0.96969 0.0
H417 H 0.86045 0.03652 0.92382 0.0
H418 H 0.90978 0.09389 0.96343 0.0
H419 H 0.91233 0.15112 0.01496 0.0
H420 H 0.76875 0.20263 0.06205 0.0
H421 H 0.71752 0.15112 0.01832 0.0
C422 C 0.75727 0.08838 0.96801 0.0
C423 C 0.78399 0.05783 0.94327 0.0
C424 C 0.78564 0.12106 0.99152 0.0
C425 C 0.839 0.06093 0.94175 0.0
C426 C 0.86728 0.0932 0.96476 0.0
C427 C 0.86975 0.15121 0.0156 0.0
C428 C 0.84416 0.17956 0.04206 0.0
C429 C 0.8411 0.12235 0.99031 0.0
C430 C 0.78914 0.18056 0.04206 0.0
C431 C 0.76 0.15112 0.01712 0.0
H432 H 0.1978 0.20844 0.96405 0.0
H433 H 0.17935 0.06252 0.01518 0.0
H434 H 0.11996 0.09739 0.05973 0.0
H435 H 0.06413 0.16549 0.0786 0.0
H436 H 0.07786 0.31156 0.02776 0.0
H437 H 0.14747 0.28069 0.98805 0.0
C438 C 0.18175 0.18494 0.9856 0.0
C439 C 0.19255 0.13314 0.98652 0.0
C440 C 0.14609 0.20499 0.01058 0.0
C441 C 0.17117 0.10252 0.01407 0.0
C442 C 0.13705 0.12229 0.03937 0.0
C443 C 0.08374 0.19104 0.0597 0.0
C444 C 0.06743 0.24098 0.05671 0.0
C445 C 0.12289 0.17291 0.03709 0.0
C446 C 0.09084 0.27312 0.03083 0.0
C447 C 0.13047 0.25546 0.0082 0.0
H448 H 0.21477 0.79954 0.03908 0.0
H449 H 0.05919 0.82854 0.99959 0.0
H450 H 0.09532 0.88372 0.95261 0.0
H451 H 0.16877 0.93431 0.92967 0.0
H452 H 0.3248 0.91147 0.96989 0.0
H453 H 0.29135 0.84371 0.00983 0.0
C454 C 0.18921 0.8172 0.01963 0.0
C455 C 0.13452 0.81064 0.02285 0.0
C456 C 0.21027 0.85047 0.99321 0.0
C457 C 0.10145 0.83375 0.99775 0.0
C458 C 0.12199 0.8653 0.97094 0.0
C459 C 0.19578 0.91292 0.94596 0.0
C460 C 0.24922 0.92668 0.94623 0.0
C461 C 0.17606 0.87541 0.96931 0.0
C462 C 0.28353 0.90064 0.96889 0.0
C463 C 0.26433 0.86222 0.99183 0.0
H464 H 0.8222 0.90023 1.00216 0.0
H465 H 0.77433 0.76873 0.94053 0.0
H466 H 0.82502 0.71469 0.98116 0.0
H467 H 0.89343 0.70801 0.02911 0.0
H468 H 0.94225 0.84251 0.08745 0.0
H469 H 0.87971 0.8921 0.05414 0.0
C470 C 0.82205 0.85953 0.99816 0.0
C471 C 0.79545 0.83823 0.96846 0.0
C472 C 0.8514 0.82937 0.02116 0.0
C473 C 0.79475 0.78563 0.96342 0.0
C474 C 0.82397 0.75496 0.98645 0.0
C475 C 0.88909 0.74787 0.035 0.0
C476 C 0.92122 0.77136 0.06137 0.0
C477 C 0.85401 0.77675 0.01467 0.0
C478 C 0.91647 0.82323 0.06832 0.0
C479 C 0.88128 0.85182 0.04887 0.0
H480 H 0.07176 0.22647 0.75182 0.0
H481 H 0.16285 0.16757 0.66368 0.0
H482 H 0.21259 0.11679 0.70559 0.0
H483 H 0.22942 0.08675 0.76712 0.0
H484 H 0.1441 0.14937 0.85641 0.0
H485 H 0.0935 0.20078 0.8146 0.0
C486 C 0.10271 0.20276 0.74193 0.0
C487 C 0.11346 0.20106 0.70462 0.0
C488 C 0.13236 0.17409 0.76643 0.0
C489 C 0.15395 0.17019 0.69226 0.0
C490 C 0.18239 0.14079 0.7162 0.0
C491 C 0.19995 0.11189 0.77739 0.0
C492 C 0.19048 0.11413 0.81474 0.0
C493 C 0.17183 0.14217 0.7533 0.0
C494 C 0.15244 0.14722 0.82773 0.0
C495 C 0.12328 0.17647 0.80382 0.0
H496 H 0.0577 0.83547 0.22405 0.0
H497 H 0.17905 0.74258 0.18069 0.0
H498 H 0.23884 0.77106 0.22906 0.0
H499 H 0.25516 0.82063 0.28509 0.0
H500 H 0.13533 0.91928 0.32401 0.0
H501 H 0.07683 0.89125 0.2754 0.0
C502 C 0.0973 0.8217 0.22494 0.0
C503 C 0.11376 0.78666 0.19897 0.0
C504 C 0.13187 0.83962 0.2519 0.0
C505 C 0.16544 0.76951 0.20044 0.0
C506 C 0.19959 0.78579 0.22807 0.0
C507 C 0.2165 0.83643 0.28258 0.0
C508 C 0.19967 0.87196 0.30821 0.0
C509 C 0.18312 0.82068 0.2541 0.0
C510 C 0.14954 0.89229 0.30451 0.0
C511 C 0.11581 0.87595 0.27688 0.0
H512 H 0.91278 0.76545 0.7335 0.0
H513 H 0.83669 0.84321 0.64635 0.0
H514 H 0.78845 0.89381 0.68985 0.0
H515 H 0.77111 0.91914 0.75306 0.0
H516 H 0.84191 0.83625 0.84 0.0
H517 H 0.88839 0.78454 0.79648 0.0
C518 C 0.88522 0.79314 0.72412 0.0
C519 C 0.87849 0.80068 0.68679 0.0
C520 C 0.85665 0.82137 0.74931 0.0
C521 C 0.84233 0.83642 0.67496 0.0
C522 C 0.81492 0.86559 0.69983 0.0
C523 C 0.79629 0.88939 0.76239 0.0
C524 C 0.80306 0.88171 0.79973 0.0
C525 C 0.82219 0.85886 0.73711 0.0
C526 C 0.8356 0.84275 0.81142 0.0
C527 C 0.86251 0.81329 0.78654 0.0
H528 H 0.85596 0.12436 0.32786 0.0
H529 H 0.7095 0.18437 0.29159 0.0
H530 H 0.75134 0.21397 0.23551 0.0
H531 H 0.831 0.226 0.19793 0.0
H532 H 0.97886 0.173 0.23805 0.0
H533 H 0.93529 0.13773 0.29124 0.0
C534 C 0.83308 0.14319 0.30737 0.0
C535 C 0.77961 0.15149 0.31351 0.0
C536 C 0.85787 0.1619 0.27598 0.0
C537 C 0.75068 0.17722 0.28726 0.0
C538 C 0.77463 0.19429 0.25529 0.0
C539 C 0.85358 0.20655 0.21826 0.0
C540 C 0.90815 0.20206 0.21379 0.0
C541 C 0.82843 0.1874 0.24952 0.0
C542 C 0.93689 0.17721 0.24067 0.0
C543 C 0.91198 0.15683 0.27116 0.0
loop_
_geom_bond_atom_site_label_1
_geom_bond_atom_site_label_2
_geom_bond_distance
_geom_bond_site_symmetry_2
_ccdc_geom_bond_type
Mn0 O5 2.095 . S
Mn0 O15 2.162 . S
Mn0 O16 2.297 . S
Mn0 O24 2.385 . S
Mn0 O25 2.209 . S
Mn0 O26 2.094 . S
Mn1 O6 2.121 1_655 S
Mn1 N8 2.257 . S
Mn1 N17 2.282 . S
Mn1 O25 2.215 1_655 S
Mn1 O27 2.117 1_655 S
C2 O24 1.234 . S
C2 O25 1.283 . S
C3 O15 1.281 . S
C3 O16 1.236 . S
C4 O26 1.240 . S
C4 O27 1.264 . S
O5 Mn0 2.095 . S
O5 C14 1.250 . S
O6 Mn1 2.121 1_455 S
O6 C14 1.258 . S
C7 N8 1.326 . S
C7 C11 1.460 . S
C7 H13 0.929 . S
N8 Mn1 2.257 . S
N8 C7 1.326 . S
N8 C12 1.362 . S
C9 C10 1.258 . S
C9 C12 1.431 . S
C9 C29 1.449 . S
C10 C9 1.258 . S
C10 C11 1.477 . S
C10 H30 0.931 . S
C11 C7 1.460 . S
C11 C10 1.477 . S
C11 H31 0.930 . S
C12 N8 1.362 . S
C12 C9 1.431 . S
C12 C22 1.476 . S
H13 C7 0.929 . S
C14 O5 1.250 . S
C14 O6 1.258 . S
O15 Mn0 2.162 . S
O15 C3 1.281 . S
O16 Mn0 2.297 . S
O16 C3 1.236 . S
N17 Mn1 2.282 . S
N17 C18 1.328 . S
N17 C22 1.318 . S
C18 N17 1.328 . S
C18 C19 1.457 . S
C18 H23 0.929 . S
C19 C18 1.457 . S
C19 C20 1.291 . S
C19 H32 0.931 . S
C20 C19 1.291 . S
C20 C21 1.373 . S
C20 H33 0.929 . S
C21 C20 1.373 . S
C21 C22 1.396 . S
C21 C28 1.403 . S
C22 C12 1.476 . S
C22 N17 1.318 . S
C22 C21 1.396 . S
H23 C18 0.929 . S
O24 Mn0 2.385 . S
O24 C2 1.234 . S
O25 Mn0 2.209 . S
O25 Mn1 2.215 1_455 S
O25 C2 1.283 . S
O26 Mn0 2.094 . S
O26 C4 1.240 . S
O27 Mn1 2.117 1_455 S
O27 C4 1.264 . S
C28 C21 1.403 . S
C28 C29 1.399 . S
C28 H34 0.929 . S
C29 C9 1.449 . S
C29 C28 1.399 . S
C29 H35 0.930 . S
H30 C10 0.931 . S
H31 C11 0.930 . S
H32 C19 0.931 . S
H33 C20 0.929 . S
H34 C28 0.929 . S
H35 C29 0.930 . S
Mn36 O41 2.095 . S
Mn36 O51 2.162 . S
Mn36 O52 2.297 . S
Mn36 O60 2.385 . S
Mn36 O61 2.209 . S
Mn36 O62 2.094 . S
Mn37 O42 2.121 . S
Mn37 N44 2.257 . S
Mn37 N53 2.282 . S
Mn37 O61 2.215 . S
Mn37 O63 2.117 . S
C38 O60 1.234 . S
C38 O61 1.283 . S
C39 O51 1.281 . S
C39 O52 1.236 . S
C40 O62 1.240 . S
C40 O63 1.264 . S
O41 Mn36 2.095 . S
O41 C50 1.250 . S
O42 Mn37 2.121 . S
O42 C50 1.258 . S
C43 N44 1.326 . S
C43 C47 1.460 . S
C43 H49 0.929 . S
N44 Mn37 2.257 . S
N44 C43 1.326 . S
N44 C48 1.362 . S
C45 C46 1.258 . S
C45 C48 1.431 . S
C45 C65 1.449 . S
C46 C45 1.258 . S
C46 C47 1.477 . S
C46 H66 0.931 . S
C47 C43 1.460 . S
C47 C46 1.477 . S
C47 H67 0.930 . S
C48 N44 1.362 . S
C48 C45 1.431 . S
C48 C58 1.476 . S
H49 C43 0.929 . S
C50 O41 1.250 . S
C50 O42 1.258 . S
O51 Mn36 2.162 . S
O51 C39 1.281 . S
O52 Mn36 2.297 . S
O52 C39 1.236 . S
N53 Mn37 2.282 . S
N53 C54 1.328 . S
N53 C58 1.318 . S
C54 N53 1.328 . S
C54 C55 1.457 . S
C54 H59 0.929 . S
C55 C54 1.457 . S
C55 C56 1.291 . S
C55 H68 0.931 . S
C56 C55 1.291 . S
C56 C57 1.373 . S
C56 H69 0.929 . S
C57 C56 1.373 . S
C57 C58 1.396 . S
C57 C64 1.403 . S
C58 C48 1.476 . S
C58 N53 1.318 . S
C58 C57 1.396 . S
H59 C54 0.929 . S
O60 Mn36 2.385 . S
O60 C38 1.234 . S
O61 Mn36 2.209 . S
O61 Mn37 2.215 . S
O61 C38 1.283 . S
O62 Mn36 2.094 . S
O62 C40 1.240 . S
O63 Mn37 2.117 . S
O63 C40 1.264 . S
C64 C57 1.403 . S
C64 C65 1.399 . S
C64 H70 0.929 . S
C65 C45 1.449 . S
C65 C64 1.399 . S
C65 H71 0.930 . S
H66 C46 0.931 . S
H67 C47 0.930 . S
H68 C55 0.931 . S
H69 C56 0.929 . S
H70 C64 0.929 . S
H71 C65 0.930 . S
Mn72 O77 2.095 . S
Mn72 O87 2.162 . S
Mn72 O88 2.297 . S
Mn72 O96 2.385 . S
Mn72 O97 2.209 . S
Mn72 O98 2.094 . S
Mn73 O78 2.121 1_455 S
Mn73 N80 2.257 . S
Mn73 N89 2.282 . S
Mn73 O97 2.215 1_455 S
Mn73 O99 2.117 1_455 S
C74 O96 1.234 . S
C74 O97 1.283 . S
C75 O87 1.281 . S
C75 O88 1.236 . S
C76 O98 1.240 . S
C76 O99 1.264 . S
O77 Mn72 2.095 . S
O77 C86 1.250 . S
O78 Mn73 2.121 1_655 S
O78 C86 1.258 . S
C79 N80 1.326 . S
C79 C83 1.460 . S
C79 H85 0.929 . S
N80 Mn73 2.257 . S
N80 C79 1.326 . S
N80 C84 1.362 . S
C81 C82 1.258 . S
C81 C84 1.431 . S
C81 C101 1.449 . S
C82 C81 1.258 . S
C82 C83 1.477 . S
C82 H102 0.931 . S
C83 C79 1.460 . S
C83 C82 1.477 . S
C83 H103 0.930 . S
C84 N80 1.362 . S
C84 C81 1.431 . S
C84 C94 1.476 . S
H85 C79 0.929 . S
C86 O77 1.250 . S
C86 O78 1.258 . S
O87 Mn72 2.162 . S
O87 C75 1.281 . S
O88 Mn72 2.297 . S
O88 C75 1.236 . S
N89 Mn73 2.282 . S
N89 C90 1.328 . S
N89 C94 1.318 . S
C90 N89 1.328 . S
C90 C91 1.457 . S
C90 H95 0.929 . S
C91 C90 1.457 . S
C91 C92 1.291 . S
C91 H104 0.931 . S
C92 C91 1.291 . S
C92 C93 1.373 . S
C92 H105 0.929 . S
C93 C92 1.373 . S
C93 C94 1.396 . S
C93 C100 1.403 . S
C94 C84 1.476 . S
C94 N89 1.318 . S
C94 C93 1.396 . S
H95 C90 0.929 . S
O96 Mn72 2.385 . S
O96 C74 1.234 . S
O97 Mn72 2.209 . S
O97 Mn73 2.215 1_655 S
O97 C74 1.283 . S
O98 Mn72 2.094 . S
O98 C76 1.240 . S
O99 Mn73 2.117 1_655 S
O99 C76 1.264 . S
C100 C93 1.403 . S
C100 C101 1.399 . S
C100 H106 0.929 . S
C101 C81 1.449 . S
C101 C100 1.399 . S
C101 H107 0.930 . S
H102 C82 0.931 . S
H103 C83 0.930 . S
H104 C91 0.931 . S
H105 C92 0.929 . S
H106 C100 0.929 . S
H107 C101 0.930 . S
Mn108 O113 2.095 . S
Mn108 O123 2.162 . S
Mn108 O124 2.297 . S
Mn108 O132 2.385 . S
Mn108 O133 2.209 . S
Mn108 O134 2.094 . S
Mn109 O114 2.121 . S
Mn109 N116 2.257 . S
Mn109 N125 2.282 . S
Mn109 O133 2.215 . S
Mn109 O135 2.117 . S
C110 O132 1.234 . S
C110 O133 1.283 . S
C111 O123 1.281 . S
C111 O124 1.236 . S
C112 O134 1.240 . S
C112 O135 1.264 . S
O113 Mn108 2.095 . S
O113 C122 1.250 . S
O114 Mn109 2.121 . S
O114 C122 1.258 . S
C115 N116 1.326 . S
C115 C119 1.460 . S
C115 H121 0.929 . S
N116 Mn109 2.257 . S
N116 C115 1.326 . S
N116 C120 1.362 . S
C117 C118 1.258 . S
C117 C120 1.431 . S
C117 C137 1.449 . S
C118 C117 1.258 . S
C118 C119 1.477 . S
C118 H138 0.931 . S
C119 C115 1.460 . S
C119 C118 1.477 . S
C119 H139 0.930 . S
C120 N116 1.362 . S
C120 C117 1.431 . S
C120 C130 1.476 . S
H121 C115 0.929 . S
C122 O113 1.250 . S
C122 O114 1.258 . S
O123 Mn108 2.162 . S
O123 C111 1.281 . S
O124 Mn108 2.297 . S
O124 C111 1.236 . S
N125 Mn109 2.282 . S
N125 C126 1.328 . S
N125 C130 1.318 . S
C126 N125 1.328 . S
C126 C127 1.457 . S
C126 H131 0.929 . S
C127 C126 1.457 . S
C127 C128 1.291 . S
C127 H140 0.931 . S
C128 C127 1.291 . S
C128 C129 1.373 . S
C128 H141 0.929 . S
C129 C128 1.373 . S
C129 C130 1.396 . S
C129 C136 1.403 . S
C130 C120 1.476 . S
C130 N125 1.318 . S
C130 C129 1.396 . S
H131 C126 0.929 . S
O132 Mn108 2.385 . S
O132 C110 1.234 . S
O133 Mn108 2.209 . S
O133 Mn109 2.215 . S
O133 C110 1.283 . S
O134 Mn108 2.094 . S
O134 C112 1.240 . S
O135 Mn109 2.117 . S
O135 C112 1.264 . S
C136 C129 1.403 . S
C136 C137 1.399 . S
C136 H142 0.929 . S
C137 C117 1.449 . S
C137 C136 1.399 . S
C137 H143 0.930 . S
H138 C118 0.931 . S
H139 C119 0.930 . S
H140 C127 0.931 . S
H141 C128 0.929 . S
H142 C136 0.929 . S
H143 C137 0.930 . S
Mn144 O149 2.095 . S
Mn144 O159 2.162 . S
Mn144 O160 2.297 . S
Mn144 O168 2.385 . S
Mn144 O169 2.209 . S
Mn144 O170 2.094 . S
Mn145 O150 2.121 . S
Mn145 N152 2.257 1_655 S
Mn145 N161 2.282 1_655 S
Mn145 O169 2.215 . S
Mn145 O171 2.117 . S
C146 O168 1.234 . S
C146 O169 1.283 . S
C147 O159 1.281 . S
C147 O160 1.236 . S
C148 O170 1.240 . S
C148 O171 1.264 . S
O149 Mn144 2.095 . S
O149 C158 1.250 . S
O150 Mn145 2.121 . S
O150 C158 1.258 . S
C151 N152 1.326 . S
C151 C155 1.460 . S
C151 H157 0.929 . S
N152 Mn145 2.257 1_455 S
N152 C151 1.326 . S
N152 C156 1.362 . S
C153 C154 1.258 . S
C153 C156 1.431 . S
C153 C173 1.449 . S
C154 C153 1.258 . S
C154 C155 1.477 . S
C154 H174 0.931 . S
C155 C151 1.460 . S
C155 C154 1.477 . S
C155 H175 0.930 . S
C156 N152 1.362 . S
C156 C153 1.431 . S
C156 C166 1.476 . S
H157 C151 0.929 . S
C158 O149 1.250 . S
C158 O150 1.258 . S
O159 Mn144 2.162 . S
O159 C147 1.281 . S
O160 Mn144 2.297 . S
O160 C147 1.236 . S
N161 Mn145 2.282 1_455 S
N161 C162 1.328 . S
N161 C166 1.318 . S
C162 N161 1.328 . S
C162 C163 1.457 . S
C162 H167 0.929 . S
C163 C162 1.457 . S
C163 C164 1.291 . S
C163 H176 0.931 . S
C164 C163 1.291 . S
C164 C165 1.373 . S
C164 H177 0.929 . S
C165 C164 1.373 . S
C165 C166 1.396 . S
C165 C172 1.403 . S
C166 C156 1.476 . S
C166 N161 1.318 . S
C166 C165 1.396 . S
H167 C162 0.929 . S
O168 Mn144 2.385 . S
O168 C146 1.234 . S
O169 Mn144 2.209 . S
O169 Mn145 2.215 . S
O169 C146 1.283 . S
O170 Mn144 2.094 . S
O170 C148 1.240 . S
O171 Mn145 2.117 . S
O171 C148 1.264 . S
C172 C165 1.403 . S
C172 C173 1.399 . S
C172 H178 0.929 . S
C173 C153 1.449 . S
C173 C172 1.399 . S
C173 H179 0.930 . S
H174 C154 0.931 . S
H175 C155 0.930 . S
H176 C163 0.931 . S
H177 C164 0.929 . S
H178 C172 0.929 . S
H179 C173 0.930 . S
Mn180 O185 2.095 . S
Mn180 O195 2.162 . S
Mn180 O196 2.297 . S
Mn180 O204 2.385 . S
Mn180 O205 2.209 . S
Mn180 O206 2.094 . S
Mn181 O186 2.121 . S
Mn181 N188 2.257 1_545 S
Mn181 N197 2.282 1_545 S
Mn181 O205 2.215 . S
Mn181 O207 2.117 . S
C182 O204 1.234 . S
C182 O205 1.283 . S
C183 O195 1.281 . S
C183 O196 1.236 . S
C184 O206 1.240 . S
C184 O207 1.264 . S
O185 Mn180 2.095 . S
O185 C194 1.250 . S
O186 Mn181 2.121 . S
O186 C194 1.258 . S
C187 N188 1.326 . S
C187 C191 1.460 . S
C187 H193 0.929 . S
N188 Mn181 2.257 1_565 S
N188 C187 1.326 . S
N188 C192 1.362 . S
C189 C190 1.258 . S
C189 C192 1.431 . S
C189 C209 1.449 . S
C190 C189 1.258 . S
C190 C191 1.477 . S
C190 H210 0.931 . S
C191 C187 1.460 . S
C191 C190 1.477 . S
C191 H211 0.930 . S
C192 N188 1.362 . S
C192 C189 1.431 . S
C192 C202 1.476 . S
H193 C187 0.929 . S
C194 O185 1.250 . S
C194 O186 1.258 . S
O195 Mn180 2.162 . S
O195 C183 1.281 . S
O196 Mn180 2.297 . S
O196 C183 1.236 . S
N197 Mn181 2.282 1_565 S
N197 C198 1.328 . S
N197 C202 1.318 . S
C198 N197 1.328 . S
C198 C199 1.457 . S
C198 H203 0.929 . S
C199 C198 1.457 . S
C199 C200 1.291 . S
C199 H212 0.931 . S
C200 C199 1.291 . S
C200 C201 1.373 . S
C200 H213 0.929 . S
C201 C200 1.373 . S
C201 C202 1.396 . S
C201 C208 1.403 . S
C202 C192 1.476 . S
C202 N197 1.318 . S
C202 C201 1.396 . S
H203 C198 0.929 . S
O204 Mn180 2.385 . S
O204 C182 1.234 . S
O205 Mn180 2.209 . S
O205 Mn181 2.215 . S
O205 C182 1.283 . S
O206 Mn180 2.094 . S
O206 C184 1.240 . S
O207 Mn181 2.117 . S
O207 C184 1.264 . S
C208 C201 1.403 . S
C208 C209 1.399 . S
C208 H214 0.929 . S
C209 C189 1.449 . S
C209 C208 1.399 . S
C209 H215 0.930 . S
H210 C190 0.931 . S
H211 C191 0.930 . S
H212 C199 0.931 . S
H213 C200 0.929 . S
H214 C208 0.929 . S
H215 C209 0.930 . S
Mn216 O221 2.095 . S
Mn216 O231 2.162 . S
Mn216 O232 2.297 . S
Mn216 O240 2.385 . S
Mn216 O241 2.209 . S
Mn216 O242 2.094 . S
Mn217 O222 2.121 . S
Mn217 N224 2.257 1_455 S
Mn217 N233 2.282 1_455 S
Mn217 O241 2.215 . S
Mn217 O243 2.117 . S
C218 O240 1.234 . S
C218 O241 1.283 . S
C219 O231 1.281 . S
C219 O232 1.236 . S
C220 O242 1.240 . S
C220 O243 1.264 . S
O221 Mn216 2.095 . S
O221 C230 1.250 . S
O222 Mn217 2.121 . S
O222 C230 1.258 . S
C223 N224 1.326 . S
C223 C227 1.460 . S
C223 H229 0.929 . S
N224 Mn217 2.257 1_655 S
N224 C223 1.326 . S
N224 C228 1.362 . S
C225 C226 1.258 . S
C225 C228 1.431 . S
C225 C245 1.449 . S
C226 C225 1.258 . S
C226 C227 1.477 . S
C226 H246 0.931 . S
C227 C223 1.460 . S
C227 C226 1.477 . S
C227 H247 0.930 . S
C228 N224 1.362 . S
C228 C225 1.431 . S
C228 C238 1.476 . S
H229 C223 0.929 . S
C230 O221 1.250 . S
C230 O222 1.258 . S
O231 Mn216 2.162 . S
O231 C219 1.281 . S
O232 Mn216 2.297 . S
O232 C219 1.236 . S
N233 Mn217 2.282 1_655 S
N233 C234 1.328 . S
N233 C238 1.318 . S
C234 N233 1.328 . S
C234 C235 1.457 . S
C234 H239 0.929 . S
C235 C234 1.457 . S
C235 C236 1.291 . S
C235 H248 0.931 . S
C236 C235 1.291 . S
C236 C237 1.373 . S
C236 H249 0.929 . S
C237 C236 1.373 . S
C237 C238 1.396 . S
C237 C244 1.403 . S
C238 C228 1.476 . S
C238 N233 1.318 . S
C238 C237 1.396 . S
H239 C234 0.929 . S
O240 Mn216 2.385 . S
O240 C218 1.234 . S
O241 Mn216 2.209 . S
O241 Mn217 2.215 . S
O241 C218 1.283 . S
O242 Mn216 2.094 . S
O242 C220 1.240 . S
O243 Mn217 2.117 . S
O243 C220 1.264 . S
C244 C237 1.403 . S
C244 C245 1.399 . S
C244 H250 0.929 . S
C245 C225 1.449 . S
C245 C244 1.399 . S
C245 H251 0.930 . S
H246 C226 0.931 . S
H247 C227 0.930 . S
H248 C235 0.931 . S
H249 C236 0.929 . S
H250 C244 0.929 . S
H251 C245 0.930 . S
Mn252 O257 2.095 . S
Mn252 O267 2.162 . S
Mn252 O268 2.297 . S
Mn252 O276 2.385 . S
Mn252 O277 2.209 . S
Mn252 O278 2.094 . S
Mn253 O258 2.121 . S
Mn253 N260 2.257 1_565 S
Mn253 N269 2.282 1_565 S
Mn253 O277 2.215 . S
Mn253 O279 2.117 . S
C254 O276 1.234 . S
C254 O277 1.283 . S
C255 O267 1.281 . S
C255 O268 1.236 . S
C256 O278 1.240 . S
C256 O279 1.264 . S
O257 Mn252 2.095 . S
O257 C266 1.250 . S
O258 Mn253 2.121 . S
O258 C266 1.258 . S
C259 N260 1.326 . S
C259 C263 1.460 . S
C259 H265 0.929 . S
N260 Mn253 2.257 1_545 S
N260 C259 1.326 . S
N260 C264 1.362 . S
C261 C262 1.258 . S
C261 C264 1.431 . S
C261 C281 1.449 . S
C262 C261 1.258 . S
C262 C263 1.477 . S
C262 H282 0.931 . S
C263 C259 1.460 . S
C263 C262 1.477 . S
C263 H283 0.930 . S
C264 N260 1.362 . S
C264 C261 1.431 . S
C264 C274 1.476 . S
H265 C259 0.929 . S
C266 O257 1.250 . S
C266 O258 1.258 . S
O267 Mn252 2.162 . S
O267 C255 1.281 . S
O268 Mn252 2.297 . S
O268 C255 1.236 . S
N269 Mn253 2.282 1_545 S
N269 C270 1.328 . S
N269 C274 1.318 . S
C270 N269 1.328 . S
C270 C271 1.457 . S
C270 H275 0.929 . S
C271 C270 1.457 . S
C271 C272 1.291 . S
C271 H284 0.931 . S
C272 C271 1.291 . S
C272 C273 1.373 . S
C272 H285 0.929 . S
C273 C272 1.373 . S
C273 C274 1.396 . S
C273 C280 1.403 . S
C274 C264 1.476 . S
C274 N269 1.318 . S
C274 C273 1.396 . S
H275 C270 0.929 . S
O276 Mn252 2.385 . S
O276 C254 1.234 . S
O277 Mn252 2.209 . S
O277 Mn253 2.215 . S
O277 C254 1.283 . S
O278 Mn252 2.094 . S
O278 C256 1.240 . S
O279 Mn253 2.117 . S
O279 C256 1.264 . S
C280 C273 1.403 . S
C280 C281 1.399 . S
C280 H286 0.929 . S
C281 C261 1.449 . S
C281 C280 1.399 . S
C281 H287 0.930 . S
H282 C262 0.931 . S
H283 C263 0.930 . S
H284 C271 0.931 . S
H285 C272 0.929 . S
H286 C280 0.929 . S
H287 C281 0.930 . S
H288 C294 0.930 . S
H289 C297 0.930 . S
H290 C298 0.930 . S
H291 C299 0.930 . S
H292 C302 0.930 . S
H293 C303 0.930 . S
C294 H288 0.930 . S
C294 C295 1.355 . S
C294 C296 1.415 1_655 S
C295 C294 1.355 . S
C295 C297 1.419 . S
C296 C294 1.415 1_455 S
C296 C301 1.425 1_455 S
C296 C303 1.409 . S
C297 H289 0.930 . S
C297 C295 1.419 . S
C297 C298 1.362 . S
C298 H290 0.930 . S
C298 C297 1.362 . S
C298 C301 1.409 . S
C299 H291 0.930 . S
C299 C300 1.355 . S
C299 C301 1.415 1_455 S
C300 C299 1.355 . S
C300 C302 1.419 . S
C301 C296 1.425 1_655 S
C301 C298 1.409 . S
C301 C299 1.415 1_655 S
C302 H292 0.930 . S
C302 C300 1.419 . S
C302 C303 1.362 . S
C303 H293 0.930 . S
C303 C296 1.409 . S
C303 C302 1.362 . S
H304 C310 0.930 1_565 S
H305 C313 0.930 . S
H306 C314 0.930 . S
H307 C315 0.930 1_545 S
H308 C318 0.930 . S
H309 C319 0.930 . S
C310 H304 0.930 1_545 S
C310 C311 1.355 . S
C310 C312 1.415 1_545 S
C311 C310 1.355 . S
C311 C313 1.419 . S
C312 C310 1.415 1_565 S
C312 C317 1.425 1_565 S
C312 C319 1.409 . S
C313 H305 0.930 . S
C313 C311 1.419 . S
C313 C314 1.362 . S
C314 H306 0.930 . S
C314 C313 1.362 . S
C314 C317 1.409 . S
C315 H307 0.930 1_565 S
C315 C316 1.355 . S
C315 C317 1.415 1_565 S
C316 C315 1.355 . S
C316 C318 1.419 . S
C317 C312 1.425 1_545 S
C317 C314 1.409 . S
C317 C315 1.415 1_545 S
C318 H308 0.930 . S
C318 C316 1.419 . S
C318 C319 1.362 . S
C319 H309 0.930 . S
C319 C312 1.409 . S
C319 C318 1.362 . S
H320 C326 0.930 . S
H321 C329 0.930 . S
H322 C330 0.930 . S
H323 C331 0.930 . S
H324 C334 0.930 . S
H325 C335 0.930 . S
C326 H320 0.930 . S
C326 C327 1.355 . S
C326 C328 1.415 . S
C327 C326 1.355 . S
C327 C329 1.419 . S
C328 C326 1.415 . S
C328 C333 1.425 1_655 S
C328 C335 1.409 . S
C329 H321 0.930 . S
C329 C327 1.419 . S
C329 C330 1.362 1_655 S
C330 H322 0.930 . S
C330 C329 1.362 1_455 S
C330 C333 1.409 . S
C331 H323 0.930 . S
C331 C332 1.355 . S
C331 C333 1.415 . S
C332 C331 1.355 . S
C332 C334 1.419 . S
C333 C328 1.425 1_455 S
C333 C330 1.409 . S
C333 C331 1.415 . S
C334 H324 0.930 . S
C334 C332 1.419 . S
C334 C335 1.362 1_455 S
C335 H325 0.930 . S
C335 C328 1.409 . S
C335 C334 1.362 1_655 S
H336 C342 0.930 . S
H337 C345 0.930 . S
H338 C346 0.930 . S
H339 C347 0.930 . S
H340 C350 0.930 . S
H341 C351 0.930 . S
C342 H336 0.930 . S
C342 C343 1.355 . S
C342 C344 1.415 1_545 S
C343 C342 1.355 . S
C343 C345 1.419 . S
C344 C342 1.415 1_565 S
C344 C349 1.425 1_565 S
C344 C351 1.409 . S
C345 H337 0.930 . S
C345 C343 1.419 . S
C345 C346 1.362 . S
C346 H338 0.930 . S
C346 C345 1.362 . S
C346 C349 1.409 . S
C347 H339 0.930 . S
C347 C348 1.355 . S
C347 C349 1.415 1_565 S
C348 C347 1.355 . S
C348 C350 1.419 . S
C349 C344 1.425 1_545 S
C349 C346 1.409 . S
C349 C347 1.415 1_545 S
C350 H340 0.930 . S
C350 C348 1.419 . S
C350 C351 1.362 . S
C351 H341 0.930 . S
C351 C344 1.409 . S
C351 C350 1.362 . S
H352 C358 0.930 . S
H353 C361 0.930 . S
H354 C362 0.930 . S
H355 C363 0.930 . S
H356 C366 0.930 . S
H357 C367 0.930 . S
C358 H352 0.930 . S
C358 C359 1.355 . S
C358 C360 1.415 . S
C359 C358 1.355 . S
C359 C361 1.419 . S
C360 C358 1.415 . S
C360 C365 1.425 . S
C360 C367 1.409 . S
C361 H353 0.930 . S
C361 C359 1.419 . S
C361 C362 1.362 . S
C362 H354 0.930 . S
C362 C361 1.362 . S
C362 C365 1.409 . S
C363 H355 0.930 . S
C363 C364 1.355 . S
C363 C365 1.415 . S
C364 C363 1.355 . S
C364 C366 1.419 . S
C365 C360 1.425 . S
C365 C362 1.409 . S
C365 C363 1.415 . S
C366 H356 0.930 . S
C366 C364 1.419 . S
C366 C367 1.362 . S
C367 H357 0.930 . S
C367 C360 1.409 . S
C367 C366 1.362 . S
H368 C374 0.930 . S
H369 C377 0.930 . S
H370 C378 0.930 . S
H371 C379 0.930 . S
H372 C382 0.930 1_655 S
H373 C383 0.930 . S
C374 H368 0.930 . S
C374 C375 1.355 . S
C374 C376 1.415 . S
C375 C374 1.355 . S
C375 C377 1.419 . S
C376 C374 1.415 . S
C376 C381 1.425 . S
C376 C383 1.409 . S
C377 H369 0.930 . S
C377 C375 1.419 . S
C377 C378 1.362 . S
C378 H370 0.930 . S
C378 C377 1.362 . S
C378 C381 1.409 . S
C379 H371 0.930 . S
C379 C380 1.355 . S
C379 C381 1.415 . S
C380 C379 1.355 . S
C380 C382 1.419 . S
C381 C376 1.425 . S
C381 C378 1.409 . S
C381 C379 1.415 . S
C382 H372 0.930 1_455 S
C382 C380 1.419 . S
C382 C383 1.362 . S
C383 H373 0.930 . S
C383 C376 1.409 . S
C383 C382 1.362 . S
H384 C390 0.930 . S
H385 C393 0.930 . S
H386 C394 0.930 . S
H387 C395 0.930 . S
H388 C398 0.930 . S
H389 C399 0.930 . S
C390 H384 0.930 . S
C390 C391 1.355 . S
C390 C392 1.415 . S
C391 C390 1.355 . S
C391 C393 1.419 . S
C392 C390 1.415 . S
C392 C397 1.425 . S
C392 C399 1.409 . S
C393 H385 0.930 . S
C393 C391 1.419 . S
C393 C394 1.362 . S
C394 H386 0.930 . S
C394 C393 1.362 . S
C394 C397 1.409 . S
C395 H387 0.930 . S
C395 C396 1.355 . S
C395 C397 1.415 . S
C396 C395 1.355 . S
C396 C398 1.419 . S
C397 C392 1.425 . S
C397 C394 1.409 . S
C397 C395 1.415 . S
C398 H388 0.930 . S
C398 C396 1.419 . S
C398 C399 1.362 . S
C399 H389 0.930 . S
C399 C392 1.409 . S
C399 C398 1.362 . S
H400 C406 0.930 . S
H401 C409 0.930 . S
H402 C410 0.930 . S
H403 C411 0.930 . S
H404 C414 0.930 1_455 S
H405 C415 0.930 . S
C406 H400 0.930 . S
C406 C407 1.355 . S
C406 C408 1.415 . S
C407 C406 1.355 . S
C407 C409 1.419 . S
C408 C406 1.415 . S
C408 C413 1.425 . S
C408 C415 1.409 . S
C409 H401 0.930 . S
C409 C407 1.419 . S
C409 C410 1.362 . S
C410 H402 0.930 . S
C410 C409 1.362 . S
C410 C413 1.409 . S
C411 H403 0.930 . S
C411 C412 1.355 . S
C411 C413 1.415 . S
C412 C411 1.355 . S
C412 C414 1.419 . S
C413 C408 1.425 . S
C413 C410 1.409 . S
C413 C411 1.415 . S
C414 H404 0.930 1_655 S
C414 C412 1.419 . S
C414 C415 1.362 . S
C415 H405 0.930 . S
C415 C408 1.409 . S
C415 C414 1.362 . S
H416 C422 0.930 . S
H417 C425 0.930 . S
H418 C426 0.930 . S
H419 C427 0.930 . S
H420 C430 0.930 . S
H421 C431 0.930 . S
C422 H416 0.930 . S
C422 C423 1.355 . S
C422 C424 1.415 . S
C423 C422 1.355 . S
C423 C425 1.419 . S
C424 C422 1.415 . S
C424 C429 1.425 . S
C424 C431 1.409 1_556 S
C425 H417 0.930 . S
C425 C423 1.419 . S
C425 C426 1.362 . S
C426 H418 0.930 . S
C426 C425 1.362 . S
C426 C429 1.409 . S
C427 H419 0.930 . S
C427 C428 1.353 1_556 S
C427 C429 1.416 . S
C428 C427 1.353 1_554 S
C428 C430 1.419 . S
C429 C424 1.425 . S
C429 C426 1.409 . S
C429 C427 1.416 . S
C430 H420 0.930 . S
C430 C428 1.419 . S
C430 C431 1.362 . S
C431 H421 0.930 . S
C431 C424 1.409 1_554 S
C431 C430 1.362 . S
H432 C438 0.930 . S
H433 C441 0.930 . S
H434 C442 0.930 . S
H435 C443 0.930 . S
H436 C446 0.930 . S
H437 C447 0.929 1_556 S
C438 H432 0.930 . S
C438 C439 1.355 . S
C438 C440 1.415 . S
C439 C438 1.355 . S
C439 C441 1.419 . S
C440 C438 1.415 . S
C440 C445 1.425 1_556 S
C440 C447 1.409 1_556 S
C441 H433 0.930 . S
C441 C439 1.419 . S
C441 C442 1.362 1_556 S
C442 H434 0.930 . S
C442 C441 1.362 1_554 S
C442 C445 1.409 . S
C443 H435 0.930 . S
C443 C444 1.355 . S
C443 C445 1.415 . S
C444 C443 1.355 . S
C444 C446 1.419 . S
C445 C440 1.425 1_554 S
C445 C442 1.409 . S
C445 C443 1.415 . S
C446 H436 0.930 . S
C446 C444 1.419 . S
C446 C447 1.364 . S
C447 H437 0.929 1_554 S
C447 C440 1.409 1_554 S
C447 C446 1.364 . S
H448 C454 0.930 . S
H449 C457 0.930 . S
H450 C458 0.930 . S
H451 C459 0.930 . S
H452 C462 0.940 . S
H453 C463 0.930 . S
C454 H448 0.930 . S
C454 C455 1.355 . S
C454 C456 1.415 . S
C455 C454 1.355 . S
C455 C457 1.419 1_554 S
C456 C454 1.415 . S
C456 C461 1.425 1_554 S
C456 C463 1.409 . S
C457 H449 0.930 . S
C457 C455 1.419 1_556 S
C457 C458 1.362 . S
C458 H450 0.930 . S
C458 C457 1.362 . S
C458 C461 1.409 . S
C459 H451 0.930 . S
C459 C460 1.355 . S
C459 C461 1.415 . S
C460 C459 1.355 . S
C460 C462 1.416 1_565 S
C461 C456 1.425 1_556 S
C461 C458 1.409 . S
C461 C459 1.415 . S
C462 H452 0.940 . S
C462 C460 1.416 1_545 S
C462 C463 1.355 1_546 S
C463 H453 0.930 . S
C463 C456 1.409 . S
C463 C462 1.355 1_564 S
H464 C470 0.930 . S
H465 C473 0.928 1_554 S
H466 C474 0.930 . S
H467 C475 0.930 . S
H468 C478 0.930 1_455 S
H469 C479 0.930 . S
C470 H464 0.930 . S
C470 C471 1.355 . S
C470 C472 1.415 . S
C471 C470 1.355 . S
C471 C473 1.419 . S
C472 C470 1.415 . S
C472 C477 1.425 1_556 S
C472 C479 1.409 . S
C473 H465 0.928 1_556 S
C473 C471 1.419 . S
C473 C474 1.362 1_556 S
C474 H466 0.930 . S
C474 C473 1.362 1_554 S
C474 C477 1.409 . S
C475 H467 0.930 . S
C475 C476 1.355 . S
C475 C477 1.415 . S
C476 C475 1.355 . S
C476 C478 1.419 . S
C477 C472 1.425 1_554 S
C477 C474 1.409 . S
C477 C475 1.415 . S
C478 H468 0.930 1_655 S
C478 C476 1.419 . S
C478 C479 1.362 1_554 S
C479 H469 0.930 . S
C479 C472 1.409 . S
C479 C478 1.362 1_556 S
H480 C486 0.930 . S
H481 C489 0.930 . S
H482 C490 0.930 . S
H483 C491 0.930 . S
H484 C494 0.930 . S
H485 C495 0.930 . S
C486 H480 0.930 . S
C486 C487 1.355 . S
C486 C488 1.415 . S
C487 C486 1.355 . S
C487 C489 1.419 . S
C488 C486 1.415 . S
C488 C493 1.425 . S
C488 C495 1.409 . S
C489 H481 0.930 . S
C489 C487 1.419 . S
C489 C490 1.362 . S
C490 H482 0.930 . S
C490 C489 1.362 . S
C490 C493 1.409 . S
C491 H483 0.930 . S
C491 C492 1.355 . S
C491 C493 1.415 . S
C492 C491 1.355 . S
C492 C494 1.419 . S
C493 C488 1.425 . S
C493 C490 1.409 . S
C493 C491 1.415 . S
C494 H484 0.930 . S
C494 C492 1.419 . S
C494 C495 1.362 . S
C495 H485 0.930 . S
C495 C488 1.409 . S
C495 C494 1.362 . S
H496 C502 0.930 . S
H497 C505 0.930 . S
H498 C506 0.930 . S
H499 C507 0.930 . S
H500 C510 0.930 . S
H501 C511 0.930 . S
C502 H496 0.930 . S
C502 C503 1.355 . S
C502 C504 1.415 . S
C503 C502 1.355 . S
C503 C505 1.419 . S
C504 C502 1.415 . S
C504 C509 1.425 . S
C504 C511 1.409 . S
C505 H497 0.930 . S
C505 C503 1.419 . S
C505 C506 1.362 . S
C506 H498 0.930 . S
C506 C505 1.362 . S
C506 C509 1.409 . S
C507 H499 0.930 . S
C507 C508 1.355 . S
C507 C509 1.415 . S
C508 C507 1.355 . S
C508 C510 1.419 . S
C509 C504 1.425 . S
C509 C506 1.409 . S
C509 C507 1.415 . S
C510 H500 0.930 . S
C510 C508 1.419 . S
C510 C511 1.362 . S
C511 H501 0.930 . S
C511 C504 1.409 . S
C511 C510 1.362 . S
H512 C518 0.930 . S
H513 C521 0.930 . S
H514 C522 0.930 . S
H515 C523 0.930 . S
H516 C526 0.930 . S
H517 C527 0.930 . S
C518 H512 0.930 . S
C518 C519 1.355 . S
C518 C520 1.415 . S
C519 C518 1.355 . S
C519 C521 1.419 . S
C520 C518 1.415 . S
C520 C525 1.425 . S
C520 C527 1.409 . S
C521 H513 0.930 . S
C521 C519 1.419 . S
C521 C522 1.362 . S
C522 H514 0.930 . S
C522 C521 1.362 . S
C522 C525 1.409 . S
C523 H515 0.930 . S
C523 C524 1.355 . S
C523 C525 1.415 . S
C524 C523 1.355 . S
C524 C526 1.419 . S
C525 C520 1.425 . S
C525 C522 1.409 . S
C525 C523 1.415 . S
C526 H516 0.930 . S
C526 C524 1.419 . S
C526 C527 1.362 . S
C527 H517 0.930 . S
C527 C520 1.409 . S
C527 C526 1.362 . S
H528 C534 0.930 . S
H529 C537 0.930 . S
H530 C538 0.930 . S
H531 C539 0.930 . S
H532 C542 0.930 . S
H533 C543 0.930 . S
C534 H528 0.930 . S
C534 C535 1.355 . S
C534 C536 1.415 . S
C535 C534 1.355 . S
C535 C537 1.419 . S
C536 C534 1.415 . S
C536 C541 1.425 . S
C536 C543 1.409 . S
C537 H529 0.930 . S
C537 C535 1.419 . S
C537 C538 1.362 . S
C538 H530 0.930 . S
C538 C537 1.362 . S
C538 C541 1.409 . S
C539 H531 0.930 . S
C539 C540 1.355 . S
C539 C541 1.415 . S
C540 C539 1.355 . S
C540 C542 1.419 . S
C541 C536 1.425 . S
C541 C538 1.409 . S
C541 C539 1.415 . S
C542 H532 0.930 . S
C542 C540 1.419 . S
C542 C543 1.362 . S
C543 H533 0.930 . S
C543 C536 1.409 . S
C543 C542 1.362 . S
C295 C76 1.437 . S
C300 C4 1.432 . S
C311 C122 1.604 . S
C316 C50 1.609 . S
C327 C148 1.405 . S
C332 C220 1.411 . S
C343 C184 1.485 . S
C348 C256 1.482 . S
C359 C39 1.065 1_545 S
C364 C3 1.072 . S
C375 C38 1.219 . S
C380 C74 1.195 1_455 S
C391 C111 1.044 1_565 S
C396 C75 1.011 . S
C407 C110 1.158 . S
C412 C2 1.183 1_655 S
C423 C254 1.199 1_545 S
C428 C147 1.172 . S
C439 C183 1.074 . S
C444 C146 1.059 1_455 S
C455 C219 1.160 . S
C460 C182 1.124 1_565 S
C471 C255 1.134 . S
C476 C218 1.092 1_655 S
C487 C14 1.690 . S
C492 C194 1.678 . S
C503 C230 1.643 . S
C508 C40 1.656 . S
C519 C86 1.683 . S
C524 C266 1.665 . S
C535 C112 1.646 . S
C540 C158 1.641 . S
