# Generated by pormake.
# Topology afi, (4)-cn, num edge types: 1
# Building blocks:
#     Node 0, Type 0, BuildingBlock: QUQFOY_clean_sbu_3, # of connection points: 4
#     Node 1, Type 0, BuildingBlock: QUQFOY_clean_sbu_3, # of connection points: 4
#     Node 2, Type 0, BuildingBlock: QUQFOY_clean_sbu_3, # of connection points: 4
#     Node 3, Type 0, BuildingBlock: QUQFOY_clean_sbu_3, # of connection points: 4
#     Node 4, Type 0, BuildingBlock: QUQFOY_clean_sbu_3, # of connection points: 4
#     Node 5, Type 0, BuildingBlock: QUQFOY_clean_sbu_3, # of connection points: 4
#     Node 6, Type 0, BuildingBlock: QUQFOY_clean_sbu_3, # of connection points: 4
#     Node 7, Type 0, BuildingBlock: QUQFOY_clean_sbu_3, # of connection points: 4
#     Node 8, Type 0, BuildingBlock: QUQFOY_clean_sbu_3, # of connection points: 4
#     Node 9, Type 0, BuildingBlock: QUQFOY_clean_sbu_3, # of connection points: 4
#     Node 10, Type 0, BuildingBlock: QUQFOY_clean_sbu_3, # of connection points: 4
#     Node 11, Type 0, BuildingBlock: QUQFOY_clean_sbu_3, # of connection points: 4
#     Node 12, Type 0, BuildingBlock: QUQFOY_clean_sbu_3, # of connection points: 4
#     Node 13, Type 0, BuildingBlock: QUQFOY_clean_sbu_3, # of connection points: 4
#     Node 14, Type 0, BuildingBlock: QUQFOY_clean_sbu_3, # of connection points: 4
#     Node 15, Type 0, BuildingBlock: QUQFOY_clean_sbu_3, # of connection points: 4
#     Node 16, Type 0, BuildingBlock: QUQFOY_clean_sbu_3, # of connection points: 4
#     Node 17, Type 0, BuildingBlock: QUQFOY_clean_sbu_3, # of connection points: 4
#     Node 18, Type 0, BuildingBlock: QUQFOY_clean_sbu_3, # of connection points: 4
#     Node 19, Type 0, BuildingBlock: QUQFOY_clean_sbu_3, # of connection points: 4
#     Node 20, Type 0, BuildingBlock: QUQFOY_clean_sbu_3, # of connection points: 4
#     Node 21, Type 0, BuildingBlock: QUQFOY_clean_sbu_3, # of connection points: 4
#     Node 22, Type 0, BuildingBlock: QUQFOY_clean_sbu_3, # of connection points: 4
#     Node 23, Type 0, BuildingBlock: QUQFOY_clean_sbu_3, # of connection points: 4
#     Edge 24, Type (0, 0), BuildingBlock: XIVTED_clean_linker_0, # of connection points: 2
#     Edge 25, Type (0, 0), BuildingBlock: XIVTED_clean_linker_0, # of connection points: 2
#     Edge 26, Type (0, 0), BuildingBlock: XIVTED_clean_linker_0, # of connection points: 2
#     Edge 27, Type (0, 0), BuildingBlock: XIVTED_clean_linker_0, # of connection points: 2
#     Edge 28, Type (0, 0), BuildingBlock: XIVTED_clean_linker_0, # of connection points: 2
#     Edge 29, Type (0, 0), BuildingBlock: XIVTED_clean_linker_0, # of connection points: 2
#     Edge 30, Type (0, 0), BuildingBlock: XIVTED_clean_linker_0, # of connection points: 2
#     Edge 31, Type (0, 0), BuildingBlock: XIVTED_clean_linker_0, # of connection points: 2
#     Edge 32, Type (0, 0), BuildingBlock: XIVTED_clean_linker_0, # of connection points: 2
#     Edge 33, Type (0, 0), BuildingBlock: XIVTED_clean_linker_0, # of connection points: 2
#     Edge 34, Type (0, 0), BuildingBlock: XIVTED_clean_linker_0, # of connection points: 2
#     Edge 35, Type (0, 0), BuildingBlock: XIVTED_clean_linker_0, # of connection points: 2
#     Edge 36, Type (0, 0), BuildingBlock: XIVTED_clean_linker_0, # of connection points: 2
#     Edge 37, Type (0, 0), BuildingBlock: XIVTED_clean_linker_0, # of connection points: 2
#     Edge 38, Type (0, 0), BuildingBlock: XIVTED_clean_linker_0, # of connection points: 2
#     Edge 39, Type (0, 0), BuildingBlock: XIVTED_clean_linker_0, # of connection points: 2
#     Edge 40, Type (0, 0), BuildingBlock: XIVTED_clean_linker_0, # of connection points: 2
#     Edge 41, Type (0, 0), BuildingBlock: XIVTED_clean_linker_0, # of connection points: 2
#     Edge 42, Type (0, 0), BuildingBlock: XIVTED_clean_linker_0, # of connection points: 2
#     Edge 43, Type (0, 0), BuildingBlock: XIVTED_clean_linker_0, # of connection points: 2
#     Edge 44, Type (0, 0), BuildingBlock: XIVTED_clean_linker_0, # of connection points: 2
#     Edge 45, Type (0, 0), BuildingBlock: XIVTED_clean_linker_0, # of connection points: 2
#     Edge 46, Type (0, 0), BuildingBlock: XIVTED_clean_linker_0, # of connection points: 2
#     Edge 47, Type (0, 0), BuildingBlock: XIVTED_clean_linker_0, # of connection points: 2
#     Edge 48, Type (0, 0), BuildingBlock: XIVTED_clean_linker_0, # of connection points: 2
#     Edge 49, Type (0, 0), BuildingBlock: XIVTED_clean_linker_0, # of connection points: 2
#     Edge 50, Type (0, 0), BuildingBlock: XIVTED_clean_linker_0, # of connection points: 2
#     Edge 51, Type (0, 0), BuildingBlock: XIVTED_clean_linker_0, # of connection points: 2
#     Edge 52, Type (0, 0), BuildingBlock: XIVTED_clean_linker_0, # of connection points: 2
#     Edge 53, Type (0, 0), BuildingBlock: XIVTED_clean_linker_0, # of connection points: 2
#     Edge 54, Type (0, 0), BuildingBlock: XIVTED_clean_linker_0, # of connection points: 2
#     Edge 55, Type (0, 0), BuildingBlock: XIVTED_clean_linker_0, # of connection points: 2
#     Edge 56, Type (0, 0), BuildingBlock: XIVTED_clean_linker_0, # of connection points: 2
#     Edge 57, Type (0, 0), BuildingBlock: XIVTED_clean_linker_0, # of connection points: 2
#     Edge 58, Type (0, 0), BuildingBlock: XIVTED_clean_linker_0, # of connection points: 2
#     Edge 59, Type (0, 0), BuildingBlock: XIVTED_clean_linker_0, # of connection points: 2
#     Edge 60, Type (0, 0), BuildingBlock: XIVTED_clean_linker_0, # of connection points: 2
#     Edge 61, Type (0, 0), BuildingBlock: XIVTED_clean_linker_0, # of connection points: 2
#     Edge 62, Type (0, 0), BuildingBlock: XIVTED_clean_linker_0, # of connection points: 2
#     Edge 63, Type (0, 0), BuildingBlock: XIVTED_clean_linker_0, # of connection points: 2
#     Edge 64, Type (0, 0), BuildingBlock: XIVTED_clean_linker_0, # of connection points: 2
#     Edge 65, Type (0, 0), BuildingBlock: XIVTED_clean_linker_0, # of connection points: 2
#     Edge 66, Type (0, 0), BuildingBlock: XIVTED_clean_linker_0, # of connection points: 2
#     Edge 67, Type (0, 0), BuildingBlock: XIVTED_clean_linker_0, # of connection points: 2
#     Edge 68, Type (0, 0), BuildingBlock: XIVTED_clean_linker_0, # of connection points: 2
#     Edge 69, Type (0, 0), BuildingBlock: XIVTED_clean_linker_0, # of connection points: 2
#     Edge 70, Type (0, 0), BuildingBlock: XIVTED_clean_linker_0, # of connection points: 2
#     Edge 71, Type (0, 0), BuildingBlock: XIVTED_clean_linker_0, # of connection points: 2
# Relax obj value: 0.097
# Max RMSD: 0.105
# Mean RMSD: 0.105
data_MOF--net-afi--node1-QUQFOY_clean_sbu_3--edge1-XIVTED_clean_linker_0
_symmetry_space_group_name_H-M    P1
_symmetry_Int_Tables_number       1
_symmetry_cell_setting            triclinic
loop_
_symmetry_equiv_pos_as_xyz
'x, y, z'
_cell_length_a     71.053112
_cell_length_b     71.12009
_cell_length_c     41.342458
_cell_angle_alpha  90.054778
_cell_angle_beta   89.967338
_cell_angle_gamma 119.90467
loop_
_atom_site_label
_atom_site_type_symbol
_atom_site_fract_x
_atom_site_fract_y
_atom_site_fract_z
_atom_type_partial_charge
C0 C 0.47517 0.09917 0.16825 0.0
O1 O 0.47051 0.08956 0.1411 0.0
Cd2 Cd 0.439 0.08222 0.11095 0.0
O3 O 0.46337 0.10631 0.18022 0.0
Cd4 Cd 0.43083 0.10868 0.16342 0.0
C5 C 0.3996 0.05462 0.16818 0.0
O6 O 0.44085 0.11663 0.10757 0.0
O7 O 0.4074 0.10666 0.11764 0.0
O8 O 0.44933 0.1455 0.18427 0.0
C9 C 0.42315 0.11485 0.09793 0.0
O10 O 0.408 0.05412 0.14119 0.0
C11 C 0.43269 0.14425 0.19772 0.0
O12 O 0.40589 0.07249 0.18288 0.0
O13 O 0.41535 0.12597 0.19679 0.0
C14 C 0.36371 0.48641 0.16918 0.0
O15 O 0.36971 0.4815 0.14312 0.0
Cd16 Cd 0.34704 0.44953 0.11294 0.0
O17 O 0.34456 0.47439 0.18015 0.0
Cd18 Cd 0.3109 0.44083 0.16281 0.0
C19 C 0.3353 0.41111 0.17159 0.0
O20 O 0.31421 0.45069 0.10676 0.0
O21 O 0.29089 0.41719 0.11631 0.0
O22 O 0.29139 0.45868 0.18176 0.0
C23 C 0.29869 0.43294 0.09663 0.0
O24 O 0.34449 0.41926 0.14469 0.0
C25 C 0.27581 0.44184 0.19434 0.0
O26 O 0.32304 0.41709 0.18503 0.0
O27 O 0.27714 0.42468 0.19387 0.0
C28 C 0.86249 0.36816 0.16408 0.0
O29 O 0.87186 0.37228 0.13675 0.0
Cd30 Cd 0.8793 0.34716 0.10957 0.0
O31 O 0.85572 0.34972 0.17745 0.0
Cd32 Cd 0.85365 0.31453 0.16389 0.0
C33 C 0.90778 0.33831 0.16904 0.0
O34 O 0.84499 0.3143 0.10786 0.0
O35 O 0.85638 0.29221 0.11995 0.0
O36 O 0.81691 0.29654 0.18528 0.0
C37 C 0.84726 0.29842 0.09967 0.0
O38 O 0.90804 0.34606 0.14117 0.0
C39 C 0.81855 0.28178 0.2 0.0
O40 O 0.88997 0.32706 0.18404 0.0
O41 O 0.83699 0.28297 0.19942 0.0
C42 C 0.49316 0.87966 0.17084 0.0
O43 O 0.50014 0.89138 0.1457 0.0
Cd44 Cd 0.5295 0.89503 0.11347 0.0
O45 O 0.50228 0.86928 0.18127 0.0
Cd46 Cd 0.53472 0.86665 0.16448 0.0
C47 C 0.56843 0.92055 0.17051 0.0
O48 O 0.52437 0.85922 0.10873 0.0
O49 O 0.55769 0.86836 0.118 0.0
O50 O 0.5161 0.82964 0.18484 0.0
C51 C 0.54165 0.8602 0.0988 0.0
O52 O 0.5617 0.92169 0.14246 0.0
C53 C 0.53284 0.8307 0.19764 0.0
O54 O 0.56012 0.90255 0.18549 0.0
O55 O 0.55021 0.84895 0.19671 0.0
C56 C 0.60162 0.48591 0.16716 0.0
O57 O 0.59646 0.48835 0.13874 0.0
Cd58 Cd 0.61777 0.52054 0.10895 0.0
O59 O 0.61969 0.49999 0.17957 0.0
Cd60 Cd 0.65352 0.5339 0.16254 0.0
C61 C 0.62415 0.55862 0.1669 0.0
O62 O 0.65261 0.52319 0.1074 0.0
O63 O 0.67368 0.55736 0.11607 0.0
O64 O 0.67263 0.51677 0.18519 0.0
C65 C 0.66734 0.54133 0.09705 0.0
O66 O 0.61488 0.54787 0.14146 0.0
C67 C 0.68787 0.53384 0.19784 0.0
O68 O 0.63917 0.55676 0.18057 0.0
O69 O 0.6866 0.55099 0.19558 0.0
C70 C 0.09744 0.60554 0.1696 0.0
O71 O 0.08753 0.60077 0.14268 0.0
Cd72 Cd 0.081 0.62541 0.11246 0.0
O73 O 0.10525 0.62455 0.18151 0.0
Cd74 Cd 0.10847 0.65979 0.16499 0.0
C75 C 0.05435 0.63819 0.17008 0.0
O76 O 0.11614 0.65702 0.10933 0.0
O77 O 0.10765 0.68165 0.11886 0.0
O78 O 0.14528 0.67736 0.18616 0.0
C79 C 0.11522 0.67333 0.09935 0.0
O80 O 0.05345 0.62919 0.14303 0.0
C81 C 0.14428 0.6929 0.19954 0.0
O82 O 0.0724 0.6494 0.18452 0.0
O83 O 0.12615 0.69235 0.1984 0.0
C84 C 0.87014 0.49316 0.2854 0.0
O85 O 0.88135 0.49819 0.31114 0.0
Cd86 Cd 0.88978 0.52894 0.3435 0.0
O87 O 0.86211 0.50464 0.27529 0.0
Cd88 Cd 0.86084 0.53735 0.29505 0.0
C89 C 0.91487 0.56885 0.2863 0.0
O90 O 0.85484 0.52534 0.35002 0.0
O91 O 0.86307 0.55864 0.34435 0.0
O92 O 0.82356 0.51941 0.27581 0.0
C93 C 0.8561 0.54213 0.36248 0.0
O94 O 0.91639 0.56037 0.31257 0.0
C95 C 0.82442 0.53646 0.26479 0.0
O96 O 0.89647 0.56252 0.27323 0.0
O97 O 0.84264 0.55384 0.26628 0.0
C98 C 0.36949 0.87777 0.28893 0.0
O99 O 0.37426 0.89023 0.31324 0.0
Cd100 Cd 0.34841 0.89372 0.34558 0.0
O101 O 0.3499 0.86659 0.27924 0.0
Cd102 Cd 0.31476 0.86353 0.29622 0.0
C103 C 0.33282 0.917 0.28812 0.0
O104 O 0.31855 0.85765 0.35245 0.0
O105 O 0.29332 0.8652 0.34234 0.0
O106 O 0.29661 0.82605 0.27739 0.0
C107 C 0.30193 0.85813 0.36213 0.0
O108 O 0.34107 0.91904 0.31611 0.0
C109 C 0.28087 0.82682 0.26424 0.0
O110 O 0.32377 0.89872 0.27383 0.0
O111 O 0.28163 0.84503 0.26434 0.0
C112 C 0.47952 0.36805 0.29121 0.0
O113 O 0.47478 0.37387 0.31758 0.0
Cd114 Cd 0.44268 0.35094 0.34735 0.0
O115 O 0.46735 0.34901 0.27996 0.0
Cd116 Cd 0.4338 0.31525 0.29679 0.0
C117 C 0.40438 0.33997 0.28862 0.0
O118 O 0.44353 0.3179 0.3528 0.0
O119 O 0.40986 0.29518 0.34297 0.0
O120 O 0.45184 0.29609 0.27728 0.0
C121 C 0.42561 0.30251 0.36266 0.0
O122 O 0.41255 0.34893 0.31565 0.0
C123 C 0.43505 0.28055 0.26451 0.0
O124 O 0.41024 0.3277 0.27492 0.0
O125 O 0.41779 0.28172 0.2652 0.0
C126 C 0.09433 0.48158 0.28765 0.0
O127 O 0.08459 0.47699 0.31471 0.0
Cd128 Cd 0.07648 0.44518 0.34427 0.0
O129 O 0.1011 0.46951 0.27558 0.0
Cd130 Cd 0.10254 0.43642 0.29179 0.0
C131 C 0.04837 0.40681 0.28581 0.0
O132 O 0.11076 0.44666 0.34737 0.0
O133 O 0.09994 0.41298 0.33811 0.0
O134 O 0.13927 0.45485 0.27068 0.0
C135 C 0.10867 0.42895 0.35738 0.0
O136 O 0.04805 0.41503 0.31305 0.0
C137 C 0.1382 0.43813 0.25785 0.0
O138 O 0.06624 0.41262 0.27133 0.0
O139 O 0.12 0.4207 0.2592 0.0
C140 C 0.59555 0.09926 0.29341 0.0
O141 O 0.59029 0.08871 0.31976 0.0
Cd142 Cd 0.61455 0.08172 0.35014 0.0
O143 O 0.61486 0.10751 0.28242 0.0
Cd144 Cd 0.64988 0.1107 0.30085 0.0
C145 C 0.62965 0.05712 0.29234 0.0
O146 O 0.64586 0.11687 0.3569 0.0
O147 O 0.67057 0.10843 0.34749 0.0
O148 O 0.66802 0.14812 0.28208 0.0
C149 C 0.66202 0.11571 0.36707 0.0
O150 O 0.61956 0.05525 0.31869 0.0
C151 C 0.68391 0.14748 0.26925 0.0
O152 O 0.64112 0.07562 0.27933 0.0
O153 O 0.68334 0.12935 0.2696 0.0
C154 C 0.48242 0.6083 0.29201 0.0
O155 O 0.48501 0.60313 0.32034 0.0
Cd156 Cd 0.51819 0.62389 0.34824 0.0
O157 O 0.49675 0.62609 0.27927 0.0
Cd158 Cd 0.53136 0.65951 0.29534 0.0
C159 C 0.55448 0.62901 0.28783 0.0
O160 O 0.52224 0.65927 0.3511 0.0
O161 O 0.55644 0.67886 0.34076 0.0
O162 O 0.51395 0.67891 0.275 0.0
C163 C 0.54094 0.67346 0.36052 0.0
O164 O 0.54408 0.61997 0.31361 0.0
C165 C 0.53078 0.69418 0.26194 0.0
O166 O 0.55303 0.64443 0.27481 0.0
O167 O 0.54793 0.69279 0.2628 0.0
C168 C 0.48202 0.86871 0.79373 0.0
O169 O 0.48728 0.87927 0.8201 0.0
Cd170 Cd 0.5196 0.88808 0.84924 0.0
O171 O 0.49367 0.86135 0.78194 0.0
Cd172 Cd 0.52691 0.86013 0.79763 0.0
C173 C 0.55781 0.91426 0.78986 0.0
O174 O 0.51916 0.85448 0.85414 0.0
O175 O 0.55242 0.86463 0.84185 0.0
O176 O 0.51024 0.82166 0.78739 0.0
C177 C 0.53733 0.85694 0.86274 0.0
O178 O 0.5497 0.91533 0.81682 0.0
C179 C 0.52396 0.82307 0.76653 0.0
O180 O 0.55157 0.89606 0.77617 0.0
O181 O 0.53875 0.842 0.7586 0.0
C182 C 0.59771 0.48805 0.79237 0.0
O183 O 0.59303 0.49297 0.81956 0.0
Cd184 Cd 0.61726 0.52482 0.84874 0.0
O185 O 0.61645 0.49976 0.77985 0.0
Cd186 Cd 0.6514 0.53256 0.79538 0.0
C187 C 0.62753 0.56301 0.79012 0.0
O188 O 0.64996 0.52312 0.85131 0.0
O189 O 0.67305 0.55652 0.84069 0.0
O190 O 0.66985 0.51408 0.77439 0.0
C191 C 0.6658 0.54093 0.86062 0.0
O192 O 0.61912 0.55504 0.81751 0.0
C193 C 0.68492 0.53063 0.76041 0.0
O194 O 0.63922 0.55676 0.77551 0.0
O195 O 0.68372 0.54786 0.76117 0.0
C196 C 0.09217 0.60264 0.79129 0.0
O197 O 0.08305 0.59805 0.81882 0.0
Cd198 Cd 0.07789 0.62305 0.85067 0.0
O199 O 0.09984 0.62165 0.77949 0.0
Cd200 Cd 0.10381 0.65699 0.79765 0.0
C201 C 0.04982 0.63659 0.797 0.0
O202 O 0.11318 0.65462 0.85272 0.0
O203 O 0.10407 0.67891 0.84435 0.0
O204 O 0.14016 0.67496 0.77479 0.0
C205 C 0.11243 0.67097 0.86303 0.0
O206 O 0.0496 0.62747 0.8236 0.0
C207 C 0.13862 0.69029 0.76182 0.0
O208 O 0.0674 0.64738 0.78126 0.0
O209 O 0.12036 0.6894 0.76386 0.0
C210 C 0.4751 0.10086 0.79188 0.0
O211 O 0.47005 0.09089 0.81872 0.0
Cd212 Cd 0.43828 0.08334 0.84811 0.0
O213 O 0.46348 0.10817 0.7798 0.0
Cd214 Cd 0.43064 0.11015 0.79615 0.0
C215 C 0.3998 0.05613 0.78961 0.0
O216 O 0.44063 0.11799 0.8519 0.0
O217 O 0.40706 0.10764 0.84226 0.0
O218 O 0.449 0.14709 0.7757 0.0
C219 C 0.42296 0.11617 0.86169 0.0
O220 O 0.40775 0.05537 0.81686 0.0
C221 C 0.43227 0.14581 0.76255 0.0
O222 O 0.40622 0.07417 0.77539 0.0
O223 O 0.415 0.12747 0.76338 0.0
C224 C 0.35975 0.48405 0.78751 0.0
O225 O 0.36494 0.47958 0.81462 0.0
Cd226 Cd 0.34134 0.44835 0.84537 0.0
O227 O 0.34078 0.47215 0.77584 0.0
Cd228 Cd 0.30619 0.43967 0.79358 0.0
C229 C 0.3296 0.40892 0.78808 0.0
O230 O 0.30887 0.45034 0.84912 0.0
O231 O 0.2858 0.41666 0.84044 0.0
O232 O 0.28764 0.45801 0.77276 0.0
C233 C 0.29336 0.43272 0.85959 0.0
O234 O 0.33852 0.41738 0.81502 0.0
C235 C 0.27195 0.44119 0.76029 0.0
O236 O 0.31778 0.41502 0.77356 0.0
O237 O 0.2728 0.42379 0.76171 0.0
C238 C 0.87039 0.36934 0.79733 0.0
O239 O 0.88267 0.3734 0.82172 0.0
Cd240 Cd 0.88714 0.34705 0.85063 0.0
O241 O 0.8596 0.3501 0.78605 0.0
Cd242 Cd 0.85665 0.31447 0.80012 0.0
C243 C 0.91027 0.33384 0.78941 0.0
O244 O 0.85108 0.3169 0.85674 0.0
O245 O 0.85885 0.2921 0.84455 0.0
O246 O 0.81894 0.29618 0.78197 0.0
C247 C 0.85163 0.30012 0.86516 0.0
O248 O 0.91273 0.3419 0.81763 0.0
C249 C 0.81997 0.281 0.7674 0.0
O250 O 0.89161 0.32417 0.77629 0.0
O251 O 0.83839 0.2822 0.76644 0.0
C252 C 0.09011 0.48152 0.66495 0.0
O253 O 0.0804 0.47679 0.63788 0.0
Cd254 Cd 0.07335 0.44548 0.60745 0.0
O255 O 0.09751 0.4699 0.67669 0.0
Cd256 Cd 0.10019 0.43762 0.65942 0.0
C257 C 0.04617 0.40583 0.66443 0.0
O258 O 0.1079 0.44759 0.60344 0.0
O259 O 0.09814 0.41424 0.61356 0.0
O260 O 0.13721 0.45615 0.67971 0.0
C261 C 0.10619 0.42993 0.59379 0.0
O262 O 0.04553 0.41426 0.63758 0.0
C263 C 0.13597 0.43958 0.69325 0.0
O264 O 0.06411 0.41229 0.67904 0.0
O265 O 0.11764 0.42229 0.69263 0.0
C266 C 0.59734 0.09947 0.67488 0.0
O267 O 0.59226 0.08943 0.64806 0.0
Cd268 Cd 0.61628 0.08196 0.61792 0.0
O269 O 0.61634 0.10686 0.68668 0.0
Cd270 Cd 0.65124 0.10912 0.67008 0.0
C271 C 0.62841 0.05499 0.67591 0.0
O272 O 0.64829 0.1167 0.61453 0.0
O273 O 0.67249 0.10753 0.62342 0.0
O274 O 0.66883 0.14592 0.69123 0.0
C275 C 0.6643 0.11535 0.60417 0.0
O276 O 0.61945 0.05428 0.64892 0.0
C277 C 0.68477 0.14522 0.70372 0.0
O278 O 0.64007 0.07299 0.69026 0.0
O279 O 0.68448 0.12724 0.70218 0.0
C280 C 0.48141 0.60271 0.66334 0.0
O281 O 0.48684 0.59729 0.63721 0.0
Cd282 Cd 0.51979 0.62053 0.60922 0.0
O283 O 0.49319 0.62159 0.67529 0.0
Cd284 Cd 0.52699 0.65559 0.66042 0.0
C285 C 0.55703 0.63154 0.66972 0.0
O286 O 0.52028 0.65414 0.60358 0.0
O287 O 0.55355 0.67624 0.61718 0.0
O288 O 0.51077 0.67798 0.66946 0.0
C289 C 0.53881 0.66955 0.59578 0.0
O290 O 0.54927 0.62262 0.64251 0.0
C291 C 0.52414 0.68996 0.69088 0.0
O292 O 0.55081 0.64362 0.68315 0.0
O293 O 0.53854 0.6854 0.69963 0.0
C294 C 0.87419 0.49467 0.68231 0.0
O295 O 0.8876 0.50238 0.65907 0.0
Cd296 Cd 0.89155 0.53054 0.62369 0.0
O297 O 0.86212 0.5026 0.68966 0.0
Cd298 Cd 0.85902 0.53407 0.66953 0.0
C299 C 0.9122 0.57034 0.67999 0.0
O300 O 0.85553 0.52345 0.61366 0.0
O301 O 0.86112 0.55578 0.6213 0.0
O302 O 0.82103 0.51454 0.68623 0.0
C303 C 0.85581 0.54002 0.60209 0.0
O304 O 0.91512 0.56393 0.65268 0.0
C305 C 0.8211 0.53109 0.6979 0.0
O306 O 0.8936 0.56093 0.69338 0.0
O307 O 0.83911 0.54874 0.69791 0.0
C308 C 0.36176 0.87128 0.67331 0.0
O309 O 0.36752 0.88175 0.64691 0.0
Cd310 Cd 0.34439 0.88995 0.61584 0.0
O311 O 0.34251 0.86381 0.68414 0.0
Cd312 Cd 0.30821 0.86213 0.66575 0.0
C313 C 0.33104 0.91608 0.6737 0.0
O314 O 0.3124 0.85539 0.61023 0.0
O315 O 0.28817 0.86467 0.61821 0.0
O316 O 0.28984 0.82501 0.6852 0.0
C317 C 0.29669 0.857 0.59923 0.0
O318 O 0.34058 0.91719 0.64708 0.0
C319 C 0.27373 0.82567 0.69715 0.0
O320 O 0.31904 0.89787 0.68724 0.0
O321 O 0.27425 0.84377 0.69614 0.0
C322 C 0.47499 0.36886 0.66997 0.0
O323 O 0.47005 0.37402 0.64321 0.0
Cd324 Cd 0.4384 0.35021 0.61331 0.0
O325 O 0.46327 0.34991 0.68177 0.0
Cd326 Cd 0.43043 0.31533 0.66514 0.0
C327 C 0.39957 0.33861 0.67154 0.0
O328 O 0.44054 0.31785 0.60936 0.0
O329 O 0.40705 0.2944 0.61884 0.0
O330 O 0.4492 0.29712 0.68558 0.0
C331 C 0.42293 0.30207 0.59935 0.0
O332 O 0.40768 0.34737 0.6444 0.0
C333 C 0.43253 0.28142 0.69832 0.0
O334 O 0.40592 0.32696 0.6859 0.0
O335 O 0.41503 0.28212 0.69727 0.0
H336 H 0.37915 0.01375 0.14203 0.0
H337 H 0.34566 0.95721 0.31326 0.0
H338 H 0.38416 0.04853 0.23024 0.0
H339 H 0.32758 0.92141 0.22346 0.0
H340 H 0.35663 -0.00944 0.28308 0.0
H341 H 0.35721 0.97961 0.17068 0.0
C342 C 0.37543 0.01423 0.16733 0.0
C343 C 0.3838 0.03404 0.18388 0.0
C344 C 0.34995 0.97537 0.26999 0.0
C345 C 0.35884 -0.005 0.21688 0.0
C346 C 0.34371 0.95632 0.28722 0.0
C347 C 0.33601 0.93654 0.27081 0.0
C348 C 0.34879 0.97471 0.23606 0.0
C349 C 0.3336 0.93632 0.23709 0.0
C350 C 0.36284 -0.00529 0.18366 0.0
C351 C 0.37824 0.03365 0.21656 0.0
N352 N 0.34033 0.95519 0.22076 0.0
N353 N 0.36639 0.01443 0.23211 0.0
H354 H 0.39136 0.33235 0.22531 0.0
H355 H 0.32763 0.39837 0.23501 0.0
H356 H 0.38326 0.36012 0.31352 0.0
H357 H 0.35474 0.38929 0.14683 0.0
H358 H 0.34026 0.37675 0.26396 0.0
H359 H 0.37019 0.34555 0.19646 0.0
C360 C 0.38488 0.34095 0.23872 0.0
C361 C 0.38933 0.34539 0.27181 0.0
C362 C 0.34322 0.37932 0.23821 0.0
C363 C 0.3651 0.36047 0.23894 0.0
C364 C 0.33596 0.39158 0.22163 0.0
C365 C 0.34038 0.39587 0.18851 0.0
C366 C 0.35479 0.37113 0.22149 0.0
C367 C 0.35121 0.38662 0.17243 0.0
C368 C 0.37288 0.34854 0.2222 0.0
C369 C 0.38046 0.35656 0.28794 0.0
N370 N 0.35816 0.37478 0.18912 0.0
N371 N 0.36887 0.36383 0.2713 0.0
H372 H 0.9485 0.35718 0.14239 0.0
H373 H 0.00767 0.38559 0.31237 0.0
H374 H 0.91429 0.3323 0.23255 0.0
H375 H 0.04179 0.39432 0.22223 0.0
H376 H 0.97326 0.36488 0.2837 0.0
H377 H -0.01715 0.36986 0.17093 0.0
C378 C 0.94819 0.35419 0.16812 0.0
C379 C 0.92849 0.34386 0.18515 0.0
C380 C -0.01172 0.37108 0.27026 0.0
C381 C 0.96775 0.35849 0.218 0.0
C382 C 0.00793 0.38295 0.28661 0.0
C383 C 0.02763 0.39189 0.26962 0.0
C384 C -0.0117 0.36841 0.2366 0.0
C385 C 0.02699 0.3878 0.23629 0.0
C386 C 0.96781 0.36138 0.18439 0.0
C387 C 0.92908 0.34028 0.21845 0.0
N388 N 0.00762 0.37662 0.22078 0.0
N389 N 0.94841 0.34785 0.23385 0.0
H390 H 0.59285 0.96096 0.14429 0.0
H391 H 0.64737 0.05469 0.23465 0.0
H392 H 0.57911 0.92637 0.23485 0.0
H393 H 0.60524 0.01472 0.31148 0.0
H394 H 0.63872 0.022 0.20414 0.0
H395 H 0.61309 -0.00501 0.17345 0.0
C396 C 0.59453 0.9605 0.17028 0.0
C397 C 0.58407 0.94078 0.18717 0.0
C398 C 0.63124 0.02036 0.22755 0.0
C399 C 0.60754 0.97981 0.22089 0.0
C400 C 0.63634 0.03904 0.24517 0.0
C401 C 0.62664 0.03748 0.2754 0.0
C402 C 0.61618 -3e-05 0.24016 0.0
C403 C 0.61282 0.01674 0.28805 0.0
C404 C 0.6063 0.98001 0.18698 0.0
C405 C 0.58683 0.94119 0.22084 0.0
N406 N 0.60785 -0.0012 0.27022 0.0
N407 N 0.59796 0.96043 0.23665 0.0
H408 H 0.54453 0.58693 0.28653 0.0
H409 H 0.64639 0.59571 0.20314 0.0
H410 H 0.59147 0.65036 0.25107 0.0
H411 H 0.58255 0.5504 0.16692 0.0
H412 H 0.63065 0.6148 0.23263 0.0
H413 H 0.56272 0.57124 0.25546 0.0
C414 C 0.55885 0.59758 0.27258 0.0
C415 C 0.56655 0.61995 0.27126 0.0
C416 C 0.62028 0.60079 0.2179 0.0
C417 C 0.58743 0.60216 0.23632 0.0
C418 C 0.62915 0.58991 0.20124 0.0
C419 C 0.61571 0.57154 0.18255 0.0
C420 C 0.59782 0.59268 0.21664 0.0
C421 C 0.59348 0.56461 0.18085 0.0
C422 C 0.56907 0.58861 0.25479 0.0
C423 C 0.58505 0.63301 0.25254 0.0
N424 N 0.58514 0.57496 0.19817 0.0
N425 N 0.59506 0.62393 0.23589 0.0
H426 H 0.04904 0.64764 0.23248 0.0
H427 H 0.91948 0.58146 0.22283 0.0
H428 H 0.01325 0.61874 0.14467 0.0
H429 H 0.95592 0.59207 0.31109 0.0
H430 H 0.95357 0.6034 0.19365 0.0
H431 H 0.01474 0.63567 0.26084 0.0
C432 C 0.034 0.63907 0.21901 0.0
C433 C 0.03401 0.63387 0.18624 0.0
C434 C 0.95404 0.60114 0.21948 0.0
C435 C -0.00524 0.62018 0.21861 0.0
C436 C 0.9346 0.5887 0.23619 0.0
C437 C 0.93489 0.58467 0.26937 0.0
C438 C 0.97383 0.60976 0.23615 0.0
C439 C 0.95496 0.5945 0.28543 0.0
C440 C 0.01444 0.63219 0.23527 0.0
C441 C 0.01401 0.62283 0.17004 0.0
N442 N 0.97365 0.60647 0.26862 0.0
N443 N -0.00484 0.61618 0.18647 0.0
H444 H 0.57041 0.91968 0.72629 0.0
H445 H 0.6365 0.0491 0.73878 0.0
H446 H 0.58034 0.95513 0.81542 0.0
H447 H 0.60903 0.01412 0.6499 0.0
H448 H 0.62377 0.01455 0.7667 0.0
H449 H 0.59228 0.95407 0.6979 0.0
C450 C 0.57745 0.93465 0.73999 0.0
C451 C 0.5733 0.93456 0.77321 0.0
C452 C 0.62076 0.01448 0.74101 0.0
C453 C 0.59832 0.97386 0.74089 0.0
C454 C 0.62809 0.03419 0.72501 0.0
C455 C 0.62355 0.03449 0.69203 0.0
C456 C 0.60897 -0.00504 0.72386 0.0
C457 C 0.61263 0.01464 0.67543 0.0
C458 C 0.58985 0.95426 0.72374 0.0
C459 C 0.58288 0.95446 0.78972 0.0
N460 N 0.60557 -0.00433 0.69158 0.0
N461 N 0.59483 0.97332 0.77335 0.0
H462 H 0.60731 0.58382 0.816 0.0
H463 H 0.58017 0.61367 0.6446 0.0
H464 H 0.63496 0.57652 0.72708 0.0
H465 H 0.56814 0.63742 0.7339 0.0
H466 H 0.6016 0.60128 0.67441 0.0
H467 H 0.59417 0.60489 0.78683 0.0
C468 C 0.61084 0.58685 0.79043 0.0
C469 C 0.62203 0.57816 0.77388 0.0
C470 C 0.59451 0.60945 0.68744 0.0
C471 C 0.60685 0.60207 0.74033 0.0
C472 C 0.58221 0.61647 0.67044 0.0
C473 C 0.57216 0.62638 0.68684 0.0
C474 C 0.59649 0.61204 0.72117 0.0
C475 C 0.57553 0.62977 0.7203 0.0
C476 C 0.60337 0.59893 0.77381 0.0
C477 C 0.62628 0.58277 0.7408 0.0
N478 N 0.58715 0.62232 0.73645 0.0
N479 N 0.61842 0.59414 0.72502 0.0
H480 H 0.95171 0.59998 0.65545 0.0
H481 H 0.00923 0.61605 0.82437 0.0
H482 H 0.91629 0.5781 0.74523 0.0
H483 H 0.04329 0.64895 0.73729 0.0
H484 H 0.97484 0.60573 0.79742 0.0
H485 H -0.015 0.62195 0.68598 0.0
C486 C 0.95088 0.60009 0.68161 0.0
C487 C 0.93128 0.58692 0.69784 0.0
C488 C -0.01015 0.6155 0.78438 0.0
C489 C 0.9694 0.61172 0.733 0.0
C490 C 0.00951 0.62136 0.79973 0.0
C491 C 0.02917 0.63303 0.78287 0.0
C492 C -0.01015 0.62114 0.75183 0.0
C493 C 0.02854 0.63969 0.75112 0.0
C494 C 0.9699 0.61265 0.69906 0.0
C495 C 0.9311 0.58789 0.73175 0.0
N496 N 0.00919 0.63335 0.73647 0.0
N497 N 0.94997 0.59973 0.74825 0.0
H498 H 0.38647 0.05063 0.72647 0.0
H499 H 0.32284 0.92119 0.73688 0.0
H500 H 0.37827 0.01507 0.81492 0.0
H501 H 0.34984 0.9571 0.6486 0.0
H502 H 0.33507 0.95543 0.76562 0.0
H503 H 0.36498 0.01628 0.6979 0.0
C504 C 0.3799 0.03563 0.74001 0.0
C505 C 0.38444 0.03572 0.77307 0.0
C506 C 0.33807 0.95576 0.73989 0.0
C507 C 0.35985 -0.00358 0.74048 0.0
C508 C 0.33103 0.93624 0.72342 0.0
C509 C 0.33559 0.93631 0.69036 0.0
C510 C 0.34955 0.97545 0.7231 0.0
C511 C 0.34623 0.9563 0.67417 0.0
C512 C 0.3677 0.01604 0.72363 0.0
C513 C 0.37541 0.01577 0.78935 0.0
N514 N 0.35298 0.97508 0.69075 0.0
N515 N 0.36367 -0.0031 0.77283 0.0
H516 H 0.34871 0.38735 0.81482 0.0
H517 H 0.37703 0.35673 0.645 0.0
H518 H 0.32231 0.39519 0.72509 0.0
H519 H 0.38703 0.33229 0.73508 0.0
H520 H 0.35537 0.36936 0.67373 0.0
H521 H 0.36132 0.36556 0.78638 0.0
C522 C 0.34534 0.38429 0.78921 0.0
C523 C 0.33467 0.39333 0.77223 0.0
C524 C 0.36204 0.36096 0.68714 0.0
C525 C 0.34925 0.36861 0.73949 0.0
C526 C 0.37446 0.3538 0.67077 0.0
C527 C 0.38407 0.34367 0.68773 0.0
C528 C 0.3595 0.3583 0.72081 0.0
C529 C 0.38003 0.34013 0.72106 0.0
C530 C 0.35249 0.37179 0.773 0.0
C531 C 0.33058 0.38865 0.73912 0.0
N532 N 0.36832 0.34774 0.7366 0.0
N533 N 0.33817 0.37689 0.72373 0.0
H534 H 0.0052 0.38581 0.63872 0.0
H535 H 0.91187 0.32239 0.72651 0.0
H536 H 0.04037 0.38923 0.72574 0.0
H537 H 0.9528 0.35472 0.80882 0.0
H538 H 0.94425 0.33437 0.69332 0.0
H539 H 0.97126 0.36305 0.66701 0.0
C540 C 0.0058 0.38142 0.66363 0.0
C541 C 0.02568 0.38962 0.67995 0.0
C542 C 0.94617 0.33895 0.71857 0.0
C543 C -0.01325 0.36314 0.71252 0.0
C544 C 0.92766 0.3319 0.73767 0.0
C545 C 0.92959 0.33797 0.77037 0.0
C546 C 0.96674 0.35232 0.73223 0.0
C547 C 0.9505 0.34996 0.78361 0.0
C548 C -0.01366 0.36817 0.67975 0.0
C549 C 0.02543 0.38336 0.71222 0.0
N550 N 0.96825 0.35692 0.7644 0.0
N551 N 0.00625 0.37079 0.72759 0.0
H552 H 0.39826 0.14829 0.21819 0.0
H553 H 0.47013 0.27515 0.25532 0.0
H554 H 0.46787 0.18463 0.20628 0.0
H555 H 0.40028 0.24162 0.24681 0.0
H556 H 0.46974 0.24169 0.24068 0.0
H557 H 0.39882 0.18175 0.23369 0.0
C558 C 0.41369 0.16326 0.21922 0.0
C559 C 0.43305 0.16371 0.21088 0.0
C560 C 0.45451 0.24168 0.24182 0.0
C561 C 0.43378 0.20202 0.22822 0.0
C562 C 0.45472 0.26079 0.25007 0.0
C563 C 0.4352 0.26115 0.25225 0.0
C564 C 0.43462 0.22274 0.23602 0.0
C565 C 0.41571 0.24207 0.24528 0.0
C566 C 0.41398 0.18237 0.2278 0.0
C567 C 0.45256 0.18356 0.21246 0.0
N568 N 0.4159 0.22358 0.23768 0.0
N569 N 0.45242 0.20195 0.22089 0.0
H570 H 0.1428 0.40375 0.23896 0.0
H571 H 0.2698 0.47661 0.20238 0.0
H572 H 0.17832 0.47349 0.24845 0.0
H573 H 0.23695 0.40692 0.21194 0.0
H574 H 0.23598 0.47583 0.21607 0.0
H575 H 0.17657 0.40464 0.22419 0.0
C576 C 0.15765 0.41927 0.23754 0.0
C577 C 0.15778 0.43858 0.24501 0.0
C578 C 0.2362 0.46072 0.21537 0.0
C579 C 0.19645 0.43968 0.22851 0.0
C580 C 0.25551 0.46116 0.20767 0.0
C581 C 0.25618 0.4418 0.20606 0.0
C582 C 0.21736 0.44076 0.22122 0.0
C583 C 0.23718 0.42224 0.21304 0.0
C584 C 0.17694 0.41974 0.22937 0.0
C585 C 0.1775 0.45821 0.24295 0.0
N586 N 0.21849 0.4222 0.22012 0.0
N587 N 0.19605 0.45825 0.23497 0.0
H588 H 0.68843 0.18768 0.26091 0.0
H589 H 0.81543 0.24434 0.22314 0.0
H590 H 0.72315 0.15253 0.25121 0.0
H591 H 0.77785 0.2761 0.20805 0.0
H592 H 0.78237 0.21155 0.23981 0.0
H593 H 0.72155 0.2211 0.24615 0.0
C594 C 0.70297 0.18697 0.2554 0.0
C595 C 0.70305 0.16731 0.25722 0.0
C596 C 0.78139 0.22574 0.23299 0.0
C597 C 0.741 0.20547 0.24092 0.0
C598 C 0.80027 0.24451 0.22373 0.0
C599 C 0.79935 0.26294 0.2141 0.0
C600 C 0.76148 0.22545 0.2328 0.0
C601 C 0.77926 0.26222 0.21521 0.0
C602 C 0.72186 0.20604 0.24708 0.0
C603 C 0.72234 0.16732 0.24996 0.0
N604 N 0.76109 0.24374 0.22431 0.0
N605 N 0.74059 0.18614 0.24232 0.0
H606 H 0.56737 0.82658 0.21724 0.0
H607 H 0.49576 0.69937 0.25138 0.0
H608 H 0.49778 0.79011 0.20517 0.0
H609 H 0.5657 0.73325 0.24487 0.0
H610 H 0.49611 0.73279 0.23689 0.0
H611 H 0.56698 0.79304 0.23151 0.0
C612 C 0.55198 0.81156 0.21797 0.0
C613 C 0.53257 0.81112 0.20999 0.0
C614 C 0.51138 0.7329 0.2384 0.0
C615 C 0.53205 0.77269 0.22592 0.0
C616 C 0.51119 0.7138 0.24656 0.0
C617 C 0.53074 0.71355 0.24933 0.0
C618 C 0.53128 0.75195 0.23326 0.0
C619 C 0.55025 0.73272 0.24288 0.0
C620 C 0.5518 0.7924 0.22585 0.0
C621 C 0.51312 0.79118 0.21113 0.0
N622 N 0.55004 0.75122 0.23537 0.0
N623 N 0.51336 0.77276 0.21888 0.0
H624 H 0.69301 0.49904 0.21056 0.0
H625 H 0.81996 0.57123 0.24769 0.0
H626 H 0.72669 0.56898 0.21538 0.0
H627 H 0.78386 0.50148 0.25666 0.0
H628 H 0.78632 0.57079 0.23356 0.0
H629 H 0.72632 0.49967 0.22672 0.0
C630 C 0.70737 0.51453 0.21537 0.0
C631 C 0.7071 0.534 0.21157 0.0
C632 C 0.78578 0.55559 0.23856 0.0
C633 C 0.74541 0.53485 0.22958 0.0
C634 C 0.805 0.55581 0.24639 0.0
C635 C 0.8047 0.53635 0.25332 0.0
C636 C 0.76617 0.53576 0.23752 0.0
C637 C 0.78484 0.51686 0.25148 0.0
C638 C 0.72641 0.51488 0.22449 0.0
C639 C 0.72618 0.55359 0.2181 0.0
N640 N 0.76638 0.51707 0.24377 0.0
N641 N 0.74464 0.55353 0.22655 0.0
H642 H 0.14862 0.73136 0.22021 0.0
H643 H 0.27551 0.78614 0.2575 0.0
H644 H 0.18462 0.69768 0.20798 0.0
H645 H 0.24211 0.82237 0.24505 0.0
H646 H 0.24197 0.75286 0.24358 0.0
H647 H 0.18223 0.76405 0.23539 0.0
C648 C 0.16355 0.73077 0.22111 0.0
C649 C 0.16386 0.71181 0.21272 0.0
C650 C 0.24205 0.76812 0.2437 0.0
C651 C 0.20237 0.74919 0.22973 0.0
C652 C 0.26119 0.78712 0.25152 0.0
C653 C 0.26158 0.80704 0.25238 0.0
C654 C 0.22315 0.76906 0.23707 0.0
C655 C 0.24254 0.80737 0.24456 0.0
C656 C 0.18275 0.74948 0.22951 0.0
C657 C 0.18368 0.71198 0.21419 0.0
N658 N 0.22405 0.78863 0.23745 0.0
N659 N 0.20218 0.73042 0.22245 0.0
H660 H 0.53607 0.70876 0.75076 0.0
H661 H 0.53719 0.81676 0.70729 0.0
H662 H 0.51186 0.71504 0.65808 0.0
H663 H 0.51032 0.78518 0.79842 0.0
H664 H 0.53705 0.78377 0.68865 0.0
H665 H 0.5358 0.74156 0.76931 0.0
C666 C 0.53074 0.71706 0.7344 0.0
C667 C 0.5238 0.70922 0.70302 0.0
C668 C 0.53119 0.7842 0.71268 0.0
C669 C 0.52411 0.74666 0.72354 0.0
C670 C 0.53129 0.8029 0.72328 0.0
C671 C 0.52358 0.80349 0.75424 0.0
C672 C 0.52405 0.76644 0.73368 0.0
C673 C 0.51616 0.7852 0.77421 0.0
C674 C 0.53055 0.73563 0.74495 0.0
C675 C 0.51709 0.72051 0.6826 0.0
N676 N 0.51681 0.76744 0.76373 0.0
N677 N 0.51764 0.73887 0.69309 0.0
H678 H 0.72268 0.56506 0.7384 0.0
H679 H 0.78075 0.49534 0.70469 0.0
H680 H 0.6909 0.49576 0.75264 0.0
H681 H 0.81526 0.56509 0.71397 0.0
H682 H 0.74687 0.49483 0.71743 0.0
H683 H 0.75583 0.56497 0.72292 0.0
C684 C 0.72258 0.54978 0.73787 0.0
C685 C 0.70404 0.5304 0.74695 0.0
C686 C 0.76188 0.51022 0.71682 0.0
C687 C 0.74195 0.53022 0.72959 0.0
C688 C 0.78122 0.51052 0.70966 0.0
C689 C 0.80085 0.53028 0.70837 0.0
C690 C 0.76216 0.52984 0.72239 0.0
C691 C 0.80051 0.54948 0.71487 0.0
C692 C 0.74156 0.54977 0.72928 0.0
C693 C 0.70486 0.51109 0.74592 0.0
N694 N 0.78145 0.54879 0.72143 0.0
N695 N 0.72354 0.5115 0.7375 0.0
H696 H 0.26924 0.78556 0.70583 0.0
H697 H 0.14185 0.72833 0.74133 0.0
H698 H 0.23416 0.82043 0.71387 0.0
H699 H 0.17922 0.696 0.75242 0.0
H700 H 0.17497 0.76148 0.72595 0.0
H701 H 0.23601 0.75201 0.7194 0.0
C702 C 0.25459 0.78619 0.71076 0.0
C703 C 0.25445 0.80581 0.70877 0.0
C704 C 0.1759 0.7471 0.7316 0.0
C705 C 0.21632 0.76745 0.72376 0.0
C706 C 0.15697 0.72812 0.74011 0.0
C707 C 0.15781 0.70941 0.74826 0.0
C708 C 0.19577 0.74732 0.73109 0.0
C709 C 0.17786 0.71009 0.7464 0.0
C710 C 0.23561 0.76702 0.71837 0.0
C711 C 0.235 0.80567 0.71527 0.0
N712 N 0.19607 0.72877 0.73811 0.0
N713 N 0.21667 0.78675 0.72229 0.0
H714 H 0.46806 0.27678 0.70779 0.0
H715 H 0.39762 0.14953 0.7424 0.0
H716 H 0.39818 0.24223 0.71595 0.0
H717 H 0.46716 0.18651 0.75493 0.0
H718 H 0.39773 0.18288 0.72789 0.0
H719 H 0.46825 0.24355 0.72205 0.0
C720 C 0.45277 0.26225 0.71292 0.0
C721 C 0.43307 0.26225 0.7107 0.0
C722 C 0.41297 0.18368 0.7337 0.0
C723 C 0.43315 0.22411 0.72645 0.0
C724 C 0.41295 0.16462 0.74172 0.0
C725 C 0.43241 0.16527 0.74993 0.0
C726 C 0.43262 0.20348 0.73373 0.0
C727 C 0.45178 0.18529 0.74881 0.0
C728 C 0.45289 0.24327 0.72094 0.0
C729 C 0.41374 0.24296 0.7175 0.0
N730 N 0.45138 0.20362 0.74093 0.0
N731 N 0.41425 0.22461 0.72484 0.0
H732 H 0.13984 0.40521 0.71429 0.0
H733 H 0.26704 0.47643 0.74993 0.0
H734 H 0.17662 0.4746 0.70076 0.0
H735 H 0.23284 0.40657 0.74294 0.0
H736 H 0.23371 0.47628 0.73497 0.0
H737 H 0.17327 0.40562 0.72958 0.0
C738 C 0.1549 0.42057 0.71491 0.0
C739 C 0.15548 0.4399 0.70619 0.0
C740 C 0.23353 0.46099 0.7365 0.0
C741 C 0.19377 0.44045 0.72331 0.0
C742 C 0.25256 0.46107 0.74493 0.0
C743 C 0.25269 0.44148 0.74766 0.0
C744 C 0.21444 0.44117 0.73109 0.0
C745 C 0.23347 0.42205 0.741 0.0
C746 C 0.174 0.42076 0.72337 0.0
C747 C 0.17546 0.45931 0.70725 0.0
N748 N 0.21506 0.42237 0.73324 0.0
N749 N 0.19382 0.45909 0.71559 0.0
H750 H 0.81648 0.24352 0.74387 0.0
H751 H 0.68851 0.18485 0.71484 0.0
H752 H 0.77861 0.27439 0.76397 0.0
H753 H 0.72445 0.15074 0.7202 0.0
H754 H 0.72151 0.21848 0.72931 0.0
H755 H 0.78317 0.21023 0.72977 0.0
C756 C 0.80118 0.24338 0.74496 0.0
C757 C 0.8003 0.26174 0.75515 0.0
C758 C 0.72211 0.2036 0.72755 0.0
C759 C 0.76211 0.22363 0.73937 0.0
C760 C 0.70329 0.1844 0.7194 0.0
C761 C 0.70376 0.16499 0.71632 0.0
C762 C 0.74158 0.20341 0.73225 0.0
C763 C 0.72335 0.16533 0.72242 0.0
C764 C 0.78215 0.22431 0.73717 0.0
C765 C 0.78001 0.26059 0.75625 0.0
N766 N 0.74153 0.18428 0.72984 0.0
N767 N 0.76168 0.24182 0.74849 0.0
H768 H 0.38574 0.09915 0.06192 0.0
H769 H 0.45478 0.14522 0.9003 0.0
H770 H 0.45517 0.14131 0.05716 0.0
H771 H 0.38633 0.09828 0.89978 0.0
H772 H 0.45299 0.14977 0.95825 0.0
H773 H 0.38359 0.10395 0.00339 0.0
C774 C 0.40044 0.10967 0.04864 0.0
C775 C 0.42072 0.11954 0.06409 0.0
C776 C 0.43825 0.13859 0.94557 0.0
C777 C 0.4184 0.12516 -0.00222 0.0
C778 C 0.43929 0.136 0.91248 0.0
C779 C 0.42077 0.12106 0.89552 0.0
C780 C 0.41862 0.12582 0.96204 0.0
C781 C 0.40101 0.10982 0.91221 0.0
C782 C 0.39922 0.11237 0.01534 0.0
C783 C 0.43927 0.13308 0.04601 0.0
N784 N 0.40051 0.11212 0.94484 0.0
N785 N 0.43767 0.13534 0.01381 0.0
H786 H 0.29752 0.46478 0.8991 0.0
H787 H 0.27657 0.39565 0.0604 0.0
H788 H 0.27546 0.39622 0.89784 0.0
H789 H 0.30516 0.46522 0.05577 0.0
H790 H 0.26919 0.39366 0.00198 0.0
H791 H 0.29282 0.46317 0.95743 0.0
C792 C 0.29148 0.44931 0.9112 0.0
C793 C 0.28725 0.43069 0.89388 0.0
C794 C 0.27683 0.40929 0.01394 0.0
C795 C 0.28219 0.42874 0.9608 0.0
C796 C 0.28101 0.41042 0.04717 0.0
C797 C 0.29182 0.43067 0.06265 0.0
C798 C 0.28335 0.42852 -0.00351 0.0
C799 C 0.29716 0.44932 0.04462 0.0
C800 C 0.28879 0.44837 0.94452 0.0
C801 C 0.27907 0.41097 0.91053 0.0
N802 N 0.293 0.4478 0.01252 0.0
N803 N 0.27716 0.41056 0.94332 0.0
H804 H 0.86746 0.27846 0.9011 0.0
H805 H 0.81623 0.29717 0.06078 0.0
H806 H 0.82353 0.30377 0.90481 0.0
H807 H 0.86738 0.28126 0.06307 0.0
H808 H 0.81209 0.28985 0.00299 0.0
H809 H 0.8616 0.27051 0.95937 0.0
C810 C 0.8563 0.28195 0.91408 0.0
C811 C 0.84627 0.29215 0.89852 0.0
C812 C 0.82409 0.28769 0.01606 0.0
C813 C 0.83939 0.28302 0.9644 0.0
C814 C 0.82643 0.29187 0.04904 0.0
C815 C 0.84245 0.29023 0.06637 0.0
C816 C 0.83823 0.28233 0.0001 0.0
C817 C 0.85498 0.2829 0.0503 0.0
C818 C 0.853 0.27746 0.94721 0.0
C819 C 0.83191 0.29629 0.91614 0.0
N820 N 0.85293 0.27964 0.01774 0.0
N821 N 0.82904 0.29187 0.94815 0.0
H822 H 0.50929 0.83068 0.06149 0.0
H823 H 0.57551 0.87506 0.89743 0.0
H824 H 0.57776 0.87745 0.05969 0.0
H825 H 0.50679 0.82985 0.90468 0.0
H826 H 0.57886 0.87154 0.95607 0.0
H827 H 0.51033 0.82511 0.00371 0.0
C828 C 0.52462 0.83965 0.04882 0.0
C829 C 0.54337 0.85481 0.06507 0.0
C830 C 0.56315 0.86216 0.94464 0.0
C831 C 0.54468 0.84892 -0.0013 0.0
C832 C 0.56125 0.86414 0.91129 0.0
C833 C 0.54077 0.85305 0.89653 0.0
C834 C 0.54444 0.84889 0.96293 0.0
C835 C 0.5228 0.83903 0.91531 0.0
C836 C 0.52525 0.83647 0.01582 0.0
C837 C 0.56292 0.86574 0.04779 0.0
N838 N 0.52504 0.8375 0.94752 0.0
N839 N 0.56301 0.8629 0.01523 0.0
H840 H 0.66594 0.51006 0.05836 0.0
H841 H 0.68646 0.57845 0.89659 0.0
H842 H 0.68446 0.57779 0.05876 0.0
H843 H 0.66151 0.50941 0.9014 0.0
H844 H 0.69331 0.58084 0.95518 0.0
H845 H 0.67229 0.51204 0.0004 0.0
C846 C 0.67154 0.52543 0.04617 0.0
C847 C 0.67428 0.54368 0.06311 0.0
C848 C 0.68665 0.56526 0.94323 0.0
C849 C 0.68124 0.54603 -0.00343 0.0
C850 C 0.68279 0.5639 0.90989 0.0
C851 C 0.67305 0.54364 0.89444 0.0
C852 C 0.68087 0.54623 0.96082 0.0
C853 C 0.66866 0.52528 0.91256 0.0
C854 C 0.67518 0.52658 0.01306 0.0
C855 C 0.68196 0.56331 0.04636 0.0
N856 N 0.67244 0.527 0.94479 0.0
N857 N 0.68481 0.5639 0.01374 0.0
H858 H 0.13983 0.66495 0.9012 0.0
H859 H 0.10115 0.69632 0.06297 0.0
H860 H 0.09831 0.69312 0.90122 0.0
H861 H 0.14001 0.66526 0.05845 0.0
H862 H 0.10534 0.70205 0.00418 0.0
H863 H 0.14583 0.67207 0.95885 0.0
C864 C 0.1321 0.67281 0.91341 0.0
C865 C 0.11823 0.67808 0.89671 0.0
C866 C 0.1132 0.69428 0.01622 0.0
C867 C 0.1247 0.68599 0.96289 0.0
C868 C 0.11084 0.69105 0.04967 0.0
C869 C 0.1199 0.67992 0.06529 0.0
C870 C 0.12478 0.68641 -0.00136 0.0
C871 C 0.1324 0.67352 0.04717 0.0
C872 C 0.13555 0.67692 0.94634 0.0
C873 C 0.10895 0.68863 0.91345 0.0
N874 N 0.1343 0.67668 0.0148 0.0
N875 N 0.11204 0.6919 0.9459 0.0
H876 H 0.86615 0.57633 0.56567 0.0
H877 H 0.83401 0.50764 0.40175 0.0
H878 H 0.83828 0.50688 0.55925 0.0
H879 H 0.8693 0.57765 0.40235 0.0
H880 H 0.83057 0.50768 0.46009 0.0
H881 H 0.86305 0.57773 0.50656 0.0
C882 C 0.85921 0.5614 0.55187 0.0
C883 C 0.85269 0.54148 0.56721 0.0
C884 C 0.839 0.52311 0.44761 0.0
C885 C 0.84902 0.54295 0.50018 0.0
C886 C 0.84097 0.52308 0.41425 0.0
C887 C 0.85225 0.54267 0.39733 0.0
C888 C 0.84856 0.54288 0.46443 0.0
C889 C 0.86061 0.56219 0.41465 0.0
C890 C 0.85748 0.56221 0.51825 0.0
C891 C 0.84376 0.52261 0.54836 0.0
N892 N 0.85884 0.56183 0.44747 0.0
N893 N 0.84228 0.52384 0.5159 0.0
H894 H 0.27561 0.87242 0.56098 0.0
H895 H 0.30855 0.83213 0.40233 0.0
H896 H 0.30464 0.83167 0.55946 0.0
H897 H 0.27954 0.87284 0.3987 0.0
H898 H 0.30121 0.8271 0.45997 0.0
H899 H 0.27111 0.86842 0.50193 0.0
C900 C 0.28069 0.86237 0.54827 0.0
C901 C 0.29089 0.85269 0.56484 0.0
C902 C 0.29624 0.83702 0.44669 0.0
C903 C 0.2858 0.84802 0.49794 0.0
C904 C 0.30048 0.83991 0.41376 0.0
C905 C 0.29498 0.85321 0.39601 0.0
C906 C 0.28678 0.84786 0.46221 0.0
C907 C 0.28419 0.8626 0.41177 0.0
C908 C 0.27816 0.86012 0.51467 0.0
C909 C 0.2971 0.83976 0.54747 0.0
N910 N 0.28076 0.86006 0.44426 0.0
N911 N 0.29462 0.83797 0.51498 0.0
H912 H 0.38593 0.28143 0.56215 0.0
H913 H 0.4571 0.30554 0.40243 0.0
H914 H 0.45525 0.30737 0.55942 0.0
H915 H 0.38857 0.28388 0.39987 0.0
H916 H 0.45457 0.29891 0.4603 0.0
H917 H 0.38452 0.27529 0.5034 0.0
C918 C 0.40075 0.28548 0.54926 0.0
C919 C 0.4208 0.29528 0.56535 0.0
C920 C 0.43998 0.29539 0.4472 0.0
C921 C 0.41933 0.28829 0.49881 0.0
C922 C 0.44144 0.29921 0.41414 0.0
C923 C 0.4231 0.29563 0.39662 0.0
C924 C 0.42009 0.28833 0.46307 0.0
C925 C 0.40312 0.28702 0.41274 0.0
C926 C 0.39996 0.28202 0.51584 0.0
C927 C 0.43952 0.30016 0.54776 0.0
N928 N 0.40219 0.28402 0.44534 0.0
N929 N 0.43835 0.29677 0.51545 0.0
H930 H 0.09092 0.39246 0.55808 0.0
H931 H 0.13778 0.46074 0.39596 0.0
H932 H 0.13226 0.46193 0.55269 0.0
H933 H 0.09027 0.39252 0.3958 0.0
H934 H 0.14192 0.45918 0.45406 0.0
H935 H 0.09594 0.39012 0.49964 0.0
C936 C 0.1013 0.40714 0.54468 0.0
C937 C 0.11089 0.42746 0.55994 0.0
C938 C 0.13071 0.44444 0.44143 0.0
C939 C 0.11678 0.42492 0.49373 0.0
C940 C 0.12835 0.44535 0.40825 0.0
C941 C 0.11336 0.42683 0.39134 0.0
C942 C 0.11767 0.42495 0.458 0.0
C943 C 0.10185 0.4072 0.40818 0.0
C944 C 0.10412 0.4058 0.51144 0.0
C945 C 0.12425 0.44598 0.5417 0.0
N946 N 0.10393 0.40683 0.44087 0.0
N947 N 0.12665 0.44427 0.50956 0.0
H948 H 0.65561 0.14198 0.40712 0.0
H949 H 0.68575 0.10001 0.56653 0.0
H950 H 0.68339 0.10016 0.40421 0.0
H951 H 0.65725 0.14121 0.56431 0.0
H952 H 0.69104 0.10434 0.50763 0.0
H953 H 0.66234 0.14666 0.46492 0.0
C954 C 0.66327 0.13388 0.41874 0.0
C955 C 0.66861 0.12038 0.40113 0.0
C956 C 0.68393 0.11267 0.52019 0.0
C957 C 0.6761 0.12534 0.46753 0.0
C958 C 0.68096 0.11023 0.55371 0.0
C959 C 0.67068 0.11994 0.57002 0.0
C960 C 0.67666 0.12499 0.50327 0.0
C961 C 0.66485 0.1331 0.55251 0.0
C962 C 0.66717 0.13657 0.45177 0.0
C963 C 0.67888 0.11057 0.41716 0.0
N964 N 0.66775 0.13507 0.5201 0.0
N965 N 0.68198 0.11293 0.44972 0.0
H966 H 0.51232 0.67732 0.39873 0.0
H967 H 0.57696 0.68719 0.56107 0.0
H968 H 0.57703 0.68639 0.39871 0.0
H969 H 0.50971 0.67022 0.55486 0.0
H970 H 0.58088 0.69534 0.50274 0.0
H971 H 0.51504 0.68388 0.45668 0.0
C972 C 0.52722 0.68092 0.41103 0.0
C973 C 0.54431 0.68091 0.39424 0.0
C974 C 0.5654 0.69017 0.51436 0.0
C975 C 0.54742 0.68793 0.46074 0.0
C976 C 0.56319 0.68558 0.54753 0.0
C977 C 0.54288 0.67765 0.56241 0.0
C978 C 0.54722 0.687 0.49647 0.0
C979 C 0.52553 0.67589 0.54407 0.0
C980 C 0.5288 0.68467 0.44411 0.0
C981 C 0.56343 0.68607 0.41104 0.0
N982 N 0.52806 0.68035 0.51207 0.0
N983 N 0.56434 0.68895 0.44368 0.0
H984 H 0.50955 0.09633 0.14449 0.0
H985 H 0.5575 0.09462 0.31661 0.0
H986 H 0.48427 0.10769 0.23279 0.0
H987 H 0.59569 0.10936 0.22934 0.0
H988 H 0.52927 0.09692 0.28618 0.0
H989 H 0.54013 0.09867 0.17493 0.0
C990 C 0.51046 0.09938 0.17028 0.0
C991 C 0.49428 0.10171 0.18619 0.0
C992 C 0.5439 0.09981 0.27375 0.0
C993 C 0.52912 0.10423 0.22111 0.0
C994 C 0.55998 0.09839 0.29104 0.0
C995 C 0.57894 0.1017 0.27542 0.0
C996 C 0.5466 0.10419 0.24048 0.0
C997 C 0.58134 0.10671 0.24232 0.0
C998 C 0.52797 0.10082 0.18757 0.0
C999 C 0.49639 0.1058 0.21958 0.0
N1000 N 0.56522 0.10757 0.22583 0.0
N1001 N 0.51338 0.1067 0.23602 0.0
H1002 H 0.47591 0.60742 0.22653 0.0
H1003 H 0.36101 0.49768 0.23178 0.0
H1004 H 0.44499 0.57397 0.31494 0.0
H1005 H 0.40193 0.52006 0.14703 0.0
H1006 H 0.38831 0.52947 0.26142 0.0
H1007 H 0.44526 0.57935 0.19587 0.0
C1008 C 0.46257 0.59434 0.23951 0.0
C1009 C 0.4631 0.5929 0.2733 0.0
C1010 C 0.39121 0.52744 0.23627 0.0
C1011 C 0.42808 0.56085 0.23846 0.0
C1012 C 0.37564 0.50935 0.21934 0.0
C1013 C 0.37931 0.50611 0.18699 0.0
C1014 C 0.41044 0.54248 0.22062 0.0
C1015 C 0.39854 0.52178 0.17205 0.0
C1016 C 0.44515 0.57829 0.222 0.0
C1017 C 0.44536 0.57558 0.28888 0.0
N1018 N 0.4134 0.53927 0.18901 0.0
N1019 N 0.42861 0.56019 0.27133 0.0
H1020 H 0.8725 0.45868 0.30888 0.0
H1021 H 0.86628 0.40537 0.13846 0.0
H1022 H 0.859 0.483 0.22148 0.0
H1023 H 0.85381 0.37002 0.22813 0.0
H1024 H 0.86539 0.43484 0.1677 0.0
H1025 H 0.8677 0.42699 0.27913 0.0
C1026 C 0.86849 0.45733 0.28339 0.0
C1027 C 0.86628 0.47356 0.26755 0.0
C1028 C 0.86264 0.42053 0.18086 0.0
C1029 C 0.86088 0.43733 0.23333 0.0
C1030 C 0.86323 0.40375 0.16426 0.0
C1031 C 0.86027 0.38527 0.18095 0.0
C1032 C 0.85944 0.41898 0.21445 0.0
C1033 C 0.85621 0.38397 0.21432 0.0
C1034 C 0.86562 0.43916 0.26649 0.0
C1035 C 0.86086 0.47085 0.23458 0.0
N1036 N 0.85618 0.40073 0.23004 0.0
N1037 N 0.85859 0.45316 0.21841 0.0
H1038 H 0.48309 0.91165 0.17575 0.0
H1039 H 0.36778 0.84354 0.2556 0.0
H1040 H 0.46139 0.84585 0.2057 0.0
H1041 H 0.41123 0.91016 0.28246 0.0
H1042 H 0.39805 0.84305 0.22717 0.0
H1043 H 0.45251 0.91047 0.20474 0.0
C1044 C 0.47181 0.89692 0.18834 0.0
C1045 C 0.47474 0.87883 0.18848 0.0
C1046 C 0.40082 0.85768 0.23942 0.0
C1047 C 0.43964 0.8773 0.22104 0.0
C1048 C 0.38363 0.85803 0.25538 0.0
C1049 C 0.3871 0.87691 0.27137 0.0
C1050 C 0.42128 0.87653 0.23876 0.0
C1051 C 0.40793 0.89525 0.27057 0.0
C1052 C 0.45447 0.89631 0.20491 0.0
C1053 C 0.45971 0.86017 0.20527 0.0
N1054 N 0.42419 0.89468 0.25422 0.0
N1055 N 0.44259 0.85978 0.2207 0.0
H1056 H 0.60062 0.48002 0.23285 0.0
H1057 H 0.49063 0.36535 0.22856 0.0
H1058 H 0.56689 0.44863 0.14479 0.0
H1059 H 0.51318 0.40639 0.31318 0.0
H1060 H 0.5223 0.3926 0.19876 0.0
H1061 H 0.57237 0.44975 0.2639 0.0
C1062 C 0.58743 0.46667 0.22004 0.0
C1063 C 0.58598 0.46694 0.18622 0.0
C1064 C 0.52033 0.39555 0.2239 0.0
C1065 C 0.55376 0.43235 0.22148 0.0
C1066 C 0.5023 0.38 0.24094 0.0
C1067 C 0.49915 0.3837 0.27331 0.0
C1068 C 0.53541 0.4148 0.23946 0.0
C1069 C 0.51484 0.40297 0.28815 0.0
C1070 C 0.57129 0.44947 0.23776 0.0
C1071 C 0.56852 0.4492 0.17086 0.0
N1072 N 0.53227 0.41782 0.27109 0.0
N1073 N 0.55306 0.43266 0.18861 0.0
H1074 H 0.10693 0.60496 0.23373 0.0
H1075 H 0.10369 0.49116 0.22339 0.0
H1076 H 0.09299 0.56777 0.14554 0.0
H1077 H 0.09216 0.5162 0.31182 0.0
H1078 H 0.10683 0.52263 0.1944 0.0
H1079 H 0.10857 0.57577 0.2627 0.0
C1080 C 0.10438 0.59075 0.22043 0.0
C1081 C 0.09964 0.5887 0.18724 0.0
C1082 C 0.1037 0.52122 0.22018 0.0
C1083 C 0.10166 0.55545 0.2201 0.0
C1084 C 0.10199 0.50334 0.23674 0.0
C1085 C 0.09748 0.50099 0.27 0.0
C1086 C 0.10122 0.53698 0.23712 0.0
C1087 C 0.09543 0.51726 0.2861 0.0
C1088 C 0.10524 0.5741 0.23698 0.0
C1089 C 0.09646 0.56992 0.1712 0.0
N1090 N 0.09732 0.53459 0.26951 0.0
N1091 N 0.09755 0.55402 0.18778 0.0
H1092 H 0.47176 0.85812 0.72997 0.0
H1093 H 0.36095 0.86123 0.73752 0.0
H1094 H 0.44814 0.87247 0.81748 0.0
H1095 H 0.39885 0.87359 0.65037 0.0
H1096 H 0.38886 0.85771 0.76737 0.0
H1097 H 0.44083 0.85597 0.70059 0.0
C1098 C 0.45997 0.8606 0.74306 0.0
C1099 C 0.46262 0.86567 0.77614 0.0
C1100 C 0.39095 0.86109 0.74168 0.0
C1101 C 0.42725 0.86312 0.7428 0.0
C1102 C 0.37503 0.86303 0.72464 0.0
C1103 C 0.3777 0.8679 0.6915 0.0
C1104 C 0.40941 0.86369 0.7253 0.0
C1105 C 0.39626 0.87007 0.67598 0.0
C1106 C 0.4424 0.85946 0.72627 0.0
C1107 C 0.44684 0.86875 0.79191 0.0
N1108 N 0.41141 0.86793 0.69301 0.0
N1109 N 0.42982 0.86743 0.77508 0.0
H1110 H 0.56068 0.4541 0.81705 0.0
H1111 H 0.50903 0.40599 0.64588 0.0
H1112 H 0.59646 0.47839 0.72794 0.0
H1113 H 0.48518 0.36892 0.73396 0.0
H1114 H 0.54025 0.43375 0.67563 0.0
H1115 H 0.53188 0.42368 0.78726 0.0
C1116 C 0.56252 0.45299 0.79122 0.0
C1117 C 0.58094 0.46887 0.77489 0.0
C1118 C 0.52827 0.41946 0.68838 0.0
C1119 C 0.54797 0.43421 0.7407 0.0
C1120 C 0.51039 0.40366 0.67148 0.0
C1121 C 0.49442 0.38517 0.68753 0.0
C1122 C 0.53004 0.41694 0.72169 0.0
C1123 C 0.49711 0.38292 0.72065 0.0
C1124 C 0.54612 0.43557 0.77429 0.0
C1125 C 0.58254 0.46651 0.74147 0.0
N1126 N 0.51449 0.39876 0.73675 0.0
N1127 N 0.56612 0.44962 0.72539 0.0
H1128 H 0.08789 0.56475 0.81442 0.0
H1129 H 0.08629 0.5154 0.64166 0.0
H1130 H 0.10004 0.60176 0.72648 0.0
H1131 H 0.09928 0.49091 0.72933 0.0
H1132 H 0.08863 0.54591 0.67227 0.0
H1133 H 0.0893 0.53615 0.78364 0.0
C1134 C 0.09088 0.56688 0.78863 0.0
C1135 C 0.09377 0.58564 0.77295 0.0
C1136 C 0.09111 0.53393 0.68474 0.0
C1137 C 0.09526 0.55289 0.73761 0.0
C1138 C 0.08968 0.51646 0.66735 0.0
C1139 C 0.09251 0.50053 0.68301 0.0
C1140 C 0.09503 0.53531 0.71814 0.0
C1141 C 0.09701 0.50282 0.71629 0.0
C1142 C 0.09179 0.55059 0.77113 0.0
C1143 C 0.09775 0.58758 0.73952 0.0
N1144 N 0.09792 0.51979 0.73283 0.0
N1145 N 0.09817 0.57129 0.72289 0.0
H1146 H 0.59705 0.10932 0.73896 0.0
H1147 H 0.48524 0.11033 0.72776 0.0
H1148 H 0.56018 0.09638 0.65063 0.0
H1149 H 0.50903 0.09761 0.8164 0.0
H1150 H 0.51645 0.1125 0.69907 0.0
H1151 H 0.56843 0.11225 0.76772 0.0
C1152 C 0.58303 0.10725 0.72559 0.0
C1153 C 0.58088 0.10241 0.69243 0.0
C1154 C 0.51484 0.10934 0.72483 0.0
C1155 C 0.54833 0.10593 0.72502 0.0
C1156 C 0.49711 0.10818 0.74122 0.0
C1157 C 0.49445 0.1036 0.77444 0.0
C1158 C 0.53014 0.10621 0.74191 0.0
C1159 C 0.51033 0.10095 0.7907 0.0
C1160 C 0.56671 0.10886 0.74201 0.0
C1161 C 0.56238 0.0999 0.67628 0.0
N1162 N 0.5275 0.1023 0.77427 0.0
N1163 N 0.54682 0.1017 0.69273 0.0
H1164 H 0.3964 0.51887 0.81113 0.0
H1165 H 0.44769 0.56513 0.63934 0.0
H1166 H 0.3605 0.49248 0.72264 0.0
H1167 H 0.47025 0.60355 0.72651 0.0
H1168 H 0.41643 0.53743 0.66922 0.0
H1169 H 0.42458 0.54919 0.78051 0.0
C1170 C 0.39441 0.5195 0.78525 0.0
C1171 C 0.37614 0.50307 0.76935 0.0
C1172 C 0.42812 0.55202 0.6817 0.0
C1173 C 0.40842 0.53764 0.73418 0.0
C1174 C 0.44601 0.56779 0.66473 0.0
C1175 C 0.46167 0.58662 0.68053 0.0
C1176 C 0.42608 0.55492 0.71482 0.0
C1177 C 0.45858 0.58928 0.71338 0.0
C1178 C 0.41045 0.53687 0.76783 0.0
C1179 C 0.37432 0.50481 0.73583 0.0
N1180 N 0.44126 0.57348 0.72955 0.0
N1181 N 0.39042 0.52168 0.71925 0.0
H1182 H 0.83756 0.36801 0.76036 0.0
H1183 H 0.90736 0.48746 0.69589 0.0
H1184 H 0.90142 0.4119 0.79806 0.0
H1185 H 0.83857 0.46068 0.71082 0.0
H1186 H 0.90555 0.45676 0.7252 0.0
H1187 H 0.83744 0.39898 0.73385 0.0
C1188 C 0.8515 0.38411 0.76302 0.0
C1189 C 0.86953 0.38745 0.78138 0.0
C1190 C 0.89087 0.45766 0.72213 0.0
C1191 C 0.86958 0.4225 0.75099 0.0
C1192 C 0.89187 0.47508 0.70537 0.0
C1193 C 0.87308 0.47655 0.70106 0.0
C1194 C 0.87086 0.4413 0.73394 0.0
C1195 C 0.85342 0.46013 0.71389 0.0
C1196 C 0.85135 0.40169 0.74813 0.0
C1197 C 0.88715 0.40862 0.78424 0.0
N1198 N 0.85273 0.44295 0.7295 0.0
N1199 N 0.88685 0.4253 0.76889 0.0
loop_
_geom_bond_atom_site_label_1
_geom_bond_atom_site_label_2
_geom_bond_distance
_geom_bond_site_symmetry_2
_ccdc_geom_bond_type
C0 O1 1.306 . S
C0 O3 1.160 . S
O1 C0 1.306 . S
O1 Cd2 2.228 . S
Cd2 O1 2.228 . S
Cd2 O6 2.273 . S
Cd2 O10 2.277 . S
O3 C0 1.160 . S
O3 Cd4 2.203 . S
Cd4 O3 2.203 . S
Cd4 O6 2.411 . S
Cd4 O7 2.333 . S
Cd4 O8 2.352 . S
Cd4 O12 2.277 . S
Cd4 O13 2.356 . S
C5 O10 1.209 . S
C5 O12 1.226 . S
O6 Cd2 2.273 . S
O6 Cd4 2.411 . S
O6 C9 1.320 . S
O7 Cd4 2.333 . S
O7 C9 1.214 . S
O8 Cd4 2.352 . S
O8 C11 1.258 . S
C9 O6 1.320 . S
C9 O7 1.214 . S
O10 Cd2 2.277 . S
O10 C5 1.209 . S
C11 O8 1.258 . S
C11 O13 1.282 . S
O12 Cd4 2.277 . S
O12 C5 1.226 . S
O13 Cd4 2.356 . S
O13 C11 1.282 . S
C14 O15 1.306 . S
C14 O17 1.160 . S
O15 C14 1.306 . S
O15 Cd16 2.228 . S
Cd16 O15 2.228 . S
Cd16 O20 2.273 . S
Cd16 O24 2.277 . S
O17 C14 1.160 . S
O17 Cd18 2.203 . S
Cd18 O17 2.203 . S
Cd18 O20 2.411 . S
Cd18 O21 2.333 . S
Cd18 O22 2.352 . S
Cd18 O26 2.277 . S
Cd18 O27 2.356 . S
C19 O24 1.209 . S
C19 O26 1.226 . S
O20 Cd16 2.273 . S
O20 Cd18 2.411 . S
O20 C23 1.320 . S
O21 Cd18 2.333 . S
O21 C23 1.214 . S
O22 Cd18 2.352 . S
O22 C25 1.258 . S
C23 O20 1.320 . S
C23 O21 1.214 . S
O24 Cd16 2.277 . S
O24 C19 1.209 . S
C25 O22 1.258 . S
C25 O27 1.282 . S
O26 Cd18 2.277 . S
O26 C19 1.226 . S
O27 Cd18 2.356 . S
O27 C25 1.282 . S
C28 O29 1.306 . S
C28 O31 1.160 . S
O29 C28 1.306 . S
O29 Cd30 2.228 . S
Cd30 O29 2.228 . S
Cd30 O34 2.273 . S
Cd30 O38 2.277 . S
O31 C28 1.160 . S
O31 Cd32 2.203 . S
Cd32 O31 2.203 . S
Cd32 O34 2.411 . S
Cd32 O35 2.333 . S
Cd32 O36 2.352 . S
Cd32 O40 2.277 . S
Cd32 O41 2.356 . S
C33 O38 1.209 . S
C33 O40 1.226 . S
O34 Cd30 2.273 . S
O34 Cd32 2.411 . S
O34 C37 1.320 . S
O35 Cd32 2.333 . S
O35 C37 1.214 . S
O36 Cd32 2.352 . S
O36 C39 1.258 . S
C37 O34 1.320 . S
C37 O35 1.214 . S
O38 Cd30 2.277 . S
O38 C33 1.209 . S
C39 O36 1.258 . S
C39 O41 1.282 . S
O40 Cd32 2.277 . S
O40 C33 1.226 . S
O41 Cd32 2.356 . S
O41 C39 1.282 . S
C42 O43 1.306 . S
C42 O45 1.160 . S
O43 C42 1.306 . S
O43 Cd44 2.228 . S
Cd44 O43 2.228 . S
Cd44 O48 2.273 . S
Cd44 O52 2.277 . S
O45 C42 1.160 . S
O45 Cd46 2.203 . S
Cd46 O45 2.203 . S
Cd46 O48 2.411 . S
Cd46 O49 2.333 . S
Cd46 O50 2.352 . S
Cd46 O54 2.277 . S
Cd46 O55 2.356 . S
C47 O52 1.209 . S
C47 O54 1.226 . S
O48 Cd44 2.273 . S
O48 Cd46 2.411 . S
O48 C51 1.320 . S
O49 Cd46 2.333 . S
O49 C51 1.214 . S
O50 Cd46 2.352 . S
O50 C53 1.258 . S
C51 O48 1.320 . S
C51 O49 1.214 . S
O52 Cd44 2.277 . S
O52 C47 1.209 . S
C53 O50 1.258 . S
C53 O55 1.282 . S
O54 Cd46 2.277 . S
O54 C47 1.226 . S
O55 Cd46 2.356 . S
O55 C53 1.282 . S
C56 O57 1.306 . S
C56 O59 1.160 . S
O57 C56 1.306 . S
O57 Cd58 2.228 . S
Cd58 O57 2.228 . S
Cd58 O62 2.273 . S
Cd58 O66 2.277 . S
O59 C56 1.160 . S
O59 Cd60 2.203 . S
Cd60 O59 2.203 . S
Cd60 O62 2.411 . S
Cd60 O63 2.333 . S
Cd60 O64 2.352 . S
Cd60 O68 2.277 . S
Cd60 O69 2.356 . S
C61 O66 1.209 . S
C61 O68 1.226 . S
O62 Cd58 2.273 . S
O62 Cd60 2.411 . S
O62 C65 1.320 . S
O63 Cd60 2.333 . S
O63 C65 1.214 . S
O64 Cd60 2.352 . S
O64 C67 1.258 . S
C65 O62 1.320 . S
C65 O63 1.214 . S
O66 Cd58 2.277 . S
O66 C61 1.209 . S
C67 O64 1.258 . S
C67 O69 1.282 . S
O68 Cd60 2.277 . S
O68 C61 1.226 . S
O69 Cd60 2.356 . S
O69 C67 1.282 . S
C70 O71 1.306 . S
C70 O73 1.160 . S
O71 C70 1.306 . S
O71 Cd72 2.228 . S
Cd72 O71 2.228 . S
Cd72 O76 2.273 . S
Cd72 O80 2.277 . S
O73 C70 1.160 . S
O73 Cd74 2.203 . S
Cd74 O73 2.203 . S
Cd74 O76 2.411 . S
Cd74 O77 2.333 . S
Cd74 O78 2.352 . S
Cd74 O82 2.277 . S
Cd74 O83 2.356 . S
C75 O80 1.209 . S
C75 O82 1.226 . S
O76 Cd72 2.273 . S
O76 Cd74 2.411 . S
O76 C79 1.320 . S
O77 Cd74 2.333 . S
O77 C79 1.214 . S
O78 Cd74 2.352 . S
O78 C81 1.258 . S
C79 O76 1.320 . S
C79 O77 1.214 . S
O80 Cd72 2.277 . S
O80 C75 1.209 . S
C81 O78 1.258 . S
C81 O83 1.282 . S
O82 Cd74 2.277 . S
O82 C75 1.226 . S
O83 Cd74 2.356 . S
O83 C81 1.282 . S
C84 O85 1.306 . S
C84 O87 1.160 . S
O85 C84 1.306 . S
O85 Cd86 2.228 . S
Cd86 O85 2.228 . S
Cd86 O90 2.273 . S
Cd86 O94 2.277 . S
O87 C84 1.160 . S
O87 Cd88 2.203 . S
Cd88 O87 2.203 . S
Cd88 O90 2.411 . S
Cd88 O91 2.333 . S
Cd88 O92 2.352 . S
Cd88 O96 2.277 . S
Cd88 O97 2.356 . S
C89 O94 1.209 . S
C89 O96 1.226 . S
O90 Cd86 2.273 . S
O90 Cd88 2.411 . S
O90 C93 1.320 . S
O91 Cd88 2.333 . S
O91 C93 1.214 . S
O92 Cd88 2.352 . S
O92 C95 1.258 . S
C93 O90 1.320 . S
C93 O91 1.214 . S
O94 Cd86 2.277 . S
O94 C89 1.209 . S
C95 O92 1.258 . S
C95 O97 1.282 . S
O96 Cd88 2.277 . S
O96 C89 1.226 . S
O97 Cd88 2.356 . S
O97 C95 1.282 . S
C98 O99 1.306 . S
C98 O101 1.160 . S
O99 C98 1.306 . S
O99 Cd100 2.228 . S
Cd100 O99 2.228 . S
Cd100 O104 2.273 . S
Cd100 O108 2.277 . S
O101 C98 1.160 . S
O101 Cd102 2.203 . S
Cd102 O101 2.203 . S
Cd102 O104 2.411 . S
Cd102 O105 2.333 . S
Cd102 O106 2.352 . S
Cd102 O110 2.277 . S
Cd102 O111 2.356 . S
C103 O108 1.209 . S
C103 O110 1.226 . S
O104 Cd100 2.273 . S
O104 Cd102 2.411 . S
O104 C107 1.320 . S
O105 Cd102 2.333 . S
O105 C107 1.214 . S
O106 Cd102 2.352 . S
O106 C109 1.258 . S
C107 O104 1.320 . S
C107 O105 1.214 . S
O108 Cd100 2.277 . S
O108 C103 1.209 . S
C109 O106 1.258 . S
C109 O111 1.282 . S
O110 Cd102 2.277 . S
O110 C103 1.226 . S
O111 Cd102 2.356 . S
O111 C109 1.282 . S
C112 O113 1.306 . S
C112 O115 1.160 . S
O113 C112 1.306 . S
O113 Cd114 2.228 . S
Cd114 O113 2.228 . S
Cd114 O118 2.273 . S
Cd114 O122 2.277 . S
O115 C112 1.160 . S
O115 Cd116 2.203 . S
Cd116 O115 2.203 . S
Cd116 O118 2.411 . S
Cd116 O119 2.333 . S
Cd116 O120 2.352 . S
Cd116 O124 2.277 . S
Cd116 O125 2.356 . S
C117 O122 1.209 . S
C117 O124 1.226 . S
O118 Cd114 2.273 . S
O118 Cd116 2.411 . S
O118 C121 1.320 . S
O119 Cd116 2.333 . S
O119 C121 1.214 . S
O120 Cd116 2.352 . S
O120 C123 1.258 . S
C121 O118 1.320 . S
C121 O119 1.214 . S
O122 Cd114 2.277 . S
O122 C117 1.209 . S
C123 O120 1.258 . S
C123 O125 1.282 . S
O124 Cd116 2.277 . S
O124 C117 1.226 . S
O125 Cd116 2.356 . S
O125 C123 1.282 . S
C126 O127 1.306 . S
C126 O129 1.160 . S
O127 C126 1.306 . S
O127 Cd128 2.228 . S
Cd128 O127 2.228 . S
Cd128 O132 2.273 . S
Cd128 O136 2.277 . S
O129 C126 1.160 . S
O129 Cd130 2.203 . S
Cd130 O129 2.203 . S
Cd130 O132 2.411 . S
Cd130 O133 2.333 . S
Cd130 O134 2.352 . S
Cd130 O138 2.277 . S
Cd130 O139 2.356 . S
C131 O136 1.209 . S
C131 O138 1.226 . S
O132 Cd128 2.273 . S
O132 Cd130 2.411 . S
O132 C135 1.320 . S
O133 Cd130 2.333 . S
O133 C135 1.214 . S
O134 Cd130 2.352 . S
O134 C137 1.258 . S
C135 O132 1.320 . S
C135 O133 1.214 . S
O136 Cd128 2.277 . S
O136 C131 1.209 . S
C137 O134 1.258 . S
C137 O139 1.282 . S
O138 Cd130 2.277 . S
O138 C131 1.226 . S
O139 Cd130 2.356 . S
O139 C137 1.282 . S
C140 O141 1.306 . S
C140 O143 1.160 . S
O141 C140 1.306 . S
O141 Cd142 2.228 . S
Cd142 O141 2.228 . S
Cd142 O146 2.273 . S
Cd142 O150 2.277 . S
O143 C140 1.160 . S
O143 Cd144 2.203 . S
Cd144 O143 2.203 . S
Cd144 O146 2.411 . S
Cd144 O147 2.333 . S
Cd144 O148 2.352 . S
Cd144 O152 2.277 . S
Cd144 O153 2.356 . S
C145 O150 1.209 . S
C145 O152 1.226 . S
O146 Cd142 2.273 . S
O146 Cd144 2.411 . S
O146 C149 1.320 . S
O147 Cd144 2.333 . S
O147 C149 1.214 . S
O148 Cd144 2.352 . S
O148 C151 1.258 . S
C149 O146 1.320 . S
C149 O147 1.214 . S
O150 Cd142 2.277 . S
O150 C145 1.209 . S
C151 O148 1.258 . S
C151 O153 1.282 . S
O152 Cd144 2.277 . S
O152 C145 1.226 . S
O153 Cd144 2.356 . S
O153 C151 1.282 . S
C154 O155 1.306 . S
C154 O157 1.160 . S
O155 C154 1.306 . S
O155 Cd156 2.228 . S
Cd156 O155 2.228 . S
Cd156 O160 2.273 . S
Cd156 O164 2.277 . S
O157 C154 1.160 . S
O157 Cd158 2.203 . S
Cd158 O157 2.203 . S
Cd158 O160 2.411 . S
Cd158 O161 2.333 . S
Cd158 O162 2.352 . S
Cd158 O166 2.277 . S
Cd158 O167 2.356 . S
C159 O164 1.209 . S
C159 O166 1.226 . S
O160 Cd156 2.273 . S
O160 Cd158 2.411 . S
O160 C163 1.320 . S
O161 Cd158 2.333 . S
O161 C163 1.214 . S
O162 Cd158 2.352 . S
O162 C165 1.258 . S
C163 O160 1.320 . S
C163 O161 1.214 . S
O164 Cd156 2.277 . S
O164 C159 1.209 . S
C165 O162 1.258 . S
C165 O167 1.282 . S
O166 Cd158 2.277 . S
O166 C159 1.226 . S
O167 Cd158 2.356 . S
O167 C165 1.282 . S
C168 O169 1.306 . S
C168 O171 1.160 . S
O169 C168 1.306 . S
O169 Cd170 2.228 . S
Cd170 O169 2.228 . S
Cd170 O174 2.273 . S
Cd170 O178 2.277 . S
O171 C168 1.160 . S
O171 Cd172 2.203 . S
Cd172 O171 2.203 . S
Cd172 O174 2.411 . S
Cd172 O175 2.333 . S
Cd172 O176 2.352 . S
Cd172 O180 2.277 . S
Cd172 O181 2.356 . S
C173 O178 1.209 . S
C173 O180 1.226 . S
O174 Cd170 2.273 . S
O174 Cd172 2.411 . S
O174 C177 1.320 . S
O175 Cd172 2.333 . S
O175 C177 1.214 . S
O176 Cd172 2.352 . S
O176 C179 1.258 . S
C177 O174 1.320 . S
C177 O175 1.214 . S
O178 Cd170 2.277 . S
O178 C173 1.209 . S
C179 O176 1.258 . S
C179 O181 1.282 . S
O180 Cd172 2.277 . S
O180 C173 1.226 . S
O181 Cd172 2.356 . S
O181 C179 1.282 . S
C182 O183 1.306 . S
C182 O185 1.160 . S
O183 C182 1.306 . S
O183 Cd184 2.228 . S
Cd184 O183 2.228 . S
Cd184 O188 2.273 . S
Cd184 O192 2.277 . S
O185 C182 1.160 . S
O185 Cd186 2.203 . S
Cd186 O185 2.203 . S
Cd186 O188 2.411 . S
Cd186 O189 2.333 . S
Cd186 O190 2.352 . S
Cd186 O194 2.277 . S
Cd186 O195 2.356 . S
C187 O192 1.209 . S
C187 O194 1.226 . S
O188 Cd184 2.273 . S
O188 Cd186 2.411 . S
O188 C191 1.320 . S
O189 Cd186 2.333 . S
O189 C191 1.214 . S
O190 Cd186 2.352 . S
O190 C193 1.258 . S
C191 O188 1.320 . S
C191 O189 1.214 . S
O192 Cd184 2.277 . S
O192 C187 1.209 . S
C193 O190 1.258 . S
C193 O195 1.282 . S
O194 Cd186 2.277 . S
O194 C187 1.226 . S
O195 Cd186 2.356 . S
O195 C193 1.282 . S
C196 O197 1.306 . S
C196 O199 1.160 . S
O197 C196 1.306 . S
O197 Cd198 2.228 . S
Cd198 O197 2.228 . S
Cd198 O202 2.273 . S
Cd198 O206 2.277 . S
O199 C196 1.160 . S
O199 Cd200 2.203 . S
Cd200 O199 2.203 . S
Cd200 O202 2.411 . S
Cd200 O203 2.333 . S
Cd200 O204 2.352 . S
Cd200 O208 2.277 . S
Cd200 O209 2.356 . S
C201 O206 1.209 . S
C201 O208 1.226 . S
O202 Cd198 2.273 . S
O202 Cd200 2.411 . S
O202 C205 1.320 . S
O203 Cd200 2.333 . S
O203 C205 1.214 . S
O204 Cd200 2.352 . S
O204 C207 1.258 . S
C205 O202 1.320 . S
C205 O203 1.214 . S
O206 Cd198 2.277 . S
O206 C201 1.209 . S
C207 O204 1.258 . S
C207 O209 1.282 . S
O208 Cd200 2.277 . S
O208 C201 1.226 . S
O209 Cd200 2.356 . S
O209 C207 1.282 . S
C210 O211 1.306 . S
C210 O213 1.160 . S
O211 C210 1.306 . S
O211 Cd212 2.228 . S
Cd212 O211 2.228 . S
Cd212 O216 2.273 . S
Cd212 O220 2.277 . S
O213 C210 1.160 . S
O213 Cd214 2.203 . S
Cd214 O213 2.203 . S
Cd214 O216 2.411 . S
Cd214 O217 2.333 . S
Cd214 O218 2.352 . S
Cd214 O222 2.277 . S
Cd214 O223 2.356 . S
C215 O220 1.209 . S
C215 O222 1.226 . S
O216 Cd212 2.273 . S
O216 Cd214 2.411 . S
O216 C219 1.320 . S
O217 Cd214 2.333 . S
O217 C219 1.214 . S
O218 Cd214 2.352 . S
O218 C221 1.258 . S
C219 O216 1.320 . S
C219 O217 1.214 . S
O220 Cd212 2.277 . S
O220 C215 1.209 . S
C221 O218 1.258 . S
C221 O223 1.282 . S
O222 Cd214 2.277 . S
O222 C215 1.226 . S
O223 Cd214 2.356 . S
O223 C221 1.282 . S
C224 O225 1.306 . S
C224 O227 1.160 . S
O225 C224 1.306 . S
O225 Cd226 2.228 . S
Cd226 O225 2.228 . S
Cd226 O230 2.273 . S
Cd226 O234 2.277 . S
O227 C224 1.160 . S
O227 Cd228 2.203 . S
Cd228 O227 2.203 . S
Cd228 O230 2.411 . S
Cd228 O231 2.333 . S
Cd228 O232 2.352 . S
Cd228 O236 2.277 . S
Cd228 O237 2.356 . S
C229 O234 1.209 . S
C229 O236 1.226 . S
O230 Cd226 2.273 . S
O230 Cd228 2.411 . S
O230 C233 1.320 . S
O231 Cd228 2.333 . S
O231 C233 1.214 . S
O232 Cd228 2.352 . S
O232 C235 1.258 . S
C233 O230 1.320 . S
C233 O231 1.214 . S
O234 Cd226 2.277 . S
O234 C229 1.209 . S
C235 O232 1.258 . S
C235 O237 1.282 . S
O236 Cd228 2.277 . S
O236 C229 1.226 . S
O237 Cd228 2.356 . S
O237 C235 1.282 . S
C238 O239 1.306 . S
C238 O241 1.160 . S
O239 C238 1.306 . S
O239 Cd240 2.228 . S
Cd240 O239 2.228 . S
Cd240 O244 2.273 . S
Cd240 O248 2.277 . S
O241 C238 1.160 . S
O241 Cd242 2.203 . S
Cd242 O241 2.203 . S
Cd242 O244 2.411 . S
Cd242 O245 2.333 . S
Cd242 O246 2.352 . S
Cd242 O250 2.277 . S
Cd242 O251 2.356 . S
C243 O248 1.209 . S
C243 O250 1.226 . S
O244 Cd240 2.273 . S
O244 Cd242 2.411 . S
O244 C247 1.320 . S
O245 Cd242 2.333 . S
O245 C247 1.214 . S
O246 Cd242 2.352 . S
O246 C249 1.258 . S
C247 O244 1.320 . S
C247 O245 1.214 . S
O248 Cd240 2.277 . S
O248 C243 1.209 . S
C249 O246 1.258 . S
C249 O251 1.282 . S
O250 Cd242 2.277 . S
O250 C243 1.226 . S
O251 Cd242 2.356 . S
O251 C249 1.282 . S
C252 O253 1.306 . S
C252 O255 1.160 . S
O253 C252 1.306 . S
O253 Cd254 2.228 . S
Cd254 O253 2.228 . S
Cd254 O258 2.273 . S
Cd254 O262 2.277 . S
O255 C252 1.160 . S
O255 Cd256 2.203 . S
Cd256 O255 2.203 . S
Cd256 O258 2.411 . S
Cd256 O259 2.333 . S
Cd256 O260 2.352 . S
Cd256 O264 2.277 . S
Cd256 O265 2.356 . S
C257 O262 1.209 . S
C257 O264 1.226 . S
O258 Cd254 2.273 . S
O258 Cd256 2.411 . S
O258 C261 1.320 . S
O259 Cd256 2.333 . S
O259 C261 1.214 . S
O260 Cd256 2.352 . S
O260 C263 1.258 . S
C261 O258 1.320 . S
C261 O259 1.214 . S
O262 Cd254 2.277 . S
O262 C257 1.209 . S
C263 O260 1.258 . S
C263 O265 1.282 . S
O264 Cd256 2.277 . S
O264 C257 1.226 . S
O265 Cd256 2.356 . S
O265 C263 1.282 . S
C266 O267 1.306 . S
C266 O269 1.160 . S
O267 C266 1.306 . S
O267 Cd268 2.228 . S
Cd268 O267 2.228 . S
Cd268 O272 2.273 . S
Cd268 O276 2.277 . S
O269 C266 1.160 . S
O269 Cd270 2.203 . S
Cd270 O269 2.203 . S
Cd270 O272 2.411 . S
Cd270 O273 2.333 . S
Cd270 O274 2.352 . S
Cd270 O278 2.277 . S
Cd270 O279 2.356 . S
C271 O276 1.209 . S
C271 O278 1.226 . S
O272 Cd268 2.273 . S
O272 Cd270 2.411 . S
O272 C275 1.320 . S
O273 Cd270 2.333 . S
O273 C275 1.214 . S
O274 Cd270 2.352 . S
O274 C277 1.258 . S
C275 O272 1.320 . S
C275 O273 1.214 . S
O276 Cd268 2.277 . S
O276 C271 1.209 . S
C277 O274 1.258 . S
C277 O279 1.282 . S
O278 Cd270 2.277 . S
O278 C271 1.226 . S
O279 Cd270 2.356 . S
O279 C277 1.282 . S
C280 O281 1.306 . S
C280 O283 1.160 . S
O281 C280 1.306 . S
O281 Cd282 2.228 . S
Cd282 O281 2.228 . S
Cd282 O286 2.273 . S
Cd282 O290 2.277 . S
O283 C280 1.160 . S
O283 Cd284 2.203 . S
Cd284 O283 2.203 . S
Cd284 O286 2.411 . S
Cd284 O287 2.333 . S
Cd284 O288 2.352 . S
Cd284 O292 2.277 . S
Cd284 O293 2.356 . S
C285 O290 1.209 . S
C285 O292 1.226 . S
O286 Cd282 2.273 . S
O286 Cd284 2.411 . S
O286 C289 1.320 . S
O287 Cd284 2.333 . S
O287 C289 1.214 . S
O288 Cd284 2.352 . S
O288 C291 1.258 . S
C289 O286 1.320 . S
C289 O287 1.214 . S
O290 Cd282 2.277 . S
O290 C285 1.209 . S
C291 O288 1.258 . S
C291 O293 1.282 . S
O292 Cd284 2.277 . S
O292 C285 1.226 . S
O293 Cd284 2.356 . S
O293 C291 1.282 . S
C294 O295 1.306 . S
C294 O297 1.160 . S
O295 C294 1.306 . S
O295 Cd296 2.228 . S
Cd296 O295 2.228 . S
Cd296 O300 2.273 . S
Cd296 O304 2.277 . S
O297 C294 1.160 . S
O297 Cd298 2.203 . S
Cd298 O297 2.203 . S
Cd298 O300 2.411 . S
Cd298 O301 2.333 . S
Cd298 O302 2.352 . S
Cd298 O306 2.277 . S
Cd298 O307 2.356 . S
C299 O304 1.209 . S
C299 O306 1.226 . S
O300 Cd296 2.273 . S
O300 Cd298 2.411 . S
O300 C303 1.320 . S
O301 Cd298 2.333 . S
O301 C303 1.214 . S
O302 Cd298 2.352 . S
O302 C305 1.258 . S
C303 O300 1.320 . S
C303 O301 1.214 . S
O304 Cd296 2.277 . S
O304 C299 1.209 . S
C305 O302 1.258 . S
C305 O307 1.282 . S
O306 Cd298 2.277 . S
O306 C299 1.226 . S
O307 Cd298 2.356 . S
O307 C305 1.282 . S
C308 O309 1.306 . S
C308 O311 1.160 . S
O309 C308 1.306 . S
O309 Cd310 2.228 . S
Cd310 O309 2.228 . S
Cd310 O314 2.273 . S
Cd310 O318 2.277 . S
O311 C308 1.160 . S
O311 Cd312 2.203 . S
Cd312 O311 2.203 . S
Cd312 O314 2.411 . S
Cd312 O315 2.333 . S
Cd312 O316 2.352 . S
Cd312 O320 2.277 . S
Cd312 O321 2.356 . S
C313 O318 1.209 . S
C313 O320 1.226 . S
O314 Cd310 2.273 . S
O314 Cd312 2.411 . S
O314 C317 1.320 . S
O315 Cd312 2.333 . S
O315 C317 1.214 . S
O316 Cd312 2.352 . S
O316 C319 1.258 . S
C317 O314 1.320 . S
C317 O315 1.214 . S
O318 Cd310 2.277 . S
O318 C313 1.209 . S
C319 O316 1.258 . S
C319 O321 1.282 . S
O320 Cd312 2.277 . S
O320 C313 1.226 . S
O321 Cd312 2.356 . S
O321 C319 1.282 . S
C322 O323 1.306 . S
C322 O325 1.160 . S
O323 C322 1.306 . S
O323 Cd324 2.228 . S
Cd324 O323 2.228 . S
Cd324 O328 2.273 . S
Cd324 O332 2.277 . S
O325 C322 1.160 . S
O325 Cd326 2.203 . S
Cd326 O325 2.203 . S
Cd326 O328 2.411 . S
Cd326 O329 2.333 . S
Cd326 O330 2.352 . S
Cd326 O334 2.277 . S
Cd326 O335 2.356 . S
C327 O332 1.209 . S
C327 O334 1.226 . S
O328 Cd324 2.273 . S
O328 Cd326 2.411 . S
O328 C331 1.320 . S
O329 Cd326 2.333 . S
O329 C331 1.214 . S
O330 Cd326 2.352 . S
O330 C333 1.258 . S
C331 O328 1.320 . S
C331 O329 1.214 . S
O332 Cd324 2.277 . S
O332 C327 1.209 . S
C333 O330 1.258 . S
C333 O335 1.282 . S
O334 Cd326 2.277 . S
O334 C327 1.226 . S
O335 Cd326 2.356 . S
O335 C333 1.282 . S
H336 C342 0.930 . S
H337 C346 0.930 . S
H338 C351 0.929 . S
H339 C349 0.929 . S
H340 C344 0.929 . S
H341 C350 0.929 . S
C342 H336 0.930 . S
C342 C343 1.367 . S
C342 C350 1.378 . S
C343 C342 1.367 . S
C343 C351 1.433 . S
C344 H340 0.929 . S
C344 C346 1.378 . S
C344 C348 1.350 . S
C345 C348 1.463 1_545 S
C345 C350 1.350 . S
C345 N353 1.427 . S
C346 H337 0.930 . S
C346 C344 1.378 . S
C346 C347 1.367 . S
C347 C346 1.367 . S
C347 C349 1.433 . S
C348 C344 1.350 . S
C348 C345 1.463 1_565 S
C348 N352 1.427 . S
C349 H339 0.929 . S
C349 C347 1.433 . S
C349 N352 1.384 . S
C350 H341 0.929 . S
C350 C342 1.378 . S
C350 C345 1.350 . S
C351 H338 0.929 . S
C351 C343 1.433 . S
C351 N353 1.384 . S
N352 C348 1.427 . S
N352 C349 1.384 . S
N353 C345 1.427 . S
N353 C351 1.384 . S
H354 C360 0.930 . S
H355 C364 0.930 . S
H356 C369 0.929 . S
H357 C367 0.929 . S
H358 C362 0.929 . S
H359 C368 0.929 . S
C360 H354 0.930 . S
C360 C361 1.367 . S
C360 C368 1.378 . S
C361 C360 1.367 . S
C361 C369 1.433 . S
C362 H358 0.929 . S
C362 C364 1.378 . S
C362 C366 1.350 . S
C363 C366 1.463 . S
C363 C368 1.350 . S
C363 N371 1.427 . S
C364 H355 0.930 . S
C364 C362 1.378 . S
C364 C365 1.367 . S
C365 C364 1.367 . S
C365 C367 1.433 . S
C366 C362 1.350 . S
C366 C363 1.463 . S
C366 N370 1.427 . S
C367 H357 0.929 . S
C367 C365 1.433 . S
C367 N370 1.384 . S
C368 H359 0.929 . S
C368 C360 1.378 . S
C368 C363 1.350 . S
C369 H356 0.929 . S
C369 C361 1.433 . S
C369 N371 1.384 . S
N370 C366 1.427 . S
N370 C367 1.384 . S
N371 C363 1.427 . S
N371 C369 1.384 . S
H372 C378 0.930 . S
H373 C382 0.930 . S
H374 C387 0.929 . S
H375 C385 0.929 . S
H376 C380 0.929 . S
H377 C386 0.929 . S
C378 H372 0.930 . S
C378 C379 1.367 . S
C378 C386 1.378 . S
C379 C378 1.367 . S
C379 C387 1.433 . S
C380 H376 0.929 . S
C380 C382 1.378 . S
C380 C384 1.350 . S
C381 C384 1.463 1_655 S
C381 C386 1.350 . S
C381 N389 1.427 . S
C382 H373 0.930 . S
C382 C380 1.378 . S
C382 C383 1.367 . S
C383 C382 1.367 . S
C383 C385 1.433 . S
C384 C380 1.350 . S
C384 C381 1.463 1_455 S
C384 N388 1.427 . S
C385 H375 0.929 . S
C385 C383 1.433 . S
C385 N388 1.384 . S
C386 H377 0.929 . S
C386 C378 1.378 . S
C386 C381 1.350 . S
C387 H374 0.929 . S
C387 C379 1.433 . S
C387 N389 1.384 . S
N388 C384 1.427 . S
N388 C385 1.384 . S
N389 C381 1.427 . S
N389 C387 1.384 . S
H390 C396 0.930 . S
H391 C400 0.930 . S
H392 C405 0.929 . S
H393 C403 0.929 . S
H394 C398 0.929 . S
H395 C404 0.929 . S
C396 H390 0.930 . S
C396 C397 1.367 . S
C396 C404 1.378 . S
C397 C396 1.367 . S
C397 C405 1.433 . S
C398 H394 0.929 . S
C398 C400 1.378 . S
C398 C402 1.350 . S
C399 C402 1.463 1_565 S
C399 C404 1.350 . S
C399 N407 1.427 . S
C400 H391 0.930 . S
C400 C398 1.378 . S
C400 C401 1.367 . S
C401 C400 1.367 . S
C401 C403 1.433 . S
C402 C398 1.350 . S
C402 C399 1.463 1_545 S
C402 N406 1.427 . S
C403 H393 0.929 . S
C403 C401 1.433 . S
C403 N406 1.384 . S
C404 H395 0.929 . S
C404 C396 1.378 . S
C404 C399 1.350 . S
C405 H392 0.929 . S
C405 C397 1.433 . S
C405 N407 1.384 . S
N406 C402 1.427 . S
N406 C403 1.384 . S
N407 C399 1.427 . S
N407 C405 1.384 . S
H408 C414 0.930 . S
H409 C418 0.930 . S
H410 C423 0.929 . S
H411 C421 0.929 . S
H412 C416 0.929 . S
H413 C422 0.929 . S
C414 H408 0.930 . S
C414 C415 1.367 . S
C414 C422 1.378 . S
C415 C414 1.367 . S
C415 C423 1.433 . S
C416 H412 0.929 . S
C416 C418 1.378 . S
C416 C420 1.350 . S
C417 C420 1.463 . S
C417 C422 1.350 . S
C417 N425 1.427 . S
C418 H409 0.930 . S
C418 C416 1.378 . S
C418 C419 1.367 . S
C419 C418 1.367 . S
C419 C421 1.433 . S
C420 C416 1.350 . S
C420 C417 1.463 . S
C420 N424 1.427 . S
C421 H411 0.929 . S
C421 C419 1.433 . S
C421 N424 1.384 . S
C422 H413 0.929 . S
C422 C414 1.378 . S
C422 C417 1.350 . S
C423 H410 0.929 . S
C423 C415 1.433 . S
C423 N425 1.384 . S
N424 C420 1.427 . S
N424 C421 1.384 . S
N425 C417 1.427 . S
N425 C423 1.384 . S
H426 C432 0.930 . S
H427 C436 0.930 . S
H428 C441 0.929 . S
H429 C439 0.929 . S
H430 C434 0.929 . S
H431 C440 0.929 . S
C432 H426 0.930 . S
C432 C433 1.367 . S
C432 C440 1.378 . S
C433 C432 1.367 . S
C433 C441 1.433 . S
C434 H430 0.929 . S
C434 C436 1.378 . S
C434 C438 1.350 . S
C435 C438 1.463 1_455 S
C435 C440 1.350 . S
C435 N443 1.427 . S
C436 H427 0.930 . S
C436 C434 1.378 . S
C436 C437 1.367 . S
C437 C436 1.367 . S
C437 C439 1.433 . S
C438 C434 1.350 . S
C438 C435 1.463 1_655 S
C438 N442 1.427 . S
C439 H429 0.929 . S
C439 C437 1.433 . S
C439 N442 1.384 . S
C440 H431 0.929 . S
C440 C432 1.378 . S
C440 C435 1.350 . S
C441 H428 0.929 . S
C441 C433 1.433 . S
C441 N443 1.384 . S
N442 C438 1.427 . S
N442 C439 1.384 . S
N443 C435 1.427 . S
N443 C441 1.384 . S
H444 C450 0.930 . S
H445 C454 0.930 . S
H446 C459 0.929 . S
H447 C457 0.929 . S
H448 C452 0.929 . S
H449 C458 0.929 . S
C450 H444 0.930 . S
C450 C451 1.367 . S
C450 C458 1.378 . S
C451 C450 1.367 . S
C451 C459 1.433 . S
C452 H448 0.929 . S
C452 C454 1.378 . S
C452 C456 1.350 . S
C453 C456 1.463 1_565 S
C453 C458 1.350 . S
C453 N461 1.427 . S
C454 H445 0.930 . S
C454 C452 1.378 . S
C454 C455 1.367 . S
C455 C454 1.367 . S
C455 C457 1.433 . S
C456 C452 1.350 . S
C456 C453 1.463 1_545 S
C456 N460 1.427 . S
C457 H447 0.929 . S
C457 C455 1.433 . S
C457 N460 1.384 . S
C458 H449 0.929 . S
C458 C450 1.378 . S
C458 C453 1.350 . S
C459 H446 0.929 . S
C459 C451 1.433 . S
C459 N461 1.384 . S
N460 C456 1.427 . S
N460 C457 1.384 . S
N461 C453 1.427 . S
N461 C459 1.384 . S
H462 C468 0.930 . S
H463 C472 0.930 . S
H464 C477 0.929 . S
H465 C475 0.929 . S
H466 C470 0.929 . S
H467 C476 0.929 . S
C468 H462 0.930 . S
C468 C469 1.367 . S
C468 C476 1.378 . S
C469 C468 1.367 . S
C469 C477 1.433 . S
C470 H466 0.929 . S
C470 C472 1.378 . S
C470 C474 1.350 . S
C471 C474 1.463 . S
C471 C476 1.350 . S
C471 N479 1.427 . S
C472 H463 0.930 . S
C472 C470 1.378 . S
C472 C473 1.367 . S
C473 C472 1.367 . S
C473 C475 1.433 . S
C474 C470 1.350 . S
C474 C471 1.463 . S
C474 N478 1.427 . S
C475 H465 0.929 . S
C475 C473 1.433 . S
C475 N478 1.384 . S
C476 H467 0.929 . S
C476 C468 1.378 . S
C476 C471 1.350 . S
C477 H464 0.929 . S
C477 C469 1.433 . S
C477 N479 1.384 . S
N478 C474 1.427 . S
N478 C475 1.384 . S
N479 C471 1.427 . S
N479 C477 1.384 . S
H480 C486 0.930 . S
H481 C490 0.930 . S
H482 C495 0.929 . S
H483 C493 0.929 . S
H484 C488 0.929 . S
H485 C494 0.929 . S
C486 H480 0.930 . S
C486 C487 1.367 . S
C486 C494 1.378 . S
C487 C486 1.367 . S
C487 C495 1.433 . S
C488 H484 0.929 . S
C488 C490 1.378 . S
C488 C492 1.350 . S
C489 C492 1.463 1_655 S
C489 C494 1.350 . S
C489 N497 1.427 . S
C490 H481 0.930 . S
C490 C488 1.378 . S
C490 C491 1.367 . S
C491 C490 1.367 . S
C491 C493 1.433 . S
C492 C488 1.350 . S
C492 C489 1.463 1_455 S
C492 N496 1.427 . S
C493 H483 0.929 . S
C493 C491 1.433 . S
C493 N496 1.384 . S
C494 H485 0.929 . S
C494 C486 1.378 . S
C494 C489 1.350 . S
C495 H482 0.929 . S
C495 C487 1.433 . S
C495 N497 1.384 . S
N496 C492 1.427 . S
N496 C493 1.384 . S
N497 C489 1.427 . S
N497 C495 1.384 . S
H498 C504 0.930 . S
H499 C508 0.930 . S
H500 C513 0.929 . S
H501 C511 0.929 . S
H502 C506 0.929 . S
H503 C512 0.929 . S
C504 H498 0.930 . S
C504 C505 1.367 . S
C504 C512 1.378 . S
C505 C504 1.367 . S
C505 C513 1.433 . S
C506 H502 0.929 . S
C506 C508 1.378 . S
C506 C510 1.350 . S
C507 C510 1.463 1_545 S
C507 C512 1.350 . S
C507 N515 1.427 . S
C508 H499 0.930 . S
C508 C506 1.378 . S
C508 C509 1.367 . S
C509 C508 1.367 . S
C509 C511 1.433 . S
C510 C506 1.350 . S
C510 C507 1.463 1_565 S
C510 N514 1.427 . S
C511 H501 0.929 . S
C511 C509 1.433 . S
C511 N514 1.384 . S
C512 H503 0.929 . S
C512 C504 1.378 . S
C512 C507 1.350 . S
C513 H500 0.929 . S
C513 C505 1.433 . S
C513 N515 1.384 . S
N514 C510 1.427 . S
N514 C511 1.384 . S
N515 C507 1.427 . S
N515 C513 1.384 . S
H516 C522 0.930 . S
H517 C526 0.930 . S
H518 C531 0.929 . S
H519 C529 0.929 . S
H520 C524 0.929 . S
H521 C530 0.929 . S
C522 H516 0.930 . S
C522 C523 1.367 . S
C522 C530 1.378 . S
C523 C522 1.367 . S
C523 C531 1.433 . S
C524 H520 0.929 . S
C524 C526 1.378 . S
C524 C528 1.350 . S
C525 C528 1.463 . S
C525 C530 1.350 . S
C525 N533 1.427 . S
C526 H517 0.930 . S
C526 C524 1.378 . S
C526 C527 1.367 . S
C527 C526 1.367 . S
C527 C529 1.433 . S
C528 C524 1.350 . S
C528 C525 1.463 . S
C528 N532 1.427 . S
C529 H519 0.929 . S
C529 C527 1.433 . S
C529 N532 1.384 . S
C530 H521 0.929 . S
C530 C522 1.378 . S
C530 C525 1.350 . S
C531 H518 0.929 . S
C531 C523 1.433 . S
C531 N533 1.384 . S
N532 C528 1.427 . S
N532 C529 1.384 . S
N533 C525 1.427 . S
N533 C531 1.384 . S
H534 C540 0.930 . S
H535 C544 0.930 . S
H536 C549 0.929 . S
H537 C547 0.929 . S
H538 C542 0.929 . S
H539 C548 0.929 . S
C540 H534 0.930 . S
C540 C541 1.367 . S
C540 C548 1.378 . S
C541 C540 1.367 . S
C541 C549 1.433 . S
C542 H538 0.929 . S
C542 C544 1.378 . S
C542 C546 1.350 . S
C543 C546 1.463 1_455 S
C543 C548 1.350 . S
C543 N551 1.427 . S
C544 H535 0.930 . S
C544 C542 1.378 . S
C544 C545 1.367 . S
C545 C544 1.367 . S
C545 C547 1.433 . S
C546 C542 1.350 . S
C546 C543 1.463 1_655 S
C546 N550 1.427 . S
C547 H537 0.929 . S
C547 C545 1.433 . S
C547 N550 1.384 . S
C548 H539 0.929 . S
C548 C540 1.378 . S
C548 C543 1.350 . S
C549 H536 0.929 . S
C549 C541 1.433 . S
C549 N551 1.384 . S
N550 C546 1.427 . S
N550 C547 1.384 . S
N551 C543 1.427 . S
N551 C549 1.384 . S
H552 C558 0.930 . S
H553 C562 0.930 . S
H554 C567 0.929 . S
H555 C565 0.929 . S
H556 C560 0.929 . S
H557 C566 0.929 . S
C558 H552 0.930 . S
C558 C559 1.367 . S
C558 C566 1.378 . S
C559 C558 1.367 . S
C559 C567 1.433 . S
C560 H556 0.929 . S
C560 C562 1.378 . S
C560 C564 1.350 . S
C561 C564 1.463 . S
C561 C566 1.350 . S
C561 N569 1.427 . S
C562 H553 0.930 . S
C562 C560 1.378 . S
C562 C563 1.367 . S
C563 C562 1.367 . S
C563 C565 1.433 . S
C564 C560 1.350 . S
C564 C561 1.463 . S
C564 N568 1.427 . S
C565 H555 0.929 . S
C565 C563 1.433 . S
C565 N568 1.384 . S
C566 H557 0.929 . S
C566 C558 1.378 . S
C566 C561 1.350 . S
C567 H554 0.929 . S
C567 C559 1.433 . S
C567 N569 1.384 . S
N568 C564 1.427 . S
N568 C565 1.384 . S
N569 C561 1.427 . S
N569 C567 1.384 . S
H570 C576 0.930 . S
H571 C580 0.930 . S
H572 C585 0.929 . S
H573 C583 0.929 . S
H574 C578 0.929 . S
H575 C584 0.929 . S
C576 H570 0.930 . S
C576 C577 1.367 . S
C576 C584 1.378 . S
C577 C576 1.367 . S
C577 C585 1.433 . S
C578 H574 0.929 . S
C578 C580 1.378 . S
C578 C582 1.350 . S
C579 C582 1.463 . S
C579 C584 1.350 . S
C579 N587 1.427 . S
C580 H571 0.930 . S
C580 C578 1.378 . S
C580 C581 1.367 . S
C581 C580 1.367 . S
C581 C583 1.433 . S
C582 C578 1.350 . S
C582 C579 1.463 . S
C582 N586 1.427 . S
C583 H573 0.929 . S
C583 C581 1.433 . S
C583 N586 1.384 . S
C584 H575 0.929 . S
C584 C576 1.378 . S
C584 C579 1.350 . S
C585 H572 0.929 . S
C585 C577 1.433 . S
C585 N587 1.384 . S
N586 C582 1.427 . S
N586 C583 1.384 . S
N587 C579 1.427 . S
N587 C585 1.384 . S
H588 C594 0.930 . S
H589 C598 0.930 . S
H590 C603 0.929 . S
H591 C601 0.929 . S
H592 C596 0.929 . S
H593 C602 0.929 . S
C594 H588 0.930 . S
C594 C595 1.367 . S
C594 C602 1.378 . S
C595 C594 1.367 . S
C595 C603 1.433 . S
C596 H592 0.929 . S
C596 C598 1.378 . S
C596 C600 1.350 . S
C597 C600 1.463 . S
C597 C602 1.350 . S
C597 N605 1.427 . S
C598 H589 0.930 . S
C598 C596 1.378 . S
C598 C599 1.367 . S
C599 C598 1.367 . S
C599 C601 1.433 . S
C600 C596 1.350 . S
C600 C597 1.463 . S
C600 N604 1.427 . S
C601 H591 0.929 . S
C601 C599 1.433 . S
C601 N604 1.384 . S
C602 H593 0.929 . S
C602 C594 1.378 . S
C602 C597 1.350 . S
C603 H590 0.929 . S
C603 C595 1.433 . S
C603 N605 1.384 . S
N604 C600 1.427 . S
N604 C601 1.384 . S
N605 C597 1.427 . S
N605 C603 1.384 . S
H606 C612 0.930 . S
H607 C616 0.930 . S
H608 C621 0.929 . S
H609 C619 0.929 . S
H610 C614 0.929 . S
H611 C620 0.929 . S
C612 H606 0.930 . S
C612 C613 1.367 . S
C612 C620 1.378 . S
C613 C612 1.367 . S
C613 C621 1.433 . S
C614 H610 0.929 . S
C614 C616 1.378 . S
C614 C618 1.350 . S
C615 C618 1.463 . S
C615 C620 1.350 . S
C615 N623 1.427 . S
C616 H607 0.930 . S
C616 C614 1.378 . S
C616 C617 1.367 . S
C617 C616 1.367 . S
C617 C619 1.433 . S
C618 C614 1.350 . S
C618 C615 1.463 . S
C618 N622 1.427 . S
C619 H609 0.929 . S
C619 C617 1.433 . S
C619 N622 1.384 . S
C620 H611 0.929 . S
C620 C612 1.378 . S
C620 C615 1.350 . S
C621 H608 0.929 . S
C621 C613 1.433 . S
C621 N623 1.384 . S
N622 C618 1.427 . S
N622 C619 1.384 . S
N623 C615 1.427 . S
N623 C621 1.384 . S
H624 C630 0.930 . S
H625 C634 0.930 . S
H626 C639 0.929 . S
H627 C637 0.929 . S
H628 C632 0.929 . S
H629 C638 0.929 . S
C630 H624 0.930 . S
C630 C631 1.367 . S
C630 C638 1.378 . S
C631 C630 1.367 . S
C631 C639 1.433 . S
C632 H628 0.929 . S
C632 C634 1.378 . S
C632 C636 1.350 . S
C633 C636 1.463 . S
C633 C638 1.350 . S
C633 N641 1.427 . S
C634 H625 0.930 . S
C634 C632 1.378 . S
C634 C635 1.367 . S
C635 C634 1.367 . S
C635 C637 1.433 . S
C636 C632 1.350 . S
C636 C633 1.463 . S
C636 N640 1.427 . S
C637 H627 0.929 . S
C637 C635 1.433 . S
C637 N640 1.384 . S
C638 H629 0.929 . S
C638 C630 1.378 . S
C638 C633 1.350 . S
C639 H626 0.929 . S
C639 C631 1.433 . S
C639 N641 1.384 . S
N640 C636 1.427 . S
N640 C637 1.384 . S
N641 C633 1.427 . S
N641 C639 1.384 . S
H642 C648 0.930 . S
H643 C652 0.930 . S
H644 C657 0.929 . S
H645 C655 0.929 . S
H646 C650 0.929 . S
H647 C656 0.929 . S
C648 H642 0.930 . S
C648 C649 1.367 . S
C648 C656 1.378 . S
C649 C648 1.367 . S
C649 C657 1.433 . S
C650 H646 0.929 . S
C650 C652 1.378 . S
C650 C654 1.350 . S
C651 C654 1.463 . S
C651 C656 1.350 . S
C651 N659 1.427 . S
C652 H643 0.930 . S
C652 C650 1.378 . S
C652 C653 1.367 . S
C653 C652 1.367 . S
C653 C655 1.433 . S
C654 C650 1.350 . S
C654 C651 1.463 . S
C654 N658 1.427 . S
C655 H645 0.929 . S
C655 C653 1.433 . S
C655 N658 1.384 . S
C656 H647 0.929 . S
C656 C648 1.378 . S
C656 C651 1.350 . S
C657 H644 0.929 . S
C657 C649 1.433 . S
C657 N659 1.384 . S
N658 C654 1.427 . S
N658 C655 1.384 . S
N659 C651 1.427 . S
N659 C657 1.384 . S
H660 C666 0.930 . S
H661 C670 0.930 . S
H662 C675 0.929 . S
H663 C673 0.929 . S
H664 C668 0.929 . S
H665 C674 0.929 . S
C666 H660 0.930 . S
C666 C667 1.367 . S
C666 C674 1.378 . S
C667 C666 1.367 . S
C667 C675 1.433 . S
C668 H664 0.929 . S
C668 C670 1.378 . S
C668 C672 1.350 . S
C669 C672 1.463 . S
C669 C674 1.350 . S
C669 N677 1.427 . S
C670 H661 0.930 . S
C670 C668 1.378 . S
C670 C671 1.367 . S
C671 C670 1.367 . S
C671 C673 1.433 . S
C672 C668 1.350 . S
C672 C669 1.463 . S
C672 N676 1.427 . S
C673 H663 0.929 . S
C673 C671 1.433 . S
C673 N676 1.384 . S
C674 H665 0.929 . S
C674 C666 1.378 . S
C674 C669 1.350 . S
C675 H662 0.929 . S
C675 C667 1.433 . S
C675 N677 1.384 . S
N676 C672 1.427 . S
N676 C673 1.384 . S
N677 C669 1.427 . S
N677 C675 1.384 . S
H678 C684 0.930 . S
H679 C688 0.930 . S
H680 C693 0.929 . S
H681 C691 0.929 . S
H682 C686 0.929 . S
H683 C692 0.929 . S
C684 H678 0.930 . S
C684 C685 1.367 . S
C684 C692 1.378 . S
C685 C684 1.367 . S
C685 C693 1.433 . S
C686 H682 0.929 . S
C686 C688 1.378 . S
C686 C690 1.350 . S
C687 C690 1.463 . S
C687 C692 1.350 . S
C687 N695 1.427 . S
C688 H679 0.930 . S
C688 C686 1.378 . S
C688 C689 1.367 . S
C689 C688 1.367 . S
C689 C691 1.433 . S
C690 C686 1.350 . S
C690 C687 1.463 . S
C690 N694 1.427 . S
C691 H681 0.929 . S
C691 C689 1.433 . S
C691 N694 1.384 . S
C692 H683 0.929 . S
C692 C684 1.378 . S
C692 C687 1.350 . S
C693 H680 0.929 . S
C693 C685 1.433 . S
C693 N695 1.384 . S
N694 C690 1.427 . S
N694 C691 1.384 . S
N695 C687 1.427 . S
N695 C693 1.384 . S
H696 C702 0.930 . S
H697 C706 0.930 . S
H698 C711 0.929 . S
H699 C709 0.929 . S
H700 C704 0.929 . S
H701 C710 0.929 . S
C702 H696 0.930 . S
C702 C703 1.367 . S
C702 C710 1.378 . S
C703 C702 1.367 . S
C703 C711 1.433 . S
C704 H700 0.929 . S
C704 C706 1.378 . S
C704 C708 1.350 . S
C705 C708 1.463 . S
C705 C710 1.350 . S
C705 N713 1.427 . S
C706 H697 0.930 . S
C706 C704 1.378 . S
C706 C707 1.367 . S
C707 C706 1.367 . S
C707 C709 1.433 . S
C708 C704 1.350 . S
C708 C705 1.463 . S
C708 N712 1.427 . S
C709 H699 0.929 . S
C709 C707 1.433 . S
C709 N712 1.384 . S
C710 H701 0.929 . S
C710 C702 1.378 . S
C710 C705 1.350 . S
C711 H698 0.929 . S
C711 C703 1.433 . S
C711 N713 1.384 . S
N712 C708 1.427 . S
N712 C709 1.384 . S
N713 C705 1.427 . S
N713 C711 1.384 . S
H714 C720 0.930 . S
H715 C724 0.930 . S
H716 C729 0.929 . S
H717 C727 0.929 . S
H718 C722 0.929 . S
H719 C728 0.929 . S
C720 H714 0.930 . S
C720 C721 1.367 . S
C720 C728 1.378 . S
C721 C720 1.367 . S
C721 C729 1.433 . S
C722 H718 0.929 . S
C722 C724 1.378 . S
C722 C726 1.350 . S
C723 C726 1.463 . S
C723 C728 1.350 . S
C723 N731 1.427 . S
C724 H715 0.930 . S
C724 C722 1.378 . S
C724 C725 1.367 . S
C725 C724 1.367 . S
C725 C727 1.433 . S
C726 C722 1.350 . S
C726 C723 1.463 . S
C726 N730 1.427 . S
C727 H717 0.929 . S
C727 C725 1.433 . S
C727 N730 1.384 . S
C728 H719 0.929 . S
C728 C720 1.378 . S
C728 C723 1.350 . S
C729 H716 0.929 . S
C729 C721 1.433 . S
C729 N731 1.384 . S
N730 C726 1.427 . S
N730 C727 1.384 . S
N731 C723 1.427 . S
N731 C729 1.384 . S
H732 C738 0.930 . S
H733 C742 0.930 . S
H734 C747 0.929 . S
H735 C745 0.929 . S
H736 C740 0.929 . S
H737 C746 0.929 . S
C738 H732 0.930 . S
C738 C739 1.367 . S
C738 C746 1.378 . S
C739 C738 1.367 . S
C739 C747 1.433 . S
C740 H736 0.929 . S
C740 C742 1.378 . S
C740 C744 1.350 . S
C741 C744 1.463 . S
C741 C746 1.350 . S
C741 N749 1.427 . S
C742 H733 0.930 . S
C742 C740 1.378 . S
C742 C743 1.367 . S
C743 C742 1.367 . S
C743 C745 1.433 . S
C744 C740 1.350 . S
C744 C741 1.463 . S
C744 N748 1.427 . S
C745 H735 0.929 . S
C745 C743 1.433 . S
C745 N748 1.384 . S
C746 H737 0.929 . S
C746 C738 1.378 . S
C746 C741 1.350 . S
C747 H734 0.929 . S
C747 C739 1.433 . S
C747 N749 1.384 . S
N748 C744 1.427 . S
N748 C745 1.384 . S
N749 C741 1.427 . S
N749 C747 1.384 . S
H750 C756 0.930 . S
H751 C760 0.930 . S
H752 C765 0.929 . S
H753 C763 0.929 . S
H754 C758 0.929 . S
H755 C764 0.929 . S
C756 H750 0.930 . S
C756 C757 1.367 . S
C756 C764 1.378 . S
C757 C756 1.367 . S
C757 C765 1.433 . S
C758 H754 0.929 . S
C758 C760 1.378 . S
C758 C762 1.350 . S
C759 C762 1.463 . S
C759 C764 1.350 . S
C759 N767 1.427 . S
C760 H751 0.930 . S
C760 C758 1.378 . S
C760 C761 1.367 . S
C761 C760 1.367 . S
C761 C763 1.433 . S
C762 C758 1.350 . S
C762 C759 1.463 . S
C762 N766 1.427 . S
C763 H753 0.929 . S
C763 C761 1.433 . S
C763 N766 1.384 . S
C764 H755 0.929 . S
C764 C756 1.378 . S
C764 C759 1.350 . S
C765 H752 0.929 . S
C765 C757 1.433 . S
C765 N767 1.384 . S
N766 C762 1.427 . S
N766 C763 1.384 . S
N767 C759 1.427 . S
N767 C765 1.384 . S
H768 C774 0.930 . S
H769 C778 0.930 . S
H770 C783 0.929 . S
H771 C781 0.929 . S
H772 C776 0.929 . S
H773 C782 0.929 . S
C774 H768 0.930 . S
C774 C775 1.367 . S
C774 C782 1.378 . S
C775 C774 1.367 . S
C775 C783 1.433 . S
C776 H772 0.929 . S
C776 C778 1.378 . S
C776 C780 1.350 . S
C777 C780 1.463 1_554 S
C777 C782 1.350 . S
C777 N785 1.427 . S
C778 H769 0.930 . S
C778 C776 1.378 . S
C778 C779 1.367 . S
C779 C778 1.367 . S
C779 C781 1.433 . S
C780 C776 1.350 . S
C780 C777 1.463 1_556 S
C780 N784 1.427 . S
C781 H771 0.929 . S
C781 C779 1.433 . S
C781 N784 1.384 . S
C782 H773 0.929 . S
C782 C774 1.378 . S
C782 C777 1.350 . S
C783 H770 0.929 . S
C783 C775 1.433 . S
C783 N785 1.384 . S
N784 C780 1.427 . S
N784 C781 1.384 . S
N785 C777 1.427 . S
N785 C783 1.384 . S
H786 C792 0.930 . S
H787 C796 0.930 . S
H788 C801 0.929 . S
H789 C799 0.929 . S
H790 C794 0.929 . S
H791 C800 0.929 . S
C792 H786 0.930 . S
C792 C793 1.367 . S
C792 C800 1.378 . S
C793 C792 1.367 . S
C793 C801 1.433 . S
C794 H790 0.929 . S
C794 C796 1.378 . S
C794 C798 1.350 . S
C795 C798 1.463 1_556 S
C795 C800 1.350 . S
C795 N803 1.427 . S
C796 H787 0.930 . S
C796 C794 1.378 . S
C796 C797 1.367 . S
C797 C796 1.367 . S
C797 C799 1.433 . S
C798 C794 1.350 . S
C798 C795 1.463 1_554 S
C798 N802 1.427 . S
C799 H789 0.929 . S
C799 C797 1.433 . S
C799 N802 1.384 . S
C800 H791 0.929 . S
C800 C792 1.378 . S
C800 C795 1.350 . S
C801 H788 0.929 . S
C801 C793 1.433 . S
C801 N803 1.384 . S
N802 C798 1.427 . S
N802 C799 1.384 . S
N803 C795 1.427 . S
N803 C801 1.384 . S
H804 C810 0.930 . S
H805 C814 0.930 . S
H806 C819 0.929 . S
H807 C817 0.929 . S
H808 C812 0.929 . S
H809 C818 0.929 . S
C810 H804 0.930 . S
C810 C811 1.367 . S
C810 C818 1.378 . S
C811 C810 1.367 . S
C811 C819 1.433 . S
C812 H808 0.929 . S
C812 C814 1.378 . S
C812 C816 1.350 . S
C813 C816 1.463 1_556 S
C813 C818 1.350 . S
C813 N821 1.427 . S
C814 H805 0.930 . S
C814 C812 1.378 . S
C814 C815 1.367 . S
C815 C814 1.367 . S
C815 C817 1.433 . S
C816 C812 1.350 . S
C816 C813 1.463 1_554 S
C816 N820 1.427 . S
C817 H807 0.929 . S
C817 C815 1.433 . S
C817 N820 1.384 . S
C818 H809 0.929 . S
C818 C810 1.378 . S
C818 C813 1.350 . S
C819 H806 0.929 . S
C819 C811 1.433 . S
C819 N821 1.384 . S
N820 C816 1.427 . S
N820 C817 1.384 . S
N821 C813 1.427 . S
N821 C819 1.384 . S
H822 C828 0.930 . S
H823 C832 0.930 . S
H824 C837 0.929 . S
H825 C835 0.929 . S
H826 C830 0.929 . S
H827 C836 0.929 . S
C828 H822 0.930 . S
C828 C829 1.367 . S
C828 C836 1.378 . S
C829 C828 1.367 . S
C829 C837 1.433 . S
C830 H826 0.929 . S
C830 C832 1.378 . S
C830 C834 1.350 . S
C831 C834 1.463 1_554 S
C831 C836 1.350 . S
C831 N839 1.427 . S
C832 H823 0.930 . S
C832 C830 1.378 . S
C832 C833 1.367 . S
C833 C832 1.367 . S
C833 C835 1.433 . S
C834 C830 1.350 . S
C834 C831 1.463 1_556 S
C834 N838 1.427 . S
C835 H825 0.929 . S
C835 C833 1.433 . S
C835 N838 1.384 . S
C836 H827 0.929 . S
C836 C828 1.378 . S
C836 C831 1.350 . S
C837 H824 0.929 . S
C837 C829 1.433 . S
C837 N839 1.384 . S
N838 C834 1.427 . S
N838 C835 1.384 . S
N839 C831 1.427 . S
N839 C837 1.384 . S
H840 C846 0.930 . S
H841 C850 0.930 . S
H842 C855 0.929 . S
H843 C853 0.929 . S
H844 C848 0.929 . S
H845 C854 0.929 . S
C846 H840 0.930 . S
C846 C847 1.367 . S
C846 C854 1.378 . S
C847 C846 1.367 . S
C847 C855 1.433 . S
C848 H844 0.929 . S
C848 C850 1.378 . S
C848 C852 1.350 . S
C849 C852 1.463 1_554 S
C849 C854 1.350 . S
C849 N857 1.427 . S
C850 H841 0.930 . S
C850 C848 1.378 . S
C850 C851 1.367 . S
C851 C850 1.367 . S
C851 C853 1.433 . S
C852 C848 1.350 . S
C852 C849 1.463 1_556 S
C852 N856 1.427 . S
C853 H843 0.929 . S
C853 C851 1.433 . S
C853 N856 1.384 . S
C854 H845 0.929 . S
C854 C846 1.378 . S
C854 C849 1.350 . S
C855 H842 0.929 . S
C855 C847 1.433 . S
C855 N857 1.384 . S
N856 C852 1.427 . S
N856 C853 1.384 . S
N857 C849 1.427 . S
N857 C855 1.384 . S
H858 C864 0.930 . S
H859 C868 0.930 . S
H860 C873 0.929 . S
H861 C871 0.929 . S
H862 C866 0.929 . S
H863 C872 0.929 . S
C864 H858 0.930 . S
C864 C865 1.367 . S
C864 C872 1.378 . S
C865 C864 1.367 . S
C865 C873 1.433 . S
C866 H862 0.929 . S
C866 C868 1.378 . S
C866 C870 1.350 . S
C867 C870 1.463 1_556 S
C867 C872 1.350 . S
C867 N875 1.427 . S
C868 H859 0.930 . S
C868 C866 1.378 . S
C868 C869 1.367 . S
C869 C868 1.367 . S
C869 C871 1.433 . S
C870 C866 1.350 . S
C870 C867 1.463 1_554 S
C870 N874 1.427 . S
C871 H861 0.929 . S
C871 C869 1.433 . S
C871 N874 1.384 . S
C872 H863 0.929 . S
C872 C864 1.378 . S
C872 C867 1.350 . S
C873 H860 0.929 . S
C873 C865 1.433 . S
C873 N875 1.384 . S
N874 C870 1.427 . S
N874 C871 1.384 . S
N875 C867 1.427 . S
N875 C873 1.384 . S
H876 C882 0.930 . S
H877 C886 0.930 . S
H878 C891 0.929 . S
H879 C889 0.929 . S
H880 C884 0.929 . S
H881 C890 0.929 . S
C882 H876 0.930 . S
C882 C883 1.367 . S
C882 C890 1.378 . S
C883 C882 1.367 . S
C883 C891 1.433 . S
C884 H880 0.929 . S
C884 C886 1.378 . S
C884 C888 1.350 . S
C885 C888 1.463 . S
C885 C890 1.350 . S
C885 N893 1.427 . S
C886 H877 0.930 . S
C886 C884 1.378 . S
C886 C887 1.367 . S
C887 C886 1.367 . S
C887 C889 1.433 . S
C888 C884 1.350 . S
C888 C885 1.463 . S
C888 N892 1.427 . S
C889 H879 0.929 . S
C889 C887 1.433 . S
C889 N892 1.384 . S
C890 H881 0.929 . S
C890 C882 1.378 . S
C890 C885 1.350 . S
C891 H878 0.929 . S
C891 C883 1.433 . S
C891 N893 1.384 . S
N892 C888 1.427 . S
N892 C889 1.384 . S
N893 C885 1.427 . S
N893 C891 1.384 . S
H894 C900 0.930 . S
H895 C904 0.930 . S
H896 C909 0.929 . S
H897 C907 0.929 . S
H898 C902 0.929 . S
H899 C908 0.929 . S
C900 H894 0.930 . S
C900 C901 1.367 . S
C900 C908 1.378 . S
C901 C900 1.367 . S
C901 C909 1.433 . S
C902 H898 0.929 . S
C902 C904 1.378 . S
C902 C906 1.350 . S
C903 C906 1.463 . S
C903 C908 1.350 . S
C903 N911 1.427 . S
C904 H895 0.930 . S
C904 C902 1.378 . S
C904 C905 1.367 . S
C905 C904 1.367 . S
C905 C907 1.433 . S
C906 C902 1.350 . S
C906 C903 1.463 . S
C906 N910 1.427 . S
C907 H897 0.929 . S
C907 C905 1.433 . S
C907 N910 1.384 . S
C908 H899 0.929 . S
C908 C900 1.378 . S
C908 C903 1.350 . S
C909 H896 0.929 . S
C909 C901 1.433 . S
C909 N911 1.384 . S
N910 C906 1.427 . S
N910 C907 1.384 . S
N911 C903 1.427 . S
N911 C909 1.384 . S
H912 C918 0.930 . S
H913 C922 0.930 . S
H914 C927 0.929 . S
H915 C925 0.929 . S
H916 C920 0.929 . S
H917 C926 0.929 . S
C918 H912 0.930 . S
C918 C919 1.367 . S
C918 C926 1.378 . S
C919 C918 1.367 . S
C919 C927 1.433 . S
C920 H916 0.929 . S
C920 C922 1.378 . S
C920 C924 1.350 . S
C921 C924 1.463 . S
C921 C926 1.350 . S
C921 N929 1.427 . S
C922 H913 0.930 . S
C922 C920 1.378 . S
C922 C923 1.367 . S
C923 C922 1.367 . S
C923 C925 1.433 . S
C924 C920 1.350 . S
C924 C921 1.463 . S
C924 N928 1.427 . S
C925 H915 0.929 . S
C925 C923 1.433 . S
C925 N928 1.384 . S
C926 H917 0.929 . S
C926 C918 1.378 . S
C926 C921 1.350 . S
C927 H914 0.929 . S
C927 C919 1.433 . S
C927 N929 1.384 . S
N928 C924 1.427 . S
N928 C925 1.384 . S
N929 C921 1.427 . S
N929 C927 1.384 . S
H930 C936 0.930 . S
H931 C940 0.930 . S
H932 C945 0.929 . S
H933 C943 0.929 . S
H934 C938 0.929 . S
H935 C944 0.929 . S
C936 H930 0.930 . S
C936 C937 1.367 . S
C936 C944 1.378 . S
C937 C936 1.367 . S
C937 C945 1.433 . S
C938 H934 0.929 . S
C938 C940 1.378 . S
C938 C942 1.350 . S
C939 C942 1.463 . S
C939 C944 1.350 . S
C939 N947 1.427 . S
C940 H931 0.930 . S
C940 C938 1.378 . S
C940 C941 1.367 . S
C941 C940 1.367 . S
C941 C943 1.433 . S
C942 C938 1.350 . S
C942 C939 1.463 . S
C942 N946 1.427 . S
C943 H933 0.929 . S
C943 C941 1.433 . S
C943 N946 1.384 . S
C944 H935 0.929 . S
C944 C936 1.378 . S
C944 C939 1.350 . S
C945 H932 0.929 . S
C945 C937 1.433 . S
C945 N947 1.384 . S
N946 C942 1.427 . S
N946 C943 1.384 . S
N947 C939 1.427 . S
N947 C945 1.384 . S
H948 C954 0.930 . S
H949 C958 0.930 . S
H950 C963 0.929 . S
H951 C961 0.929 . S
H952 C956 0.929 . S
H953 C962 0.929 . S
C954 H948 0.930 . S
C954 C955 1.367 . S
C954 C962 1.378 . S
C955 C954 1.367 . S
C955 C963 1.433 . S
C956 H952 0.929 . S
C956 C958 1.378 . S
C956 C960 1.350 . S
C957 C960 1.463 . S
C957 C962 1.350 . S
C957 N965 1.427 . S
C958 H949 0.930 . S
C958 C956 1.378 . S
C958 C959 1.367 . S
C959 C958 1.367 . S
C959 C961 1.433 . S
C960 C956 1.350 . S
C960 C957 1.463 . S
C960 N964 1.427 . S
C961 H951 0.929 . S
C961 C959 1.433 . S
C961 N964 1.384 . S
C962 H953 0.929 . S
C962 C954 1.378 . S
C962 C957 1.350 . S
C963 H950 0.929 . S
C963 C955 1.433 . S
C963 N965 1.384 . S
N964 C960 1.427 . S
N964 C961 1.384 . S
N965 C957 1.427 . S
N965 C963 1.384 . S
H966 C972 0.930 . S
H967 C976 0.930 . S
H968 C981 0.929 . S
H969 C979 0.929 . S
H970 C974 0.929 . S
H971 C980 0.929 . S
C972 H966 0.930 . S
C972 C973 1.367 . S
C972 C980 1.378 . S
C973 C972 1.367 . S
C973 C981 1.433 . S
C974 H970 0.929 . S
C974 C976 1.378 . S
C974 C978 1.350 . S
C975 C978 1.463 . S
C975 C980 1.350 . S
C975 N983 1.427 . S
C976 H967 0.930 . S
C976 C974 1.378 . S
C976 C977 1.367 . S
C977 C976 1.367 . S
C977 C979 1.433 . S
C978 C974 1.350 . S
C978 C975 1.463 . S
C978 N982 1.427 . S
C979 H969 0.929 . S
C979 C977 1.433 . S
C979 N982 1.384 . S
C980 H971 0.929 . S
C980 C972 1.378 . S
C980 C975 1.350 . S
C981 H968 0.929 . S
C981 C973 1.433 . S
C981 N983 1.384 . S
N982 C978 1.427 . S
N982 C979 1.384 . S
N983 C975 1.427 . S
N983 C981 1.384 . S
H984 C990 0.930 . S
H985 C994 0.930 . S
H986 C999 0.929 . S
H987 C997 0.929 . S
H988 C992 0.929 . S
H989 C998 0.929 . S
C990 H984 0.930 . S
C990 C991 1.367 . S
C990 C998 1.378 . S
C991 C990 1.367 . S
C991 C999 1.433 . S
C992 H988 0.929 . S
C992 C994 1.378 . S
C992 C996 1.350 . S
C993 C996 1.463 . S
C993 C998 1.350 . S
C993 N1001 1.427 . S
C994 H985 0.930 . S
C994 C992 1.378 . S
C994 C995 1.367 . S
C995 C994 1.367 . S
C995 C997 1.433 . S
C996 C992 1.350 . S
C996 C993 1.463 . S
C996 N1000 1.427 . S
C997 H987 0.929 . S
C997 C995 1.433 . S
C997 N1000 1.384 . S
C998 H989 0.929 . S
C998 C990 1.378 . S
C998 C993 1.350 . S
C999 H986 0.929 . S
C999 C991 1.433 . S
C999 N1001 1.384 . S
N1000 C996 1.427 . S
N1000 C997 1.384 . S
N1001 C993 1.427 . S
N1001 C999 1.384 . S
H1002 C1008 0.930 . S
H1003 C1012 0.930 . S
H1004 C1017 0.929 . S
H1005 C1015 0.929 . S
H1006 C1010 0.929 . S
H1007 C1016 0.929 . S
C1008 H1002 0.930 . S
C1008 C1009 1.367 . S
C1008 C1016 1.378 . S
C1009 C1008 1.367 . S
C1009 C1017 1.433 . S
C1010 H1006 0.929 . S
C1010 C1012 1.378 . S
C1010 C1014 1.350 . S
C1011 C1014 1.463 . S
C1011 C1016 1.350 . S
C1011 N1019 1.427 . S
C1012 H1003 0.930 . S
C1012 C1010 1.378 . S
C1012 C1013 1.367 . S
C1013 C1012 1.367 . S
C1013 C1015 1.433 . S
C1014 C1010 1.350 . S
C1014 C1011 1.463 . S
C1014 N1018 1.427 . S
C1015 H1005 0.929 . S
C1015 C1013 1.433 . S
C1015 N1018 1.384 . S
C1016 H1007 0.929 . S
C1016 C1008 1.378 . S
C1016 C1011 1.350 . S
C1017 H1004 0.929 . S
C1017 C1009 1.433 . S
C1017 N1019 1.384 . S
N1018 C1014 1.427 . S
N1018 C1015 1.384 . S
N1019 C1011 1.427 . S
N1019 C1017 1.384 . S
H1020 C1026 0.930 . S
H1021 C1030 0.930 . S
H1022 C1035 0.929 . S
H1023 C1033 0.929 . S
H1024 C1028 0.929 . S
H1025 C1034 0.929 . S
C1026 H1020 0.930 . S
C1026 C1027 1.367 . S
C1026 C1034 1.378 . S
C1027 C1026 1.367 . S
C1027 C1035 1.433 . S
C1028 H1024 0.929 . S
C1028 C1030 1.378 . S
C1028 C1032 1.350 . S
C1029 C1032 1.463 . S
C1029 C1034 1.350 . S
C1029 N1037 1.427 . S
C1030 H1021 0.930 . S
C1030 C1028 1.378 . S
C1030 C1031 1.367 . S
C1031 C1030 1.367 . S
C1031 C1033 1.433 . S
C1032 C1028 1.350 . S
C1032 C1029 1.463 . S
C1032 N1036 1.427 . S
C1033 H1023 0.929 . S
C1033 C1031 1.433 . S
C1033 N1036 1.384 . S
C1034 H1025 0.929 . S
C1034 C1026 1.378 . S
C1034 C1029 1.350 . S
C1035 H1022 0.929 . S
C1035 C1027 1.433 . S
C1035 N1037 1.384 . S
N1036 C1032 1.427 . S
N1036 C1033 1.384 . S
N1037 C1029 1.427 . S
N1037 C1035 1.384 . S
H1038 C1044 0.930 . S
H1039 C1048 0.930 . S
H1040 C1053 0.929 . S
H1041 C1051 0.929 . S
H1042 C1046 0.929 . S
H1043 C1052 0.929 . S
C1044 H1038 0.930 . S
C1044 C1045 1.367 . S
C1044 C1052 1.378 . S
C1045 C1044 1.367 . S
C1045 C1053 1.433 . S
C1046 H1042 0.929 . S
C1046 C1048 1.378 . S
C1046 C1050 1.350 . S
C1047 C1050 1.463 . S
C1047 C1052 1.350 . S
C1047 N1055 1.427 . S
C1048 H1039 0.930 . S
C1048 C1046 1.378 . S
C1048 C1049 1.367 . S
C1049 C1048 1.367 . S
C1049 C1051 1.433 . S
C1050 C1046 1.350 . S
C1050 C1047 1.463 . S
C1050 N1054 1.427 . S
C1051 H1041 0.929 . S
C1051 C1049 1.433 . S
C1051 N1054 1.384 . S
C1052 H1043 0.929 . S
C1052 C1044 1.378 . S
C1052 C1047 1.350 . S
C1053 H1040 0.929 . S
C1053 C1045 1.433 . S
C1053 N1055 1.384 . S
N1054 C1050 1.427 . S
N1054 C1051 1.384 . S
N1055 C1047 1.427 . S
N1055 C1053 1.384 . S
H1056 C1062 0.930 . S
H1057 C1066 0.930 . S
H1058 C1071 0.929 . S
H1059 C1069 0.929 . S
H1060 C1064 0.929 . S
H1061 C1070 0.929 . S
C1062 H1056 0.930 . S
C1062 C1063 1.367 . S
C1062 C1070 1.378 . S
C1063 C1062 1.367 . S
C1063 C1071 1.433 . S
C1064 H1060 0.929 . S
C1064 C1066 1.378 . S
C1064 C1068 1.350 . S
C1065 C1068 1.463 . S
C1065 C1070 1.350 . S
C1065 N1073 1.427 . S
C1066 H1057 0.930 . S
C1066 C1064 1.378 . S
C1066 C1067 1.367 . S
C1067 C1066 1.367 . S
C1067 C1069 1.433 . S
C1068 C1064 1.350 . S
C1068 C1065 1.463 . S
C1068 N1072 1.427 . S
C1069 H1059 0.929 . S
C1069 C1067 1.433 . S
C1069 N1072 1.384 . S
C1070 H1061 0.929 . S
C1070 C1062 1.378 . S
C1070 C1065 1.350 . S
C1071 H1058 0.929 . S
C1071 C1063 1.433 . S
C1071 N1073 1.384 . S
N1072 C1068 1.427 . S
N1072 C1069 1.384 . S
N1073 C1065 1.427 . S
N1073 C1071 1.384 . S
H1074 C1080 0.930 . S
H1075 C1084 0.930 . S
H1076 C1089 0.929 . S
H1077 C1087 0.929 . S
H1078 C1082 0.929 . S
H1079 C1088 0.929 . S
C1080 H1074 0.930 . S
C1080 C1081 1.367 . S
C1080 C1088 1.378 . S
C1081 C1080 1.367 . S
C1081 C1089 1.433 . S
C1082 H1078 0.929 . S
C1082 C1084 1.378 . S
C1082 C1086 1.350 . S
C1083 C1086 1.463 . S
C1083 C1088 1.350 . S
C1083 N1091 1.427 . S
C1084 H1075 0.930 . S
C1084 C1082 1.378 . S
C1084 C1085 1.367 . S
C1085 C1084 1.367 . S
C1085 C1087 1.433 . S
C1086 C1082 1.350 . S
C1086 C1083 1.463 . S
C1086 N1090 1.427 . S
C1087 H1077 0.929 . S
C1087 C1085 1.433 . S
C1087 N1090 1.384 . S
C1088 H1079 0.929 . S
C1088 C1080 1.378 . S
C1088 C1083 1.350 . S
C1089 H1076 0.929 . S
C1089 C1081 1.433 . S
C1089 N1091 1.384 . S
N1090 C1086 1.427 . S
N1090 C1087 1.384 . S
N1091 C1083 1.427 . S
N1091 C1089 1.384 . S
H1092 C1098 0.930 . S
H1093 C1102 0.930 . S
H1094 C1107 0.929 . S
H1095 C1105 0.929 . S
H1096 C1100 0.929 . S
H1097 C1106 0.929 . S
C1098 H1092 0.930 . S
C1098 C1099 1.367 . S
C1098 C1106 1.378 . S
C1099 C1098 1.367 . S
C1099 C1107 1.433 . S
C1100 H1096 0.929 . S
C1100 C1102 1.378 . S
C1100 C1104 1.350 . S
C1101 C1104 1.463 . S
C1101 C1106 1.350 . S
C1101 N1109 1.427 . S
C1102 H1093 0.930 . S
C1102 C1100 1.378 . S
C1102 C1103 1.367 . S
C1103 C1102 1.367 . S
C1103 C1105 1.433 . S
C1104 C1100 1.350 . S
C1104 C1101 1.463 . S
C1104 N1108 1.427 . S
C1105 H1095 0.929 . S
C1105 C1103 1.433 . S
C1105 N1108 1.384 . S
C1106 H1097 0.929 . S
C1106 C1098 1.378 . S
C1106 C1101 1.350 . S
C1107 H1094 0.929 . S
C1107 C1099 1.433 . S
C1107 N1109 1.384 . S
N1108 C1104 1.427 . S
N1108 C1105 1.384 . S
N1109 C1101 1.427 . S
N1109 C1107 1.384 . S
H1110 C1116 0.930 . S
H1111 C1120 0.930 . S
H1112 C1125 0.929 . S
H1113 C1123 0.929 . S
H1114 C1118 0.929 . S
H1115 C1124 0.929 . S
C1116 H1110 0.930 . S
C1116 C1117 1.367 . S
C1116 C1124 1.378 . S
C1117 C1116 1.367 . S
C1117 C1125 1.433 . S
C1118 H1114 0.929 . S
C1118 C1120 1.378 . S
C1118 C1122 1.350 . S
C1119 C1122 1.463 . S
C1119 C1124 1.350 . S
C1119 N1127 1.427 . S
C1120 H1111 0.930 . S
C1120 C1118 1.378 . S
C1120 C1121 1.367 . S
C1121 C1120 1.367 . S
C1121 C1123 1.433 . S
C1122 C1118 1.350 . S
C1122 C1119 1.463 . S
C1122 N1126 1.427 . S
C1123 H1113 0.929 . S
C1123 C1121 1.433 . S
C1123 N1126 1.384 . S
C1124 H1115 0.929 . S
C1124 C1116 1.378 . S
C1124 C1119 1.350 . S
C1125 H1112 0.929 . S
C1125 C1117 1.433 . S
C1125 N1127 1.384 . S
N1126 C1122 1.427 . S
N1126 C1123 1.384 . S
N1127 C1119 1.427 . S
N1127 C1125 1.384 . S
H1128 C1134 0.930 . S
H1129 C1138 0.930 . S
H1130 C1143 0.929 . S
H1131 C1141 0.929 . S
H1132 C1136 0.929 . S
H1133 C1142 0.929 . S
C1134 H1128 0.930 . S
C1134 C1135 1.367 . S
C1134 C1142 1.378 . S
C1135 C1134 1.367 . S
C1135 C1143 1.433 . S
C1136 H1132 0.929 . S
C1136 C1138 1.378 . S
C1136 C1140 1.350 . S
C1137 C1140 1.463 . S
C1137 C1142 1.350 . S
C1137 N1145 1.427 . S
C1138 H1129 0.930 . S
C1138 C1136 1.378 . S
C1138 C1139 1.367 . S
C1139 C1138 1.367 . S
C1139 C1141 1.433 . S
C1140 C1136 1.350 . S
C1140 C1137 1.463 . S
C1140 N1144 1.427 . S
C1141 H1131 0.929 . S
C1141 C1139 1.433 . S
C1141 N1144 1.384 . S
C1142 H1133 0.929 . S
C1142 C1134 1.378 . S
C1142 C1137 1.350 . S
C1143 H1130 0.929 . S
C1143 C1135 1.433 . S
C1143 N1145 1.384 . S
N1144 C1140 1.427 . S
N1144 C1141 1.384 . S
N1145 C1137 1.427 . S
N1145 C1143 1.384 . S
H1146 C1152 0.930 . S
H1147 C1156 0.930 . S
H1148 C1161 0.929 . S
H1149 C1159 0.929 . S
H1150 C1154 0.929 . S
H1151 C1160 0.929 . S
C1152 H1146 0.930 . S
C1152 C1153 1.367 . S
C1152 C1160 1.378 . S
C1153 C1152 1.367 . S
C1153 C1161 1.433 . S
C1154 H1150 0.929 . S
C1154 C1156 1.378 . S
C1154 C1158 1.350 . S
C1155 C1158 1.463 . S
C1155 C1160 1.350 . S
C1155 N1163 1.427 . S
C1156 H1147 0.930 . S
C1156 C1154 1.378 . S
C1156 C1157 1.367 . S
C1157 C1156 1.367 . S
C1157 C1159 1.433 . S
C1158 C1154 1.350 . S
C1158 C1155 1.463 . S
C1158 N1162 1.427 . S
C1159 H1149 0.929 . S
C1159 C1157 1.433 . S
C1159 N1162 1.384 . S
C1160 H1151 0.929 . S
C1160 C1152 1.378 . S
C1160 C1155 1.350 . S
C1161 H1148 0.929 . S
C1161 C1153 1.433 . S
C1161 N1163 1.384 . S
N1162 C1158 1.427 . S
N1162 C1159 1.384 . S
N1163 C1155 1.427 . S
N1163 C1161 1.384 . S
H1164 C1170 0.930 . S
H1165 C1174 0.930 . S
H1166 C1179 0.929 . S
H1167 C1177 0.929 . S
H1168 C1172 0.929 . S
H1169 C1178 0.929 . S
C1170 H1164 0.930 . S
C1170 C1171 1.367 . S
C1170 C1178 1.378 . S
C1171 C1170 1.367 . S
C1171 C1179 1.433 . S
C1172 H1168 0.929 . S
C1172 C1174 1.378 . S
C1172 C1176 1.350 . S
C1173 C1176 1.463 . S
C1173 C1178 1.350 . S
C1173 N1181 1.427 . S
C1174 H1165 0.930 . S
C1174 C1172 1.378 . S
C1174 C1175 1.367 . S
C1175 C1174 1.367 . S
C1175 C1177 1.433 . S
C1176 C1172 1.350 . S
C1176 C1173 1.463 . S
C1176 N1180 1.427 . S
C1177 H1167 0.929 . S
C1177 C1175 1.433 . S
C1177 N1180 1.384 . S
C1178 H1169 0.929 . S
C1178 C1170 1.378 . S
C1178 C1173 1.350 . S
C1179 H1166 0.929 . S
C1179 C1171 1.433 . S
C1179 N1181 1.384 . S
N1180 C1176 1.427 . S
N1180 C1177 1.384 . S
N1181 C1173 1.427 . S
N1181 C1179 1.384 . S
H1182 C1188 0.930 . S
H1183 C1192 0.930 . S
H1184 C1197 0.929 . S
H1185 C1195 0.929 . S
H1186 C1190 0.929 . S
H1187 C1196 0.929 . S
C1188 H1182 0.930 . S
C1188 C1189 1.367 . S
C1188 C1196 1.378 . S
C1189 C1188 1.367 . S
C1189 C1197 1.433 . S
C1190 H1186 0.929 . S
C1190 C1192 1.378 . S
C1190 C1194 1.350 . S
C1191 C1194 1.463 . S
C1191 C1196 1.350 . S
C1191 N1199 1.427 . S
C1192 H1183 0.930 . S
C1192 C1190 1.378 . S
C1192 C1193 1.367 . S
C1193 C1192 1.367 . S
C1193 C1195 1.433 . S
C1194 C1190 1.350 . S
C1194 C1191 1.463 . S
C1194 N1198 1.427 . S
C1195 H1185 0.929 . S
C1195 C1193 1.433 . S
C1195 N1198 1.384 . S
C1196 H1187 0.929 . S
C1196 C1188 1.378 . S
C1196 C1191 1.350 . S
C1197 H1184 0.929 . S
C1197 C1189 1.433 . S
C1197 N1199 1.384 . S
N1198 C1194 1.427 . S
N1198 C1195 1.384 . S
N1199 C1191 1.427 . S
N1199 C1197 1.384 . S
C343 C5 1.540 . S
C347 C103 1.536 . S
C361 C117 1.538 . S
C365 C19 1.534 . S
C379 C33 1.540 . S
C383 C131 1.538 . S
C397 C47 1.535 . S
C401 C145 1.540 . S
C415 C159 1.535 . S
C419 C61 1.540 . S
C433 C75 1.536 . S
C437 C89 1.535 . S
C451 C173 1.534 . S
C455 C271 1.538 . S
C469 C187 1.540 . S
C473 C285 1.538 . S
C487 C299 1.540 . S
C491 C201 1.537 . S
C505 C215 1.535 . S
C509 C313 1.537 . S
C523 C229 1.536 . S
C527 C327 1.540 . S
C541 C257 1.535 . S
C545 C243 1.539 . S
C559 C11 1.386 . S
C563 C123 1.387 . S
C577 C137 1.384 . S
C581 C25 1.387 . S
C595 C151 1.388 . S
C599 C39 1.386 . S
C613 C53 1.386 . S
C617 C165 1.387 . S
C631 C67 1.387 . S
C635 C95 1.384 . S
C649 C81 1.384 . S
C653 C109 1.386 . S
C667 C291 1.385 . S
C671 C179 1.385 . S
C685 C193 1.385 . S
C689 C305 1.387 . S
C703 C319 1.387 . S
C707 C207 1.386 . S
C721 C333 1.387 . S
C725 C221 1.385 . S
C739 C263 1.384 . S
C743 C235 1.386 . S
C757 C249 1.384 . S
C761 C277 1.386 . S
C775 C9 1.592 . S
C779 C219 1.589 . S
C793 C233 1.589 . S
C797 C23 1.592 . S
C811 C247 1.592 . S
C815 C37 1.589 . S
C829 C51 1.589 . S
C833 C177 1.592 . S
C847 C65 1.589 . S
C851 C191 1.592 . S
C865 C205 1.590 . S
C869 C79 1.592 . S
C883 C303 1.591 . S
C887 C93 1.591 . S
C901 C317 1.592 . S
C905 C107 1.590 . S
C919 C331 1.592 . S
C923 C121 1.590 . S
C937 C261 1.592 . S
C941 C135 1.589 . S
C955 C149 1.589 . S
C959 C275 1.592 . S
C973 C163 1.590 . S
C977 C289 1.592 . S
C991 C0 1.418 . S
C995 C140 1.422 . S
C1009 C154 1.428 . S
C1013 C14 1.429 . S
C1027 C84 1.423 . S
C1031 C28 1.418 . S
C1045 C42 1.420 . S
C1049 C98 1.427 . S
C1063 C56 1.430 . S
C1067 C112 1.424 . S
C1081 C70 1.424 . S
C1085 C126 1.430 . S
C1099 C168 1.422 . S
C1103 C308 1.429 . S
C1117 C182 1.418 . S
C1121 C322 1.420 . S
C1135 C196 1.423 . S
C1139 C252 1.418 . S
C1153 C266 1.426 . S
C1157 C210 1.430 . S
C1171 C224 1.418 . S
C1175 C280 1.422 . S
C1189 C238 1.429 . S
C1193 C294 1.422 . S
