# Generated by pormake.
# Topology hbo, (4)-cn, num edge types: 1
# Building blocks:
#     Node 0, Type 0, BuildingBlock: CEKHIL_clean_sbu_0, # of connection points: 4
#     Node 1, Type 0, BuildingBlock: CEKHIL_clean_sbu_0, # of connection points: 4
#     Node 2, Type 0, BuildingBlock: CEKHIL_clean_sbu_0, # of connection points: 4
#     Node 3, Type 0, BuildingBlock: CEKHIL_clean_sbu_0, # of connection points: 4
#     Node 4, Type 0, BuildingBlock: CEKHIL_clean_sbu_0, # of connection points: 4
#     Node 5, Type 0, BuildingBlock: CEKHIL_clean_sbu_0, # of connection points: 4
#     Node 6, Type 0, BuildingBlock: CEKHIL_clean_sbu_0, # of connection points: 4
#     Node 7, Type 0, BuildingBlock: CEKHIL_clean_sbu_0, # of connection points: 4
#     Node 8, Type 0, BuildingBlock: CEKHIL_clean_sbu_0, # of connection points: 4
#     Node 9, Type 0, BuildingBlock: CEKHIL_clean_sbu_0, # of connection points: 4
#     Node 10, Type 0, BuildingBlock: CEKHIL_clean_sbu_0, # of connection points: 4
#     Node 11, Type 0, BuildingBlock: CEKHIL_clean_sbu_0, # of connection points: 4
#     Node 12, Type 0, BuildingBlock: CEKHIL_clean_sbu_0, # of connection points: 4
#     Node 13, Type 0, BuildingBlock: CEKHIL_clean_sbu_0, # of connection points: 4
#     Node 14, Type 0, BuildingBlock: CEKHIL_clean_sbu_0, # of connection points: 4
#     Node 15, Type 0, BuildingBlock: CEKHIL_clean_sbu_0, # of connection points: 4
#     Node 16, Type 0, BuildingBlock: CEKHIL_clean_sbu_0, # of connection points: 4
#     Node 17, Type 0, BuildingBlock: CEKHIL_clean_sbu_0, # of connection points: 4
#     Node 18, Type 0, BuildingBlock: CEKHIL_clean_sbu_0, # of connection points: 4
#     Node 19, Type 0, BuildingBlock: CEKHIL_clean_sbu_0, # of connection points: 4
#     Node 20, Type 0, BuildingBlock: CEKHIL_clean_sbu_0, # of connection points: 4
#     Node 21, Type 0, BuildingBlock: CEKHIL_clean_sbu_0, # of connection points: 4
#     Node 22, Type 0, BuildingBlock: CEKHIL_clean_sbu_0, # of connection points: 4
#     Node 23, Type 0, BuildingBlock: CEKHIL_clean_sbu_0, # of connection points: 4
#     Edge 24, Type (0, 0), BuildingBlock: EZIPEK_clean_linker_0, # of connection points: 2
#     Edge 25, Type (0, 0), BuildingBlock: EZIPEK_clean_linker_0, # of connection points: 2
#     Edge 26, Type (0, 0), BuildingBlock: EZIPEK_clean_linker_0, # of connection points: 2
#     Edge 27, Type (0, 0), BuildingBlock: EZIPEK_clean_linker_0, # of connection points: 2
#     Edge 28, Type (0, 0), BuildingBlock: EZIPEK_clean_linker_0, # of connection points: 2
#     Edge 29, Type (0, 0), BuildingBlock: EZIPEK_clean_linker_0, # of connection points: 2
#     Edge 30, Type (0, 0), BuildingBlock: EZIPEK_clean_linker_0, # of connection points: 2
#     Edge 31, Type (0, 0), BuildingBlock: EZIPEK_clean_linker_0, # of connection points: 2
#     Edge 32, Type (0, 0), BuildingBlock: EZIPEK_clean_linker_0, # of connection points: 2
#     Edge 33, Type (0, 0), BuildingBlock: EZIPEK_clean_linker_0, # of connection points: 2
#     Edge 34, Type (0, 0), BuildingBlock: EZIPEK_clean_linker_0, # of connection points: 2
#     Edge 35, Type (0, 0), BuildingBlock: EZIPEK_clean_linker_0, # of connection points: 2
#     Edge 36, Type (0, 0), BuildingBlock: EZIPEK_clean_linker_0, # of connection points: 2
#     Edge 37, Type (0, 0), BuildingBlock: EZIPEK_clean_linker_0, # of connection points: 2
#     Edge 38, Type (0, 0), BuildingBlock: EZIPEK_clean_linker_0, # of connection points: 2
#     Edge 39, Type (0, 0), BuildingBlock: EZIPEK_clean_linker_0, # of connection points: 2
#     Edge 40, Type (0, 0), BuildingBlock: EZIPEK_clean_linker_0, # of connection points: 2
#     Edge 41, Type (0, 0), BuildingBlock: EZIPEK_clean_linker_0, # of connection points: 2
#     Edge 42, Type (0, 0), BuildingBlock: EZIPEK_clean_linker_0, # of connection points: 2
#     Edge 43, Type (0, 0), BuildingBlock: EZIPEK_clean_linker_0, # of connection points: 2
#     Edge 44, Type (0, 0), BuildingBlock: EZIPEK_clean_linker_0, # of connection points: 2
#     Edge 45, Type (0, 0), BuildingBlock: EZIPEK_clean_linker_0, # of connection points: 2
#     Edge 46, Type (0, 0), BuildingBlock: EZIPEK_clean_linker_0, # of connection points: 2
#     Edge 47, Type (0, 0), BuildingBlock: EZIPEK_clean_linker_0, # of connection points: 2
#     Edge 48, Type (0, 0), BuildingBlock: EZIPEK_clean_linker_0, # of connection points: 2
#     Edge 49, Type (0, 0), BuildingBlock: EZIPEK_clean_linker_0, # of connection points: 2
#     Edge 50, Type (0, 0), BuildingBlock: EZIPEK_clean_linker_0, # of connection points: 2
#     Edge 51, Type (0, 0), BuildingBlock: EZIPEK_clean_linker_0, # of connection points: 2
#     Edge 52, Type (0, 0), BuildingBlock: EZIPEK_clean_linker_0, # of connection points: 2
#     Edge 53, Type (0, 0), BuildingBlock: EZIPEK_clean_linker_0, # of connection points: 2
#     Edge 54, Type (0, 0), BuildingBlock: EZIPEK_clean_linker_0, # of connection points: 2
#     Edge 55, Type (0, 0), BuildingBlock: EZIPEK_clean_linker_0, # of connection points: 2
#     Edge 56, Type (0, 0), BuildingBlock: EZIPEK_clean_linker_0, # of connection points: 2
#     Edge 57, Type (0, 0), BuildingBlock: EZIPEK_clean_linker_0, # of connection points: 2
#     Edge 58, Type (0, 0), BuildingBlock: EZIPEK_clean_linker_0, # of connection points: 2
#     Edge 59, Type (0, 0), BuildingBlock: EZIPEK_clean_linker_0, # of connection points: 2
#     Edge 60, Type (0, 0), BuildingBlock: EZIPEK_clean_linker_0, # of connection points: 2
#     Edge 61, Type (0, 0), BuildingBlock: EZIPEK_clean_linker_0, # of connection points: 2
#     Edge 62, Type (0, 0), BuildingBlock: EZIPEK_clean_linker_0, # of connection points: 2
#     Edge 63, Type (0, 0), BuildingBlock: EZIPEK_clean_linker_0, # of connection points: 2
#     Edge 64, Type (0, 0), BuildingBlock: EZIPEK_clean_linker_0, # of connection points: 2
#     Edge 65, Type (0, 0), BuildingBlock: EZIPEK_clean_linker_0, # of connection points: 2
#     Edge 66, Type (0, 0), BuildingBlock: EZIPEK_clean_linker_0, # of connection points: 2
#     Edge 67, Type (0, 0), BuildingBlock: EZIPEK_clean_linker_0, # of connection points: 2
#     Edge 68, Type (0, 0), BuildingBlock: EZIPEK_clean_linker_0, # of connection points: 2
#     Edge 69, Type (0, 0), BuildingBlock: EZIPEK_clean_linker_0, # of connection points: 2
#     Edge 70, Type (0, 0), BuildingBlock: EZIPEK_clean_linker_0, # of connection points: 2
#     Edge 71, Type (0, 0), BuildingBlock: EZIPEK_clean_linker_0, # of connection points: 2
# Relax obj value: 0.229
# Max RMSD: 0.248
# Mean RMSD: 0.240
data_MOF--net-hbo--node1-CEKHIL_clean_sbu_0--edge1-EZIPEK_clean_linker_0
_symmetry_space_group_name_H-M    P1
_symmetry_Int_Tables_number       1
_symmetry_cell_setting            triclinic
loop_
_symmetry_equiv_pos_as_xyz
'x, y, z'
_cell_length_a     38.528058
_cell_length_b     37.669074
_cell_length_c     37.595227
_cell_angle_alpha  90.003322
_cell_angle_beta   89.88541
_cell_angle_gamma 89.295021
loop_
_atom_site_label
_atom_site_type_symbol
_atom_site_fract_x
_atom_site_fract_y
_atom_site_fract_z
_atom_type_partial_charge
Co0 Co 0.10788 0.3401 0.24634 0.0
O1 O 0.05979 0.34592 0.25776 0.0
O2 O 0.083 0.35429 0.20415 0.0
C3 C 0.11692 0.28819 0.27405 0.0
O4 O 0.1561 0.33544 0.22409 0.0
Co5 Co 0.16399 0.3407 0.30497 0.0
O6 O 0.19197 0.31718 0.2674 0.0
C7 C 0.13593 0.40858 0.27876 0.0
C8 C 0.05571 0.35427 0.2245 0.0
C9 C 0.1852 0.32211 0.23461 0.0
O10 O 0.11562 0.39108 0.2585 0.0
O11 O 0.15764 0.39352 0.29979 0.0
O12 O 0.10223 0.28905 0.24299 0.0
O13 O 0.12131 0.31874 0.28913 0.0
Co14 Co 0.10986 0.66243 0.73894 0.0
O15 O 0.06132 0.65729 0.72939 0.0
O16 O 0.08519 0.65955 0.78326 0.0
C17 C 0.12001 0.70734 0.70044 0.0
O18 O 0.15793 0.67026 0.75945 0.0
Co19 Co 0.16468 0.645 0.68171 0.0
O20 O 0.19829 0.66271 0.71676 0.0
C21 C 0.13446 0.58647 0.72183 0.0
C22 C 0.05757 0.65707 0.76373 0.0
C23 C 0.18939 0.67166 0.74814 0.0
O24 O 0.11585 0.60937 0.7387 0.0
O25 O 0.1557 0.59513 0.69727 0.0
O26 O 0.10632 0.71304 0.73152 0.0
O27 O 0.12349 0.67396 0.69224 0.0
Co28 Co 0.88181 0.65015 0.23996 0.0
O29 O 0.92526 0.64269 0.26418 0.0
O30 O 0.91766 0.64043 0.20562 0.0
C31 C 0.86681 0.69936 0.27095 0.0
O32 O 0.8427 0.65819 0.2046 0.0
Co33 Co 0.81063 0.64869 0.27832 0.0
O34 O 0.79347 0.67129 0.23401 0.0
C35 C 0.84833 0.58167 0.26312 0.0
C36 C 0.93863 0.63918 0.23259 0.0
C37 C 0.81121 0.66962 0.20545 0.0
O38 O 0.87084 0.59824 0.24431 0.0
O39 O 0.82381 0.59699 0.28052 0.0
O40 O 0.88779 0.70122 0.24395 0.0
O41 O 0.85711 0.66776 0.27952 0.0
Co42 Co 0.87238 0.35362 0.73686 0.0
O43 O 0.92071 0.36083 0.72722 0.0
O44 O 0.89704 0.35619 0.7811 0.0
C45 C 0.86111 0.30951 0.6993 0.0
O46 O 0.82391 0.34356 0.75669 0.0
Co47 Co 0.81766 0.37266 0.67977 0.0
O48 O 0.78368 0.35691 0.7154 0.0
C49 C 0.84687 0.42998 0.72152 0.0
C50 C 0.92454 0.36009 0.76154 0.0
C51 C 0.79225 0.34419 0.74547 0.0
O52 O 0.8647 0.40651 0.73839 0.0
O53 O 0.82656 0.42211 0.696 0.0
O54 O 0.87856 0.30336 0.72808 0.0
O55 O 0.85808 0.3428 0.69044 0.0
Co56 Co 0.23681 0.14196 0.36219 0.0
O57 O 0.21234 0.13474 0.40605 0.0
O58 O 0.26763 0.15065 0.40121 0.0
C59 C 0.19414 0.1748 0.33705 0.0
O60 O 0.27092 0.15385 0.32278 0.0
Co61 Co 0.21158 0.11447 0.29064 0.0
O62 O 0.24827 0.14359 0.2689 0.0
C63 C 0.24252 0.06451 0.34145 0.0
C64 C 0.24115 0.14359 0.42131 0.0
C65 C 0.27208 0.1556 0.28872 0.0
O66 O 0.25119 0.0905 0.36144 0.0
O67 O 0.22458 0.06806 0.31311 0.0
O68 O 0.21668 0.18903 0.35817 0.0
O69 O 0.19691 0.14075 0.33282 0.0
Co70 Co 0.36287 0.75526 0.85555 0.0
O71 O 0.411 0.76398 0.86393 0.0
O72 O 0.3876 0.71061 0.8577 0.0
C73 C 0.35738 0.79704 0.81252 0.0
O74 O 0.31541 0.73556 0.84431 0.0
Co75 Co 0.30622 0.81288 0.86845 0.0
O76 O 0.27745 0.78106 0.83905 0.0
C77 C 0.34042 0.77772 0.92891 0.0
C78 C 0.41509 0.7298 0.86176 0.0
C79 C 0.2858 0.74849 0.83516 0.0
O80 O 0.35387 0.75433 0.90804 0.0
O81 O 0.32302 0.80483 0.91828 0.0
O82 O 0.36937 0.76541 0.8054 0.0
O83 O 0.35062 0.80255 0.84576 0.0
Co84 Co 0.76451 0.85486 0.35799 0.0
O85 O 0.78043 0.87096 0.4036 0.0
O86 O 0.7268 0.8537 0.39166 0.0
C87 C 0.8102 0.81786 0.34726 0.0
O88 O 0.73865 0.83462 0.31582 0.0
Co89 Co 0.80521 0.8687 0.2886 0.0
O90 O 0.77318 0.83386 0.26748 0.0
C91 C 0.75978 0.92518 0.31756 0.0
C92 C 0.74942 0.8639 0.41499 0.0
C93 C 0.74523 0.82587 0.28348 0.0
O94 O 0.75103 0.90448 0.34319 0.0
O95 O 0.78403 0.917 0.29568 0.0
O96 O 0.78449 0.80814 0.36727 0.0
O97 O 0.80855 0.85052 0.33673 0.0
Co98 Co 0.6233 0.23728 0.84841 0.0
O99 O 0.57757 0.22062 0.8593 0.0
O100 O 0.59229 0.27729 0.85573 0.0
C101 C 0.63073 0.20035 0.80142 0.0
O102 O 0.66683 0.26461 0.83552 0.0
Co103 Co 0.68771 0.18702 0.85169 0.0
O104 O 0.71041 0.22563 0.82482 0.0
C105 C 0.65627 0.21485 0.91775 0.0
C106 C 0.56813 0.25379 0.85966 0.0
C107 C 0.69751 0.25689 0.82414 0.0
O108 O 0.63628 0.23577 0.89997 0.0
O109 O 0.67665 0.19169 0.90372 0.0
O110 O 0.61451 0.23052 0.79841 0.0
O111 O 0.6409 0.19295 0.83339 0.0
Co112 Co 0.25627 0.87692 0.64633 0.0
O113 O 0.27705 0.92254 0.6386 0.0
O114 O 0.22047 0.91276 0.64056 0.0
C115 C 0.29192 0.863 0.69312 0.0
O116 O 0.22466 0.83499 0.65445 0.0
Co117 Co 0.29833 0.80675 0.64007 0.0
O118 O 0.25413 0.78318 0.65273 0.0
C119 C 0.2794 0.8473 0.57605 0.0
C120 C 0.24562 0.93534 0.63827 0.0
C121 C 0.22603 0.80098 0.65652 0.0
O122 O 0.25765 0.86642 0.59392 0.0
O123 O 0.30148 0.82611 0.59044 0.0
O124 O 0.26356 0.88148 0.69767 0.0
O125 O 0.29742 0.85388 0.66056 0.0
Co126 Co 0.63454 0.74052 0.1327 0.0
O127 O 0.58556 0.74621 0.1388 0.0
O128 O 0.61197 0.69797 0.11687 0.0
C129 C 0.65173 0.76114 0.18556 0.0
O130 O 0.68421 0.72479 0.12392 0.0
Co131 Co 0.68138 0.80709 0.13058 0.0
O132 O 0.71954 0.77095 0.13141 0.0
C133 C 0.63685 0.79157 0.07017 0.0
C134 C 0.58338 0.71448 0.12555 0.0
C135 C 0.71475 0.73798 0.12557 0.0
O136 O 0.63098 0.76084 0.08347 0.0
O137 O 0.65284 0.81605 0.08679 0.0
O138 O 0.64028 0.72892 0.18301 0.0
O139 O 0.64739 0.7809 0.1578 0.0
Co140 Co 0.74473 0.12797 0.63972 0.0
O141 O 0.72779 0.08031 0.63921 0.0
O142 O 0.78351 0.09514 0.63923 0.0
C143 C 0.7088 0.14698 0.6835 0.0
O144 O 0.77223 0.17357 0.64262 0.0
Co145 Co 0.69857 0.19095 0.61892 0.0
O146 O 0.73944 0.22109 0.62821 0.0
C147 C 0.72292 0.14276 0.56402 0.0
C148 C 0.76017 0.07052 0.63956 0.0
C149 C 0.768 0.20715 0.6381 0.0
O150 O 0.7445 0.12908 0.5862 0.0
O151 O 0.69955 0.16543 0.57268 0.0
O152 O 0.73779 0.13064 0.69071 0.0
O153 O 0.70111 0.14949 0.65001 0.0
Co154 Co 0.37679 0.24618 0.15031 0.0
O155 O 0.42506 0.239 0.14022 0.0
O156 O 0.39668 0.29068 0.136 0.0
C157 C 0.37462 0.21511 0.20157 0.0
O158 O 0.32779 0.2641 0.15934 0.0
Co159 Co 0.32633 0.18215 0.15236 0.0
O160 O 0.29341 0.218 0.17255 0.0
C161 C 0.35319 0.20767 0.08421 0.0
C162 C 0.42543 0.27261 0.13251 0.0
C163 C 0.299 0.25123 0.17035 0.0
O164 O 0.36558 0.23505 0.09971 0.0
O165 O 0.33902 0.1818 0.10053 0.0
O166 O 0.38561 0.24764 0.20145 0.0
O167 O 0.3691 0.2019 0.17045 0.0
Co168 Co 0.84406 0.63488 0.78294 0.0
O169 O 0.84985 0.58663 0.79909 0.0
O170 O 0.84999 0.60386 0.74295 0.0
C171 C 0.79942 0.64791 0.8199 0.0
O172 O 0.83606 0.67981 0.75443 0.0
Co173 Co 0.85316 0.70121 0.82925 0.0
O174 O 0.83463 0.72882 0.78832 0.0
C175 C 0.91449 0.66167 0.80514 0.0
C176 C 0.85123 0.57793 0.76561 0.0
C177 C 0.83137 0.71331 0.75848 0.0
O178 O 0.89545 0.64331 0.78417 0.0
O179 O 0.90215 0.68273 0.82878 0.0
O180 O 0.79425 0.63101 0.79023 0.0
O181 O 0.83142 0.65487 0.82692 0.0
Co182 Co 0.86159 0.35589 0.25184 0.0
O183 O 0.90976 0.36166 0.26172 0.0
O184 O 0.88611 0.36284 0.20771 0.0
C185 C 0.84964 0.30808 0.28466 0.0
O186 O 0.81295 0.34882 0.23265 0.0
Co187 Co 0.81015 0.37102 0.31353 0.0
O188 O 0.77495 0.36079 0.27672 0.0
C189 C 0.84395 0.43015 0.28014 0.0
C190 C 0.91366 0.36444 0.22753 0.0
C191 C 0.78188 0.35003 0.24537 0.0
O192 O 0.85404 0.40886 0.25549 0.0
O193 O 0.82902 0.41993 0.30861 0.0
O194 O 0.86687 0.30461 0.25522 0.0
O195 O 0.84789 0.34031 0.29698 0.0
Co196 Co 0.13829 0.38203 0.78506 0.0
O197 O 0.13251 0.43082 0.79912 0.0
O198 O 0.13282 0.41157 0.74367 0.0
C199 C 0.18294 0.36996 0.8223 0.0
O200 O 0.14647 0.33528 0.75925 0.0
Co201 Co 0.12673 0.31939 0.83597 0.0
O202 O 0.14806 0.2898 0.79796 0.0
C203 C 0.06659 0.35689 0.80704 0.0
C204 C 0.13118 0.43832 0.7654 0.0
C205 C 0.1518 0.30243 0.76685 0.0
O206 O 0.08671 0.37418 0.78615 0.0
O207 O 0.0776 0.33663 0.83194 0.0
O208 O 0.18809 0.3859 0.7921 0.0
O209 O 0.15076 0.3642 0.83003 0.0
Co210 Co 0.1562 0.6141 0.23694 0.0
O211 O 0.14808 0.56618 0.22373 0.0
O212 O 0.14554 0.58646 0.27893 0.0
C213 C 0.20442 0.62399 0.20608 0.0
O214 O 0.16608 0.66261 0.25904 0.0
Co215 Co 0.14691 0.67042 0.17749 0.0
O216 O 0.15996 0.70373 0.21577 0.0
C217 C 0.08598 0.63828 0.20712 0.0
C218 C 0.14308 0.55968 0.25722 0.0
C219 C 0.16893 0.69466 0.2471 0.0
O220 O 0.1053 0.62557 0.23186 0.0
O221 O 0.09774 0.65455 0.18 0.0
O222 O 0.20582 0.60508 0.23486 0.0
O223 O 0.17349 0.629 0.19321 0.0
Co224 Co 0.76065 0.84841 0.62429 0.0
O225 O 0.78048 0.85549 0.57795 0.0
O226 O 0.72396 0.85528 0.59007 0.0
C227 C 0.79395 0.80122 0.64045 0.0
O228 O 0.73061 0.84023 0.66799 0.0
Co229 Co 0.80539 0.85685 0.69272 0.0
O230 O 0.76607 0.83105 0.7147 0.0
C231 C 0.78194 0.92005 0.65321 0.0
C232 C 0.7487 0.85811 0.56674 0.0
C233 C 0.73631 0.82968 0.70001 0.0
O234 O 0.76227 0.90084 0.6337 0.0
O235 O 0.80316 0.90749 0.67629 0.0
O236 O 0.76714 0.79716 0.62003 0.0
O237 O 0.80149 0.83392 0.64684 0.0
Co238 Co 0.61264 0.25625 0.13295 0.0
O239 O 0.56695 0.24601 0.11637 0.0
O240 O 0.58974 0.29975 0.11906 0.0
C241 C 0.60903 0.22168 0.1822 0.0
O242 O 0.65736 0.27807 0.15007 0.0
Co243 Co 0.66961 0.19769 0.14142 0.0
O244 O 0.69399 0.23497 0.16859 0.0
C245 C 0.64958 0.22337 0.07018 0.0
C246 C 0.56311 0.2801 0.11233 0.0
C247 C 0.68527 0.26753 0.1655 0.0
O248 O 0.63168 0.24894 0.08384 0.0
O249 O 0.6645 0.19882 0.08831 0.0
O250 O 0.59633 0.25379 0.18194 0.0
O251 O 0.62195 0.21129 0.15214 0.0
Co252 Co 0.23048 0.16051 0.63191 0.0
O253 O 0.20643 0.16046 0.58733 0.0
O254 O 0.26385 0.15706 0.59404 0.0
C255 C 0.20209 0.20567 0.65847 0.0
O256 O 0.26425 0.16087 0.67324 0.0
Co257 Co 0.19037 0.14131 0.70101 0.0
O258 O 0.23365 0.15792 0.72386 0.0
C259 C 0.21228 0.08447 0.65258 0.0
C260 C 0.23708 0.1576 0.57308 0.0
C261 C 0.26234 0.16173 0.70731 0.0
O262 O 0.22859 0.10727 0.63379 0.0
O263 O 0.19353 0.09261 0.67954 0.0
O264 O 0.22615 0.21209 0.63517 0.0
O265 O 0.19239 0.17295 0.66043 0.0
Co266 Co 0.39009 0.73173 0.14474 0.0
O267 O 0.4371 0.74375 0.13445 0.0
O268 O 0.41493 0.68968 0.12954 0.0
C269 C 0.38702 0.76127 0.19722 0.0
O270 O 0.34369 0.70894 0.15414 0.0
Co271 Co 0.33263 0.79051 0.15065 0.0
O272 O 0.30305 0.7508 0.16618 0.0
C273 C 0.3576 0.76712 0.08024 0.0
C274 C 0.44167 0.71026 0.1275 0.0
C275 C 0.3128 0.71855 0.16297 0.0
O276 O 0.37634 0.74258 0.09449 0.0
O277 O 0.34029 0.7904 0.09788 0.0
O278 O 0.4011 0.72989 0.19531 0.0
O279 O 0.378 0.7747 0.1669 0.0
Co280 Co 0.71743 0.13231 0.33631 0.0
O281 O 0.69434 0.08735 0.33632 0.0
O282 O 0.75107 0.09419 0.33106 0.0
C283 C 0.68018 0.15866 0.29766 0.0
O284 O 0.75038 0.174 0.33236 0.0
Co285 Co 0.68156 0.19865 0.3656 0.0
O286 O 0.72411 0.2242 0.3512 0.0
C287 C 0.70744 0.1461 0.41534 0.0
C288 C 0.72473 0.07288 0.33187 0.0
C289 C 0.75014 0.20763 0.33824 0.0
O290 O 0.72356 0.13067 0.3896 0.0
O291 O 0.68534 0.17118 0.41072 0.0
O292 O 0.70583 0.13887 0.28663 0.0
O293 O 0.67598 0.15986 0.33189 0.0
Co294 Co 0.35212 0.2604 0.8816 0.0
O295 O 0.35533 0.27341 0.93085 0.0
O296 O 0.35911 0.21833 0.90952 0.0
C297 C 0.30493 0.29453 0.86974 0.0
O298 O 0.3485 0.23559 0.83408 0.0
Co299 Co 0.35923 0.31337 0.81916 0.0
O300 O 0.3341 0.27576 0.79273 0.0
C301 C 0.4218 0.2868 0.8566 0.0
C302 C 0.35842 0.2395 0.9367 0.0
C303 C 0.33616 0.24374 0.80353 0.0
O304 O 0.40328 0.26566 0.87519 0.0
O305 O 0.40937 0.30891 0.83393 0.0
O306 O 0.30204 0.26383 0.88502 0.0
O307 O 0.33647 0.30468 0.86435 0.0
Co308 Co 0.28687 0.85857 0.34904 0.0
O309 O 0.30799 0.90331 0.35969 0.0
O310 O 0.25274 0.8959 0.34472 0.0
C311 C 0.33025 0.83873 0.31318 0.0
O312 O 0.25597 0.81758 0.33447 0.0
Co313 Co 0.32065 0.78703 0.37075 0.0
O314 O 0.28425 0.76538 0.34102 0.0
C315 C 0.28992 0.83413 0.42492 0.0
C316 C 0.27766 0.91723 0.35317 0.0
C317 C 0.25828 0.78372 0.33055 0.0
O318 O 0.27492 0.85249 0.40057 0.0
O319 O 0.31141 0.80874 0.41855 0.0
O320 O 0.30599 0.8598 0.30118 0.0
O321 O 0.32841 0.83202 0.34684 0.0
Co322 Co 0.62388 0.74666 0.87271 0.0
O323 O 0.6165 0.73826 0.92239 0.0
O324 O 0.61063 0.79055 0.8955 0.0
C325 C 0.67452 0.71618 0.86911 0.0
O326 O 0.63121 0.76621 0.82293 0.0
Co327 Co 0.62722 0.68551 0.81718 0.0
O328 O 0.654 0.72188 0.79051 0.0
C329 C 0.56022 0.7078 0.8485 0.0
C330 C 0.61102 0.77226 0.92479 0.0
C331 C 0.64904 0.75494 0.79627 0.0
O332 O 0.57444 0.73526 0.86216 0.0
O333 O 0.57706 0.68317 0.83218 0.0
O334 O 0.67351 0.74825 0.88169 0.0
O335 O 0.64454 0.70281 0.86221 0.0
C336 C 0.14777 0.50692 0.30022 0.0
C337 C 0.13488 0.52286 0.26845 0.0
C338 C 0.12526 0.46447 0.24339 0.0
C339 C 0.1347 0.44807 0.2761 0.0
N340 N 0.14227 0.45655 0.33958 0.0
N341 N 0.09636 0.51553 0.21838 0.0
C342 C 0.14204 0.47008 0.3059 0.0
C343 C 0.11833 0.50117 0.24307 0.0
N344 N 0.16673 0.52568 0.32422 0.0
N345 N 0.12555 0.44624 0.21197 0.0
H346 H 0.08891 0.54226 0.21899 0.0
H347 H 0.08247 0.4999 0.20059 0.0
H348 H 0.13591 0.42071 0.20924 0.0
H349 H 0.12039 0.45862 0.18768 0.0
H350 H 0.17926 0.51356 0.34566 0.0
H351 H 0.17263 0.55236 0.32143 0.0
H352 H 0.14501 0.47249 0.36205 0.0
H353 H 0.13512 0.43058 0.34534 0.0
C354 C 0.97047 0.6926 0.79231 0.0
C355 C 0.95248 0.66061 0.79956 0.0
C356 C 0.00493 0.62576 0.78581 0.0
C357 C 0.0228 0.65779 0.77967 0.0
N358 N 0.0259 0.72137 0.78569 0.0
N359 N 0.95446 0.59777 0.81172 0.0
C360 C 0.00665 0.6911 0.78592 0.0
C361 C 0.9703 0.6274 0.79885 0.0
N362 N 0.95283 0.72416 0.78899 0.0
N363 N 0.02085 0.59393 0.77859 0.0
H364 H 0.92958 0.59852 0.82272 0.0
H365 H 0.96701 0.57333 0.81472 0.0
H366 H 0.04673 0.59187 0.77051 0.0
H367 H 0.00795 0.5698 0.77867 0.0
H368 H 0.9641 0.74718 0.77918 0.0
H369 H 0.92624 0.72705 0.79294 0.0
H370 H 0.01622 0.74596 0.794 0.0
H371 H 0.05249 0.7214 0.78046 0.0
C372 C 0.87232 0.48816 0.2928 0.0
C373 C 0.84716 0.46861 0.27385 0.0
C374 C 0.82819 0.52251 0.24264 0.0
C375 C 0.85033 0.54261 0.26467 0.0
N376 N 0.89209 0.54595 0.31217 0.0
N377 N 0.79892 0.46673 0.23306 0.0
C378 C 0.87224 0.5258 0.29003 0.0
C379 C 0.82464 0.4856 0.24915 0.0
N380 N 0.89678 0.4706 0.31265 0.0
N381 N 0.81103 0.53872 0.21516 0.0
H382 H 0.7956 0.43955 0.2369 0.0
H383 H 0.77923 0.47833 0.21793 0.0
H384 H 0.8131 0.56578 0.2098 0.0
H385 H 0.79721 0.52503 0.19587 0.0
H386 H 0.91801 0.48293 0.32417 0.0
H387 H 0.89742 0.44303 0.31529 0.0
H388 H 0.90548 0.53571 0.33397 0.0
H389 H 0.89356 0.57351 0.31004 0.0
C390 C 0.01189 0.32555 0.79094 0.0
C391 C 0.02898 0.35767 0.79951 0.0
C392 C 0.97654 0.3919 0.78442 0.0
C393 C 0.95933 0.35967 0.77739 0.0
N394 N 0.95732 0.29585 0.78192 0.0
N395 N 0.02576 0.42033 0.81217 0.0
C396 C 0.97593 0.32651 0.78337 0.0
C397 C 0.01075 0.39063 0.7985 0.0
N398 N 0.03029 0.29442 0.78772 0.0
N399 N 0.96038 0.42359 0.77716 0.0
H400 H 0.05027 0.41976 0.8239 0.0
H401 H 0.01282 0.44459 0.81502 0.0
H402 H 0.93478 0.42536 0.76824 0.0
H403 H 0.97288 0.44792 0.77799 0.0
H404 H 0.01988 0.27132 0.77716 0.0
H405 H 0.05681 0.29214 0.7925 0.0
H406 H 0.96721 0.27129 0.78998 0.0
H407 H 0.93094 0.29536 0.77582 0.0
C408 C 0.14302 0.48585 0.7188 0.0
C409 C 0.1295 0.47584 0.75263 0.0
C410 C 0.12395 0.53862 0.76781 0.0
C411 C 0.13172 0.54838 0.73214 0.0
N412 N 0.13613 0.52795 0.67105 0.0
N413 N 0.09465 0.49506 0.80313 0.0
C414 C 0.13728 0.52103 0.70667 0.0
C415 C 0.11596 0.50287 0.77525 0.0
N416 N 0.16323 0.46329 0.69899 0.0
N417 N 0.12613 0.56236 0.79515 0.0
H418 H 0.08494 0.46974 0.8074 0.0
H419 H 0.08284 0.51476 0.81864 0.0
H420 H 0.13639 0.58765 0.79231 0.0
H421 H 0.12246 0.55491 0.82162 0.0
H422 H 0.17496 0.47123 0.6753 0.0
H423 H 0.1726 0.43899 0.70825 0.0
H424 H 0.13797 0.50784 0.65201 0.0
H425 H 0.12864 0.55256 0.66075 0.0
C426 C 0.99215 0.6089 0.20905 0.0
C427 C 0.97654 0.63807 0.22713 0.0
C428 C 0.03322 0.66597 0.23381 0.0
C429 C 0.04827 0.63838 0.2131 0.0
N430 N 0.04244 0.58594 0.17707 0.0
N431 N 0.98088 0.69753 0.25093 0.0
C432 C 0.02783 0.61049 0.1995 0.0
C433 C 0.9967 0.66741 0.23814 0.0
N434 N 0.97317 0.57923 0.20226 0.0
N435 N 0.05389 0.69062 0.24972 0.0
H436 H 0.95417 0.70013 0.25436 0.0
H437 H 0.99388 0.72122 0.25521 0.0
H438 H 0.0807 0.69153 0.24596 0.0
H439 H 0.04485 0.70862 0.26872 0.0
H440 H 0.98386 0.55568 0.19243 0.0
H441 H 0.94708 0.57707 0.20936 0.0
H442 H 0.02823 0.567 0.16339 0.0
H443 H 0.06866 0.58611 0.17008 0.0
C444 C 0.86473 0.51291 0.77647 0.0
C445 C 0.85192 0.54015 0.7537 0.0
C446 C 0.84478 0.49548 0.70731 0.0
C447 C 0.84973 0.46785 0.73253 0.0
N448 N 0.8541 0.45313 0.79546 0.0
N449 N 0.81817 0.55286 0.70025 0.0
C450 C 0.85682 0.4772 0.76847 0.0
C451 C 0.83863 0.53037 0.71979 0.0
N452 N 0.88531 0.52043 0.80492 0.0
N453 N 0.84689 0.48915 0.67161 0.0
H454 H 0.80804 0.57665 0.71007 0.0
H455 H 0.80687 0.54509 0.67632 0.0
H456 H 0.85503 0.46483 0.66109 0.0
H457 H 0.84527 0.50956 0.6529 0.0
H458 H 0.89665 0.50054 0.82052 0.0
H459 H 0.89495 0.54566 0.80977 0.0
H460 H 0.85721 0.46025 0.82207 0.0
H461 H 0.84394 0.42786 0.79211 0.0
C462 C 0.96811 0.39806 0.22274 0.0
C463 C 0.9487 0.3681 0.21257 0.0
C464 C 0.00169 0.33731 0.19338 0.0
C465 C 0.02096 0.36356 0.2112 0.0
N466 N 0.02485 0.42162 0.23723 0.0
N467 N 0.94537 0.31055 0.18479 0.0
C468 C 0.00486 0.39522 0.22351 0.0
C469 C 0.96491 0.33853 0.19576 0.0
N470 N 0.95105 0.42868 0.23217 0.0
N471 N 0.0187 0.31086 0.17529 0.0
H472 H 0.91832 0.31106 0.18525 0.0
H473 H 0.95574 0.28634 0.17637 0.0
H474 H 0.04571 0.30942 0.1737 0.0
H475 H 0.00634 0.29227 0.15941 0.0
H476 H 0.9633 0.45235 0.23833 0.0
H477 H 0.92403 0.431 0.23119 0.0
H478 H 0.01501 0.44411 0.24994 0.0
H479 H 0.05192 0.42062 0.23608 0.0
C480 C 0.23706 0.185 0.51284 0.0
C481 C 0.24109 0.15436 0.53437 0.0
C482 C 0.2459 0.11653 0.4816 0.0
C483 C 0.24301 0.14732 0.46011 0.0
N484 N 0.24064 0.21106 0.45396 0.0
N485 N 0.25418 0.09187 0.54064 0.0
C486 C 0.24016 0.18167 0.47536 0.0
C487 C 0.2471 0.12035 0.51915 0.0
N488 N 0.22946 0.21708 0.52827 0.0
N489 N 0.24668 0.08368 0.46604 0.0
H490 H 0.25425 0.09346 0.56832 0.0
H491 H 0.26228 0.06713 0.53127 0.0
H492 H 0.24739 0.07998 0.43854 0.0
H493 H 0.24469 0.05999 0.48008 0.0
H494 H 0.22205 0.23964 0.51408 0.0
H495 H 0.22869 0.22085 0.55575 0.0
H496 H 0.24244 0.23691 0.46346 0.0
H497 H 0.24156 0.20965 0.42628 0.0
C498 C 0.32933 0.74638 0.98619 0.0
C499 C 0.34625 0.77375 0.96731 0.0
C500 C 0.37116 0.79651 0.02248 0.0
C501 C 0.35538 0.76828 0.0412 0.0
N502 N 0.32458 0.71278 0.04086 0.0
N503 N 0.38829 0.82061 0.96537 0.0
C504 C 0.33617 0.74198 0.023 0.0
C505 C 0.36858 0.79769 0.98486 0.0
N506 N 0.30556 0.72569 0.96924 0.0
N507 N 0.3884 0.82229 0.04071 0.0
H508 H 0.38719 0.82209 0.93768 0.0
H509 H 0.4078 0.83612 0.97618 0.0
H510 H 0.39293 0.82107 0.06803 0.0
H511 H 0.39665 0.84586 0.02918 0.0
H512 H 0.28934 0.70807 0.98235 0.0
H513 H 0.30001 0.72805 0.94218 0.0
H514 H 0.31376 0.6909 0.02834 0.0
H515 H 0.32814 0.709 0.06806 0.0
C516 C 0.74553 0.89563 0.47345 0.0
C517 C 0.7418 0.86384 0.45359 0.0
C518 C 0.73595 0.82942 0.50866 0.0
C519 C 0.74136 0.86091 0.52837 0.0
N520 N 0.74411 0.92451 0.53143 0.0
N521 N 0.72752 0.80144 0.45138 0.0
C522 C 0.74384 0.89428 0.51128 0.0
C523 C 0.7347 0.83111 0.47092 0.0
N524 N 0.75112 0.92691 0.45598 0.0
N525 N 0.73406 0.79758 0.52608 0.0
H526 H 0.7294 0.80019 0.4238 0.0
H527 H 0.71773 0.77821 0.46222 0.0
H528 H 0.73325 0.79548 0.55373 0.0
H529 H 0.73489 0.77297 0.51354 0.0
H530 H 0.75776 0.9505 0.46846 0.0
H531 H 0.74989 0.92914 0.42834 0.0
H532 H 0.74364 0.95011 0.52109 0.0
H533 H 0.74231 0.924 0.55913 0.0
C534 C 0.67381 0.24436 0.01234 0.0
C535 C 0.65162 0.22119 0.0312 0.0
C536 C 0.63117 0.19534 0.97542 0.0
C537 C 0.65487 0.21698 0.95673 0.0
N538 N 0.70143 0.25909 0.95621 0.0
N539 N 0.61163 0.17237 0.03217 0.0
C540 C 0.67695 0.24073 0.97485 0.0
C541 C 0.63104 0.19594 0.01315 0.0
N542 N 0.6915 0.27001 0.0303 0.0
N543 N 0.60814 0.17503 0.95695 0.0
H544 H 0.60923 0.17323 0.05979 0.0
H545 H 0.59942 0.15058 0.02095 0.0
H546 H 0.60809 0.17323 0.92926 0.0
H547 H 0.58756 0.16173 0.96869 0.0
H548 H 0.70512 0.29026 0.01792 0.0
H549 H 0.69098 0.27239 0.05794 0.0
H550 H 0.72081 0.27401 0.96801 0.0
H551 H 0.70383 0.25758 0.92861 0.0
C552 C 0.28975 0.87333 0.47907 0.0
C553 C 0.28076 0.84091 0.46237 0.0
C554 C 0.2681 0.81404 0.51978 0.0
C555 C 0.27686 0.84644 0.53686 0.0
N556 N 0.28911 0.90905 0.53279 0.0
N557 N 0.25117 0.78512 0.46512 0.0
C558 C 0.28503 0.87695 0.51646 0.0
C559 C 0.26662 0.81278 0.48226 0.0
N560 N 0.30486 0.8997 0.45968 0.0
N561 N 0.26231 0.78404 0.53925 0.0
H562 H 0.24915 0.78385 0.43746 0.0
H563 H 0.23719 0.76554 0.4782 0.0
H564 H 0.26233 0.78354 0.56688 0.0
H565 H 0.26011 0.7589 0.52798 0.0
H566 H 0.31571 0.92222 0.47094 0.0
H567 H 0.30871 0.89809 0.4323 0.0
H568 H 0.29113 0.93289 0.51898 0.0
H569 H 0.28807 0.91237 0.56029 0.0
C570 C 0.59281 0.79101 0.02152 0.0
C571 C 0.62747 0.79711 0.03251 0.0
C572 C 0.64517 0.80346 0.97042 0.0
C573 C 0.61285 0.78949 0.95984 0.0
N574 N 0.55466 0.77207 0.97386 0.0
N575 N 0.68788 0.806 0.0171 0.0
C576 C 0.58606 0.78432 0.98498 0.0
C577 C 0.65391 0.80341 0.00696 0.0
N578 N 0.56663 0.79173 0.04609 0.0
N579 N 0.66801 0.81566 0.94552 0.0
H580 H 0.69618 0.80489 0.04341 0.0
H581 H 0.70847 0.80603 -0.00089 0.0
H582 H 0.6628 0.81567 0.91836 0.0
H583 H 0.69051 0.82925 0.95207 0.0
H584 H 0.54046 0.79007 0.03957 0.0
H585 H 0.57106 0.797 0.07296 0.0
H586 H 0.53496 0.76427 0.99103 0.0
H587 H 0.5488 0.76884 0.94695 0.0
C588 C 0.71587 0.10769 0.50812 0.0
C589 C 0.72883 0.13785 0.52579 0.0
C590 C 0.73578 0.16937 0.4697 0.0
C591 C 0.71982 0.14051 0.45206 0.0
N592 N 0.70349 0.07908 0.45181 0.0
N593 N 0.76093 0.19205 0.52407 0.0
C594 C 0.71305 0.10841 0.47042 0.0
C595 C 0.74219 0.1669 0.50661 0.0
N596 N 0.70473 0.07936 0.52758 0.0
N597 N 0.74357 0.19961 0.45132 0.0
H598 H 0.76583 0.19044 0.55127 0.0
H599 H 0.7741 0.21251 0.51153 0.0
H600 H 0.74118 0.20169 0.42381 0.0
H601 H 0.75101 0.22323 0.46328 0.0
H602 H 0.69162 0.05789 0.51687 0.0
H603 H 0.70783 0.07791 0.55512 0.0
H604 H 0.70093 0.05393 0.46289 0.0
H605 H 0.70069 0.07964 0.42436 0.0
C606 C 0.32243 0.2173 0.02695 0.0
C607 C 0.35329 0.20789 0.04522 0.0
C608 C 0.38753 0.21504 0.99091 0.0
C609 C 0.35674 0.22532 0.97298 0.0
N610 N 0.29419 0.22626 0.97022 0.0
N611 N 0.41319 0.18914 0.04408 0.0
C612 C 0.32391 0.22326 0.98985 0.0
C613 C 0.38528 0.20386 0.02691 0.0
N614 N 0.29208 0.22227 0.04533 0.0
N615 N 0.41883 0.21714 0.97386 0.0
H616 H 0.41195 0.18073 0.07051 0.0
H617 H 0.4366 0.18276 0.03164 0.0
H618 H 0.42109 0.22454 0.94721 0.0
H619 H 0.44265 0.21323 0.98633 0.0
H620 H 0.26987 0.23377 0.0343 0.0
H621 H 0.2896 0.21677 0.07237 0.0
H622 H 0.26952 0.22154 0.98042 0.0
H623 H 0.29437 0.23001 0.94278 0.0
C624 C 0.50722 0.27747 0.0803 0.0
C625 C 0.52816 0.29499 0.10546 0.0
C626 C 0.47736 0.31089 0.141 0.0
C627 C 0.4574 0.28867 0.11888 0.0
N628 N 0.44889 0.26321 0.06105 0.0
N629 N 0.53154 0.34215 0.14856 0.0
C630 C 0.4709 0.27628 0.0861 0.0
C631 C 0.5126 0.31672 0.13191 0.0
N632 N 0.5226 0.26039 0.05226 0.0
N633 N 0.46344 0.32431 0.17169 0.0
H634 H 0.55679 0.34808 0.14083 0.0
H635 H 0.52094 0.36018 0.16668 0.0
H636 H 0.4374 0.32119 0.17851 0.0
H637 H 0.478 0.33707 0.19106 0.0
H638 H 0.50952 0.24363 0.03498 0.0
H639 H 0.54912 0.2627 0.04703 0.0
H640 H 0.4567 0.25587 0.03556 0.0
H641 H 0.42207 0.26308 0.06496 0.0
C642 C 0.5008 0.70458 0.82159 0.0
C643 C 0.52224 0.70498 0.85223 0.0
C644 C 0.4715 0.71436 0.8905 0.0
C645 C 0.45026 0.7144 0.85986 0.0
N646 N 0.44265 0.70013 0.7978 0.0
N647 N 0.52774 0.70008 0.91594 0.0
C648 C 0.46425 0.70595 0.82596 0.0
C649 C 0.50744 0.70657 0.88681 0.0
N650 N 0.51522 0.70578 0.78833 0.0
N651 N 0.45743 0.72279 0.92288 0.0
H652 H 0.55405 0.69346 0.91391 0.0
H653 H 0.51801 0.69798 0.9417 0.0
H654 H 0.43079 0.72666 0.92666 0.0
H655 H 0.47218 0.72753 0.94553 0.0
H656 H 0.50083 0.70994 0.76526 0.0
H657 H 0.54189 0.70558 0.7837 0.0
H658 H 0.45124 0.6903 0.77339 0.0
H659 H 0.4157 0.70195 0.79971 0.0
C660 C 0.71707 0.97206 0.33958 0.0
C661 C 0.74276 0.96121 0.31476 0.0
C662 C 0.74777 0.02271 0.29415 0.0
C663 C 0.72864 0.03422 0.32456 0.0
N664 N 0.69326 0.0191 0.37572 0.0
N665 N 0.76297 0.97357 0.25538 0.0
C666 C 0.71235 0.00873 0.34684 0.0
C667 C 0.75285 0.98574 0.28811 0.0
N668 N 0.69451 0.9478 0.35314 0.0
N669 N 0.76056 0.04696 0.27062 0.0
H670 H 0.76044 0.94707 0.24794 0.0
H671 H 0.76848 0.98994 0.23386 0.0
H672 H 0.75319 0.07368 0.27066 0.0
H673 H 0.77919 0.04071 0.25144 0.0
H674 H 0.67341 0.9546 0.36923 0.0
H675 H 0.6933 0.92186 0.34356 0.0
H676 H 0.68571 0.00162 0.3957 0.0
H677 H 0.68632 0.04526 0.38082 0.0
C678 C 0.47355 0.25578 0.83216 0.0
C679 C 0.4595 0.28045 0.8568 0.0
C680 C 0.5164 0.28665 0.88504 0.0
C681 C 0.5309 0.2638 0.85875 0.0
N682 N 0.52463 0.23307 0.80258 0.0
N683 N 0.46706 0.32297 0.90383 0.0
C684 C 0.50985 0.25008 0.83104 0.0
C685 C 0.48082 0.29707 0.8824 0.0
N686 N 0.45208 0.23702 0.81031 0.0
N687 N 0.53619 0.29704 0.91324 0.0
H688 H 0.44093 0.33055 0.90285 0.0
H689 H 0.48184 0.33867 0.92064 0.0
H690 H 0.56221 0.28962 0.91608 0.0
H691 H 0.52629 0.31071 0.93516 0.0
H692 H 0.46043 0.21531 0.79526 0.0
H693 H 0.42528 0.24121 0.80916 0.0
H694 H 0.511 0.22641 0.77968 0.0
H695 H 0.55116 0.22864 0.80005 0.0
C696 C 0.29168 0.97848 0.3321 0.0
C697 C 0.27181 0.95597 0.35432 0.0
C698 C 0.23504 0.00634 0.37234 0.0
C699 C 0.25517 0.02863 0.35036 0.0
N700 N 0.30816 0.03877 0.31819 0.0
N701 N 0.23077 0.94955 0.40236 0.0
C702 C 0.2854 0.01559 0.33319 0.0
C703 C 0.24531 0.97024 0.37658 0.0
N704 N 0.31492 0.9644 0.30829 0.0
N705 N 0.20569 0.01946 0.38832 0.0
H706 H 0.23836 0.92322 0.40668 0.0
H707 H 0.21363 0.95929 0.42156 0.0
H708 H 0.19842 0.04622 0.38702 0.0
H709 H 0.18766 0.00362 0.40127 0.0
H710 H 0.32719 0.97938 0.28879 0.0
H711 H 0.31971 0.93726 0.30572 0.0
H712 H 0.33226 0.03109 0.30801 0.0
H713 H 0.30447 0.06622 0.31949 0.0
C714 C 0.53203 0.68423 0.1506 0.0
C715 C 0.54917 0.69852 0.12068 0.0
C716 C 0.49431 0.7065 0.08941 0.0
C717 C 0.47691 0.69643 0.12095 0.0
N718 N 0.47766 0.66527 0.17687 0.0
N719 N 0.54933 0.71128 0.05813 0.0
C720 C 0.49536 0.68126 0.14985 0.0
C721 C 0.53112 0.70534 0.08869 0.0
N722 N 0.55078 0.67556 0.18025 0.0
N723 N 0.47557 0.71895 0.06113 0.0
H724 H 0.57642 0.71067 0.05747 0.0
H725 H 0.53786 0.71364 0.03319 0.0
H726 H 0.44847 0.71841 0.0607 0.0
H727 H 0.48661 0.73058 0.03875 0.0
H728 H 0.53979 0.66881 0.20459 0.0
H729 H 0.57787 0.67606 0.18056 0.0
H730 H 0.48958 0.65161 0.19767 0.0
H731 H 0.45071 0.6631 0.17692 0.0
C732 C 0.78643 0.9757 0.61713 0.0
C733 C 0.77868 0.95894 0.64998 0.0
C734 C 0.7661 0.01665 0.67712 0.0
C735 C 0.76959 0.03279 0.64331 0.0
N736 N 0.77957 0.02812 0.58019 0.0
N737 N 0.75561 0.9625 0.70973 0.0
C738 C 0.77892 0.01248 0.61299 0.0
C739 C 0.7672 0.97915 0.6797 0.0
N740 N 0.80199 0.95671 0.59038 0.0
N741 N 0.7623 0.03723 0.70686 0.0
H742 H 0.7552 0.93497 0.71251 0.0
H743 H 0.74338 0.97582 0.73063 0.0
H744 H 0.76179 0.0649 0.70595 0.0
H745 H 0.76308 0.0271 0.73263 0.0
H746 H 0.81133 0.96819 0.56711 0.0
H747 H 0.80822 0.92978 0.59264 0.0
H748 H 0.78213 0.0139 0.55656 0.0
H749 H 0.77521 0.05526 0.57642 0.0
C750 C 0.24829 0.03185 0.66817 0.0
C751 C 0.22144 0.04679 0.64716 0.0
C752 C 0.21512 0.99032 0.61555 0.0
C753 C 0.23879 0.97419 0.63976 0.0
N754 N 0.2739 0.97885 0.69293 0.0
N755 N 0.17763 0.04096 0.6021 0.0
C756 C 0.25456 0.9948 0.6669 0.0
C757 C 0.20438 0.02625 0.62108 0.0
N758 N 0.26834 0.05321 0.68902 0.0
N759 N 0.20406 0.97172 0.58657 0.0
H760 H 0.16994 0.06748 0.60494 0.0
H761 H 0.16165 0.02646 0.58535 0.0
H762 H 0.21224 0.94574 0.58127 0.0
H763 H 0.18939 0.98291 0.56613 0.0
H764 H 0.29101 0.04442 0.70144 0.0
H765 H 0.2642 0.08051 0.69148 0.0
H766 H 0.28207 0.9919 0.7158 0.0
H767 H 0.27924 0.95183 0.6935 0.0
C768 C 0.14738 0.2283 0.26867 0.0
C769 C 0.13074 0.2548 0.28999 0.0
C770 C 0.14841 0.22242 0.34365 0.0
C771 C 0.16534 0.19665 0.32197 0.0
N772 N 0.16374 0.16652 0.26547 0.0
N773 N 0.10512 0.26954 0.34689 0.0
C774 C 0.15934 0.1967 0.28498 0.0
C775 C 0.1281 0.24961 0.32733 0.0
N776 N 0.15388 0.2336 0.23339 0.0
N777 N 0.15144 0.22063 0.3798 0.0
H778 H 0.08819 0.28806 0.33543 0.0
H779 H 0.10002 0.26496 0.3737 0.0
H780 H 0.16246 0.19873 0.39273 0.0
H781 H 0.14377 0.24116 0.39676 0.0
H782 H 0.16939 0.21635 0.21836 0.0
H783 H 0.14724 0.25665 0.21992 0.0
H784 H 0.15787 0.16509 0.23844 0.0
H785 H 0.16688 0.14189 0.27749 0.0
C786 C 0.26234 0.73197 0.77641 0.0
C787 C 0.26299 0.72617 0.8135 0.0
C788 C 0.21993 0.67929 0.80704 0.0
C789 C 0.21563 0.68906 0.77078 0.0
N790 N 0.22795 0.7309 0.72355 0.0
N791 N 0.2412 0.69628 0.86539 0.0
C792 C 0.2357 0.71686 0.75607 0.0
C793 C 0.2415 0.70027 0.82928 0.0
N794 N 0.28747 0.75167 0.76036 0.0
N795 N 0.20455 0.64937 0.8198 0.0
H796 H 0.25737 0.7107 0.88214 0.0
H797 H 0.22342 0.68053 0.87882 0.0
H798 H 0.18967 0.63279 0.80387 0.0
H799 H 0.20919 0.63918 0.84511 0.0
H800 H 0.29057 0.7532 0.73285 0.0
H801 H 0.30744 0.76343 0.77442 0.0
H802 H 0.20727 0.72277 0.70801 0.0
H803 H 0.23961 0.75376 0.71401 0.0
C804 C 0.85532 0.72906 0.33017 0.0
C805 C 0.85696 0.73115 0.29236 0.0
C806 C 0.84714 0.79505 0.29689 0.0
C807 C 0.83488 0.79098 0.33203 0.0
N808 N 0.83334 0.75486 0.38497 0.0
N809 N 0.84846 0.76724 0.23956 0.0
C810 C 0.8407 0.75808 0.34959 0.0
C811 C 0.85146 0.76451 0.27558 0.0
N812 N 0.86973 0.7007 0.34766 0.0
N813 N 0.85649 0.82747 0.2843 0.0
H814 H 0.84809 0.74521 0.22296 0.0
H815 H 0.8419 0.79108 0.22699 0.0
H816 H 0.85888 0.84935 0.30105 0.0
H817 H 0.86716 0.8309 0.25902 0.0
H818 H 0.87166 0.69925 0.37525 0.0
H819 H 0.88365 0.68058 0.33479 0.0
H820 H 0.83225 0.7305 0.39801 0.0
H821 H 0.82804 0.7768 0.40113 0.0
C822 C 0.76482 0.32741 0.80421 0.0
C823 C 0.76491 0.32575 0.76639 0.0
C824 C 0.71299 0.28876 0.76883 0.0
C825 C 0.71757 0.28456 0.8058 0.0
N826 N 0.74879 0.29832 0.85934 0.0
N827 N 0.74168 0.29762 0.713 0.0
C828 C 0.74376 0.30348 0.82377 0.0
C829 C 0.73944 0.30489 0.74862 0.0
N830 N 0.78356 0.35273 0.82138 0.0
N831 N 0.68361 0.2768 0.75276 0.0
H832 H 0.76229 0.30476 0.69677 0.0
H833 H 0.72527 0.27995 0.70019 0.0
H834 H 0.66386 0.26427 0.76668 0.0
H835 H 0.67721 0.28303 0.72655 0.0
H836 H 0.78217 0.3569 0.84874 0.0
H837 H 0.79731 0.37226 0.8079 0.0
H838 H 0.76998 0.30837 0.87308 0.0
H839 H 0.7328 0.28211 0.87458 0.0
C840 C 0.17208 0.78959 0.69263 0.0
C841 C 0.19328 0.78147 0.66278 0.0
C842 C 0.15673 0.73018 0.64911 0.0
C843 C 0.13791 0.73668 0.68097 0.0
N844 N 0.11493 0.78378 0.7181 0.0
N845 N 0.19769 0.75272 0.60575 0.0
C846 C 0.14139 0.77005 0.69801 0.0
C847 C 0.18319 0.75425 0.63885 0.0
N848 N 0.18209 0.81413 0.71719 0.0
N849 N 0.14882 0.70169 0.62837 0.0
H850 H 0.21489 0.7719 0.59697 0.0
H851 H 0.19004 0.73526 0.58589 0.0
H852 H 0.12574 0.68784 0.63139 0.0
H853 H 0.1647 0.69228 0.60792 0.0
H854 H 0.16893 0.81796 0.74117 0.0
H855 H 0.20522 0.82808 0.71541 0.0
H856 H 0.11565 0.8091 0.72927 0.0
H857 H 0.09049 0.77216 0.71886 0.0
C858 C 0.77917 0.72711 0.12992 0.0
C859 C 0.74531 0.7132 0.12782 0.0
C860 C 0.76305 0.66131 0.16204 0.0
C861 C 0.79361 0.67946 0.17182 0.0
N862 N 0.83631 0.72353 0.15718 0.0
N863 N 0.7146 0.65841 0.12107 0.0
C864 C 0.80387 0.71012 0.15259 0.0
C865 C 0.74022 0.67726 0.13707 0.0
N866 N 0.7873 0.75589 0.10962 0.0
N867 N 0.75534 0.62963 0.17765 0.0
H868 H 0.70026 0.66889 0.09992 0.0
H869 H 0.71084 0.63141 0.12529 0.0
H870 H 0.7727 0.61633 0.19441 0.0
H871 H 0.73144 0.6173 0.17491 0.0
H872 H 0.81151 0.76773 0.10893 0.0
H873 H 0.76981 0.76625 0.091 0.0
H874 H 0.84459 0.7475 0.14665 0.0
H875 H 0.85555 0.71022 0.17151 0.0
C876 C 0.79549 0.2349 0.6905 0.0
C877 C 0.79432 0.23091 0.65313 0.0
C878 C 0.8376 0.27759 0.64576 0.0
C879 C 0.83938 0.28122 0.68342 0.0
N880 N 0.82376 0.25788 0.74207 0.0
N881 N 0.81768 0.24311 0.59523 0.0
C882 C 0.81995 0.25797 0.70588 0.0
C883 C 0.8163 0.25083 0.63072 0.0
N884 N 0.77117 0.21876 0.71146 0.0
N885 N 0.85658 0.29942 0.62437 0.0
H886 H 0.80269 0.22332 0.58389 0.0
H887 H 0.83541 0.25401 0.57755 0.0
H888 H 0.87553 0.3164 0.63401 0.0
H889 H 0.85299 0.30157 0.59703 0.0
H890 H 0.76718 0.22482 0.73821 0.0
H891 H 0.75241 0.20176 0.70167 0.0
H892 H 0.81581 0.23682 0.75798 0.0
H893 H 0.83523 0.27763 0.75698 0.0
C894 C 0.20871 0.2916 0.17893 0.0
C895 C 0.21366 0.31387 0.20899 0.0
C896 C 0.27593 0.30095 0.20853 0.0
C897 C 0.27076 0.27611 0.18072 0.0
N898 N 0.23557 0.25651 0.13184 0.0
N899 N 0.25278 0.35174 0.24055 0.0
C900 C 0.23811 0.27421 0.16345 0.0
C901 C 0.2477 0.32257 0.21969 0.0
N902 N 0.17621 0.28608 0.1658 0.0
N903 N 0.30699 0.30243 0.22592 0.0
H904 H 0.23232 0.3686 0.24805 0.0
H905 H 0.27728 0.36131 0.24686 0.0
H906 H 0.32859 0.28718 0.2188 0.0
H907 H 0.31055 0.31689 0.24922 0.0
H908 H 0.17042 0.26616 0.14766 0.0
H909 H 0.1545 0.30075 0.17366 0.0
H910 H 0.21346 0.25679 0.11599 0.0
H911 H 0.25686 0.24414 0.11971 0.0
C912 C 0.35345 0.16051 0.23182 0.0
C913 C 0.35978 0.19746 0.23356 0.0
C914 C 0.31309 0.20545 0.27674 0.0
C915 C 0.3038 0.16944 0.27182 0.0
N916 N 0.31938 0.11041 0.25199 0.0
N917 N 0.35885 0.24864 0.27188 0.0
C918 C 0.3255 0.14611 0.25171 0.0
C919 C 0.34385 0.21805 0.26058 0.0
N920 N 0.37429 0.13964 0.21081 0.0
N921 N 0.29171 0.2281 0.29517 0.0
H922 H 0.38337 0.25625 0.26319 0.0
H923 H 0.3494 0.26353 0.29324 0.0
H924 H 0.26868 0.22005 0.30716 0.0
H925 H 0.29544 0.25545 0.29599 0.0
H926 H 0.36967 0.11316 0.20486 0.0
H927 H 0.39703 0.14931 0.19941 0.0
H928 H 0.3352 0.09144 0.23981 0.0
H929 H 0.29894 0.09919 0.26606 0.0
C930 C 0.3628 0.81644 0.74901 0.0
C931 C 0.34894 0.82288 0.78336 0.0
C932 C 0.31092 0.86874 0.75756 0.0
C933 C 0.31645 0.85378 0.72315 0.0
N934 N 0.3561 0.81962 0.68552 0.0
N935 N 0.31695 0.86368 0.82122 0.0
C936 C 0.34499 0.82958 0.71857 0.0
C937 C 0.32514 0.85159 0.78802 0.0
N938 N 0.39468 0.80039 0.74575 0.0
N939 N 0.29539 0.90134 0.76092 0.0
H940 H 0.3334 0.86035 0.8429 0.0
H941 H 0.29468 0.87872 0.82664 0.0
H942 H 0.29014 0.91743 0.73916 0.0
H943 H 0.29275 0.91492 0.78491 0.0
H944 H 0.40777 0.79732 0.72166 0.0
H945 H 0.41018 0.79448 0.76776 0.0
H946 H 0.37085 0.79666 0.68105 0.0
H947 H 0.35277 0.83527 0.663 0.0
C948 C 0.72409 0.77107 0.25393 0.0
C949 C 0.71847 0.80708 0.26321 0.0
C950 C 0.66355 0.80769 0.23072 0.0
C951 C 0.67207 0.77387 0.21636 0.0
N952 N 0.71151 0.72325 0.2134 0.0
N953 N 0.68424 0.86101 0.25929 0.0
C954 C 0.7023 0.75516 0.22814 0.0
C955 C 0.68836 0.8257 0.25167 0.0
N956 N 0.75004 0.75203 0.27018 0.0
N957 N 0.63134 0.82217 0.22492 0.0
H958 H 0.70163 0.87513 0.27494 0.0
H959 H 0.66495 0.87699 0.24801 0.0
H960 H 0.61222 0.8091 0.21051 0.0
H961 H 0.62235 0.84521 0.23738 0.0
H962 H 0.75312 0.72465 0.26766 0.0
H963 H 0.76665 0.7631 0.28894 0.0
H964 H 0.73556 0.7111 0.21744 0.0
H965 H 0.69633 0.70961 0.19531 0.0
C966 C 0.66383 0.18874 0.70986 0.0
C967 C 0.68393 0.15706 0.71222 0.0
C968 C 0.66031 0.1469 0.77208 0.0
C969 C 0.64162 0.17953 0.7694 0.0
N970 N 0.60983 0.21614 0.72748 0.0
N971 N 0.68955 0.09932 0.74001 0.0
C972 C 0.63802 0.19544 0.73555 0.0
C973 C 0.67888 0.13402 0.7418 0.0
N974 N 0.67077 0.21386 0.68497 0.0
N975 N 0.65929 0.12755 0.80273 0.0
H976 H 0.69993 0.08799 0.71697 0.0
H977 H 0.68425 0.08065 0.75964 0.0
H978 H 0.64074 0.13208 0.82248 0.0
H979 H 0.67652 0.10672 0.80814 0.0
H980 H 0.65748 0.23811 0.6837 0.0
H981 H 0.693 0.21261 0.66957 0.0
H982 H 0.60587 0.22677 0.70217 0.0
H983 H 0.58815 0.21773 0.74409 0.0
C984 C 0.84073 0.77742 0.68076 0.0
C985 C 0.80856 0.77214 0.6632 0.0
C986 C 0.7922 0.72809 0.70762 0.0
C987 C 0.8234 0.73445 0.72631 0.0
N988 N 0.88112 0.75846 0.72672 0.0
N989 N 0.76429 0.72917 0.65025 0.0
C990 C 0.84886 0.75723 0.71173 0.0
C991 C 0.78738 0.74342 0.67356 0.0
N992 N 0.86361 0.80141 0.66731 0.0
N993 N 0.76667 0.70821 0.72275 0.0
H994 H 0.76368 0.73619 0.62346 0.0
H995 H 0.7498 0.70672 0.65603 0.0
H996 H 0.76903 0.69681 0.74795 0.0
H997 H 0.74199 0.70601 0.71171 0.0
H998 H 0.88516 0.81057 0.681 0.0
H999 H 0.86078 0.81224 0.64191 0.0
H1000 H 0.90202 0.77183 0.71572 0.0
H1001 H 0.88779 0.74397 0.74931 0.0
C1002 C 0.70064 0.2988 0.22086 0.0
C1003 C 0.70616 0.29405 0.18416 0.0
C1004 C 0.75374 0.33618 0.18658 0.0
C1005 C 0.75345 0.33388 0.22438 0.0
N1006 N 0.72896 0.30488 0.27695 0.0
N1007 N 0.73846 0.30748 0.13108 0.0
C1008 C 0.72727 0.31347 0.24161 0.0
C1009 C 0.73282 0.31263 0.16657 0.0
N1010 N 0.67005 0.28908 0.23609 0.0
N1011 N 0.77278 0.36162 0.16991 0.0
H1012 H 0.72274 0.29125 0.11561 0.0
H1013 H 0.75992 0.31752 0.1177 0.0
H1014 H 0.78622 0.38105 0.18383 0.0
H1015 H 0.77181 0.36604 0.14257 0.0
H1016 H 0.66347 0.29607 0.26209 0.0
H1017 H 0.64981 0.27839 0.22139 0.0
H1018 H 0.71146 0.28769 0.28898 0.0
H1019 H 0.74999 0.30993 0.29335 0.0
C1020 C 0.14095 0.2573 0.71935 0.0
C1021 C 0.16456 0.27868 0.73835 0.0
C1022 C 0.21327 0.25341 0.70445 0.0
C1023 C 0.18944 0.23296 0.68417 0.0
N1024 N 0.13031 0.2218 0.66684 0.0
N1025 N 0.22214 0.30163 0.7461 0.0
C1026 C 0.15316 0.23663 0.69016 0.0
C1027 C 0.20038 0.27817 0.7299 0.0
N1028 N 0.10689 0.25646 0.72948 0.0
N1029 N 0.24827 0.24805 0.70097 0.0
H1030 H 0.21415 0.31879 0.76636 0.0
H1031 H 0.24757 0.30594 0.7379 0.0
H1032 H 0.25957 0.2316 0.68198 0.0
H1033 H 0.26643 0.2581 0.71866 0.0
H1034 H 0.08919 0.2383 0.71957 0.0
H1035 H 0.09684 0.2724 0.74976 0.0
H1036 H 0.10363 0.22642 0.66766 0.0
H1037 H 0.13823 0.20771 0.64429 0.0
C1038 C 0.23896 0.65301 0.15766 0.0
C1039 C 0.23475 0.64497 0.19434 0.0
C1040 C 0.28784 0.67765 0.20745 0.0
C1041 C 0.28791 0.69085 0.17238 0.0
N1042 N 0.26137 0.69465 0.11449 0.0
N1043 N 0.25214 0.65813 0.25555 0.0
C1044 C 0.26285 0.67956 0.14749 0.0
C1045 C 0.25861 0.659 0.21975 0.0
N1046 N 0.22117 0.63452 0.13246 0.0
N1047 N 0.31525 0.68382 0.22948 0.0
H1048 H 0.22989 0.64824 0.26724 0.0
H1049 H 0.26701 0.67191 0.27398 0.0
H1050 H 0.33671 0.69834 0.22153 0.0
H1051 H 0.3181 0.67159 0.2542 0.0
H1052 H 0.22556 0.6374 0.10527 0.0
H1053 H 0.205 0.61341 0.13871 0.0
H1054 H 0.24131 0.69 0.0966 0.0
H1055 H 0.27871 0.71401 0.10616 0.0
C1056 C 0.82596 0.27105 0.33484 0.0
C1057 C 0.82692 0.27902 0.29783 0.0
C1058 C 0.77968 0.23677 0.28733 0.0
C1059 C 0.77896 0.22901 0.32411 0.0
N1060 N 0.80598 0.23145 0.38148 0.0
N1061 N 0.80883 0.263 0.23756 0.0
C1062 C 0.80343 0.24409 0.34751 0.0
C1063 C 0.80548 0.25964 0.27366 0.0
N1064 N 0.84684 0.28899 0.35788 0.0
N1065 N 0.75402 0.2243 0.26562 0.0
H1066 H 0.82271 0.28247 0.22455 0.0
H1067 H 0.79847 0.24485 0.2197 0.0
H1068 H 0.73478 0.20708 0.27418 0.0
H1069 H 0.74986 0.23326 0.23975 0.0
H1070 H 0.84413 0.28798 0.38541 0.0
H1071 H 0.86635 0.30603 0.34953 0.0
H1072 H 0.82513 0.23887 0.39937 0.0
H1073 H 0.79081 0.21062 0.39063 0.0
C1074 C 0.24498 0.37266 0.84411 0.0
C1075 C 0.21258 0.35514 0.84317 0.0
C1076 C 0.24126 0.2992 0.85558 0.0
C1077 C 0.27376 0.31617 0.85964 0.0
N1078 N 0.30231 0.37251 0.87008 0.0
N1079 N 0.1813 0.30729 0.87072 0.0
C1080 C 0.2747 0.35402 0.85734 0.0
C1081 C 0.21088 0.32012 0.85603 0.0
N1082 N 0.24718 0.40733 0.83392 0.0
N1083 N 0.23886 0.26364 0.8495 0.0
H1084 H 0.16113 0.3243 0.87843 0.0
H1085 H 0.17997 0.28163 0.88108 0.0
H1086 H 0.26034 0.24781 0.84331 0.0
H1087 H 0.21503 0.25148 0.84516 0.0
H1088 H 0.27081 0.41993 0.82986 0.0
H1089 H 0.22531 0.4231 0.8288 0.0
H1090 H 0.30266 0.40015 0.87117 0.0
H1091 H 0.32272 0.36082 0.88404 0.0
C1092 C 0.20693 0.74322 0.32686 0.0
C1093 C 0.23125 0.76552 0.30982 0.0
C1094 C 0.21404 0.74282 0.25183 0.0
C1095 C 0.18828 0.7213 0.2685 0.0
N1096 N 0.15424 0.70911 0.32093 0.0
N1097 N 0.25126 0.7938 0.25615 0.0
C1098 C 0.18294 0.72387 0.30582 0.0
C1099 C 0.23219 0.768 0.27236 0.0
N1100 N 0.20695 0.74033 0.36307 0.0
N1101 N 0.22377 0.73748 0.21718 0.0
H1102 H 0.26668 0.81157 0.27 0.0
H1103 H 0.24921 0.79973 0.22915 0.0
H1104 H 0.2145 0.71753 0.20087 0.0
H1105 H 0.24471 0.75017 0.20544 0.0
H1106 H 0.19259 0.72149 0.37681 0.0
H1107 H 0.22295 0.75553 0.37927 0.0
H1108 H 0.14739 0.71271 0.34751 0.0
H1109 H 0.13521 0.69648 0.30602 0.0
C1110 C 0.77065 0.6962 0.85545 0.0
C1111 C 0.76996 0.6613 0.84199 0.0
C1112 C 0.70879 0.65908 0.85936 0.0
C1113 C 0.70775 0.69693 0.86126 0.0
N1114 N 0.74015 0.75152 0.85182 0.0
N1115 N 0.73787 0.60715 0.83487 0.0
C1116 C 0.73934 0.71569 0.85684 0.0
C1117 C 0.73871 0.64199 0.84473 0.0
N1118 N 0.8003 0.71031 0.86865 0.0
N1119 N 0.68279 0.63929 0.87372 0.0
H1120 H 0.76025 0.59252 0.82871 0.0
H1121 H 0.71479 0.59324 0.83219 0.0
H1122 H 0.66276 0.65024 0.88897 0.0
H1123 H 0.68379 0.61166 0.87496 0.0
H1124 H 0.80092 0.73575 0.87962 0.0
H1125 H 0.82176 0.69439 0.87476 0.0
H1126 H 0.76329 0.7648 0.84685 0.0
H1127 H 0.71817 0.76695 0.84712 0.0
C1128 C 0.70113 0.83087 0.75573 0.0
C1129 C 0.70717 0.81607 0.72164 0.0
C1130 C 0.66298 0.77159 0.73366 0.0
C1131 C 0.66372 0.78062 0.77028 0.0
N1132 N 0.6843 0.82044 0.81653 0.0
N1133 N 0.69439 0.77073 0.67811 0.0
C1134 C 0.6824 0.81114 0.78145 0.0
C1135 C 0.68784 0.78633 0.71026 0.0
N1136 N 0.71297 0.86408 0.7633 0.0
N1137 N 0.638 0.7494 0.72117 0.0
H1138 H 0.71211 0.78054 0.6598 0.0
H1139 H 0.68404 0.74638 0.67076 0.0
H1140 H 0.61831 0.73963 0.73744 0.0
H1141 H 0.63442 0.74424 0.6942 0.0
H1142 H 0.70642 0.87785 0.78644 0.0
H1143 H 0.72615 0.87942 0.74464 0.0
H1144 H 0.70155 0.83927 0.82604 0.0
H1145 H 0.67086 0.80805 0.8369 0.0
C1146 C 0.64284 0.14963 0.24389 0.0
C1147 C 0.65362 0.17213 0.27208 0.0
C1148 C 0.6149 0.2185 0.24885 0.0
C1149 C 0.61454 0.20092 0.21566 0.0
N1150 N 0.61861 0.14508 0.18458 0.0
N1151 N 0.6492 0.2295 0.30091 0.0
C1152 C 0.62548 0.16485 0.2141 0.0
C1153 C 0.6389 0.2068 0.27493 0.0
N1154 N 0.64751 0.11369 0.24654 0.0
N1155 N 0.59205 0.24557 0.2558 0.0
H1156 H 0.66932 0.22343 0.31807 0.0
H1157 H 0.64031 0.25564 0.30294 0.0
H1158 H 0.57162 0.25183 0.23868 0.0
H1159 H 0.59009 0.25781 0.2806 0.0
H1160 H 0.63798 0.09563 0.22813 0.0
H1161 H 0.65748 0.10151 0.26931 0.0
H1162 H 0.6302 0.12049 0.17941 0.0
H1163 H 0.60094 0.1535 0.16525 0.0
C1164 C 0.29222 0.16198 0.76552 0.0
C1165 C 0.29336 0.17095 0.72913 0.0
C1166 C 0.33658 0.21606 0.74289 0.0
C1167 C 0.32585 0.2148 0.77905 0.0
N1168 N 0.29379 0.18402 0.82545 0.0
N1169 N 0.32566 0.1991 0.68181 0.0
C1170 C 0.30455 0.18647 0.79089 0.0
C1171 C 0.31876 0.19534 0.71721 0.0
N1172 N 0.27891 0.13009 0.77555 0.0
N1173 N 0.36469 0.23585 0.73357 0.0
H1174 H 0.31916 0.18002 0.66304 0.0
H1175 H 0.33887 0.22062 0.67123 0.0
H1176 H 0.37939 0.24955 0.75225 0.0
H1177 H 0.37568 0.2358 0.70826 0.0
H1178 H 0.27988 0.12064 0.80159 0.0
H1179 H 0.27071 0.11155 0.75678 0.0
H1180 H 0.27486 0.16628 0.83372 0.0
H1181 H 0.30133 0.20107 0.84563 0.0
C1182 C 0.36841 0.78679 0.29462 0.0
C1183 C 0.35628 0.82189 0.28872 0.0
C1184 C 0.38225 0.81934 0.2293 0.0
C1185 C 0.38254 0.78163 0.23115 0.0
N1186 N 0.37903 0.72918 0.26925 0.0
N1187 N 0.36004 0.87487 0.25302 0.0
C1188 C 0.37695 0.76512 0.26489 0.0
C1189 C 0.36578 0.83924 0.25676 0.0
N1190 N 0.37446 0.77492 0.32835 0.0
N1191 N 0.39974 0.83609 0.20258 0.0
H1192 H 0.35356 0.89119 0.27449 0.0
H1193 H 0.36164 0.88801 0.2287 0.0
H1194 H 0.41528 0.82232 0.18434 0.0
H1195 H 0.40265 0.86351 0.20125 0.0
H1196 H 0.38546 0.75012 0.33388 0.0
H1197 H 0.37442 0.79196 0.35015 0.0
H1198 H 0.36973 0.71659 0.292 0.0
H1199 H 0.38863 0.71147 0.25048 0.0
loop_
_geom_bond_atom_site_label_1
_geom_bond_atom_site_label_2
_geom_bond_distance
_geom_bond_site_symmetry_2
_ccdc_geom_bond_type
Co0 O1 2.216 . S
Co0 O2 2.091 . S
Co0 O4 2.004 . S
Co0 O10 2.021 . S
Co0 O12 2.137 . S
Co0 O13 2.244 . S
O1 Co0 2.216 . S
O1 C8 1.247 . S
O2 Co0 2.091 . S
O2 C8 1.261 . S
C3 O12 1.247 . S
C3 O13 1.272 . S
O4 Co0 2.004 . S
O4 C9 1.259 . S
Co5 O6 2.061 . S
Co5 O11 2.052 . S
Co5 O13 2.135 . S
O6 Co5 2.061 . S
O6 C9 1.235 . S
C7 O10 1.238 . S
C7 O11 1.241 . S
C8 O1 1.247 . S
C8 O2 1.261 . S
C9 O4 1.259 . S
C9 O6 1.235 . S
O10 Co0 2.021 . S
O10 C7 1.238 . S
O11 Co5 2.052 . S
O11 C7 1.241 . S
O12 Co0 2.137 . S
O12 C3 1.247 . S
O13 Co0 2.244 . S
O13 C3 1.272 . S
O13 Co5 2.135 . S
Co14 O15 2.216 . S
Co14 O16 2.091 . S
Co14 O18 2.004 . S
Co14 O24 2.021 . S
Co14 O26 2.137 . S
Co14 O27 2.244 . S
O15 Co14 2.216 . S
O15 C22 1.247 . S
O16 Co14 2.091 . S
O16 C22 1.261 . S
C17 O26 1.247 . S
C17 O27 1.272 . S
O18 Co14 2.004 . S
O18 C23 1.259 . S
Co19 O20 2.061 . S
Co19 O25 2.052 . S
Co19 O27 2.135 . S
O20 Co19 2.061 . S
O20 C23 1.235 . S
C21 O24 1.238 . S
C21 O25 1.241 . S
C22 O15 1.247 . S
C22 O16 1.261 . S
C23 O18 1.259 . S
C23 O20 1.235 . S
O24 Co14 2.021 . S
O24 C21 1.238 . S
O25 Co19 2.052 . S
O25 C21 1.241 . S
O26 Co14 2.137 . S
O26 C17 1.247 . S
O27 Co14 2.244 . S
O27 C17 1.272 . S
O27 Co19 2.135 . S
Co28 O29 2.216 . S
Co28 O30 2.091 . S
Co28 O32 2.004 . S
Co28 O38 2.021 . S
Co28 O40 2.137 . S
Co28 O41 2.244 . S
O29 Co28 2.216 . S
O29 C36 1.247 . S
O30 Co28 2.091 . S
O30 C36 1.261 . S
C31 O40 1.247 . S
C31 O41 1.272 . S
O32 Co28 2.004 . S
O32 C37 1.259 . S
Co33 O34 2.061 . S
Co33 O39 2.052 . S
Co33 O41 2.135 . S
O34 Co33 2.061 . S
O34 C37 1.235 . S
C35 O38 1.238 . S
C35 O39 1.241 . S
C36 O29 1.247 . S
C36 O30 1.261 . S
C37 O32 1.259 . S
C37 O34 1.235 . S
O38 Co28 2.021 . S
O38 C35 1.238 . S
O39 Co33 2.052 . S
O39 C35 1.241 . S
O40 Co28 2.137 . S
O40 C31 1.247 . S
O41 Co28 2.244 . S
O41 C31 1.272 . S
O41 Co33 2.135 . S
Co42 O43 2.216 . S
Co42 O44 2.091 . S
Co42 O46 2.004 . S
Co42 O52 2.021 . S
Co42 O54 2.137 . S
Co42 O55 2.244 . S
O43 Co42 2.216 . S
O43 C50 1.247 . S
O44 Co42 2.091 . S
O44 C50 1.261 . S
C45 O54 1.247 . S
C45 O55 1.272 . S
O46 Co42 2.004 . S
O46 C51 1.259 . S
Co47 O48 2.061 . S
Co47 O53 2.052 . S
Co47 O55 2.135 . S
O48 Co47 2.061 . S
O48 C51 1.235 . S
C49 O52 1.238 . S
C49 O53 1.241 . S
C50 O43 1.247 . S
C50 O44 1.261 . S
C51 O46 1.259 . S
C51 O48 1.235 . S
O52 Co42 2.021 . S
O52 C49 1.238 . S
O53 Co47 2.052 . S
O53 C49 1.241 . S
O54 Co42 2.137 . S
O54 C45 1.247 . S
O55 Co42 2.244 . S
O55 C45 1.272 . S
O55 Co47 2.135 . S
Co56 O57 2.216 . S
Co56 O58 2.091 . S
Co56 O60 2.004 . S
Co56 O66 2.021 . S
Co56 O68 2.137 . S
Co56 O69 2.244 . S
O57 Co56 2.216 . S
O57 C64 1.247 . S
O58 Co56 2.091 . S
O58 C64 1.261 . S
C59 O68 1.247 . S
C59 O69 1.272 . S
O60 Co56 2.004 . S
O60 C65 1.259 . S
Co61 O62 2.061 . S
Co61 O67 2.052 . S
Co61 O69 2.135 . S
O62 Co61 2.061 . S
O62 C65 1.235 . S
C63 O66 1.238 . S
C63 O67 1.241 . S
C64 O57 1.247 . S
C64 O58 1.261 . S
C65 O60 1.259 . S
C65 O62 1.235 . S
O66 Co56 2.021 . S
O66 C63 1.238 . S
O67 Co61 2.052 . S
O67 C63 1.241 . S
O68 Co56 2.137 . S
O68 C59 1.247 . S
O69 Co56 2.244 . S
O69 C59 1.272 . S
O69 Co61 2.135 . S
Co70 O71 2.216 . S
Co70 O72 2.091 . S
Co70 O74 2.004 . S
Co70 O80 2.021 . S
Co70 O82 2.137 . S
Co70 O83 2.244 . S
O71 Co70 2.216 . S
O71 C78 1.247 . S
O72 Co70 2.091 . S
O72 C78 1.261 . S
C73 O82 1.247 . S
C73 O83 1.272 . S
O74 Co70 2.004 . S
O74 C79 1.259 . S
Co75 O76 2.061 . S
Co75 O81 2.052 . S
Co75 O83 2.135 . S
O76 Co75 2.061 . S
O76 C79 1.235 . S
C77 O80 1.238 . S
C77 O81 1.241 . S
C78 O71 1.247 . S
C78 O72 1.261 . S
C79 O74 1.259 . S
C79 O76 1.235 . S
O80 Co70 2.021 . S
O80 C77 1.238 . S
O81 Co75 2.052 . S
O81 C77 1.241 . S
O82 Co70 2.137 . S
O82 C73 1.247 . S
O83 Co70 2.244 . S
O83 C73 1.272 . S
O83 Co75 2.135 . S
Co84 O85 2.216 . S
Co84 O86 2.091 . S
Co84 O88 2.004 . S
Co84 O94 2.021 . S
Co84 O96 2.137 . S
Co84 O97 2.244 . S
O85 Co84 2.216 . S
O85 C92 1.247 . S
O86 Co84 2.091 . S
O86 C92 1.261 . S
C87 O96 1.247 . S
C87 O97 1.272 . S
O88 Co84 2.004 . S
O88 C93 1.259 . S
Co89 O90 2.061 . S
Co89 O95 2.052 . S
Co89 O97 2.135 . S
O90 Co89 2.061 . S
O90 C93 1.235 . S
C91 O94 1.238 . S
C91 O95 1.241 . S
C92 O85 1.247 . S
C92 O86 1.261 . S
C93 O88 1.259 . S
C93 O90 1.235 . S
O94 Co84 2.021 . S
O94 C91 1.238 . S
O95 Co89 2.052 . S
O95 C91 1.241 . S
O96 Co84 2.137 . S
O96 C87 1.247 . S
O97 Co84 2.244 . S
O97 C87 1.272 . S
O97 Co89 2.135 . S
Co98 O99 2.216 . S
Co98 O100 2.091 . S
Co98 O102 2.004 . S
Co98 O108 2.021 . S
Co98 O110 2.137 . S
Co98 O111 2.244 . S
O99 Co98 2.216 . S
O99 C106 1.247 . S
O100 Co98 2.091 . S
O100 C106 1.261 . S
C101 O110 1.247 . S
C101 O111 1.272 . S
O102 Co98 2.004 . S
O102 C107 1.259 . S
Co103 O104 2.061 . S
Co103 O109 2.052 . S
Co103 O111 2.135 . S
O104 Co103 2.061 . S
O104 C107 1.235 . S
C105 O108 1.238 . S
C105 O109 1.241 . S
C106 O99 1.247 . S
C106 O100 1.261 . S
C107 O102 1.259 . S
C107 O104 1.235 . S
O108 Co98 2.021 . S
O108 C105 1.238 . S
O109 Co103 2.052 . S
O109 C105 1.241 . S
O110 Co98 2.137 . S
O110 C101 1.247 . S
O111 Co98 2.244 . S
O111 C101 1.272 . S
O111 Co103 2.135 . S
Co112 O113 2.216 . S
Co112 O114 2.091 . S
Co112 O116 2.004 . S
Co112 O122 2.021 . S
Co112 O124 2.137 . S
Co112 O125 2.244 . S
O113 Co112 2.216 . S
O113 C120 1.247 . S
O114 Co112 2.091 . S
O114 C120 1.261 . S
C115 O124 1.247 . S
C115 O125 1.272 . S
O116 Co112 2.004 . S
O116 C121 1.259 . S
Co117 O118 2.061 . S
Co117 O123 2.052 . S
Co117 O125 2.135 . S
O118 Co117 2.061 . S
O118 C121 1.235 . S
C119 O122 1.238 . S
C119 O123 1.241 . S
C120 O113 1.247 . S
C120 O114 1.261 . S
C121 O116 1.259 . S
C121 O118 1.235 . S
O122 Co112 2.021 . S
O122 C119 1.238 . S
O123 Co117 2.052 . S
O123 C119 1.241 . S
O124 Co112 2.137 . S
O124 C115 1.247 . S
O125 Co112 2.244 . S
O125 C115 1.272 . S
O125 Co117 2.135 . S
Co126 O127 2.216 . S
Co126 O128 2.091 . S
Co126 O130 2.004 . S
Co126 O136 2.021 . S
Co126 O138 2.137 . S
Co126 O139 2.244 . S
O127 Co126 2.216 . S
O127 C134 1.247 . S
O128 Co126 2.091 . S
O128 C134 1.261 . S
C129 O138 1.247 . S
C129 O139 1.272 . S
O130 Co126 2.004 . S
O130 C135 1.259 . S
Co131 O132 2.061 . S
Co131 O137 2.052 . S
Co131 O139 2.135 . S
O132 Co131 2.061 . S
O132 C135 1.235 . S
C133 O136 1.238 . S
C133 O137 1.241 . S
C134 O127 1.247 . S
C134 O128 1.261 . S
C135 O130 1.259 . S
C135 O132 1.235 . S
O136 Co126 2.021 . S
O136 C133 1.238 . S
O137 Co131 2.052 . S
O137 C133 1.241 . S
O138 Co126 2.137 . S
O138 C129 1.247 . S
O139 Co126 2.244 . S
O139 C129 1.272 . S
O139 Co131 2.135 . S
Co140 O141 2.216 . S
Co140 O142 2.091 . S
Co140 O144 2.004 . S
Co140 O150 2.021 . S
Co140 O152 2.137 . S
Co140 O153 2.244 . S
O141 Co140 2.216 . S
O141 C148 1.247 . S
O142 Co140 2.091 . S
O142 C148 1.261 . S
C143 O152 1.247 . S
C143 O153 1.272 . S
O144 Co140 2.004 . S
O144 C149 1.259 . S
Co145 O146 2.061 . S
Co145 O151 2.052 . S
Co145 O153 2.135 . S
O146 Co145 2.061 . S
O146 C149 1.235 . S
C147 O150 1.238 . S
C147 O151 1.241 . S
C148 O141 1.247 . S
C148 O142 1.261 . S
C149 O144 1.259 . S
C149 O146 1.235 . S
O150 Co140 2.021 . S
O150 C147 1.238 . S
O151 Co145 2.052 . S
O151 C147 1.241 . S
O152 Co140 2.137 . S
O152 C143 1.247 . S
O153 Co140 2.244 . S
O153 C143 1.272 . S
O153 Co145 2.135 . S
Co154 O155 2.216 . S
Co154 O156 2.091 . S
Co154 O158 2.004 . S
Co154 O164 2.021 . S
Co154 O166 2.137 . S
Co154 O167 2.244 . S
O155 Co154 2.216 . S
O155 C162 1.247 . S
O156 Co154 2.091 . S
O156 C162 1.261 . S
C157 O166 1.247 . S
C157 O167 1.272 . S
O158 Co154 2.004 . S
O158 C163 1.259 . S
Co159 O160 2.061 . S
Co159 O165 2.052 . S
Co159 O167 2.135 . S
O160 Co159 2.061 . S
O160 C163 1.235 . S
C161 O164 1.238 . S
C161 O165 1.241 . S
C162 O155 1.247 . S
C162 O156 1.261 . S
C163 O158 1.259 . S
C163 O160 1.235 . S
O164 Co154 2.021 . S
O164 C161 1.238 . S
O165 Co159 2.052 . S
O165 C161 1.241 . S
O166 Co154 2.137 . S
O166 C157 1.247 . S
O167 Co154 2.244 . S
O167 C157 1.272 . S
O167 Co159 2.135 . S
Co168 O169 2.216 . S
Co168 O170 2.091 . S
Co168 O172 2.004 . S
Co168 O178 2.021 . S
Co168 O180 2.137 . S
Co168 O181 2.244 . S
O169 Co168 2.216 . S
O169 C176 1.247 . S
O170 Co168 2.091 . S
O170 C176 1.261 . S
C171 O180 1.247 . S
C171 O181 1.272 . S
O172 Co168 2.004 . S
O172 C177 1.259 . S
Co173 O174 2.061 . S
Co173 O179 2.052 . S
Co173 O181 2.135 . S
O174 Co173 2.061 . S
O174 C177 1.235 . S
C175 O178 1.238 . S
C175 O179 1.241 . S
C176 O169 1.247 . S
C176 O170 1.261 . S
C177 O172 1.259 . S
C177 O174 1.235 . S
O178 Co168 2.021 . S
O178 C175 1.238 . S
O179 Co173 2.052 . S
O179 C175 1.241 . S
O180 Co168 2.137 . S
O180 C171 1.247 . S
O181 Co168 2.244 . S
O181 C171 1.272 . S
O181 Co173 2.135 . S
Co182 O183 2.216 . S
Co182 O184 2.091 . S
Co182 O186 2.004 . S
Co182 O192 2.021 . S
Co182 O194 2.137 . S
Co182 O195 2.244 . S
O183 Co182 2.216 . S
O183 C190 1.247 . S
O184 Co182 2.091 . S
O184 C190 1.261 . S
C185 O194 1.247 . S
C185 O195 1.272 . S
O186 Co182 2.004 . S
O186 C191 1.259 . S
Co187 O188 2.061 . S
Co187 O193 2.052 . S
Co187 O195 2.135 . S
O188 Co187 2.061 . S
O188 C191 1.235 . S
C189 O192 1.238 . S
C189 O193 1.241 . S
C190 O183 1.247 . S
C190 O184 1.261 . S
C191 O186 1.259 . S
C191 O188 1.235 . S
O192 Co182 2.021 . S
O192 C189 1.238 . S
O193 Co187 2.052 . S
O193 C189 1.241 . S
O194 Co182 2.137 . S
O194 C185 1.247 . S
O195 Co182 2.244 . S
O195 C185 1.272 . S
O195 Co187 2.135 . S
Co196 O197 2.216 . S
Co196 O198 2.091 . S
Co196 O200 2.004 . S
Co196 O206 2.021 . S
Co196 O208 2.137 . S
Co196 O209 2.244 . S
O197 Co196 2.216 . S
O197 C204 1.247 . S
O198 Co196 2.091 . S
O198 C204 1.261 . S
C199 O208 1.247 . S
C199 O209 1.272 . S
O200 Co196 2.004 . S
O200 C205 1.259 . S
Co201 O202 2.061 . S
Co201 O207 2.052 . S
Co201 O209 2.135 . S
O202 Co201 2.061 . S
O202 C205 1.235 . S
C203 O206 1.238 . S
C203 O207 1.241 . S
C204 O197 1.247 . S
C204 O198 1.261 . S
C205 O200 1.259 . S
C205 O202 1.235 . S
O206 Co196 2.021 . S
O206 C203 1.238 . S
O207 Co201 2.052 . S
O207 C203 1.241 . S
O208 Co196 2.137 . S
O208 C199 1.247 . S
O209 Co196 2.244 . S
O209 C199 1.272 . S
O209 Co201 2.135 . S
Co210 O211 2.216 . S
Co210 O212 2.091 . S
Co210 O214 2.004 . S
Co210 O220 2.021 . S
Co210 O222 2.137 . S
Co210 O223 2.244 . S
O211 Co210 2.216 . S
O211 C218 1.247 . S
O212 Co210 2.091 . S
O212 C218 1.261 . S
C213 O222 1.247 . S
C213 O223 1.272 . S
O214 Co210 2.004 . S
O214 C219 1.259 . S
Co215 O216 2.061 . S
Co215 O221 2.052 . S
Co215 O223 2.135 . S
O216 Co215 2.061 . S
O216 C219 1.235 . S
C217 O220 1.238 . S
C217 O221 1.241 . S
C218 O211 1.247 . S
C218 O212 1.261 . S
C219 O214 1.259 . S
C219 O216 1.235 . S
O220 Co210 2.021 . S
O220 C217 1.238 . S
O221 Co215 2.052 . S
O221 C217 1.241 . S
O222 Co210 2.137 . S
O222 C213 1.247 . S
O223 Co210 2.244 . S
O223 C213 1.272 . S
O223 Co215 2.135 . S
Co224 O225 2.216 . S
Co224 O226 2.091 . S
Co224 O228 2.004 . S
Co224 O234 2.021 . S
Co224 O236 2.137 . S
Co224 O237 2.244 . S
O225 Co224 2.216 . S
O225 C232 1.247 . S
O226 Co224 2.091 . S
O226 C232 1.261 . S
C227 O236 1.247 . S
C227 O237 1.272 . S
O228 Co224 2.004 . S
O228 C233 1.259 . S
Co229 O230 2.061 . S
Co229 O235 2.052 . S
Co229 O237 2.135 . S
O230 Co229 2.061 . S
O230 C233 1.235 . S
C231 O234 1.238 . S
C231 O235 1.241 . S
C232 O225 1.247 . S
C232 O226 1.261 . S
C233 O228 1.259 . S
C233 O230 1.235 . S
O234 Co224 2.021 . S
O234 C231 1.238 . S
O235 Co229 2.052 . S
O235 C231 1.241 . S
O236 Co224 2.137 . S
O236 C227 1.247 . S
O237 Co224 2.244 . S
O237 C227 1.272 . S
O237 Co229 2.135 . S
Co238 O239 2.216 . S
Co238 O240 2.091 . S
Co238 O242 2.004 . S
Co238 O248 2.021 . S
Co238 O250 2.137 . S
Co238 O251 2.244 . S
O239 Co238 2.216 . S
O239 C246 1.247 . S
O240 Co238 2.091 . S
O240 C246 1.261 . S
C241 O250 1.247 . S
C241 O251 1.272 . S
O242 Co238 2.004 . S
O242 C247 1.259 . S
Co243 O244 2.061 . S
Co243 O249 2.052 . S
Co243 O251 2.135 . S
O244 Co243 2.061 . S
O244 C247 1.235 . S
C245 O248 1.238 . S
C245 O249 1.241 . S
C246 O239 1.247 . S
C246 O240 1.261 . S
C247 O242 1.259 . S
C247 O244 1.235 . S
O248 Co238 2.021 . S
O248 C245 1.238 . S
O249 Co243 2.052 . S
O249 C245 1.241 . S
O250 Co238 2.137 . S
O250 C241 1.247 . S
O251 Co238 2.244 . S
O251 C241 1.272 . S
O251 Co243 2.135 . S
Co252 O253 2.216 . S
Co252 O254 2.091 . S
Co252 O256 2.004 . S
Co252 O262 2.021 . S
Co252 O264 2.137 . S
Co252 O265 2.244 . S
O253 Co252 2.216 . S
O253 C260 1.247 . S
O254 Co252 2.091 . S
O254 C260 1.261 . S
C255 O264 1.247 . S
C255 O265 1.272 . S
O256 Co252 2.004 . S
O256 C261 1.259 . S
Co257 O258 2.061 . S
Co257 O263 2.052 . S
Co257 O265 2.135 . S
O258 Co257 2.061 . S
O258 C261 1.235 . S
C259 O262 1.238 . S
C259 O263 1.241 . S
C260 O253 1.247 . S
C260 O254 1.261 . S
C261 O256 1.259 . S
C261 O258 1.235 . S
O262 Co252 2.021 . S
O262 C259 1.238 . S
O263 Co257 2.052 . S
O263 C259 1.241 . S
O264 Co252 2.137 . S
O264 C255 1.247 . S
O265 Co252 2.244 . S
O265 C255 1.272 . S
O265 Co257 2.135 . S
Co266 O267 2.216 . S
Co266 O268 2.091 . S
Co266 O270 2.004 . S
Co266 O276 2.021 . S
Co266 O278 2.137 . S
Co266 O279 2.244 . S
O267 Co266 2.216 . S
O267 C274 1.247 . S
O268 Co266 2.091 . S
O268 C274 1.261 . S
C269 O278 1.247 . S
C269 O279 1.272 . S
O270 Co266 2.004 . S
O270 C275 1.259 . S
Co271 O272 2.061 . S
Co271 O277 2.052 . S
Co271 O279 2.135 . S
O272 Co271 2.061 . S
O272 C275 1.235 . S
C273 O276 1.238 . S
C273 O277 1.241 . S
C274 O267 1.247 . S
C274 O268 1.261 . S
C275 O270 1.259 . S
C275 O272 1.235 . S
O276 Co266 2.021 . S
O276 C273 1.238 . S
O277 Co271 2.052 . S
O277 C273 1.241 . S
O278 Co266 2.137 . S
O278 C269 1.247 . S
O279 Co266 2.244 . S
O279 C269 1.272 . S
O279 Co271 2.135 . S
Co280 O281 2.216 . S
Co280 O282 2.091 . S
Co280 O284 2.004 . S
Co280 O290 2.021 . S
Co280 O292 2.137 . S
Co280 O293 2.244 . S
O281 Co280 2.216 . S
O281 C288 1.247 . S
O282 Co280 2.091 . S
O282 C288 1.261 . S
C283 O292 1.247 . S
C283 O293 1.272 . S
O284 Co280 2.004 . S
O284 C289 1.259 . S
Co285 O286 2.061 . S
Co285 O291 2.052 . S
Co285 O293 2.135 . S
O286 Co285 2.061 . S
O286 C289 1.235 . S
C287 O290 1.238 . S
C287 O291 1.241 . S
C288 O281 1.247 . S
C288 O282 1.261 . S
C289 O284 1.259 . S
C289 O286 1.235 . S
O290 Co280 2.021 . S
O290 C287 1.238 . S
O291 Co285 2.052 . S
O291 C287 1.241 . S
O292 Co280 2.137 . S
O292 C283 1.247 . S
O293 Co280 2.244 . S
O293 C283 1.272 . S
O293 Co285 2.135 . S
Co294 O295 2.216 . S
Co294 O296 2.091 . S
Co294 O298 2.004 . S
Co294 O304 2.021 . S
Co294 O306 2.137 . S
Co294 O307 2.244 . S
O295 Co294 2.216 . S
O295 C302 1.247 . S
O296 Co294 2.091 . S
O296 C302 1.261 . S
C297 O306 1.247 . S
C297 O307 1.272 . S
O298 Co294 2.004 . S
O298 C303 1.259 . S
Co299 O300 2.061 . S
Co299 O305 2.052 . S
Co299 O307 2.135 . S
O300 Co299 2.061 . S
O300 C303 1.235 . S
C301 O304 1.238 . S
C301 O305 1.241 . S
C302 O295 1.247 . S
C302 O296 1.261 . S
C303 O298 1.259 . S
C303 O300 1.235 . S
O304 Co294 2.021 . S
O304 C301 1.238 . S
O305 Co299 2.052 . S
O305 C301 1.241 . S
O306 Co294 2.137 . S
O306 C297 1.247 . S
O307 Co294 2.244 . S
O307 C297 1.272 . S
O307 Co299 2.135 . S
Co308 O309 2.216 . S
Co308 O310 2.091 . S
Co308 O312 2.004 . S
Co308 O318 2.021 . S
Co308 O320 2.137 . S
Co308 O321 2.244 . S
O309 Co308 2.216 . S
O309 C316 1.247 . S
O310 Co308 2.091 . S
O310 C316 1.261 . S
C311 O320 1.247 . S
C311 O321 1.272 . S
O312 Co308 2.004 . S
O312 C317 1.259 . S
Co313 O314 2.061 . S
Co313 O319 2.052 . S
Co313 O321 2.135 . S
O314 Co313 2.061 . S
O314 C317 1.235 . S
C315 O318 1.238 . S
C315 O319 1.241 . S
C316 O309 1.247 . S
C316 O310 1.261 . S
C317 O312 1.259 . S
C317 O314 1.235 . S
O318 Co308 2.021 . S
O318 C315 1.238 . S
O319 Co313 2.052 . S
O319 C315 1.241 . S
O320 Co308 2.137 . S
O320 C311 1.247 . S
O321 Co308 2.244 . S
O321 C311 1.272 . S
O321 Co313 2.135 . S
Co322 O323 2.216 . S
Co322 O324 2.091 . S
Co322 O326 2.004 . S
Co322 O332 2.021 . S
Co322 O334 2.137 . S
Co322 O335 2.244 . S
O323 Co322 2.216 . S
O323 C330 1.247 . S
O324 Co322 2.091 . S
O324 C330 1.261 . S
C325 O334 1.247 . S
C325 O335 1.272 . S
O326 Co322 2.004 . S
O326 C331 1.259 . S
Co327 O328 2.061 . S
Co327 O333 2.052 . S
Co327 O335 2.135 . S
O328 Co327 2.061 . S
O328 C331 1.235 . S
C329 O332 1.238 . S
C329 O333 1.241 . S
C330 O323 1.247 . S
C330 O324 1.261 . S
C331 O326 1.259 . S
C331 O328 1.235 . S
O332 Co322 2.021 . S
O332 C329 1.238 . S
O333 Co327 2.052 . S
O333 C329 1.241 . S
O334 Co322 2.137 . S
O334 C325 1.247 . S
O335 Co322 2.244 . S
O335 C325 1.272 . S
O335 Co327 2.135 . S
C336 C337 1.363 . S
C336 C342 1.379 . S
C336 N344 1.356 . S
C337 C336 1.363 . S
C337 C343 1.363 . S
C338 C339 1.363 . S
C338 C343 1.379 . S
C338 N345 1.356 . S
C339 C338 1.363 . S
C339 C342 1.363 . S
N340 C342 1.356 . S
N340 H352 0.984 . S
N340 H353 0.985 . S
N341 C343 1.356 . S
N341 H346 0.984 . S
N341 H347 0.985 . S
C342 C336 1.379 . S
C342 C339 1.363 . S
C342 N340 1.356 . S
C343 C337 1.363 . S
C343 C338 1.379 . S
C343 N341 1.356 . S
N344 C336 1.356 . S
N344 H350 0.984 . S
N344 H351 0.984 . S
N345 C338 1.356 . S
N345 H348 0.984 . S
N345 H349 0.985 . S
H346 N341 0.984 . S
H347 N341 0.985 . S
H348 N345 0.984 . S
H349 N345 0.985 . S
H350 N344 0.984 . S
H351 N344 0.984 . S
H352 N340 0.984 . S
H353 N340 0.985 . S
C354 C355 1.363 . S
C354 C360 1.379 1_655 S
C354 N362 1.356 . S
C355 C354 1.363 . S
C355 C361 1.363 . S
C356 C357 1.363 . S
C356 C361 1.379 1_455 S
C356 N363 1.356 . S
C357 C356 1.363 . S
C357 C360 1.363 . S
N358 C360 1.356 . S
N358 H370 0.984 . S
N358 H371 0.985 . S
N359 C361 1.356 . S
N359 H364 0.984 . S
N359 H365 0.985 . S
C360 C354 1.379 1_455 S
C360 C357 1.363 . S
C360 N358 1.356 . S
C361 C355 1.363 . S
C361 C356 1.379 1_655 S
C361 N359 1.356 . S
N362 C354 1.356 . S
N362 H368 0.984 . S
N362 H369 0.984 . S
N363 C356 1.356 . S
N363 H366 0.984 . S
N363 H367 0.985 . S
H364 N359 0.984 . S
H365 N359 0.985 . S
H366 N363 0.984 . S
H367 N363 0.985 . S
H368 N362 0.984 . S
H369 N362 0.984 . S
H370 N358 0.984 . S
H371 N358 0.985 . S
C372 C373 1.363 . S
C372 C378 1.379 . S
C372 N380 1.356 . S
C373 C372 1.363 . S
C373 C379 1.363 . S
C374 C375 1.363 . S
C374 C379 1.379 . S
C374 N381 1.356 . S
C375 C374 1.363 . S
C375 C378 1.363 . S
N376 C378 1.356 . S
N376 H388 0.984 . S
N376 H389 0.985 . S
N377 C379 1.356 . S
N377 H382 0.984 . S
N377 H383 0.985 . S
C378 C372 1.379 . S
C378 C375 1.363 . S
C378 N376 1.356 . S
C379 C373 1.363 . S
C379 C374 1.379 . S
C379 N377 1.356 . S
N380 C372 1.356 . S
N380 H386 0.984 . S
N380 H387 0.984 . S
N381 C374 1.356 . S
N381 H384 0.984 . S
N381 H385 0.985 . S
H382 N377 0.984 . S
H383 N377 0.985 . S
H384 N381 0.984 . S
H385 N381 0.985 . S
H386 N380 0.984 . S
H387 N380 0.984 . S
H388 N376 0.984 . S
H389 N376 0.985 . S
C390 C391 1.363 . S
C390 C396 1.379 1_455 S
C390 N398 1.356 . S
C391 C390 1.363 . S
C391 C397 1.363 . S
C392 C393 1.363 . S
C392 C397 1.379 1_655 S
C392 N399 1.356 . S
C393 C392 1.363 . S
C393 C396 1.363 . S
N394 C396 1.356 . S
N394 H406 0.984 . S
N394 H407 0.985 . S
N395 C397 1.356 . S
N395 H400 0.984 . S
N395 H401 0.985 . S
C396 C390 1.379 1_655 S
C396 C393 1.363 . S
C396 N394 1.356 . S
C397 C391 1.363 . S
C397 C392 1.379 1_455 S
C397 N395 1.356 . S
N398 C390 1.356 . S
N398 H404 0.984 . S
N398 H405 0.984 . S
N399 C392 1.356 . S
N399 H402 0.984 . S
N399 H403 0.985 . S
H400 N395 0.984 . S
H401 N395 0.985 . S
H402 N399 0.984 . S
H403 N399 0.985 . S
H404 N398 0.984 . S
H405 N398 0.984 . S
H406 N394 0.984 . S
H407 N394 0.985 . S
C408 C409 1.363 . S
C408 C414 1.379 . S
C408 N416 1.356 . S
C409 C408 1.363 . S
C409 C415 1.363 . S
C410 C411 1.363 . S
C410 C415 1.379 . S
C410 N417 1.356 . S
C411 C410 1.363 . S
C411 C414 1.363 . S
N412 C414 1.356 . S
N412 H424 0.984 . S
N412 H425 0.985 . S
N413 C415 1.356 . S
N413 H418 0.984 . S
N413 H419 0.985 . S
C414 C408 1.379 . S
C414 C411 1.363 . S
C414 N412 1.356 . S
C415 C409 1.363 . S
C415 C410 1.379 . S
C415 N413 1.356 . S
N416 C408 1.356 . S
N416 H422 0.984 . S
N416 H423 0.984 . S
N417 C410 1.356 . S
N417 H420 0.984 . S
N417 H421 0.985 . S
H418 N413 0.984 . S
H419 N413 0.985 . S
H420 N417 0.984 . S
H421 N417 0.985 . S
H422 N416 0.984 . S
H423 N416 0.984 . S
H424 N412 0.984 . S
H425 N412 0.985 . S
C426 C427 1.363 . S
C426 C432 1.379 1_655 S
C426 N434 1.356 . S
C427 C426 1.363 . S
C427 C433 1.363 . S
C428 C429 1.363 . S
C428 C433 1.379 1_455 S
C428 N435 1.356 . S
C429 C428 1.363 . S
C429 C432 1.363 . S
N430 C432 1.356 . S
N430 H442 0.984 . S
N430 H443 0.985 . S
N431 C433 1.356 . S
N431 H436 0.984 . S
N431 H437 0.985 . S
C432 C426 1.379 1_455 S
C432 C429 1.363 . S
C432 N430 1.356 . S
C433 C427 1.363 . S
C433 C428 1.379 1_655 S
C433 N431 1.356 . S
N434 C426 1.356 . S
N434 H440 0.984 . S
N434 H441 0.984 . S
N435 C428 1.356 . S
N435 H438 0.984 . S
N435 H439 0.985 . S
H436 N431 0.984 . S
H437 N431 0.985 . S
H438 N435 0.984 . S
H439 N435 0.985 . S
H440 N434 0.984 . S
H441 N434 0.984 . S
H442 N430 0.984 . S
H443 N430 0.985 . S
C444 C445 1.363 . S
C444 C450 1.379 . S
C444 N452 1.356 . S
C445 C444 1.363 . S
C445 C451 1.363 . S
C446 C447 1.363 . S
C446 C451 1.379 . S
C446 N453 1.356 . S
C447 C446 1.363 . S
C447 C450 1.363 . S
N448 C450 1.356 . S
N448 H460 0.984 . S
N448 H461 0.985 . S
N449 C451 1.356 . S
N449 H454 0.984 . S
N449 H455 0.985 . S
C450 C444 1.379 . S
C450 C447 1.363 . S
C450 N448 1.356 . S
C451 C445 1.363 . S
C451 C446 1.379 . S
C451 N449 1.356 . S
N452 C444 1.356 . S
N452 H458 0.984 . S
N452 H459 0.984 . S
N453 C446 1.356 . S
N453 H456 0.984 . S
N453 H457 0.985 . S
H454 N449 0.984 . S
H455 N449 0.985 . S
H456 N453 0.984 . S
H457 N453 0.985 . S
H458 N452 0.984 . S
H459 N452 0.984 . S
H460 N448 0.984 . S
H461 N448 0.985 . S
C462 C463 1.363 . S
C462 C468 1.379 1_655 S
C462 N470 1.356 . S
C463 C462 1.363 . S
C463 C469 1.363 . S
C464 C465 1.363 . S
C464 C469 1.379 1_455 S
C464 N471 1.356 . S
C465 C464 1.363 . S
C465 C468 1.363 . S
N466 C468 1.356 . S
N466 H478 0.984 . S
N466 H479 0.985 . S
N467 C469 1.356 . S
N467 H472 0.984 . S
N467 H473 0.985 . S
C468 C462 1.379 1_455 S
C468 C465 1.363 . S
C468 N466 1.356 . S
C469 C463 1.363 . S
C469 C464 1.379 1_655 S
C469 N467 1.356 . S
N470 C462 1.356 . S
N470 H476 0.984 . S
N470 H477 0.984 . S
N471 C464 1.356 . S
N471 H474 0.984 . S
N471 H475 0.985 . S
H472 N467 0.984 . S
H473 N467 0.985 . S
H474 N471 0.984 . S
H475 N471 0.985 . S
H476 N470 0.984 . S
H477 N470 0.984 . S
H478 N466 0.984 . S
H479 N466 0.985 . S
C480 C481 1.363 . S
C480 C486 1.379 . S
C480 N488 1.356 . S
C481 C480 1.363 . S
C481 C487 1.363 . S
C482 C483 1.363 . S
C482 C487 1.379 . S
C482 N489 1.356 . S
C483 C482 1.363 . S
C483 C486 1.363 . S
N484 C486 1.356 . S
N484 H496 0.984 . S
N484 H497 0.985 . S
N485 C487 1.356 . S
N485 H490 0.984 . S
N485 H491 0.985 . S
C486 C480 1.379 . S
C486 C483 1.363 . S
C486 N484 1.356 . S
C487 C481 1.363 . S
C487 C482 1.379 . S
C487 N485 1.356 . S
N488 C480 1.356 . S
N488 H494 0.984 . S
N488 H495 0.984 . S
N489 C482 1.356 . S
N489 H492 0.984 . S
N489 H493 0.985 . S
H490 N485 0.984 . S
H491 N485 0.985 . S
H492 N489 0.984 . S
H493 N489 0.985 . S
H494 N488 0.984 . S
H495 N488 0.984 . S
H496 N484 0.984 . S
H497 N484 0.985 . S
C498 C499 1.363 . S
C498 C504 1.379 1_556 S
C498 N506 1.356 . S
C499 C498 1.363 . S
C499 C505 1.363 . S
C500 C501 1.363 . S
C500 C505 1.379 1_554 S
C500 N507 1.356 . S
C501 C500 1.363 . S
C501 C504 1.363 . S
N502 C504 1.356 . S
N502 H514 0.984 . S
N502 H515 0.985 . S
N503 C505 1.356 . S
N503 H508 0.984 . S
N503 H509 0.985 . S
C504 C498 1.379 1_554 S
C504 C501 1.363 . S
C504 N502 1.356 . S
C505 C499 1.363 . S
C505 C500 1.379 1_556 S
C505 N503 1.356 . S
N506 C498 1.356 . S
N506 H512 0.984 . S
N506 H513 0.984 . S
N507 C500 1.356 . S
N507 H510 0.984 . S
N507 H511 0.985 . S
H508 N503 0.984 . S
H509 N503 0.985 . S
H510 N507 0.984 . S
H511 N507 0.985 . S
H512 N506 0.984 . S
H513 N506 0.984 . S
H514 N502 0.984 . S
H515 N502 0.985 . S
C516 C517 1.363 . S
C516 C522 1.379 . S
C516 N524 1.356 . S
C517 C516 1.363 . S
C517 C523 1.363 . S
C518 C519 1.363 . S
C518 C523 1.379 . S
C518 N525 1.356 . S
C519 C518 1.363 . S
C519 C522 1.363 . S
N520 C522 1.356 . S
N520 H532 0.984 . S
N520 H533 0.985 . S
N521 C523 1.356 . S
N521 H526 0.984 . S
N521 H527 0.985 . S
C522 C516 1.379 . S
C522 C519 1.363 . S
C522 N520 1.356 . S
C523 C517 1.363 . S
C523 C518 1.379 . S
C523 N521 1.356 . S
N524 C516 1.356 . S
N524 H530 0.984 . S
N524 H531 0.984 . S
N525 C518 1.356 . S
N525 H528 0.984 . S
N525 H529 0.985 . S
H526 N521 0.984 . S
H527 N521 0.985 . S
H528 N525 0.984 . S
H529 N525 0.985 . S
H530 N524 0.984 . S
H531 N524 0.984 . S
H532 N520 0.984 . S
H533 N520 0.985 . S
C534 C535 1.363 . S
C534 C540 1.379 1_554 S
C534 N542 1.356 . S
C535 C534 1.363 . S
C535 C541 1.363 . S
C536 C537 1.363 . S
C536 C541 1.379 1_556 S
C536 N543 1.356 . S
C537 C536 1.363 . S
C537 C540 1.363 . S
N538 C540 1.356 . S
N538 H550 0.984 . S
N538 H551 0.985 . S
N539 C541 1.356 . S
N539 H544 0.984 . S
N539 H545 0.985 . S
C540 C534 1.379 1_556 S
C540 C537 1.363 . S
C540 N538 1.356 . S
C541 C535 1.363 . S
C541 C536 1.379 1_554 S
C541 N539 1.356 . S
N542 C534 1.356 . S
N542 H548 0.984 . S
N542 H549 0.984 . S
N543 C536 1.356 . S
N543 H546 0.984 . S
N543 H547 0.985 . S
H544 N539 0.984 . S
H545 N539 0.985 . S
H546 N543 0.984 . S
H547 N543 0.985 . S
H548 N542 0.984 . S
H549 N542 0.984 . S
H550 N538 0.984 . S
H551 N538 0.985 . S
C552 C553 1.363 . S
C552 C558 1.379 . S
C552 N560 1.356 . S
C553 C552 1.363 . S
C553 C559 1.363 . S
C554 C555 1.363 . S
C554 C559 1.379 . S
C554 N561 1.356 . S
C555 C554 1.363 . S
C555 C558 1.363 . S
N556 C558 1.356 . S
N556 H568 0.984 . S
N556 H569 0.985 . S
N557 C559 1.356 . S
N557 H562 0.984 . S
N557 H563 0.985 . S
C558 C552 1.379 . S
C558 C555 1.363 . S
C558 N556 1.356 . S
C559 C553 1.363 . S
C559 C554 1.379 . S
C559 N557 1.356 . S
N560 C552 1.356 . S
N560 H566 0.984 . S
N560 H567 0.984 . S
N561 C554 1.356 . S
N561 H564 0.984 . S
N561 H565 0.985 . S
H562 N557 0.984 . S
H563 N557 0.985 . S
H564 N561 0.984 . S
H565 N561 0.985 . S
H566 N560 0.984 . S
H567 N560 0.984 . S
H568 N556 0.984 . S
H569 N556 0.985 . S
C570 C571 1.363 . S
C570 C576 1.379 1_554 S
C570 N578 1.356 . S
C571 C570 1.363 . S
C571 C577 1.363 . S
C572 C573 1.363 . S
C572 C577 1.379 1_556 S
C572 N579 1.356 . S
C573 C572 1.363 . S
C573 C576 1.363 . S
N574 C576 1.356 . S
N574 H586 0.984 . S
N574 H587 0.985 . S
N575 C577 1.356 . S
N575 H580 0.984 . S
N575 H581 0.985 . S
C576 C570 1.379 1_556 S
C576 C573 1.363 . S
C576 N574 1.356 . S
C577 C571 1.363 . S
C577 C572 1.379 1_554 S
C577 N575 1.356 . S
N578 C570 1.356 . S
N578 H584 0.984 . S
N578 H585 0.984 . S
N579 C572 1.356 . S
N579 H582 0.984 . S
N579 H583 0.985 . S
H580 N575 0.984 . S
H581 N575 0.985 . S
H582 N579 0.984 . S
H583 N579 0.985 . S
H584 N578 0.984 . S
H585 N578 0.984 . S
H586 N574 0.984 . S
H587 N574 0.985 . S
C588 C589 1.363 . S
C588 C594 1.379 . S
C588 N596 1.356 . S
C589 C588 1.363 . S
C589 C595 1.363 . S
C590 C591 1.363 . S
C590 C595 1.379 . S
C590 N597 1.356 . S
C591 C590 1.363 . S
C591 C594 1.363 . S
N592 C594 1.356 . S
N592 H604 0.984 . S
N592 H605 0.985 . S
N593 C595 1.356 . S
N593 H598 0.984 . S
N593 H599 0.985 . S
C594 C588 1.379 . S
C594 C591 1.363 . S
C594 N592 1.356 . S
C595 C589 1.363 . S
C595 C590 1.379 . S
C595 N593 1.356 . S
N596 C588 1.356 . S
N596 H602 0.984 . S
N596 H603 0.984 . S
N597 C590 1.356 . S
N597 H600 0.984 . S
N597 H601 0.985 . S
H598 N593 0.984 . S
H599 N593 0.985 . S
H600 N597 0.984 . S
H601 N597 0.985 . S
H602 N596 0.984 . S
H603 N596 0.984 . S
H604 N592 0.984 . S
H605 N592 0.985 . S
C606 C607 1.363 . S
C606 C612 1.379 1_554 S
C606 N614 1.356 . S
C607 C606 1.363 . S
C607 C613 1.363 . S
C608 C609 1.363 . S
C608 C613 1.379 1_556 S
C608 N615 1.356 . S
C609 C608 1.363 . S
C609 C612 1.363 . S
N610 C612 1.356 . S
N610 H622 0.984 . S
N610 H623 0.985 . S
N611 C613 1.356 . S
N611 H616 0.984 . S
N611 H617 0.985 . S
C612 C606 1.379 1_556 S
C612 C609 1.363 . S
C612 N610 1.356 . S
C613 C607 1.363 . S
C613 C608 1.379 1_554 S
C613 N611 1.356 . S
N614 C606 1.356 . S
N614 H620 0.984 . S
N614 H621 0.984 . S
N615 C608 1.356 . S
N615 H618 0.984 . S
N615 H619 0.985 . S
H616 N611 0.984 . S
H617 N611 0.985 . S
H618 N615 0.984 . S
H619 N615 0.985 . S
H620 N614 0.984 . S
H621 N614 0.984 . S
H622 N610 0.984 . S
H623 N610 0.985 . S
C624 C625 1.363 . S
C624 C630 1.379 . S
C624 N632 1.356 . S
C625 C624 1.363 . S
C625 C631 1.363 . S
C626 C627 1.363 . S
C626 C631 1.379 . S
C626 N633 1.356 . S
C627 C626 1.363 . S
C627 C630 1.363 . S
N628 C630 1.356 . S
N628 H640 0.984 . S
N628 H641 0.985 . S
N629 C631 1.356 . S
N629 H634 0.984 . S
N629 H635 0.985 . S
C630 C624 1.379 . S
C630 C627 1.363 . S
C630 N628 1.356 . S
C631 C625 1.363 . S
C631 C626 1.379 . S
C631 N629 1.356 . S
N632 C624 1.356 . S
N632 H638 0.984 . S
N632 H639 0.984 . S
N633 C626 1.356 . S
N633 H636 0.984 . S
N633 H637 0.985 . S
H634 N629 0.984 . S
H635 N629 0.985 . S
H636 N633 0.984 . S
H637 N633 0.985 . S
H638 N632 0.984 . S
H639 N632 0.984 . S
H640 N628 0.984 . S
H641 N628 0.985 . S
C642 C643 1.363 . S
C642 C648 1.379 . S
C642 N650 1.356 . S
C643 C642 1.363 . S
C643 C649 1.363 . S
C644 C645 1.363 . S
C644 C649 1.379 . S
C644 N651 1.356 . S
C645 C644 1.363 . S
C645 C648 1.363 . S
N646 C648 1.356 . S
N646 H658 0.984 . S
N646 H659 0.985 . S
N647 C649 1.356 . S
N647 H652 0.984 . S
N647 H653 0.985 . S
C648 C642 1.379 . S
C648 C645 1.363 . S
C648 N646 1.356 . S
C649 C643 1.363 . S
C649 C644 1.379 . S
C649 N647 1.356 . S
N650 C642 1.356 . S
N650 H656 0.984 . S
N650 H657 0.984 . S
N651 C644 1.356 . S
N651 H654 0.984 . S
N651 H655 0.985 . S
H652 N647 0.984 . S
H653 N647 0.985 . S
H654 N651 0.984 . S
H655 N651 0.985 . S
H656 N650 0.984 . S
H657 N650 0.984 . S
H658 N646 0.984 . S
H659 N646 0.985 . S
C660 C661 1.363 . S
C660 C666 1.379 1_565 S
C660 N668 1.356 . S
C661 C660 1.363 . S
C661 C667 1.363 . S
C662 C663 1.363 . S
C662 C667 1.379 1_545 S
C662 N669 1.356 . S
C663 C662 1.363 . S
C663 C666 1.363 . S
N664 C666 1.356 . S
N664 H676 0.984 . S
N664 H677 0.985 . S
N665 C667 1.356 . S
N665 H670 0.984 . S
N665 H671 0.985 . S
C666 C660 1.379 1_545 S
C666 C663 1.363 . S
C666 N664 1.356 . S
C667 C661 1.363 . S
C667 C662 1.379 1_565 S
C667 N665 1.356 . S
N668 C660 1.356 . S
N668 H674 0.984 . S
N668 H675 0.984 . S
N669 C662 1.356 . S
N669 H672 0.984 . S
N669 H673 0.985 . S
H670 N665 0.984 . S
H671 N665 0.985 . S
H672 N669 0.984 . S
H673 N669 0.985 . S
H674 N668 0.984 . S
H675 N668 0.984 . S
H676 N664 0.984 . S
H677 N664 0.985 . S
C678 C679 1.363 . S
C678 C684 1.379 . S
C678 N686 1.356 . S
C679 C678 1.363 . S
C679 C685 1.363 . S
C680 C681 1.363 . S
C680 C685 1.379 . S
C680 N687 1.356 . S
C681 C680 1.363 . S
C681 C684 1.363 . S
N682 C684 1.356 . S
N682 H694 0.984 . S
N682 H695 0.985 . S
N683 C685 1.356 . S
N683 H688 0.984 . S
N683 H689 0.985 . S
C684 C678 1.379 . S
C684 C681 1.363 . S
C684 N682 1.356 . S
C685 C679 1.363 . S
C685 C680 1.379 . S
C685 N683 1.356 . S
N686 C678 1.356 . S
N686 H692 0.984 . S
N686 H693 0.984 . S
N687 C680 1.356 . S
N687 H690 0.984 . S
N687 H691 0.985 . S
H688 N683 0.984 . S
H689 N683 0.985 . S
H690 N687 0.984 . S
H691 N687 0.985 . S
H692 N686 0.984 . S
H693 N686 0.984 . S
H694 N682 0.984 . S
H695 N682 0.985 . S
C696 C697 1.363 . S
C696 C702 1.379 1_565 S
C696 N704 1.356 . S
C697 C696 1.363 . S
C697 C703 1.363 . S
C698 C699 1.363 . S
C698 C703 1.379 1_545 S
C698 N705 1.356 . S
C699 C698 1.363 . S
C699 C702 1.363 . S
N700 C702 1.356 . S
N700 H712 0.984 . S
N700 H713 0.985 . S
N701 C703 1.356 . S
N701 H706 0.984 . S
N701 H707 0.985 . S
C702 C696 1.379 1_545 S
C702 C699 1.363 . S
C702 N700 1.356 . S
C703 C697 1.363 . S
C703 C698 1.379 1_565 S
C703 N701 1.356 . S
N704 C696 1.356 . S
N704 H710 0.984 . S
N704 H711 0.984 . S
N705 C698 1.356 . S
N705 H708 0.984 . S
N705 H709 0.985 . S
H706 N701 0.984 . S
H707 N701 0.985 . S
H708 N705 0.984 . S
H709 N705 0.985 . S
H710 N704 0.984 . S
H711 N704 0.984 . S
H712 N700 0.984 . S
H713 N700 0.985 . S
C714 C715 1.363 . S
C714 C720 1.379 . S
C714 N722 1.356 . S
C715 C714 1.363 . S
C715 C721 1.363 . S
C716 C717 1.363 . S
C716 C721 1.379 . S
C716 N723 1.356 . S
C717 C716 1.363 . S
C717 C720 1.363 . S
N718 C720 1.356 . S
N718 H730 0.984 . S
N718 H731 0.985 . S
N719 C721 1.356 . S
N719 H724 0.984 . S
N719 H725 0.985 . S
C720 C714 1.379 . S
C720 C717 1.363 . S
C720 N718 1.356 . S
C721 C715 1.363 . S
C721 C716 1.379 . S
C721 N719 1.356 . S
N722 C714 1.356 . S
N722 H728 0.984 . S
N722 H729 0.984 . S
N723 C716 1.356 . S
N723 H726 0.984 . S
N723 H727 0.985 . S
H724 N719 0.984 . S
H725 N719 0.985 . S
H726 N723 0.984 . S
H727 N723 0.985 . S
H728 N722 0.984 . S
H729 N722 0.984 . S
H730 N718 0.984 . S
H731 N718 0.985 . S
C732 C733 1.363 . S
C732 C738 1.379 1_565 S
C732 N740 1.356 . S
C733 C732 1.363 . S
C733 C739 1.363 . S
C734 C735 1.363 . S
C734 C739 1.379 1_545 S
C734 N741 1.356 . S
C735 C734 1.363 . S
C735 C738 1.363 . S
N736 C738 1.356 . S
N736 H748 0.984 . S
N736 H749 0.985 . S
N737 C739 1.356 . S
N737 H742 0.984 . S
N737 H743 0.985 . S
C738 C732 1.379 1_545 S
C738 C735 1.363 . S
C738 N736 1.356 . S
C739 C733 1.363 . S
C739 C734 1.379 1_565 S
C739 N737 1.356 . S
N740 C732 1.356 . S
N740 H746 0.984 . S
N740 H747 0.984 . S
N741 C734 1.356 . S
N741 H744 0.984 . S
N741 H745 0.985 . S
H742 N737 0.984 . S
H743 N737 0.985 . S
H744 N741 0.984 . S
H745 N741 0.985 . S
H746 N740 0.984 . S
H747 N740 0.984 . S
H748 N736 0.984 . S
H749 N736 0.985 . S
C750 C751 1.363 . S
C750 C756 1.379 1_545 S
C750 N758 1.356 . S
C751 C750 1.363 . S
C751 C757 1.363 . S
C752 C753 1.363 . S
C752 C757 1.379 1_565 S
C752 N759 1.356 . S
C753 C752 1.363 . S
C753 C756 1.363 . S
N754 C756 1.356 . S
N754 H766 0.984 . S
N754 H767 0.985 . S
N755 C757 1.356 . S
N755 H760 0.984 . S
N755 H761 0.985 . S
C756 C750 1.379 1_565 S
C756 C753 1.363 . S
C756 N754 1.356 . S
C757 C751 1.363 . S
C757 C752 1.379 1_545 S
C757 N755 1.356 . S
N758 C750 1.356 . S
N758 H764 0.984 . S
N758 H765 0.984 . S
N759 C752 1.356 . S
N759 H762 0.984 . S
N759 H763 0.985 . S
H760 N755 0.984 . S
H761 N755 0.985 . S
H762 N759 0.984 . S
H763 N759 0.985 . S
H764 N758 0.984 . S
H765 N758 0.984 . S
H766 N754 0.984 . S
H767 N754 0.985 . S
C768 C769 1.363 . S
C768 C774 1.379 . S
C768 N776 1.356 . S
C769 C768 1.363 . S
C769 C775 1.363 . S
C770 C771 1.363 . S
C770 C775 1.379 . S
C770 N777 1.356 . S
C771 C770 1.363 . S
C771 C774 1.363 . S
N772 C774 1.356 . S
N772 H784 0.984 . S
N772 H785 0.985 . S
N773 C775 1.356 . S
N773 H778 0.984 . S
N773 H779 0.985 . S
C774 C768 1.379 . S
C774 C771 1.363 . S
C774 N772 1.356 . S
C775 C769 1.363 . S
C775 C770 1.379 . S
C775 N773 1.356 . S
N776 C768 1.356 . S
N776 H782 0.984 . S
N776 H783 0.984 . S
N777 C770 1.356 . S
N777 H780 0.984 . S
N777 H781 0.985 . S
H778 N773 0.984 . S
H779 N773 0.985 . S
H780 N777 0.984 . S
H781 N777 0.985 . S
H782 N776 0.984 . S
H783 N776 0.984 . S
H784 N772 0.984 . S
H785 N772 0.985 . S
C786 C787 1.363 . S
C786 C792 1.379 . S
C786 N794 1.356 . S
C787 C786 1.363 . S
C787 C793 1.363 . S
C788 C789 1.363 . S
C788 C793 1.379 . S
C788 N795 1.356 . S
C789 C788 1.363 . S
C789 C792 1.363 . S
N790 C792 1.356 . S
N790 H802 0.984 . S
N790 H803 0.985 . S
N791 C793 1.356 . S
N791 H796 0.984 . S
N791 H797 0.985 . S
C792 C786 1.379 . S
C792 C789 1.363 . S
C792 N790 1.356 . S
C793 C787 1.363 . S
C793 C788 1.379 . S
C793 N791 1.356 . S
N794 C786 1.356 . S
N794 H800 0.984 . S
N794 H801 0.984 . S
N795 C788 1.356 . S
N795 H798 0.984 . S
N795 H799 0.985 . S
H796 N791 0.984 . S
H797 N791 0.985 . S
H798 N795 0.984 . S
H799 N795 0.985 . S
H800 N794 0.984 . S
H801 N794 0.984 . S
H802 N790 0.984 . S
H803 N790 0.985 . S
C804 C805 1.363 . S
C804 C810 1.379 . S
C804 N812 1.356 . S
C805 C804 1.363 . S
C805 C811 1.363 . S
C806 C807 1.363 . S
C806 C811 1.379 . S
C806 N813 1.356 . S
C807 C806 1.363 . S
C807 C810 1.363 . S
N808 C810 1.356 . S
N808 H820 0.984 . S
N808 H821 0.985 . S
N809 C811 1.356 . S
N809 H814 0.984 . S
N809 H815 0.985 . S
C810 C804 1.379 . S
C810 C807 1.363 . S
C810 N808 1.356 . S
C811 C805 1.363 . S
C811 C806 1.379 . S
C811 N809 1.356 . S
N812 C804 1.356 . S
N812 H818 0.984 . S
N812 H819 0.984 . S
N813 C806 1.356 . S
N813 H816 0.984 . S
N813 H817 0.985 . S
H814 N809 0.984 . S
H815 N809 0.985 . S
H816 N813 0.984 . S
H817 N813 0.985 . S
H818 N812 0.984 . S
H819 N812 0.984 . S
H820 N808 0.984 . S
H821 N808 0.985 . S
C822 C823 1.363 . S
C822 C828 1.379 . S
C822 N830 1.356 . S
C823 C822 1.363 . S
C823 C829 1.363 . S
C824 C825 1.363 . S
C824 C829 1.379 . S
C824 N831 1.356 . S
C825 C824 1.363 . S
C825 C828 1.363 . S
N826 C828 1.356 . S
N826 H838 0.984 . S
N826 H839 0.985 . S
N827 C829 1.356 . S
N827 H832 0.984 . S
N827 H833 0.985 . S
C828 C822 1.379 . S
C828 C825 1.363 . S
C828 N826 1.356 . S
C829 C823 1.363 . S
C829 C824 1.379 . S
C829 N827 1.356 . S
N830 C822 1.356 . S
N830 H836 0.984 . S
N830 H837 0.984 . S
N831 C824 1.356 . S
N831 H834 0.984 . S
N831 H835 0.985 . S
H832 N827 0.984 . S
H833 N827 0.985 . S
H834 N831 0.984 . S
H835 N831 0.985 . S
H836 N830 0.984 . S
H837 N830 0.984 . S
H838 N826 0.984 . S
H839 N826 0.985 . S
C840 C841 1.363 . S
C840 C846 1.379 . S
C840 N848 1.356 . S
C841 C840 1.363 . S
C841 C847 1.363 . S
C842 C843 1.363 . S
C842 C847 1.379 . S
C842 N849 1.356 . S
C843 C842 1.363 . S
C843 C846 1.363 . S
N844 C846 1.356 . S
N844 H856 0.984 . S
N844 H857 0.985 . S
N845 C847 1.356 . S
N845 H850 0.984 . S
N845 H851 0.985 . S
C846 C840 1.379 . S
C846 C843 1.363 . S
C846 N844 1.356 . S
C847 C841 1.363 . S
C847 C842 1.379 . S
C847 N845 1.356 . S
N848 C840 1.356 . S
N848 H854 0.984 . S
N848 H855 0.984 . S
N849 C842 1.356 . S
N849 H852 0.984 . S
N849 H853 0.985 . S
H850 N845 0.984 . S
H851 N845 0.985 . S
H852 N849 0.984 . S
H853 N849 0.985 . S
H854 N848 0.984 . S
H855 N848 0.984 . S
H856 N844 0.984 . S
H857 N844 0.985 . S
C858 C859 1.363 . S
C858 C864 1.379 . S
C858 N866 1.356 . S
C859 C858 1.363 . S
C859 C865 1.363 . S
C860 C861 1.363 . S
C860 C865 1.379 . S
C860 N867 1.356 . S
C861 C860 1.363 . S
C861 C864 1.363 . S
N862 C864 1.356 . S
N862 H874 0.984 . S
N862 H875 0.985 . S
N863 C865 1.356 . S
N863 H868 0.984 . S
N863 H869 0.985 . S
C864 C858 1.379 . S
C864 C861 1.363 . S
C864 N862 1.356 . S
C865 C859 1.363 . S
C865 C860 1.379 . S
C865 N863 1.356 . S
N866 C858 1.356 . S
N866 H872 0.984 . S
N866 H873 0.984 . S
N867 C860 1.356 . S
N867 H870 0.984 . S
N867 H871 0.985 . S
H868 N863 0.984 . S
H869 N863 0.985 . S
H870 N867 0.984 . S
H871 N867 0.985 . S
H872 N866 0.984 . S
H873 N866 0.984 . S
H874 N862 0.984 . S
H875 N862 0.985 . S
C876 C877 1.363 . S
C876 C882 1.379 . S
C876 N884 1.356 . S
C877 C876 1.363 . S
C877 C883 1.363 . S
C878 C879 1.363 . S
C878 C883 1.379 . S
C878 N885 1.356 . S
C879 C878 1.363 . S
C879 C882 1.363 . S
N880 C882 1.356 . S
N880 H892 0.984 . S
N880 H893 0.985 . S
N881 C883 1.356 . S
N881 H886 0.984 . S
N881 H887 0.985 . S
C882 C876 1.379 . S
C882 C879 1.363 . S
C882 N880 1.356 . S
C883 C877 1.363 . S
C883 C878 1.379 . S
C883 N881 1.356 . S
N884 C876 1.356 . S
N884 H890 0.984 . S
N884 H891 0.984 . S
N885 C878 1.356 . S
N885 H888 0.984 . S
N885 H889 0.985 . S
H886 N881 0.984 . S
H887 N881 0.985 . S
H888 N885 0.984 . S
H889 N885 0.985 . S
H890 N884 0.984 . S
H891 N884 0.984 . S
H892 N880 0.984 . S
H893 N880 0.985 . S
C894 C895 1.363 . S
C894 C900 1.379 . S
C894 N902 1.356 . S
C895 C894 1.363 . S
C895 C901 1.363 . S
C896 C897 1.363 . S
C896 C901 1.379 . S
C896 N903 1.356 . S
C897 C896 1.363 . S
C897 C900 1.363 . S
N898 C900 1.356 . S
N898 H910 0.984 . S
N898 H911 0.985 . S
N899 C901 1.356 . S
N899 H904 0.984 . S
N899 H905 0.985 . S
C900 C894 1.379 . S
C900 C897 1.363 . S
C900 N898 1.356 . S
C901 C895 1.363 . S
C901 C896 1.379 . S
C901 N899 1.356 . S
N902 C894 1.356 . S
N902 H908 0.984 . S
N902 H909 0.984 . S
N903 C896 1.356 . S
N903 H906 0.984 . S
N903 H907 0.985 . S
H904 N899 0.984 . S
H905 N899 0.985 . S
H906 N903 0.984 . S
H907 N903 0.985 . S
H908 N902 0.984 . S
H909 N902 0.984 . S
H910 N898 0.984 . S
H911 N898 0.985 . S
C912 C913 1.363 . S
C912 C918 1.379 . S
C912 N920 1.356 . S
C913 C912 1.363 . S
C913 C919 1.363 . S
C914 C915 1.363 . S
C914 C919 1.379 . S
C914 N921 1.356 . S
C915 C914 1.363 . S
C915 C918 1.363 . S
N916 C918 1.356 . S
N916 H928 0.984 . S
N916 H929 0.985 . S
N917 C919 1.356 . S
N917 H922 0.984 . S
N917 H923 0.985 . S
C918 C912 1.379 . S
C918 C915 1.363 . S
C918 N916 1.356 . S
C919 C913 1.363 . S
C919 C914 1.379 . S
C919 N917 1.356 . S
N920 C912 1.356 . S
N920 H926 0.984 . S
N920 H927 0.984 . S
N921 C914 1.356 . S
N921 H924 0.984 . S
N921 H925 0.985 . S
H922 N917 0.984 . S
H923 N917 0.985 . S
H924 N921 0.984 . S
H925 N921 0.985 . S
H926 N920 0.984 . S
H927 N920 0.984 . S
H928 N916 0.984 . S
H929 N916 0.985 . S
C930 C931 1.363 . S
C930 C936 1.379 . S
C930 N938 1.356 . S
C931 C930 1.363 . S
C931 C937 1.363 . S
C932 C933 1.363 . S
C932 C937 1.379 . S
C932 N939 1.356 . S
C933 C932 1.363 . S
C933 C936 1.363 . S
N934 C936 1.356 . S
N934 H946 0.984 . S
N934 H947 0.985 . S
N935 C937 1.356 . S
N935 H940 0.984 . S
N935 H941 0.985 . S
C936 C930 1.379 . S
C936 C933 1.363 . S
C936 N934 1.356 . S
C937 C931 1.363 . S
C937 C932 1.379 . S
C937 N935 1.356 . S
N938 C930 1.356 . S
N938 H944 0.984 . S
N938 H945 0.984 . S
N939 C932 1.356 . S
N939 H942 0.984 . S
N939 H943 0.985 . S
H940 N935 0.984 . S
H941 N935 0.985 . S
H942 N939 0.984 . S
H943 N939 0.985 . S
H944 N938 0.984 . S
H945 N938 0.984 . S
H946 N934 0.984 . S
H947 N934 0.985 . S
C948 C949 1.363 . S
C948 C954 1.379 . S
C948 N956 1.356 . S
C949 C948 1.363 . S
C949 C955 1.363 . S
C950 C951 1.363 . S
C950 C955 1.379 . S
C950 N957 1.356 . S
C951 C950 1.363 . S
C951 C954 1.363 . S
N952 C954 1.356 . S
N952 H964 0.984 . S
N952 H965 0.985 . S
N953 C955 1.356 . S
N953 H958 0.984 . S
N953 H959 0.985 . S
C954 C948 1.379 . S
C954 C951 1.363 . S
C954 N952 1.356 . S
C955 C949 1.363 . S
C955 C950 1.379 . S
C955 N953 1.356 . S
N956 C948 1.356 . S
N956 H962 0.984 . S
N956 H963 0.984 . S
N957 C950 1.356 . S
N957 H960 0.984 . S
N957 H961 0.985 . S
H958 N953 0.984 . S
H959 N953 0.985 . S
H960 N957 0.984 . S
H961 N957 0.985 . S
H962 N956 0.984 . S
H963 N956 0.984 . S
H964 N952 0.984 . S
H965 N952 0.985 . S
C966 C967 1.363 . S
C966 C972 1.379 . S
C966 N974 1.356 . S
C967 C966 1.363 . S
C967 C973 1.363 . S
C968 C969 1.363 . S
C968 C973 1.379 . S
C968 N975 1.356 . S
C969 C968 1.363 . S
C969 C972 1.363 . S
N970 C972 1.356 . S
N970 H982 0.984 . S
N970 H983 0.985 . S
N971 C973 1.356 . S
N971 H976 0.984 . S
N971 H977 0.985 . S
C972 C966 1.379 . S
C972 C969 1.363 . S
C972 N970 1.356 . S
C973 C967 1.363 . S
C973 C968 1.379 . S
C973 N971 1.356 . S
N974 C966 1.356 . S
N974 H980 0.984 . S
N974 H981 0.984 . S
N975 C968 1.356 . S
N975 H978 0.984 . S
N975 H979 0.985 . S
H976 N971 0.984 . S
H977 N971 0.985 . S
H978 N975 0.984 . S
H979 N975 0.985 . S
H980 N974 0.984 . S
H981 N974 0.984 . S
H982 N970 0.984 . S
H983 N970 0.985 . S
C984 C985 1.363 . S
C984 C990 1.379 . S
C984 N992 1.356 . S
C985 C984 1.363 . S
C985 C991 1.363 . S
C986 C987 1.363 . S
C986 C991 1.379 . S
C986 N993 1.356 . S
C987 C986 1.363 . S
C987 C990 1.363 . S
N988 C990 1.356 . S
N988 H1000 0.984 . S
N988 H1001 0.985 . S
N989 C991 1.356 . S
N989 H994 0.984 . S
N989 H995 0.985 . S
C990 C984 1.379 . S
C990 C987 1.363 . S
C990 N988 1.356 . S
C991 C985 1.363 . S
C991 C986 1.379 . S
C991 N989 1.356 . S
N992 C984 1.356 . S
N992 H998 0.984 . S
N992 H999 0.984 . S
N993 C986 1.356 . S
N993 H996 0.984 . S
N993 H997 0.985 . S
H994 N989 0.984 . S
H995 N989 0.985 . S
H996 N993 0.984 . S
H997 N993 0.985 . S
H998 N992 0.984 . S
H999 N992 0.984 . S
H1000 N988 0.984 . S
H1001 N988 0.985 . S
C1002 C1003 1.363 . S
C1002 C1008 1.379 . S
C1002 N1010 1.356 . S
C1003 C1002 1.363 . S
C1003 C1009 1.363 . S
C1004 C1005 1.363 . S
C1004 C1009 1.379 . S
C1004 N1011 1.356 . S
C1005 C1004 1.363 . S
C1005 C1008 1.363 . S
N1006 C1008 1.356 . S
N1006 H1018 0.984 . S
N1006 H1019 0.985 . S
N1007 C1009 1.356 . S
N1007 H1012 0.984 . S
N1007 H1013 0.985 . S
C1008 C1002 1.379 . S
C1008 C1005 1.363 . S
C1008 N1006 1.356 . S
C1009 C1003 1.363 . S
C1009 C1004 1.379 . S
C1009 N1007 1.356 . S
N1010 C1002 1.356 . S
N1010 H1016 0.984 . S
N1010 H1017 0.984 . S
N1011 C1004 1.356 . S
N1011 H1014 0.984 . S
N1011 H1015 0.985 . S
H1012 N1007 0.984 . S
H1013 N1007 0.985 . S
H1014 N1011 0.984 . S
H1015 N1011 0.985 . S
H1016 N1010 0.984 . S
H1017 N1010 0.984 . S
H1018 N1006 0.984 . S
H1019 N1006 0.985 . S
C1020 C1021 1.363 . S
C1020 C1026 1.379 . S
C1020 N1028 1.356 . S
C1021 C1020 1.363 . S
C1021 C1027 1.363 . S
C1022 C1023 1.363 . S
C1022 C1027 1.379 . S
C1022 N1029 1.356 . S
C1023 C1022 1.363 . S
C1023 C1026 1.363 . S
N1024 C1026 1.356 . S
N1024 H1036 0.984 . S
N1024 H1037 0.985 . S
N1025 C1027 1.356 . S
N1025 H1030 0.984 . S
N1025 H1031 0.985 . S
C1026 C1020 1.379 . S
C1026 C1023 1.363 . S
C1026 N1024 1.356 . S
C1027 C1021 1.363 . S
C1027 C1022 1.379 . S
C1027 N1025 1.356 . S
N1028 C1020 1.356 . S
N1028 H1034 0.984 . S
N1028 H1035 0.984 . S
N1029 C1022 1.356 . S
N1029 H1032 0.984 . S
N1029 H1033 0.985 . S
H1030 N1025 0.984 . S
H1031 N1025 0.985 . S
H1032 N1029 0.984 . S
H1033 N1029 0.985 . S
H1034 N1028 0.984 . S
H1035 N1028 0.984 . S
H1036 N1024 0.984 . S
H1037 N1024 0.985 . S
C1038 C1039 1.363 . S
C1038 C1044 1.379 . S
C1038 N1046 1.356 . S
C1039 C1038 1.363 . S
C1039 C1045 1.363 . S
C1040 C1041 1.363 . S
C1040 C1045 1.379 . S
C1040 N1047 1.356 . S
C1041 C1040 1.363 . S
C1041 C1044 1.363 . S
N1042 C1044 1.356 . S
N1042 H1054 0.984 . S
N1042 H1055 0.985 . S
N1043 C1045 1.356 . S
N1043 H1048 0.984 . S
N1043 H1049 0.985 . S
C1044 C1038 1.379 . S
C1044 C1041 1.363 . S
C1044 N1042 1.356 . S
C1045 C1039 1.363 . S
C1045 C1040 1.379 . S
C1045 N1043 1.356 . S
N1046 C1038 1.356 . S
N1046 H1052 0.984 . S
N1046 H1053 0.984 . S
N1047 C1040 1.356 . S
N1047 H1050 0.984 . S
N1047 H1051 0.985 . S
H1048 N1043 0.984 . S
H1049 N1043 0.985 . S
H1050 N1047 0.984 . S
H1051 N1047 0.985 . S
H1052 N1046 0.984 . S
H1053 N1046 0.984 . S
H1054 N1042 0.984 . S
H1055 N1042 0.985 . S
C1056 C1057 1.363 . S
C1056 C1062 1.379 . S
C1056 N1064 1.356 . S
C1057 C1056 1.363 . S
C1057 C1063 1.363 . S
C1058 C1059 1.363 . S
C1058 C1063 1.379 . S
C1058 N1065 1.356 . S
C1059 C1058 1.363 . S
C1059 C1062 1.363 . S
N1060 C1062 1.356 . S
N1060 H1072 0.984 . S
N1060 H1073 0.985 . S
N1061 C1063 1.356 . S
N1061 H1066 0.984 . S
N1061 H1067 0.985 . S
C1062 C1056 1.379 . S
C1062 C1059 1.363 . S
C1062 N1060 1.356 . S
C1063 C1057 1.363 . S
C1063 C1058 1.379 . S
C1063 N1061 1.356 . S
N1064 C1056 1.356 . S
N1064 H1070 0.984 . S
N1064 H1071 0.984 . S
N1065 C1058 1.356 . S
N1065 H1068 0.984 . S
N1065 H1069 0.985 . S
H1066 N1061 0.984 . S
H1067 N1061 0.985 . S
H1068 N1065 0.984 . S
H1069 N1065 0.985 . S
H1070 N1064 0.984 . S
H1071 N1064 0.984 . S
H1072 N1060 0.984 . S
H1073 N1060 0.985 . S
C1074 C1075 1.363 . S
C1074 C1080 1.379 . S
C1074 N1082 1.356 . S
C1075 C1074 1.363 . S
C1075 C1081 1.363 . S
C1076 C1077 1.363 . S
C1076 C1081 1.379 . S
C1076 N1083 1.356 . S
C1077 C1076 1.363 . S
C1077 C1080 1.363 . S
N1078 C1080 1.356 . S
N1078 H1090 0.984 . S
N1078 H1091 0.985 . S
N1079 C1081 1.356 . S
N1079 H1084 0.984 . S
N1079 H1085 0.985 . S
C1080 C1074 1.379 . S
C1080 C1077 1.363 . S
C1080 N1078 1.356 . S
C1081 C1075 1.363 . S
C1081 C1076 1.379 . S
C1081 N1079 1.356 . S
N1082 C1074 1.356 . S
N1082 H1088 0.984 . S
N1082 H1089 0.984 . S
N1083 C1076 1.356 . S
N1083 H1086 0.984 . S
N1083 H1087 0.985 . S
H1084 N1079 0.984 . S
H1085 N1079 0.985 . S
H1086 N1083 0.984 . S
H1087 N1083 0.985 . S
H1088 N1082 0.984 . S
H1089 N1082 0.984 . S
H1090 N1078 0.984 . S
H1091 N1078 0.985 . S
C1092 C1093 1.363 . S
C1092 C1098 1.379 . S
C1092 N1100 1.356 . S
C1093 C1092 1.363 . S
C1093 C1099 1.363 . S
C1094 C1095 1.363 . S
C1094 C1099 1.379 . S
C1094 N1101 1.356 . S
C1095 C1094 1.363 . S
C1095 C1098 1.363 . S
N1096 C1098 1.356 . S
N1096 H1108 0.984 . S
N1096 H1109 0.985 . S
N1097 C1099 1.356 . S
N1097 H1102 0.984 . S
N1097 H1103 0.985 . S
C1098 C1092 1.379 . S
C1098 C1095 1.363 . S
C1098 N1096 1.356 . S
C1099 C1093 1.363 . S
C1099 C1094 1.379 . S
C1099 N1097 1.356 . S
N1100 C1092 1.356 . S
N1100 H1106 0.984 . S
N1100 H1107 0.984 . S
N1101 C1094 1.356 . S
N1101 H1104 0.984 . S
N1101 H1105 0.985 . S
H1102 N1097 0.984 . S
H1103 N1097 0.985 . S
H1104 N1101 0.984 . S
H1105 N1101 0.985 . S
H1106 N1100 0.984 . S
H1107 N1100 0.984 . S
H1108 N1096 0.984 . S
H1109 N1096 0.985 . S
C1110 C1111 1.363 . S
C1110 C1116 1.379 . S
C1110 N1118 1.356 . S
C1111 C1110 1.363 . S
C1111 C1117 1.363 . S
C1112 C1113 1.363 . S
C1112 C1117 1.379 . S
C1112 N1119 1.356 . S
C1113 C1112 1.363 . S
C1113 C1116 1.363 . S
N1114 C1116 1.356 . S
N1114 H1126 0.984 . S
N1114 H1127 0.985 . S
N1115 C1117 1.356 . S
N1115 H1120 0.984 . S
N1115 H1121 0.985 . S
C1116 C1110 1.379 . S
C1116 C1113 1.363 . S
C1116 N1114 1.356 . S
C1117 C1111 1.363 . S
C1117 C1112 1.379 . S
C1117 N1115 1.356 . S
N1118 C1110 1.356 . S
N1118 H1124 0.984 . S
N1118 H1125 0.984 . S
N1119 C1112 1.356 . S
N1119 H1122 0.984 . S
N1119 H1123 0.985 . S
H1120 N1115 0.984 . S
H1121 N1115 0.985 . S
H1122 N1119 0.984 . S
H1123 N1119 0.985 . S
H1124 N1118 0.984 . S
H1125 N1118 0.984 . S
H1126 N1114 0.984 . S
H1127 N1114 0.985 . S
C1128 C1129 1.363 . S
C1128 C1134 1.379 . S
C1128 N1136 1.356 . S
C1129 C1128 1.363 . S
C1129 C1135 1.363 . S
C1130 C1131 1.363 . S
C1130 C1135 1.379 . S
C1130 N1137 1.356 . S
C1131 C1130 1.363 . S
C1131 C1134 1.363 . S
N1132 C1134 1.356 . S
N1132 H1144 0.984 . S
N1132 H1145 0.985 . S
N1133 C1135 1.356 . S
N1133 H1138 0.984 . S
N1133 H1139 0.985 . S
C1134 C1128 1.379 . S
C1134 C1131 1.363 . S
C1134 N1132 1.356 . S
C1135 C1129 1.363 . S
C1135 C1130 1.379 . S
C1135 N1133 1.356 . S
N1136 C1128 1.356 . S
N1136 H1142 0.984 . S
N1136 H1143 0.984 . S
N1137 C1130 1.356 . S
N1137 H1140 0.984 . S
N1137 H1141 0.985 . S
H1138 N1133 0.984 . S
H1139 N1133 0.985 . S
H1140 N1137 0.984 . S
H1141 N1137 0.985 . S
H1142 N1136 0.984 . S
H1143 N1136 0.984 . S
H1144 N1132 0.984 . S
H1145 N1132 0.985 . S
C1146 C1147 1.363 . S
C1146 C1152 1.379 . S
C1146 N1154 1.356 . S
C1147 C1146 1.363 . S
C1147 C1153 1.363 . S
C1148 C1149 1.363 . S
C1148 C1153 1.379 . S
C1148 N1155 1.356 . S
C1149 C1148 1.363 . S
C1149 C1152 1.363 . S
N1150 C1152 1.356 . S
N1150 H1162 0.984 . S
N1150 H1163 0.985 . S
N1151 C1153 1.356 . S
N1151 H1156 0.984 . S
N1151 H1157 0.985 . S
C1152 C1146 1.379 . S
C1152 C1149 1.363 . S
C1152 N1150 1.356 . S
C1153 C1147 1.363 . S
C1153 C1148 1.379 . S
C1153 N1151 1.356 . S
N1154 C1146 1.356 . S
N1154 H1160 0.984 . S
N1154 H1161 0.984 . S
N1155 C1148 1.356 . S
N1155 H1158 0.984 . S
N1155 H1159 0.985 . S
H1156 N1151 0.984 . S
H1157 N1151 0.985 . S
H1158 N1155 0.984 . S
H1159 N1155 0.985 . S
H1160 N1154 0.984 . S
H1161 N1154 0.984 . S
H1162 N1150 0.984 . S
H1163 N1150 0.985 . S
C1164 C1165 1.363 . S
C1164 C1170 1.379 . S
C1164 N1172 1.356 . S
C1165 C1164 1.363 . S
C1165 C1171 1.363 . S
C1166 C1167 1.363 . S
C1166 C1171 1.379 . S
C1166 N1173 1.356 . S
C1167 C1166 1.363 . S
C1167 C1170 1.363 . S
N1168 C1170 1.356 . S
N1168 H1180 0.984 . S
N1168 H1181 0.985 . S
N1169 C1171 1.356 . S
N1169 H1174 0.984 . S
N1169 H1175 0.985 . S
C1170 C1164 1.379 . S
C1170 C1167 1.363 . S
C1170 N1168 1.356 . S
C1171 C1165 1.363 . S
C1171 C1166 1.379 . S
C1171 N1169 1.356 . S
N1172 C1164 1.356 . S
N1172 H1178 0.984 . S
N1172 H1179 0.984 . S
N1173 C1166 1.356 . S
N1173 H1176 0.984 . S
N1173 H1177 0.985 . S
H1174 N1169 0.984 . S
H1175 N1169 0.985 . S
H1176 N1173 0.984 . S
H1177 N1173 0.985 . S
H1178 N1172 0.984 . S
H1179 N1172 0.984 . S
H1180 N1168 0.984 . S
H1181 N1168 0.985 . S
C1182 C1183 1.363 . S
C1182 C1188 1.379 . S
C1182 N1190 1.356 . S
C1183 C1182 1.363 . S
C1183 C1189 1.363 . S
C1184 C1185 1.363 . S
C1184 C1189 1.379 . S
C1184 N1191 1.356 . S
C1185 C1184 1.363 . S
C1185 C1188 1.363 . S
N1186 C1188 1.356 . S
N1186 H1198 0.984 . S
N1186 H1199 0.985 . S
N1187 C1189 1.356 . S
N1187 H1192 0.984 . S
N1187 H1193 0.985 . S
C1188 C1182 1.379 . S
C1188 C1185 1.363 . S
C1188 N1186 1.356 . S
C1189 C1183 1.363 . S
C1189 C1184 1.379 . S
C1189 N1187 1.356 . S
N1190 C1182 1.356 . S
N1190 H1196 0.984 . S
N1190 H1197 0.984 . S
N1191 C1184 1.356 . S
N1191 H1194 0.984 . S
N1191 H1195 0.985 . S
H1192 N1187 0.984 . S
H1193 N1187 0.985 . S
H1194 N1191 0.984 . S
H1195 N1191 0.985 . S
H1196 N1190 0.984 . S
H1197 N1190 0.984 . S
H1198 N1186 0.984 . S
H1199 N1186 0.985 . S
C337 C218 1.304 . S
C339 C7 1.293 . S
C355 C175 1.388 . S
C357 C22 1.402 . S
C373 C189 1.398 . S
C375 C35 1.389 . S
C391 C203 1.390 . S
C393 C50 1.404 . S
C409 C204 1.392 . S
C411 C21 1.374 . S
C427 C36 1.395 . S
C429 C217 1.382 . S
C445 C176 1.390 . S
C447 C49 1.371 . S
C463 C190 1.301 . S
C465 C8 1.300 . S
C481 C260 1.247 . S
C483 C64 1.247 . S
C499 C77 1.455 . S
C501 C273 1.465 . S
C517 C92 1.269 . S
C519 C232 1.268 . S
C535 C245 1.452 . S
C537 C105 1.443 . S
C553 C315 1.489 . S
C555 C119 1.493 . S
C571 C133 1.267 . S
C573 C330 1.280 . S
C589 C147 1.504 . S
C591 C287 1.502 . S
C607 C161 1.250 . S
C609 C302 1.262 . S
C625 C246 1.298 . S
C627 C162 1.299 . S
C643 C329 1.431 . S
C645 C78 1.444 . S
C661 C91 1.403 . S
C663 C288 1.410 . S
C679 C301 1.423 . S
C681 C106 1.436 . S
C697 C316 1.357 . S
C699 C63 1.350 . S
C715 C134 1.350 . S
C717 C274 1.351 . S
C733 C231 1.366 . S
C735 C148 1.376 . S
C751 C259 1.360 . S
C753 C120 1.370 . S
C769 C3 1.083 . S
C771 C59 1.085 . S
C787 C79 1.094 . S
C789 C23 1.091 . S
C805 C31 1.145 . S
C807 C87 1.146 . S
C823 C51 1.088 . S
C825 C107 1.087 . S
C841 C121 1.112 . S
C843 C17 1.132 . S
C859 C135 1.063 . S
C861 C37 1.060 . S
C877 C149 1.118 . S
C879 C45 1.136 . S
C895 C9 1.007 . S
C897 C163 1.010 . S
C913 C157 1.040 . S
C915 C65 1.029 . S
C931 C73 1.199 . S
C933 C115 1.201 . S
C949 C93 1.036 . S
C951 C129 1.047 . S
C967 C143 1.200 . S
C969 C101 1.198 . S
C985 C227 1.087 . S
C987 C177 1.062 . S
C1003 C247 1.055 . S
C1005 C191 1.055 . S
C1021 C205 1.064 . S
C1023 C255 1.090 . S
C1039 C213 1.110 . S
C1041 C275 1.093 . S
C1057 C185 1.133 . S
C1059 C289 1.113 . S
C1075 C199 1.168 . S
C1077 C297 1.164 . S
C1093 C317 1.069 . S
C1095 C219 1.071 . S
C1111 C171 1.167 . S
C1113 C325 1.162 . S
C1129 C233 1.024 . S
C1131 C331 1.031 . S
C1147 C283 1.181 . S
C1149 C241 1.178 . S
C1165 C261 1.005 . S
C1167 C303 1.014 . S
C1183 C311 1.180 . S
C1185 C269 1.178 . S
