# Generated by pormake.
# Topology ukm, (4)-cn, num edge types: 1
# Building blocks:
#     Node 0, Type 0, BuildingBlock: QUQFOY_clean_sbu_3, # of connection points: 4
#     Node 1, Type 0, BuildingBlock: QUQFOY_clean_sbu_3, # of connection points: 4
#     Node 2, Type 0, BuildingBlock: QUQFOY_clean_sbu_3, # of connection points: 4
#     Node 3, Type 0, BuildingBlock: QUQFOY_clean_sbu_3, # of connection points: 4
#     Node 4, Type 0, BuildingBlock: QUQFOY_clean_sbu_3, # of connection points: 4
#     Node 5, Type 0, BuildingBlock: QUQFOY_clean_sbu_3, # of connection points: 4
#     Node 6, Type 0, BuildingBlock: QUQFOY_clean_sbu_3, # of connection points: 4
#     Node 7, Type 0, BuildingBlock: QUQFOY_clean_sbu_3, # of connection points: 4
#     Node 8, Type 0, BuildingBlock: QUQFOY_clean_sbu_3, # of connection points: 4
#     Node 9, Type 0, BuildingBlock: QUQFOY_clean_sbu_3, # of connection points: 4
#     Node 10, Type 0, BuildingBlock: QUQFOY_clean_sbu_3, # of connection points: 4
#     Node 11, Type 0, BuildingBlock: QUQFOY_clean_sbu_3, # of connection points: 4
#     Node 12, Type 0, BuildingBlock: QUQFOY_clean_sbu_3, # of connection points: 4
#     Node 13, Type 0, BuildingBlock: QUQFOY_clean_sbu_3, # of connection points: 4
#     Node 14, Type 0, BuildingBlock: QUQFOY_clean_sbu_3, # of connection points: 4
#     Node 15, Type 0, BuildingBlock: QUQFOY_clean_sbu_3, # of connection points: 4
#     Node 16, Type 0, BuildingBlock: QUQFOY_clean_sbu_3, # of connection points: 4
#     Node 17, Type 0, BuildingBlock: QUQFOY_clean_sbu_3, # of connection points: 4
#     Node 18, Type 0, BuildingBlock: QUQFOY_clean_sbu_3, # of connection points: 4
#     Node 19, Type 0, BuildingBlock: QUQFOY_clean_sbu_3, # of connection points: 4
#     Node 20, Type 0, BuildingBlock: QUQFOY_clean_sbu_3, # of connection points: 4
#     Node 21, Type 0, BuildingBlock: QUQFOY_clean_sbu_3, # of connection points: 4
#     Node 22, Type 0, BuildingBlock: QUQFOY_clean_sbu_3, # of connection points: 4
#     Node 23, Type 0, BuildingBlock: QUQFOY_clean_sbu_3, # of connection points: 4
#     Node 24, Type 0, BuildingBlock: QUQFOY_clean_sbu_3, # of connection points: 4
#     Node 25, Type 0, BuildingBlock: QUQFOY_clean_sbu_3, # of connection points: 4
#     Node 26, Type 0, BuildingBlock: QUQFOY_clean_sbu_3, # of connection points: 4
#     Node 27, Type 0, BuildingBlock: QUQFOY_clean_sbu_3, # of connection points: 4
#     Node 28, Type 0, BuildingBlock: QUQFOY_clean_sbu_3, # of connection points: 4
#     Node 29, Type 0, BuildingBlock: QUQFOY_clean_sbu_3, # of connection points: 4
#     Node 30, Type 0, BuildingBlock: QUQFOY_clean_sbu_3, # of connection points: 4
#     Node 31, Type 0, BuildingBlock: QUQFOY_clean_sbu_3, # of connection points: 4
#     Edge 32, Type (0, 0), BuildingBlock: XIVTED_clean_linker_0, # of connection points: 2
#     Edge 33, Type (0, 0), BuildingBlock: XIVTED_clean_linker_0, # of connection points: 2
#     Edge 34, Type (0, 0), BuildingBlock: XIVTED_clean_linker_0, # of connection points: 2
#     Edge 35, Type (0, 0), BuildingBlock: XIVTED_clean_linker_0, # of connection points: 2
#     Edge 36, Type (0, 0), BuildingBlock: XIVTED_clean_linker_0, # of connection points: 2
#     Edge 37, Type (0, 0), BuildingBlock: XIVTED_clean_linker_0, # of connection points: 2
#     Edge 38, Type (0, 0), BuildingBlock: XIVTED_clean_linker_0, # of connection points: 2
#     Edge 39, Type (0, 0), BuildingBlock: XIVTED_clean_linker_0, # of connection points: 2
#     Edge 40, Type (0, 0), BuildingBlock: XIVTED_clean_linker_0, # of connection points: 2
#     Edge 41, Type (0, 0), BuildingBlock: XIVTED_clean_linker_0, # of connection points: 2
#     Edge 42, Type (0, 0), BuildingBlock: XIVTED_clean_linker_0, # of connection points: 2
#     Edge 43, Type (0, 0), BuildingBlock: XIVTED_clean_linker_0, # of connection points: 2
#     Edge 44, Type (0, 0), BuildingBlock: XIVTED_clean_linker_0, # of connection points: 2
#     Edge 45, Type (0, 0), BuildingBlock: XIVTED_clean_linker_0, # of connection points: 2
#     Edge 46, Type (0, 0), BuildingBlock: XIVTED_clean_linker_0, # of connection points: 2
#     Edge 47, Type (0, 0), BuildingBlock: XIVTED_clean_linker_0, # of connection points: 2
#     Edge 48, Type (0, 0), BuildingBlock: XIVTED_clean_linker_0, # of connection points: 2
#     Edge 49, Type (0, 0), BuildingBlock: XIVTED_clean_linker_0, # of connection points: 2
#     Edge 50, Type (0, 0), BuildingBlock: XIVTED_clean_linker_0, # of connection points: 2
#     Edge 51, Type (0, 0), BuildingBlock: XIVTED_clean_linker_0, # of connection points: 2
#     Edge 52, Type (0, 0), BuildingBlock: XIVTED_clean_linker_0, # of connection points: 2
#     Edge 53, Type (0, 0), BuildingBlock: XIVTED_clean_linker_0, # of connection points: 2
#     Edge 54, Type (0, 0), BuildingBlock: XIVTED_clean_linker_0, # of connection points: 2
#     Edge 55, Type (0, 0), BuildingBlock: XIVTED_clean_linker_0, # of connection points: 2
#     Edge 56, Type (0, 0), BuildingBlock: XIVTED_clean_linker_0, # of connection points: 2
#     Edge 57, Type (0, 0), BuildingBlock: XIVTED_clean_linker_0, # of connection points: 2
#     Edge 58, Type (0, 0), BuildingBlock: XIVTED_clean_linker_0, # of connection points: 2
#     Edge 59, Type (0, 0), BuildingBlock: XIVTED_clean_linker_0, # of connection points: 2
#     Edge 60, Type (0, 0), BuildingBlock: XIVTED_clean_linker_0, # of connection points: 2
#     Edge 61, Type (0, 0), BuildingBlock: XIVTED_clean_linker_0, # of connection points: 2
#     Edge 62, Type (0, 0), BuildingBlock: XIVTED_clean_linker_0, # of connection points: 2
#     Edge 63, Type (0, 0), BuildingBlock: XIVTED_clean_linker_0, # of connection points: 2
#     Edge 64, Type (0, 0), BuildingBlock: XIVTED_clean_linker_0, # of connection points: 2
#     Edge 65, Type (0, 0), BuildingBlock: XIVTED_clean_linker_0, # of connection points: 2
#     Edge 66, Type (0, 0), BuildingBlock: XIVTED_clean_linker_0, # of connection points: 2
#     Edge 67, Type (0, 0), BuildingBlock: XIVTED_clean_linker_0, # of connection points: 2
#     Edge 68, Type (0, 0), BuildingBlock: XIVTED_clean_linker_0, # of connection points: 2
#     Edge 69, Type (0, 0), BuildingBlock: XIVTED_clean_linker_0, # of connection points: 2
#     Edge 70, Type (0, 0), BuildingBlock: XIVTED_clean_linker_0, # of connection points: 2
#     Edge 71, Type (0, 0), BuildingBlock: XIVTED_clean_linker_0, # of connection points: 2
#     Edge 72, Type (0, 0), BuildingBlock: XIVTED_clean_linker_0, # of connection points: 2
#     Edge 73, Type (0, 0), BuildingBlock: XIVTED_clean_linker_0, # of connection points: 2
#     Edge 74, Type (0, 0), BuildingBlock: XIVTED_clean_linker_0, # of connection points: 2
#     Edge 75, Type (0, 0), BuildingBlock: XIVTED_clean_linker_0, # of connection points: 2
#     Edge 76, Type (0, 0), BuildingBlock: XIVTED_clean_linker_0, # of connection points: 2
#     Edge 77, Type (0, 0), BuildingBlock: XIVTED_clean_linker_0, # of connection points: 2
#     Edge 78, Type (0, 0), BuildingBlock: XIVTED_clean_linker_0, # of connection points: 2
#     Edge 79, Type (0, 0), BuildingBlock: XIVTED_clean_linker_0, # of connection points: 2
#     Edge 80, Type (0, 0), BuildingBlock: XIVTED_clean_linker_0, # of connection points: 2
#     Edge 81, Type (0, 0), BuildingBlock: XIVTED_clean_linker_0, # of connection points: 2
#     Edge 82, Type (0, 0), BuildingBlock: XIVTED_clean_linker_0, # of connection points: 2
#     Edge 83, Type (0, 0), BuildingBlock: XIVTED_clean_linker_0, # of connection points: 2
#     Edge 84, Type (0, 0), BuildingBlock: XIVTED_clean_linker_0, # of connection points: 2
#     Edge 85, Type (0, 0), BuildingBlock: XIVTED_clean_linker_0, # of connection points: 2
#     Edge 86, Type (0, 0), BuildingBlock: XIVTED_clean_linker_0, # of connection points: 2
#     Edge 87, Type (0, 0), BuildingBlock: XIVTED_clean_linker_0, # of connection points: 2
#     Edge 88, Type (0, 0), BuildingBlock: XIVTED_clean_linker_0, # of connection points: 2
#     Edge 89, Type (0, 0), BuildingBlock: XIVTED_clean_linker_0, # of connection points: 2
#     Edge 90, Type (0, 0), BuildingBlock: XIVTED_clean_linker_0, # of connection points: 2
#     Edge 91, Type (0, 0), BuildingBlock: XIVTED_clean_linker_0, # of connection points: 2
#     Edge 92, Type (0, 0), BuildingBlock: XIVTED_clean_linker_0, # of connection points: 2
#     Edge 93, Type (0, 0), BuildingBlock: XIVTED_clean_linker_0, # of connection points: 2
#     Edge 94, Type (0, 0), BuildingBlock: XIVTED_clean_linker_0, # of connection points: 2
#     Edge 95, Type (0, 0), BuildingBlock: XIVTED_clean_linker_0, # of connection points: 2
# Relax obj value: 0.274
# Max RMSD: 0.197
# Mean RMSD: 0.197
data_MOF--net-ukm--node1-QUQFOY_clean_sbu_3--edge1-XIVTED_clean_linker_0
_symmetry_space_group_name_H-M    P1
_symmetry_Int_Tables_number       1
_symmetry_cell_setting            triclinic
loop_
_symmetry_equiv_pos_as_xyz
'x, y, z'
_cell_length_a     26.019272
_cell_length_b     106.12772
_cell_length_c     42.622695
_cell_angle_alpha  90.05357
_cell_angle_beta   89.998793
_cell_angle_gamma 90.094111
loop_
_atom_site_label
_atom_site_type_symbol
_atom_site_fract_x
_atom_site_fract_y
_atom_site_fract_z
_atom_type_partial_charge
C0 C 0.00076 0.26019 0.31578 0.0
O1 O 0.96668 0.26879 0.31751 0.0
Cd2 Cd 0.97533 0.29074 0.33409 0.0
O3 O 0.04744 0.26234 0.3232 0.0
Cd4 Cd 0.10459 0.27926 0.34043 0.0
C5 C 0.06516 0.29931 0.27939 0.0
O6 O 0.042 0.28938 0.37106 0.0
O7 O 0.11837 0.29419 0.38461 0.0
O8 O 0.1689 0.26497 0.36248 0.0
C9 C 0.07091 0.29672 0.38631 0.0
O10 O 0.01922 0.30025 0.28955 0.0
C11 C 0.2052 0.2693 0.3455 0.0
O12 O 0.09853 0.29252 0.29339 0.0
O13 O 0.19388 0.27797 0.32611 0.0
C14 C 0.21782 0.93941 0.27566 0.0
O15 O 0.24942 0.93047 0.27123 0.0
Cd16 Cd 0.22238 0.90884 0.26558 0.0
O17 O 0.16986 0.93719 0.27734 0.0
Cd18 Cd 0.11048 0.91938 0.27434 0.0
C19 C 0.14632 0.91057 0.20106 0.0
O20 O 0.15943 0.90408 0.30548 0.0
O21 O 0.09154 0.89735 0.28134 0.0
O22 O 0.05261 0.92828 0.31379 0.0
C23 C 0.12785 0.89518 0.30036 0.0
O24 O 0.18801 0.90635 0.21258 0.0
C25 C 0.01448 0.92922 0.29533 0.0
O26 O 0.11396 0.91631 0.21822 0.0
O27 O 0.02145 0.92578 0.26713 0.0
C28 C 0.00325 0.92544 0.90753 0.0
O29 O 0.96319 0.91866 0.90993 0.0
Cd30 Cd 0.96753 0.89622 0.91678 0.0
O31 O 0.04701 0.92036 0.90364 0.0
Cd32 Cd 0.08582 0.89949 0.89787 0.0
C33 C 0.05942 0.89753 0.97489 0.0
O34 O 0.01768 0.88555 0.87798 0.0
O35 O 0.07834 0.87735 0.90612 0.0
O36 O 0.13829 0.90322 0.85084 0.0
C37 C 0.03811 0.87578 0.88979 0.0
O38 O 0.01298 0.89525 0.96711 0.0
C39 C 0.18086 0.90225 0.86532 0.0
O40 O 0.09339 0.89996 0.95428 0.0
O41 O 0.17875 0.89994 0.89452 0.0
C42 C 0.19106 0.27914 0.00323 0.0
O43 O 0.23319 0.28508 0.00586 0.0
Cd44 Cd 0.23775 0.30754 0.00168 0.0
O45 O 0.15007 0.28497 -0.00392 0.0
Cd46 Cd 0.12549 0.30688 0.98433 0.0
C47 C 0.15091 0.31472 0.05874 0.0
O48 O 0.19818 0.31514 0.95426 0.0
O49 O 0.14959 0.32878 0.97761 0.0
O50 O 0.07724 0.30073 0.93799 0.0
C51 C 0.18418 0.32652 0.95741 0.0
O52 O 0.19778 0.31491 0.05018 0.0
C53 C 0.03414 0.30477 0.94755 0.0
O54 O 0.11578 0.31144 0.03964 0.0
O55 O 0.03299 0.30966 0.97478 0.0
C56 C 0.0805 0.67478 0.66871 0.0
O57 O 0.10361 0.66529 0.67999 0.0
Cd58 Cd 0.06225 0.64501 0.68603 0.0
O59 O 0.03456 0.67374 0.6589 0.0
Cd60 Cd 0.96672 0.6579 0.6558 0.0
C61 C 0.96584 0.65443 0.73446 0.0
O62 O 0.01054 0.638 0.64216 0.0
O63 O 0.93584 0.63704 0.66445 0.0
O64 O 0.92497 0.66326 0.60549 0.0
C65 C 0.97261 0.63133 0.65117 0.0
O66 O 0.00657 0.64787 0.73172 0.0
C67 C 0.88549 0.66796 0.61862 0.0
O68 O 0.94598 0.65984 0.71079 0.0
O69 O 0.88481 0.66804 0.64836 0.0
C70 C 0.68245 0.029 0.67858 0.0
O71 O 0.65174 0.03667 0.6916 0.0
Cd72 Cd 0.68093 0.05756 0.70706 0.0
O73 O 0.72874 0.03221 0.67367 0.0
Cd74 Cd 0.78428 0.05002 0.68534 0.0
C75 C 0.7642 0.04938 0.76312 0.0
O76 O 0.73581 0.06914 0.67025 0.0
O77 O 0.79963 0.07113 0.70247 0.0
O78 O 0.84276 0.04784 0.63997 0.0
C79 C 0.76747 0.07634 0.68436 0.0
O80 O 0.7223 0.05524 0.75841 0.0
C81 C 0.88037 0.04414 0.65662 0.0
O82 O 0.7907 0.0454 0.74017 0.0
O83 O 0.87284 0.04332 0.68592 0.0
C84 C 0.00867 0.00749 0.0205 0.0
O85 O 0.04524 0.01527 0.01707 0.0
Cd86 Cd 0.0295 0.03745 0.02317 0.0
O87 O 0.96562 0.0112 0.03107 0.0
Cd88 Cd 0.92647 0.03094 0.04844 0.0
C89 C 0.92669 0.0398 0.97393 0.0
O90 O 0.99223 0.04463 0.07203 0.0
O91 O 0.93032 0.05348 0.04611 0.0
O92 O 0.88576 0.0252 0.09863 0.0
C93 C 0.9674 0.05456 0.0652 0.0
O94 O 0.97394 0.04244 0.97834 0.0
C95 C 0.84031 0.0259 0.08789 0.0
O96 O 0.90016 0.03469 -0.00455 0.0
O97 O 0.83557 0.02862 0.05907 0.0
C98 C 0.72098 0.69125 0.012 0.0
O99 O 0.68286 0.6849 0.00222 0.0
Cd100 Cd 0.69237 0.66244 -0.00504 0.0
O101 O 0.76258 0.68572 0.01908 0.0
Cd102 Cd 0.79791 0.66452 0.01988 0.0
C103 C 0.78847 0.66157 0.94193 0.0
O104 O 0.72776 0.65151 0.0406 0.0
O105 O 0.78796 0.642 0.01477 0.0
O106 O 0.8472 0.66781 0.06859 0.0
C107 C 0.74984 0.64125 0.03318 0.0
O108 O 0.7407 0.65948 0.9458 0.0
C109 C 0.89057 0.66724 0.05498 0.0
O110 O 0.81674 0.66445 0.96508 0.0
O111 O 0.89031 0.66509 0.02571 0.0
C112 C 0.09155 0.75634 0.77335 0.0
O113 O 0.04749 0.76155 0.77329 0.0
Cd114 Cd 0.01676 0.78067 0.79775 0.0
O115 O 0.12951 0.7613 0.78773 0.0
Cd116 Cd 0.14459 0.78141 0.81532 0.0
C117 C 0.09549 0.79924 0.75404 0.0
O118 O 0.06463 0.78208 0.84457 0.0
O119 O 0.11667 0.79748 0.85215 0.0
O120 O 0.21477 0.77484 0.84995 0.0
C121 C 0.07334 0.79254 0.85774 0.0
O122 O 0.04958 0.79636 0.76156 0.0
C123 C 0.24765 0.78206 0.837 0.0
O124 O 0.13376 0.7946 0.76867 0.0
O125 O 0.23278 0.78842 0.81349 0.0
C126 C 0.15372 0.44048 0.75999 0.0
O127 O 0.196 0.43457 0.7583 0.0
Cd128 Cd 0.20422 0.41233 0.76321 0.0
O129 O 0.11238 0.43473 0.7671 0.0
Cd130 Cd 0.08833 0.41271 0.7794 0.0
C131 C 0.11817 0.40562 0.70496 0.0
O132 O 0.16159 0.40512 0.80952 0.0
O133 O 0.11462 0.39092 0.78703 0.0
O134 O 0.03646 0.41837 0.82477 0.0
C135 C 0.14977 0.39359 0.80657 0.0
O136 O 0.16463 0.40539 0.71433 0.0
C137 C 0.99482 0.41379 0.81421 0.0
O138 O 0.08199 0.40856 0.72364 0.0
O139 O 0.99621 0.40898 0.78691 0.0
C140 C 0.99176 0.43421 0.3935 0.0
O141 O 0.96041 0.42514 0.39734 0.0
Cd142 Cd 0.984 0.40351 0.40829 0.0
O143 O 0.03997 0.43224 0.39362 0.0
Cd144 Cd 0.10097 0.41498 0.40058 0.0
C145 C 0.05455 0.40964 0.47427 0.0
O146 O 0.05656 0.39655 0.37848 0.0
O147 O 0.12202 0.39349 0.40882 0.0
O148 O 0.1664 0.42035 0.3612 0.0
C149 C 0.08612 0.38882 0.39246 0.0
O150 O 0.01477 0.40451 0.4623 0.0
C151 C 0.20008 0.42344 0.38148 0.0
O152 O 0.08878 0.41478 0.4571 0.0
O153 O 0.18685 0.42287 0.41012 0.0
C154 C 0.22218 0.7752 0.47042 0.0
O155 O 0.25355 0.78437 0.46907 0.0
Cd156 Cd 0.22541 0.80603 0.46576 0.0
O157 O 0.17399 0.77715 0.46932 0.0
Cd158 Cd 0.11329 0.79467 0.46476 0.0
C159 C 0.15416 0.80863 0.53216 0.0
O160 O 0.1594 0.80766 0.42609 0.0
O161 O 0.09122 0.81547 0.44779 0.0
O162 O 0.05608 0.78231 0.43127 0.0
C163 C 0.12665 0.8165 0.42759 0.0
O164 O 0.19528 0.81186 0.51812 0.0
C165 C 0.01739 0.78317 0.44933 0.0
O166 O 0.1204 0.80193 0.51842 0.0
O167 O 0.0239 0.78904 0.47499 0.0
C168 C 0.92316 0.17734 0.21387 0.0
O169 O 0.96096 0.17026 0.20728 0.0
Cd170 Cd 0.95502 0.14804 0.19774 0.0
O171 O 0.87743 0.17307 0.21337 0.0
Cd172 Cd 0.83185 0.15327 0.20134 0.0
C173 C 0.88855 0.14048 0.26516 0.0
O174 O 0.8873 0.14397 0.16181 0.0
O175 O 0.83464 0.13141 0.18537 0.0
O176 O 0.77013 0.16379 0.16759 0.0
C177 C 0.86962 0.13291 0.16501 0.0
O178 O 0.92957 0.13981 0.24889 0.0
C179 C 0.73072 0.16056 0.18325 0.0
O180 O 0.84806 0.14563 0.25424 0.0
O181 O 0.73837 0.154 0.20776 0.0
C182 C 0.81119 0.52625 0.22306 0.0
O183 O 0.76988 0.53221 0.21754 0.0
Cd184 Cd 0.76532 0.55394 0.20217 0.0
O185 O 0.85468 0.53149 0.21879 0.0
Cd186 Cd 0.8885 0.55201 0.20085 0.0
C187 C 0.834 0.56583 0.26416 0.0
O188 O 0.82555 0.55797 0.16106 0.0
O189 O 0.87322 0.57282 0.18017 0.0
O190 O 0.95406 0.54239 0.16785 0.0
C191 C 0.83903 0.56946 0.16068 0.0
O192 O 0.79099 0.56501 0.25 0.0
C193 C 0.99201 0.54727 0.18218 0.0
O194 O 0.87471 0.56119 0.25226 0.0
O195 O 0.98182 0.55437 0.20538 0.0
C196 C 0.91799 0.51553 0.49397 0.0
O197 O 0.95549 0.52287 0.5 0.0
Cd198 Cd 0.95536 0.54218 0.53042 0.0
O199 O 0.87311 0.5178 0.5045 0.0
Cd200 Cd 0.82911 0.53429 0.53491 0.0
C201 C 0.86953 0.55747 0.48351 0.0
O202 O 0.89731 0.53836 0.5722 0.0
O203 O 0.82839 0.54924 0.57831 0.0
O204 O 0.76662 0.51992 0.5585 0.0
C205 C 0.87417 0.54708 0.58676 0.0
O206 O 0.91506 0.55687 0.49439 0.0
C207 C 0.72788 0.52547 0.54666 0.0
O208 O 0.83427 0.55011 0.49337 0.0
O209 O 0.73679 0.53475 0.52864 0.0
C210 C 0.86105 0.18751 0.50727 0.0
O211 O 0.82178 0.18103 0.51491 0.0
Cd212 Cd 0.81818 0.16152 0.5437 0.0
O213 O 0.90609 0.18411 0.51538 0.0
Cd214 Cd 0.94627 0.16625 0.5432 0.0
C215 C 0.89155 0.14577 0.49004 0.0
O216 O 0.88132 0.16354 0.58333 0.0
O217 O 0.94331 0.15014 0.58404 0.0
O218 O 0.0131 0.17972 0.56531 0.0
C219 C 0.90115 0.15385 0.59565 0.0
O220 O 0.84834 0.14701 0.50373 0.0
C221 C 0.05017 0.17336 0.55404 0.0
O222 O 0.93089 0.15198 0.49904 0.0
O223 O 0.03863 0.16395 0.53694 0.0
C224 C 0.58142 0.27728 0.74235 0.0
O225 O 0.54164 0.28314 0.73325 0.0
Cd226 Cd 0.53169 0.30553 0.73737 0.0
O227 O 0.61816 0.28319 0.75548 0.0
Cd228 Cd 0.6374 0.3054 0.76741 0.0
C229 C 0.63146 0.31151 0.6899 0.0
O230 O 0.55588 0.3125 0.7891 0.0
O231 O 0.60795 0.32713 0.7737 0.0
O232 O 0.68103 0.29978 0.81626 0.0
C233 C 0.5681 0.32406 0.78909 0.0
O234 O 0.58336 0.31315 0.69336 0.0
C235 C 0.7238 0.30465 0.80854 0.0
O236 O 0.6591 0.30789 0.71273 0.0
O237 O 0.72629 0.30982 0.78171 0.0
C238 C 0.68182 0.93695 0.71079 0.0
O239 O 0.72541 0.93169 0.7084 0.0
Cd240 Cd 0.74009 0.90984 0.71921 0.0
O241 O 0.6429 0.93067 0.71994 0.0
Cd242 Cd 0.62641 0.90845 0.73489 0.0
C243 C 0.66245 0.89737 0.66382 0.0
O244 O 0.70061 0.90414 0.76864 0.0
O245 O 0.65813 0.88797 0.75188 0.0
O246 O 0.56443 0.91432 0.77558 0.0
C247 C 0.69168 0.89241 0.77041 0.0
O248 O 0.70889 0.8988 0.67249 0.0
C249 C 0.52661 0.90869 0.76297 0.0
O250 O 0.62572 0.90081 0.6815 0.0
O251 O 0.5352 0.90301 0.73729 0.0
C252 C 0.46509 0.94025 0.42349 0.0
O253 O 0.43177 0.93145 0.42544 0.0
Cd254 Cd 0.43475 0.90972 0.40659 0.0
O255 O 0.50837 0.93847 0.41015 0.0
Cd256 Cd 0.55827 0.92157 0.38578 0.0
C257 C 0.53954 0.9012 0.44983 0.0
O258 O 0.48717 0.91155 0.36192 0.0
O259 O 0.559 0.90629 0.34176 0.0
O260 O 0.6174 0.93502 0.35598 0.0
C261 C 0.51142 0.90401 0.34444 0.0
O262 O 0.4915 0.8999 0.4448 0.0
C263 C 0.65685 0.93107 0.37072 0.0
O264 O 0.56726 0.90831 0.43259 0.0
O265 O 0.6496 0.92304 0.39237 0.0
C266 C 0.7866 0.26688 0.39701 0.0
O267 O 0.81469 0.27669 0.39844 0.0
Cd268 Cd 0.78513 0.29852 0.39872 0.0
O269 O 0.73786 0.26775 0.39625 0.0
Cd270 Cd 0.66974 0.28333 0.39938 0.0
C271 C 0.71808 0.29613 0.46734 0.0
O272 O 0.70805 0.3003 0.36946 0.0
O273 O 0.6365 0.30427 0.39282 0.0
O274 O 0.60736 0.27281 0.36525 0.0
C275 C 0.67486 0.30843 0.37773 0.0
O276 O 0.75345 0.30161 0.45178 0.0
C277 C 0.5751 0.27083 0.38717 0.0
O278 O 0.68703 0.28832 0.45462 0.0
O279 O 0.58795 0.27429 0.41462 0.0
C280 C 0.42323 0.68743 0.2005 0.0
O281 O 0.46175 0.68034 0.19551 0.0
Cd282 Cd 0.46084 0.65908 0.17572 0.0
O283 O 0.37777 0.68371 0.19422 0.0
Cd284 Cd 0.33522 0.66461 0.17393 0.0
C285 C 0.38544 0.64739 0.23468 0.0
O286 O 0.39915 0.65903 0.13473 0.0
O287 O 0.33641 0.64596 0.14085 0.0
O288 O 0.27062 0.67656 0.14533 0.0
C289 C 0.37762 0.64881 0.12674 0.0
O290 O 0.42893 0.64753 0.22097 0.0
C291 C 0.2325 0.67135 0.1588 0.0
O292 O 0.347 0.6532 0.22316 0.0
O293 O 0.24241 0.66344 0.1803 0.0
C294 C 0.32691 0.02893 0.24938 0.0
O295 O 0.29194 0.03726 0.24804 0.0
Cd296 Cd 0.30666 0.05901 0.23549 0.0
O297 O 0.37355 0.03174 0.24356 0.0
Cd298 Cd 0.42553 0.05019 0.2286 0.0
C299 C 0.39044 0.06606 0.29484 0.0
O300 O 0.36325 0.05842 0.19147 0.0
O301 O 0.43084 0.06985 0.19892 0.0
O302 O 0.47652 0.03603 0.19636 0.0
C303 C 0.38878 0.06817 0.18451 0.0
O304 O 0.34632 0.06761 0.28255 0.0
C305 C 0.51964 0.0393 0.20773 0.0
O306 O 0.42499 0.05971 0.28077 0.0
O307 O 0.51901 0.04749 0.22947 0.0
C308 C 0.43343 0.01876 0.55235 0.0
O309 O 0.4737 0.02508 0.55883 0.0
Cd310 Cd 0.47954 0.04609 0.58044 0.0
O311 O 0.3888 0.02323 0.55762 0.0
Cd312 Cd 0.3496 0.04273 0.5777 0.0
C313 C 0.41264 0.06017 0.52096 0.0
O314 O 0.41262 0.04672 0.61819 0.0
O315 O 0.35043 0.06001 0.61535 0.0
O316 O 0.2761 0.03159 0.60015 0.0
C317 C 0.3924 0.05681 0.62803 0.0
O318 O 0.45535 0.05875 0.53514 0.0
C319 C 0.24284 0.03779 0.58466 0.0
O320 O 0.37151 0.0551 0.53127 0.0
O321 O 0.2596 0.04594 0.56537 0.0
C322 C 0.33548 0.68663 0.51313 0.0
O323 O 0.3015 0.67829 0.51858 0.0
Cd324 Cd 0.31637 0.65645 0.52951 0.0
O325 O 0.38311 0.68382 0.5133 0.0
Cd326 Cd 0.43596 0.66474 0.52174 0.0
C327 C 0.37798 0.64862 0.46178 0.0
O328 O 0.38645 0.65641 0.56566 0.0
O329 O 0.44866 0.64481 0.54902 0.0
O330 O 0.5034 0.67731 0.54647 0.0
C331 C 0.4126 0.64644 0.56853 0.0
O332 O 0.33813 0.64731 0.47879 0.0
C333 C 0.53927 0.67328 0.52889 0.0
O334 O 0.41661 0.6549 0.47146 0.0
O335 O 0.52655 0.66568 0.50719 0.0
C336 C 0.47885 0.77043 0.30624 0.0
O337 O 0.44751 0.77942 0.30151 0.0
Cd338 Cd 0.46384 0.80172 0.30803 0.0
O339 O 0.52404 0.77257 0.31645 0.0
Cd340 Cd 0.58027 0.79018 0.33122 0.0
C341 C 0.56772 0.80348 0.25809 0.0
O342 O 0.51676 0.8044 0.35269 0.0
O343 O 0.5929 0.81188 0.34645 0.0
O344 O 0.62812 0.78097 0.3753 0.0
C345 C 0.54611 0.81395 0.35281 0.0
O346 O 0.52148 0.80653 0.26447 0.0
C347 C 0.66997 0.78021 0.35993 0.0
O348 O 0.59482 0.7971 0.27727 0.0
O349 O 0.6691 0.78381 0.33153 0.0
C350 C 0.77686 0.44095 0.32013 0.0
O351 O 0.81157 0.43264 0.31594 0.0
Cd352 Cd 0.81063 0.40969 0.32336 0.0
O353 O 0.73184 0.4379 0.32918 0.0
Cd354 Cd 0.68245 0.41892 0.34017 0.0
C355 C 0.71862 0.40203 0.27149 0.0
O356 O 0.74636 0.40571 0.36108 0.0
O357 O 0.6769 0.40518 0.3875 0.0
O358 O 0.60916 0.43018 0.36246 0.0
C359 C 0.72031 0.40026 0.38198 0.0
O360 O 0.76647 0.4015 0.27772 0.0
C361 C 0.57652 0.42496 0.34429 0.0
O362 O 0.68712 0.40757 0.28983 0.0
O363 O 0.59363 0.41711 0.32431 0.0
C364 C 0.53498 0.42687 0.02153 0.0
O365 O 0.49268 0.42102 0.0243 0.0
Cd366 Cd 0.48709 0.39898 0.01211 0.0
O367 O 0.57391 0.42135 0.00989 0.0
Cd368 Cd 0.59523 0.40044 0.98871 0.0
C369 C 0.5811 0.38877 0.06108 0.0
O370 O 0.5181 0.39427 0.95976 0.0
O371 O 0.56834 0.37925 0.97508 0.0
O372 O 0.64084 0.40897 0.94331 0.0
C373 C 0.53167 0.38282 0.95765 0.0
O374 O 0.53297 0.38905 0.05577 0.0
C375 C 0.68422 0.4044 0.95074 0.0
O376 O 0.61268 0.39291 0.04081 0.0
O377 O 0.68628 0.39803 0.9759 0.0
C378 C 0.74704 0.78444 0.98156 0.0
O379 O 0.78911 0.79028 0.98556 0.0
Cd380 Cd 0.78816 0.81297 0.98535 0.0
O381 O 0.7062 0.7905 0.97551 0.0
Cd382 Cd 0.67554 0.81197 0.96708 0.0
C383 C 0.7005 0.81821 0.04297 0.0
O384 O 0.74751 0.82085 0.93764 0.0
O385 O 0.6923 0.83405 0.95675 0.0
O386 O 0.6237 0.80446 0.92314 0.0
C387 C 0.72997 0.83201 0.93854 0.0
O388 O 0.74797 0.81836 0.03578 0.0
C389 C 0.58078 0.80698 0.93582 0.0
O390 O 0.66664 0.81584 0.02235 0.0
O391 O 0.58198 0.81228 0.96253 0.0
C392 C 0.58582 0.18648 0.69418 0.0
O393 O 0.6112 0.17845 0.70982 0.0
Cd394 Cd 0.57905 0.15735 0.72011 0.0
O395 O 0.5414 0.18374 0.68394 0.0
Cd396 Cd 0.48125 0.16647 0.68965 0.0
C397 C 0.48299 0.16604 0.76801 0.0
O398 O 0.53077 0.14702 0.67895 0.0
O399 O 0.46033 0.14557 0.70579 0.0
O400 O 0.43688 0.16863 0.63884 0.0
C401 C 0.49635 0.14007 0.69123 0.0
O402 O 0.52241 0.15903 0.76549 0.0
C403 C 0.39512 0.17246 0.65101 0.0
O404 O 0.46407 0.17154 0.74419 0.0
O405 O 0.39406 0.17351 0.68064 0.0
C406 C 0.19957 0.5283 0.69945 0.0
O407 O 0.17914 0.53784 0.71227 0.0
Cd408 Cd 0.2308 0.55633 0.72247 0.0
O409 O 0.24664 0.52852 0.69155 0.0
Cd410 Cd 0.32134 0.54233 0.69319 0.0
C411 C 0.3186 0.54357 0.77197 0.0
O412 O 0.2843 0.56279 0.67844 0.0
O413 O 0.35967 0.5627 0.70004 0.0
O414 O 0.35695 0.53591 0.64224 0.0
C415 C 0.32524 0.56874 0.6854 0.0
O416 O 0.28027 0.55094 0.76934 0.0
C417 C 0.39698 0.53095 0.65396 0.0
O418 O 0.33902 0.53862 0.7479 0.0
O419 O 0.40091 0.53112 0.68362 0.0
C420 C 0.53789 0.51712 0.07363 0.0
O421 O 0.5721 0.52415 0.06163 0.0
Cd422 Cd 0.55191 0.5448 0.04158 0.0
O423 O 0.49222 0.52114 0.07673 0.0
Cd424 Cd 0.44437 0.54018 0.06379 0.0
C425 C 0.46433 0.53638 0.98684 0.0
O426 O 0.50099 0.55833 0.07535 0.0
O427 O 0.4404 0.56077 0.04112 0.0
O428 O 0.38812 0.54125 0.11036 0.0
C429 C 0.47403 0.56575 0.0587 0.0
O430 O 0.50845 0.54128 0.99129 0.0
C431 C 0.34739 0.53881 0.09502 0.0
O432 O 0.43514 0.53389 0.0099 0.0
O433 O 0.3524 0.5369 0.06581 0.0
C434 C 0.1987 0.18735 0.04498 0.0
O435 O 0.16917 0.1794 0.03192 0.0
Cd436 Cd 0.1982 0.15803 0.02211 0.0
O437 O 0.24398 0.18418 0.05268 0.0
Cd438 Cd 0.29774 0.16576 0.04592 0.0
C439 C 0.28684 0.165 0.96829 0.0
O440 O 0.24546 0.14787 0.06425 0.0
O441 O 0.30948 0.14389 0.03343 0.0
O442 O 0.34498 0.16934 0.09499 0.0
C443 C 0.27745 0.1399 0.05352 0.0
O444 O 0.24725 0.15823 0.97313 0.0
C445 C 0.38866 0.17013 0.08184 0.0
O446 O 0.30958 0.17044 0.99093 0.0
O447 O 0.3895 0.1693 0.05215 0.0
H448 H 0.12836 0.37235 0.43346 0.0
H449 H 0.99525 0.31148 0.36077 0.0
H450 H 0.01642 0.37445 0.35886 0.0
H451 H 0.1132 0.31115 0.43182 0.0
H452 H 0.9889 0.33442 0.36629 0.0
H453 H 0.11114 0.35007 0.43874 0.0
C454 C 0.10014 0.3681 0.41802 0.0
C455 C 0.0744 0.37525 0.39526 0.0
C456 C 0.01526 0.32928 0.38118 0.0
C457 C 0.05442 0.3495 0.40125 0.0
C458 C 0.01848 0.31617 0.37831 0.0
C459 C 0.05518 0.30947 0.39571 0.0
C460 C 0.04887 0.3356 0.40165 0.0
C461 C 0.08475 0.31601 0.4178 0.0
C462 C 0.09007 0.35533 0.42122 0.0
C463 C 0.03754 0.36923 0.37643 0.0
N464 N 0.0814 0.32872 0.41985 0.0
N465 N 0.02903 0.35661 0.37958 0.0
H466 H 0.20987 0.88544 0.3327 0.0
H467 H 0.04669 0.83117 0.41013 0.0
H468 H 0.05367 0.87726 0.30507 0.0
H469 H 0.21026 0.82672 0.39764 0.0
H470 H 0.0492 0.84983 0.37682 0.0
H471 H 0.21209 0.8654 0.36161 0.0
C472 C 0.17621 0.87941 0.33265 0.0
C473 C 0.13141 0.88301 0.31668 0.0
C474 C 0.08451 0.84473 0.3812 0.0
C475 C 0.1336 0.86036 0.34967 0.0
C476 C 0.08316 0.83414 0.4003 0.0
C477 C 0.12837 0.82745 0.40656 0.0
C478 C 0.13155 0.84882 0.36881 0.0
C479 C 0.17459 0.83163 0.39316 0.0
C480 C 0.17763 0.868 0.34894 0.0
C481 C 0.08895 0.87486 0.31712 0.0
N482 N 0.17517 0.8422 0.3751 0.0
N483 N 0.09089 0.86398 0.33367 0.0
H484 H 0.983 0.8647 0.84211 0.0
H485 H 0.05297 0.80012 0.91707 0.0
H486 H 0.03547 0.85881 0.93688 0.0
H487 H 0.00409 0.80455 0.82125 0.0
H488 H 0.01262 0.82019 0.93011 0.0
H489 H 0.95932 0.84229 0.83907 0.0
C490 C 0.98827 0.85875 0.86248 0.0
C491 C 0.01286 0.86339 0.88934 0.0
C492 C 0.00905 0.81663 0.90639 0.0
C493 C 0.98601 0.83799 0.88624 0.0
C494 C 0.03162 0.8051 0.89912 0.0
C495 C 0.03196 0.80084 0.86811 0.0
C496 C 0.98909 0.82415 0.88208 0.0
C497 C 0.0045 0.80763 0.84547 0.0
C498 C 0.97474 0.84599 0.86081 0.0
C499 C 0.01822 0.85543 0.91533 0.0
N500 N 0.98551 0.81919 0.85266 0.0
N501 N 0.00574 0.84308 0.91296 0.0
H502 H 0.15272 0.36832 0.79503 0.0
H503 H 0.18913 0.35166 0.96924 0.0
H504 H 0.20207 0.39652 0.86158 0.0
H505 H 0.21777 0.32402 0.8971 0.0
H506 H 0.20007 0.36837 0.93044 0.0
H507 H 0.18166 0.35189 0.83105 0.0
C508 C 0.17037 0.37104 0.81705 0.0
C509 C 0.17427 0.38375 0.82567 0.0
C510 C 0.20524 0.35867 0.92322 0.0
C511 C 0.20676 0.36508 0.86698 0.0
C512 C 0.19883 0.34915 0.94532 0.0
C513 C 0.20186 0.33649 0.93613 0.0
C514 C 0.21317 0.35546 0.89164 0.0
C515 C 0.21487 0.33369 0.90499 0.0
C516 C 0.18719 0.36168 0.83748 0.0
C517 C 0.19797 0.3868 0.85423 0.0
N518 N 0.21875 0.34312 0.88358 0.0
N519 N 0.2123 0.37751 0.87426 0.0
H520 H 0.8368 0.55963 0.63692 0.0
H521 H 0.03209 0.61587 0.6139 0.0
H522 H 0.97188 0.55623 0.57901 0.0
H523 H 0.91034 0.61526 0.68265 0.0
H524 H 0.01969 0.59312 0.60575 0.0
H525 H 0.87225 0.57874 0.66003 0.0
C526 C 0.87459 0.56279 0.62965 0.0
C527 C 0.90131 0.55647 0.60593 0.0
C528 C 0.99636 0.59796 0.62298 0.0
C529 C 0.94146 0.57861 0.63125 0.0
C530 C 0.00336 0.61092 0.62757 0.0
C531 C 0.97138 0.61748 0.64841 0.0
C532 C 0.95716 0.59163 0.63942 0.0
C533 C 0.93506 0.61064 0.66578 0.0
C534 C 0.89483 0.57374 0.6427 0.0
C535 C 0.95013 0.56089 0.59726 0.0
N536 N 0.9286 0.59815 0.66063 0.0
N537 N 0.96822 0.57191 0.6094 0.0
H538 H 0.7208 0.09028 0.6378 0.0
H539 H 0.93907 0.14007 0.64363 0.0
H540 H 0.82411 0.09346 0.71667 0.0
H541 H 0.79836 0.14838 0.59449 0.0
H542 H 0.89494 0.12327 0.67198 0.0
H543 H 0.74375 0.11188 0.62242 0.0
C544 C 0.74735 0.0956 0.65223 0.0
C545 C 0.77155 0.08998 0.67808 0.0
C546 C 0.87328 0.12892 0.65549 0.0
C547 C 0.79814 0.11447 0.66058 0.0
C548 C 0.89852 0.13848 0.63933 0.0
C549 C 0.87223 0.14553 0.61677 0.0
C550 C 0.82184 0.12612 0.64823 0.0
C551 C 0.81978 0.14313 0.61186 0.0
C552 C 0.76038 0.10791 0.64349 0.0
C553 C 0.80542 0.09732 0.69612 0.0
N554 N 0.79643 0.13338 0.62696 0.0
N555 N 0.81845 0.10908 0.68669 0.0
H556 H 0.8721 0.10911 0.18843 0.0
H557 H 0.96692 0.07734 0.03684 0.0
H558 H 0.92924 0.1319 0.11217 0.0
H559 H 0.98764 0.05946 0.1267 0.0
H560 H 0.95806 0.09769 0.06317 0.0
H561 H 0.9156 0.09085 0.16612 0.0
C562 C 0.89382 0.11026 0.16693 0.0
C563 C 0.89645 0.12195 0.15174 0.0
C564 C 0.96607 0.08939 0.0771 0.0
C565 C 0.94637 0.10113 0.12624 0.0
C566 C 0.97118 0.0778 0.06211 0.0
C567 C 0.9776 0.0668 0.0798 0.0
C568 C 0.96565 0.08982 0.10997 0.0
C569 C 0.98277 0.0678 0.11238 0.0
C570 C 0.91921 0.09988 0.15447 0.0
C571 C 0.92592 0.12299 0.12434 0.0
N572 N 0.97523 0.07911 0.12659 0.0
N573 N 0.94906 0.11262 0.11206 0.0
H574 H 0.81995 0.59361 0.17771 0.0
H575 H 0.76616 0.61751 0.01138 0.0
H576 H 0.79233 0.56678 0.1035 0.0
H577 H 0.71129 0.63797 0.09216 0.0
H578 H 0.77095 0.59839 0.04324 0.0
H579 H 0.77768 0.60985 0.14659 0.0
C580 C 0.80468 0.59115 0.15485 0.0
C581 C 0.81024 0.57894 0.14281 0.0
C582 C 0.75645 0.60697 0.05376 0.0
C583 C 0.7622 0.59745 0.10709 0.0
C584 C 0.75379 0.61787 0.03564 0.0
C585 C 0.73912 0.62932 0.0494 0.0
C586 C 0.74578 0.60768 0.08596 0.0
C587 C 0.72314 0.62932 0.08078 0.0
C588 C 0.78006 0.60037 0.13728 0.0
C589 C 0.78907 0.57615 0.11337 0.0
N590 N 0.72827 0.61872 0.09832 0.0
N591 N 0.76689 0.58544 0.09609 0.0
H592 H 0.51943 0.35745 0.96057 0.0
H593 H 0.57149 0.34975 0.78544 0.0
H594 H 0.50149 0.38921 0.89854 0.0
H595 H 0.5042 0.31926 0.83839 0.0
H596 H 0.54037 0.36462 0.82496 0.0
H597 H 0.50712 0.34324 0.91603 0.0
C598 C 0.5116 0.3614 0.93763 0.0
C599 C 0.51197 0.37445 0.93298 0.0
C600 C 0.5313 0.35471 0.8275 0.0
C601 C 0.49947 0.35836 0.88198 0.0
C602 C 0.54929 0.34623 0.80508 0.0
C603 C 0.54118 0.33326 0.80904 0.0
C604 C 0.5063 0.35013 0.85437 0.0
C605 C 0.51175 0.32918 0.83468 0.0
C606 C 0.50444 0.35331 0.91226 0.0
C607 C 0.50155 0.37916 0.90293 0.0
N608 N 0.49645 0.33757 0.85685 0.0
N609 N 0.49715 0.3711 0.87828 0.0
H610 H 0.77635 0.82836 0.88174 0.0
H611 H 0.73175 0.89943 0.82705 0.0
H612 H 0.71873 0.85749 0.943 0.0
H613 H 0.70764 0.86709 0.7674 0.0
H614 H 0.75977 0.88528 0.86928 0.0
H615 H 0.78473 0.84399 0.83969 0.0
C616 C 0.76678 0.8381 0.88659 0.0
C617 C 0.74589 0.84164 0.91563 0.0
C618 C 0.74934 0.88136 0.84668 0.0
C619 C 0.75576 0.85943 0.86797 0.0
C620 C 0.7335 0.88939 0.82264 0.0
C621 C 0.71665 0.88436 0.79399 0.0
C622 C 0.74918 0.86829 0.84167 0.0
C623 C 0.71961 0.8713 0.78938 0.0
C624 C 0.77138 0.84697 0.8626 0.0
C625 C 0.73417 0.85437 0.92073 0.0
N626 N 0.73523 0.86368 0.81308 0.0
N627 N 0.73879 0.86281 0.89699 0.0
H628 H 0.5714 0.8289 0.30433 0.0
H629 H 0.4426 0.88958 0.37752 0.0
H630 H 0.47345 0.82739 0.38582 0.0
H631 H 0.53988 0.88928 0.29565 0.0
H632 H 0.4358 0.8666 0.37441 0.0
H633 H 0.54398 0.8504 0.29472 0.0
C634 C 0.54401 0.83317 0.32027 0.0
C635 C 0.52565 0.82657 0.34641 0.0
C636 C 0.45742 0.8716 0.35661 0.0
C637 C 0.49422 0.8513 0.33575 0.0
C638 C 0.46091 0.88473 0.3582 0.0
C639 C 0.49256 0.89127 0.33707 0.0
C640 C 0.48575 0.86508 0.33372 0.0
C641 C 0.51568 0.88454 0.31263 0.0
C642 C 0.52802 0.84543 0.31466 0.0
C643 C 0.48904 0.83233 0.36574 0.0
N644 N 0.5125 0.8718 0.31193 0.0
N645 N 0.47521 0.84453 0.36041 0.0
H646 H 0.61454 0.32684 0.40195 0.0
H647 H 0.79292 0.38424 0.35797 0.0
H648 H 0.76211 0.32099 0.35793 0.0
H649 H 0.66931 0.38615 0.42532 0.0
H650 H 0.78815 0.36121 0.3597 0.0
H651 H 0.63627 0.34878 0.41014 0.0
C652 C 0.65153 0.33019 0.39376 0.0
C653 C 0.68653 0.32204 0.37913 0.0
C654 C 0.76299 0.36668 0.37466 0.0
C655 C 0.71195 0.34734 0.38876 0.0
C656 C 0.76599 0.37983 0.37394 0.0
C657 C 0.73065 0.3871 0.39106 0.0
C658 C 0.72424 0.36088 0.39246 0.0
C659 C 0.69668 0.3809 0.41134 0.0
C660 C 0.66415 0.34274 0.39878 0.0
C661 C 0.73388 0.32698 0.36911 0.0
N662 N 0.6936 0.36815 0.41099 0.0
N663 N 0.74518 0.33937 0.37396 0.0
H664 H 0.5266 0.58008 0.10206 0.0
H665 H 0.33514 0.63473 0.08084 0.0
H666 H 0.42903 0.58291 0.02046 0.0
H667 H 0.4776 0.64121 0.12988 0.0
H668 H 0.37263 0.61612 0.05622 0.0
H669 H 0.5154 0.60277 0.11102 0.0
C670 C 0.50386 0.58551 0.08567 0.0
C671 C 0.47757 0.57958 0.061 0.0
C672 C 0.39627 0.62175 0.07177 0.0
C673 C 0.46436 0.60531 0.07118 0.0
C674 C 0.37481 0.63234 0.08579 0.0
C675 C 0.40347 0.63939 0.10727 0.0
C676 C 0.44607 0.61796 0.08027 0.0
C677 C 0.45457 0.63596 0.11322 0.0
C678 C 0.49757 0.59844 0.09073 0.0
C679 C 0.44894 0.58705 0.04026 0.0
N680 N 0.47401 0.62524 0.10036 0.0
N681 N 0.44224 0.59948 0.04618 0.0
H682 H 0.21909 0.12836 0.09911 0.0
H683 H 0.44461 0.08442 0.149 0.0
H684 H 0.35236 0.12292 0.04023 0.0
H685 H 0.2888 0.07305 0.16919 0.0
H686 H 0.4117 0.10032 0.11273 0.0
H687 H 0.24238 0.10922 0.12827 0.0
C688 C 0.25259 0.12303 0.09197 0.0
C689 C 0.28423 0.12732 0.06753 0.0
C690 C 0.38476 0.09426 0.12491 0.0
C691 C 0.31135 0.10578 0.10095 0.0
C692 C 0.40348 0.08528 0.1457 0.0
C693 C 0.36928 0.07747 0.16198 0.0
C694 C 0.33151 0.09565 0.12104 0.0
C695 C 0.3163 0.07889 0.15686 0.0
C696 C 0.2658 0.11215 0.10857 0.0
C697 C 0.32714 0.12005 0.05914 0.0
N698 N 0.29883 0.08797 0.13709 0.0
N699 N 0.34 0.10978 0.07622 0.0
H700 H 0.35489 0.07013 0.67675 0.0
H701 H 0.55124 0.1248 0.65104 0.0
H702 H 0.49193 0.0646 0.62172 0.0
H703 H 0.44311 0.12379 0.72779 0.0
H704 H 0.53835 0.10204 0.64354 0.0
H705 H 0.39355 0.08882 0.70022 0.0
C706 C 0.39377 0.07273 0.67028 0.0
C707 C 0.42036 0.06593 0.64739 0.0
C708 C 0.51837 0.10678 0.66244 0.0
C709 C 0.4642 0.08756 0.67297 0.0
C710 C 0.52565 0.11975 0.66666 0.0
C711 C 0.49714 0.1262 0.68949 0.0
C712 C 0.48221 0.10038 0.68112 0.0
C713 C 0.46485 0.11924 0.70933 0.0
C714 C 0.4159 0.0834 0.68357 0.0
C715 C 0.47048 0.06964 0.6395 0.0
N716 N 0.45768 0.10676 0.70437 0.0
N717 N 0.49045 0.08044 0.65172 0.0
H718 H 0.31862 0.64212 0.59525 0.0
H719 H 0.41489 0.58183 0.68961 0.0
H720 H 0.47419 0.62813 0.59218 0.0
H721 H 0.25901 0.58499 0.65571 0.0
H722 H 0.43493 0.60211 0.66579 0.0
H723 H 0.29456 0.62421 0.62879 0.0
C724 C 0.34776 0.63538 0.60201 0.0
C725 C 0.39832 0.6365 0.59089 0.0
C726 C 0.39622 0.59841 0.66383 0.0
C727 C 0.37142 0.61628 0.62917 0.0
C728 C 0.38464 0.58686 0.67748 0.0
C729 C 0.33534 0.58165 0.67425 0.0
C730 C 0.35817 0.60487 0.64709 0.0
C731 C 0.29764 0.58863 0.65844 0.0
C732 C 0.33404 0.62518 0.62093 0.0
C733 C 0.43467 0.62752 0.60011 0.0
N734 N 0.30991 0.59991 0.64523 0.0
N735 N 0.42053 0.61778 0.61876 0.0
H736 H 0.50213 0.26363 0.42965 0.0
H737 H 0.24602 0.25451 0.39207 0.0
H738 H 0.52863 0.26737 0.33015 0.0
H739 H 0.28721 0.27491 0.30818 0.0
H740 H 0.33726 0.25064 0.40207 0.0
H741 H 0.4117 0.2595 0.41925 0.0
C742 C 0.4891 0.26328 0.40553 0.0
C743 C 0.52286 0.26598 0.38075 0.0
C744 C 0.32638 0.25599 0.38154 0.0
C745 C 0.41912 0.26113 0.36852 0.0
C746 C 0.27424 0.25809 0.37564 0.0
C747 C 0.25911 0.26527 0.34962 0.0
C748 C 0.36347 0.26118 0.36128 0.0
C749 C 0.29721 0.26952 0.32886 0.0
C750 C 0.43734 0.26081 0.39955 0.0
C751 C 0.50389 0.2654 0.34997 0.0
N752 N 0.34761 0.2675 0.33528 0.0
N753 N 0.45306 0.26328 0.34478 0.0
H754 H 0.92889 0.93429 0.26031 0.0
H755 H 0.74336 0.92942 0.4063 0.0
H756 H 0.98346 0.93307 0.35589 0.0
H757 H 0.69027 0.9408 0.31473 0.0
H758 H 0.83188 0.93224 0.38884 0.0
H759 H 0.84194 0.93815 0.27974 0.0
C760 C 0.92268 0.93499 0.28538 0.0
C761 C 0.96332 0.9332 0.30655 0.0
C762 C 0.80096 0.93432 0.37266 0.0
C763 C 0.86392 0.9375 0.32891 0.0
C764 C 0.7504 0.93269 0.38261 0.0
C765 C 0.70954 0.93475 0.36179 0.0
C766 C 0.81082 0.9378 0.34147 0.0
C767 C 0.72075 0.93907 0.33146 0.0
C768 C 0.87305 0.93723 0.29645 0.0
C769 C 0.95318 0.9343 0.33875 0.0
N770 N 0.77046 0.94024 0.322 0.0
N771 N 0.90434 0.9362 0.34897 0.0
H772 H 0.50078 0.91603 0.82241 0.0
H773 H 0.20011 0.90273 0.80203 0.0
H774 H 0.43554 0.90098 0.73711 0.0
H775 H 0.27527 0.90525 0.8921 0.0
H776 H 0.28406 0.9049 0.77636 0.0
H777 H 0.41587 0.91504 0.84693 0.0
C778 C 0.46855 0.91257 0.8088 0.0
C779 C 0.47523 0.90853 0.77773 0.0
C780 C 0.28204 0.90498 0.80174 0.0
C781 C 0.37804 0.90743 0.80556 0.0
C782 C 0.23421 0.90378 0.81638 0.0
C783 C 0.23079 0.90376 0.84923 0.0
C784 C 0.32653 0.90634 0.82011 0.0
C785 C 0.27618 0.90514 0.86671 0.0
C786 C 0.42016 0.91197 0.82283 0.0
C787 C 0.43211 0.90413 0.76119 0.0
N788 N 0.32213 0.90641 0.85194 0.0
N789 N 0.38528 0.90372 0.77529 0.0
H790 H 0.72526 0.29983 0.87162 0.0
H791 H 0.03049 0.30035 0.88461 0.0
H792 H 0.82439 0.30878 0.79355 0.0
H793 H 0.93321 0.3079 0.96444 0.0
H794 H 0.95449 0.30006 0.85093 0.0
H795 H 0.80064 0.29956 0.90621 0.0
C796 C 0.76288 0.30169 0.86176 0.0
C797 C 0.76868 0.30435 0.8297 0.0
C798 C 0.94981 0.30177 0.87582 0.0
C799 C 0.85468 0.30392 0.86893 0.0
C800 C 0.99308 0.30188 0.89508 0.0
C801 C 0.9881 0.30418 0.92736 0.0
C802 C 0.90108 0.30379 0.88897 0.0
C803 C 0.93871 0.30615 0.93965 0.0
C804 C 0.80573 0.30159 0.8815 0.0
C805 C 0.81821 0.30674 0.81815 0.0
N806 N 0.89697 0.30585 0.92043 0.0
N807 N 0.85937 0.30639 0.83772 0.0
H808 H 0.80775 0.6829 0.63936 0.0
H809 H 0.62454 0.66494 0.49741 0.0
H810 H 0.86027 0.66284 0.55734 0.0
H811 H 0.57826 0.68789 0.57611 0.0
H812 H 0.71386 0.66666 0.5147 0.0
H813 H 0.72711 0.68743 0.61269 0.0
C814 C 0.8025 0.67958 0.61553 0.0
C815 C 0.84041 0.67233 0.60068 0.0
C816 C 0.68428 0.67149 0.5279 0.0
C817 C 0.7477 0.67733 0.57007 0.0
C818 C 0.63324 0.67053 0.51802 0.0
C819 C 0.59379 0.67611 0.53565 0.0
C820 C 0.69582 0.67801 0.55572 0.0
C821 C 0.60735 0.6833 0.56202 0.0
C822 C 0.75641 0.68218 0.60027 0.0
C823 C 0.83185 0.6684 0.56969 0.0
N824 N 0.65712 0.68389 0.57149 0.0
N825 N 0.78597 0.67077 0.55556 0.0
H826 H 0.95942 0.03184 0.68492 0.0
H827 H 0.16322 0.0486 0.55258 0.0
H828 H 0.91704 0.04969 0.59776 0.0
H829 H 0.19577 0.02399 0.63065 0.0
H830 H 0.07232 0.04838 0.56708 0.0
H831 H 0.04543 0.02826 0.66424 0.0
C832 C 0.96817 0.03495 0.66131 0.0
C833 C 0.93117 0.04117 0.6431 0.0
C834 C 0.09924 0.04291 0.5808 0.0
C835 C 0.02989 0.03716 0.6193 0.0
C836 C 0.15115 0.04302 0.57255 0.0
C837 C 0.18719 0.03639 0.59063 0.0
C838 C 0.08337 0.03622 0.60751 0.0
C839 C 0.16937 0.02929 0.61615 0.0
C840 C 0.01729 0.03286 0.64947 0.0
C841 C 0.94452 0.0449 0.6126 0.0
N842 N 0.11881 0.02952 0.62405 0.0
N843 N 0.99306 0.04296 0.60175 0.0
H844 H 0.61789 0.0436 0.22857 0.0
H845 H 0.74256 0.02044 0.06975 0.0
H846 H 0.53218 0.02415 0.15653 0.0
H847 H 0.83406 0.02857 0.15174 0.0
H848 H 0.66526 0.02109 0.10208 0.0
H849 H 0.69787 0.03761 0.2022 0.0
C850 C 0.61592 0.03794 0.20744 0.0
C851 C 0.56831 0.03449 0.19451 0.0
C852 C 0.70225 0.02256 0.11315 0.0
C853 C 0.65943 0.02773 0.16416 0.0
C854 C 0.74637 0.02222 0.09468 0.0
C855 C 0.79464 0.02455 0.10809 0.0
C856 C 0.70626 0.02552 0.14518 0.0
C857 C 0.79748 0.02673 0.14052 0.0
C858 C 0.66156 0.03451 0.19245 0.0
C859 C 0.568 0.0271 0.16719 0.0
N860 N 0.75373 0.02737 0.15793 0.0
N861 N 0.61281 0.02412 0.15271 0.0
H862 H 0.9837 0.67291 0.02982 0.0
H863 H 0.14278 0.66321 0.18576 0.0
H864 H 0.9083 0.66629 0.11849 0.0
H865 H 0.20151 0.68367 0.10591 0.0
H866 H 0.05685 0.66374 0.1623 0.0
H867 H 0.06476 0.67599 0.05743 0.0
C868 C 0.98424 0.6721 0.05515 0.0
C869 C 0.93932 0.66927 0.07191 0.0
C870 C 0.08845 0.66827 0.15019 0.0
C871 C 0.03212 0.67275 0.10368 0.0
C872 C 0.13746 0.66798 0.16353 0.0
C873 C 0.17941 0.67332 0.14761 0.0
C874 C 0.08168 0.67375 0.12053 0.0
C875 C 0.17034 0.67939 0.11894 0.0
C876 C 0.03047 0.67395 0.07092 0.0
C877 C 0.94215 0.66844 0.10473 0.0
N878 N 0.1226 0.67928 0.1061 0.0
N879 N 0.98801 0.67004 0.11958 0.0
H880 H 0.48685 0.80445 0.96366 0.0
H881 H 0.33241 0.79123 0.80708 0.0
H882 H 0.5637 0.8008 0.87439 0.0
H883 H 0.28014 0.77762 0.89697 0.0
H884 H 0.41499 0.79686 0.83086 0.0
H885 H 0.40705 0.79711 0.93922 0.0
C886 C 0.48682 0.80219 0.93887 0.0
C887 C 0.53185 0.80325 0.92096 0.0
C888 C 0.38561 0.79252 0.84526 0.0
C889 C 0.44094 0.79488 0.89298 0.0
C890 C 0.33858 0.7893 0.83175 0.0
C891 C 0.29952 0.78395 0.85012 0.0
C892 C 0.39314 0.79063 0.8775 0.0
C893 C 0.3094 0.78166 0.88196 0.0
C894 C 0.44145 0.79791 0.92504 0.0
C895 C 0.52979 0.8001 0.88901 0.0
N896 N 0.35507 0.78518 0.89478 0.0
N897 N 0.48493 0.79614 0.87595 0.0
H898 H 0.78495 0.40145 0.96713 0.0
H899 H 0.89579 0.40963 0.79494 0.0
H900 H 0.68763 0.41172 0.88928 0.0
H901 H 0.98708 0.41697 0.87752 0.0
H902 H 0.81919 0.40794 0.82825 0.0
H903 H 0.86044 0.40452 0.93366 0.0
C904 C 0.7795 0.40434 0.94299 0.0
C905 C 0.73005 0.40634 0.93092 0.0
C906 C 0.856 0.41 0.83897 0.0
C907 C 0.81597 0.40974 0.89255 0.0
C908 C 0.89965 0.41094 0.82004 0.0
C909 C 0.94776 0.41345 0.83353 0.0
C910 C 0.86082 0.41133 0.87162 0.0
C911 C 0.95066 0.41508 0.86616 0.0
C912 C 0.82253 0.40614 0.92398 0.0
C913 C 0.72514 0.41012 0.89951 0.0
N914 N 0.90786 0.41386 0.88415 0.0
N915 N 0.7676 0.4116 0.88129 0.0
H916 H 0.52602 0.43809 0.39031 0.0
H917 H 0.2466 0.42066 0.32416 0.0
H918 H 0.50006 0.41731 0.30464 0.0
H919 H 0.27539 0.43322 0.4189 0.0
H920 H 0.33812 0.42332 0.31237 0.0
H921 H 0.43294 0.44021 0.3968 0.0
C922 C 0.50078 0.43409 0.3727 0.0
C923 C 0.52078 0.42739 0.34709 0.0
C924 C 0.32424 0.42561 0.33564 0.0
C925 C 0.41441 0.42979 0.35434 0.0
C926 C 0.27201 0.42415 0.34234 0.0
C927 C 0.2535 0.42659 0.37265 0.0
C928 C 0.35805 0.42961 0.35938 0.0
C929 C 0.28813 0.4311 0.3953 0.0
C930 C 0.44768 0.43528 0.37645 0.0
C931 C 0.48629 0.42244 0.32493 0.0
N932 N 0.33878 0.43239 0.38827 0.0
N933 N 0.43479 0.42367 0.32915 0.0
H934 H 0.7584 0.77312 0.33073 0.0
H935 H 0.92771 0.78372 0.48295 0.0
H936 H 0.69297 0.77885 0.42265 0.0
H937 H 0.98994 0.77255 0.39329 0.0
H938 H 0.84124 0.77941 0.46323 0.0
H939 H 0.84259 0.77024 0.35468 0.0
C940 C 0.76168 0.7736 0.35604 0.0
C941 C 0.71881 0.7764 0.37472 0.0
C942 C 0.87385 0.77771 0.44802 0.0
C943 C 0.81534 0.77329 0.40234 0.0
C944 C 0.92325 0.78018 0.45927 0.0
C945 C 0.96603 0.77868 0.43956 0.0
C946 C 0.86719 0.77384 0.41676 0.0
C947 C 0.95802 0.77397 0.40919 0.0
C948 C 0.8098 0.77194 0.36973 0.0
C949 C 0.72514 0.77678 0.40739 0.0
N950 N 0.90952 0.7719 0.39858 0.0
N951 N 0.77274 0.77547 0.42016 0.0
H952 H 0.63878 0.15484 0.21128 0.0
H953 H 0.40053 0.1694 0.14577 0.0
H954 H 0.7035 0.17347 0.13042 0.0
H955 H 0.48635 0.17291 0.05955 0.0
H956 H 0.48137 0.16881 0.17489 0.0
H957 H 0.5529 0.15868 0.19052 0.0
C958 C 0.63485 0.15993 0.1894 0.0
C959 C 0.67838 0.1638 0.17251 0.0
C960 C 0.48265 0.16959 0.14961 0.0
C961 C 0.58 0.16847 0.14874 0.0
C962 C 0.43641 0.17008 0.13299 0.0
C963 C 0.43674 0.17104 0.10015 0.0
C964 C 0.5295 0.17001 0.13319 0.0
C965 C 0.48428 0.17202 0.08482 0.0
C966 C 0.58565 0.16223 0.17763 0.0
C967 C 0.67104 0.17029 0.1442 0.0
N968 N 0.52869 0.17143 0.10146 0.0
N969 N 0.62285 0.1723 0.13308 0.0
H970 H 0.25762 0.5305 0.06943 0.0
H971 H 0.08138 0.55557 0.20947 0.0
H972 H 0.32016 0.54679 0.15407 0.0
H973 H 0.02427 0.53386 0.13115 0.0
H974 H 0.16913 0.55242 0.19024 0.0
H975 H 0.17195 0.53155 0.09229 0.0
C976 C 0.25334 0.53425 0.09294 0.0
C977 C 0.29607 0.53862 0.10983 0.0
C978 C 0.13739 0.54829 0.17739 0.0
C979 C 0.19776 0.53994 0.13613 0.0
C980 C 0.0873 0.5501 0.18831 0.0
C981 C 0.04542 0.54503 0.17178 0.0
C982 C 0.14558 0.54143 0.14965 0.0
C983 C 0.05535 0.53799 0.14458 0.0
C984 C 0.20435 0.53483 0.10601 0.0
C985 C 0.28822 0.54332 0.14025 0.0
N986 N 0.10433 0.53646 0.13429 0.0
N987 N 0.23989 0.54395 0.15236 0.0
H988 H 0.63836 0.53387 0.52062 0.0
H989 H 0.47889 0.51672 0.67225 0.0
H990 H 0.69663 0.5101 0.59456 0.0
H991 H 0.41184 0.53448 0.59096 0.0
H992 H 0.55534 0.51183 0.64146 0.0
H993 H 0.55216 0.53182 0.5426 0.0
C994 C 0.63285 0.52804 0.54119 0.0
C995 C 0.67482 0.52231 0.5561 0.0
C996 C 0.52364 0.51662 0.63016 0.0
C997 C 0.57638 0.52007 0.58166 0.0
C998 C 0.47999 0.51944 0.64776 0.0
C999 C 0.43934 0.52619 0.63424 0.0
C1000 C 0.52701 0.52076 0.59894 0.0
C1001 C 0.44253 0.52935 0.60235 0.0
C1002 C 0.58359 0.52687 0.55374 0.0
C1003 C 0.66541 0.51477 0.58249 0.0
N1004 N 0.48605 0.5268 0.58591 0.0
N1005 N 0.6173 0.51405 0.59477 0.0
H1006 H 0.08564 0.1906 0.59659 0.0
H1007 H 0.3753 0.16545 0.5902 0.0
H1008 H 0.13738 0.1621 0.5316 0.0
H1009 H 0.30949 0.18531 0.66889 0.0
H1010 H 0.29394 0.16795 0.56177 0.0
H1011 H 0.17351 0.19267 0.61619 0.0
C1012 C 0.1156 0.18491 0.58612 0.0
C1013 C 0.10407 0.17604 0.56274 0.0
C1014 C 0.29762 0.17187 0.58514 0.0
C1015 C 0.20458 0.17832 0.58514 0.0
C1016 C 0.344 0.17048 0.60131 0.0
C1017 C 0.34884 0.17505 0.63207 0.0
C1018 C 0.25617 0.17799 0.59977 0.0
C1019 C 0.30716 0.18151 0.64536 0.0
C1020 C 0.16571 0.18606 0.5974 0.0
C1021 C 0.1445 0.16896 0.54991 0.0
N1022 N 0.26253 0.18273 0.6292 0.0
N1023 N 0.19294 0.17017 0.56148 0.0
H1024 H 0.85241 0.19535 0.23033 0.0
H1025 H 0.0654 0.24045 0.30489 0.0
H1026 H 0.01589 0.18871 0.22445 0.0
H1027 H 0.9066 0.25164 0.29515 0.0
H1028 H 0.04579 0.22079 0.27828 0.0
H1029 H 0.86978 0.21566 0.25539 0.0
C1030 C 0.89194 0.1982 0.23399 0.0
C1031 C 0.93278 0.19026 0.22542 0.0
C1032 C 0.01515 0.22753 0.28194 0.0
C1033 C 0.95273 0.21338 0.25443 0.0
C1034 C 0.02623 0.23876 0.29735 0.0
C1035 C 0.98761 0.24777 0.3022 0.0
C1036 C 0.96499 0.22519 0.27135 0.0
C1037 C 0.93759 0.24498 0.29187 0.0
C1038 C 0.90177 0.20978 0.24837 0.0
C1039 C 0.98317 0.19447 0.23072 0.0
N1040 N 0.9277 0.23392 0.27687 0.0
N1041 N 0.99167 0.20569 0.24509 0.0
H1042 H 0.16101 0.96043 0.28794 0.0
H1043 H 0.39026 0.00833 0.25093 0.0
H1044 H 0.31563 0.94846 0.26632 0.0
H1045 H 0.23254 0.01955 0.26561 0.0
H1046 H 0.36593 -0.01348 0.26159 0.0
H1047 H 0.18917 -0.01773 0.28537 0.0
C1048 C 0.20103 0.96239 0.28284 0.0
C1049 C 0.23593 0.95259 0.27702 0.0
C1050 C 0.33673 -0.00623 0.26261 0.0
C1051 C 0.26836 0.97765 0.27389 0.0
C1052 C 0.35055 0.00623 0.25653 0.0
C1053 C 0.31328 0.01578 0.25714 0.0
C1054 C 0.2853 -0.00916 0.2694 0.0
C1055 C 0.26251 0.01249 0.26466 0.0
C1056 C 0.21706 0.97488 0.28135 0.0
C1057 C 0.28736 0.95572 0.2708 0.0
N1058 N 0.25001 0.00029 0.27036 0.0
N1059 N 0.30197 0.968 0.26917 0.0
H1060 H 0.08944 -0.00295 0.98813 0.0
H1061 H 0.92012 0.93874 0.92891 0.0
H1062 H 0.93485 -0.01083 0.01955 0.0
H1063 H 0.08206 0.9426 0.90866 0.0
H1064 H 0.92278 0.95876 0.95689 0.0
H1065 H 0.08701 0.97785 0.95637 0.0
C1066 C 0.05535 -0.00881 0.98881 0.0
C1067 C 0.01221 -0.00523 0.00647 0.0
C1068 C 0.95764 0.95528 0.94606 0.0
C1069 C 0.00874 0.97301 0.96956 0.0
C1070 C 0.95601 0.94391 0.92971 0.0
C1071 C 0.00109 0.93887 0.91675 0.0
C1072 C 0.00463 0.96168 0.94943 0.0
C1073 C 0.04644 0.94605 0.91854 0.0
C1074 C 0.05381 -0.0197 0.97041 0.0
C1075 C 0.969 -0.01317 0.00628 0.0
N1076 N 0.04719 0.95703 0.93494 0.0
N1077 N 0.96823 0.97639 0.9879 0.0
H1078 H 0.1199 0.1996 0.01472 0.0
H1079 H 0.26449 0.26501 0.0322 0.0
H1080 H 0.24782 0.2059 0.07737 0.0
H1081 H 0.112 0.2625 -0.00735 0.0
H1082 H 0.25861 0.24299 0.04764 0.0
H1083 H 0.1132 0.22243 0.00699 0.0
C1084 C 0.14569 0.20578 0.02747 0.0
C1085 C 0.18505 0.20084 0.0463 0.0
C1086 C 0.22629 0.24725 0.03569 0.0
C1087 C 0.17833 0.22681 0.03701 0.0
C1088 C 0.22985 0.2598 0.02658 0.0
C1089 C 0.18878 0.26559 0.01097 0.0
C1090 C 0.18159 0.24034 0.02886 0.0
C1091 C 0.14462 0.25838 0.00459 0.0
C1092 C 0.14208 0.21879 0.02285 0.0
C1093 C 0.21744 0.20928 0.06221 0.0
N1094 N 0.14229 0.24608 0.01339 0.0
N1095 N 0.21388 0.22182 0.0568 0.0
H1096 H 0.04892 0.69662 0.64118 0.0
H1097 H 0.17087 0.73927 0.77654 0.0
H1098 H 0.15756 0.6822 0.7087 0.0
H1099 H 0.03102 0.7475 0.72608 0.0
H1100 H 0.18228 0.72037 0.74392 0.0
H1101 H 0.06179 0.71773 0.66237 0.0
C1102 C 0.07659 0.69794 0.6599 0.0
C1103 C 0.10123 0.68759 0.67371 0.0
C1104 C 0.14938 0.7264 0.73995 0.0
C1105 C 0.11522 0.71167 0.69851 0.0
C1106 C 0.1427 0.73713 0.75859 0.0
C1107 C 0.09948 0.74485 0.75434 0.0
C1108 C 0.11303 0.72355 0.71664 0.0
C1109 C 0.06443 0.74171 0.73058 0.0
C1110 C 0.08357 0.70998 0.67217 0.0
C1111 C 0.13725 0.6899 0.69761 0.0
N1112 N 0.07196 0.73131 0.71269 0.0
N1113 N 0.14235 0.70169 0.70978 0.0
H1114 H 0.7494 0.9514 0.67769 0.0
H1115 H 0.60254 0.01585 0.7054 0.0
H1116 H 0.60102 0.95292 0.72287 0.0
H1117 H 0.73207 0.01152 0.64306 0.0
H1118 H 0.59578 -0.00715 0.70896 0.0
H1119 H 0.74046 0.97344 0.66314 0.0
C1120 C 0.71489 0.95638 0.6846 0.0
C1121 C 0.67612 0.95033 0.70179 0.0
C1122 C 0.62499 -0.00305 0.69401 0.0
C1123 C 0.6655 0.97567 0.68508 0.0
C1124 C 0.62861 0.01008 0.69177 0.0
C1125 C 0.66849 0.0156 0.67432 0.0
C1126 C 0.66167 -0.01062 0.67883 0.0
C1127 C 0.70127 0.00767 0.65722 0.0
C1128 C 0.70959 0.96897 0.67605 0.0
C1129 C 0.63196 0.95725 0.70973 0.0
N1130 N 0.69765 -0.00501 0.66031 0.0
N1131 N 0.62806 0.96961 0.7016 0.0
H1132 H 0.82198 0.76841 0.00282 0.0
H1133 H 0.64452 0.70692 0.99072 0.0
H1134 H 0.66456 0.76909 0.97068 0.0
H1135 H 0.796 0.7073 0.0322 0.0
H1136 H 0.6501 0.72977 0.98398 0.0
H1137 H 0.8133 0.74585 0.01306 0.0
C1138 C 0.78573 0.76381 -0.00228 0.0
C1139 C 0.74399 0.77065 0.98586 0.0
C1140 C 0.68192 0.72485 -0.00522 0.0
C1141 C 0.73359 0.74488 -0.00222 0.0
C1142 C 0.67862 0.71181 -0.00121 0.0
C1143 C 0.71999 0.70517 0.01181 0.0
C1144 C 0.72697 0.73124 0.00375 0.0
C1145 C 0.76328 0.712 0.02182 0.0
C1146 C 0.78066 0.75095 0.00376 0.0
C1147 C 0.6978 0.7642 0.97986 0.0
N1148 N 0.76579 0.72464 0.01734 0.0
N1149 N 0.69385 0.75168 0.98587 0.0
H1150 H 0.21885 0.50835 0.66135 0.0
H1151 H 0.07918 0.45828 0.77184 0.0
H1152 H 0.12201 0.52014 0.73812 0.0
H1153 H 0.22299 0.45262 0.72329 0.0
H1154 H 0.07607 0.4799 0.75088 0.0
H1155 H 0.19717 0.48648 0.67269 0.0
C1156 C 0.19183 0.50635 0.68005 0.0
C1157 C 0.1731 0.51602 0.69929 0.0
C1158 C 0.10804 0.47384 0.74486 0.0
C1159 C 0.14919 0.49105 0.71281 0.0
C1160 C 0.11004 0.46158 0.75689 0.0
C1161 C 0.15177 0.45372 0.74961 0.0
C1162 C 0.14736 0.47804 0.72488 0.0
C1163 C 0.1905 0.45839 0.72993 0.0
C1164 C 0.17984 0.49387 0.68667 0.0
C1165 C 0.13766 0.51292 0.72293 0.0
N1166 N 0.18721 0.47021 0.71819 0.0
N1167 N 0.12764 0.50062 0.72956 0.0
H1168 H 0.89442 0.44262 0.40715 0.0
H1169 H 0.00501 0.50903 0.46163 0.0
H1170 H 0.04765 0.45585 0.38616 0.0
H1171 H 0.84896 0.49693 0.47883 0.0
H1172 H 0.01763 0.49066 0.42817 0.0
H1173 H 0.87229 0.4637 0.42574 0.0
C1174 C 0.92305 0.45001 0.40568 0.0
C1175 C 0.97339 0.44737 0.3958 0.0
C1176 C 0.98049 0.49205 0.43908 0.0
C1177 C 0.94859 0.47143 0.41764 0.0
C1178 C 0.97336 0.50251 0.4584 0.0
C1179 C 0.92606 0.50446 0.47344 0.0
C1180 C 0.94018 0.48339 0.4349 0.0
C1181 C 0.88626 0.49576 0.46797 0.0
C1182 C 0.91049 0.46204 0.41655 0.0
C1183 C 0.00867 0.45737 0.39418 0.0
N1184 N 0.89437 0.48555 0.44937 0.0
N1185 N 0.99589 0.46889 0.40557 0.0
H1186 H 0.23754 0.69559 0.50754 0.0
H1187 H 0.32207 0.76698 0.47595 0.0
H1188 H 0.3963 0.7074 0.50258 0.0
H1189 H 0.16508 0.75368 0.47455 0.0
H1190 H 0.35089 0.74536 0.48546 0.0
H1191 H 0.21105 0.71703 0.49568 0.0
C1192 C 0.26691 0.70269 0.50399 0.0
C1193 C 0.31926 0.69967 0.50612 0.0
C1194 C 0.31017 0.7472 0.48294 0.0
C1195 C 0.28906 0.72433 0.49243 0.0
C1196 C 0.2937 0.75953 0.47748 0.0
C1197 C 0.24105 0.76217 0.47454 0.0
C1198 C 0.27371 0.73747 0.48556 0.0
C1199 C 0.20604 0.75213 0.47673 0.0
C1200 C 0.25172 0.71495 0.49713 0.0
C1201 C 0.3555 0.7093 0.50118 0.0
N1202 N 0.22299 0.74027 0.48221 0.0
N1203 N 0.3397 0.72121 0.49462 0.0
H1204 H 0.71117 0.46088 0.32518 0.0
H1205 H 0.89034 0.50965 0.23339 0.0
H1206 H 0.86356 0.45117 0.29306 0.0
H1207 H 0.72643 0.51393 0.24525 0.0
H1208 H 0.88537 0.48924 0.26008 0.0
H1209 H 0.72148 0.48173 0.30253 0.0
C1210 C 0.7471 0.46316 0.31366 0.0
C1211 C 0.78634 0.45417 0.31071 0.0
C1212 C 0.85057 0.49466 0.25671 0.0
C1213 C 0.79811 0.4781 0.28438 0.0
C1214 C 0.8533 0.50628 0.24143 0.0
C1215 C 0.80868 0.51351 0.237 0.0
C1216 C 0.80302 0.49032 0.26792 0.0
C1217 C 0.76179 0.50868 0.24798 0.0
C1218 C 0.7528 0.47507 0.30054 0.0
C1219 C 0.83216 0.45776 0.29572 0.0
N1220 N 0.76027 0.49743 0.26303 0.0
N1221 N 0.83668 0.46945 0.28289 0.0
H1222 H 0.77608 0.19409 0.47367 0.0
H1223 H 0.88115 0.26093 0.42171 0.0
H1224 H 0.93128 0.20612 0.49373 0.0
H1225 H 0.74189 0.24409 0.38583 0.0
H1226 H 0.9051 0.24054 0.44421 0.0
H1227 H 0.76567 0.21218 0.43931 0.0
C1228 C 0.80797 0.20057 0.47096 0.0
C1229 C 0.85444 0.19866 0.4869 0.0
C1230 C 0.86983 0.24127 0.43085 0.0
C1231 C 0.84285 0.21944 0.44727 0.0
C1232 C 0.85633 0.25288 0.41777 0.0
C1233 C 0.8089 0.25427 0.40246 0.0
C1234 C 0.83547 0.23107 0.42864 0.0
C1235 C 0.77832 0.24352 0.39802 0.0
C1236 C 0.80217 0.21086 0.45105 0.0
C1237 C 0.89466 0.20729 0.48204 0.0
N1238 N 0.79168 0.23244 0.41153 0.0
N1239 N 0.88778 0.21739 0.46288 0.0
H1240 H 0.65564 0.26087 0.76296 0.0
H1241 H 0.55098 0.20485 0.65511 0.0
H1242 H 0.52233 0.26312 0.70285 0.0
H1243 H 0.65482 0.19861 0.73252 0.0
H1244 H 0.55653 0.22745 0.66442 0.0
H1245 H 0.66824 0.239 0.74609 0.0
C1246 C 0.6289 0.25676 0.74636 0.0
C1247 C 0.58757 0.26381 0.7345 0.0
C1248 C 0.57874 0.22116 0.6791 0.0
C1249 C 0.60259 0.23898 0.71464 0.0
C1250 C 0.57598 0.20826 0.67361 0.0
C1251 C 0.60172 0.19983 0.69345 0.0
C1252 C 0.60728 0.22568 0.70468 0.0
C1253 C 0.63404 0.20478 0.7168 0.0
C1254 C 0.63633 0.24432 0.73664 0.0
C1255 C 0.55437 0.25803 0.71289 0.0
N1256 N 0.6352 0.21741 0.72218 0.0
N1257 N 0.5627 0.24598 0.70363 0.0
H1258 H 0.52075 0.00796 0.52887 0.0
H1259 H 0.37891 0.94797 0.45558 0.0
H1260 H 0.35704 0.00198 0.53711 0.0
H1261 H 0.53225 0.95988 0.43021 0.0
H1262 H 0.37043 0.96688 0.48815 0.0
H1263 H 0.52675 -0.01095 0.49661 0.0
C1264 C 0.4861 0.00261 0.52416 0.0
C1265 C 0.43827 0.00661 0.53563 0.0
C1266 C 0.40574 0.96536 0.47524 0.0
C1267 C 0.44486 -0.01502 0.4984 0.0
C1268 C 0.41056 0.9546 0.45657 0.0
C1269 C 0.45643 0.95229 0.44018 0.0
C1270 C 0.44724 0.97378 0.47776 0.0
C1271 C 0.49617 0.96122 0.44241 0.0
C1272 C 0.48951 -0.00814 0.50552 0.0
C1273 C 0.39469 -0.00072 0.52867 0.0
N1274 N 0.49078 0.9715 0.46103 0.0
N1275 N 0.39901 -0.01118 0.51044 0.0
H1276 H 0.38844 0.7621 0.28002 0.0
H1277 H 0.51228 0.69702 0.22493 0.0
H1278 H 0.53963 0.74945 0.30746 0.0
H1279 H 0.35153 0.70578 0.21227 0.0
H1280 H 0.52312 0.71667 0.25379 0.0
H1281 H 0.37327 0.74166 0.25512 0.0
C1282 C 0.41817 0.75498 0.28122 0.0
C1283 C 0.46557 0.75756 0.29564 0.0
C1284 C 0.48544 0.71429 0.24473 0.0
C1285 C 0.44873 0.73426 0.26676 0.0
C1286 C 0.47928 0.70311 0.22802 0.0
C1287 C 0.43091 0.69974 0.2161 0.0
C1288 C 0.44303 0.72224 0.24943 0.0
C1289 C 0.38954 0.70799 0.22103 0.0
C1290 C 0.40954 0.74334 0.26688 0.0
C1291 C 0.50261 0.74795 0.29648 0.0
N1292 N 0.39656 0.71889 0.23729 0.0
N1293 N 0.49358 0.73679 0.28195 0.0
H1294 H 0.61847 0.44253 0.0172 0.0
H1295 H 0.47562 0.49969 0.10166 0.0
H1296 H 0.46401 0.44073 0.05408 0.0
H1297 H 0.62109 0.50342 0.05376 0.0
H1298 H 0.47975 0.47695 0.09433 0.0
H1299 H 0.62692 0.46384 0.03829 0.0
C1300 C 0.58628 0.44661 0.0297 0.0
C1301 C 0.54019 0.43988 0.03353 0.0
C1302 C 0.51118 0.48271 0.08585 0.0
C1303 C 0.54996 0.4642 0.05809 0.0
C1304 C 0.50906 0.49571 0.09024 0.0
C1305 C 0.54753 0.50351 0.07768 0.0
C1306 C 0.55192 0.47748 0.06867 0.0
C1307 C 0.59025 0.49779 0.06348 0.0
C1308 C 0.59128 0.45875 0.04187 0.0
C1309 C 0.50002 0.44561 0.05021 0.0
N1310 N 0.59084 0.48512 0.05883 0.0
N1311 N 0.5058 0.45745 0.06176 0.0
H1312 H 0.16139 0.30269 0.25491 0.0
H1313 H 0.0553 0.3169 0.08508 0.0
H1314 H 0.00112 0.30987 0.23573 0.0
H1315 H 0.21684 0.31736 0.10836 0.0
H1316 H 0.03475 0.31674 0.14093 0.0
H1317 H 0.18294 0.31026 0.20256 0.0
C1318 C 0.13076 0.30599 0.23981 0.0
C1319 C 0.07928 0.30545 0.24953 0.0
C1320 C 0.07468 0.31708 0.13383 0.0
C1321 C 0.10366 0.31404 0.18944 0.0
C1322 C 0.08646 0.31716 0.10192 0.0
C1323 C 0.13788 0.31691 0.09202 0.0
C1324 C 0.11462 0.31657 0.15596 0.0
C1325 C 0.17664 0.3174 0.1149 0.0
C1326 C 0.14311 0.31036 0.20993 0.0
C1327 C 0.04128 0.31001 0.22912 0.0
N1328 N 0.16421 0.31699 0.14581 0.0
N1329 N 0.05416 0.31393 0.19983 0.0
H1330 H 0.15587 0.8983 0.00052 0.0
H1331 H 0.05378 0.91371 0.17209 0.0
H1332 H 0.99498 0.8982 0.02552 0.0
H1333 H 0.2103 0.90225 0.15421 0.0
H1334 H 0.03287 0.90958 0.11735 0.0
H1335 H 0.17788 0.90092 0.05592 0.0
C1336 C 0.12518 0.89876 0.01766 0.0
C1337 C 0.07348 0.89809 0.00838 0.0
C1338 C 0.07176 0.90793 0.12541 0.0
C1339 C 0.09843 0.9012 0.0716 0.0
C1340 C 0.08385 0.91037 0.15663 0.0
C1341 C 0.13394 0.90835 0.16773 0.0
C1342 C 0.1101 0.90358 0.10499 0.0
C1343 C 0.17119 0.90393 0.14662 0.0
C1344 C 0.13781 0.90023 0.04925 0.0
C1345 C 0.03534 0.89867 0.0316 0.0
N1346 N 0.15857 0.90174 0.11616 0.0
N1347 N 0.04859 0.90031 0.06212 0.0
H1348 H 0.00437 0.64841 0.79226 0.0
H1349 H 0.74173 0.66074 0.88403 0.0
H1350 H 0.86821 0.6626 0.74645 0.0
H1351 H 0.89037 0.65946 0.92903 0.0
H1352 H 0.78457 0.65886 0.83289 0.0
H1353 H 0.95997 0.64984 0.84265 0.0
C1354 C 0.96518 0.65183 0.7928 0.0
C1355 C 0.94004 0.65544 0.76517 0.0
C1356 C 0.80761 0.65901 0.85405 0.0
C1357 C 0.88895 0.65699 0.82259 0.0
C1358 C 0.78323 0.66004 0.88316 0.0
C1359 C 0.81254 0.66032 0.91076 0.0
C1360 C 0.86144 0.65807 0.85275 0.0
C1361 C 0.86623 0.65938 0.90835 0.0
C1362 C 0.9399 0.65266 0.82154 0.0
C1363 C 0.88918 0.6598 0.76723 0.0
N1364 N 0.88889 0.65826 0.87988 0.0
N1365 N 0.86518 0.66041 0.79548 0.0
H1366 H 0.71553 0.05306 0.81977 0.0
H1367 H 0.97413 0.0451 0.91827 0.0
H1368 H 0.86174 0.04289 0.77898 0.0
H1369 H 0.82416 0.04025 0.96005 0.0
H1370 H 0.93315 0.04798 0.86722 0.0
H1371 H 0.75464 0.05158 0.87212 0.0
C1372 C 0.75566 0.05049 0.82182 0.0
C1373 C 0.78534 0.04803 0.79503 0.0
C1374 C 0.90927 0.04631 0.88762 0.0
C1375 C 0.83016 0.04657 0.85436 0.0
C1376 C 0.9326 0.04473 0.91674 0.0
C1377 C 0.90251 0.04233 0.94334 0.0
C1378 C 0.85552 0.04562 0.88518 0.0
C1379 C 0.8488 0.04196 0.94003 0.0
C1380 C 0.77787 0.04965 0.8516 0.0
C1381 C 0.83722 0.04477 0.79896 0.0
N1382 N 0.82693 0.04358 0.91141 0.0
N1383 N 0.85801 0.04421 0.82804 0.0
H1384 H 0.02369 0.80955 0.71477 0.0
H1385 H 0.22624 0.81581 0.57565 0.0
H1386 H 0.18766 0.80541 0.72674 0.0
H1387 H 0.06339 0.80957 0.56386 0.0
H1388 H 0.21231 0.81866 0.6321 0.0
H1389 H 0.03829 0.81669 0.66116 0.0
C1390 C 0.06285 0.81038 0.70639 0.0
C1391 C 0.10444 0.8065 0.72498 0.0
C1392 C 0.17961 0.81688 0.61701 0.0
C1393 C 0.12124 0.81456 0.66357 0.0
C1394 C 0.18749 0.81526 0.58485 0.0
C1395 C 0.14602 0.81217 0.56523 0.0
C1396 C 0.1299 0.81552 0.62941 0.0
C1397 C 0.09659 0.81166 0.57828 0.0
C1398 C 0.07111 0.81443 0.67573 0.0
C1399 C 0.15436 0.80803 0.71301 0.0
N1400 N 0.08998 0.81318 0.6096 0.0
N1401 N 0.16135 0.81171 0.6828 0.0
H1402 H 0.0241 0.40406 0.67604 0.0
H1403 H 0.14303 0.41461 0.5064 0.0
H1404 H 0.18715 0.40376 0.6569 0.0
H1405 H 0.98573 0.40272 0.51992 0.0
H1406 H 0.15805 0.41219 0.56247 0.0
H1407 H 0.00751 0.40442 0.61953 0.0
C1408 C 0.05638 0.40391 0.66 0.0
C1409 C 0.10711 0.40397 0.67123 0.0
C1410 C 0.12026 0.41009 0.55317 0.0
C1411 C 0.08835 0.40459 0.60678 0.0
C1412 C 0.11152 0.41156 0.52118 0.0
C1413 C 0.063 0.40888 0.50845 0.0
C1414 C 0.08011 0.40602 0.57269 0.0
C1415 C 0.02374 0.40488 0.52876 0.0
C1416 C 0.04685 0.40414 0.62778 0.0
C1417 C 0.14743 0.40375 0.64936 0.0
N1418 N 0.03309 0.40362 0.55997 0.0
N1419 N 0.13716 0.40422 0.6182 0.0
H1420 H 0.97189 0.13311 0.29976 0.0
H1421 H 0.81203 0.13444 0.45867 0.0
H1422 H 0.80729 0.13782 0.30552 0.0
H1423 H 0.97542 0.14132 0.45264 0.0
H1424 H 0.81186 0.12823 0.40358 0.0
H1425 H 0.97421 0.12904 0.35612 0.0
C1426 C 0.9361 0.13309 0.31274 0.0
C1427 C 0.88941 0.13611 0.29804 0.0
C1428 C 0.8479 0.13085 0.41453 0.0
C1429 C 0.89197 0.13138 0.3624 0.0
C1430 C 0.84815 0.13436 0.44604 0.0
C1431 C 0.8936 0.13878 0.46006 0.0
C1432 C 0.89339 0.13174 0.39702 0.0
C1433 C 0.93928 0.13826 0.44259 0.0
C1434 C 0.93754 0.13076 0.3449 0.0
C1435 C 0.84426 0.13579 0.316 0.0
N1436 N 0.93786 0.13504 0.41177 0.0
N1437 N 0.84674 0.13363 0.34735 0.0
H1438 H 0.93841 0.57179 0.45037 0.0
H1439 H 0.7531 0.57133 0.30297 0.0
H1440 H 0.77811 0.56119 0.45293 0.0
H1441 H 0.91891 0.57206 0.29873 0.0
H1442 H 0.75773 0.57544 0.35931 0.0
H1443 H 0.92622 0.57988 0.39737 0.0
C1444 C 0.90033 0.57143 0.44013 0.0
C1445 C 0.85959 0.5654 0.45569 0.0
C1446 C 0.79302 0.57496 0.34588 0.0
C1447 C 0.84565 0.57457 0.39504 0.0
C1448 C 0.79046 0.57263 0.31372 0.0
C1449 C 0.83578 0.57098 0.29632 0.0
C1450 C 0.84118 0.57567 0.36062 0.0
C1451 C 0.88304 0.57294 0.31141 0.0
C1452 C 0.89348 0.57604 0.40982 0.0
C1453 C 0.81095 0.56544 0.44146 0.0
N1454 N 0.88454 0.57497 0.34282 0.0
N1455 N 0.80555 0.5697 0.41163 0.0
H1456 H 0.71893 0.31953 0.49322 0.0
H1457 H 0.71183 0.29761 0.66886 0.0
H1458 H 0.70119 0.28019 0.51622 0.0
H1459 H 0.6001 0.32507 0.63855 0.0
H1460 H 0.7381 0.29466 0.61422 0.0
H1461 H 0.70305 0.32494 0.54862 0.0
C1462 C 0.71232 0.31206 0.51006 0.0
C1463 C 0.71123 0.29941 0.50048 0.0
C1464 C 0.70855 0.30149 0.61977 0.0
C1465 C 0.69468 0.30548 0.56309 0.0
C1466 C 0.69378 0.30327 0.65082 0.0
C1467 C 0.65357 0.31158 0.65812 0.0
C1468 C 0.68393 0.3083 0.59609 0.0
C1469 C 0.63109 0.31855 0.63378 0.0
C1470 C 0.70313 0.31515 0.54137 0.0
C1471 C 0.70208 0.29004 0.52287 0.0
N1472 N 0.64663 0.31676 0.60365 0.0
N1473 N 0.69463 0.29326 0.55336 0.0
H1474 H 0.49128 0.88759 0.49589 0.0
H1475 H 0.72716 0.89579 0.61316 0.0
H1476 H 0.64017 0.90199 0.46881 0.0
H1477 H 0.57046 0.8888 0.64165 0.0
H1478 H 0.70197 0.89217 0.55856 0.0
H1479 H 0.52642 0.88204 0.5471 0.0
C1480 C 0.53157 0.88939 0.50047 0.0
C1481 C 0.56248 0.89556 0.47827 0.0
C1482 C 0.67336 0.89122 0.57686 0.0
C1483 C 0.60278 0.88929 0.53692 0.0
C1484 C 0.68772 0.89324 0.60802 0.0
C1485 C 0.65058 0.89287 0.63187 0.0
C1486 C 0.62161 0.88877 0.56964 0.0
C1487 C 0.60012 0.88944 0.62391 0.0
C1488 C 0.55158 0.88623 0.52976 0.0
C1489 C 0.61462 0.89748 0.48542 0.0
N1490 N 0.58698 0.88769 0.59342 0.0
N1491 N 0.63294 0.89454 0.51433 0.0
H1492 H 0.29552 0.64083 0.42677 0.0
H1493 H 0.46277 0.63741 0.27041 0.0
H1494 H 0.46047 0.64512 0.42306 0.0
H1495 H 0.29993 0.64527 0.27202 0.0
H1496 H 0.45984 0.63324 0.32664 0.0
H1497 H 0.29535 0.63578 0.37074 0.0
C1498 C 0.33179 0.64049 0.41433 0.0
C1499 C 0.37801 0.64364 0.42943 0.0
C1500 C 0.42461 0.63566 0.31454 0.0
C1501 C 0.37798 0.63781 0.36558 0.0
C1502 C 0.42615 0.63801 0.2824 0.0
C1503 C 0.38174 0.64203 0.2666 0.0
C1504 C 0.37837 0.6373 0.33095 0.0
C1505 C 0.33531 0.64245 0.28336 0.0
C1506 C 0.3316 0.63762 0.38237 0.0
C1507 C 0.42387 0.64297 0.41221 0.0
N1508 N 0.33498 0.64033 0.31478 0.0
N1509 N 0.42263 0.64025 0.3811 0.0
H1510 H 0.32901 0.06839 0.48795 0.0
H1511 H 0.47997 0.06526 0.32879 0.0
H1512 H 0.49443 0.06589 0.48312 0.0
H1513 H 0.32091 0.07653 0.33533 0.0
H1514 H 0.48888 0.0685 0.38523 0.0
H1515 H 0.32725 0.0745 0.43283 0.0
C1516 C 0.36505 0.06934 0.47544 0.0
C1517 C 0.41184 0.06637 0.48997 0.0
C1518 C 0.45228 0.0705 0.37423 0.0
C1519 C 0.41008 0.07317 0.42673 0.0
C1520 C 0.44714 0.06862 0.34198 0.0
C1521 C 0.3993 0.07034 0.32741 0.0
C1522 C 0.40909 0.07394 0.39205 0.0
C1523 C 0.35832 0.07488 0.34562 0.0
C1524 C 0.36405 0.07286 0.44394 0.0
C1525 C 0.4574 0.06794 0.47275 0.0
N1526 N 0.36389 0.07628 0.37709 0.0
N1527 N 0.45531 0.07098 0.44183 0.0
H1528 H 0.60506 0.824 0.06489 0.0
H1529 H 0.66704 0.80052 0.23777 0.0
H1530 H 0.7584 0.81489 0.09607 0.0
H1531 H 0.52022 0.81574 0.20967 0.0
H1532 H 0.70261 0.80668 0.187 0.0
H1533 H 0.57488 0.82241 0.11884 0.0
C1534 C 0.63254 0.82183 0.0832 0.0
C1535 C 0.68421 0.81944 0.07597 0.0
C1536 C 0.66272 0.80875 0.19206 0.0
C1537 C 0.64973 0.81739 0.13777 0.0
C1538 C 0.64229 0.80518 0.22099 0.0
C1539 C 0.59037 0.80749 0.22789 0.0
C1540 C 0.63093 0.81459 0.1698 0.0
C1541 C 0.56032 0.81367 0.20533 0.0
C1542 C 0.61527 0.82091 0.11401 0.0
C1543 C 0.71821 0.81678 0.10063 0.0
N1544 N 0.58094 0.81691 0.17723 0.0
N1545 N 0.7002 0.81563 0.13043 0.0
H1546 H 0.52524 0.38485 0.11472 0.0
H1547 H 0.77394 0.39216 0.2225 0.0
H1548 H 0.6808 0.38533 0.07939 0.0
H1549 H 0.61842 0.39877 0.25389 0.0
H1550 H 0.7402 0.3845 0.17247 0.0
H1551 H 0.55899 0.38433 0.16816 0.0
C1552 C 0.56647 0.38456 0.11814 0.0
C1553 C 0.60027 0.38544 0.09258 0.0
C1554 C 0.7135 0.38751 0.19046 0.0
C1555 C 0.63902 0.38499 0.15358 0.0
C1556 C 0.73271 0.3919 0.21901 0.0
C1557 C 0.69899 0.39635 0.24219 0.0
C1558 C 0.66024 0.38754 0.18513 0.0
C1559 C 0.64592 0.39565 0.23649 0.0
C1560 C 0.5857 0.38434 0.14867 0.0
C1561 C 0.65333 0.38492 0.09844 0.0
N1562 N 0.62821 0.39145 0.20842 0.0
N1563 N 0.67109 0.38493 0.12836 0.0
H1564 H 0.42922 0.18597 0.79171 0.0
H1565 H 0.28927 0.14671 0.92346 0.0
H1566 H 0.47275 0.14759 0.8117 0.0
H1567 H 0.33728 0.18491 0.94227 0.0
H1568 H 0.33739 0.14731 0.8739 0.0
H1569 H 0.37755 0.1862 0.84005 0.0
C1570 C 0.42807 0.17764 0.80639 0.0
C1571 C 0.45548 0.16678 0.79805 0.0
C1572 C 0.33682 0.15557 0.88884 0.0
C1573 C 0.39555 0.16686 0.85212 0.0
C1574 C 0.30914 0.15528 0.91684 0.0
C1575 C 0.30963 0.16577 0.93683 0.0
C1576 C 0.36382 0.16653 0.8806 0.0
C1577 C 0.33634 0.17663 0.92745 0.0
C1578 C 0.39869 0.17779 0.83376 0.0
C1579 C 0.45264 0.15619 0.81762 0.0
N1580 N 0.36231 0.17676 0.89982 0.0
N1581 N 0.42259 0.15644 0.84364 0.0
H1582 H 0.3655 0.53133 0.96959 0.0
H1583 H 0.41516 0.53515 0.78562 0.0
H1584 H 0.51654 0.53812 0.93096 0.0
H1585 H 0.27195 0.54596 0.82911 0.0
H1586 H 0.45182 0.53148 0.83775 0.0
H1587 H 0.32996 0.53157 0.91669 0.0
C1588 C 0.39138 0.53269 0.94998 0.0
C1589 C 0.44409 0.53484 0.95472 0.0
C1590 C 0.41234 0.53461 0.83576 0.0
C1591 C 0.40342 0.5351 0.89421 0.0
C1592 C 0.39133 0.53667 0.80612 0.0
C1593 C 0.34052 0.54093 0.80313 0.0
C1594 C 0.38197 0.5366 0.86245 0.0
C1595 C 0.3114 0.54277 0.83041 0.0
C1596 C 0.37093 0.5329 0.91983 0.0
C1597 C 0.47565 0.53654 0.92836 0.0
N1598 N 0.33253 0.54056 0.85899 0.0
N1599 N 0.45476 0.53668 0.89913 0.0
loop_
_geom_bond_atom_site_label_1
_geom_bond_atom_site_label_2
_geom_bond_distance
_geom_bond_site_symmetry_2
_ccdc_geom_bond_type
C0 O1 1.306 . S
C0 O3 1.160 . S
O1 C0 1.306 . S
O1 Cd2 2.228 1_455 S
Cd2 O1 2.228 1_655 S
Cd2 O6 2.273 1_655 S
Cd2 O10 2.277 1_655 S
O3 C0 1.160 . S
O3 Cd4 2.203 . S
Cd4 O3 2.203 . S
Cd4 O6 2.411 . S
Cd4 O7 2.333 . S
Cd4 O8 2.352 . S
Cd4 O12 2.277 . S
Cd4 O13 2.356 . S
C5 O10 1.209 . S
C5 O12 1.226 . S
O6 Cd2 2.273 1_455 S
O6 Cd4 2.411 . S
O6 C9 1.320 . S
O7 Cd4 2.333 . S
O7 C9 1.214 . S
O8 Cd4 2.352 . S
O8 C11 1.258 . S
C9 O6 1.320 . S
C9 O7 1.214 . S
O10 Cd2 2.277 1_455 S
O10 C5 1.209 . S
C11 O8 1.258 . S
C11 O13 1.282 . S
O12 Cd4 2.277 . S
O12 C5 1.226 . S
O13 Cd4 2.356 . S
O13 C11 1.282 . S
C14 O15 1.306 . S
C14 O17 1.160 . S
O15 C14 1.306 . S
O15 Cd16 2.228 . S
Cd16 O15 2.228 . S
Cd16 O20 2.273 . S
Cd16 O24 2.277 . S
O17 C14 1.160 . S
O17 Cd18 2.203 . S
Cd18 O17 2.203 . S
Cd18 O20 2.411 . S
Cd18 O21 2.333 . S
Cd18 O22 2.352 . S
Cd18 O26 2.277 . S
Cd18 O27 2.356 . S
C19 O24 1.209 . S
C19 O26 1.226 . S
O20 Cd16 2.273 . S
O20 Cd18 2.411 . S
O20 C23 1.320 . S
O21 Cd18 2.333 . S
O21 C23 1.214 . S
O22 Cd18 2.352 . S
O22 C25 1.258 . S
C23 O20 1.320 . S
C23 O21 1.214 . S
O24 Cd16 2.277 . S
O24 C19 1.209 . S
C25 O22 1.258 . S
C25 O27 1.282 . S
O26 Cd18 2.277 . S
O26 C19 1.226 . S
O27 Cd18 2.356 . S
O27 C25 1.282 . S
C28 O29 1.306 . S
C28 O31 1.160 . S
O29 C28 1.306 . S
O29 Cd30 2.228 1_455 S
Cd30 O29 2.228 1_655 S
Cd30 O34 2.273 1_655 S
Cd30 O38 2.277 1_656 S
O31 C28 1.160 . S
O31 Cd32 2.203 . S
Cd32 O31 2.203 . S
Cd32 O34 2.411 . S
Cd32 O35 2.333 . S
Cd32 O36 2.352 . S
Cd32 O40 2.277 1_556 S
Cd32 O41 2.356 . S
C33 O38 1.209 . S
C33 O40 1.226 . S
O34 Cd30 2.273 1_455 S
O34 Cd32 2.411 . S
O34 C37 1.320 . S
O35 Cd32 2.333 . S
O35 C37 1.214 . S
O36 Cd32 2.352 . S
O36 C39 1.258 . S
C37 O34 1.320 . S
C37 O35 1.214 . S
O38 Cd30 2.277 1_454 S
O38 C33 1.209 . S
C39 O36 1.258 . S
C39 O41 1.282 . S
O40 Cd32 2.277 1_554 S
O40 C33 1.226 . S
O41 Cd32 2.356 . S
O41 C39 1.282 . S
C42 O43 1.306 . S
C42 O45 1.160 . S
O43 C42 1.306 . S
O43 Cd44 2.228 . S
Cd44 O43 2.228 . S
Cd44 O48 2.273 . S
Cd44 O52 2.277 1_556 S
O45 C42 1.160 . S
O45 Cd46 2.203 . S
Cd46 O45 2.203 . S
Cd46 O48 2.411 . S
Cd46 O49 2.333 . S
Cd46 O50 2.352 . S
Cd46 O54 2.277 1_556 S
Cd46 O55 2.356 . S
C47 O52 1.209 . S
C47 O54 1.226 . S
O48 Cd44 2.273 . S
O48 Cd46 2.411 . S
O48 C51 1.320 . S
O49 Cd46 2.333 . S
O49 C51 1.214 . S
O50 Cd46 2.352 . S
O50 C53 1.258 . S
C51 O48 1.320 . S
C51 O49 1.214 . S
O52 Cd44 2.277 1_554 S
O52 C47 1.209 . S
C53 O50 1.258 . S
C53 O55 1.282 . S
O54 Cd46 2.277 1_554 S
O54 C47 1.226 . S
O55 Cd46 2.356 . S
O55 C53 1.282 . S
C56 O57 1.306 . S
C56 O59 1.160 . S
O57 C56 1.306 . S
O57 Cd58 2.228 1_655 S
Cd58 O57 2.228 1_455 S
Cd58 O62 2.273 1_455 S
Cd58 O66 2.277 1_455 S
O59 C56 1.160 . S
O59 Cd60 2.203 . S
Cd60 O59 2.203 . S
Cd60 O62 2.411 . S
Cd60 O63 2.333 . S
Cd60 O64 2.352 . S
Cd60 O68 2.277 . S
Cd60 O69 2.356 . S
C61 O66 1.209 . S
C61 O68 1.226 . S
O62 Cd58 2.273 1_655 S
O62 Cd60 2.411 . S
O62 C65 1.320 . S
O63 Cd60 2.333 . S
O63 C65 1.214 . S
O64 Cd60 2.352 . S
O64 C67 1.258 . S
C65 O62 1.320 . S
C65 O63 1.214 . S
O66 Cd58 2.277 1_655 S
O66 C61 1.209 . S
C67 O64 1.258 . S
C67 O69 1.282 . S
O68 Cd60 2.277 . S
O68 C61 1.226 . S
O69 Cd60 2.356 . S
O69 C67 1.282 . S
C70 O71 1.306 . S
C70 O73 1.160 . S
O71 C70 1.306 . S
O71 Cd72 2.228 . S
Cd72 O71 2.228 . S
Cd72 O76 2.273 . S
Cd72 O80 2.277 . S
O73 C70 1.160 . S
O73 Cd74 2.203 . S
Cd74 O73 2.203 . S
Cd74 O76 2.411 . S
Cd74 O77 2.333 . S
Cd74 O78 2.352 . S
Cd74 O82 2.277 . S
Cd74 O83 2.356 . S
C75 O80 1.209 . S
C75 O82 1.226 . S
O76 Cd72 2.273 . S
O76 Cd74 2.411 . S
O76 C79 1.320 . S
O77 Cd74 2.333 . S
O77 C79 1.214 . S
O78 Cd74 2.352 . S
O78 C81 1.258 . S
C79 O76 1.320 . S
C79 O77 1.214 . S
O80 Cd72 2.277 . S
O80 C75 1.209 . S
C81 O78 1.258 . S
C81 O83 1.282 . S
O82 Cd74 2.277 . S
O82 C75 1.226 . S
O83 Cd74 2.356 . S
O83 C81 1.282 . S
C84 O85 1.306 . S
C84 O87 1.160 . S
O85 C84 1.306 . S
O85 Cd86 2.228 1_655 S
Cd86 O85 2.228 1_455 S
Cd86 O90 2.273 1_455 S
Cd86 O94 2.277 1_454 S
O87 C84 1.160 . S
O87 Cd88 2.203 . S
Cd88 O87 2.203 . S
Cd88 O90 2.411 . S
Cd88 O91 2.333 . S
Cd88 O92 2.352 . S
Cd88 O96 2.277 1_554 S
Cd88 O97 2.356 . S
C89 O94 1.209 . S
C89 O96 1.226 . S
O90 Cd86 2.273 1_655 S
O90 Cd88 2.411 . S
O90 C93 1.320 . S
O91 Cd88 2.333 . S
O91 C93 1.214 . S
O92 Cd88 2.352 . S
O92 C95 1.258 . S
C93 O90 1.320 . S
C93 O91 1.214 . S
O94 Cd86 2.277 1_656 S
O94 C89 1.209 . S
C95 O92 1.258 . S
C95 O97 1.282 . S
O96 Cd88 2.277 1_556 S
O96 C89 1.226 . S
O97 Cd88 2.356 . S
O97 C95 1.282 . S
C98 O99 1.306 . S
C98 O101 1.160 . S
O99 C98 1.306 . S
O99 Cd100 2.228 . S
Cd100 O99 2.228 . S
Cd100 O104 2.273 . S
Cd100 O108 2.277 1_554 S
O101 C98 1.160 . S
O101 Cd102 2.203 . S
Cd102 O101 2.203 . S
Cd102 O104 2.411 . S
Cd102 O105 2.333 . S
Cd102 O106 2.352 . S
Cd102 O110 2.277 1_554 S
Cd102 O111 2.356 . S
C103 O108 1.209 . S
C103 O110 1.226 . S
O104 Cd100 2.273 . S
O104 Cd102 2.411 . S
O104 C107 1.320 . S
O105 Cd102 2.333 . S
O105 C107 1.214 . S
O106 Cd102 2.352 . S
O106 C109 1.258 . S
C107 O104 1.320 . S
C107 O105 1.214 . S
O108 Cd100 2.277 1_556 S
O108 C103 1.209 . S
C109 O106 1.258 . S
C109 O111 1.282 . S
O110 Cd102 2.277 1_556 S
O110 C103 1.226 . S
O111 Cd102 2.356 . S
O111 C109 1.282 . S
C112 O113 1.306 . S
C112 O115 1.160 . S
O113 C112 1.306 . S
O113 Cd114 2.228 1_455 S
Cd114 O113 2.228 1_655 S
Cd114 O118 2.273 1_655 S
Cd114 O122 2.277 1_655 S
O115 C112 1.160 . S
O115 Cd116 2.203 . S
Cd116 O115 2.203 . S
Cd116 O118 2.411 . S
Cd116 O119 2.333 . S
Cd116 O120 2.352 . S
Cd116 O124 2.277 . S
Cd116 O125 2.356 . S
C117 O122 1.209 . S
C117 O124 1.226 . S
O118 Cd114 2.273 1_455 S
O118 Cd116 2.411 . S
O118 C121 1.320 . S
O119 Cd116 2.333 . S
O119 C121 1.214 . S
O120 Cd116 2.352 . S
O120 C123 1.258 . S
C121 O118 1.320 . S
C121 O119 1.214 . S
O122 Cd114 2.277 1_455 S
O122 C117 1.209 . S
C123 O120 1.258 . S
C123 O125 1.282 . S
O124 Cd116 2.277 . S
O124 C117 1.226 . S
O125 Cd116 2.356 . S
O125 C123 1.282 . S
C126 O127 1.306 . S
C126 O129 1.160 . S
O127 C126 1.306 . S
O127 Cd128 2.228 . S
Cd128 O127 2.228 . S
Cd128 O132 2.273 . S
Cd128 O136 2.277 . S
O129 C126 1.160 . S
O129 Cd130 2.203 . S
Cd130 O129 2.203 . S
Cd130 O132 2.411 . S
Cd130 O133 2.333 . S
Cd130 O134 2.352 . S
Cd130 O138 2.277 . S
Cd130 O139 2.356 . S
C131 O136 1.209 . S
C131 O138 1.226 . S
O132 Cd128 2.273 . S
O132 Cd130 2.411 . S
O132 C135 1.320 . S
O133 Cd130 2.333 . S
O133 C135 1.214 . S
O134 Cd130 2.352 . S
O134 C137 1.258 . S
C135 O132 1.320 . S
C135 O133 1.214 . S
O136 Cd128 2.277 . S
O136 C131 1.209 . S
C137 O134 1.258 . S
C137 O139 1.282 . S
O138 Cd130 2.277 . S
O138 C131 1.226 . S
O139 Cd130 2.356 . S
O139 C137 1.282 . S
C140 O141 1.306 . S
C140 O143 1.160 . S
O141 C140 1.306 . S
O141 Cd142 2.228 1_455 S
Cd142 O141 2.228 1_655 S
Cd142 O146 2.273 1_655 S
Cd142 O150 2.277 1_655 S
O143 C140 1.160 . S
O143 Cd144 2.203 . S
Cd144 O143 2.203 . S
Cd144 O146 2.411 . S
Cd144 O147 2.333 . S
Cd144 O148 2.352 . S
Cd144 O152 2.277 . S
Cd144 O153 2.356 . S
C145 O150 1.209 . S
C145 O152 1.226 . S
O146 Cd142 2.273 1_455 S
O146 Cd144 2.411 . S
O146 C149 1.320 . S
O147 Cd144 2.333 . S
O147 C149 1.214 . S
O148 Cd144 2.352 . S
O148 C151 1.258 . S
C149 O146 1.320 . S
C149 O147 1.214 . S
O150 Cd142 2.277 1_455 S
O150 C145 1.209 . S
C151 O148 1.258 . S
C151 O153 1.282 . S
O152 Cd144 2.277 . S
O152 C145 1.226 . S
O153 Cd144 2.356 . S
O153 C151 1.282 . S
C154 O155 1.306 . S
C154 O157 1.160 . S
O155 C154 1.306 . S
O155 Cd156 2.228 . S
Cd156 O155 2.228 . S
Cd156 O160 2.273 . S
Cd156 O164 2.277 . S
O157 C154 1.160 . S
O157 Cd158 2.203 . S
Cd158 O157 2.203 . S
Cd158 O160 2.411 . S
Cd158 O161 2.333 . S
Cd158 O162 2.352 . S
Cd158 O166 2.277 . S
Cd158 O167 2.356 . S
C159 O164 1.209 . S
C159 O166 1.226 . S
O160 Cd156 2.273 . S
O160 Cd158 2.411 . S
O160 C163 1.320 . S
O161 Cd158 2.333 . S
O161 C163 1.214 . S
O162 Cd158 2.352 . S
O162 C165 1.258 . S
C163 O160 1.320 . S
C163 O161 1.214 . S
O164 Cd156 2.277 . S
O164 C159 1.209 . S
C165 O162 1.258 . S
C165 O167 1.282 . S
O166 Cd158 2.277 . S
O166 C159 1.226 . S
O167 Cd158 2.356 . S
O167 C165 1.282 . S
C168 O169 1.306 . S
C168 O171 1.160 . S
O169 C168 1.306 . S
O169 Cd170 2.228 1_655 S
Cd170 O169 2.228 1_455 S
Cd170 O174 2.273 1_455 S
Cd170 O178 2.277 1_455 S
O171 C168 1.160 . S
O171 Cd172 2.203 . S
Cd172 O171 2.203 . S
Cd172 O174 2.411 . S
Cd172 O175 2.333 . S
Cd172 O176 2.352 . S
Cd172 O180 2.277 . S
Cd172 O181 2.356 . S
C173 O178 1.209 . S
C173 O180 1.226 . S
O174 Cd170 2.273 1_655 S
O174 Cd172 2.411 . S
O174 C177 1.320 . S
O175 Cd172 2.333 . S
O175 C177 1.214 . S
O176 Cd172 2.352 . S
O176 C179 1.258 . S
C177 O174 1.320 . S
C177 O175 1.214 . S
O178 Cd170 2.277 1_655 S
O178 C173 1.209 . S
C179 O176 1.258 . S
C179 O181 1.282 . S
O180 Cd172 2.277 . S
O180 C173 1.226 . S
O181 Cd172 2.356 . S
O181 C179 1.282 . S
C182 O183 1.306 . S
C182 O185 1.160 . S
O183 C182 1.306 . S
O183 Cd184 2.228 . S
Cd184 O183 2.228 . S
Cd184 O188 2.273 . S
Cd184 O192 2.277 . S
O185 C182 1.160 . S
O185 Cd186 2.203 . S
Cd186 O185 2.203 . S
Cd186 O188 2.411 . S
Cd186 O189 2.333 . S
Cd186 O190 2.352 . S
Cd186 O194 2.277 . S
Cd186 O195 2.356 . S
C187 O192 1.209 . S
C187 O194 1.226 . S
O188 Cd184 2.273 . S
O188 Cd186 2.411 . S
O188 C191 1.320 . S
O189 Cd186 2.333 . S
O189 C191 1.214 . S
O190 Cd186 2.352 . S
O190 C193 1.258 . S
C191 O188 1.320 . S
C191 O189 1.214 . S
O192 Cd184 2.277 . S
O192 C187 1.209 . S
C193 O190 1.258 . S
C193 O195 1.282 . S
O194 Cd186 2.277 . S
O194 C187 1.226 . S
O195 Cd186 2.356 . S
O195 C193 1.282 . S
C196 O197 1.306 . S
C196 O199 1.160 . S
O197 C196 1.306 . S
O197 Cd198 2.228 1_655 S
Cd198 O197 2.228 1_455 S
Cd198 O202 2.273 1_455 S
Cd198 O206 2.277 1_455 S
O199 C196 1.160 . S
O199 Cd200 2.203 . S
Cd200 O199 2.203 . S
Cd200 O202 2.411 . S
Cd200 O203 2.333 . S
Cd200 O204 2.352 . S
Cd200 O208 2.277 . S
Cd200 O209 2.356 . S
C201 O206 1.209 . S
C201 O208 1.226 . S
O202 Cd198 2.273 1_655 S
O202 Cd200 2.411 . S
O202 C205 1.320 . S
O203 Cd200 2.333 . S
O203 C205 1.214 . S
O204 Cd200 2.352 . S
O204 C207 1.258 . S
C205 O202 1.320 . S
C205 O203 1.214 . S
O206 Cd198 2.277 1_655 S
O206 C201 1.209 . S
C207 O204 1.258 . S
C207 O209 1.282 . S
O208 Cd200 2.277 . S
O208 C201 1.226 . S
O209 Cd200 2.356 . S
O209 C207 1.282 . S
C210 O211 1.306 . S
C210 O213 1.160 . S
O211 C210 1.306 . S
O211 Cd212 2.228 . S
Cd212 O211 2.228 . S
Cd212 O216 2.273 . S
Cd212 O220 2.277 . S
O213 C210 1.160 . S
O213 Cd214 2.203 . S
Cd214 O213 2.203 . S
Cd214 O216 2.411 . S
Cd214 O217 2.333 . S
Cd214 O218 2.352 . S
Cd214 O222 2.277 . S
Cd214 O223 2.356 . S
C215 O220 1.209 . S
C215 O222 1.226 . S
O216 Cd212 2.273 . S
O216 Cd214 2.411 . S
O216 C219 1.320 . S
O217 Cd214 2.333 . S
O217 C219 1.214 . S
O218 Cd214 2.352 . S
O218 C221 1.258 . S
C219 O216 1.320 . S
C219 O217 1.214 . S
O220 Cd212 2.277 . S
O220 C215 1.209 . S
C221 O218 1.258 . S
C221 O223 1.282 . S
O222 Cd214 2.277 . S
O222 C215 1.226 . S
O223 Cd214 2.356 . S
O223 C221 1.282 . S
C224 O225 1.306 . S
C224 O227 1.160 . S
O225 C224 1.306 . S
O225 Cd226 2.228 . S
Cd226 O225 2.228 . S
Cd226 O230 2.273 . S
Cd226 O234 2.277 . S
O227 C224 1.160 . S
O227 Cd228 2.203 . S
Cd228 O227 2.203 . S
Cd228 O230 2.411 . S
Cd228 O231 2.333 . S
Cd228 O232 2.352 . S
Cd228 O236 2.277 . S
Cd228 O237 2.356 . S
C229 O234 1.209 . S
C229 O236 1.226 . S
O230 Cd226 2.273 . S
O230 Cd228 2.411 . S
O230 C233 1.320 . S
O231 Cd228 2.333 . S
O231 C233 1.214 . S
O232 Cd228 2.352 . S
O232 C235 1.258 . S
C233 O230 1.320 . S
C233 O231 1.214 . S
O234 Cd226 2.277 . S
O234 C229 1.209 . S
C235 O232 1.258 . S
C235 O237 1.282 . S
O236 Cd228 2.277 . S
O236 C229 1.226 . S
O237 Cd228 2.356 . S
O237 C235 1.282 . S
C238 O239 1.306 . S
C238 O241 1.160 . S
O239 C238 1.306 . S
O239 Cd240 2.228 . S
Cd240 O239 2.228 . S
Cd240 O244 2.273 . S
Cd240 O248 2.277 . S
O241 C238 1.160 . S
O241 Cd242 2.203 . S
Cd242 O241 2.203 . S
Cd242 O244 2.411 . S
Cd242 O245 2.333 . S
Cd242 O246 2.352 . S
Cd242 O250 2.277 . S
Cd242 O251 2.356 . S
C243 O248 1.209 . S
C243 O250 1.226 . S
O244 Cd240 2.273 . S
O244 Cd242 2.411 . S
O244 C247 1.320 . S
O245 Cd242 2.333 . S
O245 C247 1.214 . S
O246 Cd242 2.352 . S
O246 C249 1.258 . S
C247 O244 1.320 . S
C247 O245 1.214 . S
O248 Cd240 2.277 . S
O248 C243 1.209 . S
C249 O246 1.258 . S
C249 O251 1.282 . S
O250 Cd242 2.277 . S
O250 C243 1.226 . S
O251 Cd242 2.356 . S
O251 C249 1.282 . S
C252 O253 1.306 . S
C252 O255 1.160 . S
O253 C252 1.306 . S
O253 Cd254 2.228 . S
Cd254 O253 2.228 . S
Cd254 O258 2.273 . S
Cd254 O262 2.277 . S
O255 C252 1.160 . S
O255 Cd256 2.203 . S
Cd256 O255 2.203 . S
Cd256 O258 2.411 . S
Cd256 O259 2.333 . S
Cd256 O260 2.352 . S
Cd256 O264 2.277 . S
Cd256 O265 2.356 . S
C257 O262 1.209 . S
C257 O264 1.226 . S
O258 Cd254 2.273 . S
O258 Cd256 2.411 . S
O258 C261 1.320 . S
O259 Cd256 2.333 . S
O259 C261 1.214 . S
O260 Cd256 2.352 . S
O260 C263 1.258 . S
C261 O258 1.320 . S
C261 O259 1.214 . S
O262 Cd254 2.277 . S
O262 C257 1.209 . S
C263 O260 1.258 . S
C263 O265 1.282 . S
O264 Cd256 2.277 . S
O264 C257 1.226 . S
O265 Cd256 2.356 . S
O265 C263 1.282 . S
C266 O267 1.306 . S
C266 O269 1.160 . S
O267 C266 1.306 . S
O267 Cd268 2.228 . S
Cd268 O267 2.228 . S
Cd268 O272 2.273 . S
Cd268 O276 2.277 . S
O269 C266 1.160 . S
O269 Cd270 2.203 . S
Cd270 O269 2.203 . S
Cd270 O272 2.411 . S
Cd270 O273 2.333 . S
Cd270 O274 2.352 . S
Cd270 O278 2.277 . S
Cd270 O279 2.356 . S
C271 O276 1.209 . S
C271 O278 1.226 . S
O272 Cd268 2.273 . S
O272 Cd270 2.411 . S
O272 C275 1.320 . S
O273 Cd270 2.333 . S
O273 C275 1.214 . S
O274 Cd270 2.352 . S
O274 C277 1.258 . S
C275 O272 1.320 . S
C275 O273 1.214 . S
O276 Cd268 2.277 . S
O276 C271 1.209 . S
C277 O274 1.258 . S
C277 O279 1.282 . S
O278 Cd270 2.277 . S
O278 C271 1.226 . S
O279 Cd270 2.356 . S
O279 C277 1.282 . S
C280 O281 1.306 . S
C280 O283 1.160 . S
O281 C280 1.306 . S
O281 Cd282 2.228 . S
Cd282 O281 2.228 . S
Cd282 O286 2.273 . S
Cd282 O290 2.277 . S
O283 C280 1.160 . S
O283 Cd284 2.203 . S
Cd284 O283 2.203 . S
Cd284 O286 2.411 . S
Cd284 O287 2.333 . S
Cd284 O288 2.352 . S
Cd284 O292 2.277 . S
Cd284 O293 2.356 . S
C285 O290 1.209 . S
C285 O292 1.226 . S
O286 Cd282 2.273 . S
O286 Cd284 2.411 . S
O286 C289 1.320 . S
O287 Cd284 2.333 . S
O287 C289 1.214 . S
O288 Cd284 2.352 . S
O288 C291 1.258 . S
C289 O286 1.320 . S
C289 O287 1.214 . S
O290 Cd282 2.277 . S
O290 C285 1.209 . S
C291 O288 1.258 . S
C291 O293 1.282 . S
O292 Cd284 2.277 . S
O292 C285 1.226 . S
O293 Cd284 2.356 . S
O293 C291 1.282 . S
C294 O295 1.306 . S
C294 O297 1.160 . S
O295 C294 1.306 . S
O295 Cd296 2.228 . S
Cd296 O295 2.228 . S
Cd296 O300 2.273 . S
Cd296 O304 2.277 . S
O297 C294 1.160 . S
O297 Cd298 2.203 . S
Cd298 O297 2.203 . S
Cd298 O300 2.411 . S
Cd298 O301 2.333 . S
Cd298 O302 2.352 . S
Cd298 O306 2.277 . S
Cd298 O307 2.356 . S
C299 O304 1.209 . S
C299 O306 1.226 . S
O300 Cd296 2.273 . S
O300 Cd298 2.411 . S
O300 C303 1.320 . S
O301 Cd298 2.333 . S
O301 C303 1.214 . S
O302 Cd298 2.352 . S
O302 C305 1.258 . S
C303 O300 1.320 . S
C303 O301 1.214 . S
O304 Cd296 2.277 . S
O304 C299 1.209 . S
C305 O302 1.258 . S
C305 O307 1.282 . S
O306 Cd298 2.277 . S
O306 C299 1.226 . S
O307 Cd298 2.356 . S
O307 C305 1.282 . S
C308 O309 1.306 . S
C308 O311 1.160 . S
O309 C308 1.306 . S
O309 Cd310 2.228 . S
Cd310 O309 2.228 . S
Cd310 O314 2.273 . S
Cd310 O318 2.277 . S
O311 C308 1.160 . S
O311 Cd312 2.203 . S
Cd312 O311 2.203 . S
Cd312 O314 2.411 . S
Cd312 O315 2.333 . S
Cd312 O316 2.352 . S
Cd312 O320 2.277 . S
Cd312 O321 2.356 . S
C313 O318 1.209 . S
C313 O320 1.226 . S
O314 Cd310 2.273 . S
O314 Cd312 2.411 . S
O314 C317 1.320 . S
O315 Cd312 2.333 . S
O315 C317 1.214 . S
O316 Cd312 2.352 . S
O316 C319 1.258 . S
C317 O314 1.320 . S
C317 O315 1.214 . S
O318 Cd310 2.277 . S
O318 C313 1.209 . S
C319 O316 1.258 . S
C319 O321 1.282 . S
O320 Cd312 2.277 . S
O320 C313 1.226 . S
O321 Cd312 2.356 . S
O321 C319 1.282 . S
C322 O323 1.306 . S
C322 O325 1.160 . S
O323 C322 1.306 . S
O323 Cd324 2.228 . S
Cd324 O323 2.228 . S
Cd324 O328 2.273 . S
Cd324 O332 2.277 . S
O325 C322 1.160 . S
O325 Cd326 2.203 . S
Cd326 O325 2.203 . S
Cd326 O328 2.411 . S
Cd326 O329 2.333 . S
Cd326 O330 2.352 . S
Cd326 O334 2.277 . S
Cd326 O335 2.356 . S
C327 O332 1.209 . S
C327 O334 1.226 . S
O328 Cd324 2.273 . S
O328 Cd326 2.411 . S
O328 C331 1.320 . S
O329 Cd326 2.333 . S
O329 C331 1.214 . S
O330 Cd326 2.352 . S
O330 C333 1.258 . S
C331 O328 1.320 . S
C331 O329 1.214 . S
O332 Cd324 2.277 . S
O332 C327 1.209 . S
C333 O330 1.258 . S
C333 O335 1.282 . S
O334 Cd326 2.277 . S
O334 C327 1.226 . S
O335 Cd326 2.356 . S
O335 C333 1.282 . S
C336 O337 1.306 . S
C336 O339 1.160 . S
O337 C336 1.306 . S
O337 Cd338 2.228 . S
Cd338 O337 2.228 . S
Cd338 O342 2.273 . S
Cd338 O346 2.277 . S
O339 C336 1.160 . S
O339 Cd340 2.203 . S
Cd340 O339 2.203 . S
Cd340 O342 2.411 . S
Cd340 O343 2.333 . S
Cd340 O344 2.352 . S
Cd340 O348 2.277 . S
Cd340 O349 2.356 . S
C341 O346 1.209 . S
C341 O348 1.226 . S
O342 Cd338 2.273 . S
O342 Cd340 2.411 . S
O342 C345 1.320 . S
O343 Cd340 2.333 . S
O343 C345 1.214 . S
O344 Cd340 2.352 . S
O344 C347 1.258 . S
C345 O342 1.320 . S
C345 O343 1.214 . S
O346 Cd338 2.277 . S
O346 C341 1.209 . S
C347 O344 1.258 . S
C347 O349 1.282 . S
O348 Cd340 2.277 . S
O348 C341 1.226 . S
O349 Cd340 2.356 . S
O349 C347 1.282 . S
C350 O351 1.306 . S
C350 O353 1.160 . S
O351 C350 1.306 . S
O351 Cd352 2.228 . S
Cd352 O351 2.228 . S
Cd352 O356 2.273 . S
Cd352 O360 2.277 . S
O353 C350 1.160 . S
O353 Cd354 2.203 . S
Cd354 O353 2.203 . S
Cd354 O356 2.411 . S
Cd354 O357 2.333 . S
Cd354 O358 2.352 . S
Cd354 O362 2.277 . S
Cd354 O363 2.356 . S
C355 O360 1.209 . S
C355 O362 1.226 . S
O356 Cd352 2.273 . S
O356 Cd354 2.411 . S
O356 C359 1.320 . S
O357 Cd354 2.333 . S
O357 C359 1.214 . S
O358 Cd354 2.352 . S
O358 C361 1.258 . S
C359 O356 1.320 . S
C359 O357 1.214 . S
O360 Cd352 2.277 . S
O360 C355 1.209 . S
C361 O358 1.258 . S
C361 O363 1.282 . S
O362 Cd354 2.277 . S
O362 C355 1.226 . S
O363 Cd354 2.356 . S
O363 C361 1.282 . S
C364 O365 1.306 . S
C364 O367 1.160 . S
O365 C364 1.306 . S
O365 Cd366 2.228 . S
Cd366 O365 2.228 . S
Cd366 O370 2.273 . S
Cd366 O374 2.277 1_556 S
O367 C364 1.160 . S
O367 Cd368 2.203 . S
Cd368 O367 2.203 . S
Cd368 O370 2.411 . S
Cd368 O371 2.333 . S
Cd368 O372 2.352 . S
Cd368 O376 2.277 1_556 S
Cd368 O377 2.356 . S
C369 O374 1.209 . S
C369 O376 1.226 . S
O370 Cd366 2.273 . S
O370 Cd368 2.411 . S
O370 C373 1.320 . S
O371 Cd368 2.333 . S
O371 C373 1.214 . S
O372 Cd368 2.352 . S
O372 C375 1.258 . S
C373 O370 1.320 . S
C373 O371 1.214 . S
O374 Cd366 2.277 1_554 S
O374 C369 1.209 . S
C375 O372 1.258 . S
C375 O377 1.282 . S
O376 Cd368 2.277 1_554 S
O376 C369 1.226 . S
O377 Cd368 2.356 . S
O377 C375 1.282 . S
C378 O379 1.306 . S
C378 O381 1.160 . S
O379 C378 1.306 . S
O379 Cd380 2.228 . S
Cd380 O379 2.228 . S
Cd380 O384 2.273 . S
Cd380 O388 2.277 1_556 S
O381 C378 1.160 . S
O381 Cd382 2.203 . S
Cd382 O381 2.203 . S
Cd382 O384 2.411 . S
Cd382 O385 2.333 . S
Cd382 O386 2.352 . S
Cd382 O390 2.277 1_556 S
Cd382 O391 2.356 . S
C383 O388 1.209 . S
C383 O390 1.226 . S
O384 Cd380 2.273 . S
O384 Cd382 2.411 . S
O384 C387 1.320 . S
O385 Cd382 2.333 . S
O385 C387 1.214 . S
O386 Cd382 2.352 . S
O386 C389 1.258 . S
C387 O384 1.320 . S
C387 O385 1.214 . S
O388 Cd380 2.277 1_554 S
O388 C383 1.209 . S
C389 O386 1.258 . S
C389 O391 1.282 . S
O390 Cd382 2.277 1_554 S
O390 C383 1.226 . S
O391 Cd382 2.356 . S
O391 C389 1.282 . S
C392 O393 1.306 . S
C392 O395 1.160 . S
O393 C392 1.306 . S
O393 Cd394 2.228 . S
Cd394 O393 2.228 . S
Cd394 O398 2.273 . S
Cd394 O402 2.277 . S
O395 C392 1.160 . S
O395 Cd396 2.203 . S
Cd396 O395 2.203 . S
Cd396 O398 2.411 . S
Cd396 O399 2.333 . S
Cd396 O400 2.352 . S
Cd396 O404 2.277 . S
Cd396 O405 2.356 . S
C397 O402 1.209 . S
C397 O404 1.226 . S
O398 Cd394 2.273 . S
O398 Cd396 2.411 . S
O398 C401 1.320 . S
O399 Cd396 2.333 . S
O399 C401 1.214 . S
O400 Cd396 2.352 . S
O400 C403 1.258 . S
C401 O398 1.320 . S
C401 O399 1.214 . S
O402 Cd394 2.277 . S
O402 C397 1.209 . S
C403 O400 1.258 . S
C403 O405 1.282 . S
O404 Cd396 2.277 . S
O404 C397 1.226 . S
O405 Cd396 2.356 . S
O405 C403 1.282 . S
C406 O407 1.306 . S
C406 O409 1.160 . S
O407 C406 1.306 . S
O407 Cd408 2.228 . S
Cd408 O407 2.228 . S
Cd408 O412 2.273 . S
Cd408 O416 2.277 . S
O409 C406 1.160 . S
O409 Cd410 2.203 . S
Cd410 O409 2.203 . S
Cd410 O412 2.411 . S
Cd410 O413 2.333 . S
Cd410 O414 2.352 . S
Cd410 O418 2.277 . S
Cd410 O419 2.356 . S
C411 O416 1.209 . S
C411 O418 1.226 . S
O412 Cd408 2.273 . S
O412 Cd410 2.411 . S
O412 C415 1.320 . S
O413 Cd410 2.333 . S
O413 C415 1.214 . S
O414 Cd410 2.352 . S
O414 C417 1.258 . S
C415 O412 1.320 . S
C415 O413 1.214 . S
O416 Cd408 2.277 . S
O416 C411 1.209 . S
C417 O414 1.258 . S
C417 O419 1.282 . S
O418 Cd410 2.277 . S
O418 C411 1.226 . S
O419 Cd410 2.356 . S
O419 C417 1.282 . S
C420 O421 1.306 . S
C420 O423 1.160 . S
O421 C420 1.306 . S
O421 Cd422 2.228 . S
Cd422 O421 2.228 . S
Cd422 O426 2.273 . S
Cd422 O430 2.277 1_554 S
O423 C420 1.160 . S
O423 Cd424 2.203 . S
Cd424 O423 2.203 . S
Cd424 O426 2.411 . S
Cd424 O427 2.333 . S
Cd424 O428 2.352 . S
Cd424 O432 2.277 1_554 S
Cd424 O433 2.356 . S
C425 O430 1.209 . S
C425 O432 1.226 . S
O426 Cd422 2.273 . S
O426 Cd424 2.411 . S
O426 C429 1.320 . S
O427 Cd424 2.333 . S
O427 C429 1.214 . S
O428 Cd424 2.352 . S
O428 C431 1.258 . S
C429 O426 1.320 . S
C429 O427 1.214 . S
O430 Cd422 2.277 1_556 S
O430 C425 1.209 . S
C431 O428 1.258 . S
C431 O433 1.282 . S
O432 Cd424 2.277 1_556 S
O432 C425 1.226 . S
O433 Cd424 2.356 . S
O433 C431 1.282 . S
C434 O435 1.306 . S
C434 O437 1.160 . S
O435 C434 1.306 . S
O435 Cd436 2.228 . S
Cd436 O435 2.228 . S
Cd436 O440 2.273 . S
Cd436 O444 2.277 1_554 S
O437 C434 1.160 . S
O437 Cd438 2.203 . S
Cd438 O437 2.203 . S
Cd438 O440 2.411 . S
Cd438 O441 2.333 . S
Cd438 O442 2.352 . S
Cd438 O446 2.277 1_554 S
Cd438 O447 2.356 . S
C439 O444 1.209 . S
C439 O446 1.226 . S
O440 Cd436 2.273 . S
O440 Cd438 2.411 . S
O440 C443 1.320 . S
O441 Cd438 2.333 . S
O441 C443 1.214 . S
O442 Cd438 2.352 . S
O442 C445 1.258 . S
C443 O440 1.320 . S
C443 O441 1.214 . S
O444 Cd436 2.277 1_556 S
O444 C439 1.209 . S
C445 O442 1.258 . S
C445 O447 1.282 . S
O446 Cd438 2.277 1_556 S
O446 C439 1.226 . S
O447 Cd438 2.356 . S
O447 C445 1.282 . S
H448 C454 0.930 . S
H449 C458 0.930 1_655 S
H450 C463 0.929 1_655 S
H451 C461 0.929 . S
H452 C456 0.929 1_655 S
H453 C462 0.929 . S
C454 H448 0.930 . S
C454 C455 1.367 . S
C454 C462 1.378 . S
C455 C454 1.367 . S
C455 C463 1.433 . S
C456 H452 0.929 1_455 S
C456 C458 1.378 . S
C456 C460 1.350 . S
C457 C460 1.463 . S
C457 C462 1.350 . S
C457 N465 1.427 . S
C458 H449 0.930 1_455 S
C458 C456 1.378 . S
C458 C459 1.367 . S
C459 C458 1.367 . S
C459 C461 1.433 . S
C460 C456 1.350 . S
C460 C457 1.463 . S
C460 N464 1.427 . S
C461 H451 0.929 . S
C461 C459 1.433 . S
C461 N464 1.384 . S
C462 H453 0.929 . S
C462 C454 1.378 . S
C462 C457 1.350 . S
C463 H450 0.929 1_455 S
C463 C455 1.433 . S
C463 N465 1.384 . S
N464 C460 1.427 . S
N464 C461 1.384 . S
N465 C457 1.427 . S
N465 C463 1.384 . S
H466 C472 0.930 . S
H467 C476 0.930 . S
H468 C481 0.929 . S
H469 C479 0.929 . S
H470 C474 0.929 . S
H471 C480 0.929 . S
C472 H466 0.930 . S
C472 C473 1.367 . S
C472 C480 1.378 . S
C473 C472 1.367 . S
C473 C481 1.433 . S
C474 H470 0.929 . S
C474 C476 1.378 . S
C474 C478 1.350 . S
C475 C478 1.463 . S
C475 C480 1.350 . S
C475 N483 1.427 . S
C476 H467 0.930 . S
C476 C474 1.378 . S
C476 C477 1.367 . S
C477 C476 1.367 . S
C477 C479 1.433 . S
C478 C474 1.350 . S
C478 C475 1.463 . S
C478 N482 1.427 . S
C479 H469 0.929 . S
C479 C477 1.433 . S
C479 N482 1.384 . S
C480 H471 0.929 . S
C480 C472 1.378 . S
C480 C475 1.350 . S
C481 H468 0.929 . S
C481 C473 1.433 . S
C481 N483 1.384 . S
N482 C478 1.427 . S
N482 C479 1.384 . S
N483 C475 1.427 . S
N483 C481 1.384 . S
H484 C490 0.930 . S
H485 C494 0.930 . S
H486 C499 0.929 . S
H487 C497 0.929 . S
H488 C492 0.929 . S
H489 C498 0.929 . S
C490 H484 0.930 . S
C490 C491 1.367 . S
C490 C498 1.378 . S
C491 C490 1.367 . S
C491 C499 1.433 . S
C492 H488 0.929 . S
C492 C494 1.378 . S
C492 C496 1.350 . S
C493 C496 1.463 . S
C493 C498 1.350 . S
C493 N501 1.427 . S
C494 H485 0.930 . S
C494 C492 1.378 . S
C494 C495 1.367 . S
C495 C494 1.367 . S
C495 C497 1.433 . S
C496 C492 1.350 . S
C496 C493 1.463 . S
C496 N500 1.427 . S
C497 H487 0.929 . S
C497 C495 1.433 . S
C497 N500 1.384 . S
C498 H489 0.929 . S
C498 C490 1.378 . S
C498 C493 1.350 . S
C499 H486 0.929 . S
C499 C491 1.433 . S
C499 N501 1.384 . S
N500 C496 1.427 . S
N500 C497 1.384 . S
N501 C493 1.427 . S
N501 C499 1.384 . S
H502 C508 0.930 . S
H503 C512 0.930 . S
H504 C517 0.929 . S
H505 C515 0.929 . S
H506 C510 0.929 . S
H507 C516 0.929 . S
C508 H502 0.930 . S
C508 C509 1.367 . S
C508 C516 1.378 . S
C509 C508 1.367 . S
C509 C517 1.433 . S
C510 H506 0.929 . S
C510 C512 1.378 . S
C510 C514 1.350 . S
C511 C514 1.463 . S
C511 C516 1.350 . S
C511 N519 1.427 . S
C512 H503 0.930 . S
C512 C510 1.378 . S
C512 C513 1.367 . S
C513 C512 1.367 . S
C513 C515 1.433 . S
C514 C510 1.350 . S
C514 C511 1.463 . S
C514 N518 1.427 . S
C515 H505 0.929 . S
C515 C513 1.433 . S
C515 N518 1.384 . S
C516 H507 0.929 . S
C516 C508 1.378 . S
C516 C511 1.350 . S
C517 H504 0.929 . S
C517 C509 1.433 . S
C517 N519 1.384 . S
N518 C514 1.427 . S
N518 C515 1.384 . S
N519 C511 1.427 . S
N519 C517 1.384 . S
H520 C526 0.930 . S
H521 C530 0.930 1_455 S
H522 C535 0.929 1_455 S
H523 C533 0.929 . S
H524 C528 0.929 1_455 S
H525 C534 0.929 . S
C526 H520 0.930 . S
C526 C527 1.367 . S
C526 C534 1.378 . S
C527 C526 1.367 . S
C527 C535 1.433 . S
C528 H524 0.929 1_655 S
C528 C530 1.378 . S
C528 C532 1.350 . S
C529 C532 1.463 . S
C529 C534 1.350 . S
C529 N537 1.427 . S
C530 H521 0.930 1_655 S
C530 C528 1.378 . S
C530 C531 1.367 . S
C531 C530 1.367 . S
C531 C533 1.433 . S
C532 C528 1.350 . S
C532 C529 1.463 . S
C532 N536 1.427 . S
C533 H523 0.929 . S
C533 C531 1.433 . S
C533 N536 1.384 . S
C534 H525 0.929 . S
C534 C526 1.378 . S
C534 C529 1.350 . S
C535 H522 0.929 1_655 S
C535 C527 1.433 . S
C535 N537 1.384 . S
N536 C532 1.427 . S
N536 C533 1.384 . S
N537 C529 1.427 . S
N537 C535 1.384 . S
H538 C544 0.930 . S
H539 C548 0.930 . S
H540 C553 0.929 . S
H541 C551 0.929 . S
H542 C546 0.929 . S
H543 C552 0.929 . S
C544 H538 0.930 . S
C544 C545 1.367 . S
C544 C552 1.378 . S
C545 C544 1.367 . S
C545 C553 1.433 . S
C546 H542 0.929 . S
C546 C548 1.378 . S
C546 C550 1.350 . S
C547 C550 1.463 . S
C547 C552 1.350 . S
C547 N555 1.427 . S
C548 H539 0.930 . S
C548 C546 1.378 . S
C548 C549 1.367 . S
C549 C548 1.367 . S
C549 C551 1.433 . S
C550 C546 1.350 . S
C550 C547 1.463 . S
C550 N554 1.427 . S
C551 H541 0.929 . S
C551 C549 1.433 . S
C551 N554 1.384 . S
C552 H543 0.929 . S
C552 C544 1.378 . S
C552 C547 1.350 . S
C553 H540 0.929 . S
C553 C545 1.433 . S
C553 N555 1.384 . S
N554 C550 1.427 . S
N554 C551 1.384 . S
N555 C547 1.427 . S
N555 C553 1.384 . S
H556 C562 0.930 . S
H557 C566 0.930 . S
H558 C571 0.929 . S
H559 C569 0.929 . S
H560 C564 0.929 . S
H561 C570 0.929 . S
C562 H556 0.930 . S
C562 C563 1.367 . S
C562 C570 1.378 . S
C563 C562 1.367 . S
C563 C571 1.433 . S
C564 H560 0.929 . S
C564 C566 1.378 . S
C564 C568 1.350 . S
C565 C568 1.463 . S
C565 C570 1.350 . S
C565 N573 1.427 . S
C566 H557 0.930 . S
C566 C564 1.378 . S
C566 C567 1.367 . S
C567 C566 1.367 . S
C567 C569 1.433 . S
C568 C564 1.350 . S
C568 C565 1.463 . S
C568 N572 1.427 . S
C569 H559 0.929 . S
C569 C567 1.433 . S
C569 N572 1.384 . S
C570 H561 0.929 . S
C570 C562 1.378 . S
C570 C565 1.350 . S
C571 H558 0.929 . S
C571 C563 1.433 . S
C571 N573 1.384 . S
N572 C568 1.427 . S
N572 C569 1.384 . S
N573 C565 1.427 . S
N573 C571 1.384 . S
H574 C580 0.930 . S
H575 C584 0.930 . S
H576 C589 0.929 . S
H577 C587 0.929 . S
H578 C582 0.929 . S
H579 C588 0.929 . S
C580 H574 0.930 . S
C580 C581 1.367 . S
C580 C588 1.378 . S
C581 C580 1.367 . S
C581 C589 1.433 . S
C582 H578 0.929 . S
C582 C584 1.378 . S
C582 C586 1.350 . S
C583 C586 1.463 . S
C583 C588 1.350 . S
C583 N591 1.427 . S
C584 H575 0.930 . S
C584 C582 1.378 . S
C584 C585 1.367 . S
C585 C584 1.367 . S
C585 C587 1.433 . S
C586 C582 1.350 . S
C586 C583 1.463 . S
C586 N590 1.427 . S
C587 H577 0.929 . S
C587 C585 1.433 . S
C587 N590 1.384 . S
C588 H579 0.929 . S
C588 C580 1.378 . S
C588 C583 1.350 . S
C589 H576 0.929 . S
C589 C581 1.433 . S
C589 N591 1.384 . S
N590 C586 1.427 . S
N590 C587 1.384 . S
N591 C583 1.427 . S
N591 C589 1.384 . S
H592 C598 0.930 . S
H593 C602 0.930 . S
H594 C607 0.929 . S
H595 C605 0.929 . S
H596 C600 0.929 . S
H597 C606 0.929 . S
C598 H592 0.930 . S
C598 C599 1.367 . S
C598 C606 1.378 . S
C599 C598 1.367 . S
C599 C607 1.433 . S
C600 H596 0.929 . S
C600 C602 1.378 . S
C600 C604 1.350 . S
C601 C604 1.463 . S
C601 C606 1.350 . S
C601 N609 1.427 . S
C602 H593 0.930 . S
C602 C600 1.378 . S
C602 C603 1.367 . S
C603 C602 1.367 . S
C603 C605 1.433 . S
C604 C600 1.350 . S
C604 C601 1.463 . S
C604 N608 1.427 . S
C605 H595 0.929 . S
C605 C603 1.433 . S
C605 N608 1.384 . S
C606 H597 0.929 . S
C606 C598 1.378 . S
C606 C601 1.350 . S
C607 H594 0.929 . S
C607 C599 1.433 . S
C607 N609 1.384 . S
N608 C604 1.427 . S
N608 C605 1.384 . S
N609 C601 1.427 . S
N609 C607 1.384 . S
H610 C616 0.930 . S
H611 C620 0.930 . S
H612 C625 0.929 . S
H613 C623 0.929 . S
H614 C618 0.929 . S
H615 C624 0.929 . S
C616 H610 0.930 . S
C616 C617 1.367 . S
C616 C624 1.378 . S
C617 C616 1.367 . S
C617 C625 1.433 . S
C618 H614 0.929 . S
C618 C620 1.378 . S
C618 C622 1.350 . S
C619 C622 1.463 . S
C619 C624 1.350 . S
C619 N627 1.427 . S
C620 H611 0.930 . S
C620 C618 1.378 . S
C620 C621 1.367 . S
C621 C620 1.367 . S
C621 C623 1.433 . S
C622 C618 1.350 . S
C622 C619 1.463 . S
C622 N626 1.427 . S
C623 H613 0.929 . S
C623 C621 1.433 . S
C623 N626 1.384 . S
C624 H615 0.929 . S
C624 C616 1.378 . S
C624 C619 1.350 . S
C625 H612 0.929 . S
C625 C617 1.433 . S
C625 N627 1.384 . S
N626 C622 1.427 . S
N626 C623 1.384 . S
N627 C619 1.427 . S
N627 C625 1.384 . S
H628 C634 0.930 . S
H629 C638 0.930 . S
H630 C643 0.929 . S
H631 C641 0.929 . S
H632 C636 0.929 . S
H633 C642 0.929 . S
C634 H628 0.930 . S
C634 C635 1.367 . S
C634 C642 1.378 . S
C635 C634 1.367 . S
C635 C643 1.433 . S
C636 H632 0.929 . S
C636 C638 1.378 . S
C636 C640 1.350 . S
C637 C640 1.463 . S
C637 C642 1.350 . S
C637 N645 1.427 . S
C638 H629 0.930 . S
C638 C636 1.378 . S
C638 C639 1.367 . S
C639 C638 1.367 . S
C639 C641 1.433 . S
C640 C636 1.350 . S
C640 C637 1.463 . S
C640 N644 1.427 . S
C641 H631 0.929 . S
C641 C639 1.433 . S
C641 N644 1.384 . S
C642 H633 0.929 . S
C642 C634 1.378 . S
C642 C637 1.350 . S
C643 H630 0.929 . S
C643 C635 1.433 . S
C643 N645 1.384 . S
N644 C640 1.427 . S
N644 C641 1.384 . S
N645 C637 1.427 . S
N645 C643 1.384 . S
H646 C652 0.930 . S
H647 C656 0.930 . S
H648 C661 0.929 . S
H649 C659 0.929 . S
H650 C654 0.929 . S
H651 C660 0.929 . S
C652 H646 0.930 . S
C652 C653 1.367 . S
C652 C660 1.378 . S
C653 C652 1.367 . S
C653 C661 1.433 . S
C654 H650 0.929 . S
C654 C656 1.378 . S
C654 C658 1.350 . S
C655 C658 1.463 . S
C655 C660 1.350 . S
C655 N663 1.427 . S
C656 H647 0.930 . S
C656 C654 1.378 . S
C656 C657 1.367 . S
C657 C656 1.367 . S
C657 C659 1.433 . S
C658 C654 1.350 . S
C658 C655 1.463 . S
C658 N662 1.427 . S
C659 H649 0.929 . S
C659 C657 1.433 . S
C659 N662 1.384 . S
C660 H651 0.929 . S
C660 C652 1.378 . S
C660 C655 1.350 . S
C661 H648 0.929 . S
C661 C653 1.433 . S
C661 N663 1.384 . S
N662 C658 1.427 . S
N662 C659 1.384 . S
N663 C655 1.427 . S
N663 C661 1.384 . S
H664 C670 0.930 . S
H665 C674 0.930 . S
H666 C679 0.929 . S
H667 C677 0.929 . S
H668 C672 0.929 . S
H669 C678 0.929 . S
C670 H664 0.930 . S
C670 C671 1.367 . S
C670 C678 1.378 . S
C671 C670 1.367 . S
C671 C679 1.433 . S
C672 H668 0.929 . S
C672 C674 1.378 . S
C672 C676 1.350 . S
C673 C676 1.463 . S
C673 C678 1.350 . S
C673 N681 1.427 . S
C674 H665 0.930 . S
C674 C672 1.378 . S
C674 C675 1.367 . S
C675 C674 1.367 . S
C675 C677 1.433 . S
C676 C672 1.350 . S
C676 C673 1.463 . S
C676 N680 1.427 . S
C677 H667 0.929 . S
C677 C675 1.433 . S
C677 N680 1.384 . S
C678 H669 0.929 . S
C678 C670 1.378 . S
C678 C673 1.350 . S
C679 H666 0.929 . S
C679 C671 1.433 . S
C679 N681 1.384 . S
N680 C676 1.427 . S
N680 C677 1.384 . S
N681 C673 1.427 . S
N681 C679 1.384 . S
H682 C688 0.930 . S
H683 C692 0.930 . S
H684 C697 0.929 . S
H685 C695 0.929 . S
H686 C690 0.929 . S
H687 C696 0.929 . S
C688 H682 0.930 . S
C688 C689 1.367 . S
C688 C696 1.378 . S
C689 C688 1.367 . S
C689 C697 1.433 . S
C690 H686 0.929 . S
C690 C692 1.378 . S
C690 C694 1.350 . S
C691 C694 1.463 . S
C691 C696 1.350 . S
C691 N699 1.427 . S
C692 H683 0.930 . S
C692 C690 1.378 . S
C692 C693 1.367 . S
C693 C692 1.367 . S
C693 C695 1.433 . S
C694 C690 1.350 . S
C694 C691 1.463 . S
C694 N698 1.427 . S
C695 H685 0.929 . S
C695 C693 1.433 . S
C695 N698 1.384 . S
C696 H687 0.929 . S
C696 C688 1.378 . S
C696 C691 1.350 . S
C697 H684 0.929 . S
C697 C689 1.433 . S
C697 N699 1.384 . S
N698 C694 1.427 . S
N698 C695 1.384 . S
N699 C691 1.427 . S
N699 C697 1.384 . S
H700 C706 0.930 . S
H701 C710 0.930 . S
H702 C715 0.929 . S
H703 C713 0.929 . S
H704 C708 0.929 . S
H705 C714 0.929 . S
C706 H700 0.930 . S
C706 C707 1.367 . S
C706 C714 1.378 . S
C707 C706 1.367 . S
C707 C715 1.433 . S
C708 H704 0.929 . S
C708 C710 1.378 . S
C708 C712 1.350 . S
C709 C712 1.463 . S
C709 C714 1.350 . S
C709 N717 1.427 . S
C710 H701 0.930 . S
C710 C708 1.378 . S
C710 C711 1.367 . S
C711 C710 1.367 . S
C711 C713 1.433 . S
C712 C708 1.350 . S
C712 C709 1.463 . S
C712 N716 1.427 . S
C713 H703 0.929 . S
C713 C711 1.433 . S
C713 N716 1.384 . S
C714 H705 0.929 . S
C714 C706 1.378 . S
C714 C709 1.350 . S
C715 H702 0.929 . S
C715 C707 1.433 . S
C715 N717 1.384 . S
N716 C712 1.427 . S
N716 C713 1.384 . S
N717 C709 1.427 . S
N717 C715 1.384 . S
H718 C724 0.930 . S
H719 C728 0.930 . S
H720 C733 0.929 . S
H721 C731 0.929 . S
H722 C726 0.929 . S
H723 C732 0.929 . S
C724 H718 0.930 . S
C724 C725 1.367 . S
C724 C732 1.378 . S
C725 C724 1.367 . S
C725 C733 1.433 . S
C726 H722 0.929 . S
C726 C728 1.378 . S
C726 C730 1.350 . S
C727 C730 1.463 . S
C727 C732 1.350 . S
C727 N735 1.427 . S
C728 H719 0.930 . S
C728 C726 1.378 . S
C728 C729 1.367 . S
C729 C728 1.367 . S
C729 C731 1.433 . S
C730 C726 1.350 . S
C730 C727 1.463 . S
C730 N734 1.427 . S
C731 H721 0.929 . S
C731 C729 1.433 . S
C731 N734 1.384 . S
C732 H723 0.929 . S
C732 C724 1.378 . S
C732 C727 1.350 . S
C733 H720 0.929 . S
C733 C725 1.433 . S
C733 N735 1.384 . S
N734 C730 1.427 . S
N734 C731 1.384 . S
N735 C727 1.427 . S
N735 C733 1.384 . S
H736 C742 0.930 . S
H737 C746 0.930 . S
H738 C751 0.929 . S
H739 C749 0.929 . S
H740 C744 0.929 . S
H741 C750 0.929 . S
C742 H736 0.930 . S
C742 C743 1.367 . S
C742 C750 1.378 . S
C743 C742 1.367 . S
C743 C751 1.433 . S
C744 H740 0.929 . S
C744 C746 1.378 . S
C744 C748 1.350 . S
C745 C748 1.463 . S
C745 C750 1.350 . S
C745 N753 1.427 . S
C746 H737 0.930 . S
C746 C744 1.378 . S
C746 C747 1.367 . S
C747 C746 1.367 . S
C747 C749 1.433 . S
C748 C744 1.350 . S
C748 C745 1.463 . S
C748 N752 1.427 . S
C749 H739 0.929 . S
C749 C747 1.433 . S
C749 N752 1.384 . S
C750 H741 0.929 . S
C750 C742 1.378 . S
C750 C745 1.350 . S
C751 H738 0.929 . S
C751 C743 1.433 . S
C751 N753 1.384 . S
N752 C748 1.427 . S
N752 C749 1.384 . S
N753 C745 1.427 . S
N753 C751 1.384 . S
H754 C760 0.930 . S
H755 C764 0.930 . S
H756 C769 0.929 . S
H757 C767 0.929 . S
H758 C762 0.929 . S
H759 C768 0.929 . S
C760 H754 0.930 . S
C760 C761 1.367 1_655 S
C760 C768 1.378 . S
C761 C760 1.367 1_455 S
C761 C769 1.433 1_455 S
C762 H758 0.929 . S
C762 C764 1.378 . S
C762 C766 1.350 . S
C763 C766 1.463 . S
C763 C768 1.350 . S
C763 N771 1.427 . S
C764 H755 0.930 . S
C764 C762 1.378 . S
C764 C765 1.367 . S
C765 C764 1.367 . S
C765 C767 1.433 . S
C766 C762 1.350 . S
C766 C763 1.463 . S
C766 N770 1.427 . S
C767 H757 0.929 . S
C767 C765 1.433 . S
C767 N770 1.384 . S
C768 H759 0.929 . S
C768 C760 1.378 . S
C768 C763 1.350 . S
C769 H756 0.929 . S
C769 C761 1.433 1_655 S
C769 N771 1.384 . S
N770 C766 1.427 . S
N770 C767 1.384 . S
N771 C763 1.427 . S
N771 C769 1.384 . S
H772 C778 0.930 . S
H773 C782 0.930 . S
H774 C787 0.929 . S
H775 C785 0.929 . S
H776 C780 0.929 . S
H777 C786 0.929 . S
C778 H772 0.930 . S
C778 C779 1.367 . S
C778 C786 1.378 . S
C779 C778 1.367 . S
C779 C787 1.433 . S
C780 H776 0.929 . S
C780 C782 1.378 . S
C780 C784 1.350 . S
C781 C784 1.463 . S
C781 C786 1.350 . S
C781 N789 1.427 . S
C782 H773 0.930 . S
C782 C780 1.378 . S
C782 C783 1.367 . S
C783 C782 1.367 . S
C783 C785 1.433 . S
C784 C780 1.350 . S
C784 C781 1.463 . S
C784 N788 1.427 . S
C785 H775 0.929 . S
C785 C783 1.433 . S
C785 N788 1.384 . S
C786 H777 0.929 . S
C786 C778 1.378 . S
C786 C781 1.350 . S
C787 H774 0.929 . S
C787 C779 1.433 . S
C787 N789 1.384 . S
N788 C784 1.427 . S
N788 C785 1.384 . S
N789 C781 1.427 . S
N789 C787 1.384 . S
H790 C796 0.930 . S
H791 C800 0.930 1_455 S
H792 C805 0.929 . S
H793 C803 0.929 . S
H794 C798 0.929 . S
H795 C804 0.929 . S
C796 H790 0.930 . S
C796 C797 1.367 . S
C796 C804 1.378 . S
C797 C796 1.367 . S
C797 C805 1.433 . S
C798 H794 0.929 . S
C798 C800 1.378 . S
C798 C802 1.350 . S
C799 C802 1.463 . S
C799 C804 1.350 . S
C799 N807 1.427 . S
C800 H791 0.930 1_655 S
C800 C798 1.378 . S
C800 C801 1.365 1_655 S
C801 C800 1.365 1_455 S
C801 C803 1.430 1_455 S
C802 C798 1.350 . S
C802 C799 1.463 . S
C802 N806 1.427 . S
C803 H793 0.929 . S
C803 C801 1.430 1_655 S
C803 N806 1.384 . S
C804 H795 0.929 . S
C804 C796 1.378 . S
C804 C799 1.350 . S
C805 H792 0.929 . S
C805 C797 1.433 . S
C805 N807 1.384 . S
N806 C802 1.427 . S
N806 C803 1.384 . S
N807 C799 1.427 . S
N807 C805 1.384 . S
H808 C814 0.930 . S
H809 C818 0.930 . S
H810 C823 0.929 . S
H811 C821 0.929 . S
H812 C816 0.929 . S
H813 C822 0.929 . S
C814 H808 0.930 . S
C814 C815 1.367 . S
C814 C822 1.378 . S
C815 C814 1.367 . S
C815 C823 1.433 . S
C816 H812 0.929 . S
C816 C818 1.378 . S
C816 C820 1.350 . S
C817 C820 1.463 . S
C817 C822 1.350 . S
C817 N825 1.427 . S
C818 H809 0.930 . S
C818 C816 1.378 . S
C818 C819 1.367 . S
C819 C818 1.367 . S
C819 C821 1.433 . S
C820 C816 1.350 . S
C820 C817 1.463 . S
C820 N824 1.427 . S
C821 H811 0.929 . S
C821 C819 1.433 . S
C821 N824 1.384 . S
C822 H813 0.929 . S
C822 C814 1.378 . S
C822 C817 1.350 . S
C823 H810 0.929 . S
C823 C815 1.433 . S
C823 N825 1.384 . S
N824 C820 1.427 . S
N824 C821 1.384 . S
N825 C817 1.427 . S
N825 C823 1.384 . S
H826 C832 0.930 . S
H827 C836 0.930 . S
H828 C841 0.929 1_655 S
H829 C839 0.929 . S
H830 C834 0.929 . S
H831 C840 0.929 . S
C832 H826 0.930 . S
C832 C833 1.368 . S
C832 C840 1.378 . S
C833 C832 1.368 . S
C833 C841 1.434 . S
C834 H830 0.929 . S
C834 C836 1.378 . S
C834 C838 1.350 . S
C835 C838 1.463 . S
C835 C840 1.350 . S
C835 N843 1.427 . S
C836 H827 0.930 . S
C836 C834 1.378 . S
C836 C837 1.367 . S
C837 C836 1.367 . S
C837 C839 1.433 . S
C838 C834 1.350 . S
C838 C835 1.463 . S
C838 N842 1.427 . S
C839 H829 0.929 . S
C839 C837 1.433 . S
C839 N842 1.384 . S
C840 H831 0.929 . S
C840 C832 1.378 . S
C840 C835 1.350 . S
C841 H828 0.929 1_455 S
C841 C833 1.434 . S
C841 N843 1.384 . S
N842 C838 1.427 . S
N842 C839 1.384 . S
N843 C835 1.427 . S
N843 C841 1.384 . S
H844 C850 0.930 . S
H845 C854 0.930 . S
H846 C859 0.929 . S
H847 C857 0.929 . S
H848 C852 0.929 . S
H849 C858 0.929 . S
C850 H844 0.930 . S
C850 C851 1.367 . S
C850 C858 1.378 . S
C851 C850 1.367 . S
C851 C859 1.433 . S
C852 H848 0.929 . S
C852 C854 1.378 . S
C852 C856 1.350 . S
C853 C856 1.463 . S
C853 C858 1.350 . S
C853 N861 1.427 . S
C854 H845 0.930 . S
C854 C852 1.378 . S
C854 C855 1.367 . S
C855 C854 1.367 . S
C855 C857 1.433 . S
C856 C852 1.350 . S
C856 C853 1.463 . S
C856 N860 1.427 . S
C857 H847 0.929 . S
C857 C855 1.433 . S
C857 N860 1.384 . S
C858 H849 0.929 . S
C858 C850 1.378 . S
C858 C853 1.350 . S
C859 H846 0.929 . S
C859 C851 1.433 . S
C859 N861 1.384 . S
N860 C856 1.427 . S
N860 C857 1.384 . S
N861 C853 1.427 . S
N861 C859 1.384 . S
H862 C868 0.930 . S
H863 C872 0.930 . S
H864 C877 0.929 1_655 S
H865 C875 0.929 . S
H866 C870 0.929 . S
H867 C876 0.929 . S
C868 H862 0.930 . S
C868 C869 1.367 . S
C868 C876 1.378 . S
C869 C868 1.367 . S
C869 C877 1.433 . S
C870 H866 0.929 . S
C870 C872 1.378 . S
C870 C874 1.350 . S
C871 C874 1.463 . S
C871 C876 1.350 . S
C871 N879 1.427 . S
C872 H863 0.930 . S
C872 C870 1.378 . S
C872 C873 1.367 . S
C873 C872 1.367 . S
C873 C875 1.433 . S
C874 C870 1.350 . S
C874 C871 1.463 . S
C874 N878 1.427 . S
C875 H865 0.929 . S
C875 C873 1.433 . S
C875 N878 1.384 . S
C876 H867 0.929 . S
C876 C868 1.378 . S
C876 C871 1.350 . S
C877 H864 0.929 1_455 S
C877 C869 1.433 . S
C877 N879 1.384 . S
N878 C874 1.427 . S
N878 C875 1.384 . S
N879 C871 1.427 . S
N879 C877 1.384 . S
H880 C886 0.930 . S
H881 C890 0.930 . S
H882 C895 0.929 . S
H883 C893 0.929 . S
H884 C888 0.929 . S
H885 C894 0.929 . S
C886 H880 0.930 . S
C886 C887 1.367 . S
C886 C894 1.378 . S
C887 C886 1.367 . S
C887 C895 1.433 . S
C888 H884 0.929 . S
C888 C890 1.378 . S
C888 C892 1.350 . S
C889 C892 1.463 . S
C889 C894 1.350 . S
C889 N897 1.427 . S
C890 H881 0.930 . S
C890 C888 1.378 . S
C890 C891 1.367 . S
C891 C890 1.367 . S
C891 C893 1.433 . S
C892 C888 1.350 . S
C892 C889 1.463 . S
C892 N896 1.427 . S
C893 H883 0.929 . S
C893 C891 1.433 . S
C893 N896 1.384 . S
C894 H885 0.929 . S
C894 C886 1.378 . S
C894 C889 1.350 . S
C895 H882 0.929 . S
C895 C887 1.433 . S
C895 N897 1.384 . S
N896 C892 1.427 . S
N896 C893 1.384 . S
N897 C889 1.427 . S
N897 C895 1.384 . S
H898 C904 0.930 . S
H899 C908 0.930 . S
H900 C913 0.929 . S
H901 C911 0.932 . S
H902 C906 0.929 . S
H903 C912 0.929 . S
C904 H898 0.930 . S
C904 C905 1.367 . S
C904 C912 1.378 . S
C905 C904 1.367 . S
C905 C913 1.433 . S
C906 H902 0.929 . S
C906 C908 1.378 . S
C906 C910 1.350 . S
C907 C910 1.463 . S
C907 C912 1.350 . S
C907 N915 1.427 . S
C908 H899 0.930 . S
C908 C906 1.378 . S
C908 C909 1.367 1_655 S
C909 C908 1.367 1_455 S
C909 C911 1.434 1_455 S
C910 C906 1.350 . S
C910 C907 1.463 . S
C910 N914 1.427 . S
C911 H901 0.932 . S
C911 C909 1.434 1_655 S
C911 N914 1.384 . S
C912 H903 0.929 . S
C912 C904 1.378 . S
C912 C907 1.350 . S
C913 H900 0.929 . S
C913 C905 1.433 . S
C913 N915 1.384 . S
N914 C910 1.427 . S
N914 C911 1.384 . S
N915 C907 1.427 . S
N915 C913 1.384 . S
H916 C922 0.930 . S
H917 C926 0.930 . S
H918 C931 0.929 . S
H919 C929 0.929 . S
H920 C924 0.929 . S
H921 C930 0.929 . S
C922 H916 0.930 . S
C922 C923 1.367 . S
C922 C930 1.378 . S
C923 C922 1.367 . S
C923 C931 1.433 . S
C924 H920 0.929 . S
C924 C926 1.378 . S
C924 C928 1.350 . S
C925 C928 1.463 . S
C925 C930 1.350 . S
C925 N933 1.427 . S
C926 H917 0.930 . S
C926 C924 1.378 . S
C926 C927 1.367 . S
C927 C926 1.367 . S
C927 C929 1.433 . S
C928 C924 1.350 . S
C928 C925 1.463 . S
C928 N932 1.427 . S
C929 H919 0.929 . S
C929 C927 1.433 . S
C929 N932 1.384 . S
C930 H921 0.929 . S
C930 C922 1.378 . S
C930 C925 1.350 . S
C931 H918 0.929 . S
C931 C923 1.433 . S
C931 N933 1.384 . S
N932 C928 1.427 . S
N932 C929 1.384 . S
N933 C925 1.427 . S
N933 C931 1.384 . S
H934 C940 0.930 . S
H935 C944 0.930 . S
H936 C949 0.929 . S
H937 C947 0.929 1_455 S
H938 C942 0.929 . S
H939 C948 0.929 . S
C940 H934 0.930 . S
C940 C941 1.367 . S
C940 C948 1.378 . S
C941 C940 1.367 . S
C941 C949 1.433 . S
C942 H938 0.929 . S
C942 C944 1.378 . S
C942 C946 1.350 . S
C943 C946 1.463 . S
C943 C948 1.350 . S
C943 N951 1.427 . S
C944 H935 0.930 . S
C944 C942 1.378 . S
C944 C945 1.365 . S
C945 C944 1.365 . S
C945 C947 1.433 . S
C946 C942 1.350 . S
C946 C943 1.463 . S
C946 N950 1.427 . S
C947 H937 0.929 1_655 S
C947 C945 1.433 . S
C947 N950 1.384 . S
C948 H939 0.929 . S
C948 C940 1.378 . S
C948 C943 1.350 . S
C949 H936 0.929 . S
C949 C941 1.433 . S
C949 N951 1.384 . S
N950 C946 1.427 . S
N950 C947 1.384 . S
N951 C943 1.427 . S
N951 C949 1.384 . S
H952 C958 0.930 . S
H953 C962 0.930 . S
H954 C967 0.929 . S
H955 C965 0.929 . S
H956 C960 0.929 . S
H957 C966 0.929 . S
C958 H952 0.930 . S
C958 C959 1.367 . S
C958 C966 1.378 . S
C959 C958 1.367 . S
C959 C967 1.433 . S
C960 H956 0.929 . S
C960 C962 1.378 . S
C960 C964 1.350 . S
C961 C964 1.463 . S
C961 C966 1.350 . S
C961 N969 1.427 . S
C962 H953 0.930 . S
C962 C960 1.378 . S
C962 C963 1.367 . S
C963 C962 1.367 . S
C963 C965 1.433 . S
C964 C960 1.350 . S
C964 C961 1.463 . S
C964 N968 1.427 . S
C965 H955 0.929 . S
C965 C963 1.433 . S
C965 N968 1.384 . S
C966 H957 0.929 . S
C966 C958 1.378 . S
C966 C961 1.350 . S
C967 H954 0.929 . S
C967 C959 1.433 . S
C967 N969 1.384 . S
N968 C964 1.427 . S
N968 C965 1.384 . S
N969 C961 1.427 . S
N969 C967 1.384 . S
H970 C976 0.930 . S
H971 C980 0.930 . S
H972 C985 0.929 . S
H973 C983 0.940 . S
H974 C978 0.929 . S
H975 C984 0.929 . S
C976 H970 0.930 . S
C976 C977 1.367 . S
C976 C984 1.378 . S
C977 C976 1.367 . S
C977 C985 1.433 . S
C978 H974 0.929 . S
C978 C980 1.378 . S
C978 C982 1.350 . S
C979 C982 1.463 . S
C979 C984 1.350 . S
C979 N987 1.427 . S
C980 H971 0.930 . S
C980 C978 1.378 . S
C980 C981 1.367 1_455 S
C981 C980 1.367 1_655 S
C981 C983 1.434 1_655 S
C982 C978 1.350 . S
C982 C979 1.463 . S
C982 N986 1.427 . S
C983 H973 0.940 . S
C983 C981 1.434 1_455 S
C983 N986 1.384 . S
C984 H975 0.929 . S
C984 C976 1.378 . S
C984 C979 1.350 . S
C985 H972 0.929 . S
C985 C977 1.433 . S
C985 N987 1.384 . S
N986 C982 1.427 . S
N986 C983 1.384 . S
N987 C979 1.427 . S
N987 C985 1.384 . S
H988 C994 0.930 . S
H989 C998 0.930 . S
H990 C1003 0.929 . S
H991 C1001 0.929 . S
H992 C996 0.929 . S
H993 C1002 0.929 . S
C994 H988 0.930 . S
C994 C995 1.367 . S
C994 C1002 1.378 . S
C995 C994 1.367 . S
C995 C1003 1.433 . S
C996 H992 0.929 . S
C996 C998 1.378 . S
C996 C1000 1.350 . S
C997 C1000 1.463 . S
C997 C1002 1.350 . S
C997 N1005 1.427 . S
C998 H989 0.930 . S
C998 C996 1.378 . S
C998 C999 1.367 . S
C999 C998 1.367 . S
C999 C1001 1.433 . S
C1000 C996 1.350 . S
C1000 C997 1.463 . S
C1000 N1004 1.427 . S
C1001 H991 0.929 . S
C1001 C999 1.433 . S
C1001 N1004 1.384 . S
C1002 H993 0.929 . S
C1002 C994 1.378 . S
C1002 C997 1.350 . S
C1003 H990 0.929 . S
C1003 C995 1.433 . S
C1003 N1005 1.384 . S
N1004 C1000 1.427 . S
N1004 C1001 1.384 . S
N1005 C997 1.427 . S
N1005 C1003 1.384 . S
H1006 C1012 0.930 1_655 S
H1007 C1016 0.930 . S
H1008 C1021 0.929 . S
H1009 C1019 0.929 . S
H1010 C1014 0.929 . S
H1011 C1020 0.929 . S
C1012 H1006 0.930 1_455 S
C1012 C1013 1.365 1_455 S
C1012 C1020 1.378 . S
C1013 C1012 1.365 1_655 S
C1013 C1021 1.427 1_655 S
C1014 H1010 0.929 . S
C1014 C1016 1.378 . S
C1014 C1018 1.350 . S
C1015 C1018 1.463 . S
C1015 C1020 1.350 . S
C1015 N1023 1.427 . S
C1016 H1007 0.930 . S
C1016 C1014 1.378 . S
C1016 C1017 1.367 . S
C1017 C1016 1.367 . S
C1017 C1019 1.433 . S
C1018 C1014 1.350 . S
C1018 C1015 1.463 . S
C1018 N1022 1.427 . S
C1019 H1009 0.929 . S
C1019 C1017 1.433 . S
C1019 N1022 1.384 . S
C1020 H1011 0.929 . S
C1020 C1012 1.378 . S
C1020 C1015 1.350 . S
C1021 H1008 0.929 . S
C1021 C1013 1.427 1_455 S
C1021 N1023 1.384 . S
N1022 C1018 1.427 . S
N1022 C1019 1.384 . S
N1023 C1015 1.427 . S
N1023 C1021 1.384 . S
H1024 C1030 0.930 . S
H1025 C1034 0.930 . S
H1026 C1039 0.929 . S
H1027 C1037 0.929 . S
H1028 C1032 0.929 . S
H1029 C1038 0.929 . S
C1030 H1024 0.930 . S
C1030 C1031 1.367 . S
C1030 C1038 1.378 1_655 S
C1031 C1030 1.367 . S
C1031 C1039 1.433 . S
C1032 H1028 0.929 . S
C1032 C1034 1.378 1_655 S
C1032 C1036 1.350 1_655 S
C1033 C1036 1.463 1_655 S
C1033 C1038 1.350 1_655 S
C1033 N1041 1.427 . S
C1034 H1025 0.930 . S
C1034 C1032 1.378 1_455 S
C1034 C1035 1.367 . S
C1035 C1034 1.367 . S
C1035 C1037 1.433 . S
C1036 C1032 1.350 1_455 S
C1036 C1033 1.463 1_455 S
C1036 N1040 1.427 . S
C1037 H1027 0.929 . S
C1037 C1035 1.433 . S
C1037 N1040 1.384 . S
C1038 H1029 0.929 . S
C1038 C1030 1.378 1_455 S
C1038 C1033 1.350 1_455 S
C1039 H1026 0.929 . S
C1039 C1031 1.433 . S
C1039 N1041 1.384 . S
N1040 C1036 1.427 . S
N1040 C1037 1.384 . S
N1041 C1033 1.427 . S
N1041 C1039 1.384 . S
H1042 C1048 0.930 . S
H1043 C1052 0.930 . S
H1044 C1057 0.929 . S
H1045 C1055 0.929 . S
H1046 C1050 0.954 . S
H1047 C1056 0.954 . S
C1048 H1042 0.930 . S
C1048 C1049 1.367 . S
C1048 C1056 1.378 . S
C1049 C1048 1.367 . S
C1049 C1057 1.433 . S
C1050 H1046 0.954 . S
C1050 C1052 1.378 . S
C1050 C1054 1.350 . S
C1051 C1054 1.463 1_565 S
C1051 C1056 1.350 . S
C1051 N1059 1.427 . S
C1052 H1043 0.930 . S
C1052 C1050 1.378 . S
C1052 C1053 1.367 . S
C1053 C1052 1.367 . S
C1053 C1055 1.433 . S
C1054 C1050 1.350 . S
C1054 C1051 1.463 1_545 S
C1054 N1058 1.427 . S
C1055 H1045 0.929 . S
C1055 C1053 1.433 . S
C1055 N1058 1.384 . S
C1056 H1047 0.954 . S
C1056 C1048 1.378 . S
C1056 C1051 1.350 . S
C1057 H1044 0.929 . S
C1057 C1049 1.433 . S
C1057 N1059 1.384 . S
N1058 C1054 1.427 . S
N1058 C1055 1.384 . S
N1059 C1051 1.427 . S
N1059 C1057 1.384 . S
H1060 C1066 0.930 . S
H1061 C1070 0.930 . S
H1062 C1075 0.929 . S
H1063 C1073 0.929 . S
H1064 C1068 0.929 1_554 S
H1065 C1074 0.929 1_556 S
C1066 H1060 0.930 . S
C1066 C1067 1.367 1_455 S
C1066 C1074 1.378 . S
C1067 C1066 1.367 1_655 S
C1067 C1075 1.433 . S
C1068 H1064 0.929 1_556 S
C1068 C1070 1.378 . S
C1068 C1072 1.350 1_655 S
C1069 C1072 1.463 1_644 S
C1069 C1074 1.350 1_655 S
C1069 N1077 1.427 . S
C1070 H1061 0.930 . S
C1070 C1068 1.378 . S
C1070 C1071 1.367 1_655 S
C1071 C1070 1.367 1_455 S
C1071 C1073 1.433 . S
C1072 C1068 1.350 1_455 S
C1072 C1069 1.463 1_466 S
C1072 N1076 1.427 . S
C1073 H1063 0.929 . S
C1073 C1071 1.433 . S
C1073 N1076 1.384 . S
C1074 H1065 0.929 1_554 S
C1074 C1066 1.378 . S
C1074 C1069 1.350 1_455 S
C1075 H1062 0.929 . S
C1075 C1067 1.433 . S
C1075 N1077 1.384 . S
N1076 C1072 1.427 . S
N1076 C1073 1.384 . S
N1077 C1069 1.427 . S
N1077 C1075 1.384 . S
H1078 C1084 0.930 . S
H1079 C1088 0.930 . S
H1080 C1093 0.929 . S
H1081 C1091 0.929 . S
H1082 C1086 0.929 1_554 S
H1083 C1092 0.929 1_556 S
C1084 H1078 0.930 . S
C1084 C1085 1.367 . S
C1084 C1092 1.378 . S
C1085 C1084 1.367 . S
C1085 C1093 1.433 . S
C1086 H1082 0.929 1_556 S
C1086 C1088 1.378 . S
C1086 C1090 1.350 . S
C1087 C1090 1.463 1_554 S
C1087 C1092 1.350 . S
C1087 N1095 1.427 . S
C1088 H1079 0.930 . S
C1088 C1086 1.378 . S
C1088 C1089 1.367 . S
C1089 C1088 1.367 . S
C1089 C1091 1.433 . S
C1090 C1086 1.350 . S
C1090 C1087 1.463 1_556 S
C1090 N1094 1.427 . S
C1091 H1081 0.929 . S
C1091 C1089 1.433 . S
C1091 N1094 1.384 . S
C1092 H1083 0.929 1_554 S
C1092 C1084 1.378 . S
C1092 C1087 1.350 . S
C1093 H1080 0.929 . S
C1093 C1085 1.433 . S
C1093 N1095 1.384 . S
N1094 C1090 1.427 . S
N1094 C1091 1.384 . S
N1095 C1087 1.427 . S
N1095 C1093 1.384 . S
H1096 C1102 0.930 . S
H1097 C1106 0.930 . S
H1098 C1111 0.929 . S
H1099 C1109 0.929 . S
H1100 C1104 0.929 . S
H1101 C1110 0.929 . S
C1102 H1096 0.930 . S
C1102 C1103 1.367 . S
C1102 C1110 1.378 . S
C1103 C1102 1.367 . S
C1103 C1111 1.433 1_655 S
C1104 H1100 0.929 . S
C1104 C1106 1.378 . S
C1104 C1108 1.350 . S
C1105 C1108 1.463 1_655 S
C1105 C1110 1.350 . S
C1105 N1113 1.427 1_655 S
C1106 H1097 0.930 . S
C1106 C1104 1.378 . S
C1106 C1107 1.367 . S
C1107 C1106 1.367 . S
C1107 C1109 1.433 1_455 S
C1108 C1104 1.350 . S
C1108 C1105 1.463 1_455 S
C1108 N1112 1.427 1_455 S
C1109 H1099 0.929 . S
C1109 C1107 1.433 1_655 S
C1109 N1112 1.384 . S
C1110 H1101 0.929 . S
C1110 C1102 1.378 . S
C1110 C1105 1.350 . S
C1111 H1098 0.929 . S
C1111 C1103 1.433 1_455 S
C1111 N1113 1.384 . S
N1112 C1108 1.427 1_655 S
N1112 C1109 1.384 . S
N1113 C1105 1.427 1_455 S
N1113 C1111 1.384 . S
H1114 C1120 0.930 . S
H1115 C1124 0.930 . S
H1116 C1129 0.929 . S
H1117 C1127 0.929 . S
H1118 C1122 0.929 . S
H1119 C1128 0.929 . S
C1120 H1114 0.930 . S
C1120 C1121 1.367 . S
C1120 C1128 1.378 . S
C1121 C1120 1.367 . S
C1121 C1129 1.433 . S
C1122 H1118 0.929 . S
C1122 C1124 1.378 . S
C1122 C1126 1.350 . S
C1123 C1126 1.463 1_565 S
C1123 C1128 1.350 . S
C1123 N1131 1.427 . S
C1124 H1115 0.930 . S
C1124 C1122 1.378 . S
C1124 C1125 1.367 . S
C1125 C1124 1.367 . S
C1125 C1127 1.433 . S
C1126 C1122 1.350 . S
C1126 C1123 1.463 1_545 S
C1126 N1130 1.427 . S
C1127 H1117 0.929 . S
C1127 C1125 1.433 . S
C1127 N1130 1.384 . S
C1128 H1119 0.929 . S
C1128 C1120 1.378 . S
C1128 C1123 1.350 . S
C1129 H1116 0.929 . S
C1129 C1121 1.433 . S
C1129 N1131 1.384 . S
N1130 C1126 1.427 . S
N1130 C1127 1.384 . S
N1131 C1123 1.427 . S
N1131 C1129 1.384 . S
H1132 C1138 0.930 . S
H1133 C1142 0.930 . S
H1134 C1147 0.929 . S
H1135 C1145 0.929 . S
H1136 C1140 0.929 . S
H1137 C1146 0.929 . S
C1138 H1132 0.930 . S
C1138 C1139 1.367 . S
C1138 C1146 1.378 . S
C1139 C1138 1.367 . S
C1139 C1147 1.433 . S
C1140 H1136 0.929 . S
C1140 C1142 1.378 . S
C1140 C1144 1.350 . S
C1141 C1144 1.463 1_556 S
C1141 C1146 1.350 . S
C1141 N1149 1.427 . S
C1142 H1133 0.930 . S
C1142 C1140 1.378 . S
C1142 C1143 1.367 . S
C1143 C1142 1.367 . S
C1143 C1145 1.433 . S
C1144 C1140 1.350 . S
C1144 C1141 1.463 1_554 S
C1144 N1148 1.427 . S
C1145 H1135 0.929 . S
C1145 C1143 1.433 . S
C1145 N1148 1.384 . S
C1146 H1137 0.929 . S
C1146 C1138 1.378 . S
C1146 C1141 1.350 . S
C1147 H1134 0.929 . S
C1147 C1139 1.433 . S
C1147 N1149 1.384 . S
N1148 C1144 1.427 . S
N1148 C1145 1.384 . S
N1149 C1141 1.427 . S
N1149 C1147 1.384 . S
H1150 C1156 0.930 . S
H1151 C1160 0.930 . S
H1152 C1165 0.929 . S
H1153 C1163 0.929 . S
H1154 C1158 0.929 . S
H1155 C1164 0.929 . S
C1156 H1150 0.930 . S
C1156 C1157 1.367 . S
C1156 C1164 1.378 . S
C1157 C1156 1.367 . S
C1157 C1165 1.433 . S
C1158 H1154 0.929 . S
C1158 C1160 1.378 . S
C1158 C1162 1.350 . S
C1159 C1162 1.463 . S
C1159 C1164 1.350 . S
C1159 N1167 1.427 . S
C1160 H1151 0.930 . S
C1160 C1158 1.378 . S
C1160 C1161 1.367 . S
C1161 C1160 1.367 . S
C1161 C1163 1.433 . S
C1162 C1158 1.350 . S
C1162 C1159 1.463 . S
C1162 N1166 1.427 . S
C1163 H1153 0.929 . S
C1163 C1161 1.433 . S
C1163 N1166 1.384 . S
C1164 H1155 0.929 . S
C1164 C1156 1.378 . S
C1164 C1159 1.350 . S
C1165 H1152 0.929 . S
C1165 C1157 1.433 . S
C1165 N1167 1.384 . S
N1166 C1162 1.427 . S
N1166 C1163 1.384 . S
N1167 C1159 1.427 . S
N1167 C1165 1.384 . S
H1168 C1174 0.930 . S
H1169 C1178 0.930 . S
H1170 C1183 0.929 . S
H1171 C1181 0.929 . S
H1172 C1176 0.929 . S
H1173 C1182 0.929 . S
C1174 H1168 0.930 . S
C1174 C1175 1.367 1_655 S
C1174 C1182 1.378 . S
C1175 C1174 1.367 1_455 S
C1175 C1183 1.433 . S
C1176 H1172 0.929 . S
C1176 C1178 1.378 . S
C1176 C1180 1.350 1_455 S
C1177 C1180 1.463 1_455 S
C1177 C1182 1.350 1_455 S
C1177 N1185 1.427 . S
C1178 H1169 0.930 . S
C1178 C1176 1.378 . S
C1178 C1179 1.367 1_455 S
C1179 C1178 1.367 1_655 S
C1179 C1181 1.433 . S
C1180 C1176 1.350 1_655 S
C1180 C1177 1.463 1_655 S
C1180 N1184 1.427 . S
C1181 H1171 0.929 . S
C1181 C1179 1.433 . S
C1181 N1184 1.384 . S
C1182 H1173 0.929 . S
C1182 C1174 1.378 . S
C1182 C1177 1.350 1_655 S
C1183 H1170 0.929 . S
C1183 C1175 1.433 . S
C1183 N1185 1.384 . S
N1184 C1180 1.427 . S
N1184 C1181 1.384 . S
N1185 C1177 1.427 . S
N1185 C1183 1.384 . S
H1186 C1192 0.930 . S
H1187 C1196 0.930 . S
H1188 C1201 0.929 . S
H1189 C1199 0.929 . S
H1190 C1194 0.929 . S
H1191 C1200 0.929 . S
C1192 H1186 0.930 . S
C1192 C1193 1.367 . S
C1192 C1200 1.378 . S
C1193 C1192 1.367 . S
C1193 C1201 1.433 . S
C1194 H1190 0.929 . S
C1194 C1196 1.378 . S
C1194 C1198 1.350 . S
C1195 C1198 1.463 . S
C1195 C1200 1.350 . S
C1195 N1203 1.427 . S
C1196 H1187 0.930 . S
C1196 C1194 1.378 . S
C1196 C1197 1.367 . S
C1197 C1196 1.367 . S
C1197 C1199 1.433 . S
C1198 C1194 1.350 . S
C1198 C1195 1.463 . S
C1198 N1202 1.427 . S
C1199 H1189 0.929 . S
C1199 C1197 1.433 . S
C1199 N1202 1.384 . S
C1200 H1191 0.929 . S
C1200 C1192 1.378 . S
C1200 C1195 1.350 . S
C1201 H1188 0.929 . S
C1201 C1193 1.433 . S
C1201 N1203 1.384 . S
N1202 C1198 1.427 . S
N1202 C1199 1.384 . S
N1203 C1195 1.427 . S
N1203 C1201 1.384 . S
H1204 C1210 0.930 . S
H1205 C1214 0.930 . S
H1206 C1219 0.929 . S
H1207 C1217 0.929 . S
H1208 C1212 0.929 . S
H1209 C1218 0.929 . S
C1210 H1204 0.930 . S
C1210 C1211 1.367 . S
C1210 C1218 1.378 . S
C1211 C1210 1.367 . S
C1211 C1219 1.433 . S
C1212 H1208 0.929 . S
C1212 C1214 1.378 . S
C1212 C1216 1.350 . S
C1213 C1216 1.463 . S
C1213 C1218 1.350 . S
C1213 N1221 1.427 . S
C1214 H1205 0.930 . S
C1214 C1212 1.378 . S
C1214 C1215 1.367 . S
C1215 C1214 1.367 . S
C1215 C1217 1.433 . S
C1216 C1212 1.350 . S
C1216 C1213 1.463 . S
C1216 N1220 1.427 . S
C1217 H1207 0.929 . S
C1217 C1215 1.433 . S
C1217 N1220 1.384 . S
C1218 H1209 0.929 . S
C1218 C1210 1.378 . S
C1218 C1213 1.350 . S
C1219 H1206 0.929 . S
C1219 C1211 1.433 . S
C1219 N1221 1.384 . S
N1220 C1216 1.427 . S
N1220 C1217 1.384 . S
N1221 C1213 1.427 . S
N1221 C1219 1.384 . S
H1222 C1228 0.930 . S
H1223 C1232 0.930 . S
H1224 C1237 0.929 . S
H1225 C1235 0.929 . S
H1226 C1230 0.929 . S
H1227 C1236 0.929 . S
C1228 H1222 0.930 . S
C1228 C1229 1.367 . S
C1228 C1236 1.378 . S
C1229 C1228 1.367 . S
C1229 C1237 1.433 . S
C1230 H1226 0.929 . S
C1230 C1232 1.378 . S
C1230 C1234 1.350 . S
C1231 C1234 1.463 . S
C1231 C1236 1.350 . S
C1231 N1239 1.427 . S
C1232 H1223 0.930 . S
C1232 C1230 1.378 . S
C1232 C1233 1.367 . S
C1233 C1232 1.367 . S
C1233 C1235 1.433 . S
C1234 C1230 1.350 . S
C1234 C1231 1.463 . S
C1234 N1238 1.427 . S
C1235 H1225 0.929 . S
C1235 C1233 1.433 . S
C1235 N1238 1.384 . S
C1236 H1227 0.929 . S
C1236 C1228 1.378 . S
C1236 C1231 1.350 . S
C1237 H1224 0.929 . S
C1237 C1229 1.433 . S
C1237 N1239 1.384 . S
N1238 C1234 1.427 . S
N1238 C1235 1.384 . S
N1239 C1231 1.427 . S
N1239 C1237 1.384 . S
H1240 C1246 0.930 . S
H1241 C1250 0.930 . S
H1242 C1255 0.929 . S
H1243 C1253 0.929 . S
H1244 C1248 0.929 . S
H1245 C1254 0.929 . S
C1246 H1240 0.930 . S
C1246 C1247 1.367 . S
C1246 C1254 1.378 . S
C1247 C1246 1.367 . S
C1247 C1255 1.433 . S
C1248 H1244 0.929 . S
C1248 C1250 1.378 . S
C1248 C1252 1.350 . S
C1249 C1252 1.463 . S
C1249 C1254 1.350 . S
C1249 N1257 1.427 . S
C1250 H1241 0.930 . S
C1250 C1248 1.378 . S
C1250 C1251 1.367 . S
C1251 C1250 1.367 . S
C1251 C1253 1.433 . S
C1252 C1248 1.350 . S
C1252 C1249 1.463 . S
C1252 N1256 1.427 . S
C1253 H1243 0.929 . S
C1253 C1251 1.433 . S
C1253 N1256 1.384 . S
C1254 H1245 0.929 . S
C1254 C1246 1.378 . S
C1254 C1249 1.350 . S
C1255 H1242 0.929 . S
C1255 C1247 1.433 . S
C1255 N1257 1.384 . S
N1256 C1252 1.427 . S
N1256 C1253 1.384 . S
N1257 C1249 1.427 . S
N1257 C1255 1.384 . S
H1258 C1264 0.930 . S
H1259 C1268 0.930 . S
H1260 C1273 0.929 . S
H1261 C1271 0.929 . S
H1262 C1266 0.929 . S
H1263 C1272 0.929 . S
C1264 H1258 0.930 . S
C1264 C1265 1.367 . S
C1264 C1272 1.378 . S
C1265 C1264 1.367 . S
C1265 C1273 1.433 . S
C1266 H1262 0.929 . S
C1266 C1268 1.378 . S
C1266 C1270 1.350 . S
C1267 C1270 1.463 1_545 S
C1267 C1272 1.350 . S
C1267 N1275 1.427 . S
C1268 H1259 0.930 . S
C1268 C1266 1.378 . S
C1268 C1269 1.367 . S
C1269 C1268 1.367 . S
C1269 C1271 1.433 . S
C1270 C1266 1.350 . S
C1270 C1267 1.463 1_565 S
C1270 N1274 1.427 . S
C1271 H1261 0.929 . S
C1271 C1269 1.433 . S
C1271 N1274 1.384 . S
C1272 H1263 0.929 . S
C1272 C1264 1.378 . S
C1272 C1267 1.350 . S
C1273 H1260 0.929 . S
C1273 C1265 1.433 . S
C1273 N1275 1.384 . S
N1274 C1270 1.427 . S
N1274 C1271 1.384 . S
N1275 C1267 1.427 . S
N1275 C1273 1.384 . S
H1276 C1282 0.930 . S
H1277 C1286 0.930 . S
H1278 C1291 0.929 . S
H1279 C1289 0.929 . S
H1280 C1284 0.929 . S
H1281 C1290 0.929 . S
C1282 H1276 0.930 . S
C1282 C1283 1.367 . S
C1282 C1290 1.378 . S
C1283 C1282 1.367 . S
C1283 C1291 1.433 . S
C1284 H1280 0.929 . S
C1284 C1286 1.378 . S
C1284 C1288 1.350 . S
C1285 C1288 1.463 . S
C1285 C1290 1.350 . S
C1285 N1293 1.427 . S
C1286 H1277 0.930 . S
C1286 C1284 1.378 . S
C1286 C1287 1.367 . S
C1287 C1286 1.367 . S
C1287 C1289 1.433 . S
C1288 C1284 1.350 . S
C1288 C1285 1.463 . S
C1288 N1292 1.427 . S
C1289 H1279 0.929 . S
C1289 C1287 1.433 . S
C1289 N1292 1.384 . S
C1290 H1281 0.929 . S
C1290 C1282 1.378 . S
C1290 C1285 1.350 . S
C1291 H1278 0.929 . S
C1291 C1283 1.433 . S
C1291 N1293 1.384 . S
N1292 C1288 1.427 . S
N1292 C1289 1.384 . S
N1293 C1285 1.427 . S
N1293 C1291 1.384 . S
H1294 C1300 0.930 1_554 S
H1295 C1304 0.930 1_556 S
H1296 C1309 0.929 . S
H1297 C1307 0.929 . S
H1298 C1302 0.929 . S
H1299 C1308 0.929 . S
C1300 H1294 0.930 1_556 S
C1300 C1301 1.367 . S
C1300 C1308 1.378 1_556 S
C1301 C1300 1.367 . S
C1301 C1309 1.433 . S
C1302 H1298 0.929 . S
C1302 C1304 1.378 1_556 S
C1302 C1306 1.350 1_556 S
C1303 C1306 1.463 1_556 S
C1303 C1308 1.350 1_556 S
C1303 N1311 1.427 . S
C1304 H1295 0.930 1_554 S
C1304 C1302 1.378 1_554 S
C1304 C1305 1.367 . S
C1305 C1304 1.367 . S
C1305 C1307 1.433 . S
C1306 C1302 1.350 1_554 S
C1306 C1303 1.463 1_554 S
C1306 N1310 1.427 . S
C1307 H1297 0.929 . S
C1307 C1305 1.433 . S
C1307 N1310 1.384 . S
C1308 H1299 0.929 . S
C1308 C1300 1.378 1_554 S
C1308 C1303 1.350 1_554 S
C1309 H1296 0.929 . S
C1309 C1301 1.433 . S
C1309 N1311 1.384 . S
N1310 C1306 1.427 . S
N1310 C1307 1.384 . S
N1311 C1303 1.427 . S
N1311 C1309 1.384 . S
H1312 C1318 0.930 . S
H1313 C1322 0.930 . S
H1314 C1327 0.929 . S
H1315 C1325 0.929 . S
H1316 C1320 0.929 . S
H1317 C1326 0.929 . S
C1318 H1312 0.930 . S
C1318 C1319 1.367 . S
C1318 C1326 1.378 . S
C1319 C1318 1.367 . S
C1319 C1327 1.433 . S
C1320 H1316 0.929 . S
C1320 C1322 1.378 . S
C1320 C1324 1.350 . S
C1321 C1324 1.463 . S
C1321 C1326 1.350 . S
C1321 N1329 1.427 . S
C1322 H1313 0.930 . S
C1322 C1320 1.378 . S
C1322 C1323 1.367 . S
C1323 C1322 1.367 . S
C1323 C1325 1.433 . S
C1324 C1320 1.350 . S
C1324 C1321 1.463 . S
C1324 N1328 1.427 . S
C1325 H1315 0.929 . S
C1325 C1323 1.433 . S
C1325 N1328 1.384 . S
C1326 H1317 0.929 . S
C1326 C1318 1.378 . S
C1326 C1321 1.350 . S
C1327 H1314 0.929 . S
C1327 C1319 1.433 . S
C1327 N1329 1.384 . S
N1328 C1324 1.427 . S
N1328 C1325 1.384 . S
N1329 C1321 1.427 . S
N1329 C1327 1.384 . S
H1330 C1336 0.930 . S
H1331 C1340 0.930 . S
H1332 C1345 0.929 . S
H1333 C1343 0.929 . S
H1334 C1338 0.929 . S
H1335 C1344 0.929 . S
C1336 H1330 0.930 . S
C1336 C1337 1.367 . S
C1336 C1344 1.378 . S
C1337 C1336 1.367 . S
C1337 C1345 1.433 . S
C1338 H1334 0.929 . S
C1338 C1340 1.378 . S
C1338 C1342 1.350 . S
C1339 C1342 1.463 . S
C1339 C1344 1.350 . S
C1339 N1347 1.427 . S
C1340 H1331 0.930 . S
C1340 C1338 1.378 . S
C1340 C1341 1.367 . S
C1341 C1340 1.367 . S
C1341 C1343 1.433 . S
C1342 C1338 1.350 . S
C1342 C1339 1.463 . S
C1342 N1346 1.427 . S
C1343 H1333 0.929 . S
C1343 C1341 1.433 . S
C1343 N1346 1.384 . S
C1344 H1335 0.929 . S
C1344 C1336 1.378 . S
C1344 C1339 1.350 . S
C1345 H1332 0.929 . S
C1345 C1337 1.433 . S
C1345 N1347 1.384 . S
N1346 C1342 1.427 . S
N1346 C1343 1.384 . S
N1347 C1339 1.427 . S
N1347 C1345 1.384 . S
H1348 C1354 0.930 . S
H1349 C1358 0.930 . S
H1350 C1363 0.929 . S
H1351 C1361 0.929 . S
H1352 C1356 0.929 . S
H1353 C1362 0.929 . S
C1354 H1348 0.930 . S
C1354 C1355 1.367 . S
C1354 C1362 1.378 . S
C1355 C1354 1.367 . S
C1355 C1363 1.433 . S
C1356 H1352 0.929 . S
C1356 C1358 1.378 . S
C1356 C1360 1.350 . S
C1357 C1360 1.463 . S
C1357 C1362 1.350 . S
C1357 N1365 1.427 . S
C1358 H1349 0.930 . S
C1358 C1356 1.378 . S
C1358 C1359 1.367 . S
C1359 C1358 1.367 . S
C1359 C1361 1.433 . S
C1360 C1356 1.350 . S
C1360 C1357 1.463 . S
C1360 N1364 1.427 . S
C1361 H1351 0.929 . S
C1361 C1359 1.433 . S
C1361 N1364 1.384 . S
C1362 H1353 0.929 . S
C1362 C1354 1.378 . S
C1362 C1357 1.350 . S
C1363 H1350 0.929 . S
C1363 C1355 1.433 . S
C1363 N1365 1.384 . S
N1364 C1360 1.427 . S
N1364 C1361 1.384 . S
N1365 C1357 1.427 . S
N1365 C1363 1.384 . S
H1366 C1372 0.930 . S
H1367 C1376 0.930 . S
H1368 C1381 0.929 . S
H1369 C1379 0.929 . S
H1370 C1374 0.929 . S
H1371 C1380 0.929 . S
C1372 H1366 0.930 . S
C1372 C1373 1.367 . S
C1372 C1380 1.378 . S
C1373 C1372 1.367 . S
C1373 C1381 1.433 . S
C1374 H1370 0.929 . S
C1374 C1376 1.378 . S
C1374 C1378 1.350 . S
C1375 C1378 1.463 . S
C1375 C1380 1.350 . S
C1375 N1383 1.427 . S
C1376 H1367 0.930 . S
C1376 C1374 1.378 . S
C1376 C1377 1.367 . S
C1377 C1376 1.367 . S
C1377 C1379 1.433 . S
C1378 C1374 1.350 . S
C1378 C1375 1.463 . S
C1378 N1382 1.427 . S
C1379 H1369 0.929 . S
C1379 C1377 1.433 . S
C1379 N1382 1.384 . S
C1380 H1371 0.929 . S
C1380 C1372 1.378 . S
C1380 C1375 1.350 . S
C1381 H1368 0.929 . S
C1381 C1373 1.433 . S
C1381 N1383 1.384 . S
N1382 C1378 1.427 . S
N1382 C1379 1.384 . S
N1383 C1375 1.427 . S
N1383 C1381 1.384 . S
H1384 C1390 0.930 . S
H1385 C1394 0.930 . S
H1386 C1399 0.929 . S
H1387 C1397 0.929 . S
H1388 C1392 0.929 . S
H1389 C1398 0.929 . S
C1390 H1384 0.930 . S
C1390 C1391 1.367 . S
C1390 C1398 1.378 . S
C1391 C1390 1.367 . S
C1391 C1399 1.433 . S
C1392 H1388 0.929 . S
C1392 C1394 1.378 . S
C1392 C1396 1.350 . S
C1393 C1396 1.463 . S
C1393 C1398 1.350 . S
C1393 N1401 1.427 . S
C1394 H1385 0.930 . S
C1394 C1392 1.378 . S
C1394 C1395 1.367 . S
C1395 C1394 1.367 . S
C1395 C1397 1.433 . S
C1396 C1392 1.350 . S
C1396 C1393 1.463 . S
C1396 N1400 1.427 . S
C1397 H1387 0.929 . S
C1397 C1395 1.433 . S
C1397 N1400 1.384 . S
C1398 H1389 0.929 . S
C1398 C1390 1.378 . S
C1398 C1393 1.350 . S
C1399 H1386 0.929 . S
C1399 C1391 1.433 . S
C1399 N1401 1.384 . S
N1400 C1396 1.427 . S
N1400 C1397 1.384 . S
N1401 C1393 1.427 . S
N1401 C1399 1.384 . S
H1402 C1408 0.930 . S
H1403 C1412 0.930 . S
H1404 C1417 0.929 . S
H1405 C1415 0.929 . S
H1406 C1410 0.929 . S
H1407 C1416 0.929 . S
C1408 H1402 0.930 . S
C1408 C1409 1.367 . S
C1408 C1416 1.378 . S
C1409 C1408 1.367 . S
C1409 C1417 1.433 . S
C1410 H1406 0.929 . S
C1410 C1412 1.378 . S
C1410 C1414 1.350 . S
C1411 C1414 1.463 . S
C1411 C1416 1.350 . S
C1411 N1419 1.427 . S
C1412 H1403 0.930 . S
C1412 C1410 1.378 . S
C1412 C1413 1.367 . S
C1413 C1412 1.367 . S
C1413 C1415 1.433 . S
C1414 C1410 1.350 . S
C1414 C1411 1.463 . S
C1414 N1418 1.427 . S
C1415 H1405 0.929 . S
C1415 C1413 1.433 . S
C1415 N1418 1.384 . S
C1416 H1407 0.929 . S
C1416 C1408 1.378 . S
C1416 C1411 1.350 . S
C1417 H1404 0.929 . S
C1417 C1409 1.433 . S
C1417 N1419 1.384 . S
N1418 C1414 1.427 . S
N1418 C1415 1.384 . S
N1419 C1411 1.427 . S
N1419 C1417 1.384 . S
H1420 C1426 0.930 . S
H1421 C1430 0.930 . S
H1422 C1435 0.929 . S
H1423 C1433 0.929 . S
H1424 C1428 0.929 . S
H1425 C1434 0.929 . S
C1426 H1420 0.930 . S
C1426 C1427 1.367 . S
C1426 C1434 1.378 . S
C1427 C1426 1.367 . S
C1427 C1435 1.433 . S
C1428 H1424 0.929 . S
C1428 C1430 1.378 . S
C1428 C1432 1.350 . S
C1429 C1432 1.463 . S
C1429 C1434 1.350 . S
C1429 N1437 1.427 . S
C1430 H1421 0.930 . S
C1430 C1428 1.378 . S
C1430 C1431 1.367 . S
C1431 C1430 1.367 . S
C1431 C1433 1.433 . S
C1432 C1428 1.350 . S
C1432 C1429 1.463 . S
C1432 N1436 1.427 . S
C1433 H1423 0.929 . S
C1433 C1431 1.433 . S
C1433 N1436 1.384 . S
C1434 H1425 0.929 . S
C1434 C1426 1.378 . S
C1434 C1429 1.350 . S
C1435 H1422 0.929 . S
C1435 C1427 1.433 . S
C1435 N1437 1.384 . S
N1436 C1432 1.427 . S
N1436 C1433 1.384 . S
N1437 C1429 1.427 . S
N1437 C1435 1.384 . S
H1438 C1444 0.930 . S
H1439 C1448 0.930 . S
H1440 C1453 0.929 . S
H1441 C1451 0.929 . S
H1442 C1446 0.929 . S
H1443 C1452 0.929 . S
C1444 H1438 0.930 . S
C1444 C1445 1.367 . S
C1444 C1452 1.378 . S
C1445 C1444 1.367 . S
C1445 C1453 1.433 . S
C1446 H1442 0.929 . S
C1446 C1448 1.378 . S
C1446 C1450 1.350 . S
C1447 C1450 1.463 . S
C1447 C1452 1.350 . S
C1447 N1455 1.427 . S
C1448 H1439 0.930 . S
C1448 C1446 1.378 . S
C1448 C1449 1.367 . S
C1449 C1448 1.367 . S
C1449 C1451 1.433 . S
C1450 C1446 1.350 . S
C1450 C1447 1.463 . S
C1450 N1454 1.427 . S
C1451 H1441 0.929 . S
C1451 C1449 1.433 . S
C1451 N1454 1.384 . S
C1452 H1443 0.929 . S
C1452 C1444 1.378 . S
C1452 C1447 1.350 . S
C1453 H1440 0.929 . S
C1453 C1445 1.433 . S
C1453 N1455 1.384 . S
N1454 C1450 1.427 . S
N1454 C1451 1.384 . S
N1455 C1447 1.427 . S
N1455 C1453 1.384 . S
H1456 C1462 0.930 . S
H1457 C1466 0.930 . S
H1458 C1471 0.929 . S
H1459 C1469 0.929 . S
H1460 C1464 0.929 . S
H1461 C1470 0.929 . S
C1462 H1456 0.930 . S
C1462 C1463 1.367 . S
C1462 C1470 1.378 . S
C1463 C1462 1.367 . S
C1463 C1471 1.433 . S
C1464 H1460 0.929 . S
C1464 C1466 1.378 . S
C1464 C1468 1.350 . S
C1465 C1468 1.463 . S
C1465 C1470 1.350 . S
C1465 N1473 1.427 . S
C1466 H1457 0.930 . S
C1466 C1464 1.378 . S
C1466 C1467 1.367 . S
C1467 C1466 1.367 . S
C1467 C1469 1.433 . S
C1468 C1464 1.350 . S
C1468 C1465 1.463 . S
C1468 N1472 1.427 . S
C1469 H1459 0.929 . S
C1469 C1467 1.433 . S
C1469 N1472 1.384 . S
C1470 H1461 0.929 . S
C1470 C1462 1.378 . S
C1470 C1465 1.350 . S
C1471 H1458 0.929 . S
C1471 C1463 1.433 . S
C1471 N1473 1.384 . S
N1472 C1468 1.427 . S
N1472 C1469 1.384 . S
N1473 C1465 1.427 . S
N1473 C1471 1.384 . S
H1474 C1480 0.930 . S
H1475 C1484 0.930 . S
H1476 C1489 0.929 . S
H1477 C1487 0.929 . S
H1478 C1482 0.929 . S
H1479 C1488 0.929 . S
C1480 H1474 0.930 . S
C1480 C1481 1.367 . S
C1480 C1488 1.378 . S
C1481 C1480 1.367 . S
C1481 C1489 1.433 . S
C1482 H1478 0.929 . S
C1482 C1484 1.378 . S
C1482 C1486 1.350 . S
C1483 C1486 1.463 . S
C1483 C1488 1.350 . S
C1483 N1491 1.427 . S
C1484 H1475 0.930 . S
C1484 C1482 1.378 . S
C1484 C1485 1.367 . S
C1485 C1484 1.367 . S
C1485 C1487 1.433 . S
C1486 C1482 1.350 . S
C1486 C1483 1.463 . S
C1486 N1490 1.427 . S
C1487 H1477 0.929 . S
C1487 C1485 1.433 . S
C1487 N1490 1.384 . S
C1488 H1479 0.929 . S
C1488 C1480 1.378 . S
C1488 C1483 1.350 . S
C1489 H1476 0.929 . S
C1489 C1481 1.433 . S
C1489 N1491 1.384 . S
N1490 C1486 1.427 . S
N1490 C1487 1.384 . S
N1491 C1483 1.427 . S
N1491 C1489 1.384 . S
H1492 C1498 0.930 . S
H1493 C1502 0.930 . S
H1494 C1507 0.929 . S
H1495 C1505 0.929 . S
H1496 C1500 0.929 . S
H1497 C1506 0.929 . S
C1498 H1492 0.930 . S
C1498 C1499 1.367 . S
C1498 C1506 1.378 . S
C1499 C1498 1.367 . S
C1499 C1507 1.433 . S
C1500 H1496 0.929 . S
C1500 C1502 1.378 . S
C1500 C1504 1.350 . S
C1501 C1504 1.463 . S
C1501 C1506 1.350 . S
C1501 N1509 1.427 . S
C1502 H1493 0.930 . S
C1502 C1500 1.378 . S
C1502 C1503 1.367 . S
C1503 C1502 1.367 . S
C1503 C1505 1.433 . S
C1504 C1500 1.350 . S
C1504 C1501 1.463 . S
C1504 N1508 1.427 . S
C1505 H1495 0.929 . S
C1505 C1503 1.433 . S
C1505 N1508 1.384 . S
C1506 H1497 0.929 . S
C1506 C1498 1.378 . S
C1506 C1501 1.350 . S
C1507 H1494 0.929 . S
C1507 C1499 1.433 . S
C1507 N1509 1.384 . S
N1508 C1504 1.427 . S
N1508 C1505 1.384 . S
N1509 C1501 1.427 . S
N1509 C1507 1.384 . S
H1510 C1516 0.930 . S
H1511 C1520 0.930 . S
H1512 C1525 0.929 . S
H1513 C1523 0.929 . S
H1514 C1518 0.929 . S
H1515 C1524 0.929 . S
C1516 H1510 0.930 . S
C1516 C1517 1.367 . S
C1516 C1524 1.378 . S
C1517 C1516 1.367 . S
C1517 C1525 1.433 . S
C1518 H1514 0.929 . S
C1518 C1520 1.378 . S
C1518 C1522 1.350 . S
C1519 C1522 1.463 . S
C1519 C1524 1.350 . S
C1519 N1527 1.427 . S
C1520 H1511 0.930 . S
C1520 C1518 1.378 . S
C1520 C1521 1.367 . S
C1521 C1520 1.367 . S
C1521 C1523 1.433 . S
C1522 C1518 1.350 . S
C1522 C1519 1.463 . S
C1522 N1526 1.427 . S
C1523 H1513 0.929 . S
C1523 C1521 1.433 . S
C1523 N1526 1.384 . S
C1524 H1515 0.929 . S
C1524 C1516 1.378 . S
C1524 C1519 1.350 . S
C1525 H1512 0.929 . S
C1525 C1517 1.433 . S
C1525 N1527 1.384 . S
N1526 C1522 1.427 . S
N1526 C1523 1.384 . S
N1527 C1519 1.427 . S
N1527 C1525 1.384 . S
H1528 C1534 0.930 . S
H1529 C1538 0.930 . S
H1530 C1543 0.929 . S
H1531 C1541 0.929 . S
H1532 C1536 0.929 . S
H1533 C1542 0.929 . S
C1534 H1528 0.930 . S
C1534 C1535 1.367 . S
C1534 C1542 1.378 . S
C1535 C1534 1.367 . S
C1535 C1543 1.433 . S
C1536 H1532 0.929 . S
C1536 C1538 1.378 . S
C1536 C1540 1.350 . S
C1537 C1540 1.463 . S
C1537 C1542 1.350 . S
C1537 N1545 1.427 . S
C1538 H1529 0.930 . S
C1538 C1536 1.378 . S
C1538 C1539 1.367 . S
C1539 C1538 1.367 . S
C1539 C1541 1.433 . S
C1540 C1536 1.350 . S
C1540 C1537 1.463 . S
C1540 N1544 1.427 . S
C1541 H1531 0.929 . S
C1541 C1539 1.433 . S
C1541 N1544 1.384 . S
C1542 H1533 0.929 . S
C1542 C1534 1.378 . S
C1542 C1537 1.350 . S
C1543 H1530 0.929 . S
C1543 C1535 1.433 . S
C1543 N1545 1.384 . S
N1544 C1540 1.427 . S
N1544 C1541 1.384 . S
N1545 C1537 1.427 . S
N1545 C1543 1.384 . S
H1546 C1552 0.930 . S
H1547 C1556 0.930 . S
H1548 C1561 0.929 . S
H1549 C1559 0.929 . S
H1550 C1554 0.929 . S
H1551 C1560 0.929 . S
C1552 H1546 0.930 . S
C1552 C1553 1.367 . S
C1552 C1560 1.378 . S
C1553 C1552 1.367 . S
C1553 C1561 1.433 . S
C1554 H1550 0.929 . S
C1554 C1556 1.378 . S
C1554 C1558 1.350 . S
C1555 C1558 1.463 . S
C1555 C1560 1.350 . S
C1555 N1563 1.427 . S
C1556 H1547 0.930 . S
C1556 C1554 1.378 . S
C1556 C1557 1.367 . S
C1557 C1556 1.367 . S
C1557 C1559 1.433 . S
C1558 C1554 1.350 . S
C1558 C1555 1.463 . S
C1558 N1562 1.427 . S
C1559 H1549 0.929 . S
C1559 C1557 1.433 . S
C1559 N1562 1.384 . S
C1560 H1551 0.929 . S
C1560 C1552 1.378 . S
C1560 C1555 1.350 . S
C1561 H1548 0.929 . S
C1561 C1553 1.433 . S
C1561 N1563 1.384 . S
N1562 C1558 1.427 . S
N1562 C1559 1.384 . S
N1563 C1555 1.427 . S
N1563 C1561 1.384 . S
H1564 C1570 0.930 . S
H1565 C1574 0.930 . S
H1566 C1579 0.929 . S
H1567 C1577 0.929 . S
H1568 C1572 0.929 . S
H1569 C1578 0.929 . S
C1570 H1564 0.930 . S
C1570 C1571 1.367 . S
C1570 C1578 1.378 . S
C1571 C1570 1.367 . S
C1571 C1579 1.433 . S
C1572 H1568 0.929 . S
C1572 C1574 1.378 . S
C1572 C1576 1.350 . S
C1573 C1576 1.463 . S
C1573 C1578 1.350 . S
C1573 N1581 1.427 . S
C1574 H1565 0.930 . S
C1574 C1572 1.378 . S
C1574 C1575 1.367 . S
C1575 C1574 1.367 . S
C1575 C1577 1.433 . S
C1576 C1572 1.350 . S
C1576 C1573 1.463 . S
C1576 N1580 1.427 . S
C1577 H1567 0.929 . S
C1577 C1575 1.433 . S
C1577 N1580 1.384 . S
C1578 H1569 0.929 . S
C1578 C1570 1.378 . S
C1578 C1573 1.350 . S
C1579 H1566 0.929 . S
C1579 C1571 1.433 . S
C1579 N1581 1.384 . S
N1580 C1576 1.427 . S
N1580 C1577 1.384 . S
N1581 C1573 1.427 . S
N1581 C1579 1.384 . S
H1582 C1588 0.930 . S
H1583 C1592 0.930 . S
H1584 C1597 0.929 . S
H1585 C1595 0.929 . S
H1586 C1590 0.929 . S
H1587 C1596 0.929 . S
C1588 H1582 0.930 . S
C1588 C1589 1.367 . S
C1588 C1596 1.378 . S
C1589 C1588 1.367 . S
C1589 C1597 1.433 . S
C1590 H1586 0.929 . S
C1590 C1592 1.378 . S
C1590 C1594 1.350 . S
C1591 C1594 1.463 . S
C1591 C1596 1.350 . S
C1591 N1599 1.427 . S
C1592 H1583 0.930 . S
C1592 C1590 1.378 . S
C1592 C1593 1.367 . S
C1593 C1592 1.367 . S
C1593 C1595 1.433 . S
C1594 C1590 1.350 . S
C1594 C1591 1.463 . S
C1594 N1598 1.427 . S
C1595 H1585 0.929 . S
C1595 C1593 1.433 . S
C1595 N1598 1.384 . S
C1596 H1587 0.929 . S
C1596 C1588 1.378 . S
C1596 C1591 1.350 . S
C1597 H1584 0.929 . S
C1597 C1589 1.433 . S
C1597 N1599 1.384 . S
N1598 C1594 1.427 . S
N1598 C1595 1.384 . S
N1599 C1591 1.427 . S
N1599 C1597 1.384 . S
C455 C149 1.249 . S
C459 C9 1.263 . S
C473 C23 1.263 . S
C477 C163 1.249 . S
C491 C37 1.251 . S
C495 C121 1.257 . S
C509 C135 1.264 . S
C513 C51 1.250 . S
C527 C205 1.248 . S
C531 C65 1.263 . S
C545 C79 1.261 . S
C549 C219 1.249 . S
C563 C177 1.252 . S
C567 C93 1.263 . S
C581 C191 1.254 . S
C585 C107 1.263 . S
C599 C373 1.264 . S
C603 C233 1.252 . S
C617 C387 1.250 . S
C621 C247 1.260 . S
C635 C345 1.260 . S
C639 C261 1.257 . S
C653 C275 1.254 . S
C657 C359 1.263 . S
C671 C429 1.259 . S
C675 C289 1.249 . S
C689 C443 1.265 . S
C693 C303 1.250 . S
C707 C317 1.250 . S
C711 C401 1.258 . S
C725 C331 1.264 . S
C729 C415 1.250 . S
C743 C277 1.301 . S
C747 C11 1.293 . S
C761 C25 1.292 . S
C765 C263 1.300 . S
C779 C249 1.303 . S
C783 C39 1.295 . S
C797 C235 1.303 . S
C801 C53 1.301 . S
C815 C67 1.293 . S
C819 C333 1.291 . S
C833 C81 1.288 1_455 S
C837 C319 1.293 . S
C851 C305 1.292 . S
C855 C95 1.299 . S
C869 C109 1.296 1_455 S
C873 C291 1.290 . S
C887 C389 1.296 . S
C891 C123 1.290 . S
C905 C375 1.299 . S
C909 C137 1.291 . S
C923 C361 1.304 . S
C927 C151 1.299 . S
C941 C347 1.291 . S
C945 C165 1.300 1_655 S
C959 C179 1.301 . S
C963 C445 1.293 . S
C977 C431 1.300 . S
C981 C193 1.291 . S
C995 C207 1.290 . S
C999 C417 1.297 . S
C1013 C221 1.311 . S
C1017 C403 1.299 . S
C1031 C168 1.336 . S
C1035 C0 1.336 . S
C1049 C14 1.329 . S
C1053 C294 1.329 . S
C1067 C84 1.324 . S
C1071 C28 1.324 . S
C1085 C434 1.324 . S
C1089 C42 1.324 . S
C1103 C56 1.322 . S
C1107 C112 1.322 . S
C1121 C238 1.320 . S
C1125 C70 1.320 . S
C1139 C378 1.329 . S
C1143 C98 1.329 . S
C1157 C406 1.335 . S
C1161 C126 1.335 . S
C1175 C140 1.333 . S
C1179 C196 1.333 . S
C1193 C322 1.327 . S
C1197 C154 1.327 . S
C1211 C350 1.321 . S
C1215 C182 1.321 . S
C1229 C210 1.321 . S
C1233 C266 1.321 . S
C1247 C224 1.337 . S
C1251 C392 1.337 . S
C1265 C308 1.323 . S
C1269 C252 1.323 . S
C1283 C336 1.336 . S
C1287 C280 1.336 . S
C1301 C364 1.320 . S
C1305 C420 1.320 . S
C1319 C5 1.060 . S
C1323 C47 1.055 . S
C1337 C33 1.060 . S
C1341 C19 1.055 . S
C1355 C61 1.067 . S
C1359 C103 1.060 . S
C1373 C75 1.067 . S
C1377 C89 1.061 . S
C1391 C117 1.060 . S
C1395 C159 1.067 . S
C1409 C131 1.062 . S
C1413 C145 1.055 . S
C1427 C173 1.068 . S
C1431 C215 1.062 . S
C1445 C201 1.068 . S
C1449 C187 1.063 . S
C1463 C271 1.065 . S
C1467 C229 1.057 . S
C1481 C257 1.062 . S
C1485 C243 1.068 . S
C1499 C327 1.067 . S
C1503 C285 1.061 . S
C1517 C313 1.057 . S
C1521 C299 1.055 . S
C1535 C383 1.061 . S
C1539 C341 1.055 . S
C1553 C369 1.062 . S
C1557 C355 1.068 . S
C1571 C397 1.056 . S
C1575 C439 1.063 . S
C1589 C425 1.055 . S
C1593 C411 1.059 . S
