# Generated by pormake.
# Topology uop, (4)-cn, num edge types: 1
# Building blocks:
#     Node 0, Type 0, BuildingBlock: ICAMEG_clean_sbu_1, # of connection points: 4
#     Node 1, Type 0, BuildingBlock: ICAMEG_clean_sbu_1, # of connection points: 4
#     Node 2, Type 0, BuildingBlock: ICAMEG_clean_sbu_1, # of connection points: 4
#     Node 3, Type 0, BuildingBlock: ICAMEG_clean_sbu_1, # of connection points: 4
#     Node 4, Type 0, BuildingBlock: ICAMEG_clean_sbu_1, # of connection points: 4
#     Node 5, Type 0, BuildingBlock: ICAMEG_clean_sbu_1, # of connection points: 4
#     Node 6, Type 0, BuildingBlock: ICAMEG_clean_sbu_1, # of connection points: 4
#     Node 7, Type 0, BuildingBlock: ICAMEG_clean_sbu_1, # of connection points: 4
#     Node 8, Type 0, BuildingBlock: ICAMEG_clean_sbu_1, # of connection points: 4
#     Node 9, Type 0, BuildingBlock: ICAMEG_clean_sbu_1, # of connection points: 4
#     Node 10, Type 0, BuildingBlock: ICAMEG_clean_sbu_1, # of connection points: 4
#     Node 11, Type 0, BuildingBlock: ICAMEG_clean_sbu_1, # of connection points: 4
#     Edge 12, Type (0, 0), BuildingBlock: AJUNOK_clean_linker_0, # of connection points: 2
#     Edge 13, Type (0, 0), BuildingBlock: AJUNOK_clean_linker_0, # of connection points: 2
#     Edge 14, Type (0, 0), BuildingBlock: AJUNOK_clean_linker_0, # of connection points: 2
#     Edge 15, Type (0, 0), BuildingBlock: AJUNOK_clean_linker_0, # of connection points: 2
#     Edge 16, Type (0, 0), BuildingBlock: AJUNOK_clean_linker_0, # of connection points: 2
#     Edge 17, Type (0, 0), BuildingBlock: AJUNOK_clean_linker_0, # of connection points: 2
#     Edge 18, Type (0, 0), BuildingBlock: AJUNOK_clean_linker_0, # of connection points: 2
#     Edge 19, Type (0, 0), BuildingBlock: AJUNOK_clean_linker_0, # of connection points: 2
#     Edge 20, Type (0, 0), BuildingBlock: AJUNOK_clean_linker_0, # of connection points: 2
#     Edge 21, Type (0, 0), BuildingBlock: AJUNOK_clean_linker_0, # of connection points: 2
#     Edge 22, Type (0, 0), BuildingBlock: AJUNOK_clean_linker_0, # of connection points: 2
#     Edge 23, Type (0, 0), BuildingBlock: AJUNOK_clean_linker_0, # of connection points: 2
#     Edge 24, Type (0, 0), BuildingBlock: AJUNOK_clean_linker_0, # of connection points: 2
#     Edge 25, Type (0, 0), BuildingBlock: AJUNOK_clean_linker_0, # of connection points: 2
#     Edge 26, Type (0, 0), BuildingBlock: AJUNOK_clean_linker_0, # of connection points: 2
#     Edge 27, Type (0, 0), BuildingBlock: AJUNOK_clean_linker_0, # of connection points: 2
#     Edge 28, Type (0, 0), BuildingBlock: AJUNOK_clean_linker_0, # of connection points: 2
#     Edge 29, Type (0, 0), BuildingBlock: AJUNOK_clean_linker_0, # of connection points: 2
#     Edge 30, Type (0, 0), BuildingBlock: AJUNOK_clean_linker_0, # of connection points: 2
#     Edge 31, Type (0, 0), BuildingBlock: AJUNOK_clean_linker_0, # of connection points: 2
#     Edge 32, Type (0, 0), BuildingBlock: AJUNOK_clean_linker_0, # of connection points: 2
#     Edge 33, Type (0, 0), BuildingBlock: AJUNOK_clean_linker_0, # of connection points: 2
#     Edge 34, Type (0, 0), BuildingBlock: AJUNOK_clean_linker_0, # of connection points: 2
#     Edge 35, Type (0, 0), BuildingBlock: AJUNOK_clean_linker_0, # of connection points: 2
# Relax obj value: 0.107
# Max RMSD: 0.101
# Mean RMSD: 0.101
data_MOF--net-uop--node1-ICAMEG_clean_sbu_1--edge1-AJUNOK_clean_linker_0
_symmetry_space_group_name_H-M    P1
_symmetry_Int_Tables_number       1
_symmetry_cell_setting            triclinic
loop_
_symmetry_equiv_pos_as_xyz
'x, y, z'
_cell_length_a     26.392767
_cell_length_b     26.419539
_cell_length_c     32.955139
_cell_angle_alpha  90.252303
_cell_angle_beta   89.935244
_cell_angle_gamma 119.93823
loop_
_atom_site_label
_atom_site_type_symbol
_atom_site_fract_x
_atom_site_fract_y
_atom_site_fract_z
_atom_type_partial_charge
Co0 Co 0.30456 0.46881 0.21853 0.0
Co1 Co 0.26481 0.33972 0.16906 0.0
O2 O 0.25312 0.40591 0.18171 0.0
C3 C 0.27303 0.52826 0.15315 0.0
O4 O 0.23658 0.4798 0.13416 0.0
C5 C 0.13749 0.28545 0.18824 0.0
O6 O 0.15369 0.31436 0.22269 0.0
O7 O 0.26061 0.32134 0.22785 0.0
O8 O 0.30802 0.41107 0.25647 0.0
H9 H 0.35928 0.21652 0.18154 0.0
H10 H 0.18084 0.43508 0.19796 0.0
O11 O 0.30206 0.52788 0.1836 0.0
H12 H 0.19914 0.47392 0.34499 0.0
H13 H 0.39652 0.67308 0.27347 0.0
H14 H 0.41625 0.49798 0.25839 0.0
H15 H 0.28309 0.48477 0.30563 0.0
H16 H 0.31341 0.58011 0.24971 0.0
O17 O 0.17657 0.28899 0.16358 0.0
H18 H 0.34134 0.29624 0.20014 0.0
H19 H 0.20666 0.2389 0.11173 0.0
H20 H 0.50116 0.59072 0.28085 0.0
H21 H 0.09609 0.42376 0.23614 0.0
H22 H 0.49207 0.6796 0.28715 0.0
H23 H 0.10455 0.44302 0.31034 0.0
O24 O 0.3724 0.47957 0.18687 0.0
H25 H 0.1965 0.38376 0.03863 0.0
H26 H 0.34782 0.35373 0.1029 0.0
H27 H 0.35373 0.37411 0.0297 0.0
H28 H 0.27755 0.3887 -0.00305 0.0
H29 H 0.19302 0.36477 0.11192 0.0
H30 H 0.22115 0.15637 0.09339 0.0
H31 H 0.29855 0.1452 0.12781 0.0
O32 O 0.35378 0.38929 0.17354 0.0
C33 C 0.28379 0.35529 0.25833 0.0
C34 C 0.32507 0.22033 0.16638 0.0
C35 C 0.24772 0.18688 0.11687 0.0
N36 N 0.27345 0.2726 0.15681 0.0
C37 C 0.31501 0.26582 0.17665 0.0
C38 C 0.23944 0.23345 0.12759 0.0
C39 C 0.29116 0.18061 0.13625 0.0
C40 C 0.18563 0.444 0.23004 0.0
N41 N 0.23756 0.4606 0.24925 0.0
C42 C 0.13708 0.43731 0.25162 0.0
C43 C 0.14181 0.44806 0.29323 0.0
C44 C 0.19481 0.46535 0.31266 0.0
C45 C 0.24233 0.47135 0.2901 0.0
C46 C 0.4012 0.63481 0.27036 0.0
C47 C 0.41139 0.53598 0.26228 0.0
C48 C 0.35397 0.58172 0.25751 0.0
N49 N 0.35991 0.5335 0.25237 0.0
C50 C 0.45995 0.58863 0.27438 0.0
C51 C 0.45488 0.63851 0.27787 0.0
C52 C 0.3893 0.4443 0.17636 0.0
C53 C 0.23022 0.37785 0.05252 0.0
C54 C 0.31506 0.36128 0.08911 0.0
C55 C 0.31845 0.37239 0.04755 0.0
C56 C 0.2756 0.38056 0.02918 0.0
N57 N 0.27023 0.35837 0.11178 0.0
C58 C 0.22836 0.36687 0.09405 0.0
Co59 Co 0.84594 0.29083 0.55823 0.0
Co60 Co 0.93137 0.25366 0.5043 0.0
O61 O 0.85361 0.23693 0.52188 0.0
C62 C 0.7543 0.2683 0.49706 0.0
O63 O 0.79141 0.2793 0.46726 0.0
C64 C 0.8662 0.12689 0.52473 0.0
O65 O 0.85566 0.14289 0.56004 0.0
O66 O 0.95365 0.25319 0.56244 0.0
O67 O 0.92075 0.3114 0.58556 0.0
H68 H 0.15052 0.35889 0.50789 0.0
H69 H 0.75059 0.16747 0.55327 0.0
O70 O 0.76992 0.26998 0.53354 0.0
H71 H 0.80592 0.20256 0.69788 0.0
H72 H 0.72962 0.36749 0.6278 0.0
H73 H 0.92651 0.41329 0.58438 0.0
H74 H 0.8549 0.28162 0.64783 0.0
H75 H 0.74812 0.28918 0.60497 0.0
O76 O 0.89901 0.16615 0.49937 0.0
H77 H 0.05263 0.337 0.52997 0.0
H78 H 0.97408 0.19996 0.44307 0.0
H79 H 0.91078 0.49237 0.6091 0.0
H80 H 0.70023 0.08713 0.60234 0.0
H81 H 0.81132 0.4702 0.62945 0.0
H82 H 0.72802 0.10442 0.6752 0.0
O83 O 0.88779 0.35396 0.5179 0.0
H84 H 0.79797 0.17737 0.38306 0.0
H85 H 0.98818 0.33328 0.43411 0.0
H86 H 0.96069 0.33533 0.36292 0.0
H87 H 0.86518 0.25687 0.33693 0.0
H88 H 0.82702 0.17716 0.45416 0.0
H89 H 0.07143 0.21917 0.42082 0.0
H90 H 0.16061 0.29949 0.45301 0.0
O91 O 0.96493 0.34258 0.50746 0.0
C92 C 0.95053 0.28577 0.58991 0.0
C93 C 0.11217 0.32363 0.49363 0.0
C94 C 0.06769 0.24528 0.44476 0.0
N95 N 1.00773 0.26766 0.48756 0.0
C96 C 0.05653 0.31127 0.50588 0.0
C97 C 0.01269 0.23443 0.45761 0.0
C98 C 0.11772 0.29037 0.46284 0.0
C99 C 0.76252 0.1754 0.58499 0.0
N100 N 0.80557 0.22911 0.59767 0.0
C101 C 0.734 0.12973 0.61261 0.0
C102 C 0.74967 0.13944 0.65348 0.0
C103 C 0.79339 0.19447 0.66622 0.0
C104 C 0.82102 0.23905 0.63774 0.0
C105 C 0.77317 0.37785 0.61872 0.0
C106 C 0.8837 0.40266 0.59502 0.0
C107 C 0.78391 0.33364 0.60589 0.0
N108 N 0.83796 0.34673 0.59222 0.0
C109 C 0.87495 0.44786 0.6086 0.0
C110 C 0.819 0.43545 0.61966 0.0
C111 C 0.94102 0.37471 0.50765 0.0
C112 C 0.83983 0.21171 0.39402 0.0
C113 C 0.94635 0.2991 0.42312 0.0
C114 C 0.9311 0.30043 0.38273 0.0
C115 C 0.87748 0.25636 0.36816 0.0
N116 N 0.9094 0.25493 0.44825 0.0
C117 C 0.85661 0.21173 0.43422 0.0
Co118 Co 0.54856 0.8505 0.88767 0.0
Co119 Co 0.6749 0.92693 0.83604 0.0
O120 O 0.60943 0.85175 0.85385 0.0
C121 C 0.49503 0.7333 0.85358 0.0
O122 O 0.54283 0.73251 0.86333 0.0
C123 C 0.76984 0.89589 0.84676 0.0
O124 O 0.79674 0.94076 0.87146 0.0
O125 O 0.69807 0.94648 0.89426 0.0
O126 O 0.60883 0.92088 0.91839 0.0
H127 H 0.8002 0.14405 0.83579 0.0
H128 H 0.64897 0.83661 0.91568 0.0
O129 O 0.49163 0.77941 0.8579 0.0
H130 H 0.48279 0.69741 -0.0014 0.0
H131 H 0.3366 0.78445 0.9191 0.0
H132 H 0.53944 0.94275 0.93661 0.0
H133 H 0.46885 0.75464 0.94686 0.0
H134 H 0.41616 0.76926 0.89826 0.0
O135 O 0.72124 0.88473 0.83074 0.0
H136 H 0.7246 0.04974 0.86206 0.0
H137 H 0.76917 0.96073 0.77398 0.0
H138 H 0.46033 0.95816 0.95734 0.0
H139 H 0.66428 0.77929 0.96713 0.0
H140 H 0.3575 0.87952 0.94842 0.0
H141 H 0.58113 0.70924 0.00955 0.0
O142 O 0.53705 0.89746 0.84649 0.0
H143 H 0.60405 0.79353 0.71453 0.0
H144 H 0.65998 0.99007 0.76614 0.0
H145 H 0.62884 0.96501 0.6949 0.0
H146 H 0.60088 0.86627 0.66858 0.0
H147 H 0.63502 0.82024 0.78564 0.0
H148 H 0.84985 0.05468 0.74926 0.0
H149 H 0.86536 0.14758 0.77979 0.0
O150 O 0.62791 0.96976 0.83982 0.0
C151 C 0.66414 0.94383 0.923 0.0
C152 C 0.79522 0.10432 0.82273 0.0
C153 C 0.82244 0.05397 0.77396 0.0
N154 N 0.74191 0.99985 0.8192 0.0
C155 C 0.75163 0.05057 0.83713 0.0
C156 C 0.77707 1.00091 0.78833 0.0
C157 C 0.83114 0.10606 0.7911 0.0
C158 C 0.61225 0.80729 0.93402 0.0
N159 N 0.55835 0.80223 0.9288 0.0
C160 C 0.62134 0.77438 0.96315 0.0
C161 C 0.57474 0.73507 0.98688 0.0
C162 C 0.51969 0.72861 0.98085 0.0
C163 C 0.5122 0.76222 0.95142 0.0
C164 C 0.38134 0.81899 0.92349 0.0
C165 C 0.49596 0.90608 0.93392 0.0
C166 C 0.42768 0.81065 0.91201 0.0
N167 N 0.48499 0.85358 0.9175 0.0
C168 C 0.45062 0.91617 0.94505 0.0
C169 C 0.39297 0.87226 0.93985 0.0
C170 C 0.5727 0.95035 0.83864 0.0
C171 C 0.61627 0.83678 0.72558 0.0
C172 C 0.6476 0.94687 0.75502 0.0
C173 C 0.63012 0.93298 0.71459 0.0
C174 C 0.61446 0.87756 0.69983 0.0
N175 N 0.64989 0.90684 0.77999 0.0
C176 C 0.63403 0.85223 0.76583 0.0
Co177 Co 0.73494 0.54604 0.22349 0.0
Co178 Co 0.76233 0.66978 0.17507 0.0
O179 O 0.78392 0.61116 0.18848 0.0
C180 C 0.74647 0.47958 0.15526 0.0
O181 O 0.72403 0.50183 0.13033 0.0
C182 C 0.88968 0.73755 0.19408 0.0
O183 O 0.87676 0.71017 0.22899 0.0
O184 O 0.76393 0.68808 0.23406 0.0
O185 O 0.71396 0.59608 0.25725 0.0
H186 H 0.64839 0.77477 0.18791 0.0
H187 H 0.85986 0.5829 0.2105 0.0
O188 O 0.75685 0.49619 0.19191 0.0
H189 H 0.83552 0.58207 0.35895 0.0
H190 H 0.66805 0.34639 0.27841 0.0
H191 H 0.61604 0.49956 0.25773 0.0
H192 H 0.75142 0.55267 0.31319 0.0
H193 H 0.74302 0.44554 0.2578 0.0
O194 O 0.84861 0.72845 0.16947 0.0
H195 H 0.67708 0.70234 0.20684 0.0
H196 H 0.80847 0.76745 0.11588 0.0
H197 H 0.53973 0.40097 0.27818 0.0
H198 H 0.94529 0.61237 0.25509 0.0
H199 H 0.56493 0.32273 0.28652 0.0
H200 H 0.93343 0.61234 0.32989 0.0
O201 O 0.66736 0.52448 0.18717 0.0
H202 H 0.83692 0.62148 0.04937 0.0
H203 H 0.67813 0.64585 0.10732 0.0
H204 H 0.67275 0.61677 0.03557 0.0
H205 H 0.75218 0.6041 0.0061 0.0
H206 H 0.84014 0.6498 0.12078 0.0
H207 H 0.78182 0.84114 0.09631 0.0
H208 H 0.7003 0.84408 0.13149 0.0
O209 O 0.67503 0.61159 0.17909 0.0
C210 C 0.73677 0.6513 0.26233 0.0
C211 C 0.68372 0.77365 0.17201 0.0
C212 C 0.75865 0.81091 0.12064 0.0
N213 N 0.7438 0.73018 0.1621 0.0
C214 C 0.70006 0.73264 0.18257 0.0
C215 C 0.77371 0.76927 0.13198 0.0
C216 C 0.71296 0.81264 0.14055 0.0
C217 C 0.85437 0.5826 0.24303 0.0
N218 N 0.80082 0.56667 0.25926 0.0
C219 C 0.90289 0.59936 0.26812 0.0
C220 C 0.89622 0.59939 0.31008 0.0
C221 C 0.84132 0.58248 0.32641 0.0
C222 C 0.79386 0.56609 0.30037 0.0
C223 C 0.65633 0.37984 0.27408 0.0
C224 C 0.62798 0.46653 0.26306 0.0
C225 C 0.69877 0.43635 0.26297 0.0
N226 N 0.68382 0.47818 0.25591 0.0
C227 C 0.5843 0.41046 0.27396 0.0
C228 C 0.59844 0.36654 0.27852 0.0
C229 C 0.64485 0.55567 0.17829 0.0
C230 C 0.80186 0.62682 0.06163 0.0
C231 C 0.713 0.6405 0.09469 0.0
C232 C 0.70974 0.62413 0.05403 0.0
C233 C 0.75447 0.61714 0.03748 0.0
N234 N 0.7596 0.64983 0.11816 0.0
C235 C 0.80364 0.64314 0.10213 0.0
Co236 Co 0.18563 0.72589 0.54832 0.0
Co237 Co 0.08846 0.75098 0.49833 0.0
O238 O 0.16845 0.7716 0.51085 0.0
C239 C 0.26681 0.73687 0.48169 0.0
O240 O 0.22334 0.70968 0.45597 0.0
C241 C 0.15087 0.87897 0.51493 0.0
O242 O 0.16418 0.86672 0.55055 0.0
O243 O 0.07286 0.75549 0.55737 0.0
O244 O 0.11522 0.70614 0.58126 0.0
H245 H 0.87051 0.64043 0.51497 0.0
H246 H 0.27496 0.84932 0.53176 0.0
O247 O 0.25749 0.7466 0.51773 0.0
H248 H 0.24578 0.83818 0.68001 0.0
H249 H 0.32593 0.68044 0.61913 0.0
H250 H 0.11949 0.60583 0.58273 0.0
H251 H 0.19111 0.7506 0.63707 0.0
H252 H 0.29497 0.74536 0.58849 0.0
O253 O 0.11722 0.83731 0.49114 0.0
H254 H 0.97197 0.66836 0.53206 0.0
H255 H 0.03534 0.79579 0.43883 0.0
H256 H 0.14949 0.53903 0.6119 0.0
H257 H 0.33107 0.93785 0.57364 0.0
H258 H 0.25309 0.57567 0.62956 0.0
H259 H 0.31648 0.93264 0.64832 0.0
O260 O 0.13832 0.6546 0.5142 0.0
H261 H 0.2045 0.82094 0.36942 0.0
H262 H 0.02509 0.66458 0.43225 0.0
H263 H 0.04344 0.65795 0.35959 0.0
H264 H 0.13332 0.7367 0.32764 0.0
H265 H 0.18507 0.82516 0.4421 0.0
H266 H 0.93443 0.77052 0.42144 0.0
H267 H 0.85109 0.69171 0.45914 0.0
O268 O 0.05938 0.66364 0.50409 0.0
C269 C 0.08144 0.72745 0.58545 0.0
C270 C 0.90631 0.67487 0.49822 0.0
C271 C 0.94227 0.74781 0.44572 0.0
N272 N 1.00938 0.73296 0.48605 0.0
C273 C 0.96389 0.69063 0.50765 0.0
C274 C 0.99929 0.7621 0.45582 0.0
C275 C 0.89551 0.7036 0.46694 0.0
C276 C 0.26876 0.84661 0.56427 0.0
N277 N 0.22994 0.79483 0.58194 0.0
C278 C 0.3005 0.89692 0.58782 0.0
C279 C 0.29223 0.89399 0.62971 0.0
C280 C 0.25254 0.84102 0.64751 0.0
C281 C 0.22158 0.79161 0.62301 0.0
C282 C 0.28043 0.66378 0.61149 0.0
C283 C 0.16451 0.62275 0.59141 0.0
C284 C 0.2624 0.70056 0.59459 0.0
N285 N 0.20526 0.67957 0.58378 0.0
C286 C 0.18117 0.58455 0.60778 0.0
C287 C 0.23961 0.60508 0.61731 0.0
C288 C 0.08407 0.63225 0.50557 0.0
C289 C 0.16509 0.78632 0.38294 0.0
C290 C 0.06465 0.69876 0.41866 0.0
C291 C 0.07469 0.69486 0.37746 0.0
C292 C 0.12519 0.7391 0.35954 0.0
N293 N 0.10368 0.74555 0.44132 0.0
C294 C 0.15371 0.78863 0.42408 0.0
Co295 Co 0.47182 0.18599 0.89286 0.0
Co296 Co 0.34962 0.10256 0.83867 0.0
O297 O 0.40894 0.18007 0.8582 0.0
C298 C 0.53075 0.28691 0.83689 0.0
O299 O 0.50128 0.25417 0.80583 0.0
C300 C 0.28127 0.16148 0.86126 0.0
O301 O 0.30625 0.17206 0.89711 0.0
O302 O 0.32774 0.07898 0.89637 0.0
O303 O 0.41876 0.10759 0.91695 0.0
H304 H 0.24365 0.88358 0.83618 0.0
H305 H 0.43641 0.27629 0.89613 0.0
O306 O 0.52479 0.26496 0.87177 0.0
H307 H 0.43023 0.21408 0.03781 0.0
H308 H 0.66909 0.29679 0.95848 0.0
H309 H 0.51141 0.10251 0.91576 0.0
H310 H 0.45967 0.17094 0.98254 0.0
H311 H 0.57289 0.28228 0.93825 0.0
O312 O 0.29212 0.13226 0.83514 0.0
H313 H 0.31565 0.98134 0.86132 0.0
H314 H 0.25281 0.05951 0.77795 0.0
H315 H 0.60635 0.11469 0.93667 0.0
H316 H 0.40674 0.32078 0.95044 0.0
H317 H 0.68716 0.21312 0.95603 0.0
H318 H 0.4034 0.28958 0.02187 0.0
O319 O 0.49453 0.15017 0.84865 0.0
H320 H 0.39611 0.23425 0.71782 0.0
H321 H 0.37486 0.04894 0.76756 0.0
H322 H 0.39905 0.07546 0.69583 0.0
H323 H 0.4084 0.16762 0.67039 0.0
H324 H 0.37257 0.20632 0.78977 0.0
H325 H 0.17842 0.96229 0.75294 0.0
H326 H 0.17421 0.87351 0.78143 0.0
O327 O 0.40712 0.07156 0.83991 0.0
C328 C 0.36362 0.08095 0.92312 0.0
C329 C 0.2449 0.92184 0.82341 0.0
C330 C 0.2084 0.96609 0.77671 0.0
N331 N 0.28892 0.02608 0.82079 0.0
C332 C 0.28586 0.97738 0.83742 0.0
C333 C 0.25036 0.021 0.7912 0.0
C334 C 0.20604 0.91626 0.79277 0.0
C335 C 0.4352 0.26265 0.92716 0.0
N336 N 0.44966 0.22103 0.93617 0.0
C337 C 0.41834 0.28795 0.95777 0.0
C338 C 0.41645 0.27041 -0.00215 0.0
C339 C 0.43148 0.22805 0.00681 0.0
C340 C 0.44809 0.20374 0.9754 0.0
C341 C 0.63471 0.254 0.94906 0.0
C342 C 0.54539 0.14502 0.92569 0.0
C343 C 0.57993 0.24543 0.9378 0.0
N344 N 0.53695 0.19203 0.92443 0.0
C345 C 0.59945 0.15179 0.93697 0.0
C346 C 0.64482 0.20704 0.9477 0.0
C347 C 0.46319 0.09699 0.83818 0.0
C348 C 0.39169 0.1936 0.72861 0.0
C349 C 0.38013 0.08996 0.75699 0.0
C350 C 0.39351 0.10454 0.71625 0.0
C351 C 0.39892 0.15651 0.70201 0.0
N352 N 0.37211 0.12601 0.78284 0.0
C353 C 0.37825 0.17753 0.76924 0.0
Co354 Co 0.5573 0.69667 0.42909 0.0
Co355 Co 0.6686 0.751 0.49627 0.0
O356 O 0.6099 0.76046 0.46544 0.0
C357 C 0.47844 0.7264 0.4731 0.0
O358 O 0.50514 0.72804 0.50703 0.0
C359 C 0.7372 0.87971 0.47437 0.0
O360 O 0.72511 0.86664 0.43578 0.0
O361 O 0.70479 0.74984 0.44318 0.0
O362 O 0.6211 0.6793 0.41611 0.0
H363 H 0.7913 0.65947 0.52596 0.0
H364 H 0.57988 0.81712 0.41628 0.0
O365 O 0.49413 0.71463 0.4398 0.0
H366 H 0.62406 0.75659 0.28529 0.0
H367 H 0.37104 0.57819 0.3507 0.0
H368 H 0.5429 0.57981 0.40999 0.0
H369 H 0.58867 0.68889 0.34327 0.0
H370 H 0.45376 0.67002 0.37608 0.0
O371 O 0.71889 0.83896 0.50061 0.0
H372 H 0.72154 0.67589 0.48672 0.0
H373 H 0.74553 0.81149 0.56772 0.0
H374 H 0.46479 0.48944 0.37974 0.0
H375 H 0.61491 0.88627 0.35894 0.0
H376 H 0.37729 0.48759 0.35095 0.0
H377 H 0.63739 0.85611 0.29294 0.0
O378 O 0.53149 0.64293 0.47576 0.0
H379 H 0.57598 0.8274 0.59378 0.0
H380 H 0.63159 0.67693 0.57095 0.0
H381 H 0.58218 0.67648 0.63461 0.0
H382 H 0.55378 0.75194 0.64627 0.0
H383 H 0.62477 0.82579 0.53037 0.0
H384 H 0.81866 0.79921 0.60632 0.0
H385 H 0.84149 0.72213 0.5858 0.0
O386 O 0.61948 0.66166 0.49511 0.0
C387 C 0.67648 0.71251 0.41526 0.0
C388 C 0.78228 0.69353 0.53503 0.0
C389 C 0.79733 0.77173 0.58022 0.0
N390 N 0.7285 0.74369 0.52537 0.0
C391 C 0.74216 0.70248 0.51321 0.0
C392 C 0.75611 0.77872 0.55809 0.0
C393 C 0.81015 0.72853 0.5687 0.0
C394 C 0.58925 0.80367 0.38754 0.0
N395 N 0.58215 0.7491 0.38309 0.0
C396 C 0.60915 0.84298 0.35522 0.0
C397 C 0.62179 0.82605 0.31819 0.0
C398 C 0.61424 0.7702 0.31386 0.0
C399 C 0.59411 0.73203 0.3468 0.0
C400 C 0.40914 0.57856 0.36316 0.0
C401 C 0.50661 0.58073 0.39572 0.0
C402 C 0.45607 0.63045 0.37797 0.0
N403 N 0.50308 0.6307 0.39559 0.0
C404 C 0.46185 0.5288 0.37929 0.0
C405 C 0.41243 0.52761 0.36351 0.0
C406 C 0.56433 0.62647 0.49194 0.0
C407 C 0.58821 0.79433 0.5891 0.0
C408 C 0.61928 0.70986 0.57574 0.0
C409 C 0.59149 0.7095 0.61192 0.0
C410 C 0.57574 0.75197 0.61851 0.0
N411 N 0.63116 0.75143 0.54695 0.0
C412 C 0.61612 0.79337 0.55332 0.0
Co413 Co 0.85563 0.5596 0.76953 0.0
Co414 Co 0.93347 0.68306 0.82396 0.0
O415 O 0.85775 0.62322 0.80152 0.0
C416 C 0.75084 0.49823 0.82213 0.0
O417 O 0.78164 0.5275 0.85387 0.0
C418 C 0.86979 0.74756 0.80139 0.0
O419 O 0.85093 0.71552 0.76835 0.0
O420 O 0.96256 0.70497 0.76677 0.0
O421 O 0.93582 0.61335 0.74859 0.0
H422 H 0.15206 0.7904 0.835 0.0
H423 H 0.76327 0.59116 0.75883 0.0
O424 O 0.77487 0.50598 0.78776 0.0
H425 H 0.84105 0.59768 0.62159 0.0
H426 H 0.75505 0.36245 0.70243 0.0
H427 H 0.94235 0.52121 0.75384 0.0
H428 H 0.87957 0.57044 0.68056 0.0
H429 H 0.76446 0.45645 0.72292 0.0
O430 O 0.90458 0.74144 0.82516 0.0
H431 H 0.05689 0.72101 0.80478 0.0
H432 H 0.97032 0.77444 0.88861 0.0
H433 H 0.93749 0.43181 0.72736 0.0
H434 H 0.72302 0.61825 0.70061 0.0
H435 H 0.84259 0.35044 0.70266 0.0
H436 H 0.76212 0.62183 0.63142 0.0
O437 O 0.8881 0.53871 0.81674 0.0
H438 H 0.78024 0.61753 0.93239 0.0
H439 H 0.97845 0.65582 0.89917 0.0
H440 H 0.936 0.61475 0.96587 0.0
H441 H 0.83552 0.59325 0.98214 0.0
H442 H 0.82407 0.65796 0.86586 0.0
H443 H 0.06498 0.84697 0.91836 0.0
H444 H 0.15673 0.85454 0.89211 0.0
O445 O 0.96533 0.62666 0.82573 0.0
C446 C 0.96321 0.66819 0.7416 0.0
C447 C 0.11255 0.78793 0.84663 0.0
C448 C 0.06362 0.81951 0.89343 0.0
N449 N 1.00808 0.74334 0.84511 0.0
C450 C 0.05845 0.74846 0.82971 0.0
C451 C 1.01018 0.77877 0.8762 0.0
C452 C 0.11508 0.82372 0.87869 0.0
C453 C 0.78036 0.59251 0.72879 0.0
N454 N 0.82404 0.57974 0.72316 0.0
C455 C 0.75745 0.60791 0.69595 0.0
C456 C 0.77944 0.60995 0.65713 0.0
C457 C 0.82373 0.59645 0.6516 0.0
C458 C 0.84552 0.58122 0.68514 0.0
C459 C 0.79686 0.39783 0.71251 0.0
C460 C 0.90188 0.48781 0.74085 0.0
C461 C 0.80222 0.45096 0.72474 0.0
N462 N 0.85376 0.4945 0.74015 0.0
C463 C 0.8991 0.43663 0.72657 0.0
C464 C 0.84588 0.39097 0.71289 0.0
C465 C 0.94058 0.57096 0.82854 0.0
C466 C 0.82399 0.62632 0.9255 0.0
C467 C 0.93506 0.64772 0.90635 0.0
C468 C 0.91132 0.62453 0.9442 0.0
C469 C 0.85509 0.61302 0.9535 0.0
N470 N 0.90361 0.659 0.87851 0.0
C471 C 0.84918 0.64957 0.88795 0.0
Co472 Co 0.29388 0.84173 0.09406 0.0
Co473 Co 0.26227 0.92124 0.15883 0.0
O474 O 0.24148 0.8466 0.13321 0.0
C475 C 0.27043 0.74413 0.14723 0.0
O476 O 0.28985 0.78085 0.17793 0.0
C477 C 0.13409 0.86626 0.14033 0.0
O478 O 0.14531 0.85947 0.1025 0.0
O479 O 0.26431 0.95439 0.1036 0.0
O480 O 0.31938 0.92155 0.07437 0.0
H481 H 0.38123 0.13818 0.17835 0.0
H482 H 0.16811 0.75085 0.0946 0.0
O483 O 0.26797 0.76138 0.112 0.0
H484 H 0.20842 0.82947 0.95547 0.0
H485 H 0.36264 0.73294 0.0056 0.0
H486 H 0.41538 0.92269 0.0683 0.0
H487 H 0.28683 0.86675 0.00688 0.0
H488 H 0.2878 0.74743 0.04012 0.0
O489 O 0.17616 0.89321 0.16535 0.0
H490 H 0.35006 0.04493 0.14298 0.0
H491 H 0.21338 0.95593 0.22837 0.0
H492 H 0.49124 0.91013 0.03438 0.0
H493 H 0.08838 0.71189 0.04403 0.0
H494 H 0.46555 0.81389 0.00423 0.0
H495 H 0.10831 0.75143 0.97391 0.0
O496 O 0.35832 0.87461 0.1349 0.0
H497 H 0.18304 0.76223 0.26314 0.0
H498 H 0.34107 0.96132 0.23143 0.0
H499 H 0.34289 0.91657 0.29649 0.0
H500 H 0.2638 0.81602 0.31254 0.0
H501 H 0.18261 0.80875 0.19875 0.0
H502 H 0.24095 0.04887 0.26338 0.0
H503 H 0.32617 0.14072 0.23895 0.0
O504 O 0.3496 0.95042 0.15503 0.0
C505 C 0.29627 0.95391 0.07445 0.0
C506 C 0.34385 0.09858 0.1893 0.0
C507 C 0.2652 0.04839 0.23702 0.0
N508 N 0.28058 0.99495 0.18395 0.0
C509 C 0.3262 0.04556 0.16947 0.0
C510 C 0.24949 0.99597 0.21686 0.0
C511 C 0.31305 0.09992 0.22329 0.0
C512 C 0.17715 0.76793 0.06407 0.0
N513 N 0.23204 0.81091 0.05368 0.0
C514 C 0.13183 0.74583 0.0356 0.0
C515 C 0.14302 0.76806 -0.00373 0.0
C516 C 0.19916 0.81186 0.9859 0.0
C517 C 0.24337 0.83284 0.01516 0.0
C518 C 0.37447 0.77471 0.0193 0.0
C519 C 0.40334 0.88126 0.05415 0.0
C520 C 0.33223 0.78339 0.03852 0.0
N521 N 0.34736 0.83567 0.0567 0.0
C522 C 0.44676 0.87409 0.0355 0.0
C523 C 0.43227 0.82013 0.01855 0.0
C524 C 0.38005 0.9252 0.15088 0.0
C525 C 0.21755 0.8062 0.25671 0.0
C526 C 0.30611 0.91784 0.23838 0.0
C527 C 0.3074 0.89271 0.27529 0.0
C528 C 0.26291 0.83637 0.28434 0.0
N529 N 0.2615 0.8879 0.21139 0.0
C530 C 0.2175 0.83285 0.22025 0.0
Co531 Co 0.46425 0.29671 0.42343 0.0
Co532 Co 0.35048 0.25163 0.48887 0.0
O533 O 0.40745 0.23717 0.45983 0.0
C534 C 0.53797 0.26975 0.47573 0.0
O535 O 0.51301 0.27834 0.50742 0.0
C536 C 0.28028 0.1249 0.46517 0.0
O537 O 0.29717 0.13995 0.4275 0.0
O538 O 0.31739 0.25437 0.43529 0.0
O539 O 0.40273 0.31453 0.40369 0.0
H540 H 0.23792 0.35487 0.51733 0.0
H541 H 0.43356 0.17256 0.41829 0.0
O542 O 0.52363 0.27617 0.4404 0.0
H543 H 0.42586 0.23106 0.27752 0.0
H544 H 0.66193 0.40558 0.36043 0.0
H545 H 0.48664 0.41421 0.40022 0.0
H546 H 0.44966 0.3009 0.33402 0.0
H547 H 0.5704 0.31563 0.3766 0.0
O548 O 0.29704 0.16421 0.49267 0.0
H549 H 0.30797 0.33602 0.48071 0.0
H550 H 0.2676 0.19197 0.55724 0.0
H551 H 0.57474 0.5041 0.37862 0.0
H552 H 0.40822 0.10081 0.36278 0.0
H553 H 0.66473 0.50052 0.36158 0.0
H554 H 0.40467 0.13006 0.29178 0.0
O555 O 0.48883 0.35469 0.46786 0.0
H556 H 0.44032 0.17609 0.58884 0.0
H557 H 0.38854 0.3282 0.56231 0.0
H558 H 0.44193 0.33325 0.62481 0.0
H559 H 0.46987 0.25806 0.63779 0.0
H560 H 0.38769 0.17321 0.52623 0.0
H561 H 0.19488 0.20761 0.59372 0.0
H562 H 0.17984 0.28988 0.57401 0.0
O563 O 0.40237 0.34013 0.48714 0.0
C564 C 0.3467 0.28644 0.40538 0.0
C565 C 0.24336 0.31843 0.52596 0.0
C566 C 0.21946 0.23596 0.56887 0.0
N567 N 0.29189 0.26291 0.51663 0.0
C568 C 0.28328 0.30772 0.50535 0.0
C569 C 0.26042 0.22705 0.54789 0.0
C570 C 0.21106 0.28212 0.55783 0.0
C571 C 0.4313 0.18534 0.38753 0.0
N572 N 0.44266 0.24069 0.37945 0.0
C573 C 0.41724 0.14464 0.3562 0.0
C574 C 0.41531 0.16109 0.31635 0.0
C575 C 0.4273 0.21776 0.30833 0.0
C576 C 0.44094 0.25719 0.34045 0.0
C577 C 0.62313 0.40761 0.36819 0.0
C578 C 0.52378 0.41141 0.38945 0.0
C579 C 0.57117 0.35674 0.37768 0.0
N580 N 0.52332 0.35943 0.3905 0.0
C581 C 0.57415 0.46285 0.37819 0.0
C582 C 0.62459 0.46097 0.36865 0.0
C583 C 0.45762 0.37313 0.48403 0.0
C584 C 0.42887 0.20949 0.5833 0.0
C585 C 0.39976 0.29472 0.56794 0.0
C586 C 0.42995 0.29781 0.60344 0.0
C587 C 0.44528 0.25533 0.61082 0.0
N588 N 0.38548 0.25072 0.54041 0.0
C589 C 0.39866 0.20782 0.54806 0.0
Co590 Co 0.17257 0.46581 0.77707 0.0
Co591 Co 0.08917 0.345 0.83177 0.0
O592 O 0.16626 0.40404 0.81216 0.0
C593 C 0.26755 0.53168 0.83614 0.0
O594 O 0.23286 0.50384 0.8666 0.0
C595 C 0.15117 0.27843 0.81198 0.0
O596 O 0.16098 0.30093 0.77541 0.0
O597 O 0.06433 0.32094 0.77376 0.0
O598 O 0.09528 0.41181 0.75207 0.0
H599 H 0.87084 0.24341 0.84066 0.0
H600 H 0.26469 0.43295 0.77807 0.0
O601 O 0.24993 0.52021 0.79984 0.0
H602 H 0.20702 0.42022 0.63444 0.0
H603 H 0.28372 0.65418 0.70084 0.0
H604 H 0.09139 0.50854 0.75451 0.0
H605 H 0.16167 0.45138 0.68691 0.0
H606 H 0.26929 0.56248 0.7303 0.0
O607 O 0.12027 0.28887 0.83681 0.0
H608 H 0.96673 0.30932 0.8104 0.0
H609 H 0.04898 0.25155 0.89429 0.0
H610 H 0.10351 0.59864 0.72394 0.0
H611 H 0.31177 0.40205 0.7265 0.0
H612 H 0.20017 0.67238 0.69667 0.0
H613 H 0.28273 0.39524 0.65411 0.0
O614 O 0.13452 0.48861 0.81956 0.0
H615 H 0.23327 0.41706 0.94673 0.0
H616 H 0.03646 0.37181 0.90315 0.0
H617 H 0.07153 0.41295 0.97133 0.0
H618 H 0.17106 0.43718 0.99321 0.0
H619 H 0.1963 0.37523 0.87903 0.0
H620 H 0.95328 0.18189 0.92374 0.0
H621 H 0.86351 0.17873 0.89788 0.0
O622 O 0.05685 0.40099 0.8293 0.0
C623 C 0.06698 0.35662 0.74643 0.0
C624 C 0.90948 0.24399 0.85221 0.0
C625 C 0.95585 0.20968 0.89885 0.0
N626 N 0.01345 0.28482 0.85088 0.0
C627 C 0.96402 0.28158 0.8353 0.0
C628 C 1.00985 0.24874 0.88174 0.0
C629 C 0.90547 0.20791 0.88429 0.0
C630 C 0.25196 0.43021 0.74661 0.0
N631 N 0.20996 0.44332 0.73559 0.0
C632 C 0.27873 0.41267 0.71755 0.0
C633 C 0.26241 0.40883 0.67695 0.0
C634 C 0.21989 0.42276 0.66589 0.0
C635 C 0.19408 0.44009 0.69578 0.0
C636 C 0.24104 0.62194 0.71188 0.0
C637 C 0.13326 0.53953 0.74186 0.0
C638 C 0.23254 0.56978 0.72855 0.0
N639 N 0.17939 0.52976 0.74405 0.0
C640 C 0.13988 0.59068 0.72466 0.0
C641 C 0.19425 0.63224 0.70972 0.0
C642 C 0.08171 0.45684 0.83063 0.0
C643 C 0.18964 0.4063 0.93773 0.0
C644 C 0.07942 0.38105 0.91271 0.0
C645 C 0.09905 0.40442 0.95138 0.0
C646 C 0.15479 0.41766 0.96373 0.0
N647 N 0.11422 0.37087 0.8871 0.0
C648 C 0.16838 0.38245 0.8994 0.0
Co649 Co 0.70436 0.14936 0.09474 0.0
Co650 Co 0.76052 0.09316 0.16106 0.0
O651 O 0.76762 0.16168 0.13181 0.0
C652 C 0.72393 0.25229 0.14273 0.0
O653 O 0.72832 0.22718 0.17571 0.0
C654 C 0.8894 0.15974 0.14006 0.0
O655 O 0.87583 0.15853 0.1016 0.0
O656 O 0.76413 0.05967 0.10744 0.0
O657 O 0.69399 0.07165 0.07849 0.0
H658 H 0.67264 0.87946 0.19083 0.0
H659 H 0.82278 0.2523 0.08672 0.0
O660 O 0.71554 0.22747 0.1085 0.0
H661 H 0.77152 0.16406 0.95001 0.0
H662 H 0.57682 0.21011 0.02267 0.0
H663 H 0.5925 0.04334 0.07256 0.0
H664 H 0.70244 0.12052 0.00691 0.0
H665 H 0.6725 0.22373 0.04372 0.0
O666 O 0.84884 0.13511 0.16642 0.0
H667 H 0.68663 0.96454 0.15162 0.0
H668 H 0.82441 0.07805 0.23054 0.0
H669 H 0.49914 0.02667 0.04544 0.0
H670 H 0.89356 0.29712 0.03071 0.0
H671 H 0.48991 0.11156 0.02301 0.0
H672 H 0.86801 0.25293 0.96178 0.0
O673 O 0.64877 0.11571 0.14002 0.0
H674 H 0.8259 0.25529 0.26358 0.0
H675 H 0.6833 0.0489 0.2342 0.0
H676 H 0.67791 0.09231 0.29929 0.0
H677 H 0.74961 0.19619 0.3144 0.0
H678 H 0.82914 0.21042 0.1986 0.0
H679 H 0.81511 0.99357 0.26841 0.0
H680 H 0.73818 0.89327 0.24891 0.0
O681 O 0.67073 0.04846 0.15821 0.0
C682 C 0.73016 0.0529 0.07779 0.0
C683 C 0.70702 0.92272 0.19913 0.0
C684 C 0.78667 0.98684 0.24285 0.0
N685 N 0.75596 0.02637 0.1889 0.0
C686 C 0.71468 0.97124 0.17733 0.0
C687 C 0.79211 0.03451 0.221 0.0
C688 C 0.74353 0.9306 0.23192 0.0
C689 C 0.81152 0.23283 0.0568 0.0
N690 N 0.7587 0.18388 0.05009 0.0
C691 C 0.85168 0.2584 0.02521 0.0
C692 C 0.8373 0.23359 0.98653 0.0
C693 C 0.78317 0.18379 0.97989 0.0
C694 C 0.74417 0.1594 0.01223 0.0
C695 C 0.58061 0.17311 0.03238 0.0
C696 C 0.5905 0.07987 0.05987 0.0
C697 C 0.63446 0.18062 0.04497 0.0
N698 N 0.63823 0.13493 0.06075 0.0
C699 C 0.5368 0.0702 0.04525 0.0
C700 C 0.53163 0.11756 0.03253 0.0
C701 C 0.63422 0.06683 0.15578 0.0
C702 C 0.79448 0.20993 0.25743 0.0
C703 C 0.71444 0.09426 0.24037 0.0
C704 C 0.71131 0.11853 0.27739 0.0
C705 C 0.75162 0.17679 0.28588 0.0
N706 N 0.75655 0.12709 0.21256 0.0
C707 C 0.79629 0.18419 0.22075 0.0
C708 C 0.31332 0.68482 0.16847 0.0
C709 C 0.26728 0.68761 0.14986 0.0
C710 C 0.31685 0.63414 0.16616 0.0
C711 C 0.27322 0.58344 0.14653 0.0
H712 H 0.34799 0.72269 0.18377 0.0
H713 H 0.35381 0.63456 0.18073 0.0
S714 S 0.14527 0.5705 0.09085 0.0
N715 N 0.17941 0.63815 0.10851 0.0
N716 N 0.18384 0.54058 0.10636 0.0
C717 C 0.22749 0.58619 0.12689 0.0
C718 C 0.22487 0.63876 0.12828 0.0
C719 C 0.66541 0.26663 0.52377 0.0
C720 C 0.69584 0.26128 0.49029 0.0
C721 C 0.61305 0.26661 0.51897 0.0
C722 C 0.58832 0.26051 0.48049 0.0
H723 H 0.68286 0.27302 0.55412 0.0
H724 H 0.59308 0.27353 0.54558 0.0
S725 S 0.64403 0.23321 0.38379 0.0
N726 N 0.69374 0.24255 0.41793 0.0
N727 N 0.59329 0.23974 0.40874 0.0
C728 C 0.61562 0.25032 0.44696 0.0
C729 C 0.66989 0.25148 0.45187 0.0
C730 C 0.40042 0.67791 0.81906 0.0
C731 C 0.44038 0.67878 0.84729 0.0
C732 C 0.34426 0.63008 0.81641 0.0
C733 C 0.32583 0.58194 0.8424 0.0
H734 H 0.41242 0.71491 0.79932 0.0
H735 H 0.31468 0.63129 0.7942 0.0
S736 S 0.41346 0.56421 0.92273 0.0
N737 N 0.45816 0.62849 0.90242 0.0
N738 N 0.35115 0.53803 0.89759 0.0
C739 C 0.36505 0.58231 0.8711 0.0
C740 C 0.42293 0.63087 0.87337 0.0
C741 C 0.78293 0.41108 0.1683 0.0
C742 C 0.74634 0.42518 0.14568 0.0
C743 C 0.77498 0.35468 0.16769 0.0
C744 C 0.73052 0.31073 0.14419 0.0
H745 H 0.81666 0.44344 0.18784 0.0
H746 H 0.80372 0.34543 0.18569 0.0
S747 S 0.62192 0.32417 0.08056 0.0
N748 N 0.66377 0.39028 0.09946 0.0
N749 N 0.64869 0.28405 0.09847 0.0
C750 C 0.69438 0.32434 0.12083 0.0
C751 C 0.7025 0.38178 0.12138 0.0
C752 C 0.38202 0.70364 0.44489 0.0
C753 C 0.42765 0.73496 0.47286 0.0
C754 C 0.33137 0.70804 0.44539 0.0
C755 C 0.32507 0.74432 0.47368 0.0
H756 H 0.38414 0.67333 0.42371 0.0
H757 H 0.29577 0.68025 0.4252 0.0
S758 S 0.43689 0.84351 0.54818 0.0
N759 N 0.46657 0.80832 0.52614 0.0
N760 N 0.37241 0.81862 0.52641 0.0
C761 C 0.37262 0.7795 0.49955 0.0
C762 C 0.42357 0.77407 0.49949 0.0
C763 C 0.60721 0.36483 0.79417 0.0
C764 C 0.57888 0.34726 0.83162 0.0
C765 C 0.66126 0.41595 0.79115 0.0
C766 C 0.68939 0.45088 0.82557 0.0
H767 H 0.58951 0.33728 0.76755 0.0
H768 H 0.68214 0.42627 0.76178 0.0
S769 S 0.62551 0.43117 0.92842 0.0
N770 N 0.57637 0.37463 0.90207 0.0
N771 N 0.67958 0.46959 0.89661 0.0
C772 C 0.65867 0.43682 0.86231 0.0
C773 C 0.60298 0.38524 0.86525 0.0
C774 C 0.55147 0.55858 0.17107 0.0
C775 C 0.57997 0.52567 0.17186 0.0
C776 C 0.49025 0.53155 0.17053 0.0
C777 C 0.45401 0.47007 0.17076 0.0
H778 H 0.57648 0.60584 0.17236 0.0
H779 H 0.47128 0.55966 0.17121 0.0
S780 S 0.50642 0.36326 0.16785 0.0
N781 N 0.56687 0.42753 0.16891 0.0
N782 N 0.45199 0.37717 0.16836 0.0
C783 C 0.48184 0.43648 0.16926 0.0
C784 C 0.54454 0.46408 0.16974 0.0
C785 C 0.07289 0.53076 0.50555 0.0
C786 C 0.04738 0.56655 0.50127 0.0
C787 C 0.03888 0.4691 0.50571 0.0
C788 C 0.97749 0.43988 0.50171 0.0
H789 H 0.11964 0.55045 0.50992 0.0
H790 H 0.06087 0.44428 0.51052 0.0
S791 S 0.88865 0.51196 0.48626 0.0
N792 N 0.95633 0.56671 0.4903 0.0
N793 N 0.89307 0.45211 0.49071 0.0
C794 C 0.95161 0.47499 0.49585 0.0
C795 C 0.98621 0.53768 0.49558 0.0
C796 C 0.45937 1.00001 0.83134 0.0
C797 C 0.49275 0.06139 0.83185 0.0
C798 C 0.4859 0.96523 0.83174 0.0
C799 C 0.54737 0.98976 0.83265 0.0
H800 H 0.41208 0.97826 0.83223 0.0
H801 H 0.45737 0.91831 0.83266 0.0
S802 S 0.65547 0.14838 0.83012 0.0
N803 N 0.59147 0.1454 0.82988 0.0
N804 N 0.64083 0.07991 0.83111 0.0
C805 C 0.58145 0.05106 0.83113 0.0
C806 C 0.55438 0.08673 0.83059 0.0
C807 C 0.47768 0.52528 0.49911 0.0
C808 C 0.53899 0.56219 0.49812 0.0
C809 C 0.45168 0.46412 0.49702 0.0
C810 C 0.48577 0.43695 0.49355 0.0
H811 H 0.44922 0.54386 0.49978 0.0
H812 H 0.40442 0.43824 0.49607 0.0
S813 S 0.64832 0.51288 0.49364 0.0
N814 N 0.63297 0.56614 0.49656 0.0
N815 N 0.5846 0.45185 0.49276 0.0
C816 C 0.54718 0.47312 0.49491 0.0
C817 C 0.57361 0.5354 0.49722 0.0
C818 C 0.95065 0.48104 0.83529 0.0
C819 C 0.97657 0.5425 0.8371 0.0
C820 C 0.98452 0.45341 0.83555 0.0
C821 C 0.046 0.48584 0.83785 0.0
H822 H 0.90379 0.45386 0.83159 0.0
H823 H 0.96229 0.40639 0.83193 0.0
S824 S 0.13534 0.64706 0.85029 0.0
N825 N 0.06757 0.63412 0.8465 0.0
N826 N 0.13087 0.5826 0.84713 0.0
C827 C 0.0722 0.54693 0.84281 0.0
C828 C 0.03769 0.57505 0.8425 0.0
C829 C 0.48067 0.93492 0.14923 0.0
C830 C 0.44471 0.95878 0.15938 0.0
C831 C 0.54222 0.96855 0.15122 0.0
C832 C 0.5705 0.02755 0.16332 0.0
H833 H 0.46135 0.89057 0.13789 0.0
H834 H 0.56774 0.94924 0.14076 0.0
S835 S 0.49796 0.10914 0.19888 0.0
N836 N 0.44341 0.04392 0.18668 0.0
N837 N 0.55815 0.10665 0.18966 0.0
C838 C 0.53532 0.0508 0.17604 0.0
C839 C 0.47284 0.01663 0.17431 0.0
C840 C 0.3023 0.2851 0.29713 0.0
C841 C 0.28745 0.32933 0.29716 0.0
C842 C 0.31634 0.26733 0.33336 0.0
C843 C 0.316 0.29315 0.37062 0.0
H844 H 0.30618 0.26629 0.26888 0.0
H845 H 0.32974 0.23482 0.332 0.0
S846 S 0.26476 0.39846 0.38848 0.0
N847 N 0.2612 0.38893 0.33877 0.0
N848 N 0.29011 0.35719 0.4065 0.0
C849 C 0.29576 0.33291 0.37162 0.0
C850 C 0.28097 0.3507 0.33487 0.0
C851 C 0.98859 0.26138 0.65314 0.0
C852 C 0.98765 0.30258 0.6266 0.0
C853 C 0.01358 0.27818 0.69236 0.0
C854 C 0.0366 0.33618 0.70641 0.0
H855 H 0.96826 0.2159 0.64414 0.0
H856 H 0.01432 0.24561 0.71179 0.0
S857 S 0.04278 0.45889 0.64732 0.0
N858 N 0.01525 0.40346 0.61561 0.0
N859 N 0.05314 0.43326 0.68991 0.0
C860 C 0.03467 0.37683 0.67965 0.0
C861 C 0.01292 0.36057 0.6396 0.0
C862 C 0.74255 0.01649 0.96978 0.0
C863 C 0.68786 0.96579 0.9642 0.0
C864 C 0.76066 0.04161 0.00862 0.0
C865 C 0.72509 0.01609 0.04288 0.0
H866 H 0.76955 0.03899 0.9438 0.0
H867 H 0.80033 0.08356 0.01137 0.0
S868 S 0.58451 0.87755 0.04607 0.0
N869 N 0.6024 0.88717 -0.00242 0.0
N870 N 0.63776 0.934 0.06991 0.0
C871 C 0.6735 0.96281 0.03822 0.0
C872 C 0.65444 0.9378 -0.001 0.0
C873 C 0.68956 0.64462 0.37165 0.0
C874 C 0.7064 0.70262 0.3812 0.0
C875 C 0.70033 0.62941 0.33342 0.0
C876 C 0.7293 0.67149 0.30299 0.0
H877 H 0.66437 0.61003 0.39313 0.0
H878 H 0.68332 0.58356 0.32731 0.0
S879 S 0.78347 0.83045 0.31353 0.0
N880 N 0.75385 0.80302 0.35806 0.0
N881 N 0.77625 0.77484 0.28592 0.0
C882 C 0.74873 0.73042 0.31278 0.0
C883 C 0.73707 0.74589 0.35202 0.0
C884 C 0.03787 0.7536 0.64506 0.0
C885 C 0.04801 0.71313 0.62377 0.0
C886 C 0.01233 0.74047 0.68416 0.0
C887 C 0.99724 0.68696 0.7031 0.0
H888 H 0.0505 0.7957 0.63181 0.0
H889 H 1.00369 0.77185 0.69927 0.0
S890 S 0.01441 0.56682 0.6588 0.0
N891 N 0.03716 0.61654 0.6231 0.0
N892 N 0.99712 0.59502 0.69721 0.0
C893 C 1.00862 0.64728 0.68185 0.0
C894 C 0.03162 0.6594 0.642 0.0
C895 C 0.36738 0.01237 0.02204 0.0
C896 C 0.31219 0.99349 0.03937 0.0
C897 C 0.3819 0.03846 0.98415 0.0
C898 C 0.34276 0.049 0.96194 0.0
H899 H 0.39927 1.00478 0.03731 0.0
H900 H 0.42443 0.04985 0.97202 0.0
S901 S 0.19243 0.00903 0.99386 0.0
N902 N 0.21736 0.98643 0.03156 0.0
N903 N 0.24599 0.0392 0.96032 0.0
C904 C 0.2875 0.03166 0.97908 0.0
C905 C 0.27213 1.00361 0.01795 0.0
C906 C 0.99732 0.20453 0.12484 0.0
C907 C 0.95226 0.19065 0.15323 0.0
C908 C 0.05669 0.23391 0.13649 0.0
C909 C 0.07393 0.25161 0.17699 0.0
H910 H 0.98673 0.19242 0.09325 0.0
H911 H 0.08939 0.24364 0.1133 0.0
S912 S 0.97338 0.22671 0.26336 0.0
N913 N 0.92958 0.19717 0.224 0.0
N914 N 0.04032 0.25277 0.24561 0.0
C915 C 0.02929 0.23807 0.2057 0.0
C916 C 0.96886 0.20755 0.19394 0.0
C917 C 0.8349 0.0465 0.47219 0.0
C918 C 0.83566 0.06346 0.51297 0.0
C919 C 0.80323 0.98739 0.45999 0.0
C920 C 0.77133 0.94231 0.48804 0.0
H921 H 0.85811 0.07925 0.4492 0.0
H922 H 0.80382 0.97704 0.42822 0.0
S923 S 0.75904 0.96276 0.59869 0.0
N924 N 0.80142 0.02953 0.58147 0.0
N925 N 0.74289 0.91936 0.55884 0.0
C926 C 0.77232 0.95863 0.52903 0.0
C927 C 0.80411 0.01878 0.54137 0.0
C928 C 0.79851 0.7842 0.79201 0.0
C929 C 0.8468 0.78757 0.8128 0.0
C930 C 0.77405 0.81897 0.80327 0.0
C931 C 0.79686 0.85929 0.83572 0.0
H932 H 0.77868 0.75378 0.76702 0.0
H933 H 0.73686 0.81416 0.78616 0.0
S934 S 0.92388 0.88642 0.89983 0.0
N935 N 0.91702 0.83566 0.86734 0.0
N936 N 0.87144 0.90069 0.88831 0.0
C937 C 0.84555 0.86361 0.85654 0.0
C938 C 0.8703 0.82794 0.84519 0.0
C939 C 0.96685 0.78686 0.14019 0.0
C940 C 0.95216 0.77452 0.18154 0.0
C941 C 0.0255 0.81733 0.12723 0.0
C942 C 0.07221 0.83778 0.15507 0.0
H943 H 0.93276 0.77139 0.11737 0.0
H944 H 0.03421 0.82435 0.09501 0.0
S945 S 0.05766 0.81938 0.26713 0.0
N946 N 0.98962 0.78672 0.25041 0.0
N947 N 0.09917 0.84477 0.2264 0.0
C948 C 0.05808 0.82725 0.19667 0.0
C949 C 0.99838 0.79546 0.20978 0.0
C950 C 0.20873 0.98676 0.52979 0.0
C951 C 0.17958 0.94125 0.50132 0.0
C952 C 0.23988 0.04562 0.51785 0.0
C953 C 0.24424 0.06192 0.47675 0.0
H954 H 0.20803 0.97694 0.56173 0.0
H955 H 0.26183 0.07853 0.54115 0.0
S956 S 0.17513 0.96003 0.38988 0.0
N957 N 0.15598 0.91705 0.42993 0.0
N958 N 0.21534 0.02723 0.40749 0.0
C959 C 0.21478 0.01697 0.44791 0.0
C960 C 0.18227 0.95692 0.46016 0.0
C961 C 0.20364 0.22255 0.79667 0.0
C962 C 0.1802 0.24485 0.82547 0.0
C963 C 0.23446 0.19418 0.80849 0.0
C964 C 0.24434 0.18769 0.84971 0.0
H965 H 0.19859 0.22742 0.76455 0.0
H966 H 0.25207 0.17863 0.78494 0.0
S967 S 0.19149 0.23721 0.93753 0.0
N968 N 0.16791 0.25673 0.89747 0.0
N969 N 0.22674 0.20503 0.91949 0.0
C970 C 0.22056 0.20913 0.87889 0.0
C971 C 0.18831 0.23716 0.86686 0.0
loop_
_geom_bond_atom_site_label_1
_geom_bond_atom_site_label_2
_geom_bond_distance
_geom_bond_site_symmetry_2
_ccdc_geom_bond_type
Co0 O2 2.143 . S
Co0 O8 2.074 . S
Co0 O11 2.093 . S
Co0 O24 2.097 . S
Co0 N41 2.151 . S
Co0 N49 2.214 . S
Co1 O2 2.160 . S
Co1 O7 2.058 . S
Co1 O17 2.057 . S
Co1 O32 2.037 . S
Co1 N36 2.145 . S
Co1 N57 2.257 . S
O2 Co0 2.143 . S
O2 Co1 2.160 . S
C3 O4 1.278 . S
C3 O11 1.224 . S
O4 C3 1.278 . S
C5 O6 1.245 . S
C5 O17 1.232 . S
O6 C5 1.245 . S
O7 Co1 2.058 . S
O7 C33 1.269 . S
O8 Co0 2.074 . S
O8 C33 1.257 . S
H9 C34 0.930 . S
H10 C40 0.930 . S
O11 Co0 2.093 . S
O11 C3 1.224 . S
H12 C44 0.929 . S
H13 C46 0.930 . S
H14 C47 0.930 . S
H15 C45 0.929 . S
H16 C48 0.928 . S
O17 Co1 2.057 . S
O17 C5 1.232 . S
H18 C37 0.929 . S
H19 C38 0.929 . S
H20 C50 0.931 . S
H21 C42 0.929 . S
H22 C51 0.930 . S
H23 C43 0.931 . S
O24 Co0 2.097 . S
O24 C52 1.214 . S
H25 C53 0.929 . S
H26 C54 0.929 . S
H27 C55 0.930 . S
H28 C56 0.929 1_556 S
H29 C58 0.930 . S
H30 C35 0.930 . S
H31 C39 0.930 . S
O32 Co1 2.037 . S
O32 C52 1.234 . S
C33 O7 1.269 . S
C33 O8 1.257 . S
C34 H9 0.930 . S
C34 C37 1.388 . S
C34 C39 1.418 . S
C35 H30 0.930 . S
C35 C38 1.404 . S
C35 C39 1.353 . S
N36 Co1 2.145 . S
N36 C37 1.397 . S
N36 C38 1.334 . S
C37 H18 0.929 . S
C37 C34 1.388 . S
C37 N36 1.397 . S
C38 H19 0.929 . S
C38 C35 1.404 . S
C38 N36 1.334 . S
C39 H31 0.930 . S
C39 C34 1.418 . S
C39 C35 1.353 . S
C40 H10 0.930 . S
C40 N41 1.330 . S
C40 C42 1.446 . S
N41 Co0 2.151 . S
N41 C40 1.330 . S
N41 C45 1.418 . S
C42 H21 0.929 . S
C42 C40 1.446 . S
C42 C43 1.332 . S
C43 H23 0.931 . S
C43 C42 1.332 . S
C43 C44 1.267 . S
C44 H12 0.929 . S
C44 C43 1.267 . S
C44 C45 1.251 . S
C45 H15 0.929 . S
C45 N41 1.418 . S
C45 C44 1.251 . S
C46 H13 0.930 . S
C46 C48 1.406 . S
C46 C51 1.261 . S
C47 H14 0.930 . S
C47 N49 1.325 . S
C47 C50 1.357 . S
C48 H16 0.928 . S
C48 C46 1.406 . S
C48 N49 1.261 . S
N49 Co0 2.214 . S
N49 C47 1.325 . S
N49 C48 1.261 . S
C50 H20 0.931 . S
C50 C47 1.357 . S
C50 C51 1.312 . S
C51 H22 0.930 . S
C51 C46 1.261 . S
C51 C50 1.312 . S
C52 O24 1.214 . S
C52 O32 1.234 . S
C53 H25 0.929 . S
C53 C56 1.391 . S
C53 C58 1.391 . S
C54 H26 0.929 . S
C54 C55 1.390 . S
C54 N57 1.391 . S
C55 H27 0.930 . S
C55 C54 1.390 . S
C55 C56 1.392 . S
C56 H28 0.929 1_554 S
C56 C53 1.391 . S
C56 C55 1.392 . S
N57 Co1 2.257 . S
N57 C54 1.391 . S
N57 C58 1.388 . S
C58 H29 0.930 . S
C58 C53 1.391 . S
C58 N57 1.388 . S
Co59 O61 2.143 . S
Co59 O67 2.074 . S
Co59 O70 2.093 . S
Co59 O83 2.097 . S
Co59 N100 2.151 . S
Co59 N108 2.214 . S
Co60 O61 2.160 . S
Co60 O66 2.058 . S
Co60 O76 2.057 . S
Co60 O91 2.037 . S
Co60 N95 2.142 1_655 S
Co60 N116 2.257 . S
O61 Co59 2.143 . S
O61 Co60 2.160 . S
C62 O63 1.278 . S
C62 O70 1.224 . S
O63 C62 1.278 . S
C64 O65 1.245 . S
C64 O76 1.232 . S
O65 C64 1.245 . S
O66 Co60 2.058 . S
O66 C92 1.269 . S
O67 Co59 2.074 . S
O67 C92 1.257 . S
H68 C93 0.930 . S
H69 C99 0.930 . S
O70 Co59 2.093 . S
O70 C62 1.224 . S
H71 C103 0.929 . S
H72 C105 0.930 . S
H73 C106 0.930 . S
H74 C104 0.929 . S
H75 C107 0.928 . S
O76 Co60 2.057 . S
O76 C64 1.232 . S
H77 C96 0.929 . S
H78 C97 0.937 . S
H79 C109 0.931 . S
H80 C101 0.929 . S
H81 C110 0.930 . S
H82 C102 0.931 . S
O83 Co59 2.097 . S
O83 C111 1.214 . S
H84 C112 0.929 . S
H85 C113 0.929 . S
H86 C114 0.930 . S
H87 C115 0.929 . S
H88 C117 0.930 . S
H89 C94 0.930 . S
H90 C98 0.930 . S
O91 Co60 2.037 . S
O91 C111 1.234 . S
C92 O66 1.269 . S
C92 O67 1.257 . S
C93 H68 0.930 . S
C93 C96 1.388 . S
C93 C98 1.418 . S
C94 H89 0.930 . S
C94 C97 1.390 1_455 S
C94 C98 1.353 . S
N95 Co60 2.142 1_455 S
N95 C96 1.398 . S
N95 C97 1.342 1_455 S
C96 H77 0.929 . S
C96 C93 1.388 . S
C96 N95 1.398 . S
C97 H78 0.937 . S
C97 C94 1.390 1_655 S
C97 N95 1.342 1_655 S
C98 H90 0.930 . S
C98 C93 1.418 . S
C98 C94 1.353 . S
C99 H69 0.930 . S
C99 N100 1.330 . S
C99 C101 1.446 . S
N100 Co59 2.151 . S
N100 C99 1.330 . S
N100 C104 1.418 . S
C101 H80 0.929 . S
C101 C99 1.446 . S
C101 C102 1.332 . S
C102 H82 0.931 . S
C102 C101 1.332 . S
C102 C103 1.267 . S
C103 H71 0.929 . S
C103 C102 1.267 . S
C103 C104 1.251 . S
C104 H74 0.929 . S
C104 N100 1.418 . S
C104 C103 1.251 . S
C105 H72 0.930 . S
C105 C107 1.406 . S
C105 C110 1.261 . S
C106 H73 0.930 . S
C106 N108 1.325 . S
C106 C109 1.357 . S
C107 H75 0.928 . S
C107 C105 1.406 . S
C107 N108 1.261 . S
N108 Co59 2.214 . S
N108 C106 1.325 . S
N108 C107 1.261 . S
C109 H79 0.931 . S
C109 C106 1.357 . S
C109 C110 1.312 . S
C110 H81 0.930 . S
C110 C105 1.261 . S
C110 C109 1.312 . S
C111 O83 1.214 . S
C111 O91 1.234 . S
C112 H84 0.929 . S
C112 C115 1.391 . S
C112 C117 1.391 . S
C113 H85 0.929 . S
C113 C114 1.390 . S
C113 N116 1.391 . S
C114 H86 0.930 . S
C114 C113 1.390 . S
C114 C115 1.392 . S
C115 H87 0.929 . S
C115 C112 1.391 . S
C115 C114 1.392 . S
N116 Co60 2.257 . S
N116 C113 1.391 . S
N116 C117 1.388 . S
C117 H88 0.930 . S
C117 C112 1.391 . S
C117 N116 1.388 . S
Co118 O120 2.143 . S
Co118 O126 2.074 . S
Co118 O129 2.093 . S
Co118 O142 2.097 . S
Co118 N159 2.151 . S
Co118 N167 2.214 . S
Co119 O120 2.160 . S
Co119 O125 2.058 . S
Co119 O135 2.057 . S
Co119 O150 2.037 . S
Co119 N154 2.143 1_565 S
Co119 N175 2.257 . S
O120 Co118 2.143 . S
O120 Co119 2.160 . S
C121 O122 1.278 . S
C121 O129 1.224 . S
O122 C121 1.278 . S
C123 O124 1.245 . S
C123 O135 1.232 . S
O124 C123 1.245 . S
O125 Co119 2.058 . S
O125 C151 1.269 . S
O126 Co118 2.074 . S
O126 C151 1.257 . S
H127 C152 0.930 . S
H128 C158 0.930 . S
O129 Co118 2.093 . S
O129 C121 1.224 . S
H130 C162 0.936 . S
H131 C164 0.930 . S
H132 C165 0.930 . S
H133 C163 0.929 . S
H134 C166 0.928 . S
O135 Co119 2.057 . S
O135 C123 1.232 . S
H136 C155 0.929 . S
H137 C156 0.944 . S
H138 C168 0.931 . S
H139 C160 0.929 . S
H140 C169 0.930 . S
H141 C161 0.931 1_554 S
O142 Co118 2.097 . S
O142 C170 1.214 . S
H143 C171 0.929 . S
H144 C172 0.929 . S
H145 C173 0.930 . S
H146 C174 0.929 . S
H147 C176 0.930 . S
H148 C153 0.930 . S
H149 C157 0.930 . S
O150 Co119 2.037 . S
O150 C170 1.234 . S
C151 O125 1.269 . S
C151 O126 1.257 . S
C152 H127 0.930 . S
C152 C155 1.388 . S
C152 C157 1.418 . S
C153 H148 0.930 . S
C153 C156 1.396 1_545 S
C153 C157 1.353 . S
N154 Co119 2.143 1_545 S
N154 C155 1.399 . S
N154 C156 1.326 1_545 S
C155 H136 0.929 . S
C155 C152 1.388 . S
C155 N154 1.399 . S
C156 H137 0.944 . S
C156 C153 1.396 1_565 S
C156 N154 1.326 1_565 S
C157 H149 0.930 . S
C157 C152 1.418 . S
C157 C153 1.353 . S
C158 H128 0.930 . S
C158 N159 1.330 . S
C158 C160 1.446 . S
N159 Co118 2.151 . S
N159 C158 1.330 . S
N159 C163 1.418 . S
C160 H139 0.929 . S
C160 C158 1.446 . S
C160 C161 1.332 . S
C161 H141 0.931 1_556 S
C161 C160 1.332 . S
C161 C162 1.265 1_556 S
C162 H130 0.936 . S
C162 C161 1.265 1_554 S
C162 C163 1.246 1_554 S
C163 H133 0.929 . S
C163 N159 1.418 . S
C163 C162 1.246 1_556 S
C164 H131 0.930 . S
C164 C166 1.406 . S
C164 C169 1.261 . S
C165 H132 0.930 . S
C165 N167 1.325 . S
C165 C168 1.357 . S
C166 H134 0.928 . S
C166 C164 1.406 . S
C166 N167 1.261 . S
N167 Co118 2.214 . S
N167 C165 1.325 . S
N167 C166 1.261 . S
C168 H138 0.931 . S
C168 C165 1.357 . S
C168 C169 1.312 . S
C169 H140 0.930 . S
C169 C164 1.261 . S
C169 C168 1.312 . S
C170 O142 1.214 . S
C170 O150 1.234 . S
C171 H143 0.929 . S
C171 C174 1.391 . S
C171 C176 1.391 . S
C172 H144 0.929 . S
C172 C173 1.390 . S
C172 N175 1.391 . S
C173 H145 0.930 . S
C173 C172 1.390 . S
C173 C174 1.392 . S
C174 H146 0.929 . S
C174 C171 1.391 . S
C174 C173 1.392 . S
N175 Co119 2.257 . S
N175 C172 1.391 . S
N175 C176 1.388 . S
C176 H147 0.930 . S
C176 C171 1.391 . S
C176 N175 1.388 . S
Co177 O179 2.143 . S
Co177 O185 2.074 . S
Co177 O188 2.093 . S
Co177 O201 2.097 . S
Co177 N218 2.151 . S
Co177 N226 2.214 . S
Co178 O179 2.160 . S
Co178 O184 2.058 . S
Co178 O194 2.057 . S
Co178 O209 2.037 . S
Co178 N213 2.145 . S
Co178 N234 2.257 . S
O179 Co177 2.143 . S
O179 Co178 2.160 . S
C180 O181 1.278 . S
C180 O188 1.224 . S
O181 C180 1.278 . S
C182 O183 1.245 . S
C182 O194 1.232 . S
O183 C182 1.245 . S
O184 Co178 2.058 . S
O184 C210 1.269 . S
O185 Co177 2.074 . S
O185 C210 1.257 . S
H186 C211 0.930 . S
H187 C217 0.930 . S
O188 Co177 2.093 . S
O188 C180 1.224 . S
H189 C221 0.929 . S
H190 C223 0.930 . S
H191 C224 0.930 . S
H192 C222 0.929 . S
H193 C225 0.928 . S
O194 Co178 2.057 . S
O194 C182 1.232 . S
H195 C214 0.929 . S
H196 C215 0.929 . S
H197 C227 0.931 . S
H198 C219 0.929 . S
H199 C228 0.930 . S
H200 C220 0.931 . S
O201 Co177 2.097 . S
O201 C229 1.214 . S
H202 C230 0.929 . S
H203 C231 0.929 . S
H204 C232 0.930 . S
H205 C233 0.929 1_556 S
H206 C235 0.930 . S
H207 C212 0.930 . S
H208 C216 0.930 . S
O209 Co178 2.037 . S
O209 C229 1.234 . S
C210 O184 1.269 . S
C210 O185 1.257 . S
C211 H186 0.930 . S
C211 C214 1.388 . S
C211 C216 1.418 . S
C212 H207 0.930 . S
C212 C215 1.404 . S
C212 C216 1.353 . S
N213 Co178 2.145 . S
N213 C214 1.397 . S
N213 C215 1.334 . S
C214 H195 0.929 . S
C214 C211 1.388 . S
C214 N213 1.397 . S
C215 H196 0.929 . S
C215 C212 1.404 . S
C215 N213 1.334 . S
C216 H208 0.930 . S
C216 C211 1.418 . S
C216 C212 1.353 . S
C217 H187 0.930 . S
C217 N218 1.330 . S
C217 C219 1.446 . S
N218 Co177 2.151 . S
N218 C217 1.330 . S
N218 C222 1.418 . S
C219 H198 0.929 . S
C219 C217 1.446 . S
C219 C220 1.332 . S
C220 H200 0.931 . S
C220 C219 1.332 . S
C220 C221 1.267 . S
C221 H189 0.929 . S
C221 C220 1.267 . S
C221 C222 1.251 . S
C222 H192 0.929 . S
C222 N218 1.418 . S
C222 C221 1.251 . S
C223 H190 0.930 . S
C223 C225 1.406 . S
C223 C228 1.261 . S
C224 H191 0.930 . S
C224 N226 1.325 . S
C224 C227 1.357 . S
C225 H193 0.928 . S
C225 C223 1.406 . S
C225 N226 1.261 . S
N226 Co177 2.214 . S
N226 C224 1.325 . S
N226 C225 1.261 . S
C227 H197 0.931 . S
C227 C224 1.357 . S
C227 C228 1.312 . S
C228 H199 0.930 . S
C228 C223 1.261 . S
C228 C227 1.312 . S
C229 O201 1.214 . S
C229 O209 1.234 . S
C230 H202 0.929 . S
C230 C233 1.391 . S
C230 C235 1.391 . S
C231 H203 0.929 . S
C231 C232 1.390 . S
C231 N234 1.391 . S
C232 H204 0.930 . S
C232 C231 1.390 . S
C232 C233 1.392 . S
C233 H205 0.929 1_554 S
C233 C230 1.391 . S
C233 C232 1.392 . S
N234 Co178 2.257 . S
N234 C231 1.391 . S
N234 C235 1.388 . S
C235 H206 0.930 . S
C235 C230 1.391 . S
C235 N234 1.388 . S
Co236 O238 2.143 . S
Co236 O244 2.074 . S
Co236 O247 2.093 . S
Co236 O260 2.097 . S
Co236 N277 2.151 . S
Co236 N285 2.214 . S
Co237 O238 2.160 . S
Co237 O243 2.058 . S
Co237 O253 2.057 . S
Co237 O268 2.037 . S
Co237 N272 2.142 1_455 S
Co237 N293 2.257 . S
O238 Co236 2.143 . S
O238 Co237 2.160 . S
C239 O240 1.278 . S
C239 O247 1.224 . S
O240 C239 1.278 . S
C241 O242 1.245 . S
C241 O253 1.232 . S
O242 C241 1.245 . S
O243 Co237 2.058 . S
O243 C269 1.269 . S
O244 Co236 2.074 . S
O244 C269 1.257 . S
H245 C270 0.930 . S
H246 C276 0.930 . S
O247 Co236 2.093 . S
O247 C239 1.224 . S
H248 C280 0.929 . S
H249 C282 0.930 . S
H250 C283 0.930 . S
H251 C281 0.929 . S
H252 C284 0.928 . S
O253 Co237 2.057 . S
O253 C241 1.232 . S
H254 C273 0.929 . S
H255 C274 0.937 . S
H256 C286 0.931 . S
H257 C278 0.929 . S
H258 C287 0.930 . S
H259 C279 0.931 . S
O260 Co236 2.097 . S
O260 C288 1.214 . S
H261 C289 0.929 . S
H262 C290 0.929 . S
H263 C291 0.930 . S
H264 C292 0.929 . S
H265 C294 0.930 . S
H266 C271 0.930 . S
H267 C275 0.930 . S
O268 Co237 2.037 . S
O268 C288 1.234 . S
C269 O243 1.269 . S
C269 O244 1.257 . S
C270 H245 0.930 . S
C270 C273 1.388 . S
C270 C275 1.418 . S
C271 H266 0.930 . S
C271 C274 1.390 1_655 S
C271 C275 1.353 . S
N272 Co237 2.142 1_655 S
N272 C273 1.398 . S
N272 C274 1.342 1_655 S
C273 H254 0.929 . S
C273 C270 1.388 . S
C273 N272 1.398 . S
C274 H255 0.937 . S
C274 C271 1.390 1_455 S
C274 N272 1.342 1_455 S
C275 H267 0.930 . S
C275 C270 1.418 . S
C275 C271 1.353 . S
C276 H246 0.930 . S
C276 N277 1.330 . S
C276 C278 1.446 . S
N277 Co236 2.151 . S
N277 C276 1.330 . S
N277 C281 1.418 . S
C278 H257 0.929 . S
C278 C276 1.446 . S
C278 C279 1.332 . S
C279 H259 0.931 . S
C279 C278 1.332 . S
C279 C280 1.267 . S
C280 H248 0.929 . S
C280 C279 1.267 . S
C280 C281 1.251 . S
C281 H251 0.929 . S
C281 N277 1.418 . S
C281 C280 1.251 . S
C282 H249 0.930 . S
C282 C284 1.406 . S
C282 C287 1.261 . S
C283 H250 0.930 . S
C283 N285 1.325 . S
C283 C286 1.357 . S
C284 H252 0.928 . S
C284 C282 1.406 . S
C284 N285 1.261 . S
N285 Co236 2.214 . S
N285 C283 1.325 . S
N285 C284 1.261 . S
C286 H256 0.931 . S
C286 C283 1.357 . S
C286 C287 1.312 . S
C287 H258 0.930 . S
C287 C282 1.261 . S
C287 C286 1.312 . S
C288 O260 1.214 . S
C288 O268 1.234 . S
C289 H261 0.929 . S
C289 C292 1.391 . S
C289 C294 1.391 . S
C290 H262 0.929 . S
C290 C291 1.390 . S
C290 N293 1.391 . S
C291 H263 0.930 . S
C291 C290 1.390 . S
C291 C292 1.392 . S
C292 H264 0.929 . S
C292 C289 1.391 . S
C292 C291 1.392 . S
N293 Co237 2.257 . S
N293 C290 1.391 . S
N293 C294 1.388 . S
C294 H265 0.930 . S
C294 C289 1.391 . S
C294 N293 1.388 . S
Co295 O297 2.143 . S
Co295 O303 2.074 . S
Co295 O306 2.093 . S
Co295 O319 2.097 . S
Co295 N336 2.151 . S
Co295 N344 2.214 . S
Co296 O297 2.160 . S
Co296 O302 2.058 . S
Co296 O312 2.057 . S
Co296 O327 2.037 . S
Co296 N331 2.143 1_545 S
Co296 N352 2.257 . S
O297 Co295 2.143 . S
O297 Co296 2.160 . S
C298 O299 1.278 . S
C298 O306 1.224 . S
O299 C298 1.278 . S
C300 O301 1.245 . S
C300 O312 1.232 . S
O301 C300 1.245 . S
O302 Co296 2.058 . S
O302 C328 1.269 . S
O303 Co295 2.074 . S
O303 C328 1.257 . S
H304 C329 0.930 . S
H305 C335 0.930 . S
O306 Co295 2.093 . S
O306 C298 1.224 . S
H307 C339 0.936 . S
H308 C341 0.930 . S
H309 C342 0.930 . S
H310 C340 0.929 . S
H311 C343 0.928 . S
O312 Co296 2.057 . S
O312 C300 1.232 . S
H313 C332 0.929 . S
H314 C333 0.944 . S
H315 C345 0.931 . S
H316 C337 0.929 . S
H317 C346 0.930 . S
H318 C338 0.931 1_554 S
O319 Co295 2.097 . S
O319 C347 1.214 . S
H320 C348 0.929 . S
H321 C349 0.929 . S
H322 C350 0.930 . S
H323 C351 0.929 . S
H324 C353 0.930 . S
H325 C330 0.930 . S
H326 C334 0.930 . S
O327 Co296 2.037 . S
O327 C347 1.234 . S
C328 O302 1.269 . S
C328 O303 1.257 . S
C329 H304 0.930 . S
C329 C332 1.388 . S
C329 C334 1.418 . S
C330 H325 0.930 . S
C330 C333 1.396 1_565 S
C330 C334 1.353 . S
N331 Co296 2.143 1_565 S
N331 C332 1.399 . S
N331 C333 1.326 1_565 S
C332 H313 0.929 . S
C332 C329 1.388 . S
C332 N331 1.399 . S
C333 H314 0.944 . S
C333 C330 1.396 1_545 S
C333 N331 1.326 1_545 S
C334 H326 0.930 . S
C334 C329 1.418 . S
C334 C330 1.353 . S
C335 H305 0.930 . S
C335 N336 1.330 . S
C335 C337 1.446 . S
N336 Co295 2.151 . S
N336 C335 1.330 . S
N336 C340 1.418 . S
C337 H316 0.929 . S
C337 C335 1.446 . S
C337 C338 1.332 . S
C338 H318 0.931 1_556 S
C338 C337 1.332 . S
C338 C339 1.265 1_556 S
C339 H307 0.936 . S
C339 C338 1.265 1_554 S
C339 C340 1.246 1_554 S
C340 H310 0.929 . S
C340 N336 1.418 . S
C340 C339 1.246 1_556 S
C341 H308 0.930 . S
C341 C343 1.406 . S
C341 C346 1.261 . S
C342 H309 0.930 . S
C342 N344 1.325 . S
C342 C345 1.357 . S
C343 H311 0.928 . S
C343 C341 1.406 . S
C343 N344 1.261 . S
N344 Co295 2.214 . S
N344 C342 1.325 . S
N344 C343 1.261 . S
C345 H315 0.931 . S
C345 C342 1.357 . S
C345 C346 1.312 . S
C346 H317 0.930 . S
C346 C341 1.261 . S
C346 C345 1.312 . S
C347 O319 1.214 . S
C347 O327 1.234 . S
C348 H320 0.929 . S
C348 C351 1.391 . S
C348 C353 1.391 . S
C349 H321 0.929 . S
C349 C350 1.390 . S
C349 N352 1.391 . S
C350 H322 0.930 . S
C350 C349 1.390 . S
C350 C351 1.392 . S
C351 H323 0.929 . S
C351 C348 1.391 . S
C351 C350 1.392 . S
N352 Co296 2.257 . S
N352 C349 1.391 . S
N352 C353 1.388 . S
C353 H324 0.930 . S
C353 C348 1.391 . S
C353 N352 1.388 . S
Co354 O356 2.143 . S
Co354 O362 2.074 . S
Co354 O365 2.093 . S
Co354 O378 2.097 . S
Co354 N395 2.151 . S
Co354 N403 2.214 . S
Co355 O356 2.160 . S
Co355 O361 2.058 . S
Co355 O371 2.057 . S
Co355 O386 2.037 . S
Co355 N390 2.145 . S
Co355 N411 2.257 . S
O356 Co354 2.143 . S
O356 Co355 2.160 . S
C357 O358 1.278 . S
C357 O365 1.224 . S
O358 C357 1.278 . S
C359 O360 1.245 . S
C359 O371 1.232 . S
O360 C359 1.245 . S
O361 Co355 2.058 . S
O361 C387 1.269 . S
O362 Co354 2.074 . S
O362 C387 1.257 . S
H363 C388 0.930 . S
H364 C394 0.930 . S
O365 Co354 2.093 . S
O365 C357 1.224 . S
H366 C398 0.929 . S
H367 C400 0.930 . S
H368 C401 0.930 . S
H369 C399 0.929 . S
H370 C402 0.928 . S
O371 Co355 2.057 . S
O371 C359 1.232 . S
H372 C391 0.929 . S
H373 C392 0.929 . S
H374 C404 0.931 . S
H375 C396 0.929 . S
H376 C405 0.930 . S
H377 C397 0.931 . S
O378 Co354 2.097 . S
O378 C406 1.214 . S
H379 C407 0.929 . S
H380 C408 0.929 . S
H381 C409 0.930 . S
H382 C410 0.929 . S
H383 C412 0.930 . S
H384 C389 0.930 . S
H385 C393 0.930 . S
O386 Co355 2.037 . S
O386 C406 1.234 . S
C387 O361 1.269 . S
C387 O362 1.257 . S
C388 H363 0.930 . S
C388 C391 1.388 . S
C388 C393 1.418 . S
C389 H384 0.930 . S
C389 C392 1.404 . S
C389 C393 1.353 . S
N390 Co355 2.145 . S
N390 C391 1.397 . S
N390 C392 1.334 . S
C391 H372 0.929 . S
C391 C388 1.388 . S
C391 N390 1.397 . S
C392 H373 0.929 . S
C392 C389 1.404 . S
C392 N390 1.334 . S
C393 H385 0.930 . S
C393 C388 1.418 . S
C393 C389 1.353 . S
C394 H364 0.930 . S
C394 N395 1.330 . S
C394 C396 1.446 . S
N395 Co354 2.151 . S
N395 C394 1.330 . S
N395 C399 1.418 . S
C396 H375 0.929 . S
C396 C394 1.446 . S
C396 C397 1.332 . S
C397 H377 0.931 . S
C397 C396 1.332 . S
C397 C398 1.267 . S
C398 H366 0.929 . S
C398 C397 1.267 . S
C398 C399 1.251 . S
C399 H369 0.929 . S
C399 N395 1.418 . S
C399 C398 1.251 . S
C400 H367 0.930 . S
C400 C402 1.406 . S
C400 C405 1.261 . S
C401 H368 0.930 . S
C401 N403 1.325 . S
C401 C404 1.357 . S
C402 H370 0.928 . S
C402 C400 1.406 . S
C402 N403 1.261 . S
N403 Co354 2.214 . S
N403 C401 1.325 . S
N403 C402 1.261 . S
C404 H374 0.931 . S
C404 C401 1.357 . S
C404 C405 1.312 . S
C405 H376 0.930 . S
C405 C400 1.261 . S
C405 C404 1.312 . S
C406 O378 1.214 . S
C406 O386 1.234 . S
C407 H379 0.929 . S
C407 C410 1.391 . S
C407 C412 1.391 . S
C408 H380 0.929 . S
C408 C409 1.390 . S
C408 N411 1.391 . S
C409 H381 0.930 . S
C409 C408 1.390 . S
C409 C410 1.392 . S
C410 H382 0.929 . S
C410 C407 1.391 . S
C410 C409 1.392 . S
N411 Co355 2.257 . S
N411 C408 1.391 . S
N411 C412 1.388 . S
C412 H383 0.930 . S
C412 C407 1.391 . S
C412 N411 1.388 . S
Co413 O415 2.143 . S
Co413 O421 2.074 . S
Co413 O424 2.093 . S
Co413 O437 2.097 . S
Co413 N454 2.151 . S
Co413 N462 2.214 . S
Co414 O415 2.160 . S
Co414 O420 2.058 . S
Co414 O430 2.057 . S
Co414 O445 2.037 . S
Co414 N449 2.143 1_655 S
Co414 N470 2.257 . S
O415 Co413 2.143 . S
O415 Co414 2.160 . S
C416 O417 1.278 . S
C416 O424 1.224 . S
O417 C416 1.278 . S
C418 O419 1.245 . S
C418 O430 1.232 . S
O419 C418 1.245 . S
O420 Co414 2.058 . S
O420 C446 1.269 . S
O421 Co413 2.074 . S
O421 C446 1.257 . S
H422 C447 0.930 . S
H423 C453 0.930 . S
O424 Co413 2.093 . S
O424 C416 1.224 . S
H425 C457 0.929 . S
H426 C459 0.930 . S
H427 C460 0.930 . S
H428 C458 0.929 . S
H429 C461 0.928 . S
O430 Co414 2.057 . S
O430 C418 1.232 . S
H431 C450 0.929 . S
H432 C451 0.944 . S
H433 C463 0.931 . S
H434 C455 0.929 . S
H435 C464 0.930 . S
H436 C456 0.931 . S
O437 Co413 2.097 . S
O437 C465 1.214 . S
H438 C466 0.929 . S
H439 C467 0.929 . S
H440 C468 0.930 . S
H441 C469 0.929 1_554 S
H442 C471 0.930 . S
H443 C448 0.930 . S
H444 C452 0.930 . S
O445 Co414 2.037 . S
O445 C465 1.234 . S
C446 O420 1.269 . S
C446 O421 1.257 . S
C447 H422 0.930 . S
C447 C450 1.388 . S
C447 C452 1.418 . S
C448 H443 0.930 . S
C448 C451 1.396 1_455 S
C448 C452 1.353 . S
N449 Co414 2.143 1_455 S
N449 C450 1.399 . S
N449 C451 1.326 1_455 S
C450 H431 0.929 . S
C450 C447 1.388 . S
C450 N449 1.399 . S
C451 H432 0.944 . S
C451 C448 1.396 1_655 S
C451 N449 1.326 1_655 S
C452 H444 0.930 . S
C452 C447 1.418 . S
C452 C448 1.353 . S
C453 H423 0.930 . S
C453 N454 1.330 . S
C453 C455 1.446 . S
N454 Co413 2.151 . S
N454 C453 1.330 . S
N454 C458 1.418 . S
C455 H434 0.929 . S
C455 C453 1.446 . S
C455 C456 1.332 . S
C456 H436 0.931 . S
C456 C455 1.332 . S
C456 C457 1.267 . S
C457 H425 0.929 . S
C457 C456 1.267 . S
C457 C458 1.251 . S
C458 H428 0.929 . S
C458 N454 1.418 . S
C458 C457 1.251 . S
C459 H426 0.930 . S
C459 C461 1.406 . S
C459 C464 1.261 . S
C460 H427 0.930 . S
C460 N462 1.325 . S
C460 C463 1.357 . S
C461 H429 0.928 . S
C461 C459 1.406 . S
C461 N462 1.261 . S
N462 Co413 2.214 . S
N462 C460 1.325 . S
N462 C461 1.261 . S
C463 H433 0.931 . S
C463 C460 1.357 . S
C463 C464 1.312 . S
C464 H435 0.930 . S
C464 C459 1.261 . S
C464 C463 1.312 . S
C465 O437 1.214 . S
C465 O445 1.234 . S
C466 H438 0.929 . S
C466 C469 1.391 . S
C466 C471 1.391 . S
C467 H439 0.929 . S
C467 C468 1.390 . S
C467 N470 1.391 . S
C468 H440 0.930 . S
C468 C467 1.390 . S
C468 C469 1.392 . S
C469 H441 0.929 1_556 S
C469 C466 1.391 . S
C469 C468 1.392 . S
N470 Co414 2.257 . S
N470 C467 1.391 . S
N470 C471 1.388 . S
C471 H442 0.930 . S
C471 C466 1.391 . S
C471 N470 1.388 . S
Co472 O474 2.143 . S
Co472 O480 2.074 . S
Co472 O483 2.093 . S
Co472 O496 2.097 . S
Co472 N513 2.151 . S
Co472 N521 2.214 . S
Co473 O474 2.160 . S
Co473 O479 2.058 . S
Co473 O489 2.057 . S
Co473 O504 2.037 . S
Co473 N508 2.142 1_565 S
Co473 N529 2.257 . S
O474 Co472 2.143 . S
O474 Co473 2.160 . S
C475 O476 1.278 . S
C475 O483 1.224 . S
O476 C475 1.278 . S
C477 O478 1.245 . S
C477 O489 1.232 . S
O478 C477 1.245 . S
O479 Co473 2.058 . S
O479 C505 1.269 . S
O480 Co472 2.074 . S
O480 C505 1.257 . S
H481 C506 0.930 . S
H482 C512 0.930 . S
O483 Co472 2.093 . S
O483 C475 1.224 . S
H484 C516 0.935 . S
H485 C518 0.930 . S
H486 C519 0.930 . S
H487 C517 0.929 . S
H488 C520 0.928 . S
O489 Co473 2.057 . S
O489 C477 1.232 . S
H490 C509 0.929 . S
H491 C510 0.937 . S
H492 C522 0.931 . S
H493 C514 0.929 . S
H494 C523 0.930 . S
H495 C515 0.931 1_556 S
O496 Co472 2.097 . S
O496 C524 1.214 . S
H497 C525 0.929 . S
H498 C526 0.929 . S
H499 C527 0.930 . S
H500 C528 0.929 . S
H501 C530 0.930 . S
H502 C507 0.930 . S
H503 C511 0.930 . S
O504 Co473 2.037 . S
O504 C524 1.234 . S
C505 O479 1.269 . S
C505 O480 1.257 . S
C506 H481 0.930 . S
C506 C509 1.388 . S
C506 C511 1.418 . S
C507 H502 0.930 . S
C507 C510 1.390 1_545 S
C507 C511 1.353 . S
N508 Co473 2.142 1_545 S
N508 C509 1.398 . S
N508 C510 1.342 1_545 S
C509 H490 0.929 . S
C509 C506 1.388 . S
C509 N508 1.398 . S
C510 H491 0.937 . S
C510 C507 1.390 1_565 S
C510 N508 1.342 1_565 S
C511 H503 0.930 . S
C511 C506 1.418 . S
C511 C507 1.353 . S
C512 H482 0.930 . S
C512 N513 1.330 . S
C512 C514 1.446 . S
N513 Co472 2.151 . S
N513 C512 1.330 . S
N513 C517 1.418 . S
C514 H493 0.929 . S
C514 C512 1.446 . S
C514 C515 1.332 . S
C515 H495 0.931 1_554 S
C515 C514 1.332 . S
C515 C516 1.265 1_554 S
C516 H484 0.935 . S
C516 C515 1.265 1_556 S
C516 C517 1.247 1_556 S
C517 H487 0.929 . S
C517 N513 1.418 . S
C517 C516 1.247 1_554 S
C518 H485 0.930 . S
C518 C520 1.406 . S
C518 C523 1.261 . S
C519 H486 0.930 . S
C519 N521 1.325 . S
C519 C522 1.357 . S
C520 H488 0.928 . S
C520 C518 1.406 . S
C520 N521 1.261 . S
N521 Co472 2.214 . S
N521 C519 1.325 . S
N521 C520 1.261 . S
C522 H492 0.931 . S
C522 C519 1.357 . S
C522 C523 1.312 . S
C523 H494 0.930 . S
C523 C518 1.261 . S
C523 C522 1.312 . S
C524 O496 1.214 . S
C524 O504 1.234 . S
C525 H497 0.929 . S
C525 C528 1.391 . S
C525 C530 1.391 . S
C526 H498 0.929 . S
C526 C527 1.390 . S
C526 N529 1.391 . S
C527 H499 0.930 . S
C527 C526 1.390 . S
C527 C528 1.392 . S
C528 H500 0.929 . S
C528 C525 1.391 . S
C528 C527 1.392 . S
N529 Co473 2.257 . S
N529 C526 1.391 . S
N529 C530 1.388 . S
C530 H501 0.930 . S
C530 C525 1.391 . S
C530 N529 1.388 . S
Co531 O533 2.143 . S
Co531 O539 2.074 . S
Co531 O542 2.093 . S
Co531 O555 2.097 . S
Co531 N572 2.151 . S
Co531 N580 2.214 . S
Co532 O533 2.160 . S
Co532 O538 2.058 . S
Co532 O548 2.057 . S
Co532 O563 2.037 . S
Co532 N567 2.145 . S
Co532 N588 2.257 . S
O533 Co531 2.143 . S
O533 Co532 2.160 . S
C534 O535 1.278 . S
C534 O542 1.224 . S
O535 C534 1.278 . S
C536 O537 1.245 . S
C536 O548 1.232 . S
O537 C536 1.245 . S
O538 Co532 2.058 . S
O538 C564 1.269 . S
O539 Co531 2.074 . S
O539 C564 1.257 . S
H540 C565 0.930 . S
H541 C571 0.930 . S
O542 Co531 2.093 . S
O542 C534 1.224 . S
H543 C575 0.929 . S
H544 C577 0.930 . S
H545 C578 0.930 . S
H546 C576 0.929 . S
H547 C579 0.928 . S
O548 Co532 2.057 . S
O548 C536 1.232 . S
H549 C568 0.929 . S
H550 C569 0.929 . S
H551 C581 0.931 . S
H552 C573 0.929 . S
H553 C582 0.930 . S
H554 C574 0.931 . S
O555 Co531 2.097 . S
O555 C583 1.214 . S
H556 C584 0.929 . S
H557 C585 0.929 . S
H558 C586 0.930 . S
H559 C587 0.929 . S
H560 C589 0.930 . S
H561 C566 0.930 . S
H562 C570 0.930 . S
O563 Co532 2.037 . S
O563 C583 1.234 . S
C564 O538 1.269 . S
C564 O539 1.257 . S
C565 H540 0.930 . S
C565 C568 1.388 . S
C565 C570 1.418 . S
C566 H561 0.930 . S
C566 C569 1.404 . S
C566 C570 1.353 . S
N567 Co532 2.145 . S
N567 C568 1.397 . S
N567 C569 1.334 . S
C568 H549 0.929 . S
C568 C565 1.388 . S
C568 N567 1.397 . S
C569 H550 0.929 . S
C569 C566 1.404 . S
C569 N567 1.334 . S
C570 H562 0.930 . S
C570 C565 1.418 . S
C570 C566 1.353 . S
C571 H541 0.930 . S
C571 N572 1.330 . S
C571 C573 1.446 . S
N572 Co531 2.151 . S
N572 C571 1.330 . S
N572 C576 1.418 . S
C573 H552 0.929 . S
C573 C571 1.446 . S
C573 C574 1.332 . S
C574 H554 0.931 . S
C574 C573 1.332 . S
C574 C575 1.267 . S
C575 H543 0.929 . S
C575 C574 1.267 . S
C575 C576 1.251 . S
C576 H546 0.929 . S
C576 N572 1.418 . S
C576 C575 1.251 . S
C577 H544 0.930 . S
C577 C579 1.406 . S
C577 C582 1.261 . S
C578 H545 0.930 . S
C578 N580 1.325 . S
C578 C581 1.357 . S
C579 H547 0.928 . S
C579 C577 1.406 . S
C579 N580 1.261 . S
N580 Co531 2.214 . S
N580 C578 1.325 . S
N580 C579 1.261 . S
C581 H551 0.931 . S
C581 C578 1.357 . S
C581 C582 1.312 . S
C582 H553 0.930 . S
C582 C577 1.261 . S
C582 C581 1.312 . S
C583 O555 1.214 . S
C583 O563 1.234 . S
C584 H556 0.929 . S
C584 C587 1.391 . S
C584 C589 1.391 . S
C585 H557 0.929 . S
C585 C586 1.390 . S
C585 N588 1.391 . S
C586 H558 0.930 . S
C586 C585 1.390 . S
C586 C587 1.392 . S
C587 H559 0.929 . S
C587 C584 1.391 . S
C587 C586 1.392 . S
N588 Co532 2.257 . S
N588 C585 1.391 . S
N588 C589 1.388 . S
C589 H560 0.930 . S
C589 C584 1.391 . S
C589 N588 1.388 . S
Co590 O592 2.143 . S
Co590 O598 2.074 . S
Co590 O601 2.093 . S
Co590 O614 2.097 . S
Co590 N631 2.151 . S
Co590 N639 2.214 . S
Co591 O592 2.160 . S
Co591 O597 2.058 . S
Co591 O607 2.057 . S
Co591 O622 2.037 . S
Co591 N626 2.143 1_455 S
Co591 N647 2.257 . S
O592 Co590 2.143 . S
O592 Co591 2.160 . S
C593 O594 1.278 . S
C593 O601 1.224 . S
O594 C593 1.278 . S
C595 O596 1.245 . S
C595 O607 1.232 . S
O596 C595 1.245 . S
O597 Co591 2.058 . S
O597 C623 1.269 . S
O598 Co590 2.074 . S
O598 C623 1.257 . S
H599 C624 0.930 . S
H600 C630 0.930 . S
O601 Co590 2.093 . S
O601 C593 1.224 . S
H602 C634 0.929 . S
H603 C636 0.930 . S
H604 C637 0.930 . S
H605 C635 0.929 . S
H606 C638 0.928 . S
O607 Co591 2.057 . S
O607 C595 1.232 . S
H608 C627 0.929 . S
H609 C628 0.944 . S
H610 C640 0.931 . S
H611 C632 0.929 . S
H612 C641 0.930 . S
H613 C633 0.931 . S
O614 Co590 2.097 . S
O614 C642 1.214 . S
H615 C643 0.929 . S
H616 C644 0.929 . S
H617 C645 0.930 . S
H618 C646 0.929 1_554 S
H619 C648 0.930 . S
H620 C625 0.930 . S
H621 C629 0.930 . S
O622 Co591 2.037 . S
O622 C642 1.234 . S
C623 O597 1.269 . S
C623 O598 1.257 . S
C624 H599 0.930 . S
C624 C627 1.388 . S
C624 C629 1.418 . S
C625 H620 0.930 . S
C625 C628 1.396 1_655 S
C625 C629 1.353 . S
N626 Co591 2.143 1_655 S
N626 C627 1.399 . S
N626 C628 1.326 1_655 S
C627 H608 0.929 . S
C627 C624 1.388 . S
C627 N626 1.399 . S
C628 H609 0.944 . S
C628 C625 1.396 1_455 S
C628 N626 1.326 1_455 S
C629 H621 0.930 . S
C629 C624 1.418 . S
C629 C625 1.353 . S
C630 H600 0.930 . S
C630 N631 1.330 . S
C630 C632 1.446 . S
N631 Co590 2.151 . S
N631 C630 1.330 . S
N631 C635 1.418 . S
C632 H611 0.929 . S
C632 C630 1.446 . S
C632 C633 1.332 . S
C633 H613 0.931 . S
C633 C632 1.332 . S
C633 C634 1.267 . S
C634 H602 0.929 . S
C634 C633 1.267 . S
C634 C635 1.251 . S
C635 H605 0.929 . S
C635 N631 1.418 . S
C635 C634 1.251 . S
C636 H603 0.930 . S
C636 C638 1.406 . S
C636 C641 1.261 . S
C637 H604 0.930 . S
C637 N639 1.325 . S
C637 C640 1.357 . S
C638 H606 0.928 . S
C638 C636 1.406 . S
C638 N639 1.261 . S
N639 Co590 2.214 . S
N639 C637 1.325 . S
N639 C638 1.261 . S
C640 H610 0.931 . S
C640 C637 1.357 . S
C640 C641 1.312 . S
C641 H612 0.930 . S
C641 C636 1.261 . S
C641 C640 1.312 . S
C642 O614 1.214 . S
C642 O622 1.234 . S
C643 H615 0.929 . S
C643 C646 1.391 . S
C643 C648 1.391 . S
C644 H616 0.929 . S
C644 C645 1.390 . S
C644 N647 1.391 . S
C645 H617 0.930 . S
C645 C644 1.390 . S
C645 C646 1.392 . S
C646 H618 0.929 1_556 S
C646 C643 1.391 . S
C646 C645 1.392 . S
N647 Co591 2.257 . S
N647 C644 1.391 . S
N647 C648 1.388 . S
C648 H619 0.930 . S
C648 C643 1.391 . S
C648 N647 1.388 . S
Co649 O651 2.143 . S
Co649 O657 2.074 . S
Co649 O660 2.093 . S
Co649 O673 2.097 . S
Co649 N690 2.151 . S
Co649 N698 2.214 . S
Co650 O651 2.160 . S
Co650 O656 2.058 . S
Co650 O666 2.057 . S
Co650 O681 2.037 . S
Co650 N685 2.142 1_545 S
Co650 N706 2.257 . S
O651 Co649 2.143 . S
O651 Co650 2.160 . S
C652 O653 1.278 . S
C652 O660 1.224 . S
O653 C652 1.278 . S
C654 O655 1.245 . S
C654 O666 1.232 . S
O655 C654 1.245 . S
O656 Co650 2.058 . S
O656 C682 1.269 . S
O657 Co649 2.074 . S
O657 C682 1.257 . S
H658 C683 0.930 . S
H659 C689 0.930 . S
O660 Co649 2.093 . S
O660 C652 1.224 . S
H661 C693 0.935 . S
H662 C695 0.930 . S
H663 C696 0.930 . S
H664 C694 0.929 . S
H665 C697 0.928 . S
O666 Co650 2.057 . S
O666 C654 1.232 . S
H667 C686 0.929 . S
H668 C687 0.937 . S
H669 C699 0.931 . S
H670 C691 0.929 . S
H671 C700 0.930 . S
H672 C692 0.931 1_556 S
O673 Co649 2.097 . S
O673 C701 1.214 . S
H674 C702 0.929 . S
H675 C703 0.929 . S
H676 C704 0.930 . S
H677 C705 0.929 . S
H678 C707 0.930 . S
H679 C684 0.930 . S
H680 C688 0.930 . S
O681 Co650 2.037 . S
O681 C701 1.234 . S
C682 O656 1.269 . S
C682 O657 1.257 . S
C683 H658 0.930 . S
C683 C686 1.388 . S
C683 C688 1.418 . S
C684 H679 0.930 . S
C684 C687 1.390 1_565 S
C684 C688 1.353 . S
N685 Co650 2.142 1_565 S
N685 C686 1.398 . S
N685 C687 1.342 1_565 S
C686 H667 0.929 . S
C686 C683 1.388 . S
C686 N685 1.398 . S
C687 H668 0.937 . S
C687 C684 1.390 1_545 S
C687 N685 1.342 1_545 S
C688 H680 0.930 . S
C688 C683 1.418 . S
C688 C684 1.353 . S
C689 H659 0.930 . S
C689 N690 1.330 . S
C689 C691 1.446 . S
N690 Co649 2.151 . S
N690 C689 1.330 . S
N690 C694 1.418 . S
C691 H670 0.929 . S
C691 C689 1.446 . S
C691 C692 1.332 . S
C692 H672 0.931 1_554 S
C692 C691 1.332 . S
C692 C693 1.265 1_554 S
C693 H661 0.935 . S
C693 C692 1.265 1_556 S
C693 C694 1.247 1_556 S
C694 H664 0.929 . S
C694 N690 1.418 . S
C694 C693 1.247 1_554 S
C695 H662 0.930 . S
C695 C697 1.406 . S
C695 C700 1.261 . S
C696 H663 0.930 . S
C696 N698 1.325 . S
C696 C699 1.357 . S
C697 H665 0.928 . S
C697 C695 1.406 . S
C697 N698 1.261 . S
N698 Co649 2.214 . S
N698 C696 1.325 . S
N698 C697 1.261 . S
C699 H669 0.931 . S
C699 C696 1.357 . S
C699 C700 1.312 . S
C700 H671 0.930 . S
C700 C695 1.261 . S
C700 C699 1.312 . S
C701 O673 1.214 . S
C701 O681 1.234 . S
C702 H674 0.929 . S
C702 C705 1.391 . S
C702 C707 1.391 . S
C703 H675 0.929 . S
C703 C704 1.390 . S
C703 N706 1.391 . S
C704 H676 0.930 . S
C704 C703 1.390 . S
C704 C705 1.392 . S
C705 H677 0.929 . S
C705 C702 1.391 . S
C705 C704 1.392 . S
N706 Co650 2.257 . S
N706 C703 1.391 . S
N706 C707 1.388 . S
C707 H678 0.930 . S
C707 C702 1.391 . S
C707 N706 1.388 . S
C708 C709 1.369 . S
C708 C710 1.419 . S
C708 H712 0.930 . S
C709 C708 1.369 . S
C709 C718 1.429 . S
C710 C708 1.419 . S
C710 C711 1.363 . S
C710 H713 0.929 . S
C711 C710 1.363 . S
C711 C717 1.428 . S
H712 C708 0.930 . S
H713 C710 0.929 . S
S714 N715 1.613 . S
S714 N716 1.610 . S
N715 S714 1.613 . S
N715 C718 1.350 . S
N716 S714 1.610 . S
N716 C717 1.351 . S
C717 C711 1.428 . S
C717 N716 1.351 . S
C717 C718 1.434 . S
C718 C709 1.429 . S
C718 N715 1.350 . S
C718 C717 1.434 . S
C719 C720 1.369 . S
C719 C721 1.419 . S
C719 H723 0.930 . S
C720 C719 1.369 . S
C720 C729 1.429 . S
C721 C719 1.419 . S
C721 C722 1.363 . S
C721 H724 0.929 . S
C722 C721 1.363 . S
C722 C728 1.428 . S
H723 C719 0.930 . S
H724 C721 0.929 . S
S725 N726 1.613 . S
S725 N727 1.610 . S
N726 S725 1.613 . S
N726 C729 1.350 . S
N727 S725 1.610 . S
N727 C728 1.351 . S
C728 C722 1.428 . S
C728 N727 1.351 . S
C728 C729 1.434 . S
C729 C720 1.429 . S
C729 N726 1.350 . S
C729 C728 1.434 . S
C730 C731 1.369 . S
C730 C732 1.419 . S
C730 H734 0.930 . S
C731 C730 1.369 . S
C731 C740 1.429 . S
C732 C730 1.419 . S
C732 C733 1.363 . S
C732 H735 0.929 . S
C733 C732 1.363 . S
C733 C739 1.428 . S
H734 C730 0.930 . S
H735 C732 0.929 . S
S736 N737 1.613 . S
S736 N738 1.610 . S
N737 S736 1.613 . S
N737 C740 1.350 . S
N738 S736 1.610 . S
N738 C739 1.351 . S
C739 C733 1.428 . S
C739 N738 1.351 . S
C739 C740 1.434 . S
C740 C731 1.429 . S
C740 N737 1.350 . S
C740 C739 1.434 . S
C741 C742 1.369 . S
C741 C743 1.419 . S
C741 H745 0.930 . S
C742 C741 1.369 . S
C742 C751 1.429 . S
C743 C741 1.419 . S
C743 C744 1.363 . S
C743 H746 0.929 . S
C744 C743 1.363 . S
C744 C750 1.428 . S
H745 C741 0.930 . S
H746 C743 0.929 . S
S747 N748 1.613 . S
S747 N749 1.610 . S
N748 S747 1.613 . S
N748 C751 1.350 . S
N749 S747 1.610 . S
N749 C750 1.351 . S
C750 C744 1.428 . S
C750 N749 1.351 . S
C750 C751 1.434 . S
C751 C742 1.429 . S
C751 N748 1.350 . S
C751 C750 1.434 . S
C752 C753 1.369 . S
C752 C754 1.419 . S
C752 H756 0.930 . S
C753 C752 1.369 . S
C753 C762 1.429 . S
C754 C752 1.419 . S
C754 C755 1.363 . S
C754 H757 0.929 . S
C755 C754 1.363 . S
C755 C761 1.428 . S
H756 C752 0.930 . S
H757 C754 0.929 . S
S758 N759 1.613 . S
S758 N760 1.610 . S
N759 S758 1.613 . S
N759 C762 1.350 . S
N760 S758 1.610 . S
N760 C761 1.351 . S
C761 C755 1.428 . S
C761 N760 1.351 . S
C761 C762 1.434 . S
C762 C753 1.429 . S
C762 N759 1.350 . S
C762 C761 1.434 . S
C763 C764 1.369 . S
C763 C765 1.419 . S
C763 H767 0.930 . S
C764 C763 1.369 . S
C764 C773 1.429 . S
C765 C763 1.419 . S
C765 C766 1.363 . S
C765 H768 0.929 . S
C766 C765 1.363 . S
C766 C772 1.428 . S
H767 C763 0.930 . S
H768 C765 0.929 . S
S769 N770 1.613 . S
S769 N771 1.610 . S
N770 S769 1.613 . S
N770 C773 1.350 . S
N771 S769 1.610 . S
N771 C772 1.351 . S
C772 C766 1.428 . S
C772 N771 1.351 . S
C772 C773 1.434 . S
C773 C764 1.429 . S
C773 N770 1.350 . S
C773 C772 1.434 . S
C774 C775 1.369 . S
C774 C776 1.419 . S
C774 H778 0.930 . S
C775 C774 1.369 . S
C775 C784 1.429 . S
C776 C774 1.419 . S
C776 C777 1.363 . S
C776 H779 0.929 . S
C777 C776 1.363 . S
C777 C783 1.428 . S
H778 C774 0.930 . S
H779 C776 0.929 . S
S780 N781 1.613 . S
S780 N782 1.610 . S
N781 S780 1.613 . S
N781 C784 1.350 . S
N782 S780 1.610 . S
N782 C783 1.351 . S
C783 C777 1.428 . S
C783 N782 1.351 . S
C783 C784 1.434 . S
C784 C775 1.429 . S
C784 N781 1.350 . S
C784 C783 1.434 . S
C785 C786 1.369 . S
C785 C787 1.419 . S
C785 H789 0.930 . S
C786 C785 1.369 . S
C786 C795 1.429 1_455 S
C787 C785 1.419 . S
C787 C788 1.363 1_455 S
C787 H790 0.929 . S
C788 C787 1.363 1_655 S
C788 C794 1.428 . S
H789 C785 0.930 . S
H790 C787 0.929 . S
S791 N792 1.613 . S
S791 N793 1.610 . S
N792 S791 1.613 . S
N792 C795 1.350 . S
N793 S791 1.610 . S
N793 C794 1.351 . S
C794 C788 1.428 . S
C794 N793 1.351 . S
C794 C795 1.434 . S
C795 C786 1.429 1_655 S
C795 N792 1.350 . S
C795 C794 1.434 . S
C796 C797 1.369 1_565 S
C796 C798 1.419 . S
C796 H800 0.930 . S
C797 C796 1.369 1_545 S
C797 C806 1.429 . S
C798 C796 1.419 . S
C798 C799 1.363 . S
C798 H801 0.929 . S
C799 C798 1.363 . S
C799 C805 1.428 1_565 S
H800 C796 0.930 . S
H801 C798 0.929 . S
S802 N803 1.613 . S
S802 N804 1.610 . S
N803 S802 1.613 . S
N803 C806 1.350 . S
N804 S802 1.610 . S
N804 C805 1.351 . S
C805 C799 1.428 1_545 S
C805 N804 1.351 . S
C805 C806 1.434 . S
C806 C797 1.429 . S
C806 N803 1.350 . S
C806 C805 1.434 . S
C807 C808 1.369 . S
C807 C809 1.419 . S
C807 H811 0.930 . S
C808 C807 1.369 . S
C808 C817 1.429 . S
C809 C807 1.419 . S
C809 C810 1.363 . S
C809 H812 0.929 . S
C810 C809 1.363 . S
C810 C816 1.428 . S
H811 C807 0.930 . S
H812 C809 0.929 . S
S813 N814 1.613 . S
S813 N815 1.610 . S
N814 S813 1.613 . S
N814 C817 1.350 . S
N815 S813 1.610 . S
N815 C816 1.351 . S
C816 C810 1.428 . S
C816 N815 1.351 . S
C816 C817 1.434 . S
C817 C808 1.429 . S
C817 N814 1.350 . S
C817 C816 1.434 . S
C818 C819 1.369 . S
C818 C820 1.419 . S
C818 H822 0.930 . S
C819 C818 1.369 . S
C819 C828 1.429 1_655 S
C820 C818 1.419 . S
C820 C821 1.363 1_655 S
C820 H823 0.929 . S
C821 C820 1.363 1_455 S
C821 C827 1.428 . S
H822 C818 0.930 . S
H823 C820 0.929 . S
S824 N825 1.613 . S
S824 N826 1.610 . S
N825 S824 1.613 . S
N825 C828 1.350 . S
N826 S824 1.610 . S
N826 C827 1.351 . S
C827 C821 1.428 . S
C827 N826 1.351 . S
C827 C828 1.434 . S
C828 C819 1.429 1_455 S
C828 N825 1.350 . S
C828 C827 1.434 . S
C829 C830 1.369 . S
C829 C831 1.419 . S
C829 H833 0.930 . S
C830 C829 1.369 . S
C830 C839 1.429 1_565 S
C831 C829 1.419 . S
C831 C832 1.363 1_565 S
C831 H834 0.929 . S
C832 C831 1.363 1_545 S
C832 C838 1.428 . S
H833 C829 0.930 . S
H834 C831 0.929 . S
S835 N836 1.613 . S
S835 N837 1.610 . S
N836 S835 1.613 . S
N836 C839 1.350 . S
N837 S835 1.610 . S
N837 C838 1.351 . S
C838 C832 1.428 . S
C838 N837 1.351 . S
C838 C839 1.434 . S
C839 C830 1.429 1_545 S
C839 N836 1.350 . S
C839 C838 1.434 . S
C840 C841 1.369 . S
C840 C842 1.419 . S
C840 H844 0.930 . S
C841 C840 1.369 . S
C841 C850 1.429 . S
C842 C840 1.419 . S
C842 C843 1.363 . S
C842 H845 0.929 . S
C843 C842 1.363 . S
C843 C849 1.428 . S
H844 C840 0.930 . S
H845 C842 0.929 . S
S846 N847 1.613 . S
S846 N848 1.610 . S
N847 S846 1.613 . S
N847 C850 1.350 . S
N848 S846 1.610 . S
N848 C849 1.351 . S
C849 C843 1.428 . S
C849 N848 1.351 . S
C849 C850 1.434 . S
C850 C841 1.429 . S
C850 N847 1.350 . S
C850 C849 1.434 . S
C851 C852 1.369 . S
C851 C853 1.419 1_655 S
C851 H855 0.930 . S
C852 C851 1.369 . S
C852 C861 1.429 . S
C853 C851 1.419 1_455 S
C853 C854 1.363 . S
C853 H856 0.929 . S
C854 C853 1.363 . S
C854 C860 1.428 . S
H855 C851 0.930 . S
H856 C853 0.929 . S
S857 N858 1.613 1_455 S
S857 N859 1.610 . S
N858 S857 1.613 1_655 S
N858 C861 1.342 . S
N859 S857 1.610 . S
N859 C860 1.351 . S
C860 C854 1.428 . S
C860 N859 1.351 . S
C860 C861 1.434 1_455 S
C861 C852 1.429 . S
C861 N858 1.342 . S
C861 C860 1.434 1_655 S
C862 C863 1.369 1_545 S
C862 C864 1.419 1_556 S
C862 H866 0.930 . S
C863 C862 1.369 1_565 S
C863 C872 1.429 . S
C864 C862 1.419 1_554 S
C864 C865 1.363 . S
C864 H867 0.929 . S
C865 C864 1.363 . S
C865 C871 1.428 1_545 S
H866 C862 0.930 . S
H867 C864 0.929 . S
S868 N869 1.613 1_554 S
S868 N870 1.610 . S
N869 S868 1.613 1_556 S
N869 C872 1.350 . S
N870 S868 1.610 . S
N870 C871 1.351 . S
C871 C865 1.428 1_565 S
C871 N870 1.351 . S
C871 C872 1.434 1_554 S
C872 C863 1.429 . S
C872 N869 1.350 . S
C872 C871 1.434 1_556 S
C873 C874 1.369 . S
C873 C875 1.419 . S
C873 H877 0.930 . S
C874 C873 1.369 . S
C874 C883 1.429 . S
C875 C873 1.419 . S
C875 C876 1.363 . S
C875 H878 0.929 . S
C876 C875 1.363 . S
C876 C882 1.428 . S
H877 C873 0.930 . S
H878 C875 0.929 . S
S879 N880 1.613 . S
S879 N881 1.610 . S
N880 S879 1.613 . S
N880 C883 1.350 . S
N881 S879 1.610 . S
N881 C882 1.351 . S
C882 C876 1.428 . S
C882 N881 1.351 . S
C882 C883 1.434 . S
C883 C874 1.429 . S
C883 N880 1.350 . S
C883 C882 1.434 . S
C884 C885 1.369 . S
C884 C886 1.419 1_455 S
C884 H888 0.930 . S
C885 C884 1.369 . S
C885 C894 1.429 . S
C886 C884 1.419 1_655 S
C886 C887 1.363 . S
C886 H889 0.929 . S
C887 C886 1.363 . S
C887 C893 1.428 . S
H888 C884 0.930 . S
H889 C886 0.929 . S
S890 N891 1.613 1_655 S
S890 N892 1.610 . S
N891 S890 1.613 1_455 S
N891 C894 1.350 . S
N892 S890 1.610 . S
N892 C893 1.351 . S
C893 C887 1.428 . S
C893 N892 1.351 . S
C893 C894 1.434 1_655 S
C894 C885 1.429 . S
C894 N891 1.350 . S
C894 C893 1.434 1_455 S
C895 C896 1.369 1_545 S
C895 C897 1.419 1_554 S
C895 H899 0.930 . S
C896 C895 1.369 1_565 S
C896 C905 1.429 . S
C897 C895 1.419 1_556 S
C897 C898 1.363 . S
C897 H900 0.929 . S
C898 C897 1.363 . S
C898 C904 1.428 1_545 S
H899 C895 0.930 . S
H900 C897 0.929 . S
S901 N902 1.613 1_556 S
S901 N903 1.610 . S
N902 S901 1.613 1_554 S
N902 C905 1.350 . S
N903 S901 1.610 . S
N903 C904 1.351 . S
C904 C898 1.428 1_565 S
C904 N903 1.351 . S
C904 C905 1.434 1_556 S
C905 C896 1.429 . S
C905 N902 1.350 . S
C905 C904 1.434 1_554 S
C906 C907 1.369 . S
C906 C908 1.419 1_655 S
C906 H910 0.930 . S
C907 C906 1.369 . S
C907 C916 1.429 . S
C908 C906 1.419 1_455 S
C908 C909 1.363 . S
C908 H911 0.929 . S
C909 C908 1.363 . S
C909 C915 1.428 . S
H910 C906 0.930 . S
H911 C908 0.929 . S
S912 N913 1.613 1_455 S
S912 N914 1.610 . S
N913 S912 1.613 1_655 S
N913 C916 1.350 . S
N914 S912 1.610 . S
N914 C915 1.351 . S
C915 C909 1.428 . S
C915 N914 1.351 . S
C915 C916 1.434 1_455 S
C916 C907 1.429 . S
C916 N913 1.350 . S
C916 C915 1.434 1_655 S
C917 C918 1.369 . S
C917 C919 1.419 1_545 S
C917 H921 0.930 . S
C918 C917 1.369 . S
C918 C927 1.429 . S
C919 C917 1.419 1_565 S
C919 C920 1.363 . S
C919 H922 0.929 . S
C920 C919 1.363 . S
C920 C926 1.428 . S
H921 C917 0.930 . S
H922 C919 0.929 . S
S923 N924 1.613 . S
S923 N925 1.610 1_545 S
N924 S923 1.613 . S
N924 C927 1.350 . S
N925 S923 1.610 1_565 S
N925 C926 1.351 . S
C926 C920 1.428 . S
C926 N925 1.351 . S
C926 C927 1.434 1_565 S
C927 C918 1.429 . S
C927 N924 1.350 . S
C927 C926 1.434 1_545 S
C928 C929 1.369 . S
C928 C930 1.419 . S
C928 H932 0.930 . S
C929 C928 1.369 . S
C929 C938 1.429 . S
C930 C928 1.419 . S
C930 C931 1.363 . S
C930 H933 0.929 . S
C931 C930 1.363 . S
C931 C937 1.428 . S
H932 C928 0.930 . S
H933 C930 0.929 . S
S934 N935 1.613 . S
S934 N936 1.610 . S
N935 S934 1.613 . S
N935 C938 1.350 . S
N936 S934 1.610 . S
N936 C937 1.351 . S
C937 C931 1.428 . S
C937 N936 1.351 . S
C937 C938 1.434 . S
C938 C929 1.429 . S
C938 N935 1.350 . S
C938 C937 1.434 . S
C939 C940 1.369 . S
C939 C941 1.419 1_655 S
C939 H943 0.930 . S
C940 C939 1.369 . S
C940 C949 1.429 . S
C941 C939 1.419 1_455 S
C941 C942 1.363 . S
C941 H944 0.929 . S
C942 C941 1.363 . S
C942 C948 1.428 . S
H943 C939 0.930 . S
H944 C941 0.929 . S
S945 N946 1.613 . S
S945 N947 1.610 1_655 S
N946 S945 1.613 . S
N946 C949 1.350 . S
N947 S945 1.610 1_455 S
N947 C948 1.351 . S
C948 C942 1.428 . S
C948 N947 1.351 . S
C948 C949 1.434 1_455 S
C949 C940 1.429 . S
C949 N946 1.350 . S
C949 C948 1.434 1_655 S
C950 C951 1.369 . S
C950 C952 1.419 1_565 S
C950 H954 0.930 . S
C951 C950 1.369 . S
C951 C960 1.429 . S
C952 C950 1.419 1_545 S
C952 C953 1.363 . S
C952 H955 0.929 . S
C953 C952 1.363 . S
C953 C959 1.428 . S
H954 C950 0.930 . S
H955 C952 0.929 . S
S956 N957 1.613 1_545 S
S956 N958 1.610 . S
N957 S956 1.613 1_565 S
N957 C960 1.350 . S
N958 S956 1.610 . S
N958 C959 1.351 . S
C959 C953 1.428 . S
C959 N958 1.351 . S
C959 C960 1.434 1_545 S
C960 C951 1.429 . S
C960 N957 1.350 . S
C960 C959 1.434 1_565 S
C961 C962 1.369 . S
C961 C963 1.419 . S
C961 H965 0.930 . S
C962 C961 1.369 . S
C962 C971 1.429 . S
C963 C961 1.419 . S
C963 C964 1.363 . S
C963 H966 0.929 . S
C964 C963 1.363 . S
C964 C970 1.428 . S
H965 C961 0.930 . S
H966 C963 0.929 . S
S967 N968 1.613 . S
S967 N969 1.610 . S
N968 S967 1.613 . S
N968 C971 1.350 . S
N969 S967 1.610 . S
N969 C970 1.351 . S
C970 C964 1.428 . S
C970 N969 1.351 . S
C970 C971 1.434 . S
C971 C962 1.429 . S
C971 N968 1.350 . S
C971 C970 1.434 . S
C709 C475 1.620 . S
C711 C3 1.622 . S
C720 C62 1.622 . S
C722 C534 1.618 . S
C731 C121 1.619 . S
C733 C593 1.622 . S
C742 C180 1.619 . S
C744 C652 1.618 . S
C753 C357 1.621 . S
C755 C239 1.617 . S
C764 C298 1.618 . S
C766 C416 1.622 . S
C775 C229 1.449 . S
C777 C52 1.450 . S
C786 C288 1.449 . S
C788 C111 1.444 . S
C797 C347 1.443 . S
C799 C170 1.450 . S
C808 C406 1.447 . S
C810 C583 1.445 . S
C819 C465 1.452 . S
C821 C642 1.445 . S
C830 C524 1.452 . S
C832 C701 1.444 . S
C841 C33 1.614 . S
C843 C564 1.616 . S
C852 C92 1.616 . S
C854 C623 1.615 . S
C863 C151 1.615 . S
C865 C682 1.616 . S
C874 C387 1.617 . S
C876 C210 1.618 . S
C885 C269 1.616 . S
C887 C446 1.615 . S
C896 C505 1.616 . S
C898 C328 1.619 . S
C907 C654 1.500 . S
C909 C5 1.495 . S
C918 C64 1.491 . S
C920 C359 1.498 . S
C929 C418 1.500 . S
C931 C123 1.495 . S
C940 C182 1.492 . S
C942 C477 1.498 . S
C951 C241 1.495 . S
C953 C536 1.493 . S
C962 C595 1.498 . S
C964 C300 1.492 . S
