# Generated by pormake.
# Topology mmt, (4)-cn, num edge types: 1
# Building blocks:
#     Node 0, Type 0, BuildingBlock: QUQFOY_clean_sbu_3, # of connection points: 4
#     Node 1, Type 0, BuildingBlock: QUQFOY_clean_sbu_3, # of connection points: 4
#     Node 2, Type 0, BuildingBlock: QUQFOY_clean_sbu_3, # of connection points: 4
#     Node 3, Type 0, BuildingBlock: QUQFOY_clean_sbu_3, # of connection points: 4
#     Node 4, Type 0, BuildingBlock: QUQFOY_clean_sbu_3, # of connection points: 4
#     Node 5, Type 0, BuildingBlock: QUQFOY_clean_sbu_3, # of connection points: 4
#     Node 6, Type 0, BuildingBlock: QUQFOY_clean_sbu_3, # of connection points: 4
#     Node 7, Type 0, BuildingBlock: QUQFOY_clean_sbu_3, # of connection points: 4
#     Edge 8, Type (0, 0), BuildingBlock: ZUJKAS_clean_linker_0, # of connection points: 2
#     Edge 9, Type (0, 0), BuildingBlock: ZUJKAS_clean_linker_0, # of connection points: 2
#     Edge 10, Type (0, 0), BuildingBlock: ZUJKAS_clean_linker_0, # of connection points: 2
#     Edge 11, Type (0, 0), BuildingBlock: ZUJKAS_clean_linker_0, # of connection points: 2
#     Edge 12, Type (0, 0), BuildingBlock: ZUJKAS_clean_linker_0, # of connection points: 2
#     Edge 13, Type (0, 0), BuildingBlock: ZUJKAS_clean_linker_0, # of connection points: 2
#     Edge 14, Type (0, 0), BuildingBlock: ZUJKAS_clean_linker_0, # of connection points: 2
#     Edge 15, Type (0, 0), BuildingBlock: ZUJKAS_clean_linker_0, # of connection points: 2
#     Edge 16, Type (0, 0), BuildingBlock: ZUJKAS_clean_linker_0, # of connection points: 2
#     Edge 17, Type (0, 0), BuildingBlock: ZUJKAS_clean_linker_0, # of connection points: 2
#     Edge 18, Type (0, 0), BuildingBlock: ZUJKAS_clean_linker_0, # of connection points: 2
#     Edge 19, Type (0, 0), BuildingBlock: ZUJKAS_clean_linker_0, # of connection points: 2
#     Edge 20, Type (0, 0), BuildingBlock: ZUJKAS_clean_linker_0, # of connection points: 2
#     Edge 21, Type (0, 0), BuildingBlock: ZUJKAS_clean_linker_0, # of connection points: 2
#     Edge 22, Type (0, 0), BuildingBlock: ZUJKAS_clean_linker_0, # of connection points: 2
#     Edge 23, Type (0, 0), BuildingBlock: ZUJKAS_clean_linker_0, # of connection points: 2
# Relax obj value: 0.027
# Max RMSD: 0.041
# Mean RMSD: 0.041
data_MOF--net-mmt--node1-QUQFOY_clean_sbu_3--edge1-ZUJKAS_clean_linker_0
_symmetry_space_group_name_H-M    P1
_symmetry_Int_Tables_number       1
_symmetry_cell_setting            triclinic
loop_
_symmetry_equiv_pos_as_xyz
'x, y, z'
_cell_length_a     29.335795
_cell_length_b     49.25532
_cell_length_c     59.454014
_cell_angle_alpha  89.944979
_cell_angle_beta   90.000034
_cell_angle_gamma 89.921088
loop_
_atom_site_label
_atom_site_type_symbol
_atom_site_fract_x
_atom_site_fract_y
_atom_site_fract_z
_atom_type_partial_charge
C0 C 0.08078 0.6442 0.33279 0.0
O1 O 0.06197 0.64675 0.31368 0.0
Cd2 Cd 0.02443 0.61021 0.29443 0.0
O3 O 0.07796 0.62186 0.34348 0.0
Cd4 Cd 0.04134 0.57713 0.33803 0.0
C5 C 0.11012 0.56269 0.29451 0.0
O6 O 0.9699 0.58794 0.31801 0.0
O7 O -0.00586 0.54652 0.31672 0.0
O8 O 0.01031 0.5773 0.37599 0.0
C9 C 0.96278 0.56344 0.31237 0.0
O10 O 0.08412 0.57839 0.28328 0.0
C11 C 0.02944 0.55536 0.3821 0.0
O12 O 0.10479 0.55985 0.31565 0.0
O13 O 0.0553 0.54387 0.36784 0.0
C14 C 0.41218 0.84492 0.33923 0.0
O15 O 0.43281 0.84307 0.32053 0.0
Cd16 Cd 0.46906 0.88064 0.30204 0.0
O17 O 0.4124 0.8672 0.35007 0.0
Cd18 Cd 0.44615 0.91294 0.34559 0.0
C19 C 0.37968 0.92569 0.30076 0.0
O20 O 0.51964 0.9042 0.32682 0.0
O21 O 0.49259 0.94498 0.32528 0.0
O22 O 0.47401 0.91371 0.38416 0.0
C23 C 0.52537 0.9289 0.32136 0.0
O24 O 0.40749 0.91071 0.28994 0.0
C25 C 0.45272 0.93512 0.38975 0.0
O26 O 0.38351 0.92867 0.32196 0.0
O27 O 0.42708 0.94578 0.37494 0.0
C28 C 0.58295 0.35311 0.16448 0.0
O29 O 0.56077 0.35504 0.18277 0.0
Cd30 Cd 0.51484 0.39308 0.19453 0.0
O31 O 0.581 0.37199 0.14984 0.0
Cd32 Cd 0.54274 0.41664 0.14583 0.0
C33 C 0.59731 0.44228 0.19127 0.0
O34 O 0.46891 0.40811 0.16404 0.0
O35 O 0.48695 0.44983 0.15752 0.0
O36 O 0.52205 0.40953 0.10648 0.0
C37 C 0.45781 0.43303 0.16478 0.0
O38 O 0.56879 0.4291 0.20318 0.0
C39 C 0.54289 0.4304 0.09926 0.0
O40 O 0.5983 0.43969 0.16994 0.0
O41 O 0.5654 0.44402 0.11359 0.0
C42 C 0.91068 0.1379 0.16771 0.0
O43 O 0.93327 0.13661 0.18591 0.0
Cd44 Cd 0.97598 0.09775 0.19887 0.0
O45 O 0.91078 0.11802 0.15401 0.0
Cd46 Cd 0.94568 0.07231 0.1517 0.0
C47 C 0.88948 0.05093 0.19806 0.0
O48 O 0.02079 0.07936 0.16916 0.0
O49 O -0.00196 0.03803 0.16478 0.0
O50 O 0.96661 0.07736 0.11223 0.0
C51 C 0.02927 0.05414 0.17091 0.0
O52 O 0.91918 0.06401 0.2093 0.0
C53 C 0.94456 0.05669 0.10557 0.0
O54 O 0.88843 0.05223 0.17664 0.0
O55 O 0.9213 0.04407 0.12025 0.0
C56 C 0.91017 0.35184 0.65737 0.0
O57 O 0.93327 0.35233 0.67544 0.0
Cd58 Cd 0.97573 0.39082 0.68916 0.0
O59 O 0.90949 0.37237 0.64433 0.0
Cd60 Cd 0.94307 0.41832 0.64267 0.0
C61 C 0.88817 0.43723 0.69025 0.0
O62 O 0.01851 0.41031 0.65922 0.0
O63 O -0.00305 0.45198 0.65547 0.0
O64 O 0.96101 0.41361 0.60287 0.0
C65 C 0.02773 0.43537 0.66134 0.0
O66 O 0.91837 0.42373 0.70088 0.0
C67 C 0.9387 0.43444 0.59669 0.0
O68 O 0.88664 0.43704 0.66881 0.0
O69 O 0.917 0.44722 0.61186 0.0
C70 C 0.58146 0.14129 0.66256 0.0
O71 O 0.56035 0.14157 0.68122 0.0
Cd72 Cd 0.51915 0.10377 0.69676 0.0
O73 O 0.57971 0.12049 0.64987 0.0
Cd74 Cd 0.54289 0.07524 0.64975 0.0
C75 C 0.60481 0.05599 0.69508 0.0
O76 O 0.47035 0.08485 0.66879 0.0
O77 O 0.4895 0.04277 0.66493 0.0
O78 O 0.51925 0.07968 0.6106 0.0
C79 C 0.46023 0.05998 0.67146 0.0
O80 O 0.57792 0.07078 0.70663 0.0
C81 C 0.53987 0.05848 0.60392 0.0
O82 O 0.60166 0.0551 0.67371 0.0
O83 O 0.56316 0.0456 0.61846 0.0
C84 C 0.40841 0.63852 0.83089 0.0
O85 O 0.43249 0.64025 0.81321 0.0
Cd86 Cd 0.46911 0.60194 0.79599 0.0
O87 O 0.40634 0.61627 0.84178 0.0
Cd88 Cd 0.44226 0.57062 0.83961 0.0
C89 C 0.37959 0.55683 0.79384 0.0
O90 O 0.51721 0.57887 0.82219 0.0
O91 O 0.49039 0.5381 0.82065 0.0
O92 O 0.46709 0.57133 0.87869 0.0
C93 C 0.52342 0.55409 0.81712 0.0
O94 O 0.408 0.57178 0.78337 0.0
C95 C 0.44631 0.54979 0.88435 0.0
O96 O 0.38194 0.55406 0.81511 0.0
O97 O 0.42206 0.53845 0.86936 0.0
C98 C 0.08127 0.85189 0.83355 0.0
O99 O 0.05877 0.85131 0.81531 0.0
Cd100 Cd 0.01969 0.88945 0.79906 0.0
O101 O 0.08143 0.87312 0.84579 0.0
Cd102 Cd 0.04405 0.91847 0.84546 0.0
C103 C 0.10588 0.93691 0.80006 0.0
O104 O 0.97106 0.90897 0.82673 0.0
O105 O 0.99135 0.95093 0.82947 0.0
O106 O 0.01972 0.91537 0.88461 0.0
C107 C 0.96146 0.93383 0.82359 0.0
O108 O 0.07895 0.922 0.78867 0.0
C109 C 0.0401 0.93681 0.89088 0.0
O110 O 0.10276 0.93812 0.82141 0.0
O111 O 0.06393 0.94904 0.8762 0.0
H112 H 0.17353 0.52789 0.31257 0.0
H113 H 0.23133 0.5015 0.29235 0.0
H114 H 0.18524 0.53564 0.22953 0.0
H115 H 0.1274 0.56191 0.24941 0.0
H116 H 0.19754 0.47742 0.22969 0.0
H117 H 0.34754 0.5342 0.26246 0.0
H118 H 0.30809 0.52123 0.28298 0.0
H119 H 0.29026 0.54753 0.264 0.0
C120 C 0.17577 0.52985 0.29446 0.0
C121 C 0.14593 0.54711 0.28262 0.0
C122 C 0.20883 0.51479 0.28296 0.0
C123 C 0.21257 0.51679 0.2595 0.0
C124 C 0.18277 0.53384 0.24765 0.0
H125 H 0.42483 0.4845 0.1663 0.0
H126 H 0.36347 0.50198 0.18988 0.0
C127 C 0.14987 0.54892 0.25909 0.0
C128 C 0.24771 0.50138 0.24708 0.0
H129 H 0.36213 0.49846 0.23726 0.0
C130 C 0.2336 0.48178 0.23144 0.0
C131 C 0.29455 0.50736 0.24939 0.0
C132 C 0.31127 0.52884 0.26548 0.0
C133 C 0.26521 0.46832 0.21766 0.0
C134 C 0.31201 0.47455 0.21978 0.0
C135 C 0.32615 0.49371 0.23578 0.0
C136 C 0.34671 0.46302 0.20449 0.0
C137 C 0.24824 0.44836 0.20036 0.0
C138 C 0.35709 0.43519 0.20466 0.0
C139 C 0.39214 0.42505 0.19105 0.0
C140 C 0.41746 0.44269 0.17728 0.0
C141 C 0.40607 0.4704 0.17678 0.0
C142 C 0.37109 0.48045 0.19027 0.0
H143 H 0.21067 0.4495 0.19815 0.0
H144 H 0.26481 0.45204 0.18385 0.0
H145 H 0.25708 0.42745 0.2058 0.0
H146 H 0.33898 0.42148 0.21575 0.0
H147 H 0.40039 0.40363 0.19189 0.0
H148 H 0.09346 0.08298 0.19448 0.0
H149 H 0.15563 0.06439 0.21748 0.0
H150 H 0.11782 0.98329 0.19764 0.0
H151 H 0.05574 0.00153 0.17492 0.0
H152 H 0.12636 0.99053 0.2444 0.0
H153 H 0.27737 0.02913 0.19767 0.0
H154 H 0.23509 0.05395 0.20529 0.0
H155 H 0.22113 0.02791 0.18536 0.0
C156 C 0.09887 0.06123 0.19479 0.0
C157 C 0.06968 0.0437 0.18295 0.0
C158 C 0.13438 0.05066 0.20789 0.0
C159 C 0.14131 0.02249 0.20916 0.0
C160 C 0.11293 0.00509 0.1969 0.0
H161 H 0.36036 0.92276 0.25589 0.0
H162 H 0.3021 0.94775 0.23513 0.0
C163 C 0.07753 0.01557 0.18389 0.0
C164 C 0.17661 0.01074 0.22401 0.0
H165 H 0.29157 0.00438 0.23096 0.0
C166 C 0.16251 0.99366 0.24159 0.0
C167 C 0.22362 0.01479 0.22012 0.0
C168 C 0.24047 0.03226 0.201 0.0
C169 C 0.19425 0.9801 0.2552 0.0
C170 C 0.24128 0.98412 0.25131 0.0
C171 C 0.25541 0.00152 0.23394 0.0
C172 C 0.27639 0.96921 0.26422 0.0
C173 C 0.17721 0.96086 0.27309 0.0
C174 C 0.28121 0.97306 0.28747 0.0
C175 C 0.31438 0.95868 0.29947 0.0
C176 C 0.34348 0.94035 0.28835 0.0
C177 C 0.33853 0.93667 0.26501 0.0
C178 C 0.30536 0.951 0.25308 0.0
H179 H 0.14067 0.9557 0.27071 0.0
H180 H 0.19741 0.94177 0.27311 0.0
H181 H 0.18099 0.97052 0.28984 0.0
H182 H 0.25956 0.98734 0.2963 0.0
H183 H 0.31748 0.96214 0.31739 0.0
H184 H 0.58924 0.46454 0.23295 0.0
H185 H 0.64495 0.49215 0.25298 0.0
H186 H 0.73553 0.48788 0.19589 0.0
H187 H 0.67904 0.46104 0.17539 0.0
H188 H 0.72552 0.47603 0.26559 0.0
H189 H 0.74725 0.56665 0.21168 0.0
H190 H 0.70073 0.54311 0.20797 0.0
H191 H 0.75601 0.53584 0.19622 0.0
C192 C 0.62077 0.46979 0.22453 0.0
C193 C 0.62991 0.46052 0.20263 0.0
C194 C 0.65252 0.48565 0.23598 0.0
C195 C 0.69422 0.49238 0.22587 0.0
C196 C 0.70311 0.48358 0.20383 0.0
H197 H 0.94762 0.5145 0.29282 0.0
H198 H 0.88036 0.49974 0.27225 0.0
C199 C 0.67098 0.46803 0.1922 0.0
C200 C 0.73004 0.50607 0.23928 0.0
H201 H 0.80692 0.55808 0.2387 0.0
C202 C 0.74281 0.4942 0.25981 0.0
C203 C 0.75225 0.53 0.23195 0.0
C204 C 0.73801 0.5448 0.21086 0.0
C205 C 0.77823 0.50495 0.27279 0.0
C206 C 0.80248 0.52774 0.26472 0.0
C207 C 0.78861 0.54037 0.24468 0.0
C208 C 0.84385 0.53763 0.27629 0.0
C209 C 0.78947 0.49166 0.29501 0.0
C210 C 0.8463 0.56423 0.28465 0.0
C211 C 0.88514 0.5729 0.2963 0.0
C212 C 0.92194 0.55504 0.29967 0.0
C213 C 0.91963 0.52865 0.29077 0.0
C214 C 0.88114 0.52013 0.27906 0.0
H215 H 0.75962 0.48059 0.30195 0.0
H216 H 0.8173 0.47669 0.29248 0.0
H217 H 0.80094 0.50683 0.30759 0.0
H218 H 0.81792 0.57809 0.2825 0.0
H219 H 0.88612 0.59339 0.30287 0.0
H220 H 0.89561 0.03221 0.24105 0.0
H221 H 0.83935 0.00591 0.26193 0.0
H222 H 0.75061 0.00613 0.20405 0.0
H223 H 0.80762 0.03167 0.18272 0.0
H224 H 0.75741 0.02147 0.27332 0.0
H225 H 0.74232 0.92792 0.22245 0.0
H226 H 0.78785 0.95204 0.21839 0.0
H227 H 0.73273 0.95787 0.20594 0.0
C228 C 0.86431 0.02643 0.23266 0.0
C229 C 0.85596 0.03407 0.21025 0.0
C230 C 0.83225 0.01133 0.24461 0.0
C231 C 0.79102 0.00371 0.23449 0.0
C232 C 0.78269 0.01112 0.21203 0.0
H233 H 0.53771 0.9781 0.30167 0.0
H234 H 0.60421 0.99426 0.2812 0.0
C235 C 0.81512 0.02593 0.19992 0.0
C236 C 0.75536 0.99011 0.24807 0.0
H237 H 0.68203 0.93633 0.24898 0.0
C238 C 0.74136 0.00267 0.2681 0.0
C239 C 0.73488 0.96536 0.24148 0.0
C240 C 0.75056 0.94986 0.22101 0.0
C241 C 0.70645 0.9917 0.28132 0.0
C242 C 0.68395 0.96794 0.27397 0.0
C243 C 0.69899 0.95475 0.25441 0.0
C244 C 0.64332 0.95738 0.28581 0.0
C245 C 0.69405 0.00572 0.30305 0.0
C246 C 0.64259 0.93086 0.29449 0.0
C247 C 0.60418 0.92137 0.30604 0.0
C248 C 0.56606 0.93831 0.30902 0.0
C249 C 0.56674 0.96466 0.29992 0.0
C250 C 0.60481 0.97399 0.28828 0.0
H251 H 0.7231 0.01771 0.30973 0.0
H252 H 0.66541 0.01998 0.29994 0.0
H253 H 0.68327 0.99089 0.31608 0.0
H254 H 0.67192 0.91767 0.29258 0.0
H255 H 0.60449 0.90093 0.31278 0.0
H256 H 0.53705 0.50468 0.79798 0.0
H257 H 0.60378 0.48885 0.77748 0.0
H258 H 0.67013 0.56575 0.78876 0.0
H259 H 0.60243 0.58216 0.80891 0.0
H260 H 0.67993 0.54831 0.7455 0.0
H261 H 0.72365 0.46505 0.80413 0.0
H262 H 0.66589 0.46256 0.79454 0.0
H263 H 0.68313 0.49127 0.81123 0.0
C264 C 0.56588 0.51824 0.79625 0.0
C265 C 0.56464 0.54462 0.80521 0.0
C266 C 0.60413 0.50908 0.78461 0.0
C267 C 0.64229 0.5259 0.78203 0.0
C268 C 0.64111 0.55238 0.79075 0.0
H269 H 0.89473 0.4537 0.73384 0.0
H270 H 0.83833 0.47856 0.75586 0.0
C271 C 0.60253 0.5617 0.80227 0.0
C272 C 0.68275 0.51579 0.76972 0.0
H273 H 0.75685 0.46251 0.76734 0.0
C274 C 0.6972 0.52974 0.7504 0.0
C275 C 0.70572 0.49183 0.77636 0.0
C276 C 0.69411 0.47699 0.79784 0.0
C277 C 0.73293 0.51974 0.73703 0.0
C278 C 0.75385 0.4948 0.74288 0.0
C279 C 0.74045 0.48145 0.76267 0.0
C280 C 0.78938 0.48186 0.72874 0.0
C281 C 0.74801 0.53611 0.7169 0.0
C282 C 0.78074 0.47551 0.70611 0.0
C283 C 0.81325 0.46156 0.69335 0.0
C284 C 0.85452 0.4532 0.70318 0.0
C285 C 0.86313 0.4597 0.72581 0.0
C286 C 0.83097 0.47397 0.73842 0.0
H287 H 0.73963 0.55797 0.71898 0.0
H288 H 0.78526 0.5341 0.71401 0.0
H289 H 0.72988 0.52871 0.70172 0.0
H290 H 0.7484 0.4807 0.69845 0.0
H291 H 0.80551 0.45665 0.67601 0.0
H292 H 0.62441 0.05581 0.73995 0.0
H293 H 0.68306 0.02974 0.75939 0.0
H294 H 0.72289 0.99266 0.6967 0.0
H295 H 0.66459 0.01911 0.67689 0.0
H296 H 0.69599 0.97376 0.76267 0.0
H297 H 0.84223 0.02467 0.72057 0.0
H298 H 0.78487 0.03779 0.71905 0.0
H299 H 0.80126 0.00918 0.70217 0.0
C300 C 0.64558 0.04215 0.73022 0.0
C301 C 0.64002 0.03973 0.7068 0.0
C302 C 0.67899 0.02718 0.7414 0.0
C303 C 0.70755 0.0095 0.72945 0.0
C304 C 0.70163 0.00655 0.70616 0.0
H305 H 0.9 0.90203 0.80092 0.0
H306 H 0.8368 0.91756 0.77707 0.0
C307 C 0.66824 0.02163 0.69489 0.0
C308 C 0.74405 0.99476 0.74155 0.0
H309 H 0.85958 0.991 0.74729 0.0
C310 C 0.7318 0.97728 0.75922 0.0
C311 C 0.79065 -0.00037 0.73704 0.0
C312 C 0.80577 0.01898 0.71881 0.0
C313 C 0.76499 0.96506 0.7729 0.0
C314 C 0.81153 0.9702 0.76854 0.0
C315 C 0.82378 0.98706 0.75049 0.0
C316 C 0.84809 0.96026 0.78358 0.0
C317 C 0.75001 0.94772 0.79249 0.0
C318 C 0.87528 0.97912 0.79501 0.0
C319 C 0.91132 0.97037 0.80845 0.0
C320 C 0.92097 0.94255 0.81071 0.0
C321 C 0.89317 0.92359 0.79959 0.0
C322 C 0.85705 0.93241 0.78602 0.0
H323 H 0.713 0.94995 0.79603 0.0
H324 H 0.75691 0.92607 0.7886 0.0
H325 H 0.7694 0.95307 0.8079 0.0
H326 H 0.86881 0.0007 0.79336 0.0
H327 H 0.93203 0.98549 0.81684 0.0
H328 H 0.31623 0.52078 0.80982 0.0
H329 H 0.25945 0.49557 0.78812 0.0
H330 H 0.30591 0.53436 0.72726 0.0
H331 H 0.36308 0.55932 0.74864 0.0
H332 H 0.18939 0.51564 0.76227 0.0
H333 H 0.30693 0.45423 0.71 0.0
H334 H 0.32547 0.47212 0.73486 0.0
H335 H 0.31875 0.48993 0.70863 0.0
C336 C 0.31448 0.5239 0.79181 0.0
C337 C 0.34435 0.542 0.78096 0.0
C338 C 0.28209 0.50943 0.77944 0.0
C339 C 0.27915 0.5127 0.75604 0.0
C340 C 0.30843 0.53101 0.74522 0.0
H341 H 0.05517 0.48759 0.66709 0.0
H342 H 0.11724 0.50412 0.69066 0.0
C343 C 0.34084 0.54544 0.75753 0.0
C344 C 0.24406 0.49799 0.743 0.0
H345 H 0.22916 0.45643 0.69766 0.0
C346 C 0.19808 0.50246 0.7483 0.0
C347 C 0.25552 0.48048 0.72501 0.0
C348 C 0.30437 0.47365 0.7194 0.0
C349 C 0.16316 0.49078 0.73548 0.0
C350 C 0.17464 0.4746 0.71666 0.0
C351 C 0.22056 0.46914 0.71193 0.0
C352 C 0.13929 0.46417 0.70123 0.0
C353 C 0.11426 0.496 0.74209 0.0
C354 C 0.13248 0.43615 0.69862 0.0
C355 C 0.09709 0.42657 0.685 0.0
C356 C 0.06822 0.44493 0.67376 0.0
C357 C 0.07652 0.47293 0.6757 0.0
C358 C 0.11181 0.48244 0.68925 0.0
H359 H 0.11138 0.50213 0.76002 0.0
H360 H 0.10037 0.51275 0.73164 0.0
H361 H 0.0929 0.47771 0.73931 0.0
H362 H 0.1537 0.42177 0.70761 0.0
H363 H 0.09155 0.40488 0.68379 0.0
H364 H 0.16662 0.97309 0.81819 0.0
H365 H 0.22349 0.00029 0.79821 0.0
H366 H 0.18119 0.96475 0.73533 0.0
H367 H 0.12396 0.93786 0.75498 0.0
H368 H 0.29519 0.98222 0.77301 0.0
H369 H 0.18093 0.04537 0.72047 0.0
H370 H 0.1607 0.02621 0.74438 0.0
H371 H 0.16918 0.0098 0.71767 0.0
C372 C 0.16923 0.97117 0.80009 0.0
C373 C 0.14062 0.95333 0.78818 0.0
C374 C 0.20166 0.98677 0.78871 0.0
C375 C 0.20587 0.98494 0.76526 0.0
C376 C 0.17765 0.96703 0.75337 0.0
H377 H 0.43156 0.00828 0.67864 0.0
H378 H 0.36925 0.99309 0.70266 0.0
C379 C 0.14521 0.95148 0.76468 0.0
C380 C 0.24166 0.00036 0.75325 0.0
H381 H 0.25925 0.04257 0.70849 0.0
C382 C 0.28731 -0.00427 0.75912 0.0
C383 C 0.23129 0.01833 0.73536 0.0
C384 C 0.18283 0.02547 0.72924 0.0
C385 C 0.32297 0.00744 0.74682 0.0
C386 C 0.31262 0.02382 0.72794 0.0
C387 C 0.26701 0.02969 0.7228 0.0
C388 C 0.34872 0.03353 0.71259 0.0
C389 C 0.37147 0.00185 0.75393 0.0
C390 C 0.35657 0.06139 0.70953 0.0
C391 C 0.39214 0.07022 0.69564 0.0
C392 C 0.42011 0.05124 0.68458 0.0
C393 C 0.41092 0.0234 0.68709 0.0
C394 C 0.3755 0.01466 0.70091 0.0
H395 H 0.37347 -0.00403 0.77195 0.0
H396 H 0.38525 0.98479 0.74381 0.0
H397 H 0.39346 0.01988 0.75112 0.0
H398 H 0.33587 0.07625 0.71828 0.0
H399 H 0.39837 0.09179 0.69398 0.0
H400 H 0.97399 0.57507 0.41514 0.0
H401 H 0.95571 0.55385 0.45119 0.0
H402 H 0.04543 0.48705 0.43557 0.0
H403 H 0.06356 0.50798 0.39928 0.0
H404 H 0.9585 0.47124 0.45141 0.0
H405 H 0.03785 0.54856 0.50689 0.0
H406 H -0.00159 0.56204 0.48664 0.0
H407 H 0.05033 0.54632 0.47722 0.0
C408 C 0.99016 0.55598 0.41943 0.0
C409 C 0.02039 0.54325 0.40441 0.0
C410 C 0.97977 0.54394 0.44007 0.0
C411 C -0.00035 0.51907 0.44612 0.0
C412 C 0.0299 0.50632 0.4312 0.0
H413 H 0.98556 0.41242 0.56145 0.0
H414 H -0.00338 0.43208 0.5241 0.0
C415 C 0.04031 0.51834 0.41053 0.0
C416 C 0.98794 0.50603 0.46778 0.0
H417 H 0.99291 0.51485 0.52463 0.0
C418 C 0.96613 0.48069 0.46745 0.0
C419 C -0.00217 0.51851 0.48862 0.0
C420 C 0.02275 0.54525 0.48998 0.0
C421 C 0.95337 0.46761 0.48746 0.0
C422 C 0.96338 0.48006 0.50829 0.0
C423 C 0.98506 0.50544 0.50861 0.0
C424 C 0.95308 0.46684 0.53006 0.0
C425 C 0.92864 0.44082 0.48614 0.0
C426 C 0.92499 0.4799 0.54581 0.0
C427 C 0.91878 0.46879 0.56722 0.0
C428 C 0.94085 0.44452 0.57329 0.0
C429 C 0.96792 0.43108 0.55725 0.0
C430 C 0.97411 0.44222 0.53586 0.0
H431 H 0.91262 0.43778 0.46939 0.0
H432 H 0.95334 0.42407 0.4889 0.0
H433 H 0.90182 0.4394 0.49927 0.0
H434 H 0.90862 0.49899 0.54166 0.0
H435 H 0.89778 0.47965 0.57921 0.0
H436 H 0.41446 0.98199 0.40567 0.0
H437 H 0.43036 0.0046 0.44148 0.0
H438 H 0.52191 0.9397 0.45988 0.0
H439 H 0.50666 0.9171 0.42408 0.0
H440 H 0.4191 0.98548 0.48588 0.0
H441 H 0.60042 0.00825 0.46702 0.0
H442 H 0.56023 -0.00177 0.44559 0.0
H443 H 0.58526 0.97316 0.4638 0.0
C444 C 0.43784 0.97247 0.41738 0.0
C445 C 0.45952 0.94784 0.412 0.0
C446 C 0.44691 0.98543 0.43779 0.0
C447 C 0.47796 0.97406 0.45309 0.0
C448 C 0.49861 0.94909 0.44807 0.0
H449 H 0.57777 0.01294 0.58551 0.0
H450 H 0.56287 0.99378 0.54828 0.0
C451 C 0.48958 0.93612 0.42768 0.0
C452 C 0.48853 0.98817 0.4744 0.0
H453 H 0.57569 0.01614 0.50453 0.0
C454 C 0.45323 0.99238 0.48993 0.0
C455 C 0.53312 -0.00286 0.47955 0.0
C456 C 0.5719 0.99423 0.46305 0.0
C457 C 0.46159 0.00468 0.5108 0.0
C458 C 0.50628 0.01338 0.51604 0.0
C459 C 0.54149 0.00941 0.50042 0.0
C460 C 0.51732 0.02602 0.53792 0.0
C461 C 0.42283 0.00755 0.52732 0.0
C462 C 0.4976 0.05087 0.54412 0.0
C463 C 0.50604 0.06188 0.56536 0.0
C464 C 0.53451 0.04826 0.5807 0.0
C465 C 0.55558 0.02388 0.57409 0.0
C466 C 0.54711 0.0129 0.55285 0.0
H467 H 0.39344 0.99443 0.52282 0.0
H468 H 0.43415 0.00233 0.54462 0.0
H469 H 0.41089 0.02894 0.52739 0.0
H470 H 0.4752 0.06155 0.53263 0.0
H471 H 0.48949 0.08077 0.56991 0.0
H472 H 0.5815 0.475 0.07977 0.0
H473 H 0.56507 0.49384 0.04257 0.0
H474 H 0.47532 0.42667 0.02866 0.0
H475 H 0.49187 0.40748 0.06579 0.0
H476 H 0.53322 0.44195 0.99203 0.0
H477 H 0.44094 0.52995 0.0287 0.0
H478 H 0.4978 0.52518 0.03922 0.0
H479 H 0.45496 0.50002 0.04484 0.0
C480 C 0.5587 0.46404 0.06871 0.0
C481 C 0.53767 0.43987 0.07579 0.0
C482 C 0.54914 0.47493 0.04753 0.0
C483 C 0.51826 0.46192 0.03312 0.0
C484 C 0.49897 0.4371 0.03965 0.0
H485 H 0.40933 0.50268 0.90055 0.0
H486 H 0.42493 0.48082 0.93676 0.0
C487 C 0.50852 0.42617 0.06085 0.0
C488 C 0.50502 0.47469 0.01155 0.0
H489 H 0.45401 0.531 0.98936 0.0
C490 C 0.51569 0.46134 0.99139 0.0
C491 C 0.48198 0.49993 0.01086 0.0
C492 C 0.46782 0.51455 0.03204 0.0
C493 C 0.50507 0.47299 0.97047 0.0
C494 C 0.48247 0.49838 0.96979 0.0
C495 C 0.47138 0.51156 0.98997 0.0
C496 C 0.47119 0.51203 0.94831 0.0
C497 C 0.51927 0.45841 0.94928 0.0
C498 C 0.49069 0.53728 0.94321 0.0
C499 C 0.48158 0.54991 0.92266 0.0
C500 C 0.4526 0.53756 0.90686 0.0
C501 C 0.43194 0.51266 0.91232 0.0
C502 C 0.44109 0.50004 0.93291 0.0
H503 H 0.54536 0.44255 0.95267 0.0
H504 H 0.48907 0.44836 0.94176 0.0
H505 H 0.53315 0.47291 0.93672 0.0
H506 H 0.51376 0.54694 0.95496 0.0
H507 H 0.49797 0.5691 0.91898 0.0
H508 H 0.98771 0.9163 0.92486 0.0
H509 H 0.97078 0.9375 0.96111 0.0
H510 H 0.06042 0.00396 0.94476 0.0
H511 H 0.07716 0.9831 0.90834 0.0
H512 H 0.02882 0.95299 -0.00349 0.0
H513 H 0.93904 0.04179 0.95947 0.0
H514 H 0.9521 0.01165 0.94344 0.0
H515 H -0.00426 0.03633 0.94898 0.0
C516 C 0.00409 0.93533 0.92903 0.0
C517 C 0.03354 0.94812 0.91367 0.0
C518 C -0.00568 0.94742 0.94973 0.0
C519 C 0.01364 0.97253 0.95538 0.0
C520 C 0.04439 0.98486 0.94047 0.0
H521 H -0.00437 0.07798 0.07142 0.0
H522 H 0.01068 0.05764 0.03462 0.0
C523 C 0.05417 0.9728 0.91976 0.0
C524 C 0.00136 0.98586 0.97684 0.0
H525 H 0.95152 0.04264 -0.00114 0.0
C526 C 0.01177 0.97253 -0.00295 0.0
C527 C 0.97909 0.01136 0.97743 0.0
C528 C 0.96542 0.02607 0.95619 0.0
C529 C 0.00121 0.98424 0.01791 0.0
C530 C 0.97892 0.00972 0.0185 0.0
C531 C 0.96853 0.02308 -0.0017 0.0
C532 C 0.96679 0.02299 0.04001 0.0
C533 C 0.0149 0.96953 0.03915 0.0
C534 C 0.93593 0.01067 0.05486 0.0
C535 C 0.92722 0.02222 0.07588 0.0
C536 C 0.9491 0.04637 0.08234 0.0
C537 C 0.97834 0.05932 0.06697 0.0
C538 C 0.98702 0.04774 0.04595 0.0
H539 H 0.04104 0.95368 0.03586 0.0
H540 H 0.02854 0.98394 0.05182 0.0
H541 H 0.98452 0.95945 0.04647 0.0
H542 H 0.91926 0.99183 0.05036 0.0
H543 H 0.90435 0.01182 0.08729 0.0
H544 H 0.12922 0.64523 0.37226 0.0
H545 H 0.18358 0.67985 0.38451 0.0
H546 H 0.15284 0.72742 0.32547 0.0
H547 H 0.09805 0.69338 0.31335 0.0
H548 H 0.25956 0.69383 0.36246 0.0
H549 H 0.15346 0.78533 0.37314 0.0
H550 H 0.12919 0.75171 0.3715 0.0
H551 H 0.14287 0.77025 0.34623 0.0
C552 C 0.13332 0.66334 0.36212 0.0
C553 C 0.10933 0.66649 0.34177 0.0
C554 C 0.16444 0.68309 0.36916 0.0
C555 C 0.17185 0.7064 0.35608 0.0
C556 C 0.14688 0.70996 0.33615 0.0
H557 H 0.39945 0.79584 0.31886 0.0
H558 H 0.34447 0.76096 0.32892 0.0
C559 C 0.11576 0.69032 0.32913 0.0
C560 C 0.20898 0.72563 0.3617 0.0
H561 H 0.23306 0.79328 0.36343 0.0
C562 C 0.25368 0.71556 0.3632 0.0
C563 C 0.20138 0.75392 0.36323 0.0
C564 C 0.15402 0.76587 0.3637 0.0
C565 C 0.29118 0.73316 0.36429 0.0
C566 C 0.28373 0.76151 0.36333 0.0
C567 C 0.2389 0.77153 0.36376 0.0
C568 C 0.32138 0.78097 0.35928 0.0
C569 C 0.3384 0.72115 0.36587 0.0
C570 C 0.32671 0.80398 0.37294 0.0
C571 C 0.35791 0.82424 0.36706 0.0
C572 C 0.3841 0.82191 0.34731 0.0
C573 C 0.37999 0.79829 0.33421 0.0
C574 C 0.34875 0.77815 0.34006 0.0
H575 H 0.33783 0.70141 0.37491 0.0
H576 H 0.35155 0.71731 0.34866 0.0
H577 H 0.3623 0.73503 0.37465 0.0
H578 H 0.30574 0.80665 0.38777 0.0
H579 H 0.36023 0.84216 0.37754 0.0
H580 H 0.89826 0.18262 0.1943 0.0
H581 H 0.84306 0.21924 0.18911 0.0
H582 H 0.80084 0.18413 0.12607 0.0
H583 H 0.85555 0.14711 0.13122 0.0
H584 H 0.83044 0.25761 0.15483 0.0
H585 H 0.68206 0.18808 0.16253 0.0
H586 H 0.73923 0.17792 0.16997 0.0
H587 H 0.72239 0.17941 0.14095 0.0
C588 C 0.87757 0.18275 0.17921 0.0
C589 C 0.88105 0.16173 0.16329 0.0
C590 C 0.84604 0.20373 0.17628 0.0
C591 C 0.81732 0.20411 0.15742 0.0
C592 C 0.82208 0.18389 0.14097 0.0
H593 H 0.63858 0.343 0.12833 0.0
H594 H 0.6945 0.30638 0.12434 0.0
C595 C 0.85357 0.16284 0.1439 0.0
C596 C 0.78141 0.22517 0.15552 0.0
H597 H 0.66597 0.23427 0.15578 0.0
C598 C 0.79447 0.25255 0.15487 0.0
C599 C 0.73453 0.21844 0.15586 0.0
C600 C 0.7185 0.1894 0.15755 0.0
C601 C 0.76187 0.27346 0.15478 0.0
C602 C 0.71499 0.26672 0.155 0.0
C603 C 0.70194 0.23933 0.1554 0.0
C604 C 0.67903 0.28781 0.15642 0.0
C605 C 0.77788 0.30256 0.15531 0.0
C606 C 0.65062 0.28886 0.17538 0.0
C607 C 0.61843 0.30958 0.17765 0.0
C608 C 0.61392 0.32968 0.16096 0.0
C609 C 0.64131 0.32797 0.14157 0.0
C610 C 0.67351 0.30716 0.13931 0.0
H611 H 0.81447 0.30414 0.15995 0.0
H612 H 0.77343 0.31171 0.13839 0.0
H613 H 0.75752 0.31464 0.16746 0.0
H614 H 0.65419 0.27401 0.18873 0.0
H615 H 0.59785 0.31019 0.19277 0.0
H616 H 0.59535 0.18816 0.68619 0.0
H617 H 0.65053 0.22387 0.67826 0.0
H618 H 0.69064 0.18279 0.61736 0.0
H619 H 0.63584 0.14661 0.6253 0.0
H620 H 0.76354 0.19639 0.64379 0.0
H621 H 0.65074 0.28548 0.63283 0.0
H622 H 0.63908 0.26759 0.65848 0.0
H623 H 0.62975 0.25105 0.63189 0.0
C624 C 0.61533 0.18686 0.67091 0.0
C625 C 0.61116 0.16446 0.6564 0.0
C626 C 0.64671 0.20742 0.66633 0.0
C627 C 0.67427 0.20617 0.64707 0.0
C628 C 0.66949 0.1842 0.63225 0.0
H629 H 0.85497 0.3441 0.62075 0.0
H630 H 0.80077 0.30717 0.61458 0.0
C631 C 0.63809 0.16358 0.63682 0.0
C632 C 0.71047 0.22668 0.64352 0.0
H633 H 0.72917 0.29499 0.64177 0.0
C634 C 0.75603 0.21794 0.64298 0.0
C635 C 0.70064 0.25474 0.6421 0.0
C636 C 0.65236 0.26527 0.64111 0.0
C637 C 0.7921 0.23661 0.6423 0.0
C638 C 0.78228 0.26472 0.64256 0.0
C639 C 0.7367 0.27342 0.64185 0.0
C640 C 0.81848 0.28547 0.645 0.0
C641 C 0.84036 0.22603 0.64154 0.0
C642 C 0.84669 0.2854 0.66407 0.0
C643 C 0.87779 0.30641 0.66763 0.0
C644 C 0.88096 0.32809 0.6523 0.0
C645 C 0.85345 0.32774 0.6329 0.0
C646 C 0.8224 0.30667 0.62934 0.0
H647 H 0.84184 0.20537 0.63407 0.0
H648 H 0.86283 0.2397 0.63167 0.0
H649 H 0.85391 0.22467 0.65893 0.0
H650 H 0.84354 0.26959 0.67664 0.0
H651 H 0.89824 0.30607 0.6828 0.0
H652 H 0.33336 0.63779 0.8582 0.0
H653 H 0.2778 0.67433 0.86353 0.0
H654 H 0.36184 0.7282 0.82416 0.0
H655 H 0.41674 0.69156 0.81811 0.0
H656 H 0.27724 0.72613 0.88041 0.0
H657 H 0.24437 0.72719 0.78858 0.0
H658 H 0.27824 0.70123 0.80195 0.0
H659 H 0.30284 0.73377 0.79545 0.0
C660 C 0.34036 0.65753 0.85095 0.0
C661 C 0.37906 0.66167 0.83741 0.0
C662 C 0.30856 0.67839 0.85402 0.0
C663 C 0.31512 0.70375 0.84374 0.0
C664 C 0.35548 0.70854 0.8317 0.0
H665 H 0.15647 0.85145 0.86074 0.0
H666 H 0.21114 0.81441 0.8656 0.0
C667 C 0.38693 0.68762 0.82835 0.0
C668 C 0.27841 0.72449 0.84422 0.0
H669 H 0.20991 0.76219 0.80992 0.0
C670 C 0.26233 0.73399 0.86503 0.0
C671 C 0.25828 0.73424 0.82414 0.0
C672 C 0.27144 0.7234 0.80128 0.0
C673 C 0.22725 0.75343 0.86626 0.0
C674 C 0.20857 0.76403 0.84612 0.0
C675 C 0.22432 0.75419 0.82537 0.0
C676 C 0.17283 0.78543 0.84581 0.0
C677 C 0.21001 0.76195 0.8891 0.0
C678 C 0.13307 0.78159 0.83304 0.0
C679 C 0.10234 0.80291 0.82981 0.0
C680 C 0.11047 0.82845 0.8395 0.0
C681 C 0.14907 0.83192 0.85323 0.0
C682 C 0.18025 0.81068 0.85614 0.0
H683 H 0.21691 0.74614 0.902 0.0
H684 H 0.22787 0.78075 0.89435 0.0
H685 H 0.17281 0.76612 0.88875 0.0
H686 H 0.12657 0.7623 0.82492 0.0
H687 H 0.0728 0.79957 0.81925 0.0
loop_
_geom_bond_atom_site_label_1
_geom_bond_atom_site_label_2
_geom_bond_distance
_geom_bond_site_symmetry_2
_ccdc_geom_bond_type
C0 O1 1.306 . S
C0 O3 1.160 . S
O1 C0 1.306 . S
O1 Cd2 2.228 . S
Cd2 O1 2.228 . S
Cd2 O6 2.273 . S
Cd2 O10 2.277 . S
O3 C0 1.160 . S
O3 Cd4 2.203 . S
Cd4 O3 2.203 . S
Cd4 O6 2.411 . S
Cd4 O7 2.333 . S
Cd4 O8 2.352 . S
Cd4 O12 2.277 . S
Cd4 O13 2.356 . S
C5 O10 1.209 . S
C5 O12 1.226 . S
O6 Cd2 2.273 . S
O6 Cd4 2.411 . S
O6 C9 1.320 . S
O7 Cd4 2.333 . S
O7 C9 1.214 . S
O8 Cd4 2.352 . S
O8 C11 1.258 . S
C9 O6 1.320 . S
C9 O7 1.214 . S
O10 Cd2 2.277 . S
O10 C5 1.209 . S
C11 O8 1.258 . S
C11 O13 1.282 . S
O12 Cd4 2.277 . S
O12 C5 1.226 . S
O13 Cd4 2.356 . S
O13 C11 1.282 . S
C14 O15 1.306 . S
C14 O17 1.160 . S
O15 C14 1.306 . S
O15 Cd16 2.228 . S
Cd16 O15 2.228 . S
Cd16 O20 2.273 . S
Cd16 O24 2.277 . S
O17 C14 1.160 . S
O17 Cd18 2.203 . S
Cd18 O17 2.203 . S
Cd18 O20 2.411 . S
Cd18 O21 2.333 . S
Cd18 O22 2.352 . S
Cd18 O26 2.277 . S
Cd18 O27 2.356 . S
C19 O24 1.209 . S
C19 O26 1.226 . S
O20 Cd16 2.273 . S
O20 Cd18 2.411 . S
O20 C23 1.320 . S
O21 Cd18 2.333 . S
O21 C23 1.214 . S
O22 Cd18 2.352 . S
O22 C25 1.258 . S
C23 O20 1.320 . S
C23 O21 1.214 . S
O24 Cd16 2.277 . S
O24 C19 1.209 . S
C25 O22 1.258 . S
C25 O27 1.282 . S
O26 Cd18 2.277 . S
O26 C19 1.226 . S
O27 Cd18 2.356 . S
O27 C25 1.282 . S
C28 O29 1.306 . S
C28 O31 1.160 . S
O29 C28 1.306 . S
O29 Cd30 2.228 . S
Cd30 O29 2.228 . S
Cd30 O34 2.273 . S
Cd30 O38 2.277 . S
O31 C28 1.160 . S
O31 Cd32 2.203 . S
Cd32 O31 2.203 . S
Cd32 O34 2.411 . S
Cd32 O35 2.333 . S
Cd32 O36 2.352 . S
Cd32 O40 2.277 . S
Cd32 O41 2.356 . S
C33 O38 1.209 . S
C33 O40 1.226 . S
O34 Cd30 2.273 . S
O34 Cd32 2.411 . S
O34 C37 1.320 . S
O35 Cd32 2.333 . S
O35 C37 1.214 . S
O36 Cd32 2.352 . S
O36 C39 1.258 . S
C37 O34 1.320 . S
C37 O35 1.214 . S
O38 Cd30 2.277 . S
O38 C33 1.209 . S
C39 O36 1.258 . S
C39 O41 1.282 . S
O40 Cd32 2.277 . S
O40 C33 1.226 . S
O41 Cd32 2.356 . S
O41 C39 1.282 . S
C42 O43 1.306 . S
C42 O45 1.160 . S
O43 C42 1.306 . S
O43 Cd44 2.228 . S
Cd44 O43 2.228 . S
Cd44 O48 2.273 . S
Cd44 O52 2.277 . S
O45 C42 1.160 . S
O45 Cd46 2.203 . S
Cd46 O45 2.203 . S
Cd46 O48 2.411 . S
Cd46 O49 2.333 . S
Cd46 O50 2.352 . S
Cd46 O54 2.277 . S
Cd46 O55 2.356 . S
C47 O52 1.209 . S
C47 O54 1.226 . S
O48 Cd44 2.273 . S
O48 Cd46 2.411 . S
O48 C51 1.320 . S
O49 Cd46 2.333 . S
O49 C51 1.214 . S
O50 Cd46 2.352 . S
O50 C53 1.258 . S
C51 O48 1.320 . S
C51 O49 1.214 . S
O52 Cd44 2.277 . S
O52 C47 1.209 . S
C53 O50 1.258 . S
C53 O55 1.282 . S
O54 Cd46 2.277 . S
O54 C47 1.226 . S
O55 Cd46 2.356 . S
O55 C53 1.282 . S
C56 O57 1.306 . S
C56 O59 1.160 . S
O57 C56 1.306 . S
O57 Cd58 2.228 . S
Cd58 O57 2.228 . S
Cd58 O62 2.273 . S
Cd58 O66 2.277 . S
O59 C56 1.160 . S
O59 Cd60 2.203 . S
Cd60 O59 2.203 . S
Cd60 O62 2.411 . S
Cd60 O63 2.333 . S
Cd60 O64 2.352 . S
Cd60 O68 2.277 . S
Cd60 O69 2.356 . S
C61 O66 1.209 . S
C61 O68 1.226 . S
O62 Cd58 2.273 . S
O62 Cd60 2.411 . S
O62 C65 1.320 . S
O63 Cd60 2.333 . S
O63 C65 1.214 . S
O64 Cd60 2.352 . S
O64 C67 1.258 . S
C65 O62 1.320 . S
C65 O63 1.214 . S
O66 Cd58 2.277 . S
O66 C61 1.209 . S
C67 O64 1.258 . S
C67 O69 1.282 . S
O68 Cd60 2.277 . S
O68 C61 1.226 . S
O69 Cd60 2.356 . S
O69 C67 1.282 . S
C70 O71 1.306 . S
C70 O73 1.160 . S
O71 C70 1.306 . S
O71 Cd72 2.228 . S
Cd72 O71 2.228 . S
Cd72 O76 2.273 . S
Cd72 O80 2.277 . S
O73 C70 1.160 . S
O73 Cd74 2.203 . S
Cd74 O73 2.203 . S
Cd74 O76 2.411 . S
Cd74 O77 2.333 . S
Cd74 O78 2.352 . S
Cd74 O82 2.277 . S
Cd74 O83 2.356 . S
C75 O80 1.209 . S
C75 O82 1.226 . S
O76 Cd72 2.273 . S
O76 Cd74 2.411 . S
O76 C79 1.320 . S
O77 Cd74 2.333 . S
O77 C79 1.214 . S
O78 Cd74 2.352 . S
O78 C81 1.258 . S
C79 O76 1.320 . S
C79 O77 1.214 . S
O80 Cd72 2.277 . S
O80 C75 1.209 . S
C81 O78 1.258 . S
C81 O83 1.282 . S
O82 Cd74 2.277 . S
O82 C75 1.226 . S
O83 Cd74 2.356 . S
O83 C81 1.282 . S
C84 O85 1.306 . S
C84 O87 1.160 . S
O85 C84 1.306 . S
O85 Cd86 2.228 . S
Cd86 O85 2.228 . S
Cd86 O90 2.273 . S
Cd86 O94 2.277 . S
O87 C84 1.160 . S
O87 Cd88 2.203 . S
Cd88 O87 2.203 . S
Cd88 O90 2.411 . S
Cd88 O91 2.333 . S
Cd88 O92 2.352 . S
Cd88 O96 2.277 . S
Cd88 O97 2.356 . S
C89 O94 1.209 . S
C89 O96 1.226 . S
O90 Cd86 2.273 . S
O90 Cd88 2.411 . S
O90 C93 1.320 . S
O91 Cd88 2.333 . S
O91 C93 1.214 . S
O92 Cd88 2.352 . S
O92 C95 1.258 . S
C93 O90 1.320 . S
C93 O91 1.214 . S
O94 Cd86 2.277 . S
O94 C89 1.209 . S
C95 O92 1.258 . S
C95 O97 1.282 . S
O96 Cd88 2.277 . S
O96 C89 1.226 . S
O97 Cd88 2.356 . S
O97 C95 1.282 . S
C98 O99 1.306 . S
C98 O101 1.160 . S
O99 C98 1.306 . S
O99 Cd100 2.228 . S
Cd100 O99 2.228 . S
Cd100 O104 2.273 . S
Cd100 O108 2.277 . S
O101 C98 1.160 . S
O101 Cd102 2.203 . S
Cd102 O101 2.203 . S
Cd102 O104 2.411 . S
Cd102 O105 2.333 . S
Cd102 O106 2.352 . S
Cd102 O110 2.277 . S
Cd102 O111 2.356 . S
C103 O108 1.209 . S
C103 O110 1.226 . S
O104 Cd100 2.273 . S
O104 Cd102 2.411 . S
O104 C107 1.320 . S
O105 Cd102 2.333 . S
O105 C107 1.214 . S
O106 Cd102 2.352 . S
O106 C109 1.258 . S
C107 O104 1.320 . S
C107 O105 1.214 . S
O108 Cd100 2.277 . S
O108 C103 1.209 . S
C109 O106 1.258 . S
C109 O111 1.282 . S
O110 Cd102 2.277 . S
O110 C103 1.226 . S
O111 Cd102 2.356 . S
O111 C109 1.282 . S
H112 C120 0.929 . S
H113 C122 0.930 . S
H114 C124 0.930 . S
H115 C127 0.929 . S
H116 C130 0.930 . S
H117 C132 0.960 . S
H118 C132 0.960 . S
H119 C132 0.960 . S
C120 H112 0.929 . S
C120 C121 1.377 . S
C120 C122 1.384 . S
C121 C120 1.377 . S
C121 C127 1.390 . S
C122 H113 0.930 . S
C122 C120 1.384 . S
C122 C123 1.372 . S
C123 C122 1.372 . S
C123 C124 1.400 . S
C123 C128 1.490 . S
C124 H114 0.930 . S
C124 C123 1.400 . S
C124 C127 1.386 . S
H125 C141 0.930 . S
H126 C142 0.931 . S
C127 H115 0.929 . S
C127 C121 1.390 . S
C127 C124 1.386 . S
C128 C123 1.490 . S
C128 C130 1.395 . S
C128 C131 1.403 . S
H129 C135 0.930 . S
C130 H116 0.930 . S
C130 C128 1.395 . S
C130 C133 1.403 . S
C131 C128 1.403 . S
C131 C132 1.524 . S
C131 C135 1.400 . S
C132 H117 0.960 . S
C132 H118 0.960 . S
C132 H119 0.960 . S
C132 C131 1.524 . S
C133 C130 1.403 . S
C133 C134 1.392 . S
C133 C137 1.495 . S
C134 C133 1.392 . S
C134 C135 1.385 . S
C134 C136 1.478 . S
C135 H129 0.930 . S
C135 C131 1.400 . S
C135 C134 1.385 . S
C136 C134 1.478 . S
C136 C138 1.381 . S
C136 C142 1.383 . S
C137 C133 1.495 . S
C137 H143 0.959 . S
C137 H144 0.961 . S
C137 H145 0.960 . S
C138 C136 1.381 . S
C138 C139 1.394 . S
C138 H146 0.930 . S
C139 C138 1.394 . S
C139 C140 1.383 . S
C139 H147 0.929 . S
C140 C139 1.383 . S
C140 C141 1.377 . S
C141 H125 0.930 . S
C141 C140 1.377 . S
C141 C142 1.379 . S
C142 H126 0.931 . S
C142 C136 1.383 . S
C142 C141 1.379 . S
H143 C137 0.959 . S
H144 C137 0.961 . S
H145 C137 0.960 . S
H146 C138 0.930 . S
H147 C139 0.929 . S
H148 C156 0.929 . S
H149 C158 0.930 . S
H150 C160 0.930 . S
H151 C163 0.929 . S
H152 C166 0.930 . S
H153 C168 0.960 . S
H154 C168 0.960 . S
H155 C168 0.960 . S
C156 H148 0.929 . S
C156 C157 1.377 . S
C156 C158 1.384 1_655 S
C157 C156 1.377 . S
C157 C163 1.390 1_655 S
C158 H149 0.930 . S
C158 C156 1.384 1_455 S
C158 C159 1.372 . S
C159 C158 1.372 . S
C159 C160 1.400 . S
C159 C164 1.490 . S
C160 H150 0.930 . S
C160 C159 1.400 . S
C160 C163 1.386 . S
H161 C177 0.930 . S
H162 C178 0.931 . S
C163 H151 0.929 . S
C163 C157 1.390 1_455 S
C163 C160 1.386 . S
C164 C159 1.490 . S
C164 C166 1.395 1_545 S
C164 C167 1.403 . S
H165 C171 0.930 . S
C166 H152 0.930 . S
C166 C164 1.395 1_565 S
C166 C169 1.403 . S
C167 C164 1.403 . S
C167 C168 1.524 . S
C167 C171 1.400 . S
C168 H153 0.960 . S
C168 H154 0.960 . S
C168 H155 0.960 . S
C168 C167 1.524 . S
C169 C166 1.403 . S
C169 C170 1.392 . S
C169 C173 1.495 . S
C170 C169 1.392 . S
C170 C171 1.385 1_565 S
C170 C172 1.478 . S
C171 H165 0.930 . S
C171 C167 1.400 . S
C171 C170 1.385 1_545 S
C172 C170 1.478 . S
C172 C174 1.381 . S
C172 C178 1.383 . S
C173 C169 1.495 . S
C173 H179 0.959 . S
C173 H180 0.961 . S
C173 H181 0.960 . S
C174 C172 1.381 . S
C174 C175 1.394 . S
C174 H182 0.930 1_565 S
C175 C174 1.394 . S
C175 C176 1.383 . S
C175 H183 0.929 . S
C176 C175 1.383 . S
C176 C177 1.377 . S
C177 H161 0.930 . S
C177 C176 1.377 . S
C177 C178 1.379 . S
C178 H162 0.931 . S
C178 C172 1.383 . S
C178 C177 1.379 . S
H179 C173 0.959 . S
H180 C173 0.961 . S
H181 C173 0.960 . S
H182 C174 0.930 1_545 S
H183 C175 0.929 . S
H184 C192 0.929 . S
H185 C194 0.930 . S
H186 C196 0.930 . S
H187 C199 0.929 . S
H188 C202 0.930 . S
H189 C204 0.960 . S
H190 C204 0.960 . S
H191 C204 0.960 . S
C192 H184 0.929 . S
C192 C193 1.377 . S
C192 C194 1.384 . S
C193 C192 1.377 . S
C193 C199 1.390 . S
C194 H185 0.930 . S
C194 C192 1.384 . S
C194 C195 1.372 . S
C195 C194 1.372 . S
C195 C196 1.400 . S
C195 C200 1.490 . S
C196 H186 0.930 . S
C196 C195 1.400 . S
C196 C199 1.386 . S
H197 C213 0.930 . S
H198 C214 0.931 . S
C199 H187 0.929 . S
C199 C193 1.390 . S
C199 C196 1.386 . S
C200 C195 1.490 . S
C200 C202 1.395 . S
C200 C203 1.403 . S
H201 C207 0.930 . S
C202 H188 0.930 . S
C202 C200 1.395 . S
C202 C205 1.403 . S
C203 C200 1.403 . S
C203 C204 1.524 . S
C203 C207 1.400 . S
C204 H189 0.960 . S
C204 H190 0.960 . S
C204 H191 0.960 . S
C204 C203 1.524 . S
C205 C202 1.403 . S
C205 C206 1.392 . S
C205 C209 1.495 . S
C206 C205 1.392 . S
C206 C207 1.385 . S
C206 C208 1.478 . S
C207 H201 0.930 . S
C207 C203 1.400 . S
C207 C206 1.385 . S
C208 C206 1.478 . S
C208 C210 1.381 . S
C208 C214 1.383 . S
C209 C205 1.495 . S
C209 H215 0.959 . S
C209 H216 0.961 . S
C209 H217 0.960 . S
C210 C208 1.381 . S
C210 C211 1.394 . S
C210 H218 0.930 . S
C211 C210 1.394 . S
C211 C212 1.383 1_655 S
C211 H219 0.929 . S
C212 C211 1.383 1_455 S
C212 C213 1.377 . S
C213 H197 0.930 . S
C213 C212 1.377 . S
C213 C214 1.379 1_455 S
C214 H198 0.931 . S
C214 C208 1.383 . S
C214 C213 1.379 1_655 S
H215 C209 0.959 . S
H216 C209 0.961 . S
H217 C209 0.960 . S
H218 C210 0.930 . S
H219 C211 0.929 . S
H220 C228 0.925 1_565 S
H221 C230 0.897 1_565 S
H222 C232 0.930 . S
H223 C235 0.929 . S
H224 C238 0.930 . S
H225 C240 0.960 . S
H226 C240 0.960 . S
H227 C240 0.960 1_545 S
C228 H220 0.925 1_545 S
C228 C229 1.377 . S
C228 C230 1.397 . S
C229 C228 1.377 . S
C229 C235 1.390 . S
C230 H221 0.897 1_545 S
C230 C228 1.397 . S
C230 C231 1.393 . S
C231 C230 1.393 . S
C231 C232 1.400 . S
C231 C236 1.490 . S
C232 H222 0.930 . S
C232 C231 1.400 . S
C232 C235 1.386 . S
H233 C249 0.927 1_545 S
H234 C250 0.931 1_545 S
C235 H223 0.929 . S
C235 C229 1.390 . S
C235 C232 1.386 . S
C236 C231 1.490 . S
C236 C238 1.395 . S
C236 C239 1.403 1_545 S
H237 C243 0.930 . S
C238 H224 0.930 . S
C238 C236 1.395 . S
C238 C241 1.403 1_545 S
C239 C236 1.403 1_565 S
C239 C240 1.524 . S
C239 C243 1.400 . S
C240 H225 0.960 . S
C240 H226 0.960 . S
C240 H227 0.960 1_565 S
C240 C239 1.524 . S
C241 C238 1.403 1_565 S
C241 C242 1.392 . S
C241 C245 1.495 . S
C242 C241 1.392 . S
C242 C243 1.385 . S
C242 C244 1.478 . S
C243 H237 0.930 . S
C243 C239 1.400 . S
C243 C242 1.385 . S
C244 C242 1.478 . S
C244 C246 1.381 . S
C244 C250 1.383 . S
C245 C241 1.495 . S
C245 H251 0.959 1_565 S
C245 H252 0.961 1_565 S
C245 H253 0.960 . S
C246 C244 1.381 . S
C246 C247 1.394 . S
C246 H254 0.930 . S
C247 C246 1.394 . S
C247 C248 1.383 . S
C247 H255 0.929 . S
C248 C247 1.383 . S
C248 C249 1.377 . S
C249 H233 0.927 1_565 S
C249 C248 1.377 . S
C249 C250 1.379 . S
C250 H234 0.931 1_565 S
C250 C244 1.383 . S
C250 C249 1.379 . S
H251 C245 0.959 1_545 S
H252 C245 0.961 1_545 S
H253 C245 0.960 . S
H254 C246 0.930 . S
H255 C247 0.929 . S
H256 C264 0.929 . S
H257 C266 0.930 . S
H258 C268 0.930 . S
H259 C271 0.929 . S
H260 C274 0.930 . S
H261 C276 0.960 . S
H262 C276 0.960 . S
H263 C276 0.960 . S
C264 H256 0.929 . S
C264 C265 1.377 . S
C264 C266 1.384 . S
C265 C264 1.377 . S
C265 C271 1.390 . S
C266 H257 0.930 . S
C266 C264 1.384 . S
C266 C267 1.372 . S
C267 C266 1.372 . S
C267 C268 1.400 . S
C267 C272 1.490 . S
C268 H258 0.930 . S
C268 C267 1.400 . S
C268 C271 1.386 . S
H269 C285 0.930 . S
H270 C286 0.931 . S
C271 H259 0.929 . S
C271 C265 1.390 . S
C271 C268 1.386 . S
C272 C267 1.490 . S
C272 C274 1.395 . S
C272 C275 1.403 . S
H273 C279 0.930 . S
C274 H260 0.930 . S
C274 C272 1.395 . S
C274 C277 1.403 . S
C275 C272 1.403 . S
C275 C276 1.524 . S
C275 C279 1.400 . S
C276 H261 0.960 . S
C276 H262 0.960 . S
C276 H263 0.960 . S
C276 C275 1.524 . S
C277 C274 1.403 . S
C277 C278 1.392 . S
C277 C281 1.495 . S
C278 C277 1.392 . S
C278 C279 1.385 . S
C278 C280 1.478 . S
C279 H273 0.930 . S
C279 C275 1.400 . S
C279 C278 1.385 . S
C280 C278 1.478 . S
C280 C282 1.381 . S
C280 C286 1.383 . S
C281 C277 1.495 . S
C281 H287 0.959 . S
C281 H288 0.961 . S
C281 H289 0.960 . S
C282 C280 1.381 . S
C282 C283 1.394 . S
C282 H290 0.930 . S
C283 C282 1.394 . S
C283 C284 1.383 . S
C283 H291 0.929 . S
C284 C283 1.383 . S
C284 C285 1.377 . S
C285 H269 0.930 . S
C285 C284 1.377 . S
C285 C286 1.379 . S
C286 H270 0.931 . S
C286 C280 1.383 . S
C286 C285 1.379 . S
H287 C281 0.959 . S
H288 C281 0.961 . S
H289 C281 0.960 . S
H290 C282 0.930 . S
H291 C283 0.929 . S
H292 C300 0.929 . S
H293 C302 0.930 . S
H294 C304 0.930 . S
H295 C307 0.929 1_565 S
H296 C310 0.930 . S
H297 C312 0.960 . S
H298 C312 0.960 1_545 S
H299 C312 0.960 . S
C300 H292 0.929 . S
C300 C301 1.377 . S
C300 C302 1.384 . S
C301 C300 1.377 . S
C301 C307 1.390 . S
C302 H293 0.930 . S
C302 C300 1.384 . S
C302 C303 1.372 . S
C303 C302 1.372 . S
C303 C304 1.400 1_545 S
C303 C308 1.490 . S
C304 H294 0.930 . S
C304 C303 1.400 1_565 S
C304 C307 1.386 1_565 S
H305 C321 0.930 1_455 S
H306 C322 0.931 . S
C307 H295 0.929 1_545 S
C307 C301 1.390 . S
C307 C304 1.386 1_545 S
C308 C303 1.490 . S
C308 C310 1.395 . S
C308 C311 1.403 1_545 S
H309 C315 0.930 . S
C310 H296 0.930 . S
C310 C308 1.395 . S
C310 C313 1.403 . S
C311 C308 1.403 1_565 S
C311 C312 1.524 . S
C311 C315 1.400 . S
C312 H297 0.960 . S
C312 H298 0.960 1_565 S
C312 H299 0.960 . S
C312 C311 1.524 . S
C313 C310 1.403 . S
C313 C314 1.392 1_545 S
C313 C317 1.495 . S
C314 C313 1.392 1_565 S
C314 C315 1.385 . S
C314 C316 1.478 . S
C315 H309 0.930 . S
C315 C311 1.400 . S
C315 C314 1.385 . S
C316 C314 1.478 . S
C316 C318 1.355 1_565 S
C316 C322 1.383 . S
C317 C313 1.495 . S
C317 H323 0.959 . S
C317 H324 0.961 1_545 S
C317 H325 0.960 . S
C318 C316 1.355 1_545 S
C318 C319 1.382 1_645 S
C318 H326 0.970 . S
C319 C318 1.382 1_465 S
C319 C320 1.383 . S
C319 H327 0.929 1_565 S
C320 C319 1.383 . S
C320 C321 1.377 1_455 S
C321 H305 0.930 1_655 S
C321 C320 1.377 1_655 S
C321 C322 1.379 . S
C322 H306 0.931 . S
C322 C316 1.383 . S
C322 C321 1.379 . S
H323 C317 0.959 . S
H324 C317 0.961 1_565 S
H325 C317 0.960 . S
H326 C318 0.970 . S
H327 C319 0.929 1_545 S
H328 C336 0.929 . S
H329 C338 0.930 . S
H330 C340 0.930 . S
H331 C343 0.929 . S
H332 C346 0.930 . S
H333 C348 0.960 . S
H334 C348 0.960 . S
H335 C348 0.960 . S
C336 H328 0.929 . S
C336 C337 1.377 . S
C336 C338 1.384 . S
C337 C336 1.377 . S
C337 C343 1.390 . S
C338 H329 0.930 . S
C338 C336 1.384 . S
C338 C339 1.372 . S
C339 C338 1.372 . S
C339 C340 1.400 . S
C339 C344 1.490 . S
C340 H330 0.930 . S
C340 C339 1.400 . S
C340 C343 1.386 . S
H341 C357 0.929 . S
H342 C358 0.931 . S
C343 H331 0.929 . S
C343 C337 1.390 . S
C343 C340 1.386 . S
C344 C339 1.490 . S
C344 C346 1.395 . S
C344 C347 1.403 . S
H345 C351 0.930 . S
C346 H332 0.930 . S
C346 C344 1.395 . S
C346 C349 1.403 . S
C347 C344 1.403 . S
C347 C348 1.524 . S
C347 C351 1.400 . S
C348 H333 0.960 . S
C348 H334 0.960 . S
C348 H335 0.960 . S
C348 C347 1.524 . S
C349 C346 1.403 . S
C349 C350 1.392 . S
C349 C353 1.495 . S
C350 C349 1.392 . S
C350 C351 1.385 . S
C350 C352 1.478 . S
C351 H345 0.930 . S
C351 C347 1.400 . S
C351 C350 1.385 . S
C352 C350 1.478 . S
C352 C354 1.381 . S
C352 C358 1.383 . S
C353 C349 1.495 . S
C353 H359 0.959 . S
C353 H360 0.961 . S
C353 H361 0.960 . S
C354 C352 1.381 . S
C354 C355 1.394 1_455 S
C354 H362 0.930 . S
C355 C354 1.394 1_655 S
C355 C356 1.383 . S
C355 H363 0.929 . S
C356 C355 1.383 . S
C356 C357 1.376 . S
C357 H341 0.929 . S
C357 C356 1.376 . S
C357 C358 1.380 1_655 S
C358 H342 0.931 . S
C358 C352 1.383 . S
C358 C357 1.380 1_455 S
H359 C353 0.959 . S
H360 C353 0.961 . S
H361 C353 0.960 . S
H362 C354 0.930 . S
H363 C355 0.929 . S
H364 C372 0.942 . S
H365 C374 0.930 1_545 S
H366 C376 0.930 . S
H367 C379 0.929 . S
H368 C382 0.930 . S
H369 C384 0.960 . S
H370 C384 0.960 . S
H371 C384 0.960 1_565 S
C372 H364 0.942 . S
C372 C373 1.377 . S
C372 C374 1.384 . S
C373 C372 1.377 . S
C373 C379 1.390 . S
C374 H365 0.930 1_565 S
C374 C372 1.384 . S
C374 C375 1.372 . S
C375 C374 1.372 . S
C375 C376 1.400 . S
C375 C380 1.490 . S
C376 H366 0.930 . S
C376 C375 1.400 . S
C376 C379 1.386 . S
H377 C393 0.940 . S
H378 C394 0.931 1_565 S
C379 H367 0.929 . S
C379 C373 1.390 . S
C379 C376 1.386 . S
C380 C375 1.490 . S
C380 C382 1.395 . S
C380 C383 1.403 1_565 S
H381 C387 0.930 . S
C382 H368 0.930 . S
C382 C380 1.395 . S
C382 C385 1.403 1_565 S
C383 C380 1.403 1_545 S
C383 C384 1.524 . S
C383 C387 1.400 . S
C384 H369 0.960 . S
C384 H370 0.960 . S
C384 H371 0.960 1_545 S
C384 C383 1.524 . S
C385 C382 1.403 1_545 S
C385 C386 1.392 . S
C385 C389 1.495 . S
C386 C385 1.392 . S
C386 C387 1.385 . S
C386 C388 1.478 . S
C387 H381 0.930 . S
C387 C383 1.400 . S
C387 C386 1.385 . S
C388 C386 1.478 . S
C388 C390 1.381 . S
C388 C394 1.383 . S
C389 C385 1.495 . S
C389 H395 0.959 1_545 S
C389 H396 0.961 1_545 S
C389 H397 0.960 . S
C390 C388 1.381 . S
C390 C391 1.394 . S
C390 H398 0.930 . S
C391 C390 1.394 . S
C391 C392 1.383 . S
C391 H399 0.929 . S
C392 C391 1.383 . S
C392 C393 1.377 . S
C393 H377 0.940 . S
C393 C392 1.377 . S
C393 C394 1.379 . S
C394 H378 0.931 1_545 S
C394 C388 1.383 . S
C394 C393 1.379 . S
H395 C389 0.959 1_565 S
H396 C389 0.961 1_565 S
H397 C389 0.960 . S
H398 C390 0.930 . S
H399 C391 0.929 . S
H400 C408 0.929 . S
H401 C410 0.930 1_655 S
H402 C412 0.930 . S
H403 C415 0.929 . S
H404 C418 0.930 . S
H405 C420 0.962 . S
H406 C420 0.964 . S
H407 C420 0.954 1_455 S
C408 H400 0.929 . S
C408 C409 1.377 . S
C408 C410 1.384 . S
C409 C408 1.377 . S
C409 C415 1.390 . S
C410 H401 0.930 1_455 S
C410 C408 1.384 . S
C410 C411 1.372 . S
C411 C410 1.372 . S
C411 C412 1.400 . S
C411 C416 1.490 . S
C412 H402 0.930 . S
C412 C411 1.400 . S
C412 C415 1.386 . S
H413 C429 0.930 . S
H414 C430 0.931 1_455 S
C415 H403 0.929 . S
C415 C409 1.390 . S
C415 C412 1.386 . S
C416 C411 1.490 . S
C416 C418 1.395 . S
C416 C419 1.406 . S
H417 C423 0.930 . S
C418 H404 0.930 . S
C418 C416 1.395 . S
C418 C421 1.403 1_455 S
C419 C416 1.406 . S
C419 C420 1.524 1_455 S
C419 C423 1.396 1_455 S
C420 H405 0.962 . S
C420 H406 0.964 . S
C420 H407 0.954 1_655 S
C420 C419 1.524 1_655 S
C421 C418 1.403 1_655 S
C421 C422 1.392 . S
C421 C425 1.495 . S
C422 C421 1.392 . S
C422 C423 1.385 . S
C422 C424 1.478 . S
C423 H417 0.930 . S
C423 C419 1.396 1_655 S
C423 C422 1.385 . S
C424 C422 1.478 . S
C424 C426 1.381 . S
C424 C430 1.383 . S
C425 C421 1.495 . S
C425 H431 0.959 1_655 S
C425 H432 0.961 1_655 S
C425 H433 0.960 . S
C426 C424 1.381 . S
C426 C427 1.394 . S
C426 H434 0.930 . S
C427 C426 1.394 . S
C427 C428 1.383 . S
C427 H435 0.929 . S
C428 C427 1.383 . S
C428 C429 1.377 . S
C429 H413 0.930 . S
C429 C428 1.377 . S
C429 C430 1.379 . S
C430 H414 0.931 1_655 S
C430 C424 1.383 . S
C430 C429 1.379 . S
H431 C425 0.959 1_455 S
H432 C425 0.961 1_455 S
H433 C425 0.960 . S
H434 C426 0.930 . S
H435 C427 0.929 . S
H436 C444 0.929 . S
H437 C446 0.930 1_545 S
H438 C448 0.930 . S
H439 C451 0.929 . S
H440 C454 0.930 . S
H441 C456 0.960 . S
H442 C456 0.960 . S
H443 C456 0.960 . S
C444 H436 0.929 . S
C444 C445 1.377 . S
C444 C446 1.384 . S
C445 C444 1.377 . S
C445 C451 1.390 . S
C446 H437 0.930 1_565 S
C446 C444 1.384 . S
C446 C447 1.372 . S
C447 C446 1.372 . S
C447 C448 1.400 . S
C447 C452 1.490 . S
C448 H438 0.930 . S
C448 C447 1.400 . S
C448 C451 1.386 . S
H449 C465 0.930 . S
H450 C466 0.931 1_565 S
C451 H439 0.929 . S
C451 C445 1.390 . S
C451 C448 1.386 . S
C452 C447 1.490 . S
C452 C454 1.395 1_565 S
C452 C455 1.403 . S
H453 C459 0.930 . S
C454 H440 0.930 . S
C454 C452 1.395 1_545 S
C454 C457 1.403 . S
C455 C452 1.403 . S
C455 C456 1.524 . S
C455 C459 1.400 . S
C456 H441 0.960 . S
C456 H442 0.960 . S
C456 H443 0.960 . S
C456 C455 1.524 . S
C457 C454 1.403 . S
C457 C458 1.392 . S
C457 C461 1.495 . S
C458 C457 1.392 . S
C458 C459 1.385 1_545 S
C458 C460 1.478 . S
C459 H453 0.930 . S
C459 C455 1.400 . S
C459 C458 1.385 1_565 S
C460 C458 1.478 . S
C460 C462 1.381 . S
C460 C466 1.383 . S
C461 C457 1.495 . S
C461 H467 0.959 . S
C461 H468 0.961 . S
C461 H469 0.960 . S
C462 C460 1.381 . S
C462 C463 1.394 . S
C462 H470 0.930 . S
C463 C462 1.394 . S
C463 C464 1.383 . S
C463 H471 0.929 . S
C464 C463 1.383 . S
C464 C465 1.377 . S
C465 H449 0.930 . S
C465 C464 1.377 . S
C465 C466 1.379 . S
C466 H450 0.931 1_545 S
C466 C460 1.383 . S
C466 C465 1.379 . S
H467 C461 0.959 . S
H468 C461 0.961 . S
H469 C461 0.960 . S
H470 C462 0.930 . S
H471 C463 0.929 . S
H472 C480 0.929 . S
H473 C482 0.930 . S
H474 C484 0.930 . S
H475 C487 0.929 . S
H476 C490 0.931 . S
H477 C492 0.960 . S
H478 C492 0.960 . S
H479 C492 0.960 . S
C480 H472 0.929 . S
C480 C481 1.377 . S
C480 C482 1.384 . S
C481 C480 1.377 . S
C481 C487 1.390 . S
C482 H473 0.930 . S
C482 C480 1.384 . S
C482 C483 1.372 . S
C483 C482 1.372 . S
C483 C484 1.400 . S
C483 C488 1.490 . S
C484 H474 0.930 . S
C484 C483 1.400 . S
C484 C487 1.386 . S
H485 C501 0.930 . S
H486 C502 0.931 . S
C487 H475 0.929 . S
C487 C481 1.390 . S
C487 C484 1.386 . S
C488 C483 1.490 . S
C488 C490 1.405 . S
C488 C491 1.403 . S
H489 C495 0.930 . S
C490 H476 0.931 . S
C490 C488 1.405 . S
C490 C493 1.392 1_554 S
C491 C488 1.403 . S
C491 C492 1.524 . S
C491 C495 1.400 1_554 S
C492 H477 0.960 . S
C492 H478 0.960 . S
C492 H479 0.960 . S
C492 C491 1.524 . S
C493 C490 1.392 1_556 S
C493 C494 1.392 . S
C493 C497 1.495 . S
C494 C493 1.392 . S
C494 C495 1.385 . S
C494 C496 1.478 . S
C495 H489 0.930 . S
C495 C491 1.400 1_556 S
C495 C494 1.385 . S
C496 C494 1.478 . S
C496 C498 1.381 . S
C496 C502 1.383 . S
C497 C493 1.495 . S
C497 H503 0.959 . S
C497 H504 0.961 . S
C497 H505 0.960 . S
C498 C496 1.381 . S
C498 C499 1.394 . S
C498 H506 0.930 . S
C499 C498 1.394 . S
C499 C500 1.383 . S
C499 H507 0.929 . S
C500 C499 1.383 . S
C500 C501 1.377 . S
C501 H485 0.930 . S
C501 C500 1.377 . S
C501 C502 1.379 . S
C502 H486 0.931 . S
C502 C496 1.383 . S
C502 C501 1.379 . S
H503 C497 0.959 . S
H504 C497 0.961 . S
H505 C497 0.960 . S
H506 C498 0.930 . S
H507 C499 0.929 . S
H508 C516 0.929 . S
H509 C518 0.930 . S
H510 C520 0.930 1_545 S
H511 C523 0.929 1_545 S
H512 C526 0.928 1_556 S
H513 C528 0.960 . S
H514 C528 0.959 1_565 S
H515 C528 0.960 . S
C516 H508 0.929 . S
C516 C517 1.377 . S
C516 C518 1.384 . S
C517 C516 1.377 . S
C517 C523 1.390 . S
C518 H509 0.930 . S
C518 C516 1.384 . S
C518 C519 1.372 . S
C519 C518 1.372 . S
C519 C520 1.400 . S
C519 C524 1.490 . S
C520 H510 0.930 1_565 S
C520 C519 1.400 . S
C520 C523 1.386 . S
H521 C537 0.930 . S
H522 C538 0.931 . S
C523 H511 0.929 1_565 S
C523 C517 1.390 . S
C523 C520 1.386 . S
C524 C519 1.490 . S
C524 C526 1.383 1_556 S
C524 C527 1.403 1_465 S
H525 C531 0.930 . S
C526 H512 0.928 1_554 S
C526 C524 1.383 1_554 S
C526 C529 1.416 . S
C527 C524 1.403 1_645 S
C527 C528 1.524 . S
C527 C531 1.400 1_556 S
C528 H513 0.960 . S
C528 H514 0.959 1_545 S
C528 H515 0.960 . S
C528 C527 1.524 . S
C529 C526 1.416 . S
C529 C530 1.392 1_465 S
C529 C533 1.495 . S
C530 C529 1.392 1_645 S
C530 C531 1.385 . S
C530 C532 1.478 . S
C531 H525 0.930 . S
C531 C527 1.400 1_554 S
C531 C530 1.385 . S
C532 C530 1.478 . S
C532 C534 1.361 1_545 S
C532 C538 1.383 . S
C533 C529 1.495 . S
C533 H539 0.959 . S
C533 H540 0.961 . S
C533 H541 0.960 . S
C534 C532 1.361 1_565 S
C534 C535 1.383 1_565 S
C534 H542 0.963 . S
C535 C534 1.383 1_545 S
C535 C536 1.383 . S
C535 H543 0.929 1_545 S
C536 C535 1.383 . S
C536 C537 1.377 . S
C537 H521 0.930 . S
C537 C536 1.377 . S
C537 C538 1.379 . S
C538 H522 0.931 . S
C538 C532 1.383 . S
C538 C537 1.379 . S
H539 C533 0.959 . S
H540 C533 0.961 . S
H541 C533 0.960 . S
H542 C534 0.963 . S
H543 C535 0.929 1_565 S
H544 C552 0.929 . S
H545 C554 0.930 . S
H546 C556 0.930 . S
H547 C559 0.929 . S
H548 C562 0.930 . S
H549 C564 0.960 . S
H550 C564 0.960 . S
H551 C564 0.960 . S
C552 H544 0.929 . S
C552 C553 1.377 . S
C552 C554 1.384 . S
C553 C552 1.377 . S
C553 C559 1.390 . S
C554 H545 0.930 . S
C554 C552 1.384 . S
C554 C555 1.372 . S
C555 C554 1.372 . S
C555 C556 1.400 . S
C555 C560 1.490 . S
C556 H546 0.930 . S
C556 C555 1.400 . S
C556 C559 1.386 . S
H557 C573 0.930 . S
H558 C574 0.931 . S
C559 H547 0.929 . S
C559 C553 1.390 . S
C559 C556 1.386 . S
C560 C555 1.490 . S
C560 C562 1.395 . S
C560 C563 1.403 . S
H561 C567 0.930 . S
C562 H548 0.930 . S
C562 C560 1.395 . S
C562 C565 1.403 . S
C563 C560 1.403 . S
C563 C564 1.524 . S
C563 C567 1.400 . S
C564 H549 0.960 . S
C564 H550 0.960 . S
C564 H551 0.960 . S
C564 C563 1.524 . S
C565 C562 1.403 . S
C565 C566 1.392 . S
C565 C569 1.495 . S
C566 C565 1.392 . S
C566 C567 1.385 . S
C566 C568 1.478 . S
C567 H561 0.930 . S
C567 C563 1.400 . S
C567 C566 1.385 . S
C568 C566 1.478 . S
C568 C570 1.381 . S
C568 C574 1.383 . S
C569 C565 1.495 . S
C569 H575 0.959 . S
C569 H576 0.961 . S
C569 H577 0.960 . S
C570 C568 1.381 . S
C570 C571 1.394 . S
C570 H578 0.930 . S
C571 C570 1.394 . S
C571 C572 1.383 . S
C571 H579 0.929 . S
C572 C571 1.383 . S
C572 C573 1.377 . S
C573 H557 0.930 . S
C573 C572 1.377 . S
C573 C574 1.379 . S
C574 H558 0.931 . S
C574 C568 1.383 . S
C574 C573 1.379 . S
H575 C569 0.959 . S
H576 C569 0.961 . S
H577 C569 0.960 . S
H578 C570 0.930 . S
H579 C571 0.929 . S
H580 C588 0.929 . S
H581 C590 0.930 . S
H582 C592 0.930 . S
H583 C595 0.929 . S
H584 C598 0.930 . S
H585 C600 0.960 . S
H586 C600 0.960 . S
H587 C600 0.960 . S
C588 H580 0.929 . S
C588 C589 1.377 . S
C588 C590 1.384 . S
C589 C588 1.377 . S
C589 C595 1.390 . S
C590 H581 0.930 . S
C590 C588 1.384 . S
C590 C591 1.372 . S
C591 C590 1.372 . S
C591 C592 1.400 . S
C591 C596 1.490 . S
C592 H582 0.930 . S
C592 C591 1.400 . S
C592 C595 1.386 . S
H593 C609 0.930 . S
H594 C610 0.931 . S
C595 H583 0.929 . S
C595 C589 1.390 . S
C595 C592 1.386 . S
C596 C591 1.490 . S
C596 C598 1.395 . S
C596 C599 1.403 . S
H597 C603 0.930 . S
C598 H584 0.930 . S
C598 C596 1.395 . S
C598 C601 1.403 . S
C599 C596 1.403 . S
C599 C600 1.524 . S
C599 C603 1.400 . S
C600 H585 0.960 . S
C600 H586 0.960 . S
C600 H587 0.960 . S
C600 C599 1.524 . S
C601 C598 1.403 . S
C601 C602 1.392 . S
C601 C605 1.495 . S
C602 C601 1.392 . S
C602 C603 1.385 . S
C602 C604 1.478 . S
C603 H597 0.930 . S
C603 C599 1.400 . S
C603 C602 1.385 . S
C604 C602 1.478 . S
C604 C606 1.381 . S
C604 C610 1.383 . S
C605 C601 1.495 . S
C605 H611 0.959 . S
C605 H612 0.961 . S
C605 H613 0.960 . S
C606 C604 1.381 . S
C606 C607 1.394 . S
C606 H614 0.930 . S
C607 C606 1.394 . S
C607 C608 1.383 . S
C607 H615 0.929 . S
C608 C607 1.383 . S
C608 C609 1.377 . S
C609 H593 0.930 . S
C609 C608 1.377 . S
C609 C610 1.379 . S
C610 H594 0.931 . S
C610 C604 1.383 . S
C610 C609 1.379 . S
H611 C605 0.959 . S
H612 C605 0.961 . S
H613 C605 0.960 . S
H614 C606 0.930 . S
H615 C607 0.929 . S
H616 C624 0.929 . S
H617 C626 0.930 . S
H618 C628 0.930 . S
H619 C631 0.929 . S
H620 C634 0.930 . S
H621 C636 0.960 . S
H622 C636 0.960 . S
H623 C636 0.960 . S
C624 H616 0.929 . S
C624 C625 1.377 . S
C624 C626 1.384 . S
C625 C624 1.377 . S
C625 C631 1.390 . S
C626 H617 0.930 . S
C626 C624 1.384 . S
C626 C627 1.372 . S
C627 C626 1.372 . S
C627 C628 1.400 . S
C627 C632 1.490 . S
C628 H618 0.930 . S
C628 C627 1.400 . S
C628 C631 1.386 . S
H629 C645 0.930 . S
H630 C646 0.931 . S
C631 H619 0.929 . S
C631 C625 1.390 . S
C631 C628 1.386 . S
C632 C627 1.490 . S
C632 C634 1.395 . S
C632 C635 1.403 . S
H633 C639 0.930 . S
C634 H620 0.930 . S
C634 C632 1.395 . S
C634 C637 1.403 . S
C635 C632 1.403 . S
C635 C636 1.524 . S
C635 C639 1.400 . S
C636 H621 0.960 . S
C636 H622 0.960 . S
C636 H623 0.960 . S
C636 C635 1.524 . S
C637 C634 1.403 . S
C637 C638 1.392 . S
C637 C641 1.495 . S
C638 C637 1.392 . S
C638 C639 1.385 . S
C638 C640 1.478 . S
C639 H633 0.930 . S
C639 C635 1.400 . S
C639 C638 1.385 . S
C640 C638 1.478 . S
C640 C642 1.381 . S
C640 C646 1.383 . S
C641 C637 1.495 . S
C641 H647 0.959 . S
C641 H648 0.961 . S
C641 H649 0.960 . S
C642 C640 1.381 . S
C642 C643 1.394 . S
C642 H650 0.930 . S
C643 C642 1.394 . S
C643 C644 1.383 . S
C643 H651 0.929 . S
C644 C643 1.383 . S
C644 C645 1.377 . S
C645 H629 0.930 . S
C645 C644 1.377 . S
C645 C646 1.379 . S
C646 H630 0.931 . S
C646 C640 1.383 . S
C646 C645 1.379 . S
H647 C641 0.959 . S
H648 C641 0.961 . S
H649 C641 0.960 . S
H650 C642 0.930 . S
H651 C643 0.929 . S
H652 C660 0.929 . S
H653 C662 0.930 . S
H654 C664 0.930 . S
H655 C667 0.929 . S
H656 C670 0.930 . S
H657 C672 0.960 . S
H658 C672 0.960 . S
H659 C672 0.960 . S
C660 H652 0.929 . S
C660 C661 1.377 . S
C660 C662 1.384 . S
C661 C660 1.377 . S
C661 C667 1.390 . S
C662 H653 0.930 . S
C662 C660 1.384 . S
C662 C663 1.372 . S
C663 C662 1.372 . S
C663 C664 1.400 . S
C663 C668 1.490 . S
C664 H654 0.930 . S
C664 C663 1.400 . S
C664 C667 1.386 . S
H665 C681 0.930 . S
H666 C682 0.931 . S
C667 H655 0.929 . S
C667 C661 1.390 . S
C667 C664 1.386 . S
C668 C663 1.490 . S
C668 C670 1.395 . S
C668 C671 1.403 . S
H669 C675 0.930 . S
C670 H656 0.930 . S
C670 C668 1.395 . S
C670 C673 1.403 . S
C671 C668 1.403 . S
C671 C672 1.524 . S
C671 C675 1.400 . S
C672 H657 0.960 . S
C672 H658 0.960 . S
C672 H659 0.960 . S
C672 C671 1.524 . S
C673 C670 1.403 . S
C673 C674 1.392 . S
C673 C677 1.495 . S
C674 C673 1.392 . S
C674 C675 1.385 . S
C674 C676 1.478 . S
C675 H669 0.930 . S
C675 C671 1.400 . S
C675 C674 1.385 . S
C676 C674 1.478 . S
C676 C678 1.381 . S
C676 C682 1.383 . S
C677 C673 1.495 . S
C677 H683 0.959 . S
C677 H684 0.961 . S
C677 H685 0.960 . S
C678 C676 1.381 . S
C678 C679 1.394 . S
C678 H686 0.930 . S
C679 C678 1.394 . S
C679 C680 1.383 . S
C679 H687 0.929 . S
C680 C679 1.383 . S
C680 C681 1.377 . S
C681 H665 0.930 . S
C681 C680 1.377 . S
C681 C682 1.379 . S
C682 H666 0.931 . S
C682 C676 1.383 . S
C682 C681 1.379 . S
H683 C677 0.959 . S
H684 C677 0.961 . S
H685 C677 0.960 . S
H686 C678 0.930 . S
H687 C679 0.929 . S
C121 C5 1.391 . S
C140 C37 1.390 . S
C157 C51 1.392 . S
C176 C19 1.388 . S
C193 C33 1.391 . S
C212 C9 1.384 . S
C229 C47 1.391 . S
C248 C23 1.384 . S
C265 C93 1.389 . S
C284 C61 1.393 . S
C301 C75 1.390 . S
C320 C107 1.384 . S
C337 C89 1.390 . S
C356 C65 1.388 . S
C373 C103 1.390 . S
C392 C79 1.388 . S
C409 C11 1.511 . S
C428 C67 1.517 . S
C445 C25 1.509 . S
C464 C81 1.512 . S
C481 C39 1.509 . S
C500 C95 1.501 . S
C517 C109 1.511 . S
C536 C53 1.501 . S
C553 C0 1.512 . S
C572 C14 1.502 . S
C589 C42 1.507 . S
C608 C28 1.497 . S
C625 C70 1.507 . S
C644 C56 1.506 . S
C661 C84 1.508 . S
C680 C98 1.520 . S
